5146
  -OEChem-07051212473D

 17 17  0     0  0  0  0  0  0999 V2000
    0.6960   -2.0866    0.1126 O   0  0  0  0  0  0  0  0  0  0  0  0
    2.6327    0.5943   -0.7300 O   0  0  0  0  0  0  0  0  0  0  0  0
    0.4887    0.2974    0.2556 C   0  0  0  0  0  0  0  0  0  0  0  0
   -0.0753   -0.9643    0.0674 C   0  0  0  0  0  0  0  0  0  0  0  0
    1.9523    0.4489    0.5098 C   0  0  0  0  0  0  0  0  0  0  0  0
   -0.3161    1.4356    0.2062 C   0  0  0  0  0  0  0  0  0  0  0  0
   -1.4442   -1.0879   -0.1704 C   0  0  0  0  0  0  0  0  0  0  0  0
   -1.6850    1.3122   -0.0315 C   0  0  0  0  0  0  0  0  0  0  0  0
   -2.2491    0.0503   -0.2198 C   0  0  0  0  0  0  0  0  0  0  0  0
    2.1516    1.3341    1.1244 H   0  0  0  0  0  0  0  0  0  0  0  0
    2.3634   -0.4138    1.0449 H   0  0  0  0  0  0  0  0  0  0  0  0
    0.1106    2.4249    0.3489 H   0  0  0  0  0  0  0  0  0  0  0  0
   -1.8972   -2.0645   -0.3189 H   0  0  0  0  0  0  0  0  0  0  0  0
   -2.3117    2.1983   -0.0707 H   0  0  0  0  0  0  0  0  0  0  0  0
   -3.3149   -0.0457   -0.4050 H   0  0  0  0  0  0  0  0  0  0  0  0
    0.1331   -2.8651   -0.0392 H   0  0  0  0  0  0  0  0  0  0  0  0
    3.5778    0.6981   -0.5262 H   0  0  0  0  0  0  0  0  0  0  0  0
  1  4  1  0  0  0  0
  1 16  1  0  0  0  0
  2  5  1  0  0  0  0
  2 17  1  0  0  0  0
  3  4  1  0  0  0  0
  3  5  1  0  0  0  0
  3  6  2  0  0  0  0
  4  7  2  0  0  0  0
  5 10  1  0  0  0  0
  5 11  1  0  0  0  0
  6  8  1  0  0  0  0
  6 12  1  0  0  0  0
  7  9  1  0  0  0  0
  7 13  1  0  0  0  0
  8  9  2  0  0  0  0
  8 14  1  0  0  0  0
  9 15  1  0  0  0  0
M  END
> <PUBCHEM_COMPOUND_CID>
5146

> <PUBCHEM_CONFORMER_RMSD>
0.4

> <PUBCHEM_CONFORMER_DIVERSEORDER>
2
4
1
3

> <PUBCHEM_MMFF94_PARTIAL_CHARGES>
15
1 -0.53
12 0.15
13 0.15
14 0.15
15 0.15
16 0.45
17 0.4
2 -0.68
3 -0.14
4 0.08
5 0.42
6 -0.15
7 -0.15
8 -0.15
9 -0.15

> <PUBCHEM_EFFECTIVE_ROTOR_COUNT>
1

> <PUBCHEM_PHARMACOPHORE_FEATURES>
4
1 1 donor
1 2 acceptor
1 2 donor
6 3 4 6 7 8 9 rings

> <PUBCHEM_HEAVY_ATOM_COUNT>
9

> <PUBCHEM_ATOM_DEF_STEREO_COUNT>
0

> <PUBCHEM_ATOM_UDEF_STEREO_COUNT>
0

> <PUBCHEM_BOND_DEF_STEREO_COUNT>
0

> <PUBCHEM_BOND_UDEF_STEREO_COUNT>
0

> <PUBCHEM_ISOTOPIC_ATOM_COUNT>
0

> <PUBCHEM_COMPONENT_COUNT>
1

> <PUBCHEM_CACTVS_TAUTO_COUNT>
3

> <PUBCHEM_CONFORMER_ID>
0000141A00000002

> <PUBCHEM_MMFF94_ENERGY>
20.011

> <PUBCHEM_FEATURE_SELFOVERLAP>
20.297

> <PUBCHEM_SHAPE_FINGERPRINT>
12423570 1 10281698540751709707
12897270 3 18410296908279481901
16714656 1 18338796710754704181
16945 1 18409737244213334321
18185500 45 18337402598962139601
20645464 45 17896051948804422040
21040471 1 18337399334607789601
23235685 24 18413111658247067861
23552423 10 18270120265301512451
241688 4 15885741623312610427
2748010 2 17906182750131913725
5084963 1 18041840597482206393

> <PUBCHEM_SHAPE_MULTIPOLES>
173.48
2.89
1.73
0.69
0.83
0.5
0.02
-0.58
0.42
-0.16
-0.06
0.16
-0.06
-0.09

> <PUBCHEM_SHAPE_SELFOVERLAP>
358.874

> <PUBCHEM_SHAPE_VOLUME>
99.7

> <PUBCHEM_COORDINATE_TYPE>
2
5
10

$$$$

