46173851
  -OEChem-07051213093D

106110  0     1  0  0  0  0  0999 V2000
    1.8705    0.1128    0.1611 O   0  0  0  0  0  0  0  0  0  0  0  0
    3.1925   -0.5700   -1.6199 O   0  0  0  0  0  0  0  0  0  0  0  0
    0.9935    2.5645    5.1412 O   0  0  0  0  0  0  0  0  0  0  0  0
    4.2161   -4.0445    0.3090 O   0  0  0  0  0  0  0  0  0  0  0  0
    5.7849   -3.1499   -1.9370 O   0  0  0  0  0  0  0  0  0  0  0  0
    4.3486    0.3384   -3.9377 O   0  0  0  0  0  0  0  0  0  0  0  0
   -3.5841   -3.2394    1.0158 O   0  0  0  0  0  0  0  0  0  0  0  0
    0.8420   -1.8051    2.1848 O   0  0  0  0  0  0  0  0  0  0  0  0
   -2.0967   -2.8856    2.7477 O   0  0  0  0  0  0  0  0  0  0  0  0
    3.1475   -1.8100    1.8653 N   0  0  0  0  0  0  0  0  0  0  0  0
   -1.4514    1.8833   -2.6764 C   0  0  1  0  0  0  0  0  0  0  0  0
   -0.0761    1.3801   -2.1640 C   0  0  1  0  0  0  0  0  0  0  0  0
    0.2613    1.7482   -0.6820 C   0  0  2  0  0  0  0  0  0  0  0  0
   -0.0553    3.2313   -0.3569 C   0  0  2  0  0  0  0  0  0  0  0  0
   -2.4116    0.8287   -2.0660 C   0  0  2  0  0  0  0  0  0  0  0  0
   -1.7456    3.3266   -2.2391 C   0  0  0  0  0  0  0  0  0  0  0  0
   -0.1766   -0.1451   -2.3587 C   0  0  0  0  0  0  0  0  0  0  0  0
    0.2716    3.6055    1.1479 C   0  0  2  0  0  0  0  0  0  0  0  0
   -1.4934    3.5918   -0.7630 C   0  0  0  0  0  0  0  0  0  0  0  0
   -1.6583   -0.5028   -2.2074 C   0  0  0  0  0  0  0  0  0  0  0  0
    1.7606    1.4277   -0.3915 C   0  0  1  0  0  0  0  0  0  0  0  0
   -3.8150    0.7672   -2.6574 C   0  0  1  0  0  0  0  0  0  0  0  0
   -1.4891    1.8613   -4.2253 C   0  0  0  0  0  0  0  0  0  0  0  0
    1.4999    2.8388    1.6311 C   0  0  0  0  0  0  0  0  0  0  0  0
    2.4559    2.4132    0.5531 C   0  0  0  0  0  0  0  0  0  0  0  0
   -0.9037    3.2810    2.1062 C   0  0  0  0  0  0  0  0  0  0  0  0
    0.5870    5.1200    1.2114 C   0  0  0  0  0  0  0  0  0  0  0  0
   -4.5307   -0.5655   -2.3580 C   0  0  0  0  0  0  0  0  0  0  0  0
   -0.5614    3.4933    3.5781 C   0  0  0  0  0  0  0  0  0  0  0  0
   -4.6582    1.9294   -2.1219 C   0  0  0  0  0  0  0  0  0  0  0  0
    1.7074    2.4787    2.9078 C   0  0  0  0  0  0  0  0  0  0  0  0
    0.7285    2.8148    3.9663 C   0  0  0  0  0  0  0  0  0  0  0  0
    3.1010   -0.4921   -0.1984 C   0  0  2  0  0  0  0  0  0  0  0  0
   -4.7575   -0.8128   -0.8624 C   0  0  0  0  0  0  0  0  0  0  0  0
    3.1451   -1.8940    0.4193 C   0  0  1  0  0  0  0  0  0  0  0  0
   -5.5316   -2.1155   -0.6293 C   0  0  0  0  0  0  0  0  0  0  0  0
    4.3699   -2.6745   -0.0674 C   0  0  2  0  0  0  0  0  0  0  0  0
    4.4244   -1.1417   -2.0639 C   0  0  1  0  0  0  0  0  0  0  0  0
    4.5201   -2.5935   -1.5882 C   0  0  1  0  0  0  0  0  0  0  0  0
   -5.8570   -2.3776    0.8557 C   0  0  2  0  0  0  0  0  0  0  0  0
    4.4522   -1.0290   -3.5848 C   0  0  0  0  0  0  0  0  0  0  0  0
   -4.5636   -2.4539    1.6809 C   0  0  0  0  0  0  0  0  0  0  0  0
   -6.6857   -3.6523    1.0421 C   0  0  0  0  0  0  0  0  0  0  0  0
    1.9899   -1.7730    2.6204 C   0  0  0  0  0  0  0  0  0  0  0  0
    2.2777   -1.7109    4.0967 C   0  0  0  0  0  0  0  0  0  0  0  0
   -2.3875   -3.3748    1.6645 C   0  0  0  0  0  0  0  0  0  0  0  0
   -1.4581   -4.2229    0.8502 C   0  0  0  0  0  0  0  0  0  0  0  0
    0.7195    1.7825   -2.8048 H   0  0  0  0  0  0  0  0  0  0  0  0
   -0.3570    1.1196   -0.0262 H   0  0  0  0  0  0  0  0  0  0  0  0
    0.6070    3.8323   -0.9996 H   0  0  0  0  0  0  0  0  0  0  0  0
   -2.4977    1.0079   -0.9866 H   0  0  0  0  0  0  0  0  0  0  0  0
   -2.7469    3.6576   -2.5083 H   0  0  0  0  0  0  0  0  0  0  0  0
   -1.0779    3.9963   -2.8011 H   0  0  0  0  0  0  0  0  0  0  0  0
    0.1634   -0.4122   -3.3670 H   0  0  0  0  0  0  0  0  0  0  0  0
    0.4330   -0.7268   -1.6655 H   0  0  0  0  0  0  0  0  0  0  0  0
   -2.2221    3.0316   -0.1694 H   0  0  0  0  0  0  0  0  0  0  0  0
   -1.6807    4.6539   -0.5682 H   0  0  0  0  0  0  0  0  0  0  0  0
   -1.9543   -1.0675   -3.0979 H   0  0  0  0  0  0  0  0  0  0  0  0
   -1.8056   -1.1481   -1.3356 H   0  0  0  0  0  0  0  0  0  0  0  0
    2.3057    1.4944   -1.3408 H   0  0  0  0  0  0  0  0  0  0  0  0
   -3.7881    0.8382   -3.7496 H   0  0  0  0  0  0  0  0  0  0  0  0
   -2.4041    2.3240   -4.6115 H   0  0  0  0  0  0  0  0  0  0  0  0
   -0.6488    2.4310   -4.6396 H   0  0  0  0  0  0  0  0  0  0  0  0
   -1.4288    0.8492   -4.6373 H   0  0  0  0  0  0  0  0  0  0  0  0
    2.7718    3.3046   -0.0036 H   0  0  0  0  0  0  0  0  0  0  0  0
    3.3673    1.9914    0.9890 H   0  0  0  0  0  0  0  0  0  0  0  0
   -1.2103    2.2351    1.9680 H   0  0  0  0  0  0  0  0  0  0  0  0
   -1.7790    3.9000    1.8763 H   0  0  0  0  0  0  0  0  0  0  0  0
   -0.2975    5.7213    0.9762 H   0  0  0  0  0  0  0  0  0  0  0  0
    1.3735    5.3951    0.4987 H   0  0  0  0  0  0  0  0  0  0  0  0
    0.9397    5.4293    2.2015 H   0  0  0  0  0  0  0  0  0  0  0  0
   -5.5095   -0.5463   -2.8573 H   0  0  0  0  0  0  0  0  0  0  0  0
   -4.0075   -1.4171   -2.8042 H   0  0  0  0  0  0  0  0  0  0  0  0
   -1.3672    3.0765    4.1927 H   0  0  0  0  0  0  0  0  0  0  0  0
   -0.4740    4.5587    3.8140 H   0  0  0  0  0  0  0  0  0  0  0  0
   -4.4382    2.1760   -1.0787 H   0  0  0  0  0  0  0  0  0  0  0  0
   -4.5266    2.8234   -2.7349 H   0  0  0  0  0  0  0  0  0  0  0  0
   -5.7290    1.7018   -2.1870 H   0  0  0  0  0  0  0  0  0  0  0  0
    2.5840    1.9153    3.2092 H   0  0  0  0  0  0  0  0  0  0  0  0
    3.9375    0.1054    0.1846 H   0  0  0  0  0  0  0  0  0  0  0  0
   -5.3290    0.0108   -0.4206 H   0  0  0  0  0  0  0  0  0  0  0  0
   -3.7987   -0.8518   -0.3412 H   0  0  0  0  0  0  0  0  0  0  0  0
    2.2352   -2.4370    0.1281 H   0  0  0  0  0  0  0  0  0  0  0  0
   -4.9763   -2.9596   -1.0572 H   0  0  0  0  0  0  0  0  0  0  0  0
   -6.4781   -2.0645   -1.1834 H   0  0  0  0  0  0  0  0  0  0  0  0
    5.2830   -2.3152    0.4231 H   0  0  0  0  0  0  0  0  0  0  0  0
    5.2529   -0.5409   -1.6646 H   0  0  0  0  0  0  0  0  0  0  0  0
    3.7478   -3.2066   -2.0682 H   0  0  0  0  0  0  0  0  0  0  0  0
   -6.4584   -1.5448    1.2425 H   0  0  0  0  0  0  0  0  0  0  0  0
    4.0431   -1.7190    2.3368 H   0  0  0  0  0  0  0  0  0  0  0  0
    5.3820   -1.4308   -3.9985 H   0  0  0  0  0  0  0  0  0  0  0  0
    3.6004   -1.5539   -4.0302 H   0  0  0  0  0  0  0  0  0  0  0  0
   -4.7707   -2.8797    2.6706 H   0  0  0  0  0  0  0  0  0  0  0  0
   -4.1666   -1.4428    1.8342 H   0  0  0  0  0  0  0  0  0  0  0  0
   -6.1392   -4.5352    0.6940 H   0  0  0  0  0  0  0  0  0  0  0  0
   -7.6219   -3.5893    0.4776 H   0  0  0  0  0  0  0  0  0  0  0  0
   -6.9400   -3.8025    2.0966 H   0  0  0  0  0  0  0  0  0  0  0  0
    3.4131   -4.3871   -0.1193 H   0  0  0  0  0  0  0  0  0  0  0  0
    6.4777   -2.5866   -1.5519 H   0  0  0  0  0  0  0  0  0  0  0  0
    4.3622    0.3861   -4.9088 H   0  0  0  0  0  0  0  0  0  0  0  0
    2.7704   -2.6338    4.4151 H   0  0  0  0  0  0  0  0  0  0  0  0
    1.3418   -1.5950    4.6502 H   0  0  0  0  0  0  0  0  0  0  0  0
    2.9241   -0.8563    4.3160 H   0  0  0  0  0  0  0  0  0  0  0  0
   -1.9188   -5.1939    0.6518 H   0  0  0  0  0  0  0  0  0  0  0  0
   -0.5326   -4.3877    1.4093 H   0  0  0  0  0  0  0  0  0  0  0  0
   -1.2173   -3.7119   -0.0854 H   0  0  0  0  0  0  0  0  0  0  0  0
  1 21  1  0  0  0  0
  1 33  1  0  0  0  0
  2 33  1  0  0  0  0
  2 38  1  0  0  0  0
  3 32  2  0  0  0  0
  4 37  1  0  0  0  0
  4 98  1  0  0  0  0
  5 39  1  0  0  0  0
  5 99  1  0  0  0  0
  6 41  1  0  0  0  0
  6100  1  0  0  0  0
  7 42  1  0  0  0  0
  7 46  1  0  0  0  0
  8 44  2  0  0  0  0
  9 46  2  0  0  0  0
 10 35  1  0  0  0  0
 10 44  1  0  0  0  0
 10 90  1  0  0  0  0
 11 12  1  0  0  0  0
 11 15  1  0  0  0  0
 11 16  1  0  0  0  0
 11 23  1  0  0  0  0
 12 13  1  0  0  0  0
 12 17  1  0  0  0  0
 12 48  1  0  0  0  0
 13 14  1  0  0  0  0
 13 21  1  0  0  0  0
 13 49  1  0  0  0  0
 14 18  1  0  0  0  0
 14 19  1  0  0  0  0
 14 50  1  0  0  0  0
 15 20  1  0  0  0  0
 15 22  1  0  0  0  0
 15 51  1  0  0  0  0
 16 19  1  0  0  0  0
 16 52  1  0  0  0  0
 16 53  1  0  0  0  0
 17 20  1  0  0  0  0
 17 54  1  0  0  0  0
 17 55  1  0  0  0  0
 18 24  1  0  0  0  0
 18 26  1  0  0  0  0
 18 27  1  0  0  0  0
 19 56  1  0  0  0  0
 19 57  1  0  0  0  0
 20 58  1  0  0  0  0
 20 59  1  0  0  0  0
 21 25  1  0  0  0  0
 21 60  1  0  0  0  0
 22 28  1  0  0  0  0
 22 30  1  0  0  0  0
 22 61  1  0  0  0  0
 23 62  1  0  0  0  0
 23 63  1  0  0  0  0
 23 64  1  0  0  0  0
 24 25  1  0  0  0  0
 24 31  2  0  0  0  0
 25 65  1  0  0  0  0
 25 66  1  0  0  0  0
 26 29  1  0  0  0  0
 26 67  1  0  0  0  0
 26 68  1  0  0  0  0
 27 69  1  0  0  0  0
 27 70  1  0  0  0  0
 27 71  1  0  0  0  0
 28 34  1  0  0  0  0
 28 72  1  0  0  0  0
 28 73  1  0  0  0  0
 29 32  1  0  0  0  0
 29 74  1  0  0  0  0
 29 75  1  0  0  0  0
 30 76  1  0  0  0  0
 30 77  1  0  0  0  0
 30 78  1  0  0  0  0
 31 32  1  0  0  0  0
 31 79  1  0  0  0  0
 33 35  1  0  0  0  0
 33 80  1  0  0  0  0
 34 36  1  0  0  0  0
 34 81  1  0  0  0  0
 34 82  1  0  0  0  0
 35 37  1  0  0  0  0
 35 83  1  0  0  0  0
 36 40  1  0  0  0  0
 36 84  1  0  0  0  0
 36 85  1  0  0  0  0
 37 39  1  0  0  0  0
 37 86  1  0  0  0  0
 38 39  1  0  0  0  0
 38 41  1  0  0  0  0
 38 87  1  0  0  0  0
 39 88  1  0  0  0  0
 40 42  1  0  0  0  0
 40 43  1  0  0  0  0
 40 89  1  0  0  0  0
 41 91  1  0  0  0  0
 41 92  1  0  0  0  0
 42 93  1  0  0  0  0
 42 94  1  0  0  0  0
 43 95  1  0  0  0  0
 43 96  1  0  0  0  0
 43 97  1  0  0  0  0
 44 45  1  0  0  0  0
 45101  1  0  0  0  0
 45102  1  0  0  0  0
 45103  1  0  0  0  0
 46 47  1  0  0  0  0
 47104  1  0  0  0  0
 47105  1  0  0  0  0
 47106  1  0  0  0  0
M  END
> <PUBCHEM_COMPOUND_CID>
46173851

> <PUBCHEM_CONFORMER_RMSD>
1.4

> <PUBCHEM_CONFORMER_DIVERSEORDER>
2
20
8
19
18
3
13
15
9
17
10
7
12
16
1
4
5
14
6
11

> <PUBCHEM_MMFF94_PARTIAL_CHARGES>
33
1 -0.56
10 -0.73
100 0.4
18 0.14
2 -0.56
21 0.28
24 -0.28
25 0.14
29 0.06
3 -0.57
31 -0.14
32 0.49
33 0.56
35 0.3
37 0.28
38 0.28
39 0.28
4 -0.68
41 0.28
42 0.28
44 0.57
45 0.06
46 0.66
47 0.06
5 -0.68
6 -0.68
7 -0.43
79 0.15
8 -0.57
9 -0.57
90 0.37
98 0.4
99 0.4

> <PUBCHEM_EFFECTIVE_ROTOR_COUNT>
16

> <PUBCHEM_PHARMACOPHORE_FEATURES>
20
1 1 acceptor
1 10 donor
1 2 acceptor
1 3 acceptor
1 30 hydrophobe
1 4 acceptor
1 4 donor
1 43 hydrophobe
1 5 acceptor
1 5 donor
1 6 acceptor
1 6 donor
1 8 acceptor
1 9 acceptor
5 11 12 15 17 20 rings
5 22 28 34 36 40 hydrophobe
6 11 12 13 14 16 19 rings
6 13 14 18 21 24 25 rings
6 18 24 26 29 31 32 rings
6 2 33 35 37 38 39 rings

> <PUBCHEM_HEAVY_ATOM_COUNT>
47

> <PUBCHEM_ATOM_DEF_STEREO_COUNT>
14

> <PUBCHEM_ATOM_UDEF_STEREO_COUNT>
0

> <PUBCHEM_BOND_DEF_STEREO_COUNT>
0

> <PUBCHEM_BOND_UDEF_STEREO_COUNT>
0

> <PUBCHEM_ISOTOPIC_ATOM_COUNT>
0

> <PUBCHEM_COMPONENT_COUNT>
1

> <PUBCHEM_CACTVS_TAUTO_COUNT>
10

> <PUBCHEM_CONFORMER_ID>
02C08E9B00000002

> <PUBCHEM_MMFF94_ENERGY>
136.0559

> <PUBCHEM_FEATURE_SELFOVERLAP>
101.753

> <PUBCHEM_SHAPE_MULTIPOLES>
909.43
10.57
6.73
5.45
9.09
1.12
-1.84
-15.15
4.48
-0.03
-4.53
-2.67
2.54
5.6

> <PUBCHEM_SHAPE_SELFOVERLAP>
1891.397

> <PUBCHEM_SHAPE_VOLUME>
512.9

> <PUBCHEM_COORDINATE_TYPE>
2
5
10

$$$$

