46173869
  -OEChem-07051213103D

 32 32  0     1  0  0  0  0  0999 V2000
    1.1467   -0.1945   -0.3592 S   0  0  0  0  0  0  0  0  0  0  0  0
    4.1572   -0.7361   -1.9166 O   0  0  0  0  0  0  0  0  0  0  0  0
   -5.8594   -0.9519   -1.0344 O   0  0  0  0  0  0  0  0  0  0  0  0
    5.4950    0.3149   -0.4162 O   0  0  0  0  0  0  0  0  0  0  0  0
    1.1868    2.4235   -0.9451 O   0  0  0  0  0  0  0  0  0  0  0  0
    4.5360   -1.3117    1.5804 N   0  0  0  0  0  0  0  0  0  0  0  0
    0.1783    2.2471    0.0009 N   0  0  0  0  0  0  0  0  0  0  0  0
   -0.9213    0.4406    1.3560 C   0  0  0  0  0  0  0  0  0  0  0  0
    3.6783   -1.0422    0.4247 C   0  0  1  0  0  0  0  0  0  0  0  0
    2.5222   -0.1271    0.8329 C   0  0  0  0  0  0  0  0  0  0  0  0
   -2.2385    0.0695    0.7190 C   0  0  0  0  0  0  0  0  0  0  0  0
    0.0655    1.0043    0.3519 C   0  0  0  0  0  0  0  0  0  0  0  0
   -3.2647    1.0109    0.6385 C   0  0  0  0  0  0  0  0  0  0  0  0
   -2.4292   -1.2151    0.2101 C   0  0  0  0  0  0  0  0  0  0  0  0
    4.5470   -0.4241   -0.6549 C   0  0  0  0  0  0  0  0  0  0  0  0
   -4.4816    0.6676    0.0496 C   0  0  0  0  0  0  0  0  0  0  0  0
   -3.6461   -1.5586   -0.3787 C   0  0  0  0  0  0  0  0  0  0  0  0
   -4.6723   -0.6172   -0.4590 C   0  0  0  0  0  0  0  0  0  0  0  0
   -1.0888    1.2025    2.1279 H   0  0  0  0  0  0  0  0  0  0  0  0
   -0.4981   -0.4254    1.8787 H   0  0  0  0  0  0  0  0  0  0  0  0
    3.3122   -2.0129    0.0691 H   0  0  0  0  0  0  0  0  0  0  0  0
    2.1155   -0.4337    1.8033 H   0  0  0  0  0  0  0  0  0  0  0  0
    2.8620    0.9107    0.9265 H   0  0  0  0  0  0  0  0  0  0  0  0
   -3.1277    2.0156    1.0295 H   0  0  0  0  0  0  0  0  0  0  0  0
   -1.6399   -1.9597    0.2691 H   0  0  0  0  0  0  0  0  0  0  0  0
   -5.2771    1.4054   -0.0106 H   0  0  0  0  0  0  0  0  0  0  0  0
   -3.7823   -2.5630   -0.7707 H   0  0  0  0  0  0  0  0  0  0  0  0
    5.2541   -1.9884    1.3233 H   0  0  0  0  0  0  0  0  0  0  0  0
    3.9877   -1.7495    2.3199 H   0  0  0  0  0  0  0  0  0  0  0  0
    4.7268   -0.3095   -2.5917 H   0  0  0  0  0  0  0  0  0  0  0  0
   -5.8161   -1.8773   -1.3308 H   0  0  0  0  0  0  0  0  0  0  0  0
    1.1462    3.3826   -1.0983 H   0  0  0  0  0  0  0  0  0  0  0  0
  1 10  1  0  0  0  0
  1 12  1  0  0  0  0
  2 15  1  0  0  0  0
  2 30  1  0  0  0  0
  3 18  1  0  0  0  0
  3 31  1  0  0  0  0
  4 15  2  0  0  0  0
  5  7  1  0  0  0  0
  5 32  1  0  0  0  0
  6  9  1  0  0  0  0
  6 28  1  0  0  0  0
  6 29  1  0  0  0  0
  7 12  2  0  0  0  0
  8 11  1  0  0  0  0
  8 12  1  0  0  0  0
  8 19  1  0  0  0  0
  8 20  1  0  0  0  0
  9 10  1  0  0  0  0
  9 15  1  0  0  0  0
  9 21  1  0  0  0  0
 10 22  1  0  0  0  0
 10 23  1  0  0  0  0
 11 13  2  0  0  0  0
 11 14  1  0  0  0  0
 13 16  1  0  0  0  0
 13 24  1  0  0  0  0
 14 17  2  0  0  0  0
 14 25  1  0  0  0  0
 16 18  2  0  0  0  0
 16 26  1  0  0  0  0
 17 18  1  0  0  0  0
 17 27  1  0  0  0  0
M  END
> <PUBCHEM_COMPOUND_CID>
46173869

> <PUBCHEM_CONFORMER_RMSD>
0.8

> <PUBCHEM_CONFORMER_DIVERSEORDER>
1
54
197
109
243
103
4
115
148
88
232
220
248
87
207
203
92
214
35
113
194
26
70
213
235
67
179
150
112
58
190
171
56
127
33
10
162
166
123
163
238
125
75
241
160
175
164
151
240
68
77
218
52
45
84
136
193
114
6
199
29
53
105
195
9
37
138
24
7
221
137
44
229
246
198
124
82
23
236
154
72
177
184
119
158
34
224
200
188
104
120
126
219
134
89
121
43
152
28
245
131
143
32
111
244
66
60
47
230
110
204
93
173
63
167
168
61
149
117
155
133
212
49
129
76
239
3
27
59
185
206
233
64
17
40
106
55
11
227
144
5
122
142
91
74
39
51
165
31
81
205
85
21
2
222
79
139
146
96
156
180
57
25
161
130
46
116
178
140
159
183
36
191
192
71
147
157
97
176
14
225
210
182
98
42
102
135
20
242
249
170
181
107
86
186
22
80
128
83
211
132
223
196
41
228
90
231
187
217
50
38
19
172
141
95
15
69
30
189
201
18
16
169
99
247
100
216
208
13
202
153
65
101
94
78
8
250
145
174
48
118
108
62
234
226
215
73
12
237
209

> <PUBCHEM_MMFF94_PARTIAL_CHARGES>
27
1 -0.37
10 0.23
11 -0.14
12 0.53
13 -0.15
14 -0.15
15 0.66
16 -0.15
17 -0.15
18 0.08
2 -0.65
24 0.15
25 0.15
26 0.15
27 0.15
28 0.36
29 0.36
3 -0.53
30 0.5
31 0.45
32 0.4
4 -0.57
5 -0.34
6 -0.99
7 -0.51
8 0.2
9 0.33

> <PUBCHEM_EFFECTIVE_ROTOR_COUNT>
6

> <PUBCHEM_PHARMACOPHORE_FEATURES>
9
1 2 acceptor
1 3 donor
1 4 acceptor
1 5 anion
1 6 cation
1 6 donor
1 7 acceptor
3 2 4 15 anion
6 11 13 14 16 17 18 rings

> <PUBCHEM_HEAVY_ATOM_COUNT>
18

> <PUBCHEM_ATOM_DEF_STEREO_COUNT>
1

> <PUBCHEM_ATOM_UDEF_STEREO_COUNT>
0

> <PUBCHEM_BOND_DEF_STEREO_COUNT>
1

> <PUBCHEM_BOND_UDEF_STEREO_COUNT>
0

> <PUBCHEM_ISOTOPIC_ATOM_COUNT>
0

> <PUBCHEM_COMPONENT_COUNT>
1

> <PUBCHEM_CACTVS_TAUTO_COUNT>
4

> <PUBCHEM_CONFORMER_ID>
02C08EAD00000001

> <PUBCHEM_MMFF94_ENERGY>
40.9345

> <PUBCHEM_FEATURE_SELFOVERLAP>
45.728

> <PUBCHEM_SHAPE_FINGERPRINT>
12346645 44 9439407930150969745
12596602 18 5256394028761309151
13288520 33 17966969418298955353
14251718 22 18113616772805201384
14251757 17 14261636127256407662
14341114 176 14779548967538444082
14573314 32 17458059404224864402
15183329 4 18341900714428145261
15342816 4 18410572907684547442
17349148 13 18114177532172320901
17834072 33 18260265218428553248
17834072 8 18410862062205052429
17870717 6 18114453535524447863
1798214 20 18343301461639018882
1813 80 18408039624056459812
18222031 100 18334013895656731664
193927 3 18113609063117664259
19784866 240 17967809419434027339
19784866 9 9150903758276223740
200 152 17703789262707329810
20281475 54 18263080075590746682
204376 136 6916255256411044761
20871999 31 18272652367797763305
21250096 35 18412825793755622096
23402539 116 18335709381521302649
23557571 272 17240753038745596953
23559900 14 17895202077560489817
2916195 48 12823004288409505678
3004659 81 18407759218230953141
339767 52 18409730647222890494
4325135 7 18260551092116354880
465052 167 14923941237197941964
7164475 11 17844251941943840108
960060 61 18060415816042218510
9981440 41 17333936348531225697

> <PUBCHEM_SHAPE_MULTIPOLES>
340.84
12.34
1.72
1.24
2.4
0.73
-0.02
-4.87
-2.54
-0.36
-0.27
1.09
-0.15
-0.87

> <PUBCHEM_SHAPE_SELFOVERLAP>
681.281

> <PUBCHEM_SHAPE_VOLUME>
201.7

> <PUBCHEM_COORDINATE_TYPE>
2
5
10

$$$$

