2482
  -OEChem-07051212543D

 29 29  0     0  0  0  0  0  0999 V2000
    1.2295    0.1188   -0.0191 O   0  0  0  0  0  0  0  0  0  0  0  0
    0.4465    2.2571   -0.3561 O   0  0  0  0  0  0  0  0  0  0  0  0
   -4.8841   -1.2569    0.1679 N   0  0  0  0  0  0  0  0  0  0  0  0
    3.5101   -0.6006    0.1036 C   0  0  0  0  0  0  0  0  0  0  0  0
    4.9736   -0.1710    0.0598 C   0  0  0  0  0  0  0  0  0  0  0  0
    2.5711    0.5824   -0.0851 C   0  0  0  0  0  0  0  0  0  0  0  0
    5.9072   -1.3483    0.2917 C   0  0  0  0  0  0  0  0  0  0  0  0
   -1.0896    0.4545   -0.0807 C   0  0  0  0  0  0  0  0  0  0  0  0
    0.2610    1.0644   -0.1710 C   0  0  0  0  0  0  0  0  0  0  0  0
   -2.1329    1.2136    0.4087 C   0  0  0  0  0  0  0  0  0  0  0  0
   -1.2604   -0.8522   -0.4902 C   0  0  0  0  0  0  0  0  0  0  0  0
   -3.6004   -0.6781    0.0848 C   0  0  0  0  0  0  0  0  0  0  0  0
   -3.4021    0.6410    0.4924 C   0  0  0  0  0  0  0  0  0  0  0  0
   -2.5296   -1.4247   -0.4065 C   0  0  0  0  0  0  0  0  0  0  0  0
    3.3106   -1.3517   -0.6709 H   0  0  0  0  0  0  0  0  0  0  0  0
    3.2866   -1.0902    1.0599 H   0  0  0  0  0  0  0  0  0  0  0  0
    5.1618    0.5908    0.8254 H   0  0  0  0  0  0  0  0  0  0  0  0
    5.1994    0.2831   -0.9121 H   0  0  0  0  0  0  0  0  0  0  0  0
    2.7391    1.3246    0.7042 H   0  0  0  0  0  0  0  0  0  0  0  0
    2.7486    1.0501   -1.0607 H   0  0  0  0  0  0  0  0  0  0  0  0
    5.7295   -1.8030    1.2714 H   0  0  0  0  0  0  0  0  0  0  0  0
    5.7666   -2.1171   -0.4749 H   0  0  0  0  0  0  0  0  0  0  0  0
    6.9500   -1.0181    0.2546 H   0  0  0  0  0  0  0  0  0  0  0  0
   -1.9902    2.2404    0.7320 H   0  0  0  0  0  0  0  0  0  0  0  0
   -0.4463   -1.4501   -0.8890 H   0  0  0  0  0  0  0  0  0  0  0  0
   -4.2285    1.2330    0.8774 H   0  0  0  0  0  0  0  0  0  0  0  0
   -2.6723   -2.4526   -0.7304 H   0  0  0  0  0  0  0  0  0  0  0  0
   -5.0276   -2.2141   -0.1253 H   0  0  0  0  0  0  0  0  0  0  0  0
   -5.6604   -0.7169    0.5262 H   0  0  0  0  0  0  0  0  0  0  0  0
  1  6  1  0  0  0  0
  1  9  1  0  0  0  0
  2  9  2  0  0  0  0
  3 12  1  0  0  0  0
  3 28  1  0  0  0  0
  3 29  1  0  0  0  0
  4  5  1  0  0  0  0
  4  6  1  0  0  0  0
  4 15  1  0  0  0  0
  4 16  1  0  0  0  0
  5  7  1  0  0  0  0
  5 17  1  0  0  0  0
  5 18  1  0  0  0  0
  6 19  1  0  0  0  0
  6 20  1  0  0  0  0
  7 21  1  0  0  0  0
  7 22  1  0  0  0  0
  7 23  1  0  0  0  0
  8  9  1  0  0  0  0
  8 10  2  0  0  0  0
  8 11  1  0  0  0  0
 10 13  1  0  0  0  0
 10 24  1  0  0  0  0
 11 14  2  0  0  0  0
 11 25  1  0  0  0  0
 12 13  2  0  0  0  0
 12 14  1  0  0  0  0
 13 26  1  0  0  0  0
 14 27  1  0  0  0  0
M  END
> <PUBCHEM_COMPOUND_CID>
2482

> <PUBCHEM_CONFORMER_RMSD>
0.6

> <PUBCHEM_CONFORMER_DIVERSEORDER>
1
44
15
20
41
3
43
47
64
4
74
40
50
6
22
69
26
77
16
49
58
67
24
63
62
53
32
57
48
70
11
65
73
75
10
38
19
42
76
68
9
55
12
31
17
23
25
34
51
14
8
39
27
18
30
45
56
28
37
52
21
2
33
46
71
36
35
60
54
29
5
59
61
66
72
13
7

> <PUBCHEM_MMFF94_PARTIAL_CHARGES>
17
1 -0.43
10 -0.15
11 -0.15
12 0.1
13 -0.15
14 -0.15
2 -0.57
24 0.15
25 0.15
26 0.15
27 0.15
28 0.4
29 0.4
3 -0.9
6 0.28
8 0.09
9 0.63

> <PUBCHEM_EFFECTIVE_ROTOR_COUNT>
5

> <PUBCHEM_PHARMACOPHORE_FEATURES>
5
1 2 acceptor
1 3 cation
1 3 donor
1 7 hydrophobe
6 8 10 11 12 13 14 rings

> <PUBCHEM_HEAVY_ATOM_COUNT>
14

> <PUBCHEM_ATOM_DEF_STEREO_COUNT>
0

> <PUBCHEM_ATOM_UDEF_STEREO_COUNT>
0

> <PUBCHEM_BOND_DEF_STEREO_COUNT>
0

> <PUBCHEM_BOND_UDEF_STEREO_COUNT>
0

> <PUBCHEM_ISOTOPIC_ATOM_COUNT>
0

> <PUBCHEM_COMPONENT_COUNT>
1

> <PUBCHEM_CACTVS_TAUTO_COUNT>
2

> <PUBCHEM_CONFORMER_ID>
000009B200000001

> <PUBCHEM_MMFF94_ENERGY>
37.6573

> <PUBCHEM_FEATURE_SELFOVERLAP>
25.371

> <PUBCHEM_SHAPE_FINGERPRINT>
100836 57 8358258163733371234
10465860 250 17531247266251751608
10968037 39 18342454829454354022
11046707 91 18411983580854992784
12032990 46 18412262826553811692
12251169 10 18040436581532084420
13167823 11 18412546548399928450
13288520 33 18411981372935821591
13551218 46 18261954154162309262
13690532 89 18411699855389161615
13862211 1 18334577898173085527
14252887 29 17967523597823975182
17804303 29 18259702289538492377
17834072 33 18410571752438578260
1813 80 17988633130107881606
18186145 218 14908175335567150444
200 152 17632859750345810152
20281475 54 18339643326271060212
20645477 56 10087639307925157226
20767249 213 7781514819461150730
20828058 44 18259985998404352226
21267235 1 18411410704947528178
22485316 2 18413110584710809808
2297311 6 18114733928522756356
23402539 116 17821734935970930413
23463225 33 18410290315499225958
23559900 14 18262810565992418345
351380 180 10663816369666177134
351380 3 18272936046562494210
42 15 18334574646507789154
4214541 1 18336546109627421136
5104073 3 18261385599186266433
559249 180 18341899644285066450
7364860 26 18118401739587447808
83771 10 18413672409319612996

> <PUBCHEM_SHAPE_MULTIPOLES>
271.39
10.92
1.64
0.68
12.87
0.32
0
-5.75
1.62
-0.5
-0.11
-0.08
0
-0.42

> <PUBCHEM_SHAPE_SELFOVERLAP>
550.571

> <PUBCHEM_SHAPE_VOLUME>
159

> <PUBCHEM_COORDINATE_TYPE>
2
5
10

$$$$

