5281505
  -OEChem-07051212573D

 43 44  0     1  0  0  0  0  0999 V2000
    1.9688   -2.0053    0.4706 O   0  0  0  0  0  0  0  0  0  0  0  0
    0.4220    1.8055    0.5258 O   0  0  0  0  0  0  0  0  0  0  0  0
    4.2417   -1.7632    0.2494 O   0  0  0  0  0  0  0  0  0  0  0  0
   -0.5394    3.7277   -0.3213 O   0  0  0  0  0  0  0  0  0  0  0  0
    1.2005   -0.1312   -0.7818 C   0  0  2  0  0  0  0  0  0  0  0  0
    0.4859    1.2485   -0.7832 C   0  0  1  0  0  0  0  0  0  0  0  0
    0.8269   -1.1423    0.3230 C   0  0  1  0  0  0  0  0  0  0  0  0
   -0.9112    1.3235   -1.4593 C   0  0  0  0  0  0  0  0  0  0  0  0
    2.6864   -0.0947   -0.5523 C   0  0  0  0  0  0  0  0  0  0  0  0
   -0.3399   -1.9977   -0.0688 C   0  0  0  0  0  0  0  0  0  0  0  0
   -2.0682    0.6239   -0.7713 C   0  0  0  0  0  0  0  0  0  0  0  0
    3.1047   -1.3556    0.0954 C   0  0  0  0  0  0  0  0  0  0  0  0
   -1.4546   -2.2530    0.6458 C   0  0  0  0  0  0  0  0  0  0  0  0
   -2.6968   -2.7007   -0.1098 C   0  0  0  0  0  0  0  0  0  0  0  0
   -3.5095   -1.4815   -0.6170 C   0  0  0  0  0  0  0  0  0  0  0  0
   -2.6097   -0.4865   -1.3165 C   0  0  0  0  0  0  0  0  0  0  0  0
    3.5901    0.8532   -0.8178 C   0  0  0  0  0  0  0  0  0  0  0  0
   -2.5195    1.2310    0.5296 C   0  0  0  0  0  0  0  0  0  0  0  0
   -1.6413   -1.9739    2.1077 C   0  0  0  0  0  0  0  0  0  0  0  0
   -0.1167    3.0587    0.6119 C   0  0  0  0  0  0  0  0  0  0  0  0
   -0.1201    3.5135    2.0398 C   0  0  0  0  0  0  0  0  0  0  0  0
    1.0670   -0.5840   -1.7750 H   0  0  0  0  0  0  0  0  0  0  0  0
    1.1113    1.9222   -1.3846 H   0  0  0  0  0  0  0  0  0  0  0  0
    0.6666   -0.6411    1.2833 H   0  0  0  0  0  0  0  0  0  0  0  0
   -0.7741    0.8648   -2.4507 H   0  0  0  0  0  0  0  0  0  0  0  0
   -1.2363    2.3305   -1.7266 H   0  0  0  0  0  0  0  0  0  0  0  0
   -0.3357   -2.3015   -1.1162 H   0  0  0  0  0  0  0  0  0  0  0  0
   -2.4136   -3.3267   -0.9666 H   0  0  0  0  0  0  0  0  0  0  0  0
   -3.3266   -3.3319    0.5281 H   0  0  0  0  0  0  0  0  0  0  0  0
   -4.0499   -1.0343    0.2216 H   0  0  0  0  0  0  0  0  0  0  0  0
   -4.2764   -1.8237   -1.3217 H   0  0  0  0  0  0  0  0  0  0  0  0
   -2.2391   -0.8258   -2.2831 H   0  0  0  0  0  0  0  0  0  0  0  0
    3.3134    1.7879   -1.2911 H   0  0  0  0  0  0  0  0  0  0  0  0
    4.6402    0.7242   -0.5757 H   0  0  0  0  0  0  0  0  0  0  0  0
   -1.8137    1.0202    1.3352 H   0  0  0  0  0  0  0  0  0  0  0  0
   -3.4927    0.8529    0.8531 H   0  0  0  0  0  0  0  0  0  0  0  0
   -2.6591    2.3105    0.4230 H   0  0  0  0  0  0  0  0  0  0  0  0
   -1.9634   -2.8874    2.6191 H   0  0  0  0  0  0  0  0  0  0  0  0
   -2.4073   -1.2094    2.2650 H   0  0  0  0  0  0  0  0  0  0  0  0
   -0.7238   -1.6417    2.5996 H   0  0  0  0  0  0  0  0  0  0  0  0
    0.9079    3.6348    2.3898 H   0  0  0  0  0  0  0  0  0  0  0  0
   -0.6545    2.7927    2.6633 H   0  0  0  0  0  0  0  0  0  0  0  0
   -0.6328    4.4770    2.1116 H   0  0  0  0  0  0  0  0  0  0  0  0
  1  7  1  0  0  0  0
  1 12  1  0  0  0  0
  2  6  1  0  0  0  0
  2 20  1  0  0  0  0
  3 12  2  0  0  0  0
  4 20  2  0  0  0  0
  5  6  1  0  0  0  0
  5  7  1  0  0  0  0
  5  9  1  0  0  0  0
  5 22  1  0  0  0  0
  6  8  1  0  0  0  0
  6 23  1  0  0  0  0
  7 10  1  0  0  0  0
  7 24  1  0  0  0  0
  8 11  1  0  0  0  0
  8 25  1  0  0  0  0
  8 26  1  0  0  0  0
  9 12  1  0  0  0  0
  9 17  2  0  0  0  0
 10 13  2  0  0  0  0
 10 27  1  0  0  0  0
 11 16  2  0  0  0  0
 11 18  1  0  0  0  0
 13 14  1  0  0  0  0
 13 19  1  0  0  0  0
 14 15  1  0  0  0  0
 14 28  1  0  0  0  0
 14 29  1  0  0  0  0
 15 16  1  0  0  0  0
 15 30  1  0  0  0  0
 15 31  1  0  0  0  0
 16 32  1  0  0  0  0
 17 33  1  0  0  0  0
 17 34  1  0  0  0  0
 18 35  1  0  0  0  0
 18 36  1  0  0  0  0
 18 37  1  0  0  0  0
 19 38  1  0  0  0  0
 19 39  1  0  0  0  0
 19 40  1  0  0  0  0
 20 21  1  0  0  0  0
 21 41  1  0  0  0  0
 21 42  1  0  0  0  0
 21 43  1  0  0  0  0
M  END
> <PUBCHEM_COMPOUND_CID>
5281505

> <PUBCHEM_CONFORMER_RMSD>
0.6

> <PUBCHEM_CONFORMER_DIVERSEORDER>
3
8
6
4
9
5
1
7
2

> <PUBCHEM_MMFF94_PARTIAL_CHARGES>
25
1 -0.43
10 -0.29
11 -0.28
12 0.71
13 -0.28
14 0.14
15 0.14
16 -0.29
17 -0.3
18 0.14
19 0.14
2 -0.43
20 0.66
21 0.06
27 0.15
3 -0.57
32 0.15
33 0.15
34 0.15
4 -0.57
5 0.14
6 0.28
7 0.42
8 0.14
9 -0.12

> <PUBCHEM_EFFECTIVE_ROTOR_COUNT>
3

> <PUBCHEM_PHARMACOPHORE_FEATURES>
3
1 3 acceptor
1 4 acceptor
5 1 5 7 9 12 rings

> <PUBCHEM_HEAVY_ATOM_COUNT>
21

> <PUBCHEM_ATOM_DEF_STEREO_COUNT>
3

> <PUBCHEM_ATOM_UDEF_STEREO_COUNT>
0

> <PUBCHEM_BOND_DEF_STEREO_COUNT>
2

> <PUBCHEM_BOND_UDEF_STEREO_COUNT>
0

> <PUBCHEM_ISOTOPIC_ATOM_COUNT>
0

> <PUBCHEM_COMPONENT_COUNT>
1

> <PUBCHEM_CACTVS_TAUTO_COUNT>
1

> <PUBCHEM_CONFORMER_ID>
005096E100000003

> <PUBCHEM_MMFF94_ENERGY>
58.1917

> <PUBCHEM_FEATURE_SELFOVERLAP>
15.223

> <PUBCHEM_SHAPE_FINGERPRINT>
108231 29 18410303496738020076
1100329 8 18336828718148742697
12788726 201 18189603007456839608
12954195 1 18264183947206440494
13027679 85 18338792321556778997
13132413 78 18265875987256993148
13134695 92 18263648363798393190
13140716 1 18342453751222793306
14081887 123 18266199368725425130
14251745 187 17986679155636395666
15230672 131 17042048962974312416
15279307 12 17472985476430332684
16945 1 17989486320633780150
19591789 44 16897076739120228758
20510252 161 18265341792188512460
20775438 99 17254319672382645791
20832881 197 18410582773514440503
22182313 1 17697058946102805415
2334 1 18270676463856637806
23419403 2 17263905321789089870
23557571 272 18334853927157508694
23558518 356 17902787805943671358
23559900 14 17909277883986043981
2748010 2 17407399135503233879
35225 105 17463659302881657408
394222 165 17053315065342184929
539174 4 17400885658853794043
6438718 38 17895185658232462167
6786 2 16164343382776967976
7364860 26 17975697177769154287
81228 2 18265886033406836664

> <PUBCHEM_SHAPE_MULTIPOLES>
408.69
5.2
4.14
1.47
1.42
3.33
0.54
-3.96
-0.92
0.58
1.8
-0.56
0.56
0.35

> <PUBCHEM_SHAPE_SELFOVERLAP>
845.455

> <PUBCHEM_SHAPE_VOLUME>
231.9

> <PUBCHEM_COORDINATE_TYPE>
2
5
10

$$$$

