17395372
  -OEChem-06241222493D

 34 35  0     1  0  0  0  0  0999 V2000
    5.2886    0.0632    1.0126 S   0  0  0  0  0  0  0  0  0  0  0  0
    1.5192    0.2518   -0.1214 O   0  0  0  0  0  0  0  0  0  0  0  0
   -0.7734   -1.0650   -0.3643 O   0  0  0  0  0  0  0  0  0  0  0  0
   -5.5096    0.1545    0.4489 O   0  0  0  0  0  0  0  0  0  0  0  0
    2.6642    1.5547    1.3789 O   0  0  0  0  0  0  0  0  0  0  0  0
   -2.0544    0.7966    0.2755 N   0  0  0  0  0  0  0  0  0  0  0  0
   -4.4310    1.0215    0.5774 N   0  0  0  0  0  0  0  0  0  0  0  0
    0.3441    1.0089    0.1175 C   0  0  1  0  0  0  0  0  0  0  0  0
    0.3125    2.2071   -0.8367 C   0  0  0  0  0  0  0  0  0  0  0  0
   -0.8843    0.1113   -0.0307 C   0  0  0  0  0  0  0  0  0  0  0  0
    0.2646    1.8160   -2.3096 C   0  0  0  0  0  0  0  0  0  0  0  0
   -3.3587    0.2872    0.2677 C   0  0  0  0  0  0  0  0  0  0  0  0
    2.6406    0.6239    0.5803 C   0  0  0  0  0  0  0  0  0  0  0  0
   -3.6955   -1.0372   -0.0613 C   0  0  0  0  0  0  0  0  0  0  0  0
    3.7838   -0.2280    0.2490 C   0  0  0  0  0  0  0  0  0  0  0  0
   -5.0589   -1.0681    0.0682 C   0  0  0  0  0  0  0  0  0  0  0  0
    3.8463   -1.2873   -0.6293 C   0  0  0  0  0  0  0  0  0  0  0  0
   -6.0733   -2.1133   -0.1156 C   0  0  0  0  0  0  0  0  0  0  0  0
    5.1466   -1.8679   -0.6758 C   0  0  0  0  0  0  0  0  0  0  0  0
    6.0284   -1.2299    0.1686 C   0  0  0  0  0  0  0  0  0  0  0  0
    0.3246    1.3704    1.1547 H   0  0  0  0  0  0  0  0  0  0  0  0
    1.2133    2.8139   -0.6836 H   0  0  0  0  0  0  0  0  0  0  0  0
   -0.5422    2.8567   -0.6190 H   0  0  0  0  0  0  0  0  0  0  0  0
    0.2817    2.7141   -2.9356 H   0  0  0  0  0  0  0  0  0  0  0  0
   -0.6484    1.2619   -2.5474 H   0  0  0  0  0  0  0  0  0  0  0  0
    1.1254    1.1991   -2.5859 H   0  0  0  0  0  0  0  0  0  0  0  0
   -1.9973    1.7710    0.5584 H   0  0  0  0  0  0  0  0  0  0  0  0
   -3.0713   -1.8681   -0.3522 H   0  0  0  0  0  0  0  0  0  0  0  0
    3.0077   -1.6398   -1.2166 H   0  0  0  0  0  0  0  0  0  0  0  0
   -6.6198   -2.2874    0.8165 H   0  0  0  0  0  0  0  0  0  0  0  0
   -6.7926   -1.8202   -0.8865 H   0  0  0  0  0  0  0  0  0  0  0  0
   -5.6155   -3.0591   -0.4215 H   0  0  0  0  0  0  0  0  0  0  0  0
    5.4214   -2.7104   -1.2969 H   0  0  0  0  0  0  0  0  0  0  0  0
    7.0717   -1.4614    0.3302 H   0  0  0  0  0  0  0  0  0  0  0  0
  1 15  1  0  0  0  0
  1 20  1  0  0  0  0
  2  8  1  0  0  0  0
  2 13  1  0  0  0  0
  3 10  2  0  0  0  0
  4  7  1  0  0  0  0
  4 16  1  0  0  0  0
  5 13  2  0  0  0  0
  6 10  1  0  0  0  0
  6 12  1  0  0  0  0
  6 27  1  0  0  0  0
  7 12  2  0  0  0  0
  8  9  1  0  0  0  0
  8 10  1  0  0  0  0
  8 21  1  0  0  0  0
  9 11  1  0  0  0  0
  9 22  1  0  0  0  0
  9 23  1  0  0  0  0
 11 24  1  0  0  0  0
 11 25  1  0  0  0  0
 11 26  1  0  0  0  0
 12 14  1  0  0  0  0
 13 15  1  0  0  0  0
 14 16  2  0  0  0  0
 14 28  1  0  0  0  0
 15 17  2  0  0  0  0
 16 18  1  0  0  0  0
 17 19  1  0  0  0  0
 17 29  1  0  0  0  0
 18 30  1  0  0  0  0
 18 31  1  0  0  0  0
 18 32  1  0  0  0  0
 19 20  2  0  0  0  0
 19 33  1  0  0  0  0
 20 34  1  0  0  0  0
M  END
> <PUBCHEM_COMPOUND_CID>
17395372

> <PUBCHEM_CONFORMER_RMSD>
0.8

> <PUBCHEM_CONFORMER_DIVERSEORDER>
1
109
69
46
101
37
168
132
134
145
50
29
39
162
185
152
43
45
124
172
71
113
156
140
183
118
164
36
154
180
91
157
127
93
38
72
174
176
80
170
70
62
11
27
181
121
34
135
136
155
108
20
148
2
177
57
107
161
15
24
115
128
130
184
47
52
4
12
28
41
73
44
171
103
19
129
104
32
146
139
31
122
75
120
59
83
173
111
33
55
116
9
142
114
143
87
40
149
81
67
14
89
147
110
95
35
98
17
63
64
65
86
30
96
90
42
97
159
58
153
165
22
48
92
166
126
84
117
5
68
112
182
82
56
6
138
151
106
160
144
131
74
85
60
163
61
23
51
54
158
25
53
78
3
137
66
123
21
102
79
99
16
7
105
178
88
26
141
100
167
179
94
125
10
49
169
133
150
76
175
8
13
77
119
18

> <PUBCHEM_MMFF94_PARTIAL_CHARGES>
23
1 -0.08
10 0.57
12 0.35
13 0.81
14 -0.15
15 -0.05
16 -0.04
17 -0.15
18 0.18
19 -0.15
2 -0.43
20 -0.11
27 0.37
28 0.15
29 0.15
3 -0.57
33 0.15
34 0.15
4 -0.02
5 -0.57
6 -0.49
7 -0.41
8 0.34

> <PUBCHEM_EFFECTIVE_ROTOR_COUNT>
7

> <PUBCHEM_PHARMACOPHORE_FEATURES>
6
1 11 hydrophobe
1 3 acceptor
1 5 acceptor
1 6 donor
5 1 15 17 19 20 rings
5 4 7 12 14 16 rings

> <PUBCHEM_HEAVY_ATOM_COUNT>
20

> <PUBCHEM_ATOM_DEF_STEREO_COUNT>
0

> <PUBCHEM_ATOM_UDEF_STEREO_COUNT>
1

> <PUBCHEM_BOND_DEF_STEREO_COUNT>
0

> <PUBCHEM_BOND_UDEF_STEREO_COUNT>
0

> <PUBCHEM_ISOTOPIC_ATOM_COUNT>
0

> <PUBCHEM_COMPONENT_COUNT>
1

> <PUBCHEM_CACTVS_TAUTO_COUNT>
3

> <PUBCHEM_CONFORMER_ID>
01096EAC00000001

> <PUBCHEM_MMFF94_ENERGY>
24.1977

> <PUBCHEM_FEATURE_SELFOVERLAP>
30.446

> <PUBCHEM_SHAPE_FINGERPRINT>
10366900 7 16200439044368756105
10692045 39 6483083882353691964
117890 112 9223228546719911626
12166972 35 18410570644263416385
12516196 113 18410012126494477416
12596602 18 17603585231444237514
12892183 10 17386005113280726384
13009979 54 18271511040854281161
13167823 11 18260832583545077395
13288520 33 18410855469366923385
13533116 47 18263363590692773073
13685833 64 18410008823432648259
13862211 1 18202568384173178986
14178000 29 18272366464615007100
14251764 30 18341051912668057382
14341114 176 17748543736469533634
14366163 111 10591771982124916927
14528608 73 11743834755344865826
14556957 393 16199286850619790262
15188451 53 18187651263302210047
17492 89 17983289331830528499
17844677 252 18333444344059469697
17959699 21 10375878475991319375
1813 80 17989207049191758668
18222031 100 17989491800906599909
19141452 34 18260270728676610350
193927 3 18272643528744414915
19784866 140 16630809941172963776
19784866 240 18342453717194935311
19784866 34 7853580097559542293
20374829 77 18343866649307285770
20388580 30 17846774092505488148
21267235 1 18410849950128583643
21637258 2 17988932184285611314
21641784 216 15769493248163037670
22950370 63 18272086123588484788
23402539 116 18131354145502156797
23559900 14 18335709308422450057
23622692 88 16008754615198793588
25122255 55 18199459988030511595
2767999 5 6916259620034410210
2838139 119 10519694571445820210
3004659 81 18201716258915044926
314173 85 18060137656458818676
34797466 226 13398622879304551579
351380 3 18272936028717902330
4325135 7 18343017779977617612
4340502 62 5328469211112099765
465052 167 17967527978627235742
5104073 3 17967807211710100739
559249 180 18411138044172065251
7495541 125 16371013936532713931
77188 2 18409448068292677608
9971528 1 18272371927855774309
9981440 41 17116072491816853009

> <PUBCHEM_SHAPE_MULTIPOLES>
382
14.98
2.05
1.16
4.9
0.17
0.42
-10.22
-2.19
0.21
0.71
-0.77
0.62
0.42

> <PUBCHEM_SHAPE_SELFOVERLAP>
786.767

> <PUBCHEM_SHAPE_VOLUME>
220.5

> <PUBCHEM_COORDINATE_TYPE>
2
5
10

$$$$

