17395265
  -OEChem-06241222492D

 52 55  0     0  0  0  0  0  0999 V2000
    3.6730    1.9301    0.0000 O   0  0  0  0  0  0  0  0  0  0  0  0
    8.0031    3.4301    0.0000 O   0  0  0  0  0  0  0  0  0  0  0  0
    9.7352    1.4301    0.0000 O   0  0  0  0  0  0  0  0  0  0  0  0
    4.5390    0.4301    0.0000 N   0  0  0  0  0  0  0  0  0  0  0  0
    6.2711    1.4301    0.0000 N   0  0  0  0  0  0  0  0  0  0  0  0
    7.1371    1.9301    0.0000 N   0  0  0  0  0  0  0  0  0  0  0  0
    3.6730   -1.0699    0.0000 C   0  0  0  0  0  0  0  0  0  0  0  0
    2.9819   -2.9533    0.0000 C   0  0  0  0  0  0  0  0  0  0  0  0
    4.5092   -2.5182    0.0000 C   0  0  0  0  0  0  0  0  0  0  0  0
    2.8368   -2.5182    0.0000 C   0  0  0  0  0  0  0  0  0  0  0  0
    4.5092   -1.5527    0.0000 C   0  0  0  0  0  0  0  0  0  0  0  0
    2.8368   -1.5527    0.0000 C   0  0  0  0  0  0  0  0  0  0  0  0
    2.9819   -1.9080    0.0000 C   0  0  0  0  0  0  0  0  0  0  0  0
    3.6730   -2.8210    0.0000 C   0  0  0  0  0  0  0  0  0  0  0  0
    2.0000   -3.0010    0.0000 C   0  0  0  0  0  0  0  0  0  0  0  0
    3.8876   -3.4301    0.0000 C   0  0  0  0  0  0  0  0  0  0  0  0
    3.6730   -0.0699    0.0000 C   0  0  0  0  0  0  0  0  0  0  0  0
    4.5390    1.4301    0.0000 C   0  0  0  0  0  0  0  0  0  0  0  0
    5.4050    1.9301    0.0000 C   0  0  0  0  0  0  0  0  0  0  0  0
    5.4050    2.9301    0.0000 C   0  0  0  0  0  0  0  0  0  0  0  0
    6.2711    3.4301    0.0000 C   0  0  0  0  0  0  0  0  0  0  0  0
    7.1371    2.9301    0.0000 C   0  0  0  0  0  0  0  0  0  0  0  0
    8.0031    1.4301    0.0000 C   0  0  0  0  0  0  0  0  0  0  0  0
    8.8691    1.9301    0.0000 C   0  0  0  0  0  0  0  0  0  0  0  0
   10.6012    1.9301    0.0000 C   0  0  0  0  0  0  0  0  0  0  0  0
    2.8912   -3.1358    0.0000 H   0  0  0  0  0  0  0  0  0  0  0  0
    5.1016   -2.7009    0.0000 H   0  0  0  0  0  0  0  0  0  0  0  0
    2.8478   -3.5586    0.0000 H   0  0  0  0  0  0  0  0  0  0  0  0
    2.6383   -1.3920    0.0000 H   0  0  0  0  0  0  0  0  0  0  0  0
    2.3885   -2.0875    0.0000 H   0  0  0  0  0  0  0  0  0  0  0  0
    5.1198   -1.6603    0.0000 H   0  0  0  0  0  0  0  0  0  0  0  0
    4.7212   -0.9701    0.0000 H   0  0  0  0  0  0  0  0  0  0  0  0
    2.6247   -0.9701    0.0000 H   0  0  0  0  0  0  0  0  0  0  0  0
    2.2262   -1.6603    0.0000 H   0  0  0  0  0  0  0  0  0  0  0  0
    3.5782   -3.9674    0.0000 H   0  0  0  0  0  0  0  0  0  0  0  0
    4.4127   -3.7597    0.0000 H   0  0  0  0  0  0  0  0  0  0  0  0
    1.5188   -2.6101    0.0000 H   0  0  0  0  0  0  0  0  0  0  0  0
    3.3030   -3.3185    0.0000 H   0  0  0  0  0  0  0  0  0  0  0  0
    4.0430   -3.3185    0.0000 H   0  0  0  0  0  0  0  0  0  0  0  0
    1.8068   -3.5901    0.0000 H   0  0  0  0  0  0  0  0  0  0  0  0
    3.4609    0.5127    0.0000 H   0  0  0  0  0  0  0  0  0  0  0  0
    3.0624   -0.1776    0.0000 H   0  0  0  0  0  0  0  0  0  0  0  0
    5.0760    0.1201    0.0000 H   0  0  0  0  0  0  0  0  0  0  0  0
    4.8681    3.2401    0.0000 H   0  0  0  0  0  0  0  0  0  0  0  0
    6.2711    4.0501    0.0000 H   0  0  0  0  0  0  0  0  0  0  0  0
    7.6046    0.9552    0.0000 H   0  0  0  0  0  0  0  0  0  0  0  0
    8.4016    0.9552    0.0000 H   0  0  0  0  0  0  0  0  0  0  0  0
    9.2677    2.4051    0.0000 H   0  0  0  0  0  0  0  0  0  0  0  0
    8.4706    2.4051    0.0000 H   0  0  0  0  0  0  0  0  0  0  0  0
   10.9112    1.3932    0.0000 H   0  0  0  0  0  0  0  0  0  0  0  0
   11.1381    2.2401    0.0000 H   0  0  0  0  0  0  0  0  0  0  0  0
   10.2912    2.4671    0.0000 H   0  0  0  0  0  0  0  0  0  0  0  0
  1 18  2  0  0  0  0
  2 22  2  0  0  0  0
  3 24  1  0  0  0  0
  3 25  1  0  0  0  0
  4 17  1  0  0  0  0
  4 18  1  0  0  0  0
  4 43  1  0  0  0  0
  5  6  1  0  0  0  0
  5 19  2  0  0  0  0
  6 22  1  0  0  0  0
  6 23  1  0  0  0  0
  7 11  1  0  0  0  0
  7 12  1  0  0  0  0
  7 13  1  0  0  0  0
  7 17  1  0  0  0  0
  8 13  1  0  0  0  0
  8 15  1  0  0  0  0
  8 16  1  0  0  0  0
  8 28  1  0  0  0  0
  9 11  1  0  0  0  0
  9 14  1  0  0  0  0
  9 16  1  0  0  0  0
  9 27  1  0  0  0  0
 10 12  1  0  0  0  0
 10 14  1  0  0  0  0
 10 15  1  0  0  0  0
 10 26  1  0  0  0  0
 11 31  1  0  0  0  0
 11 32  1  0  0  0  0
 12 33  1  0  0  0  0
 12 34  1  0  0  0  0
 13 29  1  0  0  0  0
 13 30  1  0  0  0  0
 14 38  1  0  0  0  0
 14 39  1  0  0  0  0
 15 37  1  0  0  0  0
 15 40  1  0  0  0  0
 16 35  1  0  0  0  0
 16 36  1  0  0  0  0
 17 41  1  0  0  0  0
 17 42  1  0  0  0  0
 18 19  1  0  0  0  0
 19 20  1  0  0  0  0
 20 21  2  0  0  0  0
 20 44  1  0  0  0  0
 21 22  1  0  0  0  0
 21 45  1  0  0  0  0
 23 24  1  0  0  0  0
 23 46  1  0  0  0  0
 23 47  1  0  0  0  0
 24 48  1  0  0  0  0
 24 49  1  0  0  0  0
 25 50  1  0  0  0  0
 25 51  1  0  0  0  0
 25 52  1  0  0  0  0
M  END
> <PUBCHEM_COMPOUND_CID>
17395265

> <PUBCHEM_COMPOUND_CANONICALIZED>
1

> <PUBCHEM_CACTVS_COMPLEXITY>
584

> <PUBCHEM_CACTVS_HBOND_ACCEPTOR>
4

> <PUBCHEM_CACTVS_HBOND_DONOR>
1

> <PUBCHEM_CACTVS_ROTATABLE_BOND>
6

> <PUBCHEM_CACTVS_SUBSKEYS>
AAADceB7MAAAAAAAAAAAAAAAAAAAAAAAAAAwYMGCAAAAAAAAAAAAHgAYAAAADwjhgAYCAALABACoASFyEACQAAAgAAAaCIEYAFgCAAIAgAAFAAAADgCYAYMQgMAPAAAAAAAAAAAAAAQAAAAAAAAAAAAAAA==

> <PUBCHEM_IUPAC_OPENEYE_NAME>
N-(1-adamantylmethyl)-1-(2-methoxyethyl)-6-oxo-pyridazine-3-carboxamide

> <PUBCHEM_IUPAC_CAS_NAME>
N-(1-adamantylmethyl)-1-(2-methoxyethyl)-6-oxo-3-pyridazinecarboxamide

> <PUBCHEM_IUPAC_NAME>
N-(1-adamantylmethyl)-1-(2-methoxyethyl)-6-oxopyridazine-3-carboxamide

> <PUBCHEM_IUPAC_SYSTEMATIC_NAME>
N-(1-adamantylmethyl)-1-(2-methoxyethyl)-6-oxidanylidene-pyridazine-3-carboxamide

> <PUBCHEM_IUPAC_TRADITIONAL_NAME>
N-(1-adamantylmethyl)-6-keto-1-(2-methoxyethyl)pyridazine-3-carboxamide

> <PUBCHEM_IUPAC_INCHI>
InChI=1S/C19H27N3O3/c1-25-5-4-22-17(23)3-2-16(21-22)18(24)20-12-19-9-13-6-14(10-19)8-15(7-13)11-19/h2-3,13-15H,4-12H2,1H3,(H,20,24)

> <PUBCHEM_IUPAC_INCHIKEY>
BZSYHDDCJHIXDZ-UHFFFAOYSA-N

> <PUBCHEM_XLOGP3_AA>
1.9

> <PUBCHEM_EXACT_MASS>
345.205242

> <PUBCHEM_MOLECULAR_FORMULA>
C19H27N3O3

> <PUBCHEM_MOLECULAR_WEIGHT>
345.43598

> <PUBCHEM_OPENEYE_CAN_SMILES>
COCCN1C(=O)C=CC(=N1)C(=O)NCC23CC4CC(C2)CC(C4)C3

> <PUBCHEM_OPENEYE_ISO_SMILES>
COCCN1C(=O)C=CC(=N1)C(=O)NCC23CC4CC(C2)CC(C4)C3

> <PUBCHEM_CACTVS_TPSA>
71

> <PUBCHEM_MONOISOTOPIC_WEIGHT>
345.205242

> <PUBCHEM_TOTAL_CHARGE>
0

> <PUBCHEM_HEAVY_ATOM_COUNT>
25

> <PUBCHEM_ATOM_DEF_STEREO_COUNT>
0

> <PUBCHEM_ATOM_UDEF_STEREO_COUNT>
0

> <PUBCHEM_BOND_DEF_STEREO_COUNT>
0

> <PUBCHEM_BOND_UDEF_STEREO_COUNT>
0

> <PUBCHEM_ISOTOPIC_ATOM_COUNT>
0

> <PUBCHEM_COMPONENT_COUNT>
1

> <PUBCHEM_CACTVS_TAUTO_COUNT>
2

> <PUBCHEM_COORDINATE_TYPE>
1
5
255

> <PUBCHEM_BONDANNOTATIONS>
19  20  8
20  21  8
21  22  8
5  19  8
5  6  8
6  22  8

$$$$

