5282336
  -OEChem-07051213043D

 75 78  0     1  0  0  0  0  0999 V2000
    0.0310    0.8748    1.1698 S   0  0  0  0  0  0  0  0  0  0  0  0
    4.1859   -2.7935   -0.4465 S   0  0  0  0  0  0  0  0  0  0  0  0
    3.4543    2.5563    0.3063 O   0  0  0  0  0  0  0  0  0  0  0  0
    7.1553    0.2782    1.2560 O   0  0  0  0  0  0  0  0  0  0  0  0
    3.9469   -4.1741   -0.0712 O   0  0  0  0  0  0  0  0  0  0  0  0
    5.3243   -2.4496   -1.2766 O   0  0  0  0  0  0  0  0  0  0  0  0
    6.8089   -1.9305    1.6376 O   0  0  0  0  0  0  0  0  0  0  0  0
   -2.5320    1.3283    0.5565 N   0  0  0  0  0  0  0  0  0  0  0  0
   -8.8843   -2.0490    0.3275 N   0  0  0  0  0  0  0  0  0  0  0  0
   -0.8688    2.7919   -0.3125 N   0  0  0  0  0  0  0  0  0  0  0  0
    2.9348    0.7294    1.5984 N   0  0  0  0  0  0  0  0  0  0  0  0
    4.2135   -1.8253    0.9483 N   0  0  0  0  0  0  0  0  0  0  0  0
   -5.1732    0.1501    0.6199 C   0  0  0  0  0  0  0  0  0  0  0  0
   -6.1651   -0.9449    0.2381 C   0  0  0  0  0  0  0  0  0  0  0  0
   -4.0099   -0.4263    1.4357 C   0  0  0  0  0  0  0  0  0  0  0  0
   -4.6306    0.8557   -0.6291 C   0  0  0  0  0  0  0  0  0  0  0  0
   -7.3100   -0.3795   -0.6121 C   0  0  0  0  0  0  0  0  0  0  0  0
   -6.7313   -1.6355    1.4852 C   0  0  0  0  0  0  0  0  0  0  0  0
   -2.9711    0.6435    1.7761 C   0  0  0  0  0  0  0  0  0  0  0  0
   -3.6006    1.9199   -0.2571 C   0  0  0  0  0  0  0  0  0  0  0  0
   -8.3628   -1.4491   -0.9026 C   0  0  0  0  0  0  0  0  0  0  0  0
   -7.8063   -2.6557    1.1114 C   0  0  0  0  0  0  0  0  0  0  0  0
   -1.2298    1.7478    0.3998 C   0  0  0  0  0  0  0  0  0  0  0  0
    0.5052    2.9202   -0.2517 C   0  0  0  0  0  0  0  0  0  0  0  0
    1.1660    1.9745    0.5038 C   0  0  0  0  0  0  0  0  0  0  0  0
    1.1307    4.0381   -0.9884 C   0  0  0  0  0  0  0  0  0  0  0  0
    2.5557    1.8130    0.7750 C   0  0  0  0  0  0  0  0  0  0  0  0
    0.6904    5.4296   -0.4808 C   0  0  0  0  0  0  0  0  0  0  0  0
    0.9170    3.9618   -2.5171 C   0  0  0  0  0  0  0  0  0  0  0  0
    4.3052    0.4200    1.9384 C   0  0  0  0  0  0  0  0  0  0  0  0
    4.9420   -0.5338    0.9356 C   0  0  1  0  0  0  0  0  0  0  0  0
    6.3744   -0.8331    1.3131 C   0  0  0  0  0  0  0  0  0  0  0  0
    2.7438   -2.1968   -1.2765 C   0  0  0  0  0  0  0  0  0  0  0  0
    2.8475   -1.1433   -2.1850 C   0  0  0  0  0  0  0  0  0  0  0  0
    1.5018   -2.7790   -1.0227 C   0  0  0  0  0  0  0  0  0  0  0  0
    1.7095   -0.6721   -2.8395 C   0  0  0  0  0  0  0  0  0  0  0  0
    0.3638   -2.3077   -1.6774 C   0  0  0  0  0  0  0  0  0  0  0  0
    0.4677   -1.2542   -2.5858 C   0  0  0  0  0  0  0  0  0  0  0  0
   -5.6871    0.8994    1.2388 H   0  0  0  0  0  0  0  0  0  0  0  0
   -5.6449   -1.7053   -0.3621 H   0  0  0  0  0  0  0  0  0  0  0  0
   -3.5246   -1.2358    0.8750 H   0  0  0  0  0  0  0  0  0  0  0  0
   -4.3586   -0.8483    2.3833 H   0  0  0  0  0  0  0  0  0  0  0  0
   -4.1719    0.1230   -1.3055 H   0  0  0  0  0  0  0  0  0  0  0  0
   -5.4267    1.3628   -1.1826 H   0  0  0  0  0  0  0  0  0  0  0  0
   -7.7810    0.4690   -0.0995 H   0  0  0  0  0  0  0  0  0  0  0  0
   -6.9465   -0.0179   -1.5792 H   0  0  0  0  0  0  0  0  0  0  0  0
   -5.9498   -2.1740    2.0305 H   0  0  0  0  0  0  0  0  0  0  0  0
   -7.1556   -0.8913    2.1716 H   0  0  0  0  0  0  0  0  0  0  0  0
   -3.4117    1.3836    2.4565 H   0  0  0  0  0  0  0  0  0  0  0  0
   -2.1710    0.1509    2.3351 H   0  0  0  0  0  0  0  0  0  0  0  0
   -3.2047    2.3497   -1.1853 H   0  0  0  0  0  0  0  0  0  0  0  0
   -4.0759    2.7351    0.3022 H   0  0  0  0  0  0  0  0  0  0  0  0
   -9.1944   -0.9926   -1.4505 H   0  0  0  0  0  0  0  0  0  0  0  0
   -7.9429   -2.2279   -1.5513 H   0  0  0  0  0  0  0  0  0  0  0  0
   -7.3605   -3.4894    0.5548 H   0  0  0  0  0  0  0  0  0  0  0  0
   -8.2333   -3.0771    2.0281 H   0  0  0  0  0  0  0  0  0  0  0  0
   -9.5698   -2.7647    0.0881 H   0  0  0  0  0  0  0  0  0  0  0  0
    2.2146    4.0237   -0.8569 H   0  0  0  0  0  0  0  0  0  0  0  0
    1.2282    6.2253   -1.0070 H   0  0  0  0  0  0  0  0  0  0  0  0
    0.8951    5.5317    0.5907 H   0  0  0  0  0  0  0  0  0  0  0  0
   -0.3834    5.5848   -0.6329 H   0  0  0  0  0  0  0  0  0  0  0  0
   -0.1454    4.0417   -2.7727 H   0  0  0  0  0  0  0  0  0  0  0  0
    1.2851    3.0077   -2.9104 H   0  0  0  0  0  0  0  0  0  0  0  0
    1.4528    4.7692   -3.0273 H   0  0  0  0  0  0  0  0  0  0  0  0
    2.2102    0.1171    1.9619 H   0  0  0  0  0  0  0  0  0  0  0  0
    4.8724    1.3552    2.0019 H   0  0  0  0  0  0  0  0  0  0  0  0
    4.2916   -0.0199    2.9427 H   0  0  0  0  0  0  0  0  0  0  0  0
    4.9199   -0.1044   -0.0715 H   0  0  0  0  0  0  0  0  0  0  0  0
    4.0690   -2.2633    1.8665 H   0  0  0  0  0  0  0  0  0  0  0  0
    3.8025   -0.6697   -2.3932 H   0  0  0  0  0  0  0  0  0  0  0  0
    1.3979   -3.5951   -0.3134 H   0  0  0  0  0  0  0  0  0  0  0  0
    8.0848    0.0844    1.5027 H   0  0  0  0  0  0  0  0  0  0  0  0
    1.7895    0.1509   -3.5437 H   0  0  0  0  0  0  0  0  0  0  0  0
   -0.6040   -2.7581   -1.4772 H   0  0  0  0  0  0  0  0  0  0  0  0
   -0.4189   -0.8849   -3.0928 H   0  0  0  0  0  0  0  0  0  0  0  0
  1 23  1  0  0  0  0
  1 25  1  0  0  0  0
  2  5  2  0  0  0  0
  2  6  2  0  0  0  0
  2 12  1  0  0  0  0
  2 33  1  0  0  0  0
  3 27  2  0  0  0  0
  4 32  1  0  0  0  0
  4 72  1  0  0  0  0
  7 32  2  0  0  0  0
  8 19  1  0  0  0  0
  8 20  1  0  0  0  0
  8 23  1  0  0  0  0
  9 21  1  0  0  0  0
  9 22  1  0  0  0  0
  9 57  1  0  0  0  0
 10 23  2  0  0  0  0
 10 24  1  0  0  0  0
 11 27  1  0  0  0  0
 11 30  1  0  0  0  0
 11 65  1  0  0  0  0
 12 31  1  0  0  0  0
 12 69  1  0  0  0  0
 13 14  1  0  0  0  0
 13 15  1  0  0  0  0
 13 16  1  0  0  0  0
 13 39  1  0  0  0  0
 14 17  1  0  0  0  0
 14 18  1  0  0  0  0
 14 40  1  0  0  0  0
 15 19  1  0  0  0  0
 15 41  1  0  0  0  0
 15 42  1  0  0  0  0
 16 20  1  0  0  0  0
 16 43  1  0  0  0  0
 16 44  1  0  0  0  0
 17 21  1  0  0  0  0
 17 45  1  0  0  0  0
 17 46  1  0  0  0  0
 18 22  1  0  0  0  0
 18 47  1  0  0  0  0
 18 48  1  0  0  0  0
 19 49  1  0  0  0  0
 19 50  1  0  0  0  0
 20 51  1  0  0  0  0
 20 52  1  0  0  0  0
 21 53  1  0  0  0  0
 21 54  1  0  0  0  0
 22 55  1  0  0  0  0
 22 56  1  0  0  0  0
 24 25  2  0  0  0  0
 24 26  1  0  0  0  0
 25 27  1  0  0  0  0
 26 28  1  0  0  0  0
 26 29  1  0  0  0  0
 26 58  1  0  0  0  0
 28 59  1  0  0  0  0
 28 60  1  0  0  0  0
 28 61  1  0  0  0  0
 29 62  1  0  0  0  0
 29 63  1  0  0  0  0
 29 64  1  0  0  0  0
 30 31  1  0  0  0  0
 30 66  1  0  0  0  0
 30 67  1  0  0  0  0
 31 32  1  0  0  0  0
 31 68  1  0  0  0  0
 33 34  2  0  0  0  0
 33 35  1  0  0  0  0
 34 36  1  0  0  0  0
 34 70  1  0  0  0  0
 35 37  2  0  0  0  0
 35 71  1  0  0  0  0
 36 38  2  0  0  0  0
 36 73  1  0  0  0  0
 37 38  1  0  0  0  0
 37 74  1  0  0  0  0
 38 75  1  0  0  0  0
M  END
> <PUBCHEM_COMPOUND_CID>
5282336

> <PUBCHEM_CONFORMER_RMSD>
1.2

> <PUBCHEM_CONFORMER_DIVERSEORDER>
1
44
97
12
38
80
33
87
64
65
42
15
102
90
25
71
96
56
2
91
62
14
28
99
57
78
70
61
68
88
9
43
104
86
106
95
103
66
30
50
18
39
98
85
76
36
79
10
37
69
67
105
77
47
108
51
13
55
41
83
11
54
109
72
52
59
63
89
16
29
81
60
73
3
107
27
46
74
26
45
101
19
7
84
75
94
58
92
34
24
32
17
49
5
40
93
8
48
4
53
20
31
6
22
23
100
21
35
82

> <PUBCHEM_MMFF94_PARTIAL_CHARGES>
39
1 -0.08
10 -0.57
11 -0.73
12 -0.91
19 0.37
2 1.45
20 0.37
21 0.27
22 0.27
23 0.46
24 0.05
25 -0.05
26 0.18
27 0.71
3 -0.57
30 0.3
31 0.42
32 0.66
33 -0.01
34 -0.15
35 -0.15
36 -0.15
37 -0.15
38 -0.15
4 -0.65
5 -0.65
57 0.36
6 -0.65
65 0.37
69 0.42
7 -0.57
70 0.15
71 0.15
72 0.5
73 0.15
74 0.15
75 0.15
8 -0.82
9 -0.9

> <PUBCHEM_EFFECTIVE_ROTOR_COUNT>
13.4

> <PUBCHEM_PHARMACOPHORE_FEATURES>
16
1 11 donor
1 12 donor
1 3 acceptor
1 4 acceptor
1 5 acceptor
1 6 acceptor
1 7 acceptor
1 9 cation
1 9 donor
3 26 28 29 hydrophobe
3 4 7 32 anion
3 8 10 23 cation
5 1 10 23 24 25 rings
6 33 34 35 36 37 38 rings
6 8 13 15 16 19 20 rings
6 9 14 17 18 21 22 rings

> <PUBCHEM_HEAVY_ATOM_COUNT>
38

> <PUBCHEM_ATOM_DEF_STEREO_COUNT>
1

> <PUBCHEM_ATOM_UDEF_STEREO_COUNT>
0

> <PUBCHEM_BOND_DEF_STEREO_COUNT>
0

> <PUBCHEM_BOND_UDEF_STEREO_COUNT>
0

> <PUBCHEM_ISOTOPIC_ATOM_COUNT>
0

> <PUBCHEM_COMPONENT_COUNT>
1

> <PUBCHEM_CACTVS_TAUTO_COUNT>
2

> <PUBCHEM_CONFORMER_ID>
00509A2000000001

> <PUBCHEM_MMFF94_ENERGY>
55.3652

> <PUBCHEM_FEATURE_SELFOVERLAP>
81.268

> <PUBCHEM_SHAPE_FINGERPRINT>
11828532 37 17845925226769264931
12422481 6 17894923969858886980
13782708 43 17988074492845145475
13811026 1 18410577305536139699
14068700 675 17417816192538923788
15297060 5 16081098060463802230
15448158 91 17900252310840761502
15510800 12 18341607101879455995
15721738 202 17095519634401505203
19301679 30 18260819398739323137
19315092 285 17894904165812294713
21197605 99 18040720246868841050
21585482 310 18343011169648773187
25222932 49 18272092738170917906
4066623 53 17346600768504856773
469060 322 18192179125120721452
513532 50 17059486310850618709
9831232 110 18342174441547792619

> <PUBCHEM_SHAPE_MULTIPOLES>
735.47
19.78
5.3
2.27
35.3
4.8
1.03
-19.98
-8.01
-4.25
2.3
-1.96
-0.35
1.01

> <PUBCHEM_SHAPE_SELFOVERLAP>
1513.016

> <PUBCHEM_SHAPE_VOLUME>
422.5

> <PUBCHEM_COORDINATE_TYPE>
2
5
10

$$$$

