123985
  -OEChem-07051212453D

 52 52  0     1  0  0  0  0  0999 V2000
   -0.9417    3.0730    0.5167 O   0  0  0  0  0  0  0  0  0  0  0  0
   -0.2032    0.5195    1.5586 O   0  0  0  0  0  0  0  0  0  0  0  0
   -4.1809    3.3601   -0.6395 O   0  0  0  0  0  0  0  0  0  0  0  0
   -0.4154   -1.0305   -2.0946 O   0  0  0  0  0  0  0  0  0  0  0  0
   -2.5959    4.9945   -0.8475 O   0  0  0  0  0  0  0  0  0  0  0  0
   -1.8427   -0.3008    0.1216 N   0  0  0  0  0  0  0  0  0  0  0  0
    0.7005   -2.5822   -0.7756 N   0  0  0  0  0  0  0  0  0  0  0  0
    4.1671    0.3798    0.2670 N   0  0  0  0  0  0  0  0  0  0  0  0
    6.3481    1.1904    0.8637 N   0  0  0  0  0  0  0  0  0  0  0  0
    4.6557    2.6421    0.3909 N   0  0  0  0  0  0  0  0  0  0  0  0
   -1.8606    2.0143    0.8156 C   0  0  1  0  0  0  0  0  0  0  0  0
   -1.9183    2.7613   -0.4852 C   0  0  1  0  0  0  0  0  0  0  0  0
   -1.3813   -1.6622    0.0380 C   0  0  1  0  0  0  0  0  0  0  0  0
   -2.5225   -2.6453   -0.2526 C   0  0  0  0  0  0  0  0  0  0  0  0
   -3.6603   -2.6419    0.7887 C   0  0  0  0  0  0  0  0  0  0  0  0
   -1.2102    0.6721    0.8772 C   0  0  0  0  0  0  0  0  0  0  0  0
   -0.3417   -1.7164   -1.0771 C   0  0  0  0  0  0  0  0  0  0  0  0
   -2.9094    3.8263   -0.6756 C   0  0  0  0  0  0  0  0  0  0  0  0
   -4.7934   -3.5992    0.4168 C   0  0  0  0  0  0  0  0  0  0  0  0
   -3.1014   -3.0142    2.1648 C   0  0  0  0  0  0  0  0  0  0  0  0
    1.8412   -2.7809   -1.6405 C   0  0  0  0  0  0  0  0  0  0  0  0
    2.9803   -1.8141   -1.3324 C   0  0  0  0  0  0  0  0  0  0  0  0
    3.5139   -1.9716    0.0966 C   0  0  0  0  0  0  0  0  0  0  0  0
    4.6454   -0.9967    0.4052 C   0  0  0  0  0  0  0  0  0  0  0  0
    5.0266    1.3225    0.4992 C   0  0  0  0  0  0  0  0  0  0  0  0
   -2.6068    2.2130    1.5752 H   0  0  0  0  0  0  0  0  0  0  0  0
   -1.5559    2.2802   -1.3855 H   0  0  0  0  0  0  0  0  0  0  0  0
   -0.8876   -1.9128    0.9834 H   0  0  0  0  0  0  0  0  0  0  0  0
   -2.9544   -2.4124   -1.2358 H   0  0  0  0  0  0  0  0  0  0  0  0
   -2.1104   -3.6594   -0.3416 H   0  0  0  0  0  0  0  0  0  0  0  0
   -4.0901   -1.6348    0.8518 H   0  0  0  0  0  0  0  0  0  0  0  0
   -2.6455   -0.0338   -0.4415 H   0  0  0  0  0  0  0  0  0  0  0  0
   -5.2178   -3.3337   -0.5571 H   0  0  0  0  0  0  0  0  0  0  0  0
   -5.5998   -3.5577    1.1563 H   0  0  0  0  0  0  0  0  0  0  0  0
   -4.4361   -4.6329    0.3598 H   0  0  0  0  0  0  0  0  0  0  0  0
   -2.4241   -2.2454    2.5482 H   0  0  0  0  0  0  0  0  0  0  0  0
   -3.9116   -3.1128    2.8960 H   0  0  0  0  0  0  0  0  0  0  0  0
   -2.5617   -3.9668    2.1335 H   0  0  0  0  0  0  0  0  0  0  0  0
    0.6734   -3.1113    0.0909 H   0  0  0  0  0  0  0  0  0  0  0  0
    1.5239   -2.6568   -2.6816 H   0  0  0  0  0  0  0  0  0  0  0  0
    2.1716   -3.8168   -1.5098 H   0  0  0  0  0  0  0  0  0  0  0  0
    3.7950   -1.9862   -2.0458 H   0  0  0  0  0  0  0  0  0  0  0  0
    2.6267   -0.7879   -1.4890 H   0  0  0  0  0  0  0  0  0  0  0  0
    2.7031   -1.8080    0.8169 H   0  0  0  0  0  0  0  0  0  0  0  0
    3.8739   -2.9969    0.2425 H   0  0  0  0  0  0  0  0  0  0  0  0
   -4.8381    4.0769   -0.7679 H   0  0  0  0  0  0  0  0  0  0  0  0
    5.4789   -1.1856   -0.2822 H   0  0  0  0  0  0  0  0  0  0  0  0
    4.9906   -1.1787    1.4301 H   0  0  0  0  0  0  0  0  0  0  0  0
    6.9307    2.0058    1.0209 H   0  0  0  0  0  0  0  0  0  0  0  0
    6.7868    0.2854    0.9897 H   0  0  0  0  0  0  0  0  0  0  0  0
    5.3129    3.3940    0.5673 H   0  0  0  0  0  0  0  0  0  0  0  0
    3.7105    2.9005    0.1289 H   0  0  0  0  0  0  0  0  0  0  0  0
  1 11  1  0  0  0  0
  1 12  1  0  0  0  0
  2 16  2  0  0  0  0
  3 18  1  0  0  0  0
  3 46  1  0  0  0  0
  4 17  2  0  0  0  0
  5 18  2  0  0  0  0
  6 13  1  0  0  0  0
  6 16  1  0  0  0  0
  6 32  1  0  0  0  0
  7 17  1  0  0  0  0
  7 21  1  0  0  0  0
  7 39  1  0  0  0  0
  8 24  1  0  0  0  0
  8 25  2  0  0  0  0
  9 25  1  0  0  0  0
  9 49  1  0  0  0  0
  9 50  1  0  0  0  0
 10 25  1  0  0  0  0
 10 51  1  0  0  0  0
 10 52  1  0  0  0  0
 11 12  1  0  0  0  0
 11 16  1  0  0  0  0
 11 26  1  0  0  0  0
 12 18  1  0  0  0  0
 12 27  1  0  0  0  0
 13 14  1  0  0  0  0
 13 17  1  0  0  0  0
 13 28  1  0  0  0  0
 14 15  1  0  0  0  0
 14 29  1  0  0  0  0
 14 30  1  0  0  0  0
 15 19  1  0  0  0  0
 15 20  1  0  0  0  0
 15 31  1  0  0  0  0
 19 33  1  0  0  0  0
 19 34  1  0  0  0  0
 19 35  1  0  0  0  0
 20 36  1  0  0  0  0
 20 37  1  0  0  0  0
 20 38  1  0  0  0  0
 21 22  1  0  0  0  0
 21 40  1  0  0  0  0
 21 41  1  0  0  0  0
 22 23  1  0  0  0  0
 22 42  1  0  0  0  0
 22 43  1  0  0  0  0
 23 24  1  0  0  0  0
 23 44  1  0  0  0  0
 23 45  1  0  0  0  0
 24 47  1  0  0  0  0
 24 48  1  0  0  0  0
M  END
> <PUBCHEM_COMPOUND_CID>
123985

> <PUBCHEM_CONFORMER_RMSD>
1.2

> <PUBCHEM_CONFORMER_DIVERSEORDER>
1
13
10
34
27
18
42
21
40
32
12
30
31
3
25
43
28
26
5
37
36
6
19
14
46
44
15
35
16
22
7
17
29
8
23
11
39
38
4
45
33
9
2
24
41
20

> <PUBCHEM_MMFF94_PARTIAL_CHARGES>
28
1 -0.3
10 -0.85
11 0.05
12 0.05
13 0.36
16 0.63
17 0.57
18 0.72
2 -0.57
21 0.3
24 0.25
25 0.55
26 0.1
27 0.1
3 -0.65
32 0.37
39 0.37
4 -0.57
46 0.5
49 0.4
5 -0.57
50 0.4
51 0.4
52 0.4
6 -0.73
7 -0.73
8 -0.7
9 -0.85

> <PUBCHEM_EFFECTIVE_ROTOR_COUNT>
13.6

> <PUBCHEM_PHARMACOPHORE_FEATURES>
12
1 1 acceptor
1 10 donor
1 2 acceptor
1 3 acceptor
1 4 acceptor
1 5 acceptor
1 6 donor
1 7 donor
1 9 donor
3 15 19 20 hydrophobe
3 3 5 18 anion
4 8 9 10 25 cation

> <PUBCHEM_HEAVY_ATOM_COUNT>
25

> <PUBCHEM_ATOM_DEF_STEREO_COUNT>
3

> <PUBCHEM_ATOM_UDEF_STEREO_COUNT>
0

> <PUBCHEM_BOND_DEF_STEREO_COUNT>
0

> <PUBCHEM_BOND_UDEF_STEREO_COUNT>
0

> <PUBCHEM_ISOTOPIC_ATOM_COUNT>
0

> <PUBCHEM_COMPONENT_COUNT>
1

> <PUBCHEM_CACTVS_TAUTO_COUNT>
8

> <PUBCHEM_CONFORMER_ID>
0001E45100000001

> <PUBCHEM_MMFF94_ENERGY>
38.0539

> <PUBCHEM_FEATURE_SELFOVERLAP>
61.008

> <PUBCHEM_SHAPE_FINGERPRINT>
10688039 33 18339922593545215138
12788726 201 18200044953305284290
14251764 38 17973165316297850940
14840074 17 17972587789267222378
15575132 122 18265610997003120252
18681886 176 16824193416762363339
20600515 1 17773303552969745111
21049683 118 17842280551675395443
21304303 282 18055648454210801199
21968339 14 16687683545714024133
23227448 37 18337392754860245436
3187 122 18411420566218625346

> <PUBCHEM_SHAPE_MULTIPOLES>
460.24
10.61
6.42
1.51
15.15
6.62
-0.07
0.02
3.32
-8.65
-1.25
-0.31
-0.83
3.31

> <PUBCHEM_SHAPE_SELFOVERLAP>
904.041

> <PUBCHEM_SHAPE_VOLUME>
273.7

> <PUBCHEM_COORDINATE_TYPE>
2
5
10

$$$$

