11953818
  -OEChem-07051212482D

 30 31  0     1  0  0  0  0  0999 V2000
    3.6120    1.2375    0.0000 O   0  0  0  0  0  0  0  0  0  0  0  0
    2.5989   -2.5430    0.0000 O   0  0  0  0  0  0  0  0  0  0  0  0
    4.8486    0.3889    0.0000 C   0  0  3  0  0  0  0  0  0  0  0  0
    4.5897   -0.5770    0.0000 C   0  0  3  0  0  0  0  0  0  0  0  0
    4.4780    1.7375    0.0000 C   0  0  0  0  0  0  0  0  0  0  0  0
    2.8577   -1.5770    0.0000 C   0  0  2  0  0  0  0  0  0  0  0  0
    2.3577   -0.7110    0.0000 C   0  0  0  0  0  0  0  0  0  0  0  0
    6.6805   -0.3699    0.0000 C   0  0  0  0  0  0  0  0  0  0  0  0
    6.4217   -1.3359    0.0000 C   0  0  0  0  0  0  0  0  0  0  0  0
    4.3309   -1.5430    0.0000 C   0  0  0  0  0  0  0  0  0  0  0  0
    5.1851    2.4446    0.0000 C   0  0  0  0  0  0  0  0  0  0  0  0
    4.2192    2.7034    0.0000 C   0  0  0  0  0  0  0  0  0  0  0  0
    4.8584   -0.4611    0.0000 H   0  0  0  0  0  0  0  0  0  0  0  0
    2.2430   -1.6580    0.0000 H   0  0  0  0  0  0  0  0  0  0  0  0
    2.0870   -0.1532    0.0000 H   0  0  0  0  0  0  0  0  0  0  0  0
    1.8100   -1.0015    0.0000 H   0  0  0  0  0  0  0  0  0  0  0  0
    7.2718   -0.5564    0.0000 H   0  0  0  0  0  0  0  0  0  0  0  0
    6.8926    0.2127    0.0000 H   0  0  0  0  0  0  0  0  0  0  0  0
    6.2096   -1.9185    0.0000 H   0  0  0  0  0  0  0  0  0  0  0  0
    7.0130   -1.5223    0.0000 H   0  0  0  0  0  0  0  0  0  0  0  0
    3.7320   -1.3825    0.0000 H   0  0  0  0  0  0  0  0  0  0  0  0
    4.1705   -2.1418    0.0000 H   0  0  0  0  0  0  0  0  0  0  0  0
    4.9298   -1.7034    0.0000 H   0  0  0  0  0  0  0  0  0  0  0  0
    5.6235    2.0062    0.0000 H   0  0  0  0  0  0  0  0  0  0  0  0
    5.6235    2.8830    0.0000 H   0  0  0  0  0  0  0  0  0  0  0  0
    4.7467    2.8830    0.0000 H   0  0  0  0  0  0  0  0  0  0  0  0
    4.8180    2.8639    0.0000 H   0  0  0  0  0  0  0  0  0  0  0  0
    4.0587    3.3023    0.0000 H   0  0  0  0  0  0  0  0  0  0  0  0
    3.6203    2.5430    0.0000 H   0  0  0  0  0  0  0  0  0  0  0  0
    2.0000   -2.7034    0.0000 H   0  0  0  0  0  0  0  0  0  0  0  0
  1  4  1  0  0  0  0
  1  5  1  0  0  0  0
  6  2  1  1  0  0  0
  2 30  1  0  0  0  0
  3  5  1  0  0  0  0
  3  7  1  0  0  0  0
  3  8  1  0  0  0  0
  3 13  1  0  0  0  0
  4  6  1  0  0  0  0
  4  9  1  0  0  0  0
  4 10  1  0  0  0  0
  5 11  1  0  0  0  0
  5 12  1  0  0  0  0
  6  7  1  0  0  0  0
  6 14  1  0  0  0  0
  7 15  1  0  0  0  0
  7 16  1  0  0  0  0
  8  9  1  0  0  0  0
  8 17  1  0  0  0  0
  8 18  1  0  0  0  0
  9 19  1  0  0  0  0
  9 20  1  0  0  0  0
 10 21  1  0  0  0  0
 10 22  1  0  0  0  0
 10 23  1  0  0  0  0
 11 24  1  0  0  0  0
 11 25  1  0  0  0  0
 11 26  1  0  0  0  0
 12 27  1  0  0  0  0
 12 28  1  0  0  0  0
 12 29  1  0  0  0  0
M  END
> <PUBCHEM_COMPOUND_CID>
11953818

> <PUBCHEM_COMPOUND_CANONICALIZED>
1

> <PUBCHEM_CACTVS_COMPLEXITY>
200

> <PUBCHEM_CACTVS_HBOND_ACCEPTOR>
2

> <PUBCHEM_CACTVS_HBOND_DONOR>
1

> <PUBCHEM_CACTVS_ROTATABLE_BOND>
0

> <PUBCHEM_CACTVS_SUBSKEYS>
AAADceBwMAAAAAAAAAAAAAAAAAAAAAAAAAA0SIAAAAAAAAAAAAAAGgAACAAADVSggAICAAAABgAAAAAAAAAAAAAAAAAAAAAAAAABEAIAAAACQAAEAAADAAHAwPAOgAAAAAAAAADAAAIAABCAAAAAAAAAAA==

> <PUBCHEM_IUPAC_OPENEYE_NAME>
(5S)-2,2,4-trimethyl-3-oxabicyclo[2.2.2]octan-5-ol

> <PUBCHEM_IUPAC_CAS_NAME>
(5S)-2,2,4-trimethyl-3-oxabicyclo[2.2.2]octan-5-ol

> <PUBCHEM_IUPAC_NAME>
(5S)-2,2,4-trimethyl-3-oxabicyclo[2.2.2]octan-5-ol

> <PUBCHEM_IUPAC_SYSTEMATIC_NAME>
(5S)-2,2,4-trimethyl-3-oxabicyclo[2.2.2]octan-5-ol

> <PUBCHEM_IUPAC_TRADITIONAL_NAME>
(5S)-2,2,4-trimethyl-3-oxabicyclo[2.2.2]octan-5-ol

> <PUBCHEM_IUPAC_INCHI>
InChI=1S/C10H18O2/c1-9(2)7-4-5-10(3,12-9)8(11)6-7/h7-8,11H,4-6H2,1-3H3/t7?,8-,10?/m0/s1

> <PUBCHEM_IUPAC_INCHIKEY>
YVCUGZBVCHODNB-ZCUBBSJVSA-N

> <PUBCHEM_XLOGP3_AA>
1.2

> <PUBCHEM_EXACT_MASS>
170.13068

> <PUBCHEM_MOLECULAR_FORMULA>
C10H18O2

> <PUBCHEM_MOLECULAR_WEIGHT>
170.24872

> <PUBCHEM_OPENEYE_CAN_SMILES>
CC1(C2CCC(O1)(C(C2)O)C)C

> <PUBCHEM_OPENEYE_ISO_SMILES>
CC1(C2CCC(O1)([C@H](C2)O)C)C

> <PUBCHEM_CACTVS_TPSA>
29.5

> <PUBCHEM_MONOISOTOPIC_WEIGHT>
170.13068

> <PUBCHEM_TOTAL_CHARGE>
0

> <PUBCHEM_HEAVY_ATOM_COUNT>
12

> <PUBCHEM_ATOM_DEF_STEREO_COUNT>
1

> <PUBCHEM_ATOM_UDEF_STEREO_COUNT>
2

> <PUBCHEM_BOND_DEF_STEREO_COUNT>
0

> <PUBCHEM_BOND_UDEF_STEREO_COUNT>
0

> <PUBCHEM_ISOTOPIC_ATOM_COUNT>
0

> <PUBCHEM_COMPONENT_COUNT>
1

> <PUBCHEM_CACTVS_TAUTO_COUNT>
1

> <PUBCHEM_COORDINATE_TYPE>
1
5
255

> <PUBCHEM_BONDANNOTATIONS>
6  2  5
3  13  3
4  10  3

$$$$

