442904
  -OEChem-07051213003D

 26 26  0     0  0  0  0  0  0999 V2000
   -2.4023   -0.5575   -0.0301 O   0  0  0  0  0  0  0  0  0  0  0  0
    2.3972   -0.5799   -0.0302 O   0  0  0  0  0  0  0  0  0  0  0  0
    0.0165    3.5455    0.0574 O   0  0  0  0  0  0  0  0  0  0  0  0
   -0.0133   -2.6868   -1.1390 O   0  0  0  0  0  0  0  0  0  0  0  0
   -0.0027   -0.6045   -0.0311 C   0  0  0  0  0  0  0  0  0  0  0  0
   -1.2075    0.0984   -0.0162 C   0  0  0  0  0  0  0  0  0  0  0  0
    1.2085    0.0872   -0.0163 C   0  0  0  0  0  0  0  0  0  0  0  0
   -1.2009    1.4930    0.0134 C   0  0  0  0  0  0  0  0  0  0  0  0
    1.2150    1.4817    0.0132 C   0  0  0  0  0  0  0  0  0  0  0  0
    0.0102    2.1846    0.0283 C   0  0  0  0  0  0  0  0  0  0  0  0
   -0.0097   -2.0627   -0.0618 C   0  0  0  0  0  0  0  0  0  0  0  0
   -0.0132   -2.8546    1.2389 C   0  0  0  0  0  0  0  0  0  0  0  0
   -3.5812    0.2444   -0.0132 C   0  0  0  0  0  0  0  0  0  0  0  0
    3.5834    0.2112   -0.0133 C   0  0  0  0  0  0  0  0  0  0  0  0
   -2.1035    2.0944    0.0263 H   0  0  0  0  0  0  0  0  0  0  0  0
    2.1186    2.0817    0.0261 H   0  0  0  0  0  0  0  0  0  0  0  0
   -0.9144   -3.4715    1.2812 H   0  0  0  0  0  0  0  0  0  0  0  0
   -0.0092   -2.1785    2.0985 H   0  0  0  0  0  0  0  0  0  0  0  0
    0.8814   -3.4811    1.2803 H   0  0  0  0  0  0  0  0  0  0  0  0
   -4.4354   -0.4406   -0.0278 H   0  0  0  0  0  0  0  0  0  0  0  0
   -3.6607    0.8667   -0.9112 H   0  0  0  0  0  0  0  0  0  0  0  0
   -3.6607    0.8280    0.9104 H   0  0  0  0  0  0  0  0  0  0  0  0
    3.6678    0.7945    0.9101 H   0  0  0  0  0  0  0  0  0  0  0  0
    3.6680    0.8330   -0.9112 H   0  0  0  0  0  0  0  0  0  0  0  0
    4.4315   -0.4814   -0.0278 H   0  0  0  0  0  0  0  0  0  0  0  0
   -0.9008    3.8685    0.0643 H   0  0  0  0  0  0  0  0  0  0  0  0
  1  6  1  0  0  0  0
  1 13  1  0  0  0  0
  2  7  1  0  0  0  0
  2 14  1  0  0  0  0
  3 10  1  0  0  0  0
  3 26  1  0  0  0  0
  4 11  2  0  0  0  0
  5  6  2  0  0  0  0
  5  7  1  0  0  0  0
  5 11  1  0  0  0  0
  6  8  1  0  0  0  0
  7  9  2  0  0  0  0
  8 10  2  0  0  0  0
  8 15  1  0  0  0  0
  9 10  1  0  0  0  0
  9 16  1  0  0  0  0
 11 12  1  0  0  0  0
 12 17  1  0  0  0  0
 12 18  1  0  0  0  0
 12 19  1  0  0  0  0
 13 20  1  0  0  0  0
 13 21  1  0  0  0  0
 13 22  1  0  0  0  0
 14 23  1  0  0  0  0
 14 24  1  0  0  0  0
 14 25  1  0  0  0  0
M  END
> <PUBCHEM_COMPOUND_CID>
442904

> <PUBCHEM_CONFORMER_RMSD>
0.6

> <PUBCHEM_CONFORMER_DIVERSEORDER>
8
4
3
5
6
2
7
1

> <PUBCHEM_MMFF94_PARTIAL_CHARGES>
17
1 -0.36
10 0.08
11 0.42
12 0.06
13 0.28
14 0.28
15 0.15
16 0.15
2 -0.36
26 0.45
3 -0.53
4 -0.57
5 0.09
6 0.08
7 0.08
8 -0.15
9 -0.15

> <PUBCHEM_EFFECTIVE_ROTOR_COUNT>
3

> <PUBCHEM_PHARMACOPHORE_FEATURES>
5
1 1 acceptor
1 2 acceptor
1 3 donor
1 4 acceptor
6 5 6 7 8 9 10 rings

> <PUBCHEM_HEAVY_ATOM_COUNT>
14

> <PUBCHEM_ATOM_DEF_STEREO_COUNT>
0

> <PUBCHEM_ATOM_UDEF_STEREO_COUNT>
0

> <PUBCHEM_BOND_DEF_STEREO_COUNT>
0

> <PUBCHEM_BOND_UDEF_STEREO_COUNT>
0

> <PUBCHEM_ISOTOPIC_ATOM_COUNT>
0

> <PUBCHEM_COMPONENT_COUNT>
1

> <PUBCHEM_CACTVS_TAUTO_COUNT>
7

> <PUBCHEM_CONFORMER_ID>
0006C21800000008

> <PUBCHEM_MMFF94_ENERGY>
59.9004

> <PUBCHEM_FEATURE_SELFOVERLAP>
25.372

> <PUBCHEM_SHAPE_FINGERPRINT>
10967382 1 18410575088963333973
11680986 33 17978508628906445017
12423570 1 7490139750086676111
13140716 1 18410574032402100664
13380535 21 17693363452381019341
14614273 12 18056484086562104508
14648413 74 17906733600909560088
161256 15 17903059376657192943
16945 1 17749108893693389804
193761 8 17762056536463721229
20510252 161 18262241131223923056
20511035 2 17827640249150546404
20645476 183 17702647870637432694
21501502 16 17762059143603763497
22344851 341 17906165509911823666
2334 1 18410293583922417384
23402539 116 18261404342513105982
23419403 2 16025152559231047784
23552423 10 17765987681443486294
23559900 14 17323791645180489142
2748010 2 18410580582242843069
3250762 1 17764303938225464897
4072396 5 18126589991931687969
43471831 8 18126569144298031466
53812653 11 18335702706503730476
589210 1 17690560788567195401
7364860 26 17469891446725825614

> <PUBCHEM_SHAPE_MULTIPOLES>
264.64
3.68
3.44
0.78
0
0.12
0.03
0.44
-0.1
0
0.33
0
-0.51
0

> <PUBCHEM_SHAPE_SELFOVERLAP>
550.538

> <PUBCHEM_SHAPE_VOLUME>
152.6

> <PUBCHEM_COORDINATE_TYPE>
2
5
10

$$$$

