5281828
  -OEChem-07051213002D

 94 97  0     1  0  0  0  0  0999 V2000
    6.3728    1.0146    0.0000 Cl  0  0  0  0  0  0  0  0  0  0  0  0
    5.1795    0.1482    0.0000 O   0  0  0  0  0  0  0  0  0  0  0  0
    5.0778   -1.3548    0.0000 O   0  0  0  0  0  0  0  0  0  0  0  0
    3.8962    2.8896    0.0000 O   0  0  0  0  0  0  0  0  0  0  0  0
    5.6283    4.8896    0.0000 O   0  0  0  0  0  0  0  0  0  0  0  0
    6.9169    5.2959    0.0000 O   0  0  0  0  0  0  0  0  0  0  0  0
    7.8038   -2.6074    0.0000 O   0  0  0  0  0  0  0  0  0  0  0  0
    3.0302    4.3896    0.0000 O   0  0  0  0  0  0  0  0  0  0  0  0
    6.0084   -2.8156    0.0000 O   0  0  0  0  0  0  0  0  0  0  0  0
    2.5912   -3.9658    0.0000 O   0  0  0  0  0  0  0  0  0  0  0  0
    6.3728    2.0371    0.0000 O   0  0  0  0  0  0  0  0  0  0  0  0
    4.7622    4.3896    0.0000 N   0  0  0  0  0  0  0  0  0  0  0  0
    8.1283   -0.9764    0.0000 N   0  0  0  0  0  0  0  0  0  0  0  0
    4.3216   -3.8902    0.0000 N   0  0  0  0  0  0  0  0  0  0  0  0
    6.1800    0.1484    0.0000 C   0  0  2  0  0  0  0  0  0  0  0  0
    5.6800    1.0144    0.0000 C   0  0  2  0  0  0  0  0  0  0  0  0
    4.7622    1.3896    0.0000 C   0  0  1  0  0  0  0  0  0  0  0  0
    5.9212   -0.8175    0.0000 C   0  0  2  0  0  0  0  0  0  0  0  0
    4.7622    2.3896    0.0000 C   0  0  2  0  0  0  0  0  0  0  0  0
    7.0461   -0.3515    0.0000 C   0  0  0  0  0  0  0  0  0  0  0  0
    3.7623    1.4027    0.0000 C   0  0  0  0  0  0  0  0  0  0  0  0
    5.6283    2.8896    0.0000 C   0  0  0  0  0  0  0  0  0  0  0  0
    6.4212   -1.6835    0.0000 C   0  0  0  0  0  0  0  0  0  0  0  0
    5.6283    3.8896    0.0000 C   0  0  1  0  0  0  0  0  0  0  0  0
    6.4943    4.3896    0.0000 C   0  0  1  0  0  0  0  0  0  0  0  0
    7.4212   -1.6835    0.0000 C   0  0  0  0  0  0  0  0  0  0  0  0
    3.8962    3.8896    0.0000 C   0  0  0  0  0  0  0  0  0  0  0  0
    5.1214   -2.3538    0.0000 C   0  0  0  0  0  0  0  0  0  0  0  0
    4.2780   -2.8912    0.0000 C   0  0  2  0  0  0  0  0  0  0  0  0
    7.3603    3.8896    0.0000 C   0  0  0  0  0  0  0  0  0  0  0  0
    8.1283    0.0236    0.0000 C   0  0  0  0  0  0  0  0  0  0  0  0
    9.0521   -1.3591    0.0000 C   0  0  0  0  0  0  0  0  0  0  0  0
    3.3910   -2.4294    0.0000 C   0  0  0  0  0  0  0  0  0  0  0  0
    8.3603    3.8896    0.0000 C   0  0  0  0  0  0  0  0  0  0  0  0
    7.9131    5.3831    0.0000 C   0  0  0  0  0  0  0  0  0  0  0  0
    8.9943    0.5236    0.0000 C   0  0  0  0  0  0  0  0  0  0  0  0
    7.2427    0.5213    0.0000 C   0  0  0  0  0  0  0  0  0  0  0  0
    5.2086   -4.3519    0.0000 C   0  0  0  0  0  0  0  0  0  0  0  0
    8.8603    3.0236    0.0000 C   0  0  0  0  0  0  0  0  0  0  0  0
    3.4782   -4.4275    0.0000 C   0  0  0  0  0  0  0  0  0  0  0  0
    8.9943    1.5236    0.0000 C   0  0  0  0  0  0  0  0  0  0  0  0
    9.8603    2.0236    0.0000 C   0  0  0  0  0  0  0  0  0  0  0  0
    9.8603    3.0236    0.0000 C   0  0  0  0  0  0  0  0  0  0  0  0
    7.2388    1.5371    0.0000 C   0  0  0  0  0  0  0  0  0  0  0  0
    8.1205    2.0416    0.0000 C   0  0  0  0  0  0  0  0  0  0  0  0
    3.5218   -5.4265    0.0000 C   0  0  0  0  0  0  0  0  0  0  0  0
   10.5674    3.7307    0.0000 C   0  0  0  0  0  0  0  0  0  0  0  0
    6.3728    3.0371    0.0000 C   0  0  0  0  0  0  0  0  0  0  0  0
    6.1052    1.7505    0.0000 H   0  0  0  0  0  0  0  0  0  0  0  0
    4.3575    0.9199    0.0000 H   0  0  0  0  0  0  0  0  0  0  0  0
    5.3064   -0.7366    0.0000 H   0  0  0  0  0  0  0  0  0  0  0  0
    4.0261    1.9646    0.0000 H   0  0  0  0  0  0  0  0  0  0  0  0
    7.3560    0.1855    0.0000 H   0  0  0  0  0  0  0  0  0  0  0  0
    7.5830   -0.6614    0.0000 H   0  0  0  0  0  0  0  0  0  0  0  0
    6.7361   -0.8884    0.0000 H   0  0  0  0  0  0  0  0  0  0  0  0
    3.7542    0.7828    0.0000 H   0  0  0  0  0  0  0  0  0  0  0  0
    3.1424    1.4108    0.0000 H   0  0  0  0  0  0  0  0  0  0  0  0
    3.7704    2.0227    0.0000 H   0  0  0  0  0  0  0  0  0  0  0  0
    6.2388    2.9973    0.0000 H   0  0  0  0  0  0  0  0  0  0  0  0
    5.8403    2.3070    0.0000 H   0  0  0  0  0  0  0  0  0  0  0  0
    6.5288   -2.2941    0.0000 H   0  0  0  0  0  0  0  0  0  0  0  0
    5.8385   -1.8956    0.0000 H   0  0  0  0  0  0  0  0  0  0  0  0
    6.3338    4.9885    0.0000 H   0  0  0  0  0  0  0  0  0  0  0  0
    4.4522    4.9265    0.0000 H   0  0  0  0  0  0  0  0  0  0  0  0
    5.3183    5.4265    0.0000 H   0  0  0  0  0  0  0  0  0  0  0  0
    4.8279   -3.1774    0.0000 H   0  0  0  0  0  0  0  0  0  0  0  0
    7.1998    3.2907    0.0000 H   0  0  0  0  0  0  0  0  0  0  0  0
    9.2894   -0.7863    0.0000 H   0  0  0  0  0  0  0  0  0  0  0  0
    9.6249   -1.5964    0.0000 H   0  0  0  0  0  0  0  0  0  0  0  0
    8.8149   -1.9319    0.0000 H   0  0  0  0  0  0  0  0  0  0  0  0
    3.1047   -2.9794    0.0000 H   0  0  0  0  0  0  0  0  0  0  0  0
    2.8410   -2.1431    0.0000 H   0  0  0  0  0  0  0  0  0  0  0  0
    3.6773   -1.8794    0.0000 H   0  0  0  0  0  0  0  0  0  0  0  0
    8.6703    4.4265    0.0000 H   0  0  0  0  0  0  0  0  0  0  0  0
    7.8591    6.0007    0.0000 H   0  0  0  0  0  0  0  0  0  0  0  0
    8.5307    5.4371    0.0000 H   0  0  0  0  0  0  0  0  0  0  0  0
    7.9671    4.7654    0.0000 H   0  0  0  0  0  0  0  0  0  0  0  0
    9.5312    0.2136    0.0000 H   0  0  0  0  0  0  0  0  0  0  0  0
    5.4949   -3.8020    0.0000 H   0  0  0  0  0  0  0  0  0  0  0  0
    5.7586   -4.6382    0.0000 H   0  0  0  0  0  0  0  0  0  0  0  0
    4.9223   -4.9019    0.0000 H   0  0  0  0  0  0  0  0  0  0  0  0
    8.5503    2.4866    0.0000 H   0  0  0  0  0  0  0  0  0  0  0  0
   10.4709    2.1312    0.0000 H   0  0  0  0  0  0  0  0  0  0  0  0
   10.0724    1.4410    0.0000 H   0  0  0  0  0  0  0  0  0  0  0  0
    8.1253    2.6616    0.0000 H   0  0  0  0  0  0  0  0  0  0  0  0
    4.1412   -5.3995    0.0000 H   0  0  0  0  0  0  0  0  0  0  0  0
    3.5489   -6.0460    0.0000 H   0  0  0  0  0  0  0  0  0  0  0  0
    2.9024   -5.4536    0.0000 H   0  0  0  0  0  0  0  0  0  0  0  0
   10.1290    4.1691    0.0000 H   0  0  0  0  0  0  0  0  0  0  0  0
   11.0058    4.1691    0.0000 H   0  0  0  0  0  0  0  0  0  0  0  0
   11.0058    3.2923    0.0000 H   0  0  0  0  0  0  0  0  0  0  0  0
    5.7528    3.0371    0.0000 H   0  0  0  0  0  0  0  0  0  0  0  0
    6.3728    3.6571    0.0000 H   0  0  0  0  0  0  0  0  0  0  0  0
    6.9928    3.0371    0.0000 H   0  0  0  0  0  0  0  0  0  0  0  0
  1 37  1  0  0  0  0
  2 15  1  0  0  0  0
  2 16  1  0  0  0  0
 18  3  1  6  0  0  0
  3 28  1  0  0  0  0
  4 19  1  0  0  0  0
  4 27  1  0  0  0  0
 24  5  1  6  0  0  0
  5 65  1  0  0  0  0
 25  6  1  6  0  0  0
  6 35  1  0  0  0  0
  7 26  2  0  0  0  0
  8 27  2  0  0  0  0
  9 28  2  0  0  0  0
 10 40  2  0  0  0  0
 11 44  1  0  0  0  0
 11 48  1  0  0  0  0
 12 24  1  0  0  0  0
 12 27  1  0  0  0  0
 12 64  1  0  0  0  0
 13 26  1  0  0  0  0
 13 31  1  0  0  0  0
 13 32  1  0  0  0  0
 29 14  1  1  0  0  0
 14 38  1  0  0  0  0
 14 40  1  0  0  0  0
 15 16  1  0  0  0  0
 15 18  1  0  0  0  0
 15 20  1  1  0  0  0
 16 17  1  0  0  0  0
 16 49  1  6  0  0  0
 17 19  1  0  0  0  0
 17 21  1  6  0  0  0
 17 50  1  0  0  0  0
 18 23  1  0  0  0  0
 18 51  1  0  0  0  0
 19 22  1  0  0  0  0
 19 52  1  6  0  0  0
 20 53  1  0  0  0  0
 20 54  1  0  0  0  0
 20 55  1  0  0  0  0
 21 56  1  0  0  0  0
 21 57  1  0  0  0  0
 21 58  1  0  0  0  0
 22 24  1  0  0  0  0
 22 59  1  0  0  0  0
 22 60  1  0  0  0  0
 23 26  1  0  0  0  0
 23 61  1  0  0  0  0
 23 62  1  0  0  0  0
 24 25  1  0  0  0  0
 25 30  1  0  0  0  0
 25 63  1  0  0  0  0
 28 29  1  0  0  0  0
 29 33  1  0  0  0  0
 29 66  1  0  0  0  0
 30 34  2  0  0  0  0
 30 67  1  0  0  0  0
 31 36  1  0  0  0  0
 31 37  2  0  0  0  0
 32 68  1  0  0  0  0
 32 69  1  0  0  0  0
 32 70  1  0  0  0  0
 33 71  1  0  0  0  0
 33 72  1  0  0  0  0
 33 73  1  0  0  0  0
 34 39  1  0  0  0  0
 34 74  1  0  0  0  0
 35 75  1  0  0  0  0
 35 76  1  0  0  0  0
 35 77  1  0  0  0  0
 36 41  2  0  0  0  0
 36 78  1  0  0  0  0
 37 44  1  0  0  0  0
 38 79  1  0  0  0  0
 38 80  1  0  0  0  0
 38 81  1  0  0  0  0
 39 43  2  0  0  0  0
 39 82  1  0  0  0  0
 40 46  1  0  0  0  0
 41 42  1  0  0  0  0
 41 45  1  0  0  0  0
 42 43  1  0  0  0  0
 42 83  1  0  0  0  0
 42 84  1  0  0  0  0
 43 47  1  0  0  0  0
 44 45  2  0  0  0  0
 45 85  1  0  0  0  0
 46 86  1  0  0  0  0
 46 87  1  0  0  0  0
 46 88  1  0  0  0  0
 47 89  1  0  0  0  0
 47 90  1  0  0  0  0
 47 91  1  0  0  0  0
 48 92  1  0  0  0  0
 48 93  1  0  0  0  0
 48 94  1  0  0  0  0
M  END
> <PUBCHEM_COMPOUND_CID>
5281828

> <PUBCHEM_COMPOUND_CANONICALIZED>
1

> <PUBCHEM_CACTVS_COMPLEXITY>
1300

> <PUBCHEM_CACTVS_HBOND_ACCEPTOR>
10

> <PUBCHEM_CACTVS_HBOND_DONOR>
2

> <PUBCHEM_CACTVS_ROTATABLE_BOND>
6

> <PUBCHEM_CACTVS_SUBSKEYS>
AAADcfB/PAAEAAAAAAAAAAAAEgAAAAAAAAA8QAAAAAAAAAABAAAAHgIQCAAADX7hmCYyzoPABgCIAiXSWACCCAAhJkAIiAGOb4kPJjfFs7vPcChn9hnb6Af6/P/OBAABQgAACBAIAAKEAAAQIAAAAAAAAA==

> <PUBCHEM_IUPAC_INCHI>
InChI=1S/C34H46ClN3O10/c1-18-11-10-12-26(45-9)34(43)17-25(46-32(42)36-34)19(2)30-33(5,48-30)27(47-31(41)20(3)37(6)21(4)39)16-28(40)38(7)23-14-22(13-18)15-24(44-8)29(23)35/h10-12,14-15,19-20,25-27,30,43H,13,16-17H2,1-9H3,(H,36,42)/b12-10+,18-11+/t19-,20+,25+,26-,27+,30+,33+,34+/m1/s1

> <PUBCHEM_IUPAC_INCHIKEY>
WKPWGQKGSOKKOO-RSFHAFMBSA-N

> <PUBCHEM_XLOGP3>
2

> <PUBCHEM_EXACT_MASS>
691.287172

> <PUBCHEM_MOLECULAR_FORMULA>
C34H46ClN3O10

> <PUBCHEM_MOLECULAR_WEIGHT>
692.19614

> <PUBCHEM_OPENEYE_CAN_SMILES>
CC1C2CC(C(C=CC=C(CC3=CC(=C(C(=C3)OC)Cl)N(C(=O)CC(C4(C1O4)C)OC(=O)C(C)N(C)C(=O)C)C)C)OC)(NC(=O)O2)O

> <PUBCHEM_OPENEYE_ISO_SMILES>
C[C@@H]1[C@@H]2C[C@]([C@@H](/C=C/C=C(/CC3=CC(=C(C(=C3)OC)Cl)N(C(=O)C[C@@H]([C@]4([C@H]1O4)C)OC(=O)[C@H](C)N(C)C(=O)C)C)\C)OC)(NC(=O)O2)O

> <PUBCHEM_CACTVS_TPSA>
157

> <PUBCHEM_MONOISOTOPIC_WEIGHT>
691.287172

> <PUBCHEM_TOTAL_CHARGE>
0

> <PUBCHEM_HEAVY_ATOM_COUNT>
48

> <PUBCHEM_ATOM_DEF_STEREO_COUNT>
8

> <PUBCHEM_ATOM_UDEF_STEREO_COUNT>
0

> <PUBCHEM_BOND_DEF_STEREO_COUNT>
2

> <PUBCHEM_BOND_UDEF_STEREO_COUNT>
0

> <PUBCHEM_ISOTOPIC_ATOM_COUNT>
0

> <PUBCHEM_COMPONENT_COUNT>
1

> <PUBCHEM_CACTVS_TAUTO_COUNT>
2

> <PUBCHEM_COORDINATE_TYPE>
1
5
255

> <PUBCHEM_BONDANNOTATIONS>
29  14  5
15  20  5
16  49  6
17  21  6
19  52  6
18  3  6
31  36  8
31  37  8
36  41  8
37  44  8
41  45  8
44  45  8
24  5  6
25  6  6

$$$$

