440223
  -OEChem-07051212492D

 17 16  0     1  0  0  0  0  0999 V2000
    3.7320   -1.1900    0.0000 O   0  0  0  0  0  0  0  0  0  0  0  0
    6.3301    0.3100    0.0000 O   0  0  0  0  0  0  0  0  0  0  0  0
    5.4641    1.8100    0.0000 O   0  0  0  0  0  0  0  0  0  0  0  0
    2.0000    0.8100    0.0000 O   0  0  0  0  0  0  0  0  0  0  0  0
    4.5981    0.3100    0.0000 C   0  0  3  0  0  0  0  0  0  0  0  0
    3.7320    0.8100    0.0000 C   0  0  0  0  0  0  0  0  0  0  0  0
    4.5981   -0.6900    0.0000 C   0  0  0  0  0  0  0  0  0  0  0  0
    5.4641    0.8100    0.0000 C   0  0  0  0  0  0  0  0  0  0  0  0
    2.8660    0.3100    0.0000 C   0  0  0  0  0  0  0  0  0  0  0  0
    4.5981    0.9300    0.0000 H   0  0  0  0  0  0  0  0  0  0  0  0
    4.1306    1.2850    0.0000 H   0  0  0  0  0  0  0  0  0  0  0  0
    3.3335    1.2850    0.0000 H   0  0  0  0  0  0  0  0  0  0  0  0
    4.8101   -1.2726    0.0000 H   0  0  0  0  0  0  0  0  0  0  0  0
    5.2087   -0.5823    0.0000 H   0  0  0  0  0  0  0  0  0  0  0  0
    2.8660   -0.3100    0.0000 H   0  0  0  0  0  0  0  0  0  0  0  0
    3.7320   -1.8100    0.0000 H   0  0  0  0  0  0  0  0  0  0  0  0
    6.8671    0.6200    0.0000 H   0  0  0  0  0  0  0  0  0  0  0  0
  1  7  1  0  0  0  0
  1 16  1  0  0  0  0
  2  8  1  0  0  0  0
  2 17  1  0  0  0  0
  3  8  2  0  0  0  0
  4  9  2  0  0  0  0
  5  6  1  0  0  0  0
  5  7  1  0  0  0  0
  5  8  1  0  0  0  0
  5 10  1  0  0  0  0
  6  9  1  0  0  0  0
  6 11  1  0  0  0  0
  6 12  1  0  0  0  0
  7 13  1  0  0  0  0
  7 14  1  0  0  0  0
  9 15  1  0  0  0  0
M  END
> <PUBCHEM_COMPOUND_CID>
440223

> <PUBCHEM_COMPOUND_CANONICALIZED>
1

> <PUBCHEM_CACTVS_COMPLEXITY>
110

> <PUBCHEM_CACTVS_HBOND_ACCEPTOR>
4

> <PUBCHEM_CACTVS_HBOND_DONOR>
2

> <PUBCHEM_CACTVS_ROTATABLE_BOND>
4

> <PUBCHEM_CACTVS_SUBSKEYS>
AAADccBgOAAAAAAAAAAAAAAAAAAAAAAAAAAAAAAAAAAAAAAAAAAAGgAACAAADQCggAIACAAAAgAIAAiQiAAAAAAAAAAAAAEAAAAAEBQAAAAAQAAFIAAAAAADAAAIAAAAAAAAAAAAAAAAAAAAAAAAAAAAAA==

> <PUBCHEM_IUPAC_OPENEYE_NAME>
2-(hydroxymethyl)-4-oxo-butanoic acid

> <PUBCHEM_IUPAC_CAS_NAME>
2-(hydroxymethyl)-4-oxobutanoic acid

> <PUBCHEM_IUPAC_NAME>
2-(hydroxymethyl)-4-oxobutanoic acid

> <PUBCHEM_IUPAC_SYSTEMATIC_NAME>
2-(hydroxymethyl)-4-oxidanylidene-butanoic acid

> <PUBCHEM_IUPAC_TRADITIONAL_NAME>
4-keto-2-methylol-butyric acid

> <PUBCHEM_IUPAC_INCHI>
InChI=1S/C5H8O4/c6-2-1-4(3-7)5(8)9/h2,4,7H,1,3H2,(H,8,9)

> <PUBCHEM_IUPAC_INCHIKEY>
QZXWGGGNYORFOK-UHFFFAOYSA-N

> <PUBCHEM_XLOGP3_AA>
-1.5

> <PUBCHEM_EXACT_MASS>
132.042259

> <PUBCHEM_MOLECULAR_FORMULA>
C5H8O4

> <PUBCHEM_MOLECULAR_WEIGHT>
132.11462

> <PUBCHEM_OPENEYE_CAN_SMILES>
C(C=O)C(CO)C(=O)O

> <PUBCHEM_OPENEYE_ISO_SMILES>
C(C=O)C(CO)C(=O)O

> <PUBCHEM_CACTVS_TPSA>
74.6

> <PUBCHEM_MONOISOTOPIC_WEIGHT>
132.042259

> <PUBCHEM_TOTAL_CHARGE>
0

> <PUBCHEM_HEAVY_ATOM_COUNT>
9

> <PUBCHEM_ATOM_DEF_STEREO_COUNT>
0

> <PUBCHEM_ATOM_UDEF_STEREO_COUNT>
1

> <PUBCHEM_BOND_DEF_STEREO_COUNT>
0

> <PUBCHEM_BOND_UDEF_STEREO_COUNT>
0

> <PUBCHEM_ISOTOPIC_ATOM_COUNT>
0

> <PUBCHEM_COMPONENT_COUNT>
1

> <PUBCHEM_CACTVS_TAUTO_COUNT>
2

> <PUBCHEM_COORDINATE_TYPE>
1
5
255

> <PUBCHEM_BONDANNOTATIONS>
5  6  3

$$$$

