93358
  -OEChem-07051213133D

 35 35  0     1  0  0  0  0  0999 V2000
    0.6951   -1.4453   -0.6393 O   0  0  0  0  0  0  0  0  0  0  0  0
   -2.8917    0.6435    0.1937 O   0  0  0  0  0  0  0  0  0  0  0  0
   -2.0329   -1.7598    2.3337 O   0  5  0  0  0  0  0  0  0  0  0  0
   -1.6091   -2.4418    0.2819 O   0  0  0  0  0  0  0  0  0  0  0  0
    2.9735   -1.7539   -0.3894 O   0  0  0  0  0  0  0  0  0  0  0  0
   -3.3215    1.5608   -1.8854 O   0  0  0  0  0  0  0  0  0  0  0  0
   -1.5393   -1.6277    1.2088 N   0  3  0  0  0  0  0  0  0  0  0  0
   -0.8090   -0.3582    0.9346 C   0  0  1  0  0  0  0  0  0  0  0  0
    0.6446   -0.7376    0.6042 C   0  0  2  0  0  0  0  0  0  0  0  0
    1.5576    0.4595    0.4506 C   0  0  0  0  0  0  0  0  0  0  0  0
   -1.5610    0.3257   -0.2062 C   0  0  0  0  0  0  0  0  0  0  0  0
    2.2218    0.9498    1.5616 C   0  0  0  0  0  0  0  0  0  0  0  0
    1.7091    1.0380   -0.7977 C   0  0  0  0  0  0  0  0  0  0  0  0
    3.0633    2.0532    1.4201 C   0  0  0  0  0  0  0  0  0  0  0  0
    2.5508    2.1413   -0.9393 C   0  0  0  0  0  0  0  0  0  0  0  0
    1.9267   -1.8935   -1.0057 C   0  0  0  0  0  0  0  0  0  0  0  0
    3.2279    2.6490    0.1696 C   0  0  0  0  0  0  0  0  0  0  0  0
   -3.6596    1.2601   -0.7496 C   0  0  0  0  0  0  0  0  0  0  0  0
    1.8785   -2.6131   -2.3041 C   0  0  0  0  0  0  0  0  0  0  0  0
   -5.0249    1.5498   -0.2421 C   0  0  0  0  0  0  0  0  0  0  0  0
   -0.8675    0.2444    1.8493 H   0  0  0  0  0  0  0  0  0  0  0  0
    1.0370   -1.4037    1.3864 H   0  0  0  0  0  0  0  0  0  0  0  0
   -1.5963   -0.2946   -1.1106 H   0  0  0  0  0  0  0  0  0  0  0  0
   -1.0615    1.2672   -0.4596 H   0  0  0  0  0  0  0  0  0  0  0  0
    2.0978    0.4929    2.5390 H   0  0  0  0  0  0  0  0  0  0  0  0
    1.1753    0.6907   -1.6774 H   0  0  0  0  0  0  0  0  0  0  0  0
    3.5899    2.4489    2.2836 H   0  0  0  0  0  0  0  0  0  0  0  0
    2.6737    2.6098   -1.9115 H   0  0  0  0  0  0  0  0  0  0  0  0
    3.8818    3.5092    0.0597 H   0  0  0  0  0  0  0  0  0  0  0  0
    1.5241   -1.9391   -3.0880 H   0  0  0  0  0  0  0  0  0  0  0  0
    1.2212   -3.4824   -2.2217 H   0  0  0  0  0  0  0  0  0  0  0  0
    2.8805   -2.9601   -2.5727 H   0  0  0  0  0  0  0  0  0  0  0  0
   -5.6137    2.0418   -1.0219 H   0  0  0  0  0  0  0  0  0  0  0  0
   -5.5240    0.6168    0.0317 H   0  0  0  0  0  0  0  0  0  0  0  0
   -4.9654    2.2184    0.6205 H   0  0  0  0  0  0  0  0  0  0  0  0
  1  9  1  0  0  0  0
  1 16  1  0  0  0  0
  2 11  1  0  0  0  0
  2 18  1  0  0  0  0
  3  7  1  0  0  0  0
  4  7  2  0  0  0  0
  5 16  2  0  0  0  0
  6 18  2  0  0  0  0
  7  8  1  0  0  0  0
  8  9  1  0  0  0  0
  8 11  1  0  0  0  0
  8 21  1  0  0  0  0
  9 10  1  0  0  0  0
  9 22  1  0  0  0  0
 10 12  2  0  0  0  0
 10 13  1  0  0  0  0
 11 23  1  0  0  0  0
 11 24  1  0  0  0  0
 12 14  1  0  0  0  0
 12 25  1  0  0  0  0
 13 15  2  0  0  0  0
 13 26  1  0  0  0  0
 14 17  2  0  0  0  0
 14 27  1  0  0  0  0
 15 17  1  0  0  0  0
 15 28  1  0  0  0  0
 16 19  1  0  0  0  0
 17 29  1  0  0  0  0
 18 20  1  0  0  0  0
 19 30  1  0  0  0  0
 19 31  1  0  0  0  0
 19 32  1  0  0  0  0
 20 33  1  0  0  0  0
 20 34  1  0  0  0  0
 20 35  1  0  0  0  0
M  CHG  2   3  -1   7   1
M  END
> <PUBCHEM_COMPOUND_CID>
93358

> <PUBCHEM_CONFORMER_RMSD>
0.8

> <PUBCHEM_CONFORMER_DIVERSEORDER>
1
30
28
38
9
8
6
24
33
35
29
16
10
23
17
7
31
15
21
2
32
26
4
13
34
19
25
5
20
37
12
27
36
3
22
14
11
18

> <PUBCHEM_MMFF94_PARTIAL_CHARGES>
25
1 -0.43
10 -0.14
11 0.28
12 -0.15
13 -0.15
14 -0.15
15 -0.15
16 0.66
17 -0.15
18 0.66
19 0.06
2 -0.43
20 0.06
25 0.15
26 0.15
27 0.15
28 0.15
29 0.15
3 -0.52
4 -0.52
5 -0.57
6 -0.57
7 0.8
8 0.24
9 0.42

> <PUBCHEM_EFFECTIVE_ROTOR_COUNT>
8

> <PUBCHEM_PHARMACOPHORE_FEATURES>
6
1 3 acceptor
1 3 anion
1 4 acceptor
1 5 acceptor
1 6 acceptor
6 10 12 13 14 15 17 rings

> <PUBCHEM_HEAVY_ATOM_COUNT>
20

> <PUBCHEM_ATOM_DEF_STEREO_COUNT>
2

> <PUBCHEM_ATOM_UDEF_STEREO_COUNT>
0

> <PUBCHEM_BOND_DEF_STEREO_COUNT>
0

> <PUBCHEM_BOND_UDEF_STEREO_COUNT>
0

> <PUBCHEM_ISOTOPIC_ATOM_COUNT>
0

> <PUBCHEM_COMPONENT_COUNT>
1

> <PUBCHEM_CACTVS_TAUTO_COUNT>
2

> <PUBCHEM_CONFORMER_ID>
00016CAE00000001

> <PUBCHEM_MMFF94_ENERGY>
47.2114

> <PUBCHEM_FEATURE_SELFOVERLAP>
30.525

> <PUBCHEM_SHAPE_FINGERPRINT>
10165383 225 17612272331160294320
10764073 3 14540357029076528449
11578080 2 18125125356349088885
12035758 1 18269290108816838018
121448 382 17097502985921150340
12633257 1 17416711105769362816
13134695 92 18116438244095886644
13149001 5 18267286802414885295
13294875 104 17916593187905836290
13681431 1 17970608900392047278
14181834 199 18113903809791109718
14614273 12 17973156236404463531
15502722 9 18114185245833403501
15852999 172 18335996293356664320
18186145 218 18270403927038971525
18915476 22 18187350030742669207
18981168 100 18268691888133292481
20233049 118 17345471685641579438
20600515 1 17981025720951425966
21503847 285 18120652689646409545
21947302 44 18411141367601007093
22182313 1 18269254829723677931
23114952 82 18335693979182835205
23526113 38 18194670699456597838
23557571 272 18058432236973020321
238 59 17967529060463102636
2748010 2 18340751676820419739
3060560 45 18124889103484107503
474 4 18412270562170090265
495365 180 18114189631021633136
6049 1 18198596935309771203
633830 44 18271521022510959261
7097593 13 17130731429814194400
7364860 26 18114186384105472092
81228 2 17844791604574254427
88987 49 17489298668516630035
9862522 239 18121227480702904748
9981440 41 18043268867397791504

> <PUBCHEM_SHAPE_MULTIPOLES>
371.39
6.84
3.21
1.82
7.67
1.05
0.12
-5.1
-1.29
-2.2
-0.86
0.15
0.64
2.28

> <PUBCHEM_SHAPE_SELFOVERLAP>
766.528

> <PUBCHEM_SHAPE_VOLUME>
210.7

> <PUBCHEM_COORDINATE_TYPE>
2
5
10

$$$$

