68712
  -OEChem-07051213013D

 29 31  0     0  0  0  0  0  0999 V2000
    2.4084    0.1368    1.0799 O   0  0  0  0  0  0  0  0  0  0  0  0
    0.1609    0.1599    0.6789 N   0  0  0  0  0  0  0  0  0  0  0  0
    1.7299   -0.4620   -1.0157 N   0  0  0  0  0  0  0  0  0  0  0  0
   -1.8132    1.2815   -0.2481 C   0  0  0  0  0  0  0  0  0  0  0  0
   -1.9191   -1.1063    0.5364 C   0  0  0  0  0  0  0  0  0  0  0  0
   -1.0515   -0.0342   -0.1152 C   0  0  0  0  0  0  0  0  0  0  0  0
   -1.1104    2.4263   -0.8697 C   0  0  0  0  0  0  0  0  0  0  0  0
   -1.3885    2.4143    0.6049 C   0  0  0  0  0  0  0  0  0  0  0  0
   -3.1808   -1.4807   -0.1418 C   0  0  0  0  0  0  0  0  0  0  0  0
   -2.0124   -2.4224   -0.1353 C   0  0  0  0  0  0  0  0  0  0  0  0
    1.4061   -0.0723    0.1783 C   0  0  0  0  0  0  0  0  0  0  0  0
    3.5752   -0.3695    0.4518 C   0  0  0  0  0  0  0  0  0  0  0  0
    3.1956   -0.4714   -1.0045 C   0  0  0  0  0  0  0  0  0  0  0  0
   -2.8616    1.1738   -0.4906 H   0  0  0  0  0  0  0  0  0  0  0  0
   -1.9376   -1.0602    1.6180 H   0  0  0  0  0  0  0  0  0  0  0  0
   -0.7999   -0.3506   -1.1355 H   0  0  0  0  0  0  0  0  0  0  0  0
   -1.6897    3.1059   -1.4834 H   0  0  0  0  0  0  0  0  0  0  0  0
   -0.0842    2.3085   -1.1945 H   0  0  0  0  0  0  0  0  0  0  0  0
   -0.5304    2.3947    1.2613 H   0  0  0  0  0  0  0  0  0  0  0  0
   -2.1661    3.0783    0.9702 H   0  0  0  0  0  0  0  0  0  0  0  0
   -3.4416   -1.0336   -1.0930 H   0  0  0  0  0  0  0  0  0  0  0  0
   -4.0335   -1.7336    0.4767 H   0  0  0  0  0  0  0  0  0  0  0  0
   -2.0808   -3.3050    0.4891 H   0  0  0  0  0  0  0  0  0  0  0  0
   -1.4897   -2.5825   -1.0701 H   0  0  0  0  0  0  0  0  0  0  0  0
    0.0544    0.3850    1.6639 H   0  0  0  0  0  0  0  0  0  0  0  0
    3.8136   -1.3464    0.8855 H   0  0  0  0  0  0  0  0  0  0  0  0
    4.4196    0.3067    0.6135 H   0  0  0  0  0  0  0  0  0  0  0  0
    3.5674    0.3886   -1.5722 H   0  0  0  0  0  0  0  0  0  0  0  0
    3.5959   -1.3810   -1.4622 H   0  0  0  0  0  0  0  0  0  0  0  0
  1 11  1  0  0  0  0
  1 12  1  0  0  0  0
  2  6  1  0  0  0  0
  2 11  1  0  0  0  0
  2 25  1  0  0  0  0
  3 11  2  0  0  0  0
  3 13  1  0  0  0  0
  4  6  1  0  0  0  0
  4  7  1  0  0  0  0
  4  8  1  0  0  0  0
  4 14  1  0  0  0  0
  5  6  1  0  0  0  0
  5  9  1  0  0  0  0
  5 10  1  0  0  0  0
  5 15  1  0  0  0  0
  6 16  1  0  0  0  0
  7  8  1  0  0  0  0
  7 17  1  0  0  0  0
  7 18  1  0  0  0  0
  8 19  1  0  0  0  0
  8 20  1  0  0  0  0
  9 10  1  0  0  0  0
  9 21  1  0  0  0  0
  9 22  1  0  0  0  0
 10 23  1  0  0  0  0
 10 24  1  0  0  0  0
 12 13  1  0  0  0  0
 12 26  1  0  0  0  0
 12 27  1  0  0  0  0
 13 28  1  0  0  0  0
 13 29  1  0  0  0  0
M  END
> <PUBCHEM_COMPOUND_CID>
68712

> <PUBCHEM_CONFORMER_RMSD>
0.6

> <PUBCHEM_CONFORMER_DIVERSEORDER>
1
36
9
23
34
28
14
17
25
19
33
8
11
20
16
12
32
22
10
13
26
15
30
39
4
31
35
7
21
29
18
37
6
3
38
27
24
5
2

> <PUBCHEM_MMFF94_PARTIAL_CHARGES>
24
1 -0.43
10 -0.2
11 0.65
12 0.28
13 0.25
14 0.1
15 0.1
17 0.1
18 0.1
19 0.1
2 -0.82
20 0.1
21 0.1
22 0.1
23 0.1
24 0.1
25 0.4
3 -0.7
4 -0.19
5 -0.19
6 0.56
7 -0.2
8 -0.2
9 -0.2

> <PUBCHEM_EFFECTIVE_ROTOR_COUNT>
5.8

> <PUBCHEM_PHARMACOPHORE_FEATURES>
3
1 2 donor
3 2 3 11 cation
5 1 3 11 12 13 rings

> <PUBCHEM_HEAVY_ATOM_COUNT>
13

> <PUBCHEM_ATOM_DEF_STEREO_COUNT>
0

> <PUBCHEM_ATOM_UDEF_STEREO_COUNT>
0

> <PUBCHEM_BOND_DEF_STEREO_COUNT>
0

> <PUBCHEM_BOND_UDEF_STEREO_COUNT>
0

> <PUBCHEM_ISOTOPIC_ATOM_COUNT>
0

> <PUBCHEM_COMPONENT_COUNT>
1

> <PUBCHEM_CACTVS_TAUTO_COUNT>
2

> <PUBCHEM_CONFORMER_ID>
00010C6800000001

> <PUBCHEM_MMFF94_ENERGY>
31.4753

> <PUBCHEM_FEATURE_SELFOVERLAP>
15.223

> <PUBCHEM_SHAPE_FINGERPRINT>
1 1 17331965426656067581
11322862 65 18118951727682367799
12138202 97 18267026239591253724
12500047 106 18195533825143393142
12716758 59 18192430981448790954
12932764 1 18340759442595797994
15669948 3 18271523186493559038
15848700 24 18263372408408513271
16945 1 18411419557049036129
17844478 74 18040995120427518066
18186145 218 11023290722214558579
18380122 1 18041853791932976264
18534176 82 18334864964616648428
20361792 2 18267584598530941279
20524608 308 18265614458044906711
20645477 56 18338794649561019632
20645477 70 17403184695066823647
20711985 344 18411140255436475835
20871998 184 18334855030562923815
20871998 22 18193558861530800899
21061003 4 17240482477169528402
21296965 67 18269273461455286307
21524375 3 17697601352605014417
21930827 45 18263643038017749424
228727 97 17846778485840020899
23402539 116 18337125539364783959
23419403 2 17693137030363979917
23557571 272 18335417946383635192
23559900 14 18336556005606351250
23598294 1 18341614853651411723
2748010 2 18194696877577334617
305870 269 17547294865892195432
5902787 121 17983302525563665611
6049 1 18040150730252841456
6333449 129 18337112366531444057
7364860 26 17543064585562493867
7615 1 17775566455521004988
8030462 33 17775564239064737690
81228 2 18411975871415038033
88987 49 18341334508599362972

> <PUBCHEM_SHAPE_MULTIPOLES>
251.7
5.23
2.49
0.98
4.17
0.95
-0.06
-2.27
-0.15
-2.88
-0.21
0.44
0.13
0.15

> <PUBCHEM_SHAPE_SELFOVERLAP>
517.809

> <PUBCHEM_SHAPE_VOLUME>
146.5

> <PUBCHEM_COORDINATE_TYPE>
2
5
10

$$$$

