10806
  -OEChem-06261204593D

 36 37  0     0  0  0  0  0  0999 V2000
    2.6256   -0.6721    0.5653 O   0  0  0  0  0  0  0  0  0  0  0  0
    3.2651    1.7518    1.5685 O   0  0  0  0  0  0  0  0  0  0  0  0
    3.4831   -0.4151   -1.5745 O   0  0  0  0  0  0  0  0  0  0  0  0
   -1.7416    0.5051   -0.5484 N   0  0  0  0  0  0  0  0  0  0  0  0
   -2.3646    0.4186    0.5247 N   0  0  0  0  0  0  0  0  0  0  0  0
    1.7778    0.4048    0.3339 C   0  0  0  0  0  0  0  0  0  0  0  0
   -0.5226    1.1267   -0.4327 C   0  0  0  0  0  0  0  0  0  0  0  0
    0.5584    0.1970   -0.1858 C   0  0  0  0  0  0  0  0  0  0  0  0
    2.3580    1.7141    0.7367 C   0  0  0  0  0  0  0  0  0  0  0  0
   -0.4023    2.4540   -0.5806 C   0  0  0  0  0  0  0  0  0  0  0  0
    1.9534    2.9698    0.0672 C   0  0  0  0  0  0  0  0  0  0  0  0
    0.7895    3.2540   -0.5210 C   0  0  0  0  0  0  0  0  0  0  0  0
   -3.5915   -0.2292    0.2986 C   0  0  0  0  0  0  0  0  0  0  0  0
   -3.6704   -1.6141    0.4053 C   0  0  0  0  0  0  0  0  0  0  0  0
   -4.7171    0.5194   -0.0305 C   0  0  0  0  0  0  0  0  0  0  0  0
   -4.8875   -2.2573    0.1803 C   0  0  0  0  0  0  0  0  0  0  0  0
   -5.9343   -0.1239   -0.2554 C   0  0  0  0  0  0  0  0  0  0  0  0
    3.4334   -0.9806   -0.4906 C   0  0  0  0  0  0  0  0  0  0  0  0
    4.2878   -2.1455   -0.1158 C   0  0  0  0  0  0  0  0  0  0  0  0
   -6.0193   -1.5122   -0.1500 C   0  0  0  0  0  0  0  0  0  0  0  0
    4.1591   -2.7754    1.2375 C   0  0  0  0  0  0  0  0  0  0  0  0
    5.1598   -2.5900   -1.0328 C   0  0  0  0  0  0  0  0  0  0  0  0
    0.3102   -0.8404   -0.4193 H   0  0  0  0  0  0  0  0  0  0  0  0
   -1.3034    3.0299   -0.7907 H   0  0  0  0  0  0  0  0  0  0  0  0
    2.7125    3.7495    0.0892 H   0  0  0  0  0  0  0  0  0  0  0  0
    0.6795    4.2470   -0.9541 H   0  0  0  0  0  0  0  0  0  0  0  0
   -2.7936   -2.2021    0.6629 H   0  0  0  0  0  0  0  0  0  0  0  0
   -4.6596    1.6013   -0.1140 H   0  0  0  0  0  0  0  0  0  0  0  0
   -4.9539   -3.3382    0.2624 H   0  0  0  0  0  0  0  0  0  0  0  0
   -6.8157    0.4562   -0.5124 H   0  0  0  0  0  0  0  0  0  0  0  0
   -6.9670   -2.0130   -0.3251 H   0  0  0  0  0  0  0  0  0  0  0  0
    4.8489   -3.6169    1.3640 H   0  0  0  0  0  0  0  0  0  0  0  0
    4.3827   -2.0470    2.0240 H   0  0  0  0  0  0  0  0  0  0  0  0
    3.1443   -3.1574    1.3893 H   0  0  0  0  0  0  0  0  0  0  0  0
    5.8093   -3.4334   -0.8200 H   0  0  0  0  0  0  0  0  0  0  0  0
    5.2589   -2.1387   -2.0144 H   0  0  0  0  0  0  0  0  0  0  0  0
  1  6  1  0  0  0  0
  1 18  1  0  0  0  0
  2  9  2  0  0  0  0
  3 18  2  0  0  0  0
  4  5  2  0  0  0  0
  4  7  1  0  0  0  0
  5 13  1  0  0  0  0
  6  8  2  0  0  0  0
  6  9  1  0  0  0  0
  7  8  1  0  0  0  0
  7 10  2  0  0  0  0
  8 23  1  0  0  0  0
  9 11  1  0  0  0  0
 10 12  1  0  0  0  0
 10 24  1  0  0  0  0
 11 12  2  0  0  0  0
 11 25  1  0  0  0  0
 12 26  1  0  0  0  0
 13 14  2  0  0  0  0
 13 15  1  0  0  0  0
 14 16  1  0  0  0  0
 14 27  1  0  0  0  0
 15 17  2  0  0  0  0
 15 28  1  0  0  0  0
 16 20  2  0  0  0  0
 16 29  1  0  0  0  0
 17 20  1  0  0  0  0
 17 30  1  0  0  0  0
 18 19  1  0  0  0  0
 19 21  1  0  0  0  0
 19 22  2  0  0  0  0
 20 31  1  0  0  0  0
 21 32  1  0  0  0  0
 21 33  1  0  0  0  0
 21 34  1  0  0  0  0
 22 35  1  0  0  0  0
 22 36  1  0  0  0  0
M  END
> <PUBCHEM_COMPOUND_CID>
10806

> <PUBCHEM_CONFORMER_RMSD>
0.8

> <PUBCHEM_CONFORMER_DIVERSEORDER>
1
30
40
4
26
49
3
27
21
11
45
36
31
34
19
5
25
33
23
41
12
13
29
15
8
18
28
9
48
43
2
14
20
46
35
47
32
44
38
37
17
10
6
24
39
7
42
16
22

> <PUBCHEM_MMFF94_PARTIAL_CHARGES>
33
1 -0.23
10 -0.15
11 -0.14
12 -0.15
13 0.18
14 -0.15
15 -0.15
16 -0.15
17 -0.15
18 0.71
19 -0.12
2 -0.57
20 -0.15
21 0.14
22 -0.3
23 0.15
24 0.15
25 0.15
26 0.15
27 0.15
28 0.15
29 0.15
3 -0.57
30 0.15
31 0.15
35 0.15
36 0.15
4 -0.17
5 -0.18
6 0.09
7 0.17
8 -0.15
9 0.54

> <PUBCHEM_EFFECTIVE_ROTOR_COUNT>
5

> <PUBCHEM_PHARMACOPHORE_FEATURES>
4
1 2 acceptor
1 3 acceptor
6 13 14 15 16 17 20 rings
7 6 7 8 9 10 11 12 rings

> <PUBCHEM_HEAVY_ATOM_COUNT>
22

> <PUBCHEM_ATOM_DEF_STEREO_COUNT>
0

> <PUBCHEM_ATOM_UDEF_STEREO_COUNT>
0

> <PUBCHEM_BOND_DEF_STEREO_COUNT>
0

> <PUBCHEM_BOND_UDEF_STEREO_COUNT>
0

> <PUBCHEM_ISOTOPIC_ATOM_COUNT>
0

> <PUBCHEM_COMPONENT_COUNT>
1

> <PUBCHEM_CACTVS_TAUTO_COUNT>
1

> <PUBCHEM_CONFORMER_ID>
00002A3600000001

> <PUBCHEM_MMFF94_ENERGY>
71.6068

> <PUBCHEM_FEATURE_SELFOVERLAP>
20.297

> <PUBCHEM_SHAPE_FINGERPRINT>
10622 236 17752506278051760167
11405975 8 18334851719580949657
114674 6 18272094850978251370
12107183 9 18263916817220486553
12293681 25 17983331301833915132
12553582 1 18337403745840298886
13103583 49 18115292509945766249
13533116 47 18262799558718712587
13540713 4 18265916802848762800
13583140 156 17461164258133141865
13631057 29 18196930188200772094
13911852 28 18337111296900477959
13955234 65 18191584151195036073
14178000 29 18411415115926238709
14251740 57 18335141951421288411
14251764 30 18115860974922603982
14341114 176 18408317770792010753
14790565 3 17547851859074643652
14866123 147 18049722120733179633
15352361 1 18411698824317825471
17492 89 18267019458566445491
17844677 252 18408880725145959273
1813 80 18261944241176804164
18222031 100 18335980943096185830
20403669 9 18337952393315286543
20645477 70 18270685251586221337
21033650 10 16845013540774248957
22182313 1 18267889296448887476
22224240 67 18044668486214382416
22950370 63 18339071696241552566
23424784 1240 17984691217867333739
23559900 14 18410016507656492521
239999 70 18338516339716450962
3004659 81 17988358260627899918
316301 35 18412831287013934914
3421961 26 18409168800943974440
38570 142 14057867954371972794
463206 1 18273494602200441355
465052 167 18260823812947760670
5104073 3 18114454592450159755
5207 123 18410856577320818861
6823239 73 18412831282576062232
7970288 3 18267306606662567970
960060 61 17918267645325273503
9709674 26 18198902501290866555
9971528 1 18412827954382966077

> <PUBCHEM_SHAPE_MULTIPOLES>
425.18
13.16
3.65
1.03
13.19
1.01
-0.04
-12.36
0.54
-3.91
-0.04
-1.21
-0.11
0.79

> <PUBCHEM_SHAPE_SELFOVERLAP>
905.374

> <PUBCHEM_SHAPE_VOLUME>
233.1

> <PUBCHEM_COORDINATE_TYPE>
2
5
10

$$$$

