5282278
  -OEChem-07051213042D

117116  0     1  0  0  0  0  0999 V2000
   14.1244   -1.7500    0.0000 O   0  0  0  0  0  0  0  0  0  0  0  0
   17.5885   -1.7500    0.0000 O   0  0  0  0  0  0  0  0  0  0  0  0
   13.2583   -3.2500    0.0000 O   0  0  0  0  0  0  0  0  0  0  0  0
   18.4545   -3.2500    0.0000 O   0  0  0  0  0  0  0  0  0  0  0  0
   14.9904   -4.2500    0.0000 N   0  0  0  0  0  0  0  0  0  0  0  0
    3.7320    1.2500    0.0000 C   0  0  0  0  0  0  0  0  0  0  0  0
   27.9808    1.2500    0.0000 C   0  0  0  0  0  0  0  0  0  0  0  0
    4.5981    0.7500    0.0000 C   0  0  0  0  0  0  0  0  0  0  0  0
   27.1147    0.7500    0.0000 C   0  0  0  0  0  0  0  0  0  0  0  0
    8.9282   -1.7500    0.0000 C   0  0  0  0  0  0  0  0  0  0  0  0
   22.7846   -1.7500    0.0000 C   0  0  0  0  0  0  0  0  0  0  0  0
    9.7942   -2.2500    0.0000 C   0  0  0  0  0  0  0  0  0  0  0  0
   21.9186   -2.2500    0.0000 C   0  0  0  0  0  0  0  0  0  0  0  0
    3.7320    2.2500    0.0000 C   0  0  0  0  0  0  0  0  0  0  0  0
   27.9808    2.2500    0.0000 C   0  0  0  0  0  0  0  0  0  0  0  0
    4.5981   -0.2500    0.0000 C   0  0  0  0  0  0  0  0  0  0  0  0
   27.1147   -0.2500    0.0000 C   0  0  0  0  0  0  0  0  0  0  0  0
    8.0622   -2.2500    0.0000 C   0  0  0  0  0  0  0  0  0  0  0  0
   23.6506   -2.2500    0.0000 C   0  0  0  0  0  0  0  0  0  0  0  0
   10.6603   -1.7500    0.0000 C   0  0  0  0  0  0  0  0  0  0  0  0
   21.0526   -1.7500    0.0000 C   0  0  0  0  0  0  0  0  0  0  0  0
    2.8660    2.7500    0.0000 C   0  0  0  0  0  0  0  0  0  0  0  0
   28.8468    2.7500    0.0000 C   0  0  0  0  0  0  0  0  0  0  0  0
    5.4641   -0.7500    0.0000 C   0  0  0  0  0  0  0  0  0  0  0  0
   26.2487   -0.7500    0.0000 C   0  0  0  0  0  0  0  0  0  0  0  0
    7.1962   -1.7500    0.0000 C   0  0  0  0  0  0  0  0  0  0  0  0
   24.5167   -1.7500    0.0000 C   0  0  0  0  0  0  0  0  0  0  0  0
   11.5263   -2.2500    0.0000 C   0  0  0  0  0  0  0  0  0  0  0  0
   20.1865   -2.2500    0.0000 C   0  0  0  0  0  0  0  0  0  0  0  0
    2.8660    3.7500    0.0000 C   0  0  0  0  0  0  0  0  0  0  0  0
   28.8468    3.7500    0.0000 C   0  0  0  0  0  0  0  0  0  0  0  0
    5.4641   -1.7500    0.0000 C   0  0  0  0  0  0  0  0  0  0  0  0
   26.2487   -1.7500    0.0000 C   0  0  0  0  0  0  0  0  0  0  0  0
    6.3301   -2.2500    0.0000 C   0  0  0  0  0  0  0  0  0  0  0  0
   25.3827   -2.2500    0.0000 C   0  0  0  0  0  0  0  0  0  0  0  0
   12.3923   -1.7500    0.0000 C   0  0  0  0  0  0  0  0  0  0  0  0
   19.3205   -1.7500    0.0000 C   0  0  0  0  0  0  0  0  0  0  0  0
    2.0000    4.2500    0.0000 C   0  0  0  0  0  0  0  0  0  0  0  0
   29.7128    4.2500    0.0000 C   0  0  0  0  0  0  0  0  0  0  0  0
   13.2583   -2.2500    0.0000 C   0  0  0  0  0  0  0  0  0  0  0  0
   18.4545   -2.2500    0.0000 C   0  0  0  0  0  0  0  0  0  0  0  0
   14.9904   -2.2500    0.0000 C   0  0  3  0  0  0  0  0  0  0  0  0
   16.7224   -2.2500    0.0000 C   0  0  0  0  0  0  0  0  0  0  0  0
   15.8564   -1.7500    0.0000 C   0  0  0  0  0  0  0  0  0  0  0  0
   15.8564   -0.7500    0.0000 C   0  0  0  0  0  0  0  0  0  0  0  0
   14.9904   -3.2500    0.0000 C   0  0  0  0  0  0  0  0  0  0  0  0
    3.1215    1.3577    0.0000 H   0  0  0  0  0  0  0  0  0  0  0  0
    3.5200    0.6674    0.0000 H   0  0  0  0  0  0  0  0  0  0  0  0
   28.1928    0.6674    0.0000 H   0  0  0  0  0  0  0  0  0  0  0  0
   28.5913    1.3577    0.0000 H   0  0  0  0  0  0  0  0  0  0  0  0
    5.2087    0.6423    0.0000 H   0  0  0  0  0  0  0  0  0  0  0  0
    4.8101    1.3326    0.0000 H   0  0  0  0  0  0  0  0  0  0  0  0
   26.9027    1.3326    0.0000 H   0  0  0  0  0  0  0  0  0  0  0  0
   26.5042    0.6423    0.0000 H   0  0  0  0  0  0  0  0  0  0  0  0
    9.3267   -1.2750    0.0000 H   0  0  0  0  0  0  0  0  0  0  0  0
    8.5297   -1.2750    0.0000 H   0  0  0  0  0  0  0  0  0  0  0  0
   23.1831   -1.2750    0.0000 H   0  0  0  0  0  0  0  0  0  0  0  0
   22.3861   -1.2750    0.0000 H   0  0  0  0  0  0  0  0  0  0  0  0
    9.3957   -2.7250    0.0000 H   0  0  0  0  0  0  0  0  0  0  0  0
   10.1928   -2.7250    0.0000 H   0  0  0  0  0  0  0  0  0  0  0  0
   21.5201   -2.7250    0.0000 H   0  0  0  0  0  0  0  0  0  0  0  0
   22.3171   -2.7250    0.0000 H   0  0  0  0  0  0  0  0  0  0  0  0
    4.3426    2.1423    0.0000 H   0  0  0  0  0  0  0  0  0  0  0  0
    3.9441    2.8326    0.0000 H   0  0  0  0  0  0  0  0  0  0  0  0
   27.7687    2.8326    0.0000 H   0  0  0  0  0  0  0  0  0  0  0  0
   27.3702    2.1423    0.0000 H   0  0  0  0  0  0  0  0  0  0  0  0
    3.9875   -0.1423    0.0000 H   0  0  0  0  0  0  0  0  0  0  0  0
    4.3860   -0.8326    0.0000 H   0  0  0  0  0  0  0  0  0  0  0  0
   27.3268   -0.8326    0.0000 H   0  0  0  0  0  0  0  0  0  0  0  0
   27.7253   -0.1423    0.0000 H   0  0  0  0  0  0  0  0  0  0  0  0
    7.6636   -2.7250    0.0000 H   0  0  0  0  0  0  0  0  0  0  0  0
    8.4607   -2.7250    0.0000 H   0  0  0  0  0  0  0  0  0  0  0  0
   23.2521   -2.7250    0.0000 H   0  0  0  0  0  0  0  0  0  0  0  0
   24.0492   -2.7250    0.0000 H   0  0  0  0  0  0  0  0  0  0  0  0
   11.0588   -1.2750    0.0000 H   0  0  0  0  0  0  0  0  0  0  0  0
   10.2617   -1.2750    0.0000 H   0  0  0  0  0  0  0  0  0  0  0  0
   21.4511   -1.2750    0.0000 H   0  0  0  0  0  0  0  0  0  0  0  0
   20.6540   -1.2750    0.0000 H   0  0  0  0  0  0  0  0  0  0  0  0
    2.2554    2.8577    0.0000 H   0  0  0  0  0  0  0  0  0  0  0  0
    2.6540    2.1674    0.0000 H   0  0  0  0  0  0  0  0  0  0  0  0
   29.0588    2.1674    0.0000 H   0  0  0  0  0  0  0  0  0  0  0  0
   29.4574    2.8577    0.0000 H   0  0  0  0  0  0  0  0  0  0  0  0
    6.0747   -0.8577    0.0000 H   0  0  0  0  0  0  0  0  0  0  0  0
    5.6762   -0.1674    0.0000 H   0  0  0  0  0  0  0  0  0  0  0  0
   26.0367   -0.1674    0.0000 H   0  0  0  0  0  0  0  0  0  0  0  0
   25.6381   -0.8577    0.0000 H   0  0  0  0  0  0  0  0  0  0  0  0
    7.5947   -1.2750    0.0000 H   0  0  0  0  0  0  0  0  0  0  0  0
    6.7976   -1.2750    0.0000 H   0  0  0  0  0  0  0  0  0  0  0  0
   24.9152   -1.2750    0.0000 H   0  0  0  0  0  0  0  0  0  0  0  0
   24.1181   -1.2750    0.0000 H   0  0  0  0  0  0  0  0  0  0  0  0
   11.1278   -2.7250    0.0000 H   0  0  0  0  0  0  0  0  0  0  0  0
   11.9248   -2.7250    0.0000 H   0  0  0  0  0  0  0  0  0  0  0  0
   19.7880   -2.7250    0.0000 H   0  0  0  0  0  0  0  0  0  0  0  0
   20.5851   -2.7250    0.0000 H   0  0  0  0  0  0  0  0  0  0  0  0
    3.4766    3.6423    0.0000 H   0  0  0  0  0  0  0  0  0  0  0  0
    3.0781    4.3326    0.0000 H   0  0  0  0  0  0  0  0  0  0  0  0
   28.6347    4.3326    0.0000 H   0  0  0  0  0  0  0  0  0  0  0  0
   28.2362    3.6423    0.0000 H   0  0  0  0  0  0  0  0  0  0  0  0
    4.9272   -2.0600    0.0000 H   0  0  0  0  0  0  0  0  0  0  0  0
   26.7856   -2.0600    0.0000 H   0  0  0  0  0  0  0  0  0  0  0  0
    6.3301   -2.8700    0.0000 H   0  0  0  0  0  0  0  0  0  0  0  0
   25.3827   -2.8700    0.0000 H   0  0  0  0  0  0  0  0  0  0  0  0
   12.7908   -1.2750    0.0000 H   0  0  0  0  0  0  0  0  0  0  0  0
   11.9938   -1.2750    0.0000 H   0  0  0  0  0  0  0  0  0  0  0  0
   19.7190   -1.2750    0.0000 H   0  0  0  0  0  0  0  0  0  0  0  0
   18.9220   -1.2750    0.0000 H   0  0  0  0  0  0  0  0  0  0  0  0
    2.3100    4.7869    0.0000 H   0  0  0  0  0  0  0  0  0  0  0  0
    1.4631    4.5600    0.0000 H   0  0  0  0  0  0  0  0  0  0  0  0
    1.6900    3.7131    0.0000 H   0  0  0  0  0  0  0  0  0  0  0  0
   30.0228    3.7131    0.0000 H   0  0  0  0  0  0  0  0  0  0  0  0
   30.2497    4.5600    0.0000 H   0  0  0  0  0  0  0  0  0  0  0  0
   29.4028    4.7869    0.0000 H   0  0  0  0  0  0  0  0  0  0  0  0
   14.9904   -1.6300    0.0000 H   0  0  0  0  0  0  0  0  0  0  0  0
   16.3239   -2.7250    0.0000 H   0  0  0  0  0  0  0  0  0  0  0  0
   17.1210   -2.7250    0.0000 H   0  0  0  0  0  0  0  0  0  0  0  0
   16.3933   -0.4400    0.0000 H   0  0  0  0  0  0  0  0  0  0  0  0
   15.3195   -0.4400    0.0000 H   0  0  0  0  0  0  0  0  0  0  0  0
  1 40  1  0  0  0  0
  1 42  1  0  0  0  0
  2 41  1  0  0  0  0
  2 43  1  0  0  0  0
  3 40  2  0  0  0  0
  4 41  2  0  0  0  0
  5 46  3  0  0  0  0
  6  8  1  0  0  0  0
  6 14  1  0  0  0  0
  6 47  1  0  0  0  0
  6 48  1  0  0  0  0
  7  9  1  0  0  0  0
  7 15  1  0  0  0  0
  7 49  1  0  0  0  0
  7 50  1  0  0  0  0
  8 16  1  0  0  0  0
  8 51  1  0  0  0  0
  8 52  1  0  0  0  0
  9 17  1  0  0  0  0
  9 53  1  0  0  0  0
  9 54  1  0  0  0  0
 10 12  1  0  0  0  0
 10 18  1  0  0  0  0
 10 55  1  0  0  0  0
 10 56  1  0  0  0  0
 11 13  1  0  0  0  0
 11 19  1  0  0  0  0
 11 57  1  0  0  0  0
 11 58  1  0  0  0  0
 12 20  1  0  0  0  0
 12 59  1  0  0  0  0
 12 60  1  0  0  0  0
 13 21  1  0  0  0  0
 13 61  1  0  0  0  0
 13 62  1  0  0  0  0
 14 22  1  0  0  0  0
 14 63  1  0  0  0  0
 14 64  1  0  0  0  0
 15 23  1  0  0  0  0
 15 65  1  0  0  0  0
 15 66  1  0  0  0  0
 16 24  1  0  0  0  0
 16 67  1  0  0  0  0
 16 68  1  0  0  0  0
 17 25  1  0  0  0  0
 17 69  1  0  0  0  0
 17 70  1  0  0  0  0
 18 26  1  0  0  0  0
 18 71  1  0  0  0  0
 18 72  1  0  0  0  0
 19 27  1  0  0  0  0
 19 73  1  0  0  0  0
 19 74  1  0  0  0  0
 20 28  1  0  0  0  0
 20 75  1  0  0  0  0
 20 76  1  0  0  0  0
 21 29  1  0  0  0  0
 21 77  1  0  0  0  0
 21 78  1  0  0  0  0
 22 30  1  0  0  0  0
 22 79  1  0  0  0  0
 22 80  1  0  0  0  0
 23 31  1  0  0  0  0
 23 81  1  0  0  0  0
 23 82  1  0  0  0  0
 24 32  1  0  0  0  0
 24 83  1  0  0  0  0
 24 84  1  0  0  0  0
 25 33  1  0  0  0  0
 25 85  1  0  0  0  0
 25 86  1  0  0  0  0
 26 34  1  0  0  0  0
 26 87  1  0  0  0  0
 26 88  1  0  0  0  0
 27 35  1  0  0  0  0
 27 89  1  0  0  0  0
 27 90  1  0  0  0  0
 28 36  1  0  0  0  0
 28 91  1  0  0  0  0
 28 92  1  0  0  0  0
 29 37  1  0  0  0  0
 29 93  1  0  0  0  0
 29 94  1  0  0  0  0
 30 38  1  0  0  0  0
 30 95  1  0  0  0  0
 30 96  1  0  0  0  0
 31 39  1  0  0  0  0
 31 97  1  0  0  0  0
 31 98  1  0  0  0  0
 32 34  2  0  0  0  0
 32 99  1  0  0  0  0
 33 35  2  0  0  0  0
 33100  1  0  0  0  0
 34101  1  0  0  0  0
 35102  1  0  0  0  0
 36 40  1  0  0  0  0
 36103  1  0  0  0  0
 36104  1  0  0  0  0
 37 41  1  0  0  0  0
 37105  1  0  0  0  0
 37106  1  0  0  0  0
 38107  1  0  0  0  0
 38108  1  0  0  0  0
 38109  1  0  0  0  0
 39110  1  0  0  0  0
 39111  1  0  0  0  0
 39112  1  0  0  0  0
 42 44  1  0  0  0  0
 42 46  1  0  0  0  0
 42113  1  0  0  0  0
 43 44  1  0  0  0  0
 43114  1  0  0  0  0
 43115  1  0  0  0  0
 44 45  2  0  0  0  0
 45116  1  0  0  0  0
 45117  1  0  0  0  0
M  END
> <PUBCHEM_COMPOUND_CID>
5282278

> <PUBCHEM_COMPOUND_CANONICALIZED>
1

> <PUBCHEM_CACTVS_COMPLEXITY>
837

> <PUBCHEM_CACTVS_HBOND_ACCEPTOR>
5

> <PUBCHEM_CACTVS_HBOND_DONOR>
0

> <PUBCHEM_CACTVS_ROTATABLE_BOND>
36

> <PUBCHEM_CACTVS_SUBSKEYS>
AAADcfB+OAAAAAAAAAAAAAAAAAAAAAAAAAAAAAAAAAAAAAAAAAAAHgAAAAAADBShgAICCAAABACYBiDSCAAAAAAgAAAICAEAAAgAhBIAIQACAAAFgAAIIAuIyKCAAAAAAAAAAAAAAAAAAAAAAAAAAAAAAA==

> <PUBCHEM_IUPAC_OPENEYE_NAME>
2-[cyano-[(Z)-octadec-9-enoyl]oxy-methyl]allyl (Z)-octadec-9-enoate

> <PUBCHEM_IUPAC_CAS_NAME>
(Z)-9-octadecenoic acid 2-[cyano-[(Z)-1-oxooctadec-9-enoxy]methyl]prop-2-enyl ester

> <PUBCHEM_IUPAC_NAME>
2-[cyano-[(Z)-octadec-9-enoyl]oxymethyl]prop-2-enyl (Z)-octadec-9-enoate

> <PUBCHEM_IUPAC_SYSTEMATIC_NAME>
2-[cyano-[(Z)-octadec-9-enoyl]oxy-methyl]prop-2-enyl (Z)-octadec-9-enoate

> <PUBCHEM_IUPAC_TRADITIONAL_NAME>
(Z)-octadec-9-enoic acid 2-[cyano-[(Z)-octadec-9-enoyl]oxy-methyl]allyl ester

> <PUBCHEM_IUPAC_INCHI>
InChI=1S/C41H71NO4/c1-4-6-8-10-12-14-16-18-20-22-24-26-28-30-32-34-40(43)45-37-38(3)39(36-42)46-41(44)35-33-31-29-27-25-23-21-19-17-15-13-11-9-7-5-2/h18-21,39H,3-17,22-35,37H2,1-2H3/b20-18-,21-19-

> <PUBCHEM_IUPAC_INCHIKEY>
XGMYKLVNSJNGSZ-AUYXYSRISA-N

> <PUBCHEM_XLOGP3_AA>
15.6

> <PUBCHEM_EXACT_MASS>
641.53831

> <PUBCHEM_MOLECULAR_FORMULA>
C41H71NO4

> <PUBCHEM_MOLECULAR_WEIGHT>
642.00674

> <PUBCHEM_OPENEYE_CAN_SMILES>
CCCCCCCCC=CCCCCCCCC(=O)OCC(=C)C(C#N)OC(=O)CCCCCCCC=CCCCCCCCC

> <PUBCHEM_OPENEYE_ISO_SMILES>
CCCCCCCC/C=C\CCCCCCCC(=O)OCC(=C)C(C#N)OC(=O)CCCCCCC/C=C\CCCCCCCC

> <PUBCHEM_CACTVS_TPSA>
76.4

> <PUBCHEM_MONOISOTOPIC_WEIGHT>
641.53831

> <PUBCHEM_TOTAL_CHARGE>
0

> <PUBCHEM_HEAVY_ATOM_COUNT>
46

> <PUBCHEM_ATOM_DEF_STEREO_COUNT>
0

> <PUBCHEM_ATOM_UDEF_STEREO_COUNT>
1

> <PUBCHEM_BOND_DEF_STEREO_COUNT>
2

> <PUBCHEM_BOND_UDEF_STEREO_COUNT>
0

> <PUBCHEM_ISOTOPIC_ATOM_COUNT>
0

> <PUBCHEM_COMPONENT_COUNT>
1

> <PUBCHEM_CACTVS_TAUTO_COUNT>
1

> <PUBCHEM_COORDINATE_TYPE>
1
5
255

> <PUBCHEM_BONDANNOTATIONS>
42  44  3

$$$$

