17395795
  -OEChem-06241222523D

 50 52  0     0  0  0  0  0  0999 V2000
   -1.9354   -1.7987   -0.6471 O   0  0  0  0  0  0  0  0  0  0  0  0
    7.4630   -1.1648   -0.0961 O   0  0  0  0  0  0  0  0  0  0  0  0
   -4.5140   -1.2253   -1.4379 O   0  0  0  0  0  0  0  0  0  0  0  0
    0.1619   -0.6359    0.7462 N   0  0  0  0  0  0  0  0  0  0  0  0
    2.8651    0.1772    0.3097 N   0  0  0  0  0  0  0  0  0  0  0  0
   -3.3981   -0.2738    0.3459 N   0  0  0  0  0  0  0  0  0  0  0  0
   -6.9883   -0.0164   -0.3759 N   0  0  0  0  0  0  0  0  0  0  0  0
    1.1398   -0.6893    1.8396 C   0  0  0  0  0  0  0  0  0  0  0  0
    0.4627    0.4970   -0.1380 C   0  0  0  0  0  0  0  0  0  0  0  0
    2.5613   -0.8617    1.2986 C   0  0  0  0  0  0  0  0  0  0  0  0
    1.8610    0.3630   -0.7454 C   0  0  0  0  0  0  0  0  0  0  0  0
   -1.1962   -0.5252    1.2774 C   0  0  0  0  0  0  0  0  0  0  0  0
    4.1977    0.4819    0.0102 C   0  0  0  0  0  0  0  0  0  0  0  0
   -2.1859   -0.9613    0.2156 C   0  0  0  0  0  0  0  0  0  0  0  0
    5.1780   -0.5055    0.1078 C   0  0  0  0  0  0  0  0  0  0  0  0
    4.5455    1.7733   -0.3859 C   0  0  0  0  0  0  0  0  0  0  0  0
    6.5061   -0.2015   -0.1910 C   0  0  0  0  0  0  0  0  0  0  0  0
    5.8736    2.0774   -0.6845 C   0  0  0  0  0  0  0  0  0  0  0  0
    6.8538    1.0899   -0.5871 C   0  0  0  0  0  0  0  0  0  0  0  0
   -4.5114   -0.4381   -0.4904 C   0  0  0  0  0  0  0  0  0  0  0  0
   -5.6929    0.3594   -0.1331 C   0  0  0  0  0  0  0  0  0  0  0  0
   -5.7195    1.5887    0.4876 C   0  0  0  0  0  0  0  0  0  0  0  0
   -7.8412    0.9542    0.0811 C   0  0  0  0  0  0  0  0  0  0  0  0
   -7.0786    1.9651    0.6230 C   0  0  0  0  0  0  0  0  0  0  0  0
   -7.4086   -1.2446   -1.0139 C   0  0  0  0  0  0  0  0  0  0  0  0
    8.8006   -0.7851   -0.4163 C   0  0  0  0  0  0  0  0  0  0  0  0
    1.0860    0.2218    2.4508 H   0  0  0  0  0  0  0  0  0  0  0  0
    0.9230   -1.5383    2.4993 H   0  0  0  0  0  0  0  0  0  0  0  0
   -0.2581    0.5473   -0.9626 H   0  0  0  0  0  0  0  0  0  0  0  0
    0.3947    1.4464    0.4106 H   0  0  0  0  0  0  0  0  0  0  0  0
    2.6615   -1.8542    0.8407 H   0  0  0  0  0  0  0  0  0  0  0  0
    3.2558   -0.8062    2.1461 H   0  0  0  0  0  0  0  0  0  0  0  0
    1.8945   -0.4947   -1.4297 H   0  0  0  0  0  0  0  0  0  0  0  0
    2.0597    1.2601   -1.3429 H   0  0  0  0  0  0  0  0  0  0  0  0
   -1.4090    0.4846    1.6481 H   0  0  0  0  0  0  0  0  0  0  0  0
   -1.3444   -1.2212    2.1133 H   0  0  0  0  0  0  0  0  0  0  0  0
    4.9353   -1.5237    0.4001 H   0  0  0  0  0  0  0  0  0  0  0  0
    3.7989    2.5603   -0.4540 H   0  0  0  0  0  0  0  0  0  0  0  0
    6.1440    3.0843   -0.9896 H   0  0  0  0  0  0  0  0  0  0  0  0
   -3.4830    0.3764    1.1227 H   0  0  0  0  0  0  0  0  0  0  0  0
    7.8653    1.3948   -0.8329 H   0  0  0  0  0  0  0  0  0  0  0  0
   -4.8630    2.1669    0.8063 H   0  0  0  0  0  0  0  0  0  0  0  0
   -8.9139    0.8519   -0.0151 H   0  0  0  0  0  0  0  0  0  0  0  0
   -7.4607    2.8744    1.0652 H   0  0  0  0  0  0  0  0  0  0  0  0
   -8.4946   -1.3421   -0.9332 H   0  0  0  0  0  0  0  0  0  0  0  0
   -6.9324   -2.0870   -0.5061 H   0  0  0  0  0  0  0  0  0  0  0  0
   -7.1209   -1.2033   -2.0672 H   0  0  0  0  0  0  0  0  0  0  0  0
    8.8921   -0.4787   -1.4639 H   0  0  0  0  0  0  0  0  0  0  0  0
    9.1788   -0.0233    0.2737 H   0  0  0  0  0  0  0  0  0  0  0  0
    9.4283   -1.6729   -0.2872 H   0  0  0  0  0  0  0  0  0  0  0  0
  1 14  2  0  0  0  0
  2 17  1  0  0  0  0
  2 26  1  0  0  0  0
  3 20  2  0  0  0  0
  4  8  1  0  0  0  0
  4  9  1  0  0  0  0
  4 12  1  0  0  0  0
  5 10  1  0  0  0  0
  5 11  1  0  0  0  0
  5 13  1  0  0  0  0
  6 14  1  0  0  0  0
  6 20  1  0  0  0  0
  6 40  1  0  0  0  0
  7 21  1  0  0  0  0
  7 23  1  0  0  0  0
  7 25  1  0  0  0  0
  8 10  1  0  0  0  0
  8 27  1  0  0  0  0
  8 28  1  0  0  0  0
  9 11  1  0  0  0  0
  9 29  1  0  0  0  0
  9 30  1  0  0  0  0
 10 31  1  0  0  0  0
 10 32  1  0  0  0  0
 11 33  1  0  0  0  0
 11 34  1  0  0  0  0
 12 14  1  0  0  0  0
 12 35  1  0  0  0  0
 12 36  1  0  0  0  0
 13 15  2  0  0  0  0
 13 16  1  0  0  0  0
 15 17  1  0  0  0  0
 15 37  1  0  0  0  0
 16 18  2  0  0  0  0
 16 38  1  0  0  0  0
 17 19  2  0  0  0  0
 18 19  1  0  0  0  0
 18 39  1  0  0  0  0
 19 41  1  0  0  0  0
 20 21  1  0  0  0  0
 21 22  2  0  0  0  0
 22 24  1  0  0  0  0
 22 42  1  0  0  0  0
 23 24  2  0  0  0  0
 23 43  1  0  0  0  0
 24 44  1  0  0  0  0
 25 45  1  0  0  0  0
 25 46  1  0  0  0  0
 25 47  1  0  0  0  0
 26 48  1  0  0  0  0
 26 49  1  0  0  0  0
 26 50  1  0  0  0  0
M  END
> <PUBCHEM_COMPOUND_CID>
17395795

> <PUBCHEM_CONFORMER_RMSD>
1.2

> <PUBCHEM_CONFORMER_DIVERSEORDER>
2
37
67
38
75
35
62
66
61
89
39
47
26
94
13
68
97
81
63
64
71
16
96
69
90
57
92
55
88
24
43
85
74
82
3
60
73
84
78
76
44
65
27
18
15
58
91
25
28
54
14
22
49
30
23
99
31
41
51
40
17
1
98
32
20
8
72
6
29
87
48
56
80
12
100
50
77
79
83
21
53
36
34
11
52
42
59
33
4
70
95
93
19
10
7
45
5
86
46
9

> <PUBCHEM_MMFF94_PARTIAL_CHARGES>
34
1 -0.57
10 0.37
11 0.37
12 0.33
13 0.1
14 0.57
15 -0.15
16 -0.15
17 0.08
18 -0.15
19 -0.15
2 -0.36
20 0.71
21 -0.24
22 -0.15
23 -0.3
24 -0.15
25 0.26
26 0.28
3 -0.57
37 0.15
38 0.15
39 0.15
4 -0.81
40 0.37
41 0.15
42 0.15
43 0.15
44 0.15
5 -0.84
6 -0.49
7 0.05
8 0.27
9 0.27

> <PUBCHEM_EFFECTIVE_ROTOR_COUNT>
8.2

> <PUBCHEM_PHARMACOPHORE_FEATURES>
10
1 1 acceptor
1 2 acceptor
1 3 acceptor
1 4 cation
1 5 cation
1 6 donor
1 7 cation
5 7 21 22 23 24 rings
6 13 15 16 17 18 19 rings
6 4 5 8 9 10 11 rings

> <PUBCHEM_HEAVY_ATOM_COUNT>
26

> <PUBCHEM_ATOM_DEF_STEREO_COUNT>
0

> <PUBCHEM_ATOM_UDEF_STEREO_COUNT>
0

> <PUBCHEM_BOND_DEF_STEREO_COUNT>
0

> <PUBCHEM_BOND_UDEF_STEREO_COUNT>
0

> <PUBCHEM_ISOTOPIC_ATOM_COUNT>
0

> <PUBCHEM_COMPONENT_COUNT>
1

> <PUBCHEM_CACTVS_TAUTO_COUNT>
3

> <PUBCHEM_CONFORMER_ID>
0109705300000002

> <PUBCHEM_MMFF94_ENERGY>
78.7701

> <PUBCHEM_FEATURE_SELFOVERLAP>
50.751

> <PUBCHEM_SHAPE_FINGERPRINT>
10 15 14045741517099306465
10299344 5 18409731767897826023
106641 1 9727628402350611866
10669705 176 18410295796600455151
10670039 82 18187087291283923977
10730089 173 18333731338802313537
11135609 127 18115313268219676400
11646440 116 16630526232554874964
11719270 70 17095520721339259998
11724838 91 8646766695400446794
12082328 90 18334014974015575631
12236239 1 18413110563409962331
12643181 29 14634876340416301853
13177829 20 10807932661221398542
13533116 47 16988574536978117434
13668630 136 5184343015388582677
13685833 64 5617540696162432512
13914758 101 18334008415268003408
13964095 4 17894631461359196963
13968360 50 17458339775738405022
14251752 14 17894349981908073487
14251764 18 18343023285466145487
14251764 46 18260266356188620323
14294032 229 17970338433169370297
14933364 13 18201718444420395737
15183329 4 18187363237793238009
15276724 80 18130231548436065429
15301273 46 14045747049059674266
15690457 1 8430310230428223953
1577012 14 18342745143858758379
15840311 113 18060415781355926892
1754911 235 18202008724913396647
18335252 114 18343306950802636116
19841028 212 17822569538628271110
20281389 69 17775570844566371709
21033648 29 17346035538197951168
21095123 145 15769763642440375435
21150785 3 18334576828646717651
21315763 28 18335702719715705845
21585482 111 17773883184992986797
21792961 116 17530962493336522579
22224240 67 15769775736983897913
23198884 109 18410012118194498147
23559900 14 15430613748819420731
249057 3 18408884023638514622
255183 451 18121779706698877834
29717793 49 18261106375373583982
3009799 131 16008750212224104690
335352 9 18131066031365875510
3633792 109 18115018714502767434
4073 2 17988920020637964938
4098825 35 18334858350488280127
4339292 15 16588319233620505143
4340502 62 13110968626034780360
5385378 56 16773803619035872842
5758199 1 17490150811713768937
5969126 39 5112012712148975451
6126387 218 7132441198927180843
6328613 192 18411698760072794129
6698420 124 17917986187433500136
9953998 17 16343695535786769609

> <PUBCHEM_SHAPE_MULTIPOLES>
497.54
27.27
1.69
1.12
2.75
0.6
-0.21
4.94
5.86
0.15
0.1
0.53
-0.3
-1.9

> <PUBCHEM_SHAPE_SELFOVERLAP>
1052.099

> <PUBCHEM_SHAPE_VOLUME>
278.8

> <PUBCHEM_COORDINATE_TYPE>
2
5
10

$$$$

