444450
  -OEChem-07051212503D

 35 37  0     1  0  0  0  0  0999 V2000
    4.4084    1.3679    0.0487 P   0  0  0  0  0  0  0  0  0  0  0  0
    0.7378   -0.6654    1.0593 O   0  0  0  0  0  0  0  0  0  0  0  0
   -1.1810   -2.6973   -1.2012 O   0  0  0  0  0  0  0  0  0  0  0  0
    0.7208   -3.6599    0.4845 O   0  0  0  0  0  0  0  0  0  0  0  0
    3.3324    0.3103    0.6367 O   0  0  0  0  0  0  0  0  0  0  0  0
    3.6374    2.0448   -1.2013 O   0  0  0  0  0  0  0  0  0  0  0  0
    5.5026    0.4128   -0.6622 O   0  0  0  0  0  0  0  0  0  0  0  0
    4.9661    2.3305    1.0559 O   0  0  0  0  0  0  0  0  0  0  0  0
   -1.2853    0.1801    0.1525 N   0  0  0  0  0  0  0  0  0  0  0  0
   -1.7276    2.3038   -0.3702 N   0  0  0  0  0  0  0  0  0  0  0  0
   -3.5485   -0.6571    0.4342 N   0  0  0  0  0  0  0  0  0  0  0  0
   -5.1995    1.0971    0.0424 N   0  0  0  0  0  0  0  0  0  0  0  0
   -0.1402   -1.8258   -0.8093 C   0  0  2  0  0  0  0  0  0  0  0  0
    1.1014   -2.5575   -0.3389 C   0  0  1  0  0  0  0  0  0  0  0  0
   -0.5075   -1.0250    0.4307 C   0  0  1  0  0  0  0  0  0  0  0  0
    1.7875   -1.5083    0.5303 C   0  0  1  0  0  0  0  0  0  0  0  0
    2.7581   -0.6333   -0.2505 C   0  0  0  0  0  0  0  0  0  0  0  0
   -2.6471    0.2992    0.1647 C   0  0  0  0  0  0  0  0  0  0  0  0
   -0.7791    1.4117   -0.1743 C   0  0  0  0  0  0  0  0  0  0  0  0
   -2.9001    1.6220   -0.1616 C   0  0  0  0  0  0  0  0  0  0  0  0
   -4.2345    2.0115   -0.2185 C   0  0  0  0  0  0  0  0  0  0  0  0
   -4.8023   -0.1619    0.3479 C   0  0  0  0  0  0  0  0  0  0  0  0
    0.1014   -1.1671   -1.6515 H   0  0  0  0  0  0  0  0  0  0  0  0
    1.7130   -2.9466   -1.1579 H   0  0  0  0  0  0  0  0  0  0  0  0
   -1.0860   -1.6160    1.1515 H   0  0  0  0  0  0  0  0  0  0  0  0
    2.2977   -1.9514    1.3931 H   0  0  0  0  0  0  0  0  0  0  0  0
    2.2375   -0.0914   -1.0459 H   0  0  0  0  0  0  0  0  0  0  0  0
    3.5474   -1.2485   -0.6933 H   0  0  0  0  0  0  0  0  0  0  0  0
   -1.3521   -3.3110   -0.4668 H   0  0  0  0  0  0  0  0  0  0  0  0
    1.5382   -4.0773    0.8059 H   0  0  0  0  0  0  0  0  0  0  0  0
    0.2821    1.6021   -0.2605 H   0  0  0  0  0  0  0  0  0  0  0  0
   -4.5615    3.0140   -0.4615 H   0  0  0  0  0  0  0  0  0  0  0  0
   -5.6009   -0.8675    0.5508 H   0  0  0  0  0  0  0  0  0  0  0  0
    4.0706    2.7805   -1.6840 H   0  0  0  0  0  0  0  0  0  0  0  0
    6.3206    0.8156   -1.0239 H   0  0  0  0  0  0  0  0  0  0  0  0
  1  5  1  0  0  0  0
  1  6  1  0  0  0  0
  1  7  1  0  0  0  0
  1  8  2  0  0  0  0
  2 15  1  0  0  0  0
  2 16  1  0  0  0  0
  3 13  1  0  0  0  0
  3 29  1  0  0  0  0
  4 14  1  0  0  0  0
  4 30  1  0  0  0  0
  5 17  1  0  0  0  0
  6 34  1  0  0  0  0
  7 35  1  0  0  0  0
  9 15  1  0  0  0  0
  9 18  1  0  0  0  0
  9 19  1  0  0  0  0
 10 19  2  0  0  0  0
 10 20  1  0  0  0  0
 11 18  2  0  0  0  0
 11 22  1  0  0  0  0
 12 21  1  0  0  0  0
 12 22  2  0  0  0  0
 13 14  1  0  0  0  0
 13 15  1  0  0  0  0
 13 23  1  0  0  0  0
 14 16  1  0  0  0  0
 14 24  1  0  0  0  0
 15 25  1  0  0  0  0
 16 17  1  0  0  0  0
 16 26  1  0  0  0  0
 17 27  1  0  0  0  0
 17 28  1  0  0  0  0
 18 20  1  0  0  0  0
 19 31  1  0  0  0  0
 20 21  2  0  0  0  0
 21 32  1  0  0  0  0
 22 33  1  0  0  0  0
M  END
> <PUBCHEM_COMPOUND_CID>
444450

> <PUBCHEM_CONFORMER_RMSD>
0.8

> <PUBCHEM_CONFORMER_DIVERSEORDER>
6
34
21
13
45
8
57
49
29
56
4
18
12
46
35
48
55
24
30
51
42
19
40
3
54
32
17
41
31
25
14
26
28
53
33
39
11
43
44
16
1
20
9
10
22
37
36
47
38
15
27
2
23
5
7
50
52

> <PUBCHEM_MMFF94_PARTIAL_CHARGES>
29
1 1.51
10 -0.57
11 -0.57
12 -0.62
13 0.28
14 0.28
15 0.54
16 0.28
17 0.28
18 0.11
19 0.04
2 -0.56
20 0.23
21 0.16
22 0.47
29 0.4
3 -0.68
30 0.4
31 0.15
32 0.15
33 0.15
34 0.5
35 0.5
4 -0.68
5 -0.55
6 -0.77
7 -0.77
8 -0.7
9 0.05

> <PUBCHEM_EFFECTIVE_ROTOR_COUNT>
5

> <PUBCHEM_PHARMACOPHORE_FEATURES>
15
1 2 acceptor
1 3 acceptor
1 3 donor
1 4 acceptor
1 4 donor
1 6 acceptor
1 7 acceptor
1 8 acceptor
3 11 12 22 cation
3 9 10 19 cation
3 9 11 18 cation
4 1 6 7 8 anion
5 2 13 14 15 16 rings
5 9 10 18 19 20 rings
6 11 12 18 20 21 22 rings

> <PUBCHEM_HEAVY_ATOM_COUNT>
22

> <PUBCHEM_ATOM_DEF_STEREO_COUNT>
4

> <PUBCHEM_ATOM_UDEF_STEREO_COUNT>
0

> <PUBCHEM_BOND_DEF_STEREO_COUNT>
0

> <PUBCHEM_BOND_UDEF_STEREO_COUNT>
0

> <PUBCHEM_ISOTOPIC_ATOM_COUNT>
0

> <PUBCHEM_COMPONENT_COUNT>
1

> <PUBCHEM_CACTVS_TAUTO_COUNT>
1

> <PUBCHEM_CONFORMER_ID>
0006C82200000006

> <PUBCHEM_MMFF94_ENERGY>
14.3149

> <PUBCHEM_FEATURE_SELFOVERLAP>
76.77

> <PUBCHEM_SHAPE_FINGERPRINT>
10090160 65 18272655644947558839
10493431 412 18337113362900748144
10498660 4 18410293644083458692
10871710 139 18265056816887620799
10906281 52 18342161290305035473
12173636 292 18337959974322557998
12403259 118 18198640988620391384
12788726 201 17410762572043807098
13583140 156 17201381773295721250
14123255 52 18409452479381228720
14341114 328 17346880031272533952
14528608 73 18408045125898892925
1454969 45 18337110060825284647
14787075 74 18333735684966039731
14790565 3 18408880720329369729
15196674 1 18412544344427486825
19591789 44 18194118517286640521
19784866 170 18341608231096690515
20645477 56 18262518075141667272
21524375 3 18410008849550520570
22113638 7 18270681948583025524
22620623 9 16951418606605834839
23227448 37 18190463762026353676
23559900 14 17979361085837234371
34934 24 18412830218146936827
350125 39 18340206401258762698
38570 142 17130404824202079676
44154327 71 18411419522694566116
474 4 18131345315255280340
5104073 3 18200025300210171105
6442390 28 18410575067757977658
7288768 16 16484153580289739636
7364860 26 18194120956648839922
7808743 9 18195530290617949992
9709674 26 17977663435958395359
9981440 41 18272087188582528651
9999458 23 18269272529410927662

> <PUBCHEM_SHAPE_MULTIPOLES>
395.59
10.16
3.28
0.9
2.46
1.68
0.05
-8.09
-0.35
1.35
0.34
0.47
0.07
0.16

> <PUBCHEM_SHAPE_SELFOVERLAP>
836.978

> <PUBCHEM_SHAPE_VOLUME>
224

> <PUBCHEM_COORDINATE_TYPE>
2
5
10

$$$$

