236179
  -OEChem-07051213073D

 55 58  0     1  0  0  0  0  0999 V2000
    0.4122   -0.0486   -1.5300 F   0  0  0  0  0  0  0  0  0  0  0  0
   -5.0794   -0.8205    0.0846 O   0  0  0  0  0  0  0  0  0  0  0  0
   -0.3343   -2.2498    1.2082 O   0  0  0  0  0  0  0  0  0  0  0  0
    5.8117    0.1873   -0.9987 O   0  0  0  0  0  0  0  0  0  0  0  0
   -1.8485    0.8783   -0.1108 C   0  0  1  0  0  0  0  0  0  0  0  0
   -0.4257    0.8545    0.4719 C   0  0  1  0  0  0  0  0  0  0  0  0
   -2.6357   -0.4235    0.1429 C   0  0  1  0  0  0  0  0  0  0  0  0
    0.3681   -0.3282   -0.1730 C   0  0  2  0  0  0  0  0  0  0  0  0
    1.8764   -0.3517    0.3043 C   0  0  2  0  0  0  0  0  0  0  0  0
   -4.0221   -0.0410   -0.4710 C   0  0  2  0  0  0  0  0  0  0  0  0
   -0.3965   -1.6814   -0.0895 C   0  0  2  0  0  0  0  0  0  0  0  0
   -1.8719   -1.5751   -0.5421 C   0  0  0  0  0  0  0  0  0  0  0  0
    2.4994    1.0438   -0.0423 C   0  0  1  0  0  0  0  0  0  0  0  0
   -2.8110    1.9688    0.3488 C   0  0  0  0  0  0  0  0  0  0  0  0
    0.2744    2.2018    0.2247 C   0  0  0  0  0  0  0  0  0  0  0  0
   -4.2045    1.4402   -0.0407 C   0  0  0  0  0  0  0  0  0  0  0  0
    1.7433    2.1920    0.6342 C   0  0  0  0  0  0  0  0  0  0  0  0
    2.6781   -1.4198   -0.4945 C   0  0  0  0  0  0  0  0  0  0  0  0
   -2.8280   -0.7445    1.6540 C   0  0  0  0  0  0  0  0  0  0  0  0
    2.0084   -0.6618    1.8174 C   0  0  0  0  0  0  0  0  0  0  0  0
    4.0013    1.1370    0.2478 C   0  0  0  0  0  0  0  0  0  0  0  0
   -4.1387   -0.1717   -1.9949 C   0  0  0  0  0  0  0  0  0  0  0  0
    4.1813   -1.3876   -0.2315 C   0  0  0  0  0  0  0  0  0  0  0  0
    4.7417    0.0016   -0.4198 C   0  0  0  0  0  0  0  0  0  0  0  0
   -1.7318    1.0156   -1.1964 H   0  0  0  0  0  0  0  0  0  0  0  0
   -0.4804    0.7208    1.5556 H   0  0  0  0  0  0  0  0  0  0  0  0
    0.0790   -2.4001   -0.7660 H   0  0  0  0  0  0  0  0  0  0  0  0
   -1.8637   -1.4265   -1.6282 H   0  0  0  0  0  0  0  0  0  0  0  0
   -2.3894   -2.5237   -0.3534 H   0  0  0  0  0  0  0  0  0  0  0  0
    2.3950    1.1881   -1.1289 H   0  0  0  0  0  0  0  0  0  0  0  0
   -2.6039    2.9300   -0.1326 H   0  0  0  0  0  0  0  0  0  0  0  0
   -2.7526    2.1212    1.4325 H   0  0  0  0  0  0  0  0  0  0  0  0
   -0.2382    2.9977    0.7778 H   0  0  0  0  0  0  0  0  0  0  0  0
    0.2054    2.4663   -0.8385 H   0  0  0  0  0  0  0  0  0  0  0  0
   -4.8930    1.5395    0.8068 H   0  0  0  0  0  0  0  0  0  0  0  0
   -4.6212    2.0461   -0.8537 H   0  0  0  0  0  0  0  0  0  0  0  0
    2.1927    3.1517    0.3510 H   0  0  0  0  0  0  0  0  0  0  0  0
    1.8257    2.1220    1.7251 H   0  0  0  0  0  0  0  0  0  0  0  0
    2.5132   -1.2676   -1.5694 H   0  0  0  0  0  0  0  0  0  0  0  0
    2.3126   -2.4272   -0.2633 H   0  0  0  0  0  0  0  0  0  0  0  0
   -1.9386   -0.5971    2.2631 H   0  0  0  0  0  0  0  0  0  0  0  0
   -3.5913   -0.1062    2.1141 H   0  0  0  0  0  0  0  0  0  0  0  0
   -3.1646   -1.7786    1.7907 H   0  0  0  0  0  0  0  0  0  0  0  0
    3.0112   -0.4474    2.1978 H   0  0  0  0  0  0  0  0  0  0  0  0
    1.3180   -0.0796    2.4322 H   0  0  0  0  0  0  0  0  0  0  0  0
    1.8436   -1.7222    2.0300 H   0  0  0  0  0  0  0  0  0  0  0  0
    4.2243    1.1202    1.3187 H   0  0  0  0  0  0  0  0  0  0  0  0
    4.3936    2.0801   -0.1516 H   0  0  0  0  0  0  0  0  0  0  0  0
   -3.3734    0.3955   -2.5314 H   0  0  0  0  0  0  0  0  0  0  0  0
   -4.0789   -1.2218   -2.3017 H   0  0  0  0  0  0  0  0  0  0  0  0
   -5.1186    0.1821   -2.3377 H   0  0  0  0  0  0  0  0  0  0  0  0
    4.6854   -2.0672   -0.9275 H   0  0  0  0  0  0  0  0  0  0  0  0
    4.4177   -1.7193    0.7844 H   0  0  0  0  0  0  0  0  0  0  0  0
   -5.9228   -0.4492   -0.2262 H   0  0  0  0  0  0  0  0  0  0  0  0
   -0.3333   -1.5431    1.8694 H   0  0  0  0  0  0  0  0  0  0  0  0
  1  8  1  0  0  0  0
  2 10  1  0  0  0  0
  2 54  1  0  0  0  0
  3 11  1  0  0  0  0
  3 55  1  0  0  0  0
  4 24  2  0  0  0  0
  5  6  1  0  0  0  0
  5  7  1  0  0  0  0
  5 14  1  0  0  0  0
  5 25  1  0  0  0  0
  6  8  1  0  0  0  0
  6 15  1  0  0  0  0
  6 26  1  0  0  0  0
  7 10  1  0  0  0  0
  7 12  1  0  0  0  0
  7 19  1  0  0  0  0
  8  9  1  0  0  0  0
  8 11  1  0  0  0  0
  9 13  1  0  0  0  0
  9 18  1  0  0  0  0
  9 20  1  0  0  0  0
 10 16  1  0  0  0  0
 10 22  1  0  0  0  0
 11 12  1  0  0  0  0
 11 27  1  0  0  0  0
 12 28  1  0  0  0  0
 12 29  1  0  0  0  0
 13 17  1  0  0  0  0
 13 21  1  0  0  0  0
 13 30  1  0  0  0  0
 14 16  1  0  0  0  0
 14 31  1  0  0  0  0
 14 32  1  0  0  0  0
 15 17  1  0  0  0  0
 15 33  1  0  0  0  0
 15 34  1  0  0  0  0
 16 35  1  0  0  0  0
 16 36  1  0  0  0  0
 17 37  1  0  0  0  0
 17 38  1  0  0  0  0
 18 23  1  0  0  0  0
 18 39  1  0  0  0  0
 18 40  1  0  0  0  0
 19 41  1  0  0  0  0
 19 42  1  0  0  0  0
 19 43  1  0  0  0  0
 20 44  1  0  0  0  0
 20 45  1  0  0  0  0
 20 46  1  0  0  0  0
 21 24  1  0  0  0  0
 21 47  1  0  0  0  0
 21 48  1  0  0  0  0
 22 49  1  0  0  0  0
 22 50  1  0  0  0  0
 22 51  1  0  0  0  0
 23 24  1  0  0  0  0
 23 52  1  0  0  0  0
 23 53  1  0  0  0  0
M  END
> <PUBCHEM_COMPOUND_CID>
236179

> <PUBCHEM_CONFORMER_RMSD>
0.6

> <PUBCHEM_CONFORMER_DIVERSEORDER>
1

> <PUBCHEM_MMFF94_PARTIAL_CHARGES>
12
1 -0.34
10 0.28
11 0.28
2 -0.68
21 0.06
23 0.06
24 0.45
3 -0.68
4 -0.57
54 0.4
55 0.4
8 0.34

> <PUBCHEM_EFFECTIVE_ROTOR_COUNT>
2

> <PUBCHEM_PHARMACOPHORE_FEATURES>
9
1 2 acceptor
1 2 donor
1 3 acceptor
1 3 donor
1 4 acceptor
5 5 7 10 14 16 rings
6 5 6 7 8 11 12 rings
6 6 8 9 13 15 17 rings
6 9 13 18 21 23 24 rings

> <PUBCHEM_HEAVY_ATOM_COUNT>
24

> <PUBCHEM_ATOM_DEF_STEREO_COUNT>
8

> <PUBCHEM_ATOM_UDEF_STEREO_COUNT>
0

> <PUBCHEM_BOND_DEF_STEREO_COUNT>
0

> <PUBCHEM_BOND_UDEF_STEREO_COUNT>
0

> <PUBCHEM_ISOTOPIC_ATOM_COUNT>
0

> <PUBCHEM_COMPONENT_COUNT>
1

> <PUBCHEM_CACTVS_TAUTO_COUNT>
3

> <PUBCHEM_CONFORMER_ID>
00039A9300000001

> <PUBCHEM_MMFF94_ENERGY>
101.1311

> <PUBCHEM_FEATURE_SELFOVERLAP>
45.754

> <PUBCHEM_SHAPE_FINGERPRINT>
10366900 7 18060142024614385505
10863032 1 18412825802266370610
10906281 52 18263342790356010460
10967382 1 18408887321514073400
12011746 2 18411420609178880333
12236239 1 17989205962701948462
12403259 226 18334864883434600753
12403259 415 18272941505397316717
12553582 1 18336274482646638944
12788726 201 18190741036536001648
12969540 114 18202295700846778359
13140716 1 17833274125145905145
13224815 77 18202568388515235497
13583140 156 16630521813065156017
13862211 1 18334862727302632110
14223421 5 18052253994857633483
14787075 74 18411418410107963368
14790565 3 18265605679216929408
15196674 1 18408603690405842264
15209289 33 18409449197957668809
15536298 74 18187651280001998856
15788980 27 17821729442053579100
15848702 151 17821721779874062782
16752209 62 18337681900479949720
16945 1 18261399892716009977
17349148 13 17675926490749342975
18186145 218 18202290216516159469
19591789 44 18337955709071847146
19862831 5 18342178860267007612
200 152 17894631456668571257
20775438 99 16742037413855167799
20871999 31 18410572907426045660
21029758 11 18333452049225452264
21033648 29 18201451254806001301
21267235 1 18335129882457386294
21279426 13 18266176313119167620
221357 26 18334861619180061685
22393880 68 18339377317798851077
23402539 116 18259988201306025764
23493267 7 18131067130022870498
23559900 14 18335144129412825760
2748010 2 18269840800880842107
296302 2 15769777965644695040
3004659 81 18270958059852010110
335352 9 18263644128913166540
34934 24 18409172087010622296
350125 39 18408881863254608217
3759504 43 17632291255173229466
4340502 62 16487247802887077552
474 4 17560511803776468732
5104073 3 18336264630012644792
633830 44 18411422847125710943
69090 78 18259988162577603447
9709674 26 18265336096961677211
9981440 41 17106805846097921656

> <PUBCHEM_SHAPE_MULTIPOLES>
469.03
9.56
2.1
1.27
2.79
0.45
0.07
-0.04
-2.56
0
0.32
-0.49
-0.34
0.08

> <PUBCHEM_SHAPE_SELFOVERLAP>
1007.704

> <PUBCHEM_SHAPE_VOLUME>
259.4

> <PUBCHEM_COORDINATE_TYPE>
2
5
10

$$$$

