4743
  -OEChem-06261200192D

111110  0     1  0  0  0  0  0999 V2000
   10.6603   -1.2500    0.0000 O   0  0  0  0  0  0  0  0  0  0  0  0
   17.5885   -1.2500    0.0000 O   0  0  0  0  0  0  0  0  0  0  0  0
    8.0622    1.2500    0.0000 O   0  0  0  0  0  0  0  0  0  0  0  0
   12.3923   -1.2500    0.0000 O   0  0  0  0  0  0  0  0  0  0  0  0
    5.4641   -1.2500    0.0000 O   0  0  0  0  0  0  0  0  0  0  0  0
   14.9904    1.2500    0.0000 O   0  0  0  0  0  0  0  0  0  0  0  0
   20.1865    0.2500    0.0000 O   0  0  0  0  0  0  0  0  0  0  0  0
    4.5981   -1.7500    0.0000 O   0  0  0  0  0  0  0  0  0  0  0  0
   19.3205   -1.2500    0.0000 O   0  0  0  0  0  0  0  0  0  0  0  0
    8.9282   -0.2500    0.0000 N   0  0  0  0  0  0  0  0  0  0  0  0
    6.3301    0.2500    0.0000 N   0  0  0  0  0  0  0  0  0  0  0  0
   15.8564   -0.2500    0.0000 N   0  0  0  0  0  0  0  0  0  0  0  0
   13.2583    0.2500    0.0000 N   0  0  0  0  0  0  0  0  0  0  0  0
    3.7320   -0.2500    0.0000 N   0  0  0  0  0  0  0  0  0  0  0  0
    9.7942    0.2500    0.0000 C   0  0  3  0  0  0  0  0  0  0  0  0
    9.7942    1.2500    0.0000 C   0  0  0  0  0  0  0  0  0  0  0  0
   10.6603   -0.2500    0.0000 C   0  0  3  0  0  0  0  0  0  0  0  0
   10.6603    1.7500    0.0000 C   0  0  0  0  0  0  0  0  0  0  0  0
    7.1962   -0.2500    0.0000 C   0  0  3  0  0  0  0  0  0  0  0  0
   16.7224    0.2500    0.0000 C   0  0  3  0  0  0  0  0  0  0  0  0
   11.5263    0.2500    0.0000 C   0  0  0  0  0  0  0  0  0  0  0  0
    7.1962   -1.2500    0.0000 C   0  0  0  0  0  0  0  0  0  0  0  0
    8.0622    0.2500    0.0000 C   0  0  0  0  0  0  0  0  0  0  0  0
   16.7224    1.2500    0.0000 C   0  0  0  0  0  0  0  0  0  0  0  0
   17.5885    1.7500    0.0000 C   0  0  0  0  0  0  0  0  0  0  0  0
   17.5885   -0.2500    0.0000 C   0  0  3  0  0  0  0  0  0  0  0  0
   10.6603    2.7500    0.0000 C   0  0  0  0  0  0  0  0  0  0  0  0
   11.5263    1.2500    0.0000 C   0  0  0  0  0  0  0  0  0  0  0  0
    4.5981    0.2500    0.0000 C   0  0  3  0  0  0  0  0  0  0  0  0
    4.5981    1.2500    0.0000 C   0  0  0  0  0  0  0  0  0  0  0  0
   12.3923   -0.2500    0.0000 C   0  0  0  0  0  0  0  0  0  0  0  0
    5.4641   -0.2500    0.0000 C   0  0  0  0  0  0  0  0  0  0  0  0
   14.1244   -0.2500    0.0000 C   0  0  3  0  0  0  0  0  0  0  0  0
    3.7320    1.7500    0.0000 C   0  0  0  0  0  0  0  0  0  0  0  0
    6.3301   -1.7500    0.0000 C   0  0  0  0  0  0  0  0  0  0  0  0
    8.0622   -1.7500    0.0000 C   0  0  0  0  0  0  0  0  0  0  0  0
   18.4545    0.2500    0.0000 C   0  0  0  0  0  0  0  0  0  0  0  0
   14.9904    0.2500    0.0000 C   0  0  0  0  0  0  0  0  0  0  0  0
   17.5885    2.7500    0.0000 C   0  0  0  0  0  0  0  0  0  0  0  0
   18.4545    1.2500    0.0000 C   0  0  0  0  0  0  0  0  0  0  0  0
    3.7320    2.7500    0.0000 C   0  0  0  0  0  0  0  0  0  0  0  0
    2.8660    1.2500    0.0000 C   0  0  0  0  0  0  0  0  0  0  0  0
   14.1244   -1.2500    0.0000 C   0  0  0  0  0  0  0  0  0  0  0  0
    3.7320   -1.2500    0.0000 C   0  0  0  0  0  0  0  0  0  0  0  0
   19.3205   -0.2500    0.0000 C   0  0  0  0  0  0  0  0  0  0  0  0
    2.8660   -1.7500    0.0000 C   0  0  0  0  0  0  0  0  0  0  0  0
    2.8660   -2.7500    0.0000 C   0  0  0  0  0  0  0  0  0  0  0  0
    2.0000   -1.2500    0.0000 C   0  0  0  0  0  0  0  0  0  0  0  0
    9.2573    0.5600    0.0000 H   0  0  0  0  0  0  0  0  0  0  0  0
    9.5822    1.8326    0.0000 H   0  0  0  0  0  0  0  0  0  0  0  0
    9.1836    1.1423    0.0000 H   0  0  0  0  0  0  0  0  0  0  0  0
   11.1972   -0.5600    0.0000 H   0  0  0  0  0  0  0  0  0  0  0  0
   11.1972    2.0600    0.0000 H   0  0  0  0  0  0  0  0  0  0  0  0
    6.6592   -0.5600    0.0000 H   0  0  0  0  0  0  0  0  0  0  0  0
    8.9282   -0.8700    0.0000 H   0  0  0  0  0  0  0  0  0  0  0  0
   16.1855    0.5600    0.0000 H   0  0  0  0  0  0  0  0  0  0  0  0
   11.9248    0.7249    0.0000 H   0  0  0  0  0  0  0  0  0  0  0  0
   11.1278    0.7249    0.0000 H   0  0  0  0  0  0  0  0  0  0  0  0
    6.6592   -0.9400    0.0000 H   0  0  0  0  0  0  0  0  0  0  0  0
   16.5104    1.8326    0.0000 H   0  0  0  0  0  0  0  0  0  0  0  0
   16.1119    1.1423    0.0000 H   0  0  0  0  0  0  0  0  0  0  0  0
   17.5885    1.1300    0.0000 H   0  0  0  0  0  0  0  0  0  0  0  0
   18.1254   -0.5600    0.0000 H   0  0  0  0  0  0  0  0  0  0  0  0
   11.2803    2.7500    0.0000 H   0  0  0  0  0  0  0  0  0  0  0  0
   10.6603    3.3700    0.0000 H   0  0  0  0  0  0  0  0  0  0  0  0
   10.0403    2.7500    0.0000 H   0  0  0  0  0  0  0  0  0  0  0  0
   11.2163    0.7131    0.0000 H   0  0  0  0  0  0  0  0  0  0  0  0
   12.0632    0.9400    0.0000 H   0  0  0  0  0  0  0  0  0  0  0  0
   11.8363    1.7869    0.0000 H   0  0  0  0  0  0  0  0  0  0  0  0
    4.5981   -0.3700    0.0000 H   0  0  0  0  0  0  0  0  0  0  0  0
    6.3301    0.8700    0.0000 H   0  0  0  0  0  0  0  0  0  0  0  0
    5.2087    1.1423    0.0000 H   0  0  0  0  0  0  0  0  0  0  0  0
    4.8101    1.8326    0.0000 H   0  0  0  0  0  0  0  0  0  0  0  0
   15.8564   -0.8700    0.0000 H   0  0  0  0  0  0  0  0  0  0  0  0
   13.5874   -0.5600    0.0000 H   0  0  0  0  0  0  0  0  0  0  0  0
    3.7320    1.1300    0.0000 H   0  0  0  0  0  0  0  0  0  0  0  0
    6.0201   -1.2131    0.0000 H   0  0  0  0  0  0  0  0  0  0  0  0
    5.7932   -2.0600    0.0000 H   0  0  0  0  0  0  0  0  0  0  0  0
    6.6401   -2.2869    0.0000 H   0  0  0  0  0  0  0  0  0  0  0  0
    7.7522   -2.2869    0.0000 H   0  0  0  0  0  0  0  0  0  0  0  0
    8.5991   -2.0600    0.0000 H   0  0  0  0  0  0  0  0  0  0  0  0
    8.3722   -1.2131    0.0000 H   0  0  0  0  0  0  0  0  0  0  0  0
   11.1972   -1.5600    0.0000 H   0  0  0  0  0  0  0  0  0  0  0  0
   18.8530    0.7249    0.0000 H   0  0  0  0  0  0  0  0  0  0  0  0
   18.0560    0.7249    0.0000 H   0  0  0  0  0  0  0  0  0  0  0  0
   13.2583    0.8700    0.0000 H   0  0  0  0  0  0  0  0  0  0  0  0
   18.1445    0.7131    0.0000 H   0  0  0  0  0  0  0  0  0  0  0  0
   18.9914    0.9400    0.0000 H   0  0  0  0  0  0  0  0  0  0  0  0
   18.7645    1.7869    0.0000 H   0  0  0  0  0  0  0  0  0  0  0  0
   18.2085    2.7500    0.0000 H   0  0  0  0  0  0  0  0  0  0  0  0
   17.5885    3.3700    0.0000 H   0  0  0  0  0  0  0  0  0  0  0  0
   16.9685    2.7500    0.0000 H   0  0  0  0  0  0  0  0  0  0  0  0
    3.1951    0.0600    0.0000 H   0  0  0  0  0  0  0  0  0  0  0  0
    2.5560    1.7869    0.0000 H   0  0  0  0  0  0  0  0  0  0  0  0
    2.3291    0.9400    0.0000 H   0  0  0  0  0  0  0  0  0  0  0  0
    3.1760    0.7131    0.0000 H   0  0  0  0  0  0  0  0  0  0  0  0
    4.3520    2.7500    0.0000 H   0  0  0  0  0  0  0  0  0  0  0  0
    3.7320    3.3700    0.0000 H   0  0  0  0  0  0  0  0  0  0  0  0
    3.1120    2.7500    0.0000 H   0  0  0  0  0  0  0  0  0  0  0  0
   13.5044   -1.2500    0.0000 H   0  0  0  0  0  0  0  0  0  0  0  0
   14.1244   -1.8700    0.0000 H   0  0  0  0  0  0  0  0  0  0  0  0
   14.7444   -1.2500    0.0000 H   0  0  0  0  0  0  0  0  0  0  0  0
   18.1254   -1.5600    0.0000 H   0  0  0  0  0  0  0  0  0  0  0  0
    2.8660   -1.1300    0.0000 H   0  0  0  0  0  0  0  0  0  0  0  0
    2.3100   -0.7131    0.0000 H   0  0  0  0  0  0  0  0  0  0  0  0
    1.4631   -0.9400    0.0000 H   0  0  0  0  0  0  0  0  0  0  0  0
    1.6900   -1.7869    0.0000 H   0  0  0  0  0  0  0  0  0  0  0  0
    2.2460   -2.7500    0.0000 H   0  0  0  0  0  0  0  0  0  0  0  0
    2.8660   -3.3700    0.0000 H   0  0  0  0  0  0  0  0  0  0  0  0
    3.4860   -2.7500    0.0000 H   0  0  0  0  0  0  0  0  0  0  0  0
   20.7235   -0.0600    0.0000 H   0  0  0  0  0  0  0  0  0  0  0  0
  1 17  1  0  0  0  0
  1 83  1  0  0  0  0
  2 26  1  0  0  0  0
  2103  1  0  0  0  0
  3 23  2  0  0  0  0
  4 31  2  0  0  0  0
  5 32  2  0  0  0  0
  6 38  2  0  0  0  0
  7 45  1  0  0  0  0
  7111  1  0  0  0  0
  8 44  2  0  0  0  0
  9 45  2  0  0  0  0
 10 15  1  0  0  0  0
 10 23  1  0  0  0  0
 10 55  1  0  0  0  0
 11 19  1  0  0  0  0
 11 32  1  0  0  0  0
 11 71  1  0  0  0  0
 12 20  1  0  0  0  0
 12 38  1  0  0  0  0
 12 74  1  0  0  0  0
 13 31  1  0  0  0  0
 13 33  1  0  0  0  0
 13 86  1  0  0  0  0
 14 29  1  0  0  0  0
 14 44  1  0  0  0  0
 14 93  1  0  0  0  0
 15 16  1  0  0  0  0
 15 17  1  0  0  0  0
 15 49  1  0  0  0  0
 16 18  1  0  0  0  0
 16 50  1  0  0  0  0
 16 51  1  0  0  0  0
 17 21  1  0  0  0  0
 17 52  1  0  0  0  0
 18 27  1  0  0  0  0
 18 28  1  0  0  0  0
 18 53  1  0  0  0  0
 19 22  1  0  0  0  0
 19 23  1  0  0  0  0
 19 54  1  0  0  0  0
 20 24  1  0  0  0  0
 20 26  1  0  0  0  0
 20 56  1  0  0  0  0
 21 31  1  0  0  0  0
 21 57  1  0  0  0  0
 21 58  1  0  0  0  0
 22 35  1  0  0  0  0
 22 36  1  0  0  0  0
 22 59  1  0  0  0  0
 24 25  1  0  0  0  0
 24 60  1  0  0  0  0
 24 61  1  0  0  0  0
 25 39  1  0  0  0  0
 25 40  1  0  0  0  0
 25 62  1  0  0  0  0
 26 37  1  0  0  0  0
 26 63  1  0  0  0  0
 27 64  1  0  0  0  0
 27 65  1  0  0  0  0
 27 66  1  0  0  0  0
 28 67  1  0  0  0  0
 28 68  1  0  0  0  0
 28 69  1  0  0  0  0
 29 30  1  0  0  0  0
 29 32  1  0  0  0  0
 29 70  1  0  0  0  0
 30 34  1  0  0  0  0
 30 72  1  0  0  0  0
 30 73  1  0  0  0  0
 33 38  1  0  0  0  0
 33 43  1  0  0  0  0
 33 75  1  0  0  0  0
 34 41  1  0  0  0  0
 34 42  1  0  0  0  0
 34 76  1  0  0  0  0
 35 77  1  0  0  0  0
 35 78  1  0  0  0  0
 35 79  1  0  0  0  0
 36 80  1  0  0  0  0
 36 81  1  0  0  0  0
 36 82  1  0  0  0  0
 37 45  1  0  0  0  0
 37 84  1  0  0  0  0
 37 85  1  0  0  0  0
 39 90  1  0  0  0  0
 39 91  1  0  0  0  0
 39 92  1  0  0  0  0
 40 87  1  0  0  0  0
 40 88  1  0  0  0  0
 40 89  1  0  0  0  0
 41 97  1  0  0  0  0
 41 98  1  0  0  0  0
 41 99  1  0  0  0  0
 42 94  1  0  0  0  0
 42 95  1  0  0  0  0
 42 96  1  0  0  0  0
 43100  1  0  0  0  0
 43101  1  0  0  0  0
 43102  1  0  0  0  0
 44 46  1  0  0  0  0
 46 47  1  0  0  0  0
 46 48  1  0  0  0  0
 46104  1  0  0  0  0
 47108  1  0  0  0  0
 47109  1  0  0  0  0
 47110  1  0  0  0  0
 48105  1  0  0  0  0
 48106  1  0  0  0  0
 48107  1  0  0  0  0
M  END
> <PUBCHEM_COMPOUND_CID>
4743

> <PUBCHEM_COMPOUND_CANONICALIZED>
1

> <PUBCHEM_CACTVS_COMPLEXITY>
1060

> <PUBCHEM_CACTVS_HBOND_ACCEPTOR>
9

> <PUBCHEM_CACTVS_HBOND_DONOR>
8

> <PUBCHEM_CACTVS_ROTATABLE_BOND>
22

> <PUBCHEM_CACTVS_SUBSKEYS>
AAADcfB/vAAAAAAAAAAAAAAAAAAAAAAAAAAAAAAAAAAAAAAAAAAAHgAQCAAADTzhgAYCCALAAgAIAAGQGAAAAAAAAAAAAIGIAAACUBYAgCAUQAAHNgCQAAG8yGCMAAAAAAAAAAAAAAAAAAAAAAAAAAAAAA==

> <PUBCHEM_IUPAC_OPENEYE_NAME>
3-hydroxy-4-[2-[[3-hydroxy-6-methyl-4-[[3-methyl-2-[[4-methyl-2-(2-methylpropanoylamino)pentanoyl]amino]butanoyl]amino]heptanoyl]amino]propanoylamino]-6-methyl-heptanoic acid

> <PUBCHEM_IUPAC_CAS_NAME>
3-hydroxy-4-[[2-[[3-hydroxy-6-methyl-4-[[3-methyl-2-[[4-methyl-2-[(2-methyl-1-oxopropyl)amino]-1-oxopentyl]amino]-1-oxobutyl]amino]-1-oxoheptyl]amino]-1-oxopropyl]amino]-6-methylheptanoic acid

> <PUBCHEM_IUPAC_NAME>
3-hydroxy-4-[2-[[3-hydroxy-6-methyl-4-[[3-methyl-2-[[4-methyl-2-(2-methylpropanoylamino)pentanoyl]amino]butanoyl]amino]heptanoyl]amino]propanoylamino]-6-methylheptanoic acid

> <PUBCHEM_IUPAC_SYSTEMATIC_NAME>
6-methyl-4-[2-[[6-methyl-4-[[3-methyl-2-[[4-methyl-2-(2-methylpropanoylamino)pentanoyl]amino]butanoyl]amino]-3-oxidanyl-heptanoyl]amino]propanoylamino]-3-oxidanyl-heptanoic acid

> <PUBCHEM_IUPAC_TRADITIONAL_NAME>
3-hydroxy-4-[2-[[3-hydroxy-4-[[2-[[2-(isobutyrylamino)-4-methyl-pentanoyl]amino]-3-methyl-butanoyl]amino]-6-methyl-heptanoyl]amino]propanoylamino]-6-methyl-enanthic acid

> <PUBCHEM_IUPAC_INCHI>
InChI=1S/C34H63N5O9/c1-17(2)12-23(37-34(48)30(20(7)8)39-33(47)25(14-19(5)6)38-31(45)21(9)10)26(40)15-28(42)35-22(11)32(46)36-24(13-18(3)4)27(41)16-29(43)44/h17-27,30,40-41H,12-16H2,1-11H3,(H,35,42)(H,36,46)(H,37,48)(H,38,45)(H,39,47)(H,43,44)

> <PUBCHEM_IUPAC_INCHIKEY>
VDGJFUHIUGHTOZ-UHFFFAOYSA-N

> <PUBCHEM_XLOGP3_AA>
3.1

> <PUBCHEM_EXACT_MASS>
685.462579

> <PUBCHEM_MOLECULAR_FORMULA>
C34H63N5O9

> <PUBCHEM_MOLECULAR_WEIGHT>
685.89212

> <PUBCHEM_OPENEYE_CAN_SMILES>
CC(C)CC(C(CC(=O)O)O)NC(=O)C(C)NC(=O)CC(C(CC(C)C)NC(=O)C(C(C)C)NC(=O)C(CC(C)C)NC(=O)C(C)C)O

> <PUBCHEM_OPENEYE_ISO_SMILES>
CC(C)CC(C(CC(=O)O)O)NC(=O)C(C)NC(=O)CC(C(CC(C)C)NC(=O)C(C(C)C)NC(=O)C(CC(C)C)NC(=O)C(C)C)O

> <PUBCHEM_CACTVS_TPSA>
223

> <PUBCHEM_MONOISOTOPIC_WEIGHT>
685.462579

> <PUBCHEM_TOTAL_CHARGE>
0

> <PUBCHEM_HEAVY_ATOM_COUNT>
48

> <PUBCHEM_ATOM_DEF_STEREO_COUNT>
0

> <PUBCHEM_ATOM_UDEF_STEREO_COUNT>
7

> <PUBCHEM_BOND_DEF_STEREO_COUNT>
0

> <PUBCHEM_BOND_UDEF_STEREO_COUNT>
0

> <PUBCHEM_ISOTOPIC_ATOM_COUNT>
0

> <PUBCHEM_COMPONENT_COUNT>
1

> <PUBCHEM_CACTVS_TAUTO_COUNT>
32

> <PUBCHEM_COORDINATE_TYPE>
1
5
255

> <PUBCHEM_BONDANNOTATIONS>
17  1  3
15  16  3
19  23  3
26  2  3
20  24  3
29  30  3
33  43  3

$$$$

