442416
  -OEChem-07051212583D

 59 62  0     1  0  0  0  0  0999 V2000
   -1.0091   -0.6744   -1.1897 O   0  0  0  0  0  0  0  0  0  0  0  0
   -2.6884   -2.1531   -0.5431 O   0  0  0  0  0  0  0  0  0  0  0  0
    0.3187   -1.5734    0.5052 O   0  0  0  0  0  0  0  0  0  0  0  0
   -5.8040    1.4569    1.4792 O   0  0  0  0  0  0  0  0  0  0  0  0
    0.8014   -1.6867   -3.1147 O   0  0  0  0  0  0  0  0  0  0  0  0
    3.5282   -1.9478   -2.0297 O   0  0  0  0  0  0  0  0  0  0  0  0
    3.4892   -3.4064    0.4657 O   0  0  0  0  0  0  0  0  0  0  0  0
   -0.5022    2.1693   -0.2968 O   0  0  0  0  0  0  0  0  0  0  0  0
    0.2264   -2.6233    3.0440 O   0  0  0  0  0  0  0  0  0  0  0  0
    0.5104    3.6958   -1.6909 O   0  0  0  0  0  0  0  0  0  0  0  0
    5.3137    1.3787    1.7690 O   0  0  0  0  0  0  0  0  0  0  0  0
   -3.2088    0.2723   -0.7510 C   0  0  2  0  0  0  0  0  0  0  0  0
   -4.5674    0.0476   -0.0520 C   0  0  2  0  0  0  0  0  0  0  0  0
   -2.1839   -0.8192   -0.3901 C   0  0  2  0  0  0  0  0  0  0  0  0
   -4.5226    0.9062    1.2213 C   0  0  1  0  0  0  0  0  0  0  0  0
   -2.8250    1.6350   -0.2275 C   0  0  0  0  0  0  0  0  0  0  0  0
   -3.5483    1.9752    0.8475 C   0  0  0  0  0  0  0  0  0  0  0  0
   -0.0397   -1.6724   -0.8712 C   0  0  2  0  0  0  0  0  0  0  0  0
    1.1821   -1.4427   -1.7608 C   0  0  1  0  0  0  0  0  0  0  0  0
   -4.8426   -1.3959    0.2222 C   0  0  0  0  0  0  0  0  0  0  0  0
    2.3305   -2.3773   -1.3803 C   0  0  2  0  0  0  0  0  0  0  0  0
    2.5792   -2.3628    0.1281 C   0  0  1  0  0  0  0  0  0  0  0  0
    1.2708   -2.5642    0.8961 C   0  0  1  0  0  0  0  0  0  0  0  0
   -1.7678    2.4589   -0.8713 C   0  0  0  0  0  0  0  0  0  0  0  0
   -3.9500   -2.3502   -0.0579 C   0  0  0  0  0  0  0  0  0  0  0  0
    1.4749   -2.4369    2.4025 C   0  0  0  0  0  0  0  0  0  0  0  0
    0.5580    2.8611   -0.8007 C   0  0  0  0  0  0  0  0  0  0  0  0
    1.8173    2.4674   -0.1198 C   0  0  0  0  0  0  0  0  0  0  0  0
    3.0028    2.5302   -0.8232 C   0  0  0  0  0  0  0  0  0  0  0  0
    1.7638    2.0515    1.1949 C   0  0  0  0  0  0  0  0  0  0  0  0
    4.1864    2.1611   -0.1839 C   0  0  0  0  0  0  0  0  0  0  0  0
    2.9474    1.6824    1.8340 C   0  0  0  0  0  0  0  0  0  0  0  0
    4.1587    1.7371    1.1447 C   0  0  0  0  0  0  0  0  0  0  0  0
   -3.3580    0.3049   -1.8378 H   0  0  0  0  0  0  0  0  0  0  0  0
   -5.3684    0.4124   -0.7126 H   0  0  0  0  0  0  0  0  0  0  0  0
   -1.9019   -0.6959    0.6655 H   0  0  0  0  0  0  0  0  0  0  0  0
   -4.1770    0.3653    2.1094 H   0  0  0  0  0  0  0  0  0  0  0  0
   -3.4296    2.8977    1.3984 H   0  0  0  0  0  0  0  0  0  0  0  0
   -0.4589   -2.6651   -1.0807 H   0  0  0  0  0  0  0  0  0  0  0  0
    1.5086   -0.3977   -1.7074 H   0  0  0  0  0  0  0  0  0  0  0  0
   -5.8203   -1.6726    0.6045 H   0  0  0  0  0  0  0  0  0  0  0  0
    2.1388   -3.3994   -1.7294 H   0  0  0  0  0  0  0  0  0  0  0  0
    3.0503   -1.4134    0.4100 H   0  0  0  0  0  0  0  0  0  0  0  0
    0.8436   -3.5561    0.6948 H   0  0  0  0  0  0  0  0  0  0  0  0
   -1.9898    3.5238   -0.7270 H   0  0  0  0  0  0  0  0  0  0  0  0
   -1.7460    2.2637   -1.9501 H   0  0  0  0  0  0  0  0  0  0  0  0
   -4.1593   -3.4051    0.0508 H   0  0  0  0  0  0  0  0  0  0  0  0
   -6.4144    0.7161    1.6343 H   0  0  0  0  0  0  0  0  0  0  0  0
    2.1782   -3.1864    2.7775 H   0  0  0  0  0  0  0  0  0  0  0  0
    1.8376   -1.4372    2.6637 H   0  0  0  0  0  0  0  0  0  0  0  0
    0.5163   -2.6137   -3.1856 H   0  0  0  0  0  0  0  0  0  0  0  0
    3.3497   -1.9317   -2.9856 H   0  0  0  0  0  0  0  0  0  0  0  0
    3.0753   -4.2540    0.2296 H   0  0  0  0  0  0  0  0  0  0  0  0
    0.3786   -2.5322    4.0001 H   0  0  0  0  0  0  0  0  0  0  0  0
    3.0365    2.8545   -1.8590 H   0  0  0  0  0  0  0  0  0  0  0  0
    0.8355    2.0104    1.7568 H   0  0  0  0  0  0  0  0  0  0  0  0
    5.1235    2.2070   -0.7323 H   0  0  0  0  0  0  0  0  0  0  0  0
    2.9197    1.3544    2.8697 H   0  0  0  0  0  0  0  0  0  0  0  0
    6.0529    1.4768    1.1445 H   0  0  0  0  0  0  0  0  0  0  0  0
  1 14  1  0  0  0  0
  1 18  1  0  0  0  0
  2 14  1  0  0  0  0
  2 25  1  0  0  0  0
  3 18  1  0  0  0  0
  3 23  1  0  0  0  0
  4 15  1  0  0  0  0
  4 48  1  0  0  0  0
  5 19  1  0  0  0  0
  5 51  1  0  0  0  0
  6 21  1  0  0  0  0
  6 52  1  0  0  0  0
  7 22  1  0  0  0  0
  7 53  1  0  0  0  0
  8 24  1  0  0  0  0
  8 27  1  0  0  0  0
  9 26  1  0  0  0  0
  9 54  1  0  0  0  0
 10 27  2  0  0  0  0
 11 33  1  0  0  0  0
 11 59  1  0  0  0  0
 12 13  1  0  0  0  0
 12 14  1  0  0  0  0
 12 16  1  0  0  0  0
 12 34  1  0  0  0  0
 13 15  1  0  0  0  0
 13 20  1  0  0  0  0
 13 35  1  0  0  0  0
 14 36  1  0  0  0  0
 15 17  1  0  0  0  0
 15 37  1  0  0  0  0
 16 17  2  0  0  0  0
 16 24  1  0  0  0  0
 17 38  1  0  0  0  0
 18 19  1  0  0  0  0
 18 39  1  0  0  0  0
 19 21  1  0  0  0  0
 19 40  1  0  0  0  0
 20 25  2  0  0  0  0
 20 41  1  0  0  0  0
 21 22  1  0  0  0  0
 21 42  1  0  0  0  0
 22 23  1  0  0  0  0
 22 43  1  0  0  0  0
 23 26  1  0  0  0  0
 23 44  1  0  0  0  0
 24 45  1  0  0  0  0
 24 46  1  0  0  0  0
 25 47  1  0  0  0  0
 26 49  1  0  0  0  0
 26 50  1  0  0  0  0
 27 28  1  0  0  0  0
 28 29  2  0  0  0  0
 28 30  1  0  0  0  0
 29 31  1  0  0  0  0
 29 55  1  0  0  0  0
 30 32  2  0  0  0  0
 30 56  1  0  0  0  0
 31 33  2  0  0  0  0
 31 57  1  0  0  0  0
 32 33  1  0  0  0  0
 32 58  1  0  0  0  0
M  END
> <PUBCHEM_COMPOUND_CID>
442416

> <PUBCHEM_CONFORMER_RMSD>
1

> <PUBCHEM_CONFORMER_DIVERSEORDER>
1
244
20
68
279
193
307
188
151
148
146
29
230
208
277
289
142
215
56
241
205
127
30
170
312
207
322
234
321
187
238
15
57
214
199
216
191
135
134
70
52
316
297
19
17
77
99
154
66
271
246
268
14
116
209
225
186
139
37
177
176
112
22
168
100
85
299
257
61
247
35
49
65
239
129
285
273
34
159
165
282
39
108
260
305
145
195
200
23
144
121
318
103
48
93
283
136
222
122
2
64
226
324
198
156
6
197
270
298
224
275
131
311
252
92
123
84
223
304
80
255
218
26
97
157
126
162
4
88
76
16
201
301
190
27
149
115
130
240
203
284
75
166
54
62
232
78
265
262
143
114
133
9
105
213
315
306
229
171
317
83
46
182
110
276
31
320
210
274
294
153
50
280
128
41
192
28
74
291
194
236
217
309
290
163
125
58
251
292
118
323
71
313
266
219
109
250
51
87
43
82
5
24
175
245
160
181
173
12
40
158
94
111
243
253
169
286
59
256
42
60
196
155
211
249
272
38
67
228
204
137
98
138
161
263
53
242
141
107
227
189
179
81
91
288
233
258
147
117
104
319
185
278
300
119
95
295
132
237
106
314
96
220
267
86
73
184
167
164
124
269
25
55
259
206
296
10
113
178
172
8
45
150
7
21
308
303
11
89
102
221
32
231
302
261
13
212
72
90
69
264
18
140
47
287
33
79
325
202
293
254
3
281
152
36
120
63
183
310
174
180
101
235
44
248

> <PUBCHEM_MMFF94_PARTIAL_CHARGES>
46
1 -0.56
10 -0.57
11 -0.53
12 0.14
13 0.14
14 0.56
15 0.42
16 -0.28
17 -0.29
18 0.56
19 0.28
2 -0.36
20 -0.29
21 0.28
22 0.28
23 0.28
24 0.42
25 -0.07
26 0.28
27 0.63
28 0.09
29 -0.15
3 -0.56
30 -0.15
31 -0.15
32 -0.15
33 0.08
38 0.15
4 -0.68
41 0.15
47 0.15
48 0.4
5 -0.68
51 0.4
52 0.4
53 0.4
54 0.4
55 0.15
56 0.15
57 0.15
58 0.15
59 0.45
6 -0.68
7 -0.68
8 -0.43
9 -0.68

> <PUBCHEM_EFFECTIVE_ROTOR_COUNT>
8.8

> <PUBCHEM_PHARMACOPHORE_FEATURES>
19
1 1 acceptor
1 10 acceptor
1 11 donor
1 2 acceptor
1 3 acceptor
1 4 acceptor
1 4 donor
1 5 acceptor
1 5 donor
1 6 acceptor
1 6 donor
1 7 acceptor
1 7 donor
1 9 acceptor
1 9 donor
5 12 13 15 16 17 rings
6 2 12 13 14 20 25 rings
6 28 29 30 31 32 33 rings
6 3 18 19 21 22 23 rings

> <PUBCHEM_HEAVY_ATOM_COUNT>
33

> <PUBCHEM_ATOM_DEF_STEREO_COUNT>
9

> <PUBCHEM_ATOM_UDEF_STEREO_COUNT>
0

> <PUBCHEM_BOND_DEF_STEREO_COUNT>
0

> <PUBCHEM_BOND_UDEF_STEREO_COUNT>
0

> <PUBCHEM_ISOTOPIC_ATOM_COUNT>
0

> <PUBCHEM_COMPONENT_COUNT>
1

> <PUBCHEM_CACTVS_TAUTO_COUNT>
3

> <PUBCHEM_CONFORMER_ID>
0006C03000000001

> <PUBCHEM_MMFF94_ENERGY>
84.3106

> <PUBCHEM_FEATURE_SELFOVERLAP>
96.646

> <PUBCHEM_SHAPE_FINGERPRINT>
11513181 2 17676488354340069183
11578080 2 17487921070762452207
12156800 1 16699171930833001410
12422481 6 18191609590955697848
12633257 1 18189897707017188595
12741549 16 16808703358872732138
13140716 1 18335983185554333055
14178342 30 18335978671575970637
15274700 242 17841751489805763416
15420108 30 17967540046962981495
19319366 153 16914827921229239032
20600515 1 17757270749148179174
20691752 17 18059849562916133341
20764821 26 17915716743962578403
20905425 154 18408323302193027476
23559900 14 17750789033887972879
3411729 13 18334290985372074225
35225 105 17339862776407715642
392239 28 18130518503938752042
5104073 3 18262220202327863699
6287921 2 18259981582951417703

> <PUBCHEM_SHAPE_MULTIPOLES>
614.56
9.44
4.76
2.18
5.98
0.34
0.25
-2.66
3.36
-3.17
-0.16
-1.49
1.15
0.13

> <PUBCHEM_SHAPE_SELFOVERLAP>
1319.133

> <PUBCHEM_SHAPE_VOLUME>
334.3

> <PUBCHEM_COORDINATE_TYPE>
2
5
10

$$$$

