442530
  -OEChem-07051212583D

 46 48  0     1  0  0  0  0  0999 V2000
   -2.5720    2.8755   -2.0995 Cl  0  0  0  0  0  0  0  0  0  0  0  0
   -4.9526   -1.1855    0.4392 O   0  0  0  0  0  0  0  0  0  0  0  0
   -0.9703   -1.2923    1.7357 O   0  0  0  0  0  0  0  0  0  0  0  0
   -3.2634   -2.4093    1.3199 O   0  0  0  0  0  0  0  0  0  0  0  0
    1.1489    0.1861    2.0657 O   0  0  0  0  0  0  0  0  0  0  0  0
    2.8434    3.5849    0.1641 O   0  0  0  0  0  0  0  0  0  0  0  0
    4.8953    2.9502    0.8690 O   0  0  0  0  0  0  0  0  0  0  0  0
    1.8682    1.1577    0.0870 N   0  0  0  0  0  0  0  0  0  0  0  0
   -4.5012    0.6596   -1.0747 C   0  0  0  0  0  0  0  0  0  0  0  0
   -5.4093    0.1211    0.0212 C   0  0  1  0  0  0  0  0  0  0  0  0
   -3.1008    0.6727   -0.5411 C   0  0  0  0  0  0  0  0  0  0  0  0
   -2.6994   -0.3244    0.3565 C   0  0  0  0  0  0  0  0  0  0  0  0
   -1.3902   -0.3441    0.8483 C   0  0  0  0  0  0  0  0  0  0  0  0
   -0.4818    0.6333    0.4411 C   0  0  0  0  0  0  0  0  0  0  0  0
   -2.1778    1.6390   -0.9557 C   0  0  0  0  0  0  0  0  0  0  0  0
   -3.6465   -1.3916    0.7579 C   0  0  0  0  0  0  0  0  0  0  0  0
    3.2717    1.2124    0.4276 C   0  0  1  0  0  0  0  0  0  0  0  0
   -6.8426   -0.0274   -0.4690 C   0  0  0  0  0  0  0  0  0  0  0  0
   -0.8737    1.6214   -0.4610 C   0  0  0  0  0  0  0  0  0  0  0  0
    4.1178    0.4329   -0.5875 C   0  0  0  0  0  0  0  0  0  0  0  0
    0.8874    0.6414    0.9398 C   0  0  0  0  0  0  0  0  0  0  0  0
    3.7157   -1.0182   -0.6987 C   0  0  0  0  0  0  0  0  0  0  0  0
    3.7596    2.6510    0.5151 C   0  0  0  0  0  0  0  0  0  0  0  0
    4.3197   -1.9551    0.1246 C   0  0  0  0  0  0  0  0  0  0  0  0
    2.7498   -1.3865   -1.6217 C   0  0  0  0  0  0  0  0  0  0  0  0
    3.9483   -3.2958    0.0221 C   0  0  0  0  0  0  0  0  0  0  0  0
    2.3782   -2.7273   -1.7239 C   0  0  0  0  0  0  0  0  0  0  0  0
    2.9776   -3.6818   -0.9020 C   0  0  0  0  0  0  0  0  0  0  0  0
   -4.8539    1.6560   -1.3570 H   0  0  0  0  0  0  0  0  0  0  0  0
   -4.5254    0.0141   -1.9610 H   0  0  0  0  0  0  0  0  0  0  0  0
   -5.4020    0.7744    0.9035 H   0  0  0  0  0  0  0  0  0  0  0  0
    3.4030    0.7839    1.4284 H   0  0  0  0  0  0  0  0  0  0  0  0
   -6.8999   -0.7283   -1.3091 H   0  0  0  0  0  0  0  0  0  0  0  0
   -7.4761   -0.4376    0.3249 H   0  0  0  0  0  0  0  0  0  0  0  0
   -7.2572    0.9348   -0.7843 H   0  0  0  0  0  0  0  0  0  0  0  0
   -0.1910    2.4082   -0.7719 H   0  0  0  0  0  0  0  0  0  0  0  0
    4.0463    0.9038   -1.5782 H   0  0  0  0  0  0  0  0  0  0  0  0
    5.1814    0.4956   -0.3208 H   0  0  0  0  0  0  0  0  0  0  0  0
    1.6166    1.4937   -0.8366 H   0  0  0  0  0  0  0  0  0  0  0  0
   -1.7232   -1.8036    2.0700 H   0  0  0  0  0  0  0  0  0  0  0  0
    5.0747   -1.6634    0.8489 H   0  0  0  0  0  0  0  0  0  0  0  0
    2.2781   -0.6527   -2.2688 H   0  0  0  0  0  0  0  0  0  0  0  0
    4.4143   -4.0389    0.6626 H   0  0  0  0  0  0  0  0  0  0  0  0
    1.6222   -3.0278   -2.4434 H   0  0  0  0  0  0  0  0  0  0  0  0
    2.6880   -4.7254   -0.9814 H   0  0  0  0  0  0  0  0  0  0  0  0
    3.2027    4.4951    0.2324 H   0  0  0  0  0  0  0  0  0  0  0  0
  1 15  1  0  0  0  0
  2 10  1  0  0  0  0
  2 16  1  0  0  0  0
  3 13  1  0  0  0  0
  3 40  1  0  0  0  0
  4 16  2  0  0  0  0
  5 21  2  0  0  0  0
  6 23  1  0  0  0  0
  6 46  1  0  0  0  0
  7 23  2  0  0  0  0
  8 17  1  0  0  0  0
  8 21  1  0  0  0  0
  8 39  1  0  0  0  0
  9 10  1  0  0  0  0
  9 11  1  0  0  0  0
  9 29  1  0  0  0  0
  9 30  1  0  0  0  0
 10 18  1  0  0  0  0
 10 31  1  0  0  0  0
 11 12  1  0  0  0  0
 11 15  2  0  0  0  0
 12 13  2  0  0  0  0
 12 16  1  0  0  0  0
 13 14  1  0  0  0  0
 14 19  2  0  0  0  0
 14 21  1  0  0  0  0
 15 19  1  0  0  0  0
 17 20  1  0  0  0  0
 17 23  1  0  0  0  0
 17 32  1  0  0  0  0
 18 33  1  0  0  0  0
 18 34  1  0  0  0  0
 18 35  1  0  0  0  0
 19 36  1  0  0  0  0
 20 22  1  0  0  0  0
 20 37  1  0  0  0  0
 20 38  1  0  0  0  0
 22 24  2  0  0  0  0
 22 25  1  0  0  0  0
 24 26  1  0  0  0  0
 24 41  1  0  0  0  0
 25 27  2  0  0  0  0
 25 42  1  0  0  0  0
 26 28  2  0  0  0  0
 26 43  1  0  0  0  0
 27 28  1  0  0  0  0
 27 44  1  0  0  0  0
 28 45  1  0  0  0  0
M  END
> <PUBCHEM_COMPOUND_CID>
442530

> <PUBCHEM_CONFORMER_RMSD>
0.8

> <PUBCHEM_CONFORMER_DIVERSEORDER>
1
20
71
82
29
2
63
53
55
50
66
78
19
46
33
52
44
14
77
85
69
67
10
60
65
39
12
35
11
62
75
7
15
25
79
83
28
38
74
37
64
24
54
13
73
61
4
21
27
30
36
80
59
9
84
49
6
81
72
76
68
58
22
5
56
57
3
32
41
34
43
70
8
26
51
45
17
47
42
48
16
23
40
31
18

> <PUBCHEM_MMFF94_PARTIAL_CHARGES>
36
1 -0.18
10 0.28
11 -0.14
12 0.09
13 0.08
14 0.09
15 0.18
16 0.63
17 0.36
19 -0.15
2 -0.43
20 0.14
21 0.54
22 -0.14
23 0.66
24 -0.15
25 -0.15
26 -0.15
27 -0.15
28 -0.15
3 -0.53
36 0.15
39 0.37
4 -0.57
40 0.45
41 0.15
42 0.15
43 0.15
44 0.15
45 0.15
46 0.5
5 -0.57
6 -0.65
7 -0.57
8 -0.73
9 0.14

> <PUBCHEM_EFFECTIVE_ROTOR_COUNT>
6.6

> <PUBCHEM_PHARMACOPHORE_FEATURES>
10
1 3 donor
1 4 acceptor
1 5 acceptor
1 6 acceptor
1 7 acceptor
1 8 donor
3 6 7 23 anion
6 11 12 13 14 15 19 rings
6 2 9 10 11 12 16 rings
6 22 24 25 26 27 28 rings

> <PUBCHEM_HEAVY_ATOM_COUNT>
28

> <PUBCHEM_ATOM_DEF_STEREO_COUNT>
2

> <PUBCHEM_ATOM_UDEF_STEREO_COUNT>
0

> <PUBCHEM_BOND_DEF_STEREO_COUNT>
0

> <PUBCHEM_BOND_UDEF_STEREO_COUNT>
0

> <PUBCHEM_ISOTOPIC_ATOM_COUNT>
0

> <PUBCHEM_COMPONENT_COUNT>
1

> <PUBCHEM_CACTVS_TAUTO_COUNT>
22

> <PUBCHEM_CONFORMER_ID>
0006C0A200000001

> <PUBCHEM_MMFF94_ENERGY>
81.1182

> <PUBCHEM_FEATURE_SELFOVERLAP>
50.831

> <PUBCHEM_SHAPE_FINGERPRINT>
11828532 37 17774995761763051083
11991303 11 17975969866277025604
12596602 18 15357992139417699175
12730499 353 18336541621354883344
13533116 47 18040998444964320553
13583140 156 18410856594337476502
1361 2 18263649476258037941
13617811 41 17489585689055470359
13911987 19 18044367220012709760
14251757 17 18341051942252572834
14659021 117 16678931450838423798
14848160 33 18115868671382497014
14910302 57 18130509712177262839
15183329 4 17822567309381039833
15324884 4 17765406783555185760
15664445 248 17846208917426756548
15961568 22 17703226183763498516
17818456 19 16735777124799696328
1813 80 15647345172738866339
20645477 70 18260264153360813092
21033650 10 16844724381953300716
21133410 32 16767264823687298866
21285901 2 18272368668049125181
22393880 68 17844538901266928885
22440779 20 17052116438390083944
23557571 272 17918270935375600269
23559900 14 18273206500267624902
23569914 152 17330872478318615319
24771750 20 17340111262126352845
44802255 64 16907445779159574524
46194498 28 18411140259705056500
469060 322 17904781980523252358
613672 6 17830464139083371622
621550 34 18338802204308519972
6669772 16 18341622490214566290
7399639 24 18338803291067095076
8988823 20 18261108590827830623
9709674 26 18412546530486517780

> <PUBCHEM_SHAPE_MULTIPOLES>
537.9
12.35
3.95
1.54
10.14
0.29
0.19
-2.46
1.4
-5.8
0.56
0.13
-0.07
3.22

> <PUBCHEM_SHAPE_SELFOVERLAP>
1157.203

> <PUBCHEM_SHAPE_VOLUME>
294.5

> <PUBCHEM_COORDINATE_TYPE>
2
5
10

$$$$

