6857523
  -OEChem-07051213153D

 45 48  0     1  0  0  0  0  0999 V2000
    0.7092   -0.6337    0.2161 C   0  0  2  0  0  0  0  0  0  0  0  0
   -0.1598    0.5719   -0.2494 C   0  0  1  0  0  0  0  0  0  0  0  0
    2.1483   -0.4383   -0.2678 C   0  0  1  0  0  0  0  0  0  0  0  0
   -1.6239    0.3954    0.2402 C   0  0  2  0  0  0  0  0  0  0  0  0
    2.7271    0.8557    0.2989 C   0  0  2  0  0  0  0  0  0  0  0  0
   -2.1972   -0.9520   -0.2633 C   0  0  1  0  0  0  0  0  0  0  0  0
    0.4662    1.9152    0.1988 C   0  0  0  0  0  0  0  0  0  0  0  0
    0.1215   -1.9601   -0.2764 C   0  0  0  0  0  0  0  0  0  0  0  0
    1.9420    2.0554   -0.1981 C   0  0  0  0  0  0  0  0  0  0  0  0
   -1.3234   -2.1303    0.1798 C   0  0  0  0  0  0  0  0  0  0  0  0
    3.1903   -1.4623    0.1688 C   0  0  0  0  0  0  0  0  0  0  0  0
    4.1864    0.7695   -0.1225 C   0  0  0  0  0  0  0  0  0  0  0  0
   -2.5437    1.5522   -0.1933 C   0  0  0  0  0  0  0  0  0  0  0  0
    4.5282   -0.7189    0.0351 C   0  0  0  0  0  0  0  0  0  0  0  0
   -3.6433   -1.1554    0.2085 C   0  0  0  0  0  0  0  0  0  0  0  0
   -3.9894    1.3365    0.2511 C   0  0  0  0  0  0  0  0  0  0  0  0
   -4.5386   -0.0008   -0.2264 C   0  0  0  0  0  0  0  0  0  0  0  0
    0.7089   -0.6537    1.3157 H   0  0  0  0  0  0  0  0  0  0  0  0
   -0.1719    0.5756   -1.3496 H   0  0  0  0  0  0  0  0  0  0  0  0
    2.1508   -0.3953   -1.3677 H   0  0  0  0  0  0  0  0  0  0  0  0
   -1.6129    0.3763    1.3399 H   0  0  0  0  0  0  0  0  0  0  0  0
    2.6815    0.8360    1.3980 H   0  0  0  0  0  0  0  0  0  0  0  0
   -2.2037   -0.9341   -1.3629 H   0  0  0  0  0  0  0  0  0  0  0  0
    0.3763    2.0128    1.2882 H   0  0  0  0  0  0  0  0  0  0  0  0
   -0.0781    2.7559   -0.2443 H   0  0  0  0  0  0  0  0  0  0  0  0
    0.7125   -2.8017    0.1026 H   0  0  0  0  0  0  0  0  0  0  0  0
    0.1665   -2.0071   -1.3718 H   0  0  0  0  0  0  0  0  0  0  0  0
    2.0189    2.1391   -1.2892 H   0  0  0  0  0  0  0  0  0  0  0  0
    2.3531    2.9792    0.2241 H   0  0  0  0  0  0  0  0  0  0  0  0
   -1.7212   -3.0662   -0.2308 H   0  0  0  0  0  0  0  0  0  0  0  0
   -1.3502   -2.2269    1.2727 H   0  0  0  0  0  0  0  0  0  0  0  0
    3.1684   -2.3672   -0.4463 H   0  0  0  0  0  0  0  0  0  0  0  0
    3.0339   -1.7611    1.2122 H   0  0  0  0  0  0  0  0  0  0  0  0
    4.8337    1.4049    0.4898 H   0  0  0  0  0  0  0  0  0  0  0  0
    4.3133    1.0713   -1.1690 H   0  0  0  0  0  0  0  0  0  0  0  0
   -2.5106    1.6637   -1.2843 H   0  0  0  0  0  0  0  0  0  0  0  0
   -2.2003    2.4986    0.2372 H   0  0  0  0  0  0  0  0  0  0  0  0
    5.0928   -1.0734   -0.8341 H   0  0  0  0  0  0  0  0  0  0  0  0
    5.1475   -0.8905    0.9222 H   0  0  0  0  0  0  0  0  0  0  0  0
   -3.6715   -1.2459    1.3018 H   0  0  0  0  0  0  0  0  0  0  0  0
   -4.0420   -2.0923   -0.1985 H   0  0  0  0  0  0  0  0  0  0  0  0
   -4.6163    2.1497   -0.1321 H   0  0  0  0  0  0  0  0  0  0  0  0
   -4.0428    1.3826    1.3459 H   0  0  0  0  0  0  0  0  0  0  0  0
   -5.5495   -0.1478    0.1702 H   0  0  0  0  0  0  0  0  0  0  0  0
   -4.6221    0.0066   -1.3201 H   0  0  0  0  0  0  0  0  0  0  0  0
  1  2  1  0  0  0  0
  1  3  1  0  0  0  0
  1  8  1  0  0  0  0
  1 18  1  0  0  0  0
  2  4  1  0  0  0  0
  2  7  1  0  0  0  0
  2 19  1  0  0  0  0
  3  5  1  0  0  0  0
  3 11  1  0  0  0  0
  3 20  1  0  0  0  0
  4  6  1  0  0  0  0
  4 13  1  0  0  0  0
  4 21  1  0  0  0  0
  5  9  1  0  0  0  0
  5 12  1  0  0  0  0
  5 22  1  0  0  0  0
  6 10  1  0  0  0  0
  6 15  1  0  0  0  0
  6 23  1  0  0  0  0
  7  9  1  0  0  0  0
  7 24  1  0  0  0  0
  7 25  1  0  0  0  0
  8 10  1  0  0  0  0
  8 26  1  0  0  0  0
  8 27  1  0  0  0  0
  9 28  1  0  0  0  0
  9 29  1  0  0  0  0
 10 30  1  0  0  0  0
 10 31  1  0  0  0  0
 11 14  1  0  0  0  0
 11 32  1  0  0  0  0
 11 33  1  0  0  0  0
 12 14  1  0  0  0  0
 12 34  1  0  0  0  0
 12 35  1  0  0  0  0
 13 16  1  0  0  0  0
 13 36  1  0  0  0  0
 13 37  1  0  0  0  0
 14 38  1  0  0  0  0
 14 39  1  0  0  0  0
 15 17  1  0  0  0  0
 15 40  1  0  0  0  0
 15 41  1  0  0  0  0
 16 17  1  0  0  0  0
 16 42  1  0  0  0  0
 16 43  1  0  0  0  0
 17 44  1  0  0  0  0
 17 45  1  0  0  0  0
M  END
> <PUBCHEM_COMPOUND_CID>
6857523

> <PUBCHEM_CONFORMER_RMSD>
0.6

> <PUBCHEM_CONFORMER_DIVERSEORDER>
1
2

> <PUBCHEM_MMFF94_PARTIAL_CHARGES>
0

> <PUBCHEM_EFFECTIVE_ROTOR_COUNT>
2.2

> <PUBCHEM_PHARMACOPHORE_FEATURES>
4
5 3 5 11 12 14 rings
6 1 2 3 5 7 9 rings
6 1 2 4 6 8 10 rings
6 4 6 13 15 16 17 rings

> <PUBCHEM_HEAVY_ATOM_COUNT>
17

> <PUBCHEM_ATOM_DEF_STEREO_COUNT>
5

> <PUBCHEM_ATOM_UDEF_STEREO_COUNT>
1

> <PUBCHEM_BOND_DEF_STEREO_COUNT>
0

> <PUBCHEM_BOND_UDEF_STEREO_COUNT>
0

> <PUBCHEM_ISOTOPIC_ATOM_COUNT>
0

> <PUBCHEM_COMPONENT_COUNT>
1

> <PUBCHEM_CACTVS_TAUTO_COUNT>
1

> <PUBCHEM_CONFORMER_ID>
0068A33300000001

> <PUBCHEM_MMFF94_ENERGY>
33.9986

> <PUBCHEM_FEATURE_SELFOVERLAP>
20.394

> <PUBCHEM_SHAPE_FINGERPRINT>
10062212 137 18334583442632700287
10608611 8 18337393738249708536
10616163 171 18337669689935627270
10967382 1 18410575101853497614
11132069 177 18409735074991014840
11471102 20 18411141333204137718
11578080 2 16807866317022933467
12011746 2 18411419526794237942
12251169 10 18411700967395327126
12403259 226 18337678512257298081
12592029 89 18341610468664213635
13140716 1 18410011026645116305
13221675 6 18412827975440843803
13380535 76 18409446994676629111
13675066 3 18260269620458568074
13862211 1 18410580616707998454
14004511 7 18261107487137195345
14115302 16 18201709644396234606
14144814 61 18411138030342632080
14178342 30 17977123274895426386
15099037 51 18410575101885321679
15196674 1 18410573980861765096
15375462 189 18059862813127605570
15442244 35 18410857659399343728
15536298 74 18334577919315190184
15775835 57 18343299279600349714
16945 1 18121501258591584910
17802600 8 18410859849864443141
17804303 29 18410570669473784397
18186145 218 18411420643506879197
18522853 276 18335422365419510832
19591789 44 18339644541588938926
200 152 17968101915207090357
20510252 161 18261109698882050113
20645477 70 18335702766860372846
21029758 11 18334299759926819961
21249577 43 18410011043803795181
21267235 1 18410565189095702986
21501502 16 18266740186179398900
21524375 3 18411699898318099351
221490 88 18269548347466653978
2334 1 18410012096055003924
23402539 116 18260838115130405110
23402655 69 18334577944789543036
23463225 33 18411982468310672620
23558518 356 17840870676904675578
23559900 14 18334013904789952770
2748010 2 18410012130435821948
3004659 81 18272082856031476494
335352 9 18338516459843556375
34934 24 18410299073560047538
350125 39 18410852153694810665
351380 180 18409733954379103423
4214541 1 18410856572535253961
474 4 17202195210611806452
5104073 3 18410575071778216976
537710 114 18410007741295964308
53812653 166 18408606976055661441
69090 78 18335424556011158759
7364860 26 18191305983854767888
77779 3 18411417310580517832
7832392 63 18337114466875888382
8809292 202 18343017757495296931
9709674 26 18409162182188901006
9981440 41 17404866943076836576

> <PUBCHEM_SHAPE_MULTIPOLES>
349.85
8.28
2.25
0.66
0.14
0.02
0
-0.28
0.07
0.1
0.01
0.02
0
-0.05

> <PUBCHEM_SHAPE_SELFOVERLAP>
737.622

> <PUBCHEM_SHAPE_VOLUME>
190

> <PUBCHEM_COORDINATE_TYPE>
2
5
10

$$$$

