17396012
  -OEChem-06241222532D

 37 38  0     0  0  0  0  0  0999 V2000
    5.6602   -0.8087    0.0000 O   0  0  0  0  0  0  0  0  0  0  0  0
    2.7688    0.8468    0.0000 O   0  0  0  0  0  0  0  0  0  0  0  0
    4.1701    1.8649    0.0000 N   0  0  0  0  0  0  0  0  0  0  0  0
    5.3511    0.1424    0.0000 N   0  0  0  0  0  0  0  0  0  0  0  0
    3.5823    2.6739    0.0000 C   0  0  0  0  0  0  0  0  0  0  0  0
    3.9890    3.5875    0.0000 C   0  0  0  0  0  0  0  0  0  0  0  0
    2.5878    2.5694    0.0000 C   0  0  0  0  0  0  0  0  0  0  0  0
    3.4013    4.3965    0.0000 C   0  0  0  0  0  0  0  0  0  0  0  0
    2.0000    3.3784    0.0000 C   0  0  0  0  0  0  0  0  0  0  0  0
    3.7634    0.9514    0.0000 C   0  0  0  0  0  0  0  0  0  0  0  0
    4.3511    0.1424    0.0000 C   0  0  0  0  0  0  0  0  0  0  0  0
    4.0421   -0.8087    0.0000 C   0  0  0  0  0  0  0  0  0  0  0  0
    4.8511   -1.3965    0.0000 C   0  0  0  0  0  0  0  0  0  0  0  0
    4.8511   -2.3965    0.0000 C   0  0  0  0  0  0  0  0  0  0  0  0
    3.9851   -2.8965    0.0000 C   0  0  0  0  0  0  0  0  0  0  0  0
    5.7172   -2.8965    0.0000 C   0  0  0  0  0  0  0  0  0  0  0  0
    3.9851   -3.8965    0.0000 C   0  0  0  0  0  0  0  0  0  0  0  0
    5.7172   -3.8965    0.0000 C   0  0  0  0  0  0  0  0  0  0  0  0
    4.8511   -4.3965    0.0000 C   0  0  0  0  0  0  0  0  0  0  0  0
    3.3301    2.1075    0.0000 H   0  0  0  0  0  0  0  0  0  0  0  0
    4.5030    3.2408    0.0000 H   0  0  0  0  0  0  0  0  0  0  0  0
    4.4197    4.0335    0.0000 H   0  0  0  0  0  0  0  0  0  0  0  0
    2.0305    2.2976    0.0000 H   0  0  0  0  0  0  0  0  0  0  0  0
    2.7587    1.9734    0.0000 H   0  0  0  0  0  0  0  0  0  0  0  0
    4.7867    1.9297    0.0000 H   0  0  0  0  0  0  0  0  0  0  0  0
    2.5016    3.7428    0.0000 H   0  0  0  0  0  0  0  0  0  0  0  0
    3.9028    4.7609    0.0000 H   0  0  0  0  0  0  0  0  0  0  0  0
    3.0368    4.8981    0.0000 H   0  0  0  0  0  0  0  0  0  0  0  0
    2.8997    4.0321    0.0000 H   0  0  0  0  0  0  0  0  0  0  0  0
    1.6356    3.8800    0.0000 H   0  0  0  0  0  0  0  0  0  0  0  0
    1.4984    3.0140    0.0000 H   0  0  0  0  0  0  0  0  0  0  0  0
    3.4525   -1.0003    0.0000 H   0  0  0  0  0  0  0  0  0  0  0  0
    3.4482   -2.5865    0.0000 H   0  0  0  0  0  0  0  0  0  0  0  0
    6.2541   -2.5865    0.0000 H   0  0  0  0  0  0  0  0  0  0  0  0
    3.4482   -4.2065    0.0000 H   0  0  0  0  0  0  0  0  0  0  0  0
    6.2541   -4.2065    0.0000 H   0  0  0  0  0  0  0  0  0  0  0  0
    4.8511   -5.0165    0.0000 H   0  0  0  0  0  0  0  0  0  0  0  0
  1  4  1  0  0  0  0
  1 13  1  0  0  0  0
  2 10  2  0  0  0  0
  3  5  1  0  0  0  0
  3 10  1  0  0  0  0
  3 25  1  0  0  0  0
  4 11  2  0  0  0  0
  5  6  1  0  0  0  0
  5  7  1  0  0  0  0
  5 20  1  0  0  0  0
  6  8  1  0  0  0  0
  6 21  1  0  0  0  0
  6 22  1  0  0  0  0
  7  9  1  0  0  0  0
  7 23  1  0  0  0  0
  7 24  1  0  0  0  0
  8 27  1  0  0  0  0
  8 28  1  0  0  0  0
  8 29  1  0  0  0  0
  9 26  1  0  0  0  0
  9 30  1  0  0  0  0
  9 31  1  0  0  0  0
 10 11  1  0  0  0  0
 11 12  1  0  0  0  0
 12 13  2  0  0  0  0
 12 32  1  0  0  0  0
 13 14  1  0  0  0  0
 14 15  2  0  0  0  0
 14 16  1  0  0  0  0
 15 17  1  0  0  0  0
 15 33  1  0  0  0  0
 16 18  2  0  0  0  0
 16 34  1  0  0  0  0
 17 19  2  0  0  0  0
 17 35  1  0  0  0  0
 18 19  1  0  0  0  0
 18 36  1  0  0  0  0
 19 37  1  0  0  0  0
M  END
> <PUBCHEM_COMPOUND_CID>
17396012

> <PUBCHEM_COMPOUND_CANONICALIZED>
1

> <PUBCHEM_CACTVS_COMPLEXITY>
286

> <PUBCHEM_CACTVS_HBOND_ACCEPTOR>
3

> <PUBCHEM_CACTVS_HBOND_DONOR>
1

> <PUBCHEM_CACTVS_ROTATABLE_BOND>
5

> <PUBCHEM_CACTVS_SUBSKEYS>
AAADceBzMAAAAAAAAAAAAAAAAAAAAWAAAAAwAAAAAAAAAAABwAAAHgAUAAAADCzBngQyhJLQAACpA6VyUgCCAAAmIgAomKG+bNoIZjqAlZOUMYhm1hmIyce/yKCOAAAAAAAAAAAAAAAAAAAAAAAAAAAAAA==

> <PUBCHEM_IUPAC_OPENEYE_NAME>
N-(1-ethylpropyl)-5-phenyl-isoxazole-3-carboxamide

> <PUBCHEM_IUPAC_CAS_NAME>
N-pentan-3-yl-5-phenyl-3-isoxazolecarboxamide

> <PUBCHEM_IUPAC_NAME>
N-pentan-3-yl-5-phenyl-1,2-oxazole-3-carboxamide

> <PUBCHEM_IUPAC_SYSTEMATIC_NAME>
N-pentan-3-yl-5-phenyl-1,2-oxazole-3-carboxamide

> <PUBCHEM_IUPAC_TRADITIONAL_NAME>
N-(1-ethylpropyl)-5-phenyl-isoxazole-3-carboxamide

> <PUBCHEM_IUPAC_INCHI>
InChI=1S/C15H18N2O2/c1-3-12(4-2)16-15(18)13-10-14(19-17-13)11-8-6-5-7-9-11/h5-10,12H,3-4H2,1-2H3,(H,16,18)

> <PUBCHEM_IUPAC_INCHIKEY>
MLBABXQVNSXALW-UHFFFAOYSA-N

> <PUBCHEM_XLOGP3_AA>
3.5

> <PUBCHEM_EXACT_MASS>
258.136828

> <PUBCHEM_MOLECULAR_FORMULA>
C15H18N2O2

> <PUBCHEM_MOLECULAR_WEIGHT>
258.31562

> <PUBCHEM_OPENEYE_CAN_SMILES>
CCC(CC)NC(=O)C1=NOC(=C1)C2=CC=CC=C2

> <PUBCHEM_OPENEYE_ISO_SMILES>
CCC(CC)NC(=O)C1=NOC(=C1)C2=CC=CC=C2

> <PUBCHEM_CACTVS_TPSA>
55.1

> <PUBCHEM_MONOISOTOPIC_WEIGHT>
258.136828

> <PUBCHEM_TOTAL_CHARGE>
0

> <PUBCHEM_HEAVY_ATOM_COUNT>
19

> <PUBCHEM_ATOM_DEF_STEREO_COUNT>
0

> <PUBCHEM_ATOM_UDEF_STEREO_COUNT>
0

> <PUBCHEM_BOND_DEF_STEREO_COUNT>
0

> <PUBCHEM_BOND_UDEF_STEREO_COUNT>
0

> <PUBCHEM_ISOTOPIC_ATOM_COUNT>
0

> <PUBCHEM_COMPONENT_COUNT>
1

> <PUBCHEM_CACTVS_TAUTO_COUNT>
2

> <PUBCHEM_COORDINATE_TYPE>
1
5
255

> <PUBCHEM_BONDANNOTATIONS>
1  13  8
1  4  8
11  12  8
12  13  8
14  15  8
14  16  8
15  17  8
16  18  8
17  19  8
18  19  8
4  11  8

$$$$

