443199
  -OEChem-07051213012D

 58 59  0     1  0  0  0  0  0999 V2000
    6.8909   -2.0214    0.0000 P   0  0  3  0  0  0  0  0  0  0  0  0
    8.4732   -2.7259    0.0000 P   0  0  3  0  0  0  0  0  0  0  0  0
    5.0298    0.4432    0.0000 O   0  0  0  0  0  0  0  0  0  0  0  0
    3.1330   -1.3169    0.0000 O   0  0  0  0  0  0  0  0  0  0  0  0
    2.4608    0.7522    0.0000 O   0  0  0  0  0  0  0  0  0  0  0  0
    6.3031   -1.2124    0.0000 O   0  0  0  0  0  0  0  0  0  0  0  0
    7.4787   -2.8304    0.0000 O   0  0  0  0  0  0  0  0  0  0  0  0
    9.4677   -2.6214    0.0000 O   0  0  0  0  0  0  0  0  0  0  0  0
   12.4469   -3.5471    0.0000 O   0  0  0  0  0  0  0  0  0  0  0  0
    2.4888    2.0309    0.0000 O   0  0  0  0  0  0  0  0  0  0  0  0
   11.4568   -2.4123    0.0000 O   0  0  0  0  0  0  0  0  0  0  0  0
    7.6999   -1.4336    0.0000 O   0  0  0  0  0  0  0  0  0  0  0  0
    6.0819   -2.6092    0.0000 O   0  0  0  0  0  0  0  0  0  0  0  0
   13.2201   -4.8394    0.0000 O   0  0  0  0  0  0  0  0  0  0  0  0
    8.5778   -3.7204    0.0000 O   0  0  0  0  0  0  0  0  0  0  0  0
    8.3687   -1.7314    0.0000 O   0  0  0  0  0  0  0  0  0  0  0  0
    4.2208    2.0309    0.0000 N   0  0  0  0  0  0  0  0  0  0  0  0
    3.3548    3.5310    0.0000 N   0  0  0  0  0  0  0  0  0  0  0  0
    4.2208    5.0310    0.0000 N   0  0  0  0  0  0  0  0  0  0  0  0
    3.7208   -0.5079    0.0000 C   0  0  1  0  0  0  0  0  0  0  0  0
    3.4118    0.4432    0.0000 C   0  0  2  0  0  0  0  0  0  0  0  0
    4.7208   -0.5079    0.0000 C   0  0  1  0  0  0  0  0  0  0  0  0
    4.2208    1.0310    0.0000 C   0  0  1  0  0  0  0  0  0  0  0  0
    5.3086   -1.3169    0.0000 C   0  0  0  0  0  0  0  0  0  0  0  0
    5.0868    2.5309    0.0000 C   0  0  0  0  0  0  0  0  0  0  0  0
    3.3548    2.5309    0.0000 C   0  0  0  0  0  0  0  0  0  0  0  0
   11.6378   -4.1349    0.0000 C   0  0  2  0  0  0  0  0  0  0  0  0
   11.0501   -3.3258    0.0000 C   0  0  1  0  0  0  0  0  0  0  0  0
    5.0868    3.5310    0.0000 C   0  0  0  0  0  0  0  0  0  0  0  0
   10.0555   -3.4304    0.0000 C   0  0  0  0  0  0  0  0  0  0  0  0
   12.2256   -4.9439    0.0000 C   0  0  0  0  0  0  0  0  0  0  0  0
   10.8288   -4.7226    0.0000 C   0  0  0  0  0  0  0  0  0  0  0  0
    4.2208    4.0310    0.0000 C   0  0  0  0  0  0  0  0  0  0  0  0
    3.1085   -0.4109    0.0000 H   0  0  0  0  0  0  0  0  0  0  0  0
    2.9734    0.0048    0.0000 H   0  0  0  0  0  0  0  0  0  0  0  0
    5.3332   -0.4109    0.0000 H   0  0  0  0  0  0  0  0  0  0  0  0
    3.6684    1.3124    0.0000 H   0  0  0  0  0  0  0  0  0  0  0  0
    4.7514   -1.5887    0.0000 H   0  0  0  0  0  0  0  0  0  0  0  0
    5.4795   -1.9129    0.0000 H   0  0  0  0  0  0  0  0  0  0  0  0
    3.3852   -1.8833    0.0000 H   0  0  0  0  0  0  0  0  0  0  0  0
    2.0000    0.3373    0.0000 H   0  0  0  0  0  0  0  0  0  0  0  0
    5.6238    2.2210    0.0000 H   0  0  0  0  0  0  0  0  0  0  0  0
   11.6667   -3.2610    0.0000 H   0  0  0  0  0  0  0  0  0  0  0  0
    5.6238    3.8410    0.0000 H   0  0  0  0  0  0  0  0  0  0  0  0
    9.4983   -3.7022    0.0000 H   0  0  0  0  0  0  0  0  0  0  0  0
   10.2264   -4.0264    0.0000 H   0  0  0  0  0  0  0  0  0  0  0  0
   11.6684   -5.2157    0.0000 H   0  0  0  0  0  0  0  0  0  0  0  0
   12.3965   -5.5399    0.0000 H   0  0  0  0  0  0  0  0  0  0  0  0
   10.4644   -4.2211    0.0000 H   0  0  0  0  0  0  0  0  0  0  0  0
   10.3272   -5.0871    0.0000 H   0  0  0  0  0  0  0  0  0  0  0  0
   11.1932   -5.2242    0.0000 H   0  0  0  0  0  0  0  0  0  0  0  0
   13.0133   -3.7993    0.0000 H   0  0  0  0  0  0  0  0  0  0  0  0
   12.0734   -2.3475    0.0000 H   0  0  0  0  0  0  0  0  0  0  0  0
    7.6351   -0.8170    0.0000 H   0  0  0  0  0  0  0  0  0  0  0  0
    4.7578    5.3410    0.0000 H   0  0  0  0  0  0  0  0  0  0  0  0
    3.6839    5.3410    0.0000 H   0  0  0  0  0  0  0  0  0  0  0  0
   13.5846   -5.3410    0.0000 H   0  0  0  0  0  0  0  0  0  0  0  0
    8.0762   -4.0848    0.0000 H   0  0  0  0  0  0  0  0  0  0  0  0
  1  6  1  0  0  0  0
  1  7  1  0  0  0  0
  1 12  1  0  0  0  0
  1 13  2  0  0  0  0
  2  7  1  0  0  0  0
  2  8  1  0  0  0  0
  2 15  1  0  0  0  0
  2 16  2  0  0  0  0
  3 22  1  0  0  0  0
  3 23  1  0  0  0  0
 20  4  1  1  0  0  0
  4 40  1  0  0  0  0
 21  5  1  1  0  0  0
  5 41  1  0  0  0  0
  6 24  1  0  0  0  0
  8 30  1  0  0  0  0
 27  9  1  6  0  0  0
  9 52  1  0  0  0  0
 10 26  2  0  0  0  0
 28 11  1  1  0  0  0
 11 53  1  0  0  0  0
 12 54  1  0  0  0  0
 14 31  1  0  0  0  0
 14 57  1  0  0  0  0
 15 58  1  0  0  0  0
 23 17  1  6  0  0  0
 17 25  1  0  0  0  0
 17 26  1  0  0  0  0
 18 26  1  0  0  0  0
 18 33  2  0  0  0  0
 19 33  1  0  0  0  0
 19 55  1  0  0  0  0
 19 56  1  0  0  0  0
 20 21  1  0  0  0  0
 20 22  1  0  0  0  0
 20 34  1  0  0  0  0
 21 23  1  0  0  0  0
 21 35  1  0  0  0  0
 22 24  1  6  0  0  0
 22 36  1  0  0  0  0
 23 37  1  0  0  0  0
 24 38  1  0  0  0  0
 24 39  1  0  0  0  0
 25 29  2  0  0  0  0
 25 42  1  0  0  0  0
 27 28  1  0  0  0  0
 27 31  1  0  0  0  0
 27 32  1  0  0  0  0
 28 30  1  0  0  0  0
 28 43  1  0  0  0  0
 29 33  1  0  0  0  0
 29 44  1  0  0  0  0
 30 45  1  0  0  0  0
 30 46  1  0  0  0  0
 31 47  1  0  0  0  0
 31 48  1  0  0  0  0
 32 49  1  0  0  0  0
 32 50  1  0  0  0  0
 32 51  1  0  0  0  0
M  END
> <PUBCHEM_COMPOUND_CID>
443199

> <PUBCHEM_COMPOUND_CANONICALIZED>
1

> <PUBCHEM_CACTVS_COMPLEXITY>
885

> <PUBCHEM_CACTVS_HBOND_ACCEPTOR>
14

> <PUBCHEM_CACTVS_HBOND_DONOR>
8

> <PUBCHEM_CACTVS_ROTATABLE_BOND>
11

> <PUBCHEM_CACTVS_SUBSKEYS>
AAADceBzPAMAAAAAAAAAAAAAAAAAASAAAAAgAAAAAAAAAAAAAAAAHgAQCCAADFThgAYDAANABxCoQCJmdICAAAEAAgAIAAAYABCDEAIAgAAOQAAHFgITAADwMAIIAAAAAAAAAAAAAAAAAAAAAAAAAAAAAA==

> <PUBCHEM_IUPAC_OPENEYE_NAME>
[[(2R,3S,4R,5R)-5-(4-amino-2-oxo-pyrimidin-1-yl)-3,4-dihydroxy-tetrahydrofuran-2-yl]methoxy-hydroxy-phosphoryl] [(2R,3S)-2,3,4-trihydroxy-3-methyl-butyl] hydrogen phosphate

> <PUBCHEM_IUPAC_CAS_NAME>
[[(2R,3S,4R,5R)-5-(4-amino-2-oxo-1-pyrimidinyl)-3,4-dihydroxy-2-oxolanyl]methoxy-hydroxyphosphoryl] [(2R,3S)-2,3,4-trihydroxy-3-methylbutyl] hydrogen phosphate

> <PUBCHEM_IUPAC_NAME>
[[(2R,3S,4R,5R)-5-(4-amino-2-oxopyrimidin-1-yl)-3,4-dihydroxyoxolan-2-yl]methoxy-hydroxyphosphoryl] [(2R,3S)-2,3,4-trihydroxy-3-methylbutyl] hydrogen phosphate

> <PUBCHEM_IUPAC_SYSTEMATIC_NAME>
[[(2R,3S,4R,5R)-5-(4-azanyl-2-oxidanylidene-pyrimidin-1-yl)-3,4-bis(oxidanyl)oxolan-2-yl]methoxy-oxidanyl-phosphoryl] [(2R,3S)-3-methyl-2,3,4-tris(oxidanyl)butyl] hydrogen phosphate

> <PUBCHEM_IUPAC_TRADITIONAL_NAME>
[[(2R,3S,4R,5R)-5-(4-amino-2-keto-pyrimidin-1-yl)-3,4-dihydroxy-tetrahydrofuran-2-yl]methoxy-hydroxy-phosphoryl] [(2R,3S)-2,3,4-trihydroxy-3-methyl-butyl] hydrogen phosphate

> <PUBCHEM_IUPAC_INCHI>
InChI=1S/C14H25N3O14P2/c1-14(23,6-18)8(19)5-29-33(26,27)31-32(24,25)28-4-7-10(20)11(21)12(30-7)17-3-2-9(15)16-13(17)22/h2-3,7-8,10-12,18-21,23H,4-6H2,1H3,(H,24,25)(H,26,27)(H2,15,16,22)/t7-,8-,10-,11-,12-,14+/m1/s1

> <PUBCHEM_IUPAC_INCHIKEY>
YFAUKWZNPVBCFF-XHIBXCGHSA-N

> <PUBCHEM_XLOGP3>
-5.7

> <PUBCHEM_EXACT_MASS>
521.081176

> <PUBCHEM_MOLECULAR_FORMULA>
C14H25N3O14P2

> <PUBCHEM_MOLECULAR_WEIGHT>
521.307524

> <PUBCHEM_OPENEYE_CAN_SMILES>
CC(CO)(C(COP(=O)(O)OP(=O)(O)OCC1C(C(C(O1)N2C=CC(=NC2=O)N)O)O)O)O

> <PUBCHEM_OPENEYE_ISO_SMILES>
C[C@](CO)([C@@H](COP(=O)(O)OP(=O)(O)OC[C@@H]1[C@H]([C@H]([C@@H](O1)N2C=CC(=NC2=O)N)O)O)O)O

> <PUBCHEM_CACTVS_TPSA>
271

> <PUBCHEM_MONOISOTOPIC_WEIGHT>
521.081176

> <PUBCHEM_TOTAL_CHARGE>
0

> <PUBCHEM_HEAVY_ATOM_COUNT>
33

> <PUBCHEM_ATOM_DEF_STEREO_COUNT>
6

> <PUBCHEM_ATOM_UDEF_STEREO_COUNT>
0

> <PUBCHEM_BOND_DEF_STEREO_COUNT>
0

> <PUBCHEM_BOND_UDEF_STEREO_COUNT>
0

> <PUBCHEM_ISOTOPIC_ATOM_COUNT>
0

> <PUBCHEM_COMPONENT_COUNT>
1

> <PUBCHEM_CACTVS_TAUTO_COUNT>
3

> <PUBCHEM_COORDINATE_TYPE>
1
5
255

> <PUBCHEM_BONDANNOTATIONS>
28  11  5
23  17  6
17  25  8
17  26  8
18  26  8
18  33  8
22  24  6
25  29  8
29  33  8
20  4  5
21  5  5
27  9  6

$$$$

