442115
  -OEChem-07051212572D

 69 76  0     1  0  0  0  0  0999 V2000
    2.8602   -1.2073    0.0000 O   0  0  0  0  0  0  0  0  0  0  0  0
    3.7435    0.2826    0.0000 O   0  0  0  0  0  0  0  0  0  0  0  0
    7.2342    0.2795    0.0000 N   0  0  3  0  0  0  0  0  0  0  0  0
    5.4862   -2.7898    0.0000 N   0  0  3  0  0  0  0  0  0  0  0  0
    8.3576   -2.4362    0.0000 N   0  0  0  0  0  0  0  0  0  0  0  0
    5.5791    2.5099    0.0000 N   0  0  0  0  0  0  0  0  0  0  0  0
    6.3682   -1.2205    0.0000 C   0  0  1  0  0  0  0  0  0  0  0  0
    6.3842   -2.2620    0.0000 C   0  0  2  0  0  0  0  0  0  0  0  0
    5.5021   -0.7205    0.0000 C   0  0  2  0  0  0  0  0  0  0  0  0
    7.2342   -0.7205    0.0000 C   0  0  0  0  0  0  0  0  0  0  0  0
    6.3682    0.7795    0.0000 C   0  0  2  0  0  0  0  0  0  0  0  0
    5.5021    0.2795    0.0000 C   0  0  0  0  0  0  0  0  0  0  0  0
    7.3361   -2.7826    0.0000 C   0  0  0  0  0  0  0  0  0  0  0  0
    4.5921   -1.2273    0.0000 C   0  0  0  0  0  0  0  0  0  0  0  0
    7.2464   -1.7553    0.0000 C   0  0  0  0  0  0  0  0  0  0  0  0
    5.4778   -3.8747    0.0000 C   0  0  0  0  0  0  0  0  0  0  0  0
    8.1442    0.7864    0.0000 C   0  0  0  0  0  0  0  0  0  0  0  0
    6.3521    1.8210    0.0000 C   0  0  0  0  0  0  0  0  0  0  0  0
    4.5841   -2.2689    0.0000 C   0  0  0  0  0  0  0  0  0  0  0  0
    7.3529   -3.8675    0.0000 C   0  0  0  0  0  0  0  0  0  0  0  0
    6.4174   -4.4172    0.0000 C   0  0  0  0  0  0  0  0  0  0  0  0
    8.1522    1.8280    0.0000 C   0  0  0  0  0  0  0  0  0  0  0  0
    7.2501    2.3488    0.0000 C   0  0  0  0  0  0  0  0  0  0  0  0
    8.3845   -4.1822    0.0000 C   0  0  0  0  0  0  0  0  0  0  0  0
    9.0042   -3.2995    0.0000 C   0  0  0  0  0  0  0  0  0  0  0  0
    3.7319   -0.7174    0.0000 C   0  0  0  0  0  0  0  0  0  0  0  0
    7.0244    3.3593    0.0000 C   0  0  0  0  0  0  0  0  0  0  0  0
    5.9937    3.4587    0.0000 C   0  0  0  0  0  0  0  0  0  0  0  0
    8.8423   -5.2082    0.0000 C   0  0  0  0  0  0  0  0  0  0  0  0
   10.1246   -3.3814    0.0000 C   0  0  0  0  0  0  0  0  0  0  0  0
    7.6643    4.2276    0.0000 C   0  0  0  0  0  0  0  0  0  0  0  0
    5.5315    4.4333    0.0000 C   0  0  0  0  0  0  0  0  0  0  0  0
    9.9606   -5.3160    0.0000 C   0  0  0  0  0  0  0  0  0  0  0  0
   10.6061   -4.3965    0.0000 C   0  0  0  0  0  0  0  0  0  0  0  0
    7.2248    5.2125    0.0000 C   0  0  0  0  0  0  0  0  0  0  0  0
    6.1512    5.3160    0.0000 C   0  0  0  0  0  0  0  0  0  0  0  0
    2.0000   -0.6973    0.0000 C   0  0  0  0  0  0  0  0  0  0  0  0
    7.1075   -1.6398    0.0000 H   0  0  0  0  0  0  0  0  0  0  0  0
    4.7693   -0.2898    0.0000 H   0  0  0  0  0  0  0  0  0  0  0  0
    7.4462   -1.3031    0.0000 H   0  0  0  0  0  0  0  0  0  0  0  0
    7.8448   -0.6128    0.0000 H   0  0  0  0  0  0  0  0  0  0  0  0
    5.6288    1.1988    0.0000 H   0  0  0  0  0  0  0  0  0  0  0  0
    5.2901    0.8621    0.0000 H   0  0  0  0  0  0  0  0  0  0  0  0
    4.8915    0.1719    0.0000 H   0  0  0  0  0  0  0  0  0  0  0  0
    7.5605   -2.2899    0.0000 H   0  0  0  0  0  0  0  0  0  0  0  0
    7.7809   -1.4412    0.0000 H   0  0  0  0  0  0  0  0  0  0  0  0
    6.9322   -1.2208    0.0000 H   0  0  0  0  0  0  0  0  0  0  0  0
    4.8678   -3.7639    0.0000 H   0  0  0  0  0  0  0  0  0  0  0  0
    5.2643   -4.4568    0.0000 H   0  0  0  0  0  0  0  0  0  0  0  0
    8.3487    0.2011    0.0000 H   0  0  0  0  0  0  0  0  0  0  0  0
    8.7558    0.8877    0.0000 H   0  0  0  0  0  0  0  0  0  0  0  0
    4.0460   -2.5769    0.0000 H   0  0  0  0  0  0  0  0  0  0  0  0
    6.0201   -4.8932    0.0000 H   0  0  0  0  0  0  0  0  0  0  0  0
    6.8184   -4.8901    0.0000 H   0  0  0  0  0  0  0  0  0  0  0  0
    8.7622    1.7172    0.0000 H   0  0  0  0  0  0  0  0  0  0  0  0
    8.3658    2.4100    0.0000 H   0  0  0  0  0  0  0  0  0  0  0  0
    8.5411   -1.8440    0.0000 H   0  0  0  0  0  0  0  0  0  0  0  0
    4.9734    2.3774    0.0000 H   0  0  0  0  0  0  0  0  0  0  0  0
    8.4803   -5.7115    0.0000 H   0  0  0  0  0  0  0  0  0  0  0  0
   10.4750   -2.8699    0.0000 H   0  0  0  0  0  0  0  0  0  0  0  0
    8.2808    4.1609    0.0000 H   0  0  0  0  0  0  0  0  0  0  0  0
    4.9137    4.4856    0.0000 H   0  0  0  0  0  0  0  0  0  0  0  0
   10.2198   -5.8793    0.0000 H   0  0  0  0  0  0  0  0  0  0  0  0
   11.2239   -4.4489    0.0000 H   0  0  0  0  0  0  0  0  0  0  0  0
    7.5868    5.7158    0.0000 H   0  0  0  0  0  0  0  0  0  0  0  0
    5.8920    5.8793    0.0000 H   0  0  0  0  0  0  0  0  0  0  0  0
    2.3162   -0.1640    0.0000 H   0  0  0  0  0  0  0  0  0  0  0  0
    1.4667   -0.3811    0.0000 H   0  0  0  0  0  0  0  0  0  0  0  0
    1.6838   -1.2306    0.0000 H   0  0  0  0  0  0  0  0  0  0  0  0
  1 26  1  0  0  0  0
  1 37  1  0  0  0  0
  2 26  2  0  0  0  0
  3 10  1  0  0  0  0
  3 11  1  0  0  0  0
  3 17  1  0  0  0  0
  4  8  1  0  0  0  0
  4 16  1  0  0  0  0
  4 19  1  0  0  0  0
  5 13  1  0  0  0  0
  5 25  1  0  0  0  0
  5 57  1  0  0  0  0
  6 18  1  0  0  0  0
  6 28  1  0  0  0  0
  6 58  1  0  0  0  0
  7  8  1  0  0  0  0
  7  9  1  0  0  0  0
  7 10  1  0  0  0  0
  7 38  1  6  0  0  0
  8 13  1  0  0  0  0
  8 15  1  1  0  0  0
  9 12  1  0  0  0  0
  9 14  1  0  0  0  0
  9 39  1  6  0  0  0
 10 40  1  0  0  0  0
 10 41  1  0  0  0  0
 11 12  1  0  0  0  0
 11 18  1  0  0  0  0
 11 42  1  1  0  0  0
 12 43  1  0  0  0  0
 12 44  1  0  0  0  0
 13 20  2  0  0  0  0
 14 19  2  0  0  0  0
 14 26  1  0  0  0  0
 15 45  1  0  0  0  0
 15 46  1  0  0  0  0
 15 47  1  0  0  0  0
 16 21  1  0  0  0  0
 16 48  1  0  0  0  0
 16 49  1  0  0  0  0
 17 22  1  0  0  0  0
 17 50  1  0  0  0  0
 17 51  1  0  0  0  0
 18 23  2  0  0  0  0
 19 52  1  0  0  0  0
 20 21  1  0  0  0  0
 20 24  1  0  0  0  0
 21 53  1  0  0  0  0
 21 54  1  0  0  0  0
 22 23  1  0  0  0  0
 22 55  1  0  0  0  0
 22 56  1  0  0  0  0
 23 27  1  0  0  0  0
 24 25  1  0  0  0  0
 24 29  2  0  0  0  0
 25 30  2  0  0  0  0
 27 28  1  0  0  0  0
 27 31  2  0  0  0  0
 28 32  2  0  0  0  0
 29 33  1  0  0  0  0
 29 59  1  0  0  0  0
 30 34  1  0  0  0  0
 30 60  1  0  0  0  0
 31 35  1  0  0  0  0
 31 61  1  0  0  0  0
 32 36  1  0  0  0  0
 32 62  1  0  0  0  0
 33 34  2  0  0  0  0
 33 63  1  0  0  0  0
 34 64  1  0  0  0  0
 35 36  2  0  0  0  0
 35 65  1  0  0  0  0
 36 66  1  0  0  0  0
 37 67  1  0  0  0  0
 37 68  1  0  0  0  0
 37 69  1  0  0  0  0
M  END
> <PUBCHEM_COMPOUND_CID>
442115

> <PUBCHEM_COMPOUND_CANONICALIZED>
1

> <PUBCHEM_CACTVS_COMPLEXITY>
969

> <PUBCHEM_CACTVS_HBOND_ACCEPTOR>
4

> <PUBCHEM_CACTVS_HBOND_DONOR>
2

> <PUBCHEM_CACTVS_ROTATABLE_BOND>
2

> <PUBCHEM_CACTVS_SUBSKEYS>
AAADcfB7sAAAAAAAAAAAAAAAAAAAAWLAAAA8eLECAAAAAFix/gAAHgAQAAAADajBngYyyPPJlACoAyT2TACCgCAhAiAImSE4ZNgIZPLA8ZGUIAhkkADI6MeY2fOegAAAAAACAAAAAAAAAAQAAAAAAAAAAA==

> <PUBCHEM_IUPAC_INCHI>
InChI=1S/C31H32N4O2/c1-31-24-17-34-13-11-20-18-7-3-5-9-25(18)32-28(20)27(34)15-22(24)23(30(36)37-2)16-35(31)14-12-21-19-8-4-6-10-26(19)33-29(21)31/h3-10,16,22,24,27,32-33H,11-15,17H2,1-2H3/t22-,24-,27-,31-/m1/s1

> <PUBCHEM_IUPAC_INCHIKEY>
SHKMVIVFLHPOSB-TVRWTGHXSA-N

> <PUBCHEM_XLOGP3_AA>
4.4

> <PUBCHEM_EXACT_MASS>
492.252526

> <PUBCHEM_MOLECULAR_FORMULA>
C31H32N4O2

> <PUBCHEM_MOLECULAR_WEIGHT>
492.61138

> <PUBCHEM_OPENEYE_CAN_SMILES>
CC12C3CN4CCC5=C(C4CC3C(=CN1CCC6=C2NC7=CC=CC=C67)C(=O)OC)NC8=CC=CC=C58

> <PUBCHEM_OPENEYE_ISO_SMILES>
C[C@]12[C@@H]3CN4CCC5=C([C@H]4C[C@@H]3C(=CN1CCC6=C2NC7=CC=CC=C67)C(=O)OC)NC8=CC=CC=C58

> <PUBCHEM_CACTVS_TPSA>
64.4

> <PUBCHEM_MONOISOTOPIC_WEIGHT>
492.252526

> <PUBCHEM_TOTAL_CHARGE>
0

> <PUBCHEM_HEAVY_ATOM_COUNT>
37

> <PUBCHEM_ATOM_DEF_STEREO_COUNT>
4

> <PUBCHEM_ATOM_UDEF_STEREO_COUNT>
0

> <PUBCHEM_BOND_DEF_STEREO_COUNT>
0

> <PUBCHEM_BOND_UDEF_STEREO_COUNT>
0

> <PUBCHEM_ISOTOPIC_ATOM_COUNT>
0

> <PUBCHEM_COMPONENT_COUNT>
1

> <PUBCHEM_CACTVS_TAUTO_COUNT>
1

> <PUBCHEM_COORDINATE_TYPE>
1
5
255

> <PUBCHEM_BONDANNOTATIONS>
11  42  5
13  20  8
18  23  8
20  24  8
23  27  8
24  25  8
24  29  8
25  30  8
27  28  8
27  31  8
28  32  8
29  33  8
30  34  8
31  35  8
32  36  8
33  34  8
35  36  8
5  13  8
5  25  8
6  18  8
6  28  8
7  38  6
8  15  5
9  39  6

$$$$

