9729
  -OEChem-06261204003D

 20 19  0     0  0  0  0  0  0999 V2000
   -3.7447    1.4472   -0.7526 Cl  0  0  0  0  0  0  0  0  0  0  0  0
    3.7463    1.0950    0.7688 F   0  0  0  0  0  0  0  0  0  0  0  0
   -1.1791    0.0885    0.2051 O   0  0  0  0  0  0  0  0  0  0  0  0
   -0.0115   -1.8677   -0.1595 O   0  0  0  0  0  0  0  0  0  0  0  0
    2.4345   -0.4801   -0.3761 C   0  0  0  0  0  0  0  0  0  0  0  0
    1.1317    0.2788   -0.1292 C   0  0  0  0  0  0  0  0  0  0  0  0
    3.6269    0.4590   -0.4266 C   0  0  0  0  0  0  0  0  0  0  0  0
   -0.0563   -0.6514   -0.0369 C   0  0  0  0  0  0  0  0  0  0  0  0
   -2.3953   -0.6572    0.3201 C   0  0  0  0  0  0  0  0  0  0  0  0
   -3.5523    0.2878    0.5869 C   0  0  0  0  0  0  0  0  0  0  0  0
    2.3699   -1.0431   -1.3144 H   0  0  0  0  0  0  0  0  0  0  0  0
    2.5866   -1.2073    0.4305 H   0  0  0  0  0  0  0  0  0  0  0  0
    0.9528    0.9831   -0.9494 H   0  0  0  0  0  0  0  0  0  0  0  0
    1.1996    0.8363    0.8118 H   0  0  0  0  0  0  0  0  0  0  0  0
    4.5523   -0.0954   -0.6062 H   0  0  0  0  0  0  0  0  0  0  0  0
    3.5120    1.2175   -1.2064 H   0  0  0  0  0  0  0  0  0  0  0  0
   -2.3055   -1.3628    1.1541 H   0  0  0  0  0  0  0  0  0  0  0  0
   -2.5683   -1.2205   -0.6047 H   0  0  0  0  0  0  0  0  0  0  0  0
   -4.4913   -0.2610    0.6979 H   0  0  0  0  0  0  0  0  0  0  0  0
   -3.3716    0.8777    1.4902 H   0  0  0  0  0  0  0  0  0  0  0  0
  1 10  1  0  0  0  0
  2  7  1  0  0  0  0
  3  8  1  0  0  0  0
  3  9  1  0  0  0  0
  4  8  2  0  0  0  0
  5  6  1  0  0  0  0
  5  7  1  0  0  0  0
  5 11  1  0  0  0  0
  5 12  1  0  0  0  0
  6  8  1  0  0  0  0
  6 13  1  0  0  0  0
  6 14  1  0  0  0  0
  7 15  1  0  0  0  0
  7 16  1  0  0  0  0
  9 10  1  0  0  0  0
  9 17  1  0  0  0  0
  9 18  1  0  0  0  0
 10 19  1  0  0  0  0
 10 20  1  0  0  0  0
M  END
> <PUBCHEM_COMPOUND_CID>
9729

> <PUBCHEM_CONFORMER_RMSD>
0.6

> <PUBCHEM_CONFORMER_DIVERSEORDER>
1
120
122
360
372
46
311
371
337
270
81
136
284
353
67
323
357
133
241
25
319
381
235
338
198
224
126
187
368
378
375
317
308
171
104
281
111
164
192
128
228
359
141
331
113
28
201
254
146
216
73
277
93
321
339
2
132
336
258
272
50
175
54
295
354
248
346
115
263
312
324
162
376
42
103
34
186
328
222
350
138
298
48
367
129
352
169
340
300
226
330
173
131
356
96
374
149
369
221
231
82
158
379
223
255
246
343
116
89
139
344
299
279
370
209
329
151
26
40
362
335
21
320
289
349
134
327
314
301
157
69
125
166
215
66
256
168
333
38
249
39
302
243
276
259
182
32
130
278
313
65
107
110
75
109
265
14
108
296
214
238
252
332
239
219
307
193
275
287
56
244
274
41
121
195
119
180
55
361
326
366
84
45
211
92
245
304
205
242
80
72
148
305
85
291
43
280
100
51
112
127
306
240
64
227
230
177
218
147
105
137
3
83
202
365
68
22
44
271
322
163
71
234
143
290
94
37
377
325
200
153
117
316
90
99
204
342
52
262
260
142
102
351
79
380
373
341
189
167
12
91
282
58
170
261
156
283
152
257
154
318
364
60
310
123
20
203
184
19
144
247
355
237
87
309
29
95
30
345
31
176
6
86
269
190
145
232
217
185
155
53
292
266
97
264
183
208
194
172
303
59
118
101
47
77
268
106
159
24
293
348
267
297
334
236
273
16
49
233
253
165
363
358
88
347
286
315
35
206
135
288
15
251
13
196
78
285
181
178
197
150
36
17
124
199
188
207
62
212
174
229
98
70
18
74
10
7
33
220
213
179
210
27
23
225
160
114
8
61
191
140
4
161
63
76
294
5
57
250
9
11

> <PUBCHEM_MMFF94_PARTIAL_CHARGES>
9
1 -0.29
10 0.29
2 -0.34
3 -0.43
4 -0.57
6 0.06
7 0.34
8 0.66
9 0.28

> <PUBCHEM_EFFECTIVE_ROTOR_COUNT>
6

> <PUBCHEM_PHARMACOPHORE_FEATURES>
1
1 4 acceptor

> <PUBCHEM_HEAVY_ATOM_COUNT>
10

> <PUBCHEM_ATOM_DEF_STEREO_COUNT>
0

> <PUBCHEM_ATOM_UDEF_STEREO_COUNT>
0

> <PUBCHEM_BOND_DEF_STEREO_COUNT>
0

> <PUBCHEM_BOND_UDEF_STEREO_COUNT>
0

> <PUBCHEM_ISOTOPIC_ATOM_COUNT>
0

> <PUBCHEM_COMPONENT_COUNT>
1

> <PUBCHEM_CACTVS_TAUTO_COUNT>
1

> <PUBCHEM_CONFORMER_ID>
0000260100000001

> <PUBCHEM_MMFF94_ENERGY>
4.4785

> <PUBCHEM_FEATURE_SELFOVERLAP>
5.074

> <PUBCHEM_SHAPE_FINGERPRINT>
11062470 55 17603579720958569272
11543360 7 15140968330797792960
14252887 29 11527947859397752812
14325111 11 18409443682903376975
14390081 3 18410852200722757305
177051 138 9439401328464306776
18186145 218 18114452427085086764
18342897 55 18041285443200356671
19782 4 18341344361033034349
20281407 28 7060377011665631775
20645477 70 17749942371031888590
20765181 27 18409168817923454937
21293036 1 17676209074128270213
21499 59 18259988188605766239
548570 60 18410578396151955653

> <PUBCHEM_SHAPE_MULTIPOLES>
188.65
7.57
1.35
0.78
0.4
0.14
-0.01
-3.67
-0.22
-0.42
0.15
-0.05
-0.13
0.67

> <PUBCHEM_SHAPE_SELFOVERLAP>
338.599

> <PUBCHEM_SHAPE_VOLUME>
122.1

> <PUBCHEM_COORDINATE_TYPE>
2
5
10

$$$$

