11422
  -OEChem-06261205393D

 17 17  0     0  0  0  0  0  0999 V2000
    2.1491   -1.9989    0.0000 Br  0  0  0  0  0  0  0  0  0  0  0  0
    2.4018    1.1487    0.0006 N   0  0  0  0  0  0  0  0  0  0  0  0
   -1.5847   -0.1818   -0.0002 C   0  0  0  0  0  0  0  0  0  0  0  0
    1.0690    0.6784   -0.0002 C   0  0  0  0  0  0  0  0  0  0  0  0
   -0.5489   -1.1160   -0.0002 C   0  0  0  0  0  0  0  0  0  0  0  0
   -1.2936    1.1824   -0.0002 C   0  0  0  0  0  0  0  0  0  0  0  0
    0.7781   -0.6859   -0.0002 C   0  0  0  0  0  0  0  0  0  0  0  0
    0.0332    1.6125   -0.0002 C   0  0  0  0  0  0  0  0  0  0  0  0
   -3.0040   -0.6395    0.0006 C   0  0  0  0  0  0  0  0  0  0  0  0
   -0.7832   -2.1783    0.0018 H   0  0  0  0  0  0  0  0  0  0  0  0
   -2.0918    1.9200    0.0019 H   0  0  0  0  0  0  0  0  0  0  0  0
    0.2450    2.6788    0.0005 H   0  0  0  0  0  0  0  0  0  0  0  0
   -3.1141   -1.5831   -0.5447 H   0  0  0  0  0  0  0  0  0  0  0  0
   -3.3511   -0.7850    1.0284 H   0  0  0  0  0  0  0  0  0  0  0  0
   -3.6567    0.0910   -0.4893 H   0  0  0  0  0  0  0  0  0  0  0  0
    3.1668    0.4871   -0.0008 H   0  0  0  0  0  0  0  0  0  0  0  0
    2.5909    2.1421   -0.0009 H   0  0  0  0  0  0  0  0  0  0  0  0
  1  7  1  0  0  0  0
  2  4  1  0  0  0  0
  2 16  1  0  0  0  0
  2 17  1  0  0  0  0
  3  5  2  0  0  0  0
  3  6  1  0  0  0  0
  3  9  1  0  0  0  0
  4  7  2  0  0  0  0
  4  8  1  0  0  0  0
  5  7  1  0  0  0  0
  5 10  1  0  0  0  0
  6  8  2  0  0  0  0
  6 11  1  0  0  0  0
  8 12  1  0  0  0  0
  9 13  1  0  0  0  0
  9 14  1  0  0  0  0
  9 15  1  0  0  0  0
M  END
> <PUBCHEM_COMPOUND_CID>
11422

> <PUBCHEM_CONFORMER_RMSD>
0.4

> <PUBCHEM_CONFORMER_DIVERSEORDER>
1

> <PUBCHEM_MMFF94_PARTIAL_CHARGES>
14
1 -0.11
10 0.15
11 0.15
12 0.15
16 0.4
17 0.4
2 -0.9
3 -0.14
4 0.1
5 -0.15
6 -0.15
7 0.11
8 -0.15
9 0.14

> <PUBCHEM_EFFECTIVE_ROTOR_COUNT>
0

> <PUBCHEM_PHARMACOPHORE_FEATURES>
4
1 1 hydrophobe
1 2 cation
1 2 donor
6 3 4 5 6 7 8 rings

> <PUBCHEM_HEAVY_ATOM_COUNT>
9

> <PUBCHEM_ATOM_DEF_STEREO_COUNT>
0

> <PUBCHEM_ATOM_UDEF_STEREO_COUNT>
0

> <PUBCHEM_BOND_DEF_STEREO_COUNT>
0

> <PUBCHEM_BOND_UDEF_STEREO_COUNT>
0

> <PUBCHEM_ISOTOPIC_ATOM_COUNT>
0

> <PUBCHEM_COMPONENT_COUNT>
1

> <PUBCHEM_CACTVS_TAUTO_COUNT>
1

> <PUBCHEM_CONFORMER_ID>
00002C9E00000001

> <PUBCHEM_MMFF94_ENERGY>
30.9979

> <PUBCHEM_FEATURE_SELFOVERLAP>
20.297

> <PUBCHEM_SHAPE_FINGERPRINT>
12423570 1 7689590321656254808
14128692 85 18265890435743202830
161256 15 18410571816403995854
16945 1 18338798897024939621
18185500 45 18263929843159540231
193761 8 18266459991119045860
20645477 70 18410300207585011911
20871998 22 18190454050826034294
21040471 1 17617941326971161573
23235685 24 18268434529318827405
23402655 69 18336845156027516317
23552423 10 18271801375772971438
241688 4 18196933485711886080
2748010 2 18339366373778880605
29004967 10 18270957943101539337
5084963 1 18188214319901761619

> <PUBCHEM_SHAPE_MULTIPOLES>
186.18
3.48
2
0.62
0.41
0.15
0
-1.38
0
-0.81
0
-0.02
-0.04
0

> <PUBCHEM_SHAPE_SELFOVERLAP>
370.128

> <PUBCHEM_SHAPE_VOLUME>
115.2

> <PUBCHEM_COORDINATE_TYPE>
2
5
10

$$$$

