53297430
  -OEChem-07051213142D

 84 86  0     1  0  0  0  0  0999 V2000
    5.4641   -6.7500    0.0000 S   0  0  0  0  0  0  0  0  0  0  0  0
    9.7942    6.7500    0.0000 S   0  0  0  0  0  0  0  0  0  0  0  0
    6.3301   -8.2500    0.0000 Na  0  3  0  0  0  0  0  0  0  0  0  0
   10.6603    8.2500    0.0000 Na  0  3  0  0  0  0  0  0  0  0  0  0
    6.3301   -7.2500    0.0000 O   0  5  0  0  0  0  0  0  0  0  0  0
    4.9641   -7.6160    0.0000 O   0  0  0  0  0  0  0  0  0  0  0  0
    5.9641   -5.8840    0.0000 O   0  0  0  0  0  0  0  0  0  0  0  0
    9.7942    7.7500    0.0000 O   0  5  0  0  0  0  0  0  0  0  0  0
   10.7942    6.7500    0.0000 O   0  0  0  0  0  0  0  0  0  0  0  0
    8.7942    6.7500    0.0000 O   0  0  0  0  0  0  0  0  0  0  0  0
    4.5981   -3.2500    0.0000 N   0  0  3  0  0  0  0  0  0  0  0  0
    8.0622    2.7500    0.0000 N   0  3  0  0  0  0  0  0  0  0  0  0
    3.7320   -3.7500    0.0000 C   0  0  0  0  0  0  0  0  0  0  0  0
    4.5981   -2.2500    0.0000 C   0  0  0  0  0  0  0  0  0  0  0  0
    4.5981    0.7500    0.0000 C   0  0  0  0  0  0  0  0  0  0  0  0
    7.1962    2.2500    0.0000 C   0  0  0  0  0  0  0  0  0  0  0  0
    8.0622    3.7500    0.0000 C   0  0  0  0  0  0  0  0  0  0  0  0
    4.5981   -0.2500    0.0000 C   0  0  0  0  0  0  0  0  0  0  0  0
    5.4641    1.2500    0.0000 C   0  0  0  0  0  0  0  0  0  0  0  0
    5.4641   -3.7500    0.0000 C   0  0  0  0  0  0  0  0  0  0  0  0
    8.9282    2.2500    0.0000 C   0  0  0  0  0  0  0  0  0  0  0  0
    3.7320   -4.7500    0.0000 C   0  0  0  0  0  0  0  0  0  0  0  0
    8.9282    4.2500    0.0000 C   0  0  0  0  0  0  0  0  0  0  0  0
    5.4641   -1.7500    0.0000 C   0  0  0  0  0  0  0  0  0  0  0  0
    3.7320   -1.7500    0.0000 C   0  0  0  0  0  0  0  0  0  0  0  0
    6.3301    2.7500    0.0000 C   0  0  0  0  0  0  0  0  0  0  0  0
    7.1962    1.2500    0.0000 C   0  0  0  0  0  0  0  0  0  0  0  0
    5.4641   -0.7500    0.0000 C   0  0  0  0  0  0  0  0  0  0  0  0
    3.7320   -0.7500    0.0000 C   0  0  0  0  0  0  0  0  0  0  0  0
    5.4641    2.2500    0.0000 C   0  0  0  0  0  0  0  0  0  0  0  0
    6.3301    0.7500    0.0000 C   0  0  0  0  0  0  0  0  0  0  0  0
    3.7320    1.2500    0.0000 C   0  0  0  0  0  0  0  0  0  0  0  0
    6.3301   -3.2500    0.0000 C   0  0  0  0  0  0  0  0  0  0  0  0
    8.9282    1.2500    0.0000 C   0  0  0  0  0  0  0  0  0  0  0  0
    4.5981   -5.2500    0.0000 C   0  0  0  0  0  0  0  0  0  0  0  0
    8.9282    5.2500    0.0000 C   0  0  0  0  0  0  0  0  0  0  0  0
    2.8660   -5.2500    0.0000 C   0  0  0  0  0  0  0  0  0  0  0  0
    9.7942    3.7500    0.0000 C   0  0  0  0  0  0  0  0  0  0  0  0
    4.5981   -6.2500    0.0000 C   0  0  0  0  0  0  0  0  0  0  0  0
    9.7942    5.7500    0.0000 C   0  0  0  0  0  0  0  0  0  0  0  0
    3.7320    2.2500    0.0000 C   0  0  0  0  0  0  0  0  0  0  0  0
    2.8660    0.7500    0.0000 C   0  0  0  0  0  0  0  0  0  0  0  0
    2.8660   -6.2500    0.0000 C   0  0  0  0  0  0  0  0  0  0  0  0
   10.6603    4.2500    0.0000 C   0  0  0  0  0  0  0  0  0  0  0  0
    3.7320   -6.7500    0.0000 C   0  0  0  0  0  0  0  0  0  0  0  0
   10.6603    5.2500    0.0000 C   0  0  0  0  0  0  0  0  0  0  0  0
    2.8660    2.7500    0.0000 C   0  0  0  0  0  0  0  0  0  0  0  0
    2.0000    1.2500    0.0000 C   0  0  0  0  0  0  0  0  0  0  0  0
    2.0000    2.2500    0.0000 C   0  0  0  0  0  0  0  0  0  0  0  0
    3.5200   -3.1674    0.0000 H   0  0  0  0  0  0  0  0  0  0  0  0
    3.1215   -3.8577    0.0000 H   0  0  0  0  0  0  0  0  0  0  0  0
    7.8501    4.3326    0.0000 H   0  0  0  0  0  0  0  0  0  0  0  0
    7.4516    3.6423    0.0000 H   0  0  0  0  0  0  0  0  0  0  0  0
    5.0656   -4.2250    0.0000 H   0  0  0  0  0  0  0  0  0  0  0  0
    5.8626   -4.2250    0.0000 H   0  0  0  0  0  0  0  0  0  0  0  0
    9.5388    2.1423    0.0000 H   0  0  0  0  0  0  0  0  0  0  0  0
    9.1403    2.8326    0.0000 H   0  0  0  0  0  0  0  0  0  0  0  0
    6.0010   -2.0600    0.0000 H   0  0  0  0  0  0  0  0  0  0  0  0
    3.1951   -2.0600    0.0000 H   0  0  0  0  0  0  0  0  0  0  0  0
    7.7331    0.9400    0.0000 H   0  0  0  0  0  0  0  0  0  0  0  0
    6.3301    3.3700    0.0000 H   0  0  0  0  0  0  0  0  0  0  0  0
    6.0010   -0.4400    0.0000 H   0  0  0  0  0  0  0  0  0  0  0  0
    3.1951   -0.4400    0.0000 H   0  0  0  0  0  0  0  0  0  0  0  0
    6.3301    0.1300    0.0000 H   0  0  0  0  0  0  0  0  0  0  0  0
    4.9272    2.5600    0.0000 H   0  0  0  0  0  0  0  0  0  0  0  0
    6.6401   -3.7869    0.0000 H   0  0  0  0  0  0  0  0  0  0  0  0
    6.8671   -2.9400    0.0000 H   0  0  0  0  0  0  0  0  0  0  0  0
    6.0201   -2.7131    0.0000 H   0  0  0  0  0  0  0  0  0  0  0  0
    8.3082    1.2500    0.0000 H   0  0  0  0  0  0  0  0  0  0  0  0
    8.9282    0.6300    0.0000 H   0  0  0  0  0  0  0  0  0  0  0  0
    9.5482    1.2500    0.0000 H   0  0  0  0  0  0  0  0  0  0  0  0
    5.1350   -4.9400    0.0000 H   0  0  0  0  0  0  0  0  0  0  0  0
    8.3913    5.5600    0.0000 H   0  0  0  0  0  0  0  0  0  0  0  0
    2.3291   -4.9400    0.0000 H   0  0  0  0  0  0  0  0  0  0  0  0
    9.7942    3.1300    0.0000 H   0  0  0  0  0  0  0  0  0  0  0  0
    4.2690    2.5600    0.0000 H   0  0  0  0  0  0  0  0  0  0  0  0
    2.8660    0.1300    0.0000 H   0  0  0  0  0  0  0  0  0  0  0  0
    2.3291   -6.5600    0.0000 H   0  0  0  0  0  0  0  0  0  0  0  0
   11.1972    3.9400    0.0000 H   0  0  0  0  0  0  0  0  0  0  0  0
    3.7320   -7.3700    0.0000 H   0  0  0  0  0  0  0  0  0  0  0  0
   11.1972    5.5600    0.0000 H   0  0  0  0  0  0  0  0  0  0  0  0
    2.8660    3.3700    0.0000 H   0  0  0  0  0  0  0  0  0  0  0  0
    1.4631    0.9400    0.0000 H   0  0  0  0  0  0  0  0  0  0  0  0
    1.4631    2.5600    0.0000 H   0  0  0  0  0  0  0  0  0  0  0  0
  1  5  1  0  0  0  0
  1  6  2  0  0  0  0
  1  7  2  0  0  0  0
  1 39  1  0  0  0  0
  2  8  1  0  0  0  0
  2  9  2  0  0  0  0
  2 10  2  0  0  0  0
  2 40  1  0  0  0  0
 11 13  1  0  0  0  0
 11 14  1  0  0  0  0
 11 20  1  0  0  0  0
 12 16  2  0  0  0  0
 12 17  1  0  0  0  0
 12 21  1  0  0  0  0
 13 22  1  0  0  0  0
 13 50  1  0  0  0  0
 13 51  1  0  0  0  0
 14 24  2  0  0  0  0
 14 25  1  0  0  0  0
 15 18  1  0  0  0  0
 15 19  2  0  0  0  0
 15 32  1  0  0  0  0
 16 26  1  0  0  0  0
 16 27  1  0  0  0  0
 17 23  1  0  0  0  0
 17 52  1  0  0  0  0
 17 53  1  0  0  0  0
 18 28  2  0  0  0  0
 18 29  1  0  0  0  0
 19 30  1  0  0  0  0
 19 31  1  0  0  0  0
 20 33  1  0  0  0  0
 20 54  1  0  0  0  0
 20 55  1  0  0  0  0
 21 34  1  0  0  0  0
 21 56  1  0  0  0  0
 21 57  1  0  0  0  0
 22 35  2  0  0  0  0
 22 37  1  0  0  0  0
 23 36  2  0  0  0  0
 23 38  1  0  0  0  0
 24 28  1  0  0  0  0
 24 58  1  0  0  0  0
 25 29  2  0  0  0  0
 25 59  1  0  0  0  0
 26 30  2  0  0  0  0
 26 61  1  0  0  0  0
 27 31  2  0  0  0  0
 27 60  1  0  0  0  0
 28 62  1  0  0  0  0
 29 63  1  0  0  0  0
 30 65  1  0  0  0  0
 31 64  1  0  0  0  0
 32 41  2  0  0  0  0
 32 42  1  0  0  0  0
 33 66  1  0  0  0  0
 33 67  1  0  0  0  0
 33 68  1  0  0  0  0
 34 69  1  0  0  0  0
 34 70  1  0  0  0  0
 34 71  1  0  0  0  0
 35 39  1  0  0  0  0
 35 72  1  0  0  0  0
 36 40  1  0  0  0  0
 36 73  1  0  0  0  0
 37 43  2  0  0  0  0
 37 74  1  0  0  0  0
 38 44  2  0  0  0  0
 38 75  1  0  0  0  0
 39 45  2  0  0  0  0
 40 46  2  0  0  0  0
 41 47  1  0  0  0  0
 41 76  1  0  0  0  0
 42 48  2  0  0  0  0
 42 77  1  0  0  0  0
 43 45  1  0  0  0  0
 43 78  1  0  0  0  0
 44 46  1  0  0  0  0
 44 79  1  0  0  0  0
 45 80  1  0  0  0  0
 46 81  1  0  0  0  0
 47 49  2  0  0  0  0
 47 82  1  0  0  0  0
 48 49  1  0  0  0  0
 48 83  1  0  0  0  0
 49 84  1  0  0  0  0
M  CHG  5   3   1   4   1   5  -1   8  -1  12   1
M  END
> <PUBCHEM_COMPOUND_CID>
53297430

> <PUBCHEM_COMPOUND_CANONICALIZED>
1

> <PUBCHEM_CACTVS_COMPLEXITY>
1250

> <PUBCHEM_CACTVS_HBOND_ACCEPTOR>
7

> <PUBCHEM_CACTVS_HBOND_DONOR>
0

> <PUBCHEM_CACTVS_ROTATABLE_BOND>
9

> <PUBCHEM_CACTVS_SUBSKEYS>
AAADcfB/ODBgAAAAAAAAAAAAAAAAAAAAAAAwYMGCAAAAAAABVAAAHAQAAAAADAjBWAQywYMAAAKgAyRiRHDCAEAhAgAIiBgYZJgIICLAkZGEIAhggADIyAcQgMAOCAAAgAAAAAAQAAEAAAAAAAAAAAAAAA==

> <PUBCHEM_IUPAC_OPENEYE_NAME>
disodium 3-[[N-ethyl-4-[[4-[ethyl-[(3-sulfonatophenyl)methyl]iminio]cyclohexa-2,5-dien-1-ylidene]-phenyl-methyl]anilino]methyl]benzenesulfonate

> <PUBCHEM_IUPAC_CAS_NAME>
disodium 3-[[N-ethyl-4-[[4-[ethyl-[(3-sulfonatophenyl)methyl]iminio]-1-cyclohexa-2,5-dienylidene]-phenylmethyl]anilino]methyl]benzenesulfonate

> <PUBCHEM_IUPAC_NAME>
disodium 3-[[N-ethyl-4-[[4-[ethyl-[(3-sulfonatophenyl)methyl]azaniumylidene]cyclohexa-2,5-dien-1-ylidene]-phenylmethyl]anilino]methyl]benzenesulfonate

> <PUBCHEM_IUPAC_SYSTEMATIC_NAME>
disodium 3-[[ethyl-[4-[[4-[ethyl-[(3-sulfonatophenyl)methyl]azaniumylidene]cyclohexa-2,5-dien-1-ylidene]-phenyl-methyl]phenyl]amino]methyl]benzenesulfonate

> <PUBCHEM_IUPAC_TRADITIONAL_NAME>
disodium 3-[[N-ethyl-4-[[4-[ethyl-(3-sulfonatobenzyl)iminio]cyclohexa-2,5-dien-1-ylidene]-phenyl-methyl]anilino]methyl]besylate

> <PUBCHEM_IUPAC_INCHI>
InChI=1S/C37H36N2O6S2.2Na/c1-3-38(26-28-10-8-14-35(24-28)46(40,41)42)33-20-16-31(17-21-33)37(30-12-6-5-7-13-30)32-18-22-34(23-19-32)39(4-2)27-29-11-9-15-36(25-29)47(43,44)45;;/h5-25H,3-4,26-27H2,1-2H3,(H-,40,41,42,43,44,45);;/q;2*+1/p-1

> <PUBCHEM_IUPAC_INCHIKEY>
SYLHZUASBDQZLR-UHFFFAOYSA-M

> <PUBCHEM_EXACT_MASS>
713.173192

> <PUBCHEM_MOLECULAR_FORMULA>
C37H35N2Na2O6S2+

> <PUBCHEM_MOLECULAR_WEIGHT>
713.793139

> <PUBCHEM_OPENEYE_CAN_SMILES>
CCN(CC1=CC(=CC=C1)S(=O)(=O)[O-])C2=CC=C(C=C2)C(=C3C=CC(=[N+](CC)CC4=CC(=CC=C4)S(=O)(=O)[O-])C=C3)C5=CC=CC=C5.[Na+].[Na+]

> <PUBCHEM_OPENEYE_ISO_SMILES>
CCN(CC1=CC(=CC=C1)S(=O)(=O)[O-])C2=CC=C(C=C2)C(=C3C=CC(=[N+](CC)CC4=CC(=CC=C4)S(=O)(=O)[O-])C=C3)C5=CC=CC=C5.[Na+].[Na+]

> <PUBCHEM_CACTVS_TPSA>
137

> <PUBCHEM_MONOISOTOPIC_WEIGHT>
713.173192

> <PUBCHEM_TOTAL_CHARGE>
1

> <PUBCHEM_HEAVY_ATOM_COUNT>
49

> <PUBCHEM_ATOM_DEF_STEREO_COUNT>
0

> <PUBCHEM_ATOM_UDEF_STEREO_COUNT>
0

> <PUBCHEM_BOND_DEF_STEREO_COUNT>
0

> <PUBCHEM_BOND_UDEF_STEREO_COUNT>
0

> <PUBCHEM_ISOTOPIC_ATOM_COUNT>
0

> <PUBCHEM_COMPONENT_COUNT>
3

> <PUBCHEM_CACTVS_TAUTO_COUNT>
1

> <PUBCHEM_COORDINATE_TYPE>
1
5
255

> <PUBCHEM_BONDANNOTATIONS>
14  24  8
14  25  8
18  28  8
18  29  8
22  35  8
22  37  8
23  36  8
23  38  8
24  28  8
25  29  8
32  41  8
32  42  8
35  39  8
36  40  8
37  43  8
38  44  8
39  45  8
40  46  8
41  47  8
42  48  8
43  45  8
44  46  8
47  49  8
48  49  8

$$$$

