10944128
  -OEChem-07051213093D

 32 32  0     0  0  0  0  0  0999 V2000
    7.1542    1.1789    0.2270 O   0  0  0  0  0  0  0  0  0  0  0  0
   -5.7820   -1.5215    0.1420 N   0  0  0  0  0  0  0  0  0  0  0  0
   -4.2468    0.3209    0.0622 C   0  0  0  0  0  0  0  0  0  0  0  0
   -2.8577    0.8012    0.1574 C   0  0  0  0  0  0  0  0  0  0  0  0
   -5.2744    1.2080   -0.1841 C   0  0  0  0  0  0  0  0  0  0  0  0
   -4.5308   -1.0152    0.2177 C   0  0  0  0  0  0  0  0  0  0  0  0
   -1.7680    0.0308    0.0113 C   0  0  0  0  0  0  0  0  0  0  0  0
   -6.5756    0.7249   -0.2688 C   0  0  0  0  0  0  0  0  0  0  0  0
   -0.4209    0.5527    0.1059 C   0  0  0  0  0  0  0  0  0  0  0  0
    0.6723   -0.2127   -0.0392 C   0  0  0  0  0  0  0  0  0  0  0  0
   -6.7744   -0.6359   -0.1000 C   0  0  0  0  0  0  0  0  0  0  0  0
    2.0167    0.3166    0.0559 C   0  0  0  0  0  0  0  0  0  0  0  0
    3.1722   -0.3556   -0.0720 C   0  0  0  0  0  0  0  0  0  0  0  0
    4.5168    0.1734    0.0230 C   0  0  0  0  0  0  0  0  0  0  0  0
    5.6035   -0.5976   -0.1231 C   0  0  0  0  0  0  0  0  0  0  0  0
    6.9690   -0.0108   -0.0182 C   0  0  0  0  0  0  0  0  0  0  0  0
    8.1260   -0.9583   -0.1969 C   0  0  0  0  0  0  0  0  0  0  0  0
   -2.7429    1.8664    0.3489 H   0  0  0  0  0  0  0  0  0  0  0  0
   -5.0914    2.2709   -0.3142 H   0  0  0  0  0  0  0  0  0  0  0  0
   -1.8478   -1.0302   -0.2060 H   0  0  0  0  0  0  0  0  0  0  0  0
   -3.7809   -1.7679    0.4335 H   0  0  0  0  0  0  0  0  0  0  0  0
   -7.4078    1.3924   -0.4614 H   0  0  0  0  0  0  0  0  0  0  0  0
   -0.3173    1.6172    0.3051 H   0  0  0  0  0  0  0  0  0  0  0  0
    0.5782   -1.2774   -0.2379 H   0  0  0  0  0  0  0  0  0  0  0  0
    2.0796    1.3866    0.2548 H   0  0  0  0  0  0  0  0  0  0  0  0
   -7.7703   -1.0628   -0.1570 H   0  0  0  0  0  0  0  0  0  0  0  0
    3.1092   -1.4256   -0.2709 H   0  0  0  0  0  0  0  0  0  0  0  0
    4.6076    1.2380    0.2194 H   0  0  0  0  0  0  0  0  0  0  0  0
    5.5285   -1.6621   -0.3189 H   0  0  0  0  0  0  0  0  0  0  0  0
    8.5121   -1.2468    0.7839 H   0  0  0  0  0  0  0  0  0  0  0  0
    8.9106   -0.4615   -0.7746 H   0  0  0  0  0  0  0  0  0  0  0  0
    7.8233   -1.8540   -0.7461 H   0  0  0  0  0  0  0  0  0  0  0  0
  1 16  2  0  0  0  0
  2  6  1  0  0  0  0
  2 11  2  0  0  0  0
  3  4  1  0  0  0  0
  3  5  1  0  0  0  0
  3  6  2  0  0  0  0
  4  7  2  0  0  0  0
  4 18  1  0  0  0  0
  5  8  2  0  0  0  0
  5 19  1  0  0  0  0
  6 21  1  0  0  0  0
  7  9  1  0  0  0  0
  7 20  1  0  0  0  0
  8 11  1  0  0  0  0
  8 22  1  0  0  0  0
  9 10  2  0  0  0  0
  9 23  1  0  0  0  0
 10 12  1  0  0  0  0
 10 24  1  0  0  0  0
 11 26  1  0  0  0  0
 12 13  2  0  0  0  0
 12 25  1  0  0  0  0
 13 14  1  0  0  0  0
 13 27  1  0  0  0  0
 14 15  2  0  0  0  0
 14 28  1  0  0  0  0
 15 16  1  0  0  0  0
 15 29  1  0  0  0  0
 16 17  1  0  0  0  0
 17 30  1  0  0  0  0
 17 31  1  0  0  0  0
 17 32  1  0  0  0  0
M  END
> <PUBCHEM_COMPOUND_CID>
10944128

> <PUBCHEM_CONFORMER_RMSD>
0.6

> <PUBCHEM_CONFORMER_DIVERSEORDER>
1
6
15
39
43
18
11
38
4
13
16
5
35
33
10
12
19
14
17
2
32
41
27
34
20
9
7
42
28
40
8
3
25
31
57
29
24
52
55
30
49
26
58
53
22
23
51
54
44
56
59
47
45
48
46
50
21
60
36
37

> <PUBCHEM_MMFF94_PARTIAL_CHARGES>
29
1 -0.57
10 -0.15
11 0.16
12 -0.15
13 -0.15
14 -0.15
15 -0.14
16 0.49
17 0.06
18 0.15
19 0.15
2 -0.62
20 0.15
21 0.15
22 0.15
23 0.15
24 0.15
25 0.15
26 0.15
27 0.15
28 0.15
29 0.15
3 0.03
4 -0.18
5 -0.15
6 0.16
7 -0.15
8 -0.15
9 -0.15

> <PUBCHEM_EFFECTIVE_ROTOR_COUNT>
5

> <PUBCHEM_PHARMACOPHORE_FEATURES>
3
1 1 acceptor
1 2 acceptor
6 2 3 5 6 8 11 rings

> <PUBCHEM_HEAVY_ATOM_COUNT>
17

> <PUBCHEM_ATOM_DEF_STEREO_COUNT>
0

> <PUBCHEM_ATOM_UDEF_STEREO_COUNT>
0

> <PUBCHEM_BOND_DEF_STEREO_COUNT>
4

> <PUBCHEM_BOND_UDEF_STEREO_COUNT>
0

> <PUBCHEM_ISOTOPIC_ATOM_COUNT>
0

> <PUBCHEM_COMPONENT_COUNT>
1

> <PUBCHEM_CACTVS_TAUTO_COUNT>
2

> <PUBCHEM_CONFORMER_ID>
00A6FE8000000001

> <PUBCHEM_MMFF94_ENERGY>
34.7712

> <PUBCHEM_FEATURE_SELFOVERLAP>
15.223

> <PUBCHEM_SHAPE_FINGERPRINT>
10066227 49 18187924058229682838
10299344 5 18201719565765653650
10968037 39 18413108364465840875
11315181 36 18333166164097855673
11524674 6 17022905635945525295
11719270 70 18260550048133905686
12091667 2 17632856439063317921
13288520 33 18411419501931717117
13533116 47 16773526559607354216
13885169 127 18411982498222761701
14123256 10 18410855468718102891
1420 363 17749104495657343839
14251732 16 18409167697374684712
14251764 18 17703793626072453202
14251764 46 5328740768929955252
14933364 13 18408323280966214384
15183329 4 15985386690035817640
15716309 27 18186239524140871470
15849732 13 18409448081503581780
17093844 174 18343865520337691401
17834076 25 15697998539405951272
18006028 8 17603587430245868641
19489759 90 18272088310228121785
21150785 3 17203890751698463346
21315763 28 18410012156960174984
22224240 67 17632579336495138202
22896161 15 18409729539057706074
23035841 295 18412545413890109387
23402539 116 18202003231333778573
23521765 1 18335139804190464636
23559900 14 18338522945819530577
246663 6 17240478127042897102
33532 11 18340488967532174130
33684 2 18412546526212649497
4073 2 17917143897751116362
42788 4 18411699889601323821
4325135 7 18202283610492630446
67123 10 18411699886318998556
8209 1 18410856568235005420

> <PUBCHEM_SHAPE_MULTIPOLES>
339
25.49
1.14
0.63
24.72
0.09
0.01
2.77
1.09
-0.89
-0.02
-0.04
0
0.4

> <PUBCHEM_SHAPE_SELFOVERLAP>
688.004

> <PUBCHEM_SHAPE_VOLUME>
195.7

> <PUBCHEM_COORDINATE_TYPE>
2
5
10

$$$$

