18600969
  -OEChem-07051213153D

 25 25  0     1  0  0  0  0  0999 V2000
   -2.8091    2.0719    0.0065 O   0  0  0  0  0  0  0  0  0  0  0  0
   -3.5800   -0.0928   -0.4370 O   0  0  0  0  0  0  0  0  0  0  0  0
   -1.1526   -1.6469   -1.4685 O   0  0  0  0  0  0  0  0  0  0  0  0
   -1.4747   -1.9736    0.7531 O   0  0  0  0  0  0  0  0  0  0  0  0
   -2.6669    0.6789    0.3837 N   0  0  0  0  0  0  0  0  0  0  0  0
   -0.2677    0.8345    0.8683 C   0  0  0  0  0  0  0  0  0  0  0  0
   -1.3390    0.3047   -0.0976 C   0  0  1  0  0  0  0  0  0  0  0  0
    1.1380    0.4901    0.4326 C   0  0  0  0  0  0  0  0  0  0  0  0
    1.7293   -0.6985    0.8605 C   0  0  0  0  0  0  0  0  0  0  0  0
    1.8441    1.3610   -0.3971 C   0  0  0  0  0  0  0  0  0  0  0  0
   -1.3227   -1.2113   -0.1931 C   0  0  0  0  0  0  0  0  0  0  0  0
    3.0269   -1.0162    0.4587 C   0  0  0  0  0  0  0  0  0  0  0  0
    3.1415    1.0434   -0.7990 C   0  0  0  0  0  0  0  0  0  0  0  0
    3.7329   -0.1453   -0.3710 C   0  0  0  0  0  0  0  0  0  0  0  0
   -0.4297    0.4338    1.8788 H   0  0  0  0  0  0  0  0  0  0  0  0
   -0.3459    1.9253    0.9698 H   0  0  0  0  0  0  0  0  0  0  0  0
   -1.1604    0.7086   -1.1047 H   0  0  0  0  0  0  0  0  0  0  0  0
    1.1957   -1.3836    1.5133 H   0  0  0  0  0  0  0  0  0  0  0  0
    1.3931    2.2889   -0.7388 H   0  0  0  0  0  0  0  0  0  0  0  0
    3.4880   -1.9409    0.7933 H   0  0  0  0  0  0  0  0  0  0  0  0
    3.6911    1.7212   -1.4455 H   0  0  0  0  0  0  0  0  0  0  0  0
    4.7432   -0.3925   -0.6837 H   0  0  0  0  0  0  0  0  0  0  0  0
   -3.0917    2.4403    0.8605 H   0  0  0  0  0  0  0  0  0  0  0  0
   -4.1487   -0.4616    0.2600 H   0  0  0  0  0  0  0  0  0  0  0  0
   -1.1568   -2.6263   -1.5235 H   0  0  0  0  0  0  0  0  0  0  0  0
  1  5  1  0  0  0  0
  1 23  1  0  0  0  0
  2  5  1  0  0  0  0
  2 24  1  0  0  0  0
  3 11  1  0  0  0  0
  3 25  1  0  0  0  0
  4 11  2  0  0  0  0
  5  7  1  0  0  0  0
  6  7  1  0  0  0  0
  6  8  1  0  0  0  0
  6 15  1  0  0  0  0
  6 16  1  0  0  0  0
  7 11  1  0  0  0  0
  7 17  1  0  0  0  0
  8  9  2  0  0  0  0
  8 10  1  0  0  0  0
  9 12  1  0  0  0  0
  9 18  1  0  0  0  0
 10 13  2  0  0  0  0
 10 19  1  0  0  0  0
 12 14  2  0  0  0  0
 12 20  1  0  0  0  0
 13 14  1  0  0  0  0
 13 21  1  0  0  0  0
 14 22  1  0  0  0  0
M  END
> <PUBCHEM_COMPOUND_CID>
18600969

> <PUBCHEM_CONFORMER_RMSD>
0.6

> <PUBCHEM_CONFORMER_DIVERSEORDER>
2
26
28
11
9
20
14
27
13
23
21
19
22
24
4
17
6
3
5
25
29
18
15
10
12
7
1
16
8

> <PUBCHEM_MMFF94_PARTIAL_CHARGES>
22
1 -0.3
10 -0.15
11 0.66
12 -0.15
13 -0.15
14 -0.15
18 0.15
19 0.15
2 -0.3
20 0.15
21 0.15
22 0.15
23 0.4
24 0.4
25 0.5
3 -0.65
4 -0.57
5 -0.47
6 0.14
7 0.33
8 -0.14
9 -0.15

> <PUBCHEM_EFFECTIVE_ROTOR_COUNT>
4

> <PUBCHEM_PHARMACOPHORE_FEATURES>
8
1 1 acceptor
1 1 anion
1 2 acceptor
1 2 anion
1 3 acceptor
1 4 acceptor
3 3 4 11 anion
6 8 9 10 12 13 14 rings

> <PUBCHEM_HEAVY_ATOM_COUNT>
14

> <PUBCHEM_ATOM_DEF_STEREO_COUNT>
1

> <PUBCHEM_ATOM_UDEF_STEREO_COUNT>
0

> <PUBCHEM_BOND_DEF_STEREO_COUNT>
0

> <PUBCHEM_BOND_UDEF_STEREO_COUNT>
0

> <PUBCHEM_ISOTOPIC_ATOM_COUNT>
0

> <PUBCHEM_COMPONENT_COUNT>
1

> <PUBCHEM_CACTVS_TAUTO_COUNT>
1

> <PUBCHEM_CONFORMER_ID>
011BD40900000002

> <PUBCHEM_MMFF94_ENERGY>
26.2567

> <PUBCHEM_FEATURE_SELFOVERLAP>
40.746

> <PUBCHEM_SHAPE_FINGERPRINT>
11031198 65 17346587595718267824
12932764 1 18042117661844008704
13538477 17 18271813388706860171
14144814 61 18412544331568984816
14993402 34 18412826918926420325
15207287 21 16370731477828949564
15279307 12 18272370858503811322
15775835 57 18273207591263222820
16945 1 18413107272868999184
18186145 218 17346313838650160120
18511873 20 18338239378818920730
18619055 16 18409448102762250312
19422 9 18272086119108888250
20279233 1 17094961035518453374
20523700 14 18411980230801601038
20645476 183 18341608226533048558
21524375 3 18264773332219558625
23402539 116 17968384540644679877
23402655 69 18273216425705294508
23463225 33 18339082721428012490
23552423 10 18198343961788543720
23559900 14 17894351108065198506
25 1 17703785959677019200
2748010 2 16393522863555913512
3248919 1 18129955468222770498
528886 8 18130790040587615808
74978 22 18411419479734363088
7832392 63 18342173367209973692
8030462 33 18339651018583925846
90525 40 18336261327182780414
93112 12 18342172241785863956
9939556 21 18342174453788849956

> <PUBCHEM_SHAPE_MULTIPOLES>
259.66
5.83
1.78
0.98
0.44
0.1
0.11
-0.7
0.83
-0.75
0.07
0.06
0.21
-0.58

> <PUBCHEM_SHAPE_SELFOVERLAP>
531.299

> <PUBCHEM_SHAPE_VOLUME>
149.4

> <PUBCHEM_COORDINATE_TYPE>
2
5
10

$$$$

