17395977
  -OEChem-06241222533D

 47 50  0     0  0  0  0  0  0999 V2000
    4.1643    0.5223    0.9324 S   0  0  0  0  0  0  0  0  0  0  0  0
    5.4110    1.2723    1.0143 O   0  0  0  0  0  0  0  0  0  0  0  0
    3.4937    0.1092    2.1580 O   0  0  0  0  0  0  0  0  0  0  0  0
   -0.7320    0.1244    1.2451 O   0  0  0  0  0  0  0  0  0  0  0  0
    4.4131   -0.8588   -0.0496 N   0  0  0  0  0  0  0  0  0  0  0  0
    2.4870   -2.0823    0.6415 N   0  0  0  0  0  0  0  0  0  0  0  0
   -0.6523    1.7621   -0.4332 N   0  0  0  0  0  0  0  0  0  0  0  0
    3.9345   -3.1373   -0.9396 C   0  0  0  0  0  0  0  0  0  0  0  0
    2.5861   -3.8140   -1.0048 C   0  0  0  0  0  0  0  0  0  0  0  0
    3.5668   -1.9837   -0.0691 C   0  0  0  0  0  0  0  0  0  0  0  0
    1.9493   -3.4215    0.3189 C   0  0  0  0  0  0  0  0  0  0  0  0
    3.0211    1.4330   -0.0225 C   0  0  0  0  0  0  0  0  0  0  0  0
    1.6515    1.2358    0.1531 C   0  0  0  0  0  0  0  0  0  0  0  0
    0.7387    1.9631   -0.6106 C   0  0  0  0  0  0  0  0  0  0  0  0
   -3.4909   -0.2701    0.0681 C   0  0  0  0  0  0  0  0  0  0  0  0
    3.4778    2.3577   -0.9618 C   0  0  0  0  0  0  0  0  0  0  0  0
   -2.7550    0.8837    0.3835 C   0  0  0  0  0  0  0  0  0  0  0  0
   -4.9037   -0.1987    0.0226 C   0  0  0  0  0  0  0  0  0  0  0  0
    1.1954    2.8879   -1.5496 C   0  0  0  0  0  0  0  0  0  0  0  0
   -1.2964    0.8882    0.4497 C   0  0  0  0  0  0  0  0  0  0  0  0
    2.5650    3.0852   -1.7253 C   0  0  0  0  0  0  0  0  0  0  0  0
   -3.4024    2.0905    0.6501 C   0  0  0  0  0  0  0  0  0  0  0  0
   -2.8560   -1.4931   -0.2031 C   0  0  0  0  0  0  0  0  0  0  0  0
   -5.5388    1.0241    0.2940 C   0  0  0  0  0  0  0  0  0  0  0  0
   -5.6399   -1.3523   -0.2928 C   0  0  0  0  0  0  0  0  0  0  0  0
   -4.7917    2.1606    0.6057 C   0  0  0  0  0  0  0  0  0  0  0  0
   -3.6033   -2.6293   -0.5149 C   0  0  0  0  0  0  0  0  0  0  0  0
   -4.9926   -2.5591   -0.5598 C   0  0  0  0  0  0  0  0  0  0  0  0
    4.6843   -3.7498   -0.4301 H   0  0  0  0  0  0  0  0  0  0  0  0
    4.3066   -2.8216   -1.9165 H   0  0  0  0  0  0  0  0  0  0  0  0
    2.0004   -3.4026   -1.8362 H   0  0  0  0  0  0  0  0  0  0  0  0
    2.6533   -4.8969   -1.1403 H   0  0  0  0  0  0  0  0  0  0  0  0
    0.8586   -3.3852    0.2363 H   0  0  0  0  0  0  0  0  0  0  0  0
    2.2163   -4.1221    1.1181 H   0  0  0  0  0  0  0  0  0  0  0  0
    5.2700   -0.8769   -0.6173 H   0  0  0  0  0  0  0  0  0  0  0  0
    1.3485    0.5096    0.8911 H   0  0  0  0  0  0  0  0  0  0  0  0
    4.5400    2.5222   -1.1194 H   0  0  0  0  0  0  0  0  0  0  0  0
   -1.2434    2.3263   -1.0405 H   0  0  0  0  0  0  0  0  0  0  0  0
    0.4948    3.4609   -2.1515 H   0  0  0  0  0  0  0  0  0  0  0  0
    2.9205    3.8041   -2.4578 H   0  0  0  0  0  0  0  0  0  0  0  0
   -2.8397    2.9862    0.9020 H   0  0  0  0  0  0  0  0  0  0  0  0
   -1.7748   -1.5991   -0.1981 H   0  0  0  0  0  0  0  0  0  0  0  0
   -6.6236    1.1020    0.2652 H   0  0  0  0  0  0  0  0  0  0  0  0
   -6.7268   -1.3206   -0.3337 H   0  0  0  0  0  0  0  0  0  0  0  0
   -5.2956    3.0998    0.8152 H   0  0  0  0  0  0  0  0  0  0  0  0
   -3.1002   -3.5683   -0.7266 H   0  0  0  0  0  0  0  0  0  0  0  0
   -5.5736   -3.4437   -0.8035 H   0  0  0  0  0  0  0  0  0  0  0  0
  1  2  2  0  0  0  0
  1  3  2  0  0  0  0
  1  5  1  0  0  0  0
  1 12  1  0  0  0  0
  4 20  2  0  0  0  0
  5 10  1  0  0  0  0
  5 35  1  0  0  0  0
  6 10  2  0  0  0  0
  6 11  1  0  0  0  0
  7 14  1  0  0  0  0
  7 20  1  0  0  0  0
  7 38  1  0  0  0  0
  8  9  1  0  0  0  0
  8 10  1  0  0  0  0
  8 29  1  0  0  0  0
  8 30  1  0  0  0  0
  9 11  1  0  0  0  0
  9 31  1  0  0  0  0
  9 32  1  0  0  0  0
 11 33  1  0  0  0  0
 11 34  1  0  0  0  0
 12 13  1  0  0  0  0
 12 16  2  0  0  0  0
 13 14  2  0  0  0  0
 13 36  1  0  0  0  0
 14 19  1  0  0  0  0
 15 17  1  0  0  0  0
 15 18  1  0  0  0  0
 15 23  2  0  0  0  0
 16 21  1  0  0  0  0
 16 37  1  0  0  0  0
 17 20  1  0  0  0  0
 17 22  2  0  0  0  0
 18 24  1  0  0  0  0
 18 25  2  0  0  0  0
 19 21  2  0  0  0  0
 19 39  1  0  0  0  0
 21 40  1  0  0  0  0
 22 26  1  0  0  0  0
 22 41  1  0  0  0  0
 23 27  1  0  0  0  0
 23 42  1  0  0  0  0
 24 26  2  0  0  0  0
 24 43  1  0  0  0  0
 25 28  1  0  0  0  0
 25 44  1  0  0  0  0
 26 45  1  0  0  0  0
 27 28  2  0  0  0  0
 27 46  1  0  0  0  0
 28 47  1  0  0  0  0
M  END
> <PUBCHEM_COMPOUND_CID>
17395977

> <PUBCHEM_CONFORMER_RMSD>
0.8

> <PUBCHEM_CONFORMER_DIVERSEORDER>
1
33
141
154
90
73
126
4
48
123
52
152
57
86
55
6
163
46
111
140
162
45
58
134
2
121
160
103
143
75
166
146
9
62
107
161
64
124
35
14
151
139
47
170
157
136
7
22
32
144
54
112
28
127
109
130
21
65
8
159
85
113
105
119
42
168
23
51
167
50
79
66
13
82
36
138
71
29
94
87
20
92
26
53
84
12
70
115
164
128
30
31
59
74
88
10
156
44
5
117
147
76
101
3
63
67
135
38
118
122
155
34
150
129
99
116
56
148
24
133
171
19
102
69
110
169
96
91
11
137
165
80
153
37
131
100
108
25
68
142
95
72
114
158
81
125
106
132
83
15
39
60
120
16
172
93
40
18
104
43
149
89
41
78
145
27
17
97
77
98
49
61

> <PUBCHEM_MMFF94_PARTIAL_CHARGES>
38
1 1.45
10 0.63
11 0.25
12 -0.01
13 -0.15
14 0.12
16 -0.15
17 0.09
19 -0.15
2 -0.65
20 0.54
21 -0.15
22 -0.15
23 -0.15
24 -0.15
25 -0.15
26 -0.15
27 -0.15
28 -0.15
3 -0.65
35 0.42
36 0.15
37 0.15
38 0.37
39 0.15
4 -0.57
40 0.15
41 0.15
42 0.15
43 0.15
44 0.15
45 0.15
46 0.15
47 0.15
5 -0.79
6 -0.7
7 -0.55
8 0.06

> <PUBCHEM_EFFECTIVE_ROTOR_COUNT>
6.6

> <PUBCHEM_PHARMACOPHORE_FEATURES>
10
1 2 acceptor
1 3 acceptor
1 4 acceptor
1 5 donor
1 6 acceptor
1 7 donor
5 6 8 9 10 11 rings
6 12 13 14 16 19 21 rings
6 15 17 18 22 24 26 rings
6 15 18 23 25 27 28 rings

> <PUBCHEM_HEAVY_ATOM_COUNT>
28

> <PUBCHEM_ATOM_DEF_STEREO_COUNT>
0

> <PUBCHEM_ATOM_UDEF_STEREO_COUNT>
0

> <PUBCHEM_BOND_DEF_STEREO_COUNT>
0

> <PUBCHEM_BOND_UDEF_STEREO_COUNT>
0

> <PUBCHEM_ISOTOPIC_ATOM_COUNT>
0

> <PUBCHEM_COMPONENT_COUNT>
1

> <PUBCHEM_CACTVS_TAUTO_COUNT>
6

> <PUBCHEM_CONFORMER_ID>
0109710900000001

> <PUBCHEM_MMFF94_ENERGY>
69.3211

> <PUBCHEM_FEATURE_SELFOVERLAP>
50.791

> <PUBCHEM_SHAPE_FINGERPRINT>
10906281 52 17988628684943901824
11315621 136 18341605976012357686
11513181 2 17967532367688986222
11756154 67 17976248359650185950
12107183 9 18121490521690894641
12422481 6 18192456223573360194
12467345 10 18408324389014957711
13150687 139 17984402063905810028
13533116 47 18041002898718929457
13583140 156 17604161354009724729
1361 2 18413105048329452674
14020679 6 17771599503715327267
14681488 357 18115576201263421038
14863182 85 18336264557678584406
15250474 111 18337674097020056759
15361156 5 18058996384753247629
15448158 6 17904760325620529142
17492 89 18411131412315610603
17818456 19 18116706524960204545
17857418 61 18340493270466574737
1813 80 17560796679744902597
18681886 176 18267026055652004248
1979834 28 18409731776994292928
20028762 73 18336265627083464374
20645477 70 18131350761099952676
21304303 282 15757368551677304900
21315764 371 17968657099643317632
21673915 165 18408609140882897282
21859007 373 17843128266999687637
23559900 14 18261958543407272019
25222932 49 17023763198937456637
3004659 81 18271529706138149137
338550 245 18410293575464078998
3633792 109 18339937025758988669
404807 14 17106486378436712711
4280585 95 18197782304879410522
460360 51 18263623191680496715
46194498 28 17917714561027763093
463206 1 18191308165445063495
5326457 24 18408321103507277737
6443956 14 18410853295976691888
6823239 73 17968646250572258974
9709674 26 18343013381097728243

> <PUBCHEM_SHAPE_MULTIPOLES>
547.53
13
4.66
1.25
8.92
2.87
0.04
2.64
1.09
-3.25
-1.91
-1.29
-0.51
-1.2

> <PUBCHEM_SHAPE_SELFOVERLAP>
1189.103

> <PUBCHEM_SHAPE_VOLUME>
299.1

> <PUBCHEM_COORDINATE_TYPE>
2
5
10

$$$$

