9239
  -OEChem-06261203312D

 20 22  0     0  0  0  0  0  0999 V2000
    2.9819    0.3420    0.0000 O   0  0  0  0  0  0  0  0  0  0  0  0
    3.8876   -1.1801    0.0000 O   0  0  0  0  0  0  0  0  0  0  0  0
    2.0000   -0.7510    0.0000 O   0  0  0  0  0  0  0  0  0  0  0  0
    3.6730    1.1801    0.0000 C   0  0  0  0  0  0  0  0  0  0  0  0
    4.5092   -0.2682    0.0000 C   0  0  0  0  0  0  0  0  0  0  0  0
    2.8368   -0.2682    0.0000 C   0  0  0  0  0  0  0  0  0  0  0  0
    4.5092    0.6973    0.0000 C   0  0  0  0  0  0  0  0  0  0  0  0
    3.6730   -0.5710    0.0000 C   0  0  0  0  0  0  0  0  0  0  0  0
    2.8368    0.6973    0.0000 C   0  0  0  0  0  0  0  0  0  0  0  0
    2.9819   -0.7033    0.0000 C   0  0  0  0  0  0  0  0  0  0  0  0
    3.6730    1.8001    0.0000 H   0  0  0  0  0  0  0  0  0  0  0  0
    5.1016   -0.4509    0.0000 H   0  0  0  0  0  0  0  0  0  0  0  0
    2.8912   -0.8858    0.0000 H   0  0  0  0  0  0  0  0  0  0  0  0
    5.1198    0.5897    0.0000 H   0  0  0  0  0  0  0  0  0  0  0  0
    4.7212    1.2799    0.0000 H   0  0  0  0  0  0  0  0  0  0  0  0
    3.3030   -1.0685    0.0000 H   0  0  0  0  0  0  0  0  0  0  0  0
    4.0430   -1.0685    0.0000 H   0  0  0  0  0  0  0  0  0  0  0  0
    2.6247    1.2799    0.0000 H   0  0  0  0  0  0  0  0  0  0  0  0
    2.2262    0.5897    0.0000 H   0  0  0  0  0  0  0  0  0  0  0  0
    2.8478   -1.3086    0.0000 H   0  0  0  0  0  0  0  0  0  0  0  0
  1  4  1  0  0  0  0
  1 10  1  0  0  0  0
  2  5  1  0  0  0  0
  2 10  1  0  0  0  0
  3  6  1  0  0  0  0
  3 10  1  0  0  0  0
  4  7  1  0  0  0  0
  4  9  1  0  0  0  0
  4 11  1  0  0  0  0
  5  7  1  0  0  0  0
  5  8  1  0  0  0  0
  5 12  1  0  0  0  0
  6  8  1  0  0  0  0
  6  9  1  0  0  0  0
  6 13  1  0  0  0  0
  7 14  1  0  0  0  0
  7 15  1  0  0  0  0
  8 16  1  0  0  0  0
  8 17  1  0  0  0  0
  9 18  1  0  0  0  0
  9 19  1  0  0  0  0
 10 20  1  0  0  0  0
M  END
> <PUBCHEM_COMPOUND_CID>
9239

> <PUBCHEM_COMPOUND_CANONICALIZED>
1

> <PUBCHEM_CACTVS_COMPLEXITY>
118

> <PUBCHEM_CACTVS_HBOND_ACCEPTOR>
3

> <PUBCHEM_CACTVS_HBOND_DONOR>
0

> <PUBCHEM_CACTVS_ROTATABLE_BOND>
0

> <PUBCHEM_CACTVS_SUBSKEYS>
AAADccBgMAAAAAAAAAAAAAAAAAAAAAAAAAA0SJEAAAAAAAAAAAAAGgAAAAAACBSggAMACAAABAAAAAAAAAAAAAAAAAAAAAAAAAAQAAIAAAAgAAAFAAAEAAGAYAwAAAAAAAAAAAAAAAAQAAAAAAAAAAAAAA==

> <PUBCHEM_IUPAC_INCHI>
InChI=1S/C7H10O3/c1-4-2-6-3-5(1)9-7(8-4)10-6/h4-7H,1-3H2

> <PUBCHEM_IUPAC_INCHIKEY>
VUIDKQHXAUDXKD-UHFFFAOYSA-N

> <PUBCHEM_XLOGP3_AA>
0.6

> <PUBCHEM_EXACT_MASS>
142.062994

> <PUBCHEM_MOLECULAR_FORMULA>
C7H10O3

> <PUBCHEM_MOLECULAR_WEIGHT>
142.1525

> <PUBCHEM_OPENEYE_CAN_SMILES>
C1C2CC3CC1OC(O2)O3

> <PUBCHEM_OPENEYE_ISO_SMILES>
C1C2CC3CC1OC(O2)O3

> <PUBCHEM_CACTVS_TPSA>
27.7

> <PUBCHEM_MONOISOTOPIC_WEIGHT>
142.062994

> <PUBCHEM_TOTAL_CHARGE>
0

> <PUBCHEM_HEAVY_ATOM_COUNT>
10

> <PUBCHEM_ATOM_DEF_STEREO_COUNT>
0

> <PUBCHEM_ATOM_UDEF_STEREO_COUNT>
0

> <PUBCHEM_BOND_DEF_STEREO_COUNT>
0

> <PUBCHEM_BOND_UDEF_STEREO_COUNT>
0

> <PUBCHEM_ISOTOPIC_ATOM_COUNT>
0

> <PUBCHEM_COMPONENT_COUNT>
1

> <PUBCHEM_CACTVS_TAUTO_COUNT>
1

> <PUBCHEM_COORDINATE_TYPE>
1
5
255

$$$$

