119444
  -OEChem-07051212562D

 81 85  0     1  0  0  0  0  0999 V2000
    7.9174   -2.5935    0.0000 O   0  0  0  0  0  0  0  0  0  0  0  0
   10.1248    0.3511    0.0000 O   0  0  0  0  0  0  0  0  0  0  0  0
    8.8172    2.3566    0.0000 O   0  0  0  0  0  0  0  0  0  0  0  0
    2.5405   -1.5542    0.0000 O   0  0  0  0  0  0  0  0  0  0  0  0
    6.1733   -4.6628    0.0000 O   0  0  0  0  0  0  0  0  0  0  0  0
    2.5244   -3.6458    0.0000 O   0  0  0  0  0  0  0  0  0  0  0  0
   10.7770    4.3870    0.0000 O   0  0  0  0  0  0  0  0  0  0  0  0
   12.5375    4.6628    0.0000 O   0  0  0  0  0  0  0  0  0  0  0  0
    7.9174   -0.5935    0.0000 C   0  0  1  0  0  0  0  0  0  0  0  0
    7.9174   -1.5935    0.0000 C   0  0  1  0  0  0  0  0  0  0  0  0
    8.8637   -0.2888    0.0000 C   0  0  2  0  0  0  0  0  0  0  0  0
    6.1854   -1.5935    0.0000 C   0  0  2  0  0  0  0  0  0  0  0  0
    5.2754   -2.1004    0.0000 C   0  0  2  0  0  0  0  0  0  0  0  0
    7.0514   -0.0935    0.0000 C   0  0  0  0  0  0  0  0  0  0  0  0
    7.0514   -2.0935    0.0000 C   0  0  0  0  0  0  0  0  0  0  0  0
    8.8637   -1.8982    0.0000 C   0  0  0  0  0  0  0  0  0  0  0  0
    9.4473   -1.0935    0.0000 C   0  0  0  0  0  0  0  0  0  0  0  0
    6.1854   -0.5935    0.0000 C   0  0  0  0  0  0  0  0  0  0  0  0
    9.1743    0.6617    0.0000 C   0  0  2  0  0  0  0  0  0  0  0  0
    5.2674   -3.1420    0.0000 C   0  0  1  0  0  0  0  0  0  0  0  0
    7.9174    0.4065    0.0000 C   0  0  0  0  0  0  0  0  0  0  0  0
    4.3486   -1.5363    0.0000 C   0  0  0  0  0  0  0  0  0  0  0  0
    7.0675   -3.1350    0.0000 C   0  0  0  0  0  0  0  0  0  0  0  0
    4.3319   -3.6917    0.0000 C   0  0  0  0  0  0  0  0  0  0  0  0
    5.2831   -1.1004    0.0000 C   0  0  0  0  0  0  0  0  0  0  0  0
    6.1694   -3.6628    0.0000 C   0  0  0  0  0  0  0  0  0  0  0  0
    9.4850    1.6123    0.0000 C   0  0  1  0  0  0  0  0  0  0  0  0
    3.4007   -2.0642    0.0000 C   0  0  1  0  0  0  0  0  0  0  0  0
    3.3923   -3.1492    0.0000 C   0  0  2  0  0  0  0  0  0  0  0  0
    8.2238    0.9724    0.0000 C   0  0  0  0  0  0  0  0  0  0  0  0
   10.4635    1.8185    0.0000 C   0  0  0  0  0  0  0  0  0  0  0  0
   10.7742    2.7690    0.0000 C   0  0  1  0  0  0  0  0  0  0  0  0
   11.7257    3.0764    0.0000 C   0  0  1  0  0  0  0  0  0  0  0  0
   10.1878    3.5790    0.0000 C   0  0  1  0  0  0  0  0  0  0  0  0
   11.7275    4.0764    0.0000 C   0  0  0  0  0  0  0  0  0  0  0  0
   12.5337    2.4872    0.0000 C   0  0  0  0  0  0  0  0  0  0  0  0
    9.1878    3.5808    0.0000 C   0  0  0  0  0  0  0  0  0  0  0  0
    9.7034   -0.1569    0.0000 H   0  0  0  0  0  0  0  0  0  0  0  0
    6.9215   -1.1685    0.0000 H   0  0  0  0  0  0  0  0  0  0  0  0
    7.4500    0.3814    0.0000 H   0  0  0  0  0  0  0  0  0  0  0  0
    6.6529    0.3814    0.0000 H   0  0  0  0  0  0  0  0  0  0  0  0
    8.6126   -2.4651    0.0000 H   0  0  0  0  0  0  0  0  0  0  0  0
    9.4010   -2.2075    0.0000 H   0  0  0  0  0  0  0  0  0  0  0  0
    9.9081   -1.5082    0.0000 H   0  0  0  0  0  0  0  0  0  0  0  0
    9.9081   -0.6788    0.0000 H   0  0  0  0  0  0  0  0  0  0  0  0
    5.9733   -0.0109    0.0000 H   0  0  0  0  0  0  0  0  0  0  0  0
    5.5748   -0.7012    0.0000 H   0  0  0  0  0  0  0  0  0  0  0  0
    5.2706   -3.9920    0.0000 H   0  0  0  0  0  0  0  0  0  0  0  0
    8.5374    0.4065    0.0000 H   0  0  0  0  0  0  0  0  0  0  0  0
    7.9174    1.0265    0.0000 H   0  0  0  0  0  0  0  0  0  0  0  0
    7.2974    0.4065    0.0000 H   0  0  0  0  0  0  0  0  0  0  0  0
    4.7568   -1.0696    0.0000 H   0  0  0  0  0  0  0  0  0  0  0  0
    3.9586   -1.0542    0.0000 H   0  0  0  0  0  0  0  0  0  0  0  0
    7.6080   -3.4388    0.0000 H   0  0  0  0  0  0  0  0  0  0  0  0
    3.9346   -4.1676    0.0000 H   0  0  0  0  0  0  0  0  0  0  0  0
    4.7329   -4.1646    0.0000 H   0  0  0  0  0  0  0  0  0  0  0  0
    5.9031   -1.1052    0.0000 H   0  0  0  0  0  0  0  0  0  0  0  0
    5.2879   -0.4804    0.0000 H   0  0  0  0  0  0  0  0  0  0  0  0
    4.6631   -1.0956    0.0000 H   0  0  0  0  0  0  0  0  0  0  0  0
    8.8783    1.4844    0.0000 H   0  0  0  0  0  0  0  0  0  0  0  0
    2.8608   -2.3690    0.0000 H   0  0  0  0  0  0  0  0  0  0  0  0
    8.4544   -2.9035    0.0000 H   0  0  0  0  0  0  0  0  0  0  0  0
    3.3911   -3.7692    0.0000 H   0  0  0  0  0  0  0  0  0  0  0  0
    8.4164    1.5617    0.0000 H   0  0  0  0  0  0  0  0  0  0  0  0
    7.6345    1.1650    0.0000 H   0  0  0  0  0  0  0  0  0  0  0  0
    8.0312    0.3831    0.0000 H   0  0  0  0  0  0  0  0  0  0  0  0
   10.4841    1.1988    0.0000 H   0  0  0  0  0  0  0  0  0  0  0  0
   11.0773    1.7311    0.0000 H   0  0  0  0  0  0  0  0  0  0  0  0
   10.5863    0.7651    0.0000 H   0  0  0  0  0  0  0  0  0  0  0  0
   10.1616    2.6731    0.0000 H   0  0  0  0  0  0  0  0  0  0  0  0
    9.0098    2.9459    0.0000 H   0  0  0  0  0  0  0  0  0  0  0  0
    2.0000   -1.8580    0.0000 H   0  0  0  0  0  0  0  0  0  0  0  0
    2.5220   -4.2658    0.0000 H   0  0  0  0  0  0  0  0  0  0  0  0
   12.2787    3.3569    0.0000 H   0  0  0  0  0  0  0  0  0  0  0  0
    9.9073    4.1320    0.0000 H   0  0  0  0  0  0  0  0  0  0  0  0
   12.1685    1.9862    0.0000 H   0  0  0  0  0  0  0  0  0  0  0  0
   13.0347    2.1219    0.0000 H   0  0  0  0  0  0  0  0  0  0  0  0
   12.8990    2.9882    0.0000 H   0  0  0  0  0  0  0  0  0  0  0  0
    9.1888    4.2008    0.0000 H   0  0  0  0  0  0  0  0  0  0  0  0
    8.5678    3.5818    0.0000 H   0  0  0  0  0  0  0  0  0  0  0  0
    9.1867    2.9608    0.0000 H   0  0  0  0  0  0  0  0  0  0  0  0
 10  1  1  6  0  0  0
  1 62  1  0  0  0  0
 19  2  1  1  0  0  0
  2 69  1  0  0  0  0
 27  3  1  6  0  0  0
  3 71  1  0  0  0  0
 28  4  1  1  0  0  0
  4 72  1  0  0  0  0
  5 26  2  0  0  0  0
 29  6  1  1  0  0  0
  6 73  1  0  0  0  0
  7 34  1  0  0  0  0
  7 35  1  0  0  0  0
  8 35  2  0  0  0  0
  9 10  1  0  0  0  0
  9 11  1  0  0  0  0
  9 14  1  0  0  0  0
  9 21  1  1  0  0  0
 10 15  1  0  0  0  0
 10 16  1  0  0  0  0
 11 17  1  0  0  0  0
 11 19  1  0  0  0  0
 11 38  1  6  0  0  0
 12 13  1  0  0  0  0
 12 15  1  0  0  0  0
 12 18  1  0  0  0  0
 12 39  1  6  0  0  0
 13 20  1  0  0  0  0
 13 22  1  0  0  0  0
 13 25  1  1  0  0  0
 14 18  1  0  0  0  0
 14 40  1  0  0  0  0
 14 41  1  0  0  0  0
 15 23  2  0  0  0  0
 16 17  1  0  0  0  0
 16 42  1  0  0  0  0
 16 43  1  0  0  0  0
 17 44  1  0  0  0  0
 17 45  1  0  0  0  0
 18 46  1  0  0  0  0
 18 47  1  0  0  0  0
 19 27  1  0  0  0  0
 19 30  1  0  0  0  0
 20 24  1  0  0  0  0
 20 26  1  0  0  0  0
 20 48  1  1  0  0  0
 21 49  1  0  0  0  0
 21 50  1  0  0  0  0
 21 51  1  0  0  0  0
 22 28  1  0  0  0  0
 22 52  1  0  0  0  0
 22 53  1  0  0  0  0
 23 26  1  0  0  0  0
 23 54  1  0  0  0  0
 24 29  1  0  0  0  0
 24 55  1  0  0  0  0
 24 56  1  0  0  0  0
 25 57  1  0  0  0  0
 25 58  1  0  0  0  0
 25 59  1  0  0  0  0
 27 31  1  0  0  0  0
 27 60  1  0  0  0  0
 28 29  1  0  0  0  0
 28 61  1  0  0  0  0
 29 63  1  0  0  0  0
 30 64  1  0  0  0  0
 30 65  1  0  0  0  0
 30 66  1  0  0  0  0
 32 31  1  6  0  0  0
 31 67  1  0  0  0  0
 31 68  1  0  0  0  0
 32 33  1  0  0  0  0
 32 34  1  0  0  0  0
 32 70  1  0  0  0  0
 33 35  1  0  0  0  0
 33 36  1  1  0  0  0
 33 74  1  0  0  0  0
 34 37  1  1  0  0  0
 34 75  1  0  0  0  0
 36 76  1  0  0  0  0
 36 77  1  0  0  0  0
 36 78  1  0  0  0  0
 37 79  1  0  0  0  0
 37 80  1  0  0  0  0
 37 81  1  0  0  0  0
M  END
> <PUBCHEM_COMPOUND_CID>
119444

> <PUBCHEM_COMPOUND_CANONICALIZED>
1

> <PUBCHEM_CACTVS_COMPLEXITY>
1010

> <PUBCHEM_CACTVS_HBOND_ACCEPTOR>
8

> <PUBCHEM_CACTVS_HBOND_DONOR>
5

> <PUBCHEM_CACTVS_ROTATABLE_BOND>
4

> <PUBCHEM_CACTVS_SUBSKEYS>
AAADcfB4PAAAAAAAAAAAAAAAAAAAAaIAAAAwYIAAAAAAAGCAAAAAGgAACAAAD1SggAICCAAABgCIAqDSCAAAAAAgAAAACAEAAEgBFBIAAQACUAAEgAAJEQPK7PzPgAAAAAAAAADAAAYAADCAAYAADAAAAA==

> <PUBCHEM_IUPAC_OPENEYE_NAME>
(3S,4S,5R)-4-[(2R,3R)-2,3-dihydroxy-3-[(2S,3R,5R,9R,10R,13R,14S,17S)-2,3,14-trihydroxy-10,13-dimethyl-6-oxo-2,3,4,5,9,11,12,15,16,17-decahydro-1H-cyclopenta[a]phenanthren-17-yl]butyl]-3,5-dimethyl-tetrahydrofuran-2-one

> <PUBCHEM_IUPAC_CAS_NAME>
(3S,4S,5R)-4-[(2R,3R)-2,3-dihydroxy-3-[(2S,3R,5R,9R,10R,13R,14S,17S)-2,3,14-trihydroxy-10,13-dimethyl-6-oxo-2,3,4,5,9,11,12,15,16,17-decahydro-1H-cyclopenta[a]phenanthren-17-yl]butyl]-3,5-dimethyl-2-oxolanone

> <PUBCHEM_IUPAC_NAME>
(3S,4S,5R)-4-[(2R,3R)-2,3-dihydroxy-3-[(2S,3R,5R,9R,10R,13R,14S,17S)-2,3,14-trihydroxy-10,13-dimethyl-6-oxo-2,3,4,5,9,11,12,15,16,17-decahydro-1H-cyclopenta[a]phenanthren-17-yl]butyl]-3,5-dimethyloxolan-2-one

> <PUBCHEM_IUPAC_SYSTEMATIC_NAME>
(3S,4S,5R)-4-[(2R,3R)-3-[(2S,3R,5R,9R,10R,13R,14S,17S)-10,13-dimethyl-2,3,14-tris(oxidanyl)-6-oxidanylidene-2,3,4,5,9,11,12,15,16,17-decahydro-1H-cyclopenta[a]phenanthren-17-yl]-2,3-bis(oxidanyl)butyl]-3,5-dimethyl-oxolan-2-one

> <PUBCHEM_IUPAC_TRADITIONAL_NAME>
(3S,4S,5R)-4-[(2R,3R)-2,3-dihydroxy-3-[(2S,3R,5R,9R,10R,13R,14S,17S)-2,3,14-trihydroxy-6-keto-10,13-dimethyl-2,3,4,5,9,11,12,15,16,17-decahydro-1H-cyclopenta[a]phenanthren-17-yl]butyl]-3,5-dimethyl-tetrahydrofuran-2-one

> <PUBCHEM_IUPAC_INCHI>
InChI=1S/C29H44O8/c1-14-16(15(2)37-25(14)34)10-24(33)28(5,35)23-7-9-29(36)18-11-20(30)19-12-21(31)22(32)13-26(19,3)17(18)6-8-27(23,29)4/h11,14-17,19,21-24,31-33,35-36H,6-10,12-13H2,1-5H3/t14-,15+,16-,17-,19-,21+,22-,23-,24+,26+,27+,28+,29+/m0/s1

> <PUBCHEM_IUPAC_INCHIKEY>
NEFYSBQJYCICOG-YSEUJXISSA-N

> <PUBCHEM_XLOGP3_AA>
1

> <PUBCHEM_EXACT_MASS>
520.303618

> <PUBCHEM_MOLECULAR_FORMULA>
C29H44O8

> <PUBCHEM_MOLECULAR_WEIGHT>
520.65486

> <PUBCHEM_OPENEYE_CAN_SMILES>
CC1C(C(OC1=O)C)CC(C(C)(C2CCC3(C2(CCC4C3=CC(=O)C5C4(CC(C(C5)O)O)C)C)O)O)O

> <PUBCHEM_OPENEYE_ISO_SMILES>
C[C@H]1[C@@H]([C@H](OC1=O)C)C[C@H]([C@@](C)([C@H]2CC[C@@]3([C@@]2(CC[C@H]4C3=CC(=O)[C@H]5[C@@]4(C[C@@H]([C@@H](C5)O)O)C)C)O)O)O

> <PUBCHEM_CACTVS_TPSA>
145

> <PUBCHEM_MONOISOTOPIC_WEIGHT>
520.303618

> <PUBCHEM_TOTAL_CHARGE>
0

> <PUBCHEM_HEAVY_ATOM_COUNT>
37

> <PUBCHEM_ATOM_DEF_STEREO_COUNT>
13

> <PUBCHEM_ATOM_UDEF_STEREO_COUNT>
0

> <PUBCHEM_BOND_DEF_STEREO_COUNT>
0

> <PUBCHEM_BOND_UDEF_STEREO_COUNT>
0

> <PUBCHEM_ISOTOPIC_ATOM_COUNT>
0

> <PUBCHEM_COMPONENT_COUNT>
1

> <PUBCHEM_CACTVS_TAUTO_COUNT>
10

> <PUBCHEM_COORDINATE_TYPE>
1
5
255

> <PUBCHEM_BONDANNOTATIONS>
10  1  6
11  38  6
12  39  6
13  25  5
19  2  5
20  48  5
27  3  6
32  31  6
33  36  5
34  37  5
28  4  5
29  6  5
9  21  5

$$$$

