16754
  -OEChem-07051212573D

 51 54  0     1  0  0  0  0  0999 V2000
   -0.3085    2.7742   -0.1626 O   0  0  0  0  0  0  0  0  0  0  0  0
   -2.9408    3.2891   -0.0823 O   0  0  0  0  0  0  0  0  0  0  0  0
    4.7946   -1.0732   -0.1656 O   0  0  0  0  0  0  0  0  0  0  0  0
    4.0740    1.4850    0.6355 O   0  0  0  0  0  0  0  0  0  0  0  0
   -2.2446   -3.0925   -0.2554 N   0  0  2  0  0  0  0  0  0  0  0  0
   -1.1867   -2.1236    0.1328 C   0  0  2  0  0  0  0  0  0  0  0  0
   -1.6505   -0.6656    0.0464 C   0  0  0  0  0  0  0  0  0  0  0  0
    0.0822   -2.2938   -0.7331 C   0  0  0  0  0  0  0  0  0  0  0  0
   -3.0256   -0.3603    0.0566 C   0  0  0  0  0  0  0  0  0  0  0  0
   -3.4846   -2.8016    0.4821 C   0  0  0  0  0  0  0  0  0  0  0  0
   -0.6840    0.3723    0.0215 C   0  0  0  0  0  0  0  0  0  0  0  0
   -4.0545   -1.4563    0.0419 C   0  0  0  0  0  0  0  0  0  0  0  0
    1.1420   -1.2797   -0.3649 C   0  0  0  0  0  0  0  0  0  0  0  0
    0.7560    0.0269    0.0046 C   0  0  0  0  0  0  0  0  0  0  0  0
   -1.1432    1.7011   -0.0202 C   0  0  0  0  0  0  0  0  0  0  0  0
   -3.4438    0.9730    0.0122 C   0  0  0  0  0  0  0  0  0  0  0  0
   -1.8487   -4.4808    0.0050 C   0  0  0  0  0  0  0  0  0  0  0  0
   -2.5065    1.9980   -0.0227 C   0  0  0  0  0  0  0  0  0  0  0  0
    2.4983   -1.6339   -0.4333 C   0  0  0  0  0  0  0  0  0  0  0  0
    1.7727    0.9379    0.3431 C   0  0  0  0  0  0  0  0  0  0  0  0
    3.4841   -0.7091   -0.1040 C   0  0  0  0  0  0  0  0  0  0  0  0
    3.1213    0.5737    0.2895 C   0  0  0  0  0  0  0  0  0  0  0  0
   -0.0294    3.2003   -1.4925 C   0  0  0  0  0  0  0  0  0  0  0  0
   -3.1356    3.9640    1.1584 C   0  0  0  0  0  0  0  0  0  0  0  0
    5.3689   -1.6319    1.0147 C   0  0  0  0  0  0  0  0  0  0  0  0
    4.5928    2.3069   -0.4076 C   0  0  0  0  0  0  0  0  0  0  0  0
   -0.9202   -2.2923    1.1879 H   0  0  0  0  0  0  0  0  0  0  0  0
   -0.1525   -2.1751   -1.7993 H   0  0  0  0  0  0  0  0  0  0  0  0
    0.5025   -3.2958   -0.5950 H   0  0  0  0  0  0  0  0  0  0  0  0
   -3.3041   -2.8052    1.5658 H   0  0  0  0  0  0  0  0  0  0  0  0
   -4.2443   -3.5671    0.2795 H   0  0  0  0  0  0  0  0  0  0  0  0
   -4.8888   -1.1939    0.7035 H   0  0  0  0  0  0  0  0  0  0  0  0
   -4.4511   -1.5402   -0.9780 H   0  0  0  0  0  0  0  0  0  0  0  0
   -4.5051    1.2100   -0.0034 H   0  0  0  0  0  0  0  0  0  0  0  0
   -1.5575   -4.6389    1.0495 H   0  0  0  0  0  0  0  0  0  0  0  0
   -1.0231   -4.7900   -0.6423 H   0  0  0  0  0  0  0  0  0  0  0  0
   -2.6724   -5.1664   -0.2266 H   0  0  0  0  0  0  0  0  0  0  0  0
    2.7838   -2.6374   -0.7403 H   0  0  0  0  0  0  0  0  0  0  0  0
    1.5593    1.9325    0.7187 H   0  0  0  0  0  0  0  0  0  0  0  0
    0.3172    2.3660   -2.1110 H   0  0  0  0  0  0  0  0  0  0  0  0
    0.7627    3.9531   -1.4505 H   0  0  0  0  0  0  0  0  0  0  0  0
   -0.9159    3.6550   -1.9448 H   0  0  0  0  0  0  0  0  0  0  0  0
   -3.9035    3.4589    1.7529 H   0  0  0  0  0  0  0  0  0  0  0  0
   -3.4717    4.9824    0.9455 H   0  0  0  0  0  0  0  0  0  0  0  0
   -2.1982    4.0155    1.7212 H   0  0  0  0  0  0  0  0  0  0  0  0
    6.4177   -1.8626    0.8090 H   0  0  0  0  0  0  0  0  0  0  0  0
    4.8540   -2.5579    1.2901 H   0  0  0  0  0  0  0  0  0  0  0  0
    5.3236   -0.9162    1.8415 H   0  0  0  0  0  0  0  0  0  0  0  0
    3.7952    2.9107   -0.8524 H   0  0  0  0  0  0  0  0  0  0  0  0
    5.0747    1.6954   -1.1769 H   0  0  0  0  0  0  0  0  0  0  0  0
    5.3400    2.9781    0.0245 H   0  0  0  0  0  0  0  0  0  0  0  0
  1 15  1  0  0  0  0
  1 23  1  0  0  0  0
  2 18  1  0  0  0  0
  2 24  1  0  0  0  0
  3 21  1  0  0  0  0
  3 25  1  0  0  0  0
  4 22  1  0  0  0  0
  4 26  1  0  0  0  0
  5  6  1  0  0  0  0
  5 10  1  0  0  0  0
  5 17  1  0  0  0  0
  6  7  1  0  0  0  0
  6  8  1  0  0  0  0
  6 27  1  0  0  0  0
  7  9  1  0  0  0  0
  7 11  2  0  0  0  0
  8 13  1  0  0  0  0
  8 28  1  0  0  0  0
  8 29  1  0  0  0  0
  9 12  1  0  0  0  0
  9 16  2  0  0  0  0
 10 12  1  0  0  0  0
 10 30  1  0  0  0  0
 10 31  1  0  0  0  0
 11 14  1  0  0  0  0
 11 15  1  0  0  0  0
 12 32  1  0  0  0  0
 12 33  1  0  0  0  0
 13 14  1  0  0  0  0
 13 19  2  0  0  0  0
 14 20  2  0  0  0  0
 15 18  2  0  0  0  0
 16 18  1  0  0  0  0
 16 34  1  0  0  0  0
 17 35  1  0  0  0  0
 17 36  1  0  0  0  0
 17 37  1  0  0  0  0
 19 21  1  0  0  0  0
 19 38  1  0  0  0  0
 20 22  1  0  0  0  0
 20 39  1  0  0  0  0
 21 22  2  0  0  0  0
 23 40  1  0  0  0  0
 23 41  1  0  0  0  0
 23 42  1  0  0  0  0
 24 43  1  0  0  0  0
 24 44  1  0  0  0  0
 24 45  1  0  0  0  0
 25 46  1  0  0  0  0
 25 47  1  0  0  0  0
 25 48  1  0  0  0  0
 26 49  1  0  0  0  0
 26 50  1  0  0  0  0
 26 51  1  0  0  0  0
M  END
> <PUBCHEM_COMPOUND_CID>
16754

> <PUBCHEM_CONFORMER_RMSD>
0.8

> <PUBCHEM_CONFORMER_DIVERSEORDER>
1
3
2

> <PUBCHEM_MMFF94_PARTIAL_CHARGES>
27
1 -0.36
10 0.27
12 0.14
13 -0.14
15 0.08
16 -0.15
17 0.27
18 0.08
19 -0.15
2 -0.36
20 -0.15
21 0.08
22 0.08
23 0.28
24 0.28
25 0.28
26 0.28
3 -0.36
34 0.15
38 0.15
39 0.15
4 -0.36
5 -0.81
6 0.41
7 -0.14
8 0.14
9 -0.14

> <PUBCHEM_EFFECTIVE_ROTOR_COUNT>
4.8

> <PUBCHEM_PHARMACOPHORE_FEATURES>
9
1 1 acceptor
1 2 acceptor
1 3 acceptor
1 4 acceptor
1 5 cation
6 13 14 19 20 21 22 rings
6 5 6 7 9 10 12 rings
6 6 7 8 11 13 14 rings
6 7 9 11 15 16 18 rings

> <PUBCHEM_HEAVY_ATOM_COUNT>
26

> <PUBCHEM_ATOM_DEF_STEREO_COUNT>
1

> <PUBCHEM_ATOM_UDEF_STEREO_COUNT>
0

> <PUBCHEM_BOND_DEF_STEREO_COUNT>
0

> <PUBCHEM_BOND_UDEF_STEREO_COUNT>
0

> <PUBCHEM_ISOTOPIC_ATOM_COUNT>
0

> <PUBCHEM_COMPONENT_COUNT>
1

> <PUBCHEM_CACTVS_TAUTO_COUNT>
1

> <PUBCHEM_CONFORMER_ID>
0000417200000001

> <PUBCHEM_MMFF94_ENERGY>
123.1341

> <PUBCHEM_FEATURE_SELFOVERLAP>
45.769

> <PUBCHEM_SHAPE_FINGERPRINT>
10319926 262 18263947556581038138
10411042 1 17761493590874462663
10493431 412 18047746285448071337
10616163 171 18337669690241114630
10670039 82 18269825421041513780
10906281 52 18263911186470537471
10967382 1 17329425563549434799
1100329 8 18123467173151521227
11578080 2 4747554319992778411
12107183 9 18053108599519822202
12173636 292 18337674217120989477
12403259 226 18334582295622965026
12403260 363 18337401529494385350
12553582 1 18122892145475893423
12633257 1 18195530517966217632
12788726 201 18270686337849042034
13004483 165 18338807701697782259
13140716 1 18194395830471573089
138480 1 16464735611857212419
14363568 33 17115491953813267321
14787075 74 17698446525022693922
14790565 3 18193267714568042041
15042514 8 18412826923279676178
15196674 1 18410293588216813026
15230672 131 17908418401534438758
15927050 60 17903073679452611951
16728300 4 16694720360281544178
16945 1 18339070481055938631
17492 89 18340770356240403874
1813 80 17488468481366089886
19591789 44 18266456688484341603
20510252 161 18334293171673568625
20642791 13 18261111941540449405
20775438 99 16819726672386608535
21065198 57 18410294735585205794
21267235 1 18411129217212847442
22182313 1 17823124774313591206
2334 1 18339076090293633727
23402539 116 18336557074679084015
23557571 272 18262226738740541116
23558518 356 18343295951259346720
23559900 14 18045219590721587710
238 59 16831528228502391957
23845131 108 17907847759251626161
2748010 2 18267292313363905959
283562 15 18336269037503709971
3091708 16 9417578234951546363
335352 9 18338236071546423046
3380486 145 18123176923472476035
350125 39 18409448068919301160
5104073 3 18408886226619154170
9709674 26 18334292110743254678
9981440 41 18123470737816121923

> <PUBCHEM_SHAPE_MULTIPOLES>
506.61
8.58
5.11
0.86
9.46
0.48
-0.03
-0.6
1.73
-4.84
0
0.15
0.37
-0.67

> <PUBCHEM_SHAPE_SELFOVERLAP>
1104.506

> <PUBCHEM_SHAPE_VOLUME>
277.2

> <PUBCHEM_COORDINATE_TYPE>
2
5
10

$$$$

