64972
  -OEChem-07051212563D

 53 56  0     1  0  0  0  0  0999 V2000
   -2.4501   -1.9006    0.1847 O   0  0  0  0  0  0  0  0  0  0  0  0
    2.2721   -1.1442   -0.0897 O   0  0  0  0  0  0  0  0  0  0  0  0
   -3.2349    1.8700   -1.0595 O   0  0  0  0  0  0  0  0  0  0  0  0
   -0.7692    2.6095   -0.0603 O   0  0  0  0  0  0  0  0  0  0  0  0
   -0.0168    4.7662   -0.1070 O   0  0  0  0  0  0  0  0  0  0  0  0
   -4.1081   -0.1569   -0.1238 C   0  0  1  0  0  0  0  0  0  0  0  0
   -3.0356    0.9399    0.0068 C   0  0  1  0  0  0  0  0  0  0  0  0
   -3.6713   -1.3631    0.7159 C   0  0  1  0  0  0  0  0  0  0  0  0
   -1.6315    0.3751   -0.0053 C   0  0  0  0  0  0  0  0  0  0  0  0
   -1.4163   -1.0033    0.0765 C   0  0  0  0  0  0  0  0  0  0  0  0
   -0.1127   -1.5281    0.0194 C   0  0  0  0  0  0  0  0  0  0  0  0
   -0.5034    1.2171   -0.0603 C   0  0  0  0  0  0  0  0  0  0  0  0
    0.8173    0.7439   -0.0988 C   0  0  0  0  0  0  0  0  0  0  0  0
    0.9914   -0.6565   -0.0750 C   0  0  0  0  0  0  0  0  0  0  0  0
   -5.4820    0.3921    0.2697 C   0  0  0  0  0  0  0  0  0  0  0  0
    2.5112   -2.5266   -0.4114 C   0  0  0  0  0  0  0  0  0  0  0  0
   -4.6799   -2.5084    0.6995 C   0  0  0  0  0  0  0  0  0  0  0  0
    1.9044    1.7512   -0.1684 C   0  0  0  0  0  0  0  0  0  0  0  0
    0.1198   -2.9706    0.0879 C   0  0  0  0  0  0  0  0  0  0  0  0
    1.3504   -3.4375   -0.1274 C   0  0  0  0  0  0  0  0  0  0  0  0
    3.3516    1.3518   -0.2405 C   0  0  0  0  0  0  0  0  0  0  0  0
    3.7082   -2.9490    0.4494 C   0  0  0  0  0  0  0  0  0  0  0  0
    2.8930   -2.6026   -1.8941 C   0  0  0  0  0  0  0  0  0  0  0  0
    1.5992    3.0575   -0.1719 C   0  0  0  0  0  0  0  0  0  0  0  0
    0.2254    3.5651   -0.1105 C   0  0  0  0  0  0  0  0  0  0  0  0
    3.9426    1.2263    1.1551 C   0  0  0  0  0  0  0  0  0  0  0  0
    5.4252    0.8816    1.1392 C   0  0  0  0  0  0  0  0  0  0  0  0
   -4.1623   -0.4602   -1.1798 H   0  0  0  0  0  0  0  0  0  0  0  0
   -3.1605    1.4775    0.9563 H   0  0  0  0  0  0  0  0  0  0  0  0
   -3.5008   -1.0743    1.7623 H   0  0  0  0  0  0  0  0  0  0  0  0
   -5.5089    0.6668    1.3296 H   0  0  0  0  0  0  0  0  0  0  0  0
   -5.7447    1.2779   -0.3167 H   0  0  0  0  0  0  0  0  0  0  0  0
   -6.2695   -0.3464    0.0902 H   0  0  0  0  0  0  0  0  0  0  0  0
   -4.9113   -2.8118   -0.3274 H   0  0  0  0  0  0  0  0  0  0  0  0
   -4.2630   -3.3896    1.2002 H   0  0  0  0  0  0  0  0  0  0  0  0
   -5.6104   -2.2404    1.2075 H   0  0  0  0  0  0  0  0  0  0  0  0
   -0.7001   -3.6518    0.2812 H   0  0  0  0  0  0  0  0  0  0  0  0
    1.5181   -4.5113   -0.1179 H   0  0  0  0  0  0  0  0  0  0  0  0
   -4.0039    2.4200   -0.8355 H   0  0  0  0  0  0  0  0  0  0  0  0
    3.9084    2.1460   -0.7611 H   0  0  0  0  0  0  0  0  0  0  0  0
    3.5387    0.4811   -0.8722 H   0  0  0  0  0  0  0  0  0  0  0  0
    4.0062   -3.9859    0.2586 H   0  0  0  0  0  0  0  0  0  0  0  0
    4.5734   -2.3043    0.2579 H   0  0  0  0  0  0  0  0  0  0  0  0
    3.4780   -2.8468    1.5168 H   0  0  0  0  0  0  0  0  0  0  0  0
    2.0685   -2.2612   -2.5315 H   0  0  0  0  0  0  0  0  0  0  0  0
    3.7422   -1.9444   -2.1122 H   0  0  0  0  0  0  0  0  0  0  0  0
    3.1596   -3.6215   -2.1957 H   0  0  0  0  0  0  0  0  0  0  0  0
    2.3783    3.8129   -0.2192 H   0  0  0  0  0  0  0  0  0  0  0  0
    3.4139    0.4550    1.7278 H   0  0  0  0  0  0  0  0  0  0  0  0
    3.8144    2.1662    1.7069 H   0  0  0  0  0  0  0  0  0  0  0  0
    6.0017    1.6613    0.6313 H   0  0  0  0  0  0  0  0  0  0  0  0
    5.6016   -0.0666    0.6226 H   0  0  0  0  0  0  0  0  0  0  0  0
    5.8048    0.7890    2.1615 H   0  0  0  0  0  0  0  0  0  0  0  0
  1  8  1  0  0  0  0
  1 10  1  0  0  0  0
  2 14  1  0  0  0  0
  2 16  1  0  0  0  0
  3  7  1  0  0  0  0
  3 39  1  0  0  0  0
  4 12  1  0  0  0  0
  4 25  1  0  0  0  0
  5 25  2  0  0  0  0
  6  7  1  0  0  0  0
  6  8  1  0  0  0  0
  6 15  1  0  0  0  0
  6 28  1  0  0  0  0
  7  9  1  0  0  0  0
  7 29  1  0  0  0  0
  8 17  1  0  0  0  0
  8 30  1  0  0  0  0
  9 10  2  0  0  0  0
  9 12  1  0  0  0  0
 10 11  1  0  0  0  0
 11 14  2  0  0  0  0
 11 19  1  0  0  0  0
 12 13  2  0  0  0  0
 13 14  1  0  0  0  0
 13 18  1  0  0  0  0
 15 31  1  0  0  0  0
 15 32  1  0  0  0  0
 15 33  1  0  0  0  0
 16 20  1  0  0  0  0
 16 22  1  0  0  0  0
 16 23  1  0  0  0  0
 17 34  1  0  0  0  0
 17 35  1  0  0  0  0
 17 36  1  0  0  0  0
 18 21  1  0  0  0  0
 18 24  2  0  0  0  0
 19 20  2  0  0  0  0
 19 37  1  0  0  0  0
 20 38  1  0  0  0  0
 21 26  1  0  0  0  0
 21 40  1  0  0  0  0
 21 41  1  0  0  0  0
 22 42  1  0  0  0  0
 22 43  1  0  0  0  0
 22 44  1  0  0  0  0
 23 45  1  0  0  0  0
 23 46  1  0  0  0  0
 23 47  1  0  0  0  0
 24 25  1  0  0  0  0
 24 48  1  0  0  0  0
 26 27  1  0  0  0  0
 26 49  1  0  0  0  0
 26 50  1  0  0  0  0
 27 51  1  0  0  0  0
 27 52  1  0  0  0  0
 27 53  1  0  0  0  0
M  END
> <PUBCHEM_COMPOUND_CID>
64972

> <PUBCHEM_CONFORMER_RMSD>
0.8

> <PUBCHEM_CONFORMER_DIVERSEORDER>
2
3
4
1

> <PUBCHEM_MMFF94_PARTIAL_CHARGES>
24
1 -0.36
10 0.08
11 0.03
12 0.08
13 0.03
14 0.08
16 0.42
18 -0.17
19 -0.18
2 -0.36
20 -0.29
21 0.14
24 -0.14
25 0.71
3 -0.68
37 0.15
38 0.15
39 0.4
4 -0.23
48 0.15
5 -0.57
7 0.42
8 0.28
9 -0.14

> <PUBCHEM_EFFECTIVE_ROTOR_COUNT>
3.2

> <PUBCHEM_PHARMACOPHORE_FEATURES>
11
1 1 acceptor
1 2 acceptor
1 27 hydrophobe
1 3 acceptor
1 3 donor
1 5 acceptor
3 16 22 23 hydrophobe
6 1 6 7 8 9 10 rings
6 2 11 14 16 19 20 rings
6 4 12 13 18 24 25 rings
6 9 10 11 12 13 14 rings

> <PUBCHEM_HEAVY_ATOM_COUNT>
27

> <PUBCHEM_ATOM_DEF_STEREO_COUNT>
3

> <PUBCHEM_ATOM_UDEF_STEREO_COUNT>
0

> <PUBCHEM_BOND_DEF_STEREO_COUNT>
0

> <PUBCHEM_BOND_UDEF_STEREO_COUNT>
0

> <PUBCHEM_ISOTOPIC_ATOM_COUNT>
0

> <PUBCHEM_COMPONENT_COUNT>
1

> <PUBCHEM_CACTVS_TAUTO_COUNT>
1

> <PUBCHEM_CONFORMER_ID>
0000FDCC00000002

> <PUBCHEM_MMFF94_ENERGY>
91.5134

> <PUBCHEM_FEATURE_SELFOVERLAP>
55.896

> <PUBCHEM_SHAPE_FINGERPRINT>
10319926 262 17546187637163803018
10411042 1 18339356487060239747
10906281 52 18270666585516233648
10967382 1 18410854360616534086
1100329 8 17978230461423843402
11578080 2 16986613080879551670
11680986 33 18410575127612764886
12403260 363 18049448037236669623
12422481 6 18192176913307561698
12553582 1 18122331647811595935
12592029 89 18266733589104650090
12788726 201 17911789486076344571
13140716 1 18339078314601701883
13402501 40 18409167719134507218
138480 1 18411132554501981165
14178342 30 18335130990754576089
14223421 5 18264773349230382392
14466204 15 18338802217019231881
14790565 3 18195797467026403756
14955137 171 18339922602488434864
15081414 286 18409156719348832753
15420108 30 18114471088581422630
1601671 61 18339360768952281736
16087824 20 17835231626134180161
16728300 4 17772221736664842698
16945 1 18122908624864098207
19591789 44 17906729198799969195
19930381 70 18411417289279780747
20028762 73 17899414177757902919
20642791 35 18193554699607179675
20739085 24 18192404520292456691
20775438 99 17763501638783290749
20905425 154 18263358247990801284
21197605 99 17474936637662316611
22113638 7 18193564367736935524
221490 88 18341321245714407915
22182313 1 18411139164208814574
2334 1 18411133623701054518
23558518 356 17262424610471423755
23559900 14 18339364166118178535
238 59 17908181769777230159
2748010 2 18410853286895952110
335352 9 18339925905160224861
3380486 145 18342164584196987017
350125 39 18196369209078079497
352729 6 17833543501225927835
4093350 32 17313094298309321495
5104073 3 18410566306436281227
5265222 85 18050560752037668516
6443956 14 18412537725935585917
7364860 26 18409726270403237415
9709674 26 18341608175547478459

> <PUBCHEM_SHAPE_MULTIPOLES>
526.3
8.68
5.05
0.94
4.49
1.74
0.14
-1.77
-2.25
-2.56
0.59
-0.65
-0.3
1.39

> <PUBCHEM_SHAPE_SELFOVERLAP>
1144.27

> <PUBCHEM_SHAPE_VOLUME>
287.8

> <PUBCHEM_COORDINATE_TYPE>
2
5
10

$$$$

