17396112
  -OEChem-06241222543D

 49 53  0     1  0  0  0  0  0999 V2000
   -1.5835   -1.2544    1.9237 S   0  0  0  0  0  0  0  0  0  0  0  0
    5.6153    1.2999    1.1202 S   0  0  0  0  0  0  0  0  0  0  0  0
   -2.8385    3.0806   -1.7657 O   0  0  0  0  0  0  0  0  0  0  0  0
    3.2800   -0.6320   -1.3192 O   0  0  0  0  0  0  0  0  0  0  0  0
   -3.4942    1.6933   -0.0159 N   0  0  0  0  0  0  0  0  0  0  0  0
   -2.8328   -1.1123   -0.3282 N   0  0  0  0  0  0  0  0  0  0  0  0
    2.9068    1.2143    0.0529 N   0  0  0  0  0  0  0  0  0  0  0  0
   -3.2378    0.8559    1.1681 C   0  0  1  0  0  0  0  0  0  0  0  0
   -4.6107    0.7174    1.8390 C   0  0  0  0  0  0  0  0  0  0  0  0
   -5.6059    0.9003    0.6983 C   0  0  0  0  0  0  0  0  0  0  0  0
   -4.9222    1.9157   -0.2019 C   0  0  0  0  0  0  0  0  0  0  0  0
   -2.6230   -0.4840    0.8050 C   0  0  0  0  0  0  0  0  0  0  0  0
   -2.5661    2.3170   -0.8415 C   0  0  0  0  0  0  0  0  0  0  0  0
   -1.1438    2.0309   -0.6090 C   0  0  0  0  0  0  0  0  0  0  0  0
   -1.3751   -2.5595    0.8163 C   0  0  0  0  0  0  0  0  0  0  0  0
   -2.1236   -2.3045   -0.3368 C   0  0  0  0  0  0  0  0  0  0  0  0
   -0.4075    2.8232    0.2717 C   0  0  0  0  0  0  0  0  0  0  0  0
   -0.5301    0.9661   -1.2688 C   0  0  0  0  0  0  0  0  0  0  0  0
   -0.6048   -3.7249    0.9576 C   0  0  0  0  0  0  0  0  0  0  0  0
   -2.0985   -3.2511   -1.3839 C   0  0  0  0  0  0  0  0  0  0  0  0
    0.9425    2.5507    0.4927 C   0  0  0  0  0  0  0  0  0  0  0  0
    0.8199    0.6937   -1.0480 C   0  0  0  0  0  0  0  0  0  0  0  0
    1.5562    1.4860   -0.1672 C   0  0  0  0  0  0  0  0  0  0  0  0
   -0.5973   -4.6453   -0.0934 C   0  0  0  0  0  0  0  0  0  0  0  0
   -1.3338   -4.4135   -1.2499 C   0  0  0  0  0  0  0  0  0  0  0  0
    3.6998    0.1955   -0.5130 C   0  0  0  0  0  0  0  0  0  0  0  0
    5.0934    0.1516   -0.0380 C   0  0  0  0  0  0  0  0  0  0  0  0
    6.1019   -0.7155   -0.3972 C   0  0  0  0  0  0  0  0  0  0  0  0
    7.3190   -0.4335    0.2878 C   0  0  0  0  0  0  0  0  0  0  0  0
    7.1945    0.6383    1.1441 C   0  0  0  0  0  0  0  0  0  0  0  0
   -2.5524    1.4050    1.8252 H   0  0  0  0  0  0  0  0  0  0  0  0
   -4.7465    1.5351    2.5584 H   0  0  0  0  0  0  0  0  0  0  0  0
   -4.7559   -0.2262    2.3741 H   0  0  0  0  0  0  0  0  0  0  0  0
   -6.5906    1.2326    1.0381 H   0  0  0  0  0  0  0  0  0  0  0  0
   -5.7309   -0.0486    0.1634 H   0  0  0  0  0  0  0  0  0  0  0  0
   -5.1970    1.8092   -1.2556 H   0  0  0  0  0  0  0  0  0  0  0  0
   -5.1417    2.9414    0.1156 H   0  0  0  0  0  0  0  0  0  0  0  0
   -0.8763    3.6547    0.7915 H   0  0  0  0  0  0  0  0  0  0  0  0
   -1.0902    0.3522   -1.9694 H   0  0  0  0  0  0  0  0  0  0  0  0
   -0.0271   -3.9123    1.8575 H   0  0  0  0  0  0  0  0  0  0  0  0
   -2.6698   -3.0796   -2.2918 H   0  0  0  0  0  0  0  0  0  0  0  0
    1.5040    3.1762    1.1820 H   0  0  0  0  0  0  0  0  0  0  0  0
    1.2156   -0.1461   -1.6001 H   0  0  0  0  0  0  0  0  0  0  0  0
   -0.0074   -5.5538   -0.0043 H   0  0  0  0  0  0  0  0  0  0  0  0
   -1.3158   -5.1407   -2.0571 H   0  0  0  0  0  0  0  0  0  0  0  0
    3.3691    1.8356    0.7134 H   0  0  0  0  0  0  0  0  0  0  0  0
    5.9799   -1.5159   -1.1159 H   0  0  0  0  0  0  0  0  0  0  0  0
    8.2391   -0.9885    0.1590 H   0  0  0  0  0  0  0  0  0  0  0  0
    7.9553    1.0645    1.7827 H   0  0  0  0  0  0  0  0  0  0  0  0
  1 12  1  0  0  0  0
  1 15  1  0  0  0  0
  2 27  1  0  0  0  0
  2 30  1  0  0  0  0
  3 13  2  0  0  0  0
  4 26  2  0  0  0  0
  5  8  1  0  0  0  0
  5 11  1  0  0  0  0
  5 13  1  0  0  0  0
  6 12  2  0  0  0  0
  6 16  1  0  0  0  0
  7 23  1  0  0  0  0
  7 26  1  0  0  0  0
  7 46  1  0  0  0  0
  8  9  1  0  0  0  0
  8 12  1  0  0  0  0
  8 31  1  0  0  0  0
  9 10  1  0  0  0  0
  9 32  1  0  0  0  0
  9 33  1  0  0  0  0
 10 11  1  0  0  0  0
 10 34  1  0  0  0  0
 10 35  1  0  0  0  0
 11 36  1  0  0  0  0
 11 37  1  0  0  0  0
 13 14  1  0  0  0  0
 14 17  2  0  0  0  0
 14 18  1  0  0  0  0
 15 16  1  0  0  0  0
 15 19  2  0  0  0  0
 16 20  2  0  0  0  0
 17 21  1  0  0  0  0
 17 38  1  0  0  0  0
 18 22  2  0  0  0  0
 18 39  1  0  0  0  0
 19 24  1  0  0  0  0
 19 40  1  0  0  0  0
 20 25  1  0  0  0  0
 20 41  1  0  0  0  0
 21 23  2  0  0  0  0
 21 42  1  0  0  0  0
 22 23  1  0  0  0  0
 22 43  1  0  0  0  0
 24 25  2  0  0  0  0
 24 44  1  0  0  0  0
 25 45  1  0  0  0  0
 26 27  1  0  0  0  0
 27 28  2  0  0  0  0
 28 29  1  0  0  0  0
 28 47  1  0  0  0  0
 29 30  2  0  0  0  0
 29 48  1  0  0  0  0
 30 49  1  0  0  0  0
M  END
> <PUBCHEM_COMPOUND_CID>
17396112

> <PUBCHEM_CONFORMER_RMSD>
0.8

> <PUBCHEM_CONFORMER_DIVERSEORDER>
1
80
56
111
142
93
124
92
171
45
49
113
125
173
193
137
79
115
138
136
78
23
146
54
152
31
143
109
20
107
166
148
155
154
176
162
35
157
185
172
86
47
12
186
149
90
177
112
41
158
179
160
119
114
127
147
95
2
32
3
163
110
170
26
184
126
128
190
130
169
51
52
63
50
182
131
165
89
187
97
55
82
29
46
153
189
167
85
183
68
28
73
30
18
123
135
102
118
9
22
144
66
180
164
91
62
103
27
175
96
132
44
33
57
36
13
116
38
140
120
145
21
106
159
88
150
174
181
25
72
191
34
14
70
105
60
178
11
64
192
141
133
129
84
139
134
121
10
81
24
17
71
100
61
37
74
59
7
83
42
87
98
168
156
188
108
40
65
69
161
77
76
117
67
39
151
99
104
101
122
48
58
43
94
75
6
4
8
16
53
19
15
5

> <PUBCHEM_MMFF94_PARTIAL_CHARGES>
40
1 -0.08
11 0.3
12 0.2
13 0.54
14 0.09
15 0.04
16 0.23
17 -0.15
18 -0.15
19 -0.15
2 -0.08
20 -0.15
21 -0.15
22 -0.15
23 0.12
24 -0.15
25 -0.15
26 0.71
27 -0.05
28 -0.15
29 -0.15
3 -0.57
30 -0.11
38 0.15
39 0.15
4 -0.57
40 0.15
41 0.15
42 0.15
43 0.15
44 0.15
45 0.15
46 0.37
47 0.15
48 0.15
49 0.15
5 -0.66
6 -0.57
7 -0.55
8 0.48

> <PUBCHEM_EFFECTIVE_ROTOR_COUNT>
7

> <PUBCHEM_PHARMACOPHORE_FEATURES>
9
1 3 acceptor
1 4 acceptor
1 6 acceptor
1 7 donor
5 1 6 12 15 16 rings
5 2 27 28 29 30 rings
5 5 8 9 10 11 rings
6 14 17 18 21 22 23 rings
6 15 16 19 20 24 25 rings

> <PUBCHEM_HEAVY_ATOM_COUNT>
30

> <PUBCHEM_ATOM_DEF_STEREO_COUNT>
0

> <PUBCHEM_ATOM_UDEF_STEREO_COUNT>
1

> <PUBCHEM_BOND_DEF_STEREO_COUNT>
0

> <PUBCHEM_BOND_UDEF_STEREO_COUNT>
0

> <PUBCHEM_ISOTOPIC_ATOM_COUNT>
0

> <PUBCHEM_COMPONENT_COUNT>
1

> <PUBCHEM_CACTVS_TAUTO_COUNT>
3

> <PUBCHEM_CONFORMER_ID>
0109719000000001

> <PUBCHEM_MMFF94_ENERGY>
74.883

> <PUBCHEM_FEATURE_SELFOVERLAP>
45.74

> <PUBCHEM_SHAPE_FINGERPRINT>
10290309 65 18266178516659040366
10483366 6 18266478541990438783
11014199 57 17907858397316158970
11135609 149 16742302353492917751
11524674 6 18408887364426693253
11720765 8 16887815007989128975
12035758 1 18337092528304480969
12156800 1 16881648100012484383
12633257 1 18336538339846992312
12655364 131 14997112744406234638
13004483 165 17756991099749412559
13402501 40 18409161143033090392
14114207 22 18128826415694550663
14659021 117 18196668289199342986
14674994 50 18334290929521317898
14844126 61 18341052921795338386
14856354 85 16988551407914791248
14866123 147 18410857625071896931
15348495 7 18187654557737370256
15361156 5 18129655297818072044
15420108 30 18189330333611585819
16719943 64 18341611533816200098
16728300 4 17845383308869622459
16994733 274 15358797047013215683
19611394 137 7564187589104872469
20578428 11 15905775657753938317
20771845 38 18338516451570672483
20775530 9 17543618734753970574
21033648 29 18263661686951307160
21133410 52 15882938230203971060
21133665 82 18270114759986927914
21344244 246 18336832000342455663
21781055 127 18048004605697322597
23559900 14 18412267199385186736
23728640 28 18339917122105078739
255183 313 18336818737103215043
3298306 158 18198337562466569119
3383291 50 18411134693602196307
4015057 19 17968674730310910216
4017518 198 18334857251103811942
484985 159 18269571471629195974
5080951 261 18265637427973182446
5265222 85 18271512152970983228
5364581 5 18193849141766274288
5385378 56 18194670700115734329
6669772 16 18262235654671323887
9953998 17 18409455757169549208

> <PUBCHEM_SHAPE_MULTIPOLES>
598.4
13.6
4.98
1.52
28.48
6.28
-0.18
-4.76
-3.98
-5.28
1.28
-0.85
0.14
0.48

> <PUBCHEM_SHAPE_SELFOVERLAP>
1296.993

> <PUBCHEM_SHAPE_VOLUME>
328.3

> <PUBCHEM_COORDINATE_TYPE>
2
5
10

$$$$

