13947
  -OEChem-06241222413D

 43 44  0     0  0  0  0  0  0999 V2000
   -2.0497   -2.0465    0.0865 S   0  0  0  0  0  0  0  0  0  0  0  0
    0.3357   -1.0048   -1.6080 O   0  0  0  0  0  0  0  0  0  0  0  0
   -2.0826   -2.5472   -1.2742 O   0  0  0  0  0  0  0  0  0  0  0  0
   -2.6426   -2.8118    1.1661 O   0  0  0  0  0  0  0  0  0  0  0  0
    1.7606   -0.9186    0.2096 N   0  0  0  0  0  0  0  0  0  0  0  0
   -0.4422   -1.6384    0.5012 N   0  0  0  0  0  0  0  0  0  0  0  0
    2.9234   -0.4288   -0.5022 C   0  0  0  0  0  0  0  0  0  0  0  0
    2.8649    1.0998   -0.5847 C   0  0  0  0  0  0  0  0  0  0  0  0
    4.1997   -1.0334    0.0916 C   0  0  0  0  0  0  0  0  0  0  0  0
    4.1784    1.7798   -0.9612 C   0  0  0  0  0  0  0  0  0  0  0  0
    4.7795   -0.2803    1.2881 C   0  0  0  0  0  0  0  0  0  0  0  0
    5.0626    2.0648    0.2519 C   0  0  0  0  0  0  0  0  0  0  0  0
    5.7294    0.8428    0.8742 C   0  0  0  0  0  0  0  0  0  0  0  0
    0.5544   -1.1670   -0.4113 C   0  0  0  0  0  0  0  0  0  0  0  0
   -2.8184   -0.4551    0.1058 C   0  0  0  0  0  0  0  0  0  0  0  0
   -2.8464    0.2955   -1.0569 C   0  0  0  0  0  0  0  0  0  0  0  0
   -3.3781    0.0115    1.2828 C   0  0  0  0  0  0  0  0  0  0  0  0
   -4.0215    2.0377    0.1348 C   0  0  0  0  0  0  0  0  0  0  0  0
   -3.4526    1.5517   -1.0422 C   0  0  0  0  0  0  0  0  0  0  0  0
   -3.9843    1.2677    1.2973 C   0  0  0  0  0  0  0  0  0  0  0  0
   -4.6703    3.3807    0.1507 C   0  0  0  0  0  0  0  0  0  0  0  0
    2.8497   -0.8148   -1.5281 H   0  0  0  0  0  0  0  0  0  0  0  0
    2.4889    1.5205    0.3575 H   0  0  0  0  0  0  0  0  0  0  0  0
    2.1101    1.3657   -1.3373 H   0  0  0  0  0  0  0  0  0  0  0  0
    4.9630   -1.1055   -0.6939 H   0  0  0  0  0  0  0  0  0  0  0  0
    3.9945   -2.0684    0.3969 H   0  0  0  0  0  0  0  0  0  0  0  0
    3.9340    2.7469   -1.4191 H   0  0  0  0  0  0  0  0  0  0  0  0
    4.7216    1.2060   -1.7204 H   0  0  0  0  0  0  0  0  0  0  0  0
    5.3629   -0.9959    1.8815 H   0  0  0  0  0  0  0  0  0  0  0  0
    3.9890    0.0964    1.9467 H   0  0  0  0  0  0  0  0  0  0  0  0
    4.4783    2.5890    1.0186 H   0  0  0  0  0  0  0  0  0  0  0  0
    5.8539    2.7608   -0.0541 H   0  0  0  0  0  0  0  0  0  0  0  0
    6.4843    0.4497    0.1817 H   0  0  0  0  0  0  0  0  0  0  0  0
    6.2790    1.1750    1.7640 H   0  0  0  0  0  0  0  0  0  0  0  0
    1.8205   -1.0367    1.2165 H   0  0  0  0  0  0  0  0  0  0  0  0
   -0.1631   -1.7841    1.4796 H   0  0  0  0  0  0  0  0  0  0  0  0
   -2.4063   -0.0637   -1.9819 H   0  0  0  0  0  0  0  0  0  0  0  0
   -3.3529   -0.5687    2.1999 H   0  0  0  0  0  0  0  0  0  0  0  0
   -3.4762    2.1419   -1.9545 H   0  0  0  0  0  0  0  0  0  0  0  0
   -4.4243    1.6357    2.2205 H   0  0  0  0  0  0  0  0  0  0  0  0
   -4.5797    3.8515    1.1355 H   0  0  0  0  0  0  0  0  0  0  0  0
   -4.1987    4.0560   -0.5714 H   0  0  0  0  0  0  0  0  0  0  0  0
   -5.7322    3.2877   -0.0975 H   0  0  0  0  0  0  0  0  0  0  0  0
  1  3  2  0  0  0  0
  1  4  2  0  0  0  0
  1  6  1  0  0  0  0
  1 15  1  0  0  0  0
  2 14  2  0  0  0  0
  5  7  1  0  0  0  0
  5 14  1  0  0  0  0
  5 35  1  0  0  0  0
  6 14  1  0  0  0  0
  6 36  1  0  0  0  0
  7  8  1  0  0  0  0
  7  9  1  0  0  0  0
  7 22  1  0  0  0  0
  8 10  1  0  0  0  0
  8 23  1  0  0  0  0
  8 24  1  0  0  0  0
  9 11  1  0  0  0  0
  9 25  1  0  0  0  0
  9 26  1  0  0  0  0
 10 12  1  0  0  0  0
 10 27  1  0  0  0  0
 10 28  1  0  0  0  0
 11 13  1  0  0  0  0
 11 29  1  0  0  0  0
 11 30  1  0  0  0  0
 12 13  1  0  0  0  0
 12 31  1  0  0  0  0
 12 32  1  0  0  0  0
 13 33  1  0  0  0  0
 13 34  1  0  0  0  0
 15 16  2  0  0  0  0
 15 17  1  0  0  0  0
 16 19  1  0  0  0  0
 16 37  1  0  0  0  0
 17 20  2  0  0  0  0
 17 38  1  0  0  0  0
 18 19  2  0  0  0  0
 18 20  1  0  0  0  0
 18 21  1  0  0  0  0
 19 39  1  0  0  0  0
 20 40  1  0  0  0  0
 21 41  1  0  0  0  0
 21 42  1  0  0  0  0
 21 43  1  0  0  0  0
M  END
> <PUBCHEM_COMPOUND_CID>
13947

> <PUBCHEM_CONFORMER_RMSD>
0.8

> <PUBCHEM_CONFORMER_DIVERSEORDER>
1
40
64
43
28
65
14
47
53
4
57
70
55
54
35
22
26
44
67
29
69
18
36
46
42
50
75
74
25
73
49
23
7
13
21
19
60
15
63
56
38
6
20
24
32
37
10
58
27
33
9
41
31
51
48
11
76
72
66
30
62
8
34
61
68
12
5
39
45
3
59
52
17
16
71
2

> <PUBCHEM_MMFF94_PARTIAL_CHARGES>
21
1 1.45
14 0.87
15 -0.01
16 -0.15
17 -0.15
18 -0.14
19 -0.15
2 -0.57
20 -0.15
21 0.14
3 -0.65
35 0.37
36 0.42
37 0.15
38 0.15
39 0.15
4 -0.65
40 0.15
5 -0.73
6 -0.79
7 0.3

> <PUBCHEM_EFFECTIVE_ROTOR_COUNT>
6.4

> <PUBCHEM_PHARMACOPHORE_FEATURES>
7
1 2 acceptor
1 3 acceptor
1 4 acceptor
1 5 donor
1 6 donor
6 15 16 17 18 19 20 rings
7 7 8 9 10 11 12 13 rings

> <PUBCHEM_HEAVY_ATOM_COUNT>
21

> <PUBCHEM_ATOM_DEF_STEREO_COUNT>
0

> <PUBCHEM_ATOM_UDEF_STEREO_COUNT>
0

> <PUBCHEM_BOND_DEF_STEREO_COUNT>
0

> <PUBCHEM_BOND_UDEF_STEREO_COUNT>
0

> <PUBCHEM_ISOTOPIC_ATOM_COUNT>
0

> <PUBCHEM_COMPONENT_COUNT>
1

> <PUBCHEM_CACTVS_TAUTO_COUNT>
3

> <PUBCHEM_CONFORMER_ID>
0000367B00000001

> <PUBCHEM_MMFF94_ENERGY>
24.1131

> <PUBCHEM_FEATURE_SELFOVERLAP>
35.584

> <PUBCHEM_SHAPE_FINGERPRINT>
105312 117 17312820451104643734
10928967 22 11959724958770855040
10968037 57 10592036964849645749
11370993 144 18272089447961925542
11405975 8 18412827997533164226
11552529 35 17485924138830581586
12107183 9 18198915901472870402
12403259 118 18337681810965871512
12596602 18 17131271242541096928
12633257 1 18130793381956166524
12670546 177 4678809550041423466
12788726 201 18117863030930936847
12969540 114 16443059478849957550
13103583 49 12750943507885873165
13583140 156 17458918024465599574
14123255 352 18335139812437728792
14142880 1 18341896294975207135
14251758 9 18335984255354819094
14251764 38 18264212422159747480
14251764 75 17899125294553625865
14950920 106 16917062248424705528
17834072 32 18338233868402494029
193927 3 11600006565810968664
20621476 21 12103573038915251240
20715895 44 18265335190803283888
21054139 6 7493284444211584004
21401589 2 18335412513434401857
22182937 141 18411410713990838129
22393880 68 7997702982369532776
23403322 49 9007050258489644305
235170 7 14634870868253848432
23559900 14 18189048849950397750
27216 239 18343293782722673601
2838139 119 18261401103844403645
3117164 225 18200319939182600298
341906 21 18187371987169114808
4259306 186 9007052457228017960
46194498 28 5399641659550572897
5104073 3 18201166468830934064
5219985 9 17901109621200392847
633830 44 18410295826443875094
7064713 232 18343015627118042141
79837 15 17917424268594704434
90127 26 18336538340295463118
9981440 41 18407761447662430059

> <PUBCHEM_SHAPE_MULTIPOLES>
408.45
12.81
3.14
1.3
10.82
0.37
-0.01
9.16
3.06
-3.4
-0.01
-0.3
-0.13
-0.22

> <PUBCHEM_SHAPE_SELFOVERLAP>
824.123

> <PUBCHEM_SHAPE_VOLUME>
237.5

> <PUBCHEM_COORDINATE_TYPE>
2
5
10

$$$$

