47205380
  -OEChem-06241222583D

 35 36  0     1  0  0  0  0  0999 V2000
    0.5010   -2.3238   -0.0160 O   0  0  0  0  0  0  0  0  0  0  0  0
    2.9425    0.1360    0.1475 N   0  0  0  0  0  0  0  0  0  0  0  0
    0.0544   -0.1069    0.6292 N   0  0  0  0  0  0  0  0  0  0  0  0
    3.7430    1.3071   -1.5611 N   0  0  0  0  0  0  0  0  0  0  0  0
    2.3004   -1.0077    0.9121 C   0  0  1  0  0  0  0  0  0  0  0  0
    0.8586   -1.2445    0.4472 C   0  0  0  0  0  0  0  0  0  0  0  0
    3.1444   -2.2798    0.7973 C   0  0  0  0  0  0  0  0  0  0  0  0
   -1.2980    0.0521    0.3256 C   0  0  0  0  0  0  0  0  0  0  0  0
   -3.3693   -0.8470   -0.5338 C   0  0  0  0  0  0  0  0  0  0  0  0
   -3.2841    1.4271    0.2776 C   0  0  0  0  0  0  0  0  0  0  0  0
   -1.9316    1.2685    0.5800 C   0  0  0  0  0  0  0  0  0  0  0  0
   -2.0168   -1.0055   -0.2312 C   0  0  0  0  0  0  0  0  0  0  0  0
    3.3987    1.3092    0.6790 C   0  0  0  0  0  0  0  0  0  0  0  0
    3.1704    0.1803   -1.1998 C   0  0  0  0  0  0  0  0  0  0  0  0
   -4.0028    0.3694   -0.2793 C   0  0  0  0  0  0  0  0  0  0  0  0
    3.8880    2.0153   -0.3945 C   0  0  0  0  0  0  0  0  0  0  0  0
   -4.1376   -1.9773   -1.1302 C   0  0  0  0  0  0  0  0  0  0  0  0
   -3.9612    2.7275    0.5505 C   0  0  0  0  0  0  0  0  0  0  0  0
    2.2778   -0.6775    1.9583 H   0  0  0  0  0  0  0  0  0  0  0  0
    2.7231   -3.0805    1.4144 H   0  0  0  0  0  0  0  0  0  0  0  0
    4.1711   -2.0965    1.1320 H   0  0  0  0  0  0  0  0  0  0  0  0
    3.1903   -2.6449   -0.2347 H   0  0  0  0  0  0  0  0  0  0  0  0
    0.5014    0.7094    1.0407 H   0  0  0  0  0  0  0  0  0  0  0  0
   -1.3731    2.0939    1.0160 H   0  0  0  0  0  0  0  0  0  0  0  0
   -1.5863   -1.9715   -0.4555 H   0  0  0  0  0  0  0  0  0  0  0  0
    3.3385    1.5339    1.7346 H   0  0  0  0  0  0  0  0  0  0  0  0
    2.8991   -0.6288   -1.8640 H   0  0  0  0  0  0  0  0  0  0  0  0
   -5.0572    0.4947   -0.5143 H   0  0  0  0  0  0  0  0  0  0  0  0
    4.3371    2.9977   -0.3867 H   0  0  0  0  0  0  0  0  0  0  0  0
   -3.9063   -2.0681   -2.1962 H   0  0  0  0  0  0  0  0  0  0  0  0
   -3.8900   -2.9204   -0.6312 H   0  0  0  0  0  0  0  0  0  0  0  0
   -5.2179   -1.8315   -1.0238 H   0  0  0  0  0  0  0  0  0  0  0  0
   -4.3738    2.7306    1.5642 H   0  0  0  0  0  0  0  0  0  0  0  0
   -3.2620    3.5651    0.4533 H   0  0  0  0  0  0  0  0  0  0  0  0
   -4.7752    2.9066   -0.1602 H   0  0  0  0  0  0  0  0  0  0  0  0
  1  6  2  0  0  0  0
  2  5  1  0  0  0  0
  2 13  1  0  0  0  0
  2 14  1  0  0  0  0
  3  6  1  0  0  0  0
  3  8  1  0  0  0  0
  3 23  1  0  0  0  0
  4 14  2  0  0  0  0
  4 16  1  0  0  0  0
  5  6  1  0  0  0  0
  5  7  1  0  0  0  0
  5 19  1  0  0  0  0
  7 20  1  0  0  0  0
  7 21  1  0  0  0  0
  7 22  1  0  0  0  0
  8 11  2  0  0  0  0
  8 12  1  0  0  0  0
  9 12  2  0  0  0  0
  9 15  1  0  0  0  0
  9 17  1  0  0  0  0
 10 11  1  0  0  0  0
 10 15  2  0  0  0  0
 10 18  1  0  0  0  0
 11 24  1  0  0  0  0
 12 25  1  0  0  0  0
 13 16  2  0  0  0  0
 13 26  1  0  0  0  0
 14 27  1  0  0  0  0
 15 28  1  0  0  0  0
 16 29  1  0  0  0  0
 17 30  1  0  0  0  0
 17 31  1  0  0  0  0
 17 32  1  0  0  0  0
 18 33  1  0  0  0  0
 18 34  1  0  0  0  0
 18 35  1  0  0  0  0
M  END
> <PUBCHEM_COMPOUND_CID>
47205380

> <PUBCHEM_CONFORMER_RMSD>
0.6

> <PUBCHEM_CONFORMER_DIVERSEORDER>
2
4
21
68
49
5
60
37
19
38
64
24
45
22
47
50
20
48
25
36
12
30
54
13
62
63
3
35
46
56
1
53
28
17
34
6
26
66
32
39
8
14
15
44
58
9
7
42
51
33
57
11
65
59
23
29
61
55
27
43
52
16
41
10
18
40
67
31

> <PUBCHEM_MMFF94_PARTIAL_CHARGES>
24
1 -0.57
10 -0.14
11 -0.15
12 -0.15
13 -0.3
14 0.04
15 -0.15
16 0.08
17 0.14
18 0.14
2 0.05
23 0.37
24 0.15
25 0.15
26 0.15
27 0.15
28 0.15
29 0.15
3 -0.55
4 -0.57
5 0.32
6 0.57
8 0.12
9 -0.14

> <PUBCHEM_EFFECTIVE_ROTOR_COUNT>
4

> <PUBCHEM_PHARMACOPHORE_FEATURES>
5
1 1 acceptor
1 3 donor
3 2 4 14 cation
5 2 4 13 14 16 rings
6 8 9 10 11 12 15 rings

> <PUBCHEM_HEAVY_ATOM_COUNT>
18

> <PUBCHEM_ATOM_DEF_STEREO_COUNT>
0

> <PUBCHEM_ATOM_UDEF_STEREO_COUNT>
1

> <PUBCHEM_BOND_DEF_STEREO_COUNT>
0

> <PUBCHEM_BOND_UDEF_STEREO_COUNT>
0

> <PUBCHEM_ISOTOPIC_ATOM_COUNT>
0

> <PUBCHEM_COMPONENT_COUNT>
1

> <PUBCHEM_CACTVS_TAUTO_COUNT>
2

> <PUBCHEM_CONFORMER_ID>
02D04C0400000002

> <PUBCHEM_MMFF94_ENERGY>
41.1325

> <PUBCHEM_FEATURE_SELFOVERLAP>
25.371

> <PUBCHEM_SHAPE_MULTIPOLES>
349.62
9.44
2.69
1.09
0.72
0.14
0.26
2.95
1.81
0.54
-0.17
-0.64
0
-2.04

> <PUBCHEM_SHAPE_SELFOVERLAP>
735.256

> <PUBCHEM_SHAPE_VOLUME>
200.4

> <PUBCHEM_COORDINATE_TYPE>
2
5
10

$$$$

