53297351
  -OEChem-07051212562D

 57 59  0     1  0  0  0  0  0999 V2000
    7.5836   -1.5496    0.0000 O   0  0  0  0  0  0  0  0  0  0  0  0
    5.0000   -0.7449    0.0000 O   0  0  0  0  0  0  0  0  0  0  0  0
    7.2730    1.0104    0.0000 O   0  0  0  0  0  0  0  0  0  0  0  0
    9.3798    1.2966    0.0000 O   0  0  0  0  0  0  0  0  0  0  0  0
    5.0000   -2.4770    0.0000 O   0  0  0  0  0  0  0  0  0  0  0  0
    8.4297    2.2995    0.0000 O   0  0  0  0  0  0  0  0  0  0  0  0
   10.2740    2.8244    0.0000 O   0  0  0  0  0  0  0  0  0  0  0  0
    7.0000   -0.7449    0.0000 C   0  0  3  0  0  0  0  0  0  0  0  0
    6.0000   -0.7449    0.0000 C   0  0  0  0  0  0  0  0  0  0  0  0
    7.5836    0.0598    0.0000 C   0  0  1  0  0  0  0  0  0  0  0  0
    8.5298   -0.2449    0.0000 C   0  0  0  0  0  0  0  0  0  0  0  0
    8.5298   -1.2449    0.0000 C   0  0  0  0  0  0  0  0  0  0  0  0
    6.0000   -1.7449    0.0000 C   0  0  0  0  0  0  0  0  0  0  0  0
    6.0000    0.2551    0.0000 C   0  0  0  0  0  0  0  0  0  0  0  0
    9.3958    0.2551    0.0000 C   0  0  0  0  0  0  0  0  0  0  0  0
    9.3958   -1.7449    0.0000 C   0  0  0  0  0  0  0  0  0  0  0  0
   10.2619   -0.2449    0.0000 C   0  0  0  0  0  0  0  0  0  0  0  0
   10.2619   -1.2449    0.0000 C   0  0  0  0  0  0  0  0  0  0  0  0
    4.5000   -1.6109    0.0000 C   0  0  0  0  0  0  0  0  0  0  0  0
   11.1719    0.2619    0.0000 C   0  0  0  0  0  0  0  0  0  0  0  0
    7.4792    1.9889    0.0000 C   0  0  0  0  0  0  0  0  0  0  0  0
   10.2778    1.8244    0.0000 C   0  0  0  0  0  0  0  0  0  0  0  0
   11.1799    1.3036    0.0000 C   0  0  0  0  0  0  0  0  0  0  0  0
    3.5000   -1.6109    0.0000 C   0  0  0  0  0  0  0  0  0  0  0  0
    6.7349    2.6567    0.0000 C   0  0  0  0  0  0  0  0  0  0  0  0
    3.0000   -0.7449    0.0000 C   0  0  0  0  0  0  0  0  0  0  0  0
    5.7843    2.3460    0.0000 C   0  0  0  0  0  0  0  0  0  0  0  0
    3.0000   -2.4770    0.0000 C   0  0  0  0  0  0  0  0  0  0  0  0
    5.0400    3.0139    0.0000 C   0  0  0  0  0  0  0  0  0  0  0  0
    5.5781    1.3675    0.0000 C   0  0  0  0  0  0  0  0  0  0  0  0
    2.0000   -2.4770    0.0000 C   0  0  0  0  0  0  0  0  0  0  0  0
    6.7183   -1.2972    0.0000 H   0  0  0  0  0  0  0  0  0  0  0  0
    6.9711    0.1560    0.0000 H   0  0  0  0  0  0  0  0  0  0  0  0
    6.6200    0.2551    0.0000 H   0  0  0  0  0  0  0  0  0  0  0  0
    6.0000    0.8751    0.0000 H   0  0  0  0  0  0  0  0  0  0  0  0
    5.3800    0.2551    0.0000 H   0  0  0  0  0  0  0  0  0  0  0  0
    5.3800   -1.7449    0.0000 H   0  0  0  0  0  0  0  0  0  0  0  0
    6.0000   -2.3649    0.0000 H   0  0  0  0  0  0  0  0  0  0  0  0
    6.6200   -1.7449    0.0000 H   0  0  0  0  0  0  0  0  0  0  0  0
    9.3958   -2.3649    0.0000 H   0  0  0  0  0  0  0  0  0  0  0  0
   10.7988   -1.5549    0.0000 H   0  0  0  0  0  0  0  0  0  0  0  0
   11.7052   -0.0542    0.0000 H   0  0  0  0  0  0  0  0  0  0  0  0
   11.7180    1.6115    0.0000 H   0  0  0  0  0  0  0  0  0  0  0  0
    6.8627    3.2634    0.0000 H   0  0  0  0  0  0  0  0  0  0  0  0
    3.5369   -0.4349    0.0000 H   0  0  0  0  0  0  0  0  0  0  0  0
    2.6900   -0.2080    0.0000 H   0  0  0  0  0  0  0  0  0  0  0  0
    2.4631   -1.0549    0.0000 H   0  0  0  0  0  0  0  0  0  0  0  0
    3.3100   -3.0139    0.0000 H   0  0  0  0  0  0  0  0  0  0  0  0
    4.9714    1.4954    0.0000 H   0  0  0  0  0  0  0  0  0  0  0  0
    5.4503    0.7609    0.0000 H   0  0  0  0  0  0  0  0  0  0  0  0
    6.1848    1.2397    0.0000 H   0  0  0  0  0  0  0  0  0  0  0  0
    5.4541    3.4754    0.0000 H   0  0  0  0  0  0  0  0  0  0  0  0
    4.5786    3.4280    0.0000 H   0  0  0  0  0  0  0  0  0  0  0  0
    4.6260    2.5524    0.0000 H   0  0  0  0  0  0  0  0  0  0  0  0
    2.0000   -1.8570    0.0000 H   0  0  0  0  0  0  0  0  0  0  0  0
    1.3800   -2.4770    0.0000 H   0  0  0  0  0  0  0  0  0  0  0  0
    2.0000   -3.0970    0.0000 H   0  0  0  0  0  0  0  0  0  0  0  0
  1  8  1  0  0  0  0
  1 12  1  0  0  0  0
  2  9  1  0  0  0  0
  2 19  1  0  0  0  0
 10  3  1  6  0  0  0
  3 21  1  0  0  0  0
  4 15  1  0  0  0  0
  4 22  1  0  0  0  0
  5 19  2  0  0  0  0
  6 21  2  0  0  0  0
  7 22  2  0  0  0  0
  8  9  1  0  0  0  0
  8 10  1  0  0  0  0
  8 32  1  0  0  0  0
  9 13  1  0  0  0  0
  9 14  1  0  0  0  0
 10 11  1  0  0  0  0
 10 33  1  0  0  0  0
 11 12  2  0  0  0  0
 11 15  1  0  0  0  0
 12 16  1  0  0  0  0
 13 37  1  0  0  0  0
 13 38  1  0  0  0  0
 13 39  1  0  0  0  0
 14 34  1  0  0  0  0
 14 35  1  0  0  0  0
 14 36  1  0  0  0  0
 15 17  2  0  0  0  0
 16 18  2  0  0  0  0
 16 40  1  0  0  0  0
 17 18  1  0  0  0  0
 17 20  1  0  0  0  0
 18 41  1  0  0  0  0
 19 24  1  0  0  0  0
 20 23  2  0  0  0  0
 20 42  1  0  0  0  0
 21 25  1  0  0  0  0
 22 23  1  0  0  0  0
 23 43  1  0  0  0  0
 24 26  1  0  0  0  0
 24 28  2  0  0  0  0
 25 27  2  0  0  0  0
 25 44  1  0  0  0  0
 26 45  1  0  0  0  0
 26 46  1  0  0  0  0
 26 47  1  0  0  0  0
 27 29  1  0  0  0  0
 27 30  1  0  0  0  0
 28 31  1  0  0  0  0
 28 48  1  0  0  0  0
 29 52  1  0  0  0  0
 29 53  1  0  0  0  0
 29 54  1  0  0  0  0
 30 49  1  0  0  0  0
 30 50  1  0  0  0  0
 30 51  1  0  0  0  0
 31 55  1  0  0  0  0
 31 56  1  0  0  0  0
 31 57  1  0  0  0  0
M  END
> <PUBCHEM_COMPOUND_CID>
53297351

> <PUBCHEM_COMPOUND_CANONICALIZED>
1

> <PUBCHEM_CACTVS_COMPLEXITY>
831

> <PUBCHEM_CACTVS_HBOND_ACCEPTOR>
7

> <PUBCHEM_CACTVS_HBOND_DONOR>
0

> <PUBCHEM_CACTVS_ROTATABLE_BOND>
7

> <PUBCHEM_CACTVS_SUBSKEYS>
AAADceB4OAAAAAAAAAAAAAAAAAAAASAAAAAwQAAAAAAAAEiBAAAAGgAAAAAADFSgmAIyDoAABACIAiDSCAACCAAgIAAIiAEGCMgNJyKEMRqCOiClwBUKqYfA4PwOIAACCAAIAABAAAQQABAAAAAAAAAAAA==

> <PUBCHEM_IUPAC_OPENEYE_NAME>
[1-methyl-1-[(9R)-9-(3-methylbut-2-enoyloxy)-2-oxo-8,9-dihydrofuro[2,3-h]chromen-8-yl]ethyl] (E)-2-methylbut-2-enoate

> <PUBCHEM_IUPAC_CAS_NAME>
(E)-2-methyl-2-butenoic acid 2-[(9R)-9-(3-methyl-1-oxobut-2-enoxy)-2-oxo-8,9-dihydrofuro[2,3-h][1]benzopyran-8-yl]propan-2-yl ester

> <PUBCHEM_IUPAC_NAME>
2-[(9R)-9-(3-methylbut-2-enoyloxy)-2-oxo-8,9-dihydrofuro[2,3-h]chromen-8-yl]propan-2-yl (E)-2-methylbut-2-enoate

> <PUBCHEM_IUPAC_SYSTEMATIC_NAME>
2-[(9R)-9-(3-methylbut-2-enoyloxy)-2-oxidanylidene-8,9-dihydrofuro[2,3-h]chromen-8-yl]propan-2-yl (E)-2-methylbut-2-enoate

> <PUBCHEM_IUPAC_TRADITIONAL_NAME>
(E)-2-methylbut-2-enoic acid [1-[(9R)-2-keto-9-(3-methylbut-2-enoyloxy)-8,9-dihydrofuro[2,3-h]chromen-8-yl]-1-methyl-ethyl] ester

> <PUBCHEM_IUPAC_INCHI>
InChI=1S/C24H26O7/c1-7-14(4)23(27)31-24(5,6)22-21(30-18(26)12-13(2)3)19-16(28-22)10-8-15-9-11-17(25)29-20(15)19/h7-12,21-22H,1-6H3/b14-7+/t21-,22?/m1/s1

> <PUBCHEM_IUPAC_INCHIKEY>
CRQDVOOXGMAUAP-WSRXYXLGSA-N

> <PUBCHEM_XLOGP3_AA>
4.6

> <PUBCHEM_EXACT_MASS>
426.167853

> <PUBCHEM_MOLECULAR_FORMULA>
C24H26O7

> <PUBCHEM_MOLECULAR_WEIGHT>
426.45904

> <PUBCHEM_OPENEYE_CAN_SMILES>
CC=C(C)C(=O)OC(C)(C)C1C(C2=C(O1)C=CC3=C2OC(=O)C=C3)OC(=O)C=C(C)C

> <PUBCHEM_OPENEYE_ISO_SMILES>
C/C=C(\C)/C(=O)OC(C)(C)C1[C@@H](C2=C(O1)C=CC3=C2OC(=O)C=C3)OC(=O)C=C(C)C

> <PUBCHEM_CACTVS_TPSA>
88.1

> <PUBCHEM_MONOISOTOPIC_WEIGHT>
426.167853

> <PUBCHEM_TOTAL_CHARGE>
0

> <PUBCHEM_HEAVY_ATOM_COUNT>
31

> <PUBCHEM_ATOM_DEF_STEREO_COUNT>
1

> <PUBCHEM_ATOM_UDEF_STEREO_COUNT>
1

> <PUBCHEM_BOND_DEF_STEREO_COUNT>
1

> <PUBCHEM_BOND_UDEF_STEREO_COUNT>
0

> <PUBCHEM_ISOTOPIC_ATOM_COUNT>
0

> <PUBCHEM_COMPONENT_COUNT>
1

> <PUBCHEM_CACTVS_TAUTO_COUNT>
1

> <PUBCHEM_COORDINATE_TYPE>
1
5
255

> <PUBCHEM_BONDANNOTATIONS>
11  12  8
11  15  8
12  16  8
15  17  8
16  18  8
17  18  8
17  20  8
20  23  8
22  23  8
10  3  6
4  15  8
4  22  8
8  9  3

$$$$

