5281225
  -OEChem-07051212553D

 69 69  0     1  0  0  0  0  0999 V2000
    6.2106    1.6208    0.6562 O   0  0  0  0  0  0  0  0  0  0  0  0
    7.6771   -0.6264   -1.8414 O   0  0  0  0  0  0  0  0  0  0  0  0
  -13.0668    0.5890    0.1874 O   0  0  0  0  0  0  0  0  0  0  0  0
  -12.0777   -1.3485   -0.4997 O   0  0  0  0  0  0  0  0  0  0  0  0
    7.4757   -0.3840    1.2428 C   0  0  0  0  0  0  0  0  0  0  0  0
    6.5856    0.3246    0.1415 C   0  0  2  0  0  0  0  0  0  0  0  0
    7.3600    0.6087   -1.1918 C   0  0  1  0  0  0  0  0  0  0  0  0
    8.7962    0.4116    1.4286 C   0  0  0  0  0  0  0  0  0  0  0  0
    8.6797    1.3580   -0.9103 C   0  0  0  0  0  0  0  0  0  0  0  0
    9.5502    0.6509    0.1239 C   0  0  0  0  0  0  0  0  0  0  0  0
    7.8170   -1.8582    0.9149 C   0  0  0  0  0  0  0  0  0  0  0  0
    6.7595   -0.4027    2.6198 C   0  0  0  0  0  0  0  0  0  0  0  0
    6.5350    1.4377   -2.1953 C   0  0  0  0  0  0  0  0  0  0  0  0
    5.3068   -0.4308   -0.1322 C   0  0  0  0  0  0  0  0  0  0  0  0
    4.0831    0.0939    0.0459 C   0  0  0  0  0  0  0  0  0  0  0  0
    2.8058   -0.5757   -0.1967 C   0  0  0  0  0  0  0  0  0  0  0  0
    2.8510   -2.0016   -0.6959 C   0  0  0  0  0  0  0  0  0  0  0  0
    1.5999    0.0004   -0.0004 C   0  0  0  0  0  0  0  0  0  0  0  0
    0.2838   -0.5717   -0.2091 C   0  0  0  0  0  0  0  0  0  0  0  0
   -0.8495    0.1103    0.0249 C   0  0  0  0  0  0  0  0  0  0  0  0
   -2.1887   -0.4337   -0.1466 C   0  0  0  0  0  0  0  0  0  0  0  0
   -2.2021   -1.8742   -0.5868 C   0  0  0  0  0  0  0  0  0  0  0  0
   -3.3417    0.2271    0.0805 C   0  0  0  0  0  0  0  0  0  0  0  0
   -4.6908   -0.2803   -0.0788 C   0  0  0  0  0  0  0  0  0  0  0  0
   -5.7830    0.4595    0.1741 C   0  0  0  0  0  0  0  0  0  0  0  0
   -7.1289   -0.0517    0.0087 C   0  0  0  0  0  0  0  0  0  0  0  0
   -8.2851    0.6052    0.2341 C   0  0  0  0  0  0  0  0  0  0  0  0
   -8.4141    2.0370    0.6830 C   0  0  0  0  0  0  0  0  0  0  0  0
   -9.5766   -0.0377    0.0024 C   0  0  0  0  0  0  0  0  0  0  0  0
  -10.7670    0.5464    0.2021 C   0  0  0  0  0  0  0  0  0  0  0  0
  -12.0047   -0.2039   -0.0860 C   0  0  0  0  0  0  0  0  0  0  0  0
    9.4598   -0.1251    2.1195 H   0  0  0  0  0  0  0  0  0  0  0  0
    8.6005    1.3789    1.9084 H   0  0  0  0  0  0  0  0  0  0  0  0
    8.4846    2.3854   -0.5806 H   0  0  0  0  0  0  0  0  0  0  0  0
    9.2645    1.4378   -1.8361 H   0  0  0  0  0  0  0  0  0  0  0  0
   10.4367    1.2631    0.3272 H   0  0  0  0  0  0  0  0  0  0  0  0
    9.9200   -0.2974   -0.2819 H   0  0  0  0  0  0  0  0  0  0  0  0
    6.9181   -2.4798    0.8504 H   0  0  0  0  0  0  0  0  0  0  0  0
    8.3739   -1.9751   -0.0161 H   0  0  0  0  0  0  0  0  0  0  0  0
    8.4413   -2.2933    1.7051 H   0  0  0  0  0  0  0  0  0  0  0  0
    7.3959   -0.8574    3.3882 H   0  0  0  0  0  0  0  0  0  0  0  0
    6.5120    0.6076    2.9629 H   0  0  0  0  0  0  0  0  0  0  0  0
    5.8302   -0.9810    2.5819 H   0  0  0  0  0  0  0  0  0  0  0  0
    7.1166    1.6307   -3.1048 H   0  0  0  0  0  0  0  0  0  0  0  0
    6.2285    2.4038   -1.7823 H   0  0  0  0  0  0  0  0  0  0  0  0
    5.6421    0.8960   -2.5251 H   0  0  0  0  0  0  0  0  0  0  0  0
    5.4147   -1.4407   -0.5163 H   0  0  0  0  0  0  0  0  0  0  0  0
    7.0032    2.1387    0.8619 H   0  0  0  0  0  0  0  0  0  0  0  0
    8.1745   -0.4251   -2.6522 H   0  0  0  0  0  0  0  0  0  0  0  0
    3.9751    1.1119    0.4129 H   0  0  0  0  0  0  0  0  0  0  0  0
    3.3988   -2.6288    0.0181 H   0  0  0  0  0  0  0  0  0  0  0  0
    1.8980   -2.5029   -0.8543 H   0  0  0  0  0  0  0  0  0  0  0  0
    3.3749   -2.0422   -1.6585 H   0  0  0  0  0  0  0  0  0  0  0  0
    1.5915    1.0295    0.3608 H   0  0  0  0  0  0  0  0  0  0  0  0
    0.2362   -1.5900   -0.5622 H   0  0  0  0  0  0  0  0  0  0  0  0
   -0.7975    1.1388    0.3770 H   0  0  0  0  0  0  0  0  0  0  0  0
   -3.1898   -2.3242   -0.6889 H   0  0  0  0  0  0  0  0  0  0  0  0
   -1.6778   -2.5098    0.1374 H   0  0  0  0  0  0  0  0  0  0  0  0
   -1.7322   -1.9845   -1.5717 H   0  0  0  0  0  0  0  0  0  0  0  0
   -3.2730    1.2627    0.4135 H   0  0  0  0  0  0  0  0  0  0  0  0
   -4.8384   -1.2966   -0.4232 H   0  0  0  0  0  0  0  0  0  0  0  0
   -5.6591    1.4810    0.5178 H   0  0  0  0  0  0  0  0  0  0  0  0
   -7.1854   -1.0853   -0.3339 H   0  0  0  0  0  0  0  0  0  0  0  0
   -7.4478    2.5261    0.8294 H   0  0  0  0  0  0  0  0  0  0  0  0
   -8.9442    2.6425   -0.0613 H   0  0  0  0  0  0  0  0  0  0  0  0
   -8.9318    2.1049    1.6468 H   0  0  0  0  0  0  0  0  0  0  0  0
   -9.5368   -1.0627   -0.3616 H   0  0  0  0  0  0  0  0  0  0  0  0
  -10.8907    1.5603    0.5638 H   0  0  0  0  0  0  0  0  0  0  0  0
  -13.9189    0.1352    0.0128 H   0  0  0  0  0  0  0  0  0  0  0  0
  1  6  1  0  0  0  0
  1 48  1  0  0  0  0
  2  7  1  0  0  0  0
  2 49  1  0  0  0  0
  3 31  1  0  0  0  0
  3 69  1  0  0  0  0
  4 31  2  0  0  0  0
  5  6  1  0  0  0  0
  5  8  1  0  0  0  0
  5 11  1  0  0  0  0
  5 12  1  0  0  0  0
  6  7  1  0  0  0  0
  6 14  1  0  0  0  0
  7  9  1  0  0  0  0
  7 13  1  0  0  0  0
  8 10  1  0  0  0  0
  8 32  1  0  0  0  0
  8 33  1  0  0  0  0
  9 10  1  0  0  0  0
  9 34  1  0  0  0  0
  9 35  1  0  0  0  0
 10 36  1  0  0  0  0
 10 37  1  0  0  0  0
 11 38  1  0  0  0  0
 11 39  1  0  0  0  0
 11 40  1  0  0  0  0
 12 41  1  0  0  0  0
 12 42  1  0  0  0  0
 12 43  1  0  0  0  0
 13 44  1  0  0  0  0
 13 45  1  0  0  0  0
 13 46  1  0  0  0  0
 14 15  2  0  0  0  0
 14 47  1  0  0  0  0
 15 16  1  0  0  0  0
 15 50  1  0  0  0  0
 16 17  1  0  0  0  0
 16 18  2  0  0  0  0
 17 51  1  0  0  0  0
 17 52  1  0  0  0  0
 17 53  1  0  0  0  0
 18 19  1  0  0  0  0
 18 54  1  0  0  0  0
 19 20  2  0  0  0  0
 19 55  1  0  0  0  0
 20 21  1  0  0  0  0
 20 56  1  0  0  0  0
 21 22  1  0  0  0  0
 21 23  2  0  0  0  0
 22 57  1  0  0  0  0
 22 58  1  0  0  0  0
 22 59  1  0  0  0  0
 23 24  1  0  0  0  0
 23 60  1  0  0  0  0
 24 25  2  0  0  0  0
 24 61  1  0  0  0  0
 25 26  1  0  0  0  0
 25 62  1  0  0  0  0
 26 27  2  0  0  0  0
 26 63  1  0  0  0  0
 27 28  1  0  0  0  0
 27 29  1  0  0  0  0
 28 64  1  0  0  0  0
 28 65  1  0  0  0  0
 28 66  1  0  0  0  0
 29 30  2  0  0  0  0
 29 67  1  0  0  0  0
 30 31  1  0  0  0  0
 30 68  1  0  0  0  0
M  END
> <PUBCHEM_COMPOUND_CID>
5281225

> <PUBCHEM_CONFORMER_RMSD>
1

> <PUBCHEM_CONFORMER_DIVERSEORDER>
1
6
32
49
47
25
50
2
12
11
15
17
10
21
22
13
46
27
7
34
23
31
5
42
38
14
30
8
16
9
37
45
4
26
19
40
36
33
20
43
29
28
24
18
3
48
39
41
35
44

> <PUBCHEM_MMFF94_PARTIAL_CHARGES>
38
1 -0.68
14 -0.29
15 -0.15
16 -0.14
17 0.14
18 -0.15
19 -0.15
2 -0.68
20 -0.15
21 -0.14
22 0.14
23 -0.15
24 -0.15
25 -0.15
26 -0.15
27 -0.14
28 0.14
29 -0.15
3 -0.65
30 -0.14
31 0.71
4 -0.57
47 0.15
48 0.4
49 0.4
50 0.15
54 0.15
55 0.15
56 0.15
6 0.42
60 0.15
61 0.15
62 0.15
63 0.15
67 0.15
68 0.15
69 0.5
7 0.28

> <PUBCHEM_EFFECTIVE_ROTOR_COUNT>
9.2

> <PUBCHEM_PHARMACOPHORE_FEATURES>
12
1 1 acceptor
1 1 donor
1 17 hydrophobe
1 2 acceptor
1 2 donor
1 22 hydrophobe
1 28 hydrophobe
1 3 acceptor
1 4 acceptor
3 3 4 31 anion
3 5 11 12 hydrophobe
6 5 6 7 8 9 10 rings

> <PUBCHEM_HEAVY_ATOM_COUNT>
31

> <PUBCHEM_ATOM_DEF_STEREO_COUNT>
2

> <PUBCHEM_ATOM_UDEF_STEREO_COUNT>
0

> <PUBCHEM_BOND_DEF_STEREO_COUNT>
7

> <PUBCHEM_BOND_UDEF_STEREO_COUNT>
0

> <PUBCHEM_ISOTOPIC_ATOM_COUNT>
0

> <PUBCHEM_COMPONENT_COUNT>
1

> <PUBCHEM_CACTVS_TAUTO_COUNT>
1

> <PUBCHEM_CONFORMER_ID>
005095C900000001

> <PUBCHEM_MMFF94_ENERGY>
90.7464

> <PUBCHEM_FEATURE_SELFOVERLAP>
60.947

> <PUBCHEM_SHAPE_FINGERPRINT>
10 15 18202001027519858794
11061554 47 17749390390804957433
11966995 178 17530686515559053714
12013929 94 17821729409239940975
12089408 11 17988924479367307875
12559415 86 6194576498170449155
12559415 90 17418099836901290077
12664476 115 18273498971041653845
13740195 50 16558751213864985405
14251764 46 7204774791979394337
14344974 52 17240769450263501187
15061470 23 17561085813603110197
15065858 18 15410895155153504665
15510794 2 15502375608810313175
155225 1 18408040701797793236
15530121 191 17240491329630733929
16728433 110 15195563485811654903
1754911 235 15936413351355646561
20812841 46 17060338509666320300
21362267 2 18114479885418952057
21362267 20 17775564213992332955
21362267 313 17916029143352712073
21792934 111 14189571914874362831
22082593 10 17418094339528248685
232437 2 18407760339998132635
23581129 1 18411982463841605985
24893992 56 18260551095867880163
3092352 35 18341896298484716915
6081469 158 6771866264507685835
67123 10 18261110777852244751
9663363 56 15719393932762061882
9937071 3 13973963225159496009

> <PUBCHEM_SHAPE_MULTIPOLES>
614.49
51.68
1.49
1.36
132.25
0.03
0.2
-8.09
5.67
-1.98
-0.22
-3.64
0.02
-2.79

> <PUBCHEM_SHAPE_SELFOVERLAP>
1240.48

> <PUBCHEM_SHAPE_VOLUME>
358.1

> <PUBCHEM_COORDINATE_TYPE>
2
5
10

$$$$

