11524
  -OEChem-06261205473D

 22 22  0     0  0  0  0  0  0999 V2000
    2.8069   -0.0059    0.0987 O   0  0  0  0  0  0  0  0  0  0  0  0
   -1.4283   -0.0019    0.3362 C   0  0  0  0  0  0  0  0  0  0  0  0
   -0.7227   -1.2646   -0.1781 C   0  0  0  0  0  0  0  0  0  0  0  0
   -0.7294    1.2646   -0.1774 C   0  0  0  0  0  0  0  0  0  0  0  0
    1.4542    0.0055   -0.3441 C   0  0  0  0  0  0  0  0  0  0  0  0
    0.7638   -1.2570    0.1656 C   0  0  0  0  0  0  0  0  0  0  0  0
    0.7572    1.2650    0.1659 C   0  0  0  0  0  0  0  0  0  0  0  0
   -2.9017   -0.0057   -0.0667 C   0  0  0  0  0  0  0  0  0  0  0  0
   -1.3789   -0.0021    1.4334 H   0  0  0  0  0  0  0  0  0  0  0  0
   -0.8408   -1.3415   -1.2666 H   0  0  0  0  0  0  0  0  0  0  0  0
   -1.1897   -2.1568    0.2556 H   0  0  0  0  0  0  0  0  0  0  0  0
   -1.2011    2.1541    0.2568 H   0  0  0  0  0  0  0  0  0  0  0  0
   -0.8480    1.3414   -1.2658 H   0  0  0  0  0  0  0  0  0  0  0  0
    1.4613    0.0005   -1.4406 H   0  0  0  0  0  0  0  0  0  0  0  0
    0.8957   -1.3388    1.2524 H   0  0  0  0  0  0  0  0  0  0  0  0
    1.2519   -2.1428   -0.2587 H   0  0  0  0  0  0  0  0  0  0  0  0
    1.2392    2.1538   -0.2590 H   0  0  0  0  0  0  0  0  0  0  0  0
    0.8898    1.3473    1.2526 H   0  0  0  0  0  0  0  0  0  0  0  0
   -3.4144    0.8777    0.3283 H   0  0  0  0  0  0  0  0  0  0  0  0
   -3.0174   -0.0057   -1.1558 H   0  0  0  0  0  0  0  0  0  0  0  0
   -3.4097   -0.8920    0.3278 H   0  0  0  0  0  0  0  0  0  0  0  0
    3.2318    0.8018   -0.2370 H   0  0  0  0  0  0  0  0  0  0  0  0
  1  5  1  0  0  0  0
  1 22  1  0  0  0  0
  2  3  1  0  0  0  0
  2  4  1  0  0  0  0
  2  8  1  0  0  0  0
  2  9  1  0  0  0  0
  3  6  1  0  0  0  0
  3 10  1  0  0  0  0
  3 11  1  0  0  0  0
  4  7  1  0  0  0  0
  4 12  1  0  0  0  0
  4 13  1  0  0  0  0
  5  6  1  0  0  0  0
  5  7  1  0  0  0  0
  5 14  1  0  0  0  0
  6 15  1  0  0  0  0
  6 16  1  0  0  0  0
  7 17  1  0  0  0  0
  7 18  1  0  0  0  0
  8 19  1  0  0  0  0
  8 20  1  0  0  0  0
  8 21  1  0  0  0  0
M  END
> <PUBCHEM_COMPOUND_CID>
11524

> <PUBCHEM_CONFORMER_RMSD>
0.4

> <PUBCHEM_CONFORMER_DIVERSEORDER>
1
3
4
5
2
6

> <PUBCHEM_MMFF94_PARTIAL_CHARGES>
3
1 -0.68
22 0.4
5 0.28

> <PUBCHEM_EFFECTIVE_ROTOR_COUNT>
1.2

> <PUBCHEM_PHARMACOPHORE_FEATURES>
3
1 1 acceptor
1 1 donor
6 2 3 4 5 6 7 rings

> <PUBCHEM_HEAVY_ATOM_COUNT>
8

> <PUBCHEM_ATOM_DEF_STEREO_COUNT>
0

> <PUBCHEM_ATOM_UDEF_STEREO_COUNT>
0

> <PUBCHEM_BOND_DEF_STEREO_COUNT>
0

> <PUBCHEM_BOND_UDEF_STEREO_COUNT>
0

> <PUBCHEM_ISOTOPIC_ATOM_COUNT>
0

> <PUBCHEM_COMPONENT_COUNT>
1

> <PUBCHEM_CACTVS_TAUTO_COUNT>
1

> <PUBCHEM_CONFORMER_ID>
00002D0400000001

> <PUBCHEM_MMFF94_ENERGY>
6.3239

> <PUBCHEM_FEATURE_SELFOVERLAP>
15.223

> <PUBCHEM_SHAPE_FINGERPRINT>
16714656 1 18410571786207323454
18185500 45 18410294696365984607
20096714 4 18337950095475653779
21040471 1 18267019453616772277
23235685 24 18410577288002472237
23402655 69 18193857040321550701
23552423 10 18055917593355206430
2748010 2 18122342372080813263
29004967 10 18272642459223724577
5084963 1 18333167262807519513

> <PUBCHEM_SHAPE_MULTIPOLES>
158.77
3.24
1.43
0.65
0.36
0
0
-0.01
0
-0.06
0
0.03
0
0

> <PUBCHEM_SHAPE_SELFOVERLAP>
303.537

> <PUBCHEM_SHAPE_VOLUME>
97.5

> <PUBCHEM_COORDINATE_TYPE>
2
5
10

$$$$

