5280719
  -OEChem-07051212493D

 55 55  0     1  0  0  0  0  0999 V2000
   -1.8638    4.1430    0.6267 O   0  0  0  0  0  0  0  0  0  0  0  0
   -5.2266    0.8932    0.1775 O   0  0  0  0  0  0  0  0  0  0  0  0
    2.0334    1.2151   -1.6892 O   0  0  0  0  0  0  0  0  0  0  0  0
   -0.1108   -2.9650    2.2954 O   0  0  0  0  0  0  0  0  0  0  0  0
    1.0517   -2.1743    0.5145 O   0  0  0  0  0  0  0  0  0  0  0  0
   -1.7986    1.7526    0.2422 C   0  0  2  0  0  0  0  0  0  0  0  0
   -2.8347    0.7047   -0.1923 C   0  0  2  0  0  0  0  0  0  0  0  0
   -2.4568    3.0911   -0.1182 C   0  0  1  0  0  0  0  0  0  0  0  0
   -3.9216    2.9159    0.2759 C   0  0  0  0  0  0  0  0  0  0  0  0
   -4.1302    1.4339    0.1006 C   0  0  0  0  0  0  0  0  0  0  0  0
   -2.7205   -0.6061    0.5658 C   0  0  0  0  0  0  0  0  0  0  0  0
   -0.4721    1.5590   -0.4200 C   0  0  0  0  0  0  0  0  0  0  0  0
   -3.4134   -1.8022   -0.0308 C   0  0  0  0  0  0  0  0  0  0  0  0
    0.6669    1.3648    0.2568 C   0  0  0  0  0  0  0  0  0  0  0  0
   -2.9165   -2.6535   -0.9410 C   0  0  0  0  0  0  0  0  0  0  0  0
    1.9592    1.1844   -0.4628 C   0  0  0  0  0  0  0  0  0  0  0  0
    3.1895    0.9712    0.3965 C   0  0  0  0  0  0  0  0  0  0  0  0
   -1.5385   -2.5357   -1.5245 C   0  0  0  0  0  0  0  0  0  0  0  0
    4.4686    0.8771   -0.4310 C   0  0  0  0  0  0  0  0  0  0  0  0
   -0.6526   -3.7623   -1.2661 C   0  0  0  0  0  0  0  0  0  0  0  0
    5.7120    0.6449    0.4319 C   0  0  0  0  0  0  0  0  0  0  0  0
    6.9695    0.5248   -0.4297 C   0  0  0  0  0  0  0  0  0  0  0  0
   -0.4414   -4.0750    0.2184 C   0  0  0  0  0  0  0  0  0  0  0  0
    8.2033    0.2628    0.4195 C   0  0  0  0  0  0  0  0  0  0  0  0
    0.2443   -2.9643    0.9839 C   0  0  0  0  0  0  0  0  0  0  0  0
   -1.6695    1.7141    1.3346 H   0  0  0  0  0  0  0  0  0  0  0  0
   -2.7878    0.5442   -1.2775 H   0  0  0  0  0  0  0  0  0  0  0  0
   -2.3635    3.3142   -1.1884 H   0  0  0  0  0  0  0  0  0  0  0  0
   -4.1063    3.1945    1.3176 H   0  0  0  0  0  0  0  0  0  0  0  0
   -4.5810    3.4821   -0.3866 H   0  0  0  0  0  0  0  0  0  0  0  0
   -3.1182   -0.4808    1.5827 H   0  0  0  0  0  0  0  0  0  0  0  0
   -1.6648   -0.8525    0.7203 H   0  0  0  0  0  0  0  0  0  0  0  0
   -0.4624    1.5852   -1.5072 H   0  0  0  0  0  0  0  0  0  0  0  0
   -2.3610    4.9550    0.4292 H   0  0  0  0  0  0  0  0  0  0  0  0
   -4.4326   -1.9744    0.3099 H   0  0  0  0  0  0  0  0  0  0  0  0
    0.6880    1.3324    1.3405 H   0  0  0  0  0  0  0  0  0  0  0  0
   -3.5411   -3.4710   -1.2913 H   0  0  0  0  0  0  0  0  0  0  0  0
    3.0493    0.0468    0.9682 H   0  0  0  0  0  0  0  0  0  0  0  0
    3.2678    1.8088    1.0989 H   0  0  0  0  0  0  0  0  0  0  0  0
   -1.0173   -1.6310   -1.1994 H   0  0  0  0  0  0  0  0  0  0  0  0
   -1.6524   -2.4255   -2.6107 H   0  0  0  0  0  0  0  0  0  0  0  0
    4.3740    0.0589   -1.1563 H   0  0  0  0  0  0  0  0  0  0  0  0
    4.5967    1.7979   -1.0141 H   0  0  0  0  0  0  0  0  0  0  0  0
    5.8269    1.4733    1.1412 H   0  0  0  0  0  0  0  0  0  0  0  0
    5.5813   -0.2707    1.0215 H   0  0  0  0  0  0  0  0  0  0  0  0
   -1.0983   -4.6409   -1.7489 H   0  0  0  0  0  0  0  0  0  0  0  0
    0.3191   -3.5978   -1.7479 H   0  0  0  0  0  0  0  0  0  0  0  0
    7.1162    1.4465   -1.0046 H   0  0  0  0  0  0  0  0  0  0  0  0
    6.8510   -0.2923   -1.1508 H   0  0  0  0  0  0  0  0  0  0  0  0
    0.1826   -4.9704    0.3175 H   0  0  0  0  0  0  0  0  0  0  0  0
   -1.4045   -4.2926    0.6933 H   0  0  0  0  0  0  0  0  0  0  0  0
    8.3689    1.0770    1.1322 H   0  0  0  0  0  0  0  0  0  0  0  0
    9.0906    0.1817   -0.2160 H   0  0  0  0  0  0  0  0  0  0  0  0
    8.1015   -0.6710    0.9817 H   0  0  0  0  0  0  0  0  0  0  0  0
    0.3442   -2.2554    2.7969 H   0  0  0  0  0  0  0  0  0  0  0  0
  1  8  1  0  0  0  0
  1 34  1  0  0  0  0
  2 10  2  0  0  0  0
  3 16  2  0  0  0  0
  4 25  1  0  0  0  0
  4 55  1  0  0  0  0
  5 25  2  0  0  0  0
  6  7  1  0  0  0  0
  6  8  1  0  0  0  0
  6 12  1  0  0  0  0
  6 26  1  0  0  0  0
  7 10  1  0  0  0  0
  7 11  1  0  0  0  0
  7 27  1  0  0  0  0
  8  9  1  0  0  0  0
  8 28  1  0  0  0  0
  9 10  1  0  0  0  0
  9 29  1  0  0  0  0
  9 30  1  0  0  0  0
 11 13  1  0  0  0  0
 11 31  1  0  0  0  0
 11 32  1  0  0  0  0
 12 14  2  0  0  0  0
 12 33  1  0  0  0  0
 13 15  2  0  0  0  0
 13 35  1  0  0  0  0
 14 16  1  0  0  0  0
 14 36  1  0  0  0  0
 15 18  1  0  0  0  0
 15 37  1  0  0  0  0
 16 17  1  0  0  0  0
 17 19  1  0  0  0  0
 17 38  1  0  0  0  0
 17 39  1  0  0  0  0
 18 20  1  0  0  0  0
 18 40  1  0  0  0  0
 18 41  1  0  0  0  0
 19 21  1  0  0  0  0
 19 42  1  0  0  0  0
 19 43  1  0  0  0  0
 20 23  1  0  0  0  0
 20 46  1  0  0  0  0
 20 47  1  0  0  0  0
 21 22  1  0  0  0  0
 21 44  1  0  0  0  0
 21 45  1  0  0  0  0
 22 24  1  0  0  0  0
 22 48  1  0  0  0  0
 22 49  1  0  0  0  0
 23 25  1  0  0  0  0
 23 50  1  0  0  0  0
 23 51  1  0  0  0  0
 24 52  1  0  0  0  0
 24 53  1  0  0  0  0
 24 54  1  0  0  0  0
M  END
> <PUBCHEM_COMPOUND_CID>
5280719

> <PUBCHEM_CONFORMER_RMSD>
1.2

> <PUBCHEM_CONFORMER_DIVERSEORDER>
2
105
113
39
124
47
132
104
12
167
152
52
19
34
65
76
149
70
88
75
56
94
133
111
99
83
136
106
117
7
154
79
73
4
107
43
174
169
36
57
115
97
175
15
161
16
44
77
116
159
131
9
176
148
53
139
170
35
11
59
22
171
163
81
162
86
178
145
66
46
157
18
80
108
122
144
67
128
1
78
123
181
30
48
32
160
20
23
125
26
82
24
28
90
130
126
110
31
137
142
150
98
54
168
61
143
135
40
112
50
158
102
127
118
173
45
166
138
109
41
96
155
153
140
156
6
129
33
134
58
62
3
92
179
14
89
180
10
93
38
141
103
37
25
17
119
69
55
164
60
68
101
21
71
172
182
147
51
91
74
5
64
29
84
146
8
151
100
42
95
63
165
121
183
120
49
13
87
27
114
85
177
72

> <PUBCHEM_MMFF94_PARTIAL_CHARGES>
26
1 -0.68
10 0.45
11 0.14
12 -0.29
13 -0.29
14 -0.14
15 -0.29
16 0.49
17 0.06
18 0.14
2 -0.57
23 0.06
25 0.66
3 -0.57
33 0.15
34 0.4
35 0.15
36 0.15
37 0.15
4 -0.65
5 -0.57
55 0.5
6 0.14
7 0.06
8 0.28
9 0.06

> <PUBCHEM_EFFECTIVE_ROTOR_COUNT>
12.8

> <PUBCHEM_PHARMACOPHORE_FEATURES>
11
1 1 acceptor
1 1 donor
1 2 acceptor
1 24 hydrophobe
1 3 acceptor
1 4 acceptor
1 5 acceptor
3 4 5 25 anion
4 15 18 20 23 hydrophobe
4 17 19 21 22 hydrophobe
5 6 7 8 9 10 rings

> <PUBCHEM_HEAVY_ATOM_COUNT>
25

> <PUBCHEM_ATOM_DEF_STEREO_COUNT>
3

> <PUBCHEM_ATOM_UDEF_STEREO_COUNT>
0

> <PUBCHEM_BOND_DEF_STEREO_COUNT>
2

> <PUBCHEM_BOND_UDEF_STEREO_COUNT>
0

> <PUBCHEM_ISOTOPIC_ATOM_COUNT>
0

> <PUBCHEM_COMPONENT_COUNT>
1

> <PUBCHEM_CACTVS_TAUTO_COUNT>
21

> <PUBCHEM_CONFORMER_ID>
005093CF00000002

> <PUBCHEM_MMFF94_ENERGY>
25.1888

> <PUBCHEM_FEATURE_SELFOVERLAP>
55.877

> <PUBCHEM_SHAPE_FINGERPRINT>
10871710 139 18336555945298019767
11513181 2 18261395589555399830
11524674 6 17675928702984613612
11756154 5 17771624551416419466
12553582 1 17832978348412960045
12788726 201 18196075651999416140
14251740 79 18199479779001992726
14251751 93 18410575071899704334
14363568 33 17687445180952969755
14659021 117 18121231878617274482
14844126 61 18337390431219693387
14866123 147 18337955593071222614
16719943 64 18410854348117195806
20771845 165 17698168687604410645
21236236 1 18337111173073744358
23559900 14 18262244313663242800
338550 245 18342733036077049214
3610482 184 18129647609931867636
397830 11 17750528282771887824
445580 42 18057883541995462298
5265222 85 18337944585802967356

> <PUBCHEM_SHAPE_MULTIPOLES>
485.14
12.87
5.35
1.19
34.41
3.2
-0.09
-6.43
-0.4
-6.36
-0.26
0.02
1
-1.05

> <PUBCHEM_SHAPE_SELFOVERLAP>
957.336

> <PUBCHEM_SHAPE_VOLUME>
289

> <PUBCHEM_COORDINATE_TYPE>
2
5
10

$$$$

