160766
  -OEChem-07051212483D

 16 15  0     0  0  0  0  0  0999 V2000
   -1.2825    0.1720    0.5878 S   0  3  0  0  0  0  0  0  0  0  0  0
    2.4411   -0.7249   -0.4531 O   0  0  0  0  0  0  0  0  0  0  0  0
    1.4884    1.0408    0.6134 O   0  0  0  0  0  0  0  0  0  0  0  0
    0.0820   -0.7618   -0.1441 C   0  0  0  0  0  0  0  0  0  0  0  0
   -2.5931   -0.9871    0.1319 C   0  0  0  0  0  0  0  0  0  0  0  0
   -1.5211    1.3085   -0.7983 C   0  0  0  0  0  0  0  0  0  0  0  0
    1.3851   -0.0475    0.0623 C   0  0  0  0  0  0  0  0  0  0  0  0
   -0.0872   -0.9244   -1.2117 H   0  0  0  0  0  0  0  0  0  0  0  0
    0.1371   -1.7246    0.3732 H   0  0  0  0  0  0  0  0  0  0  0  0
   -2.5115   -1.8763    0.7619 H   0  0  0  0  0  0  0  0  0  0  0  0
   -2.5175   -1.2784   -0.9187 H   0  0  0  0  0  0  0  0  0  0  0  0
   -3.5612   -0.5123    0.3095 H   0  0  0  0  0  0  0  0  0  0  0  0
   -2.4542    1.8561   -0.6427 H   0  0  0  0  0  0  0  0  0  0  0  0
   -1.5725    0.7753   -1.7507 H   0  0  0  0  0  0  0  0  0  0  0  0
   -0.6950    2.0230   -0.8249 H   0  0  0  0  0  0  0  0  0  0  0  0
    3.2848   -0.2417   -0.3227 H   0  0  0  0  0  0  0  0  0  0  0  0
  1  4  1  0  0  0  0
  1  5  1  0  0  0  0
  1  6  1  0  0  0  0
  2  7  1  0  0  0  0
  2 16  1  0  0  0  0
  3  7  2  0  0  0  0
  4  7  1  0  0  0  0
  4  8  1  0  0  0  0
  4  9  1  0  0  0  0
  5 10  1  0  0  0  0
  5 11  1  0  0  0  0
  5 12  1  0  0  0  0
  6 13  1  0  0  0  0
  6 14  1  0  0  0  0
  6 15  1  0  0  0  0
M  CHG  1   1   1
M  END
> <PUBCHEM_COMPOUND_CID>
160766

> <PUBCHEM_CONFORMER_RMSD>
0.4

> <PUBCHEM_CONFORMER_DIVERSEORDER>
1
6
8
2
3
7
4
5

> <PUBCHEM_EFFECTIVE_ROTOR_COUNT>
2

> <PUBCHEM_PHARMACOPHORE_FEATURES>
3
1 2 acceptor
1 3 acceptor
3 2 3 7 anion

> <PUBCHEM_HEAVY_ATOM_COUNT>
7

> <PUBCHEM_ATOM_DEF_STEREO_COUNT>
0

> <PUBCHEM_ATOM_UDEF_STEREO_COUNT>
0

> <PUBCHEM_BOND_DEF_STEREO_COUNT>
0

> <PUBCHEM_BOND_UDEF_STEREO_COUNT>
0

> <PUBCHEM_ISOTOPIC_ATOM_COUNT>
0

> <PUBCHEM_COMPONENT_COUNT>
1

> <PUBCHEM_CACTVS_TAUTO_COUNT>
1

> <PUBCHEM_CONFORMER_ID>
000273FE00000001

> <PUBCHEM_MMFF94_ENERGY>
7.774

> <PUBCHEM_FEATURE_SELFOVERLAP>
15.281

> <PUBCHEM_SHAPE_FINGERPRINT>
12897270 3 18342462534388429599
12932741 1 18409175432209988205
16714656 1 18343297059392544447
20096714 4 18260267447231470552
21040471 1 17842289343246810797
23552449 1 18272656765865594413
24536 1 17822299023441669745
29004967 10 17604143826332202106
5084963 1 18411976957693578082
5460574 1 10519990343999251154

> <PUBCHEM_SHAPE_MULTIPOLES>
136.17
3.4
1.28
0.83
0.3
0.26
0.02
-0.7
-0.18
-0.47
-0.16
-0.07
0.14
0.42

> <PUBCHEM_SHAPE_SELFOVERLAP>
230.967

> <PUBCHEM_SHAPE_VOLUME>
93.1

> <PUBCHEM_COORDINATE_TYPE>
2
5
10

$$$$

