47205717
  -OEChem-06241223002D

 34 34  0     0  0  0  0  0  0999 V2000
    2.0000   -3.1550    0.0000 Cl  0  0  0  0  0  0  0  0  0  0  0  0
    2.8660    0.3450    0.0000 O   0  0  0  0  0  0  0  0  0  0  0  0
    6.3301    1.3450    0.0000 O   0  0  0  0  0  0  0  0  0  0  0  0
    4.5981    0.3450    0.0000 N   0  0  0  0  0  0  0  0  0  0  0  0
    5.4641    2.8450    0.0000 N   0  0  0  0  0  0  0  0  0  0  0  0
    3.7320   -3.1550    0.0000 N   0  0  0  0  0  0  0  0  0  0  0  0
    5.4641   -0.1550    0.0000 C   0  0  0  0  0  0  0  0  0  0  0  0
    6.3301    0.3450    0.0000 C   0  0  0  0  0  0  0  0  0  0  0  0
    7.1962   -0.1550    0.0000 C   0  0  0  0  0  0  0  0  0  0  0  0
    4.5981    1.3450    0.0000 C   0  0  0  0  0  0  0  0  0  0  0  0
    3.7320   -0.1550    0.0000 C   0  0  0  0  0  0  0  0  0  0  0  0
    8.0622    0.3450    0.0000 C   0  0  0  0  0  0  0  0  0  0  0  0
    3.7320   -1.1550    0.0000 C   0  0  0  0  0  0  0  0  0  0  0  0
    5.4641    1.8450    0.0000 C   0  0  0  0  0  0  0  0  0  0  0  0
    2.8660   -1.6550    0.0000 C   0  0  0  0  0  0  0  0  0  0  0  0
    4.5981   -1.6550    0.0000 C   0  0  0  0  0  0  0  0  0  0  0  0
    2.8660   -2.6550    0.0000 C   0  0  0  0  0  0  0  0  0  0  0  0
    4.5981   -2.6550    0.0000 C   0  0  0  0  0  0  0  0  0  0  0  0
    5.0656   -0.6299    0.0000 H   0  0  0  0  0  0  0  0  0  0  0  0
    5.8626   -0.6299    0.0000 H   0  0  0  0  0  0  0  0  0  0  0  0
    6.7287    0.8199    0.0000 H   0  0  0  0  0  0  0  0  0  0  0  0
    5.9316    0.8199    0.0000 H   0  0  0  0  0  0  0  0  0  0  0  0
    6.7976   -0.6299    0.0000 H   0  0  0  0  0  0  0  0  0  0  0  0
    7.5947   -0.6299    0.0000 H   0  0  0  0  0  0  0  0  0  0  0  0
    4.3860    1.9276    0.0000 H   0  0  0  0  0  0  0  0  0  0  0  0
    3.9875    1.2373    0.0000 H   0  0  0  0  0  0  0  0  0  0  0  0
    8.3722   -0.1919    0.0000 H   0  0  0  0  0  0  0  0  0  0  0  0
    8.5991    0.6550    0.0000 H   0  0  0  0  0  0  0  0  0  0  0  0
    7.7522    0.8819    0.0000 H   0  0  0  0  0  0  0  0  0  0  0  0
    2.3291   -1.3450    0.0000 H   0  0  0  0  0  0  0  0  0  0  0  0
    5.1350   -1.3450    0.0000 H   0  0  0  0  0  0  0  0  0  0  0  0
    6.0010    3.1550    0.0000 H   0  0  0  0  0  0  0  0  0  0  0  0
    4.9272    3.1550    0.0000 H   0  0  0  0  0  0  0  0  0  0  0  0
    5.1350   -2.9650    0.0000 H   0  0  0  0  0  0  0  0  0  0  0  0
  1 17  1  0  0  0  0
  2 11  2  0  0  0  0
  3 14  2  0  0  0  0
  4  7  1  0  0  0  0
  4 10  1  0  0  0  0
  4 11  1  0  0  0  0
  5 14  1  0  0  0  0
  5 32  1  0  0  0  0
  5 33  1  0  0  0  0
  6 17  2  0  0  0  0
  6 18  1  0  0  0  0
  7  8  1  0  0  0  0
  7 19  1  0  0  0  0
  7 20  1  0  0  0  0
  8  9  1  0  0  0  0
  8 21  1  0  0  0  0
  8 22  1  0  0  0  0
  9 12  1  0  0  0  0
  9 23  1  0  0  0  0
  9 24  1  0  0  0  0
 10 14  1  0  0  0  0
 10 25  1  0  0  0  0
 10 26  1  0  0  0  0
 11 13  1  0  0  0  0
 12 27  1  0  0  0  0
 12 28  1  0  0  0  0
 12 29  1  0  0  0  0
 13 15  2  0  0  0  0
 13 16  1  0  0  0  0
 15 17  1  0  0  0  0
 15 30  1  0  0  0  0
 16 18  2  0  0  0  0
 16 31  1  0  0  0  0
 18 34  1  0  0  0  0
M  END
> <PUBCHEM_COMPOUND_CID>
47205717

> <PUBCHEM_COMPOUND_CANONICALIZED>
1

> <PUBCHEM_CACTVS_COMPLEXITY>
299

> <PUBCHEM_CACTVS_HBOND_ACCEPTOR>
3

> <PUBCHEM_CACTVS_HBOND_DONOR>
1

> <PUBCHEM_CACTVS_ROTATABLE_BOND>
6

> <PUBCHEM_CACTVS_SUBSKEYS>
AAADceBzMAAEAAAAAAAAAAAAAAAAAAAAAAAsAAAAAAAAAAABgAAAHgIQAAAADALBmiQ+gJNIEACoAjF3VACCgCA1ByAI2CG4ZtgIYHLBl7GUIQhglgDIyYYUAAAKAAAAAAAAAAAAAAAAAAAAAAAAAAAAAA==

> <PUBCHEM_IUPAC_OPENEYE_NAME>
N-(2-amino-2-oxo-ethyl)-N-butyl-2-chloro-pyridine-4-carboxamide

> <PUBCHEM_IUPAC_CAS_NAME>
N-(2-amino-2-oxoethyl)-N-butyl-2-chloro-4-pyridinecarboxamide

> <PUBCHEM_IUPAC_NAME>
N-(2-amino-2-oxoethyl)-N-butyl-2-chloropyridine-4-carboxamide

> <PUBCHEM_IUPAC_SYSTEMATIC_NAME>
N-(2-azanyl-2-oxidanylidene-ethyl)-N-butyl-2-chloranyl-pyridine-4-carboxamide

> <PUBCHEM_IUPAC_TRADITIONAL_NAME>
N-(2-amino-2-keto-ethyl)-N-butyl-2-chloro-isonicotinamide

> <PUBCHEM_IUPAC_INCHI>
InChI=1S/C12H16ClN3O2/c1-2-3-6-16(8-11(14)17)12(18)9-4-5-15-10(13)7-9/h4-5,7H,2-3,6,8H2,1H3,(H2,14,17)

> <PUBCHEM_IUPAC_INCHIKEY>
HWNYLXSWPSDRLZ-UHFFFAOYSA-N

> <PUBCHEM_XLOGP3_AA>
1.5

> <PUBCHEM_EXACT_MASS>
269.093104

> <PUBCHEM_MOLECULAR_FORMULA>
C12H16ClN3O2

> <PUBCHEM_MOLECULAR_WEIGHT>
269.72734

> <PUBCHEM_OPENEYE_CAN_SMILES>
CCCCN(CC(=O)N)C(=O)C1=CC(=NC=C1)Cl

> <PUBCHEM_OPENEYE_ISO_SMILES>
CCCCN(CC(=O)N)C(=O)C1=CC(=NC=C1)Cl

> <PUBCHEM_CACTVS_TPSA>
76.3

> <PUBCHEM_MONOISOTOPIC_WEIGHT>
269.093104

> <PUBCHEM_TOTAL_CHARGE>
0

> <PUBCHEM_HEAVY_ATOM_COUNT>
18

> <PUBCHEM_ATOM_DEF_STEREO_COUNT>
0

> <PUBCHEM_ATOM_UDEF_STEREO_COUNT>
0

> <PUBCHEM_BOND_DEF_STEREO_COUNT>
0

> <PUBCHEM_BOND_UDEF_STEREO_COUNT>
0

> <PUBCHEM_ISOTOPIC_ATOM_COUNT>
0

> <PUBCHEM_COMPONENT_COUNT>
1

> <PUBCHEM_CACTVS_TAUTO_COUNT>
3

> <PUBCHEM_COORDINATE_TYPE>
1
5
255

> <PUBCHEM_BONDANNOTATIONS>
13  15  8
13  16  8
15  17  8
16  18  8
6  17  8
6  18  8

$$$$

