3034380
  -OEChem-07051213122D

 59 60  0     0  0  0  0  0  0999 V2000
    5.9249    2.3208    0.0000 S   0  0  0  0  0  0  0  0  0  0  0  0
    4.5981   -2.7926    0.0000 O   0  0  0  0  0  0  0  0  0  0  0  0
    4.5981    1.2074    0.0000 N   0  0  0  0  0  0  0  0  0  0  0  0
    4.2973    2.9132    0.0000 N   0  0  0  0  0  0  0  0  0  0  0  0
    5.4641   -0.2926    0.0000 C   0  0  0  0  0  0  0  0  0  0  0  0
    3.7320   -0.2926    0.0000 C   0  0  0  0  0  0  0  0  0  0  0  0
    4.5981    0.2074    0.0000 C   0  0  0  0  0  0  0  0  0  0  0  0
    6.3301    0.2074    0.0000 C   0  0  0  0  0  0  0  0  0  0  0  0
    2.8660    0.2074    0.0000 C   0  0  0  0  0  0  0  0  0  0  0  0
    4.6393    3.8529    0.0000 C   0  0  0  0  0  0  0  0  0  0  0  0
    5.4641   -1.2926    0.0000 C   0  0  0  0  0  0  0  0  0  0  0  0
    3.7320   -1.2926    0.0000 C   0  0  0  0  0  0  0  0  0  0  0  0
    4.5981   -1.7926    0.0000 C   0  0  0  0  0  0  0  0  0  0  0  0
    7.1962   -0.2926    0.0000 C   0  0  0  0  0  0  0  0  0  0  0  0
    6.9729    0.9735    0.0000 C   0  0  0  0  0  0  0  0  0  0  0  0
    2.0000   -0.2926    0.0000 C   0  0  0  0  0  0  0  0  0  0  0  0
    2.8660    1.2074    0.0000 C   0  0  0  0  0  0  0  0  0  0  0  0
    4.9401    2.1471    0.0000 C   0  0  0  0  0  0  0  0  0  0  0  0
    4.9814    4.7926    0.0000 C   0  0  0  0  0  0  0  0  0  0  0  0
    3.6996    4.1949    0.0000 C   0  0  0  0  0  0  0  0  0  0  0  0
    5.5790    3.5108    0.0000 C   0  0  0  0  0  0  0  0  0  0  0  0
    3.7320   -3.2926    0.0000 C   0  0  0  0  0  0  0  0  0  0  0  0
    2.8660   -2.7926    0.0000 C   0  0  0  0  0  0  0  0  0  0  0  0
    3.7320   -4.2926    0.0000 C   0  0  0  0  0  0  0  0  0  0  0  0
    2.0000   -3.2926    0.0000 C   0  0  0  0  0  0  0  0  0  0  0  0
    2.8660   -4.7926    0.0000 C   0  0  0  0  0  0  0  0  0  0  0  0
    2.0000   -4.2926    0.0000 C   0  0  0  0  0  0  0  0  0  0  0  0
    5.9316    0.6824    0.0000 H   0  0  0  0  0  0  0  0  0  0  0  0
    2.8660   -0.4126    0.0000 H   0  0  0  0  0  0  0  0  0  0  0  0
    6.0010   -1.6026    0.0000 H   0  0  0  0  0  0  0  0  0  0  0  0
    3.1951   -1.6026    0.0000 H   0  0  0  0  0  0  0  0  0  0  0  0
    4.0611    1.5174    0.0000 H   0  0  0  0  0  0  0  0  0  0  0  0
    7.4479    0.5750    0.0000 H   0  0  0  0  0  0  0  0  0  0  0  0
    7.3714    1.4484    0.0000 H   0  0  0  0  0  0  0  0  0  0  0  0
    6.4980    1.3720    0.0000 H   0  0  0  0  0  0  0  0  0  0  0  0
    6.8862   -0.8295    0.0000 H   0  0  0  0  0  0  0  0  0  0  0  0
    7.7331   -0.6026    0.0000 H   0  0  0  0  0  0  0  0  0  0  0  0
    7.5062    0.2444    0.0000 H   0  0  0  0  0  0  0  0  0  0  0  0
    3.4860    1.2074    0.0000 H   0  0  0  0  0  0  0  0  0  0  0  0
    2.8660    1.8274    0.0000 H   0  0  0  0  0  0  0  0  0  0  0  0
    2.2460    1.2074    0.0000 H   0  0  0  0  0  0  0  0  0  0  0  0
    1.6900    0.2444    0.0000 H   0  0  0  0  0  0  0  0  0  0  0  0
    1.4631   -0.6026    0.0000 H   0  0  0  0  0  0  0  0  0  0  0  0
    2.3100   -0.8295    0.0000 H   0  0  0  0  0  0  0  0  0  0  0  0
    3.6867    2.8055    0.0000 H   0  0  0  0  0  0  0  0  0  0  0  0
    5.3670    2.9282    0.0000 H   0  0  0  0  0  0  0  0  0  0  0  0
    6.1616    3.2988    0.0000 H   0  0  0  0  0  0  0  0  0  0  0  0
    5.7911    4.0935    0.0000 H   0  0  0  0  0  0  0  0  0  0  0  0
    3.9117    4.7775    0.0000 H   0  0  0  0  0  0  0  0  0  0  0  0
    3.1170    4.4069    0.0000 H   0  0  0  0  0  0  0  0  0  0  0  0
    3.4876    3.6123    0.0000 H   0  0  0  0  0  0  0  0  0  0  0  0
    5.5640    4.5805    0.0000 H   0  0  0  0  0  0  0  0  0  0  0  0
    5.1934    5.3752    0.0000 H   0  0  0  0  0  0  0  0  0  0  0  0
    4.3987    5.0046    0.0000 H   0  0  0  0  0  0  0  0  0  0  0  0
    2.8660   -2.1726    0.0000 H   0  0  0  0  0  0  0  0  0  0  0  0
    4.2690   -4.6026    0.0000 H   0  0  0  0  0  0  0  0  0  0  0  0
    1.4631   -2.9826    0.0000 H   0  0  0  0  0  0  0  0  0  0  0  0
    2.8660   -5.4126    0.0000 H   0  0  0  0  0  0  0  0  0  0  0  0
    1.4631   -4.6026    0.0000 H   0  0  0  0  0  0  0  0  0  0  0  0
  1 18  2  0  0  0  0
  2 13  1  0  0  0  0
  2 22  1  0  0  0  0
  3  7  1  0  0  0  0
  3 18  1  0  0  0  0
  3 32  1  0  0  0  0
  4 10  1  0  0  0  0
  4 18  1  0  0  0  0
  4 45  1  0  0  0  0
  5  7  2  0  0  0  0
  5  8  1  0  0  0  0
  5 11  1  0  0  0  0
  6  7  1  0  0  0  0
  6  9  1  0  0  0  0
  6 12  2  0  0  0  0
  8 14  1  0  0  0  0
  8 15  1  0  0  0  0
  8 28  1  0  0  0  0
  9 16  1  0  0  0  0
  9 17  1  0  0  0  0
  9 29  1  0  0  0  0
 10 19  1  0  0  0  0
 10 20  1  0  0  0  0
 10 21  1  0  0  0  0
 11 13  2  0  0  0  0
 11 30  1  0  0  0  0
 12 13  1  0  0  0  0
 12 31  1  0  0  0  0
 14 36  1  0  0  0  0
 14 37  1  0  0  0  0
 14 38  1  0  0  0  0
 15 33  1  0  0  0  0
 15 34  1  0  0  0  0
 15 35  1  0  0  0  0
 16 42  1  0  0  0  0
 16 43  1  0  0  0  0
 16 44  1  0  0  0  0
 17 39  1  0  0  0  0
 17 40  1  0  0  0  0
 17 41  1  0  0  0  0
 19 52  1  0  0  0  0
 19 53  1  0  0  0  0
 19 54  1  0  0  0  0
 20 49  1  0  0  0  0
 20 50  1  0  0  0  0
 20 51  1  0  0  0  0
 21 46  1  0  0  0  0
 21 47  1  0  0  0  0
 21 48  1  0  0  0  0
 22 23  2  0  0  0  0
 22 24  1  0  0  0  0
 23 25  1  0  0  0  0
 23 55  1  0  0  0  0
 24 26  2  0  0  0  0
 24 56  1  0  0  0  0
 25 27  2  0  0  0  0
 25 57  1  0  0  0  0
 26 27  1  0  0  0  0
 26 58  1  0  0  0  0
 27 59  1  0  0  0  0
M  END
> <PUBCHEM_COMPOUND_CID>
3034380

> <PUBCHEM_COMPOUND_CANONICALIZED>
1

> <PUBCHEM_CACTVS_COMPLEXITY>
448

> <PUBCHEM_CACTVS_HBOND_ACCEPTOR>
2

> <PUBCHEM_CACTVS_HBOND_DONOR>
2

> <PUBCHEM_CACTVS_ROTATABLE_BOND>
6

> <PUBCHEM_CACTVS_SUBSKEYS>
AAADcfB7IABAAAAAAAAAAAAAAAAAAAAAAAAwYAAAAAAAAAABQAAAHgQQAAAADYyBmAAzxoLABACEAiRCQACCCAAhIAkIiAAGTIiMJiLEsZuGOCjs0BNI6CewwPAOgEADAAACAAAAgAYAAAQAAAAAAAAAAA==

> <PUBCHEM_IUPAC_OPENEYE_NAME>
1-tert-butyl-3-(2,6-diisopropyl-4-phenoxy-phenyl)thiourea

> <PUBCHEM_IUPAC_CAS_NAME>
1-tert-butyl-3-[4-phenoxy-2,6-di(propan-2-yl)phenyl]thiourea

> <PUBCHEM_IUPAC_NAME>
1-tert-butyl-3-[4-phenoxy-2,6-di(propan-2-yl)phenyl]thiourea

> <PUBCHEM_IUPAC_SYSTEMATIC_NAME>
1-tert-butyl-3-[4-phenoxy-2,6-di(propan-2-yl)phenyl]thiourea

> <PUBCHEM_IUPAC_TRADITIONAL_NAME>
1-tert-butyl-3-(2,6-diisopropyl-4-phenoxy-phenyl)thiourea

> <PUBCHEM_IUPAC_INCHI>
InChI=1S/C23H32N2OS/c1-15(2)19-13-18(26-17-11-9-8-10-12-17)14-20(16(3)4)21(19)24-22(27)25-23(5,6)7/h8-16H,1-7H3,(H2,24,25,27)

> <PUBCHEM_IUPAC_INCHIKEY>
WOWBFOBYOAGEEA-UHFFFAOYSA-N

> <PUBCHEM_XLOGP3>
6

> <PUBCHEM_EXACT_MASS>
384.223535

> <PUBCHEM_MOLECULAR_FORMULA>
C23H32N2OS

> <PUBCHEM_MOLECULAR_WEIGHT>
384.57798

> <PUBCHEM_OPENEYE_CAN_SMILES>
CC(C)C1=CC(=CC(=C1NC(=S)NC(C)(C)C)C(C)C)OC2=CC=CC=C2

> <PUBCHEM_OPENEYE_ISO_SMILES>
CC(C)C1=CC(=CC(=C1NC(=S)NC(C)(C)C)C(C)C)OC2=CC=CC=C2

> <PUBCHEM_CACTVS_TPSA>
65.4

> <PUBCHEM_MONOISOTOPIC_WEIGHT>
384.223535

> <PUBCHEM_TOTAL_CHARGE>
0

> <PUBCHEM_HEAVY_ATOM_COUNT>
27

> <PUBCHEM_ATOM_DEF_STEREO_COUNT>
0

> <PUBCHEM_ATOM_UDEF_STEREO_COUNT>
0

> <PUBCHEM_BOND_DEF_STEREO_COUNT>
0

> <PUBCHEM_BOND_UDEF_STEREO_COUNT>
0

> <PUBCHEM_ISOTOPIC_ATOM_COUNT>
0

> <PUBCHEM_COMPONENT_COUNT>
1

> <PUBCHEM_CACTVS_TAUTO_COUNT>
3

> <PUBCHEM_COORDINATE_TYPE>
1
5
255

> <PUBCHEM_BONDANNOTATIONS>
11  13  8
12  13  8
22  23  8
22  24  8
23  25  8
24  26  8
25  27  8
26  27  8
5  11  8
5  7  8
6  12  8
6  7  8

$$$$

