12553
  -OEChem-06261207053D

 35 37  0     0  0  0  0  0  0999 V2000
    3.3365    2.0234   -1.0646 O   0  0  0  0  0  0  0  0  0  0  0  0
    2.8993   -2.1052    1.0674 O   0  0  0  0  0  0  0  0  0  0  0  0
    2.8294   -0.0063    0.0095 N   0  0  0  0  0  0  0  0  0  0  0  0
   -0.7579   -0.7124   -0.2040 C   0  0  0  0  0  0  0  0  0  0  0  0
   -1.8612   -1.7106   -0.4870 C   0  0  0  0  0  0  0  0  0  0  0  0
   -1.3045    0.5431    0.1451 C   0  0  0  0  0  0  0  0  0  0  0  0
   -3.1017   -0.8730   -0.2574 C   0  0  0  0  0  0  0  0  0  0  0  0
   -2.7479    0.4441    0.1121 C   0  0  0  0  0  0  0  0  0  0  0  0
    0.6098   -0.9164   -0.2557 C   0  0  0  0  0  0  0  0  0  0  0  0
   -0.4766    1.6112    0.4473 C   0  0  0  0  0  0  0  0  0  0  0  0
    1.4441    0.1605    0.0492 C   0  0  0  0  0  0  0  0  0  0  0  0
   -4.4252   -1.2614   -0.3702 C   0  0  0  0  0  0  0  0  0  0  0  0
   -3.7266    1.3886    0.3732 C   0  0  0  0  0  0  0  0  0  0  0  0
    0.9065    1.4116    0.3975 C   0  0  0  0  0  0  0  0  0  0  0  0
   -5.4115   -0.3092   -0.1070 C   0  0  0  0  0  0  0  0  0  0  0  0
   -5.0658    1.0026    0.2610 C   0  0  0  0  0  0  0  0  0  0  0  0
    3.6814    1.1029   -0.3200 C   0  0  0  0  0  0  0  0  0  0  0  0
    3.4111   -1.2879    0.2989 C   0  0  0  0  0  0  0  0  0  0  0  0
    5.0555    1.1213    0.3088 C   0  0  0  0  0  0  0  0  0  0  0  0
    4.7052   -1.6269   -0.4041 C   0  0  0  0  0  0  0  0  0  0  0  0
   -1.8201   -2.5441    0.2201 H   0  0  0  0  0  0  0  0  0  0  0  0
   -1.8137   -2.0570   -1.5234 H   0  0  0  0  0  0  0  0  0  0  0  0
    0.9874   -1.8871   -0.5586 H   0  0  0  0  0  0  0  0  0  0  0  0
   -0.8772    2.5803    0.7253 H   0  0  0  0  0  0  0  0  0  0  0  0
   -4.6935   -2.2730   -0.6537 H   0  0  0  0  0  0  0  0  0  0  0  0
   -3.4754    2.4047    0.6584 H   0  0  0  0  0  0  0  0  0  0  0  0
    1.5418    2.2499    0.6727 H   0  0  0  0  0  0  0  0  0  0  0  0
   -6.4600   -0.5837   -0.1869 H   0  0  0  0  0  0  0  0  0  0  0  0
   -5.8519    1.7261    0.4609 H   0  0  0  0  0  0  0  0  0  0  0  0
    5.2804    2.1545    0.5956 H   0  0  0  0  0  0  0  0  0  0  0  0
    5.0996    0.5279    1.2246 H   0  0  0  0  0  0  0  0  0  0  0  0
    5.8125    0.8027   -0.4105 H   0  0  0  0  0  0  0  0  0  0  0  0
    4.8382   -1.0548   -1.3248 H   0  0  0  0  0  0  0  0  0  0  0  0
    5.5543   -1.5015    0.2706 H   0  0  0  0  0  0  0  0  0  0  0  0
    4.6629   -2.6821   -0.6961 H   0  0  0  0  0  0  0  0  0  0  0  0
  1 17  2  0  0  0  0
  2 18  2  0  0  0  0
  3 11  1  0  0  0  0
  3 17  1  0  0  0  0
  3 18  1  0  0  0  0
  4  5  1  0  0  0  0
  4  6  2  0  0  0  0
  4  9  1  0  0  0  0
  5  7  1  0  0  0  0
  5 21  1  0  0  0  0
  5 22  1  0  0  0  0
  6  8  1  0  0  0  0
  6 10  1  0  0  0  0
  7  8  1  0  0  0  0
  7 12  2  0  0  0  0
  8 13  2  0  0  0  0
  9 11  2  0  0  0  0
  9 23  1  0  0  0  0
 10 14  2  0  0  0  0
 10 24  1  0  0  0  0
 11 14  1  0  0  0  0
 12 15  1  0  0  0  0
 12 25  1  0  0  0  0
 13 16  1  0  0  0  0
 13 26  1  0  0  0  0
 14 27  1  0  0  0  0
 15 16  2  0  0  0  0
 15 28  1  0  0  0  0
 16 29  1  0  0  0  0
 17 19  1  0  0  0  0
 18 20  1  0  0  0  0
 19 30  1  0  0  0  0
 19 31  1  0  0  0  0
 19 32  1  0  0  0  0
 20 33  1  0  0  0  0
 20 34  1  0  0  0  0
 20 35  1  0  0  0  0
M  END
> <PUBCHEM_COMPOUND_CID>
12553

> <PUBCHEM_CONFORMER_RMSD>
0.6

> <PUBCHEM_CONFORMER_DIVERSEORDER>
11
4
1
12
10
3
7
9
2
6
8
5

> <PUBCHEM_MMFF94_PARTIAL_CHARGES>
25
1 -0.57
10 -0.15
11 0.12
12 -0.15
13 -0.15
14 -0.15
15 -0.15
16 -0.15
17 0.57
18 0.57
19 0.06
2 -0.57
20 0.06
23 0.15
24 0.15
25 0.15
26 0.15
27 0.15
28 0.15
29 0.15
3 -0.24
4 -0.14
5 0.29
7 -0.14
9 -0.15

> <PUBCHEM_EFFECTIVE_ROTOR_COUNT>
3.2

> <PUBCHEM_PHARMACOPHORE_FEATURES>
5
1 1 acceptor
1 2 acceptor
5 4 5 6 7 8 rings
6 4 6 9 10 11 14 rings
6 7 8 12 13 15 16 rings

> <PUBCHEM_HEAVY_ATOM_COUNT>
20

> <PUBCHEM_ATOM_DEF_STEREO_COUNT>
0

> <PUBCHEM_ATOM_UDEF_STEREO_COUNT>
0

> <PUBCHEM_BOND_DEF_STEREO_COUNT>
0

> <PUBCHEM_BOND_UDEF_STEREO_COUNT>
0

> <PUBCHEM_ISOTOPIC_ATOM_COUNT>
0

> <PUBCHEM_COMPONENT_COUNT>
1

> <PUBCHEM_CACTVS_TAUTO_COUNT>
1

> <PUBCHEM_CONFORMER_ID>
000031090000000B

> <PUBCHEM_MMFF94_ENERGY>
87.8063

> <PUBCHEM_FEATURE_SELFOVERLAP>
25.536

> <PUBCHEM_SHAPE_FINGERPRINT>
10062212 137 18260554428767958231
10616163 171 18263924349786144711
12107183 9 17762902469085513425
12236239 1 18408323289160198242
12403814 3 18131355211187095173
12670546 56 18411704300421889149
12788726 201 17676757760168839297
13073987 5 18408322185744032553
13167823 11 18410575093522350659
13760787 19 18410572859917667894
13760787 5 18411140238414777711
13862211 1 18333736844618077591
14251764 18 18260263037254813771
14341114 176 18413100650646704587
14790565 3 18335978735762739457
15196674 1 18407759244227499751
15242433 33 18409166597414670542
15536298 74 18408041819048206034
15788980 27 18131067156093490453
17349148 13 17748828527197965341
17492 89 18337953501343249026
17804303 29 18187366523886311497
17834072 33 18409730651206432871
1813 80 17346880065489496996
18186145 218 17846502534339030118
18681886 176 18260552217097184026
200 152 18333452044882602851
20281475 54 18410018710584253663
20612939 158 18272647948297501948
20645477 70 18409728491186283110
21267235 1 18336819870473771871
23402539 116 17967541194304727085
23463225 33 18410012160490069390
23559900 14 18259985981377476776
239999 70 18335416885790509374
300161 21 18335990804351672817
3004659 81 18411135870438435694
335352 9 18335701710366645621
34797466 226 16443623493628590961
34934 24 18261116219016691604
350125 39 18337672014092923076
3545911 37 18409728448426293196
4214541 1 18409448115663021825
4340502 62 17418093195916304515
474 4 17917144984261712820
5104073 3 18408322189891411331
537710 114 18334293154182683664
542803 24 16660359281788405145
543358 83 18411134749304148504
633830 44 17988926669341822923
77779 3 18411135831535712703
8272917 22 18342173384410785934
9709674 26 18411412908498080442
9981440 41 17259625842093302049

> <PUBCHEM_SHAPE_MULTIPOLES>
394.87
11.41
2.05
0.77
1.1
0.12
0
0.12
-0.26
-1.1
0.01
-0.31
0.01
-0.84

> <PUBCHEM_SHAPE_SELFOVERLAP>
870.34

> <PUBCHEM_SHAPE_VOLUME>
214.4

> <PUBCHEM_COORDINATE_TYPE>
2
5
10

$$$$

