127601
  -OEChem-07051213103D

 68 71  0     1  0  0  0  0  0999 V2000
   -1.6569   -3.3494    0.1969 O   0  0  0  0  0  0  0  0  0  0  0  0
   -6.5618    1.0415   -0.6898 O   0  0  0  0  0  0  0  0  0  0  0  0
    7.3979    1.2495    0.8322 O   0  0  0  0  0  0  0  0  0  0  0  0
    6.4409   -0.8097    0.8426 O   0  0  0  0  0  0  0  0  0  0  0  0
    0.1059   -0.9625   -0.3918 C   0  0  2  0  0  0  0  0  0  0  0  0
    1.0897    0.1049    0.1416 C   0  0  1  0  0  0  0  0  0  0  0  0
   -1.2441   -0.9624    0.3531 C   0  0  1  0  0  0  0  0  0  0  0  0
   -1.8945    0.4540    0.1859 C   0  0  1  0  0  0  0  0  0  0  0  0
   -3.3095    0.5494    0.8711 C   0  0  2  0  0  0  0  0  0  0  0  0
    2.3057   -0.1921   -0.7699 C   0  0  2  0  0  0  0  0  0  0  0  0
   -4.2299   -0.5896    0.3246 C   0  0  2  0  0  0  0  0  0  0  0  0
    0.4587    1.4850   -0.0772 C   0  0  0  0  0  0  0  0  0  0  0  0
   -0.9203    1.5917    0.5933 C   0  0  0  0  0  0  0  0  0  0  0  0
   -2.1902   -2.0710   -0.1481 C   0  0  2  0  0  0  0  0  0  0  0  0
    0.9572   -2.2301   -0.4348 C   0  0  0  0  0  0  0  0  0  0  0  0
    2.3662   -1.7348   -0.8076 C   0  0  0  0  0  0  0  0  0  0  0  0
   -3.5831   -1.9722    0.4738 C   0  0  0  0  0  0  0  0  0  0  0  0
   -4.0123    1.9130    0.6071 C   0  0  0  0  0  0  0  0  0  0  0  0
    1.4578   -0.0683    1.6368 C   0  0  0  0  0  0  0  0  0  0  0  0
    3.6300    0.4424   -0.3695 C   0  0  1  0  0  0  0  0  0  0  0  0
   -4.6661   -0.3587   -1.1421 C   0  0  0  0  0  0  0  0  0  0  0  0
   -3.1878    0.4191    2.4116 C   0  0  0  0  0  0  0  0  0  0  0  0
   -4.4121    2.1347   -0.8506 C   0  0  0  0  0  0  0  0  0  0  0  0
   -5.3051    1.0096   -1.3634 C   0  0  2  0  0  0  0  0  0  0  0  0
    4.7417    0.0152   -1.3497 C   0  0  0  0  0  0  0  0  0  0  0  0
    3.4816    1.9657   -0.2972 C   0  0  0  0  0  0  0  0  0  0  0  0
    6.0974    0.6648   -1.0651 C   0  0  0  0  0  0  0  0  0  0  0  0
    6.6430    0.2606    0.2860 C   0  0  0  0  0  0  0  0  0  0  0  0
   -0.1254   -0.7237   -1.4437 H   0  0  0  0  0  0  0  0  0  0  0  0
   -1.0436   -1.1566    1.4120 H   0  0  0  0  0  0  0  0  0  0  0  0
   -2.0470    0.5874   -0.8940 H   0  0  0  0  0  0  0  0  0  0  0  0
    2.0607    0.1442   -1.7895 H   0  0  0  0  0  0  0  0  0  0  0  0
   -5.1502   -0.6038    0.9265 H   0  0  0  0  0  0  0  0  0  0  0  0
    0.3418    1.6820   -1.1507 H   0  0  0  0  0  0  0  0  0  0  0  0
    1.0503    2.3043    0.3280 H   0  0  0  0  0  0  0  0  0  0  0  0
   -0.7915    1.6135    1.6798 H   0  0  0  0  0  0  0  0  0  0  0  0
   -1.3420    2.5625    0.3120 H   0  0  0  0  0  0  0  0  0  0  0  0
   -2.2636   -2.0397   -1.2404 H   0  0  0  0  0  0  0  0  0  0  0  0
    0.5883   -2.9475   -1.1748 H   0  0  0  0  0  0  0  0  0  0  0  0
    0.9797   -2.7329    0.5384 H   0  0  0  0  0  0  0  0  0  0  0  0
    3.0941   -2.1420   -0.0964 H   0  0  0  0  0  0  0  0  0  0  0  0
    2.6476   -2.0864   -1.8065 H   0  0  0  0  0  0  0  0  0  0  0  0
   -3.5287   -2.2409    1.5367 H   0  0  0  0  0  0  0  0  0  0  0  0
   -4.2291   -2.7423    0.0318 H   0  0  0  0  0  0  0  0  0  0  0  0
   -3.3900    2.7493    0.9430 H   0  0  0  0  0  0  0  0  0  0  0  0
   -4.9223    1.9706    1.2208 H   0  0  0  0  0  0  0  0  0  0  0  0
    1.9837   -1.0085    1.8307 H   0  0  0  0  0  0  0  0  0  0  0  0
    2.1037    0.7408    1.9908 H   0  0  0  0  0  0  0  0  0  0  0  0
    0.5800   -0.0616    2.2886 H   0  0  0  0  0  0  0  0  0  0  0  0
    3.9206    0.0899    0.6270 H   0  0  0  0  0  0  0  0  0  0  0  0
   -3.8145   -0.4625   -1.8227 H   0  0  0  0  0  0  0  0  0  0  0  0
   -5.3876   -1.1390   -1.4167 H   0  0  0  0  0  0  0  0  0  0  0  0
   -2.6560   -0.4833    2.7229 H   0  0  0  0  0  0  0  0  0  0  0  0
   -2.6641    1.2765    2.8471 H   0  0  0  0  0  0  0  0  0  0  0  0
   -4.1792    0.3831    2.8788 H   0  0  0  0  0  0  0  0  0  0  0  0
   -4.9450    3.0906   -0.9208 H   0  0  0  0  0  0  0  0  0  0  0  0
   -3.5184    2.2199   -1.4784 H   0  0  0  0  0  0  0  0  0  0  0  0
   -5.5061    1.1498   -2.4312 H   0  0  0  0  0  0  0  0  0  0  0  0
    4.8669   -1.0737   -1.3291 H   0  0  0  0  0  0  0  0  0  0  0  0
    4.4466    0.2774   -2.3738 H   0  0  0  0  0  0  0  0  0  0  0  0
   -1.5578   -3.3840    1.1637 H   0  0  0  0  0  0  0  0  0  0  0  0
    2.9577    2.3699   -1.1691 H   0  0  0  0  0  0  0  0  0  0  0  0
    2.9793    2.2721    0.6210 H   0  0  0  0  0  0  0  0  0  0  0  0
    4.4414    2.4816   -0.2333 H   0  0  0  0  0  0  0  0  0  0  0  0
   -6.9602    1.9133   -0.8537 H   0  0  0  0  0  0  0  0  0  0  0  0
    6.8215    0.3146   -1.8108 H   0  0  0  0  0  0  0  0  0  0  0  0
    6.0659    1.7524   -1.1592 H   0  0  0  0  0  0  0  0  0  0  0  0
    7.7518    0.9957    1.7112 H   0  0  0  0  0  0  0  0  0  0  0  0
  1 14  1  0  0  0  0
  1 61  1  0  0  0  0
  2 24  1  0  0  0  0
  2 65  1  0  0  0  0
  3 28  1  0  0  0  0
  3 68  1  0  0  0  0
  4 28  2  0  0  0  0
  5  6  1  0  0  0  0
  5  7  1  0  0  0  0
  5 15  1  0  0  0  0
  5 29  1  0  0  0  0
  6 10  1  0  0  0  0
  6 12  1  0  0  0  0
  6 19  1  0  0  0  0
  7  8  1  0  0  0  0
  7 14  1  0  0  0  0
  7 30  1  0  0  0  0
  8  9  1  0  0  0  0
  8 13  1  0  0  0  0
  8 31  1  0  0  0  0
  9 11  1  0  0  0  0
  9 18  1  0  0  0  0
  9 22  1  0  0  0  0
 10 16  1  0  0  0  0
 10 20  1  0  0  0  0
 10 32  1  0  0  0  0
 11 17  1  0  0  0  0
 11 21  1  0  0  0  0
 11 33  1  0  0  0  0
 12 13  1  0  0  0  0
 12 34  1  0  0  0  0
 12 35  1  0  0  0  0
 13 36  1  0  0  0  0
 13 37  1  0  0  0  0
 14 17  1  0  0  0  0
 14 38  1  0  0  0  0
 15 16  1  0  0  0  0
 15 39  1  0  0  0  0
 15 40  1  0  0  0  0
 16 41  1  0  0  0  0
 16 42  1  0  0  0  0
 17 43  1  0  0  0  0
 17 44  1  0  0  0  0
 18 23  1  0  0  0  0
 18 45  1  0  0  0  0
 18 46  1  0  0  0  0
 19 47  1  0  0  0  0
 19 48  1  0  0  0  0
 19 49  1  0  0  0  0
 20 25  1  0  0  0  0
 20 26  1  0  0  0  0
 20 50  1  0  0  0  0
 21 24  1  0  0  0  0
 21 51  1  0  0  0  0
 21 52  1  0  0  0  0
 22 53  1  0  0  0  0
 22 54  1  0  0  0  0
 22 55  1  0  0  0  0
 23 24  1  0  0  0  0
 23 56  1  0  0  0  0
 23 57  1  0  0  0  0
 24 58  1  0  0  0  0
 25 27  1  0  0  0  0
 25 59  1  0  0  0  0
 25 60  1  0  0  0  0
 26 62  1  0  0  0  0
 26 63  1  0  0  0  0
 26 64  1  0  0  0  0
 27 28  1  0  0  0  0
 27 66  1  0  0  0  0
 27 67  1  0  0  0  0
M  END
> <PUBCHEM_COMPOUND_CID>
127601

> <PUBCHEM_CONFORMER_RMSD>
0.8

> <PUBCHEM_CONFORMER_DIVERSEORDER>
1
4
5
3
2

> <PUBCHEM_MMFF94_PARTIAL_CHARGES>
11
1 -0.68
14 0.28
2 -0.68
24 0.28
27 0.06
28 0.66
3 -0.65
4 -0.57
61 0.4
65 0.4
68 0.5

> <PUBCHEM_EFFECTIVE_ROTOR_COUNT>
6.2

> <PUBCHEM_PHARMACOPHORE_FEATURES>
12
1 1 acceptor
1 1 donor
1 2 acceptor
1 2 donor
1 26 hydrophobe
1 3 acceptor
1 4 acceptor
3 3 4 28 anion
5 5 6 10 15 16 rings
6 5 6 7 8 12 13 rings
6 7 8 9 11 14 17 rings
6 9 11 18 21 23 24 rings

> <PUBCHEM_HEAVY_ATOM_COUNT>
28

> <PUBCHEM_ATOM_DEF_STEREO_COUNT>
10

> <PUBCHEM_ATOM_UDEF_STEREO_COUNT>
0

> <PUBCHEM_BOND_DEF_STEREO_COUNT>
0

> <PUBCHEM_BOND_UDEF_STEREO_COUNT>
0

> <PUBCHEM_ISOTOPIC_ATOM_COUNT>
0

> <PUBCHEM_COMPONENT_COUNT>
1

> <PUBCHEM_CACTVS_TAUTO_COUNT>
1

> <PUBCHEM_CONFORMER_ID>
0001F27100000001

> <PUBCHEM_MMFF94_ENERGY>
97.1728

> <PUBCHEM_FEATURE_SELFOVERLAP>
61.078

> <PUBCHEM_SHAPE_FINGERPRINT>
10366900 7 17676490565994791051
10411042 1 17761208817732543055
10498660 4 18411133641281791837
10675989 125 17332527281515044325
11089746 13 18272093790147579148
11135609 187 18336828714776688081
11315181 36 17748825193944946417
11719270 70 18408608089127898662
12011746 2 18259704501741867093
12236239 1 17846780685485677426
12422481 6 18060418036788237502
12616971 3 17203322283191991630
12788726 201 18189903183280333249
13583140 156 17418369182120106337
14466204 15 18409446977828796576
14856354 85 15339110234628579946
15021287 119 17275102795788734940
15183329 4 18341889702021235036
15461852 350 17676773076665242756
15788980 27 17632573834061717996
17980427 23 17241032258569214505
18335252 98 9727633921932252476
18608769 82 18410570649017312859
20511986 3 18343032090212763138
21033648 29 17916010434443489541
21150785 3 16081375146009725180
21279426 13 18336254735004535134
21709351 56 18410851032302028588
21859007 373 18200329791875065692
22182313 1 18043220549174278662
22393880 68 18335707104840398415
2303208 19 12463573972282044532
23402539 116 18201719539979869804
23522609 53 9438554820813517102
23559900 14 18187933837004682185
23569914 152 16596454824026589540
2838139 119 18131636694363675413
32027 91 17973146607658083414
335352 9 18411136931316418316
34934 24 18343582966580397227
350125 39 18337660937456630475
3633792 109 18264492961033443605
4015057 19 17095808719954314816
5104073 3 18338221773590174306
559249 180 18272090491665404282
7226269 152 18335137596519466920
9981440 41 18341604923661468179

> <PUBCHEM_SHAPE_MULTIPOLES>
552.75
15.27
2.4
1.37
17.89
1.09
-0.39
-5.8
1.82
-1.65
0.12
-0.59
-0.23
0.5

> <PUBCHEM_SHAPE_SELFOVERLAP>
1158.631

> <PUBCHEM_SHAPE_VOLUME>
310.4

> <PUBCHEM_COORDINATE_TYPE>
2
5
10

$$$$

