11874
  -OEChem-06261206133D

 18 18  0     0  0  0  0  0  0999 V2000
    0.5395    2.0978    0.1294 O   0  0  0  0  0  0  0  0  0  0  0  0
   -2.1946    1.7601    0.1283 O   0  0  0  0  0  0  0  0  0  0  0  0
   -3.2709   -0.7852   -0.0378 O   0  0  0  0  0  0  0  0  0  0  0  0
    2.9321   -1.1858    0.5143 O   0  0  0  0  0  0  0  0  0  0  0  0
    2.9116    0.8575   -0.4812 O   0  0  0  0  0  0  0  0  0  0  0  0
    0.8488   -0.2694   -0.0354 C   0  0  0  0  0  0  0  0  0  0  0  0
    0.0110    0.8428    0.0473 C   0  0  0  0  0  0  0  0  0  0  0  0
   -1.3738    0.6742    0.0469 C   0  0  0  0  0  0  0  0  0  0  0  0
    0.3020   -1.5500   -0.1185 C   0  0  0  0  0  0  0  0  0  0  0  0
   -1.9204   -0.6065   -0.0363 C   0  0  0  0  0  0  0  0  0  0  0  0
   -1.0826   -1.7186   -0.1189 C   0  0  0  0  0  0  0  0  0  0  0  0
    2.2973   -0.1168   -0.0381 C   0  0  0  0  0  0  0  0  0  0  0  0
    0.9279   -2.4350   -0.1973 H   0  0  0  0  0  0  0  0  0  0  0  0
   -1.4954   -2.7216   -0.1871 H   0  0  0  0  0  0  0  0  0  0  0  0
   -0.1923    2.7371    0.1789 H   0  0  0  0  0  0  0  0  0  0  0  0
   -3.1167    1.4499    0.1146 H   0  0  0  0  0  0  0  0  0  0  0  0
   -3.4648   -1.7362   -0.1011 H   0  0  0  0  0  0  0  0  0  0  0  0
    3.9068   -1.0746    0.5086 H   0  0  0  0  0  0  0  0  0  0  0  0
  1  7  1  0  0  0  0
  1 15  1  0  0  0  0
  2  8  1  0  0  0  0
  2 16  1  0  0  0  0
  3 10  1  0  0  0  0
  3 17  1  0  0  0  0
  4 12  1  0  0  0  0
  4 18  1  0  0  0  0
  5 12  2  0  0  0  0
  6  7  2  0  0  0  0
  6  9  1  0  0  0  0
  6 12  1  0  0  0  0
  7  8  1  0  0  0  0
  8 10  2  0  0  0  0
  9 11  2  0  0  0  0
  9 13  1  0  0  0  0
 10 11  1  0  0  0  0
 11 14  1  0  0  0  0
M  END
> <PUBCHEM_COMPOUND_CID>
11874

> <PUBCHEM_CONFORMER_RMSD>
0.4

> <PUBCHEM_CONFORMER_DIVERSEORDER>
1
3
2

> <PUBCHEM_MMFF94_PARTIAL_CHARGES>
18
1 -0.53
10 0.08
11 -0.15
12 0.63
13 0.15
14 0.15
15 0.45
16 0.45
17 0.45
18 0.5
2 -0.53
3 -0.53
4 -0.65
5 -0.57
6 0.09
7 0.08
8 0.08
9 -0.15

> <PUBCHEM_EFFECTIVE_ROTOR_COUNT>
1

> <PUBCHEM_PHARMACOPHORE_FEATURES>
7
1 1 donor
1 2 donor
1 3 donor
1 4 acceptor
1 5 acceptor
3 4 5 12 anion
6 6 7 8 9 10 11 rings

> <PUBCHEM_HEAVY_ATOM_COUNT>
12

> <PUBCHEM_ATOM_DEF_STEREO_COUNT>
0

> <PUBCHEM_ATOM_UDEF_STEREO_COUNT>
0

> <PUBCHEM_BOND_DEF_STEREO_COUNT>
0

> <PUBCHEM_BOND_UDEF_STEREO_COUNT>
0

> <PUBCHEM_ISOTOPIC_ATOM_COUNT>
0

> <PUBCHEM_COMPONENT_COUNT>
1

> <PUBCHEM_CACTVS_TAUTO_COUNT>
26

> <PUBCHEM_CONFORMER_ID>
00002E6200000001

> <PUBCHEM_MMFF94_ENERGY>
32.3312

> <PUBCHEM_FEATURE_SELFOVERLAP>
35.588

> <PUBCHEM_SHAPE_FINGERPRINT>
11206711 2 18410578379288227749
12423570 1 14743758073005259767
13380535 76 18193843871397373919
14325111 11 18411136965333251804
16945 1 18337956670991462691
193761 8 17328866495998620143
21040471 1 18337110193082677030
2334 1 18410291445022877086
23402655 69 18192167078154258965
23463225 33 18341051929562973074
23552423 10 18271523208047919530
23559900 14 18188769574413186974
2748010 2 18192426587766026943
369184 2 18413672417619390722
5084963 1 18113335280353326491
528886 8 18265621059520397577

> <PUBCHEM_SHAPE_MULTIPOLES>
217.61
4.01
1.92
0.61
0.69
0.36
0
-0.31
0.02
-0.32
0.04
0.09
-0.03
-0.25

> <PUBCHEM_SHAPE_SELFOVERLAP>
466.573

> <PUBCHEM_SHAPE_VOLUME>
119.9

> <PUBCHEM_COORDINATE_TYPE>
2
5
10

$$$$

