46173766
  -OEChem-07051212523D

 67 70  0     1  0  0  0  0  0999 V2000
    1.3294   -5.3965    0.5874 P   0  0  0  0  0  0  0  0  0  0  0  0
    0.7244   -1.1272    0.5599 O   0  0  0  0  0  0  0  0  0  0  0  0
    0.2315    0.8751   -2.3848 O   0  0  0  0  0  0  0  0  0  0  0  0
    0.6732   -3.9216    0.7150 O   0  0  0  0  0  0  0  0  0  0  0  0
   -3.5812   -1.6704   -1.5799 O   0  0  0  0  0  0  0  0  0  0  0  0
    0.2219   -6.2132   -0.2618 O   0  0  0  0  0  0  0  0  0  0  0  0
    2.5332   -5.1903   -0.4726 O   0  0  0  0  0  0  0  0  0  0  0  0
    1.7229   -6.0295    1.8900 O   0  0  0  0  0  0  0  0  0  0  0  0
   -5.6871    2.7823   -1.7319 O   0  0  0  0  0  0  0  0  0  0  0  0
   -0.8267    2.2860    4.4556 O   0  0  0  0  0  0  0  0  0  0  0  0
   -1.8699   -0.2282   -0.9604 N   0  0  0  0  0  0  0  0  0  0  0  0
    2.5641    0.2265   -0.2916 N   0  0  0  0  0  0  0  0  0  0  0  0
    4.7436   -0.2387   -0.2395 N   0  0  0  0  0  0  0  0  0  0  0  0
    2.6588    2.6403   -0.5469 N   0  0  0  0  0  0  0  0  0  0  0  0
   -5.2539    0.4955   -1.6631 N   0  0  0  0  0  0  0  0  0  0  0  0
    4.9656    3.4328   -0.6281 N   0  0  0  0  0  0  0  0  0  0  0  0
    6.8391    1.9525   -0.4699 N   0  0  0  0  0  0  0  0  0  0  0  0
   -0.7603   -1.0900   -1.3043 C   0  0  1  0  0  0  0  0  0  0  0  0
    0.4919   -0.3021   -1.6463 C   0  0  2  0  0  0  0  0  0  0  0  0
   -0.3078   -1.8981   -0.0907 C   0  0  1  0  0  0  0  0  0  0  0  0
    1.0709   -0.0001   -0.2693 C   0  0  1  0  0  0  0  0  0  0  0  0
    0.2742   -3.2545   -0.4691 C   0  0  0  0  0  0  0  0  0  0  0  0
   -3.1974   -0.5936   -1.1283 C   0  0  0  0  0  0  0  0  0  0  0  0
    3.2091    1.4238   -0.4174 C   0  0  0  0  0  0  0  0  0  0  0  0
    3.5277   -0.7413   -0.1877 C   0  0  0  0  0  0  0  0  0  0  0  0
   -4.1512    0.5290   -0.7356 C   0  0  2  0  0  0  0  0  0  0  0  0
    4.5593    1.1136   -0.3830 C   0  0  0  0  0  0  0  0  0  0  0  0
   -4.6108    0.3541    0.7164 C   0  0  0  0  0  0  0  0  0  0  0  0
    5.4516    2.1753   -0.4944 C   0  0  0  0  0  0  0  0  0  0  0  0
   -3.6019    0.8687    1.7138 C   0  0  0  0  0  0  0  0  0  0  0  0
    3.6193    3.5849   -0.6457 C   0  0  0  0  0  0  0  0  0  0  0  0
   -5.9300    1.6308   -2.0833 C   0  0  0  0  0  0  0  0  0  0  0  0
   -2.6132    0.0182    2.2087 C   0  0  0  0  0  0  0  0  0  0  0  0
   -3.6579    2.1956    2.1405 C   0  0  0  0  0  0  0  0  0  0  0  0
   -7.0214    1.3151   -3.0708 C   0  0  0  0  0  0  0  0  0  0  0  0
    7.8022    3.0076   -0.5805 C   0  0  0  0  0  0  0  0  0  0  0  0
   -1.6808    0.4943    3.1304 C   0  0  0  0  0  0  0  0  0  0  0  0
   -2.7255    2.6718    3.0621 C   0  0  0  0  0  0  0  0  0  0  0  0
   -1.7371    1.8212    3.5571 C   0  0  0  0  0  0  0  0  0  0  0  0
   -1.0813   -1.7243   -2.1376 H   0  0  0  0  0  0  0  0  0  0  0  0
    1.1751   -0.9317   -2.2297 H   0  0  0  0  0  0  0  0  0  0  0  0
   -1.1069   -2.0573    0.6379 H   0  0  0  0  0  0  0  0  0  0  0  0
    0.6475    0.9050    0.1828 H   0  0  0  0  0  0  0  0  0  0  0  0
    1.1507   -3.1337   -1.1131 H   0  0  0  0  0  0  0  0  0  0  0  0
   -0.4763   -3.8542   -0.9933 H   0  0  0  0  0  0  0  0  0  0  0  0
   -1.6564    0.6743   -0.5456 H   0  0  0  0  0  0  0  0  0  0  0  0
    1.0761    1.3422   -2.5020 H   0  0  0  0  0  0  0  0  0  0  0  0
    3.2892   -1.7906   -0.0802 H   0  0  0  0  0  0  0  0  0  0  0  0
   -3.6504    1.4972   -0.8623 H   0  0  0  0  0  0  0  0  0  0  0  0
   -4.8358   -0.6994    0.9308 H   0  0  0  0  0  0  0  0  0  0  0  0
   -5.5577    0.8873    0.8779 H   0  0  0  0  0  0  0  0  0  0  0  0
   -5.5596   -0.4097   -2.0103 H   0  0  0  0  0  0  0  0  0  0  0  0
    3.2658    4.6047   -0.7540 H   0  0  0  0  0  0  0  0  0  0  0  0
    7.1614    0.9967   -0.3686 H   0  0  0  0  0  0  0  0  0  0  0  0
   -2.5807   -1.0236    1.9082 H   0  0  0  0  0  0  0  0  0  0  0  0
   -4.4216    2.8685    1.7598 H   0  0  0  0  0  0  0  0  0  0  0  0
    0.3445   -7.1767   -0.3988 H   0  0  0  0  0  0  0  0  0  0  0  0
    3.1319   -5.9435   -0.6633 H   0  0  0  0  0  0  0  0  0  0  0  0
   -7.6631    0.5190   -2.6827 H   0  0  0  0  0  0  0  0  0  0  0  0
   -7.6324    2.2056   -3.2423 H   0  0  0  0  0  0  0  0  0  0  0  0
   -6.5765    0.9964   -4.0174 H   0  0  0  0  0  0  0  0  0  0  0  0
    7.6972    3.7249    0.2398 H   0  0  0  0  0  0  0  0  0  0  0  0
    7.6985    3.5377   -1.5328 H   0  0  0  0  0  0  0  0  0  0  0  0
    8.8142    2.5937   -0.5361 H   0  0  0  0  0  0  0  0  0  0  0  0
   -0.9166   -0.1749    3.5160 H   0  0  0  0  0  0  0  0  0  0  0  0
   -2.7794    3.7078    3.3859 H   0  0  0  0  0  0  0  0  0  0  0  0
   -1.0136    3.2230    4.6375 H   0  0  0  0  0  0  0  0  0  0  0  0
  1  4  1  0  0  0  0
  1  6  1  0  0  0  0
  1  7  1  0  0  0  0
  1  8  2  0  0  0  0
  2 20  1  0  0  0  0
  2 21  1  0  0  0  0
  3 19  1  0  0  0  0
  3 47  1  0  0  0  0
  4 22  1  0  0  0  0
  5 23  2  0  0  0  0
  6 57  1  0  0  0  0
  7 58  1  0  0  0  0
  9 32  2  0  0  0  0
 10 39  1  0  0  0  0
 10 67  1  0  0  0  0
 11 18  1  0  0  0  0
 11 23  1  0  0  0  0
 11 46  1  0  0  0  0
 12 21  1  0  0  0  0
 12 24  1  0  0  0  0
 12 25  1  0  0  0  0
 13 25  2  0  0  0  0
 13 27  1  0  0  0  0
 14 24  2  0  0  0  0
 14 31  1  0  0  0  0
 15 26  1  0  0  0  0
 15 32  1  0  0  0  0
 15 52  1  0  0  0  0
 16 29  1  0  0  0  0
 16 31  2  0  0  0  0
 17 29  1  0  0  0  0
 17 36  1  0  0  0  0
 17 54  1  0  0  0  0
 18 19  1  0  0  0  0
 18 20  1  0  0  0  0
 18 40  1  0  0  0  0
 19 21  1  0  0  0  0
 19 41  1  0  0  0  0
 20 22  1  0  0  0  0
 20 42  1  0  0  0  0
 21 43  1  0  0  0  0
 22 44  1  0  0  0  0
 22 45  1  0  0  0  0
 23 26  1  0  0  0  0
 24 27  1  0  0  0  0
 25 48  1  0  0  0  0
 26 28  1  0  0  0  0
 26 49  1  0  0  0  0
 27 29  2  0  0  0  0
 28 30  1  0  0  0  0
 28 50  1  0  0  0  0
 28 51  1  0  0  0  0
 30 33  2  0  0  0  0
 30 34  1  0  0  0  0
 31 53  1  0  0  0  0
 32 35  1  0  0  0  0
 33 37  1  0  0  0  0
 33 55  1  0  0  0  0
 34 38  2  0  0  0  0
 34 56  1  0  0  0  0
 35 59  1  0  0  0  0
 35 60  1  0  0  0  0
 35 61  1  0  0  0  0
 36 62  1  0  0  0  0
 36 63  1  0  0  0  0
 36 64  1  0  0  0  0
 37 39  2  0  0  0  0
 37 65  1  0  0  0  0
 38 39  1  0  0  0  0
 38 66  1  0  0  0  0
M  END
> <PUBCHEM_COMPOUND_CID>
46173766

> <PUBCHEM_CONFORMER_RMSD>
1.2

> <PUBCHEM_CONFORMER_DIVERSEORDER>
1
18
34
33
28
40
20
44
43
10
45
59
58
50
26
25
17
37
11
53
29
8
22
31
61
12
52
16
36
54
46
2
42
27
13
60
30
49
48
14
39
4
21
57
24
41
9
6
15
35
56
23
51
47
3
55
5
38
7
32
19

> <PUBCHEM_MMFF94_PARTIAL_CHARGES>
52
1 1.51
10 -0.53
11 -0.73
12 0.05
13 -0.57
14 -0.57
15 -0.73
16 -0.62
17 -0.87
18 0.3
19 0.28
2 -0.56
20 0.28
21 0.54
22 0.28
23 0.57
24 0.11
25 0.04
26 0.36
27 0.23
28 0.14
29 0.41
3 -0.68
30 -0.14
31 0.47
32 0.57
33 -0.15
34 -0.15
35 0.06
36 0.37
37 -0.15
38 -0.15
39 0.08
4 -0.55
46 0.37
47 0.4
48 0.15
5 -0.57
52 0.37
53 0.15
54 0.4
55 0.15
56 0.15
57 0.5
58 0.5
6 -0.77
65 0.15
66 0.15
67 0.45
7 -0.77
8 -0.7
9 -0.57

> <PUBCHEM_EFFECTIVE_ROTOR_COUNT>
13

> <PUBCHEM_PHARMACOPHORE_FEATURES>
21
1 10 donor
1 11 donor
1 15 donor
1 17 cation
1 17 donor
1 2 acceptor
1 3 acceptor
1 3 donor
1 5 acceptor
1 6 acceptor
1 7 acceptor
1 8 acceptor
1 9 acceptor
3 12 13 25 cation
3 12 14 24 cation
3 14 16 31 cation
4 1 6 7 8 anion
5 12 13 24 25 27 rings
5 2 18 19 20 21 rings
6 14 16 24 27 29 31 rings
6 30 33 34 37 38 39 rings

> <PUBCHEM_HEAVY_ATOM_COUNT>
39

> <PUBCHEM_ATOM_DEF_STEREO_COUNT>
5

> <PUBCHEM_ATOM_UDEF_STEREO_COUNT>
0

> <PUBCHEM_BOND_DEF_STEREO_COUNT>
0

> <PUBCHEM_BOND_UDEF_STEREO_COUNT>
0

> <PUBCHEM_ISOTOPIC_ATOM_COUNT>
0

> <PUBCHEM_COMPONENT_COUNT>
1

> <PUBCHEM_CACTVS_TAUTO_COUNT>
24

> <PUBCHEM_CONFORMER_ID>
02C08E4600000001

> <PUBCHEM_MMFF94_ENERGY>
56.6934

> <PUBCHEM_FEATURE_SELFOVERLAP>
107.209

> <PUBCHEM_SHAPE_FINGERPRINT>
10670039 82 16877653557146998164
11763715 3 17328849410746259942
12655364 131 18338242690798499418
12788726 201 17749383720524826672
12977781 61 17774708866643445955
14068700 675 17539716980973799271
15448158 71 17680402714398497393
16112460 7 18335129904923954130
19304671 126 17127082327606394357
19319366 153 18188477052068603715
21033648 29 18270694047242095660
21033650 10 17460842195668413900
2132832 1 17754185498473259651
244849 19 17559095796103414011
4616759 239 17901676969394861496
508180 173 16980120598067313253
6608658 132 17022901250794731197

> <PUBCHEM_SHAPE_MULTIPOLES>
718.76
14.22
6.76
3.32
7.11
15.47
-3.2
-18.5
9.74
7.67
-2.14
-6.59
-2.88
-1.88

> <PUBCHEM_SHAPE_SELFOVERLAP>
1515.877

> <PUBCHEM_SHAPE_VOLUME>
405.7

> <PUBCHEM_COORDINATE_TYPE>
2
5
10

$$$$

