2141
  -OEChem-07051212523D

 27 26  0     0  0  0  0  0  0999 V2000
    2.3080   -1.0837    0.0327 S   0  0  0  0  0  0  0  0  0  0  0  0
    3.9946    0.1564    0.0648 P   0  0  0  0  0  0  0  0  0  0  0  0
    4.0658    1.0009   -1.3187 O   0  0  0  0  0  0  0  0  0  0  0  0
    5.3230   -0.7679   -0.0522 O   0  0  0  0  0  0  0  0  0  0  0  0
    4.0058    1.0370    1.2848 O   0  0  0  0  0  0  0  0  0  0  0  0
   -1.5448    0.1874   -0.0105 N   0  0  0  0  0  0  0  0  0  0  0  0
   -6.4543    0.6198   -0.0223 N   0  0  0  0  0  0  0  0  0  0  0  0
   -2.8085   -0.5394    0.0030 C   0  0  0  0  0  0  0  0  0  0  0  0
   -4.0125    0.4049   -0.0172 C   0  0  0  0  0  0  0  0  0  0  0  0
   -0.4160   -0.7325   -0.0016 C   0  0  0  0  0  0  0  0  0  0  0  0
    0.8902    0.0516    0.0219 C   0  0  0  0  0  0  0  0  0  0  0  0
   -5.3514   -0.3343    0.0154 C   0  0  0  0  0  0  0  0  0  0  0  0
   -2.8666   -1.1993   -0.8714 H   0  0  0  0  0  0  0  0  0  0  0  0
   -2.8683   -1.1705    0.8984 H   0  0  0  0  0  0  0  0  0  0  0  0
   -3.9634    1.0312   -0.9179 H   0  0  0  0  0  0  0  0  0  0  0  0
   -3.9524    1.0841    0.8437 H   0  0  0  0  0  0  0  0  0  0  0  0
   -0.4508   -1.3659   -0.8969 H   0  0  0  0  0  0  0  0  0  0  0  0
   -0.4721   -1.3844    0.8795 H   0  0  0  0  0  0  0  0  0  0  0  0
   -1.4959    0.8051    0.7992 H   0  0  0  0  0  0  0  0  0  0  0  0
    0.9496    0.6843    0.9139 H   0  0  0  0  0  0  0  0  0  0  0  0
    0.9721    0.6982   -0.8582 H   0  0  0  0  0  0  0  0  0  0  0  0
   -5.4254   -0.9424    0.9235 H   0  0  0  0  0  0  0  0  0  0  0  0
   -5.4297   -1.0069   -0.8454 H   0  0  0  0  0  0  0  0  0  0  0  0
   -6.4059    1.2327    0.7907 H   0  0  0  0  0  0  0  0  0  0  0  0
   -7.3378    0.1173    0.0512 H   0  0  0  0  0  0  0  0  0  0  0  0
    4.7394    1.7087   -1.4053 H   0  0  0  0  0  0  0  0  0  0  0  0
    6.2017   -0.3483    0.0667 H   0  0  0  0  0  0  0  0  0  0  0  0
  1  2  1  0  0  0  0
  1 11  1  0  0  0  0
  2  3  1  0  0  0  0
  2  4  1  0  0  0  0
  2  5  2  0  0  0  0
  3 26  1  0  0  0  0
  4 27  1  0  0  0  0
  6  8  1  0  0  0  0
  6 10  1  0  0  0  0
  6 19  1  0  0  0  0
  7 12  1  0  0  0  0
  7 24  1  0  0  0  0
  7 25  1  0  0  0  0
  8  9  1  0  0  0  0
  8 13  1  0  0  0  0
  8 14  1  0  0  0  0
  9 12  1  0  0  0  0
  9 15  1  0  0  0  0
  9 16  1  0  0  0  0
 10 11  1  0  0  0  0
 10 17  1  0  0  0  0
 10 18  1  0  0  0  0
 11 20  1  0  0  0  0
 11 21  1  0  0  0  0
 12 22  1  0  0  0  0
 12 23  1  0  0  0  0
M  END
> <PUBCHEM_COMPOUND_CID>
2141

> <PUBCHEM_CONFORMER_RMSD>
0.8

> <PUBCHEM_CONFORMER_DIVERSEORDER>
1
19
48
54
15
37
52
17
46
14
18
41
16
35
23
26
47
7
30
12
28
25
20
27
34
22
21
5
11
43
31
29
33
10
51
49
9
53
24
50
6
40
3
4
39
45
36
2
42
38
55
44
8
32
13

> <PUBCHEM_MMFF94_PARTIAL_CHARGES>
16
1 -0.48
10 0.27
11 0.23
12 0.27
19 0.36
2 1.49
24 0.36
25 0.36
26 0.5
27 0.5
3 -0.77
4 -0.77
5 -0.7
6 -0.9
7 -0.99
8 0.27

> <PUBCHEM_EFFECTIVE_ROTOR_COUNT>
7

> <PUBCHEM_PHARMACOPHORE_FEATURES>
8
1 3 acceptor
1 4 acceptor
1 5 acceptor
1 6 cation
1 6 donor
1 7 cation
1 7 donor
4 2 3 4 5 anion

> <PUBCHEM_HEAVY_ATOM_COUNT>
12

> <PUBCHEM_ATOM_DEF_STEREO_COUNT>
0

> <PUBCHEM_ATOM_UDEF_STEREO_COUNT>
0

> <PUBCHEM_BOND_DEF_STEREO_COUNT>
0

> <PUBCHEM_BOND_UDEF_STEREO_COUNT>
0

> <PUBCHEM_ISOTOPIC_ATOM_COUNT>
0

> <PUBCHEM_COMPONENT_COUNT>
1

> <PUBCHEM_CACTVS_TAUTO_COUNT>
1

> <PUBCHEM_CONFORMER_ID>
0000085D00000001

> <PUBCHEM_MMFF94_ENERGY>
-36.2042

> <PUBCHEM_FEATURE_SELFOVERLAP>
40.635

> <PUBCHEM_SHAPE_FINGERPRINT>
11287383 113 17240766146879957559
13533116 47 17346046674372819650
14123238 8 17846499236051988687
14251718 22 17095527271084939503
17834072 33 17894634738398274823
17834076 25 18411418418961758987
20645477 70 18114741663115908590
20719005 15 18410012143394687154
212847 35 18410292497912467256
220451 1 15195283136206007339
23402539 116 18260554416067464951
23532345 1 17989200456253383218
23557571 272 18130785719465479077
42788 4 18260831505729604763
522135 26 17240201045374735278

> <PUBCHEM_SHAPE_MULTIPOLES>
227.08
14.71
1.02
0.81
11.27
0.04
-0.01
-2.38
-0.12
-0.7
0
-0.9
-0.22
0.02

> <PUBCHEM_SHAPE_SELFOVERLAP>
383.764

> <PUBCHEM_SHAPE_VOLUME>
154.2

> <PUBCHEM_COORDINATE_TYPE>
2
5
10

$$$$

