46173970
  -OEChem-07051213102D

 58 62  0     1  0  0  0  0  0999 V2000
    2.9785   -0.7475    0.0000 O   0  0  0  0  0  0  0  0  0  0  0  0
    3.8155   -1.2232    0.0000 O   0  0  0  0  0  0  0  0  0  0  0  0
    5.4476    1.9196    0.0000 O   0  0  0  0  0  0  0  0  0  0  0  0
    2.8836   -2.5213    0.0000 O   0  0  0  0  0  0  0  0  0  0  0  0
    2.8836    3.3605    0.0000 O   0  0  0  0  0  0  0  0  0  0  0  0
    7.0534   -3.7979    0.0000 O   0  0  0  0  0  0  0  0  0  0  0  0
    4.5816   -0.5804    0.0000 C   0  0  2  0  0  0  0  0  0  0  0  0
    4.3723   -1.5522    0.0000 C   0  0  1  0  0  0  0  0  0  0  0  0
    5.4476   -0.0804    0.0000 C   0  0  2  0  0  0  0  0  0  0  0  0
    5.4476    0.9196    0.0000 C   0  0  3  0  0  0  0  0  0  0  0  0
    3.7155   -0.0804    0.0000 C   0  0  1  0  0  0  0  0  0  0  0  0
    4.5816    1.4196    0.0000 C   0  0  1  0  0  0  0  0  0  0  0  0
    3.3836   -1.6553    0.0000 C   0  0  3  0  0  0  0  0  0  0  0  0
    3.7155    0.9196    0.0000 C   0  0  1  0  0  0  0  0  0  0  0  0
    5.3573   -1.7673    0.0000 C   0  0  1  0  0  0  0  0  0  0  0  0
    5.1589   -0.9636    0.0000 C   0  0  0  0  0  0  0  0  0  0  0  0
    5.9520   -0.9533    0.0000 C   0  0  0  0  0  0  0  0  0  0  0  0
    2.9785    1.5867    0.0000 C   0  0  3  0  0  0  0  0  0  0  0  0
    4.3723    2.3914    0.0000 C   0  0  0  0  0  0  0  0  0  0  0  0
    5.0402   -2.2965    0.0000 C   0  0  0  0  0  0  0  0  0  0  0  0
    6.3794    1.2826    0.0000 C   0  0  0  0  0  0  0  0  0  0  0  0
    3.3836    2.4945    0.0000 C   0  0  2  0  0  0  0  0  0  0  0  0
    5.7118   -2.7024    0.0000 C   0  0  3  0  0  0  0  0  0  0  0  0
    2.0000    1.3805    0.0000 C   0  0  0  0  0  0  0  0  0  0  0  0
    6.6988   -2.8629    0.0000 C   0  0  0  0  0  0  0  0  0  0  0  0
    5.0793   -3.4769    0.0000 C   0  0  0  0  0  0  0  0  0  0  0  0
    6.1837    0.3446    0.0000 H   0  0  0  0  0  0  0  0  0  0  0  0
    2.8784    0.0672    0.0000 H   0  0  0  0  0  0  0  0  0  0  0  0
    2.8784    0.7720    0.0000 H   0  0  0  0  0  0  0  0  0  0  0  0
    5.9717   -1.8503    0.0000 H   0  0  0  0  0  0  0  0  0  0  0  0
    5.2802   -1.5717    0.0000 H   0  0  0  0  0  0  0  0  0  0  0  0
    5.7787   -0.9497    0.0000 H   0  0  0  0  0  0  0  0  0  0  0  0
    6.3973   -1.3847    0.0000 H   0  0  0  0  0  0  0  0  0  0  0  0
    6.4408   -0.5719    0.0000 H   0  0  0  0  0  0  0  0  0  0  0  0
    2.5890    2.0690    0.0000 H   0  0  0  0  0  0  0  0  0  0  0  0
    4.9888    2.4575    0.0000 H   0  0  0  0  0  0  0  0  0  0  0  0
    4.3714    3.0114    0.0000 H   0  0  0  0  0  0  0  0  0  0  0  0
    4.5787   -2.7106    0.0000 H   0  0  0  0  0  0  0  0  0  0  0  0
    5.4542   -2.7580    0.0000 H   0  0  0  0  0  0  0  0  0  0  0  0
    5.5016   -1.8824    0.0000 H   0  0  0  0  0  0  0  0  0  0  0  0
    6.6044    0.7049    0.0000 H   0  0  0  0  0  0  0  0  0  0  0  0
    6.9571    1.5077    0.0000 H   0  0  0  0  0  0  0  0  0  0  0  0
    6.1543    1.8603    0.0000 H   0  0  0  0  0  0  0  0  0  0  0  0
    3.7211    3.0146    0.0000 H   0  0  0  0  0  0  0  0  0  0  0  0
    5.0998   -2.6029    0.0000 H   0  0  0  0  0  0  0  0  0  0  0  0
    3.9232   -1.8338    0.0000 H   0  0  0  0  0  0  0  0  0  0  0  0
    5.4476    2.5396    0.0000 H   0  0  0  0  0  0  0  0  0  0  0  0
    2.2636   -2.5213    0.0000 H   0  0  0  0  0  0  0  0  0  0  0  0
    1.8721    1.9871    0.0000 H   0  0  0  0  0  0  0  0  0  0  0  0
    1.3933    1.2526    0.0000 H   0  0  0  0  0  0  0  0  0  0  0  0
    2.1279    0.7738    0.0000 H   0  0  0  0  0  0  0  0  0  0  0  0
    7.3079   -2.7471    0.0000 H   0  0  0  0  0  0  0  0  0  0  0  0
    6.6906   -2.2429    0.0000 H   0  0  0  0  0  0  0  0  0  0  0  0
    4.5991   -3.0848    0.0000 H   0  0  0  0  0  0  0  0  0  0  0  0
    4.6871   -3.9572    0.0000 H   0  0  0  0  0  0  0  0  0  0  0  0
    5.5595   -3.8691    0.0000 H   0  0  0  0  0  0  0  0  0  0  0  0
    3.1936    3.8974    0.0000 H   0  0  0  0  0  0  0  0  0  0  0  0
    7.6653   -3.8974    0.0000 H   0  0  0  0  0  0  0  0  0  0  0  0
  1 11  1  0  0  0  0
  1 13  1  0  0  0  0
  7  2  1  1  0  0  0
  2 46  1  0  0  0  0
 12  3  1  1  0  0  0
  3 47  1  0  0  0  0
  4 13  1  0  0  0  0
  4 48  1  0  0  0  0
 22  5  1  1  0  0  0
  5 57  1  0  0  0  0
  6 25  1  0  0  0  0
  6 58  1  0  0  0  0
  7  8  1  0  0  0  0
  7  9  1  0  0  0  0
  7 11  1  0  0  0  0
  8 13  1  0  0  0  0
  8 15  1  0  0  0  0
  8 20  1  1  0  0  0
  9 10  1  0  0  0  0
  9 17  1  0  0  0  0
  9 27  1  1  0  0  0
 10 12  1  0  0  0  0
 10 16  1  0  0  0  0
 10 21  1  0  0  0  0
 11 14  1  0  0  0  0
 11 28  1  1  0  0  0
 12 14  1  0  0  0  0
 12 19  1  0  0  0  0
 13 16  1  0  0  0  0
 14 18  1  0  0  0  0
 14 29  1  1  0  0  0
 15 17  1  0  0  0  0
 15 23  1  1  0  0  0
 15 30  1  0  0  0  0
 16 31  1  0  0  0  0
 16 32  1  0  0  0  0
 17 33  1  0  0  0  0
 17 34  1  0  0  0  0
 18 22  1  0  0  0  0
 18 24  1  0  0  0  0
 18 35  1  0  0  0  0
 19 22  1  0  0  0  0
 19 36  1  0  0  0  0
 19 37  1  0  0  0  0
 20 38  1  0  0  0  0
 20 39  1  0  0  0  0
 20 40  1  0  0  0  0
 21 41  1  0  0  0  0
 21 42  1  0  0  0  0
 21 43  1  0  0  0  0
 22 44  1  0  0  0  0
 23 25  1  0  0  0  0
 23 26  1  0  0  0  0
 23 45  1  0  0  0  0
 24 49  1  0  0  0  0
 24 50  1  0  0  0  0
 24 51  1  0  0  0  0
 25 52  1  0  0  0  0
 25 53  1  0  0  0  0
 26 54  1  0  0  0  0
 26 55  1  0  0  0  0
 26 56  1  0  0  0  0
M  END
> <PUBCHEM_COMPOUND_CID>
46173970

> <PUBCHEM_COMPOUND_CANONICALIZED>
1

> <PUBCHEM_CACTVS_COMPLEXITY>
671

> <PUBCHEM_CACTVS_HBOND_ACCEPTOR>
6

> <PUBCHEM_CACTVS_HBOND_DONOR>
5

> <PUBCHEM_CACTVS_ROTATABLE_BOND>
2

> <PUBCHEM_CACTVS_SUBSKEYS>
AAADcfB4OAAAAAAAAAAAAAAAAAAAAaMEAAAwYAAABogAAGAAAAAAGgAACAAAD1SggAICCAAABgAAAAAAAAAAAAAAAAAAAAAAAAAREAIAAAACQAAFAAAHAAHA4PwPgAAAAAAAAADCAAYQADCAAYQADAAAAA==

> <PUBCHEM_IUPAC_INCHI>
InChI=1S/C20H32O6/c1-9(7-21)11-5-13-16(3)8-19(24)17(11,4)20(13,25)15(26-19)14-10(2)12(22)6-18(14,16)23/h9-15,21-25H,5-8H2,1-4H3/t9?,10?,11-,12-,13-,14-,15+,16?,17+,18+,19?,20+/m0/s1

> <PUBCHEM_IUPAC_INCHIKEY>
HQUSKUTUDDZKOD-UTOMUYHSSA-N

> <PUBCHEM_XLOGP3_AA>
0.1

> <PUBCHEM_EXACT_MASS>
368.219889

> <PUBCHEM_MOLECULAR_FORMULA>
C20H32O6

> <PUBCHEM_MOLECULAR_WEIGHT>
368.46448

> <PUBCHEM_OPENEYE_CAN_SMILES>
CC1C(CC2(C1C3C4(C5C2(CC(C4(C(C5)C(C)CO)C)(O3)O)C)O)O)O

> <PUBCHEM_OPENEYE_ISO_SMILES>
CC1[C@H](C[C@]2([C@@H]1[C@@H]3[C@@]4([C@@H]5C2(CC([C@]4([C@@H](C5)C(C)CO)C)(O3)O)C)O)O)O

> <PUBCHEM_CACTVS_TPSA>
110

> <PUBCHEM_MONOISOTOPIC_WEIGHT>
368.219889

> <PUBCHEM_TOTAL_CHARGE>
0

> <PUBCHEM_HEAVY_ATOM_COUNT>
26

> <PUBCHEM_ATOM_DEF_STEREO_COUNT>
8

> <PUBCHEM_ATOM_UDEF_STEREO_COUNT>
4

> <PUBCHEM_BOND_DEF_STEREO_COUNT>
0

> <PUBCHEM_BOND_UDEF_STEREO_COUNT>
0

> <PUBCHEM_ISOTOPIC_ATOM_COUNT>
0

> <PUBCHEM_COMPONENT_COUNT>
1

> <PUBCHEM_CACTVS_TAUTO_COUNT>
1

> <PUBCHEM_COORDINATE_TYPE>
1
5
255

> <PUBCHEM_BONDANNOTATIONS>
10  21  3
11  28  5
14  29  5
15  23  5
18  24  3
7  2  5
23  26  3
12  3  5
13  4  3
22  5  5
8  20  5
9  27  5

$$$$

