181740
  -OEChem-07051213083D

 26 26  0     1  0  0  0  0  0999 V2000
    0.1648    1.8809    0.6253 O   0  0  0  0  0  0  0  0  0  0  0  0
    3.5022   -1.0623   -0.5645 O   0  0  0  0  0  0  0  0  0  0  0  0
   -3.1621   -0.9083    0.8849 O   0  0  0  0  0  0  0  0  0  0  0  0
   -0.9401   -0.8149    0.2105 N   0  0  0  0  0  0  0  0  0  0  0  0
    1.1973   -1.0488   -0.9194 N   0  0  0  0  0  0  0  0  0  0  0  0
    2.1079    0.6647    0.1797 N   0  0  0  0  0  0  0  0  0  0  0  0
   -2.5547    0.6460   -0.6971 N   0  0  0  0  0  0  0  0  0  0  0  0
    0.0782   -0.1981   -0.6292 C   0  0  2  0  0  0  0  0  0  0  0  0
    0.7548    0.9285    0.1322 C   0  0  0  0  0  0  0  0  0  0  0  0
    2.4053   -0.5326   -0.4428 C   0  0  0  0  0  0  0  0  0  0  0  0
   -0.4801   -1.8918    1.0839 C   0  0  0  0  0  0  0  0  0  0  0  0
   -2.2839   -0.3992    0.1819 C   0  0  0  0  0  0  0  0  0  0  0  0
    3.0896    1.5306    0.8015 C   0  0  0  0  0  0  0  0  0  0  0  0
   -3.8791    1.2054   -0.8468 C   0  0  0  0  0  0  0  0  0  0  0  0
   -0.3006    0.1539   -1.5904 H   0  0  0  0  0  0  0  0  0  0  0  0
    1.1276   -1.9206   -1.4348 H   0  0  0  0  0  0  0  0  0  0  0  0
   -1.2841   -2.2130    1.7519 H   0  0  0  0  0  0  0  0  0  0  0  0
    0.3560   -1.5410    1.6954 H   0  0  0  0  0  0  0  0  0  0  0  0
   -0.1796   -2.7510    0.4775 H   0  0  0  0  0  0  0  0  0  0  0  0
    3.1050    1.3103    1.8729 H   0  0  0  0  0  0  0  0  0  0  0  0
    2.8017    2.5761    0.6618 H   0  0  0  0  0  0  0  0  0  0  0  0
    4.0814    1.3462    0.3811 H   0  0  0  0  0  0  0  0  0  0  0  0
   -1.8070    1.1707   -1.1305 H   0  0  0  0  0  0  0  0  0  0  0  0
   -4.6287    0.4101   -0.8267 H   0  0  0  0  0  0  0  0  0  0  0  0
   -3.9258    1.7414   -1.7974 H   0  0  0  0  0  0  0  0  0  0  0  0
   -4.0585    1.8974   -0.0201 H   0  0  0  0  0  0  0  0  0  0  0  0
  1  9  2  0  0  0  0
  2 10  2  0  0  0  0
  3 12  2  0  0  0  0
  4  8  1  0  0  0  0
  4 11  1  0  0  0  0
  4 12  1  0  0  0  0
  5  8  1  0  0  0  0
  5 10  1  0  0  0  0
  5 16  1  0  0  0  0
  6  9  1  0  0  0  0
  6 10  1  0  0  0  0
  6 13  1  0  0  0  0
  7 12  1  0  0  0  0
  7 14  1  0  0  0  0
  7 23  1  0  0  0  0
  8  9  1  0  0  0  0
  8 15  1  0  0  0  0
 11 17  1  0  0  0  0
 11 18  1  0  0  0  0
 11 19  1  0  0  0  0
 13 20  1  0  0  0  0
 13 21  1  0  0  0  0
 13 22  1  0  0  0  0
 14 24  1  0  0  0  0
 14 25  1  0  0  0  0
 14 26  1  0  0  0  0
M  END
> <PUBCHEM_COMPOUND_CID>
181740

> <PUBCHEM_CONFORMER_RMSD>
0.6

> <PUBCHEM_CONFORMER_DIVERSEORDER>
3
14
15
19
17
1
10
7
18
9
11
8
5
20
6
16
13
4
2
12

> <PUBCHEM_MMFF94_PARTIAL_CHARGES>
16
1 -0.57
10 0.69
11 0.3
12 0.69
13 0.3
14 0.3
16 0.37
2 -0.57
23 0.37
3 -0.57
4 -0.66
5 -0.73
6 -0.42
7 -0.73
8 0.66
9 0.57

> <PUBCHEM_EFFECTIVE_ROTOR_COUNT>
3.6

> <PUBCHEM_PHARMACOPHORE_FEATURES>
6
1 1 acceptor
1 2 acceptor
1 3 acceptor
1 5 donor
1 7 donor
5 5 6 8 9 10 rings

> <PUBCHEM_HEAVY_ATOM_COUNT>
14

> <PUBCHEM_ATOM_DEF_STEREO_COUNT>
0

> <PUBCHEM_ATOM_UDEF_STEREO_COUNT>
1

> <PUBCHEM_BOND_DEF_STEREO_COUNT>
0

> <PUBCHEM_BOND_UDEF_STEREO_COUNT>
0

> <PUBCHEM_ISOTOPIC_ATOM_COUNT>
0

> <PUBCHEM_COMPONENT_COUNT>
1

> <PUBCHEM_CACTVS_TAUTO_COUNT>
4

> <PUBCHEM_CONFORMER_ID>
0002C5EC00000003

> <PUBCHEM_MMFF94_ENERGY>
24.4724

> <PUBCHEM_FEATURE_SELFOVERLAP>
30.446

> <PUBCHEM_SHAPE_FINGERPRINT>
10219947 1 17894910728427253558
10608611 8 18411421670083437405
124424 183 18340488962260799622
12654215 9 18409454716832603036
12716758 59 18272649039050487419
12932764 1 18336538335404351599
13296908 3 18410008823300467371
13464514 151 18051696839168606661
13571099 22 18334858333202850772
14993402 34 16950283988083919548
15219456 202 18409449163387044300
15279308 132 18201715145901648770
15775835 57 17846218899194034843
16945 1 18041554844871127662
17844478 74 18200580415931941889
18186145 218 18412539942175588237
19049666 15 18413387644070834787
19422 9 15123793972109373585
20201158 50 18335137643458080526
20645477 70 18113622317175646303
20715346 28 18411697647396169803
21501502 16 17908699536189555843
23402539 116 18126864698340958207
23402655 69 18114474443610166677
23559900 14 18341611551655224822
25 1 18269558415397477429
2748010 2 18190169110163786422
5084963 1 18271794693051772155
53812653 166 18272370918712110699
77492 1 16008743610980638063

> <PUBCHEM_SHAPE_MULTIPOLES>
250.58
5.7
1.77
1
1.82
0.04
-0.04
1.32
0.62
-0.11
-0.43
0.03
-0.11
1.23

> <PUBCHEM_SHAPE_SELFOVERLAP>
507.695

> <PUBCHEM_SHAPE_VOLUME>
148.2

> <PUBCHEM_COORDINATE_TYPE>
2
5
10

$$$$

