18519
  -OEChem-07051212513D

 38 40  0     1  0  0  0  0  0999 V2000
    4.0386    2.7451    0.0268 O   0  0  0  0  0  0  0  0  0  0  0  0
    5.8083    0.6285   -0.2845 O   0  0  0  0  0  0  0  0  0  0  0  0
   -5.1500   -1.4672   -0.2765 O   0  0  0  0  0  0  0  0  0  0  0  0
   -5.9441    1.0837    0.4913 O   0  0  0  0  0  0  0  0  0  0  0  0
   -0.0705   -1.7514    0.7921 N   0  0  0  0  0  0  0  0  0  0  0  0
    0.2540   -0.3590    0.4289 C   0  0  1  0  0  0  0  0  0  0  0  0
    1.7390   -0.1044    0.2464 C   0  0  0  0  0  0  0  0  0  0  0  0
    2.6381   -1.1737    0.0796 C   0  0  0  0  0  0  0  0  0  0  0  0
    2.1538   -2.5983    0.1530 C   0  0  0  0  0  0  0  0  0  0  0  0
   -0.5469    0.0678   -0.8069 C   0  0  0  0  0  0  0  0  0  0  0  0
    0.6440   -2.7140   -0.0480 C   0  0  0  0  0  0  0  0  0  0  0  0
    2.2287    1.2108    0.2250 C   0  0  0  0  0  0  0  0  0  0  0  0
   -1.9838    0.3347   -0.4626 C   0  0  0  0  0  0  0  0  0  0  0  0
    4.0047   -0.9132   -0.0916 C   0  0  0  0  0  0  0  0  0  0  0  0
    3.5891    1.4596    0.0439 C   0  0  0  0  0  0  0  0  0  0  0  0
    4.4762    0.3985   -0.1144 C   0  0  0  0  0  0  0  0  0  0  0  0
   -2.9103   -0.6991   -0.5299 C   0  0  0  0  0  0  0  0  0  0  0  0
   -2.3725    1.6129   -0.0796 C   0  0  0  0  0  0  0  0  0  0  0  0
   -4.2451   -0.4511   -0.2094 C   0  0  0  0  0  0  0  0  0  0  0  0
   -3.7074    1.8609    0.2406 C   0  0  0  0  0  0  0  0  0  0  0  0
   -4.6437    0.8289    0.1758 C   0  0  0  0  0  0  0  0  0  0  0  0
   -0.0536    0.2485    1.2913 H   0  0  0  0  0  0  0  0  0  0  0  0
    2.6599   -3.2054   -0.6070 H   0  0  0  0  0  0  0  0  0  0  0  0
    2.4251   -3.0000    1.1376 H   0  0  0  0  0  0  0  0  0  0  0  0
   -0.4832   -0.6613   -1.6243 H   0  0  0  0  0  0  0  0  0  0  0  0
   -0.1309    0.9865   -1.2431 H   0  0  0  0  0  0  0  0  0  0  0  0
    0.3848   -2.5888   -1.1052 H   0  0  0  0  0  0  0  0  0  0  0  0
    0.3291   -3.7271    0.2272 H   0  0  0  0  0  0  0  0  0  0  0  0
   -1.0713   -1.9224    0.7528 H   0  0  0  0  0  0  0  0  0  0  0  0
    1.5382    2.0419    0.3530 H   0  0  0  0  0  0  0  0  0  0  0  0
    4.6985   -1.7435   -0.2031 H   0  0  0  0  0  0  0  0  0  0  0  0
   -2.6126   -1.6958   -0.8448 H   0  0  0  0  0  0  0  0  0  0  0  0
   -1.6514    2.4236   -0.0228 H   0  0  0  0  0  0  0  0  0  0  0  0
   -4.0040    2.8626    0.5398 H   0  0  0  0  0  0  0  0  0  0  0  0
    3.2846    3.3467    0.1512 H   0  0  0  0  0  0  0  0  0  0  0  0
    6.2682   -0.2235   -0.3764 H   0  0  0  0  0  0  0  0  0  0  0  0
   -6.0217   -1.1177   -0.0220 H   0  0  0  0  0  0  0  0  0  0  0  0
   -6.0333    2.0214    0.7338 H   0  0  0  0  0  0  0  0  0  0  0  0
  1 15  1  0  0  0  0
  1 35  1  0  0  0  0
  2 16  1  0  0  0  0
  2 36  1  0  0  0  0
  3 19  1  0  0  0  0
  3 37  1  0  0  0  0
  4 21  1  0  0  0  0
  4 38  1  0  0  0  0
  5  6  1  0  0  0  0
  5 11  1  0  0  0  0
  5 29  1  0  0  0  0
  6  7  1  0  0  0  0
  6 10  1  0  0  0  0
  6 22  1  0  0  0  0
  7  8  1  0  0  0  0
  7 12  2  0  0  0  0
  8  9  1  0  0  0  0
  8 14  2  0  0  0  0
  9 11  1  0  0  0  0
  9 23  1  0  0  0  0
  9 24  1  0  0  0  0
 10 13  1  0  0  0  0
 10 25  1  0  0  0  0
 10 26  1  0  0  0  0
 11 27  1  0  0  0  0
 11 28  1  0  0  0  0
 12 15  1  0  0  0  0
 12 30  1  0  0  0  0
 13 17  2  0  0  0  0
 13 18  1  0  0  0  0
 14 16  1  0  0  0  0
 14 31  1  0  0  0  0
 15 16  2  0  0  0  0
 17 19  1  0  0  0  0
 17 32  1  0  0  0  0
 18 20  2  0  0  0  0
 18 33  1  0  0  0  0
 19 21  2  0  0  0  0
 20 21  1  0  0  0  0
 20 34  1  0  0  0  0
M  END
> <PUBCHEM_COMPOUND_CID>
18519

> <PUBCHEM_CONFORMER_RMSD>
0.6

> <PUBCHEM_CONFORMER_DIVERSEORDER>
5
11
23
1
16
9
2
25
21
12
8
17
22
19
6
13
3
18
14
7
4
15
24
10
20

> <PUBCHEM_MMFF94_PARTIAL_CHARGES>
31
1 -0.53
10 0.14
11 0.27
12 -0.15
13 -0.14
14 -0.15
15 0.08
16 0.08
17 -0.15
18 -0.15
19 0.08
2 -0.53
20 -0.15
21 0.08
29 0.36
3 -0.53
30 0.15
31 0.15
32 0.15
33 0.15
34 0.15
35 0.45
36 0.45
37 0.45
38 0.45
4 -0.53
5 -0.9
6 0.41
7 -0.14
8 -0.14
9 0.14

> <PUBCHEM_EFFECTIVE_ROTOR_COUNT>
2.8

> <PUBCHEM_PHARMACOPHORE_FEATURES>
9
1 1 donor
1 2 donor
1 3 donor
1 4 donor
1 5 cation
1 5 donor
6 13 17 18 19 20 21 rings
6 5 6 7 8 9 11 rings
6 7 8 12 14 15 16 rings

> <PUBCHEM_HEAVY_ATOM_COUNT>
21

> <PUBCHEM_ATOM_DEF_STEREO_COUNT>
0

> <PUBCHEM_ATOM_UDEF_STEREO_COUNT>
1

> <PUBCHEM_BOND_DEF_STEREO_COUNT>
0

> <PUBCHEM_BOND_UDEF_STEREO_COUNT>
0

> <PUBCHEM_ISOTOPIC_ATOM_COUNT>
0

> <PUBCHEM_COMPONENT_COUNT>
1

> <PUBCHEM_CACTVS_TAUTO_COUNT>
324

> <PUBCHEM_CONFORMER_ID>
0000485700000005

> <PUBCHEM_MMFF94_ENERGY>
53.0745

> <PUBCHEM_FEATURE_SELFOVERLAP>
45.7

> <PUBCHEM_SHAPE_FINGERPRINT>
10411042 1 17762618795645729162
10616163 171 18408042897043390679
11796584 16 14851605488351363932
12107183 9 17615404101222096313
12236239 1 17967252017866150480
12644460 14 18202006576992197578
12730499 353 18341603837076407354
12788726 201 17024023951456964545
13009979 54 17390227375391815786
13167823 11 18334860532431880151
13760787 19 18186805794388901167
14251764 18 18202570571234295882
14341114 176 18337383950441058681
14341114 328 18334574672383127097
14528608 73 18410013217257707285
14787075 74 18337956688593188729
14790565 3 18338231574695038997
15196674 1 18410576209976217479
17834072 33 18408325488626572055
17844677 252 18263917894724234865
18186145 218 18410863187175306132
21033648 29 16773812393084423973
21065198 48 18335985367545360475
21267235 1 18408597067555579526
21709351 56 18338243750974211758
221490 88 18339636853671579123
22854114 59 18202002148559012093
23402539 116 18334581222018479460
23402655 69 18333734619629521126
23558518 356 17840308818379466362
23559900 14 18192157220360295243
239999 70 18260824942867024854
245318 6 17414699987312406308
25 1 18411422825946403294
2637199 183 18409445891028179190
2916195 48 18041853813634984552
335352 9 18411417303193253094
350125 39 18411420622359252516
3545911 37 18411136956986170213
4073 2 18130780153214587875
4214541 1 18408886273863988405
474 4 18413669106257712208
474229 33 18340770342954185323
4990 188 18040710377207529358
5104073 3 18413108389945690091
633830 44 18335143089502907942
6442390 28 18340769256348597458
77779 3 18408604794512916349
8272917 22 18262796388384378398
960060 61 7132432462667977000
9709674 26 18411414051117773147

> <PUBCHEM_SHAPE_MULTIPOLES>
403.71
11.85
2.53
0.72
5.49
0.54
-0.02
-4.28
-0.03
-1.39
0.17
0.13
0.04
-0.41

> <PUBCHEM_SHAPE_SELFOVERLAP>
880.963

> <PUBCHEM_SHAPE_VOLUME>
218.3

> <PUBCHEM_COORDINATE_TYPE>
2
5
10

$$$$

