6429303
  -OEChem-07051213153D

 39 40  0     1  0  0  0  0  0999 V2000
   -0.8963   -1.0083   -0.1399 C   0  0  1  0  0  0  0  0  0  0  0  0
   -2.0879   -1.1730    0.8512 C   0  0  2  0  0  0  0  0  0  0  0  0
   -1.8640   -0.0652   -0.9251 C   0  0  1  0  0  0  0  0  0  0  0  0
   -2.9799   -1.0456   -0.4258 C   0  0  0  0  0  0  0  0  0  0  0  0
   -2.2443    0.0157    1.8159 C   0  0  0  0  0  0  0  0  0  0  0  0
    0.3823   -0.3891    0.4143 C   0  0  0  0  0  0  0  0  0  0  0  0
   -1.9777    1.2947   -0.2976 C   0  0  0  0  0  0  0  0  0  0  0  0
   -0.5076   -2.2753   -0.8818 C   0  0  0  0  0  0  0  0  0  0  0  0
   -2.1621    1.3070    1.0359 C   0  0  0  0  0  0  0  0  0  0  0  0
    1.2505    0.1973   -0.7002 C   0  0  0  0  0  0  0  0  0  0  0  0
   -1.8809    2.5065   -1.1602 C   0  0  0  0  0  0  0  0  0  0  0  0
    2.5185    0.8162   -0.1799 C   0  0  0  0  0  0  0  0  0  0  0  0
    3.6887    0.2073    0.0912 C   0  0  0  0  0  0  0  0  0  0  0  0
    4.9222    0.8892    0.6115 C   0  0  0  0  0  0  0  0  0  0  0  0
    3.8387   -1.2775   -0.1096 C   0  0  0  0  0  0  0  0  0  0  0  0
   -2.1523   -2.1375    1.3651 H   0  0  0  0  0  0  0  0  0  0  0  0
   -1.7309   -0.0320   -2.0110 H   0  0  0  0  0  0  0  0  0  0  0  0
   -3.9733   -0.6088   -0.2702 H   0  0  0  0  0  0  0  0  0  0  0  0
   -3.1311   -1.9512   -1.0211 H   0  0  0  0  0  0  0  0  0  0  0  0
   -1.4761   -0.0108    2.5957 H   0  0  0  0  0  0  0  0  0  0  0  0
   -3.2184   -0.0397    2.3148 H   0  0  0  0  0  0  0  0  0  0  0  0
    0.9481   -1.1474    0.9726 H   0  0  0  0  0  0  0  0  0  0  0  0
    0.2083    0.4032    1.1470 H   0  0  0  0  0  0  0  0  0  0  0  0
   -1.3499   -2.9306   -1.1206 H   0  0  0  0  0  0  0  0  0  0  0  0
   -0.0160   -2.0543   -1.8348 H   0  0  0  0  0  0  0  0  0  0  0  0
    0.1777   -2.8909   -0.2868 H   0  0  0  0  0  0  0  0  0  0  0  0
   -2.2552    2.2418    1.5788 H   0  0  0  0  0  0  0  0  0  0  0  0
    0.7080    0.9739   -1.2474 H   0  0  0  0  0  0  0  0  0  0  0  0
    1.4967   -0.5509   -1.4597 H   0  0  0  0  0  0  0  0  0  0  0  0
   -1.9605    3.4284   -0.5748 H   0  0  0  0  0  0  0  0  0  0  0  0
   -2.6882    2.5085   -1.8996 H   0  0  0  0  0  0  0  0  0  0  0  0
   -0.9271    2.5314   -1.6943 H   0  0  0  0  0  0  0  0  0  0  0  0
    2.4568    1.8885    0.0013 H   0  0  0  0  0  0  0  0  0  0  0  0
    5.2069    0.4751    1.5840 H   0  0  0  0  0  0  0  0  0  0  0  0
    5.7556    0.7542   -0.0853 H   0  0  0  0  0  0  0  0  0  0  0  0
    4.7635    1.9650    0.7392 H   0  0  0  0  0  0  0  0  0  0  0  0
    2.9250   -1.7919   -0.4145 H   0  0  0  0  0  0  0  0  0  0  0  0
    4.5971   -1.4743   -0.8750 H   0  0  0  0  0  0  0  0  0  0  0  0
    4.1680   -1.7467    0.8242 H   0  0  0  0  0  0  0  0  0  0  0  0
  1  2  1  0  0  0  0
  1  3  1  0  0  0  0
  1  6  1  0  0  0  0
  1  8  1  0  0  0  0
  2  4  1  0  0  0  0
  2  5  1  0  0  0  0
  2 16  1  0  0  0  0
  3  4  1  0  0  0  0
  3  7  1  0  0  0  0
  3 17  1  0  0  0  0
  4 18  1  0  0  0  0
  4 19  1  0  0  0  0
  5  9  1  0  0  0  0
  5 20  1  0  0  0  0
  5 21  1  0  0  0  0
  6 10  1  0  0  0  0
  6 22  1  0  0  0  0
  6 23  1  0  0  0  0
  7  9  2  0  0  0  0
  7 11  1  0  0  0  0
  8 24  1  0  0  0  0
  8 25  1  0  0  0  0
  8 26  1  0  0  0  0
  9 27  1  0  0  0  0
 10 12  1  0  0  0  0
 10 28  1  0  0  0  0
 10 29  1  0  0  0  0
 11 30  1  0  0  0  0
 11 31  1  0  0  0  0
 11 32  1  0  0  0  0
 12 13  2  0  0  0  0
 12 33  1  0  0  0  0
 13 14  1  0  0  0  0
 13 15  1  0  0  0  0
 14 34  1  0  0  0  0
 14 35  1  0  0  0  0
 14 36  1  0  0  0  0
 15 37  1  0  0  0  0
 15 38  1  0  0  0  0
 15 39  1  0  0  0  0
M  END
> <PUBCHEM_COMPOUND_CID>
6429303

> <PUBCHEM_CONFORMER_RMSD>
0.6

> <PUBCHEM_CONFORMER_DIVERSEORDER>
2
6
3
7
1
8
5
4

> <PUBCHEM_MMFF94_PARTIAL_CHARGES>
12
10 0.14
11 0.14
12 -0.29
13 -0.28
14 0.14
15 0.14
27 0.15
3 0.12
33 0.15
5 0.14
7 -0.25
9 -0.29

> <PUBCHEM_EFFECTIVE_ROTOR_COUNT>
3.6

> <PUBCHEM_PHARMACOPHORE_FEATURES>
2
3 13 14 15 hydrophobe
7 1 2 3 4 5 7 9 rings

> <PUBCHEM_HEAVY_ATOM_COUNT>
15

> <PUBCHEM_ATOM_DEF_STEREO_COUNT>
3

> <PUBCHEM_ATOM_UDEF_STEREO_COUNT>
0

> <PUBCHEM_BOND_DEF_STEREO_COUNT>
0

> <PUBCHEM_BOND_UDEF_STEREO_COUNT>
0

> <PUBCHEM_ISOTOPIC_ATOM_COUNT>
0

> <PUBCHEM_COMPONENT_COUNT>
1

> <PUBCHEM_CACTVS_TAUTO_COUNT>
1

> <PUBCHEM_CONFORMER_ID>
00621A7700000002

> <PUBCHEM_MMFF94_ENERGY>
40.2185

> <PUBCHEM_FEATURE_SELFOVERLAP>
10.148

> <PUBCHEM_SHAPE_FINGERPRINT>
10680689 15 18342453734385418940
10922523 26 18411414055522899870
11315181 36 17489315157550271844
12077114 3 18272370935712839900
12173636 292 17676479583710829897
12932764 1 18335413557000554494
13024252 1 16630530609558877195
13296908 3 18342737438413291446
13296909 8 18343304764300214204
14004511 7 18187922923961826314
14142880 1 18187359965429552945
14144814 61 18408885131544956570
14614273 12 18335980956466261055
15775835 57 18409164441309517505
16945 1 18059276713258325311
17802600 8 18336835190975427696
18186145 218 18113892806232499326
200 152 17894640223050283143
20279233 1 16486980579012826642
20510252 161 18333170561395124528
20645477 56 18335421257718913992
21296965 12 18339923839396675077
21524375 3 17984146130339634349
2306618 200 18335140899154203633
23402539 116 18188782643133622639
23419403 2 17025746684155781569
23559900 14 17968098677197543898
27216 239 18412823598879946273
2748010 2 18266164222464579991
4921388 177 7420944305117118476
5706482 22 18409731798157918739
5939293 188 15677475424888113981

> <PUBCHEM_SHAPE_MULTIPOLES>
308.69
6.99
2.06
1.25
11.02
0.25
0.3
1
1.16
-1.09
-0.65
-0.92
0.16
0.36

> <PUBCHEM_SHAPE_SELFOVERLAP>
632.265

> <PUBCHEM_SHAPE_VOLUME>
181.1

> <PUBCHEM_COORDINATE_TYPE>
2
5
10

$$$$

