155692
  -OEChem-07051213113D

 75 79  0     1  0  0  0  0  0999 V2000
    2.8822    0.4783   -0.9113 O   0  0  0  0  0  0  0  0  0  0  0  0
    2.3500   -2.9278    0.3478 O   0  0  0  0  0  0  0  0  0  0  0  0
    1.6681    2.1939    0.1021 O   0  0  0  0  0  0  0  0  0  0  0  0
    5.0955    0.0734    0.9789 O   0  0  0  0  0  0  0  0  0  0  0  0
    5.9468   -2.6799    0.9899 O   0  0  0  0  0  0  0  0  0  0  0  0
    4.9491    2.3191   -1.5008 O   0  0  0  0  0  0  0  0  0  0  0  0
    3.9296    5.0710   -1.7619 O   0  0  0  0  0  0  0  0  0  0  0  0
    2.3137    5.7735    0.5298 O   0  0  0  0  0  0  0  0  0  0  0  0
    2.9153   -5.6032    0.6064 O   0  0  0  0  0  0  0  0  0  0  0  0
    0.6597   -1.9143   -2.9032 O   0  0  0  0  0  0  0  0  0  0  0  0
   -0.1600    2.7142    2.0879 O   0  0  0  0  0  0  0  0  0  0  0  0
    0.6844   -1.0615    1.7905 O   0  0  0  0  0  0  0  0  0  0  0  0
   -3.3985   -0.6952   -0.7819 O   0  0  0  0  0  0  0  0  0  0  0  0
   -1.5961   -0.3943    2.8595 O   0  0  0  0  0  0  0  0  0  0  0  0
   -9.5784    0.6274   -0.5755 O   0  0  0  0  0  0  0  0  0  0  0  0
    2.9689   -0.5840    0.0382 C   0  0  2  0  0  0  0  0  0  0  0  0
    4.4408   -0.9564    0.2359 C   0  0  2  0  0  0  0  0  0  0  0  0
    2.1647   -1.7820   -0.4897 C   0  0  2  0  0  0  0  0  0  0  0  0
    4.5839   -2.2638    1.0150 C   0  0  1  0  0  0  0  0  0  0  0  0
    3.7102   -3.3597    0.4017 C   0  0  1  0  0  0  0  0  0  0  0  0
    2.9705    1.7523   -0.2740 C   0  0  2  0  0  0  0  0  0  0  0  0
    3.6031    2.7308   -1.2635 C   0  0  1  0  0  0  0  0  0  0  0  0
    3.5981    4.1576   -0.7148 C   0  0  2  0  0  0  0  0  0  0  0  0
    2.2196    4.5380   -0.1744 C   0  0  1  0  0  0  0  0  0  0  0  0
    1.6892    3.4566    0.7700 C   0  0  1  0  0  0  0  0  0  0  0  0
    0.6784   -1.4874   -0.5438 C   0  0  0  0  0  0  0  0  0  0  0  0
    3.7513   -4.6427    1.2255 C   0  0  0  0  0  0  0  0  0  0  0  0
    0.2663    3.7572    1.2303 C   0  0  0  0  0  0  0  0  0  0  0  0
   -0.0081   -1.1342    0.6186 C   0  0  0  0  0  0  0  0  0  0  0  0
    0.0008   -1.5710   -1.7611 C   0  0  0  0  0  0  0  0  0  0  0  0
   -1.3772   -0.8656    0.5543 C   0  0  0  0  0  0  0  0  0  0  0  0
   -1.3668   -1.3016   -1.8212 C   0  0  0  0  0  0  0  0  0  0  0  0
   -2.0557   -0.9487   -0.6606 C   0  0  0  0  0  0  0  0  0  0  0  0
   -2.1277   -0.4895    1.7619 C   0  0  0  0  0  0  0  0  0  0  0  0
   -3.5700   -0.2293    1.5790 C   0  0  0  0  0  0  0  0  0  0  0  0
   -4.1108   -0.3487    0.3561 C   0  0  0  0  0  0  0  0  0  0  0  0
    0.7220   -3.3027   -3.2222 C   0  0  0  0  0  0  0  0  0  0  0  0
   -5.5443   -0.0922    0.1116 C   0  0  0  0  0  0  0  0  0  0  0  0
   -6.2361    0.8324    0.8978 C   0  0  0  0  0  0  0  0  0  0  0  0
   -6.2152   -0.7737   -0.9069 C   0  0  0  0  0  0  0  0  0  0  0  0
   -7.5905    1.0740    0.6670 C   0  0  0  0  0  0  0  0  0  0  0  0
   -7.5695   -0.5321   -1.1376 C   0  0  0  0  0  0  0  0  0  0  0  0
   -8.2571    0.3917   -0.3508 C   0  0  0  0  0  0  0  0  0  0  0  0
    2.5965   -0.2402    1.0071 H   0  0  0  0  0  0  0  0  0  0  0  0
    4.9555   -1.0169   -0.7311 H   0  0  0  0  0  0  0  0  0  0  0  0
    2.5397   -2.0296   -1.4894 H   0  0  0  0  0  0  0  0  0  0  0  0
    4.3072   -2.0847    2.0622 H   0  0  0  0  0  0  0  0  0  0  0  0
    4.0418   -3.6010   -0.6175 H   0  0  0  0  0  0  0  0  0  0  0  0
    3.5913    1.7126    0.6255 H   0  0  0  0  0  0  0  0  0  0  0  0
    3.0823    2.6995   -2.2286 H   0  0  0  0  0  0  0  0  0  0  0  0
    4.3696    4.2731    0.0567 H   0  0  0  0  0  0  0  0  0  0  0  0
    1.5238    4.6831   -1.0109 H   0  0  0  0  0  0  0  0  0  0  0  0
    2.3224    3.3711    1.6636 H   0  0  0  0  0  0  0  0  0  0  0  0
    3.3688   -4.4694    2.2369 H   0  0  0  0  0  0  0  0  0  0  0  0
    4.7620   -5.0558    1.2857 H   0  0  0  0  0  0  0  0  0  0  0  0
    6.0229   -0.1957    1.0946 H   0  0  0  0  0  0  0  0  0  0  0  0
   -0.4283    3.7981    0.3846 H   0  0  0  0  0  0  0  0  0  0  0  0
    0.2088    4.7008    1.7801 H   0  0  0  0  0  0  0  0  0  0  0  0
    6.0654   -3.3523    1.6815 H   0  0  0  0  0  0  0  0  0  0  0  0
    4.9195    1.4071   -1.8374 H   0  0  0  0  0  0  0  0  0  0  0  0
    4.0502    5.9485   -1.3617 H   0  0  0  0  0  0  0  0  0  0  0  0
    2.5308    6.4662   -0.1162 H   0  0  0  0  0  0  0  0  0  0  0  0
   -1.8934   -1.3660   -2.7701 H   0  0  0  0  0  0  0  0  0  0  0  0
    2.9509   -6.4084    1.1504 H   0  0  0  0  0  0  0  0  0  0  0  0
   -0.0972    1.8806    1.5910 H   0  0  0  0  0  0  0  0  0  0  0  0
    0.1062   -0.7831    2.5165 H   0  0  0  0  0  0  0  0  0  0  0  0
   -4.1312    0.0299    2.4691 H   0  0  0  0  0  0  0  0  0  0  0  0
    1.1368   -3.8825   -2.3915 H   0  0  0  0  0  0  0  0  0  0  0  0
    1.3723   -3.4252   -4.0927 H   0  0  0  0  0  0  0  0  0  0  0  0
   -0.2751   -3.6764   -3.4754 H   0  0  0  0  0  0  0  0  0  0  0  0
   -5.7481    1.4001    1.6856 H   0  0  0  0  0  0  0  0  0  0  0  0
   -5.7062   -1.5053   -1.5298 H   0  0  0  0  0  0  0  0  0  0  0  0
   -8.1141    1.7996    1.2837 H   0  0  0  0  0  0  0  0  0  0  0  0
   -8.0840   -1.0680   -1.9306 H   0  0  0  0  0  0  0  0  0  0  0  0
   -9.8922    1.2935    0.0600 H   0  0  0  0  0  0  0  0  0  0  0  0
  1 16  1  0  0  0  0
  1 21  1  0  0  0  0
  2 18  1  0  0  0  0
  2 20  1  0  0  0  0
  3 21  1  0  0  0  0
  3 25  1  0  0  0  0
  4 17  1  0  0  0  0
  4 56  1  0  0  0  0
  5 19  1  0  0  0  0
  5 59  1  0  0  0  0
  6 22  1  0  0  0  0
  6 60  1  0  0  0  0
  7 23  1  0  0  0  0
  7 61  1  0  0  0  0
  8 24  1  0  0  0  0
  8 62  1  0  0  0  0
  9 27  1  0  0  0  0
  9 64  1  0  0  0  0
 10 30  1  0  0  0  0
 10 37  1  0  0  0  0
 11 28  1  0  0  0  0
 11 65  1  0  0  0  0
 12 29  1  0  0  0  0
 12 66  1  0  0  0  0
 13 33  1  0  0  0  0
 13 36  1  0  0  0  0
 14 34  2  0  0  0  0
 15 43  1  0  0  0  0
 15 75  1  0  0  0  0
 16 17  1  0  0  0  0
 16 18  1  0  0  0  0
 16 44  1  0  0  0  0
 17 19  1  0  0  0  0
 17 45  1  0  0  0  0
 18 26  1  0  0  0  0
 18 46  1  0  0  0  0
 19 20  1  0  0  0  0
 19 47  1  0  0  0  0
 20 27  1  0  0  0  0
 20 48  1  0  0  0  0
 21 22  1  0  0  0  0
 21 49  1  0  0  0  0
 22 23  1  0  0  0  0
 22 50  1  0  0  0  0
 23 24  1  0  0  0  0
 23 51  1  0  0  0  0
 24 25  1  0  0  0  0
 24 52  1  0  0  0  0
 25 28  1  0  0  0  0
 25 53  1  0  0  0  0
 26 29  1  0  0  0  0
 26 30  2  0  0  0  0
 27 54  1  0  0  0  0
 27 55  1  0  0  0  0
 28 57  1  0  0  0  0
 28 58  1  0  0  0  0
 29 31  2  0  0  0  0
 30 32  1  0  0  0  0
 31 33  1  0  0  0  0
 31 34  1  0  0  0  0
 32 33  2  0  0  0  0
 32 63  1  0  0  0  0
 34 35  1  0  0  0  0
 35 36  2  0  0  0  0
 35 67  1  0  0  0  0
 36 38  1  0  0  0  0
 37 68  1  0  0  0  0
 37 69  1  0  0  0  0
 37 70  1  0  0  0  0
 38 39  2  0  0  0  0
 38 40  1  0  0  0  0
 39 41  1  0  0  0  0
 39 71  1  0  0  0  0
 40 42  2  0  0  0  0
 40 72  1  0  0  0  0
 41 43  2  0  0  0  0
 41 73  1  0  0  0  0
 42 43  1  0  0  0  0
 42 74  1  0  0  0  0
M  END
> <PUBCHEM_COMPOUND_CID>
155692

> <PUBCHEM_CONFORMER_RMSD>
1.2

> <PUBCHEM_CONFORMER_DIVERSEORDER>
1
20
7
21
9
15
11
2
14
5
17
18
13
12
6
19
10
8
16
3
4

> <PUBCHEM_MMFF94_PARTIAL_CHARGES>
58
1 -0.56
10 -0.36
11 -0.68
12 -0.53
13 -0.16
14 -0.57
15 -0.53
16 0.28
17 0.28
18 0.42
19 0.28
2 -0.56
20 0.28
21 0.56
22 0.28
23 0.28
24 0.28
25 0.28
26 -0.14
27 0.28
28 0.28
29 0.08
3 -0.56
30 0.08
31 0.09
32 -0.15
33 0.08
34 0.47
35 -0.14
36 0.05
37 0.28
38 0.03
39 -0.15
4 -0.68
40 -0.15
41 -0.15
42 -0.15
43 0.08
5 -0.68
56 0.4
59 0.4
6 -0.68
60 0.4
61 0.4
62 0.4
63 0.15
64 0.4
65 0.4
66 0.45
67 0.15
7 -0.68
71 0.15
72 0.15
73 0.15
74 0.15
75 0.45
8 -0.68
9 -0.68

> <PUBCHEM_EFFECTIVE_ROTOR_COUNT>
9.4

> <PUBCHEM_PHARMACOPHORE_FEATURES>
27
1 1 acceptor
1 10 acceptor
1 11 acceptor
1 11 donor
1 12 donor
1 13 acceptor
1 14 acceptor
1 15 donor
1 2 acceptor
1 3 acceptor
1 4 acceptor
1 4 donor
1 5 acceptor
1 5 donor
1 6 acceptor
1 6 donor
1 7 acceptor
1 7 donor
1 8 acceptor
1 8 donor
1 9 acceptor
1 9 donor
6 13 31 33 34 35 36 rings
6 2 16 17 18 19 20 rings
6 26 29 30 31 32 33 rings
6 3 21 22 23 24 25 rings
6 38 39 40 41 42 43 rings

> <PUBCHEM_HEAVY_ATOM_COUNT>
43

> <PUBCHEM_ATOM_DEF_STEREO_COUNT>
10

> <PUBCHEM_ATOM_UDEF_STEREO_COUNT>
0

> <PUBCHEM_BOND_DEF_STEREO_COUNT>
0

> <PUBCHEM_BOND_UDEF_STEREO_COUNT>
0

> <PUBCHEM_ISOTOPIC_ATOM_COUNT>
0

> <PUBCHEM_COMPONENT_COUNT>
1

> <PUBCHEM_CACTVS_TAUTO_COUNT>
21

> <PUBCHEM_CONFORMER_ID>
0002602C00000001

> <PUBCHEM_MMFF94_ENERGY>
147.6497

> <PUBCHEM_FEATURE_SELFOVERLAP>
137.113

> <PUBCHEM_SHAPE_FINGERPRINT>
10673678 19 18188766142343966437
10675989 125 18263641766703129752
11093857 51 16588288458908782869
11445158 3 18335151903255912751
11456790 92 17988080110134965297
11505856 67 16975308627892443046
11578080 2 17916576528218123627
11763715 3 17765133356746437462
12107698 1 18340771541529395489
12128747 34 17845940726841570405
12166972 35 18261397788150419315
12522641 24 18059581321445915707
12608794 3 17982482337719177000
12660671 118 18335686270465508734
12741549 16 17560527321735935046
13636023 51 16988839459066940154
13878862 14 18271258139999235101
14117953 113 18113612404380545300
14400156 96 17988642935386401821
15082195 135 17749097877719526007
15131766 46 18266183821134107629
15183329 4 17967524650476422337
15439362 3 18339367345032872617
15840311 113 17967823751750703930
19301679 30 17980207705881471890
19302320 297 18120639482975532753
19311894 1 17478335687147372201
19319366 153 18266455400384627652
21033648 29 16988279760002465313
21133410 62 17982154644272619560
21344244 78 18265911322322398042
21583282 1 18187376397900177922
21927370 108 18056772146820971322
22122407 14 18339347600936175273
23522609 53 17969200340767687185
23559900 14 17132103659154528115
249057 25 18187359970204217641
3044373 193 18412824703335264295
397830 11 17916855821762930811
4066623 53 18270966846907140197
44317340 157 18341892962344368395
513532 50 17240761735869930096
6086070 43 18339346505276623506

> <PUBCHEM_SHAPE_MULTIPOLES>
796.88
16.82
6.6
2.11
44.92
5.35
0.68
0.87
0.82
-15.38
0.21
-0.3
-0.96
-3.19

> <PUBCHEM_SHAPE_SELFOVERLAP>
1731.455

> <PUBCHEM_SHAPE_VOLUME>
428.9

> <PUBCHEM_COORDINATE_TYPE>
2
5
10

$$$$

