248605
  -OEChem-07051213073D

 31 34  0     0  0  0  0  0  0999 V2000
    1.2730    1.8233   -0.2963 O   0  0  0  0  0  0  0  0  0  0  0  0
    3.3077    2.8383   -0.4660 O   0  0  0  0  0  0  0  0  0  0  0  0
   -3.4374    2.1210    0.8751 O   0  0  0  0  0  0  0  0  0  0  0  0
   -3.9087   -2.1542   -0.8479 O   0  0  0  0  0  0  0  0  0  0  0  0
   -3.1555   -0.0769    0.0214 N   0  0  0  0  0  0  0  0  0  0  0  0
    1.0820   -0.5812    0.0904 C   0  0  0  0  0  0  0  0  0  0  0  0
    2.5475   -0.6699    0.1002 C   0  0  0  0  0  0  0  0  0  0  0  0
    0.4867    0.6667   -0.1081 C   0  0  0  0  0  0  0  0  0  0  0  0
   -1.7329   -0.2427    0.0437 C   0  0  0  0  0  0  0  0  0  0  0  0
    3.3104    0.4958   -0.0891 C   0  0  0  0  0  0  0  0  0  0  0  0
   -0.8980    0.8531   -0.1341 C   0  0  0  0  0  0  0  0  0  0  0  0
    0.2130   -1.6703    0.2676 C   0  0  0  0  0  0  0  0  0  0  0  0
   -1.1781   -1.5033    0.2446 C   0  0  0  0  0  0  0  0  0  0  0  0
    3.2473   -1.8763    0.2913 C   0  0  0  0  0  0  0  0  0  0  0  0
    2.6612    1.8122   -0.2983 C   0  0  0  0  0  0  0  0  0  0  0  0
    4.7140    0.4531   -0.0865 C   0  0  0  0  0  0  0  0  0  0  0  0
   -3.8300    1.0626    0.4119 C   0  0  0  0  0  0  0  0  0  0  0  0
   -4.0616   -1.0320   -0.3936 C   0  0  0  0  0  0  0  0  0  0  0  0
    4.6448   -1.9186    0.2939 C   0  0  0  0  0  0  0  0  0  0  0  0
    5.3777   -0.7544    0.1050 C   0  0  0  0  0  0  0  0  0  0  0  0
   -5.2629    0.7958    0.2195 C   0  0  0  0  0  0  0  0  0  0  0  0
   -5.4000   -0.4423   -0.2447 C   0  0  0  0  0  0  0  0  0  0  0  0
   -1.2885    1.8489   -0.3192 H   0  0  0  0  0  0  0  0  0  0  0  0
    0.5890   -2.6758    0.4342 H   0  0  0  0  0  0  0  0  0  0  0  0
   -1.7956   -2.3803    0.4151 H   0  0  0  0  0  0  0  0  0  0  0  0
    2.7251   -2.8169    0.4434 H   0  0  0  0  0  0  0  0  0  0  0  0
    5.3063    1.3528   -0.2326 H   0  0  0  0  0  0  0  0  0  0  0  0
    5.1570   -2.8647    0.4439 H   0  0  0  0  0  0  0  0  0  0  0  0
    6.4629   -0.7861    0.1068 H   0  0  0  0  0  0  0  0  0  0  0  0
   -6.0488    1.4995    0.4367 H   0  0  0  0  0  0  0  0  0  0  0  0
   -6.3196   -0.9472   -0.4885 H   0  0  0  0  0  0  0  0  0  0  0  0
  1  8  1  0  0  0  0
  1 15  1  0  0  0  0
  2 15  2  0  0  0  0
  3 17  2  0  0  0  0
  4 18  2  0  0  0  0
  5  9  1  0  0  0  0
  5 17  1  0  0  0  0
  5 18  1  0  0  0  0
  6  7  1  0  0  0  0
  6  8  2  0  0  0  0
  6 12  1  0  0  0  0
  7 10  1  0  0  0  0
  7 14  2  0  0  0  0
  8 11  1  0  0  0  0
  9 11  2  0  0  0  0
  9 13  1  0  0  0  0
 10 15  1  0  0  0  0
 10 16  2  0  0  0  0
 11 23  1  0  0  0  0
 12 13  2  0  0  0  0
 12 24  1  0  0  0  0
 13 25  1  0  0  0  0
 14 19  1  0  0  0  0
 14 26  1  0  0  0  0
 16 20  1  0  0  0  0
 16 27  1  0  0  0  0
 17 21  1  0  0  0  0
 18 22  1  0  0  0  0
 19 20  2  0  0  0  0
 19 28  1  0  0  0  0
 20 29  1  0  0  0  0
 21 22  2  0  0  0  0
 21 30  1  0  0  0  0
 22 31  1  0  0  0  0
M  END
> <PUBCHEM_COMPOUND_CID>
248605

> <PUBCHEM_CONFORMER_RMSD>
0.6

> <PUBCHEM_CONFORMER_DIVERSEORDER>
1
2
3

> <PUBCHEM_MMFF94_PARTIAL_CHARGES>
29
1 -0.23
10 0.09
11 -0.15
12 -0.15
13 -0.15
14 -0.15
15 0.63
16 -0.15
17 0.62
18 0.62
19 -0.15
2 -0.57
20 -0.15
21 -0.14
22 -0.14
23 0.15
24 0.15
25 0.15
26 0.15
27 0.15
28 0.15
29 0.15
3 -0.57
30 0.15
31 0.15
4 -0.57
5 -0.24
8 0.08
9 0.12

> <PUBCHEM_EFFECTIVE_ROTOR_COUNT>
1.2

> <PUBCHEM_PHARMACOPHORE_FEATURES>
7
1 2 acceptor
1 3 acceptor
1 4 acceptor
5 5 17 18 21 22 rings
6 1 6 7 8 10 15 rings
6 6 8 9 11 12 13 rings
6 7 10 14 16 19 20 rings

> <PUBCHEM_HEAVY_ATOM_COUNT>
22

> <PUBCHEM_ATOM_DEF_STEREO_COUNT>
0

> <PUBCHEM_ATOM_UDEF_STEREO_COUNT>
0

> <PUBCHEM_BOND_DEF_STEREO_COUNT>
0

> <PUBCHEM_BOND_UDEF_STEREO_COUNT>
0

> <PUBCHEM_ISOTOPIC_ATOM_COUNT>
0

> <PUBCHEM_COMPONENT_COUNT>
1

> <PUBCHEM_CACTVS_TAUTO_COUNT>
1

> <PUBCHEM_CONFORMER_ID>
0003CB1D00000001

> <PUBCHEM_MMFF94_ENERGY>
77.9427

> <PUBCHEM_FEATURE_SELFOVERLAP>
35.568

> <PUBCHEM_SHAPE_FINGERPRINT>
10062212 137 18259991461465947151
10366900 7 17275382139955114952
10411042 1 18053104210221961930
10595046 47 18336266734746994645
10906281 52 18270945904957152394
10937287 8 17193742040547972964
11471102 20 18342458136558092278
11578080 2 17242748476256234714
12107183 9 17832421277858297697
12166972 35 18259984885907908176
12236239 1 18186802486831365043
12403259 415 17846506932575491349
12403260 363 18409449197905174649
12616971 3 18408037403790151259
13167823 11 18408887317367026559
13533116 47 18336828593689279321
13862211 1 18342461486553832346
14341114 176 18409725179618499411
15196674 1 18411699855041021463
15250474 111 18262248728620597895
15420108 30 17181360929559207680
15442244 35 18410574010931810936
15536298 74 18409167692604937704
15788980 27 17988924487477304991
15848702 151 18335700597680283807
17349148 13 18259983786000400579
17492 89 18337389349078696263
17834072 33 18409167692610225487
17844677 252 18410567388408738681
17857418 61 18408609162346976375
1813 80 17275101751948060724
18186145 218 17489594441444789203
18681886 176 18187369805347002666
200 152 18260551121395122891
20028762 73 18334020500985117903
20612939 158 18272087180071558868
20645477 70 18411417302491892798
21033648 144 18200602388531077942
21033648 29 16916799473940791013
21267235 1 18410847772326911363
21709351 56 18411706508172190797
221490 88 18270676459276749554
23402539 116 18334019397314847647
23522609 53 18054197047380765972
23557571 272 16660916785475622401
23558518 356 17628351572120402338
23559900 14 18335146362331219376
29717793 49 18187086161190066853
3004659 81 18272930553515372942
335352 9 18412263968904388527
34797466 226 16950279577168291504
34934 24 18411141291035400786
350125 39 18412544348817802437
351380 180 18412263938929093009
3545911 37 18408885144508856275
4073 2 17988075591333529946
4214541 1 18409449210942881901
474 4 18201718414424254993
5104073 3 18410573950971094203
543358 83 18412542107250568542
633830 44 17846502504458830043
7495541 125 17385730149321403755
9709674 26 18410848850332372438
9971528 1 18342741810479184188
9981440 41 17547575872870893976

> <PUBCHEM_SHAPE_MULTIPOLES>
424.29
12.15
2.35
0.7
4.15
0.59
-0.01
-1.13
0.02
-1.12
0.1
0.22
0
-1.16

> <PUBCHEM_SHAPE_SELFOVERLAP>
965.183

> <PUBCHEM_SHAPE_VOLUME>
217.8

> <PUBCHEM_COORDINATE_TYPE>
2
5
10

$$$$

