5281469
  -OEChem-07051212572D

 57 61  0     1  0  0  0  0  0999 V2000
    2.0000    0.5105    0.0000 O   0  0  0  0  0  0  0  0  0  0  0  0
    4.6011   -1.7315    0.0000 O   0  0  0  0  0  0  0  0  0  0  0  0
    3.2541   -1.9351    0.0000 O   0  0  0  0  0  0  0  0  0  0  0  0
    4.2964    2.2714    0.0000 O   0  0  0  0  0  0  0  0  0  0  0  0
    7.1996    0.7658    0.0000 O   0  0  0  0  0  0  0  0  0  0  0  0
    5.1011    3.8550    0.0000 O   0  0  0  0  0  0  0  0  0  0  0  0
    7.5850   -0.9228    0.0000 O   0  0  0  0  0  0  0  0  0  0  0  0
    9.9202   -2.1664    0.0000 O   0  0  0  0  0  0  0  0  0  0  0  0
    8.6506   -3.3444    0.0000 O   0  0  0  0  0  0  0  0  0  0  0  0
    2.9873    0.6299    0.0000 C   0  0  1  0  0  0  0  0  0  0  0  0
    3.9776    0.5433    0.0000 C   0  0  1  0  0  0  0  0  0  0  0  0
    4.2002   -0.4316    0.0000 C   0  0  2  0  0  0  0  0  0  0  0  0
    2.5974   -0.2846    0.0000 C   0  0  1  0  0  0  0  0  0  0  0  0
    5.1011   -0.8655    0.0000 C   0  0  1  0  0  0  0  0  0  0  0  0
    3.3455   -0.9392    0.0000 C   0  0  1  0  0  0  0  0  0  0  0  0
    4.6011    1.3252    0.0000 C   0  0  2  0  0  0  0  0  0  0  0  0
    6.0021   -0.4316    0.0000 C   0  0  0  0  0  0  0  0  0  0  0  0
    5.6011   -1.7315    0.0000 C   0  0  0  0  0  0  0  0  0  0  0  0
    5.6011    1.3252    0.0000 C   0  0  1  0  0  0  0  0  0  0  0  0
    3.3796    1.5497    0.0000 C   0  0  0  0  0  0  0  0  0  0  0  0
    6.2246    0.5433    0.0000 C   0  0  2  0  0  0  0  0  0  0  0  0
    5.9059    2.2714    0.0000 C   0  0  0  0  0  0  0  0  0  0  0  0
    5.1011    2.8550    0.0000 C   0  0  0  0  0  0  0  0  0  0  0  0
    6.8564    2.5820    0.0000 C   0  0  0  0  0  0  0  0  0  0  0  0
    7.8797    0.0328    0.0000 C   0  0  0  0  0  0  0  0  0  0  0  0
    8.8546    0.2553    0.0000 C   0  0  0  0  0  0  0  0  0  0  0  0
    9.1494    1.2109    0.0000 C   0  0  0  0  0  0  0  0  0  0  0  0
    9.5348   -0.4777    0.0000 C   0  0  0  0  0  0  0  0  0  0  0  0
    9.2401   -1.4333    0.0000 C   0  0  0  0  0  0  0  0  0  0  0  0
    9.6255   -3.1219    0.0000 C   0  0  0  0  0  0  0  0  0  0  0  0
   10.3057   -3.8550    0.0000 C   0  0  0  0  0  0  0  0  0  0  0  0
    4.8063    0.3542    0.0000 H   0  0  0  0  0  0  0  0  0  0  0  0
    4.2372   -1.2808    0.0000 H   0  0  0  0  0  0  0  0  0  0  0  0
    1.9744   -0.8628    0.0000 H   0  0  0  0  0  0  0  0  0  0  0  0
    3.8697   -1.2702    0.0000 H   0  0  0  0  0  0  0  0  0  0  0  0
    3.7650    1.4780    0.0000 H   0  0  0  0  0  0  0  0  0  0  0  0
    6.1401   -1.0361    0.0000 H   0  0  0  0  0  0  0  0  0  0  0  0
    6.6221   -0.4316    0.0000 H   0  0  0  0  0  0  0  0  0  0  0  0
    5.7088   -2.3421    0.0000 H   0  0  0  0  0  0  0  0  0  0  0  0
    6.1837   -1.5195    0.0000 H   0  0  0  0  0  0  0  0  0  0  0  0
    6.4373    1.4780    0.0000 H   0  0  0  0  0  0  0  0  0  0  0  0
    3.9499    1.3066    0.0000 H   0  0  0  0  0  0  0  0  0  0  0  0
    3.6227    2.1200    0.0000 H   0  0  0  0  0  0  0  0  0  0  0  0
    2.8092    1.7929    0.0000 H   0  0  0  0  0  0  0  0  0  0  0  0
    6.4294    1.1285    0.0000 H   0  0  0  0  0  0  0  0  0  0  0  0
    2.6911   -2.1947    0.0000 H   0  0  0  0  0  0  0  0  0  0  0  0
    7.3178    2.1680    0.0000 H   0  0  0  0  0  0  0  0  0  0  0  0
    6.9842    3.1887    0.0000 H   0  0  0  0  0  0  0  0  0  0  0  0
    9.7419    1.0281    0.0000 H   0  0  0  0  0  0  0  0  0  0  0  0
    9.3322    1.8033    0.0000 H   0  0  0  0  0  0  0  0  0  0  0  0
    8.5570    1.3936    0.0000 H   0  0  0  0  0  0  0  0  0  0  0  0
   10.1393   -0.3398    0.0000 H   0  0  0  0  0  0  0  0  0  0  0  0
    8.6883   -1.1505    0.0000 H   0  0  0  0  0  0  0  0  0  0  0  0
    8.8657   -1.9275    0.0000 H   0  0  0  0  0  0  0  0  0  0  0  0
    9.8512   -4.2767    0.0000 H   0  0  0  0  0  0  0  0  0  0  0  0
   10.7274   -4.3095    0.0000 H   0  0  0  0  0  0  0  0  0  0  0  0
   10.7601   -3.4333    0.0000 H   0  0  0  0  0  0  0  0  0  0  0  0
  1 10  1  0  0  0  0
  1 13  1  0  0  0  0
 14  2  1  1  0  0  0
  2 18  1  0  0  0  0
 15  3  1  6  0  0  0
  3 46  1  0  0  0  0
  4 16  1  0  0  0  0
  4 23  1  0  0  0  0
 21  5  1  6  0  0  0
  5 25  1  0  0  0  0
  6 23  2  0  0  0  0
  7 25  2  0  0  0  0
  8 29  1  0  0  0  0
  8 30  1  0  0  0  0
  9 30  2  0  0  0  0
 10 11  1  0  0  0  0
 10 13  1  0  0  0  0
 10 20  1  6  0  0  0
 11 12  1  0  0  0  0
 11 16  1  0  0  0  0
 11 32  1  1  0  0  0
 12 14  1  0  0  0  0
 12 15  1  0  0  0  0
 12 33  1  1  0  0  0
 13 15  1  0  0  0  0
 13 34  1  6  0  0  0
 14 17  1  0  0  0  0
 14 18  1  0  0  0  0
 15 35  1  0  0  0  0
 16 19  1  0  0  0  0
 16 36  1  6  0  0  0
 17 21  1  0  0  0  0
 17 37  1  0  0  0  0
 17 38  1  0  0  0  0
 18 39  1  0  0  0  0
 18 40  1  0  0  0  0
 19 21  1  0  0  0  0
 19 22  1  0  0  0  0
 19 41  1  1  0  0  0
 20 42  1  0  0  0  0
 20 43  1  0  0  0  0
 20 44  1  0  0  0  0
 21 45  1  0  0  0  0
 22 23  1  0  0  0  0
 22 24  2  0  0  0  0
 24 47  1  0  0  0  0
 24 48  1  0  0  0  0
 25 26  1  0  0  0  0
 26 27  1  0  0  0  0
 26 28  2  0  0  0  0
 27 49  1  0  0  0  0
 27 50  1  0  0  0  0
 27 51  1  0  0  0  0
 28 29  1  0  0  0  0
 28 52  1  0  0  0  0
 29 53  1  0  0  0  0
 29 54  1  0  0  0  0
 30 31  1  0  0  0  0
 31 55  1  0  0  0  0
 31 56  1  0  0  0  0
 31 57  1  0  0  0  0
M  END
> <PUBCHEM_COMPOUND_CID>
5281469

> <PUBCHEM_COMPOUND_CANONICALIZED>
1

> <PUBCHEM_CACTVS_COMPLEXITY>
909

> <PUBCHEM_CACTVS_HBOND_ACCEPTOR>
9

> <PUBCHEM_CACTVS_HBOND_DONOR>
1

> <PUBCHEM_CACTVS_ROTATABLE_BOND>
6

> <PUBCHEM_CACTVS_SUBSKEYS>
AAADceB4PAAAAAAAAAAAAAAAEiQAAaIAAAAkAAAABgAAAADQAAAAGgAACAAADVSggAICCAAABgCIAiDSCAAAAAAgAAAACAEAAEgBFBIAIQACUAAFwAADIYHK6PyOgAAAAAAAAAAAAAAAAAAAAYQADCAAAA==

> <PUBCHEM_IUPAC_INCHI>
InChI=1S/C22H26O9/c1-9(5-6-27-11(3)23)19(25)29-12-7-22(8-28-22)14-15(21(4)18(31-21)16(14)24)17-13(12)10(2)20(26)30-17/h5,12-18,24H,2,6-8H2,1,3-4H3/b9-5-/t12-,13-,14+,15+,16+,17+,18-,21+,22+/m1/s1

> <PUBCHEM_IUPAC_INCHIKEY>
CENDVHAKXFHGQA-ZVKKVVLCSA-N

> <PUBCHEM_XLOGP3_AA>
0.3

> <PUBCHEM_EXACT_MASS>
434.157682

> <PUBCHEM_MOLECULAR_FORMULA>
C22H26O9

> <PUBCHEM_MOLECULAR_WEIGHT>
434.43644

> <PUBCHEM_OPENEYE_CAN_SMILES>
CC(=CCOC(=O)C)C(=O)OC1CC2(CO2)C3C(C4C1C(=C)C(=O)O4)C5(C(C3O)O5)C

> <PUBCHEM_OPENEYE_ISO_SMILES>
C/C(=C/COC(=O)C)/C(=O)O[C@@H]1C[C@]2(CO2)[C@H]3[C@@H]([C@@H]4[C@@H]1C(=C)C(=O)O4)[C@]5([C@@H]([C@H]3O)O5)C

> <PUBCHEM_CACTVS_TPSA>
124

> <PUBCHEM_MONOISOTOPIC_WEIGHT>
434.157682

> <PUBCHEM_TOTAL_CHARGE>
0

> <PUBCHEM_HEAVY_ATOM_COUNT>
31

> <PUBCHEM_ATOM_DEF_STEREO_COUNT>
9

> <PUBCHEM_ATOM_UDEF_STEREO_COUNT>
0

> <PUBCHEM_BOND_DEF_STEREO_COUNT>
1

> <PUBCHEM_BOND_UDEF_STEREO_COUNT>
0

> <PUBCHEM_ISOTOPIC_ATOM_COUNT>
0

> <PUBCHEM_COMPONENT_COUNT>
1

> <PUBCHEM_CACTVS_TAUTO_COUNT>
1

> <PUBCHEM_COORDINATE_TYPE>
1
5
255

> <PUBCHEM_BONDANNOTATIONS>
10  20  6
11  32  5
12  33  5
13  34  6
16  36  6
19  41  5
14  2  5
15  3  6
21  5  6

$$$$

