12872
  -OEChem-06261207283D

 24 24  0     0  0  0  0  0  0999 V2000
    2.1547    0.1676   -0.0155 O   0  0  0  0  0  0  0  0  0  0  0  0
    5.4997    1.1791    0.0176 O   0  5  0  0  0  0  0  0  0  0  0  0
    3.6235    2.3264   -0.0214 O   0  0  0  0  0  0  0  0  0  0  0  0
   -5.3094    1.7364    0.0223 O   0  0  0  0  0  0  0  0  0  0  0  0
    4.2347    1.2181    0.0004 N   0  3  0  0  0  0  0  0  0  0  0  0
   -3.0457    0.1688   -0.0004 N   0  0  0  0  0  0  0  0  0  0  0  0
   -4.2940   -0.3508   -0.0041 N   0  0  0  0  0  0  0  0  0  0  0  0
   -6.5825   -0.1749    0.0023 N   0  0  0  0  0  0  0  0  0  0  0  0
    1.6526   -1.0841   -0.0079 C   0  0  0  0  0  0  0  0  0  0  0  0
    2.6369   -2.0275    0.0166 C   0  0  0  0  0  0  0  0  0  0  0  0
    3.5061    0.0271    0.0045 C   0  0  0  0  0  0  0  0  0  0  0  0
    3.8532   -1.3038    0.0247 C   0  0  0  0  0  0  0  0  0  0  0  0
    0.2391   -1.3221   -0.0240 C   0  0  0  0  0  0  0  0  0  0  0  0
   -0.6790   -0.3461   -0.0108 C   0  0  0  0  0  0  0  0  0  0  0  0
   -2.1095   -0.7227   -0.0125 C   0  0  0  0  0  0  0  0  0  0  0  0
   -5.3803    0.5083    0.0080 C   0  0  0  0  0  0  0  0  0  0  0  0
    2.5163   -3.1018    0.0275 H   0  0  0  0  0  0  0  0  0  0  0  0
    4.8552   -1.7087    0.0430 H   0  0  0  0  0  0  0  0  0  0  0  0
   -0.0798   -2.3620   -0.0379 H   0  0  0  0  0  0  0  0  0  0  0  0
   -0.4287    0.7083    0.0068 H   0  0  0  0  0  0  0  0  0  0  0  0
   -2.3284   -1.8067   -0.0252 H   0  0  0  0  0  0  0  0  0  0  0  0
   -4.4039   -1.3596   -0.0156 H   0  0  0  0  0  0  0  0  0  0  0  0
   -6.6176   -1.1887   -0.0100 H   0  0  0  0  0  0  0  0  0  0  0  0
   -7.4684    0.3193    0.0095 H   0  0  0  0  0  0  0  0  0  0  0  0
  1  9  1  0  0  0  0
  1 11  1  0  0  0  0
  2  5  1  0  0  0  0
  3  5  2  0  0  0  0
  4 16  2  0  0  0  0
  5 11  1  0  0  0  0
  6  7  1  0  0  0  0
  6 15  2  0  0  0  0
  7 16  1  0  0  0  0
  7 22  1  0  0  0  0
  8 16  1  0  0  0  0
  8 23  1  0  0  0  0
  8 24  1  0  0  0  0
  9 10  2  0  0  0  0
  9 13  1  0  0  0  0
 10 12  1  0  0  0  0
 10 17  1  0  0  0  0
 11 12  2  0  0  0  0
 12 18  1  0  0  0  0
 13 14  2  0  0  0  0
 13 19  1  0  0  0  0
 14 15  1  0  0  0  0
 14 20  1  0  0  0  0
 15 21  1  0  0  0  0
M  CHG  2   2  -1   5   1
M  END
> <PUBCHEM_COMPOUND_CID>
12872

> <PUBCHEM_CONFORMER_RMSD>
0.6

> <PUBCHEM_CONFORMER_DIVERSEORDER>
1
2
5
8
3
7
6
4

> <PUBCHEM_MMFF94_PARTIAL_CHARGES>
24
1 -0.28
10 -0.15
11 0.22
12 -0.15
13 -0.11
14 -0.14
15 0.38
16 0.69
17 0.15
18 0.15
19 0.15
2 -0.52
20 0.15
21 0.06
22 0.37
23 0.37
24 0.37
3 -0.52
4 -0.57
5 0.96
6 -0.51
7 -0.37
8 -0.8
9 0.09

> <PUBCHEM_EFFECTIVE_ROTOR_COUNT>
5

> <PUBCHEM_PHARMACOPHORE_FEATURES>
9
1 1 acceptor
1 2 acceptor
1 2 anion
1 3 acceptor
1 4 acceptor
1 6 acceptor
1 7 donor
1 8 donor
5 1 9 10 11 12 rings

> <PUBCHEM_HEAVY_ATOM_COUNT>
16

> <PUBCHEM_ATOM_DEF_STEREO_COUNT>
0

> <PUBCHEM_ATOM_UDEF_STEREO_COUNT>
0

> <PUBCHEM_BOND_DEF_STEREO_COUNT>
0

> <PUBCHEM_BOND_UDEF_STEREO_COUNT>
2

> <PUBCHEM_ISOTOPIC_ATOM_COUNT>
0

> <PUBCHEM_COMPONENT_COUNT>
1

> <PUBCHEM_CACTVS_TAUTO_COUNT>
3

> <PUBCHEM_CONFORMER_ID>
0000324800000001

> <PUBCHEM_MMFF94_ENERGY>
24.6969

> <PUBCHEM_FEATURE_SELFOVERLAP>
45.818

> <PUBCHEM_SHAPE_FINGERPRINT>
10595046 47 18335424573792486087
10912923 1 18114464548089808555
11287383 113 18412543211078477195
12730499 353 18341322353562834314
13081056 2 18342739654194319287
13167372 99 18263078976095229001
13533116 47 17203054108959260091
13955234 65 18271810189094057378
14251732 16 18340485578712936595
14528608 73 18334295357706414127
15342168 16 18200027335623599532
16079462 125 17703802439878023381
17834072 33 18333453136374196671
17844677 252 18337382855393073305
20645477 56 18202846543667115503
20645477 70 18262517108136326350
212847 35 18187650219023582202
21652331 79 18411983576491681165
22896161 15 18410573943257241783
23272321 79 18410292493754552575
23402655 69 18260833687103772214
23532345 1 18411979161312760778
270888 7 18195246612344316692
2916195 48 18202285810201525609
300161 21 18114469997780730335
3060560 45 15864072057616221708
34797466 226 17822002095652715181
3545911 37 18412542098085679534
4047638 21 18342457045605003986
42788 4 18410574015828385767
449060 62 18408323280950195178
5104073 3 18273492390613452907
522135 26 18336546105269312662
5374978 207 18059861691972342410
6025842 7 18261391182691827670
77779 3 18410011061500992815
8272917 22 18261671571010053430
90127 26 18341038727207934811

> <PUBCHEM_SHAPE_MULTIPOLES>
285.87
14.44
1.84
0.57
18.73
0.53
0
5.97
-0.1
-2.25
0
-0.02
-0.04
-0.03

> <PUBCHEM_SHAPE_SELFOVERLAP>
591.082

> <PUBCHEM_SHAPE_VOLUME>
163.8

> <PUBCHEM_COORDINATE_TYPE>
2
5
10

$$$$

