62
  -OEChem-07051212513D

 15 15  0     1  0  0  0  0  0999 V2000
   -1.7564    1.7940   -1.1392 Cl  0  0  0  0  0  0  0  0  0  0  0  0
    3.0303    0.8752    0.3686 Cl  0  0  0  0  0  0  0  0  0  0  0  0
   -2.9913   -0.9713    0.3988 Cl  0  0  0  0  0  0  0  0  0  0  0  0
    1.6278   -1.5050   -1.1238 O   0  0  0  0  0  0  0  0  0  0  0  0
    1.0929   -1.0581    0.1203 C   0  0  1  0  0  0  0  0  0  0  0  0
   -1.0648    0.9987    0.3100 C   0  0  1  0  0  0  0  0  0  0  0  0
    1.3661    0.4134    0.2698 C   0  0  0  0  0  0  0  0  0  0  0  0
   -0.3690   -1.4063    0.1703 C   0  0  0  0  0  0  0  0  0  0  0  0
   -1.3364   -0.4807    0.2609 C   0  0  0  0  0  0  0  0  0  0  0  0
    0.4007    1.3401    0.3643 C   0  0  0  0  0  0  0  0  0  0  0  0
    1.5974   -1.6094    0.9231 H   0  0  0  0  0  0  0  0  0  0  0  0
   -1.5552    1.4363    1.1868 H   0  0  0  0  0  0  0  0  0  0  0  0
   -0.6218   -2.4637    0.1499 H   0  0  0  0  0  0  0  0  0  0  0  0
    0.6614    2.3883    0.4926 H   0  0  0  0  0  0  0  0  0  0  0  0
    2.5845   -1.3293   -1.1146 H   0  0  0  0  0  0  0  0  0  0  0  0
  1  6  1  0  0  0  0
  2  7  1  0  0  0  0
  3  9  1  0  0  0  0
  4  5  1  0  0  0  0
  4 15  1  0  0  0  0
  5  7  1  0  0  0  0
  5  8  1  0  0  0  0
  5 11  1  0  0  0  0
  6  9  1  0  0  0  0
  6 10  1  0  0  0  0
  6 12  1  0  0  0  0
  7 10  2  0  0  0  0
  8  9  2  0  0  0  0
  8 13  1  0  0  0  0
 10 14  1  0  0  0  0
M  END
> <PUBCHEM_COMPOUND_CID>
62

> <PUBCHEM_CONFORMER_RMSD>
0.4

> <PUBCHEM_CONFORMER_DIVERSEORDER>
1
3
2
4

> <PUBCHEM_MMFF94_PARTIAL_CHARGES>
11
1 -0.29
10 -0.29
13 0.15
14 0.15
15 0.4
2 -0.14
3 -0.14
4 -0.68
5 0.56
6 0.57
8 -0.29

> <PUBCHEM_EFFECTIVE_ROTOR_COUNT>
0.4

> <PUBCHEM_PHARMACOPHORE_FEATURES>
3
1 4 acceptor
1 4 donor
6 5 6 7 8 9 10 rings

> <PUBCHEM_HEAVY_ATOM_COUNT>
10

> <PUBCHEM_ATOM_DEF_STEREO_COUNT>
0

> <PUBCHEM_ATOM_UDEF_STEREO_COUNT>
2

> <PUBCHEM_BOND_DEF_STEREO_COUNT>
0

> <PUBCHEM_BOND_UDEF_STEREO_COUNT>
0

> <PUBCHEM_ISOTOPIC_ATOM_COUNT>
0

> <PUBCHEM_COMPONENT_COUNT>
1

> <PUBCHEM_CACTVS_TAUTO_COUNT>
1

> <PUBCHEM_CONFORMER_ID>
0000003E00000001

> <PUBCHEM_MMFF94_ENERGY>
2.929

> <PUBCHEM_FEATURE_SELFOVERLAP>
15.223

> <PUBCHEM_SHAPE_FINGERPRINT>
12138202 97 18057906777525609245
12423570 1 8030177899545218865
13380535 239 18409726291840962389
15219456 202 18335421304762866752
161256 15 18337660988437068619
16945 1 18198922309088932064
18185500 45 15308722636750560282
20588541 1 18265607697835104123
20711978 78 17531238500001830735
21040471 1 17840028777399482601
21922407 69 15338249364268450521
23235685 24 18261112907206607424
23402655 69 18263661674914828501
23552423 10 18270953660866346162
241688 4 18267008638799424528
2748010 2 18337953505595167366
5084963 1 18411702041379978360

> <PUBCHEM_SHAPE_MULTIPOLES>
205.54
3.76
1.95
0.92
0.41
0.28
-0.21
0.04
0.32
-0.47
-0.45
-0.02
0.06
0.77

> <PUBCHEM_SHAPE_SELFOVERLAP>
390.06

> <PUBCHEM_SHAPE_VOLUME>
129.7

> <PUBCHEM_COORDINATE_TYPE>
2
5
10

$$$$

