4676
  -OEChem-06261200172D

 44 46  0     1  0  0  0  0  0999 V2000
    7.6567   -1.0450    0.0000 S   0  0  0  0  0  0  0  0  0  0  0  0
    3.4040   -2.2577    0.0000 O   0  0  0  0  0  0  0  0  0  0  0  0
    2.4375   -0.0891    0.0000 O   0  0  0  0  0  0  0  0  0  0  0  0
    7.3561   -3.0130    0.0000 O   0  0  0  0  0  0  0  0  0  0  0  0
    5.7088   -3.5482    0.0000 O   0  0  0  0  0  0  0  0  0  0  0  0
    5.1179   -1.5450    0.0000 N   0  0  0  0  0  0  0  0  0  0  0  0
    8.4931    1.4037    0.0000 N   0  0  0  0  0  0  0  0  0  0  0  0
    9.1976    2.9860    0.0000 N   0  0  0  0  0  0  0  0  0  0  0  0
    5.1179   -0.5450    0.0000 C   0  0  3  0  0  0  0  0  0  0  0  0
    4.1096   -0.5408    0.0000 C   0  0  3  0  0  0  0  0  0  0  0  0
    6.0690   -0.2360    0.0000 C   0  0  0  0  0  0  0  0  0  0  0  0
    4.1096   -1.5491    0.0000 C   0  0  0  0  0  0  0  0  0  0  0  0
    6.6567   -1.0450    0.0000 C   0  0  0  0  0  0  0  0  0  0  0  0
    6.0690   -1.8540    0.0000 C   0  0  0  0  0  0  0  0  0  0  0  0
    3.4040    0.1677    0.0000 C   0  0  3  0  0  0  0  0  0  0  0  0
    8.1567   -0.1790    0.0000 C   0  0  3  0  0  0  0  0  0  0  0  0
    9.1513   -0.0744    0.0000 C   0  0  0  0  0  0  0  0  0  0  0  0
    7.7500    0.7346    0.0000 C   0  0  0  0  0  0  0  0  0  0  0  0
    3.6648    1.1331    0.0000 C   0  0  0  0  0  0  0  0  0  0  0  0
    9.3592    0.9037    0.0000 C   0  0  0  0  0  0  0  0  0  0  0  0
    6.3780   -2.8051    0.0000 C   0  0  0  0  0  0  0  0  0  0  0  0
    8.3886    2.3982    0.0000 C   0  0  0  0  0  0  0  0  0  0  0  0
    7.4751    2.8050    0.0000 C   0  0  0  0  0  0  0  0  0  0  0  0
    5.0222    0.0676    0.0000 H   0  0  0  0  0  0  0  0  0  0  0  0
    3.5366   -0.7775    0.0000 H   0  0  0  0  0  0  0  0  0  0  0  0
    6.6059    0.0740    0.0000 H   0  0  0  0  0  0  0  0  0  0  0  0
    5.8168    0.3304    0.0000 H   0  0  0  0  0  0  0  0  0  0  0  0
    2.9665    0.6070    0.0000 H   0  0  0  0  0  0  0  0  0  0  0  0
    7.5376   -0.1465    0.0000 H   0  0  0  0  0  0  0  0  0  0  0  0
    9.1513   -0.6944    0.0000 H   0  0  0  0  0  0  0  0  0  0  0  0
    9.7679   -0.1392    0.0000 H   0  0  0  0  0  0  0  0  0  0  0  0
    7.3856    1.2362    0.0000 H   0  0  0  0  0  0  0  0  0  0  0  0
    7.2131    0.4246    0.0000 H   0  0  0  0  0  0  0  0  0  0  0  0
    9.9488    0.7121    0.0000 H   0  0  0  0  0  0  0  0  0  0  0  0
    9.6113    1.4701    0.0000 H   0  0  0  0  0  0  0  0  0  0  0  0
    4.2633    0.9714    0.0000 H   0  0  0  0  0  0  0  0  0  0  0  0
    3.8265    1.7316    0.0000 H   0  0  0  0  0  0  0  0  0  0  0  0
    3.0662    1.2948    0.0000 H   0  0  0  0  0  0  0  0  0  0  0  0
    2.0000    0.3502    0.0000 H   0  0  0  0  0  0  0  0  0  0  0  0
    7.5477   -3.6026    0.0000 H   0  0  0  0  0  0  0  0  0  0  0  0
    7.7272    3.3714    0.0000 H   0  0  0  0  0  0  0  0  0  0  0  0
    6.9087    3.0572    0.0000 H   0  0  0  0  0  0  0  0  0  0  0  0
    7.2229    2.2386    0.0000 H   0  0  0  0  0  0  0  0  0  0  0  0
    9.1328    3.6026    0.0000 H   0  0  0  0  0  0  0  0  0  0  0  0
  1 13  1  0  0  0  0
  1 16  1  0  0  0  0
  2 12  2  0  0  0  0
  3 15  1  0  0  0  0
  3 39  1  0  0  0  0
  4 21  1  0  0  0  0
  4 40  1  0  0  0  0
  5 21  2  0  0  0  0
  6  9  1  0  0  0  0
  6 12  1  0  0  0  0
  6 14  1  0  0  0  0
  7 18  1  0  0  0  0
  7 20  1  0  0  0  0
  7 22  1  0  0  0  0
  8 22  2  0  0  0  0
  8 44  1  0  0  0  0
  9 10  1  0  0  0  0
  9 11  1  0  0  0  0
  9 24  1  0  0  0  0
 10 12  1  0  0  0  0
 10 15  1  0  0  0  0
 10 25  1  0  0  0  0
 11 13  1  0  0  0  0
 11 26  1  0  0  0  0
 11 27  1  0  0  0  0
 13 14  2  0  0  0  0
 14 21  1  0  0  0  0
 15 19  1  0  0  0  0
 15 28  1  0  0  0  0
 16 17  1  0  0  0  0
 16 18  1  0  0  0  0
 16 29  1  0  0  0  0
 17 20  1  0  0  0  0
 17 30  1  0  0  0  0
 17 31  1  0  0  0  0
 18 32  1  0  0  0  0
 18 33  1  0  0  0  0
 19 36  1  0  0  0  0
 19 37  1  0  0  0  0
 19 38  1  0  0  0  0
 20 34  1  0  0  0  0
 20 35  1  0  0  0  0
 22 23  1  0  0  0  0
 23 41  1  0  0  0  0
 23 42  1  0  0  0  0
 23 43  1  0  0  0  0
M  END
> <PUBCHEM_COMPOUND_CID>
4676

> <PUBCHEM_COMPOUND_CANONICALIZED>
1

> <PUBCHEM_CACTVS_COMPLEXITY>
606

> <PUBCHEM_CACTVS_HBOND_ACCEPTOR>
6

> <PUBCHEM_CACTVS_HBOND_DONOR>
3

> <PUBCHEM_CACTVS_ROTATABLE_BOND>
5

> <PUBCHEM_CACTVS_SUBSKEYS>
AAADceBzOABAAAAAAAAAAAAAAABYAWIAAAAAAAAABAAAAAAAAAAAHgQQCAAADTzlwAaDCANAAgioAAfweAAAAACgABABCAGYAEgCFB4giCAEUAAGpgC4EQOYAAAOAAAAAAAAAAAAAAAAAAAAAAAAAAAAAA==

> <PUBCHEM_IUPAC_OPENEYE_NAME>
3-(1-ethanimidoylpyrrolidin-3-yl)sulfanyl-6-(1-hydroxyethyl)-7-oxo-1-azabicyclo[3.2.0]hept-2-ene-2-carboxylic acid

> <PUBCHEM_IUPAC_CAS_NAME>
6-(1-hydroxyethyl)-3-[[1-(1-iminoethyl)-3-pyrrolidinyl]thio]-7-oxo-1-azabicyclo[3.2.0]hept-2-ene-2-carboxylic acid

> <PUBCHEM_IUPAC_NAME>
3-(1-ethanimidoylpyrrolidin-3-yl)sulfanyl-6-(1-hydroxyethyl)-7-oxo-1-azabicyclo[3.2.0]hept-2-ene-2-carboxylic acid

> <PUBCHEM_IUPAC_SYSTEMATIC_NAME>
3-(1-ethanimidoylpyrrolidin-3-yl)sulfanyl-6-(1-hydroxyethyl)-7-oxidanylidene-1-azabicyclo[3.2.0]hept-2-ene-2-carboxylic acid

> <PUBCHEM_IUPAC_TRADITIONAL_NAME>
3-[(1-acetimidoylpyrrolidin-3-yl)thio]-6-(1-hydroxyethyl)-7-keto-1-azabicyclo[3.2.0]hept-2-ene-2-carboxylic acid

> <PUBCHEM_IUPAC_INCHI>
InChI=1S/C15H21N3O4S/c1-7(19)12-10-5-11(13(15(21)22)18(10)14(12)20)23-9-3-4-17(6-9)8(2)16/h7,9-10,12,16,19H,3-6H2,1-2H3,(H,21,22)

> <PUBCHEM_IUPAC_INCHIKEY>
TYMABNNERDVXID-UHFFFAOYSA-N

> <PUBCHEM_XLOGP3_AA>
0

> <PUBCHEM_EXACT_MASS>
339.125277

> <PUBCHEM_MOLECULAR_FORMULA>
C15H21N3O4S

> <PUBCHEM_MOLECULAR_WEIGHT>
339.40994

> <PUBCHEM_OPENEYE_CAN_SMILES>
CC(C1C2CC(=C(N2C1=O)C(=O)O)SC3CCN(C3)C(=N)C)O

> <PUBCHEM_OPENEYE_ISO_SMILES>
CC(C1C2CC(=C(N2C1=O)C(=O)O)SC3CCN(C3)C(=N)C)O

> <PUBCHEM_CACTVS_TPSA>
130

> <PUBCHEM_MONOISOTOPIC_WEIGHT>
339.125277

> <PUBCHEM_TOTAL_CHARGE>
0

> <PUBCHEM_HEAVY_ATOM_COUNT>
23

> <PUBCHEM_ATOM_DEF_STEREO_COUNT>
0

> <PUBCHEM_ATOM_UDEF_STEREO_COUNT>
4

> <PUBCHEM_BOND_DEF_STEREO_COUNT>
0

> <PUBCHEM_BOND_UDEF_STEREO_COUNT>
0

> <PUBCHEM_ISOTOPIC_ATOM_COUNT>
0

> <PUBCHEM_COMPONENT_COUNT>
1

> <PUBCHEM_CACTVS_TAUTO_COUNT>
4

> <PUBCHEM_COORDINATE_TYPE>
1
5
255

> <PUBCHEM_BONDANNOTATIONS>
16  1  3
10  12  3
15  3  3
9  11  3

$$$$

