441788
  -OEChem-07051212562D

 55 59  0     1  0  0  0  0  0999 V2000
    6.7975    0.9405    0.0000 O   0  0  0  0  0  0  0  0  0  0  0  0
    7.4252   -1.9063    0.0000 O   0  0  0  0  0  0  0  0  0  0  0  0
    8.3618    0.3177    0.0000 O   0  0  0  0  0  0  0  0  0  0  0  0
    4.7789    1.6441    0.0000 O   0  0  0  0  0  0  0  0  0  0  0  0
    6.5109    2.6441    0.0000 O   0  0  0  0  0  0  0  0  0  0  0  0
    9.1387    0.1796    0.0000 O   0  0  0  0  0  0  0  0  0  0  0  0
    3.8273    1.2011    0.0000 O   0  0  0  0  0  0  0  0  0  0  0  0
    9.1868   -1.8589    0.0000 O   0  0  0  0  0  0  0  0  0  0  0  0
    2.0000    0.1834    0.0000 O   0  0  0  0  0  0  0  0  0  0  0  0
    6.5109   -0.3559    0.0000 C   0  0  2  0  0  0  0  0  0  0  0  0
    5.6449    0.1441    0.0000 C   0  0  1  0  0  0  0  0  0  0  0  0
    7.3770    0.1441    0.0000 C   0  0  1  0  0  0  0  0  0  0  0  0
    4.7349   -0.3628    0.0000 C   0  0  2  0  0  0  0  0  0  0  0  0
    7.3770    1.1441    0.0000 C   0  0  1  0  0  0  0  0  0  0  0  0
    6.5270   -1.3974    0.0000 C   0  0  1  0  0  0  0  0  0  0  0  0
    5.6449    1.1441    0.0000 C   0  0  2  0  0  0  0  0  0  0  0  0
    6.3975    0.2477    0.0000 C   0  0  0  0  0  0  0  0  0  0  0  0
    4.7269   -1.4044    0.0000 C   0  0  1  0  0  0  0  0  0  0  0  0
    6.5109    1.6441    0.0000 C   0  0  2  0  0  0  0  0  0  0  0  0
    5.6290   -1.9252    0.0000 C   0  0  0  0  0  0  0  0  0  0  0  0
    8.2867   -0.3439    0.0000 C   0  0  2  0  0  0  0  0  0  0  0  0
    3.8081    0.2013    0.0000 C   0  0  1  0  0  0  0  0  0  0  0  0
    4.4001    0.5795    0.0000 C   0  0  0  0  0  0  0  0  0  0  0  0
    7.8770    2.0101    0.0000 C   0  0  0  0  0  0  0  0  0  0  0  0
    3.7914   -1.9541    0.0000 C   0  0  0  0  0  0  0  0  0  0  0  0
    8.3110   -1.3760    0.0000 C   0  0  0  0  0  0  0  0  0  0  0  0
    2.8602   -0.3266    0.0000 C   0  0  0  0  0  0  0  0  0  0  0  0
    2.8518   -1.4116    0.0000 C   0  0  0  0  0  0  0  0  0  0  0  0
    3.7953   -2.9541    0.0000 C   0  0  0  0  0  0  0  0  0  0  0  0
    4.9088    0.5691    0.0000 H   0  0  0  0  0  0  0  0  0  0  0  0
    6.5337   -2.2474    0.0000 H   0  0  0  0  0  0  0  0  0  0  0  0
    5.6449    1.7641    0.0000 H   0  0  0  0  0  0  0  0  0  0  0  0
    5.9704    0.6971    0.0000 H   0  0  0  0  0  0  0  0  0  0  0  0
    5.8456   -0.0347    0.0000 H   0  0  0  0  0  0  0  0  0  0  0  0
    4.7302   -2.2544    0.0000 H   0  0  0  0  0  0  0  0  0  0  0  0
    7.0479    1.9541    0.0000 H   0  0  0  0  0  0  0  0  0  0  0  0
    5.2316   -2.4012    0.0000 H   0  0  0  0  0  0  0  0  0  0  0  0
    6.0299   -2.3981    0.0000 H   0  0  0  0  0  0  0  0  0  0  0  0
    8.8314   -0.6402    0.0000 H   0  0  0  0  0  0  0  0  0  0  0  0
    4.3515    0.4999    0.0000 H   0  0  0  0  0  0  0  0  0  0  0  0
    4.9844    0.7871    0.0000 H   0  0  0  0  0  0  0  0  0  0  0  0
    4.1926    1.1638    0.0000 H   0  0  0  0  0  0  0  0  0  0  0  0
    3.8159    0.3720    0.0000 H   0  0  0  0  0  0  0  0  0  0  0  0
    8.4139    1.7001    0.0000 H   0  0  0  0  0  0  0  0  0  0  0  0
    8.1870    2.5470    0.0000 H   0  0  0  0  0  0  0  0  0  0  0  0
    7.3400    2.3201    0.0000 H   0  0  0  0  0  0  0  0  0  0  0  0
    8.5738    0.9003    0.0000 H   0  0  0  0  0  0  0  0  0  0  0  0
    4.7789    2.2641    0.0000 H   0  0  0  0  0  0  0  0  0  0  0  0
    7.0479    2.9541    0.0000 H   0  0  0  0  0  0  0  0  0  0  0  0
    2.3137   -1.7195    0.0000 H   0  0  0  0  0  0  0  0  0  0  0  0
    9.6840   -0.1156    0.0000 H   0  0  0  0  0  0  0  0  0  0  0  0
    3.2965    1.5214    0.0000 H   0  0  0  0  0  0  0  0  0  0  0  0
    3.1753   -2.9565    0.0000 H   0  0  0  0  0  0  0  0  0  0  0  0
    3.7977   -3.5741    0.0000 H   0  0  0  0  0  0  0  0  0  0  0  0
    4.4153   -2.9517    0.0000 H   0  0  0  0  0  0  0  0  0  0  0  0
  1 14  1  0  0  0  0
  1 17  1  0  0  0  0
  2 15  1  0  0  0  0
  2 26  1  0  0  0  0
 12  3  1  1  0  0  0
  3 47  1  0  0  0  0
 16  4  1  1  0  0  0
  4 48  1  0  0  0  0
 19  5  1  6  0  0  0
  5 49  1  0  0  0  0
 21  6  1  1  0  0  0
  6 51  1  0  0  0  0
 22  7  1  1  0  0  0
  7 52  1  0  0  0  0
  8 26  2  0  0  0  0
  9 27  2  0  0  0  0
 10 11  1  0  0  0  0
 10 12  1  0  0  0  0
 10 15  1  0  0  0  0
 10 17  1  1  0  0  0
 11 13  1  0  0  0  0
 11 16  1  0  0  0  0
 11 30  1  6  0  0  0
 12 14  1  0  0  0  0
 12 21  1  0  0  0  0
 13 18  1  0  0  0  0
 13 22  1  0  0  0  0
 13 23  1  1  0  0  0
 14 19  1  0  0  0  0
 14 24  1  1  0  0  0
 15 20  1  0  0  0  0
 15 31  1  1  0  0  0
 16 19  1  0  0  0  0
 16 32  1  0  0  0  0
 17 33  1  0  0  0  0
 17 34  1  0  0  0  0
 18 20  1  0  0  0  0
 18 25  1  0  0  0  0
 18 35  1  6  0  0  0
 19 36  1  0  0  0  0
 20 37  1  0  0  0  0
 20 38  1  0  0  0  0
 21 26  1  0  0  0  0
 21 39  1  0  0  0  0
 22 27  1  0  0  0  0
 22 40  1  0  0  0  0
 23 41  1  0  0  0  0
 23 42  1  0  0  0  0
 23 43  1  0  0  0  0
 24 44  1  0  0  0  0
 24 45  1  0  0  0  0
 24 46  1  0  0  0  0
 25 28  2  0  0  0  0
 25 29  1  0  0  0  0
 27 28  1  0  0  0  0
 28 50  1  0  0  0  0
 29 53  1  0  0  0  0
 29 54  1  0  0  0  0
 29 55  1  0  0  0  0
M  END
> <PUBCHEM_COMPOUND_CID>
441788

> <PUBCHEM_COMPOUND_CANONICALIZED>
1

> <PUBCHEM_CACTVS_COMPLEXITY>
855

> <PUBCHEM_CACTVS_HBOND_ACCEPTOR>
9

> <PUBCHEM_CACTVS_HBOND_DONOR>
5

> <PUBCHEM_CACTVS_ROTATABLE_BOND>
0

> <PUBCHEM_CACTVS_SUBSKEYS>
AAADceB4PAAAAAAAAAAAAAAAAAAAASAAAAA0YIEABIAAAEjQAAAAGgAACAAAD1SggAICCAAABgCIAqDSCAIAAAAgAAAACAFAAEgBEBYAAQACQAAF4AALAQPK7PzPgAAAAAAAAADCAAYQADCAAAAAAAAAAA==

> <PUBCHEM_IUPAC_INCHI>
InChI=1S/C20H26O9/c1-7-4-9(21)13(23)17(2)8(7)5-10-19-6-28-18(3,14(24)11(22)12(17)19)20(19,27)15(25)16(26)29-10/h4,8,10-15,22-25,27H,5-6H2,1-3H3/t8-,10+,11+,12+,13+,14-,15-,17-,18+,19+,20+/m0/s1

> <PUBCHEM_IUPAC_INCHIKEY>
JBDMZGKDLMGOFR-KQSRGDCESA-N

> <PUBCHEM_XLOGP3_AA>
-2.4

> <PUBCHEM_EXACT_MASS>
410.157682

> <PUBCHEM_MOLECULAR_FORMULA>
C20H26O9

> <PUBCHEM_MOLECULAR_WEIGHT>
410.41504

> <PUBCHEM_OPENEYE_CAN_SMILES>
CC1=CC(=O)C(C2(C1CC3C45C2C(C(C(C4(C(C(=O)O3)O)O)(OC5)C)O)O)C)O

> <PUBCHEM_OPENEYE_ISO_SMILES>
CC1=CC(=O)[C@H]([C@]2([C@H]1C[C@@H]3[C@]45[C@@H]2[C@H]([C@@H]([C@]([C@@]4([C@H](C(=O)O3)O)O)(OC5)C)O)O)C)O

> <PUBCHEM_CACTVS_TPSA>
154

> <PUBCHEM_MONOISOTOPIC_WEIGHT>
410.157682

> <PUBCHEM_TOTAL_CHARGE>
0

> <PUBCHEM_HEAVY_ATOM_COUNT>
29

> <PUBCHEM_ATOM_DEF_STEREO_COUNT>
11

> <PUBCHEM_ATOM_UDEF_STEREO_COUNT>
0

> <PUBCHEM_BOND_DEF_STEREO_COUNT>
0

> <PUBCHEM_BOND_UDEF_STEREO_COUNT>
0

> <PUBCHEM_ISOTOPIC_ATOM_COUNT>
0

> <PUBCHEM_COMPONENT_COUNT>
1

> <PUBCHEM_CACTVS_TAUTO_COUNT>
39

> <PUBCHEM_COORDINATE_TYPE>
1
5
255

> <PUBCHEM_BONDANNOTATIONS>
10  17  5
11  30  6
13  23  5
14  24  5
15  31  5
18  35  6
12  3  5
16  4  5
19  5  6
21  6  5
22  7  5

$$$$

