5283831
  -OEChem-07051213103D

 68 71  0     1  0  0  0  0  0999 V2000
    0.9174   -1.4663    2.3687 O   0  0  0  0  0  0  0  0  0  0  0  0
   -5.0224    3.2833    0.9945 O   0  0  0  0  0  0  0  0  0  0  0  0
    6.2125    2.9506    0.4963 O   0  0  0  0  0  0  0  0  0  0  0  0
    7.0620    1.1447   -0.5871 O   0  0  0  0  0  0  0  0  0  0  0  0
    0.9083   -1.0086   -0.0278 C   0  0  1  0  0  0  0  0  0  0  0  0
    0.1353   -0.1724   -1.0746 C   0  0  2  0  0  0  0  0  0  0  0  0
   -1.3436   -0.5642   -1.1787 C   0  0  1  0  0  0  0  0  0  0  0  0
   -2.0217   -0.3396    0.2109 C   0  0  1  0  0  0  0  0  0  0  0  0
   -3.5587   -0.6827    0.1795 C   0  0  2  0  0  0  0  0  0  0  0  0
    2.3278   -0.4167   -0.2392 C   0  0  2  0  0  0  0  0  0  0  0  0
    0.2745   -0.7130    1.3458 C   0  0  1  0  0  0  0  0  0  0  0  0
   -1.2342   -1.0345    1.3520 C   0  0  0  0  0  0  0  0  0  0  0  0
   -4.2500    0.1317   -0.9659 C   0  0  2  0  0  0  0  0  0  0  0  0
    1.0076   -0.2540   -2.3231 C   0  0  0  0  0  0  0  0  0  0  0  0
   -2.0575    0.2293   -2.2807 C   0  0  0  0  0  0  0  0  0  0  0  0
    2.4451   -0.2797   -1.7764 C   0  0  0  0  0  0  0  0  0  0  0  0
   -3.5541   -0.0639   -2.3232 C   0  0  0  0  0  0  0  0  0  0  0  0
   -4.2704   -0.3478    1.5230 C   0  0  0  0  0  0  0  0  0  0  0  0
    0.9035   -2.5335   -0.3166 C   0  0  0  0  0  0  0  0  0  0  0  0
    3.5004   -1.1800    0.3619 C   0  0  1  0  0  0  0  0  0  0  0  0
   -4.3680    1.6360   -0.6410 C   0  0  0  0  0  0  0  0  0  0  0  0
   -3.7861   -2.1981   -0.0595 C   0  0  0  0  0  0  0  0  0  0  0  0
   -4.3506    1.1427    1.8269 C   0  0  0  0  0  0  0  0  0  0  0  0
   -5.0493    1.8907    0.6999 C   0  0  1  0  0  0  0  0  0  0  0  0
    4.8252   -0.4702    0.0188 C   0  0  0  0  0  0  0  0  0  0  0  0
    3.3036   -1.3350    1.8729 C   0  0  0  0  0  0  0  0  0  0  0  0
    4.8800    0.9865    0.4830 C   0  0  0  0  0  0  0  0  0  0  0  0
    6.1635    1.6648    0.0596 C   0  0  0  0  0  0  0  0  0  0  0  0
    0.1578    0.8849   -0.7606 H   0  0  0  0  0  0  0  0  0  0  0  0
   -1.4077   -1.6220   -1.4528 H   0  0  0  0  0  0  0  0  0  0  0  0
   -1.9326    0.7353    0.4207 H   0  0  0  0  0  0  0  0  0  0  0  0
    2.2952    0.5959    0.1836 H   0  0  0  0  0  0  0  0  0  0  0  0
    0.4075    0.3472    1.5961 H   0  0  0  0  0  0  0  0  0  0  0  0
   -1.6314   -0.7246    2.3256 H   0  0  0  0  0  0  0  0  0  0  0  0
   -1.3734   -2.1202    1.3199 H   0  0  0  0  0  0  0  0  0  0  0  0
   -5.2786   -0.2416   -1.0770 H   0  0  0  0  0  0  0  0  0  0  0  0
    0.8517    0.6020   -2.9878 H   0  0  0  0  0  0  0  0  0  0  0  0
    0.8007   -1.1623   -2.8999 H   0  0  0  0  0  0  0  0  0  0  0  0
   -1.6272   -0.0200   -3.2580 H   0  0  0  0  0  0  0  0  0  0  0  0
   -1.8922    1.3038   -2.1384 H   0  0  0  0  0  0  0  0  0  0  0  0
    2.9879   -1.1173   -2.2293 H   0  0  0  0  0  0  0  0  0  0  0  0
    2.9755    0.6405   -2.0450 H   0  0  0  0  0  0  0  0  0  0  0  0
   -4.0251    0.5748   -3.0806 H   0  0  0  0  0  0  0  0  0  0  0  0
   -3.7056   -1.0942   -2.6670 H   0  0  0  0  0  0  0  0  0  0  0  0
   -3.7939   -0.8659    2.3621 H   0  0  0  0  0  0  0  0  0  0  0  0
   -5.2981   -0.7366    1.4890 H   0  0  0  0  0  0  0  0  0  0  0  0
    1.4479   -3.0967    0.4470 H   0  0  0  0  0  0  0  0  0  0  0  0
   -0.1070   -2.9505   -0.3404 H   0  0  0  0  0  0  0  0  0  0  0  0
    1.3648   -2.7761   -1.2791 H   0  0  0  0  0  0  0  0  0  0  0  0
    3.5702   -2.1848   -0.0731 H   0  0  0  0  0  0  0  0  0  0  0  0
   -3.3876    2.1264   -0.6425 H   0  0  0  0  0  0  0  0  0  0  0  0
   -4.9384    2.1415   -1.4313 H   0  0  0  0  0  0  0  0  0  0  0  0
   -3.2899   -2.5687   -0.9594 H   0  0  0  0  0  0  0  0  0  0  0  0
   -3.4275   -2.7962    0.7846 H   0  0  0  0  0  0  0  0  0  0  0  0
   -4.8546   -2.4179   -0.1717 H   0  0  0  0  0  0  0  0  0  0  0  0
   -4.8997    1.3008    2.7635 H   0  0  0  0  0  0  0  0  0  0  0  0
   -3.3525    1.5608    2.0035 H   0  0  0  0  0  0  0  0  0  0  0  0
   -6.1001    1.5813    0.6495 H   0  0  0  0  0  0  0  0  0  0  0  0
    0.4866   -1.2453    3.2119 H   0  0  0  0  0  0  0  0  0  0  0  0
    5.6576   -1.0240    0.4734 H   0  0  0  0  0  0  0  0  0  0  0  0
    5.0070   -0.5187   -1.0620 H   0  0  0  0  0  0  0  0  0  0  0  0
    2.8848   -0.4459    2.3509 H   0  0  0  0  0  0  0  0  0  0  0  0
    2.8251   -2.2846    2.1177 H   0  0  0  0  0  0  0  0  0  0  0  0
    4.2917   -1.4495    2.3420 H   0  0  0  0  0  0  0  0  0  0  0  0
   -5.4746    3.7452    0.2680 H   0  0  0  0  0  0  0  0  0  0  0  0
    4.0771    1.5816    0.0410 H   0  0  0  0  0  0  0  0  0  0  0  0
    4.8127    1.0405    1.5745 H   0  0  0  0  0  0  0  0  0  0  0  0
    7.0443    3.3961    0.2280 H   0  0  0  0  0  0  0  0  0  0  0  0
  1 11  1  0  0  0  0
  1 59  1  0  0  0  0
  2 24  1  0  0  0  0
  2 65  1  0  0  0  0
  3 28  1  0  0  0  0
  3 68  1  0  0  0  0
  4 28  2  0  0  0  0
  5  6  1  0  0  0  0
  5 10  1  0  0  0  0
  5 11  1  0  0  0  0
  5 19  1  0  0  0  0
  6  7  1  0  0  0  0
  6 14  1  0  0  0  0
  6 29  1  0  0  0  0
  7  8  1  0  0  0  0
  7 15  1  0  0  0  0
  7 30  1  0  0  0  0
  8  9  1  0  0  0  0
  8 12  1  0  0  0  0
  8 31  1  0  0  0  0
  9 13  1  0  0  0  0
  9 18  1  0  0  0  0
  9 22  1  0  0  0  0
 10 16  1  0  0  0  0
 10 20  1  0  0  0  0
 10 32  1  0  0  0  0
 11 12  1  0  0  0  0
 11 33  1  0  0  0  0
 12 34  1  0  0  0  0
 12 35  1  0  0  0  0
 13 17  1  0  0  0  0
 13 21  1  0  0  0  0
 13 36  1  0  0  0  0
 14 16  1  0  0  0  0
 14 37  1  0  0  0  0
 14 38  1  0  0  0  0
 15 17  1  0  0  0  0
 15 39  1  0  0  0  0
 15 40  1  0  0  0  0
 16 41  1  0  0  0  0
 16 42  1  0  0  0  0
 17 43  1  0  0  0  0
 17 44  1  0  0  0  0
 18 23  1  0  0  0  0
 18 45  1  0  0  0  0
 18 46  1  0  0  0  0
 19 47  1  0  0  0  0
 19 48  1  0  0  0  0
 19 49  1  0  0  0  0
 20 25  1  0  0  0  0
 20 26  1  0  0  0  0
 20 50  1  0  0  0  0
 21 24  1  0  0  0  0
 21 51  1  0  0  0  0
 21 52  1  0  0  0  0
 22 53  1  0  0  0  0
 22 54  1  0  0  0  0
 22 55  1  0  0  0  0
 23 24  1  0  0  0  0
 23 56  1  0  0  0  0
 23 57  1  0  0  0  0
 24 58  1  0  0  0  0
 25 27  1  0  0  0  0
 25 60  1  0  0  0  0
 25 61  1  0  0  0  0
 26 62  1  0  0  0  0
 26 63  1  0  0  0  0
 26 64  1  0  0  0  0
 27 28  1  0  0  0  0
 27 66  1  0  0  0  0
 27 67  1  0  0  0  0
M  END
> <PUBCHEM_COMPOUND_CID>
5283831

> <PUBCHEM_CONFORMER_RMSD>
0.8

> <PUBCHEM_CONFORMER_DIVERSEORDER>
5
8
7
3
4
2
6
1

> <PUBCHEM_MMFF94_PARTIAL_CHARGES>
11
1 -0.68
11 0.28
2 -0.68
24 0.28
27 0.06
28 0.66
3 -0.65
4 -0.57
59 0.4
65 0.4
68 0.5

> <PUBCHEM_EFFECTIVE_ROTOR_COUNT>
6.2

> <PUBCHEM_PHARMACOPHORE_FEATURES>
12
1 1 acceptor
1 1 donor
1 2 acceptor
1 2 donor
1 26 hydrophobe
1 3 acceptor
1 4 acceptor
3 3 4 28 anion
5 5 6 10 14 16 rings
6 5 6 7 8 11 12 rings
6 7 8 9 13 15 17 rings
6 9 13 18 21 23 24 rings

> <PUBCHEM_HEAVY_ATOM_COUNT>
28

> <PUBCHEM_ATOM_DEF_STEREO_COUNT>
10

> <PUBCHEM_ATOM_UDEF_STEREO_COUNT>
0

> <PUBCHEM_BOND_DEF_STEREO_COUNT>
0

> <PUBCHEM_BOND_UDEF_STEREO_COUNT>
0

> <PUBCHEM_ISOTOPIC_ATOM_COUNT>
0

> <PUBCHEM_COMPONENT_COUNT>
1

> <PUBCHEM_CACTVS_TAUTO_COUNT>
1

> <PUBCHEM_CONFORMER_ID>
00509FF700000005

> <PUBCHEM_MMFF94_ENERGY>
105.2683

> <PUBCHEM_FEATURE_SELFOVERLAP>
61.079

> <PUBCHEM_SHAPE_FINGERPRINT>
10 15 16128655237163221828
10319926 262 15410348766156120618
10498660 4 15647063684935275547
10670039 82 16443059508920276744
11578080 2 17459178741759620501
11796584 16 11167676386035013808
1200032 147 16082468133867444499
12035758 1 16487249967819768792
12236239 1 17458341927885881774
12403259 415 17489310836512511310
12422481 6 16773797055756053451
12596602 18 18341610429835051451
12633257 1 16630235927283502822
13140716 1 16342834561466599747
13224815 77 15194988480185992823
13583140 156 17895197735860444403
13690498 29 15431178854408516805
13782708 43 8862951554867704492
14211702 104 12103847882251628992
14251751 18 11024106547099917432
14251764 30 9943807772728027848
14347329 18 17385723650872432792
14931854 50 14707495858111225753
15081414 286 17489585701729518126
15183329 4 14779258701438645364
15475509 35 12247671648264499516
15575132 122 17603584102031530832
15788980 27 17894917368484051551
1601671 61 16732703865614891888
17349148 13 12823003274660047347
17780758 139 13830136091881565877
17913733 40 17775291586003535994
17980427 23 18131347483965683295
19958102 18 14924212834103793820
20567600 247 9439406813702527028
21033648 29 16701747149899483181
21267235 1 14346078564614416623
21637258 2 10087641477374310636
21756936 100 18187369775260983086
22122407 14 18335977567917173048
22182313 1 14563401439864288242
22393880 68 14924238113521194326
23379529 103 7275101771700842125
23559900 14 4678809576244231034
23569914 152 6335620586207387064
23569914 2 17757037485396911464
2838139 119 18260268504427012824
392239 28 16630522912576789920
4058900 60 17530954817713045998
5104073 3 16486424311838763392
633830 44 18260551155802652742

> <PUBCHEM_SHAPE_MULTIPOLES>
552.75
13.82
2.33
2.17
14.31
1.12
-0.44
10.95
2.86
0.06
0.88
-1.34
-0.14
-0.78

> <PUBCHEM_SHAPE_SELFOVERLAP>
1160.1

> <PUBCHEM_SHAPE_VOLUME>
309.7

> <PUBCHEM_COORDINATE_TYPE>
2
5
10

$$$$

