12448
  -OEChem-06261206573D

 42 44  0     0  0  0  0  0  0999 V2000
    2.6081    5.0177   -0.0013 N   0  0  0  0  0  0  0  0  0  0  0  0
   -5.8450   -0.2515   -0.0015 N   0  0  0  0  0  0  0  0  0  0  0  0
    2.6972   -4.5509   -0.0006 N   0  0  0  0  0  0  0  0  0  0  0  0
   -0.2020    0.1108    0.0013 C   0  0  0  0  0  0  0  0  0  0  0  0
    0.5080   -1.0296    0.0018 C   0  0  0  0  0  0  0  0  0  0  0  0
    0.5365    1.4010    0.0007 C   0  0  0  0  0  0  0  0  0  0  0  0
   -1.6855    0.0158    0.0003 C   0  0  0  0  0  0  0  0  0  0  0  0
    1.9609   -0.9874    0.0002 C   0  0  0  0  0  0  0  0  0  0  0  0
    2.7057   -2.1068   -0.0016 C   0  0  0  0  0  0  0  0  0  0  0  0
   -0.1703   -2.3115    0.0024 C   0  0  0  0  0  0  0  0  0  0  0  0
    0.8662    1.9793    1.2083 C   0  0  0  0  0  0  0  0  0  0  0  0
   -2.3488   -0.0277   -1.2079 C   0  0  0  0  0  0  0  0  0  0  0  0
    0.8678    1.9771   -1.2076 C   0  0  0  0  0  0  0  0  0  0  0  0
   -2.3501   -0.0259    1.2081 C   0  0  0  0  0  0  0  0  0  0  0  0
    2.0173   -3.4469   -0.0010 C   0  0  0  0  0  0  0  0  0  0  0  0
    0.5246   -3.4548    0.0008 C   0  0  0  0  0  0  0  0  0  0  0  0
    1.5593    3.1898    1.2077 C   0  0  0  0  0  0  0  0  0  0  0  0
   -3.7408   -0.1168   -1.2085 C   0  0  0  0  0  0  0  0  0  0  0  0
    1.5610    3.1876   -1.2082 C   0  0  0  0  0  0  0  0  0  0  0  0
   -3.7421   -0.1153    1.2074 C   0  0  0  0  0  0  0  0  0  0  0  0
    1.9067    3.7939   -0.0006 C   0  0  0  0  0  0  0  0  0  0  0  0
   -4.4375   -0.1606   -0.0008 C   0  0  0  0  0  0  0  0  0  0  0  0
    4.2029   -2.0875    0.0005 C   0  0  0  0  0  0  0  0  0  0  0  0
    2.4990   -0.0464    0.0015 H   0  0  0  0  0  0  0  0  0  0  0  0
   -1.2496   -2.4046    0.0041 H   0  0  0  0  0  0  0  0  0  0  0  0
    0.6012    1.5177    2.1554 H   0  0  0  0  0  0  0  0  0  0  0  0
   -1.8167    0.0055   -2.1545 H   0  0  0  0  0  0  0  0  0  0  0  0
    0.6041    1.5138   -2.1542 H   0  0  0  0  0  0  0  0  0  0  0  0
   -1.8190    0.0086    2.1551 H   0  0  0  0  0  0  0  0  0  0  0  0
    0.0191   -4.4143    0.0013 H   0  0  0  0  0  0  0  0  0  0  0  0
    1.8234    3.6522    2.1554 H   0  0  0  0  0  0  0  0  0  0  0  0
   -4.2713   -0.1518   -2.1567 H   0  0  0  0  0  0  0  0  0  0  0  0
    1.8262    3.6483   -2.1564 H   0  0  0  0  0  0  0  0  0  0  0  0
   -4.2734   -0.1490    2.1551 H   0  0  0  0  0  0  0  0  0  0  0  0
    4.5914   -2.5948    0.8896 H   0  0  0  0  0  0  0  0  0  0  0  0
    4.6008   -1.0672    0.0024 H   0  0  0  0  0  0  0  0  0  0  0  0
    4.5937   -2.5922   -0.8890 H   0  0  0  0  0  0  0  0  0  0  0  0
    2.8596    5.4564   -0.8770 H   0  0  0  0  0  0  0  0  0  0  0  0
    2.8584    5.4580    0.8740 H   0  0  0  0  0  0  0  0  0  0  0  0
   -6.3507   -0.2822    0.8738 H   0  0  0  0  0  0  0  0  0  0  0  0
   -6.3498   -0.2833   -0.8773 H   0  0  0  0  0  0  0  0  0  0  0  0
    2.0721   -5.3637    0.0005 H   0  0  0  0  0  0  0  0  0  0  0  0
  1 21  1  0  0  0  0
  1 38  1  0  0  0  0
  1 39  1  0  0  0  0
  2 22  1  0  0  0  0
  2 40  1  0  0  0  0
  2 41  1  0  0  0  0
  3 15  2  0  0  0  0
  3 42  1  0  0  0  0
  4  5  2  0  0  0  0
  4  6  1  0  0  0  0
  4  7  1  0  0  0  0
  5  8  1  0  0  0  0
  5 10  1  0  0  0  0
  6 11  2  0  0  0  0
  6 13  1  0  0  0  0
  7 12  2  0  0  0  0
  7 14  1  0  0  0  0
  8  9  2  0  0  0  0
  8 24  1  0  0  0  0
  9 15  1  0  0  0  0
  9 23  1  0  0  0  0
 10 16  2  0  0  0  0
 10 25  1  0  0  0  0
 11 17  1  0  0  0  0
 11 26  1  0  0  0  0
 12 18  1  0  0  0  0
 12 27  1  0  0  0  0
 13 19  2  0  0  0  0
 13 28  1  0  0  0  0
 14 20  2  0  0  0  0
 14 29  1  0  0  0  0
 15 16  1  0  0  0  0
 16 30  1  0  0  0  0
 17 21  2  0  0  0  0
 17 31  1  0  0  0  0
 18 22  2  0  0  0  0
 18 32  1  0  0  0  0
 19 21  1  0  0  0  0
 19 33  1  0  0  0  0
 20 22  1  0  0  0  0
 20 34  1  0  0  0  0
 23 35  1  0  0  0  0
 23 36  1  0  0  0  0
 23 37  1  0  0  0  0
M  END
> <PUBCHEM_COMPOUND_CID>
12448

> <PUBCHEM_CONFORMER_RMSD>
0.6

> <PUBCHEM_CONFORMER_DIVERSEORDER>
1

> <PUBCHEM_MMFF94_PARTIAL_CHARGES>
38
1 -0.9
10 -0.15
11 -0.15
12 -0.15
13 -0.15
14 -0.15
15 0.42
16 -0.14
17 -0.15
18 -0.15
19 -0.15
2 -0.9
20 -0.15
21 0.1
22 0.1
23 0.14
24 0.15
25 0.15
26 0.15
27 0.15
28 0.15
29 0.15
3 -0.85
30 0.15
31 0.15
32 0.15
33 0.15
34 0.15
38 0.4
39 0.4
4 -0.06
40 0.4
41 0.4
42 0.4
6 0.03
7 0.03
8 -0.15
9 -0.12

> <PUBCHEM_EFFECTIVE_ROTOR_COUNT>
2

> <PUBCHEM_PHARMACOPHORE_FEATURES>
9
1 1 cation
1 1 donor
1 2 cation
1 2 donor
1 3 acceptor
1 3 donor
6 5 8 9 10 15 16 rings
6 6 11 13 17 19 21 rings
6 7 12 14 18 20 22 rings

> <PUBCHEM_HEAVY_ATOM_COUNT>
23

> <PUBCHEM_ATOM_DEF_STEREO_COUNT>
0

> <PUBCHEM_ATOM_UDEF_STEREO_COUNT>
0

> <PUBCHEM_BOND_DEF_STEREO_COUNT>
0

> <PUBCHEM_BOND_UDEF_STEREO_COUNT>
0

> <PUBCHEM_ISOTOPIC_ATOM_COUNT>
0

> <PUBCHEM_COMPONENT_COUNT>
1

> <PUBCHEM_CACTVS_TAUTO_COUNT>
2

> <PUBCHEM_CONFORMER_ID>
000030A000000001

> <PUBCHEM_MMFF94_ENERGY>
104.6241

> <PUBCHEM_FEATURE_SELFOVERLAP>
45.669

> <PUBCHEM_SHAPE_FINGERPRINT>
10165383 225 17765678392533315045
10411042 1 18122343746529169155
1100329 8 18337668595346278822
11045515 52 18197218272292952695
11101153 10 18124864923404326246
11582403 64 16301504920011408944
121448 382 17612314048293665261
12553582 1 18263372558189491279
12643181 29 18049999997224395020
12730499 353 18195796389653302425
12788726 201 17188425296167844219
13004483 165 17833837444767057587
13134695 92 18339082708627363967
13140716 1 18194965145165600402
13149001 5 17976505400757656446
13590594 115 18050844722290216489
13681431 1 18341048622242833529
13690498 29 17467903508329269702
138480 1 18410855507393914050
13911987 19 18199443585476431822
13955234 65 18411693258583204451
14955137 171 18337096943241054794
15042514 8 16682876962135010178
15230672 131 17982164519236532564
15664445 248 18116415111365373990
15906896 17 8712713241843591005
15927050 60 18047748192181325270
16087824 20 17401766819046396701
16988056 13 18197799867021991509
17980427 23 17532937327878628121
17980427 26 18262806155287891653
1813 80 18115859874872600591
18785283 64 18342174410717747385
19591789 44 17979340972336530034
20739085 24 18117824728211572019
21049683 271 18272357685590805180
21120745 212 17832401465596141252
21641784 216 17981866843125476526
2255824 54 18335701620156605263
23559900 14 18412831300568405435
283562 15 17909545396077179922
3091708 16 9287495013878821746
3380486 145 17979339090993356809
350125 39 17979627949029157922
3729539 64 18125974167110893300
3886686 26 17614032619781676064
4409770 3 17259906750328890797
458136 41 18267012856995346657
469060 322 18193548098754071538
474 4 18263929847723695433
495365 180 18339646638218554313
532947 4 18409729526473666564
6442390 28 17762321536394212555
6443956 14 18337955717709280497
7164475 11 17834954553044968630
7364860 26 18410293588427965545
7471813 234 18113910398434634289
77188 2 18266458904460392237
81228 2 17549257485631375808
84936 182 18188769440552165921
9981440 41 17977953380167197545

> <PUBCHEM_SHAPE_MULTIPOLES>
458.39
6.98
5.97
1.13
9.78
2.86
0
-3
0
-9.69
0
0.5
0.65
0

> <PUBCHEM_SHAPE_SELFOVERLAP>
1008.28

> <PUBCHEM_SHAPE_VOLUME>
246.9

> <PUBCHEM_COORDINATE_TYPE>
2
5
10

$$$$

