5376058
  -OEChem-07051212462D

 23 25  0     0  0  0  0  0  0999 V2000
    6.4144   -1.8446    0.0000 O   0  0  0  0  0  0  0  0  0  0  0  0
    8.1962    1.2141    0.0000 O   0  0  0  0  0  0  0  0  0  0  0  0
    6.4260    1.2246    0.0000 N   0  0  0  0  0  0  0  0  0  0  0  0
    4.6660    1.1900    0.0000 N   0  0  0  0  0  0  0  0  0  0  0  0
    7.3321   -0.3308    0.0000 N   0  0  0  0  0  0  0  0  0  0  0  0
    5.5321   -0.3100    0.0000 C   0  0  0  0  0  0  0  0  0  0  0  0
    3.8000   -0.3100    0.0000 C   0  0  0  0  0  0  0  0  0  0  0  0
    5.5321    0.6900    0.0000 C   0  0  0  0  0  0  0  0  0  0  0  0
    3.8000    0.6900    0.0000 C   0  0  0  0  0  0  0  0  0  0  0  0
    4.6660   -0.8100    0.0000 C   0  0  0  0  0  0  0  0  0  0  0  0
    6.4260   -0.8447    0.0000 C   0  0  0  0  0  0  0  0  0  0  0  0
    2.9061   -0.8447    0.0000 C   0  0  0  0  0  0  0  0  0  0  0  0
    2.9061    1.2246    0.0000 C   0  0  0  0  0  0  0  0  0  0  0  0
    7.3321    0.7108    0.0000 C   0  0  0  0  0  0  0  0  0  0  0  0
    2.0000   -0.3308    0.0000 C   0  0  0  0  0  0  0  0  0  0  0  0
    2.0000    0.7108    0.0000 C   0  0  0  0  0  0  0  0  0  0  0  0
    4.6660   -1.4300    0.0000 H   0  0  0  0  0  0  0  0  0  0  0  0
    6.4188    1.8446    0.0000 H   0  0  0  0  0  0  0  0  0  0  0  0
    2.9132   -1.4646    0.0000 H   0  0  0  0  0  0  0  0  0  0  0  0
    2.9132    1.8446    0.0000 H   0  0  0  0  0  0  0  0  0  0  0  0
    7.8678   -0.6429    0.0000 H   0  0  0  0  0  0  0  0  0  0  0  0
    1.4643   -0.6429    0.0000 H   0  0  0  0  0  0  0  0  0  0  0  0
    1.4643    1.0229    0.0000 H   0  0  0  0  0  0  0  0  0  0  0  0
  1 11  2  0  0  0  0
  2 14  2  0  0  0  0
  3  8  1  0  0  0  0
  3 14  1  0  0  0  0
  3 18  1  0  0  0  0
  4  8  2  0  0  0  0
  4  9  1  0  0  0  0
  5 11  1  0  0  0  0
  5 14  1  0  0  0  0
  5 21  1  0  0  0  0
  6  8  1  0  0  0  0
  6 10  2  0  0  0  0
  6 11  1  0  0  0  0
  7  9  1  0  0  0  0
  7 10  1  0  0  0  0
  7 12  2  0  0  0  0
  9 13  2  0  0  0  0
 10 17  1  0  0  0  0
 12 15  1  0  0  0  0
 12 19  1  0  0  0  0
 13 16  1  0  0  0  0
 13 20  1  0  0  0  0
 15 16  2  0  0  0  0
 15 22  1  0  0  0  0
 16 23  1  0  0  0  0
M  END
> <PUBCHEM_COMPOUND_CID>
5376058

> <PUBCHEM_COMPOUND_CANONICALIZED>
1

> <PUBCHEM_CACTVS_COMPLEXITY>
331

> <PUBCHEM_CACTVS_HBOND_ACCEPTOR>
3

> <PUBCHEM_CACTVS_HBOND_DONOR>
2

> <PUBCHEM_CACTVS_ROTATABLE_BOND>
0

> <PUBCHEM_CACTVS_SUBSKEYS>
AAADcYBzMAAAAAAAAAAAAAAAAAAAAAAAAAA8WIAAAAAAAACx8AAAHgAQAAAADAiBngAx8PLIEACoAydydACCgCklAiAJmCEwZNiIIPrA1ZGEIYhohSLIyecYicCeAAAAAAACAAAAAAAAAAQAAAAAAAAAAA==

> <PUBCHEM_IUPAC_OPENEYE_NAME>
1H-pyrimido[4,5-b]quinoline-2,4-dione

> <PUBCHEM_IUPAC_CAS_NAME>
1H-pyrimido[4,5-b]quinoline-2,4-dione

> <PUBCHEM_IUPAC_NAME>
1H-pyrimido[4,5-b]quinoline-2,4-dione

> <PUBCHEM_IUPAC_SYSTEMATIC_NAME>
1H-pyrimido[4,5-b]quinoline-2,4-dione

> <PUBCHEM_IUPAC_TRADITIONAL_NAME>
1H-pyrimido[4,5-b]quinoline-2,4-quinone

> <PUBCHEM_IUPAC_INCHI>
InChI=1S/C11H7N3O2/c15-10-7-5-6-3-1-2-4-8(6)12-9(7)13-11(16)14-10/h1-5H,(H2,12,13,14,15,16)

> <PUBCHEM_IUPAC_INCHIKEY>
KWHWFTSHDPJOTG-UHFFFAOYSA-N

> <PUBCHEM_XLOGP3_AA>
1

> <PUBCHEM_EXACT_MASS>
213.053826

> <PUBCHEM_MOLECULAR_FORMULA>
C11H7N3O2

> <PUBCHEM_MOLECULAR_WEIGHT>
213.19218

> <PUBCHEM_OPENEYE_CAN_SMILES>
C1=CC=C2C(=C1)C=C3C(=N2)NC(=O)NC3=O

> <PUBCHEM_OPENEYE_ISO_SMILES>
C1=CC=C2C(=C1)C=C3C(=N2)NC(=O)NC3=O

> <PUBCHEM_CACTVS_TPSA>
71.1

> <PUBCHEM_MONOISOTOPIC_WEIGHT>
213.053826

> <PUBCHEM_TOTAL_CHARGE>
0

> <PUBCHEM_HEAVY_ATOM_COUNT>
16

> <PUBCHEM_ATOM_DEF_STEREO_COUNT>
0

> <PUBCHEM_ATOM_UDEF_STEREO_COUNT>
0

> <PUBCHEM_BOND_DEF_STEREO_COUNT>
0

> <PUBCHEM_BOND_UDEF_STEREO_COUNT>
0

> <PUBCHEM_ISOTOPIC_ATOM_COUNT>
0

> <PUBCHEM_COMPONENT_COUNT>
1

> <PUBCHEM_CACTVS_TAUTO_COUNT>
15

> <PUBCHEM_COORDINATE_TYPE>
1
5
255

> <PUBCHEM_BONDANNOTATIONS>
12  15  8
13  16  8
15  16  8
3  14  8
3  8  8
4  8  8
4  9  8
5  11  8
5  14  8
6  10  8
6  11  8
6  8  8
7  10  8
7  12  8
7  9  8
9  13  8

$$$$

