6437
  -OEChem-06261201193D

 62 66  0     1  0  0  0  0  0999 V2000
   -1.6490   -1.5469   -0.2946 O   0  0  0  0  0  0  0  0  0  0  0  0
    1.5639    3.0108    0.3581 O   0  0  0  0  0  0  0  0  0  0  0  0
    7.0514   -1.0258   -0.1194 O   0  0  0  0  0  0  0  0  0  0  0  0
   -6.0624    0.2341   -0.9175 O   0  0  0  0  0  0  0  0  0  0  0  0
   -6.3968   -2.0223   -0.6135 O   0  0  0  0  0  0  0  0  0  0  0  0
   -0.8982   -0.4891    0.3189 C   0  0  1  0  0  0  0  0  0  0  0  0
    0.5853   -0.6418   -0.1267 C   0  0  1  0  0  0  0  0  0  0  0  0
    1.4969    0.5688    0.2063 C   0  0  1  0  0  0  0  0  0  0  0  0
   -1.5367    0.8723   -0.0606 C   0  0  2  0  0  0  0  0  0  0  0  0
    2.9712    0.3980   -0.4058 C   0  0  2  0  0  0  0  0  0  0  0  0
    0.8156    1.9109   -0.1579 C   0  0  1  0  0  0  0  0  0  0  0  0
    3.3061   -1.1165   -0.6485 C   0  0  2  0  0  0  0  0  0  0  0  0
   -0.6067    2.0290    0.3837 C   0  0  0  0  0  0  0  0  0  0  0  0
   -2.8311    0.9236    0.8139 C   0  0  2  0  0  0  0  0  0  0  0  0
    1.1927   -1.9620    0.4133 C   0  0  0  0  0  0  0  0  0  0  0  0
   -1.1393   -0.5659    1.8387 C   0  0  0  0  0  0  0  0  0  0  0  0
    2.7174   -1.9821    0.4630 C   0  0  0  0  0  0  0  0  0  0  0  0
   -2.4620    0.1659    2.1026 C   0  0  0  0  0  0  0  0  0  0  0  0
    3.9860    1.0281    0.5988 C   0  0  0  0  0  0  0  0  0  0  0  0
   -1.8340    1.0081   -1.5670 C   0  0  0  0  0  0  0  0  0  0  0  0
    4.8044   -1.4063   -0.8441 C   0  0  0  0  0  0  0  0  0  0  0  0
    3.1153    1.1143   -1.7730 C   0  0  0  0  0  0  0  0  0  0  0  0
    5.4498    0.7191    0.3062 C   0  0  0  0  0  0  0  0  0  0  0  0
    5.6908   -0.7803    0.2222 C   0  0  2  0  0  0  0  0  0  0  0  0
   -4.0767    0.3355    0.2174 C   0  0  0  0  0  0  0  0  0  0  0  0
   -5.0451    1.1636   -0.5297 C   0  0  0  0  0  0  0  0  0  0  0  0
   -4.4691   -0.9346    0.2693 C   0  0  0  0  0  0  0  0  0  0  0  0
   -5.7393   -1.0084   -0.4541 C   0  0  0  0  0  0  0  0  0  0  0  0
    0.5716   -0.7373   -1.2227 H   0  0  0  0  0  0  0  0  0  0  0  0
    1.6123    0.5692    1.2999 H   0  0  0  0  0  0  0  0  0  0  0  0
    0.7766    2.0400   -1.2427 H   0  0  0  0  0  0  0  0  0  0  0  0
    2.8213   -1.4358   -1.5832 H   0  0  0  0  0  0  0  0  0  0  0  0
   -0.5591    2.1035    1.4783 H   0  0  0  0  0  0  0  0  0  0  0  0
   -1.0311    2.9923    0.0679 H   0  0  0  0  0  0  0  0  0  0  0  0
   -3.0693    1.9619    1.0826 H   0  0  0  0  0  0  0  0  0  0  0  0
    0.8507   -2.7847   -0.2283 H   0  0  0  0  0  0  0  0  0  0  0  0
    0.8311   -2.1970    1.4192 H   0  0  0  0  0  0  0  0  0  0  0  0
   -0.3380   -0.0791    2.4050 H   0  0  0  0  0  0  0  0  0  0  0  0
   -1.2198   -1.5977    2.1979 H   0  0  0  0  0  0  0  0  0  0  0  0
    3.0562   -1.6296    1.4446 H   0  0  0  0  0  0  0  0  0  0  0  0
    3.0576   -3.0210    0.3760 H   0  0  0  0  0  0  0  0  0  0  0  0
   -3.2272   -0.5165    2.4857 H   0  0  0  0  0  0  0  0  0  0  0  0
   -2.2985    0.8900    2.9120 H   0  0  0  0  0  0  0  0  0  0  0  0
    3.7698    0.6711    1.6141 H   0  0  0  0  0  0  0  0  0  0  0  0
    3.8691    2.1167    0.6291 H   0  0  0  0  0  0  0  0  0  0  0  0
   -2.2886    1.9796   -1.7894 H   0  0  0  0  0  0  0  0  0  0  0  0
   -0.9220    0.9313   -2.1672 H   0  0  0  0  0  0  0  0  0  0  0  0
   -2.5063    0.2279   -1.9372 H   0  0  0  0  0  0  0  0  0  0  0  0
    4.9802   -2.4894   -0.8799 H   0  0  0  0  0  0  0  0  0  0  0  0
    5.1229   -1.0471   -1.8316 H   0  0  0  0  0  0  0  0  0  0  0  0
    3.0415    2.2020   -1.6769 H   0  0  0  0  0  0  0  0  0  0  0  0
    4.0825    0.9156   -2.2445 H   0  0  0  0  0  0  0  0  0  0  0  0
    2.3427    0.7787   -2.4738 H   0  0  0  0  0  0  0  0  0  0  0  0
    5.7719    1.2084   -0.6212 H   0  0  0  0  0  0  0  0  0  0  0  0
    6.0836    1.1472    1.0927 H   0  0  0  0  0  0  0  0  0  0  0  0
    5.5055   -1.2430    1.1982 H   0  0  0  0  0  0  0  0  0  0  0  0
   -1.3719   -2.3901    0.1007 H   0  0  0  0  0  0  0  0  0  0  0  0
    1.6122    2.9124    1.3244 H   0  0  0  0  0  0  0  0  0  0  0  0
   -5.4956    1.9387    0.0973 H   0  0  0  0  0  0  0  0  0  0  0  0
   -4.6233    1.6166   -1.4296 H   0  0  0  0  0  0  0  0  0  0  0  0
   -4.0011   -1.7837    0.7356 H   0  0  0  0  0  0  0  0  0  0  0  0
    7.1774   -1.9895   -0.1498 H   0  0  0  0  0  0  0  0  0  0  0  0
  1  6  1  0  0  0  0
  1 57  1  0  0  0  0
  2 11  1  0  0  0  0
  2 58  1  0  0  0  0
  3 24  1  0  0  0  0
  3 62  1  0  0  0  0
  4 26  1  0  0  0  0
  4 28  1  0  0  0  0
  5 28  2  0  0  0  0
  6  7  1  0  0  0  0
  6  9  1  0  0  0  0
  6 16  1  0  0  0  0
  7  8  1  0  0  0  0
  7 15  1  0  0  0  0
  7 29  1  0  0  0  0
  8 10  1  0  0  0  0
  8 11  1  0  0  0  0
  8 30  1  0  0  0  0
  9 13  1  0  0  0  0
  9 14  1  0  0  0  0
  9 20  1  0  0  0  0
 10 12  1  0  0  0  0
 10 19  1  0  0  0  0
 10 22  1  0  0  0  0
 11 13  1  0  0  0  0
 11 31  1  0  0  0  0
 12 17  1  0  0  0  0
 12 21  1  0  0  0  0
 12 32  1  0  0  0  0
 13 33  1  0  0  0  0
 13 34  1  0  0  0  0
 14 18  1  0  0  0  0
 14 25  1  0  0  0  0
 14 35  1  0  0  0  0
 15 17  1  0  0  0  0
 15 36  1  0  0  0  0
 15 37  1  0  0  0  0
 16 18  1  0  0  0  0
 16 38  1  0  0  0  0
 16 39  1  0  0  0  0
 17 40  1  0  0  0  0
 17 41  1  0  0  0  0
 18 42  1  0  0  0  0
 18 43  1  0  0  0  0
 19 23  1  0  0  0  0
 19 44  1  0  0  0  0
 19 45  1  0  0  0  0
 20 46  1  0  0  0  0
 20 47  1  0  0  0  0
 20 48  1  0  0  0  0
 21 24  1  0  0  0  0
 21 49  1  0  0  0  0
 21 50  1  0  0  0  0
 22 51  1  0  0  0  0
 22 52  1  0  0  0  0
 22 53  1  0  0  0  0
 23 24  1  0  0  0  0
 23 54  1  0  0  0  0
 23 55  1  0  0  0  0
 24 56  1  0  0  0  0
 25 26  1  0  0  0  0
 25 27  2  0  0  0  0
 26 59  1  0  0  0  0
 26 60  1  0  0  0  0
 27 28  1  0  0  0  0
 27 61  1  0  0  0  0
M  END
> <PUBCHEM_COMPOUND_CID>
6437

> <PUBCHEM_CONFORMER_RMSD>
0.8

> <PUBCHEM_CONFORMER_DIVERSEORDER>
1
4
3
2

> <PUBCHEM_MMFF94_PARTIAL_CHARGES>
17
1 -0.68
11 0.28
14 0.14
2 -0.68
24 0.28
25 -0.28
26 0.42
27 -0.14
28 0.71
3 -0.68
4 -0.43
5 -0.57
57 0.4
58 0.4
6 0.28
61 0.15
62 0.4

> <PUBCHEM_EFFECTIVE_ROTOR_COUNT>
3.6

> <PUBCHEM_PHARMACOPHORE_FEATURES>
12
1 1 acceptor
1 1 donor
1 2 acceptor
1 2 donor
1 3 acceptor
1 3 donor
1 5 acceptor
5 4 25 26 27 28 rings
5 6 9 14 16 18 rings
6 10 12 19 21 23 24 rings
6 6 7 8 9 11 13 rings
6 7 8 10 12 15 17 rings

> <PUBCHEM_HEAVY_ATOM_COUNT>
28

> <PUBCHEM_ATOM_DEF_STEREO_COUNT>
9

> <PUBCHEM_ATOM_UDEF_STEREO_COUNT>
0

> <PUBCHEM_BOND_DEF_STEREO_COUNT>
0

> <PUBCHEM_BOND_UDEF_STEREO_COUNT>
0

> <PUBCHEM_ISOTOPIC_ATOM_COUNT>
0

> <PUBCHEM_COMPONENT_COUNT>
1

> <PUBCHEM_CACTVS_TAUTO_COUNT>
1

> <PUBCHEM_CONFORMER_ID>
0000192500000001

> <PUBCHEM_MMFF94_ENERGY>
103.6559

> <PUBCHEM_FEATURE_SELFOVERLAP>
61.096

> <PUBCHEM_SHAPE_FINGERPRINT>
10 15 18341902866813565224
10366900 7 17847056696678470960
10930396 42 18057349240117711520
11089746 13 16630809889343101943
11578080 2 16518515538353738739
11796584 16 15841543077316695762
11963148 33 18410301310859474078
12011746 2 18202001040351805328
12166972 35 18272088297132515836
12236239 1 17748825232620491161
12467345 10 18187368692728927031
12516196 113 18334859424351501160
12596602 18 17530963596456939098
13140716 1 18266447707702548864
13224815 77 18412259567121845216
13402501 40 18343302569877672848
13533116 47 17895195446289389528
13862211 1 18410855473398296074
13944108 23 16113488904868310693
15082195 135 17557416583828113349
15183329 4 16415482657504191717
15196674 1 18409447011513502961
17349148 13 18131349734713304992
17980427 23 17240470425734421841
18681886 176 18261399926954747586
19377110 9 15213013864709997954
19489759 90 17489587883208881333
200 152 18333732429343815241
20028762 73 18259703402362881542
21267235 1 18408035217145622790
22393880 68 18272381862805635271
23402539 116 18335703874766457421
23559900 14 17346593045784093416
23569917 315 18261104184635705006
249057 3 18409451401993459613
3004659 81 18131070433264365620
3009799 131 18342178890437429641
335352 9 18411699885063581900
34797466 226 15791726361652045024
4015057 19 18130780114902903129
439807 62 18266741286841851703
474113 269 17630909268458931466
484989 97 18058156237953836963
5283173 99 17988086711357377909
6004065 56 18263369096524777216
6138700 20 18342739649793934850
6669772 16 17026018224208798304
6913067 236 17918281947481771726
7226269 152 12967129423925219655

> <PUBCHEM_SHAPE_MULTIPOLES>
546.88
13.94
2.16
1.28
1.39
0.35
-0.18
-4.75
2.87
-0.41
0.04
0.5
0.12
-0.06

> <PUBCHEM_SHAPE_SELFOVERLAP>
1184.2

> <PUBCHEM_SHAPE_VOLUME>
298.4

> <PUBCHEM_COORDINATE_TYPE>
2
5
10

$$$$

