337601
  -OEChem-07051212573D

 26 29  0     0  0  0  0  0  0999 V2000
   -1.1683    3.2610    0.0021 O   0  0  0  0  0  0  0  0  0  0  0  0
    3.0940   -1.9607    0.0006 O   0  0  0  0  0  0  0  0  0  0  0  0
   -0.5494    1.0108   -0.0009 N   0  0  0  0  0  0  0  0  0  0  0  0
   -2.4705   -2.0749    0.0006 N   0  0  0  0  0  0  0  0  0  0  0  0
   -0.9565   -0.2920   -0.0010 C   0  0  0  0  0  0  0  0  0  0  0  0
    0.1517   -1.2206   -0.0007 C   0  0  0  0  0  0  0  0  0  0  0  0
    0.8297    0.9527   -0.0007 C   0  0  0  0  0  0  0  0  0  0  0  0
    1.2482   -0.4536   -0.0007 C   0  0  0  0  0  0  0  0  0  0  0  0
   -2.2276   -0.7085   -0.0003 C   0  0  0  0  0  0  0  0  0  0  0  0
   -1.4458    2.0655    0.0000 C   0  0  0  0  0  0  0  0  0  0  0  0
   -0.1173   -2.6448    0.0002 C   0  0  0  0  0  0  0  0  0  0  0  0
    1.7305    1.9407   -0.0002 C   0  0  0  0  0  0  0  0  0  0  0  0
    2.6833   -0.8084    0.0001 C   0  0  0  0  0  0  0  0  0  0  0  0
   -3.2399    0.3240   -0.0002 C   0  0  0  0  0  0  0  0  0  0  0  0
   -2.8966    1.6278   -0.0004 C   0  0  0  0  0  0  0  0  0  0  0  0
   -1.4250   -2.9970    0.0010 C   0  0  0  0  0  0  0  0  0  0  0  0
    3.1449    1.6185    0.0001 C   0  0  0  0  0  0  0  0  0  0  0  0
    3.6147    0.3595    0.0002 C   0  0  0  0  0  0  0  0  0  0  0  0
    0.6831   -3.3718    0.0005 H   0  0  0  0  0  0  0  0  0  0  0  0
    1.4518    2.9876   -0.0001 H   0  0  0  0  0  0  0  0  0  0  0  0
   -4.2835    0.0290   -0.0002 H   0  0  0  0  0  0  0  0  0  0  0  0
   -3.4243   -2.4131    0.0016 H   0  0  0  0  0  0  0  0  0  0  0  0
   -3.6493    2.4083   -0.0004 H   0  0  0  0  0  0  0  0  0  0  0  0
   -1.7565   -4.0277    0.0019 H   0  0  0  0  0  0  0  0  0  0  0  0
    3.8377    2.4542    0.0003 H   0  0  0  0  0  0  0  0  0  0  0  0
    4.6792    0.1546    0.0006 H   0  0  0  0  0  0  0  0  0  0  0  0
  1 10  2  0  0  0  0
  2 13  2  0  0  0  0
  3  5  1  0  0  0  0
  3  7  1  0  0  0  0
  3 10  1  0  0  0  0
  4  9  1  0  0  0  0
  4 16  1  0  0  0  0
  4 22  1  0  0  0  0
  5  6  1  0  0  0  0
  5  9  2  0  0  0  0
  6  8  2  0  0  0  0
  6 11  1  0  0  0  0
  7  8  1  0  0  0  0
  7 12  2  0  0  0  0
  8 13  1  0  0  0  0
  9 14  1  0  0  0  0
 10 15  1  0  0  0  0
 11 16  2  0  0  0  0
 11 19  1  0  0  0  0
 12 17  1  0  0  0  0
 12 20  1  0  0  0  0
 13 18  1  0  0  0  0
 14 15  2  0  0  0  0
 14 21  1  0  0  0  0
 15 23  1  0  0  0  0
 16 24  1  0  0  0  0
 17 18  2  0  0  0  0
 17 25  1  0  0  0  0
 18 26  1  0  0  0  0
M  END
> <PUBCHEM_COMPOUND_CID>
337601

> <PUBCHEM_CONFORMER_RMSD>
0.4

> <PUBCHEM_CONFORMER_DIVERSEORDER>
1

> <PUBCHEM_MMFF94_PARTIAL_CHARGES>
25
1 -0.57
10 0.62
11 -0.15
12 -0.15
13 0.54
14 -0.15
15 -0.14
16 -0.05
17 -0.15
18 -0.14
19 0.15
2 -0.57
20 0.15
21 0.15
22 0.4
23 0.15
24 0.15
25 0.15
26 0.15
3 -0.28
4 -0.6
5 0.11
7 0.11
8 0.01
9 0.1

> <PUBCHEM_EFFECTIVE_ROTOR_COUNT>
0

> <PUBCHEM_PHARMACOPHORE_FEATURES>
8
1 1 acceptor
1 2 acceptor
1 4 cation
1 4 donor
5 3 5 6 7 8 rings
6 3 5 9 10 14 15 rings
6 4 5 6 9 11 16 rings
6 7 8 12 13 17 18 rings

> <PUBCHEM_HEAVY_ATOM_COUNT>
18

> <PUBCHEM_ATOM_DEF_STEREO_COUNT>
0

> <PUBCHEM_ATOM_UDEF_STEREO_COUNT>
0

> <PUBCHEM_BOND_DEF_STEREO_COUNT>
0

> <PUBCHEM_BOND_UDEF_STEREO_COUNT>
0

> <PUBCHEM_ISOTOPIC_ATOM_COUNT>
0

> <PUBCHEM_COMPONENT_COUNT>
1

> <PUBCHEM_CACTVS_TAUTO_COUNT>
3

> <PUBCHEM_CONFORMER_ID>
000526C100000001

> <PUBCHEM_MMFF94_ENERGY>
72.5207

> <PUBCHEM_FEATURE_SELFOVERLAP>
40.94

> <PUBCHEM_SHAPE_FINGERPRINT>
10319926 262 18190767271113832016
10411042 1 17546164100441956290
10608611 8 18336548205508060600
10616163 171 18266455417416595718
10693767 8 17251200778790137119
10967382 1 18410573976587922789
11578080 2 16879927226928425795
12382932 28 18265333910970932304
12553582 1 17906731397464859907
12730499 353 17984714569862744509
13027679 85 18121780521966158293
13140716 1 18411134736340268563
138480 1 16897364815714497319
14178342 30 18267882609405723712
14790565 3 18193538176679088344
15042514 8 18412543176128135538
15196674 1 18410575110464550693
15309172 13 18337944709766168873
15442244 35 18339645641596270058
16945 1 18338517550765288103
193761 8 18410573955308388550
19591789 44 18122338253202193879
19868273 325 18123754153606119397
20510252 161 18334011709339316169
20739085 24 18125410203334673601
21267235 1 18267576914802858594
21501502 16 18410857620808045486
2334 1 18338516309714970351
23402539 116 18261683558405811615
23463225 33 18340769350858665136
23559900 14 18334013913543391670
238 59 16835198342191189733
2748010 2 18338233765317783327
335352 9 18194402418529275774
34934 24 18266186028013495826
350125 39 18267296723731238641
352729 6 18410292557598904199
54173680 148 18339360738829475274
7364860 26 17688873463668364839
81228 2 18268711602006619137
8809292 202 18411978040289236658
9709674 26 18335136467064523750

> <PUBCHEM_SHAPE_MULTIPOLES>
348.73
5.15
3.41
0.6
2.2
0.28
0
-0.49
0
-1.28
0
0
0
0

> <PUBCHEM_SHAPE_SELFOVERLAP>
806.534

> <PUBCHEM_SHAPE_VOLUME>
177.9

> <PUBCHEM_COORDINATE_TYPE>
2
5
10

$$$$

