439615
  -OEChem-07051212462D

 31 32  0     0  0  0  0  0  0999 V2000
    2.1340   -4.2500    0.0000 Cl  0  0  0  0  0  0  0  0  0  0  0  0
    3.0000    0.2500    0.0000 S   0  0  0  0  0  0  0  0  0  0  0  0
    4.0000    0.2500    0.0000 O   0  0  0  0  0  0  0  0  0  0  0  0
    2.0000    0.2500    0.0000 O   0  0  0  0  0  0  0  0  0  0  0  0
    3.0000   -0.7500    0.0000 C   0  0  0  0  0  0  0  0  0  0  0  0
    3.0000    1.2500    0.0000 C   0  0  0  0  0  0  0  0  0  0  0  0
    2.1340   -1.2500    0.0000 C   0  0  0  0  0  0  0  0  0  0  0  0
    3.8660   -1.2500    0.0000 C   0  0  0  0  0  0  0  0  0  0  0  0
    3.8660    1.7500    0.0000 C   0  0  0  0  0  0  0  0  0  0  0  0
    2.1340    1.7500    0.0000 C   0  0  0  0  0  0  0  0  0  0  0  0
    3.0000   -2.7500    0.0000 C   0  0  0  0  0  0  0  0  0  0  0  0
    3.0000    3.2500    0.0000 C   0  0  0  0  0  0  0  0  0  0  0  0
    2.1340   -2.2500    0.0000 C   0  0  0  0  0  0  0  0  0  0  0  0
    3.8660   -2.2500    0.0000 C   0  0  0  0  0  0  0  0  0  0  0  0
    3.8660    2.7500    0.0000 C   0  0  0  0  0  0  0  0  0  0  0  0
    2.1340    2.7500    0.0000 C   0  0  0  0  0  0  0  0  0  0  0  0
    3.0000   -3.7500    0.0000 C   0  0  0  0  0  0  0  0  0  0  0  0
    3.0000    4.2500    0.0000 C   0  0  0  0  0  0  0  0  0  0  0  0
    1.5970   -0.9400    0.0000 H   0  0  0  0  0  0  0  0  0  0  0  0
    4.4030   -0.9400    0.0000 H   0  0  0  0  0  0  0  0  0  0  0  0
    4.4030    1.4400    0.0000 H   0  0  0  0  0  0  0  0  0  0  0  0
    1.5970    1.4400    0.0000 H   0  0  0  0  0  0  0  0  0  0  0  0
    1.5970   -2.5600    0.0000 H   0  0  0  0  0  0  0  0  0  0  0  0
    4.4030   -2.5600    0.0000 H   0  0  0  0  0  0  0  0  0  0  0  0
    4.4030    3.0600    0.0000 H   0  0  0  0  0  0  0  0  0  0  0  0
    1.5970    3.0600    0.0000 H   0  0  0  0  0  0  0  0  0  0  0  0
    3.2120   -4.3326    0.0000 H   0  0  0  0  0  0  0  0  0  0  0  0
    3.6106   -3.6423    0.0000 H   0  0  0  0  0  0  0  0  0  0  0  0
    3.6200    4.2500    0.0000 H   0  0  0  0  0  0  0  0  0  0  0  0
    3.0000    4.8700    0.0000 H   0  0  0  0  0  0  0  0  0  0  0  0
    2.3800    4.2500    0.0000 H   0  0  0  0  0  0  0  0  0  0  0  0
  1 17  1  0  0  0  0
  2  3  2  0  0  0  0
  2  4  2  0  0  0  0
  2  5  1  0  0  0  0
  2  6  1  0  0  0  0
  5  7  2  0  0  0  0
  5  8  1  0  0  0  0
  6  9  2  0  0  0  0
  6 10  1  0  0  0  0
  7 13  1  0  0  0  0
  7 19  1  0  0  0  0
  8 14  2  0  0  0  0
  8 20  1  0  0  0  0
  9 15  1  0  0  0  0
  9 21  1  0  0  0  0
 10 16  2  0  0  0  0
 10 22  1  0  0  0  0
 11 13  2  0  0  0  0
 11 14  1  0  0  0  0
 11 17  1  0  0  0  0
 12 15  2  0  0  0  0
 12 16  1  0  0  0  0
 12 18  1  0  0  0  0
 13 23  1  0  0  0  0
 14 24  1  0  0  0  0
 15 25  1  0  0  0  0
 16 26  1  0  0  0  0
 17 27  1  0  0  0  0
 17 28  1  0  0  0  0
 18 29  1  0  0  0  0
 18 30  1  0  0  0  0
 18 31  1  0  0  0  0
M  END
> <PUBCHEM_COMPOUND_CID>
439615

> <PUBCHEM_COMPOUND_CANONICALIZED>
1

> <PUBCHEM_CACTVS_COMPLEXITY>
345

> <PUBCHEM_CACTVS_HBOND_ACCEPTOR>
2

> <PUBCHEM_CACTVS_HBOND_DONOR>
0

> <PUBCHEM_CACTVS_ROTATABLE_BOND>
3

> <PUBCHEM_CACTVS_SUBSKEYS>
AAADccBwMABEAAAAAAAAAAAAAAAAAAAAAAAwYAAAAAAAAAABQAAAGAYAAAAADAOAWEAyAYAAAAqAAiBCAHBCAAAgCBAIiBgAAogIICKhERCAIAAggAAoiAcAgAAOEAAAAAAAAAAgAAAAAAAAAAAAAAAAAA==

> <PUBCHEM_IUPAC_OPENEYE_NAME>
1-[4-(chloromethyl)phenyl]sulfonyl-4-methyl-benzene

> <PUBCHEM_IUPAC_CAS_NAME>
1-[4-(chloromethyl)phenyl]sulfonyl-4-methylbenzene

> <PUBCHEM_IUPAC_NAME>
1-[4-(chloromethyl)phenyl]sulfonyl-4-methylbenzene

> <PUBCHEM_IUPAC_SYSTEMATIC_NAME>
1-[4-(chloromethyl)phenyl]sulfonyl-4-methyl-benzene

> <PUBCHEM_IUPAC_TRADITIONAL_NAME>
1-[4-(chloromethyl)phenyl]sulfonyl-4-methyl-benzene

> <PUBCHEM_IUPAC_INCHI>
InChI=1S/C14H13ClO2S/c1-11-2-6-13(7-3-11)18(16,17)14-8-4-12(10-15)5-9-14/h2-9H,10H2,1H3

> <PUBCHEM_IUPAC_INCHIKEY>
SAIWYZORPMYQMI-UHFFFAOYSA-N

> <PUBCHEM_XLOGP3>
3.5

> <PUBCHEM_EXACT_MASS>
280.032478

> <PUBCHEM_MOLECULAR_FORMULA>
C14H13ClO2S

> <PUBCHEM_MOLECULAR_WEIGHT>
280.76982

> <PUBCHEM_OPENEYE_CAN_SMILES>
CC1=CC=C(C=C1)S(=O)(=O)C2=CC=C(C=C2)CCl

> <PUBCHEM_OPENEYE_ISO_SMILES>
CC1=CC=C(C=C1)S(=O)(=O)C2=CC=C(C=C2)CCl

> <PUBCHEM_CACTVS_TPSA>
42.5

> <PUBCHEM_MONOISOTOPIC_WEIGHT>
280.032478

> <PUBCHEM_TOTAL_CHARGE>
0

> <PUBCHEM_HEAVY_ATOM_COUNT>
18

> <PUBCHEM_ATOM_DEF_STEREO_COUNT>
0

> <PUBCHEM_ATOM_UDEF_STEREO_COUNT>
0

> <PUBCHEM_BOND_DEF_STEREO_COUNT>
0

> <PUBCHEM_BOND_UDEF_STEREO_COUNT>
0

> <PUBCHEM_ISOTOPIC_ATOM_COUNT>
0

> <PUBCHEM_COMPONENT_COUNT>
1

> <PUBCHEM_CACTVS_TAUTO_COUNT>
1

> <PUBCHEM_COORDINATE_TYPE>
1
5
255

> <PUBCHEM_BONDANNOTATIONS>
10  16  8
11  13  8
11  14  8
12  15  8
12  16  8
5  7  8
5  8  8
6  10  8
6  9  8
7  13  8
8  14  8
9  15  8

$$$$

