22824517
  -OEChem-07051213103D

 37 38  0     1  0  0  0  0  0999 V2000
    1.4125    0.1057   -1.5858 S   0  0  0  0  0  0  0  0  0  0  0  0
   -5.7692   -0.6487    0.3279 O   0  0  0  0  0  0  0  0  0  0  0  0
   -3.7201    1.7303   -0.0711 O   0  0  0  0  0  0  0  0  0  0  0  0
   -0.8365    2.6771    1.3413 O   0  0  0  0  0  0  0  0  0  0  0  0
    0.2306    2.9220   -0.6665 O   0  0  0  0  0  0  0  0  0  0  0  0
    6.6920   -0.3460   -0.6859 O   0  0  0  0  0  0  0  0  0  0  0  0
   -1.8916    0.3452    0.4844 N   0  0  0  0  0  0  0  0  0  0  0  0
    4.7017   -0.6199    0.4994 N   0  0  0  0  0  0  0  0  0  0  0  0
   -1.9997   -1.1014    0.1938 C   0  0  1  0  0  0  0  0  0  0  0  0
   -3.4517   -0.8041   -0.2693 C   0  0  2  0  0  0  0  0  0  0  0  0
   -0.8342   -1.3852   -0.7603 C   0  0  0  0  0  0  0  0  0  0  0  0
   -3.1488    0.6724    0.0696 C   0  0  0  0  0  0  0  0  0  0  0  0
   -4.5802   -1.4136    0.5273 C   0  0  2  0  0  0  0  0  0  0  0  0
   -0.7317    0.8407   -0.0404 C   0  0  0  0  0  0  0  0  0  0  0  0
   -0.0665   -0.0876   -0.7391 C   0  0  0  0  0  0  0  0  0  0  0  0
   -4.8380   -2.8555    0.1049 C   0  0  0  0  0  0  0  0  0  0  0  0
   -0.3819    2.2451    0.1443 C   0  0  0  0  0  0  0  0  0  0  0  0
    2.5041   -0.3025   -0.3177 C   0  0  0  0  0  0  0  0  0  0  0  0
    3.8291   -0.2985   -0.4953 C   0  0  0  0  0  0  0  0  0  0  0  0
    6.0803   -0.6239    0.3431 C   0  0  0  0  0  0  0  0  0  0  0  0
    6.7998   -1.0517    1.5954 C   0  0  0  0  0  0  0  0  0  0  0  0
   -1.9310   -1.6886    1.1194 H   0  0  0  0  0  0  0  0  0  0  0  0
   -3.5961   -0.9308   -1.3516 H   0  0  0  0  0  0  0  0  0  0  0  0
   -0.2232   -2.2140   -0.3869 H   0  0  0  0  0  0  0  0  0  0  0  0
   -1.1885   -1.6238   -1.7686 H   0  0  0  0  0  0  0  0  0  0  0  0
   -4.3567   -1.3826    1.6001 H   0  0  0  0  0  0  0  0  0  0  0  0
   -5.1328   -2.9068   -0.9492 H   0  0  0  0  0  0  0  0  0  0  0  0
   -3.9469   -3.4756    0.2431 H   0  0  0  0  0  0  0  0  0  0  0  0
   -5.6603   -3.2863    0.6857 H   0  0  0  0  0  0  0  0  0  0  0  0
   -6.4740   -1.0594    0.8571 H   0  0  0  0  0  0  0  0  0  0  0  0
    2.0991   -0.5726    0.6541 H   0  0  0  0  0  0  0  0  0  0  0  0
   -0.6185    3.6205    1.4993 H   0  0  0  0  0  0  0  0  0  0  0  0
    4.2725   -0.0347   -1.4504 H   0  0  0  0  0  0  0  0  0  0  0  0
    4.3105   -0.8747    1.4030 H   0  0  0  0  0  0  0  0  0  0  0  0
    6.7022   -2.1336    1.7186 H   0  0  0  0  0  0  0  0  0  0  0  0
    6.3793   -0.5460    2.4693 H   0  0  0  0  0  0  0  0  0  0  0  0
    7.8589   -0.7907    1.5184 H   0  0  0  0  0  0  0  0  0  0  0  0
  1 15  1  0  0  0  0
  1 18  1  0  0  0  0
  2 13  1  0  0  0  0
  2 30  1  0  0  0  0
  3 12  2  0  0  0  0
  4 17  1  0  0  0  0
  4 32  1  0  0  0  0
  5 17  2  0  0  0  0
  6 20  2  0  0  0  0
  7  9  1  0  0  0  0
  7 12  1  0  0  0  0
  7 14  1  0  0  0  0
  8 19  1  0  0  0  0
  8 20  1  0  0  0  0
  8 34  1  0  0  0  0
  9 10  1  0  0  0  0
  9 11  1  0  0  0  0
  9 22  1  0  0  0  0
 10 12  1  0  0  0  0
 10 13  1  0  0  0  0
 10 23  1  0  0  0  0
 11 15  1  0  0  0  0
 11 24  1  0  0  0  0
 11 25  1  0  0  0  0
 13 16  1  0  0  0  0
 13 26  1  0  0  0  0
 14 15  2  0  0  0  0
 14 17  1  0  0  0  0
 16 27  1  0  0  0  0
 16 28  1  0  0  0  0
 16 29  1  0  0  0  0
 18 19  2  0  0  0  0
 18 31  1  0  0  0  0
 19 33  1  0  0  0  0
 20 21  1  0  0  0  0
 21 35  1  0  0  0  0
 21 36  1  0  0  0  0
 21 37  1  0  0  0  0
M  END
> <PUBCHEM_COMPOUND_CID>
22824517

> <PUBCHEM_CONFORMER_RMSD>
0.8

> <PUBCHEM_CONFORMER_DIVERSEORDER>
1
11
17
21
55
51
13
46
19
49
29
3
66
31
63
56
32
5
24
28
18
58
39
34
15
10
12
65
25
43
60
6
7
50
61
52
36
30
67
57
53
9
22
4
64
20
14
27
68
26
37
54
38
62
2
16
44
47
40
59
8
41
35
33
45
48
42
23

> <PUBCHEM_MMFF94_PARTIAL_CHARGES>
25
1 -0.2
10 0.05
11 0.14
12 0.58
13 0.28
14 0.12
15 -0.04
17 0.71
18 -0.05
19 -0.04
2 -0.68
20 0.57
21 0.06
3 -0.57
30 0.4
31 0.15
32 0.5
33 0.15
34 0.37
4 -0.65
5 -0.57
6 -0.57
7 -0.39
8 -0.54
9 0.22

> <PUBCHEM_EFFECTIVE_ROTOR_COUNT>
6.4

> <PUBCHEM_PHARMACOPHORE_FEATURES>
9
1 2 acceptor
1 2 donor
1 3 acceptor
1 4 acceptor
1 5 acceptor
1 6 acceptor
1 8 donor
3 4 5 17 anion
7 7 9 10 11 12 14 15 rings

> <PUBCHEM_HEAVY_ATOM_COUNT>
21

> <PUBCHEM_ATOM_DEF_STEREO_COUNT>
3

> <PUBCHEM_ATOM_UDEF_STEREO_COUNT>
0

> <PUBCHEM_BOND_DEF_STEREO_COUNT>
1

> <PUBCHEM_BOND_UDEF_STEREO_COUNT>
0

> <PUBCHEM_ISOTOPIC_ATOM_COUNT>
0

> <PUBCHEM_COMPONENT_COUNT>
1

> <PUBCHEM_CACTVS_TAUTO_COUNT>
2

> <PUBCHEM_CONFORMER_ID>
015C464500000001

> <PUBCHEM_MMFF94_ENERGY>
64.3236

> <PUBCHEM_FEATURE_SELFOVERLAP>
45.724

> <PUBCHEM_SHAPE_FINGERPRINT>
10 15 18040726849103532834
11315181 36 18201718449121434606
11578080 2 5327365207227996777
12166972 35 17846495898925677828
12236239 1 17917711314348893862
12596602 18 18343588452065829594
12895836 83 8862938373233245494
13257819 101 5472595317084324251
13288520 33 18342174462326108607
13533116 47 17989204816409897676
13862211 1 18337390444411011631
14341114 176 18333170570913454288
15183329 4 9943536236822429466
18006028 8 18408324371639734455
1813 80 17489297634099626782
19784866 240 17275100635209304926
200 152 17561083618325870478
21267235 1 18411409592640636894
21637258 2 17775013357985463106
22224240 67 16587744226660291687
2297311 6 18260256469964942742
23402539 116 18408327700260520590
23557571 272 18115009900897229374
23559900 14 18056481656216853745
3009799 131 18337121132965812693
335352 9 18411136923243383327
4015057 19 15410600464056081196
4409770 3 17986966334894873701
5104073 3 18117544151304662659
559249 180 17988929997994445587
69474 34 17749112158158815440

> <PUBCHEM_SHAPE_MULTIPOLES>
396.71
14.28
2.45
1.1
21.26
1.27
-0.01
-9.57
4.27
-2.81
0.4
1.1
0.04
-0.6

> <PUBCHEM_SHAPE_SELFOVERLAP>
817.947

> <PUBCHEM_SHAPE_VOLUME>
230.2

> <PUBCHEM_COORDINATE_TYPE>
2
5
10

$$$$

