46173783
  -OEChem-07051213012D

 93100  0     1  0  0  0  0  0999 V2000
    4.2690    1.1204    0.0000 O   0  0  0  0  0  0  0  0  0  0  0  0
    7.1990    2.1952    0.0000 O   0  0  0  0  0  0  0  0  0  0  0  0
    5.1350    2.6204    0.0000 O   0  0  0  0  0  0  0  0  0  0  0  0
    4.2529    5.1619    0.0000 O   0  0  0  0  0  0  0  0  0  0  0  0
    8.5826    1.0812    0.0000 O   0  0  0  0  0  0  0  0  0  0  0  0
    2.5369    2.1204    0.0000 O   0  0  0  0  0  0  0  0  0  0  0  0
    6.0530    5.1688    0.0000 O   0  0  0  0  0  0  0  0  0  0  0  0
    2.5369    4.1204    0.0000 O   0  0  0  0  0  0  0  0  0  0  0  0
    3.4493   -2.6229    0.0000 O   0  0  0  0  0  0  0  0  0  0  0  0
    4.9012   -3.4612    0.0000 O   0  0  0  0  0  0  0  0  0  0  0  0
   10.3312   -2.3796    0.0000 O   0  0  0  0  0  0  0  0  0  0  0  0
   10.3312   -0.3796    0.0000 O   0  0  0  0  0  0  0  0  0  0  0  0
    8.5991   -3.3796    0.0000 O   0  0  0  0  0  0  0  0  0  0  0  0
    9.4651   -3.8796    0.0000 O   0  0  0  0  0  0  0  0  0  0  0  0
   12.0632   -3.3796    0.0000 O   0  0  0  0  0  0  0  0  0  0  0  0
   12.0632   -5.3796    0.0000 O   0  0  0  0  0  0  0  0  0  0  0  0
   10.3312   -6.3796    0.0000 O   0  0  0  0  0  0  0  0  0  0  0  0
    7.7331   -4.8796    0.0000 O   0  5  0  0  0  0  0  0  0  0  0  0
    8.5991   -6.3796    0.0000 O   0  0  0  0  0  0  0  0  0  0  0  0
    6.0010    1.1204    0.0000 C   0  0  1  0  0  0  0  0  0  0  0  0
    6.8671    0.6204    0.0000 C   0  0  1  0  0  0  0  0  0  0  0  0
    5.1350    0.6204    0.0000 C   0  0  1  0  0  0  0  0  0  0  0  0
    6.8671   -0.3796    0.0000 C   0  0  1  0  0  0  0  0  0  0  0  0
    5.1350   -0.3796    0.0000 C   0  0  0  0  0  0  0  0  0  0  0  0
    6.0010   -0.8796    0.0000 C   0  0  0  0  0  0  0  0  0  0  0  0
    6.2102    2.0922    0.0000 C   0  0  0  0  0  0  0  0  0  0  0  0
    7.6041    1.2875    0.0000 C   0  0  0  0  0  0  0  0  0  0  0  0
    4.2690    2.1204    0.0000 C   0  0  2  0  0  0  0  0  0  0  0  0
    7.7331   -0.8796    0.0000 C   0  0  0  0  0  0  0  0  0  0  0  0
    3.4030    2.6204    0.0000 C   0  0  1  0  0  0  0  0  0  0  0  0
    4.2690    4.1204    0.0000 C   0  0  1  0  0  0  0  0  0  0  0  0
    3.4030    3.6204    0.0000 C   0  0  2  0  0  0  0  0  0  0  0  0
    5.1350    3.6204    0.0000 C   0  0  1  0  0  0  0  0  0  0  0  0
    4.2250   -0.8865    0.0000 C   0  0  0  0  0  0  0  0  0  0  0  0
    6.0171   -1.9211    0.0000 C   0  0  0  0  0  0  0  0  0  0  0  0
    4.2170   -1.9281    0.0000 C   0  0  0  0  0  0  0  0  0  0  0  0
    5.1191   -2.4489    0.0000 C   0  0  0  0  0  0  0  0  0  0  0  0
    6.0450    4.1272    0.0000 C   0  0  0  0  0  0  0  0  0  0  0  0
    7.7331   -1.8796    0.0000 C   0  0  0  0  0  0  0  0  0  0  0  0
    8.5991   -0.3796    0.0000 C   0  0  0  0  0  0  0  0  0  0  0  0
    5.1510    5.6896    0.0000 C   0  0  1  0  0  0  0  0  0  0  0  0
    9.4651   -0.8796    0.0000 C   0  0  0  0  0  0  0  0  0  0  0  0
    8.5991   -2.3796    0.0000 C   0  0  0  0  0  0  0  0  0  0  0  0
    9.4651   -1.8796    0.0000 C   0  0  0  0  0  0  0  0  0  0  0  0
    3.8713   -3.5685    0.0000 C   0  0  0  0  0  0  0  0  0  0  0  0
    5.1471    6.6896    0.0000 C   0  0  0  0  0  0  0  0  0  0  0  0
   10.3312   -3.3796    0.0000 C   0  0  2  0  0  0  0  0  0  0  0  0
   11.1972   -3.8796    0.0000 C   0  0  1  0  0  0  0  0  0  0  0  0
   11.1972   -4.8796    0.0000 C   0  0  2  0  0  0  0  0  0  0  0  0
   10.3312   -5.3796    0.0000 C   0  0  1  0  0  0  0  0  0  0  0  0
    9.4651   -4.8796    0.0000 C   0  0  1  0  0  0  0  0  0  0  0  0
   11.1972   -0.8796    0.0000 C   0  0  0  0  0  0  0  0  0  0  0  0
    7.7331   -3.8796    0.0000 C   0  0  0  0  0  0  0  0  0  0  0  0
    8.5991   -5.3796    0.0000 C   0  0  0  0  0  0  0  0  0  0  0  0
    5.3140    1.6209    0.0000 H   0  0  0  0  0  0  0  0  0  0  0  0
    7.6440    0.2757    0.0000 H   0  0  0  0  0  0  0  0  0  0  0  0
    5.1350    1.2404    0.0000 H   0  0  0  0  0  0  0  0  0  0  0  0
    7.4040   -0.0696    0.0000 H   0  0  0  0  0  0  0  0  0  0  0  0
    6.2111    2.7122    0.0000 H   0  0  0  0  0  0  0  0  0  0  0  0
    5.5938    2.1582    0.0000 H   0  0  0  0  0  0  0  0  0  0  0  0
    3.7320    1.8104    0.0000 H   0  0  0  0  0  0  0  0  0  0  0  0
    3.4030    2.0004    0.0000 H   0  0  0  0  0  0  0  0  0  0  0  0
    3.5296    4.5397    0.0000 H   0  0  0  0  0  0  0  0  0  0  0  0
    3.4030    4.2404    0.0000 H   0  0  0  0  0  0  0  0  0  0  0  0
    5.8678    3.1897    0.0000 H   0  0  0  0  0  0  0  0  0  0  0  0
    3.6917   -0.5703    0.0000 H   0  0  0  0  0  0  0  0  0  0  0  0
    6.5576   -2.2249    0.0000 H   0  0  0  0  0  0  0  0  0  0  0  0
    6.2496    3.5419    0.0000 H   0  0  0  0  0  0  0  0  0  0  0  0
    6.6567    4.2286    0.0000 H   0  0  0  0  0  0  0  0  0  0  0  0
    7.1962   -2.1896    0.0000 H   0  0  0  0  0  0  0  0  0  0  0  0
    8.5991    0.2404    0.0000 H   0  0  0  0  0  0  0  0  0  0  0  0
    4.6123    5.9965    0.0000 H   0  0  0  0  0  0  0  0  0  0  0  0
    2.0000    2.4304    0.0000 H   0  0  0  0  0  0  0  0  0  0  0  0
    2.5369    4.7404    0.0000 H   0  0  0  0  0  0  0  0  0  0  0  0
    3.2817   -3.7603    0.0000 H   0  0  0  0  0  0  0  0  0  0  0  0
    4.0000   -4.1750    0.0000 H   0  0  0  0  0  0  0  0  0  0  0  0
    5.7671    6.6920    0.0000 H   0  0  0  0  0  0  0  0  0  0  0  0
    5.1447    7.3096    0.0000 H   0  0  0  0  0  0  0  0  0  0  0  0
    4.5271    6.6872    0.0000 H   0  0  0  0  0  0  0  0  0  0  0  0
   10.8681   -3.0696    0.0000 H   0  0  0  0  0  0  0  0  0  0  0  0
   11.1972   -3.2596    0.0000 H   0  0  0  0  0  0  0  0  0  0  0  0
   11.1972   -5.4996    0.0000 H   0  0  0  0  0  0  0  0  0  0  0  0
   10.8681   -5.6896    0.0000 H   0  0  0  0  0  0  0  0  0  0  0  0
    8.9282   -4.5696    0.0000 H   0  0  0  0  0  0  0  0  0  0  0  0
   10.8872   -1.4166    0.0000 H   0  0  0  0  0  0  0  0  0  0  0  0
   11.7341   -1.1896    0.0000 H   0  0  0  0  0  0  0  0  0  0  0  0
   11.5072   -0.3427    0.0000 H   0  0  0  0  0  0  0  0  0  0  0  0
    7.4231   -3.3427    0.0000 H   0  0  0  0  0  0  0  0  0  0  0  0
    7.1962   -4.1896    0.0000 H   0  0  0  0  0  0  0  0  0  0  0  0
    8.0431   -4.4166    0.0000 H   0  0  0  0  0  0  0  0  0  0  0  0
   12.6002   -3.6896    0.0000 H   0  0  0  0  0  0  0  0  0  0  0  0
   12.0632   -5.9996    0.0000 H   0  0  0  0  0  0  0  0  0  0  0  0
   10.8681   -6.6896    0.0000 H   0  0  0  0  0  0  0  0  0  0  0  0
 22  1  1  1  0  0  0
 28  1  1  1  0  0  0
  2 26  1  0  0  0  0
  2 27  1  0  0  0  0
  3 28  1  0  0  0  0
  3 33  1  0  0  0  0
  4 31  1  0  0  0  0
  4 41  1  0  0  0  0
  5 27  2  0  0  0  0
 30  6  1  6  0  0  0
  6 73  1  0  0  0  0
  7 38  1  0  0  0  0
  7 41  1  0  0  0  0
 32  8  1  1  0  0  0
  8 74  1  0  0  0  0
  9 36  1  0  0  0  0
  9 45  1  0  0  0  0
 10 37  1  0  0  0  0
 10 45  1  0  0  0  0
 11 44  1  0  0  0  0
 47 11  1  1  0  0  0
 12 42  1  0  0  0  0
 12 52  1  0  0  0  0
 13 43  1  0  0  0  0
 13 53  1  0  0  0  0
 14 47  1  0  0  0  0
 14 51  1  0  0  0  0
 48 15  1  6  0  0  0
 15 91  1  0  0  0  0
 49 16  1  1  0  0  0
 16 92  1  0  0  0  0
 50 17  1  6  0  0  0
 17 93  1  0  0  0  0
 18 54  1  0  0  0  0
 19 54  2  0  0  0  0
 20 21  1  0  0  0  0
 20 22  1  0  0  0  0
 20 26  1  0  0  0  0
 20 55  1  6  0  0  0
 21 23  1  0  0  0  0
 21 27  1  0  0  0  0
 21 56  1  1  0  0  0
 22 24  1  0  0  0  0
 22 57  1  0  0  0  0
 23 25  1  0  0  0  0
 23 29  1  6  0  0  0
 23 58  1  0  0  0  0
 24 25  1  0  0  0  0
 24 34  2  0  0  0  0
 25 35  2  0  0  0  0
 26 59  1  0  0  0  0
 26 60  1  0  0  0  0
 28 30  1  0  0  0  0
 28 61  1  0  0  0  0
 29 39  2  0  0  0  0
 29 40  1  0  0  0  0
 30 32  1  0  0  0  0
 30 62  1  0  0  0  0
 31 32  1  0  0  0  0
 31 33  1  0  0  0  0
 31 63  1  1  0  0  0
 32 64  1  0  0  0  0
 33 38  1  0  0  0  0
 33 65  1  6  0  0  0
 34 36  1  0  0  0  0
 34 66  1  0  0  0  0
 35 37  1  0  0  0  0
 35 67  1  0  0  0  0
 36 37  2  0  0  0  0
 38 68  1  0  0  0  0
 38 69  1  0  0  0  0
 39 43  1  0  0  0  0
 39 70  1  0  0  0  0
 40 42  2  0  0  0  0
 40 71  1  0  0  0  0
 41 46  1  6  0  0  0
 41 72  1  0  0  0  0
 42 44  1  0  0  0  0
 43 44  2  0  0  0  0
 45 75  1  0  0  0  0
 45 76  1  0  0  0  0
 46 77  1  0  0  0  0
 46 78  1  0  0  0  0
 46 79  1  0  0  0  0
 47 48  1  0  0  0  0
 47 80  1  0  0  0  0
 48 49  1  0  0  0  0
 48 81  1  0  0  0  0
 49 50  1  0  0  0  0
 49 82  1  0  0  0  0
 50 51  1  0  0  0  0
 50 83  1  0  0  0  0
 51 54  1  1  0  0  0
 51 84  1  0  0  0  0
 52 85  1  0  0  0  0
 52 86  1  0  0  0  0
 52 87  1  0  0  0  0
 53 88  1  0  0  0  0
 53 89  1  0  0  0  0
 53 90  1  0  0  0  0
M  CHG  1  18  -1
M  END
> <PUBCHEM_COMPOUND_CID>
46173783

> <PUBCHEM_COMPOUND_CANONICALIZED>
1

> <PUBCHEM_CACTVS_COMPLEXITY>
1340

> <PUBCHEM_CACTVS_HBOND_ACCEPTOR>
19

> <PUBCHEM_CACTVS_HBOND_DONOR>
5

> <PUBCHEM_CACTVS_ROTATABLE_BOND>
7

> <PUBCHEM_CACTVS_SUBSKEYS>
AAADcfB8PgAAAAAAAAAAAAAAAAAAASJAAAA0aNECAAAAAEjRQAAAGgAACAAADRSwmAMyDoAABgCIAiDSCAICCAAgIAAAiAFGiIgdNzaEMR6ieCKl4BUPqAfK7PzOoAABCAAQQADAAAYQADCAAAAAAAAAAA==

> <PUBCHEM_IUPAC_OPENEYE_NAME>
(2S,3S,4S,5R,6S)-6-[4-[(5S,5aR,8aR,9R)-5-[[(2R,4aR,6R,7R,8R,8aS)-7,8-dihydroxy-2-methyl-4,4a,6,7,8,8a-hexahydropyrano[3,2-d][1,3]dioxin-6-yl]oxy]-8-oxo-5a,6,8a,9-tetrahydro-5H-isobenzofuro[5,6-f][1,3]benzodioxol-9-yl]-2,6-dimethoxy-phenoxy]-3,4,5-trihydroxy-tetrahydropyran-2-carboxylate

> <PUBCHEM_IUPAC_CAS_NAME>
(2S,3S,4S,5R,6S)-6-[4-[(5S,5aR,8aR,9R)-5-[[(2R,4aR,6R,7R,8R,8aS)-7,8-dihydroxy-2-methyl-4,4a,6,7,8,8a-hexahydropyrano[3,2-d][1,3]dioxin-6-yl]oxy]-8-oxo-5a,6,8a,9-tetrahydro-5H-isobenzofuro[5,6-f][1,3]benzodioxol-9-yl]-2,6-dimethoxyphenoxy]-3,4,5-trihydroxy-2-oxanecarboxylate

> <PUBCHEM_IUPAC_NAME>
(2S,3S,4S,5R,6S)-6-[4-[(5S,5aR,8aR,9R)-5-[[(2R,4aR,6R,7R,8R,8aS)-7,8-dihydroxy-2-methyl-4,4a,6,7,8,8a-hexahydropyrano[3,2-d][1,3]dioxin-6-yl]oxy]-8-oxo-5a,6,8a,9-tetrahydro-5H-[2]benzofuro[5,6-f][1,3]benzodioxol-9-yl]-2,6-dimethoxyphenoxy]-3,4,5-trihydroxyoxane-2-carboxylate

> <PUBCHEM_IUPAC_SYSTEMATIC_NAME>
(2S,3S,4S,5R,6S)-6-[4-[(5S,5aR,8aR,9R)-5-[[(2R,4aR,6R,7R,8R,8aS)-2-methyl-7,8-bis(oxidanyl)-4,4a,6,7,8,8a-hexahydropyrano[3,2-d][1,3]dioxin-6-yl]oxy]-8-oxidanylidene-5a,6,8a,9-tetrahydro-5H-[2]benzofuro[5,6-f][1,3]benzodioxol-9-yl]-2,6-dimethoxy-phenoxy]-3,4,5-tris(oxidanyl)oxane-2-carboxylate

> <PUBCHEM_IUPAC_TRADITIONAL_NAME>
(2S,3S,4S,5R,6S)-6-[4-[(5S,5aR,8aR,9R)-5-[[(2R,4aR,6R,7R,8R,8aS)-7,8-dihydroxy-2-methyl-4,4a,6,7,8,8a-hexahydropyrano[3,2-d][1,3]dioxin-6-yl]oxy]-8-keto-5a,6,8a,9-tetrahydro-5H-isobenzofuro[5,6-f][1,3]benzodioxol-9-yl]-2,6-dimethoxy-phenoxy]-3,4,5-trihydroxy-tetrahydropyran-2-carboxylate

> <PUBCHEM_IUPAC_INCHI>
InChI=1S/C35H40O19/c1-11-46-9-20-30(50-11)25(38)27(40)34(51-20)52-28-14-7-17-16(48-10-49-17)6-13(14)21(22-15(28)8-47-33(22)43)12-4-18(44-2)29(19(5-12)45-3)53-35-26(39)23(36)24(37)31(54-35)32(41)42/h4-7,11,15,20-28,30-31,34-40H,8-10H2,1-3H3,(H,41,42)/p-1/t11-,15+,20-,21-,22+,23+,24+,25-,26-,27-,28-,30-,31+,34+,35-/m1/s1

> <PUBCHEM_IUPAC_INCHIKEY>
URCVASXWNJQAEH-HDWVWLDDSA-M

> <PUBCHEM_XLOGP3>
-0.3

> <PUBCHEM_EXACT_MASS>
763.208554

> <PUBCHEM_MOLECULAR_FORMULA>
C35H39O19-

> <PUBCHEM_MOLECULAR_WEIGHT>
763.67276

> <PUBCHEM_OPENEYE_CAN_SMILES>
CC1OCC2C(O1)C(C(C(O2)OC3C4COC(=O)C4C(C5=CC6=C(C=C35)OCO6)C7=CC(=C(C(=C7)OC)OC8C(C(C(C(O8)C(=O)[O-])O)O)O)OC)O)O

> <PUBCHEM_OPENEYE_ISO_SMILES>
C[C@@H]1OC[C@@H]2[C@@H](O1)[C@@H]([C@H]([C@@H](O2)O[C@H]3[C@H]4COC(=O)[C@@H]4[C@@H](C5=CC6=C(C=C35)OCO6)C7=CC(=C(C(=C7)OC)O[C@H]8[C@@H]([C@H]([C@@H]([C@H](O8)C(=O)[O-])O)O)O)OC)O)O

> <PUBCHEM_CACTVS_TPSA>
260

> <PUBCHEM_MONOISOTOPIC_WEIGHT>
763.208554

> <PUBCHEM_TOTAL_CHARGE>
-1

> <PUBCHEM_HEAVY_ATOM_COUNT>
54

> <PUBCHEM_ATOM_DEF_STEREO_COUNT>
15

> <PUBCHEM_ATOM_UDEF_STEREO_COUNT>
0

> <PUBCHEM_BOND_DEF_STEREO_COUNT>
0

> <PUBCHEM_BOND_UDEF_STEREO_COUNT>
0

> <PUBCHEM_ISOTOPIC_ATOM_COUNT>
0

> <PUBCHEM_COMPONENT_COUNT>
1

> <PUBCHEM_CACTVS_TAUTO_COUNT>
2

> <PUBCHEM_COORDINATE_TYPE>
1
5
255

> <PUBCHEM_BONDANNOTATIONS>
22  1  5
28  1  5
47  11  5
48  15  6
49  16  5
50  17  6
20  55  6
21  56  5
23  29  6
24  25  8
24  34  8
25  35  8
29  39  8
29  40  8
31  63  5
33  65  6
34  36  8
35  37  8
36  37  8
39  43  8
40  42  8
41  46  6
42  44  8
43  44  8
51  54  5
30  6  6
32  8  5

$$$$

