441838
  -OEChem-07051212562D

 81 86  0     1  0  0  0  0  0999 V2000
   11.3876   -2.0254    0.0000 O   0  0  0  0  0  0  0  0  0  0  0  0
   13.9174   -0.5254    0.0000 O   0  0  0  0  0  0  0  0  0  0  0  0
    5.9945   -3.0778    0.0000 O   0  0  0  0  0  0  0  0  0  0  0  0
    7.8911   -0.0256    0.0000 O   0  0  0  0  0  0  0  0  0  0  0  0
   12.6473    2.8479    0.0000 O   0  0  0  0  0  0  0  0  0  0  0  0
    4.2625   -3.0711    0.0000 O   0  0  0  0  0  0  0  0  0  0  0  0
   14.4078    3.1236    0.0000 O   0  0  0  0  0  0  0  0  0  0  0  0
    6.0022   -1.0778    0.0000 O   0  0  0  0  0  0  0  0  0  0  0  0
    4.2740   -0.0711    0.0000 O   0  0  0  0  0  0  0  0  0  0  0  0
    2.5381   -1.0644    0.0000 O   0  0  0  0  0  0  0  0  0  0  0  0
   11.3876   -1.0254    0.0000 C   0  0  2  0  0  0  0  0  0  0  0  0
   11.3876   -0.0254    0.0000 C   0  0  1  0  0  0  0  0  0  0  0  0
   10.5216   -1.5254    0.0000 C   0  0  1  0  0  0  0  0  0  0  0  0
    9.6555   -1.0254    0.0000 C   0  0  1  0  0  0  0  0  0  0  0  0
    8.7455   -1.5323    0.0000 C   0  0  2  0  0  0  0  0  0  0  0  0
   12.3338    0.2793    0.0000 C   0  0  2  0  0  0  0  0  0  0  0  0
   10.5216    0.4746    0.0000 C   0  0  0  0  0  0  0  0  0  0  0  0
    9.6555   -0.0254    0.0000 C   0  0  0  0  0  0  0  0  0  0  0  0
    8.7375   -2.5739    0.0000 C   0  0  2  0  0  0  0  0  0  0  0  0
   12.3338   -1.3302    0.0000 C   0  0  0  0  0  0  0  0  0  0  0  0
   10.5376   -2.5669    0.0000 C   0  0  0  0  0  0  0  0  0  0  0  0
   12.9174   -0.5254    0.0000 C   0  0  2  0  0  0  0  0  0  0  0  0
    9.6396   -3.0947    0.0000 C   0  0  0  0  0  0  0  0  0  0  0  0
    7.8187   -0.9682    0.0000 C   0  0  0  0  0  0  0  0  0  0  0  0
   11.3876    0.9746    0.0000 C   0  0  0  0  0  0  0  0  0  0  0  0
    7.8021   -3.1236    0.0000 C   0  0  0  0  0  0  0  0  0  0  0  0
    6.8708   -1.4961    0.0000 C   0  0  0  0  0  0  0  0  0  0  0  0
    6.8624   -2.5811    0.0000 C   0  0  2  0  0  0  0  0  0  0  0  0
   12.6445    1.2298    0.0000 C   0  0  0  0  0  0  0  0  0  0  0  0
    8.7532   -0.5323    0.0000 C   0  0  0  0  0  0  0  0  0  0  0  0
   12.0581    2.0399    0.0000 C   0  0  0  0  0  0  0  0  0  0  0  0
   13.5960    1.5372    0.0000 C   0  0  0  0  0  0  0  0  0  0  0  0
   13.5978    2.5372    0.0000 C   0  0  0  0  0  0  0  0  0  0  0  0
    5.1304   -2.5744    0.0000 C   0  0  2  0  0  0  0  0  0  0  0  0
    5.1343   -1.5744    0.0000 C   0  0  1  0  0  0  0  0  0  0  0  0
    4.2702   -1.0711    0.0000 C   0  0  1  0  0  0  0  0  0  0  0  0
    3.3984   -2.5677    0.0000 C   0  0  2  0  0  0  0  0  0  0  0  0
    3.4022   -1.5678    0.0000 C   0  0  2  0  0  0  0  0  0  0  0  0
    2.5304   -3.0644    0.0000 C   0  0  0  0  0  0  0  0  0  0  0  0
   11.2609   -1.9447    0.0000 H   0  0  0  0  0  0  0  0  0  0  0  0
   10.3916   -0.6004    0.0000 H   0  0  0  0  0  0  0  0  0  0  0  0
   12.9463    0.3755    0.0000 H   0  0  0  0  0  0  0  0  0  0  0  0
   10.9201    0.9495    0.0000 H   0  0  0  0  0  0  0  0  0  0  0  0
   10.1230    0.9495    0.0000 H   0  0  0  0  0  0  0  0  0  0  0  0
    9.4435    0.5572    0.0000 H   0  0  0  0  0  0  0  0  0  0  0  0
    9.0450   -0.1331    0.0000 H   0  0  0  0  0  0  0  0  0  0  0  0
    8.7408   -3.4239    0.0000 H   0  0  0  0  0  0  0  0  0  0  0  0
   12.0828   -1.8971    0.0000 H   0  0  0  0  0  0  0  0  0  0  0  0
   12.8712   -1.6394    0.0000 H   0  0  0  0  0  0  0  0  0  0  0  0
   10.7556   -3.1473    0.0000 H   0  0  0  0  0  0  0  0  0  0  0  0
   11.1468   -2.4514    0.0000 H   0  0  0  0  0  0  0  0  0  0  0  0
   13.1991    0.0269    0.0000 H   0  0  0  0  0  0  0  0  0  0  0  0
    9.2423   -3.5706    0.0000 H   0  0  0  0  0  0  0  0  0  0  0  0
   10.0405   -3.5676    0.0000 H   0  0  0  0  0  0  0  0  0  0  0  0
    8.2269   -0.5015    0.0000 H   0  0  0  0  0  0  0  0  0  0  0  0
    7.4288   -0.4861    0.0000 H   0  0  0  0  0  0  0  0  0  0  0  0
   12.0076    0.9746    0.0000 H   0  0  0  0  0  0  0  0  0  0  0  0
   11.3876    1.5946    0.0000 H   0  0  0  0  0  0  0  0  0  0  0  0
   10.7676    0.9746    0.0000 H   0  0  0  0  0  0  0  0  0  0  0  0
    7.4048   -3.5996    0.0000 H   0  0  0  0  0  0  0  0  0  0  0  0
    8.2030   -3.5965    0.0000 H   0  0  0  0  0  0  0  0  0  0  0  0
    6.6662   -0.9108    0.0000 H   0  0  0  0  0  0  0  0  0  0  0  0
    6.2592   -1.5975    0.0000 H   0  0  0  0  0  0  0  0  0  0  0  0
   11.9245   -2.3354    0.0000 H   0  0  0  0  0  0  0  0  0  0  0  0
    6.3273   -2.2680    0.0000 H   0  0  0  0  0  0  0  0  0  0  0  0
    8.7580    0.0877    0.0000 H   0  0  0  0  0  0  0  0  0  0  0  0
   14.2274   -1.0623    0.0000 H   0  0  0  0  0  0  0  0  0  0  0  0
   11.5980    2.4555    0.0000 H   0  0  0  0  0  0  0  0  0  0  0  0
   11.5966    1.6258    0.0000 H   0  0  0  0  0  0  0  0  0  0  0  0
   14.0970    1.1719    0.0000 H   0  0  0  0  0  0  0  0  0  0  0  0
    5.1280   -3.1944    0.0000 H   0  0  0  0  0  0  0  0  0  0  0  0
    5.6700   -1.8865    0.0000 H   0  0  0  0  0  0  0  0  0  0  0  0
    3.7344   -0.7590    0.0000 H   0  0  0  0  0  0  0  0  0  0  0  0
    3.3960   -3.1877    0.0000 H   0  0  0  0  0  0  0  0  0  0  0  0
    2.8641   -1.8757    0.0000 H   0  0  0  0  0  0  0  0  0  0  0  0
    6.0046   -0.4578    0.0000 H   0  0  0  0  0  0  0  0  0  0  0  0
    2.2225   -2.5263    0.0000 H   0  0  0  0  0  0  0  0  0  0  0  0
    1.9923   -3.3723    0.0000 H   0  0  0  0  0  0  0  0  0  0  0  0
    2.8384   -3.6025    0.0000 H   0  0  0  0  0  0  0  0  0  0  0  0
    3.7383    0.2410    0.0000 H   0  0  0  0  0  0  0  0  0  0  0  0
    2.0000   -1.3723    0.0000 H   0  0  0  0  0  0  0  0  0  0  0  0
 11  1  1  1  0  0  0
  1 64  1  0  0  0  0
 22  2  1  1  0  0  0
  2 67  1  0  0  0  0
 28  3  1  1  0  0  0
 34  3  1  6  0  0  0
  4 30  2  0  0  0  0
  5 31  1  0  0  0  0
  5 33  1  0  0  0  0
  6 34  1  0  0  0  0
  6 37  1  0  0  0  0
  7 33  2  0  0  0  0
 35  8  1  1  0  0  0
  8 76  1  0  0  0  0
 36  9  1  1  0  0  0
  9 80  1  0  0  0  0
 38 10  1  6  0  0  0
 10 81  1  0  0  0  0
 11 12  1  0  0  0  0
 11 13  1  0  0  0  0
 11 20  1  0  0  0  0
 12 16  1  0  0  0  0
 12 17  1  0  0  0  0
 12 25  1  1  0  0  0
 13 14  1  0  0  0  0
 13 21  1  0  0  0  0
 13 40  1  1  0  0  0
 14 15  1  0  0  0  0
 14 18  1  0  0  0  0
 14 41  1  6  0  0  0
 15 19  1  0  0  0  0
 15 24  1  0  0  0  0
 15 30  1  1  0  0  0
 16 22  1  0  0  0  0
 16 29  1  1  0  0  0
 16 42  1  0  0  0  0
 17 18  1  0  0  0  0
 17 43  1  0  0  0  0
 17 44  1  0  0  0  0
 18 45  1  0  0  0  0
 18 46  1  0  0  0  0
 19 23  1  0  0  0  0
 19 26  1  0  0  0  0
 19 47  1  1  0  0  0
 20 22  1  0  0  0  0
 20 48  1  0  0  0  0
 20 49  1  0  0  0  0
 21 23  1  0  0  0  0
 21 50  1  0  0  0  0
 21 51  1  0  0  0  0
 22 52  1  0  0  0  0
 23 53  1  0  0  0  0
 23 54  1  0  0  0  0
 24 27  1  0  0  0  0
 24 55  1  0  0  0  0
 24 56  1  0  0  0  0
 25 57  1  0  0  0  0
 25 58  1  0  0  0  0
 25 59  1  0  0  0  0
 26 28  1  0  0  0  0
 26 60  1  0  0  0  0
 26 61  1  0  0  0  0
 27 28  1  0  0  0  0
 27 62  1  0  0  0  0
 27 63  1  0  0  0  0
 28 65  1  0  0  0  0
 29 31  1  0  0  0  0
 29 32  2  0  0  0  0
 30 66  1  0  0  0  0
 31 68  1  0  0  0  0
 31 69  1  0  0  0  0
 32 33  1  0  0  0  0
 32 70  1  0  0  0  0
 34 35  1  0  0  0  0
 34 71  1  0  0  0  0
 35 36  1  0  0  0  0
 35 72  1  0  0  0  0
 36 38  1  0  0  0  0
 36 73  1  0  0  0  0
 37 38  1  0  0  0  0
 37 39  1  1  0  0  0
 37 74  1  0  0  0  0
 38 75  1  0  0  0  0
 39 77  1  0  0  0  0
 39 78  1  0  0  0  0
 39 79  1  0  0  0  0
M  END
> <PUBCHEM_COMPOUND_CID>
441838

> <PUBCHEM_COMPOUND_CANONICALIZED>
1

> <PUBCHEM_CACTVS_COMPLEXITY>
1030

> <PUBCHEM_CACTVS_HBOND_ACCEPTOR>
10

> <PUBCHEM_CACTVS_HBOND_DONOR>
5

> <PUBCHEM_CACTVS_ROTATABLE_BOND>
4

> <PUBCHEM_CACTVS_SUBSKEYS>
AAADcfB4PAAAAAAAAAAAAAAAAAAAAYIAAAA0YMEAAAAAAGDAAAAAGgAACAAAD1SwgAMCCAAABgCIAijSiAAAAAAgAAAACAEAAEgRFBIAIQAiUAAFwAAPIQPI7PzPgAAAAAAAAADAAAYAADAAAYQADAAAAA==

> <PUBCHEM_IUPAC_OPENEYE_NAME>
(3S,5R,8R,9S,10R,13R,14S,16S,17R)-14,16-dihydroxy-13-methyl-17-(5-oxo-2H-furan-3-yl)-3-[(2R,3R,4R,5R,6S)-3,4,5-trihydroxy-6-methyl-tetrahydropyran-2-yl]oxy-1,2,3,4,5,6,7,8,9,11,12,15,16,17-tetradecahydrocyclopenta[a]phenanthrene-10-carbaldehyde

> <PUBCHEM_IUPAC_CAS_NAME>
(3S,5R,8R,9S,10R,13R,14S,16S,17R)-14,16-dihydroxy-13-methyl-17-(5-oxo-2H-furan-3-yl)-3-[[(2R,3R,4R,5R,6S)-3,4,5-trihydroxy-6-methyl-2-oxanyl]oxy]-1,2,3,4,5,6,7,8,9,11,12,15,16,17-tetradecahydrocyclopenta[a]phenanthrene-10-carboxaldehyde

> <PUBCHEM_IUPAC_NAME>
(3S,5R,8R,9S,10R,13R,14S,16S,17R)-14,16-dihydroxy-13-methyl-17-(5-oxo-2H-furan-3-yl)-3-[(2R,3R,4R,5R,6S)-3,4,5-trihydroxy-6-methyloxan-2-yl]oxy-1,2,3,4,5,6,7,8,9,11,12,15,16,17-tetradecahydrocyclopenta[a]phenanthrene-10-carbaldehyde

> <PUBCHEM_IUPAC_SYSTEMATIC_NAME>
(3S,5R,8R,9S,10R,13R,14S,16S,17R)-13-methyl-3-[(2R,3R,4R,5R,6S)-6-methyl-3,4,5-tris(oxidanyl)oxan-2-yl]oxy-14,16-bis(oxidanyl)-17-(5-oxidanylidene-2H-furan-3-yl)-1,2,3,4,5,6,7,8,9,11,12,15,16,17-tetradecahydrocyclopenta[a]phenanthrene-10-carbaldehyde

> <PUBCHEM_IUPAC_TRADITIONAL_NAME>
(3S,5R,8R,9S,10R,13R,14S,16S,17R)-14,16-dihydroxy-17-(5-keto-2H-furan-3-yl)-13-methyl-3-[(2R,3R,4R,5R,6S)-3,4,5-trihydroxy-6-methyl-tetrahydropyran-2-yl]oxy-1,2,3,4,5,6,7,8,9,11,12,15,16,17-tetradecahydrocyclopenta[a]phenanthrene-10-carbaldehyde

> <PUBCHEM_IUPAC_INCHI>
InChI=1S/C29H42O10/c1-14-23(33)24(34)25(35)26(38-14)39-17-5-8-28(13-30)16(10-17)3-4-19-18(28)6-7-27(2)22(15-9-21(32)37-12-15)20(31)11-29(19,27)36/h9,13-14,16-20,22-26,31,33-36H,3-8,10-12H2,1-2H3/t14-,16+,17-,18-,19+,20-,22-,23-,24+,25+,26-,27+,28+,29-/m0/s1

> <PUBCHEM_IUPAC_INCHIKEY>
ARANEVHRNOGYRH-BBNLJEPRSA-N

> <PUBCHEM_XLOGP3>
-0.6

> <PUBCHEM_EXACT_MASS>
550.277798

> <PUBCHEM_MOLECULAR_FORMULA>
C29H42O10

> <PUBCHEM_MOLECULAR_WEIGHT>
550.63778

> <PUBCHEM_OPENEYE_CAN_SMILES>
CC1C(C(C(C(O1)OC2CCC3(C(C2)CCC4C3CCC5(C4(CC(C5C6=CC(=O)OC6)O)O)C)C=O)O)O)O

> <PUBCHEM_OPENEYE_ISO_SMILES>
C[C@H]1[C@@H]([C@H]([C@H]([C@@H](O1)O[C@H]2CC[C@]3([C@@H](C2)CC[C@@H]4[C@@H]3CC[C@]5([C@@]4(C[C@@H]([C@@H]5C6=CC(=O)OC6)O)O)C)C=O)O)O)O

> <PUBCHEM_CACTVS_TPSA>
163

> <PUBCHEM_MONOISOTOPIC_WEIGHT>
550.277798

> <PUBCHEM_TOTAL_CHARGE>
0

> <PUBCHEM_HEAVY_ATOM_COUNT>
39

> <PUBCHEM_ATOM_DEF_STEREO_COUNT>
14

> <PUBCHEM_ATOM_UDEF_STEREO_COUNT>
0

> <PUBCHEM_BOND_DEF_STEREO_COUNT>
0

> <PUBCHEM_BOND_UDEF_STEREO_COUNT>
0

> <PUBCHEM_ISOTOPIC_ATOM_COUNT>
0

> <PUBCHEM_COMPONENT_COUNT>
1

> <PUBCHEM_CACTVS_TAUTO_COUNT>
1

> <PUBCHEM_COORDINATE_TYPE>
1
5
255

> <PUBCHEM_BONDANNOTATIONS>
11  1  5
38  10  6
12  25  5
13  40  5
14  41  6
15  30  5
16  29  5
19  47  5
22  2  5
28  3  5
34  3  6
37  39  5
35  8  5
36  9  5

$$$$

