2165
  -OEChem-07051212543D

 47 49  0     0  0  0  0  0  0999 V2000
   -7.0142    0.1866    1.3564 Cl  0  0  0  0  0  0  0  0  0  0  0  0
    4.7936   -2.2774    0.1510 O   0  0  0  0  0  0  0  0  0  0  0  0
    3.3773    1.5340    0.4275 N   0  0  0  0  0  0  0  0  0  0  0  0
   -0.6856   -1.4968   -0.4065 N   0  0  0  0  0  0  0  0  0  0  0  0
   -2.9557    1.9606   -1.1192 N   0  0  0  0  0  0  0  0  0  0  0  0
    3.7064    0.2260    0.9948 C   0  0  0  0  0  0  0  0  0  0  0  0
    2.8720   -0.8691    0.4169 C   0  0  0  0  0  0  0  0  0  0  0  0
    3.5938    1.5324   -1.0185 C   0  0  0  0  0  0  0  0  0  0  0  0
    4.1753    2.5814    1.0634 C   0  0  0  0  0  0  0  0  0  0  0  0
    1.4980   -0.6768    0.2736 C   0  0  0  0  0  0  0  0  0  0  0  0
    0.6994   -1.6886   -0.2661 C   0  0  0  0  0  0  0  0  0  0  0  0
    3.4526   -2.0740    0.0211 C   0  0  0  0  0  0  0  0  0  0  0  0
    3.2569    2.8837   -1.6256 C   0  0  0  0  0  0  0  0  0  0  0  0
    3.9165    2.6368    2.5595 C   0  0  0  0  0  0  0  0  0  0  0  0
    1.2850   -2.8943   -0.6614 C   0  0  0  0  0  0  0  0  0  0  0  0
   -1.4728   -0.3426   -0.6316 C   0  0  0  0  0  0  0  0  0  0  0  0
    2.6591   -3.0866   -0.5181 C   0  0  0  0  0  0  0  0  0  0  0  0
   -2.7849   -0.2394   -0.1505 C   0  0  0  0  0  0  0  0  0  0  0  0
   -3.5000    0.9461   -0.4210 C   0  0  0  0  0  0  0  0  0  0  0  0
   -0.9092    0.7011   -1.3515 C   0  0  0  0  0  0  0  0  0  0  0  0
   -3.3843   -1.2783    0.5816 C   0  0  0  0  0  0  0  0  0  0  0  0
   -4.8035    1.0481    0.0572 C   0  0  0  0  0  0  0  0  0  0  0  0
   -1.6866    1.8211   -1.5659 C   0  0  0  0  0  0  0  0  0  0  0  0
   -4.6895   -1.1495    1.0478 C   0  0  0  0  0  0  0  0  0  0  0  0
   -5.3996    0.0154    0.7851 C   0  0  0  0  0  0  0  0  0  0  0  0
    3.5030    0.1929    2.0712 H   0  0  0  0  0  0  0  0  0  0  0  0
    4.7780    0.0258    0.8701 H   0  0  0  0  0  0  0  0  0  0  0  0
    4.6299    1.2721   -1.2719 H   0  0  0  0  0  0  0  0  0  0  0  0
    2.9494    0.8035   -1.5208 H   0  0  0  0  0  0  0  0  0  0  0  0
    5.2489    2.4530    0.8763 H   0  0  0  0  0  0  0  0  0  0  0  0
    3.8915    3.5697    0.6881 H   0  0  0  0  0  0  0  0  0  0  0  0
    1.0445    0.2482    0.6219 H   0  0  0  0  0  0  0  0  0  0  0  0
    2.2863    3.2552   -1.2789 H   0  0  0  0  0  0  0  0  0  0  0  0
    4.0236    3.6385   -1.4257 H   0  0  0  0  0  0  0  0  0  0  0  0
    3.1957    2.7881   -2.7158 H   0  0  0  0  0  0  0  0  0  0  0  0
    2.8451    2.6273    2.7877 H   0  0  0  0  0  0  0  0  0  0  0  0
    4.4034    1.8192    3.0997 H   0  0  0  0  0  0  0  0  0  0  0  0
    4.3279    3.5668    2.9683 H   0  0  0  0  0  0  0  0  0  0  0  0
   -1.2099   -2.3649   -0.4577 H   0  0  0  0  0  0  0  0  0  0  0  0
    0.6784   -3.6917   -1.0835 H   0  0  0  0  0  0  0  0  0  0  0  0
    3.0982   -4.0300   -0.8313 H   0  0  0  0  0  0  0  0  0  0  0  0
    0.0917    0.6606   -1.7661 H   0  0  0  0  0  0  0  0  0  0  0  0
   -2.8584   -2.2001    0.8151 H   0  0  0  0  0  0  0  0  0  0  0  0
   -5.3693    1.9574   -0.1431 H   0  0  0  0  0  0  0  0  0  0  0  0
    5.0130   -3.1668   -0.1758 H   0  0  0  0  0  0  0  0  0  0  0  0
   -1.3014    2.6662   -2.1270 H   0  0  0  0  0  0  0  0  0  0  0  0
   -5.1364   -1.9622    1.6140 H   0  0  0  0  0  0  0  0  0  0  0  0
  1 25  1  0  0  0  0
  2 12  1  0  0  0  0
  2 45  1  0  0  0  0
  3  6  1  0  0  0  0
  3  8  1  0  0  0  0
  3  9  1  0  0  0  0
  4 11  1  0  0  0  0
  4 16  1  0  0  0  0
  4 39  1  0  0  0  0
  5 19  2  0  0  0  0
  5 23  1  0  0  0  0
  6  7  1  0  0  0  0
  6 26  1  0  0  0  0
  6 27  1  0  0  0  0
  7 10  1  0  0  0  0
  7 12  2  0  0  0  0
  8 13  1  0  0  0  0
  8 28  1  0  0  0  0
  8 29  1  0  0  0  0
  9 14  1  0  0  0  0
  9 30  1  0  0  0  0
  9 31  1  0  0  0  0
 10 11  2  0  0  0  0
 10 32  1  0  0  0  0
 11 15  1  0  0  0  0
 12 17  1  0  0  0  0
 13 33  1  0  0  0  0
 13 34  1  0  0  0  0
 13 35  1  0  0  0  0
 14 36  1  0  0  0  0
 14 37  1  0  0  0  0
 14 38  1  0  0  0  0
 15 17  2  0  0  0  0
 15 40  1  0  0  0  0
 16 18  2  0  0  0  0
 16 20  1  0  0  0  0
 17 41  1  0  0  0  0
 18 19  1  0  0  0  0
 18 21  1  0  0  0  0
 19 22  1  0  0  0  0
 20 23  2  0  0  0  0
 20 42  1  0  0  0  0
 21 24  2  0  0  0  0
 21 43  1  0  0  0  0
 22 25  2  0  0  0  0
 22 44  1  0  0  0  0
 23 46  1  0  0  0  0
 24 25  1  0  0  0  0
 24 47  1  0  0  0  0
M  END
> <PUBCHEM_COMPOUND_CID>
2165

> <PUBCHEM_CONFORMER_RMSD>
0.8

> <PUBCHEM_CONFORMER_DIVERSEORDER>
1
105
80
61
119
54
111
67
110
114
78
55
134
133
107
8
46
101
18
50
102
24
122
92
113
64
100
98
79
131
82
118
68
65
87
103
63
35
71
116
89
84
13
57
93
30
129
17
95
48
121
60
77
69
120
99
40
88
29
112
73
20
83
2
11
85
22
104
59
123
109
94
42
125
128
96
117
47
49
62
81
127
126
108
19
72
15
56
106
58
16
130
66
9
124
25
115
53
132
31
51
34
36
45
74
97
4
5
41
39
70
86
6
32
28
75
7
14
3
23
10
12
91
90
37
26
27
52
43
76
21
44
33
38

> <PUBCHEM_MMFF94_PARTIAL_CHARGES>
32
1 -0.18
10 -0.15
11 0.1
12 0.08
15 -0.15
16 0.1
17 -0.15
19 0.31
2 -0.53
20 -0.15
21 -0.15
22 -0.15
23 0.16
24 -0.15
25 0.18
3 -0.81
32 0.15
39 0.4
4 -0.6
40 0.15
41 0.15
42 0.15
43 0.15
44 0.15
45 0.45
46 0.15
47 0.15
5 -0.62
6 0.41
7 -0.14
8 0.27
9 0.27

> <PUBCHEM_EFFECTIVE_ROTOR_COUNT>
6

> <PUBCHEM_PHARMACOPHORE_FEATURES>
8
1 2 donor
1 3 cation
1 4 cation
1 4 donor
1 5 acceptor
6 18 19 21 22 24 25 rings
6 5 16 18 19 20 23 rings
6 7 10 11 12 15 17 rings

> <PUBCHEM_HEAVY_ATOM_COUNT>
25

> <PUBCHEM_ATOM_DEF_STEREO_COUNT>
0

> <PUBCHEM_ATOM_UDEF_STEREO_COUNT>
0

> <PUBCHEM_BOND_DEF_STEREO_COUNT>
0

> <PUBCHEM_BOND_UDEF_STEREO_COUNT>
0

> <PUBCHEM_ISOTOPIC_ATOM_COUNT>
0

> <PUBCHEM_COMPONENT_COUNT>
1

> <PUBCHEM_CACTVS_TAUTO_COUNT>
13

> <PUBCHEM_CONFORMER_ID>
0000087500000001

> <PUBCHEM_MMFF94_ENERGY>
84.7144

> <PUBCHEM_FEATURE_SELFOVERLAP>
40.626

> <PUBCHEM_SHAPE_FINGERPRINT>
10165383 225 18337382739434685916
10319926 262 17773895244627241488
11045977 3 18270963561103437215
12035758 1 18265356022422967218
12236239 1 15575291998354524599
12422481 6 18128838398927320936
12616971 3 17967539003718730663
12925494 130 18265901448446363233
13533116 47 18335414699446070049
13583140 156 17201947961812804198
13955234 65 18334858354852332458
13965767 371 18196116386207885600
14068700 675 6264970470907635948
14251764 75 18116998767425279064
14341114 176 18340483464755434162
14341114 328 17489028145553679889
14790565 3 17766262194379080589
14955137 171 18188488111899872278
151778 21 18335987476158317336
15183329 4 10447934962666111291
15806764 133 18192708075437690326
15961568 22 17703501112982703028
16126227 98 17979068281022283052
1768 85 18261398814568819473
17844677 252 18339634659422637129
1813 80 16200426953956697101
18785283 64 18412826889452408454
1979834 28 18341330015631340477
21033648 29 17899157149623751411
21049683 271 18267573793058227102
21065198 57 18268709583768024863
21365058 113 17606939944858357102
21792934 111 18201434823052261609
21792961 116 18122341544113241174
21859007 373 16988294170398511317
22122407 14 17603854633858320577
23559900 14 18129380556775062423
350125 39 18412258450383115886
49207404 50 18341896281394057070
5104073 3 18271246131318096241
5252454 2 18116442449001069432
6287921 2 18411980260787342198
6823239 73 18131068290107359660
7495541 125 18201434848125902046
7808743 9 17907297655313511852
960060 61 6915986992922321112

> <PUBCHEM_SHAPE_MULTIPOLES>
495.55
13.01
3.5
1.58
14.45
0.41
0.38
-3.43
6.03
-5.7
-0.35
-0.77
-1.41
1.6

> <PUBCHEM_SHAPE_SELFOVERLAP>
1057.505

> <PUBCHEM_SHAPE_VOLUME>
276.4

> <PUBCHEM_COORDINATE_TYPE>
2
5
10

$$$$

