5282415
  -OEChem-07051213032D

 78 77  0     1  0  0  0  0  0999 V2000
    5.4820    0.5664    0.0000 O   0  0  0  0  0  0  0  0  0  0  0  0
    8.3298    2.6355    0.0000 O   0  0  0  0  0  0  0  0  0  0  0  0
    6.5698    5.9143    0.0000 O   0  0  0  0  0  0  0  0  0  0  0  0
    0.5897    5.8278    0.0000 O   0  0  0  0  0  0  0  0  0  0  0  0
    0.0544    4.1806    0.0000 O   0  0  0  0  0  0  0  0  0  0  0  0
    5.7184   11.9881    0.0000 O   0  0  0  0  0  0  0  0  0  0  0  0
    3.9864   13.7202    0.0000 O   0  0  0  0  0  0  0  0  0  0  0  0
    5.7184   15.4522    0.0000 O   0  0  0  0  0  0  0  0  0  0  0  0
    6.5844   14.2202    0.0000 N   0  0  0  0  0  0  0  0  0  0  0  0
    5.7608    2.3265    0.0000 C   0  0  2  0  0  0  0  0  0  0  0  0
    6.5698    2.9143    0.0000 C   0  0  2  0  0  0  0  0  0  0  0  0
    6.0698    1.3754    0.0000 C   0  0  2  0  0  0  0  0  0  0  0  0
    7.3788    2.3265    0.0000 C   0  0  1  0  0  0  0  0  0  0  0  0
    7.0698    1.3754    0.0000 C   0  0  0  0  0  0  0  0  0  0  0  0
    4.8097    2.6355    0.0000 C   0  0  0  0  0  0  0  0  0  0  0  0
    6.5698    3.9143    0.0000 C   0  0  0  0  0  0  0  0  0  0  0  0
    4.0666    1.9664    0.0000 C   0  0  0  0  0  0  0  0  0  0  0  0
    7.4358    4.4143    0.0000 C   0  0  0  0  0  0  0  0  0  0  0  0
    7.4358    5.4143    0.0000 C   0  0  2  0  0  0  0  0  0  0  0  0
    3.1155    2.2754    0.0000 C   0  0  0  0  0  0  0  0  0  0  0  0
    8.3018    5.9143    0.0000 C   0  0  0  0  0  0  0  0  0  0  0  0
    2.9076    3.2535    0.0000 C   0  0  0  0  0  0  0  0  0  0  0  0
    8.3018    6.9143    0.0000 C   0  0  0  0  0  0  0  0  0  0  0  0
    1.9565    3.5625    0.0000 C   0  0  0  0  0  0  0  0  0  0  0  0
    9.1678    7.4143    0.0000 C   0  0  0  0  0  0  0  0  0  0  0  0
    9.1678    8.4143    0.0000 C   0  0  0  0  0  0  0  0  0  0  0  0
    1.7486    4.5407    0.0000 C   0  0  0  0  0  0  0  0  0  0  0  0
   10.0339    8.9143    0.0000 C   0  0  0  0  0  0  0  0  0  0  0  0
    0.7976    4.8497    0.0000 C   0  0  0  0  0  0  0  0  0  0  0  0
    5.7184   13.7202    0.0000 C   0  0  0  0  0  0  0  0  0  0  0  0
    4.8524   13.2202    0.0000 C   0  0  0  0  0  0  0  0  0  0  0  0
    5.2184   14.5862    0.0000 C   0  0  0  0  0  0  0  0  0  0  0  0
    6.2184   12.8542    0.0000 C   0  0  0  0  0  0  0  0  0  0  0  0
    5.3224    1.8881    0.0000 H   0  0  0  0  0  0  0  0  0  0  0  0
    7.1222    3.1957    0.0000 H   0  0  0  0  0  0  0  0  0  0  0  0
    6.3512    0.8230    0.0000 H   0  0  0  0  0  0  0  0  0  0  0  0
    7.4758    2.9388    0.0000 H   0  0  0  0  0  0  0  0  0  0  0  0
    7.0050    0.7588    0.0000 H   0  0  0  0  0  0  0  0  0  0  0  0
    7.6762    1.2465    0.0000 H   0  0  0  0  0  0  0  0  0  0  0  0
    5.1008    3.1829    0.0000 H   0  0  0  0  0  0  0  0  0  0  0  0
    4.3211    3.0172    0.0000 H   0  0  0  0  0  0  0  0  0  0  0  0
    6.0328    4.2243    0.0000 H   0  0  0  0  0  0  0  0  0  0  0  0
    5.7342    0.0000    0.0000 H   0  0  0  0  0  0  0  0  0  0  0  0
    8.7906    2.2206    0.0000 H   0  0  0  0  0  0  0  0  0  0  0  0
    4.1955    1.3599    0.0000 H   0  0  0  0  0  0  0  0  0  0  0  0
    7.9727    4.1043    0.0000 H   0  0  0  0  0  0  0  0  0  0  0  0
    6.8989    5.1043    0.0000 H   0  0  0  0  0  0  0  0  0  0  0  0
    2.6548    1.8605    0.0000 H   0  0  0  0  0  0  0  0  0  0  0  0
    8.5139    5.3316    0.0000 H   0  0  0  0  0  0  0  0  0  0  0  0
    8.9124    6.0219    0.0000 H   0  0  0  0  0  0  0  0  0  0  0  0
    3.5272    3.2752    0.0000 H   0  0  0  0  0  0  0  0  0  0  0  0
    2.9939    3.8675    0.0000 H   0  0  0  0  0  0  0  0  0  0  0  0
    8.0898    7.4969    0.0000 H   0  0  0  0  0  0  0  0  0  0  0  0
    7.6912    6.8066    0.0000 H   0  0  0  0  0  0  0  0  0  0  0  0
    6.5698    6.5343    0.0000 H   0  0  0  0  0  0  0  0  0  0  0  0
    1.3369    3.5409    0.0000 H   0  0  0  0  0  0  0  0  0  0  0  0
    1.8702    2.9486    0.0000 H   0  0  0  0  0  0  0  0  0  0  0  0
    9.3799    6.8316    0.0000 H   0  0  0  0  0  0  0  0  0  0  0  0
    9.7784    7.5219    0.0000 H   0  0  0  0  0  0  0  0  0  0  0  0
    8.9558    8.9969    0.0000 H   0  0  0  0  0  0  0  0  0  0  0  0
    8.5573    8.3066    0.0000 H   0  0  0  0  0  0  0  0  0  0  0  0
    2.3683    4.5623    0.0000 H   0  0  0  0  0  0  0  0  0  0  0  0
    1.8349    5.1546    0.0000 H   0  0  0  0  0  0  0  0  0  0  0  0
   10.3439    8.3773    0.0000 H   0  0  0  0  0  0  0  0  0  0  0  0
   10.5708    9.2243    0.0000 H   0  0  0  0  0  0  0  0  0  0  0  0
    9.7239    9.4512    0.0000 H   0  0  0  0  0  0  0  0  0  0  0  0
    6.6934   12.4556    0.0000 H   0  0  0  0  0  0  0  0  0  0  0  0
    6.6934   13.2527    0.0000 H   0  0  0  0  0  0  0  0  0  0  0  0
    4.7435   14.9847    0.0000 H   0  0  0  0  0  0  0  0  0  0  0  0
    4.7435   14.1877    0.0000 H   0  0  0  0  0  0  0  0  0  0  0  0
    4.4539   12.7452    0.0000 H   0  0  0  0  0  0  0  0  0  0  0  0
    5.2509   12.7452    0.0000 H   0  0  0  0  0  0  0  0  0  0  0  0
    7.1214   13.9102    0.0000 H   0  0  0  0  0  0  0  0  0  0  0  0
    6.5844   14.8402    0.0000 H   0  0  0  0  0  0  0  0  0  0  0  0
    0.0000    6.0194    0.0000 H   0  0  0  0  0  0  0  0  0  0  0  0
    5.4084   15.9892    0.0000 H   0  0  0  0  0  0  0  0  0  0  0  0
    3.4494   13.4102    0.0000 H   0  0  0  0  0  0  0  0  0  0  0  0
    6.0284   11.4512    0.0000 H   0  0  0  0  0  0  0  0  0  0  0  0
 12  1  1  6  0  0  0
  1 43  1  0  0  0  0
 13  2  1  6  0  0  0
  2 44  1  0  0  0  0
 19  3  1  1  0  0  0
  3 55  1  0  0  0  0
  4 29  1  0  0  0  0
  4 75  1  0  0  0  0
  5 29  2  0  0  0  0
  6 33  1  0  0  0  0
  6 78  1  0  0  0  0
  7 31  1  0  0  0  0
  7 77  1  0  0  0  0
  8 32  1  0  0  0  0
  8 76  1  0  0  0  0
  9 30  1  0  0  0  0
  9 73  1  0  0  0  0
  9 74  1  0  0  0  0
 10 11  1  0  0  0  0
 10 12  1  0  0  0  0
 10 15  1  6  0  0  0
 10 34  1  0  0  0  0
 11 13  1  0  0  0  0
 11 16  1  1  0  0  0
 11 35  1  0  0  0  0
 12 14  1  0  0  0  0
 12 36  1  0  0  0  0
 13 14  1  0  0  0  0
 13 37  1  0  0  0  0
 14 38  1  0  0  0  0
 14 39  1  0  0  0  0
 15 17  1  0  0  0  0
 15 40  1  0  0  0  0
 15 41  1  0  0  0  0
 16 18  2  0  0  0  0
 16 42  1  0  0  0  0
 17 20  2  0  0  0  0
 17 45  1  0  0  0  0
 18 19  1  0  0  0  0
 18 46  1  0  0  0  0
 19 21  1  0  0  0  0
 19 47  1  0  0  0  0
 20 22  1  0  0  0  0
 20 48  1  0  0  0  0
 21 23  1  0  0  0  0
 21 49  1  0  0  0  0
 21 50  1  0  0  0  0
 22 24  1  0  0  0  0
 22 51  1  0  0  0  0
 22 52  1  0  0  0  0
 23 25  1  0  0  0  0
 23 53  1  0  0  0  0
 23 54  1  0  0  0  0
 24 27  1  0  0  0  0
 24 56  1  0  0  0  0
 24 57  1  0  0  0  0
 25 26  1  0  0  0  0
 25 58  1  0  0  0  0
 25 59  1  0  0  0  0
 26 28  1  0  0  0  0
 26 60  1  0  0  0  0
 26 61  1  0  0  0  0
 27 29  1  0  0  0  0
 27 62  1  0  0  0  0
 27 63  1  0  0  0  0
 28 64  1  0  0  0  0
 28 65  1  0  0  0  0
 28 66  1  0  0  0  0
 30 31  1  0  0  0  0
 30 32  1  0  0  0  0
 30 33  1  0  0  0  0
 31 71  1  0  0  0  0
 31 72  1  0  0  0  0
 32 69  1  0  0  0  0
 32 70  1  0  0  0  0
 33 67  1  0  0  0  0
 33 68  1  0  0  0  0
M  END
> <PUBCHEM_COMPOUND_CID>
5282415

> <PUBCHEM_COMPOUND_CANONICALIZED>
1

> <PUBCHEM_CACTVS_COMPLEXITY>
486

> <PUBCHEM_CACTVS_HBOND_ACCEPTOR>
9

> <PUBCHEM_CACTVS_HBOND_DONOR>
8

> <PUBCHEM_CACTVS_ROTATABLE_BOND>
15

> <PUBCHEM_CACTVS_SUBSKEYS>
AAADcfB6PAAAAAAAAAAAAAAAAAAAAYAAAAAAAAAAAAAAAAAAAAAAHgAQCAAADZyhgAICCABAAgCIACDSCAAAAAAgAAAICAEAAAgCFBIAAQAAUAAF0AAIEAPIwKAOgAAAAAAAAAAAAAAAAAAAAIQADAAAAA==

> <PUBCHEM_IUPAC_OPENEYE_NAME>
2-amino-2-(hydroxymethyl)propane-1,3-diol; (Z)-7-[(1R,2R,3R,5S)-3,5-dihydroxy-2-[(E,3S)-3-hydroxyoct-1-enyl]cyclopentyl]hept-5-enoic acid

> <PUBCHEM_IUPAC_CAS_NAME>
2-amino-2-(hydroxymethyl)propane-1,3-diol; (Z)-7-[(1R,2R,3R,5S)-3,5-dihydroxy-2-[(E,3S)-3-hydroxyoct-1-enyl]cyclopentyl]-5-heptenoic acid

> <PUBCHEM_IUPAC_NAME>
2-amino-2-(hydroxymethyl)propane-1,3-diol; (Z)-7-[(1R,2R,3R,5S)-3,5-dihydroxy-2-[(E,3S)-3-hydroxyoct-1-enyl]cyclopentyl]hept-5-enoic acid

> <PUBCHEM_IUPAC_SYSTEMATIC_NAME>
2-azanyl-2-(hydroxymethyl)propane-1,3-diol; (Z)-7-[(1R,2R,3R,5S)-3,5-bis(oxidanyl)-2-[(E,3S)-3-oxidanyloct-1-enyl]cyclopentyl]hept-5-enoic acid

> <PUBCHEM_IUPAC_TRADITIONAL_NAME>
2-amino-2-methylol-propane-1,3-diol; (Z)-7-[(1R,2R,3R,5S)-3,5-dihydroxy-2-[(E,3S)-3-hydroxyoct-1-enyl]cyclopentyl]hept-5-enoic acid

> <PUBCHEM_IUPAC_INCHI>
InChI=1S/C20H34O5.C4H11NO3/c1-2-3-6-9-15(21)12-13-17-16(18(22)14-19(17)23)10-7-4-5-8-11-20(24)25;5-4(1-6,2-7)3-8/h4,7,12-13,15-19,21-23H,2-3,5-6,8-11,14H2,1H3,(H,24,25);6-8H,1-3,5H2/b7-4-,13-12+;/t15-,16+,17+,18-,19+;/m0./s1

> <PUBCHEM_IUPAC_INCHIKEY>
IYGXEHDCSOYNKY-RZHHZEQLSA-N

> <PUBCHEM_EXACT_MASS>
475.314517

> <PUBCHEM_MOLECULAR_FORMULA>
C24H45NO8

> <PUBCHEM_MOLECULAR_WEIGHT>
475.616

> <PUBCHEM_OPENEYE_CAN_SMILES>
CCCCCC(C=CC1C(CC(C1CC=CCCCC(=O)O)O)O)O.C(C(CO)(CO)N)O

> <PUBCHEM_OPENEYE_ISO_SMILES>
CCCCC[C@@H](/C=C/[C@H]1[C@@H](C[C@@H]([C@@H]1C/C=C\CCCC(=O)O)O)O)O.C(C(CO)(CO)N)O

> <PUBCHEM_CACTVS_TPSA>
185

> <PUBCHEM_MONOISOTOPIC_WEIGHT>
475.314517

> <PUBCHEM_TOTAL_CHARGE>
0

> <PUBCHEM_HEAVY_ATOM_COUNT>
33

> <PUBCHEM_ATOM_DEF_STEREO_COUNT>
5

> <PUBCHEM_ATOM_UDEF_STEREO_COUNT>
0

> <PUBCHEM_BOND_DEF_STEREO_COUNT>
2

> <PUBCHEM_BOND_UDEF_STEREO_COUNT>
0

> <PUBCHEM_ISOTOPIC_ATOM_COUNT>
0

> <PUBCHEM_COMPONENT_COUNT>
2

> <PUBCHEM_CACTVS_TAUTO_COUNT>
1

> <PUBCHEM_COORDINATE_TYPE>
1
5
255

> <PUBCHEM_BONDANNOTATIONS>
12  1  6
10  15  6
11  16  5
13  2  6
19  3  5

$$$$

