92200
  -OEChem-07051213123D

 42 43  0     1  0  0  0  0  0999 V2000
   -3.2494   -0.5186    0.9660 S   0  0  0  0  0  0  0  0  0  0  0  0
    3.2826   -0.5874   -0.9184 S   0  0  0  0  0  0  0  0  0  0  0  0
   -3.0692    2.3882    1.3754 S   0  0  0  0  0  0  0  0  0  0  0  0
    3.2124    2.3250   -1.3208 S   0  0  0  0  0  0  0  0  0  0  0  0
   -1.3964    1.0200   -0.3361 N   0  0  0  0  0  0  0  0  0  0  0  0
    1.4266    1.0050    0.3127 N   0  0  0  0  0  0  0  0  0  0  0  0
   -1.3270   -1.3687   -0.7551 N   0  0  0  0  0  0  0  0  0  0  0  0
    1.2637   -1.3817    0.7168 N   0  0  0  0  0  0  0  0  0  0  0  0
   -0.5464    2.2032   -0.5225 C   0  0  0  0  0  0  0  0  0  0  0  0
    0.6077    2.2142    0.4690 C   0  0  0  0  0  0  0  0  0  0  0  0
   -1.1892   -0.0394   -1.3411 C   0  0  1  0  0  0  0  0  0  0  0  0
    1.1438   -0.0506    1.3029 C   0  0  1  0  0  0  0  0  0  0  0  0
   -2.6850   -1.6461   -0.3209 C   0  0  1  0  0  0  0  0  0  0  0  0
    2.6292   -1.7009    0.3383 C   0  0  1  0  0  0  0  0  0  0  0  0
   -2.4761    1.0245    0.5680 C   0  0  0  0  0  0  0  0  0  0  0  0
    2.5429    0.9782   -0.5455 C   0  0  0  0  0  0  0  0  0  0  0  0
   -2.0478    0.1897   -2.5888 C   0  0  0  0  0  0  0  0  0  0  0  0
    1.9562    0.1463    2.5866 C   0  0  0  0  0  0  0  0  0  0  0  0
   -2.7428   -3.0736    0.2248 C   0  0  0  0  0  0  0  0  0  0  0  0
    2.6643   -3.1274   -0.2114 C   0  0  0  0  0  0  0  0  0  0  0  0
   -0.1686    2.2182   -1.5517 H   0  0  0  0  0  0  0  0  0  0  0  0
   -1.1305    3.1210   -0.4128 H   0  0  0  0  0  0  0  0  0  0  0  0
    1.2036    3.1188    0.3244 H   0  0  0  0  0  0  0  0  0  0  0  0
    0.2370    2.2668    1.4992 H   0  0  0  0  0  0  0  0  0  0  0  0
   -0.1445    0.0190   -1.6663 H   0  0  0  0  0  0  0  0  0  0  0  0
    0.0920    0.0398    1.5915 H   0  0  0  0  0  0  0  0  0  0  0  0
   -1.0429   -2.0678   -1.4417 H   0  0  0  0  0  0  0  0  0  0  0  0
    0.9290   -2.0736    1.3876 H   0  0  0  0  0  0  0  0  0  0  0  0
   -3.3861   -1.5936   -1.1602 H   0  0  0  0  0  0  0  0  0  0  0  0
    3.2958   -1.6738    1.2065 H   0  0  0  0  0  0  0  0  0  0  0  0
   -1.9199   -0.6249   -3.3097 H   0  0  0  0  0  0  0  0  0  0  0  0
   -3.1129    0.2822   -2.3530 H   0  0  0  0  0  0  0  0  0  0  0  0
   -1.7545    1.1199   -3.0882 H   0  0  0  0  0  0  0  0  0  0  0  0
    1.7734   -0.6671    3.2968 H   0  0  0  0  0  0  0  0  0  0  0  0
    3.0325    0.2063    2.3956 H   0  0  0  0  0  0  0  0  0  0  0  0
    1.6716    1.0829    3.0792 H   0  0  0  0  0  0  0  0  0  0  0  0
   -3.7588   -3.3401    0.5388 H   0  0  0  0  0  0  0  0  0  0  0  0
   -2.4481   -3.7947   -0.5470 H   0  0  0  0  0  0  0  0  0  0  0  0
   -2.0715   -3.2158    1.0805 H   0  0  0  0  0  0  0  0  0  0  0  0
    3.6835   -3.4253   -0.4839 H   0  0  0  0  0  0  0  0  0  0  0  0
    2.3146   -3.8415    0.5439 H   0  0  0  0  0  0  0  0  0  0  0  0
    2.0252   -3.2452   -1.0950 H   0  0  0  0  0  0  0  0  0  0  0  0
  1 13  1  0  0  0  0
  1 15  1  0  0  0  0
  2 14  1  0  0  0  0
  2 16  1  0  0  0  0
  3 15  2  0  0  0  0
  4 16  2  0  0  0  0
  5  9  1  0  0  0  0
  5 11  1  0  0  0  0
  5 15  1  0  0  0  0
  6 10  1  0  0  0  0
  6 12  1  0  0  0  0
  6 16  1  0  0  0  0
  7 11  1  0  0  0  0
  7 13  1  0  0  0  0
  7 27  1  0  0  0  0
  8 12  1  0  0  0  0
  8 14  1  0  0  0  0
  8 28  1  0  0  0  0
  9 10  1  0  0  0  0
  9 21  1  0  0  0  0
  9 22  1  0  0  0  0
 10 23  1  0  0  0  0
 10 24  1  0  0  0  0
 11 17  1  0  0  0  0
 11 25  1  0  0  0  0
 12 18  1  0  0  0  0
 12 26  1  0  0  0  0
 13 19  1  0  0  0  0
 13 29  1  0  0  0  0
 14 20  1  0  0  0  0
 14 30  1  0  0  0  0
 17 31  1  0  0  0  0
 17 32  1  0  0  0  0
 17 33  1  0  0  0  0
 18 34  1  0  0  0  0
 18 35  1  0  0  0  0
 18 36  1  0  0  0  0
 19 37  1  0  0  0  0
 19 38  1  0  0  0  0
 19 39  1  0  0  0  0
 20 40  1  0  0  0  0
 20 41  1  0  0  0  0
 20 42  1  0  0  0  0
M  END
> <PUBCHEM_COMPOUND_CID>
92200

> <PUBCHEM_CONFORMER_RMSD>
0.8

> <PUBCHEM_CONFORMER_DIVERSEORDER>
4
25
41
52
30
24
11
55
51
38
49
14
12
54
8
47
13
9
44
29
48
46
45
37
50
19
2
31
40
39
36
35
20
43
26
6
33
28
42
7
3
22
18
32
16
27
21
23
15
34
17
1
53
10
5

> <PUBCHEM_MMFF94_PARTIAL_CHARGES>
18
1 -0.37
10 0.3
11 0.57
12 0.57
13 0.5
14 0.5
15 0.58
16 0.58
2 -0.37
27 0.36
28 0.36
3 -0.38
4 -0.38
5 -0.66
6 -0.66
7 -0.9
8 -0.9
9 0.3

> <PUBCHEM_EFFECTIVE_ROTOR_COUNT>
5

> <PUBCHEM_PHARMACOPHORE_FEATURES>
8
1 3 acceptor
1 4 acceptor
1 7 cation
1 7 donor
1 8 cation
1 8 donor
6 1 5 7 11 13 15 rings
6 2 6 8 12 14 16 rings

> <PUBCHEM_HEAVY_ATOM_COUNT>
20

> <PUBCHEM_ATOM_DEF_STEREO_COUNT>
0

> <PUBCHEM_ATOM_UDEF_STEREO_COUNT>
4

> <PUBCHEM_BOND_DEF_STEREO_COUNT>
0

> <PUBCHEM_BOND_UDEF_STEREO_COUNT>
0

> <PUBCHEM_ISOTOPIC_ATOM_COUNT>
0

> <PUBCHEM_COMPONENT_COUNT>
1

> <PUBCHEM_CACTVS_TAUTO_COUNT>
1

> <PUBCHEM_CONFORMER_ID>
0001682800000004

> <PUBCHEM_MMFF94_ENERGY>
46.8454

> <PUBCHEM_FEATURE_SELFOVERLAP>
40.597

> <PUBCHEM_SHAPE_FINGERPRINT>
10863032 1 18336809957662677549
12011746 2 17978506765481436545
128993 33 18260828163728077350
14178342 30 18336277768460053688
14251745 187 18047742711792200602
14386348 128 18410854364922213230
15664445 248 17273980121175212247
16945 1 18116727222116952897
17492 54 16625173599607974020
18981168 100 18338530689059658089
19422 9 18338503201295772676
20600515 1 17552690015041580696
20645476 183 18263912409929652593
21524375 3 17534625112444610265
21634736 98 18341600551795437342
23419403 2 12739506147194279065
23566358 27 18270379664536445718
238 59 17550989929367665799
2818148 4 18338503201269431402
3323516 105 18194107526459834676
598444 67 17831298668075959079
81228 2 18118433797497476385

> <PUBCHEM_SHAPE_MULTIPOLES>
407.06
6.04
3.4
1.91
0.15
1.17
0.01
0.78
0.07
0.03
-0.03
-0.08
-0.44
-1.07

> <PUBCHEM_SHAPE_SELFOVERLAP>
763.346

> <PUBCHEM_SHAPE_VOLUME>
256.4

> <PUBCHEM_COORDINATE_TYPE>
2
5
10

$$$$

