5282054
  -OEChem-07051213022D

 33 33  0     1  0  0  0  0  0999 V2000
    4.7690    1.1830    0.0000 O   0  0  0  0  0  0  0  0  0  0  0  0
    6.1350   -1.1830    0.0000 O   0  0  0  0  0  0  0  0  0  0  0  0
    3.4030   -1.1830    0.0000 O   0  0  0  0  0  0  0  0  0  0  0  0
    2.5369    0.3170    0.0000 N   0  0  0  0  0  0  0  0  0  0  0  0
    5.2690    0.3170    0.0000 C   0  0  1  0  0  0  0  0  0  0  0  0
    4.2690    0.3170    0.0000 C   0  0  2  0  0  0  0  0  0  0  0  0
    6.1350   -0.1830    0.0000 C   0  0  0  0  0  0  0  0  0  0  0  0
    7.0010    0.3170    0.0000 C   0  0  0  0  0  0  0  0  0  0  0  0
    3.4030   -0.1830    0.0000 C   0  0  0  0  0  0  0  0  0  0  0  0
    7.8671   -0.1830    0.0000 C   0  0  0  0  0  0  0  0  0  0  0  0
    8.7331    0.3170    0.0000 C   0  0  0  0  0  0  0  0  0  0  0  0
    9.5991   -0.1830    0.0000 C   0  0  0  0  0  0  0  0  0  0  0  0
   10.4651    0.3170    0.0000 C   0  0  0  0  0  0  0  0  0  0  0  0
   11.3312   -0.1830    0.0000 C   0  0  0  0  0  0  0  0  0  0  0  0
   12.1972    0.3170    0.0000 C   0  0  0  0  0  0  0  0  0  0  0  0
   13.0632   -0.1830    0.0000 C   0  0  0  0  0  0  0  0  0  0  0  0
    5.7074    0.7554    0.0000 H   0  0  0  0  0  0  0  0  0  0  0  0
    3.8306    0.7554    0.0000 H   0  0  0  0  0  0  0  0  0  0  0  0
    7.3996    0.7919    0.0000 H   0  0  0  0  0  0  0  0  0  0  0  0
    6.6025    0.7919    0.0000 H   0  0  0  0  0  0  0  0  0  0  0  0
    7.4685   -0.6580    0.0000 H   0  0  0  0  0  0  0  0  0  0  0  0
    8.2656   -0.6580    0.0000 H   0  0  0  0  0  0  0  0  0  0  0  0
    8.7331    0.9370    0.0000 H   0  0  0  0  0  0  0  0  0  0  0  0
    2.0000    0.0070    0.0000 H   0  0  0  0  0  0  0  0  0  0  0  0
    2.5369    0.9370    0.0000 H   0  0  0  0  0  0  0  0  0  0  0  0
    9.5991   -0.8030    0.0000 H   0  0  0  0  0  0  0  0  0  0  0  0
   10.8637    0.7919    0.0000 H   0  0  0  0  0  0  0  0  0  0  0  0
   10.0666    0.7919    0.0000 H   0  0  0  0  0  0  0  0  0  0  0  0
   11.3312   -0.8030    0.0000 H   0  0  0  0  0  0  0  0  0  0  0  0
   12.1972    0.9370    0.0000 H   0  0  0  0  0  0  0  0  0  0  0  0
   12.7532   -0.7199    0.0000 H   0  0  0  0  0  0  0  0  0  0  0  0
   13.6002   -0.4930    0.0000 H   0  0  0  0  0  0  0  0  0  0  0  0
   13.3732    0.3539    0.0000 H   0  0  0  0  0  0  0  0  0  0  0  0
  1  5  1  0  0  0  0
  1  6  1  0  0  0  0
  2  7  2  0  0  0  0
  3  9  2  0  0  0  0
  4  9  1  0  0  0  0
  4 24  1  0  0  0  0
  4 25  1  0  0  0  0
  5  6  1  0  0  0  0
  5  7  1  6  0  0  0
  5 17  1  0  0  0  0
  6  9  1  6  0  0  0
  6 18  1  0  0  0  0
  7  8  1  0  0  0  0
  8 10  1  0  0  0  0
  8 19  1  0  0  0  0
  8 20  1  0  0  0  0
 10 11  1  0  0  0  0
 10 21  1  0  0  0  0
 10 22  1  0  0  0  0
 11 12  2  0  0  0  0
 11 23  1  0  0  0  0
 12 13  1  0  0  0  0
 12 26  1  0  0  0  0
 13 14  1  0  0  0  0
 13 27  1  0  0  0  0
 13 28  1  0  0  0  0
 14 15  2  0  0  0  0
 14 29  1  0  0  0  0
 15 16  1  0  0  0  0
 15 30  1  0  0  0  0
 16 31  1  0  0  0  0
 16 32  1  0  0  0  0
 16 33  1  0  0  0  0
M  END
> <PUBCHEM_COMPOUND_CID>
5282054

> <PUBCHEM_COMPOUND_CANONICALIZED>
1

> <PUBCHEM_CACTVS_COMPLEXITY>
320

> <PUBCHEM_CACTVS_HBOND_ACCEPTOR>
3

> <PUBCHEM_CACTVS_HBOND_DONOR>
1

> <PUBCHEM_CACTVS_ROTATABLE_BOND>
7

> <PUBCHEM_CACTVS_SUBSKEYS>
AAADceByMAAAAAAAAAAAAAAAEgAAAAAAAAAAAAAAAAAAAAAAAAAAHgAQAAAACBShgAICAABABACIAKFSEAIAAAAgAAAICAFAAAgCABYAgQQDAAAGsAAIAAOdyACAAAAAAAAAAAAAAAAAAAAAAAAAAAAAAA==

> <PUBCHEM_IUPAC_OPENEYE_NAME>
(2R,3S)-3-[(4E,7E)-nona-4,7-dienoyl]oxirane-2-carboxamide

> <PUBCHEM_IUPAC_CAS_NAME>
(2R,3S)-3-[(4E,7E)-1-oxonona-4,7-dienyl]-2-oxiranecarboxamide

> <PUBCHEM_IUPAC_NAME>
(2R,3S)-3-[(4E,7E)-nona-4,7-dienoyl]oxirane-2-carboxamide

> <PUBCHEM_IUPAC_SYSTEMATIC_NAME>
(2R,3S)-3-[(4E,7E)-nona-4,7-dienoyl]oxirane-2-carboxamide

> <PUBCHEM_IUPAC_TRADITIONAL_NAME>
(2R,3S)-3-[(4E,7E)-nona-4,7-dienoyl]oxirane-2-carboxamide

> <PUBCHEM_IUPAC_INCHI>
InChI=1S/C12H17NO3/c1-2-3-4-5-6-7-8-9(14)10-11(16-10)12(13)15/h2-3,5-6,10-11H,4,7-8H2,1H3,(H2,13,15)/b3-2+,6-5+/t10-,11-/m1/s1

> <PUBCHEM_IUPAC_INCHIKEY>
GVEZIHKRYBHEFX-NQQPLRFYSA-N

> <PUBCHEM_XLOGP3_AA>
0.8

> <PUBCHEM_EXACT_MASS>
223.120843

> <PUBCHEM_MOLECULAR_FORMULA>
C12H17NO3

> <PUBCHEM_MOLECULAR_WEIGHT>
223.26828

> <PUBCHEM_OPENEYE_CAN_SMILES>
CC=CCC=CCCC(=O)C1C(O1)C(=O)N

> <PUBCHEM_OPENEYE_ISO_SMILES>
C/C=C/C/C=C/CCC(=O)[C@@H]1[C@@H](O1)C(=O)N

> <PUBCHEM_CACTVS_TPSA>
72.7

> <PUBCHEM_MONOISOTOPIC_WEIGHT>
223.120843

> <PUBCHEM_TOTAL_CHARGE>
0

> <PUBCHEM_HEAVY_ATOM_COUNT>
16

> <PUBCHEM_ATOM_DEF_STEREO_COUNT>
2

> <PUBCHEM_ATOM_UDEF_STEREO_COUNT>
0

> <PUBCHEM_BOND_DEF_STEREO_COUNT>
2

> <PUBCHEM_BOND_UDEF_STEREO_COUNT>
0

> <PUBCHEM_ISOTOPIC_ATOM_COUNT>
0

> <PUBCHEM_COMPONENT_COUNT>
1

> <PUBCHEM_CACTVS_TAUTO_COUNT>
9

> <PUBCHEM_COORDINATE_TYPE>
1
5
255

> <PUBCHEM_BONDANNOTATIONS>
5  7  6
6  9  6

$$$$

