17396215
  -OEChem-06241222552D

 46 49  0     0  0  0  0  0  0999 V2000
    6.3301   -0.9654    0.0000 Br  0  0  0  0  0  0  0  0  0  0  0  0
    2.8220   -2.9722    0.0000 O   0  0  0  0  0  0  0  0  0  0  0  0
    4.6141   -4.0069    0.0000 O   0  0  0  0  0  0  0  0  0  0  0  0
    5.4641    4.5346    0.0000 O   0  0  0  0  0  0  0  0  0  0  0  0
    6.3301    0.0346    0.0000 O   0  0  0  0  0  0  0  0  0  0  0  0
    4.5981    3.0346    0.0000 N   0  0  0  0  0  0  0  0  0  0  0  0
    4.5981    2.0346    0.0000 N   0  0  0  0  0  0  0  0  0  0  0  0
    4.5981    0.0346    0.0000 N   0  0  0  0  0  0  0  0  0  0  0  0
    3.7320    3.5346    0.0000 C   0  0  0  0  0  0  0  0  0  0  0  0
    6.3301    2.0346    0.0000 C   0  0  0  0  0  0  0  0  0  0  0  0
    6.3301    3.0346    0.0000 C   0  0  0  0  0  0  0  0  0  0  0  0
    5.4641    1.5346    0.0000 C   0  0  0  0  0  0  0  0  0  0  0  0
    5.4641    3.5346    0.0000 C   0  0  0  0  0  0  0  0  0  0  0  0
    2.8660    3.0346    0.0000 C   0  0  0  0  0  0  0  0  0  0  0  0
    4.5981   -0.9654    0.0000 C   0  0  0  0  0  0  0  0  0  0  0  0
    3.7320   -2.4654    0.0000 C   0  0  0  0  0  0  0  0  0  0  0  0
    5.4641    0.5346    0.0000 C   0  0  0  0  0  0  0  0  0  0  0  0
    4.5981   -2.9654    0.0000 C   0  0  0  0  0  0  0  0  0  0  0  0
    7.2241    1.5000    0.0000 C   0  0  0  0  0  0  0  0  0  0  0  0
    7.2241    3.5693    0.0000 C   0  0  0  0  0  0  0  0  0  0  0  0
    3.7320   -1.4654    0.0000 C   0  0  0  0  0  0  0  0  0  0  0  0
    2.8140   -4.0138    0.0000 C   0  0  0  0  0  0  0  0  0  0  0  0
    3.7161   -4.5346    0.0000 C   0  0  0  0  0  0  0  0  0  0  0  0
    5.4641   -1.4654    0.0000 C   0  0  0  0  0  0  0  0  0  0  0  0
    5.4641   -2.4654    0.0000 C   0  0  0  0  0  0  0  0  0  0  0  0
    2.0000    3.5346    0.0000 C   0  0  0  0  0  0  0  0  0  0  0  0
    8.1301    2.0138    0.0000 C   0  0  0  0  0  0  0  0  0  0  0  0
    8.1301    3.0554    0.0000 C   0  0  0  0  0  0  0  0  0  0  0  0
    4.1306    4.0096    0.0000 H   0  0  0  0  0  0  0  0  0  0  0  0
    3.3335    4.0096    0.0000 H   0  0  0  0  0  0  0  0  0  0  0  0
    2.4675    2.5597    0.0000 H   0  0  0  0  0  0  0  0  0  0  0  0
    3.2646    2.5597    0.0000 H   0  0  0  0  0  0  0  0  0  0  0  0
    7.2169    0.8800    0.0000 H   0  0  0  0  0  0  0  0  0  0  0  0
    7.2169    4.1892    0.0000 H   0  0  0  0  0  0  0  0  0  0  0  0
    3.1951   -1.1554    0.0000 H   0  0  0  0  0  0  0  0  0  0  0  0
    4.0611    0.3446    0.0000 H   0  0  0  0  0  0  0  0  0  0  0  0
    2.2040   -3.9030    0.0000 H   0  0  0  0  0  0  0  0  0  0  0  0
    2.6005   -4.5959    0.0000 H   0  0  0  0  0  0  0  0  0  0  0  0
    3.3188   -5.0106    0.0000 H   0  0  0  0  0  0  0  0  0  0  0  0
    4.1171   -5.0075    0.0000 H   0  0  0  0  0  0  0  0  0  0  0  0
    6.0010   -2.7754    0.0000 H   0  0  0  0  0  0  0  0  0  0  0  0
    2.3100    4.0716    0.0000 H   0  0  0  0  0  0  0  0  0  0  0  0
    1.4631    3.8446    0.0000 H   0  0  0  0  0  0  0  0  0  0  0  0
    1.6900    2.9977    0.0000 H   0  0  0  0  0  0  0  0  0  0  0  0
    8.6659    1.7018    0.0000 H   0  0  0  0  0  0  0  0  0  0  0  0
    8.6659    3.3675    0.0000 H   0  0  0  0  0  0  0  0  0  0  0  0
  1 24  1  0  0  0  0
  2 16  1  0  0  0  0
  2 22  1  0  0  0  0
  3 18  1  0  0  0  0
  3 23  1  0  0  0  0
  4 13  2  0  0  0  0
  5 17  2  0  0  0  0
  6  7  1  0  0  0  0
  6  9  1  0  0  0  0
  6 13  1  0  0  0  0
  7 12  2  0  0  0  0
  8 15  1  0  0  0  0
  8 17  1  0  0  0  0
  8 36  1  0  0  0  0
  9 14  1  0  0  0  0
  9 29  1  0  0  0  0
  9 30  1  0  0  0  0
 10 11  1  0  0  0  0
 10 12  1  0  0  0  0
 10 19  2  0  0  0  0
 11 13  1  0  0  0  0
 11 20  2  0  0  0  0
 12 17  1  0  0  0  0
 14 26  1  0  0  0  0
 14 31  1  0  0  0  0
 14 32  1  0  0  0  0
 15 21  2  0  0  0  0
 15 24  1  0  0  0  0
 16 18  2  0  0  0  0
 16 21  1  0  0  0  0
 18 25  1  0  0  0  0
 19 27  1  0  0  0  0
 19 33  1  0  0  0  0
 20 28  1  0  0  0  0
 20 34  1  0  0  0  0
 21 35  1  0  0  0  0
 22 23  1  0  0  0  0
 22 37  1  0  0  0  0
 22 38  1  0  0  0  0
 23 39  1  0  0  0  0
 23 40  1  0  0  0  0
 24 25  2  0  0  0  0
 25 41  1  0  0  0  0
 26 42  1  0  0  0  0
 26 43  1  0  0  0  0
 26 44  1  0  0  0  0
 27 28  2  0  0  0  0
 27 45  1  0  0  0  0
 28 46  1  0  0  0  0
M  END
> <PUBCHEM_COMPOUND_CID>
17396215

> <PUBCHEM_COMPOUND_CANONICALIZED>
1

> <PUBCHEM_CACTVS_COMPLEXITY>
643

> <PUBCHEM_CACTVS_HBOND_ACCEPTOR>
5

> <PUBCHEM_CACTVS_HBOND_DONOR>
1

> <PUBCHEM_CACTVS_ROTATABLE_BOND>
4

> <PUBCHEM_CACTVS_SUBSKEYS>
AAADceB7OAAAEAAAAAAAAAAAAAAAAAAAAAA0YIEAAAAAAACRQAAAHgBYAAABrAzhmAYyxoLABACoAyVyUACSCAAlIgQaiAEu7PgNJrLEtZuGOSrm3hnK65e424OOgFAAAoAQQAgAoAAFACCAEAAAAAAAAA==

> <PUBCHEM_IUPAC_OPENEYE_NAME>
N-(6-bromo-2,3-dihydro-1,4-benzodioxin-7-yl)-4-oxo-3-propyl-phthalazine-1-carboxamide

> <PUBCHEM_IUPAC_CAS_NAME>
N-(6-bromo-2,3-dihydro-1,4-benzodioxin-7-yl)-4-oxo-3-propyl-1-phthalazinecarboxamide

> <PUBCHEM_IUPAC_NAME>
N-(6-bromo-2,3-dihydro-1,4-benzodioxin-7-yl)-4-oxo-3-propylphthalazine-1-carboxamide

> <PUBCHEM_IUPAC_SYSTEMATIC_NAME>
N-(6-bromanyl-2,3-dihydro-1,4-benzodioxin-7-yl)-4-oxidanylidene-3-propyl-phthalazine-1-carboxamide

> <PUBCHEM_IUPAC_TRADITIONAL_NAME>
N-(6-bromo-2,3-dihydro-1,4-benzodioxin-7-yl)-4-keto-3-propyl-phthalazine-1-carboxamide

> <PUBCHEM_IUPAC_INCHI>
InChI=1S/C20H18BrN3O4/c1-2-7-24-20(26)13-6-4-3-5-12(13)18(23-24)19(25)22-15-11-17-16(10-14(15)21)27-8-9-28-17/h3-6,10-11H,2,7-9H2,1H3,(H,22,25)

> <PUBCHEM_IUPAC_INCHIKEY>
DBVGRJBXHYRJQA-UHFFFAOYSA-N

> <PUBCHEM_XLOGP3_AA>
3.4

> <PUBCHEM_EXACT_MASS>
443.048068

> <PUBCHEM_MOLECULAR_FORMULA>
C20H18BrN3O4

> <PUBCHEM_MOLECULAR_WEIGHT>
444.27862

> <PUBCHEM_OPENEYE_CAN_SMILES>
CCCN1C(=O)C2=CC=CC=C2C(=N1)C(=O)NC3=CC4=C(C=C3Br)OCCO4

> <PUBCHEM_OPENEYE_ISO_SMILES>
CCCN1C(=O)C2=CC=CC=C2C(=N1)C(=O)NC3=CC4=C(C=C3Br)OCCO4

> <PUBCHEM_CACTVS_TPSA>
80.2

> <PUBCHEM_MONOISOTOPIC_WEIGHT>
443.048068

> <PUBCHEM_TOTAL_CHARGE>
0

> <PUBCHEM_HEAVY_ATOM_COUNT>
28

> <PUBCHEM_ATOM_DEF_STEREO_COUNT>
0

> <PUBCHEM_ATOM_UDEF_STEREO_COUNT>
0

> <PUBCHEM_BOND_DEF_STEREO_COUNT>
0

> <PUBCHEM_BOND_UDEF_STEREO_COUNT>
0

> <PUBCHEM_ISOTOPIC_ATOM_COUNT>
0

> <PUBCHEM_COMPONENT_COUNT>
1

> <PUBCHEM_CACTVS_TAUTO_COUNT>
2

> <PUBCHEM_COORDINATE_TYPE>
1
5
255

> <PUBCHEM_BONDANNOTATIONS>
10  11  8
10  12  8
10  19  8
11  13  8
11  20  8
15  21  8
15  24  8
16  18  8
16  21  8
18  25  8
19  27  8
20  28  8
24  25  8
27  28  8
6  13  8
6  7  8
7  12  8

$$$$

