102526
  -OEChem-07051212483D

 22 22  0     1  0  0  0  0  0999 V2000
   -3.7337    0.2411   -0.3549 O   0  0  0  0  0  0  0  0  0  0  0  0
    3.9822    0.4378    0.0138 O   0  0  0  0  0  0  0  0  0  0  0  0
   -1.9581    1.6394   -0.5212 O   0  0  0  0  0  0  0  0  0  0  0  0
   -1.5402   -0.7168   -0.0314 C   0  0  1  0  0  0  0  0  0  0  0  0
   -0.0807   -0.4114   -0.0197 C   0  0  0  0  0  0  0  0  0  0  0  0
   -2.0553   -1.3600    1.2723 C   0  0  0  0  0  0  0  0  0  0  0  0
    0.7663   -1.0172   -0.9476 C   0  0  0  0  0  0  0  0  0  0  0  0
    0.4375    0.4799    0.9199 C   0  0  0  0  0  0  0  0  0  0  0  0
   -2.4025    0.5149   -0.3303 C   0  0  0  0  0  0  0  0  0  0  0  0
    2.1317   -0.7320   -0.9358 C   0  0  0  0  0  0  0  0  0  0  0  0
    1.8029    0.7652    0.9315 C   0  0  0  0  0  0  0  0  0  0  0  0
    2.6499    0.1592    0.0037 C   0  0  0  0  0  0  0  0  0  0  0  0
   -1.7459   -1.4203   -0.8500 H   0  0  0  0  0  0  0  0  0  0  0  0
   -1.4399   -2.2238    1.5472 H   0  0  0  0  0  0  0  0  0  0  0  0
   -2.0363   -0.6512    2.1077 H   0  0  0  0  0  0  0  0  0  0  0  0
   -3.0876   -1.7095    1.1623 H   0  0  0  0  0  0  0  0  0  0  0  0
    0.3794   -1.7141   -1.6863 H   0  0  0  0  0  0  0  0  0  0  0  0
   -0.2053    0.9614    1.6519 H   0  0  0  0  0  0  0  0  0  0  0  0
    2.7810   -1.2105   -1.6640 H   0  0  0  0  0  0  0  0  0  0  0  0
    2.2008    1.4602    1.6658 H   0  0  0  0  0  0  0  0  0  0  0  0
   -4.2678    1.0423   -0.5425 H   0  0  0  0  0  0  0  0  0  0  0  0
    4.4153   -0.0682   -0.6951 H   0  0  0  0  0  0  0  0  0  0  0  0
  1  9  1  0  0  0  0
  1 21  1  0  0  0  0
  2 12  1  0  0  0  0
  2 22  1  0  0  0  0
  3  9  2  0  0  0  0
  4  5  1  0  0  0  0
  4  6  1  0  0  0  0
  4  9  1  0  0  0  0
  4 13  1  0  0  0  0
  5  7  2  0  0  0  0
  5  8  1  0  0  0  0
  6 14  1  0  0  0  0
  6 15  1  0  0  0  0
  6 16  1  0  0  0  0
  7 10  1  0  0  0  0
  7 17  1  0  0  0  0
  8 11  2  0  0  0  0
  8 18  1  0  0  0  0
 10 12  2  0  0  0  0
 10 19  1  0  0  0  0
 11 12  1  0  0  0  0
 11 20  1  0  0  0  0
M  END
> <PUBCHEM_COMPOUND_CID>
102526

> <PUBCHEM_CONFORMER_RMSD>
0.6

> <PUBCHEM_CONFORMER_DIVERSEORDER>
1
3
5
2
4

> <PUBCHEM_MMFF94_PARTIAL_CHARGES>
17
1 -0.65
10 -0.15
11 -0.15
12 0.08
17 0.15
18 0.15
19 0.15
2 -0.53
20 0.15
21 0.5
22 0.45
3 -0.57
4 0.2
5 -0.14
7 -0.15
8 -0.15
9 0.66

> <PUBCHEM_EFFECTIVE_ROTOR_COUNT>
2

> <PUBCHEM_PHARMACOPHORE_FEATURES>
6
1 1 acceptor
1 2 donor
1 3 acceptor
1 6 hydrophobe
3 1 3 9 anion
6 5 7 8 10 11 12 rings

> <PUBCHEM_HEAVY_ATOM_COUNT>
12

> <PUBCHEM_ATOM_DEF_STEREO_COUNT>
0

> <PUBCHEM_ATOM_UDEF_STEREO_COUNT>
1

> <PUBCHEM_BOND_DEF_STEREO_COUNT>
0

> <PUBCHEM_BOND_UDEF_STEREO_COUNT>
0

> <PUBCHEM_ISOTOPIC_ATOM_COUNT>
0

> <PUBCHEM_COMPONENT_COUNT>
1

> <PUBCHEM_CACTVS_TAUTO_COUNT>
2

> <PUBCHEM_CONFORMER_ID>
0001907E00000001

> <PUBCHEM_MMFF94_ENERGY>
26.9342

> <PUBCHEM_FEATURE_SELFOVERLAP>
30.505

> <PUBCHEM_SHAPE_FINGERPRINT>
11031198 65 18113335323149979821
12138202 97 18341621407935321199
124424 183 18410299129167866618
12716758 59 18201713006981405579
12932764 1 18261390018665590502
13839132 238 18270685410141367413
14993402 34 15864070966309614500
15219456 202 18335413590796121702
15775835 57 17749112175090530933
16945 1 17458337529417286538
17844478 74 18336251363059113835
18534176 82 18342737390704434075
20201158 50 18187082866538732671
21293036 1 17530686498152129444
23402539 116 18272381862383752791
23402655 69 17676776473879242117
2748010 2 17098346294349689290
276578 36 17559955592362672417
305870 269 17487346081915498491
3248919 1 17775567515924499710
5084963 1 17750240196732472314
528886 8 17385729092632886986
77492 1 16200431342917478739

> <PUBCHEM_SHAPE_MULTIPOLES>
229.35
5.26
1.25
1.08
0.48
0.03
0.23
0.78
-0.46
-0.25
-0.05
-0.27
-0.14
0.87

> <PUBCHEM_SHAPE_SELFOVERLAP>
476.405

> <PUBCHEM_SHAPE_VOLUME>
130.6

> <PUBCHEM_COORDINATE_TYPE>
2
5
10

$$$$

