6300471
  -OEChem-07051213063D

 35 36  0     0  0  0  0  0  0999 V2000
   -5.6403   -0.1717   -0.3821 O   0  0  0  0  0  0  0  0  0  0  0  0
    0.6957    1.6800    1.8541 O   0  0  0  0  0  0  0  0  0  0  0  0
    0.9863    2.4131   -0.2758 O   0  0  0  0  0  0  0  0  0  0  0  0
    2.8990   -0.4080   -1.0327 N   0  0  0  0  0  0  0  0  0  0  0  0
   -1.5211    0.1529    0.0144 C   0  0  0  0  0  0  0  0  0  0  0  0
   -0.0779    0.2669    0.1531 C   0  0  0  0  0  0  0  0  0  0  0  0
    0.7710   -0.7785   -0.0328 C   0  0  0  0  0  0  0  0  0  0  0  0
    2.2331   -0.7033    0.0981 C   0  0  0  0  0  0  0  0  0  0  0  0
   -2.1560   -1.0564    0.2974 C   0  0  0  0  0  0  0  0  0  0  0  0
   -2.2705    1.2531   -0.4023 C   0  0  0  0  0  0  0  0  0  0  0  0
   -4.2895   -0.0654   -0.2530 C   0  0  0  0  0  0  0  0  0  0  0  0
   -3.5401   -1.1655    0.1638 C   0  0  0  0  0  0  0  0  0  0  0  0
   -3.6547    1.1440   -0.5360 C   0  0  0  0  0  0  0  0  0  0  0  0
    4.2445   -0.3387   -0.9211 C   0  0  0  0  0  0  0  0  0  0  0  0
    2.8149   -0.9331    1.3257 C   0  0  0  0  0  0  0  0  0  0  0  0
    4.9369   -0.5505    0.2601 C   0  0  0  0  0  0  0  0  0  0  0  0
    4.2011   -0.8531    1.4005 C   0  0  0  0  0  0  0  0  0  0  0  0
    0.5902    1.5646    0.5086 C   0  0  0  0  0  0  0  0  0  0  0  0
    5.0018   -0.0137   -2.1653 C   0  0  0  0  0  0  0  0  0  0  0  0
   -6.2243   -1.4367   -0.0747 C   0  0  0  0  0  0  0  0  0  0  0  0
    0.4122   -1.7589   -0.3345 H   0  0  0  0  0  0  0  0  0  0  0  0
   -1.6097   -1.9291    0.6456 H   0  0  0  0  0  0  0  0  0  0  0  0
   -1.8034    2.2059   -0.6369 H   0  0  0  0  0  0  0  0  0  0  0  0
   -3.9695   -2.1320    0.4048 H   0  0  0  0  0  0  0  0  0  0  0  0
   -4.2332    2.0040   -0.8623 H   0  0  0  0  0  0  0  0  0  0  0  0
    2.2322   -1.1696    2.2096 H   0  0  0  0  0  0  0  0  0  0  0  0
    6.0188   -0.4855    0.3060 H   0  0  0  0  0  0  0  0  0  0  0  0
    4.7069   -1.0261    2.3456 H   0  0  0  0  0  0  0  0  0  0  0  0
    5.6894   -0.8278   -2.4161 H   0  0  0  0  0  0  0  0  0  0  0  0
    4.3234    0.1284   -3.0130 H   0  0  0  0  0  0  0  0  0  0  0  0
    5.5738    0.9101   -2.0325 H   0  0  0  0  0  0  0  0  0  0  0  0
   -6.0774   -1.7026    0.9776 H   0  0  0  0  0  0  0  0  0  0  0  0
   -5.8700   -2.2194   -0.7541 H   0  0  0  0  0  0  0  0  0  0  0  0
   -7.3036   -1.3412   -0.2324 H   0  0  0  0  0  0  0  0  0  0  0  0
    1.1288    2.5200    2.1173 H   0  0  0  0  0  0  0  0  0  0  0  0
  1 11  1  0  0  0  0
  1 20  1  0  0  0  0
  2 18  1  0  0  0  0
  2 35  1  0  0  0  0
  3 18  2  0  0  0  0
  4  8  1  0  0  0  0
  4 14  2  0  0  0  0
  5  6  1  0  0  0  0
  5  9  2  0  0  0  0
  5 10  1  0  0  0  0
  6  7  2  0  0  0  0
  6 18  1  0  0  0  0
  7  8  1  0  0  0  0
  7 21  1  0  0  0  0
  8 15  2  0  0  0  0
  9 12  1  0  0  0  0
  9 22  1  0  0  0  0
 10 13  2  0  0  0  0
 10 23  1  0  0  0  0
 11 12  2  0  0  0  0
 11 13  1  0  0  0  0
 12 24  1  0  0  0  0
 13 25  1  0  0  0  0
 14 16  1  0  0  0  0
 14 19  1  0  0  0  0
 15 17  1  0  0  0  0
 15 26  1  0  0  0  0
 16 17  2  0  0  0  0
 16 27  1  0  0  0  0
 17 28  1  0  0  0  0
 19 29  1  0  0  0  0
 19 30  1  0  0  0  0
 19 31  1  0  0  0  0
 20 32  1  0  0  0  0
 20 33  1  0  0  0  0
 20 34  1  0  0  0  0
M  END
> <PUBCHEM_COMPOUND_CID>
6300471

> <PUBCHEM_CONFORMER_RMSD>
0.6

> <PUBCHEM_CONFORMER_DIVERSEORDER>
4
12
18
9
22
13
2
5
8
15
16
17
19
21
1
11
10
7
14
3
20
6

> <PUBCHEM_MMFF94_PARTIAL_CHARGES>
29
1 -0.36
10 -0.15
11 0.08
12 -0.15
13 -0.15
14 0.17
15 -0.15
16 -0.15
17 -0.15
18 0.71
19 0.14
2 -0.65
20 0.28
21 0.15
22 0.15
23 0.15
24 0.15
25 0.15
26 0.15
27 0.15
28 0.15
3 -0.57
35 0.5
4 -0.62
5 0.03
6 -0.01
7 -0.18
8 0.34
9 -0.15

> <PUBCHEM_EFFECTIVE_ROTOR_COUNT>
4

> <PUBCHEM_PHARMACOPHORE_FEATURES>
7
1 1 acceptor
1 2 acceptor
1 3 acceptor
1 4 acceptor
3 2 3 18 anion
6 4 8 14 15 16 17 rings
6 5 9 10 11 12 13 rings

> <PUBCHEM_HEAVY_ATOM_COUNT>
20

> <PUBCHEM_ATOM_DEF_STEREO_COUNT>
0

> <PUBCHEM_ATOM_UDEF_STEREO_COUNT>
0

> <PUBCHEM_BOND_DEF_STEREO_COUNT>
1

> <PUBCHEM_BOND_UDEF_STEREO_COUNT>
0

> <PUBCHEM_ISOTOPIC_ATOM_COUNT>
0

> <PUBCHEM_COMPONENT_COUNT>
1

> <PUBCHEM_CACTVS_TAUTO_COUNT>
1

> <PUBCHEM_CONFORMER_ID>
0060233700000004

> <PUBCHEM_MMFF94_ENERGY>
76.37

> <PUBCHEM_FEATURE_SELFOVERLAP>
35.578

> <PUBCHEM_SHAPE_FINGERPRINT>
10366900 7 18342455928992622147
10595046 47 17418373597219820951
10912923 1 17846779649918582753
12107183 9 16838841015470744785
12236239 1 17703792547798414658
12516196 113 17821730524401110024
14252887 29 17313106367067131258
14341114 176 14490189410156452306
14386348 63 17894912944635945374
14528608 73 17632287965565715558
17804303 29 18409733950263523177
17834072 33 17632858616158173319
1813 80 16153692233434789000
18222031 100 18113616785363198598
18681886 176 18272934938772025242
19141452 34 16950289477104962559
19784866 240 17458335330610334831
200 152 17775286105804607410
20028762 73 17896045352099490711
20374829 77 18412831274682543911
20871999 31 18343014519153187653
21033648 29 16371022848526491499
21033650 10 17913468393113172340
21267235 1 18411415111979463379
2297311 6 18187356653787727757
23175994 123 17603304851947723305
23402539 116 17918001611183110559
23522609 53 18128228225946052493
23536379 177 16773801419812195207
23557571 272 18042113405373351468
23559900 14 18270688554611309257
29717793 49 17917430973106802158
3004659 81 17917152809797848690
3411729 13 18117571626084432840
345986 75 4750322796041466894
34797466 226 18186793652516414124
350125 39 18413108381799204085
465052 167 18409444752819992103
474 4 15625927713059010182
5104073 3 18336544911879873729
542803 24 17060337444007878863
69090 78 14548729612758821056
7164475 11 17772757302096369668
7495541 125 18202002097177484737
8272917 22 5545201627464467732
8863177 126 18057033602802349203
9971528 1 17167863053916768864

> <PUBCHEM_SHAPE_MULTIPOLES>
389
12.46
1.63
1.32
6.91
0.64
0.05
-4.45
3.62
0.63
-0.32
-2.13
0.18
-0.51

> <PUBCHEM_SHAPE_SELFOVERLAP>
834.461

> <PUBCHEM_SHAPE_VOLUME>
215.5

> <PUBCHEM_COORDINATE_TYPE>
2
5
10

$$$$

