121992
  -OEChem-07051212453D

 37 38  0     1  0  0  0  0  0999 V2000
    3.5310    1.6365    0.1050 P   0  0  0  0  0  0  0  0  0  0  0  0
    0.4977   -1.2586    1.1311 O   0  0  0  0  0  0  0  0  0  0  0  0
    1.0562   -4.1035    0.1996 O   0  0  0  0  0  0  0  0  0  0  0  0
   -1.1591   -3.4169   -1.2159 O   0  0  0  0  0  0  0  0  0  0  0  0
    2.7696    0.3107    0.6381 O   0  0  0  0  0  0  0  0  0  0  0  0
    2.5122    2.2494   -0.9911 O   0  0  0  0  0  0  0  0  0  0  0  0
    4.7267    1.0281   -0.7978 O   0  0  0  0  0  0  0  0  0  0  0  0
    3.9690    2.5901    1.1778 O   0  0  0  0  0  0  0  0  0  0  0  0
   -0.6836    3.0190   -0.3178 O   0  0  0  0  0  0  0  0  0  0  0  0
   -2.8242    3.7766   -0.4199 O   0  0  0  0  0  0  0  0  0  0  0  0
   -1.7656   -0.7941    0.3846 N   0  3  0  0  0  0  0  0  0  0  0  0
    1.1145   -2.8664   -0.5108 C   0  0  1  0  0  0  0  0  0  0  0  0
   -0.2927   -2.3824   -0.7982 C   0  0  2  0  0  0  0  0  0  0  0  0
    1.6448   -1.7860    0.4261 C   0  0  1  0  0  0  0  0  0  0  0  0
   -0.6974   -1.8122    0.5492 C   0  0  1  0  0  0  0  0  0  0  0  0
    2.3236   -0.6408   -0.3123 C   0  0  0  0  0  0  0  0  0  0  0  0
   -1.4238    0.4857    0.1490 C   0  0  0  0  0  0  0  0  0  0  0  0
   -3.0534   -1.1732    0.4742 C   0  0  0  0  0  0  0  0  0  0  0  0
   -2.4011    1.4578   -0.0099 C   0  0  0  0  0  0  0  0  0  0  0  0
   -4.0730   -0.2442    0.3240 C   0  0  0  0  0  0  0  0  0  0  0  0
   -3.7388    1.0845    0.0794 C   0  0  0  0  0  0  0  0  0  0  0  0
   -2.0326    2.8399   -0.2645 C   0  0  0  0  0  0  0  0  0  0  0  0
    1.7120   -3.0259   -1.4128 H   0  0  0  0  0  0  0  0  0  0  0  0
   -0.2776   -1.6062   -1.5714 H   0  0  0  0  0  0  0  0  0  0  0  0
    2.3215   -2.1904    1.1873 H   0  0  0  0  0  0  0  0  0  0  0  0
   -1.0784   -2.5762    1.2382 H   0  0  0  0  0  0  0  0  0  0  0  0
    1.6282   -0.1509   -1.0002 H   0  0  0  0  0  0  0  0  0  0  0  0
    3.1793   -1.0173   -0.8812 H   0  0  0  0  0  0  0  0  0  0  0  0
    1.9704   -4.3609    0.4084 H   0  0  0  0  0  0  0  0  0  0  0  0
   -1.1284   -4.1230   -0.5481 H   0  0  0  0  0  0  0  0  0  0  0  0
   -0.3657    0.6969    0.0805 H   0  0  0  0  0  0  0  0  0  0  0  0
   -3.2507   -2.2218    0.6621 H   0  0  0  0  0  0  0  0  0  0  0  0
   -5.1118   -0.5484    0.3948 H   0  0  0  0  0  0  0  0  0  0  0  0
   -4.5349    1.8146   -0.0390 H   0  0  0  0  0  0  0  0  0  0  0  0
    2.7273    3.1097   -1.4104 H   0  0  0  0  0  0  0  0  0  0  0  0
    5.3995    1.6384   -1.1679 H   0  0  0  0  0  0  0  0  0  0  0  0
   -0.4461    3.9551   -0.4897 H   0  0  0  0  0  0  0  0  0  0  0  0
  1  5  1  0  0  0  0
  1  6  1  0  0  0  0
  1  7  1  0  0  0  0
  1  8  2  0  0  0  0
  2 14  1  0  0  0  0
  2 15  1  0  0  0  0
  3 12  1  0  0  0  0
  3 29  1  0  0  0  0
  4 13  1  0  0  0  0
  4 30  1  0  0  0  0
  5 16  1  0  0  0  0
  6 35  1  0  0  0  0
  7 36  1  0  0  0  0
  9 22  1  0  0  0  0
  9 37  1  0  0  0  0
 10 22  2  0  0  0  0
 11 15  1  0  0  0  0
 11 17  1  0  0  0  0
 11 18  2  0  0  0  0
 12 13  1  0  0  0  0
 12 14  1  0  0  0  0
 12 23  1  0  0  0  0
 13 15  1  0  0  0  0
 13 24  1  0  0  0  0
 14 16  1  0  0  0  0
 14 25  1  0  0  0  0
 15 26  1  0  0  0  0
 16 27  1  0  0  0  0
 16 28  1  0  0  0  0
 17 19  2  0  0  0  0
 17 31  1  0  0  0  0
 18 20  1  0  0  0  0
 18 32  1  0  0  0  0
 19 21  1  0  0  0  0
 19 22  1  0  0  0  0
 20 21  2  0  0  0  0
 20 33  1  0  0  0  0
 21 34  1  0  0  0  0
M  CHG  1  11   1
M  END
> <PUBCHEM_COMPOUND_CID>
121992

> <PUBCHEM_CONFORMER_RMSD>
0.8

> <PUBCHEM_CONFORMER_DIVERSEORDER>
1
20
33
6
43
64
48
21
32
40
23
5
42
41
16
63
37
3
55
50
59
62
13
38
7
4
39
54
56
29
27
36
31
46
18
24
57
26
9
34
44
22
49
17
28
25
61
45
8
60
52
30
10
12
19
14
35
58
15
51
47
53
11
2

> <PUBCHEM_MMFF94_PARTIAL_CHARGES>
31
1 1.51
10 -0.57
11 -0.21
12 0.28
13 0.28
14 0.28
15 0.77
16 0.28
17 0.21
18 0.21
19 0.09
2 -0.56
20 -0.15
21 -0.15
22 0.63
29 0.4
3 -0.68
30 0.4
31 0.15
32 0.15
33 0.15
34 0.15
35 0.5
36 0.5
37 0.5
4 -0.68
5 -0.55
6 -0.77
7 -0.77
8 -0.7
9 -0.65

> <PUBCHEM_EFFECTIVE_ROTOR_COUNT>
6

> <PUBCHEM_PHARMACOPHORE_FEATURES>
14
1 10 acceptor
1 2 acceptor
1 3 acceptor
1 3 donor
1 4 acceptor
1 4 donor
1 6 acceptor
1 7 acceptor
1 8 acceptor
1 9 acceptor
3 9 10 22 anion
4 1 6 7 8 anion
5 2 12 13 14 15 rings
6 11 17 18 19 20 21 rings

> <PUBCHEM_HEAVY_ATOM_COUNT>
22

> <PUBCHEM_ATOM_DEF_STEREO_COUNT>
4

> <PUBCHEM_ATOM_UDEF_STEREO_COUNT>
0

> <PUBCHEM_BOND_DEF_STEREO_COUNT>
0

> <PUBCHEM_BOND_UDEF_STEREO_COUNT>
0

> <PUBCHEM_ISOTOPIC_ATOM_COUNT>
0

> <PUBCHEM_COMPONENT_COUNT>
1

> <PUBCHEM_CACTVS_TAUTO_COUNT>
1

> <PUBCHEM_CONFORMER_ID>
0001DC8800000001

> <PUBCHEM_MMFF94_ENERGY>
28.0185

> <PUBCHEM_FEATURE_SELFOVERLAP>
71.149

> <PUBCHEM_SHAPE_FINGERPRINT>
10498660 4 18411422782590431597
10608611 8 18050850219552325843
10616163 171 18413665824903016385
10670039 82 18271794706227130436
10871710 139 18050004385466622118
1100329 8 17617941331757083571
11221954 11 18270112564562099625
11578080 2 16557637519595932159
116883 192 16317806781742019798
12173636 292 18265055738966854430
12403260 363 18267881655543519787
12553582 1 17403164903381996988
138480 1 17689999359290724676
14026960 21 18411415141901887699
14223421 5 18269268139864114957
14251757 17 17970887055538302246
14251757 5 18052233130634724452
14466204 15 18267871769135440234
14648413 74 17978227484895729067
14787075 74 17557417683297906683
14790565 3 18265884783941313945
17492 54 18267600021990408751
17980427 23 17690881107376038907
19591789 44 18122902028200500451
19930381 70 18410857676648239457
20567600 299 17902806484778047056
20621476 13 17620202360975524836
21524375 3 18410007741296100962
21618674 68 18338236076368923647
21860390 5 17397275300443599085
22113638 7 18125160429126329477
23227448 37 18045503010722020564
23557571 272 17682954397903337624
23558518 356 18129654335323482753
23559900 14 17977113675521992331
238 59 17908174261742321533
350125 39 18338509867100450722
3524813 1 18334294228098737224
44154327 71 18340201895220650309
5939293 188 17763470916623466274
6287921 2 18264759033956808837
7097593 13 17268644496231160387
7364860 26 18121216742788669190
81228 2 17686630039062278994
9709674 26 18122627429677531135
9981440 41 18342740714951294562

> <PUBCHEM_SHAPE_MULTIPOLES>
398.79
6.97
4.95
0.92
2.39
0.46
0.01
-5.65
-0.33
0.56
0.91
0.35
0.12
0.44

> <PUBCHEM_SHAPE_SELFOVERLAP>
824.818

> <PUBCHEM_SHAPE_VOLUME>
231.1

> <PUBCHEM_COORDINATE_TYPE>
2
5
10

$$$$

