5282036
  -OEChem-07051213023D

 83 84  0     1  0  0  0  0  0999 V2000
   -1.4663    0.8242    0.6858 O   0  0  0  0  0  0  0  0  0  0  0  0
   -1.2245    1.5428   -1.5410 O   0  0  0  0  0  0  0  0  0  0  0  0
   -1.2866   -1.2919   -2.2618 O   0  0  0  0  0  0  0  0  0  0  0  0
   -1.5821   -2.3599    1.9257 O   0  0  0  0  0  0  0  0  0  0  0  0
    2.3859   -1.8760   -0.0154 O   0  0  0  0  0  0  0  0  0  0  0  0
    3.0062    3.7391    0.9193 O   0  0  0  0  0  0  0  0  0  0  0  0
    0.1830   -2.1768   -0.6414 O   0  0  0  0  0  0  0  0  0  0  0  0
   -4.1592   -0.9347   -0.1141 N   0  0  0  0  0  0  0  0  0  0  0  0
   -0.3574    0.7829    1.5882 C   0  0  1  0  0  0  0  0  0  0  0  0
   -3.3554   -0.5108   -1.2626 C   0  0  2  0  0  0  0  0  0  0  0  0
   -1.8565   -0.7981   -1.0471 C   0  0  2  0  0  0  0  0  0  0  0  0
   -0.1006    2.2232    2.0983 C   0  0  2  0  0  0  0  0  0  0  0  0
   -1.0728    0.4487   -0.6322 C   0  0  2  0  0  0  0  0  0  0  0  0
   -3.6143    0.9818   -1.5182 C   0  0  0  0  0  0  0  0  0  0  0  0
   -0.6291   -0.2653    2.6924 C   0  0  2  0  0  0  0  0  0  0  0  0
   -2.4454    1.5948   -2.2847 C   0  0  1  0  0  0  0  0  0  0  0  0
    0.0725    3.2617    0.9515 C   0  0  0  0  0  0  0  0  0  0  0  0
    1.0385    2.9040   -0.1975 C   0  0  1  0  0  0  0  0  0  0  0  0
    1.0555    2.2870    3.1008 C   0  0  0  0  0  0  0  0  0  0  0  0
   -0.5677   -1.6839    2.1036 C   0  0  0  0  0  0  0  0  0  0  0  0
   -1.9571   -0.0489    3.4209 C   0  0  0  0  0  0  0  0  0  0  0  0
   -2.7106    3.0561   -2.6236 C   0  0  0  0  0  0  0  0  0  0  0  0
    0.8123   -2.2053    1.7006 C   0  0  1  0  0  0  0  0  0  0  0  0
   -3.9421   -2.3533    0.1645 C   0  0  0  0  0  0  0  0  0  0  0  0
   -5.5765   -0.6718   -0.3590 C   0  0  0  0  0  0  0  0  0  0  0  0
    0.9607    3.9592   -1.3035 C   0  0  0  0  0  0  0  0  0  0  0  0
    2.4879    2.8256    0.2747 C   0  0  0  0  0  0  0  0  0  0  0  0
    0.9804   -3.6573    2.1314 C   0  0  0  0  0  0  0  0  0  0  0  0
    1.0577   -2.0905    0.2101 C   0  0  0  0  0  0  0  0  0  0  0  0
    2.8173   -1.6542   -1.3783 C   0  0  1  0  0  0  0  0  0  0  0  0
    3.8315   -0.4815   -1.3958 C   0  0  1  0  0  0  0  0  0  0  0  0
    3.3024    1.6095   -0.0119 C   0  0  0  0  0  0  0  0  0  0  0  0
    3.0886    0.8026   -1.0603 C   0  0  0  0  0  0  0  0  0  0  0  0
    3.3981   -2.9641   -1.9019 C   0  0  0  0  0  0  0  0  0  0  0  0
    5.0641   -0.7471   -0.5212 C   0  0  0  0  0  0  0  0  0  0  0  0
    2.3616   -4.0719   -1.8963 C   0  0  0  0  0  0  0  0  0  0  0  0
    0.5685    0.4720    1.0944 H   0  0  0  0  0  0  0  0  0  0  0  0
   -3.6808   -1.0643   -2.1561 H   0  0  0  0  0  0  0  0  0  0  0  0
   -1.7252   -1.5382   -0.2855 H   0  0  0  0  0  0  0  0  0  0  0  0
   -0.9991    2.5568    2.6356 H   0  0  0  0  0  0  0  0  0  0  0  0
   -0.0173    0.1885   -0.7030 H   0  0  0  0  0  0  0  0  0  0  0  0
   -4.5401    1.1177   -2.0907 H   0  0  0  0  0  0  0  0  0  0  0  0
   -3.7290    1.5241   -0.5694 H   0  0  0  0  0  0  0  0  0  0  0  0
    0.1628   -0.2329    3.4496 H   0  0  0  0  0  0  0  0  0  0  0  0
   -2.2978    1.0605   -3.2300 H   0  0  0  0  0  0  0  0  0  0  0  0
    0.3628    4.2257    1.3906 H   0  0  0  0  0  0  0  0  0  0  0  0
   -0.9211    3.4328    0.5150 H   0  0  0  0  0  0  0  0  0  0  0  0
    0.7940    1.9575   -0.6348 H   0  0  0  0  0  0  0  0  0  0  0  0
    0.7674    1.8342    4.0551 H   0  0  0  0  0  0  0  0  0  0  0  0
    1.9409    1.7572    2.7394 H   0  0  0  0  0  0  0  0  0  0  0  0
    1.3361    3.3230    3.3178 H   0  0  0  0  0  0  0  0  0  0  0  0
   -1.9700    0.9113    3.9448 H   0  0  0  0  0  0  0  0  0  0  0  0
   -2.8088   -0.0755    2.7332 H   0  0  0  0  0  0  0  0  0  0  0  0
   -2.1186   -0.8340    4.1681 H   0  0  0  0  0  0  0  0  0  0  0  0
   -1.8814    3.4691   -3.2076 H   0  0  0  0  0  0  0  0  0  0  0  0
   -3.6313    3.1708   -3.2037 H   0  0  0  0  0  0  0  0  0  0  0  0
   -2.7896    3.6611   -1.7136 H   0  0  0  0  0  0  0  0  0  0  0  0
    1.5572   -1.5965    2.2276 H   0  0  0  0  0  0  0  0  0  0  0  0
   -1.0602   -0.5436   -2.8365 H   0  0  0  0  0  0  0  0  0  0  0  0
   -4.4966   -2.9675   -0.5587 H   0  0  0  0  0  0  0  0  0  0  0  0
   -4.3532   -2.5848    1.1546 H   0  0  0  0  0  0  0  0  0  0  0  0
   -2.9417   -2.7712    0.1534 H   0  0  0  0  0  0  0  0  0  0  0  0
   -5.8078    0.3980   -0.3490 H   0  0  0  0  0  0  0  0  0  0  0  0
   -6.1838   -1.1007    0.4478 H   0  0  0  0  0  0  0  0  0  0  0  0
   -5.9287   -1.1036   -1.3031 H   0  0  0  0  0  0  0  0  0  0  0  0
    1.6199    3.6974   -2.1384 H   0  0  0  0  0  0  0  0  0  0  0  0
   -0.0562    4.0540   -1.6920 H   0  0  0  0  0  0  0  0  0  0  0  0
    1.2733    4.9436   -0.9373 H   0  0  0  0  0  0  0  0  0  0  0  0
    0.7779   -3.7745    3.2013 H   0  0  0  0  0  0  0  0  0  0  0  0
    0.2960   -4.3180    1.5870 H   0  0  0  0  0  0  0  0  0  0  0  0
    1.9996   -4.0072    1.9349 H   0  0  0  0  0  0  0  0  0  0  0  0
    1.9611   -1.3749   -2.0078 H   0  0  0  0  0  0  0  0  0  0  0  0
    4.1921   -0.3634   -2.4269 H   0  0  0  0  0  0  0  0  0  0  0  0
    4.0963    1.4153    0.7012 H   0  0  0  0  0  0  0  0  0  0  0  0
    2.3137    1.0555   -1.7805 H   0  0  0  0  0  0  0  0  0  0  0  0
    4.2349   -3.2987   -1.2794 H   0  0  0  0  0  0  0  0  0  0  0  0
    3.7753   -2.8228   -2.9210 H   0  0  0  0  0  0  0  0  0  0  0  0
    4.7940   -0.9474    0.5211 H   0  0  0  0  0  0  0  0  0  0  0  0
    5.6344   -1.6045   -0.8916 H   0  0  0  0  0  0  0  0  0  0  0  0
    5.7465    0.1104   -0.5367 H   0  0  0  0  0  0  0  0  0  0  0  0
    2.0772   -4.3648   -0.8819 H   0  0  0  0  0  0  0  0  0  0  0  0
    1.4632   -3.7837   -2.4508 H   0  0  0  0  0  0  0  0  0  0  0  0
    2.7741   -4.9638   -2.3803 H   0  0  0  0  0  0  0  0  0  0  0  0
  1  9  1  0  0  0  0
  1 13  1  0  0  0  0
  2 13  1  0  0  0  0
  2 16  1  0  0  0  0
  3 11  1  0  0  0  0
  3 59  1  0  0  0  0
  4 20  2  0  0  0  0
  5 29  1  0  0  0  0
  5 30  1  0  0  0  0
  6 27  2  0  0  0  0
  7 29  2  0  0  0  0
  8 10  1  0  0  0  0
  8 24  1  0  0  0  0
  8 25  1  0  0  0  0
  9 12  1  0  0  0  0
  9 15  1  0  0  0  0
  9 37  1  0  0  0  0
 10 11  1  0  0  0  0
 10 14  1  0  0  0  0
 10 38  1  0  0  0  0
 11 13  1  0  0  0  0
 11 39  1  0  0  0  0
 12 17  1  0  0  0  0
 12 19  1  0  0  0  0
 12 40  1  0  0  0  0
 13 41  1  0  0  0  0
 14 16  1  0  0  0  0
 14 42  1  0  0  0  0
 14 43  1  0  0  0  0
 15 20  1  0  0  0  0
 15 21  1  0  0  0  0
 15 44  1  0  0  0  0
 16 22  1  0  0  0  0
 16 45  1  0  0  0  0
 17 18  1  0  0  0  0
 17 46  1  0  0  0  0
 17 47  1  0  0  0  0
 18 26  1  0  0  0  0
 18 27  1  0  0  0  0
 18 48  1  0  0  0  0
 19 49  1  0  0  0  0
 19 50  1  0  0  0  0
 19 51  1  0  0  0  0
 20 23  1  0  0  0  0
 21 52  1  0  0  0  0
 21 53  1  0  0  0  0
 21 54  1  0  0  0  0
 22 55  1  0  0  0  0
 22 56  1  0  0  0  0
 22 57  1  0  0  0  0
 23 28  1  0  0  0  0
 23 29  1  0  0  0  0
 23 58  1  0  0  0  0
 24 60  1  0  0  0  0
 24 61  1  0  0  0  0
 24 62  1  0  0  0  0
 25 63  1  0  0  0  0
 25 64  1  0  0  0  0
 25 65  1  0  0  0  0
 26 66  1  0  0  0  0
 26 67  1  0  0  0  0
 26 68  1  0  0  0  0
 27 32  1  0  0  0  0
 28 69  1  0  0  0  0
 28 70  1  0  0  0  0
 28 71  1  0  0  0  0
 30 31  1  0  0  0  0
 30 34  1  0  0  0  0
 30 72  1  0  0  0  0
 31 33  1  0  0  0  0
 31 35  1  0  0  0  0
 31 73  1  0  0  0  0
 32 33  2  0  0  0  0
 32 74  1  0  0  0  0
 33 75  1  0  0  0  0
 34 36  1  0  0  0  0
 34 76  1  0  0  0  0
 34 77  1  0  0  0  0
 35 78  1  0  0  0  0
 35 79  1  0  0  0  0
 35 80  1  0  0  0  0
 36 81  1  0  0  0  0
 36 82  1  0  0  0  0
 36 83  1  0  0  0  0
M  END
> <PUBCHEM_COMPOUND_CID>
5282036

> <PUBCHEM_CONFORMER_RMSD>
1

> <PUBCHEM_CONFORMER_DIVERSEORDER>
1
2

> <PUBCHEM_MMFF94_PARTIAL_CHARGES>
28
1 -0.56
10 0.27
11 0.28
13 0.56
15 0.06
16 0.28
18 0.06
2 -0.56
20 0.45
23 0.12
24 0.27
25 0.27
27 0.49
29 0.66
3 -0.68
30 0.28
31 0.14
32 -0.14
33 -0.29
4 -0.57
5 -0.43
59 0.4
6 -0.57
7 -0.57
74 0.15
75 0.15
8 -0.81
9 0.28

> <PUBCHEM_EFFECTIVE_ROTOR_COUNT>
7

> <PUBCHEM_PHARMACOPHORE_FEATURES>
11
1 1 acceptor
1 2 acceptor
1 23 anion
1 3 acceptor
1 3 donor
1 36 hydrophobe
1 4 acceptor
1 6 acceptor
1 7 acceptor
1 8 cation
6 2 10 11 13 14 16 rings

> <PUBCHEM_HEAVY_ATOM_COUNT>
36

> <PUBCHEM_ATOM_DEF_STEREO_COUNT>
11

> <PUBCHEM_ATOM_UDEF_STEREO_COUNT>
0

> <PUBCHEM_BOND_DEF_STEREO_COUNT>
1

> <PUBCHEM_BOND_UDEF_STEREO_COUNT>
0

> <PUBCHEM_ISOTOPIC_ATOM_COUNT>
0

> <PUBCHEM_COMPONENT_COUNT>
1

> <PUBCHEM_CACTVS_TAUTO_COUNT>
25

> <PUBCHEM_CONFORMER_ID>
005098F400000001

> <PUBCHEM_MMFF94_ENERGY>
125.0099

> <PUBCHEM_FEATURE_SELFOVERLAP>
55.899

> <PUBCHEM_SHAPE_FINGERPRINT>
10816530 23 17330553142715390697
11578080 2 17555988335155535449
12156800 1 17766600041323530728
12160290 23 11308057718506249581
12788726 201 17330287571817396149
13402501 40 18271524191684770268
14251757 17 18339087089272557485
144659 178 14224482082881494607
14659021 117 17760923344515352270
19930381 70 18260822674818174966
20600515 1 17471329560395014753
20764821 26 17771347469926961974
22121540 332 17130691972646244585
22907989 373 16699448032199340454
229495 10 17627774629189482129
23419403 2 18053075381804982803
238 59 18337667508445181406
3493558 16 17244402416907107089
35225 105 17260158512452471620
469060 322 18336250336799352178
513532 50 17540589850908194973

> <PUBCHEM_SHAPE_MULTIPOLES>
694.8
7.14
5.18
3.25
1.7
1.34
-1.77
-2.69
4.49
-3.14
0.17
1.07
0.08
2.31

> <PUBCHEM_SHAPE_SELFOVERLAP>
1403.811

> <PUBCHEM_SHAPE_VOLUME>
400.6

> <PUBCHEM_COORDINATE_TYPE>
2
5
10

$$$$

