14341
  -OEChem-06241222433D

 31 32  0     1  0  0  0  0  0999 V2000
   -1.3262   -0.0008    0.5093 O   0  0  0  0  0  0  0  0  0  0  0  0
   -0.7125    0.9835   -1.5257 O   0  0  0  0  0  0  0  0  0  0  0  0
   -3.8038   -1.2917    1.1021 O   0  0  0  0  0  0  0  0  0  0  0  0
   -0.3147    0.7837   -0.1537 C   0  0  1  0  0  0  0  0  0  0  0  0
   -2.4249   -0.0516   -0.4038 C   0  0  1  0  0  0  0  0  0  0  0  0
   -1.7538    0.0335   -1.7500 C   0  0  0  0  0  0  0  0  0  0  0  0
   -0.2426    2.1535    0.5201 C   0  0  0  0  0  0  0  0  0  0  0  0
    1.0348    0.0849   -0.0804 C   0  0  0  0  0  0  0  0  0  0  0  0
   -3.2300   -1.3164   -0.1962 C   0  0  0  0  0  0  0  0  0  0  0  0
    0.1757    2.0401    1.9760 C   0  0  0  0  0  0  0  0  0  0  0  0
    2.1572    0.6729   -0.6635 C   0  0  0  0  0  0  0  0  0  0  0  0
    1.1497   -1.1437    0.5702 C   0  0  0  0  0  0  0  0  0  0  0  0
    3.3946    0.0324   -0.5963 C   0  0  0  0  0  0  0  0  0  0  0  0
    2.3871   -1.7842    0.6375 C   0  0  0  0  0  0  0  0  0  0  0  0
    3.5094   -1.1960    0.0543 C   0  0  0  0  0  0  0  0  0  0  0  0
   -3.0388    0.8364   -0.2085 H   0  0  0  0  0  0  0  0  0  0  0  0
   -1.2921   -0.9139   -2.0504 H   0  0  0  0  0  0  0  0  0  0  0  0
   -2.4206    0.3771   -2.5450 H   0  0  0  0  0  0  0  0  0  0  0  0
   -1.2322    2.6273    0.4819 H   0  0  0  0  0  0  0  0  0  0  0  0
    0.4312    2.8349   -0.0126 H   0  0  0  0  0  0  0  0  0  0  0  0
   -2.6014   -2.2104   -0.2638 H   0  0  0  0  0  0  0  0  0  0  0  0
   -4.0385   -1.3961   -0.9286 H   0  0  0  0  0  0  0  0  0  0  0  0
   -0.4807    1.3689    2.5387 H   0  0  0  0  0  0  0  0  0  0  0  0
    1.2071    1.6933    2.0879 H   0  0  0  0  0  0  0  0  0  0  0  0
    0.1176    3.0256    2.4509 H   0  0  0  0  0  0  0  0  0  0  0  0
    2.0863    1.6241   -1.1835 H   0  0  0  0  0  0  0  0  0  0  0  0
    0.2998   -1.6331    1.0363 H   0  0  0  0  0  0  0  0  0  0  0  0
    4.2681    0.4890   -1.0523 H   0  0  0  0  0  0  0  0  0  0  0  0
    2.4771   -2.7408    1.1438 H   0  0  0  0  0  0  0  0  0  0  0  0
   -3.0759   -1.2109    1.7421 H   0  0  0  0  0  0  0  0  0  0  0  0
    4.4727   -1.6950    0.1062 H   0  0  0  0  0  0  0  0  0  0  0  0
  1  4  1  0  0  0  0
  1  5  1  0  0  0  0
  2  4  1  0  0  0  0
  2  6  1  0  0  0  0
  3  9  1  0  0  0  0
  3 30  1  0  0  0  0
  4  7  1  0  0  0  0
  4  8  1  0  0  0  0
  5  6  1  0  0  0  0
  5  9  1  0  0  0  0
  5 16  1  0  0  0  0
  6 17  1  0  0  0  0
  6 18  1  0  0  0  0
  7 10  1  0  0  0  0
  7 19  1  0  0  0  0
  7 20  1  0  0  0  0
  8 11  2  0  0  0  0
  8 12  1  0  0  0  0
  9 21  1  0  0  0  0
  9 22  1  0  0  0  0
 10 23  1  0  0  0  0
 10 24  1  0  0  0  0
 10 25  1  0  0  0  0
 11 13  1  0  0  0  0
 11 26  1  0  0  0  0
 12 14  2  0  0  0  0
 12 27  1  0  0  0  0
 13 15  2  0  0  0  0
 13 28  1  0  0  0  0
 14 15  1  0  0  0  0
 14 29  1  0  0  0  0
 15 31  1  0  0  0  0
M  END
> <PUBCHEM_COMPOUND_CID>
14341

> <PUBCHEM_CONFORMER_RMSD>
0.6

> <PUBCHEM_CONFORMER_DIVERSEORDER>
3
28
16
20
31
24
8
19
9
22
25
10
29
1
21
26
14
27
11
18
33
23
32
30
2
7
5
13
17
12
15
4
6

> <PUBCHEM_MMFF94_PARTIAL_CHARGES>
19
1 -0.56
11 -0.15
12 -0.15
13 -0.15
14 -0.15
15 -0.15
2 -0.56
26 0.15
27 0.15
28 0.15
29 0.15
3 -0.68
30 0.4
31 0.15
4 0.7
5 0.28
6 0.28
8 -0.14
9 0.28

> <PUBCHEM_EFFECTIVE_ROTOR_COUNT>
4

> <PUBCHEM_PHARMACOPHORE_FEATURES>
7
1 1 acceptor
1 10 hydrophobe
1 2 acceptor
1 3 acceptor
1 3 donor
5 1 2 4 5 6 rings
6 8 11 12 13 14 15 rings

> <PUBCHEM_HEAVY_ATOM_COUNT>
15

> <PUBCHEM_ATOM_DEF_STEREO_COUNT>
0

> <PUBCHEM_ATOM_UDEF_STEREO_COUNT>
2

> <PUBCHEM_BOND_DEF_STEREO_COUNT>
0

> <PUBCHEM_BOND_UDEF_STEREO_COUNT>
0

> <PUBCHEM_ISOTOPIC_ATOM_COUNT>
0

> <PUBCHEM_COMPONENT_COUNT>
1

> <PUBCHEM_CACTVS_TAUTO_COUNT>
1

> <PUBCHEM_CONFORMER_ID>
0000380500000003

> <PUBCHEM_MMFF94_ENERGY>
37.4006

> <PUBCHEM_FEATURE_SELFOVERLAP>
35.565

> <PUBCHEM_SHAPE_FINGERPRINT>
108231 29 18336266751890129106
11769659 78 18201725084556035854
12119455 92 9367074315491368418
12202030 40 18200333029989450583
12423570 1 13878600768784427377
13275264 69 17896037800775908817
13299463 15 17917716828643757854
13538477 17 18118676858291797624
13571099 52 7204503216411762037
13705890 14 17775007877538413830
13764800 53 16807011171901740744
14251745 187 17700411373544511331
14787075 74 18119813508749552376
14817 1 11125130186292240884
15375462 189 18337105679220053931
15906896 17 17754459284999821233
16945 1 18271808986518284596
18186145 218 13686292478550338047
18522851 268 17561370607671668886
200 152 18341335565055894238
20361792 2 17822590346725740189
21061003 4 18187091645620690755
21069387 34 15410621436434154306
21296965 67 18333733515706907353
228727 97 18335126593034865412
23419403 2 15533430382333336218
23500284 5 18337670943981428443
23598294 1 17823129189296754320
25610 137 18411696578271202956
3312278 4 18340207500142422118
81228 2 17678744676480256792
83771 10 18342736299898876319

> <PUBCHEM_SHAPE_MULTIPOLES>
291.09
5.4
1.98
1.42
0.35
0.81
0.06
-3.53
-0.14
0.02
-0.95
0.52
0.37
-0.04

> <PUBCHEM_SHAPE_SELFOVERLAP>
609.251

> <PUBCHEM_SHAPE_VOLUME>
165.8

> <PUBCHEM_COORDINATE_TYPE>
2
5
10

$$$$

