13760
  -OEChem-06241222402D

 32 35  0     0  0  0  0  0  0999 V2000
    4.6783    1.2377    0.0000 S   0  0  0  0  0  0  0  0  0  0  0  0
    8.3455    0.3717    0.0000 S   0  0  0  0  0  0  0  0  0  0  0  0
    4.6783   -0.3717    0.0000 N   0  0  0  0  0  0  0  0  0  0  0  0
    8.3455   -1.2377    0.0000 N   0  0  0  0  0  0  0  0  0  0  0  0
    6.7619   -0.4330    0.0000 C   0  0  0  0  0  0  0  0  0  0  0  0
    6.2619    0.4330    0.0000 C   0  0  0  0  0  0  0  0  0  0  0  0
    7.7619   -0.4330    0.0000 C   0  0  0  0  0  0  0  0  0  0  0  0
    5.2619    0.4330    0.0000 C   0  0  0  0  0  0  0  0  0  0  0  0
    9.2917    0.0670    0.0000 C   0  0  0  0  0  0  0  0  0  0  0  0
    3.7320    0.9330    0.0000 C   0  0  0  0  0  0  0  0  0  0  0  0
    9.2917   -0.9330    0.0000 C   0  0  0  0  0  0  0  0  0  0  0  0
    3.7320   -0.0670    0.0000 C   0  0  0  0  0  0  0  0  0  0  0  0
   10.1577    0.5670    0.0000 C   0  0  0  0  0  0  0  0  0  0  0  0
    2.8660    1.4330    0.0000 C   0  0  0  0  0  0  0  0  0  0  0  0
   10.1577   -1.4330    0.0000 C   0  0  0  0  0  0  0  0  0  0  0  0
    2.8660   -0.5670    0.0000 C   0  0  0  0  0  0  0  0  0  0  0  0
    2.0000    0.9330    0.0000 C   0  0  0  0  0  0  0  0  0  0  0  0
   11.0238    0.0670    0.0000 C   0  0  0  0  0  0  0  0  0  0  0  0
    2.0000   -0.0670    0.0000 C   0  0  0  0  0  0  0  0  0  0  0  0
   11.0238   -0.9330    0.0000 C   0  0  0  0  0  0  0  0  0  0  0  0
    6.1793   -0.6451    0.0000 H   0  0  0  0  0  0  0  0  0  0  0  0
    6.8695   -1.0436    0.0000 H   0  0  0  0  0  0  0  0  0  0  0  0
    6.8445    0.6451    0.0000 H   0  0  0  0  0  0  0  0  0  0  0  0
    6.1542    1.0436    0.0000 H   0  0  0  0  0  0  0  0  0  0  0  0
   10.1577    1.1870    0.0000 H   0  0  0  0  0  0  0  0  0  0  0  0
    2.8660    2.0530    0.0000 H   0  0  0  0  0  0  0  0  0  0  0  0
   10.1577   -2.0530    0.0000 H   0  0  0  0  0  0  0  0  0  0  0  0
    2.8660   -1.1870    0.0000 H   0  0  0  0  0  0  0  0  0  0  0  0
   11.5607    0.3770    0.0000 H   0  0  0  0  0  0  0  0  0  0  0  0
    1.4631    1.2430    0.0000 H   0  0  0  0  0  0  0  0  0  0  0  0
   11.5607   -1.2430    0.0000 H   0  0  0  0  0  0  0  0  0  0  0  0
    1.4631   -0.3770    0.0000 H   0  0  0  0  0  0  0  0  0  0  0  0
  1  8  1  0  0  0  0
  1 10  1  0  0  0  0
  2  7  1  0  0  0  0
  2  9  1  0  0  0  0
  3  8  2  0  0  0  0
  3 12  1  0  0  0  0
  4  7  2  0  0  0  0
  4 11  1  0  0  0  0
  5  6  1  0  0  0  0
  5  7  1  0  0  0  0
  5 21  1  0  0  0  0
  5 22  1  0  0  0  0
  6  8  1  0  0  0  0
  6 23  1  0  0  0  0
  6 24  1  0  0  0  0
  9 11  1  0  0  0  0
  9 13  2  0  0  0  0
 10 12  1  0  0  0  0
 10 14  2  0  0  0  0
 11 15  2  0  0  0  0
 12 16  2  0  0  0  0
 13 18  1  0  0  0  0
 13 25  1  0  0  0  0
 14 17  1  0  0  0  0
 14 26  1  0  0  0  0
 15 20  1  0  0  0  0
 15 27  1  0  0  0  0
 16 19  1  0  0  0  0
 16 28  1  0  0  0  0
 17 19  2  0  0  0  0
 17 30  1  0  0  0  0
 18 20  2  0  0  0  0
 18 29  1  0  0  0  0
 19 32  1  0  0  0  0
 20 31  1  0  0  0  0
M  END
> <PUBCHEM_COMPOUND_CID>
13760

> <PUBCHEM_COMPOUND_CANONICALIZED>
1

> <PUBCHEM_CACTVS_COMPLEXITY>
306

> <PUBCHEM_CACTVS_HBOND_ACCEPTOR>
4

> <PUBCHEM_CACTVS_HBOND_DONOR>
0

> <PUBCHEM_CACTVS_ROTATABLE_BOND>
3

> <PUBCHEM_CACTVS_SUBSKEYS>
AAADccB7AABgAAAAAAAAAAAAAAAAAWLAAAAwYAAAAAAAAFgB/gAAHAQAAAAACAiBVgAwwbIIEAikASRiRACD8KBhCjhImDwwZJgIIKLgkZGEIAhggADoyAcQAAAAAAAAAAAAAQAAAAAAAAACAAAAAAAAAA==

> <PUBCHEM_IUPAC_OPENEYE_NAME>
2-[2-(1,3-benzothiazol-2-yl)ethyl]-1,3-benzothiazole

> <PUBCHEM_IUPAC_CAS_NAME>
2-[2-(1,3-benzothiazol-2-yl)ethyl]-1,3-benzothiazole

> <PUBCHEM_IUPAC_NAME>
2-[2-(1,3-benzothiazol-2-yl)ethyl]-1,3-benzothiazole

> <PUBCHEM_IUPAC_SYSTEMATIC_NAME>
2-[2-(1,3-benzothiazol-2-yl)ethyl]-1,3-benzothiazole

> <PUBCHEM_IUPAC_TRADITIONAL_NAME>
2-[2-(1,3-benzothiazol-2-yl)ethyl]-1,3-benzothiazole

> <PUBCHEM_IUPAC_INCHI>
InChI=1S/C16H12N2S2/c1-3-7-13-11(5-1)17-15(19-13)9-10-16-18-12-6-2-4-8-14(12)20-16/h1-8H,9-10H2

> <PUBCHEM_IUPAC_INCHIKEY>
RBXSJZVTIQDHKO-UHFFFAOYSA-N

> <PUBCHEM_XLOGP3_AA>
5.1

> <PUBCHEM_EXACT_MASS>
296.04419

> <PUBCHEM_MOLECULAR_FORMULA>
C16H12N2S2

> <PUBCHEM_MOLECULAR_WEIGHT>
296.40988

> <PUBCHEM_OPENEYE_CAN_SMILES>
C1=CC=C2C(=C1)N=C(S2)CCC3=NC4=CC=CC=C4S3

> <PUBCHEM_OPENEYE_ISO_SMILES>
C1=CC=C2C(=C1)N=C(S2)CCC3=NC4=CC=CC=C4S3

> <PUBCHEM_CACTVS_TPSA>
82.3

> <PUBCHEM_MONOISOTOPIC_WEIGHT>
296.04419

> <PUBCHEM_TOTAL_CHARGE>
0

> <PUBCHEM_HEAVY_ATOM_COUNT>
20

> <PUBCHEM_ATOM_DEF_STEREO_COUNT>
0

> <PUBCHEM_ATOM_UDEF_STEREO_COUNT>
0

> <PUBCHEM_BOND_DEF_STEREO_COUNT>
0

> <PUBCHEM_BOND_UDEF_STEREO_COUNT>
0

> <PUBCHEM_ISOTOPIC_ATOM_COUNT>
0

> <PUBCHEM_COMPONENT_COUNT>
1

> <PUBCHEM_CACTVS_TAUTO_COUNT>
3

> <PUBCHEM_COORDINATE_TYPE>
1
5
255

> <PUBCHEM_BONDANNOTATIONS>
1  10  8
1  8  8
10  12  8
10  14  8
11  15  8
12  16  8
13  18  8
14  17  8
15  20  8
16  19  8
17  19  8
18  20  8
2  7  8
2  9  8
3  12  8
3  8  8
4  11  8
4  7  8
9  11  8
9  13  8

$$$$

