5281659
  -OEChem-07051212582D

 48 51  0     1  0  0  0  0  0999 V2000
    8.6653    1.6377    0.0000 O   0  0  0  0  0  0  0  0  0  0  0  0
    7.8167    0.1278    0.0000 O   0  0  0  0  0  0  0  0  0  0  0  0
   11.2805    0.1679    0.0000 O   0  0  0  0  0  0  0  0  0  0  0  0
   11.2574    2.1677    0.0000 O   0  0  0  0  0  0  0  0  0  0  0  0
    9.5602   -0.8521    0.0000 O   0  0  0  0  0  0  0  0  0  0  0  0
    8.6422    3.6376    0.0000 O   0  0  0  0  0  0  0  0  0  0  0  0
    6.0682   -2.9068    0.0000 O   0  0  0  0  0  0  0  0  0  0  0  0
    6.0682    0.0932    0.0000 O   0  0  0  0  0  0  0  0  0  0  0  0
    7.8167   -3.9414    0.0000 O   0  0  0  0  0  0  0  0  0  0  0  0
    4.3198    0.1278    0.0000 O   0  0  0  0  0  0  0  0  0  0  0  0
    2.5381   -2.9309    0.0000 O   0  0  0  0  0  0  0  0  0  0  0  0
   10.4088    0.6578    0.0000 C   0  0  1  0  0  0  0  0  0  0  0  0
   10.3972    1.6578    0.0000 C   0  0  1  0  0  0  0  0  0  0  0  0
    9.5486    0.1478    0.0000 C   0  0  2  0  0  0  0  0  0  0  0  0
    9.5255    2.1477    0.0000 C   0  0  1  0  0  0  0  0  0  0  0  0
    8.6768    0.6378    0.0000 C   0  0  1  0  0  0  0  0  0  0  0  0
    9.5139    3.1476    0.0000 C   0  0  0  0  0  0  0  0  0  0  0  0
    7.8282   -0.8721    0.0000 C   0  0  0  0  0  0  0  0  0  0  0  0
    6.9343   -1.4068    0.0000 C   0  0  0  0  0  0  0  0  0  0  0  0
    6.9343   -2.4068    0.0000 C   0  0  0  0  0  0  0  0  0  0  0  0
    8.7343   -1.3860    0.0000 C   0  0  0  0  0  0  0  0  0  0  0  0
    6.0682   -0.9068    0.0000 C   0  0  0  0  0  0  0  0  0  0  0  0
    5.2022   -1.4068    0.0000 C   0  0  0  0  0  0  0  0  0  0  0  0
    7.8282   -2.9414    0.0000 C   0  0  0  0  0  0  0  0  0  0  0  0
    8.7343   -2.4276    0.0000 C   0  0  0  0  0  0  0  0  0  0  0  0
    5.2022   -2.4068    0.0000 C   0  0  0  0  0  0  0  0  0  0  0  0
    4.3083   -0.8721    0.0000 C   0  0  0  0  0  0  0  0  0  0  0  0
    4.3083   -2.9414    0.0000 C   0  0  0  0  0  0  0  0  0  0  0  0
    3.4022   -1.3860    0.0000 C   0  0  0  0  0  0  0  0  0  0  0  0
    3.4022   -2.4276    0.0000 C   0  0  0  0  0  0  0  0  0  0  0  0
   10.9421    0.9740    0.0000 H   0  0  0  0  0  0  0  0  0  0  0  0
   10.3900    2.2777    0.0000 H   0  0  0  0  0  0  0  0  0  0  0  0
    9.0153   -0.1683    0.0000 H   0  0  0  0  0  0  0  0  0  0  0  0
    8.9850    2.4515    0.0000 H   0  0  0  0  0  0  0  0  0  0  0  0
    8.6840    0.0178    0.0000 H   0  0  0  0  0  0  0  0  0  0  0  0
   10.1257    3.0470    0.0000 H   0  0  0  0  0  0  0  0  0  0  0  0
    9.7192    3.7327    0.0000 H   0  0  0  0  0  0  0  0  0  0  0  0
   11.8138    0.4841    0.0000 H   0  0  0  0  0  0  0  0  0  0  0  0
   11.2502    2.7877    0.0000 H   0  0  0  0  0  0  0  0  0  0  0  0
   10.1006   -1.1559    0.0000 H   0  0  0  0  0  0  0  0  0  0  0  0
    8.6350    4.2576    0.0000 H   0  0  0  0  0  0  0  0  0  0  0  0
    9.2700   -1.0739    0.0000 H   0  0  0  0  0  0  0  0  0  0  0  0
    9.2700   -2.7397    0.0000 H   0  0  0  0  0  0  0  0  0  0  0  0
    4.3154   -3.5614    0.0000 H   0  0  0  0  0  0  0  0  0  0  0  0
    2.8665   -1.0739    0.0000 H   0  0  0  0  0  0  0  0  0  0  0  0
    8.3500   -4.2576    0.0000 H   0  0  0  0  0  0  0  0  0  0  0  0
    3.7865    0.4440    0.0000 H   0  0  0  0  0  0  0  0  0  0  0  0
    2.0000   -2.6230    0.0000 H   0  0  0  0  0  0  0  0  0  0  0  0
  1 15  1  0  0  0  0
  1 16  1  0  0  0  0
 16  2  1  6  0  0  0
  2 18  1  0  0  0  0
 12  3  1  6  0  0  0
  3 38  1  0  0  0  0
 13  4  1  1  0  0  0
  4 39  1  0  0  0  0
 14  5  1  1  0  0  0
  5 40  1  0  0  0  0
  6 17  1  0  0  0  0
  6 41  1  0  0  0  0
  7 20  1  0  0  0  0
  7 26  1  0  0  0  0
  8 22  2  0  0  0  0
  9 24  1  0  0  0  0
  9 46  1  0  0  0  0
 10 27  1  0  0  0  0
 10 47  1  0  0  0  0
 11 30  1  0  0  0  0
 11 48  1  0  0  0  0
 12 13  1  0  0  0  0
 12 14  1  0  0  0  0
 12 31  1  0  0  0  0
 13 15  1  0  0  0  0
 13 32  1  0  0  0  0
 14 16  1  0  0  0  0
 14 33  1  0  0  0  0
 15 17  1  6  0  0  0
 15 34  1  0  0  0  0
 16 35  1  0  0  0  0
 17 36  1  0  0  0  0
 17 37  1  0  0  0  0
 18 19  2  0  0  0  0
 18 21  1  0  0  0  0
 19 20  1  0  0  0  0
 19 22  1  0  0  0  0
 20 24  2  0  0  0  0
 21 25  2  0  0  0  0
 21 42  1  0  0  0  0
 22 23  1  0  0  0  0
 23 26  1  0  0  0  0
 23 27  2  0  0  0  0
 24 25  1  0  0  0  0
 25 43  1  0  0  0  0
 26 28  2  0  0  0  0
 27 29  1  0  0  0  0
 28 30  1  0  0  0  0
 28 44  1  0  0  0  0
 29 30  2  0  0  0  0
 29 45  1  0  0  0  0
M  END
> <PUBCHEM_COMPOUND_CID>
5281659

> <PUBCHEM_COMPOUND_CANONICALIZED>
1

> <PUBCHEM_CACTVS_COMPLEXITY>
632

> <PUBCHEM_CACTVS_HBOND_ACCEPTOR>
11

> <PUBCHEM_CACTVS_HBOND_DONOR>
7

> <PUBCHEM_CACTVS_ROTATABLE_BOND>
3

> <PUBCHEM_CACTVS_SUBSKEYS>
AAADceB4PAAAAAAAAAAAAAAAAAAAAAAAAAA0aIEAAAAAAACRQAAAGgAACAAADBSwmAMwDoAABgCIAqBSAAACCAAkIAAIiAEGiMgdNzaGNRqieWOl4BUPuQfK7PzOIQABCAAIQABCAAIQABCAAAAAAAAAAA==

> <PUBCHEM_IUPAC_OPENEYE_NAME>
1,3,5-trihydroxy-8-[(2S,3R,4S,5S,6R)-3,4,5-trihydroxy-6-(hydroxymethyl)tetrahydropyran-2-yl]oxy-xanthen-9-one

> <PUBCHEM_IUPAC_CAS_NAME>
1,3,5-trihydroxy-8-[[(2S,3R,4S,5S,6R)-3,4,5-trihydroxy-6-(hydroxymethyl)-2-oxanyl]oxy]-9-xanthenone

> <PUBCHEM_IUPAC_NAME>
1,3,5-trihydroxy-8-[(2S,3R,4S,5S,6R)-3,4,5-trihydroxy-6-(hydroxymethyl)oxan-2-yl]oxyxanthen-9-one

> <PUBCHEM_IUPAC_SYSTEMATIC_NAME>
8-[(2S,3R,4S,5S,6R)-6-(hydroxymethyl)-3,4,5-tris(oxidanyl)oxan-2-yl]oxy-1,3,5-tris(oxidanyl)xanthen-9-one

> <PUBCHEM_IUPAC_TRADITIONAL_NAME>
1,3,5-trihydroxy-8-[(2S,3R,4S,5S,6R)-3,4,5-trihydroxy-6-methylol-tetrahydropyran-2-yl]oxy-xanthone

> <PUBCHEM_IUPAC_INCHI>
InChI=1S/C19H18O11/c20-5-11-14(24)16(26)17(27)19(30-11)29-9-2-1-7(22)18-13(9)15(25)12-8(23)3-6(21)4-10(12)28-18/h1-4,11,14,16-17,19-24,26-27H,5H2/t11-,14-,16+,17-,19-/m1/s1

> <PUBCHEM_IUPAC_INCHIKEY>
MYWLBRTZOYHDOU-FJMCMGCSSA-N

> <PUBCHEM_XLOGP3_AA>
0.3

> <PUBCHEM_EXACT_MASS>
422.084911

> <PUBCHEM_MOLECULAR_FORMULA>
C19H18O11

> <PUBCHEM_MOLECULAR_WEIGHT>
422.33962

> <PUBCHEM_OPENEYE_CAN_SMILES>
C1=CC(=C2C(=C1O)OC3=CC(=CC(=C3C2=O)O)O)OC4C(C(C(C(O4)CO)O)O)O

> <PUBCHEM_OPENEYE_ISO_SMILES>
C1=CC(=C2C(=C1O)OC3=CC(=CC(=C3C2=O)O)O)O[C@H]4[C@@H]([C@H]([C@@H]([C@H](O4)CO)O)O)O

> <PUBCHEM_CACTVS_TPSA>
186

> <PUBCHEM_MONOISOTOPIC_WEIGHT>
422.084911

> <PUBCHEM_TOTAL_CHARGE>
0

> <PUBCHEM_HEAVY_ATOM_COUNT>
30

> <PUBCHEM_ATOM_DEF_STEREO_COUNT>
5

> <PUBCHEM_ATOM_UDEF_STEREO_COUNT>
0

> <PUBCHEM_BOND_DEF_STEREO_COUNT>
0

> <PUBCHEM_BOND_UDEF_STEREO_COUNT>
0

> <PUBCHEM_ISOTOPIC_ATOM_COUNT>
0

> <PUBCHEM_COMPONENT_COUNT>
1

> <PUBCHEM_CACTVS_TAUTO_COUNT>
24

> <PUBCHEM_COORDINATE_TYPE>
1
5
255

> <PUBCHEM_BONDANNOTATIONS>
15  17  6
18  19  8
18  21  8
19  20  8
19  22  8
16  2  6
20  24  8
21  25  8
22  23  8
23  26  8
23  27  8
24  25  8
26  28  8
27  29  8
28  30  8
29  30  8
12  3  6
13  4  5
14  5  5
7  20  8
7  26  8

$$$$

