440395
  -OEChem-07051212493D

 30 29  0     1  0  0  0  0  0999 V2000
    0.0697    1.8681   -1.1835 O   0  0  0  0  0  0  0  0  0  0  0  0
   -2.3381   -0.7721    0.0471 O   0  0  0  0  0  0  0  0  0  0  0  0
    2.2536   -0.7564   -0.1066 O   0  0  0  0  0  0  0  0  0  0  0  0
   -2.4993    1.4802    0.5182 O   0  0  0  0  0  0  0  0  0  0  0  0
    2.6713    1.4376   -0.6805 O   0  0  0  0  0  0  0  0  0  0  0  0
   -0.3493    0.3427    0.6547 C   0  0  1  0  0  0  0  0  0  0  0  0
    0.3956    0.5855   -0.6678 C   0  0  2  0  0  0  0  0  0  0  0  0
    0.0737    1.2916    1.7779 C   0  0  0  0  0  0  0  0  0  0  0  0
   -1.8475    0.4493    0.4134 C   0  0  0  0  0  0  0  0  0  0  0  0
    1.9006    0.5063   -0.4871 C   0  0  0  0  0  0  0  0  0  0  0  0
   -3.7412   -0.8144   -0.2314 C   0  0  0  0  0  0  0  0  0  0  0  0
    3.6561   -0.9772    0.0735 C   0  0  0  0  0  0  0  0  0  0  0  0
   -4.1245   -2.2265   -0.6197 C   0  0  0  0  0  0  0  0  0  0  0  0
    3.8793   -2.4149    0.4916 C   0  0  0  0  0  0  0  0  0  0  0  0
   -0.1407   -0.6742    1.0135 H   0  0  0  0  0  0  0  0  0  0  0  0
    0.0999   -0.1454   -1.4284 H   0  0  0  0  0  0  0  0  0  0  0  0
    1.1349    1.1802    2.0206 H   0  0  0  0  0  0  0  0  0  0  0  0
   -0.1134    2.3404    1.5260 H   0  0  0  0  0  0  0  0  0  0  0  0
   -0.4964    1.0771    2.6893 H   0  0  0  0  0  0  0  0  0  0  0  0
    0.3824    2.5425   -0.5580 H   0  0  0  0  0  0  0  0  0  0  0  0
   -4.3000   -0.5112    0.6611 H   0  0  0  0  0  0  0  0  0  0  0  0
   -3.9707   -0.1289   -1.0548 H   0  0  0  0  0  0  0  0  0  0  0  0
    4.1808   -0.7796   -0.8679 H   0  0  0  0  0  0  0  0  0  0  0  0
    4.0348   -0.3030    0.8498 H   0  0  0  0  0  0  0  0  0  0  0  0
   -5.1934   -2.2951   -0.8402 H   0  0  0  0  0  0  0  0  0  0  0  0
   -3.5602   -2.5505   -1.5003 H   0  0  0  0  0  0  0  0  0  0  0  0
   -3.8842   -2.9266    0.1872 H   0  0  0  0  0  0  0  0  0  0  0  0
    4.9435   -2.6188    0.6390 H   0  0  0  0  0  0  0  0  0  0  0  0
    3.3451   -2.6327    1.4224 H   0  0  0  0  0  0  0  0  0  0  0  0
    3.4893   -3.1017   -0.2667 H   0  0  0  0  0  0  0  0  0  0  0  0
  1  7  1  0  0  0  0
  1 20  1  0  0  0  0
  2  9  1  0  0  0  0
  2 11  1  0  0  0  0
  3 10  1  0  0  0  0
  3 12  1  0  0  0  0
  4  9  2  0  0  0  0
  5 10  2  0  0  0  0
  6  7  1  0  0  0  0
  6  8  1  0  0  0  0
  6  9  1  0  0  0  0
  6 15  1  0  0  0  0
  7 10  1  0  0  0  0
  7 16  1  0  0  0  0
  8 17  1  0  0  0  0
  8 18  1  0  0  0  0
  8 19  1  0  0  0  0
 11 13  1  0  0  0  0
 11 21  1  0  0  0  0
 11 22  1  0  0  0  0
 12 14  1  0  0  0  0
 12 23  1  0  0  0  0
 12 24  1  0  0  0  0
 13 25  1  0  0  0  0
 13 26  1  0  0  0  0
 13 27  1  0  0  0  0
 14 28  1  0  0  0  0
 14 29  1  0  0  0  0
 14 30  1  0  0  0  0
M  END
> <PUBCHEM_COMPOUND_CID>
440395

> <PUBCHEM_CONFORMER_RMSD>
0.8

> <PUBCHEM_CONFORMER_DIVERSEORDER>
1
20
54
80
14
42
65
27
28
32
38
13
66
46
48
23
36
77
69
22
3
76
25
56
15
4
71
70
8
40
9
17
5
6
21
7
24
16
31
55
41
79
37
10
18
57
34
52
26
67
73
59
74
72
35
49
47
83
51
11
61
50
39
78
43
82
60
68
33
2
64
12
63
19
75
53
45
58
62
44
81
29
30

> <PUBCHEM_MMFF94_PARTIAL_CHARGES>
12
1 -0.68
10 0.66
11 0.28
12 0.28
2 -0.43
20 0.4
3 -0.43
4 -0.57
5 -0.57
6 0.06
7 0.34
9 0.66

> <PUBCHEM_EFFECTIVE_ROTOR_COUNT>
7

> <PUBCHEM_PHARMACOPHORE_FEATURES>
5
1 1 acceptor
1 1 donor
1 4 acceptor
1 5 acceptor
1 8 hydrophobe

> <PUBCHEM_HEAVY_ATOM_COUNT>
14

> <PUBCHEM_ATOM_DEF_STEREO_COUNT>
2

> <PUBCHEM_ATOM_UDEF_STEREO_COUNT>
0

> <PUBCHEM_BOND_DEF_STEREO_COUNT>
0

> <PUBCHEM_BOND_UDEF_STEREO_COUNT>
0

> <PUBCHEM_ISOTOPIC_ATOM_COUNT>
0

> <PUBCHEM_COMPONENT_COUNT>
1

> <PUBCHEM_CACTVS_TAUTO_COUNT>
1

> <PUBCHEM_CONFORMER_ID>
0006B84B00000001

> <PUBCHEM_MMFF94_ENERGY>
10.7031

> <PUBCHEM_FEATURE_SELFOVERLAP>
25.379

> <PUBCHEM_SHAPE_FINGERPRINT>
10465860 250 17749677384296983241
10610426 29 18408611369812538408
10857977 72 16370717140996162505
11769659 78 18409449193362066611
12824470 246 18410298046456533938
13705890 14 18130789993063420031
14576447 43 18339922589324081614
15375462 189 18115294571540780027
15477762 27 18128254493590689311
177051 138 18260265269878529046
18186145 218 15626215814658756541
193927 3 18337096925908321838
20281475 54 18261671476789343323
20645477 70 18060420179317937379
20671657 53 18343863324786418510
21069387 34 18201431484728431986
21501502 16 18410847776532344316
21501925 9 18410579478820876146
23559900 14 18187935022884764432
23598291 2 18342446080110177900
3086196 2 18041000690831302763
5902787 121 17748825172680814179
633830 44 16630520748129576845
76465 3 18201448029390992162

> <PUBCHEM_SHAPE_MULTIPOLES>
258.77
7.25
2.28
1.11
0.98
0.94
0.23
6.51
-0.44
-0.16
0
-0.13
-0.52
-1.13

> <PUBCHEM_SHAPE_SELFOVERLAP>
492.99

> <PUBCHEM_SHAPE_VOLUME>
159.4

> <PUBCHEM_COORDINATE_TYPE>
2
5
10

$$$$

