443582
  -OEChem-07051213023D

 45 48  0     1  0  0  0  0  0999 V2000
   -4.5056    1.5240    1.1618 O   0  0  0  0  0  0  0  0  0  0  0  0
   -6.7553   -0.6859    0.7566 O   0  0  0  0  0  0  0  0  0  0  0  0
   -2.4003    3.0591   -0.9007 O   0  0  0  0  0  0  0  0  0  0  0  0
   -0.6011    2.7071    0.4664 O   0  0  0  0  0  0  0  0  0  0  0  0
   -3.1734    0.4984   -0.4958 N   0  0  0  0  0  0  0  0  0  0  0  0
   -3.2636   -0.9665   -0.6554 C   0  0  2  0  0  0  0  0  0  0  0  0
   -4.3816   -0.9195    0.4225 C   0  0  1  0  0  0  0  0  0  0  0  0
   -1.8374   -1.4605   -0.3920 C   0  0  0  0  0  0  0  0  0  0  0  0
   -4.1252    0.6038    0.4740 C   0  0  0  0  0  0  0  0  0  0  0  0
   -5.7668   -1.2976   -0.0730 C   0  0  1  0  0  0  0  0  0  0  0  0
   -1.8676    0.8800   -0.3812 C   0  0  0  0  0  0  0  0  0  0  0  0
   -1.0374   -0.1753   -0.3629 C   0  0  0  0  0  0  0  0  0  0  0  0
    0.4256   -0.2039   -0.2500 C   0  0  0  0  0  0  0  0  0  0  0  0
   -5.9924   -2.8061   -0.0686 C   0  0  0  0  0  0  0  0  0  0  0  0
   -1.5314    2.2890   -0.2075 C   0  0  0  0  0  0  0  0  0  0  0  0
    1.0366   -0.2708    1.0076 C   0  0  0  0  0  0  0  0  0  0  0  0
    1.2244   -0.1641   -1.3988 C   0  0  0  0  0  0  0  0  0  0  0  0
    2.4271   -0.2974    1.1150 C   0  0  0  0  0  0  0  0  0  0  0  0
    2.6149   -0.1908   -1.2914 C   0  0  0  0  0  0  0  0  0  0  0  0
    3.2162   -0.2573   -0.0344 C   0  0  0  0  0  0  0  0  0  0  0  0
    4.6584   -0.2848    0.0768 C   0  0  0  0  0  0  0  0  0  0  0  0
    5.3723    0.9087    0.1859 C   0  0  0  0  0  0  0  0  0  0  0  0
    5.3354   -1.5046    0.0758 C   0  0  0  0  0  0  0  0  0  0  0  0
    6.7628    0.8826    0.2935 C   0  0  0  0  0  0  0  0  0  0  0  0
    6.7259   -1.5306    0.1835 C   0  0  0  0  0  0  0  0  0  0  0  0
    7.4394   -0.3370    0.2924 C   0  0  0  0  0  0  0  0  0  0  0  0
   -3.6098   -1.2259   -1.6650 H   0  0  0  0  0  0  0  0  0  0  0  0
   -4.1151   -1.4043    1.3704 H   0  0  0  0  0  0  0  0  0  0  0  0
   -1.4989   -2.1160   -1.2013 H   0  0  0  0  0  0  0  0  0  0  0  0
   -1.7633   -1.9949    0.5608 H   0  0  0  0  0  0  0  0  0  0  0  0
   -5.9357   -0.9235   -1.0901 H   0  0  0  0  0  0  0  0  0  0  0  0
   -5.8974   -3.2100    0.9454 H   0  0  0  0  0  0  0  0  0  0  0  0
   -7.0041   -3.0445   -0.4132 H   0  0  0  0  0  0  0  0  0  0  0  0
   -5.2687   -3.3170   -0.7108 H   0  0  0  0  0  0  0  0  0  0  0  0
   -6.7055    0.2750    0.6176 H   0  0  0  0  0  0  0  0  0  0  0  0
    0.4356   -0.3023    1.9135 H   0  0  0  0  0  0  0  0  0  0  0  0
    0.7712   -0.1122   -2.3861 H   0  0  0  0  0  0  0  0  0  0  0  0
    2.8797   -0.3492    2.1025 H   0  0  0  0  0  0  0  0  0  0  0  0
    3.2153   -0.1589   -2.1975 H   0  0  0  0  0  0  0  0  0  0  0  0
   -2.2021    4.0151   -0.8046 H   0  0  0  0  0  0  0  0  0  0  0  0
    4.8606    1.8683    0.1886 H   0  0  0  0  0  0  0  0  0  0  0  0
    4.7945   -2.4443   -0.0082 H   0  0  0  0  0  0  0  0  0  0  0  0
    7.3187    1.8118    0.3783 H   0  0  0  0  0  0  0  0  0  0  0  0
    7.2530   -2.4801    0.1827 H   0  0  0  0  0  0  0  0  0  0  0  0
    8.5220   -0.3574    0.3762 H   0  0  0  0  0  0  0  0  0  0  0  0
  1  9  2  0  0  0  0
  2 10  1  0  0  0  0
  2 35  1  0  0  0  0
  3 15  1  0  0  0  0
  3 40  1  0  0  0  0
  4 15  2  0  0  0  0
  5  6  1  0  0  0  0
  5  9  1  0  0  0  0
  5 11  1  0  0  0  0
  6  7  1  0  0  0  0
  6  8  1  0  0  0  0
  6 27  1  0  0  0  0
  7  9  1  0  0  0  0
  7 10  1  0  0  0  0
  7 28  1  0  0  0  0
  8 12  1  0  0  0  0
  8 29  1  0  0  0  0
  8 30  1  0  0  0  0
 10 14  1  0  0  0  0
 10 31  1  0  0  0  0
 11 12  2  0  0  0  0
 11 15  1  0  0  0  0
 12 13  1  0  0  0  0
 13 16  2  0  0  0  0
 13 17  1  0  0  0  0
 14 32  1  0  0  0  0
 14 33  1  0  0  0  0
 14 34  1  0  0  0  0
 16 18  1  0  0  0  0
 16 36  1  0  0  0  0
 17 19  2  0  0  0  0
 17 37  1  0  0  0  0
 18 20  2  0  0  0  0
 18 38  1  0  0  0  0
 19 20  1  0  0  0  0
 19 39  1  0  0  0  0
 20 21  1  0  0  0  0
 21 22  2  0  0  0  0
 21 23  1  0  0  0  0
 22 24  1  0  0  0  0
 22 41  1  0  0  0  0
 23 25  2  0  0  0  0
 23 42  1  0  0  0  0
 24 26  2  0  0  0  0
 24 43  1  0  0  0  0
 25 26  1  0  0  0  0
 25 44  1  0  0  0  0
 26 45  1  0  0  0  0
M  END
> <PUBCHEM_COMPOUND_CID>
443582

> <PUBCHEM_CONFORMER_RMSD>
0.8

> <PUBCHEM_CONFORMER_DIVERSEORDER>
3
9
1
2
13
6
8
4
7
10
12
5
11

> <PUBCHEM_MMFF94_PARTIAL_CHARGES>
34
1 -0.57
10 0.28
11 0.12
12 -0.17
13 0.03
15 0.71
16 -0.15
17 -0.15
18 -0.15
19 -0.15
2 -0.68
22 -0.15
23 -0.15
24 -0.15
25 -0.15
26 -0.15
3 -0.65
35 0.4
36 0.15
37 0.15
38 0.15
39 0.15
4 -0.57
40 0.5
41 0.15
42 0.15
43 0.15
44 0.15
45 0.15
5 -0.39
6 0.22
7 0.05
8 0.14
9 0.58

> <PUBCHEM_EFFECTIVE_ROTOR_COUNT>
4.4

> <PUBCHEM_PHARMACOPHORE_FEATURES>
9
1 1 acceptor
1 2 acceptor
1 2 donor
1 3 acceptor
1 4 acceptor
3 3 4 15 anion
6 13 16 17 18 19 20 rings
6 21 22 23 24 25 26 rings
7 5 6 7 8 9 11 12 rings

> <PUBCHEM_HEAVY_ATOM_COUNT>
26

> <PUBCHEM_ATOM_DEF_STEREO_COUNT>
0

> <PUBCHEM_ATOM_UDEF_STEREO_COUNT>
3

> <PUBCHEM_BOND_DEF_STEREO_COUNT>
0

> <PUBCHEM_BOND_UDEF_STEREO_COUNT>
0

> <PUBCHEM_ISOTOPIC_ATOM_COUNT>
0

> <PUBCHEM_COMPONENT_COUNT>
1

> <PUBCHEM_CACTVS_TAUTO_COUNT>
1

> <PUBCHEM_CONFORMER_ID>
0006C4BE00000003

> <PUBCHEM_MMFF94_ENERGY>
101.9818

> <PUBCHEM_FEATURE_SELFOVERLAP>
45.723

> <PUBCHEM_SHAPE_FINGERPRINT>
10 15 17531246132317256910
10299344 5 18334856104384200226
10411042 1 18267585715981762231
10595046 47 18342740732879898386
11315181 36 18411418397829697051
11524674 6 16515406248345859182
12107183 9 17547861106639502290
12166972 35 17704352148104769652
12236239 1 18060419122861126918
12516196 113 18410857629160583834
12596602 18 18412826897810085434
12916748 109 18341895204037708778
13288520 33 18413390930264193431
13533116 47 18202280278404954892
13782708 43 17894915117916115422
14251764 18 17822010886986877358
14341114 176 18410011044621544276
14394314 77 18341611538638168481
14849402 71 18270114596879047204
14856354 85 16515685507266611317
14933364 13 18333731321632629968
15183329 4 10087649204046759134
15716309 27 18335421257328770711
16087824 20 18269840973640546101
17349148 13 17132109169718335904
17492 89 18265898145631985934
17844677 252 18411416241988437380
18681886 176 17988366983632079354
200 152 16988565701934970111
21033648 29 17531548558756159864
21130935 74 18334294297251087706
21150785 3 17346874542990066838
21267235 1 18341890775230263243
21792934 111 18411140217241115145
21792961 116 17531245119406250798
22224240 67 16805325474352429663
2297311 6 18408601474434618350
23402539 116 18411704300311048182
23522609 53 18191839311007759848
23536379 177 18335421283805229026
23559900 14 10663809759400311686
23569914 2 17544816361480631768
23569943 247 17486784249345503322
335352 9 18411423891710144887
3383291 50 17916578740132375091
34797466 226 18041272194001871036
4073 2 18200591398665134090
4325135 7 18410009914702299508
4340502 62 18260266352764526742
5969126 39 18409740556092328949
7495541 125 18041002821794562024
9996256 80 18411138052297652946

> <PUBCHEM_SHAPE_MULTIPOLES>
506.61
18.3
2.25
1
12.66
1.03
-0.07
-7.68
3.32
-2.86
-0.11
-0.07
0.08
-0.07

> <PUBCHEM_SHAPE_SELFOVERLAP>
1119.528

> <PUBCHEM_SHAPE_VOLUME>
274

> <PUBCHEM_COORDINATE_TYPE>
2
5
10

$$$$

