17756769
  -OEChem-07051213082D

 57 59  0     1  0  0  0  0  0999 V2000
   10.1588   -0.4988    0.0000 P   0  0  3  0  0  0  0  0  0  0  0  0
   11.8909   -0.4988    0.0000 P   0  0  3  0  0  0  0  0  0  0  0  0
    6.6472   -0.4055    0.0000 O   0  0  0  0  0  0  0  0  0  0  0  0
    8.1994    1.6649    0.0000 O   0  0  0  0  0  0  0  0  0  0  0  0
    6.0714    2.1172    0.0000 O   0  0  0  0  0  0  0  0  0  0  0  0
   13.6229   -1.4988    0.0000 O   0  0  0  0  0  0  0  0  0  0  0  0
    9.2928    0.0012    0.0000 O   0  0  0  0  0  0  0  0  0  0  0  0
   12.7569    0.0012    0.0000 O   0  0  0  0  0  0  0  0  0  0  0  0
   16.2210    0.0012    0.0000 O   0  0  0  0  0  0  0  0  0  0  0  0
   14.4890    1.0012    0.0000 O   0  0  0  0  0  0  0  0  0  0  0  0
   11.0249   -0.9988    0.0000 O   0  0  0  0  0  0  0  0  0  0  0  0
    4.8025    1.9557    0.0000 O   0  0  0  0  0  0  0  0  0  0  0  0
    9.6588   -1.3648    0.0000 O   0  0  0  0  0  0  0  0  0  0  0  0
   11.3909    0.3672    0.0000 O   0  0  0  0  0  0  0  0  0  0  0  0
   10.6588    0.3672    0.0000 O   0  0  0  0  0  0  0  0  0  0  0  0
   12.3909   -1.3648    0.0000 O   0  0  0  0  0  0  0  0  0  0  0  0
    2.0000   -0.0805    0.0000 O   0  0  0  0  0  0  0  0  0  0  0  0
    4.9836    0.2331    0.0000 N   0  0  0  0  0  0  0  0  0  0  0  0
   16.2210   -1.9988    0.0000 N   0  0  0  0  0  0  0  0  0  0  0  0
    3.4013    0.9376    0.0000 N   0  0  0  0  0  0  0  0  0  0  0  0
    7.4562    0.9957    0.0000 C   0  0  1  0  0  0  0  0  0  0  0  0
    6.4781    1.2037    0.0000 C   0  0  2  0  0  0  0  0  0  0  0  0
    7.5608    0.0012    0.0000 C   0  0  1  0  0  0  0  0  0  0  0  0
    5.9781    0.3376    0.0000 C   0  0  1  0  0  0  0  0  0  0  0  0
    8.4268   -0.4988    0.0000 C   0  0  0  0  0  0  0  0  0  0  0  0
   15.3550   -0.4988    0.0000 C   0  0  1  0  0  0  0  0  0  0  0  0
   15.3550   -1.4988    0.0000 C   0  0  2  0  0  0  0  0  0  0  0  0
   14.4890    0.0012    0.0000 C   0  0  2  0  0  0  0  0  0  0  0  0
   13.6229   -0.4988    0.0000 C   0  0  2  0  0  0  0  0  0  0  0  0
   14.4890   -1.9988    0.0000 C   0  0  0  0  0  0  0  0  0  0  0  0
    4.3958    1.0421    0.0000 C   0  0  0  0  0  0  0  0  0  0  0  0
    4.5768   -0.6804    0.0000 C   0  0  0  0  0  0  0  0  0  0  0  0
    3.5823   -0.7850    0.0000 C   0  0  0  0  0  0  0  0  0  0  0  0
    2.9945    0.0240    0.0000 C   0  0  0  0  0  0  0  0  0  0  0  0
    8.0351    0.7735    0.0000 H   0  0  0  0  0  0  0  0  0  0  0  0
    5.8589    1.2361    0.0000 H   0  0  0  0  0  0  0  0  0  0  0  0
    7.5283   -0.6179    0.0000 H   0  0  0  0  0  0  0  0  0  0  0  0
    5.7559   -0.2412    0.0000 H   0  0  0  0  0  0  0  0  0  0  0  0
    8.0283   -0.9737    0.0000 H   0  0  0  0  0  0  0  0  0  0  0  0
    8.8253   -0.9737    0.0000 H   0  0  0  0  0  0  0  0  0  0  0  0
   15.3550    0.1212    0.0000 H   0  0  0  0  0  0  0  0  0  0  0  0
   15.3550   -2.1188    0.0000 H   0  0  0  0  0  0  0  0  0  0  0  0
   15.0259    0.3112    0.0000 H   0  0  0  0  0  0  0  0  0  0  0  0
   13.0860   -0.8088    0.0000 H   0  0  0  0  0  0  0  0  0  0  0  0
   14.0904   -2.4737    0.0000 H   0  0  0  0  0  0  0  0  0  0  0  0
   14.8875   -2.4737    0.0000 H   0  0  0  0  0  0  0  0  0  0  0  0
    8.0705    2.2713    0.0000 H   0  0  0  0  0  0  0  0  0  0  0  0
    6.4358    2.6188    0.0000 H   0  0  0  0  0  0  0  0  0  0  0  0
    4.9413   -1.1820    0.0000 H   0  0  0  0  0  0  0  0  0  0  0  0
   16.2210   -2.6188    0.0000 H   0  0  0  0  0  0  0  0  0  0  0  0
   16.7580   -1.6888    0.0000 H   0  0  0  0  0  0  0  0  0  0  0  0
   16.2210    0.6212    0.0000 H   0  0  0  0  0  0  0  0  0  0  0  0
   15.0259    1.3112    0.0000 H   0  0  0  0  0  0  0  0  0  0  0  0
    3.0368    1.4392    0.0000 H   0  0  0  0  0  0  0  0  0  0  0  0
    3.3301   -1.3514    0.0000 H   0  0  0  0  0  0  0  0  0  0  0  0
    9.9688   -1.9018    0.0000 H   0  0  0  0  0  0  0  0  0  0  0  0
   11.7009    0.9042    0.0000 H   0  0  0  0  0  0  0  0  0  0  0  0
  1  7  1  0  0  0  0
  1 11  1  0  0  0  0
  1 13  1  0  0  0  0
  1 15  2  0  0  0  0
  2  8  1  0  0  0  0
  2 11  1  0  0  0  0
  2 14  1  0  0  0  0
  2 16  2  0  0  0  0
  3 23  1  0  0  0  0
  3 24  1  0  0  0  0
 21  4  1  6  0  0  0
  4 47  1  0  0  0  0
 22  5  1  6  0  0  0
  5 48  1  0  0  0  0
  6 29  1  0  0  0  0
  6 30  1  0  0  0  0
  7 25  1  0  0  0  0
 29  8  1  6  0  0  0
 26  9  1  1  0  0  0
  9 52  1  0  0  0  0
 28 10  1  6  0  0  0
 10 53  1  0  0  0  0
 12 31  2  0  0  0  0
 13 56  1  0  0  0  0
 14 57  1  0  0  0  0
 17 34  2  0  0  0  0
 24 18  1  1  0  0  0
 18 31  1  0  0  0  0
 18 32  1  0  0  0  0
 27 19  1  1  0  0  0
 19 50  1  0  0  0  0
 19 51  1  0  0  0  0
 20 31  1  0  0  0  0
 20 34  1  0  0  0  0
 20 54  1  0  0  0  0
 21 22  1  0  0  0  0
 21 23  1  0  0  0  0
 21 35  1  0  0  0  0
 22 24  1  0  0  0  0
 22 36  1  0  0  0  0
 23 25  1  1  0  0  0
 23 37  1  0  0  0  0
 24 38  1  0  0  0  0
 25 39  1  0  0  0  0
 25 40  1  0  0  0  0
 26 27  1  0  0  0  0
 26 28  1  0  0  0  0
 26 41  1  0  0  0  0
 27 30  1  0  0  0  0
 27 42  1  0  0  0  0
 28 29  1  0  0  0  0
 28 43  1  0  0  0  0
 29 44  1  0  0  0  0
 30 45  1  0  0  0  0
 30 46  1  0  0  0  0
 32 33  2  0  0  0  0
 32 49  1  0  0  0  0
 33 34  1  0  0  0  0
 33 55  1  0  0  0  0
M  END
> <PUBCHEM_COMPOUND_CID>
17756769

> <PUBCHEM_COMPOUND_CANONICALIZED>
1

> <PUBCHEM_CACTVS_COMPLEXITY>
919

> <PUBCHEM_CACTVS_HBOND_ACCEPTOR>
16

> <PUBCHEM_CACTVS_HBOND_DONOR>
8

> <PUBCHEM_CACTVS_ROTATABLE_BOND>
8

> <PUBCHEM_CACTVS_SUBSKEYS>
AAADceBzPAMAAAAAAAAAAAAAAAAAASAAAAAkQAAAAAAAAAAAAAAAHgAQCCAACDzxgAcBCAPABxCIQCFWUICAAAAAAgAIAIAIAECTEAIAgAAPQAAPFyIXAMDwMAIAAAAAAAAAAAAAAAAAAAAAAAAAAAAAAA==

> <PUBCHEM_IUPAC_OPENEYE_NAME>
[(2R,3R,4S,5S)-5-amino-3,4-dihydroxy-tetrahydropyran-2-yl] [[(2R,3S,4R,5R)-5-(2,4-dioxopyrimidin-1-yl)-3,4-dihydroxy-tetrahydrofuran-2-yl]methoxy-hydroxy-phosphoryl] hydrogen phosphate

> <PUBCHEM_IUPAC_CAS_NAME>
[(2R,3R,4S,5S)-5-amino-3,4-dihydroxy-2-oxanyl] [[(2R,3S,4R,5R)-5-(2,4-dioxo-1-pyrimidinyl)-3,4-dihydroxy-2-oxolanyl]methoxy-hydroxyphosphoryl] hydrogen phosphate

> <PUBCHEM_IUPAC_NAME>
[(2R,3R,4S,5S)-5-amino-3,4-dihydroxyoxan-2-yl] [[(2R,3S,4R,5R)-5-(2,4-dioxopyrimidin-1-yl)-3,4-dihydroxyoxolan-2-yl]methoxy-hydroxyphosphoryl] hydrogen phosphate

> <PUBCHEM_IUPAC_SYSTEMATIC_NAME>
[(2R,3R,4S,5S)-5-azanyl-3,4-bis(oxidanyl)oxan-2-yl] [[(2R,3S,4R,5R)-5-[2,4-bis(oxidanylidene)pyrimidin-1-yl]-3,4-bis(oxidanyl)oxolan-2-yl]methoxy-oxidanyl-phosphoryl] hydrogen phosphate

> <PUBCHEM_IUPAC_TRADITIONAL_NAME>
[(2R,3R,4S,5S)-5-amino-3,4-dihydroxy-tetrahydropyran-2-yl] [[(2R,3S,4R,5R)-5-(2,4-diketopyrimidin-1-yl)-3,4-dihydroxy-tetrahydrofuran-2-yl]methoxy-hydroxy-phosphoryl] hydrogen phosphate

> <PUBCHEM_IUPAC_INCHI>
InChI=1S/C14H23N3O15P2/c15-5-3-28-13(11(22)8(5)19)31-34(26,27)32-33(24,25)29-4-6-9(20)10(21)12(30-6)17-2-1-7(18)16-14(17)23/h1-2,5-6,8-13,19-22H,3-4,15H2,(H,24,25)(H,26,27)(H,16,18,23)/t5-,6+,8-,9+,10+,11+,12+,13+/m0/s1

> <PUBCHEM_IUPAC_INCHIKEY>
GWBAKYBSWHQNMQ-IAZOVDBXSA-N

> <PUBCHEM_XLOGP3_AA>
-9.1

> <PUBCHEM_EXACT_MASS>
535.06044

> <PUBCHEM_MOLECULAR_FORMULA>
C14H23N3O15P2

> <PUBCHEM_MOLECULAR_WEIGHT>
535.291044

> <PUBCHEM_OPENEYE_CAN_SMILES>
C1C(C(C(C(O1)OP(=O)(O)OP(=O)(O)OCC2C(C(C(O2)N3C=CC(=O)NC3=O)O)O)O)O)N

> <PUBCHEM_OPENEYE_ISO_SMILES>
C1[C@@H]([C@@H]([C@H]([C@H](O1)OP(=O)(O)OP(=O)(O)OC[C@@H]2[C@H]([C@H]([C@@H](O2)N3C=CC(=O)NC3=O)O)O)O)O)N

> <PUBCHEM_CACTVS_TPSA>
277

> <PUBCHEM_MONOISOTOPIC_WEIGHT>
535.06044

> <PUBCHEM_TOTAL_CHARGE>
0

> <PUBCHEM_HEAVY_ATOM_COUNT>
34

> <PUBCHEM_ATOM_DEF_STEREO_COUNT>
8

> <PUBCHEM_ATOM_UDEF_STEREO_COUNT>
0

> <PUBCHEM_BOND_DEF_STEREO_COUNT>
0

> <PUBCHEM_BOND_UDEF_STEREO_COUNT>
0

> <PUBCHEM_ISOTOPIC_ATOM_COUNT>
0

> <PUBCHEM_COMPONENT_COUNT>
1

> <PUBCHEM_CACTVS_TAUTO_COUNT>
3

> <PUBCHEM_COORDINATE_TYPE>
1
5
255

> <PUBCHEM_BONDANNOTATIONS>
28  10  6
24  18  5
18  31  8
18  32  8
27  19  5
20  31  8
20  34  8
23  25  5
32  33  8
33  34  8
21  4  6
22  5  6
29  8  6
26  9  5

$$$$

