443627
  -OEChem-07051213022D

 21 21  0     1  0  0  0  0  0999 V2000
    2.5369    1.0000    0.0000 O   0  0  0  0  0  0  0  0  0  0  0  0
    2.5369   -1.0000    0.0000 O   0  0  0  0  0  0  0  0  0  0  0  0
    6.0010   -2.0000    0.0000 O   0  0  0  0  0  0  0  0  0  0  0  0
    6.8671   -0.5000    0.0000 O   0  0  0  0  0  0  0  0  0  0  0  0
    4.2690    2.0000    0.0000 N   0  0  0  0  0  0  0  0  0  0  0  0
    4.2690    1.0000    0.0000 C   0  0  1  0  0  0  0  0  0  0  0  0
    3.4030    0.5000    0.0000 C   0  0  1  0  0  0  0  0  0  0  0  0
    5.1350    0.5000    0.0000 C   0  0  0  0  0  0  0  0  0  0  0  0
    5.1350   -0.5000    0.0000 C   0  0  0  0  0  0  0  0  0  0  0  0
    3.4030   -0.5000    0.0000 C   0  0  0  0  0  0  0  0  0  0  0  0
    4.2690   -1.0000    0.0000 C   0  0  0  0  0  0  0  0  0  0  0  0
    6.0010   -1.0000    0.0000 C   0  0  0  0  0  0  0  0  0  0  0  0
    4.8059    1.3100    0.0000 H   0  0  0  0  0  0  0  0  0  0  0  0
    3.4030    1.1200    0.0000 H   0  0  0  0  0  0  0  0  0  0  0  0
    5.7456    0.3923    0.0000 H   0  0  0  0  0  0  0  0  0  0  0  0
    5.3471    1.0826    0.0000 H   0  0  0  0  0  0  0  0  0  0  0  0
    4.2690   -1.6200    0.0000 H   0  0  0  0  0  0  0  0  0  0  0  0
    4.8059    2.3100    0.0000 H   0  0  0  0  0  0  0  0  0  0  0  0
    3.7320    2.3100    0.0000 H   0  0  0  0  0  0  0  0  0  0  0  0
    2.0000    0.6900    0.0000 H   0  0  0  0  0  0  0  0  0  0  0  0
    6.5380   -2.3100    0.0000 H   0  0  0  0  0  0  0  0  0  0  0  0
  7  1  1  1  0  0  0
  1 20  1  0  0  0  0
  2 10  2  0  0  0  0
  3 12  1  0  0  0  0
  3 21  1  0  0  0  0
  4 12  2  0  0  0  0
  6  5  1  6  0  0  0
  5 18  1  0  0  0  0
  5 19  1  0  0  0  0
  6  7  1  0  0  0  0
  6  8  1  0  0  0  0
  6 13  1  0  0  0  0
  7 10  1  0  0  0  0
  7 14  1  0  0  0  0
  8  9  1  0  0  0  0
  8 15  1  0  0  0  0
  8 16  1  0  0  0  0
  9 11  2  0  0  0  0
  9 12  1  0  0  0  0
 10 11  1  0  0  0  0
 11 17  1  0  0  0  0
M  END
> <PUBCHEM_COMPOUND_CID>
443627

> <PUBCHEM_COMPOUND_CANONICALIZED>
1

> <PUBCHEM_CACTVS_COMPLEXITY>
258

> <PUBCHEM_CACTVS_HBOND_ACCEPTOR>
5

> <PUBCHEM_CACTVS_HBOND_DONOR>
3

> <PUBCHEM_CACTVS_ROTATABLE_BOND>
1

> <PUBCHEM_CACTVS_SUBSKEYS>
AAADccBiOAAAAAAAAAAAAAAAAAAAAAAAAAAgAAAAAAAAAAAAAAAAHgAQCAAADDzhgAYACABAAgCIAqDSCAIAAAAgAAAACIFAAEgCFBoAgQAAUAAE0AAIEYOs7CTAAAAAAAAAAAAAAAAAAAAAAAAAAAAAAA==

> <PUBCHEM_IUPAC_OPENEYE_NAME>
(4S,5R)-5-amino-4-hydroxy-3-oxo-cyclohexene-1-carboxylic acid

> <PUBCHEM_IUPAC_CAS_NAME>
(4S,5R)-5-amino-4-hydroxy-3-oxo-1-cyclohexenecarboxylic acid

> <PUBCHEM_IUPAC_NAME>
(4S,5R)-5-amino-4-hydroxy-3-oxocyclohexene-1-carboxylic acid

> <PUBCHEM_IUPAC_SYSTEMATIC_NAME>
(4S,5R)-5-azanyl-4-oxidanyl-3-oxidanylidene-cyclohexene-1-carboxylic acid

> <PUBCHEM_IUPAC_TRADITIONAL_NAME>
(4S,5R)-5-amino-4-hydroxy-3-keto-cyclohexene-1-carboxylic acid

> <PUBCHEM_IUPAC_INCHI>
InChI=1S/C7H9NO4/c8-4-1-3(7(11)12)2-5(9)6(4)10/h2,4,6,10H,1,8H2,(H,11,12)/t4-,6+/m1/s1

> <PUBCHEM_IUPAC_INCHIKEY>
NTKDYXWKDJOXSZ-XINAWCOVSA-N

> <PUBCHEM_XLOGP3_AA>
-3.9

> <PUBCHEM_EXACT_MASS>
171.053158

> <PUBCHEM_MOLECULAR_FORMULA>
C7H9NO4

> <PUBCHEM_MOLECULAR_WEIGHT>
171.15066

> <PUBCHEM_OPENEYE_CAN_SMILES>
C1C(C(C(=O)C=C1C(=O)O)O)N

> <PUBCHEM_OPENEYE_ISO_SMILES>
C1[C@H]([C@@H](C(=O)C=C1C(=O)O)O)N

> <PUBCHEM_CACTVS_TPSA>
101

> <PUBCHEM_MONOISOTOPIC_WEIGHT>
171.053158

> <PUBCHEM_TOTAL_CHARGE>
0

> <PUBCHEM_HEAVY_ATOM_COUNT>
12

> <PUBCHEM_ATOM_DEF_STEREO_COUNT>
2

> <PUBCHEM_ATOM_UDEF_STEREO_COUNT>
0

> <PUBCHEM_BOND_DEF_STEREO_COUNT>
0

> <PUBCHEM_BOND_UDEF_STEREO_COUNT>
0

> <PUBCHEM_ISOTOPIC_ATOM_COUNT>
0

> <PUBCHEM_COMPONENT_COUNT>
1

> <PUBCHEM_CACTVS_TAUTO_COUNT>
36

> <PUBCHEM_COORDINATE_TYPE>
1
5
255

> <PUBCHEM_BONDANNOTATIONS>
7  1  5
6  5  6

$$$$

