442910
  -OEChem-07051213003D

 46 48  0     1  0  0  0  0  0999 V2000
   -2.2338    0.1000    1.7817 O   0  0  0  0  0  0  0  0  0  0  0  0
   -3.8097    1.8247    0.0432 O   0  0  0  0  0  0  0  0  0  0  0  0
    2.5172    2.0990   -1.1849 O   0  0  0  0  0  0  0  0  0  0  0  0
    2.2952   -1.8994    1.1895 O   0  0  0  0  0  0  0  0  0  0  0  0
    0.2176   -0.7847    0.8512 N   0  0  0  0  0  0  0  0  0  0  0  0
   -1.8601    0.4142    0.4310 C   0  0  1  0  0  0  0  0  0  0  0  0
   -2.3883    1.8384    0.1590 C   0  0  1  0  0  0  0  0  0  0  0  0
   -1.7867    2.4190   -1.1158 C   0  0  0  0  0  0  0  0  0  0  0  0
   -0.3438    0.3188    0.2898 C   0  0  0  0  0  0  0  0  0  0  0  0
   -0.2747    2.5340   -0.9827 C   0  0  0  0  0  0  0  0  0  0  0  0
    0.3749    1.3022   -0.4099 C   0  0  0  0  0  0  0  0  0  0  0  0
   -2.5159   -0.6493   -0.4658 C   0  0  0  0  0  0  0  0  0  0  0  0
    1.7663    1.1631   -0.5283 C   0  0  0  0  0  0  0  0  0  0  0  0
   -1.9864   -2.0112   -0.1472 C   0  0  0  0  0  0  0  0  0  0  0  0
    2.3732    0.0371    0.0403 C   0  0  0  0  0  0  0  0  0  0  0  0
    1.5493   -0.8684    0.6973 C   0  0  0  0  0  0  0  0  0  0  0  0
   -1.6343    0.9991    2.6971 C   0  0  0  0  0  0  0  0  0  0  0  0
   -1.3016   -2.8378   -0.9603 C   0  0  0  0  0  0  0  0  0  0  0  0
    3.6898   -0.4761    0.1457 C   0  0  0  0  0  0  0  0  0  0  0  0
    3.5871   -1.6526    0.8504 C   0  0  0  0  0  0  0  0  0  0  0  0
   -0.7942   -4.1999   -0.5803 C   0  0  0  0  0  0  0  0  0  0  0  0
   -0.9741   -2.4226   -2.3699 C   0  0  0  0  0  0  0  0  0  0  0  0
    3.5332    2.7524   -0.4312 C   0  0  0  0  0  0  0  0  0  0  0  0
   -2.1586    2.5463    0.9605 H   0  0  0  0  0  0  0  0  0  0  0  0
   -2.2183    3.4044   -1.3306 H   0  0  0  0  0  0  0  0  0  0  0  0
   -2.0490    1.7953   -1.9793 H   0  0  0  0  0  0  0  0  0  0  0  0
   -0.0349    3.3802   -0.3263 H   0  0  0  0  0  0  0  0  0  0  0  0
    0.1385    2.7563   -1.9738 H   0  0  0  0  0  0  0  0  0  0  0  0
   -3.5961   -0.6863   -0.2720 H   0  0  0  0  0  0  0  0  0  0  0  0
   -2.4084   -0.3956   -1.5227 H   0  0  0  0  0  0  0  0  0  0  0  0
   -2.2090   -2.3765    0.8551 H   0  0  0  0  0  0  0  0  0  0  0  0
   -4.1009    2.7357   -0.1322 H   0  0  0  0  0  0  0  0  0  0  0  0
   -1.4868    0.4507    3.6338 H   0  0  0  0  0  0  0  0  0  0  0  0
   -2.3322    1.8095    2.9321 H   0  0  0  0  0  0  0  0  0  0  0  0
   -0.6623    1.4137    2.4176 H   0  0  0  0  0  0  0  0  0  0  0  0
    4.6050   -0.0573   -0.2462 H   0  0  0  0  0  0  0  0  0  0  0  0
    4.3036   -2.3931    1.1744 H   0  0  0  0  0  0  0  0  0  0  0  0
   -1.2087   -4.9612   -1.2488 H   0  0  0  0  0  0  0  0  0  0  0  0
    0.2982   -4.2327   -0.6432 H   0  0  0  0  0  0  0  0  0  0  0  0
   -1.0774   -4.4635    0.4440 H   0  0  0  0  0  0  0  0  0  0  0  0
   -0.8543   -1.3438   -2.4951 H   0  0  0  0  0  0  0  0  0  0  0  0
   -1.7453   -2.7813   -3.0588 H   0  0  0  0  0  0  0  0  0  0  0  0
   -0.0178   -2.8598   -2.6798 H   0  0  0  0  0  0  0  0  0  0  0  0
    3.2967    2.7913    0.6379 H   0  0  0  0  0  0  0  0  0  0  0  0
    3.6172    3.7796   -0.7982 H   0  0  0  0  0  0  0  0  0  0  0  0
    4.4947    2.2577   -0.5909 H   0  0  0  0  0  0  0  0  0  0  0  0
  1  6  1  0  0  0  0
  1 17  1  0  0  0  0
  2  7  1  0  0  0  0
  2 32  1  0  0  0  0
  3 13  1  0  0  0  0
  3 23  1  0  0  0  0
  4 16  1  0  0  0  0
  4 20  1  0  0  0  0
  5  9  1  0  0  0  0
  5 16  2  0  0  0  0
  6  7  1  0  0  0  0
  6  9  1  0  0  0  0
  6 12  1  0  0  0  0
  7  8  1  0  0  0  0
  7 24  1  0  0  0  0
  8 10  1  0  0  0  0
  8 25  1  0  0  0  0
  8 26  1  0  0  0  0
  9 11  2  0  0  0  0
 10 11  1  0  0  0  0
 10 27  1  0  0  0  0
 10 28  1  0  0  0  0
 11 13  1  0  0  0  0
 12 14  1  0  0  0  0
 12 29  1  0  0  0  0
 12 30  1  0  0  0  0
 13 15  2  0  0  0  0
 14 18  2  0  0  0  0
 14 31  1  0  0  0  0
 15 16  1  0  0  0  0
 15 19  1  0  0  0  0
 17 33  1  0  0  0  0
 17 34  1  0  0  0  0
 17 35  1  0  0  0  0
 18 21  1  0  0  0  0
 18 22  1  0  0  0  0
 19 20  2  0  0  0  0
 19 36  1  0  0  0  0
 20 37  1  0  0  0  0
 21 38  1  0  0  0  0
 21 39  1  0  0  0  0
 21 40  1  0  0  0  0
 22 41  1  0  0  0  0
 22 42  1  0  0  0  0
 22 43  1  0  0  0  0
 23 44  1  0  0  0  0
 23 45  1  0  0  0  0
 23 46  1  0  0  0  0
M  END
> <PUBCHEM_COMPOUND_CID>
442910

> <PUBCHEM_CONFORMER_RMSD>
0.8

> <PUBCHEM_CONFORMER_DIVERSEORDER>
3
9
13
1
10
7
8
6
4
12
2
11
5

> <PUBCHEM_MMFF94_PARTIAL_CHARGES>
25
1 -0.56
10 0.14
11 -0.14
12 0.14
13 0.08
14 -0.29
16 0.4
17 0.28
18 -0.28
19 -0.15
2 -0.68
20 -0.01
21 0.14
22 0.14
23 0.28
3 -0.36
31 0.15
32 0.4
36 0.15
37 0.15
4 -0.28
5 -0.57
6 0.42
7 0.28
9 0.17

> <PUBCHEM_EFFECTIVE_ROTOR_COUNT>
4.8

> <PUBCHEM_PHARMACOPHORE_FEATURES>
8
1 1 acceptor
1 2 acceptor
1 2 donor
1 3 acceptor
3 18 21 22 hydrophobe
5 4 15 16 19 20 rings
6 5 9 11 13 15 16 rings
6 6 7 8 9 10 11 rings

> <PUBCHEM_HEAVY_ATOM_COUNT>
23

> <PUBCHEM_ATOM_DEF_STEREO_COUNT>
2

> <PUBCHEM_ATOM_UDEF_STEREO_COUNT>
0

> <PUBCHEM_BOND_DEF_STEREO_COUNT>
0

> <PUBCHEM_BOND_UDEF_STEREO_COUNT>
0

> <PUBCHEM_ISOTOPIC_ATOM_COUNT>
0

> <PUBCHEM_COMPONENT_COUNT>
1

> <PUBCHEM_CACTVS_TAUTO_COUNT>
1

> <PUBCHEM_CONFORMER_ID>
0006C21E00000003

> <PUBCHEM_MMFF94_ENERGY>
74.1149

> <PUBCHEM_FEATURE_SELFOVERLAP>
40.739

> <PUBCHEM_SHAPE_FINGERPRINT>
10906281 52 17695612340223105108
10967382 1 18129663135584968904
11578080 2 18043555840212553481
12035758 1 15815094706713773795
121448 382 17907857302204551688
12507560 14 18193844974872101256
12553582 1 17760656866910265903
12592029 89 18121500425811268715
12788726 201 17968654896493906023
13032168 30 17759229700975343416
13140716 1 18272083932934079224
14081887 123 17826528664464562768
15309172 13 18190741036208355890
16752209 62 18187657885772651879
16945 1 17844540013473651593
17093844 170 13943852609242996934
21033648 29 17900288547616488048
21452121 199 17473574367917903563
21634736 98 18269557148456153670
22182313 1 17261590089957234221
2334 1 18201149949875503668
23419403 2 15809557141012761090
23557571 272 17895200931273317018
23559900 14 17895767296200999194
2748010 2 17188411010795394309
34934 24 18194966232008571701
35225 105 17531250504551552511
5845 1 15082683606267777887
6992083 37 18337952397710058426
81228 2 18046940145502916379
84936 31 16884710454833595959
90525 40 18408886269405516935

> <PUBCHEM_SHAPE_MULTIPOLES>
444.87
5.29
4.1
1.68
3.74
2.37
-0.5
-1.07
-0.34
-1.22
1.62
-0.76
0.02
-1.7

> <PUBCHEM_SHAPE_SELFOVERLAP>
958.994

> <PUBCHEM_SHAPE_VOLUME>
244.9

> <PUBCHEM_COORDINATE_TYPE>
2
5
10

$$$$

