23724518
  -OEChem-07051213033D

 58 60  0     1  0  0  0  0  0999 V2000
   -0.1272    3.4797   -1.3346 P   0  0  2  0  0  0  0  0  0  0  0  0
    2.3068    1.8271   -1.2890 P   0  0  1  0  0  0  0  0  0  0  0  0
   -3.6351    1.2075   -0.2408 O   0  0  0  0  0  0  0  0  0  0  0  0
   -4.8347    1.8333    2.4349 O   0  0  0  0  0  0  0  0  0  0  0  0
   -3.9047   -0.7073    2.7792 O   0  0  0  0  0  0  0  0  0  0  0  0
   -1.6053    3.0622   -0.8268 O   0  0  0  0  0  0  0  0  0  0  0  0
    4.4065    0.0238    0.6077 O   0  0  0  0  0  0  0  0  0  0  0  0
    2.4947    0.3090   -0.7755 O   0  0  0  0  0  0  0  0  0  0  0  0
    0.7255    2.1221   -1.1276 O   0  0  0  0  0  0  0  0  0  0  0  0
    2.7979   -2.6030    2.6071 O   0  0  0  0  0  0  0  0  0  0  0  0
    3.1301   -2.0095   -2.1617 O   0  0  0  0  0  0  0  0  0  0  0  0
   -4.7759   -2.7063    0.2752 O   0  0  0  0  0  0  0  0  0  0  0  0
    2.1844   -3.2665    0.0624 O   0  0  0  0  0  0  0  0  0  0  0  0
    4.4099    1.3060    3.0275 O   0  0  0  0  0  0  0  0  0  0  0  0
    0.4302    4.4418   -0.1596 O   0  0  0  0  0  0  0  0  0  0  0  0
   -0.0530    4.0593   -2.7169 O   0  0  0  0  0  0  0  0  0  0  0  0
    2.9737    2.7360   -0.1285 O   0  0  0  0  0  0  0  0  0  0  0  0
    2.8443    2.0888   -2.6661 O   0  0  0  0  0  0  0  0  0  0  0  0
   -1.2955   -3.9614   -2.4737 O   0  0  0  0  0  0  0  0  0  0  0  0
   -3.1989   -1.0879   -0.3184 N   0  0  0  0  0  0  0  0  0  0  0  0
   -3.0415   -3.3295   -1.0930 N   0  0  0  0  0  0  0  0  0  0  0  0
   -3.4716    1.5846    2.0922 C   0  0  1  0  0  0  0  0  0  0  0  0
   -3.2578    0.1097    1.8252 C   0  0  2  0  0  0  0  0  0  0  0  0
   -3.2127    2.1976    0.7226 C   0  0  1  0  0  0  0  0  0  0  0  0
   -3.8409   -0.0459    0.4313 C   0  0  1  0  0  0  0  0  0  0  0  0
   -1.7436    2.5087    0.4701 C   0  0  0  0  0  0  0  0  0  0  0  0
    3.6794   -0.5450    1.7055 C   0  0  1  0  0  0  0  0  0  0  0  0
    3.6232   -2.0701    1.5919 C   0  0  2  0  0  0  0  0  0  0  0  0
    3.8056   -0.2425   -0.6641 C   0  0  2  0  0  0  0  0  0  0  0  0
    3.7717   -1.7451   -0.9338 C   0  0  1  0  0  0  0  0  0  0  0  0
   -3.7494   -2.3910   -0.3304 C   0  0  0  0  0  0  0  0  0  0  0  0
   -2.0374   -0.8149   -1.0315 C   0  0  0  0  0  0  0  0  0  0  0  0
    3.0755   -2.4369    0.2238 C   0  0  0  0  0  0  0  0  0  0  0  0
    4.3815   -0.1090    2.9882 C   0  0  0  0  0  0  0  0  0  0  0  0
   -1.3738   -1.7200   -1.7540 C   0  0  0  0  0  0  0  0  0  0  0  0
   -1.8820   -3.1051   -1.8187 C   0  0  0  0  0  0  0  0  0  0  0  0
   -2.8440    1.9773    2.8973 H   0  0  0  0  0  0  0  0  0  0  0  0
   -2.1852   -0.1184    1.8445 H   0  0  0  0  0  0  0  0  0  0  0  0
   -3.8194    3.0918    0.5405 H   0  0  0  0  0  0  0  0  0  0  0  0
   -4.9204   -0.2351    0.4714 H   0  0  0  0  0  0  0  0  0  0  0  0
   -1.1170    1.6176    0.5544 H   0  0  0  0  0  0  0  0  0  0  0  0
   -1.3956    3.2398    1.2073 H   0  0  0  0  0  0  0  0  0  0  0  0
   -4.9327    2.7929    2.5587 H   0  0  0  0  0  0  0  0  0  0  0  0
   -3.7933   -1.6308    2.4960 H   0  0  0  0  0  0  0  0  0  0  0  0
    2.6699   -0.1121    1.7118 H   0  0  0  0  0  0  0  0  0  0  0  0
    4.6202   -2.5168    1.6741 H   0  0  0  0  0  0  0  0  0  0  0  0
    4.4352    0.2299   -1.4263 H   0  0  0  0  0  0  0  0  0  0  0  0
    4.7890   -2.1503   -0.9776 H   0  0  0  0  0  0  0  0  0  0  0  0
   -1.6492    0.1920   -0.9994 H   0  0  0  0  0  0  0  0  0  0  0  0
    5.4174   -0.4638    3.0053 H   0  0  0  0  0  0  0  0  0  0  0  0
    3.8585   -0.4761    3.8765 H   0  0  0  0  0  0  0  0  0  0  0  0
   -3.4190   -4.2728   -1.1158 H   0  0  0  0  0  0  0  0  0  0  0  0
   -0.4699   -1.4705   -2.2961 H   0  0  0  0  0  0  0  0  0  0  0  0
    1.9323   -2.1627    2.5564 H   0  0  0  0  0  0  0  0  0  0  0  0
    2.2569   -1.5817   -2.1411 H   0  0  0  0  0  0  0  0  0  0  0  0
    4.8636    1.5613    3.8487 H   0  0  0  0  0  0  0  0  0  0  0  0
    0.1173    5.3705   -0.1188 H   0  0  0  0  0  0  0  0  0  0  0  0
    3.9487    2.8409   -0.1097 H   0  0  0  0  0  0  0  0  0  0  0  0
  1  6  1  0  0  0  0
  1  9  1  0  0  0  0
  1 15  1  0  0  0  0
  1 16  2  0  0  0  0
  2  8  1  0  0  0  0
  2  9  1  0  0  0  0
  2 17  1  0  0  0  0
  2 18  2  0  0  0  0
  3 24  1  0  0  0  0
  3 25  1  0  0  0  0
  4 22  1  0  0  0  0
  4 43  1  0  0  0  0
  5 23  1  0  0  0  0
  5 44  1  0  0  0  0
  6 26  1  0  0  0  0
  7 27  1  0  0  0  0
  7 29  1  0  0  0  0
  8 29  1  0  0  0  0
 10 28  1  0  0  0  0
 10 54  1  0  0  0  0
 11 30  1  0  0  0  0
 11 55  1  0  0  0  0
 12 31  2  0  0  0  0
 13 33  2  0  0  0  0
 14 34  1  0  0  0  0
 14 56  1  0  0  0  0
 15 57  1  0  0  0  0
 17 58  1  0  0  0  0
 19 36  2  0  0  0  0
 20 25  1  0  0  0  0
 20 31  1  0  0  0  0
 20 32  1  0  0  0  0
 21 31  1  0  0  0  0
 21 36  1  0  0  0  0
 21 52  1  0  0  0  0
 22 23  1  0  0  0  0
 22 24  1  0  0  0  0
 22 37  1  0  0  0  0
 23 25  1  0  0  0  0
 23 38  1  0  0  0  0
 24 26  1  0  0  0  0
 24 39  1  0  0  0  0
 25 40  1  0  0  0  0
 26 41  1  0  0  0  0
 26 42  1  0  0  0  0
 27 28  1  0  0  0  0
 27 34  1  0  0  0  0
 27 45  1  0  0  0  0
 28 33  1  0  0  0  0
 28 46  1  0  0  0  0
 29 30  1  0  0  0  0
 29 47  1  0  0  0  0
 30 33  1  0  0  0  0
 30 48  1  0  0  0  0
 32 35  2  0  0  0  0
 32 49  1  0  0  0  0
 34 50  1  0  0  0  0
 34 51  1  0  0  0  0
 35 36  1  0  0  0  0
 35 53  1  0  0  0  0
M  END
> <PUBCHEM_COMPOUND_CID>
23724518

> <PUBCHEM_CONFORMER_RMSD>
1.4

> <PUBCHEM_CONFORMER_DIVERSEORDER>
1
116
89
195
39
215
282
373
86
237
147
133
73
364
105
74
281
141
47
386
249
210
322
199
63
259
70
333
9
171
326
296
78
300
91
211
243
117
363
19
355
36
193
252
319
228
62
260
347
162
336
84
198
381
43
16
310
371
394
165
69
365
24
218
254
65
71
278
353
15
207
179
374
38
340
55
255
226
178
392
154
298
186
352
136
180
334
14
359
235
68
95
155
113
145
96
329
273
174
177
205
289
114
232
264
241
22
67
253
220
295
118
299
29
45
153
350
297
2
151
369
149
311
377
262
131
276
263
156
202
269
238
176
200
325
52
35
64
54
308
17
97
112
166
135
219
294
106
31
256
167
368
102
221
124
338
175
285
183
313
13
367
75
213
231
290
277
190
128
191
315
92
88
83
240
346
284
305
335
246
306
396
362
323
23
150
80
239
265
111
79
44
41
58
309
209
152
366
34
286
267
137
33
324
274
98
157
233
143
188
66
121
217
104
129
134
272
393
251
146
229
158
103
101
20
99
48
250
120
383
349
82
222
46
107
360
389
56
351
321
168
244
85
314
339
206
21
196
108
50
182
230
4
159
387
60
169
357
395
330
376
8
115
119
391
148
203
261
301
42
292
331
3
127
201
184
94
18
288
28
316
214
172
27
100
378
236
328
10
342
248
304
77
354
212
361
110
123
25
208
49
40
132
307
32
268
385
163
287
109
345
57
245
93
302
7
266
320
224
144
370
173
344
164
192
379
384
81
51
271
348
275
337
258
187
181
194
189
161
122
5
279
170
140
53
26
242
358
227
247
130
280
225
234
12
76
126
223
139
388
125
197
142
291
160
61
382
332
318
317
59
37
341
30
11
216
270
312
390
303
87
6
283
380
375
185
356
293
138
343
72
372
257
204
327
90

> <PUBCHEM_MMFF94_PARTIAL_CHARGES>
46
1 1.51
10 -0.68
11 -0.68
12 -0.57
13 -0.57
14 -0.68
15 -0.77
16 -0.7
17 -0.77
18 -0.7
19 -0.57
2 1.51
20 -0.47
21 -0.49
22 0.28
23 0.28
24 0.28
25 0.58
26 0.28
27 0.28
28 0.34
29 0.56
3 -0.56
30 0.34
31 0.69
32 -0.04
33 0.45
34 0.28
35 -0.14
36 0.62
4 -0.68
43 0.4
44 0.4
49 0.15
5 -0.68
52 0.37
53 0.15
54 0.4
55 0.4
56 0.4
57 0.5
58 0.5
6 -0.55
7 -0.56
8 -0.55
9 -0.54

> <PUBCHEM_EFFECTIVE_ROTOR_COUNT>
11

> <PUBCHEM_PHARMACOPHORE_FEATURES>
23
1 10 acceptor
1 10 donor
1 11 acceptor
1 11 donor
1 12 acceptor
1 13 acceptor
1 14 acceptor
1 14 donor
1 15 acceptor
1 16 acceptor
1 17 acceptor
1 18 acceptor
1 19 acceptor
1 21 donor
1 3 acceptor
1 4 acceptor
1 4 donor
1 5 acceptor
1 5 donor
1 7 acceptor
5 3 22 23 24 25 rings
6 20 21 31 32 35 36 rings
6 7 27 28 29 30 33 rings

> <PUBCHEM_HEAVY_ATOM_COUNT>
36

> <PUBCHEM_ATOM_DEF_STEREO_COUNT>
8

> <PUBCHEM_ATOM_UDEF_STEREO_COUNT>
0

> <PUBCHEM_BOND_DEF_STEREO_COUNT>
0

> <PUBCHEM_BOND_UDEF_STEREO_COUNT>
0

> <PUBCHEM_ISOTOPIC_ATOM_COUNT>
0

> <PUBCHEM_COMPONENT_COUNT>
1

> <PUBCHEM_CACTVS_TAUTO_COUNT>
21

> <PUBCHEM_CONFORMER_ID>
016A01E600000001

> <PUBCHEM_MMFF94_ENERGY>
36.0281

> <PUBCHEM_FEATURE_SELFOVERLAP>
116.768

> <PUBCHEM_SHAPE_FINGERPRINT>
10462674 125 17538324698130577542
10794284 68 18054517078706511714
10928967 22 18200579393276161739
12422481 6 17979616155555775057
12655387 17 17416104287858926185
13965767 371 18188773984463910966
14279260 333 17342645997274434706
150020 26 17544471320169567470
15297060 5 17533467201597507423
15403338 16 17631999958138699129
17809404 112 17914364434991805218
19315092 285 17694530059988465767
20764821 26 17917138417082443042
21315759 227 17202751592948153304
238918 7 17257106285348710958
469060 322 18341616979971953339
474144 1 18052825745141035127
50080093 196 18268724813553174258
550186 83 18127666396551028972
5895379 119 18189333468732262990
7097593 13 18337937996822164157
86090 222 16468119904115592228

> <PUBCHEM_SHAPE_MULTIPOLES>
638.82
10.13
5.56
3.1
1.02
1.31
1.25
-3.27
6.63
-1.77
-3.51
1.37
0.24
-2.33

> <PUBCHEM_SHAPE_SELFOVERLAP>
1308.387

> <PUBCHEM_SHAPE_VOLUME>
368.6

> <PUBCHEM_COORDINATE_TYPE>
2
5
10

$$$$

