36980
  -OEChem-07051213053D

 22 23  0     0  0  0  0  0  0999 V2000
   -0.0184   -2.7871   -0.0009 Cl  0  0  0  0  0  0  0  0  0  0  0  0
    3.6577    2.2546   -0.0005 Cl  0  0  0  0  0  0  0  0  0  0  0  0
    0.4079   -0.0832   -0.0002 C   0  0  0  0  0  0  0  0  0  0  0  0
   -1.0234    0.1292   -0.0001 C   0  0  0  0  0  0  0  0  0  0  0  0
    0.9648   -1.3643    0.0003 C   0  0  0  0  0  0  0  0  0  0  0  0
    1.2441    1.0356   -0.0004 C   0  0  0  0  0  0  0  0  0  0  0  0
   -1.7135    0.2313   -1.2079 C   0  0  0  0  0  0  0  0  0  0  0  0
   -1.7131    0.2315    1.2079 C   0  0  0  0  0  0  0  0  0  0  0  0
    2.6297    0.8742   -0.0001 C   0  0  0  0  0  0  0  0  0  0  0  0
    2.3503   -1.5255    0.0006 C   0  0  0  0  0  0  0  0  0  0  0  0
   -3.0933    0.4359   -1.2078 C   0  0  0  0  0  0  0  0  0  0  0  0
   -3.0929    0.4359    1.2082 C   0  0  0  0  0  0  0  0  0  0  0  0
    3.1828   -0.4062    0.0005 C   0  0  0  0  0  0  0  0  0  0  0  0
   -3.7830    0.5381    0.0002 C   0  0  0  0  0  0  0  0  0  0  0  0
    0.8183    2.0375   -0.0009 H   0  0  0  0  0  0  0  0  0  0  0  0
   -1.1912    0.1534   -2.1587 H   0  0  0  0  0  0  0  0  0  0  0  0
   -1.1906    0.1538    2.1586 H   0  0  0  0  0  0  0  0  0  0  0  0
    2.7980   -2.5162    0.0009 H   0  0  0  0  0  0  0  0  0  0  0  0
   -3.6308    0.5153   -2.1482 H   0  0  0  0  0  0  0  0  0  0  0  0
   -3.6300    0.5154    2.1488 H   0  0  0  0  0  0  0  0  0  0  0  0
    4.2607   -0.5470    0.0007 H   0  0  0  0  0  0  0  0  0  0  0  0
   -4.8573    0.6971    0.0004 H   0  0  0  0  0  0  0  0  0  0  0  0
  1  5  1  0  0  0  0
  2  9  1  0  0  0  0
  3  4  1  0  0  0  0
  3  5  2  0  0  0  0
  3  6  1  0  0  0  0
  4  7  2  0  0  0  0
  4  8  1  0  0  0  0
  5 10  1  0  0  0  0
  6  9  2  0  0  0  0
  6 15  1  0  0  0  0
  7 11  1  0  0  0  0
  7 16  1  0  0  0  0
  8 12  2  0  0  0  0
  8 17  1  0  0  0  0
  9 13  1  0  0  0  0
 10 13  2  0  0  0  0
 10 18  1  0  0  0  0
 11 14  2  0  0  0  0
 11 19  1  0  0  0  0
 12 14  1  0  0  0  0
 12 20  1  0  0  0  0
 13 21  1  0  0  0  0
 14 22  1  0  0  0  0
M  END
> <PUBCHEM_COMPOUND_CID>
36980

> <PUBCHEM_CONFORMER_RMSD>
0.4

> <PUBCHEM_CONFORMER_DIVERSEORDER>
1
2
3

> <PUBCHEM_MMFF94_PARTIAL_CHARGES>
20
1 -0.18
10 -0.15
11 -0.15
12 -0.15
13 -0.15
14 -0.15
15 0.15
16 0.15
17 0.15
18 0.15
19 0.15
2 -0.18
20 0.15
21 0.15
22 0.15
5 0.18
6 -0.15
7 -0.15
8 -0.15
9 0.18

> <PUBCHEM_EFFECTIVE_ROTOR_COUNT>
1

> <PUBCHEM_PHARMACOPHORE_FEATURES>
2
6 3 5 6 9 10 13 rings
6 4 7 8 11 12 14 rings

> <PUBCHEM_HEAVY_ATOM_COUNT>
14

> <PUBCHEM_ATOM_DEF_STEREO_COUNT>
0

> <PUBCHEM_ATOM_UDEF_STEREO_COUNT>
0

> <PUBCHEM_BOND_DEF_STEREO_COUNT>
0

> <PUBCHEM_BOND_UDEF_STEREO_COUNT>
0

> <PUBCHEM_ISOTOPIC_ATOM_COUNT>
0

> <PUBCHEM_COMPONENT_COUNT>
1

> <PUBCHEM_CACTVS_TAUTO_COUNT>
1

> <PUBCHEM_CONFORMER_ID>
0000907400000001

> <PUBCHEM_MMFF94_ENERGY>
41.0956

> <PUBCHEM_FEATURE_SELFOVERLAP>
10.149

> <PUBCHEM_SHAPE_FINGERPRINT>
10219947 1 18341893021461092956
10608611 8 18130511928306930661
11471102 20 18339645645432061132
11725454 13 16841960089535548549
12119455 92 18201730530569155976
12236239 1 17676490579032660289
12491281 212 17313094237773389458
12932764 1 17846779632596405779
13380535 21 18267857299131812494
13380535 76 18335705992702396342
13538477 17 17458357350744059767
13581323 91 15195564611029827745
13583140 156 16701200585415529624
14251717 144 18337114556859341503
14897335 6 18336551504216861256
15219456 202 18060419131477486997
15279307 12 17967539003608155975
15309172 13 18413668002292640723
15342168 16 18268983211486272429
15775835 57 18259985950653628204
16945 1 18338518659062269634
17844478 74 17917423272108828765
1813 80 17680976707155616678
18175812 5 17847057796242917511
18186145 218 18334853926735203660
19049666 15 17558838535582579805
19422 9 17749110014938375671
200 152 18261683657348048381
20201158 50 18058446672152640155
20279233 1 17704071811030270953
204376 136 18340486656206200968
20645464 45 17489870444902170609
20645477 70 18267876145274461695
20715346 28 17846213358311793484
21499 59 18336548226824589604
21501502 16 18266746783734812862
21524375 3 18334862662899007182
21639500 275 18408895022422246028
21730867 7 18343580776078400542
22079108 93 18115579328020016249
2255824 54 18262517112721203534
228727 97 17530962471159819521
23557571 272 17131823313943516327
23559900 14 16486694783241104306
25 1 18408602539750226340
2748010 2 18340191991411512406
474 4 18189340082665413784
633830 44 18114729516826588693
77492 1 17676491682828679873
81228 2 17766278669926199794
8272917 22 18190736638810632607
9981440 41 16666307463738470424

> <PUBCHEM_SHAPE_MULTIPOLES>
291.85
6.28
2.1
1.03
0.58
1.13
0
-3.19
0
-1.91
0
0.99
-0.15
0

> <PUBCHEM_SHAPE_SELFOVERLAP>
615.572

> <PUBCHEM_SHAPE_VOLUME>
158.5

> <PUBCHEM_COORDINATE_TYPE>
2
5
10

$$$$

