854098
  -OEChem-06241222473D

 39 40  0     1  0  0  0  0  0999 V2000
    0.0417   -2.3365   -0.2498 N   0  0  0  0  0  0  0  0  0  0  0  0
   -4.5982    1.2537    0.1560 N   0  0  0  0  0  0  0  0  0  0  0  0
   -0.0638   -0.1087   -0.3058 C   0  0  0  0  0  0  0  0  0  0  0  0
   -1.3625   -0.6418   -0.5385 C   0  0  0  0  0  0  0  0  0  0  0  0
    0.7984   -1.1929   -0.1281 C   0  0  0  0  0  0  0  0  0  0  0  0
    0.4626    1.1961   -0.2292 C   0  0  0  0  0  0  0  0  0  0  0  0
   -2.6058    0.1181   -0.7816 C   0  0  0  0  0  0  0  0  0  0  0  0
    2.1663   -1.0367    0.1232 C   0  0  0  0  0  0  0  0  0  0  0  0
    1.8288    1.3675    0.0217 C   0  0  0  0  0  0  0  0  0  0  0  0
    2.6657    0.2669    0.1948 C   0  0  0  0  0  0  0  0  0  0  0  0
   -3.4058    0.4727    0.4988 C   0  0  2  0  0  0  0  0  0  0  0  0
   -1.2654   -2.0136   -0.4979 C   0  0  0  0  0  0  0  0  0  0  0  0
   -0.4029    2.4060   -0.4095 C   0  0  0  0  0  0  0  0  0  0  0  0
    3.0703   -2.2114    0.3098 C   0  0  0  0  0  0  0  0  0  0  0  0
    2.3975    2.7511    0.1051 C   0  0  0  0  0  0  0  0  0  0  0  0
    4.1245    0.4798    0.4623 C   0  0  0  0  0  0  0  0  0  0  0  0
   -3.8514   -0.7705    1.2686 C   0  0  0  0  0  0  0  0  0  0  0  0
   -2.4039    1.0176   -1.3724 H   0  0  0  0  0  0  0  0  0  0  0  0
   -3.2544   -0.4861   -1.4339 H   0  0  0  0  0  0  0  0  0  0  0  0
   -2.7854    1.0736    1.1725 H   0  0  0  0  0  0  0  0  0  0  0  0
   -2.0068   -2.7905   -0.6233 H   0  0  0  0  0  0  0  0  0  0  0  0
    0.3920   -3.2806   -0.1683 H   0  0  0  0  0  0  0  0  0  0  0  0
   -1.3662    2.2881    0.0839 H   0  0  0  0  0  0  0  0  0  0  0  0
    0.0044    3.3123    0.0461 H   0  0  0  0  0  0  0  0  0  0  0  0
   -0.5596    2.5996   -1.4752 H   0  0  0  0  0  0  0  0  0  0  0  0
    3.4745   -2.2296    1.3273 H   0  0  0  0  0  0  0  0  0  0  0  0
    2.5503   -3.1624    0.1602 H   0  0  0  0  0  0  0  0  0  0  0  0
    3.8906   -2.1904   -0.4156 H   0  0  0  0  0  0  0  0  0  0  0  0
    3.4845    2.7983    0.0063 H   0  0  0  0  0  0  0  0  0  0  0  0
    2.0313    3.3763   -0.7171 H   0  0  0  0  0  0  0  0  0  0  0  0
    2.1320    3.2118    1.0624 H   0  0  0  0  0  0  0  0  0  0  0  0
    4.2664    1.1842    1.2900 H   0  0  0  0  0  0  0  0  0  0  0  0
    4.6679   -0.4177    0.7659 H   0  0  0  0  0  0  0  0  0  0  0  0
    4.6211    0.8619   -0.4362 H   0  0  0  0  0  0  0  0  0  0  0  0
   -2.9952   -1.3154    1.6779 H   0  0  0  0  0  0  0  0  0  0  0  0
   -4.4234   -1.4551    0.6324 H   0  0  0  0  0  0  0  0  0  0  0  0
   -4.4847   -0.4981    2.1211 H   0  0  0  0  0  0  0  0  0  0  0  0
   -4.3179    2.1150   -0.3114 H   0  0  0  0  0  0  0  0  0  0  0  0
   -5.0824    1.5342    1.0079 H   0  0  0  0  0  0  0  0  0  0  0  0
  1  5  1  0  0  0  0
  1 12  1  0  0  0  0
  1 22  1  0  0  0  0
  2 11  1  0  0  0  0
  2 38  1  0  0  0  0
  2 39  1  0  0  0  0
  3  4  1  0  0  0  0
  3  5  1  0  0  0  0
  3  6  2  0  0  0  0
  4  7  1  0  0  0  0
  4 12  2  0  0  0  0
  5  8  2  0  0  0  0
  6  9  1  0  0  0  0
  6 13  1  0  0  0  0
  7 11  1  0  0  0  0
  7 18  1  0  0  0  0
  7 19  1  0  0  0  0
  8 10  1  0  0  0  0
  8 14  1  0  0  0  0
  9 10  2  0  0  0  0
  9 15  1  0  0  0  0
 10 16  1  0  0  0  0
 11 17  1  0  0  0  0
 11 20  1  0  0  0  0
 12 21  1  0  0  0  0
 13 23  1  0  0  0  0
 13 24  1  0  0  0  0
 13 25  1  0  0  0  0
 14 26  1  0  0  0  0
 14 27  1  0  0  0  0
 14 28  1  0  0  0  0
 15 29  1  0  0  0  0
 15 30  1  0  0  0  0
 15 31  1  0  0  0  0
 16 32  1  0  0  0  0
 16 33  1  0  0  0  0
 16 34  1  0  0  0  0
 17 35  1  0  0  0  0
 17 36  1  0  0  0  0
 17 37  1  0  0  0  0
M  END
> <PUBCHEM_COMPOUND_CID>
854098

> <PUBCHEM_CONFORMER_RMSD>
0.6

> <PUBCHEM_CONFORMER_DIVERSEORDER>
3
1
5
4
2

> <PUBCHEM_MMFF94_PARTIAL_CHARGES>
19
1 0.03
10 -0.14
11 0.27
12 -0.3
13 0.14
14 0.14
15 0.14
16 0.14
2 -0.99
21 0.15
22 0.27
38 0.36
39 0.36
4 -0.18
5 -0.15
6 -0.14
7 0.18
8 -0.14
9 -0.14

> <PUBCHEM_EFFECTIVE_ROTOR_COUNT>
2

> <PUBCHEM_PHARMACOPHORE_FEATURES>
6
1 1 cation
1 1 donor
1 2 cation
1 2 donor
5 1 3 4 5 12 rings
6 3 5 6 8 9 10 rings

> <PUBCHEM_HEAVY_ATOM_COUNT>
17

> <PUBCHEM_ATOM_DEF_STEREO_COUNT>
1

> <PUBCHEM_ATOM_UDEF_STEREO_COUNT>
0

> <PUBCHEM_BOND_DEF_STEREO_COUNT>
0

> <PUBCHEM_BOND_UDEF_STEREO_COUNT>
0

> <PUBCHEM_ISOTOPIC_ATOM_COUNT>
0

> <PUBCHEM_COMPONENT_COUNT>
1

> <PUBCHEM_CACTVS_TAUTO_COUNT>
1

> <PUBCHEM_CONFORMER_ID>
000D085200000003

> <PUBCHEM_MMFF94_ENERGY>
36.8139

> <PUBCHEM_FEATURE_SELFOVERLAP>
30.538

> <PUBCHEM_SHAPE_FINGERPRINT>
10411042 1 17544476817986403263
10967382 1 18410580599780953716
10980938 120 18411417267646682122
11086676 242 18342463681155136880
11132069 177 18261683605486719864
11471102 20 18338805610148396869
11471102 22 18342727508053141107
12251169 10 18409730629710503891
12382932 28 18337398132206701394
12390115 104 17687450279206172976
13132413 78 18335420110604118789
13140716 1 18195253222045121832
13172582 1 18410015437571208791
13221675 6 18411421708927722366
13380535 21 18268706113149307918
14178342 30 17976835189647289128
14790565 3 18340194194904412916
15196674 1 18410013264560402047
15209294 21 17895487950899969152
15309172 13 18410292484742683263
15375462 189 18130518465579165866
15442244 35 18408608066982882623
15475509 8 17607214818486079676
16945 1 18339373997778321684
17844478 74 17846501443443620117
18186145 218 18259700103510746247
18219364 16 18342466919644796149
19591789 44 18121214539803061150
20739085 24 18194665176255086824
21029758 27 18270676601516812654
21501502 16 18194126205114433726
22094290 62 18408604755663031829
22182313 1 18194414505205563068
23184049 59 18409728486643044991
2334 1 17835248848519611092
23463225 33 18411702092676778244
23493267 7 17417264258733427293
23557571 272 13984662517217181195
2748010 2 18122077660867926212
350125 39 18193838133147142511
7364860 26 18335141977718210126
7832392 63 18335425616883794718
8809292 202 18058442274274771787

> <PUBCHEM_SHAPE_MULTIPOLES>
339.89
6.72
2.72
0.84
3.75
0.35
-0.09
0.94
-2.01
-1.39
0.15
0.49
-0.08
0

> <PUBCHEM_SHAPE_SELFOVERLAP>
723.187

> <PUBCHEM_SHAPE_VOLUME>
193.4

> <PUBCHEM_COORDINATE_TYPE>
2
5
10

$$$$

