75729
  -OEChem-07051212572D

 39 43  0     1  0  0  0  0  0999 V2000
    4.0753   -3.4289    0.0000 O   0  0  0  0  0  0  0  0  0  0  0  0
    2.1028   -1.2422    0.0000 O   0  0  0  0  0  0  0  0  0  0  0  0
    5.4032   -1.9016    0.0000 O   0  0  0  0  0  0  0  0  0  0  0  0
    8.1156   -0.0446    0.0000 O   0  0  0  0  0  0  0  0  0  0  0  0
    2.9375    0.5755    0.0000 O   0  0  0  0  0  0  0  0  0  0  0  0
    8.3567   -1.8766    0.0000 O   0  0  0  0  0  0  0  0  0  0  0  0
    3.5761   -1.0881    0.0000 C   0  0  1  0  0  0  0  0  0  0  0  0
    2.9128   -1.8286    0.0000 C   0  0  1  0  0  0  0  0  0  0  0  0
    4.4896   -1.4949    0.0000 C   0  0  2  0  0  0  0  0  0  0  0  0
    3.4106   -2.6891    0.0000 C   0  0  1  0  0  0  0  0  0  0  0  0
    4.3832   -2.4832    0.0000 C   0  0  2  0  0  0  0  0  0  0  0  0
    6.0248   -0.2517    0.0000 C   0  0  2  0  0  0  0  0  0  0  0  0
    3.6806   -0.0936    0.0000 C   0  0  1  0  0  0  0  0  0  0  0  0
    2.0000   -2.2369    0.0000 C   0  0  0  0  0  0  0  0  0  0  0  0
    6.2836    0.7142    0.0000 C   0  0  1  0  0  0  0  0  0  0  0  0
    5.5470    1.6968    0.0000 C   0  0  1  0  0  0  0  0  0  0  0  0
    2.6625   -0.6814    0.0000 C   0  0  0  0  0  0  0  0  0  0  0  0
    7.8567   -1.0105    0.0000 C   0  0  0  0  0  0  0  0  0  0  0  0
    5.0470    2.5628    0.0000 C   0  0  0  0  0  0  0  0  0  0  0  0
    5.5470    3.4289    0.0000 C   0  0  0  0  0  0  0  0  0  0  0  0
    4.0470    2.5628    0.0000 C   0  0  0  0  0  0  0  0  0  0  0  0
    2.9090   -3.0534    0.0000 H   0  0  0  0  0  0  0  0  0  0  0  0
    4.9894   -2.6131    0.0000 H   0  0  0  0  0  0  0  0  0  0  0  0
    5.8048   -1.0728    0.0000 H   0  0  0  0  0  0  0  0  0  0  0  0
    3.1018   -0.3158    0.0000 H   0  0  0  0  0  0  0  0  0  0  0  0
    1.3816   -2.2812    0.0000 H   0  0  0  0  0  0  0  0  0  0  0  0
    2.1510   -2.8382    0.0000 H   0  0  0  0  0  0  0  0  0  0  0  0
    6.5036    1.5352    0.0000 H   0  0  0  0  0  0  0  0  0  0  0  0
    6.0644    2.0384    0.0000 H   0  0  0  0  0  0  0  0  0  0  0  0
    2.9147   -0.1150    0.0000 H   0  0  0  0  0  0  0  0  0  0  0  0
    2.0962   -0.4292    0.0000 H   0  0  0  0  0  0  0  0  0  0  0  0
    2.4104   -1.2478    0.0000 H   0  0  0  0  0  0  0  0  0  0  0  0
    5.4680   -2.5182    0.0000 H   0  0  0  0  0  0  0  0  0  0  0  0
    3.0664    1.1820    0.0000 H   0  0  0  0  0  0  0  0  0  0  0  0
    6.0839    3.1189    0.0000 H   0  0  0  0  0  0  0  0  0  0  0  0
    5.8570    3.9658    0.0000 H   0  0  0  0  0  0  0  0  0  0  0  0
    5.0101    3.7389    0.0000 H   0  0  0  0  0  0  0  0  0  0  0  0
    3.7370    3.0998    0.0000 H   0  0  0  0  0  0  0  0  0  0  0  0
    3.7370    2.0259    0.0000 H   0  0  0  0  0  0  0  0  0  0  0  0
 10  1  1  1  0  0  0
 11  1  1  1  0  0  0
  8  2  1  1  0  0  0
  2 14  1  0  0  0  0
  9  3  1  1  0  0  0
  3 33  1  0  0  0  0
  4 15  1  0  0  0  0
  4 18  1  0  0  0  0
 13  5  1  6  0  0  0
  5 34  1  0  0  0  0
  6 18  2  0  0  0  0
  7  8  1  0  0  0  0
  7  9  1  0  0  0  0
  7 13  1  0  0  0  0
  7 17  1  1  0  0  0
  8 10  1  0  0  0  0
  8 14  1  0  0  0  0
  9 11  1  0  0  0  0
  9 12  1  0  0  0  0
 10 11  1  0  0  0  0
 10 22  1  0  0  0  0
 11 23  1  0  0  0  0
 12 16  1  0  0  0  0
 12 18  1  0  0  0  0
 12 24  1  1  0  0  0
 13 15  1  0  0  0  0
 13 25  1  0  0  0  0
 14 26  1  0  0  0  0
 14 27  1  0  0  0  0
 15 16  1  0  0  0  0
 15 28  1  6  0  0  0
 16 19  1  6  0  0  0
 16 29  1  0  0  0  0
 17 30  1  0  0  0  0
 17 31  1  0  0  0  0
 17 32  1  0  0  0  0
 19 20  1  0  0  0  0
 19 21  2  0  0  0  0
 20 35  1  0  0  0  0
 20 36  1  0  0  0  0
 20 37  1  0  0  0  0
 21 38  1  0  0  0  0
 21 39  1  0  0  0  0
M  END
> <PUBCHEM_COMPOUND_CID>
75729

> <PUBCHEM_COMPOUND_CANONICALIZED>
1

> <PUBCHEM_CACTVS_COMPLEXITY>
603

> <PUBCHEM_CACTVS_HBOND_ACCEPTOR>
6

> <PUBCHEM_CACTVS_HBOND_DONOR>
2

> <PUBCHEM_CACTVS_ROTATABLE_BOND>
1

> <PUBCHEM_CACTVS_SUBSKEYS>
AAADceBwOAAAAAAAAAAAAAAAEiQAAaIAAAA0QAAABIAAAGAAAAAAGgAACAAAD1SggAICCAAABgCIAgDSCAAAAAAgAAAAAAEAAAgBEBYAAQACQAAF4AADAAHK7PzPgAAAAAAAAADCAAYQADCAAYQADCAAAA==

> <PUBCHEM_IUPAC_INCHI>
InChI=1S/C15H18O6/c1-5(2)6-7-12(17)20-8(6)9(16)13(3)14(4-19-14)10-11(21-10)15(7,13)18/h6-11,16,18H,1,4H2,2-3H3/t6-,7+,8+,9+,10+,11-,13-,14+,15-/m0/s1

> <PUBCHEM_IUPAC_INCHIKEY>
CCAZWUJBLXKBAY-ULZPOIKGSA-N

> <PUBCHEM_XLOGP3_AA>
-0.5

> <PUBCHEM_EXACT_MASS>
294.110338

> <PUBCHEM_MOLECULAR_FORMULA>
C15H18O6

> <PUBCHEM_MOLECULAR_WEIGHT>
294.29982

> <PUBCHEM_OPENEYE_CAN_SMILES>
CC(=C)C1C2C(C3(C4(CO4)C5C(C3(C1C(=O)O2)O)O5)C)O

> <PUBCHEM_OPENEYE_ISO_SMILES>
CC(=C)[C@@H]1[C@@H]2[C@H]([C@]3([C@@]4(CO4)[C@H]5[C@@H]([C@]3([C@H]1C(=O)O2)O)O5)C)O

> <PUBCHEM_CACTVS_TPSA>
91.8

> <PUBCHEM_MONOISOTOPIC_WEIGHT>
294.110338

> <PUBCHEM_TOTAL_CHARGE>
0

> <PUBCHEM_HEAVY_ATOM_COUNT>
21

> <PUBCHEM_ATOM_DEF_STEREO_COUNT>
9

> <PUBCHEM_ATOM_UDEF_STEREO_COUNT>
0

> <PUBCHEM_BOND_DEF_STEREO_COUNT>
0

> <PUBCHEM_BOND_UDEF_STEREO_COUNT>
0

> <PUBCHEM_ISOTOPIC_ATOM_COUNT>
0

> <PUBCHEM_COMPONENT_COUNT>
1

> <PUBCHEM_CACTVS_TAUTO_COUNT>
1

> <PUBCHEM_COORDINATE_TYPE>
1
5
255

> <PUBCHEM_BONDANNOTATIONS>
10  1  5
11  1  5
12  24  5
15  28  6
16  19  6
8  2  5
9  3  5
13  5  6
7  17  5

$$$$

