42008
  -OEChem-07051212543D

 47 49  0     1  0  0  0  0  0999 V2000
    1.0454    0.9389   -2.2849 S   0  0  0  0  0  0  0  0  0  0  0  0
   -3.2064   -0.3680   -0.4707 S   0  0  0  0  0  0  0  0  0  0  0  0
    4.1588   -3.3473   -0.0421 S   0  0  0  0  0  0  0  0  0  0  0  0
    4.0492    2.4601   -0.1103 O   0  0  0  0  0  0  0  0  0  0  0  0
    2.4423    0.9230    2.1499 O   0  0  0  0  0  0  0  0  0  0  0  0
   -0.4361    2.1645    2.6375 O   0  0  0  0  0  0  0  0  0  0  0  0
   -1.3605    0.1140    2.2239 O   0  0  0  0  0  0  0  0  0  0  0  0
    4.7618   -0.4605    0.9525 O   0  0  0  0  0  0  0  0  0  0  0  0
    1.0544    1.4549    0.3195 N   0  0  0  0  0  0  0  0  0  0  0  0
    3.4984    0.2143   -0.8733 N   0  0  0  0  0  0  0  0  0  0  0  0
   -5.8544   -1.1506   -0.2940 N   0  0  0  0  0  0  0  0  0  0  0  0
   -5.6036    1.0020   -0.2165 N   0  0  0  0  0  0  0  0  0  0  0  0
   -7.0938   -0.6555   -0.1712 N   0  0  0  0  0  0  0  0  0  0  0  0
   -6.9341    0.6614   -0.1239 N   0  0  0  0  0  0  0  0  0  0  0  0
    1.0740   -5.2864    0.6331 N   0  0  0  0  0  0  0  0  0  0  0  0
    1.6716    1.9265   -0.9068 C   0  0  1  0  0  0  0  0  0  0  0  0
    3.0140    1.4735   -0.2919 C   0  0  2  0  0  0  0  0  0  0  0  0
    2.1956    1.2423    1.0104 C   0  0  0  0  0  0  0  0  0  0  0  0
   -0.2874    1.3416    0.4942 C   0  0  0  0  0  0  0  0  0  0  0  0
   -1.1429    1.3804   -0.5552 C   0  0  0  0  0  0  0  0  0  0  0  0
   -0.6848    1.4501   -2.0103 C   0  0  0  0  0  0  0  0  0  0  0  0
   -2.6476    1.3431   -0.4368 C   0  0  0  0  0  0  0  0  0  0  0  0
   -0.7645    1.1098    1.8655 C   0  0  0  0  0  0  0  0  0  0  0  0
    4.3414   -0.6518   -0.1875 C   0  0  0  0  0  0  0  0  0  0  0  0
    4.5421    3.0538   -1.3019 C   0  0  0  0  0  0  0  0  0  0  0  0
    4.6944   -1.8921   -0.9728 C   0  0  0  0  0  0  0  0  0  0  0  0
   -4.9535   -0.1342   -0.3206 C   0  0  0  0  0  0  0  0  0  0  0  0
    2.4047   -3.3174   -0.4812 C   0  0  0  0  0  0  0  0  0  0  0  0
   -5.6436   -2.5737   -0.3767 C   0  0  0  0  0  0  0  0  0  0  0  0
    1.6650   -4.4168    0.1420 C   0  0  0  0  0  0  0  0  0  0  0  0
    1.5697    3.0105   -1.0357 H   0  0  0  0  0  0  0  0  0  0  0  0
    3.2200   -0.0379   -1.8184 H   0  0  0  0  0  0  0  0  0  0  0  0
   -0.8147    2.4725   -2.3819 H   0  0  0  0  0  0  0  0  0  0  0  0
   -1.2968    0.7906   -2.6342 H   0  0  0  0  0  0  0  0  0  0  0  0
   -3.1088    1.9137   -1.2512 H   0  0  0  0  0  0  0  0  0  0  0  0
   -2.9722    1.8160    0.4969 H   0  0  0  0  0  0  0  0  0  0  0  0
    5.3576    3.7317   -1.0361 H   0  0  0  0  0  0  0  0  0  0  0  0
    3.7576    3.6320   -1.7969 H   0  0  0  0  0  0  0  0  0  0  0  0
    4.9317    2.2909   -1.9819 H   0  0  0  0  0  0  0  0  0  0  0  0
    5.7834   -1.9186   -1.0808 H   0  0  0  0  0  0  0  0  0  0  0  0
    4.2626   -1.8948   -1.9774 H   0  0  0  0  0  0  0  0  0  0  0  0
   -0.7365    2.0513    3.5644 H   0  0  0  0  0  0  0  0  0  0  0  0
    1.9703   -2.3646   -0.1623 H   0  0  0  0  0  0  0  0  0  0  0  0
    2.3098   -3.3845   -1.5696 H   0  0  0  0  0  0  0  0  0  0  0  0
   -5.0140   -2.8813    0.4617 H   0  0  0  0  0  0  0  0  0  0  0  0
   -6.6061   -3.0893   -0.3227 H   0  0  0  0  0  0  0  0  0  0  0  0
   -5.1587   -2.7986   -1.3297 H   0  0  0  0  0  0  0  0  0  0  0  0
  1 16  1  0  0  0  0
  1 21  1  0  0  0  0
  2 22  1  0  0  0  0
  2 27  1  0  0  0  0
  3 26  1  0  0  0  0
  3 28  1  0  0  0  0
  4 17  1  0  0  0  0
  4 25  1  0  0  0  0
  5 18  2  0  0  0  0
  6 23  1  0  0  0  0
  6 42  1  0  0  0  0
  7 23  2  0  0  0  0
  8 24  2  0  0  0  0
  9 16  1  0  0  0  0
  9 18  1  0  0  0  0
  9 19  1  0  0  0  0
 10 17  1  0  0  0  0
 10 24  1  0  0  0  0
 10 32  1  0  0  0  0
 11 13  1  0  0  0  0
 11 27  1  0  0  0  0
 11 29  1  0  0  0  0
 12 14  1  0  0  0  0
 12 27  2  0  0  0  0
 13 14  2  0  0  0  0
 15 30  3  0  0  0  0
 16 17  1  0  0  0  0
 16 31  1  0  0  0  0
 17 18  1  0  0  0  0
 19 20  2  0  0  0  0
 19 23  1  0  0  0  0
 20 21  1  0  0  0  0
 20 22  1  0  0  0  0
 21 33  1  0  0  0  0
 21 34  1  0  0  0  0
 22 35  1  0  0  0  0
 22 36  1  0  0  0  0
 24 26  1  0  0  0  0
 25 37  1  0  0  0  0
 25 38  1  0  0  0  0
 25 39  1  0  0  0  0
 26 40  1  0  0  0  0
 26 41  1  0  0  0  0
 28 30  1  0  0  0  0
 28 43  1  0  0  0  0
 28 44  1  0  0  0  0
 29 45  1  0  0  0  0
 29 46  1  0  0  0  0
 29 47  1  0  0  0  0
M  END
> <PUBCHEM_COMPOUND_CID>
42008

> <PUBCHEM_CONFORMER_RMSD>
1

> <PUBCHEM_CONFORMER_DIVERSEORDER>
1
48
33
12
35
9
66
44
19
61
28
14
10
64
32
46
7
24
55
65
45
38
5
59
6
8
40
21
15
41
53
31
57
56
34
63
27
13
17
58
25
36
20
49
3
43
62
47
51
29
23
42
54
60
37
22
18
52
11
30
50
16
39
2
4
26

> <PUBCHEM_MMFF94_PARTIAL_CHARGES>
31
1 -0.45
10 -0.65
11 0.31
12 -0.34
13 -0.42
15 -0.56
16 0.44
17 0.54
18 0.58
19 0.12
2 -0.29
20 -0.28
21 0.37
22 0.37
23 0.71
24 0.57
25 0.28
26 0.29
27 0.24
28 0.43
29 0.26
3 -0.46
30 0.36
32 0.37
4 -0.54
42 0.5
5 -0.57
6 -0.65
7 -0.57
8 -0.57
9 -0.39

> <PUBCHEM_EFFECTIVE_ROTOR_COUNT>
10.6

> <PUBCHEM_PHARMACOPHORE_FEATURES>
12
1 10 donor
1 15 acceptor
1 4 acceptor
1 5 acceptor
1 6 acceptor
1 7 acceptor
1 8 acceptor
3 11 12 27 cation
3 6 7 23 anion
4 9 16 17 18 rings
5 11 12 13 14 27 rings
6 1 9 16 19 20 21 rings

> <PUBCHEM_HEAVY_ATOM_COUNT>
30

> <PUBCHEM_ATOM_DEF_STEREO_COUNT>
2

> <PUBCHEM_ATOM_UDEF_STEREO_COUNT>
0

> <PUBCHEM_BOND_DEF_STEREO_COUNT>
0

> <PUBCHEM_BOND_UDEF_STEREO_COUNT>
0

> <PUBCHEM_ISOTOPIC_ATOM_COUNT>
0

> <PUBCHEM_COMPONENT_COUNT>
1

> <PUBCHEM_CACTVS_TAUTO_COUNT>
2

> <PUBCHEM_CONFORMER_ID>
0000A41800000001

> <PUBCHEM_MMFF94_ENERGY>
63.6405

> <PUBCHEM_FEATURE_SELFOVERLAP>
61.21

> <PUBCHEM_SHAPE_FINGERPRINT>
10816530 23 17910390593673949248
11796584 16 18187078460487700471
12107183 9 17902785598916531001
12236239 1 17988928838923338901
12788726 201 17313370232504141241
13533116 47 18333730221351076749
1361 2 18343298137408107158
15183329 4 18411697691010688893
15475509 35 18186528695699087099
20645477 70 18344146999319355372
20775530 9 18049456034160580062
21285901 2 17560799999870413830
23227448 37 10014992375639053480
2838139 119 9943802283627948235
3004659 81 18410009935987290444
33382 64 18409729586233898013
338550 245 18340487751381164151
3886686 26 16741691509477644566
404807 14 17618498122553394107
4340502 62 18261962838865470544
46194498 28 18060420231210856452
463206 1 18261681389184076519
513532 50 17632578249309216868
5309563 4 18123468547504360214
5326457 24 18336824290622470723

> <PUBCHEM_SHAPE_MULTIPOLES>
564.72
13.55
4.78
1.8
24.12
7.61
0.67
4.58
-2.4
-5.95
-0.07
-0.57
-1.25
-0.61

> <PUBCHEM_SHAPE_SELFOVERLAP>
1140.843

> <PUBCHEM_SHAPE_VOLUME>
331.8

> <PUBCHEM_COORDINATE_TYPE>
2
5
10

$$$$

