5281585
  -OEChem-07051212583D

 73 76  0     1  0  0  0  0  0999 V2000
   -0.5889    3.4557    0.7721 O   0  0  0  0  0  0  0  0  0  0  0  0
    2.4927    0.0557    1.2461 O   0  0  0  0  0  0  0  0  0  0  0  0
   -0.6205    1.0881   -2.4130 O   0  0  0  0  0  0  0  0  0  0  0  0
   -3.3307   -2.9881   -1.4154 O   0  0  0  0  0  0  0  0  0  0  0  0
    5.0420    0.0766    0.4863 N   0  0  1  0  0  0  0  0  0  0  0  0
    1.8350    1.1417   -0.7053 N   0  0  0  0  0  0  0  0  0  0  0  0
   -0.6677   -0.6017   -0.8208 N   0  0  0  0  0  0  0  0  0  0  0  0
   -3.3512   -0.8408   -0.5482 N   0  0  0  0  0  0  0  0  0  0  0  0
    4.0307    0.2033   -0.5685 C   0  0  1  0  0  0  0  0  0  0  0  0
    4.0322   -1.1368   -1.3042 C   0  0  0  0  0  0  0  0  0  0  0  0
    5.0764   -1.9758   -0.5826 C   0  0  0  0  0  0  0  0  0  0  0  0
    5.9942   -0.9364    0.0305 C   0  0  0  0  0  0  0  0  0  0  0  0
    0.4934    1.4874   -0.2969 C   0  0  1  0  0  0  0  0  0  0  0  0
    2.7206    0.4529    0.1064 C   0  0  0  0  0  0  0  0  0  0  0  0
    0.2097    3.0191   -0.3590 C   0  0  2  0  0  0  0  0  0  0  0  0
    1.4780    3.8753   -0.2750 C   0  0  0  0  0  0  0  0  0  0  0  0
    5.6938    1.3388    0.8090 C   0  0  0  0  0  0  0  0  0  0  0  0
   -0.3554    0.6753   -1.2845 C   0  0  0  0  0  0  0  0  0  0  0  0
    2.2306    3.5849    1.0194 C   0  0  0  0  0  0  0  0  0  0  0  0
    1.1272    5.3560   -0.3769 C   0  0  0  0  0  0  0  0  0  0  0  0
   -1.3306   -1.6277   -1.6353 C   0  0  1  0  0  0  0  0  0  0  0  0
   -1.8591    2.9465    0.7831 C   0  0  0  0  0  0  0  0  0  0  0  0
   -0.4811   -2.8920   -1.6672 C   0  0  0  0  0  0  0  0  0  0  0  0
   -2.7588   -1.9324   -1.1504 C   0  0  0  0  0  0  0  0  0  0  0  0
   -0.3011   -3.4780   -0.2925 C   0  0  0  0  0  0  0  0  0  0  0  0
   -2.2242    2.2002    1.9045 C   0  0  0  0  0  0  0  0  0  0  0  0
   -2.7456    3.1133   -0.2807 C   0  0  0  0  0  0  0  0  0  0  0  0
   -4.2166    1.4916    0.7415 C   0  0  0  0  0  0  0  0  0  0  0  0
   -3.4027    1.4618    1.8818 C   0  0  0  0  0  0  0  0  0  0  0  0
   -3.9291    2.3804   -0.3043 C   0  0  0  0  0  0  0  0  0  0  0  0
    0.7769   -3.0780    0.4852 C   0  0  0  0  0  0  0  0  0  0  0  0
   -1.2157   -4.4098    0.1788 C   0  0  0  0  0  0  0  0  0  0  0  0
   -4.6547   -0.7401   -0.1148 C   0  0  0  0  0  0  0  0  0  0  0  0
   -5.1256    0.3644    0.4952 C   0  0  0  0  0  0  0  0  0  0  0  0
    0.9437   -3.6209    1.7593 C   0  0  0  0  0  0  0  0  0  0  0  0
   -1.0487   -4.9524    1.4530 C   0  0  0  0  0  0  0  0  0  0  0  0
    0.0310   -4.5578    2.2431 C   0  0  0  0  0  0  0  0  0  0  0  0
    4.2693    1.0099   -1.2737 H   0  0  0  0  0  0  0  0  0  0  0  0
    3.0628   -1.6405   -1.3351 H   0  0  0  0  0  0  0  0  0  0  0  0
    4.3552   -0.9802   -2.3410 H   0  0  0  0  0  0  0  0  0  0  0  0
    4.5972   -2.5756    0.2013 H   0  0  0  0  0  0  0  0  0  0  0  0
    5.6029   -2.6550   -1.2594 H   0  0  0  0  0  0  0  0  0  0  0  0
    6.6796   -0.5413   -0.7300 H   0  0  0  0  0  0  0  0  0  0  0  0
    6.5798   -1.3515    0.8565 H   0  0  0  0  0  0  0  0  0  0  0  0
    0.3160    1.1150    0.7183 H   0  0  0  0  0  0  0  0  0  0  0  0
   -0.2984    3.2852   -1.2937 H   0  0  0  0  0  0  0  0  0  0  0  0
    2.1303    3.6371   -1.1242 H   0  0  0  0  0  0  0  0  0  0  0  0
    2.1152    1.3724   -1.6548 H   0  0  0  0  0  0  0  0  0  0  0  0
    6.2055    1.7767   -0.0555 H   0  0  0  0  0  0  0  0  0  0  0  0
    6.4314    1.1932    1.6058 H   0  0  0  0  0  0  0  0  0  0  0  0
    4.9655    2.0655    1.1823 H   0  0  0  0  0  0  0  0  0  0  0  0
    1.7858    4.1390    1.8556 H   0  0  0  0  0  0  0  0  0  0  0  0
    3.2642    3.9381    0.9311 H   0  0  0  0  0  0  0  0  0  0  0  0
    2.2614    2.5505    1.3412 H   0  0  0  0  0  0  0  0  0  0  0  0
    0.5175    5.7021    0.4643 H   0  0  0  0  0  0  0  0  0  0  0  0
    2.0398    5.9623   -0.3902 H   0  0  0  0  0  0  0  0  0  0  0  0
    0.5789    5.5654   -1.3017 H   0  0  0  0  0  0  0  0  0  0  0  0
   -0.4965   -0.8117    0.1575 H   0  0  0  0  0  0  0  0  0  0  0  0
   -1.4315   -1.2436   -2.6575 H   0  0  0  0  0  0  0  0  0  0  0  0
   -0.9301   -3.6434   -2.3298 H   0  0  0  0  0  0  0  0  0  0  0  0
    0.5043   -2.6709   -2.0990 H   0  0  0  0  0  0  0  0  0  0  0  0
   -1.5460    2.1034    2.7480 H   0  0  0  0  0  0  0  0  0  0  0  0
   -2.4928    3.7403   -1.1302 H   0  0  0  0  0  0  0  0  0  0  0  0
   -2.7522   -0.0346   -0.4045 H   0  0  0  0  0  0  0  0  0  0  0  0
   -3.6121    0.7752    2.6987 H   0  0  0  0  0  0  0  0  0  0  0  0
   -4.5534    2.4138   -1.1940 H   0  0  0  0  0  0  0  0  0  0  0  0
    1.4953   -2.3535    0.1217 H   0  0  0  0  0  0  0  0  0  0  0  0
   -2.0381   -4.7662   -0.4314 H   0  0  0  0  0  0  0  0  0  0  0  0
   -5.2928   -1.5986   -0.2899 H   0  0  0  0  0  0  0  0  0  0  0  0
   -6.1508    0.4430    0.8357 H   0  0  0  0  0  0  0  0  0  0  0  0
    1.7851   -3.3140    2.3737 H   0  0  0  0  0  0  0  0  0  0  0  0
   -1.7536   -5.6897    1.8261 H   0  0  0  0  0  0  0  0  0  0  0  0
    0.1622   -4.9821    3.2342 H   0  0  0  0  0  0  0  0  0  0  0  0
  1 15  1  0  0  0  0
  1 22  1  0  0  0  0
  2 14  2  0  0  0  0
  3 18  2  0  0  0  0
  4 24  2  0  0  0  0
  5  9  1  0  0  0  0
  5 12  1  0  0  0  0
  5 17  1  0  0  0  0
  6 13  1  0  0  0  0
  6 14  1  0  0  0  0
  6 48  1  0  0  0  0
  7 18  1  0  0  0  0
  7 21  1  0  0  0  0
  7 58  1  0  0  0  0
  8 24  1  0  0  0  0
  8 33  1  0  0  0  0
  8 64  1  0  0  0  0
  9 10  1  0  0  0  0
  9 14  1  0  0  0  0
  9 38  1  0  0  0  0
 10 11  1  0  0  0  0
 10 39  1  0  0  0  0
 10 40  1  0  0  0  0
 11 12  1  0  0  0  0
 11 41  1  0  0  0  0
 11 42  1  0  0  0  0
 12 43  1  0  0  0  0
 12 44  1  0  0  0  0
 13 15  1  0  0  0  0
 13 18  1  0  0  0  0
 13 45  1  0  0  0  0
 15 16  1  0  0  0  0
 15 46  1  0  0  0  0
 16 19  1  0  0  0  0
 16 20  1  0  0  0  0
 16 47  1  0  0  0  0
 17 49  1  0  0  0  0
 17 50  1  0  0  0  0
 17 51  1  0  0  0  0
 19 52  1  0  0  0  0
 19 53  1  0  0  0  0
 19 54  1  0  0  0  0
 20 55  1  0  0  0  0
 20 56  1  0  0  0  0
 20 57  1  0  0  0  0
 21 23  1  0  0  0  0
 21 24  1  0  0  0  0
 21 59  1  0  0  0  0
 22 26  2  0  0  0  0
 22 27  1  0  0  0  0
 23 25  1  0  0  0  0
 23 60  1  0  0  0  0
 23 61  1  0  0  0  0
 25 31  2  0  0  0  0
 25 32  1  0  0  0  0
 26 29  1  0  0  0  0
 26 62  1  0  0  0  0
 27 30  2  0  0  0  0
 27 63  1  0  0  0  0
 28 29  2  0  0  0  0
 28 30  1  0  0  0  0
 28 34  1  0  0  0  0
 29 65  1  0  0  0  0
 30 66  1  0  0  0  0
 31 35  1  0  0  0  0
 31 67  1  0  0  0  0
 32 36  2  0  0  0  0
 32 68  1  0  0  0  0
 33 34  2  0  0  0  0
 33 69  1  0  0  0  0
 34 70  1  0  0  0  0
 35 37  2  0  0  0  0
 35 71  1  0  0  0  0
 36 37  1  0  0  0  0
 36 72  1  0  0  0  0
 37 73  1  0  0  0  0
M  END
> <PUBCHEM_COMPOUND_CID>
5281585

> <PUBCHEM_CONFORMER_RMSD>
1

> <PUBCHEM_CONFORMER_DIVERSEORDER>
1
9
12
14
10
15
7
11
6
16
4
8
2
3
13
5

> <PUBCHEM_MMFF94_PARTIAL_CHARGES>
46
1 -0.36
12 0.27
13 0.36
14 0.57
15 0.28
17 0.27
18 0.57
2 -0.57
21 0.36
22 0.08
23 0.14
24 0.57
25 -0.14
26 -0.15
27 -0.15
28 0.03
29 -0.15
3 -0.57
30 -0.15
31 -0.15
32 -0.15
33 -0.04
34 -0.18
35 -0.15
36 -0.15
37 -0.15
4 -0.57
48 0.37
5 -0.81
58 0.37
6 -0.73
62 0.15
63 0.15
64 0.37
65 0.15
66 0.15
67 0.15
68 0.15
69 0.15
7 -0.73
70 0.15
71 0.15
72 0.15
73 0.15
8 -0.54
9 0.33

> <PUBCHEM_EFFECTIVE_ROTOR_COUNT>
8.2

> <PUBCHEM_PHARMACOPHORE_FEATURES>
12
1 1 acceptor
1 2 acceptor
1 3 acceptor
1 4 acceptor
1 5 cation
1 6 donor
1 7 donor
1 8 donor
3 16 19 20 hydrophobe
5 5 9 10 11 12 rings
6 22 26 27 28 29 30 rings
6 25 31 32 35 36 37 rings

> <PUBCHEM_HEAVY_ATOM_COUNT>
37

> <PUBCHEM_ATOM_DEF_STEREO_COUNT>
4

> <PUBCHEM_ATOM_UDEF_STEREO_COUNT>
0

> <PUBCHEM_BOND_DEF_STEREO_COUNT>
1

> <PUBCHEM_BOND_UDEF_STEREO_COUNT>
0

> <PUBCHEM_ISOTOPIC_ATOM_COUNT>
0

> <PUBCHEM_COMPONENT_COUNT>
1

> <PUBCHEM_CACTVS_TAUTO_COUNT>
8

> <PUBCHEM_CONFORMER_ID>
0050973100000001

> <PUBCHEM_MMFF94_ENERGY>
126.1815

> <PUBCHEM_FEATURE_SELFOVERLAP>
60.899

> <PUBCHEM_SHAPE_FINGERPRINT>
10006869 2 18049450536918322287
1100329 8 18337390435672864133
11007060 377 18262227920041436464
12156800 1 17970660482474869955
12788726 201 18265327313985756750
13140716 1 17980765939374518430
13947930 73 18058443205839603153
14020679 6 18270396079775305106
140371 6 18193848033373859468
144659 178 18409724033041885044
14725015 67 18339920429588443507
14790565 3 18341328989518843518
14866123 147 18337112362358354862
15274700 242 18270419286105792698
15361156 5 18335133138971239574
15420108 30 17753885323124611121
15815584 197 18051386742513796725
16112460 7 18189037763938109377
16120349 306 18337109089460724873
17627616 140 18053102010454628483
17974551 9 18044656395200208109
19311894 1 18335986449250294447
3493558 16 15433669523329031062
392239 28 18191578864247978164
437795 70 18043228310554651190
4616759 239 18119263766253045000
469060 322 17847063302295974518
56638632 33 18042410140284969329
9896288 288 17831017189347964240

> <PUBCHEM_SHAPE_MULTIPOLES>
718.04
9.46
7.53
1.76
7.89
2.21
-0.16
-1.74
-0.71
-1.05
-2.31
-0.56
1.09
-0.8

> <PUBCHEM_SHAPE_SELFOVERLAP>
1527.291

> <PUBCHEM_SHAPE_VOLUME>
396.8

> <PUBCHEM_COORDINATE_TYPE>
2
5
10

$$$$

