5281311
  -OEChem-07051212563D

 72 76  0     1  0  0  0  0  0999 V2000
   -1.8047   -1.7189   -2.3286 O   0  0  0  0  0  0  0  0  0  0  0  0
    1.2392    0.3045    0.8322 O   0  0  0  0  0  0  0  0  0  0  0  0
   -3.6229   -2.0002   -0.8465 O   0  0  0  0  0  0  0  0  0  0  0  0
    0.9900    2.6626   -0.3598 O   0  0  0  0  0  0  0  0  0  0  0  0
   -2.0322   -3.6782    0.7890 O   0  0  0  0  0  0  0  0  0  0  0  0
    2.0473   -3.0845    1.3386 O   0  0  0  0  0  0  0  0  0  0  0  0
   -4.3858   -0.2201    0.8702 O   0  0  0  0  0  0  0  0  0  0  0  0
    2.4860   -0.7152    2.3910 O   0  0  0  0  0  0  0  0  0  0  0  0
   -4.9887    2.1942    1.8472 O   0  0  0  0  0  0  0  0  0  0  0  0
    2.2191    2.3155   -2.2755 O   0  0  0  0  0  0  0  0  0  0  0  0
    3.4871   -2.0463   -0.1397 O   0  0  0  0  0  0  0  0  0  0  0  0
   -0.1642   -0.8831   -0.8192 C   0  0  2  0  0  0  0  0  0  0  0  0
   -1.5560   -0.8238   -0.1435 C   0  0  1  0  0  0  0  0  0  0  0  0
   -2.2676    0.6150   -0.1217 C   0  0  2  0  0  0  0  0  0  0  0  0
    0.6252   -2.1807   -0.4035 C   0  0  2  0  0  0  0  0  0  0  0  0
   -2.2113   -1.9692   -0.9633 C   0  0  2  0  0  0  0  0  0  0  0  0
    0.7304    0.3107   -0.5318 C   0  0  1  0  0  0  0  0  0  0  0  0
   -1.2143    1.7513    0.2233 C   0  0  1  0  0  0  0  0  0  0  0  0
   -0.5514   -1.0090   -2.3009 C   0  0  0  0  0  0  0  0  0  0  0  0
   -0.1487   -3.4808   -0.8014 C   0  0  2  0  0  0  0  0  0  0  0  0
    0.0240    1.6645   -0.7031 C   0  0  1  0  0  0  0  0  0  0  0  0
   -1.6603   -3.3510   -0.5449 C   0  0  1  0  0  0  0  0  0  0  0  0
    1.0474   -2.1059    1.0661 C   0  0  2  0  0  0  0  0  0  0  0  0
   -3.2961    0.6635    1.0623 C   0  0  1  0  0  0  0  0  0  0  0  0
   -3.0090    0.9461   -1.4506 C   0  0  0  0  0  0  0  0  0  0  0  0
   -1.8994    3.1202    0.3505 C   0  0  0  0  0  0  0  0  0  0  0  0
    0.4105   -4.7861   -0.2321 C   0  0  0  0  0  0  0  0  0  0  0  0
    1.6815   -0.7985    1.4655 C   0  0  0  0  0  0  0  0  0  0  0  0
   -3.8946    2.0411    1.3053 C   0  0  0  0  0  0  0  0  0  0  0  0
   -3.1293    3.2337    0.8800 C   0  0  0  0  0  0  0  0  0  0  0  0
   -1.1926    4.3776   -0.0732 C   0  0  0  0  0  0  0  0  0  0  0  0
    2.1282    2.6643   -1.1070 C   0  0  0  0  0  0  0  0  0  0  0  0
    3.2241   -2.9320    0.6624 C   0  0  0  0  0  0  0  0  0  0  0  0
    3.2686    3.1564   -0.2758 C   0  0  0  0  0  0  0  0  0  0  0  0
    4.1744   -4.0253    1.0467 C   0  0  0  0  0  0  0  0  0  0  0  0
    2.9850    4.1708    0.7922 C   0  0  0  0  0  0  0  0  0  0  0  0
    4.4794    2.6578   -0.5860 C   0  0  0  0  0  0  0  0  0  0  0  0
    5.7817    2.9592    0.0856 C   0  0  0  0  0  0  0  0  0  0  0  0
   -1.4805   -1.1228    0.9080 H   0  0  0  0  0  0  0  0  0  0  0  0
    1.5054   -2.2039   -1.0531 H   0  0  0  0  0  0  0  0  0  0  0  0
    1.6157    0.2386   -1.1721 H   0  0  0  0  0  0  0  0  0  0  0  0
   -0.8391    1.5644    1.2422 H   0  0  0  0  0  0  0  0  0  0  0  0
   -0.6930   -0.0535   -2.8073 H   0  0  0  0  0  0  0  0  0  0  0  0
    0.1845   -1.5583   -2.8976 H   0  0  0  0  0  0  0  0  0  0  0  0
   -0.0311   -3.5819   -1.8902 H   0  0  0  0  0  0  0  0  0  0  0  0
   -0.2790    1.8362   -1.7410 H   0  0  0  0  0  0  0  0  0  0  0  0
   -2.1515   -4.1087   -1.1715 H   0  0  0  0  0  0  0  0  0  0  0  0
    0.2071   -2.2902    1.7415 H   0  0  0  0  0  0  0  0  0  0  0  0
   -2.8032    0.3721    1.9981 H   0  0  0  0  0  0  0  0  0  0  0  0
   -2.3211    1.1222   -2.2778 H   0  0  0  0  0  0  0  0  0  0  0  0
   -3.7019    0.1641   -1.7644 H   0  0  0  0  0  0  0  0  0  0  0  0
   -3.6164    1.8535   -1.3783 H   0  0  0  0  0  0  0  0  0  0  0  0
    0.3197   -4.8424    0.8564 H   0  0  0  0  0  0  0  0  0  0  0  0
   -0.1364   -5.6417   -0.6449 H   0  0  0  0  0  0  0  0  0  0  0  0
    1.4607   -4.9149   -0.5103 H   0  0  0  0  0  0  0  0  0  0  0  0
   -3.8473   -1.8511    0.0863 H   0  0  0  0  0  0  0  0  0  0  0  0
   -3.6177    4.1947    1.0030 H   0  0  0  0  0  0  0  0  0  0  0  0
   -3.0019   -3.6389    0.8427 H   0  0  0  0  0  0  0  0  0  0  0  0
   -4.8989    0.0848    0.1031 H   0  0  0  0  0  0  0  0  0  0  0  0
   -0.3181    4.5593    0.5581 H   0  0  0  0  0  0  0  0  0  0  0  0
   -1.8344    5.2619    0.0145 H   0  0  0  0  0  0  0  0  0  0  0  0
   -0.8867    4.3176   -1.1221 H   0  0  0  0  0  0  0  0  0  0  0  0
    3.7436   -4.9979    0.7967 H   0  0  0  0  0  0  0  0  0  0  0  0
    4.3945   -3.9649    2.1155 H   0  0  0  0  0  0  0  0  0  0  0  0
    5.1085   -3.9055    0.4906 H   0  0  0  0  0  0  0  0  0  0  0  0
    3.8791    4.7076    1.1184 H   0  0  0  0  0  0  0  0  0  0  0  0
    2.2875    4.9294    0.4206 H   0  0  0  0  0  0  0  0  0  0  0  0
    2.5370    3.6879    1.6666 H   0  0  0  0  0  0  0  0  0  0  0  0
    4.5648    1.9347   -1.3960 H   0  0  0  0  0  0  0  0  0  0  0  0
    6.2732    2.0213    0.3640 H   0  0  0  0  0  0  0  0  0  0  0  0
    5.6771    3.5531    0.9959 H   0  0  0  0  0  0  0  0  0  0  0  0
    6.4399    3.4959   -0.6044 H   0  0  0  0  0  0  0  0  0  0  0  0
  1 16  1  0  0  0  0
  1 19  1  0  0  0  0
  2 17  1  0  0  0  0
  2 28  1  0  0  0  0
  3 16  1  0  0  0  0
  3 56  1  0  0  0  0
  4 21  1  0  0  0  0
  4 32  1  0  0  0  0
  5 22  1  0  0  0  0
  5 58  1  0  0  0  0
  6 23  1  0  0  0  0
  6 33  1  0  0  0  0
  7 24  1  0  0  0  0
  7 59  1  0  0  0  0
  8 28  2  0  0  0  0
  9 29  2  0  0  0  0
 10 32  2  0  0  0  0
 11 33  2  0  0  0  0
 12 13  1  0  0  0  0
 12 15  1  0  0  0  0
 12 17  1  0  0  0  0
 12 19  1  0  0  0  0
 13 14  1  0  0  0  0
 13 16  1  0  0  0  0
 13 39  1  0  0  0  0
 14 18  1  0  0  0  0
 14 24  1  0  0  0  0
 14 25  1  0  0  0  0
 15 20  1  0  0  0  0
 15 23  1  0  0  0  0
 15 40  1  0  0  0  0
 16 22  1  0  0  0  0
 17 21  1  0  0  0  0
 17 41  1  0  0  0  0
 18 21  1  0  0  0  0
 18 26  1  0  0  0  0
 18 42  1  0  0  0  0
 19 43  1  0  0  0  0
 19 44  1  0  0  0  0
 20 22  1  0  0  0  0
 20 27  1  0  0  0  0
 20 45  1  0  0  0  0
 21 46  1  0  0  0  0
 22 47  1  0  0  0  0
 23 28  1  0  0  0  0
 23 48  1  0  0  0  0
 24 29  1  0  0  0  0
 24 49  1  0  0  0  0
 25 50  1  0  0  0  0
 25 51  1  0  0  0  0
 25 52  1  0  0  0  0
 26 30  2  0  0  0  0
 26 31  1  0  0  0  0
 27 53  1  0  0  0  0
 27 54  1  0  0  0  0
 27 55  1  0  0  0  0
 29 30  1  0  0  0  0
 30 57  1  0  0  0  0
 31 60  1  0  0  0  0
 31 61  1  0  0  0  0
 31 62  1  0  0  0  0
 32 34  1  0  0  0  0
 33 35  1  0  0  0  0
 34 36  1  0  0  0  0
 34 37  2  0  0  0  0
 35 63  1  0  0  0  0
 35 64  1  0  0  0  0
 35 65  1  0  0  0  0
 36 66  1  0  0  0  0
 36 67  1  0  0  0  0
 36 68  1  0  0  0  0
 37 38  1  0  0  0  0
 37 69  1  0  0  0  0
 38 70  1  0  0  0  0
 38 71  1  0  0  0  0
 38 72  1  0  0  0  0
M  END
> <PUBCHEM_COMPOUND_CID>
5281311

> <PUBCHEM_CONFORMER_RMSD>
1

> <PUBCHEM_CONFORMER_DIVERSEORDER>
1
4
2
3

> <PUBCHEM_MMFF94_PARTIAL_CHARGES>
36
1 -0.56
10 -0.57
11 -0.57
16 0.56
17 0.28
18 0.14
19 0.28
2 -0.43
21 0.28
22 0.28
23 0.34
24 0.34
26 -0.28
28 0.66
29 0.49
3 -0.68
30 -0.14
31 0.14
32 0.71
33 0.66
34 -0.12
35 0.06
36 0.14
37 -0.29
38 0.14
4 -0.43
5 -0.68
56 0.4
57 0.15
58 0.4
59 0.4
6 -0.43
69 0.15
7 -0.68
8 -0.57
9 -0.57

> <PUBCHEM_EFFECTIVE_ROTOR_COUNT>
6.6

> <PUBCHEM_PHARMACOPHORE_FEATURES>
17
1 1 acceptor
1 10 acceptor
1 11 acceptor
1 3 acceptor
1 3 donor
1 36 hydrophobe
1 38 hydrophobe
1 5 acceptor
1 5 donor
1 7 acceptor
1 7 donor
1 8 acceptor
1 9 acceptor
6 12 13 14 17 18 21 rings
6 14 18 24 26 29 30 rings
6 2 12 15 17 23 28 rings
8 1 12 13 15 16 19 20 22 rings

> <PUBCHEM_HEAVY_ATOM_COUNT>
38

> <PUBCHEM_ATOM_DEF_STEREO_COUNT>
12

> <PUBCHEM_ATOM_UDEF_STEREO_COUNT>
0

> <PUBCHEM_BOND_DEF_STEREO_COUNT>
1

> <PUBCHEM_BOND_UDEF_STEREO_COUNT>
0

> <PUBCHEM_ISOTOPIC_ATOM_COUNT>
0

> <PUBCHEM_COMPONENT_COUNT>
1

> <PUBCHEM_CACTVS_TAUTO_COUNT>
13

> <PUBCHEM_CONFORMER_ID>
0050961F00000001

> <PUBCHEM_MMFF94_ENERGY>
155.3233

> <PUBCHEM_FEATURE_SELFOVERLAP>
86.496

> <PUBCHEM_SHAPE_FINGERPRINT>
10006869 2 18334849473492726299
10190108 129 17911211963599354083
1100329 8 18337385041072556174
11578080 2 16486123079864954517
11763715 3 17244744123951614247
12293681 4 16969130446170354136
12422481 6 17249163001285679491
12788726 201 18116440228671736911
13140716 1 18410001157279631773
133893 2 17845676771242194392
140371 6 18194430868736211146
14705955 166 17318738959184345616
14790565 3 18336821004645441592
14866123 147 18337669694795012480
14955137 171 18050832601290658934
15324884 4 17472995367655788217
15927050 60 18337662049810871236
17980427 23 17973451198053354365
19311894 1 17687460161672414518
20739085 24 18194120952490834746
21033648 29 17465968346098624145
21796203 349 17835204081690311890
23419403 2 17631737200323756197
238 59 15025869684244695380
283562 15 17905612094616805757
3380486 145 17544485609857876005
3380486 77 17480355313777177402
3383291 50 17908711623329826994
469060 322 17618257286240201087
5265222 85 18118685659387539334
581034 39 18263946387969950040
6004065 56 17474399448896271813
6287921 2 18338247037167518616
9896288 288 18192693584518772433

> <PUBCHEM_SHAPE_MULTIPOLES>
717.46
7.62
7.07
1.72
3.03
1.19
0.23
-5.08
-2.44
4.31
-0.54
-0.3
0.2
-2.82

> <PUBCHEM_SHAPE_SELFOVERLAP>
1561.557

> <PUBCHEM_SHAPE_VOLUME>
380

> <PUBCHEM_COORDINATE_TYPE>
2
5
10

$$$$

