443215
  -OEChem-07051213013D

 62 64  0     1  0  0  0  0  0999 V2000
    0.0192    3.7167    0.2245 P   0  0  2  0  0  0  0  0  0  0  0  0
   -2.1325    2.1930    1.5306 P   0  0  1  0  0  0  0  0  0  0  0  0
    3.4036    1.1605   -0.5613 O   0  0  0  0  0  0  0  0  0  0  0  0
   -1.6588   -1.0191   -0.0408 O   0  0  0  0  0  0  0  0  0  0  0  0
    4.0988    0.7885   -3.5194 O   0  0  0  0  0  0  0  0  0  0  0  0
    1.4172    3.1277   -0.3377 O   0  0  0  0  0  0  0  0  0  0  0  0
   -2.4810    0.6221    1.4125 O   0  0  0  0  0  0  0  0  0  0  0  0
   -4.2290   -1.5156    1.0301 O   0  0  0  0  0  0  0  0  0  0  0  0
   -5.5055   -1.7930   -1.4241 O   0  0  0  0  0  0  0  0  0  0  0  0
   -0.7950    2.3845    0.6429 O   0  0  0  0  0  0  0  0  0  0  0  0
   -3.3590   -3.2945   -2.0921 O   0  0  0  0  0  0  0  0  0  0  0  0
    4.5484   -2.7343    0.2039 O   0  0  0  0  0  0  0  0  0  0  0  0
   -0.7561    4.2141   -1.1052 O   0  0  0  0  0  0  0  0  0  0  0  0
   -3.2710    2.9311    0.6493 O   0  0  0  0  0  0  0  0  0  0  0  0
    0.1360    4.7446    1.3118 O   0  0  0  0  0  0  0  0  0  0  0  0
   -2.0143    2.6995    2.9388 O   0  0  0  0  0  0  0  0  0  0  0  0
    1.4980   -2.8048    3.6446 O   0  0  0  0  0  0  0  0  0  0  0  0
    3.0481   -0.9538    0.3757 N   0  0  0  0  0  0  0  0  0  0  0  0
    3.0211   -2.7572    1.9146 N   0  0  0  0  0  0  0  0  0  0  0  0
    2.8587    0.6964   -2.8215 C   0  0  2  0  0  0  0  0  0  0  0  0
    2.8001    1.7533   -1.7275 C   0  0  1  0  0  0  0  0  0  0  0  0
    2.8051   -0.6005   -2.0476 C   0  0  0  0  0  0  0  0  0  0  0  0
    3.5495   -0.2514   -0.7691 C   0  0  1  0  0  0  0  0  0  0  0  0
    1.3757    2.1534   -1.3656 C   0  0  0  0  0  0  0  0  0  0  0  0
   -1.6998   -1.7128   -1.2875 C   0  0  0  0  0  0  0  0  0  0  0  0
   -4.0352   -0.5364    0.0047 C   0  0  2  0  0  0  0  0  0  0  0  0
   -4.2346   -1.1784   -1.3619 C   0  0  1  0  0  0  0  0  0  0  0  0
   -2.6191    0.0236    0.1253 C   0  0  2  0  0  0  0  0  0  0  0  0
   -3.1254   -2.1880   -1.6066 C   0  0  0  0  0  0  0  0  0  0  0  0
   -1.1725   -0.8358   -2.4263 C   0  0  0  0  0  0  0  0  0  0  0  0
   -0.7755   -2.9231   -1.1146 C   0  0  0  0  0  0  0  0  0  0  0  0
    1.9897   -0.3976    1.0826 C   0  0  0  0  0  0  0  0  0  0  0  0
    3.6095   -2.1832    0.7823 C   0  0  0  0  0  0  0  0  0  0  0  0
    1.4291   -0.9494    2.1658 C   0  0  0  0  0  0  0  0  0  0  0  0
    1.9666   -2.2464    2.6563 C   0  0  0  0  0  0  0  0  0  0  0  0
    0.2896   -0.3335    2.9124 C   0  0  0  0  0  0  0  0  0  0  0  0
    2.0566    0.7809   -3.5607 H   0  0  0  0  0  0  0  0  0  0  0  0
    3.3889    2.6442   -1.9725 H   0  0  0  0  0  0  0  0  0  0  0  0
    3.2753   -1.4426   -2.5655 H   0  0  0  0  0  0  0  0  0  0  0  0
    1.7723   -0.8784   -1.8306 H   0  0  0  0  0  0  0  0  0  0  0  0
    4.6205   -0.4545   -0.8885 H   0  0  0  0  0  0  0  0  0  0  0  0
    0.7788    1.3031   -1.0349 H   0  0  0  0  0  0  0  0  0  0  0  0
    0.8952    2.5849   -2.2490 H   0  0  0  0  0  0  0  0  0  0  0  0
   -4.7849    0.2423    0.1811 H   0  0  0  0  0  0  0  0  0  0  0  0
   -4.1857   -0.4183   -2.1492 H   0  0  0  0  0  0  0  0  0  0  0  0
   -2.4510    0.7857   -0.6431 H   0  0  0  0  0  0  0  0  0  0  0  0
    4.1176    1.6529   -3.9646 H   0  0  0  0  0  0  0  0  0  0  0  0
   -0.2426   -0.3436   -2.1465 H   0  0  0  0  0  0  0  0  0  0  0  0
   -1.8760   -0.0369   -2.6833 H   0  0  0  0  0  0  0  0  0  0  0  0
   -1.0081   -1.4193   -3.3386 H   0  0  0  0  0  0  0  0  0  0  0  0
   -0.7037   -3.5206   -2.0297 H   0  0  0  0  0  0  0  0  0  0  0  0
   -1.1392   -3.5761   -0.3122 H   0  0  0  0  0  0  0  0  0  0  0  0
    0.2334   -2.6084   -0.8257 H   0  0  0  0  0  0  0  0  0  0  0  0
    1.5975    0.5456    0.7387 H   0  0  0  0  0  0  0  0  0  0  0  0
   -3.5022   -2.1591    0.9785 H   0  0  0  0  0  0  0  0  0  0  0  0
   -5.6287   -2.1195   -2.3318 H   0  0  0  0  0  0  0  0  0  0  0  0
    3.4093   -3.6431    2.2261 H   0  0  0  0  0  0  0  0  0  0  0  0
   -0.6159   -0.9357    2.7938 H   0  0  0  0  0  0  0  0  0  0  0  0
    0.0849    0.6817    2.5666 H   0  0  0  0  0  0  0  0  0  0  0  0
    0.5228   -0.2660    3.9803 H   0  0  0  0  0  0  0  0  0  0  0  0
   -0.9790    3.5677   -1.8080 H   0  0  0  0  0  0  0  0  0  0  0  0
   -3.3369    3.9091    0.6838 H   0  0  0  0  0  0  0  0  0  0  0  0
  1  6  1  0  0  0  0
  1 10  1  0  0  0  0
  1 13  1  0  0  0  0
  1 15  2  0  0  0  0
  2  7  1  0  0  0  0
  2 10  1  0  0  0  0
  2 14  1  0  0  0  0
  2 16  2  0  0  0  0
  3 21  1  0  0  0  0
  3 23  1  0  0  0  0
  4 25  1  0  0  0  0
  4 28  1  0  0  0  0
  5 20  1  0  0  0  0
  5 47  1  0  0  0  0
  6 24  1  0  0  0  0
  7 28  1  0  0  0  0
  8 26  1  0  0  0  0
  8 55  1  0  0  0  0
  9 27  1  0  0  0  0
  9 56  1  0  0  0  0
 11 29  2  0  0  0  0
 12 33  2  0  0  0  0
 13 61  1  0  0  0  0
 14 62  1  0  0  0  0
 17 35  2  0  0  0  0
 18 23  1  0  0  0  0
 18 32  1  0  0  0  0
 18 33  1  0  0  0  0
 19 33  1  0  0  0  0
 19 35  1  0  0  0  0
 19 57  1  0  0  0  0
 20 21  1  0  0  0  0
 20 22  1  0  0  0  0
 20 37  1  0  0  0  0
 21 24  1  0  0  0  0
 21 38  1  0  0  0  0
 22 23  1  0  0  0  0
 22 39  1  0  0  0  0
 22 40  1  0  0  0  0
 23 41  1  0  0  0  0
 24 42  1  0  0  0  0
 24 43  1  0  0  0  0
 25 29  1  0  0  0  0
 25 30  1  0  0  0  0
 25 31  1  0  0  0  0
 26 27  1  0  0  0  0
 26 28  1  0  0  0  0
 26 44  1  0  0  0  0
 27 29  1  0  0  0  0
 27 45  1  0  0  0  0
 28 46  1  0  0  0  0
 30 48  1  0  0  0  0
 30 49  1  0  0  0  0
 30 50  1  0  0  0  0
 31 51  1  0  0  0  0
 31 52  1  0  0  0  0
 31 53  1  0  0  0  0
 32 34  2  0  0  0  0
 32 54  1  0  0  0  0
 34 35  1  0  0  0  0
 34 36  1  0  0  0  0
 36 58  1  0  0  0  0
 36 59  1  0  0  0  0
 36 60  1  0  0  0  0
M  END
> <PUBCHEM_COMPOUND_CID>
443215

> <PUBCHEM_CONFORMER_RMSD>
1.6

> <PUBCHEM_CONFORMER_DIVERSEORDER>
1
136
53
25
124
17
91
29
66
129
102
80
8
32
20
50
114
84
95
19
137
70
109
133
107
56
135
115
60
22
73
23
87
49
97
74
103
101
67
88
6
51
13
77
92
126
33
132
41
54
37
140
62
79
10
138
45
128
4
118
139
34
15
134
116
98
83
38
59
46
106
122
12
76
63
121
42
108
117
78
120
142
104
90
71
48
72
119
2
123
30
44
58
36
61
96
100
111
131
9
43
89
82
11
94
141
31
16
24
93
99
52
21
26
68
7
28
65
127
35
47
75
81
113
39
112
86
27
18
69
57
64
110
55
130
85
125
3
5
105
40
14

> <PUBCHEM_MMFF94_PARTIAL_CHARGES>
40
1 1.51
10 -0.54
11 -0.57
12 -0.57
13 -0.77
14 -0.77
15 -0.7
16 -0.7
17 -0.57
18 -0.47
19 -0.49
2 1.51
20 0.28
21 0.28
23 0.58
24 0.28
25 0.34
26 0.28
27 0.34
28 0.56
29 0.45
3 -0.56
32 -0.04
33 0.69
34 -0.12
35 0.62
36 0.14
4 -0.56
47 0.4
5 -0.68
54 0.15
55 0.4
56 0.4
57 0.37
6 -0.55
61 0.5
62 0.5
7 -0.55
8 -0.68
9 -0.68

> <PUBCHEM_EFFECTIVE_ROTOR_COUNT>
10

> <PUBCHEM_PHARMACOPHORE_FEATURES>
20
1 11 acceptor
1 12 acceptor
1 13 acceptor
1 14 acceptor
1 15 acceptor
1 16 acceptor
1 17 acceptor
1 19 donor
1 3 acceptor
1 4 acceptor
1 5 acceptor
1 5 donor
1 8 acceptor
1 8 donor
1 9 acceptor
1 9 donor
3 25 30 31 hydrophobe
5 3 20 21 22 23 rings
6 18 19 32 33 34 35 rings
6 4 25 26 27 28 29 rings

> <PUBCHEM_HEAVY_ATOM_COUNT>
36

> <PUBCHEM_ATOM_DEF_STEREO_COUNT>
6

> <PUBCHEM_ATOM_UDEF_STEREO_COUNT>
0

> <PUBCHEM_BOND_DEF_STEREO_COUNT>
0

> <PUBCHEM_BOND_UDEF_STEREO_COUNT>
0

> <PUBCHEM_ISOTOPIC_ATOM_COUNT>
0

> <PUBCHEM_COMPONENT_COUNT>
1

> <PUBCHEM_CACTVS_TAUTO_COUNT>
18

> <PUBCHEM_CONFORMER_ID>
0006C34F00000001

> <PUBCHEM_MMFF94_ENERGY>
42.6649

> <PUBCHEM_FEATURE_SELFOVERLAP>
101.53

> <PUBCHEM_SHAPE_FINGERPRINT>
10721379 63 18127153900042806073
11445158 3 15621947588620646862
12156800 1 17895475946007375429
12788726 201 18187920656113644559
13583140 156 18057606473934811215
13615921 28 17987500649799717418
13642711 20 17910088240855814986
14114206 34 18128227082914884028
14279260 333 17627192945211714750
15403338 16 17343202315459987241
15484559 13 15233045493548061759
161222 619 16322016120601463139
19026451 147 18191878833180188511
19319366 153 17843087477109487120
20567600 347 17037277094638980261
20600515 1 17967543358641462969
20764821 26 17112400672529932693
21315764 21 17346051055334088397
23559900 14 17532649023613578695
23598288 3 18125720346816735928
238 59 17544463159821070812
3052486 1 18189044446911924828
35225 105 17538317267667973076
581034 39 17466785300471009313
86090 222 16975332804554372475

> <PUBCHEM_SHAPE_MULTIPOLES>
650.56
8
5.1
3.51
3.34
4.73
-0.8
-5.27
3.34
0.64
-1.26
-2.03
-1.12
-4.48

> <PUBCHEM_SHAPE_SELFOVERLAP>
1332.038

> <PUBCHEM_SHAPE_VOLUME>
377.9

> <PUBCHEM_COORDINATE_TYPE>
2
5
10

$$$$

