51041
  -OEChem-07051213053D

 22 23  0     0  0  0  0  0  0999 V2000
   -0.1467   -2.7670    0.0781 Cl  0  0  0  0  0  0  0  0  0  0  0  0
   -1.3189    0.1809   -2.5401 Cl  0  0  0  0  0  0  0  0  0  0  0  0
    3.2767    2.4586    0.1294 Cl  0  0  0  0  0  0  0  0  0  0  0  0
    4.6747   -0.4557    0.0019 Cl  0  0  0  0  0  0  0  0  0  0  0  0
    0.1772   -0.0501    0.1475 C   0  0  0  0  0  0  0  0  0  0  0  0
   -1.2645    0.1050    0.1955 C   0  0  0  0  0  0  0  0  0  0  0  0
    0.7803   -1.3067    0.0924 C   0  0  0  0  0  0  0  0  0  0  0  0
    0.9647    1.1013    0.1577 C   0  0  0  0  0  0  0  0  0  0  0  0
   -2.0310    0.2182   -0.9643 C   0  0  0  0  0  0  0  0  0  0  0  0
   -1.8821    0.1392    1.4458 C   0  0  0  0  0  0  0  0  0  0  0  0
    2.3549    0.9961    0.1127 C   0  0  0  0  0  0  0  0  0  0  0  0
    2.1705   -1.4120    0.0474 C   0  0  0  0  0  0  0  0  0  0  0  0
    2.9578   -0.2606    0.0574 C   0  0  0  0  0  0  0  0  0  0  0  0
   -3.4150    0.3659   -0.8740 C   0  0  0  0  0  0  0  0  0  0  0  0
   -3.2662    0.2867    1.5362 C   0  0  0  0  0  0  0  0  0  0  0  0
   -4.0326    0.4001    0.3763 C   0  0  0  0  0  0  0  0  0  0  0  0
    0.4961    2.0832    0.2006 H   0  0  0  0  0  0  0  0  0  0  0  0
   -1.3018    0.0520    2.3616 H   0  0  0  0  0  0  0  0  0  0  0  0
    2.6403   -2.3926    0.0047 H   0  0  0  0  0  0  0  0  0  0  0  0
   -4.0274    0.4554   -1.7676 H   0  0  0  0  0  0  0  0  0  0  0  0
   -3.7472    0.3131    2.5096 H   0  0  0  0  0  0  0  0  0  0  0  0
   -5.1102    0.5149    0.4468 H   0  0  0  0  0  0  0  0  0  0  0  0
  1  7  1  0  0  0  0
  2  9  1  0  0  0  0
  3 11  1  0  0  0  0
  4 13  1  0  0  0  0
  5  6  1  0  0  0  0
  5  7  1  0  0  0  0
  5  8  2  0  0  0  0
  6  9  1  0  0  0  0
  6 10  2  0  0  0  0
  7 12  2  0  0  0  0
  8 11  1  0  0  0  0
  8 17  1  0  0  0  0
  9 14  2  0  0  0  0
 10 15  1  0  0  0  0
 10 18  1  0  0  0  0
 11 13  2  0  0  0  0
 12 13  1  0  0  0  0
 12 19  1  0  0  0  0
 14 16  1  0  0  0  0
 14 20  1  0  0  0  0
 15 16  2  0  0  0  0
 15 21  1  0  0  0  0
 16 22  1  0  0  0  0
M  END
> <PUBCHEM_COMPOUND_CID>
51041

> <PUBCHEM_CONFORMER_RMSD>
0.6

> <PUBCHEM_CONFORMER_DIVERSEORDER>
2
1

> <PUBCHEM_MMFF94_PARTIAL_CHARGES>
20
1 -0.18
10 -0.15
11 0.18
12 -0.15
13 0.18
14 -0.15
15 -0.15
16 -0.15
17 0.15
18 0.15
19 0.15
2 -0.18
20 0.15
21 0.15
22 0.15
3 -0.18
4 -0.18
7 0.18
8 -0.15
9 0.18

> <PUBCHEM_EFFECTIVE_ROTOR_COUNT>
1

> <PUBCHEM_PHARMACOPHORE_FEATURES>
2
6 5 7 8 11 12 13 rings
6 6 9 10 14 15 16 rings

> <PUBCHEM_HEAVY_ATOM_COUNT>
16

> <PUBCHEM_ATOM_DEF_STEREO_COUNT>
0

> <PUBCHEM_ATOM_UDEF_STEREO_COUNT>
0

> <PUBCHEM_BOND_DEF_STEREO_COUNT>
0

> <PUBCHEM_BOND_UDEF_STEREO_COUNT>
0

> <PUBCHEM_ISOTOPIC_ATOM_COUNT>
0

> <PUBCHEM_COMPONENT_COUNT>
1

> <PUBCHEM_CACTVS_TAUTO_COUNT>
1

> <PUBCHEM_CONFORMER_ID>
0000C76100000002

> <PUBCHEM_MMFF94_ENERGY>
45.4486

> <PUBCHEM_FEATURE_SELFOVERLAP>
10.149

> <PUBCHEM_SHAPE_FINGERPRINT>
11132069 177 17418377956833224357
11471102 20 18411136952738461304
12119455 92 18202005438387981291
12236239 1 17676207996028227409
12491281 212 17168135711325581720
12932764 1 17774732991083629370
13140716 1 18339082571663164330
13380535 21 18196082253844035168
13538477 17 17240779375521511351
13581323 91 15339122346509908689
13583140 156 16772418174165973120
14911166 2 18409724076339451134
15219456 202 17988924470149872705
15309172 13 18413105061013745051
15342168 16 18269550533658424301
15653759 3 17203610389039206624
15775835 57 17967248689403951561
16945 1 18410576210451029658
17844478 74 17775282789572987701
1813 80 17825375547788146806
18175812 5 17847055575818580943
18186145 218 18335139786899916636
18219364 16 18343305872369906814
19049666 15 17416136206931573873
19422 9 17749109980562702599
200 152 18261398866577476849
20279233 1 17774999115826177171
20344682 1 17775283893632939879
204376 136 18339921524335449474
20645476 183 17676777543283615391
20645477 70 18268720587294960775
21486144 27 18342460288094205460
21501502 16 18194120716478655578
21639500 275 18336837411251954136
22079108 93 18116427051511359817
23402539 116 14996291361258219729
23419403 2 14258546302188064463
23493267 7 16916514769085616484
23557571 272 16917347073823429949
23559900 14 16343428418136584378
23598291 2 17894354366927680453
25 1 18410858788833454166
2748010 2 18193833739791146626
3286 77 18272085023881665121
474 4 18115036182219293200
633830 44 18114446929490290989
74978 22 18336264531687234608
77492 1 17676210190724867113
81228 2 17625828158421800714
8272917 22 18190172580766217859
90316 7 15195296330293046781
90525 40 17168145688903882165

> <PUBCHEM_SHAPE_MULTIPOLES>
336.75
7.1
1.95
1.45
1.87
0.61
0.74
-1.88
-0.8
1.73
-0.12
-1.6
-0.19
0.07

> <PUBCHEM_SHAPE_SELFOVERLAP>
695.089

> <PUBCHEM_SHAPE_VOLUME>
186.7

> <PUBCHEM_COORDINATE_TYPE>
2
5
10

$$$$

