17396430
  -OEChem-06241222562D

 53 56  0     1  0  0  0  0  0999 V2000
    7.9704   -1.5178    0.0000 O   0  0  0  0  0  0  0  0  0  0  0  0
    6.6381   -1.2346    0.0000 O   0  0  0  0  0  0  0  0  0  0  0  0
    7.1733    0.4127    0.0000 N   0  0  0  0  0  0  0  0  0  0  0  0
    9.5527   -0.8133    0.0000 N   0  0  0  0  0  0  0  0  0  0  0  0
    4.6701   -0.5352    0.0000 N   0  0  0  0  0  0  0  0  0  0  0  0
    3.8611    0.0526    0.0000 N   0  0  0  0  0  0  0  0  0  0  0  0
    8.1515    0.2048    0.0000 C   0  0  3  0  0  0  0  0  0  0  0  0
    8.6515    1.0708    0.0000 C   0  0  0  0  0  0  0  0  0  0  0  0
    7.9823    1.8140    0.0000 C   0  0  0  0  0  0  0  0  0  0  0  0
    7.0688    1.4072    0.0000 C   0  0  0  0  0  0  0  0  0  0  0  0
    8.5582   -0.7088    0.0000 C   0  0  0  0  0  0  0  0  0  0  0  0
    6.4302   -0.2564    0.0000 C   0  0  0  0  0  0  0  0  0  0  0  0
    5.4791    0.0526    0.0000 C   0  0  0  0  0  0  0  0  0  0  0  0
    5.1701    1.0036    0.0000 C   0  0  0  0  0  0  0  0  0  0  0  0
    9.9594   -1.7268    0.0000 C   0  0  0  0  0  0  0  0  0  0  0  0
   10.1405   -0.0043    0.0000 C   0  0  0  0  0  0  0  0  0  0  0  0
    4.1701    1.0036    0.0000 C   0  0  0  0  0  0  0  0  0  0  0  0
    4.6701   -1.5352    0.0000 C   0  0  0  0  0  0  0  0  0  0  0  0
    3.5823    1.8126    0.0000 C   0  0  0  0  0  0  0  0  0  0  0  0
    3.8041   -2.0352    0.0000 C   0  0  0  0  0  0  0  0  0  0  0  0
    5.5361   -2.0352    0.0000 C   0  0  0  0  0  0  0  0  0  0  0  0
    2.5878    1.7081    0.0000 C   0  0  0  0  0  0  0  0  0  0  0  0
    3.9890    2.7262    0.0000 C   0  0  0  0  0  0  0  0  0  0  0  0
    3.8041   -3.0352    0.0000 C   0  0  0  0  0  0  0  0  0  0  0  0
    5.5361   -3.0352    0.0000 C   0  0  0  0  0  0  0  0  0  0  0  0
    4.6701   -3.5352    0.0000 C   0  0  0  0  0  0  0  0  0  0  0  0
    2.0000    2.5171    0.0000 C   0  0  0  0  0  0  0  0  0  0  0  0
    3.4013    3.5352    0.0000 C   0  0  0  0  0  0  0  0  0  0  0  0
    2.4067    3.4307    0.0000 C   0  0  0  0  0  0  0  0  0  0  0  0
    7.7613   -0.2771    0.0000 H   0  0  0  0  0  0  0  0  0  0  0  0
    9.1530    0.7064    0.0000 H   0  0  0  0  0  0  0  0  0  0  0  0
    9.0663    1.5316    0.0000 H   0  0  0  0  0  0  0  0  0  0  0  0
    8.4839    2.1784    0.0000 H   0  0  0  0  0  0  0  0  0  0  0  0
    7.6723    2.3509    0.0000 H   0  0  0  0  0  0  0  0  0  0  0  0
    6.8772    1.9969    0.0000 H   0  0  0  0  0  0  0  0  0  0  0  0
    6.4623    1.2783    0.0000 H   0  0  0  0  0  0  0  0  0  0  0  0
    5.5345    1.5052    0.0000 H   0  0  0  0  0  0  0  0  0  0  0  0
   10.6421   -0.3687    0.0000 H   0  0  0  0  0  0  0  0  0  0  0  0
   10.5049    0.4973    0.0000 H   0  0  0  0  0  0  0  0  0  0  0  0
    9.6389    0.3601    0.0000 H   0  0  0  0  0  0  0  0  0  0  0  0
    9.3930   -1.9790    0.0000 H   0  0  0  0  0  0  0  0  0  0  0  0
   10.2116   -2.2932    0.0000 H   0  0  0  0  0  0  0  0  0  0  0  0
   10.5259   -1.4747    0.0000 H   0  0  0  0  0  0  0  0  0  0  0  0
    3.2671   -1.7252    0.0000 H   0  0  0  0  0  0  0  0  0  0  0  0
    6.0730   -1.7252    0.0000 H   0  0  0  0  0  0  0  0  0  0  0  0
    2.3356    1.1417    0.0000 H   0  0  0  0  0  0  0  0  0  0  0  0
    4.6056    2.7910    0.0000 H   0  0  0  0  0  0  0  0  0  0  0  0
    3.2671   -3.3452    0.0000 H   0  0  0  0  0  0  0  0  0  0  0  0
    6.0730   -3.3452    0.0000 H   0  0  0  0  0  0  0  0  0  0  0  0
    4.6701   -4.1552    0.0000 H   0  0  0  0  0  0  0  0  0  0  0  0
    1.3834    2.4523    0.0000 H   0  0  0  0  0  0  0  0  0  0  0  0
    3.6534    4.1016    0.0000 H   0  0  0  0  0  0  0  0  0  0  0  0
    2.0423    3.9323    0.0000 H   0  0  0  0  0  0  0  0  0  0  0  0
  1 11  2  0  0  0  0
  2 12  2  0  0  0  0
  3  7  1  0  0  0  0
  3 10  1  0  0  0  0
  3 12  1  0  0  0  0
  4 11  1  0  0  0  0
  4 15  1  0  0  0  0
  4 16  1  0  0  0  0
  5  6  1  0  0  0  0
  5 13  1  0  0  0  0
  5 18  1  0  0  0  0
  6 17  2  0  0  0  0
  7  8  1  0  0  0  0
  7 11  1  0  0  0  0
  7 30  1  0  0  0  0
  8  9  1  0  0  0  0
  8 31  1  0  0  0  0
  8 32  1  0  0  0  0
  9 10  1  0  0  0  0
  9 33  1  0  0  0  0
  9 34  1  0  0  0  0
 10 35  1  0  0  0  0
 10 36  1  0  0  0  0
 12 13  1  0  0  0  0
 13 14  2  0  0  0  0
 14 17  1  0  0  0  0
 14 37  1  0  0  0  0
 15 41  1  0  0  0  0
 15 42  1  0  0  0  0
 15 43  1  0  0  0  0
 16 38  1  0  0  0  0
 16 39  1  0  0  0  0
 16 40  1  0  0  0  0
 17 19  1  0  0  0  0
 18 20  2  0  0  0  0
 18 21  1  0  0  0  0
 19 22  2  0  0  0  0
 19 23  1  0  0  0  0
 20 24  1  0  0  0  0
 20 44  1  0  0  0  0
 21 25  2  0  0  0  0
 21 45  1  0  0  0  0
 22 27  1  0  0  0  0
 22 46  1  0  0  0  0
 23 28  2  0  0  0  0
 23 47  1  0  0  0  0
 24 26  2  0  0  0  0
 24 48  1  0  0  0  0
 25 26  1  0  0  0  0
 25 49  1  0  0  0  0
 26 50  1  0  0  0  0
 27 29  2  0  0  0  0
 27 51  1  0  0  0  0
 28 29  1  0  0  0  0
 28 52  1  0  0  0  0
 29 53  1  0  0  0  0
M  END
> <PUBCHEM_COMPOUND_CID>
17396430

> <PUBCHEM_COMPOUND_CANONICALIZED>
1

> <PUBCHEM_CACTVS_COMPLEXITY>
583

> <PUBCHEM_CACTVS_HBOND_ACCEPTOR>
3

> <PUBCHEM_CACTVS_HBOND_DONOR>
0

> <PUBCHEM_CACTVS_ROTATABLE_BOND>
4

> <PUBCHEM_CACTVS_SUBSKEYS>
AAADceB7sAAAAAAAAAAAAAAAAAAAAWLAAAAwYAAAAAAAAAAB0AAAHgAIAAAADCjBngQywJMIAACqAyVyVACSBCAnAgAYmCG4ZNgIYPLA1fGUpQhgjgDIyYcciYCOAAAAAAAAAAAAAAAAAAAAAAAAAAAAAA==

> <PUBCHEM_IUPAC_OPENEYE_NAME>
1-(2,5-diphenylpyrazole-3-carbonyl)-N,N-dimethyl-pyrrolidine-2-carboxamide

> <PUBCHEM_IUPAC_CAS_NAME>
1-[(2,5-diphenyl-3-pyrazolyl)-oxomethyl]-N,N-dimethyl-2-pyrrolidinecarboxamide

> <PUBCHEM_IUPAC_NAME>
1-(2,5-diphenylpyrazole-3-carbonyl)-N,N-dimethylpyrrolidine-2-carboxamide

> <PUBCHEM_IUPAC_SYSTEMATIC_NAME>
1-(2,5-diphenylpyrazol-3-yl)carbonyl-N,N-dimethyl-pyrrolidine-2-carboxamide

> <PUBCHEM_IUPAC_TRADITIONAL_NAME>
1-(2,5-diphenylpyrazole-3-carbonyl)-N,N-dimethyl-pyrrolidine-2-carboxamide

> <PUBCHEM_IUPAC_INCHI>
InChI=1S/C23H24N4O2/c1-25(2)22(28)20-14-9-15-26(20)23(29)21-16-19(17-10-5-3-6-11-17)24-27(21)18-12-7-4-8-13-18/h3-8,10-13,16,20H,9,14-15H2,1-2H3

> <PUBCHEM_IUPAC_INCHIKEY>
SPXGSHJXPZCFEB-UHFFFAOYSA-N

> <PUBCHEM_XLOGP3_AA>
3.4

> <PUBCHEM_EXACT_MASS>
388.189926

> <PUBCHEM_MOLECULAR_FORMULA>
C23H24N4O2

> <PUBCHEM_MOLECULAR_WEIGHT>
388.46226

> <PUBCHEM_OPENEYE_CAN_SMILES>
CN(C)C(=O)C1CCCN1C(=O)C2=CC(=NN2C3=CC=CC=C3)C4=CC=CC=C4

> <PUBCHEM_OPENEYE_ISO_SMILES>
CN(C)C(=O)C1CCCN1C(=O)C2=CC(=NN2C3=CC=CC=C3)C4=CC=CC=C4

> <PUBCHEM_CACTVS_TPSA>
58.4

> <PUBCHEM_MONOISOTOPIC_WEIGHT>
388.189926

> <PUBCHEM_TOTAL_CHARGE>
0

> <PUBCHEM_HEAVY_ATOM_COUNT>
29

> <PUBCHEM_ATOM_DEF_STEREO_COUNT>
0

> <PUBCHEM_ATOM_UDEF_STEREO_COUNT>
1

> <PUBCHEM_BOND_DEF_STEREO_COUNT>
0

> <PUBCHEM_BOND_UDEF_STEREO_COUNT>
0

> <PUBCHEM_ISOTOPIC_ATOM_COUNT>
0

> <PUBCHEM_COMPONENT_COUNT>
1

> <PUBCHEM_CACTVS_TAUTO_COUNT>
1

> <PUBCHEM_COORDINATE_TYPE>
1
5
255

> <PUBCHEM_BONDANNOTATIONS>
13  14  8
14  17  8
18  20  8
18  21  8
19  22  8
19  23  8
20  24  8
21  25  8
22  27  8
23  28  8
24  26  8
25  26  8
27  29  8
28  29  8
5  13  8
5  6  8
6  17  8
7  11  3

$$$$

