173699
  -OEChem-07051212462D

 23 24  0     1  0  0  0  0  0999 V2000
    2.5369    1.6581    0.0000 O   0  0  0  0  0  0  0  0  0  0  0  0
    4.2690   -1.3419    0.0000 O   0  0  0  0  0  0  0  0  0  0  0  0
    6.0174   -1.3765    0.0000 O   0  0  0  0  0  0  0  0  0  0  0  0
    3.4030    1.1581    0.0000 C   0  0  3  0  0  0  0  0  0  0  0  0
    4.2690    1.6581    0.0000 C   0  0  0  0  0  0  0  0  0  0  0  0
    3.4030    0.1581    0.0000 C   0  0  0  0  0  0  0  0  0  0  0  0
    5.1350    1.1581    0.0000 C   0  0  0  0  0  0  0  0  0  0  0  0
    5.1350    0.1581    0.0000 C   0  0  0  0  0  0  0  0  0  0  0  0
    4.2690   -0.3419    0.0000 C   0  0  0  0  0  0  0  0  0  0  0  0
    6.0290    1.6927    0.0000 C   0  0  0  0  0  0  0  0  0  0  0  0
    6.0290   -0.3766    0.0000 C   0  0  0  0  0  0  0  0  0  0  0  0
    6.9350    1.1789    0.0000 C   0  0  0  0  0  0  0  0  0  0  0  0
    6.9350    0.1372    0.0000 C   0  0  0  0  0  0  0  0  0  0  0  0
    3.4030    2.0081    0.0000 H   0  0  0  0  0  0  0  0  0  0  0  0
    4.6675    2.1330    0.0000 H   0  0  0  0  0  0  0  0  0  0  0  0
    3.8705    2.1330    0.0000 H   0  0  0  0  0  0  0  0  0  0  0  0
    2.7924    0.2657    0.0000 H   0  0  0  0  0  0  0  0  0  0  0  0
    3.1909   -0.4245    0.0000 H   0  0  0  0  0  0  0  0  0  0  0  0
    6.0218    2.3127    0.0000 H   0  0  0  0  0  0  0  0  0  0  0  0
    7.4708    1.4909    0.0000 H   0  0  0  0  0  0  0  0  0  0  0  0
    7.4708   -0.1748    0.0000 H   0  0  0  0  0  0  0  0  0  0  0  0
    2.0000    1.3481    0.0000 H   0  0  0  0  0  0  0  0  0  0  0  0
    6.5507   -1.6927    0.0000 H   0  0  0  0  0  0  0  0  0  0  0  0
  1  4  1  0  0  0  0
  1 22  1  0  0  0  0
  2  9  2  0  0  0  0
  3 11  1  0  0  0  0
  3 23  1  0  0  0  0
  4  5  1  0  0  0  0
  4  6  1  0  0  0  0
  4 14  1  0  0  0  0
  5  7  1  0  0  0  0
  5 15  1  0  0  0  0
  5 16  1  0  0  0  0
  6  9  1  0  0  0  0
  6 17  1  0  0  0  0
  6 18  1  0  0  0  0
  7  8  2  0  0  0  0
  7 10  1  0  0  0  0
  8  9  1  0  0  0  0
  8 11  1  0  0  0  0
 10 12  2  0  0  0  0
 10 19  1  0  0  0  0
 11 13  2  0  0  0  0
 12 13  1  0  0  0  0
 12 20  1  0  0  0  0
 13 21  1  0  0  0  0
M  END
> <PUBCHEM_COMPOUND_CID>
173699

> <PUBCHEM_COMPOUND_CANONICALIZED>
1

> <PUBCHEM_CACTVS_COMPLEXITY>
214

> <PUBCHEM_CACTVS_HBOND_ACCEPTOR>
3

> <PUBCHEM_CACTVS_HBOND_DONOR>
2

> <PUBCHEM_CACTVS_ROTATABLE_BOND>
0

> <PUBCHEM_CACTVS_SUBSKEYS>
AAADccBwMAAAAAAAAAAAAAAAAAAAAAAAAAAwYAAAAAAAAADBAAAAGgAACAAADBSgmAIwBoAAAgCIAqBSAAACAAAkIAAIiAEGCMgINjaCFRKAcUAk4BEImQeI7LTOgAABAAAYAABAAAIAADAAAAAAAAAAAA==

> <PUBCHEM_IUPAC_OPENEYE_NAME>
3,8-dihydroxytetralin-1-one

> <PUBCHEM_IUPAC_CAS_NAME>
3,8-dihydroxy-3,4-dihydro-2H-naphthalen-1-one

> <PUBCHEM_IUPAC_NAME>
3,8-dihydroxy-3,4-dihydro-2H-naphthalen-1-one

> <PUBCHEM_IUPAC_SYSTEMATIC_NAME>
3,8-bis(oxidanyl)-3,4-dihydro-2H-naphthalen-1-one

> <PUBCHEM_IUPAC_TRADITIONAL_NAME>
3,8-dihydroxytetralin-1-one

> <PUBCHEM_IUPAC_INCHI>
InChI=1S/C10H10O3/c11-7-4-6-2-1-3-8(12)10(6)9(13)5-7/h1-3,7,11-12H,4-5H2

> <PUBCHEM_IUPAC_INCHIKEY>
AQTKGZASUQVMEJ-UHFFFAOYSA-N

> <PUBCHEM_XLOGP3_AA>
1.2

> <PUBCHEM_EXACT_MASS>
178.062994

> <PUBCHEM_MOLECULAR_FORMULA>
C10H10O3

> <PUBCHEM_MOLECULAR_WEIGHT>
178.1846

> <PUBCHEM_OPENEYE_CAN_SMILES>
C1C(CC(=O)C2=C1C=CC=C2O)O

> <PUBCHEM_OPENEYE_ISO_SMILES>
C1C(CC(=O)C2=C1C=CC=C2O)O

> <PUBCHEM_CACTVS_TPSA>
57.5

> <PUBCHEM_MONOISOTOPIC_WEIGHT>
178.062994

> <PUBCHEM_TOTAL_CHARGE>
0

> <PUBCHEM_HEAVY_ATOM_COUNT>
13

> <PUBCHEM_ATOM_DEF_STEREO_COUNT>
0

> <PUBCHEM_ATOM_UDEF_STEREO_COUNT>
1

> <PUBCHEM_BOND_DEF_STEREO_COUNT>
0

> <PUBCHEM_BOND_UDEF_STEREO_COUNT>
0

> <PUBCHEM_ISOTOPIC_ATOM_COUNT>
0

> <PUBCHEM_COMPONENT_COUNT>
1

> <PUBCHEM_CACTVS_TAUTO_COUNT>
22

> <PUBCHEM_COORDINATE_TYPE>
1
5
255

> <PUBCHEM_BONDANNOTATIONS>
10  12  8
11  13  8
12  13  8
4  14  3
7  10  8
7  8  8
8  11  8

$$$$

