25010757
  -OEChem-07051213103D

 22 21  0     0  0  0  0  0  0999 V2000
   -4.0175   -0.3928    0.0703 S   0  0  0  0  0  0  0  0  0  0  0  0
    4.5319    0.2362   -0.5674 O   0  0  0  0  0  0  0  0  0  0  0  0
    3.3628    0.6781    0.0568 N   0  0  0  0  0  0  0  0  0  0  0  0
    0.1130   -0.5109   -0.2060 C   0  0  0  0  0  0  0  0  0  0  0  0
   -1.2831   -0.3081    0.3863 C   0  0  0  0  0  0  0  0  0  0  0  0
    1.2016   -0.1504    0.7998 C   0  0  0  0  0  0  0  0  0  0  0  0
   -2.3641   -0.6372   -0.6394 C   0  0  0  0  0  0  0  0  0  0  0  0
    2.5545   -0.3222    0.1680 C   0  0  0  0  0  0  0  0  0  0  0  0
   -4.0990    1.4074   -0.0683 C   0  0  0  0  0  0  0  0  0  0  0  0
    0.2266    0.1071   -1.1058 H   0  0  0  0  0  0  0  0  0  0  0  0
    0.2338   -1.5535   -0.5261 H   0  0  0  0  0  0  0  0  0  0  0  0
   -1.3947   -0.9474    1.2713 H   0  0  0  0  0  0  0  0  0  0  0  0
   -1.3727    0.7316    0.7215 H   0  0  0  0  0  0  0  0  0  0  0  0
    1.1508   -0.8158    1.6682 H   0  0  0  0  0  0  0  0  0  0  0  0
    1.0863    0.8820    1.1471 H   0  0  0  0  0  0  0  0  0  0  0  0
   -2.2553   -0.0340   -1.5467 H   0  0  0  0  0  0  0  0  0  0  0  0
   -2.2834   -1.6883   -0.9361 H   0  0  0  0  0  0  0  0  0  0  0  0
    2.8206   -1.3347   -0.1853 H   0  0  0  0  0  0  0  0  0  0  0  0
   -5.0926    1.7419    0.2425 H   0  0  0  0  0  0  0  0  0  0  0  0
   -3.9405    1.7225   -1.1029 H   0  0  0  0  0  0  0  0  0  0  0  0
   -3.3625    1.8852    0.5815 H   0  0  0  0  0  0  0  0  0  0  0  0
    5.0574    1.0534   -0.5989 H   0  0  0  0  0  0  0  0  0  0  0  0
  1  7  1  0  0  0  0
  1  9  1  0  0  0  0
  2  3  1  0  0  0  0
  2 22  1  0  0  0  0
  3  8  2  0  0  0  0
  4  5  1  0  0  0  0
  4  6  1  0  0  0  0
  4 10  1  0  0  0  0
  4 11  1  0  0  0  0
  5  7  1  0  0  0  0
  5 12  1  0  0  0  0
  5 13  1  0  0  0  0
  6  8  1  0  0  0  0
  6 14  1  0  0  0  0
  6 15  1  0  0  0  0
  7 16  1  0  0  0  0
  7 17  1  0  0  0  0
  8 18  1  0  0  0  0
  9 19  1  0  0  0  0
  9 20  1  0  0  0  0
  9 21  1  0  0  0  0
M  END
> <PUBCHEM_COMPOUND_CID>
25010757

> <PUBCHEM_CONFORMER_RMSD>
0.6

> <PUBCHEM_CONFORMER_DIVERSEORDER>
1
74
48
25
40
17
13
75
56
18
3
35
2
21
72
31
73
69
9
42
76
55
70
57
41
14
6
53
64
29
66
24
71
11
52
67
7
32
62
19
59
22
27
34
65
46
12
47
33
5
43
8
36
10
28
4
15
38
51
61
37
50
26
58
63
23
68
54
49
16
20
30
60
44
39
45

> <PUBCHEM_MMFF94_PARTIAL_CHARGES>
9
1 -0.46
18 0.06
2 -0.34
22 0.4
3 -0.51
6 0.06
7 0.23
8 0.33
9 0.23

> <PUBCHEM_EFFECTIVE_ROTOR_COUNT>
5

> <PUBCHEM_PHARMACOPHORE_FEATURES>
4
1 2 anion
1 3 acceptor
1 9 hydrophobe
5 1 4 5 6 7 hydrophobe

> <PUBCHEM_HEAVY_ATOM_COUNT>
9

> <PUBCHEM_ATOM_DEF_STEREO_COUNT>
0

> <PUBCHEM_ATOM_UDEF_STEREO_COUNT>
0

> <PUBCHEM_BOND_DEF_STEREO_COUNT>
1

> <PUBCHEM_BOND_UDEF_STEREO_COUNT>
0

> <PUBCHEM_ISOTOPIC_ATOM_COUNT>
0

> <PUBCHEM_COMPONENT_COUNT>
1

> <PUBCHEM_CACTVS_TAUTO_COUNT>
2

> <PUBCHEM_CONFORMER_ID>
017DA24500000001

> <PUBCHEM_MMFF94_ENERGY>
7.4414

> <PUBCHEM_FEATURE_SELFOVERLAP>
20.297

> <PUBCHEM_SHAPE_FINGERPRINT>
11062470 55 18202284697256402211
11987891 27 6916261827716119829
11987891 38 8574715710484081693
12932764 1 17822307768322404755
14123238 8 15195564589370316363
14325111 11 18411141350706065547
177051 138 9439405743743447664
18186145 218 16878234090706552747
18342897 14 16702021989267857077
20211469 26 7493283348403715963
20645477 70 17240755233310335718
20719005 15 18412263921844299243
20828058 21 18335702728279292591
20828058 44 10735878378571574837
21119208 17 17676204667212262652
22485316 2 15719113548211217526
449060 50 15913326888200193514

> <PUBCHEM_SHAPE_MULTIPOLES>
178.21
9.09
1
0.78
2.5
0.26
0.03
2.45
-1.13
-0.91
-0.04
0.04
-0.05
-0.11

> <PUBCHEM_SHAPE_SELFOVERLAP>
303.884

> <PUBCHEM_SHAPE_VOLUME>
120.8

> <PUBCHEM_COORDINATE_TYPE>
2
5
10

$$$$

