10720
  -OEChem-06261204533D

 23 24  0     1  0  0  0  0  0999 V2000
    0.6303    1.1176   -0.3634 C   0  0  2  0  0  0  0  0  0  0  0  0
    0.6307   -1.1173   -0.3635 C   0  0  1  0  0  0  0  0  0  0  0  0
    1.0263    0.0003   -1.3327 C   0  0  0  0  0  0  0  0  0  0  0  0
    1.5115    0.7765    0.8563 C   0  0  0  0  0  0  0  0  0  0  0  0
    1.5121   -0.7761    0.8560 C   0  0  0  0  0  0  0  0  0  0  0  0
   -0.7856    0.6725   -0.0519 C   0  0  0  0  0  0  0  0  0  0  0  0
   -0.7853   -0.6727   -0.0520 C   0  0  0  0  0  0  0  0  0  0  0  0
   -1.8705    1.6430    0.2257 C   0  0  0  0  0  0  0  0  0  0  0  0
   -1.8697   -1.6437    0.2257 C   0  0  0  0  0  0  0  0  0  0  0  0
    0.7286    2.1298   -0.7576 H   0  0  0  0  0  0  0  0  0  0  0  0
    0.7293   -2.1294   -0.7580 H   0  0  0  0  0  0  0  0  0  0  0  0
    0.4418    0.0003   -2.2616 H   0  0  0  0  0  0  0  0  0  0  0  0
    2.0937    0.0005   -1.5812 H   0  0  0  0  0  0  0  0  0  0  0  0
    1.1147    1.1824    1.7929 H   0  0  0  0  0  0  0  0  0  0  0  0
    2.5320    1.1517    0.7204 H   0  0  0  0  0  0  0  0  0  0  0  0
    2.5329   -1.1506    0.7196 H   0  0  0  0  0  0  0  0  0  0  0  0
    1.1160   -1.1828    1.7926 H   0  0  0  0  0  0  0  0  0  0  0  0
   -2.0317    2.2890   -0.6430 H   0  0  0  0  0  0  0  0  0  0  0  0
   -1.6059    2.2732    1.0804 H   0  0  0  0  0  0  0  0  0  0  0  0
   -2.8183    1.1486    0.4551 H   0  0  0  0  0  0  0  0  0  0  0  0
   -2.8178   -1.1497    0.4552 H   0  0  0  0  0  0  0  0  0  0  0  0
   -1.6048   -2.2738    1.0804 H   0  0  0  0  0  0  0  0  0  0  0  0
   -2.0308   -2.2897   -0.6429 H   0  0  0  0  0  0  0  0  0  0  0  0
  1  3  1  0  0  0  0
  1  4  1  0  0  0  0
  1  6  1  0  0  0  0
  1 10  1  0  0  0  0
  2  3  1  0  0  0  0
  2  5  1  0  0  0  0
  2  7  1  0  0  0  0
  2 11  1  0  0  0  0
  3 12  1  0  0  0  0
  3 13  1  0  0  0  0
  4  5  1  0  0  0  0
  4 14  1  0  0  0  0
  4 15  1  0  0  0  0
  5 16  1  0  0  0  0
  5 17  1  0  0  0  0
  6  7  2  0  0  0  0
  6  8  1  0  0  0  0
  7  9  1  0  0  0  0
  8 18  1  0  0  0  0
  8 19  1  0  0  0  0
  8 20  1  0  0  0  0
  9 21  1  0  0  0  0
  9 22  1  0  0  0  0
  9 23  1  0  0  0  0
M  END
> <PUBCHEM_COMPOUND_CID>
10720

> <PUBCHEM_CONFORMER_RMSD>
0.4

> <PUBCHEM_CONFORMER_DIVERSEORDER>
1

> <PUBCHEM_MMFF94_PARTIAL_CHARGES>
6
1 0.14
2 0.14
6 -0.28
7 -0.28
8 0.14
9 0.14

> <PUBCHEM_EFFECTIVE_ROTOR_COUNT>
0.6

> <PUBCHEM_PHARMACOPHORE_FEATURES>
1
7 1 2 3 4 5 6 7 rings

> <PUBCHEM_HEAVY_ATOM_COUNT>
9

> <PUBCHEM_ATOM_DEF_STEREO_COUNT>
0

> <PUBCHEM_ATOM_UDEF_STEREO_COUNT>
2

> <PUBCHEM_BOND_DEF_STEREO_COUNT>
0

> <PUBCHEM_BOND_UDEF_STEREO_COUNT>
0

> <PUBCHEM_ISOTOPIC_ATOM_COUNT>
0

> <PUBCHEM_COMPONENT_COUNT>
1

> <PUBCHEM_CACTVS_TAUTO_COUNT>
1

> <PUBCHEM_CONFORMER_ID>
000029E000000001

> <PUBCHEM_MMFF94_ENERGY>
29.9751

> <PUBCHEM_FEATURE_SELFOVERLAP>
5.074

> <PUBCHEM_SHAPE_FINGERPRINT>
12423570 1 7025610471043348396
13024252 1 13251179602812359104
137420 1 14392008837276518549
15557651 10 16953100803635207040
16945 1 18338811064598581152
21040471 1 18266733782536251693
29004967 10 15696062205024455858
5084963 1 16226911938074290988

> <PUBCHEM_SHAPE_MULTIPOLES>
185.22
2.24
1.73
1.02
0.62
0
-0.13
0
0.42
0.82
0.14
-0.45
0
0

> <PUBCHEM_SHAPE_SELFOVERLAP>
393.658

> <PUBCHEM_SHAPE_VOLUME>
106

> <PUBCHEM_COORDINATE_TYPE>
2
5
10

$$$$

