6154
  -OEChem-06261201082D

 63 65  0     0  0  0  0  0  0999 V2000
    2.8660   -6.5000    0.0000 F   0  0  0  0  0  0  0  0  0  0  0  0
    2.0000   -2.0000    0.0000 O   0  0  0  0  0  0  0  0  0  0  0  0
    4.5981    0.5000    0.0000 N   0  0  0  0  0  0  0  0  0  0  0  0
    4.5981    2.5000    0.0000 C   0  0  0  0  0  0  0  0  0  0  0  0
    4.5981    4.5000    0.0000 C   0  0  0  0  0  0  0  0  0  0  0  0
    3.7320    3.0000    0.0000 C   0  0  0  0  0  0  0  0  0  0  0  0
    5.4641    3.0000    0.0000 C   0  0  0  0  0  0  0  0  0  0  0  0
    5.4641    4.0000    0.0000 C   0  0  0  0  0  0  0  0  0  0  0  0
    3.7320    4.0000    0.0000 C   0  0  0  0  0  0  0  0  0  0  0  0
    3.7320    2.0000    0.0000 C   0  0  0  0  0  0  0  0  0  0  0  0
    5.4641    2.0000    0.0000 C   0  0  0  0  0  0  0  0  0  0  0  0
    4.5981    5.5000    0.0000 C   0  0  0  0  0  0  0  0  0  0  0  0
    3.7320    1.0000    0.0000 C   0  0  0  0  0  0  0  0  0  0  0  0
    5.4641    1.0000    0.0000 C   0  0  0  0  0  0  0  0  0  0  0  0
    4.5981    6.5000    0.0000 C   0  0  0  0  0  0  0  0  0  0  0  0
    5.5981    5.5000    0.0000 C   0  0  0  0  0  0  0  0  0  0  0  0
    3.5981    5.5000    0.0000 C   0  0  0  0  0  0  0  0  0  0  0  0
    4.5981   -0.5000    0.0000 C   0  0  0  0  0  0  0  0  0  0  0  0
    3.7320   -1.0000    0.0000 C   0  0  0  0  0  0  0  0  0  0  0  0
    3.7320   -2.0000    0.0000 C   0  0  0  0  0  0  0  0  0  0  0  0
    2.8660   -2.5000    0.0000 C   0  0  0  0  0  0  0  0  0  0  0  0
    2.8660   -3.5000    0.0000 C   0  0  0  0  0  0  0  0  0  0  0  0
    2.0000   -4.0000    0.0000 C   0  0  0  0  0  0  0  0  0  0  0  0
    3.7320   -4.0000    0.0000 C   0  0  0  0  0  0  0  0  0  0  0  0
    2.0000   -5.0000    0.0000 C   0  0  0  0  0  0  0  0  0  0  0  0
    3.7320   -5.0000    0.0000 C   0  0  0  0  0  0  0  0  0  0  0  0
    2.8660   -5.5000    0.0000 C   0  0  0  0  0  0  0  0  0  0  0  0
    5.1350    4.8100    0.0000 H   0  0  0  0  0  0  0  0  0  0  0  0
    3.1215    3.1077    0.0000 H   0  0  0  0  0  0  0  0  0  0  0  0
    3.5200    2.4174    0.0000 H   0  0  0  0  0  0  0  0  0  0  0  0
    5.6762    2.4174    0.0000 H   0  0  0  0  0  0  0  0  0  0  0  0
    6.0747    3.1077    0.0000 H   0  0  0  0  0  0  0  0  0  0  0  0
    3.5200    4.5826    0.0000 H   0  0  0  0  0  0  0  0  0  0  0  0
    3.1215    3.8923    0.0000 H   0  0  0  0  0  0  0  0  0  0  0  0
    6.0747    3.8923    0.0000 H   0  0  0  0  0  0  0  0  0  0  0  0
    5.6762    4.5826    0.0000 H   0  0  0  0  0  0  0  0  0  0  0  0
    3.5200    2.5826    0.0000 H   0  0  0  0  0  0  0  0  0  0  0  0
    3.1215    1.8923    0.0000 H   0  0  0  0  0  0  0  0  0  0  0  0
    6.0747    1.8923    0.0000 H   0  0  0  0  0  0  0  0  0  0  0  0
    5.6762    2.5826    0.0000 H   0  0  0  0  0  0  0  0  0  0  0  0
    3.1215    1.1077    0.0000 H   0  0  0  0  0  0  0  0  0  0  0  0
    3.5200    0.4174    0.0000 H   0  0  0  0  0  0  0  0  0  0  0  0
    5.6762    0.4174    0.0000 H   0  0  0  0  0  0  0  0  0  0  0  0
    6.0747    1.1077    0.0000 H   0  0  0  0  0  0  0  0  0  0  0  0
    3.5981    6.1200    0.0000 H   0  0  0  0  0  0  0  0  0  0  0  0
    2.9781    5.5000    0.0000 H   0  0  0  0  0  0  0  0  0  0  0  0
    3.5981    4.8800    0.0000 H   0  0  0  0  0  0  0  0  0  0  0  0
    5.2181    6.5000    0.0000 H   0  0  0  0  0  0  0  0  0  0  0  0
    4.5981    7.1200    0.0000 H   0  0  0  0  0  0  0  0  0  0  0  0
    3.9781    6.5000    0.0000 H   0  0  0  0  0  0  0  0  0  0  0  0
    5.5981    4.8800    0.0000 H   0  0  0  0  0  0  0  0  0  0  0  0
    6.2181    5.5000    0.0000 H   0  0  0  0  0  0  0  0  0  0  0  0
    5.5981    6.1200    0.0000 H   0  0  0  0  0  0  0  0  0  0  0  0
    4.8101   -1.0826    0.0000 H   0  0  0  0  0  0  0  0  0  0  0  0
    5.2087   -0.3923    0.0000 H   0  0  0  0  0  0  0  0  0  0  0  0
    3.5200   -0.4174    0.0000 H   0  0  0  0  0  0  0  0  0  0  0  0
    3.1215   -1.1077    0.0000 H   0  0  0  0  0  0  0  0  0  0  0  0
    3.9441   -2.5826    0.0000 H   0  0  0  0  0  0  0  0  0  0  0  0
    4.3426   -1.8923    0.0000 H   0  0  0  0  0  0  0  0  0  0  0  0
    1.4631   -3.6900    0.0000 H   0  0  0  0  0  0  0  0  0  0  0  0
    4.2690   -3.6900    0.0000 H   0  0  0  0  0  0  0  0  0  0  0  0
    1.4631   -5.3100    0.0000 H   0  0  0  0  0  0  0  0  0  0  0  0
    4.2690   -5.3100    0.0000 H   0  0  0  0  0  0  0  0  0  0  0  0
  1 27  1  0  0  0  0
  2 21  2  0  0  0  0
  3 13  1  0  0  0  0
  3 14  1  0  0  0  0
  3 18  1  0  0  0  0
  4  6  1  0  0  0  0
  4  7  1  0  0  0  0
  4 10  1  0  0  0  0
  4 11  1  0  0  0  0
  5  8  1  0  0  0  0
  5  9  1  0  0  0  0
  5 12  1  0  0  0  0
  5 28  1  0  0  0  0
  6  9  1  0  0  0  0
  6 29  1  0  0  0  0
  6 30  1  0  0  0  0
  7  8  1  0  0  0  0
  7 31  1  0  0  0  0
  7 32  1  0  0  0  0
  8 35  1  0  0  0  0
  8 36  1  0  0  0  0
  9 33  1  0  0  0  0
  9 34  1  0  0  0  0
 10 13  1  0  0  0  0
 10 37  1  0  0  0  0
 10 38  1  0  0  0  0
 11 14  1  0  0  0  0
 11 39  1  0  0  0  0
 11 40  1  0  0  0  0
 12 15  1  0  0  0  0
 12 16  1  0  0  0  0
 12 17  1  0  0  0  0
 13 41  1  0  0  0  0
 13 42  1  0  0  0  0
 14 43  1  0  0  0  0
 14 44  1  0  0  0  0
 15 48  1  0  0  0  0
 15 49  1  0  0  0  0
 15 50  1  0  0  0  0
 16 51  1  0  0  0  0
 16 52  1  0  0  0  0
 16 53  1  0  0  0  0
 17 45  1  0  0  0  0
 17 46  1  0  0  0  0
 17 47  1  0  0  0  0
 18 19  1  0  0  0  0
 18 54  1  0  0  0  0
 18 55  1  0  0  0  0
 19 20  1  0  0  0  0
 19 56  1  0  0  0  0
 19 57  1  0  0  0  0
 20 21  1  0  0  0  0
 20 58  1  0  0  0  0
 20 59  1  0  0  0  0
 21 22  1  0  0  0  0
 22 23  2  0  0  0  0
 22 24  1  0  0  0  0
 23 25  1  0  0  0  0
 23 60  1  0  0  0  0
 24 26  2  0  0  0  0
 24 61  1  0  0  0  0
 25 27  2  0  0  0  0
 25 62  1  0  0  0  0
 26 27  1  0  0  0  0
 26 63  1  0  0  0  0
M  END
> <PUBCHEM_COMPOUND_CID>
6154

> <PUBCHEM_COMPOUND_CANONICALIZED>
1

> <PUBCHEM_CACTVS_COMPLEXITY>
471

> <PUBCHEM_CACTVS_HBOND_ACCEPTOR>
3

> <PUBCHEM_CACTVS_HBOND_DONOR>
0

> <PUBCHEM_CACTVS_ROTATABLE_BOND>
6

> <PUBCHEM_CACTVS_SUBSKEYS>
AAADcfB6IQAAAAAAAAAAAAAAAAAAAAAAAAA8YIAAAAAAAAABAAAAHwAAAAAADwTBmAwyAIMAAACIAqBSAAACAAAkAAAIiAEIAMgIIDKAlRCEIQAggACIiYcciMCPgAAAAAAAAACAAAAAAAAAAAAAAAAAAA==

> <PUBCHEM_IUPAC_OPENEYE_NAME>
4-(9-tert-butyl-3-azaspiro[5.5]undecan-3-yl)-1-(4-fluorophenyl)butan-1-one

> <PUBCHEM_IUPAC_CAS_NAME>
4-(9-tert-butyl-3-azaspiro[5.5]undecan-3-yl)-1-(4-fluorophenyl)-1-butanone

> <PUBCHEM_IUPAC_NAME>
4-(9-tert-butyl-3-azaspiro[5.5]undecan-3-yl)-1-(4-fluorophenyl)butan-1-one

> <PUBCHEM_IUPAC_SYSTEMATIC_NAME>
4-(9-tert-butyl-3-azaspiro[5.5]undecan-3-yl)-1-(4-fluorophenyl)butan-1-one

> <PUBCHEM_IUPAC_TRADITIONAL_NAME>
4-(9-tert-butyl-3-azaspiro[5.5]undecan-3-yl)-1-(4-fluorophenyl)butan-1-one

> <PUBCHEM_IUPAC_INCHI>
InChI=1S/C24H36FNO/c1-23(2,3)20-10-12-24(13-11-20)14-17-26(18-15-24)16-4-5-22(27)19-6-8-21(25)9-7-19/h6-9,20H,4-5,10-18H2,1-3H3

> <PUBCHEM_IUPAC_INCHIKEY>
NXDSAPCXWPTFDB-UHFFFAOYSA-N

> <PUBCHEM_XLOGP3_AA>
6.6

> <PUBCHEM_EXACT_MASS>
373.278093

> <PUBCHEM_MOLECULAR_FORMULA>
C24H36FNO

> <PUBCHEM_MOLECULAR_WEIGHT>
373.547143

> <PUBCHEM_OPENEYE_CAN_SMILES>
CC(C)(C)C1CCC2(CC1)CCN(CC2)CCCC(=O)C3=CC=C(C=C3)F

> <PUBCHEM_OPENEYE_ISO_SMILES>
CC(C)(C)C1CCC2(CC1)CCN(CC2)CCCC(=O)C3=CC=C(C=C3)F

> <PUBCHEM_CACTVS_TPSA>
20.3

> <PUBCHEM_MONOISOTOPIC_WEIGHT>
373.278093

> <PUBCHEM_TOTAL_CHARGE>
0

> <PUBCHEM_HEAVY_ATOM_COUNT>
27

> <PUBCHEM_ATOM_DEF_STEREO_COUNT>
0

> <PUBCHEM_ATOM_UDEF_STEREO_COUNT>
0

> <PUBCHEM_BOND_DEF_STEREO_COUNT>
0

> <PUBCHEM_BOND_UDEF_STEREO_COUNT>
0

> <PUBCHEM_ISOTOPIC_ATOM_COUNT>
0

> <PUBCHEM_COMPONENT_COUNT>
1

> <PUBCHEM_CACTVS_TAUTO_COUNT>
2

> <PUBCHEM_COORDINATE_TYPE>
1
5
255

> <PUBCHEM_BONDANNOTATIONS>
22  23  8
22  24  8
23  25  8
24  26  8
25  27  8
26  27  8

$$$$

