12237
  -OEChem-06261206423D

 35 34  0     1  0  0  0  0  0999 V2000
   -1.6066    0.1728    0.2709 P   0  0  1  0  0  0  0  0  0  0  0  0
    1.2936   -0.1053    0.7558 P   0  0  0  0  0  0  0  0  0  0  0  0
   -0.0817   -0.2632   -0.0797 O   0  0  0  0  0  0  0  0  0  0  0  0
   -1.9557   -0.8125    1.5178 O   0  0  0  0  0  0  0  0  0  0  0  0
    2.4208   -0.6146   -0.2881 O   0  0  0  0  0  0  0  0  0  0  0  0
    1.5194    1.4975    0.8010 O   0  0  0  0  0  0  0  0  0  0  0  0
   -1.6796    1.6214    0.6815 O   0  0  0  0  0  0  0  0  0  0  0  0
    1.3005   -0.7936    2.0901 O   0  0  0  0  0  0  0  0  0  0  0  0
   -2.5530   -0.2802   -1.0238 N   0  0  0  0  0  0  0  0  0  0  0  0
   -2.1348    0.1795   -2.3496 C   0  0  0  0  0  0  0  0  0  0  0  0
   -3.9987   -0.0904   -0.8853 C   0  0  0  0  0  0  0  0  0  0  0  0
    2.4127   -1.9759   -0.6798 C   0  0  0  0  0  0  0  0  0  0  0  0
    1.5245    2.2119   -0.4227 C   0  0  0  0  0  0  0  0  0  0  0  0
   -1.7601   -2.2121    1.3987 C   0  0  0  0  0  0  0  0  0  0  0  0
    3.5483   -2.2161   -1.6517 C   0  0  0  0  0  0  0  0  0  0  0  0
    1.7504    3.6808   -0.1351 C   0  0  0  0  0  0  0  0  0  0  0  0
   -1.0868   -0.0817   -2.5280 H   0  0  0  0  0  0  0  0  0  0  0  0
   -2.2339    1.2662   -2.4412 H   0  0  0  0  0  0  0  0  0  0  0  0
   -2.7190   -0.3002   -3.1423 H   0  0  0  0  0  0  0  0  0  0  0  0
   -4.3472   -0.5324    0.0538 H   0  0  0  0  0  0  0  0  0  0  0  0
   -4.5460   -0.5876   -1.6933 H   0  0  0  0  0  0  0  0  0  0  0  0
   -4.2608    0.9727   -0.8773 H   0  0  0  0  0  0  0  0  0  0  0  0
    2.5327   -2.6066    0.2065 H   0  0  0  0  0  0  0  0  0  0  0  0
    1.4551   -2.2125   -1.1539 H   0  0  0  0  0  0  0  0  0  0  0  0
    2.3277    1.8356   -1.0636 H   0  0  0  0  0  0  0  0  0  0  0  0
    0.5708    2.0774   -0.9408 H   0  0  0  0  0  0  0  0  0  0  0  0
   -0.7300   -2.4407    1.1177 H   0  0  0  0  0  0  0  0  0  0  0  0
   -1.9728   -2.6758    2.3651 H   0  0  0  0  0  0  0  0  0  0  0  0
   -2.4460   -2.6213    0.6527 H   0  0  0  0  0  0  0  0  0  0  0  0
    3.5716   -3.2605   -1.9750 H   0  0  0  0  0  0  0  0  0  0  0  0
    3.4429   -1.5752   -2.5333 H   0  0  0  0  0  0  0  0  0  0  0  0
    4.5097   -1.9671   -1.1905 H   0  0  0  0  0  0  0  0  0  0  0  0
    1.7647    4.2627   -1.0609 H   0  0  0  0  0  0  0  0  0  0  0  0
    0.9609    4.0715    0.5154 H   0  0  0  0  0  0  0  0  0  0  0  0
    2.6992    3.8298    0.3908 H   0  0  0  0  0  0  0  0  0  0  0  0
  1  3  1  0  0  0  0
  1  4  1  0  0  0  0
  1  7  2  0  0  0  0
  1  9  1  0  0  0  0
  2  3  1  0  0  0  0
  2  5  1  0  0  0  0
  2  6  1  0  0  0  0
  2  8  2  0  0  0  0
  4 14  1  0  0  0  0
  5 12  1  0  0  0  0
  6 13  1  0  0  0  0
  9 10  1  0  0  0  0
  9 11  1  0  0  0  0
 10 17  1  0  0  0  0
 10 18  1  0  0  0  0
 10 19  1  0  0  0  0
 11 20  1  0  0  0  0
 11 21  1  0  0  0  0
 11 22  1  0  0  0  0
 12 15  1  0  0  0  0
 12 23  1  0  0  0  0
 12 24  1  0  0  0  0
 13 16  1  0  0  0  0
 13 25  1  0  0  0  0
 13 26  1  0  0  0  0
 14 27  1  0  0  0  0
 14 28  1  0  0  0  0
 14 29  1  0  0  0  0
 15 30  1  0  0  0  0
 15 31  1  0  0  0  0
 15 32  1  0  0  0  0
 16 33  1  0  0  0  0
 16 34  1  0  0  0  0
 16 35  1  0  0  0  0
M  END
> <PUBCHEM_COMPOUND_CID>
12237

> <PUBCHEM_CONFORMER_RMSD>
0.8

> <PUBCHEM_CONFORMER_DIVERSEORDER>
2
88
47
66
123
115
96
71
37
111
117
110
99
121
39
62
91
78
83
84
94
80
6
70
82
81
32
36
9
128
133
131
114
4
38
46
98
44
109
87
65
68
1
5
95
76
119
129
48
113
34
124
3
126
40
21
59
35
55
27
122
73
58
45
26
10
86
18
24
67
116
43
56
79
51
100
63
120
107
54
60
8
14
16
23
22
104
64
12
93
77
85
101
125
42
11
19
25
127
13
75
74
7
112
31
41
97
53
52
69
61
20
106
130
15
17
33
118
30
132
72
105
108
57
50
89
90
103
102
92
49
29
28

> <PUBCHEM_MMFF94_PARTIAL_CHARGES>
14
1 1.51
10 0.27
11 0.27
12 0.28
13 0.28
14 0.28
2 1.51
3 -0.54
4 -0.55
5 -0.55
6 -0.55
7 -0.7
8 -0.7
9 -0.81

> <PUBCHEM_EFFECTIVE_ROTOR_COUNT>
8

> <PUBCHEM_PHARMACOPHORE_FEATURES>
2
1 7 acceptor
1 8 acceptor

> <PUBCHEM_HEAVY_ATOM_COUNT>
16

> <PUBCHEM_ATOM_DEF_STEREO_COUNT>
0

> <PUBCHEM_ATOM_UDEF_STEREO_COUNT>
1

> <PUBCHEM_BOND_DEF_STEREO_COUNT>
0

> <PUBCHEM_BOND_UDEF_STEREO_COUNT>
0

> <PUBCHEM_ISOTOPIC_ATOM_COUNT>
0

> <PUBCHEM_COMPONENT_COUNT>
1

> <PUBCHEM_CACTVS_TAUTO_COUNT>
1

> <PUBCHEM_CONFORMER_ID>
00002FCD00000002

> <PUBCHEM_MMFF94_ENERGY>
7.4813

> <PUBCHEM_FEATURE_SELFOVERLAP>
10.149

> <PUBCHEM_SHAPE_FINGERPRINT>
12932764 1 17632588153714817531
14648413 74 18411697643169839384
14817 1 9747114381014550648
16945 1 18264476317813729360
18186145 218 18200891642384605725
18380122 1 17697587797582291779
20600515 1 18125469568087244224
20671657 53 18338811124744122922
20711985 344 17906733961997704960
20871999 31 18196365051180147524
21160774 45 17112415511472589358
21524375 3 17622741816487525528
21947302 44 17985858988987942045
22713019 5 17980196714568446372
23114952 82 18342740671875007756
23402539 116 18124030393777760966
23526113 38 18343303686474516558
23557571 272 17415836895319783755
23598291 2 17896021295274637964
2748010 2 17844521115696404339
5262128 65 18408325496836776423
633830 44 18341346543609208845
81228 2 17977100490067495272
88987 49 16701748142026528171

> <PUBCHEM_SHAPE_MULTIPOLES>
296.77
5.39
3.15
1.89
1.56
2.49
0.27
-2.14
2.56
-3.39
0.12
0.56
-0.86
1.36

> <PUBCHEM_SHAPE_SELFOVERLAP>
521.325

> <PUBCHEM_SHAPE_VOLUME>
196.3

> <PUBCHEM_COORDINATE_TYPE>
2
5
10

$$$$

