124069
  -OEChem-07051212503D

 40 45  0     1  0  0  0  0  0999 V2000
    4.4734   -1.7850   -0.4799 O   0  0  0  0  0  0  0  0  0  0  0  0
    5.9829    0.0271   -0.0002 O   0  0  0  0  0  0  0  0  0  0  0  0
   -5.0132   -1.8526   -0.0756 O   0  0  0  0  0  0  0  0  0  0  0  0
   -5.9398    0.3689   -0.1490 O   0  0  0  0  0  0  0  0  0  0  0  0
    0.2231   -1.3947    0.1971 N   0  0  1  0  0  0  0  0  0  0  0  0
   -0.3858   -0.1218    0.0738 C   0  0  0  0  0  0  0  0  0  0  0  0
    2.4406   -0.4395   -0.2158 C   0  0  0  0  0  0  0  0  0  0  0  0
    1.4829   -1.5547   -0.5350 C   0  0  0  0  0  0  0  0  0  0  0  0
    0.4523    1.0316    0.0205 C   0  0  0  0  0  0  0  0  0  0  0  0
    1.9261    0.8521    0.0465 C   0  0  0  0  0  0  0  0  0  0  0  0
   -1.8085    0.0066    0.0187 C   0  0  0  0  0  0  0  0  0  0  0  0
    3.8143   -0.6213   -0.2217 C   0  0  0  0  0  0  0  0  0  0  0  0
   -2.3784    1.3127   -0.0503 C   0  0  0  0  0  0  0  0  0  0  0  0
   -0.1528    2.2926   -0.0609 C   0  0  0  0  0  0  0  0  0  0  0  0
    2.8400    1.8954    0.3313 C   0  0  0  0  0  0  0  0  0  0  0  0
    4.6786    0.4114    0.0490 C   0  0  0  0  0  0  0  0  0  0  0  0
   -1.5406    2.4302   -0.0838 C   0  0  0  0  0  0  0  0  0  0  0  0
    0.1420   -1.9958    1.5273 C   0  0  0  0  0  0  0  0  0  0  0  0
   -2.6904   -1.1026   -0.0020 C   0  0  0  0  0  0  0  0  0  0  0  0
    4.2229    1.6790    0.3339 C   0  0  0  0  0  0  0  0  0  0  0  0
   -3.7731    1.4899   -0.0999 C   0  0  0  0  0  0  0  0  0  0  0  0
   -4.0533   -0.8883   -0.0551 C   0  0  0  0  0  0  0  0  0  0  0  0
   -4.5804    0.3742   -0.0984 C   0  0  0  0  0  0  0  0  0  0  0  0
    5.8453   -1.3673   -0.3370 C   0  0  0  0  0  0  0  0  0  0  0  0
   -6.2084   -1.0479   -0.1333 C   0  0  0  0  0  0  0  0  0  0  0  0
    1.2825   -1.5523   -1.6141 H   0  0  0  0  0  0  0  0  0  0  0  0
    1.9257   -2.5287   -0.2952 H   0  0  0  0  0  0  0  0  0  0  0  0
    0.4392    3.2022   -0.1176 H   0  0  0  0  0  0  0  0  0  0  0  0
    2.4910    2.8978    0.5658 H   0  0  0  0  0  0  0  0  0  0  0  0
   -1.9587    3.4336   -0.1448 H   0  0  0  0  0  0  0  0  0  0  0  0
   -0.8736   -1.9798    1.9346 H   0  0  0  0  0  0  0  0  0  0  0  0
    0.7990   -1.4729    2.2315 H   0  0  0  0  0  0  0  0  0  0  0  0
    0.4550   -3.0447    1.4853 H   0  0  0  0  0  0  0  0  0  0  0  0
   -2.3198   -2.1234    0.0148 H   0  0  0  0  0  0  0  0  0  0  0  0
    4.9084    2.4901    0.5529 H   0  0  0  0  0  0  0  0  0  0  0  0
   -4.2154    2.4810   -0.1475 H   0  0  0  0  0  0  0  0  0  0  0  0
    6.3695   -1.5541   -1.2812 H   0  0  0  0  0  0  0  0  0  0  0  0
    6.3149   -1.9672    0.4509 H   0  0  0  0  0  0  0  0  0  0  0  0
   -6.8295   -1.2781    0.7399 H   0  0  0  0  0  0  0  0  0  0  0  0
   -6.7649   -1.3100   -1.0405 H   0  0  0  0  0  0  0  0  0  0  0  0
  1 12  1  0  0  0  0
  1 24  1  0  0  0  0
  2 16  1  0  0  0  0
  2 24  1  0  0  0  0
  3 22  1  0  0  0  0
  3 25  1  0  0  0  0
  4 23  1  0  0  0  0
  4 25  1  0  0  0  0
  5  6  1  0  0  0  0
  5  8  1  0  0  0  0
  5 18  1  0  0  0  0
  6  9  2  0  0  0  0
  6 11  1  0  0  0  0
  7  8  1  0  0  0  0
  7 10  2  0  0  0  0
  7 12  1  0  0  0  0
  8 26  1  0  0  0  0
  8 27  1  0  0  0  0
  9 10  1  0  0  0  0
  9 14  1  0  0  0  0
 10 15  1  0  0  0  0
 11 13  1  0  0  0  0
 11 19  2  0  0  0  0
 12 16  2  0  0  0  0
 13 17  1  0  0  0  0
 13 21  2  0  0  0  0
 14 17  2  0  0  0  0
 14 28  1  0  0  0  0
 15 20  2  0  0  0  0
 15 29  1  0  0  0  0
 16 20  1  0  0  0  0
 17 30  1  0  0  0  0
 18 31  1  0  0  0  0
 18 32  1  0  0  0  0
 18 33  1  0  0  0  0
 19 22  1  0  0  0  0
 19 34  1  0  0  0  0
 20 35  1  0  0  0  0
 21 23  1  0  0  0  0
 21 36  1  0  0  0  0
 22 23  2  0  0  0  0
 24 37  1  0  0  0  0
 24 38  1  0  0  0  0
 25 39  1  0  0  0  0
 25 40  1  0  0  0  0
M  END
> <PUBCHEM_COMPOUND_CID>
124069

> <PUBCHEM_CONFORMER_RMSD>
0.6

> <PUBCHEM_CONFORMER_DIVERSEORDER>
1
2

> <PUBCHEM_MMFF94_PARTIAL_CHARGES>
27
1 -0.36
12 0.08
14 -0.15
15 -0.15
16 0.08
17 -0.15
18 0.37
19 -0.15
2 -0.36
20 -0.15
21 -0.15
22 0.08
23 0.08
24 0.56
25 0.56
28 0.15
29 0.15
3 -0.36
30 0.15
34 0.15
35 0.15
36 0.15
4 -0.36
5 -0.84
6 0.1
7 -0.14
8 0.51

> <PUBCHEM_EFFECTIVE_ROTOR_COUNT>
1.6

> <PUBCHEM_PHARMACOPHORE_FEATURES>
11
1 1 acceptor
1 2 acceptor
1 3 acceptor
1 4 acceptor
1 5 cation
5 1 2 12 16 24 rings
5 3 4 22 23 25 rings
6 11 13 19 21 22 23 rings
6 5 6 7 8 9 10 rings
6 6 9 11 13 14 17 rings
6 7 10 12 15 16 20 rings

> <PUBCHEM_HEAVY_ATOM_COUNT>
25

> <PUBCHEM_ATOM_DEF_STEREO_COUNT>
0

> <PUBCHEM_ATOM_UDEF_STEREO_COUNT>
0

> <PUBCHEM_BOND_DEF_STEREO_COUNT>
0

> <PUBCHEM_BOND_UDEF_STEREO_COUNT>
0

> <PUBCHEM_ISOTOPIC_ATOM_COUNT>
0

> <PUBCHEM_COMPONENT_COUNT>
1

> <PUBCHEM_CACTVS_TAUTO_COUNT>
1

> <PUBCHEM_CONFORMER_ID>
0001E4A500000001

> <PUBCHEM_MMFF94_ENERGY>
96.2663

> <PUBCHEM_FEATURE_SELFOVERLAP>
56.194

> <PUBCHEM_SHAPE_FINGERPRINT>
10 15 18336558119189535160
10906281 52 18267844168841710653
11488393 25 17605540266050510614
11524674 6 16443066097215512559
11578080 2 13972529371428146668
11963148 33 18410017623758347774
12107183 9 17688307206410622281
12166972 35 17775281655775643996
12236239 1 17967249785005318049
12403259 226 18338520836990886620
12403259 415 18272379675860777452
12403260 363 18341048601322086216
12516196 113 18113901546095554729
13288520 33 18409165519910798181
13402501 40 18410292497289838595
13533116 47 18187364299114682600
13862211 1 18412266137868147426
14251764 18 18343304765233695650
14341114 176 18409444778146326829
14787075 74 18412544280008291121
15196674 1 18409730659817648317
15927050 60 17468198842843261708
16087824 20 18267867371685742437
17349148 13 17917989490321209692
17492 89 18192150619196417734
17844677 252 18335133198167305761
1813 80 17632580435189537013
18681886 176 18410579457367294768
19141452 34 18041280972245169487
19591789 44 18410014342333436226
200 152 17967533484263573561
20028762 73 18261115170776503958
21130935 74 18113899359772890011
21236236 1 18335137639738385841
21267235 1 18410568483847029615
21279426 13 18339081608809898045
21682296 61 17969211403865047502
21709351 56 18273220798345921117
21781051 124 17630866258592937307
21857420 4 15801634983540977686
221357 26 18408041827443104716
22393880 68 18200039563221508469
23402539 116 18411422808191553879
23522609 53 18120621778186960208
23559900 14 18410579456977183904
23569914 152 17256273934120249263
2871803 45 18342461451893108097
3004659 81 18272932722236441524
335352 9 18410856564831731509
34797466 226 16805597028102372596
34934 24 18340211881773961565
350125 39 18408885144308850956
351380 180 18410855460508015442
4073 2 18201434727449898411
4214541 1 18408885169957309421
465052 167 18187361030649546470
5104073 3 18260552272615268000
5283173 99 18200321034304633437
6138700 20 18341049709418393402
7495541 125 17313109613671965266
9709674 26 18339638945810574050

> <PUBCHEM_SHAPE_MULTIPOLES>
486.03
13.33
2.37
0.74
1.85
0.48
-0.14
-3.78
1.34
-0.13
-0.16
-0.13
-0.21
0.48

> <PUBCHEM_SHAPE_SELFOVERLAP>
1129.106

> <PUBCHEM_SHAPE_VOLUME>
248.1

> <PUBCHEM_COORDINATE_TYPE>
2
5
10

$$$$

