96227
  -OEChem-07051213053D

 28 29  0     0  0  0  0  0  0999 V2000
    5.3702    0.0014   -0.4766 O   0  0  0  0  0  0  0  0  0  0  0  0
   -5.4216   -0.5820   -1.3429 O   0  0  0  0  0  0  0  0  0  0  0  0
   -5.1575   -0.1682    0.8747 O   0  0  0  0  0  0  0  0  0  0  0  0
   -0.9415    0.3726    0.4496 C   0  0  0  0  0  0  0  0  0  0  0  0
   -2.3969    0.1748    0.7071 C   0  0  0  0  0  0  0  0  0  0  0  0
    1.3003   -0.5496    0.2447 C   0  0  0  0  0  0  0  0  0  0  0  0
    1.7997    0.7445   -0.0360 C   0  0  0  0  0  0  0  0  0  0  0  0
   -0.0729   -0.7186    0.4850 C   0  0  0  0  0  0  0  0  0  0  0  0
   -0.4504    1.6453    0.1736 C   0  0  0  0  0  0  0  0  0  0  0  0
   -3.2126   -0.1213   -0.5571 C   0  0  0  0  0  0  0  0  0  0  0  0
    0.9110    1.8314   -0.0680 C   0  0  0  0  0  0  0  0  0  0  0  0
    2.1889   -1.6368    0.2763 C   0  0  0  0  0  0  0  0  0  0  0  0
    3.1731    0.9132   -0.2766 C   0  0  0  0  0  0  0  0  0  0  0  0
    4.0417   -0.1781   -0.2407 C   0  0  0  0  0  0  0  0  0  0  0  0
    3.5505   -1.4508    0.0350 C   0  0  0  0  0  0  0  0  0  0  0  0
   -4.6819   -0.2778   -0.2482 C   0  0  0  0  0  0  0  0  0  0  0  0
   -2.5331   -0.6386    1.4330 H   0  0  0  0  0  0  0  0  0  0  0  0
   -2.8006    1.0657    1.2075 H   0  0  0  0  0  0  0  0  0  0  0  0
   -0.4668   -1.7107    0.6996 H   0  0  0  0  0  0  0  0  0  0  0  0
   -1.1173    2.5029    0.1409 H   0  0  0  0  0  0  0  0  0  0  0  0
   -3.1015    0.6972   -1.2773 H   0  0  0  0  0  0  0  0  0  0  0  0
   -2.8582   -1.0484   -1.0219 H   0  0  0  0  0  0  0  0  0  0  0  0
    1.2726    2.8350   -0.2823 H   0  0  0  0  0  0  0  0  0  0  0  0
    1.8271   -2.6405    0.4898 H   0  0  0  0  0  0  0  0  0  0  0  0
    3.5663    1.9050   -0.4935 H   0  0  0  0  0  0  0  0  0  0  0  0
    4.2222   -2.3044    0.0638 H   0  0  0  0  0  0  0  0  0  0  0  0
    5.5356    0.9441   -0.6501 H   0  0  0  0  0  0  0  0  0  0  0  0
   -6.3714   -0.6930   -1.1240 H   0  0  0  0  0  0  0  0  0  0  0  0
  1 14  1  0  0  0  0
  1 27  1  0  0  0  0
  2 16  1  0  0  0  0
  2 28  1  0  0  0  0
  3 16  2  0  0  0  0
  4  5  1  0  0  0  0
  4  8  2  0  0  0  0
  4  9  1  0  0  0  0
  5 10  1  0  0  0  0
  5 17  1  0  0  0  0
  5 18  1  0  0  0  0
  6  7  2  0  0  0  0
  6  8  1  0  0  0  0
  6 12  1  0  0  0  0
  7 11  1  0  0  0  0
  7 13  1  0  0  0  0
  8 19  1  0  0  0  0
  9 11  2  0  0  0  0
  9 20  1  0  0  0  0
 10 16  1  0  0  0  0
 10 21  1  0  0  0  0
 10 22  1  0  0  0  0
 11 23  1  0  0  0  0
 12 15  2  0  0  0  0
 12 24  1  0  0  0  0
 13 14  2  0  0  0  0
 13 25  1  0  0  0  0
 14 15  1  0  0  0  0
 15 26  1  0  0  0  0
M  END
> <PUBCHEM_COMPOUND_CID>
96227

> <PUBCHEM_CONFORMER_RMSD>
0.6

> <PUBCHEM_CONFORMER_DIVERSEORDER>
1
11
14
6
8
4
7
10
13
12
2
3
5
9

> <PUBCHEM_MMFF94_PARTIAL_CHARGES>
22
1 -0.53
10 0.06
11 -0.15
12 -0.15
13 -0.15
14 0.08
15 -0.15
16 0.66
19 0.15
2 -0.65
20 0.15
23 0.15
24 0.15
25 0.15
26 0.15
27 0.45
28 0.5
3 -0.57
4 -0.14
5 0.14
8 -0.15
9 -0.15

> <PUBCHEM_EFFECTIVE_ROTOR_COUNT>
3

> <PUBCHEM_PHARMACOPHORE_FEATURES>
6
1 1 donor
1 2 acceptor
1 3 acceptor
3 2 3 16 anion
6 4 6 7 8 9 11 rings
6 6 7 12 13 14 15 rings

> <PUBCHEM_HEAVY_ATOM_COUNT>
16

> <PUBCHEM_ATOM_DEF_STEREO_COUNT>
0

> <PUBCHEM_ATOM_UDEF_STEREO_COUNT>
0

> <PUBCHEM_BOND_DEF_STEREO_COUNT>
0

> <PUBCHEM_BOND_UDEF_STEREO_COUNT>
0

> <PUBCHEM_ISOTOPIC_ATOM_COUNT>
0

> <PUBCHEM_COMPONENT_COUNT>
1

> <PUBCHEM_CACTVS_TAUTO_COUNT>
3

> <PUBCHEM_CONFORMER_ID>
000177E300000001

> <PUBCHEM_MMFF94_ENERGY>
37.7761

> <PUBCHEM_FEATURE_SELFOVERLAP>
30.53

> <PUBCHEM_SHAPE_FINGERPRINT>
10498660 4 15984280637441895597
11287383 113 16845565388247258873
11401426 45 18412829066562886688
11471102 20 18342457028187524048
11806522 49 18409448098308988480
12119455 92 8286198340544100085
12236239 1 17822007609857914433
12251169 10 8070026666262762376
13690532 89 18409448098155916715
13760787 5 18341601616483304521
13862211 1 18410578400773821194
14251717 144 18411418414545524386
14576447 43 18335145275636200887
14911166 2 18272087184382096808
14993402 34 18334856112699529374
15048467 5 12679459773017986454
15196674 1 18340484590300499408
15477762 27 18410292532003043854
15848700 24 18411421713143886628
16945 1 18270665546471394288
17834072 33 18113336401165853761
18186145 218 17632580461655217833
200 152 18335138708768147457
20612939 158 18341329994488839581
20645477 70 18342737450686705491
21029758 11 18409728456642071376
21256008 61 18407761430149699080
21267235 1 18410281536876417970
212847 35 10303807692325168190
21637258 2 16588025762087921110
221357 26 18271539654137144517
221490 88 18125715695609851627
23402539 116 18040435512122345773
23402655 69 18341898523678261085
23559900 14 18269272374844657608
2748010 2 17981028731649374520
2871803 45 18271806860678297482
29717793 49 17894631461470136053
351380 3 18040437685433859191
4047638 21 10375868585013647088
4072396 5 18131084727173762682
42 15 6699807587863438891
465052 167 18114178610299160279
4990 188 17274823553973179291
5104073 3 18339924943018849472
602551 16 15575007130321398079

> <PUBCHEM_SHAPE_MULTIPOLES>
311.66
10.45
1.5
0.84
8.66
0.24
0.06
-2.67
2.38
-1.05
-0.05
0.73
-0.06
-0.36

> <PUBCHEM_SHAPE_SELFOVERLAP>
672.226

> <PUBCHEM_SHAPE_VOLUME>
171.5

> <PUBCHEM_COORDINATE_TYPE>
2
5
10

$$$$

