3391107
  -OEChem-07051213133D

 28 30  0     0  0  0  0  0  0999 V2000
   -0.7719   -2.4659    1.0835 Cl  0  0  0  0  0  0  0  0  0  0  0  0
   -5.5179   -1.2942   -0.9974 Cl  0  0  0  0  0  0  0  0  0  0  0  0
    5.5808   -0.3764   -1.4122 F   0  0  0  0  0  0  0  0  0  0  0  0
    0.7902   -0.1583    1.2617 O   0  0  0  0  0  0  0  0  0  0  0  0
   -2.0742    2.3718   -0.3369 N   0  0  0  0  0  0  0  0  0  0  0  0
   -1.4522    0.1402    0.3268 C   0  0  0  0  0  0  0  0  0  0  0  0
   -0.1970    0.6163    0.7289 C   0  0  0  0  0  0  0  0  0  0  0  0
   -2.3731    1.0653   -0.2081 C   0  0  0  0  0  0  0  0  0  0  0  0
   -1.7979   -1.2166    0.4467 C   0  0  0  0  0  0  0  0  0  0  0  0
   -3.6200    0.5919   -0.6072 C   0  0  0  0  0  0  0  0  0  0  0  0
    0.1139    1.9619    0.5973 C   0  0  0  0  0  0  0  0  0  0  0  0
   -3.0519   -1.6626    0.0395 C   0  0  0  0  0  0  0  0  0  0  0  0
    1.9971   -0.2132    0.5871 C   0  0  0  0  0  0  0  0  0  0  0  0
   -3.9639   -0.7570   -0.4881 C   0  0  0  0  0  0  0  0  0  0  0  0
   -0.8518    2.7907    0.0631 C   0  0  0  0  0  0  0  0  0  0  0  0
    1.9964   -0.3788   -0.7867 C   0  0  0  0  0  0  0  0  0  0  0  0
    3.1756   -0.1011    1.3036 C   0  0  0  0  0  0  0  0  0  0  0  0
    3.2135   -0.4343   -1.4659 C   0  0  0  0  0  0  0  0  0  0  0  0
    4.3927   -0.1566    0.6243 C   0  0  0  0  0  0  0  0  0  0  0  0
    4.4116   -0.3231   -0.7603 C   0  0  0  0  0  0  0  0  0  0  0  0
   -4.3425    1.2938   -1.0224 H   0  0  0  0  0  0  0  0  0  0  0  0
    1.0666    2.3754    0.9102 H   0  0  0  0  0  0  0  0  0  0  0  0
   -3.3254   -2.7118    0.1295 H   0  0  0  0  0  0  0  0  0  0  0  0
   -0.6670    3.8528   -0.0601 H   0  0  0  0  0  0  0  0  0  0  0  0
    1.0789   -0.4868   -1.3572 H   0  0  0  0  0  0  0  0  0  0  0  0
    3.1624    0.0288    2.3816 H   0  0  0  0  0  0  0  0  0  0  0  0
    3.2289   -0.5682   -2.5435 H   0  0  0  0  0  0  0  0  0  0  0  0
    5.3256   -0.0699    1.1734 H   0  0  0  0  0  0  0  0  0  0  0  0
  1  9  1  0  0  0  0
  2 14  1  0  0  0  0
  3 20  1  0  0  0  0
  4  7  1  0  0  0  0
  4 13  1  0  0  0  0
  5  8  2  0  0  0  0
  5 15  1  0  0  0  0
  6  7  2  0  0  0  0
  6  8  1  0  0  0  0
  6  9  1  0  0  0  0
  7 11  1  0  0  0  0
  8 10  1  0  0  0  0
  9 12  2  0  0  0  0
 10 14  2  0  0  0  0
 10 21  1  0  0  0  0
 11 15  2  0  0  0  0
 11 22  1  0  0  0  0
 12 14  1  0  0  0  0
 12 23  1  0  0  0  0
 13 16  2  0  0  0  0
 13 17  1  0  0  0  0
 15 24  1  0  0  0  0
 16 18  1  0  0  0  0
 16 25  1  0  0  0  0
 17 19  2  0  0  0  0
 17 26  1  0  0  0  0
 18 20  2  0  0  0  0
 18 27  1  0  0  0  0
 19 20  1  0  0  0  0
 19 28  1  0  0  0  0
M  END
> <PUBCHEM_COMPOUND_CID>
3391107

> <PUBCHEM_CONFORMER_RMSD>
0.6

> <PUBCHEM_CONFORMER_DIVERSEORDER>
1
4
3
5
2

> <PUBCHEM_MMFF94_PARTIAL_CHARGES>
27
1 -0.18
10 -0.15
11 -0.15
12 -0.15
13 0.08
14 0.18
15 0.16
16 -0.15
17 -0.15
18 -0.15
19 -0.15
2 -0.18
20 0.19
21 0.15
22 0.15
23 0.15
24 0.15
25 0.15
26 0.15
27 0.15
28 0.15
3 -0.19
4 -0.17
5 -0.62
7 0.08
8 0.31
9 0.18

> <PUBCHEM_EFFECTIVE_ROTOR_COUNT>
2

> <PUBCHEM_PHARMACOPHORE_FEATURES>
5
1 4 acceptor
1 5 acceptor
6 13 16 17 18 19 20 rings
6 5 6 7 8 11 15 rings
6 6 8 9 10 12 14 rings

> <PUBCHEM_HEAVY_ATOM_COUNT>
20

> <PUBCHEM_ATOM_DEF_STEREO_COUNT>
0

> <PUBCHEM_ATOM_UDEF_STEREO_COUNT>
0

> <PUBCHEM_BOND_DEF_STEREO_COUNT>
0

> <PUBCHEM_BOND_UDEF_STEREO_COUNT>
0

> <PUBCHEM_ISOTOPIC_ATOM_COUNT>
0

> <PUBCHEM_COMPONENT_COUNT>
1

> <PUBCHEM_CACTVS_TAUTO_COUNT>
1

> <PUBCHEM_CONFORMER_ID>
0033BE8300000001

> <PUBCHEM_MMFF94_ENERGY>
69.1418

> <PUBCHEM_FEATURE_SELFOVERLAP>
25.403

> <PUBCHEM_SHAPE_FINGERPRINT>
10366900 7 18260541226117695878
10498660 4 18341337785242769397
11640471 11 17274809286271176454
11680986 33 18052262791467516457
12236239 1 17489873751684019282
12363563 72 18261668190696061885
12553582 1 18413106134977173939
12788726 201 18341613749829115601
13544653 18 17530963557717798027
14115302 16 17917997131105121491
14386348 63 17967250892637674478
14420673 8 8285666173212912892
14790565 3 17759241091677615977
15475509 8 18261100920702119797
15848700 24 18261399910096287199
15961568 22 18269280071811745428
16752209 62 18271533069144813643
16945 1 18341053007747431673
17357779 13 18187657885687918061
17870717 6 18334565871710496134
1813 80 18261109643379849261
187816 3 18343584031964440651
19141452 34 17604152524137102503
192875 21 17275107240990247572
19784866 240 17385720249891395223
19862831 5 17846495924484490954
200 152 17918274255379934658
20374829 77 18334863801070810391
20645476 183 17489587840138350651
20871999 31 18411979174007550541
20905425 154 18191593162294892063
21267235 1 18337954494556347631
21637258 2 16298396759790450063
22182313 1 18124905420197012793
2297311 6 18335695048629665798
23379529 103 17755591447417901279
23402539 116 18412270561747610036
23557571 272 18260545649543620612
23559900 14 18335706095997707474
2748010 2 18054520101813809243
2838139 119 15266795393904175951
2871803 45 18334296474345455750
465052 167 5472852731833752671
474 4 15985097497118894646
7364860 26 17973734579921775953
77492 1 17489309732521072856
81228 2 18337099159333150457
9709674 26 18192718843052361905

> <PUBCHEM_SHAPE_MULTIPOLES>
397.21
9.65
2.24
1.25
3.31
1.05
-0.13
-3.74
-4.32
-2.03
0.36
1.03
-0.31
0.21

> <PUBCHEM_SHAPE_SELFOVERLAP>
868.291

> <PUBCHEM_SHAPE_VOLUME>
218.1

> <PUBCHEM_COORDINATE_TYPE>
2
5
10

$$$$

