442838
  -OEChem-07051212592D

 51 54  0     1  0  0  0  0  0999 V2000
    5.5443   -0.3047    0.0000 O   0  0  0  0  0  0  0  0  0  0  0  0
    4.5981    2.0000    0.0000 O   0  0  0  0  0  0  0  0  0  0  0  0
    3.7320    2.5000    0.0000 O   0  0  0  0  0  0  0  0  0  0  0  0
    2.0000   -0.5000    0.0000 O   0  0  0  0  0  0  0  0  0  0  0  0
    9.2950   -1.1030    0.0000 O   0  0  0  0  0  0  0  0  0  0  0  0
   10.0997    0.2908    0.0000 O   0  0  0  0  0  0  0  0  0  0  0  0
    4.5981    1.0000    0.0000 C   0  0  1  0  0  0  0  0  0  0  0  0
    4.5981    0.0000    0.0000 C   0  0  2  0  0  0  0  0  0  0  0  0
    5.5443    1.3047    0.0000 C   0  0  1  0  0  0  0  0  0  0  0  0
    6.1279    0.5000    0.0000 C   0  0  1  0  0  0  0  0  0  0  0  0
    3.7320   -0.5000    0.0000 C   0  0  1  0  0  0  0  0  0  0  0  0
    3.7320    1.5000    0.0000 C   0  0  0  0  0  0  0  0  0  0  0  0
    6.2886    1.9726    0.0000 C   0  0  0  0  0  0  0  0  0  0  0  0
    2.8660    0.0000    0.0000 C   0  0  0  0  0  0  0  0  0  0  0  0
    7.1279    0.5000    0.0000 C   0  0  0  0  0  0  0  0  0  0  0  0
    3.7320   -1.5000    0.0000 C   0  0  0  0  0  0  0  0  0  0  0  0
    2.8660    1.0000    0.0000 C   0  0  0  0  0  0  0  0  0  0  0  0
    5.0981    2.8660    0.0000 C   0  0  0  0  0  0  0  0  0  0  0  0
    7.6279   -0.3660    0.0000 C   0  0  0  0  0  0  0  0  0  0  0  0
    7.6279    1.3660    0.0000 C   0  0  0  0  0  0  0  0  0  0  0  0
    2.8660   -2.0000    0.0000 C   0  0  0  0  0  0  0  0  0  0  0  0
    8.6279   -0.3660    0.0000 C   0  0  0  0  0  0  0  0  0  0  0  0
    8.6279    1.3660    0.0000 C   0  0  0  0  0  0  0  0  0  0  0  0
    2.8660    3.0000    0.0000 C   0  0  0  0  0  0  0  0  0  0  0  0
    9.1279    0.5000    0.0000 C   0  0  0  0  0  0  0  0  0  0  0  0
    2.8660   -3.0000    0.0000 C   0  0  0  0  0  0  0  0  0  0  0  0
   10.2028   -0.6979    0.0000 C   0  0  0  0  0  0  0  0  0  0  0  0
    4.6880   -0.8452    0.0000 H   0  0  0  0  0  0  0  0  0  0  0  0
    5.2355    1.8423    0.0000 H   0  0  0  0  0  0  0  0  0  0  0  0
    6.4096   -0.0523    0.0000 H   0  0  0  0  0  0  0  0  0  0  0  0
    4.2690   -0.8100    0.0000 H   0  0  0  0  0  0  0  0  0  0  0  0
    6.7027    1.5111    0.0000 H   0  0  0  0  0  0  0  0  0  0  0  0
    6.7501    2.3866    0.0000 H   0  0  0  0  0  0  0  0  0  0  0  0
    5.8745    2.4340    0.0000 H   0  0  0  0  0  0  0  0  0  0  0  0
    3.9441   -2.0826    0.0000 H   0  0  0  0  0  0  0  0  0  0  0  0
    4.3426   -1.3923    0.0000 H   0  0  0  0  0  0  0  0  0  0  0  0
    2.3291    1.3100    0.0000 H   0  0  0  0  0  0  0  0  0  0  0  0
    5.6350    2.5560    0.0000 H   0  0  0  0  0  0  0  0  0  0  0  0
    5.4081    3.4030    0.0000 H   0  0  0  0  0  0  0  0  0  0  0  0
    4.5611    3.1760    0.0000 H   0  0  0  0  0  0  0  0  0  0  0  0
    7.3179   -0.9030    0.0000 H   0  0  0  0  0  0  0  0  0  0  0  0
    7.3179    1.9030    0.0000 H   0  0  0  0  0  0  0  0  0  0  0  0
    2.3291   -1.6900    0.0000 H   0  0  0  0  0  0  0  0  0  0  0  0
    8.9379    1.9030    0.0000 H   0  0  0  0  0  0  0  0  0  0  0  0
    3.1760    3.5369    0.0000 H   0  0  0  0  0  0  0  0  0  0  0  0
    2.3291    3.3100    0.0000 H   0  0  0  0  0  0  0  0  0  0  0  0
    2.5560    2.4631    0.0000 H   0  0  0  0  0  0  0  0  0  0  0  0
    2.3291   -3.3100    0.0000 H   0  0  0  0  0  0  0  0  0  0  0  0
    3.4030   -3.3100    0.0000 H   0  0  0  0  0  0  0  0  0  0  0  0
   10.3945   -1.2875    0.0000 H   0  0  0  0  0  0  0  0  0  0  0  0
   10.8093   -0.5692    0.0000 H   0  0  0  0  0  0  0  0  0  0  0  0
  1  8  1  0  0  0  0
  1 10  1  0  0  0  0
  7  2  1  6  0  0  0
  2 18  1  0  0  0  0
  3 12  1  0  0  0  0
  3 24  1  0  0  0  0
  4 14  2  0  0  0  0
  5 22  1  0  0  0  0
  5 27  1  0  0  0  0
  6 25  1  0  0  0  0
  6 27  1  0  0  0  0
  7  8  1  0  0  0  0
  7  9  1  0  0  0  0
  7 12  1  0  0  0  0
  8 11  1  0  0  0  0
  8 28  1  6  0  0  0
  9 10  1  0  0  0  0
  9 13  1  6  0  0  0
  9 29  1  0  0  0  0
 10 15  1  1  0  0  0
 10 30  1  0  0  0  0
 11 14  1  0  0  0  0
 11 16  1  6  0  0  0
 11 31  1  0  0  0  0
 12 17  2  0  0  0  0
 13 32  1  0  0  0  0
 13 33  1  0  0  0  0
 13 34  1  0  0  0  0
 14 17  1  0  0  0  0
 15 19  2  0  0  0  0
 15 20  1  0  0  0  0
 16 21  1  0  0  0  0
 16 35  1  0  0  0  0
 16 36  1  0  0  0  0
 17 37  1  0  0  0  0
 18 38  1  0  0  0  0
 18 39  1  0  0  0  0
 18 40  1  0  0  0  0
 19 22  1  0  0  0  0
 19 41  1  0  0  0  0
 20 23  2  0  0  0  0
 20 42  1  0  0  0  0
 21 26  2  0  0  0  0
 21 43  1  0  0  0  0
 22 25  2  0  0  0  0
 23 25  1  0  0  0  0
 23 44  1  0  0  0  0
 24 45  1  0  0  0  0
 24 46  1  0  0  0  0
 24 47  1  0  0  0  0
 26 48  1  0  0  0  0
 26 49  1  0  0  0  0
 27 50  1  0  0  0  0
 27 51  1  0  0  0  0
M  END
> <PUBCHEM_COMPOUND_CID>
442838

> <PUBCHEM_COMPOUND_CANONICALIZED>
1

> <PUBCHEM_CACTVS_COMPLEXITY>
630

> <PUBCHEM_CACTVS_HBOND_ACCEPTOR>
6

> <PUBCHEM_CACTVS_HBOND_DONOR>
0

> <PUBCHEM_CACTVS_ROTATABLE_BOND>
5

> <PUBCHEM_CACTVS_SUBSKEYS>
AAADceB4OAAAAAAAAAAAAAAAAAAAASJAAAAwQAAAAAAAAEgBAAAAGgAAAAAADVSgmAMyDoAABACIAqBSAAACCAAgIAAIiAEGiMgdJjaEMRqiMCIl4BEOqQfK7PyOoAABAAAAQABAAAIAAACAAAAAAAAAAA==

> <PUBCHEM_IUPAC_OPENEYE_NAME>
(2S,3R,3aR,7S,7aS)-7-allyl-2-(1,3-benzodioxol-5-yl)-3a,4-dimethoxy-3-methyl-2,3,7,7a-tetrahydrobenzofuran-6-one

> <PUBCHEM_IUPAC_CAS_NAME>
(2S,3R,3aR,7S,7aS)-2-(1,3-benzodioxol-5-yl)-3a,4-dimethoxy-3-methyl-7-prop-2-enyl-2,3,7,7a-tetrahydrobenzofuran-6-one

> <PUBCHEM_IUPAC_NAME>
(2S,3R,3aR,7S,7aS)-2-(1,3-benzodioxol-5-yl)-3a,4-dimethoxy-3-methyl-7-prop-2-enyl-2,3,7,7a-tetrahydro-1-benzofuran-6-one

> <PUBCHEM_IUPAC_SYSTEMATIC_NAME>
(2S,3R,3aR,7S,7aS)-2-(1,3-benzodioxol-5-yl)-3a,4-dimethoxy-3-methyl-7-prop-2-enyl-2,3,7,7a-tetrahydro-1-benzofuran-6-one

> <PUBCHEM_IUPAC_TRADITIONAL_NAME>
(2S,3R,3aR,7S,7aS)-7-allyl-2-(1,3-benzodioxol-5-yl)-3a,4-dimethoxy-3-methyl-2,3,7,7a-tetrahydrobenzofuran-6-one

> <PUBCHEM_IUPAC_INCHI>
InChI=1S/C21H24O6/c1-5-6-14-15(22)10-18(23-3)21(24-4)12(2)19(27-20(14)21)13-7-8-16-17(9-13)26-11-25-16/h5,7-10,12,14,19-20H,1,6,11H2,2-4H3/t12-,14-,19+,20+,21+/m1/s1

> <PUBCHEM_IUPAC_INCHIKEY>
COELSLLVNMRXHB-KYIFXELVSA-N

> <PUBCHEM_XLOGP3_AA>
2.4

> <PUBCHEM_EXACT_MASS>
372.157288

> <PUBCHEM_MOLECULAR_FORMULA>
C21H24O6

> <PUBCHEM_MOLECULAR_WEIGHT>
372.41166

> <PUBCHEM_OPENEYE_CAN_SMILES>
CC1C(OC2C1(C(=CC(=O)C2CC=C)OC)OC)C3=CC4=C(C=C3)OCO4

> <PUBCHEM_OPENEYE_ISO_SMILES>
C[C@@H]1[C@H](O[C@@H]2[C@]1(C(=CC(=O)[C@H]2CC=C)OC)OC)C3=CC4=C(C=C3)OCO4

> <PUBCHEM_CACTVS_TPSA>
63.2

> <PUBCHEM_MONOISOTOPIC_WEIGHT>
372.157288

> <PUBCHEM_TOTAL_CHARGE>
0

> <PUBCHEM_HEAVY_ATOM_COUNT>
27

> <PUBCHEM_ATOM_DEF_STEREO_COUNT>
5

> <PUBCHEM_ATOM_UDEF_STEREO_COUNT>
0

> <PUBCHEM_BOND_DEF_STEREO_COUNT>
0

> <PUBCHEM_BOND_UDEF_STEREO_COUNT>
0

> <PUBCHEM_ISOTOPIC_ATOM_COUNT>
0

> <PUBCHEM_COMPONENT_COUNT>
1

> <PUBCHEM_CACTVS_TAUTO_COUNT>
2

> <PUBCHEM_COORDINATE_TYPE>
1
5
255

> <PUBCHEM_BONDANNOTATIONS>
10  15  5
11  16  6
15  19  8
15  20  8
19  22  8
7  2  6
20  23  8
22  25  8
23  25  8
8  28  6
9  13  6

$$$$

