5280538
  -OEChem-07051212472D

 83 83  0     1  0  0  0  0  0999 V2000
   14.1244   -3.5950    0.0000 S   0  0  0  0  0  0  0  0  0  0  0  0
   11.5263   -5.0950    0.0000 O   0  0  0  0  0  0  0  0  0  0  0  0
    9.7942   -5.0950    0.0000 O   0  0  0  0  0  0  0  0  0  0  0  0
   13.2583   -7.0950    0.0000 O   0  0  0  0  0  0  0  0  0  0  0  0
   11.5263   -8.0950    0.0000 O   0  0  0  0  0  0  0  0  0  0  0  0
    9.7942   -7.0950    0.0000 O   0  0  0  0  0  0  0  0  0  0  0  0
   13.2583   -4.0950    0.0000 O   0  0  0  0  0  0  0  0  0  0  0  0
    9.7942   -2.0950    0.0000 O   0  0  0  0  0  0  0  0  0  0  0  0
   14.9904   -3.0950    0.0000 O   0  0  0  0  0  0  0  0  0  0  0  0
   13.6244   -2.7290    0.0000 O   0  0  0  0  0  0  0  0  0  0  0  0
   14.6244   -4.4610    0.0000 O   0  0  0  0  0  0  0  0  0  0  0  0
    8.0622   -4.0950    0.0000 N   0  0  0  0  0  0  0  0  0  0  0  0
   12.3923   -6.5950    0.0000 C   0  0  2  0  0  0  0  0  0  0  0  0
   11.5263   -7.0950    0.0000 C   0  0  1  0  0  0  0  0  0  0  0  0
   12.3923   -5.5950    0.0000 C   0  0  1  0  0  0  0  0  0  0  0  0
   10.6603   -6.5950    0.0000 C   0  0  2  0  0  0  0  0  0  0  0  0
   10.6603   -5.5950    0.0000 C   0  0  1  0  0  0  0  0  0  0  0  0
   13.2583   -5.0950    0.0000 C   0  0  0  0  0  0  0  0  0  0  0  0
    9.7942   -4.0950    0.0000 C   0  0  0  0  0  0  0  0  0  0  0  0
    8.9282   -3.5950    0.0000 C   0  0  1  0  0  0  0  0  0  0  0  0
    8.9282   -2.5950    0.0000 C   0  0  1  0  0  0  0  0  0  0  0  0
    5.4641    3.4050    0.0000 C   0  0  0  0  0  0  0  0  0  0  0  0
    5.4641    2.4050    0.0000 C   0  0  0  0  0  0  0  0  0  0  0  0
    4.5981    3.9050    0.0000 C   0  0  0  0  0  0  0  0  0  0  0  0
    6.3301    1.9050    0.0000 C   0  0  0  0  0  0  0  0  0  0  0  0
    4.5981    4.9050    0.0000 C   0  0  0  0  0  0  0  0  0  0  0  0
    6.3301    0.9050    0.0000 C   0  0  0  0  0  0  0  0  0  0  0  0
    3.7320    5.4050    0.0000 C   0  0  0  0  0  0  0  0  0  0  0  0
    7.1962    0.4050    0.0000 C   0  0  0  0  0  0  0  0  0  0  0  0
    3.7320    6.4050    0.0000 C   0  0  0  0  0  0  0  0  0  0  0  0
    7.1962   -0.5950    0.0000 C   0  0  0  0  0  0  0  0  0  0  0  0
    8.0622   -2.0950    0.0000 C   0  0  0  0  0  0  0  0  0  0  0  0
    2.8660    6.9050    0.0000 C   0  0  0  0  0  0  0  0  0  0  0  0
    8.0622   -1.0950    0.0000 C   0  0  0  0  0  0  0  0  0  0  0  0
    2.8660    7.9050    0.0000 C   0  0  0  0  0  0  0  0  0  0  0  0
    2.0000    8.4050    0.0000 C   0  0  0  0  0  0  0  0  0  0  0  0
   12.3923   -7.2150    0.0000 H   0  0  0  0  0  0  0  0  0  0  0  0
   12.0632   -7.4050    0.0000 H   0  0  0  0  0  0  0  0  0  0  0  0
   12.3923   -4.9750    0.0000 H   0  0  0  0  0  0  0  0  0  0  0  0
   10.6603   -7.2150    0.0000 H   0  0  0  0  0  0  0  0  0  0  0  0
   10.6603   -4.9750    0.0000 H   0  0  0  0  0  0  0  0  0  0  0  0
   13.4704   -5.6776    0.0000 H   0  0  0  0  0  0  0  0  0  0  0  0
   13.8689   -4.9873    0.0000 H   0  0  0  0  0  0  0  0  0  0  0  0
   10.4048   -4.2027    0.0000 H   0  0  0  0  0  0  0  0  0  0  0  0
   10.0063   -3.5124    0.0000 H   0  0  0  0  0  0  0  0  0  0  0  0
   13.7953   -6.7850    0.0000 H   0  0  0  0  0  0  0  0  0  0  0  0
   10.9893   -8.4050    0.0000 H   0  0  0  0  0  0  0  0  0  0  0  0
    8.9282   -4.2150    0.0000 H   0  0  0  0  0  0  0  0  0  0  0  0
    9.2573   -6.7850    0.0000 H   0  0  0  0  0  0  0  0  0  0  0  0
    9.4651   -2.9050    0.0000 H   0  0  0  0  0  0  0  0  0  0  0  0
    6.0747    3.2973    0.0000 H   0  0  0  0  0  0  0  0  0  0  0  0
    5.6762    3.9876    0.0000 H   0  0  0  0  0  0  0  0  0  0  0  0
    4.8535    2.5127    0.0000 H   0  0  0  0  0  0  0  0  0  0  0  0
    5.2520    1.8224    0.0000 H   0  0  0  0  0  0  0  0  0  0  0  0
    3.9875    4.0127    0.0000 H   0  0  0  0  0  0  0  0  0  0  0  0
    4.3860    3.3224    0.0000 H   0  0  0  0  0  0  0  0  0  0  0  0
    6.9407    1.7973    0.0000 H   0  0  0  0  0  0  0  0  0  0  0  0
    6.5422    2.4876    0.0000 H   0  0  0  0  0  0  0  0  0  0  0  0
    5.2087    4.7973    0.0000 H   0  0  0  0  0  0  0  0  0  0  0  0
    4.8101    5.4876    0.0000 H   0  0  0  0  0  0  0  0  0  0  0  0
    5.7196    1.0127    0.0000 H   0  0  0  0  0  0  0  0  0  0  0  0
    6.1181    0.3224    0.0000 H   0  0  0  0  0  0  0  0  0  0  0  0
    3.1215    5.5127    0.0000 H   0  0  0  0  0  0  0  0  0  0  0  0
    3.5200    4.8224    0.0000 H   0  0  0  0  0  0  0  0  0  0  0  0
    7.8067    0.2973    0.0000 H   0  0  0  0  0  0  0  0  0  0  0  0
    7.4082    0.9876    0.0000 H   0  0  0  0  0  0  0  0  0  0  0  0
    4.3426    6.2973    0.0000 H   0  0  0  0  0  0  0  0  0  0  0  0
    3.9441    6.9876    0.0000 H   0  0  0  0  0  0  0  0  0  0  0  0
    6.5856   -0.4873    0.0000 H   0  0  0  0  0  0  0  0  0  0  0  0
    6.9841   -1.1776    0.0000 H   0  0  0  0  0  0  0  0  0  0  0  0
    7.5252   -2.4050    0.0000 H   0  0  0  0  0  0  0  0  0  0  0  0
    7.5252   -3.7850    0.0000 H   0  0  0  0  0  0  0  0  0  0  0  0
    8.0622   -4.7150    0.0000 H   0  0  0  0  0  0  0  0  0  0  0  0
    2.2554    7.0127    0.0000 H   0  0  0  0  0  0  0  0  0  0  0  0
    2.6540    6.3224    0.0000 H   0  0  0  0  0  0  0  0  0  0  0  0
    8.5991   -0.7850    0.0000 H   0  0  0  0  0  0  0  0  0  0  0  0
    3.4766    7.7973    0.0000 H   0  0  0  0  0  0  0  0  0  0  0  0
    3.0781    8.4876    0.0000 H   0  0  0  0  0  0  0  0  0  0  0  0
    9.7942   -1.4750    0.0000 H   0  0  0  0  0  0  0  0  0  0  0  0
    2.3100    8.9419    0.0000 H   0  0  0  0  0  0  0  0  0  0  0  0
    1.4631    8.7150    0.0000 H   0  0  0  0  0  0  0  0  0  0  0  0
    1.6900    7.8681    0.0000 H   0  0  0  0  0  0  0  0  0  0  0  0
   14.9904   -2.4750    0.0000 H   0  0  0  0  0  0  0  0  0  0  0  0
  1  7  1  0  0  0  0
  1  9  1  0  0  0  0
  1 10  2  0  0  0  0
  1 11  2  0  0  0  0
  2 15  1  0  0  0  0
  2 17  1  0  0  0  0
 17  3  1  6  0  0  0
  3 19  1  0  0  0  0
 13  4  1  6  0  0  0
  4 46  1  0  0  0  0
 14  5  1  6  0  0  0
  5 47  1  0  0  0  0
 16  6  1  1  0  0  0
  6 49  1  0  0  0  0
  7 18  1  0  0  0  0
 21  8  1  1  0  0  0
  8 79  1  0  0  0  0
  9 83  1  0  0  0  0
 20 12  1  6  0  0  0
 12 72  1  0  0  0  0
 12 73  1  0  0  0  0
 13 14  1  0  0  0  0
 13 15  1  0  0  0  0
 13 37  1  0  0  0  0
 14 16  1  0  0  0  0
 14 38  1  0  0  0  0
 15 18  1  6  0  0  0
 15 39  1  0  0  0  0
 16 17  1  0  0  0  0
 16 40  1  0  0  0  0
 17 41  1  0  0  0  0
 18 42  1  0  0  0  0
 18 43  1  0  0  0  0
 19 20  1  0  0  0  0
 19 44  1  0  0  0  0
 19 45  1  0  0  0  0
 20 21  1  0  0  0  0
 20 48  1  0  0  0  0
 21 32  1  0  0  0  0
 21 50  1  0  0  0  0
 22 23  1  0  0  0  0
 22 24  1  0  0  0  0
 22 51  1  0  0  0  0
 22 52  1  0  0  0  0
 23 25  1  0  0  0  0
 23 53  1  0  0  0  0
 23 54  1  0  0  0  0
 24 26  1  0  0  0  0
 24 55  1  0  0  0  0
 24 56  1  0  0  0  0
 25 27  1  0  0  0  0
 25 57  1  0  0  0  0
 25 58  1  0  0  0  0
 26 28  1  0  0  0  0
 26 59  1  0  0  0  0
 26 60  1  0  0  0  0
 27 29  1  0  0  0  0
 27 61  1  0  0  0  0
 27 62  1  0  0  0  0
 28 30  1  0  0  0  0
 28 63  1  0  0  0  0
 28 64  1  0  0  0  0
 29 31  1  0  0  0  0
 29 65  1  0  0  0  0
 29 66  1  0  0  0  0
 30 33  1  0  0  0  0
 30 67  1  0  0  0  0
 30 68  1  0  0  0  0
 31 34  1  0  0  0  0
 31 69  1  0  0  0  0
 31 70  1  0  0  0  0
 32 34  2  0  0  0  0
 32 71  1  0  0  0  0
 33 35  1  0  0  0  0
 33 74  1  0  0  0  0
 33 75  1  0  0  0  0
 34 76  1  0  0  0  0
 35 36  1  0  0  0  0
 35 77  1  0  0  0  0
 35 78  1  0  0  0  0
 36 80  1  0  0  0  0
 36 81  1  0  0  0  0
 36 82  1  0  0  0  0
M  END
> <PUBCHEM_COMPOUND_CID>
5280538

> <PUBCHEM_COMPOUND_CANONICALIZED>
1

> <PUBCHEM_CACTVS_COMPLEXITY>
687

> <PUBCHEM_CACTVS_HBOND_ACCEPTOR>
11

> <PUBCHEM_CACTVS_HBOND_DONOR>
6

> <PUBCHEM_CACTVS_ROTATABLE_BOND>
20

> <PUBCHEM_CACTVS_SUBSKEYS>
AAADcfB6PABAAAAAAAAAAAAAAAAAAAAAAAAkAAAAAAAAAAAAAAAAHgAQCAAACDzxgAcCCABABoCAACBCADAAAAAgAAAICIAAAAgTFAIAAQAjUAAFkAAPEAPA4IwAAAAAAAAAAAAAAAAAAAAAAAAAAAAAAA==

> <PUBCHEM_IUPAC_OPENEYE_NAME>
[(2R,3R,4S,5R,6R)-6-[(E,2S,3R)-2-amino-3-hydroxy-octadec-4-enoxy]-3,4,5-trihydroxy-tetrahydropyran-2-yl]methyl hydrogen sulfate

> <PUBCHEM_IUPAC_CAS_NAME>
sulfuric acid [(2R,3R,4S,5R,6R)-6-[(E,2S,3R)-2-amino-3-hydroxyoctadec-4-enoxy]-3,4,5-trihydroxy-2-oxanyl]methyl ester

> <PUBCHEM_IUPAC_NAME>
[(2R,3R,4S,5R,6R)-6-[(E,2S,3R)-2-amino-3-hydroxyoctadec-4-enoxy]-3,4,5-trihydroxyoxan-2-yl]methyl hydrogen sulfate

> <PUBCHEM_IUPAC_SYSTEMATIC_NAME>
[(2R,3R,4S,5R,6R)-6-[(E,2S,3R)-2-azanyl-3-oxidanyl-octadec-4-enoxy]-3,4,5-tris(oxidanyl)oxan-2-yl]methyl hydrogen sulfate

> <PUBCHEM_IUPAC_TRADITIONAL_NAME>
sulfuric acid [(2R,3R,4S,5R,6R)-6-[(E,2S,3R)-2-amino-3-hydroxy-octadec-4-enoxy]-3,4,5-trihydroxy-tetrahydropyran-2-yl]methyl ester

> <PUBCHEM_IUPAC_INCHI>
InChI=1S/C24H47NO10S/c1-2-3-4-5-6-7-8-9-10-11-12-13-14-15-19(26)18(25)16-33-24-23(29)22(28)21(27)20(35-24)17-34-36(30,31)32/h14-15,18-24,26-29H,2-13,16-17,25H2,1H3,(H,30,31,32)/b15-14+/t18-,19+,20+,21-,22-,23+,24+/m0/s1

> <PUBCHEM_IUPAC_INCHIKEY>
UIEYIJKBVSNMMH-PIIMIWFASA-N

> <PUBCHEM_XLOGP3_AA>
0.5

> <PUBCHEM_EXACT_MASS>
541.292068

> <PUBCHEM_MOLECULAR_FORMULA>
C24H47NO10S

> <PUBCHEM_MOLECULAR_WEIGHT>
541.69568

> <PUBCHEM_OPENEYE_CAN_SMILES>
CCCCCCCCCCCCCC=CC(C(COC1C(C(C(C(O1)COS(=O)(=O)O)O)O)O)N)O

> <PUBCHEM_OPENEYE_ISO_SMILES>
CCCCCCCCCCCCC/C=C/[C@H]([C@H](CO[C@H]1[C@@H]([C@H]([C@H]([C@H](O1)COS(=O)(=O)O)O)O)O)N)O

> <PUBCHEM_CACTVS_TPSA>
197

> <PUBCHEM_MONOISOTOPIC_WEIGHT>
541.292068

> <PUBCHEM_TOTAL_CHARGE>
0

> <PUBCHEM_HEAVY_ATOM_COUNT>
36

> <PUBCHEM_ATOM_DEF_STEREO_COUNT>
7

> <PUBCHEM_ATOM_UDEF_STEREO_COUNT>
0

> <PUBCHEM_BOND_DEF_STEREO_COUNT>
1

> <PUBCHEM_BOND_UDEF_STEREO_COUNT>
0

> <PUBCHEM_ISOTOPIC_ATOM_COUNT>
0

> <PUBCHEM_COMPONENT_COUNT>
1

> <PUBCHEM_CACTVS_TAUTO_COUNT>
1

> <PUBCHEM_COORDINATE_TYPE>
1
5
255

> <PUBCHEM_BONDANNOTATIONS>
20  12  6
15  18  6
17  3  6
13  4  6
14  5  6
16  6  5
21  8  5

$$$$

