17396362
  -OEChem-06241222562D

 32 34  0     0  0  0  0  0  0999 V2000
   11.4429   -0.5415    0.0000 Cl  0  0  0  0  0  0  0  0  0  0  0  0
    7.9128    1.4827    0.0000 O   0  0  0  0  0  0  0  0  0  0  0  0
    2.6691   -0.4241    0.0000 O   0  0  0  0  0  0  0  0  0  0  0  0
    6.1808   -1.5173    0.0000 O   0  0  0  0  0  0  0  0  0  0  0  0
    5.3147   -0.0173    0.0000 N   0  0  0  0  0  0  0  0  0  0  0  0
    7.0468   -0.0173    0.0000 C   0  0  0  0  0  0  0  0  0  0  0  0
    8.7788   -0.0173    0.0000 C   0  0  0  0  0  0  0  0  0  0  0  0
    7.0468    0.9827    0.0000 C   0  0  0  0  0  0  0  0  0  0  0  0
    8.7788    0.9827    0.0000 C   0  0  0  0  0  0  0  0  0  0  0  0
    7.9128   -0.5173    0.0000 C   0  0  0  0  0  0  0  0  0  0  0  0
    6.1808   -0.5173    0.0000 C   0  0  0  0  0  0  0  0  0  0  0  0
    4.4487   -0.5173    0.0000 C   0  0  0  0  0  0  0  0  0  0  0  0
    9.6728   -0.5520    0.0000 C   0  0  0  0  0  0  0  0  0  0  0  0
    9.6728    1.5173    0.0000 C   0  0  0  0  0  0  0  0  0  0  0  0
    3.5827   -0.0173    0.0000 C   0  0  0  0  0  0  0  0  0  0  0  0
   10.5788   -0.0381    0.0000 C   0  0  0  0  0  0  0  0  0  0  0  0
   10.5788    1.0035    0.0000 C   0  0  0  0  0  0  0  0  0  0  0  0
    3.4782    0.9772    0.0000 C   0  0  0  0  0  0  0  0  0  0  0  0
    2.5000    1.1851    0.0000 C   0  0  0  0  0  0  0  0  0  0  0  0
    2.0000    0.3191    0.0000 C   0  0  0  0  0  0  0  0  0  0  0  0
    6.8347    1.5653    0.0000 H   0  0  0  0  0  0  0  0  0  0  0  0
    6.4362    0.8750    0.0000 H   0  0  0  0  0  0  0  0  0  0  0  0
    7.9128   -1.1373    0.0000 H   0  0  0  0  0  0  0  0  0  0  0  0
    4.0502   -0.9923    0.0000 H   0  0  0  0  0  0  0  0  0  0  0  0
    4.8472   -0.9923    0.0000 H   0  0  0  0  0  0  0  0  0  0  0  0
    5.3147    0.6027    0.0000 H   0  0  0  0  0  0  0  0  0  0  0  0
    9.6656   -1.1720    0.0000 H   0  0  0  0  0  0  0  0  0  0  0  0
    9.6656    2.1373    0.0000 H   0  0  0  0  0  0  0  0  0  0  0  0
   11.1146    1.3156    0.0000 H   0  0  0  0  0  0  0  0  0  0  0  0
    3.9389    1.3920    0.0000 H   0  0  0  0  0  0  0  0  0  0  0  0
    2.2478    1.7515    0.0000 H   0  0  0  0  0  0  0  0  0  0  0  0
    1.3834    0.2543    0.0000 H   0  0  0  0  0  0  0  0  0  0  0  0
  1 16  1  0  0  0  0
  2  8  1  0  0  0  0
  2  9  1  0  0  0  0
  3 15  1  0  0  0  0
  3 20  1  0  0  0  0
  4 11  2  0  0  0  0
  5 11  1  0  0  0  0
  5 12  1  0  0  0  0
  5 26  1  0  0  0  0
  6  8  1  0  0  0  0
  6 10  2  0  0  0  0
  6 11  1  0  0  0  0
  7  9  2  0  0  0  0
  7 10  1  0  0  0  0
  7 13  1  0  0  0  0
  8 21  1  0  0  0  0
  8 22  1  0  0  0  0
  9 14  1  0  0  0  0
 10 23  1  0  0  0  0
 12 15  1  0  0  0  0
 12 24  1  0  0  0  0
 12 25  1  0  0  0  0
 13 16  2  0  0  0  0
 13 27  1  0  0  0  0
 14 17  2  0  0  0  0
 14 28  1  0  0  0  0
 15 18  2  0  0  0  0
 16 17  1  0  0  0  0
 17 29  1  0  0  0  0
 18 19  1  0  0  0  0
 18 30  1  0  0  0  0
 19 20  2  0  0  0  0
 19 31  1  0  0  0  0
 20 32  1  0  0  0  0
M  END
> <PUBCHEM_COMPOUND_CID>
17396362

> <PUBCHEM_COMPOUND_CANONICALIZED>
1

> <PUBCHEM_CACTVS_COMPLEXITY>
399

> <PUBCHEM_CACTVS_HBOND_ACCEPTOR>
3

> <PUBCHEM_CACTVS_HBOND_DONOR>
1

> <PUBCHEM_CACTVS_ROTATABLE_BOND>
3

> <PUBCHEM_CACTVS_SUBSKEYS>
AAADccByMAAEAAAAAAAAAAAAAAAAASAAAAAwQAAAAAAAAACBwAAAHgIQAAAADAbhmCYwBoLABECIAqlSkACCCAAkJQAIiIGODsgOJjaFtzuHOSjm5hGYqYeY0SIOACAAIAAIAAAAQABAABAAAAAAAAAAAA==

> <PUBCHEM_IUPAC_OPENEYE_NAME>
6-chloro-N-(2-furylmethyl)-2H-chromene-3-carboxamide

> <PUBCHEM_IUPAC_CAS_NAME>
6-chloro-N-(2-furanylmethyl)-2H-1-benzopyran-3-carboxamide

> <PUBCHEM_IUPAC_NAME>
6-chloro-N-(furan-2-ylmethyl)-2H-chromene-3-carboxamide

> <PUBCHEM_IUPAC_SYSTEMATIC_NAME>
6-chloranyl-N-(furan-2-ylmethyl)-2H-chromene-3-carboxamide

> <PUBCHEM_IUPAC_TRADITIONAL_NAME>
6-chloro-N-(2-furfuryl)-2H-chromene-3-carboxamide

> <PUBCHEM_IUPAC_INCHI>
InChI=1S/C15H12ClNO3/c16-12-3-4-14-10(7-12)6-11(9-20-14)15(18)17-8-13-2-1-5-19-13/h1-7H,8-9H2,(H,17,18)

> <PUBCHEM_IUPAC_INCHIKEY>
NXQPEGVCZYJECL-UHFFFAOYSA-N

> <PUBCHEM_XLOGP3_AA>
2.5

> <PUBCHEM_EXACT_MASS>
289.050571

> <PUBCHEM_MOLECULAR_FORMULA>
C15H12ClNO3

> <PUBCHEM_MOLECULAR_WEIGHT>
289.71368

> <PUBCHEM_OPENEYE_CAN_SMILES>
C1C(=CC2=C(O1)C=CC(=C2)Cl)C(=O)NCC3=CC=CO3

> <PUBCHEM_OPENEYE_ISO_SMILES>
C1C(=CC2=C(O1)C=CC(=C2)Cl)C(=O)NCC3=CC=CO3

> <PUBCHEM_CACTVS_TPSA>
51.5

> <PUBCHEM_MONOISOTOPIC_WEIGHT>
289.050571

> <PUBCHEM_TOTAL_CHARGE>
0

> <PUBCHEM_HEAVY_ATOM_COUNT>
20

> <PUBCHEM_ATOM_DEF_STEREO_COUNT>
0

> <PUBCHEM_ATOM_UDEF_STEREO_COUNT>
0

> <PUBCHEM_BOND_DEF_STEREO_COUNT>
0

> <PUBCHEM_BOND_UDEF_STEREO_COUNT>
0

> <PUBCHEM_ISOTOPIC_ATOM_COUNT>
0

> <PUBCHEM_COMPONENT_COUNT>
1

> <PUBCHEM_CACTVS_TAUTO_COUNT>
2

> <PUBCHEM_COORDINATE_TYPE>
1
5
255

> <PUBCHEM_BONDANNOTATIONS>
13  16  8
14  17  8
15  18  8
16  17  8
18  19  8
19  20  8
3  15  8
3  20  8
7  13  8
7  9  8
9  14  8

$$$$

