443110
  -OEChem-07051213012D

 66 66  0     1  0  0  0  0  0999 V2000
    5.4641   -0.2500    0.0000 O   0  0  0  0  0  0  0  0  0  0  0  0
    6.3301    0.2500    0.0000 O   0  0  0  0  0  0  0  0  0  0  0  0
    5.4641   -1.2500    0.0000 O   0  0  0  0  0  0  0  0  0  0  0  0
    4.5981   -2.7500    0.0000 O   0  0  0  0  0  0  0  0  0  0  0  0
    9.7942    1.2500    0.0000 O   0  0  0  0  0  0  0  0  0  0  0  0
    5.4641    1.7500    0.0000 N   0  0  0  0  0  0  0  0  0  0  0  0
    3.7320   -0.2500    0.0000 N   0  0  0  0  0  0  0  0  0  0  0  0
    8.0622    1.2500    0.0000 N   0  0  0  0  0  0  0  0  0  0  0  0
    4.5981    1.2500    0.0000 C   0  0  3  0  0  0  0  0  0  0  0  0
    3.7320    1.7500    0.0000 C   0  0  0  0  0  0  0  0  0  0  0  0
    3.7320    2.7500    0.0000 C   0  0  0  0  0  0  0  0  0  0  0  0
    7.1962    1.7500    0.0000 C   0  0  3  0  0  0  0  0  0  0  0  0
    4.5981    0.2500    0.0000 C   0  0  0  0  0  0  0  0  0  0  0  0
    7.1962    2.7500    0.0000 C   0  0  0  0  0  0  0  0  0  0  0  0
    6.3301    1.2500    0.0000 C   0  0  0  0  0  0  0  0  0  0  0  0
    2.8660    3.2500    0.0000 C   0  0  0  0  0  0  0  0  0  0  0  0
    4.5981    3.2500    0.0000 C   0  0  0  0  0  0  0  0  0  0  0  0
    8.0622    3.2500    0.0000 C   0  0  0  0  0  0  0  0  0  0  0  0
    3.7320   -1.2500    0.0000 C   0  0  3  0  0  0  0  0  0  0  0  0
    2.8660   -1.7500    0.0000 C   0  0  0  0  0  0  0  0  0  0  0  0
    8.0622    4.2500    0.0000 C   0  0  0  0  0  0  0  0  0  0  0  0
    2.8660   -2.7500    0.0000 C   0  0  0  0  0  0  0  0  0  0  0  0
    4.5981   -1.7500    0.0000 C   0  0  0  0  0  0  0  0  0  0  0  0
    8.9282    4.7500    0.0000 C   0  0  0  0  0  0  0  0  0  0  0  0
    8.9282    1.7500    0.0000 C   0  0  0  0  0  0  0  0  0  0  0  0
    2.0000   -3.2500    0.0000 C   0  0  0  0  0  0  0  0  0  0  0  0
    3.7320   -3.2500    0.0000 C   0  0  0  0  0  0  0  0  0  0  0  0
    2.0000   -4.2500    0.0000 C   0  0  0  0  0  0  0  0  0  0  0  0
    3.7320   -4.2500    0.0000 C   0  0  0  0  0  0  0  0  0  0  0  0
    2.8660   -4.7500    0.0000 C   0  0  0  0  0  0  0  0  0  0  0  0
    6.3301   -1.7500    0.0000 C   0  0  0  0  0  0  0  0  0  0  0  0
    4.5981    2.1000    0.0000 H   0  0  0  0  0  0  0  0  0  0  0  0
    3.1215    1.8577    0.0000 H   0  0  0  0  0  0  0  0  0  0  0  0
    3.5200    1.1674    0.0000 H   0  0  0  0  0  0  0  0  0  0  0  0
    3.7320    3.3700    0.0000 H   0  0  0  0  0  0  0  0  0  0  0  0
    7.9323    2.1750    0.0000 H   0  0  0  0  0  0  0  0  0  0  0  0
    5.4641    2.3700    0.0000 H   0  0  0  0  0  0  0  0  0  0  0  0
    6.9841    3.3326    0.0000 H   0  0  0  0  0  0  0  0  0  0  0  0
    6.5856    2.6423    0.0000 H   0  0  0  0  0  0  0  0  0  0  0  0
    3.1760    3.7869    0.0000 H   0  0  0  0  0  0  0  0  0  0  0  0
    2.3291    3.5600    0.0000 H   0  0  0  0  0  0  0  0  0  0  0  0
    2.5560    2.7131    0.0000 H   0  0  0  0  0  0  0  0  0  0  0  0
    4.9081    2.7131    0.0000 H   0  0  0  0  0  0  0  0  0  0  0  0
    5.1350    3.5600    0.0000 H   0  0  0  0  0  0  0  0  0  0  0  0
    4.2881    3.7869    0.0000 H   0  0  0  0  0  0  0  0  0  0  0  0
    8.2742    2.6674    0.0000 H   0  0  0  0  0  0  0  0  0  0  0  0
    8.6728    3.3577    0.0000 H   0  0  0  0  0  0  0  0  0  0  0  0
    4.4682   -0.8250    0.0000 H   0  0  0  0  0  0  0  0  0  0  0  0
    3.1951    0.0600    0.0000 H   0  0  0  0  0  0  0  0  0  0  0  0
    2.6540   -1.1674    0.0000 H   0  0  0  0  0  0  0  0  0  0  0  0
    2.2554   -1.8577    0.0000 H   0  0  0  0  0  0  0  0  0  0  0  0
    7.8501    4.8326    0.0000 H   0  0  0  0  0  0  0  0  0  0  0  0
    7.4516    4.1423    0.0000 H   0  0  0  0  0  0  0  0  0  0  0  0
    8.0622    0.6300    0.0000 H   0  0  0  0  0  0  0  0  0  0  0  0
    9.2382    4.2131    0.0000 H   0  0  0  0  0  0  0  0  0  0  0  0
    9.4651    5.0600    0.0000 H   0  0  0  0  0  0  0  0  0  0  0  0
    8.6182    5.2869    0.0000 H   0  0  0  0  0  0  0  0  0  0  0  0
    8.9282    2.3700    0.0000 H   0  0  0  0  0  0  0  0  0  0  0  0
    1.4631   -2.9400    0.0000 H   0  0  0  0  0  0  0  0  0  0  0  0
    4.2690   -2.9400    0.0000 H   0  0  0  0  0  0  0  0  0  0  0  0
    1.4631   -4.5600    0.0000 H   0  0  0  0  0  0  0  0  0  0  0  0
    4.2690   -4.5600    0.0000 H   0  0  0  0  0  0  0  0  0  0  0  0
    2.8660   -5.3700    0.0000 H   0  0  0  0  0  0  0  0  0  0  0  0
    6.0201   -2.2869    0.0000 H   0  0  0  0  0  0  0  0  0  0  0  0
    6.8671   -2.0600    0.0000 H   0  0  0  0  0  0  0  0  0  0  0  0
    6.6401   -1.2131    0.0000 H   0  0  0  0  0  0  0  0  0  0  0  0
  1 13  2  0  0  0  0
  2 15  2  0  0  0  0
  3 23  1  0  0  0  0
  3 31  1  0  0  0  0
  4 23  2  0  0  0  0
  5 25  2  0  0  0  0
  6  9  1  0  0  0  0
  6 15  1  0  0  0  0
  6 37  1  0  0  0  0
  7 13  1  0  0  0  0
  7 19  1  0  0  0  0
  7 49  1  0  0  0  0
  8 12  1  0  0  0  0
  8 25  1  0  0  0  0
  8 54  1  0  0  0  0
  9 10  1  0  0  0  0
  9 13  1  0  0  0  0
  9 32  1  0  0  0  0
 10 11  1  0  0  0  0
 10 33  1  0  0  0  0
 10 34  1  0  0  0  0
 11 16  1  0  0  0  0
 11 17  1  0  0  0  0
 11 35  1  0  0  0  0
 12 14  1  0  0  0  0
 12 15  1  0  0  0  0
 12 36  1  0  0  0  0
 14 18  1  0  0  0  0
 14 38  1  0  0  0  0
 14 39  1  0  0  0  0
 16 40  1  0  0  0  0
 16 41  1  0  0  0  0
 16 42  1  0  0  0  0
 17 43  1  0  0  0  0
 17 44  1  0  0  0  0
 17 45  1  0  0  0  0
 18 21  1  0  0  0  0
 18 46  1  0  0  0  0
 18 47  1  0  0  0  0
 19 20  1  0  0  0  0
 19 23  1  0  0  0  0
 19 48  1  0  0  0  0
 20 22  1  0  0  0  0
 20 50  1  0  0  0  0
 20 51  1  0  0  0  0
 21 24  1  0  0  0  0
 21 52  1  0  0  0  0
 21 53  1  0  0  0  0
 22 26  2  0  0  0  0
 22 27  1  0  0  0  0
 24 55  1  0  0  0  0
 24 56  1  0  0  0  0
 24 57  1  0  0  0  0
 25 58  1  0  0  0  0
 26 28  1  0  0  0  0
 26 59  1  0  0  0  0
 27 29  2  0  0  0  0
 27 60  1  0  0  0  0
 28 30  2  0  0  0  0
 28 61  1  0  0  0  0
 29 30  1  0  0  0  0
 29 62  1  0  0  0  0
 30 63  1  0  0  0  0
 31 64  1  0  0  0  0
 31 65  1  0  0  0  0
 31 66  1  0  0  0  0
M  END
> <PUBCHEM_COMPOUND_CID>
443110

> <PUBCHEM_COMPOUND_CANONICALIZED>
1

> <PUBCHEM_CACTVS_COMPLEXITY>
576

> <PUBCHEM_CACTVS_HBOND_ACCEPTOR>
5

> <PUBCHEM_CACTVS_HBOND_DONOR>
3

> <PUBCHEM_CACTVS_ROTATABLE_BOND>
14

> <PUBCHEM_CACTVS_SUBSKEYS>
AAADcfB7OAAAAAAAAAAAAAAAAAAAAAAAAAAwAAAAAAAAAAABAAAAHgAQAAAADSjBmAYyCILABACIAiHSmAACAAAgAAAIiIGIAIgKYDKAkTGVIAAklgCYiAeYyKCOAAAAAAAAAAAAAAAAAAAAAAAAAAAAAA==

> <PUBCHEM_IUPAC_OPENEYE_NAME>
methyl 2-[[2-(2-formamidohexanoylamino)-4-methyl-pentanoyl]amino]-3-phenyl-propanoate

> <PUBCHEM_IUPAC_CAS_NAME>
2-[[2-[(2-formamido-1-oxohexyl)amino]-4-methyl-1-oxopentyl]amino]-3-phenylpropanoic acid methyl ester

> <PUBCHEM_IUPAC_NAME>
methyl 2-[[2-(2-formamidohexanoylamino)-4-methylpentanoyl]amino]-3-phenylpropanoate

> <PUBCHEM_IUPAC_SYSTEMATIC_NAME>
methyl 2-[[2-(2-formamidohexanoylamino)-4-methyl-pentanoyl]amino]-3-phenyl-propanoate

> <PUBCHEM_IUPAC_TRADITIONAL_NAME>
2-[[2-(2-formamidohexanoylamino)-4-methyl-pentanoyl]amino]-3-phenyl-propionic acid methyl ester

> <PUBCHEM_IUPAC_INCHI>
InChI=1S/C23H35N3O5/c1-5-6-12-18(24-15-27)21(28)25-19(13-16(2)3)22(29)26-20(23(30)31-4)14-17-10-8-7-9-11-17/h7-11,15-16,18-20H,5-6,12-14H2,1-4H3,(H,24,27)(H,25,28)(H,26,29)

> <PUBCHEM_IUPAC_INCHIKEY>
CMDJMPUKVKXWBI-UHFFFAOYSA-N

> <PUBCHEM_XLOGP3>
3.8

> <PUBCHEM_EXACT_MASS>
433.257671

> <PUBCHEM_MOLECULAR_FORMULA>
C23H35N3O5

> <PUBCHEM_MOLECULAR_WEIGHT>
433.5411

> <PUBCHEM_OPENEYE_CAN_SMILES>
CCCCC(C(=O)NC(CC(C)C)C(=O)NC(CC1=CC=CC=C1)C(=O)OC)NC=O

> <PUBCHEM_OPENEYE_ISO_SMILES>
CCCCC(C(=O)NC(CC(C)C)C(=O)NC(CC1=CC=CC=C1)C(=O)OC)NC=O

> <PUBCHEM_CACTVS_TPSA>
114

> <PUBCHEM_MONOISOTOPIC_WEIGHT>
433.257671

> <PUBCHEM_TOTAL_CHARGE>
0

> <PUBCHEM_HEAVY_ATOM_COUNT>
31

> <PUBCHEM_ATOM_DEF_STEREO_COUNT>
0

> <PUBCHEM_ATOM_UDEF_STEREO_COUNT>
3

> <PUBCHEM_BOND_DEF_STEREO_COUNT>
0

> <PUBCHEM_BOND_UDEF_STEREO_COUNT>
0

> <PUBCHEM_ISOTOPIC_ATOM_COUNT>
0

> <PUBCHEM_COMPONENT_COUNT>
1

> <PUBCHEM_CACTVS_TAUTO_COUNT>
8

> <PUBCHEM_COORDINATE_TYPE>
1
5
255

> <PUBCHEM_BONDANNOTATIONS>
12  36  3
19  48  3
22  26  8
22  27  8
26  28  8
27  29  8
28  30  8
29  30  8
9  32  3

$$$$

