16556
  -OEChem-07051213133D

 38 40  0     1  0  0  0  0  0999 V2000
    2.7522   -0.9052    1.3260 O   0  0  0  0  0  0  0  0  0  0  0  0
    1.3439   -0.3459   -0.4049 N   0  0  0  0  0  0  0  0  0  0  0  0
    3.4983    0.6277   -0.2532 N   0  0  0  0  0  0  0  0  0  0  0  0
   -1.3809    0.7403    0.2844 C   0  0  2  0  0  0  0  0  0  0  0  0
   -2.2397    0.1495   -0.8601 C   0  0  1  0  0  0  0  0  0  0  0  0
   -0.7745   -0.5173    0.9483 C   0  0  1  0  0  0  0  0  0  0  0  0
   -2.0342   -1.3701   -0.6933 C   0  0  2  0  0  0  0  0  0  0  0  0
   -1.9206   -1.5321    0.8271 C   0  0  0  0  0  0  0  0  0  0  0  0
    0.2645   -1.1897    0.0186 C   0  0  1  0  0  0  0  0  0  0  0  0
   -0.5987   -1.7159   -1.1452 C   0  0  0  0  0  0  0  0  0  0  0  0
   -2.3473    1.5394    1.1628 C   0  0  0  0  0  0  0  0  0  0  0  0
   -3.6663    0.6440   -0.6139 C   0  0  0  0  0  0  0  0  0  0  0  0
   -3.4851    1.9026    0.2210 C   0  0  0  0  0  0  0  0  0  0  0  0
    2.5507   -0.2558    0.2954 C   0  0  0  0  0  0  0  0  0  0  0  0
    4.8015    0.8434    0.3616 C   0  0  0  0  0  0  0  0  0  0  0  0
    3.2362    1.3851   -1.4745 C   0  0  0  0  0  0  0  0  0  0  0  0
   -0.6103    1.4113   -0.1110 H   0  0  0  0  0  0  0  0  0  0  0  0
   -1.8873    0.5021   -1.8368 H   0  0  0  0  0  0  0  0  0  0  0  0
   -0.4068   -0.3475    1.9629 H   0  0  0  0  0  0  0  0  0  0  0  0
   -2.8011   -1.9798   -1.1755 H   0  0  0  0  0  0  0  0  0  0  0  0
   -2.8257   -1.2487    1.3704 H   0  0  0  0  0  0  0  0  0  0  0  0
   -1.6335   -2.5455    1.1293 H   0  0  0  0  0  0  0  0  0  0  0  0
    0.6965   -2.0533    0.5419 H   0  0  0  0  0  0  0  0  0  0  0  0
   -0.4805   -2.8024   -1.2329 H   0  0  0  0  0  0  0  0  0  0  0  0
   -0.3496   -1.2713   -2.1145 H   0  0  0  0  0  0  0  0  0  0  0  0
   -1.8683    2.4300    1.5818 H   0  0  0  0  0  0  0  0  0  0  0  0
   -2.7231    0.9467    2.0040 H   0  0  0  0  0  0  0  0  0  0  0  0
   -4.2636   -0.0931   -0.0654 H   0  0  0  0  0  0  0  0  0  0  0  0
   -4.1892    0.8526   -1.5525 H   0  0  0  0  0  0  0  0  0  0  0  0
   -3.1942    2.7439   -0.4191 H   0  0  0  0  0  0  0  0  0  0  0  0
   -4.3966    2.1796    0.7580 H   0  0  0  0  0  0  0  0  0  0  0  0
    1.1745    0.2555   -1.2022 H   0  0  0  0  0  0  0  0  0  0  0  0
    5.5799    0.5561   -0.3510 H   0  0  0  0  0  0  0  0  0  0  0  0
    4.9124    0.2474    1.2709 H   0  0  0  0  0  0  0  0  0  0  0  0
    4.9015    1.9030    0.6141 H   0  0  0  0  0  0  0  0  0  0  0  0
    2.9810    0.6949   -2.2840 H   0  0  0  0  0  0  0  0  0  0  0  0
    4.1191    1.9618   -1.7658 H   0  0  0  0  0  0  0  0  0  0  0  0
    2.4024    2.0708   -1.2973 H   0  0  0  0  0  0  0  0  0  0  0  0
  1 14  2  0  0  0  0
  2  9  1  0  0  0  0
  2 14  1  0  0  0  0
  2 32  1  0  0  0  0
  3 14  1  0  0  0  0
  3 15  1  0  0  0  0
  3 16  1  0  0  0  0
  4  5  1  0  0  0  0
  4  6  1  0  0  0  0
  4 11  1  0  0  0  0
  4 17  1  0  0  0  0
  5  7  1  0  0  0  0
  5 12  1  0  0  0  0
  5 18  1  0  0  0  0
  6  8  1  0  0  0  0
  6  9  1  0  0  0  0
  6 19  1  0  0  0  0
  7  8  1  0  0  0  0
  7 10  1  0  0  0  0
  7 20  1  0  0  0  0
  8 21  1  0  0  0  0
  8 22  1  0  0  0  0
  9 10  1  0  0  0  0
  9 23  1  0  0  0  0
 10 24  1  0  0  0  0
 10 25  1  0  0  0  0
 11 13  1  0  0  0  0
 11 26  1  0  0  0  0
 11 27  1  0  0  0  0
 12 13  1  0  0  0  0
 12 28  1  0  0  0  0
 12 29  1  0  0  0  0
 13 30  1  0  0  0  0
 13 31  1  0  0  0  0
 15 33  1  0  0  0  0
 15 34  1  0  0  0  0
 15 35  1  0  0  0  0
 16 36  1  0  0  0  0
 16 37  1  0  0  0  0
 16 38  1  0  0  0  0
M  END
> <PUBCHEM_COMPOUND_CID>
16556

> <PUBCHEM_CONFORMER_RMSD>
0.6

> <PUBCHEM_CONFORMER_DIVERSEORDER>
1
3
7
15
16
6
13
14
17
10
9
11
12
8
5
2
18
4

> <PUBCHEM_MMFF94_PARTIAL_CHARGES>
8
1 -0.57
14 0.69
15 0.3
16 0.3
2 -0.73
3 -0.66
32 0.37
9 0.3

> <PUBCHEM_EFFECTIVE_ROTOR_COUNT>
4.2

> <PUBCHEM_PHARMACOPHORE_FEATURES>
4
1 1 acceptor
1 2 donor
5 4 5 11 12 13 rings
7 4 5 6 7 8 9 10 rings

> <PUBCHEM_HEAVY_ATOM_COUNT>
16

> <PUBCHEM_ATOM_DEF_STEREO_COUNT>
0

> <PUBCHEM_ATOM_UDEF_STEREO_COUNT>
5

> <PUBCHEM_BOND_DEF_STEREO_COUNT>
0

> <PUBCHEM_BOND_UDEF_STEREO_COUNT>
0

> <PUBCHEM_ISOTOPIC_ATOM_COUNT>
0

> <PUBCHEM_COMPONENT_COUNT>
1

> <PUBCHEM_CACTVS_TAUTO_COUNT>
2

> <PUBCHEM_CONFORMER_ID>
000040AC00000001

> <PUBCHEM_MMFF94_ENERGY>
52.1147

> <PUBCHEM_FEATURE_SELFOVERLAP>
20.361

> <PUBCHEM_SHAPE_FINGERPRINT>
10498660 4 18186519916738714504
11640471 11 18413670214443501796
11769659 78 8862932875416370867
12173636 292 18333734628161388205
122479 349 18341888632168118201
12491281 212 18334574676530381841
12788726 201 18196384627810797019
13024252 1 12391525165415278143
13583140 156 17346876762976371521
13764800 53 18335408076279471603
14123260 362 18411693288115465492
14897335 6 18409731793720520070
15061688 2 18129950116936424797
15239191 94 8790887376191192300
15669948 3 18261403208309781006
15775835 57 18341896307190364524
16945 1 18040444286919918527
1741750 31 18334009510210259994
18186145 218 18200030775607534143
19868273 293 17967537865241056782
20279233 1 17095240311455973878
20281475 54 9367044680406962577
20300324 65 17894636932920815277
20510252 161 18334571300675895083
20645476 183 18411423894786910502
20645477 56 18186516583943897304
20653085 51 18263073474004706703
21524375 3 18264774427230237491
23402539 116 18187940455944495479
23419403 2 15406656335506217915
23557571 272 17749956531375175326
23559900 14 17676207983829062826
369184 2 17489592259617292003
4028521 119 17967817162564028608
4175511 318 17749107755548064822
465052 167 9582934927072787605
474 4 18060420213977979224
76465 3 11383530275696800209

> <PUBCHEM_SHAPE_MULTIPOLES>
313.44
7.34
1.88
1.24
7.5
0.04
-0.06
4.02
-0.25
-1.14
-0.05
0.18
-0.01
-0.74

> <PUBCHEM_SHAPE_SELFOVERLAP>
662.41

> <PUBCHEM_SHAPE_VOLUME>
182.8

> <PUBCHEM_COORDINATE_TYPE>
2
5
10

$$$$

