25
  -OEChem-07051212503D

 35 36  0     1  0  0  0  0  0999 V2000
   -1.1241   -0.6064   -1.6847 O   0  0  0  0  0  0  0  0  0  0  0  0
   -0.0211   -2.5985    1.8976 O   0  0  0  0  0  0  0  0  0  0  0  0
   -3.5685    0.7042   -1.8409 O   0  0  0  0  0  0  0  0  0  0  0  0
    1.5736   -2.9188   -0.6344 O   0  0  0  0  0  0  0  0  0  0  0  0
   -4.7867    1.7139    0.4466 O   0  0  0  0  0  0  0  0  0  0  0  0
    0.8368    2.7168    1.1416 O   0  0  0  0  0  0  0  0  0  0  0  0
   -0.4698    0.2879    0.9461 N   0  0  0  0  0  0  0  0  0  0  0  0
    0.8924   -1.8178   -0.1397 N   0  0  1  0  0  0  0  0  0  0  0  0
    2.7887   -0.3173   -0.5268 N   0  0  0  0  0  0  0  0  0  0  0  0
    2.7486    1.9508    0.1260 N   0  0  0  0  0  0  0  0  0  0  0  0
    4.6284    1.0040   -0.9235 N   0  0  0  0  0  0  0  0  0  0  0  0
   -1.2620   -0.9100    0.6777 C   0  0  1  0  0  0  0  0  0  0  0  0
   -2.0561   -0.6968   -0.6112 C   0  0  1  0  0  0  0  0  0  0  0  0
   -0.3365   -2.1476    0.5785 C   0  0  2  0  0  0  0  0  0  0  0  0
   -2.9437    0.5520   -0.5611 C   0  0  2  0  0  0  0  0  0  0  0  0
    0.8228    0.4426    0.4930 C   0  0  0  0  0  0  0  0  0  0  0  0
    1.5160   -0.5745   -0.0676 C   0  0  0  0  0  0  0  0  0  0  0  0
   -4.0590    0.4890    0.4799 C   0  0  0  0  0  0  0  0  0  0  0  0
    1.4625    1.7981    0.6181 C   0  0  0  0  0  0  0  0  0  0  0  0
    3.3577    0.9282   -0.4151 C   0  0  0  0  0  0  0  0  0  0  0  0
   -1.9494   -1.0582    1.5178 H   0  0  0  0  0  0  0  0  0  0  0  0
   -2.6757   -1.5794   -0.8131 H   0  0  0  0  0  0  0  0  0  0  0  0
   -0.8629   -2.9702    0.0800 H   0  0  0  0  0  0  0  0  0  0  0  0
   -0.9222    1.0980    1.3566 H   0  0  0  0  0  0  0  0  0  0  0  0
   -2.3500    1.4632   -0.4337 H   0  0  0  0  0  0  0  0  0  0  0  0
   -3.6676    0.3714    1.4929 H   0  0  0  0  0  0  0  0  0  0  0  0
   -4.7623   -0.3242    0.2736 H   0  0  0  0  0  0  0  0  0  0  0  0
   -1.6320   -0.4500   -2.4991 H   0  0  0  0  0  0  0  0  0  0  0  0
    0.6719   -3.2734    1.8004 H   0  0  0  0  0  0  0  0  0  0  0  0
    3.2883   -1.0931   -0.9467 H   0  0  0  0  0  0  0  0  0  0  0  0
   -4.1077   -0.0880   -2.0066 H   0  0  0  0  0  0  0  0  0  0  0  0
    1.2430   -2.9623   -1.5480 H   0  0  0  0  0  0  0  0  0  0  0  0
   -5.1343    1.8212   -0.4554 H   0  0  0  0  0  0  0  0  0  0  0  0
    5.0810    0.1974   -1.3394 H   0  0  0  0  0  0  0  0  0  0  0  0
    5.1526    1.8718   -0.8991 H   0  0  0  0  0  0  0  0  0  0  0  0
  1 13  1  0  0  0  0
  1 28  1  0  0  0  0
  2 14  1  0  0  0  0
  2 29  1  0  0  0  0
  3 15  1  0  0  0  0
  3 31  1  0  0  0  0
  4  8  1  0  0  0  0
  4 32  1  0  0  0  0
  5 18  1  0  0  0  0
  5 33  1  0  0  0  0
  6 19  2  0  0  0  0
  7 12  1  0  0  0  0
  7 16  1  0  0  0  0
  7 24  1  0  0  0  0
  8 14  1  0  0  0  0
  8 17  1  0  0  0  0
  9 17  1  0  0  0  0
  9 20  1  0  0  0  0
  9 30  1  0  0  0  0
 10 19  1  0  0  0  0
 10 20  2  0  0  0  0
 11 20  1  0  0  0  0
 11 34  1  0  0  0  0
 11 35  1  0  0  0  0
 12 13  1  0  0  0  0
 12 14  1  0  0  0  0
 12 21  1  0  0  0  0
 13 15  1  0  0  0  0
 13 22  1  0  0  0  0
 14 23  1  0  0  0  0
 15 18  1  0  0  0  0
 15 25  1  0  0  0  0
 16 17  2  0  0  0  0
 16 19  1  0  0  0  0
 18 26  1  0  0  0  0
 18 27  1  0  0  0  0
M  END
> <PUBCHEM_COMPOUND_CID>
25

> <PUBCHEM_CONFORMER_RMSD>
0.6

> <PUBCHEM_CONFORMER_DIVERSEORDER>
1
103
26
18
99
89
65
72
29
28
20
11
6
46
104
100
21
4
57
19
14
102
5
80
38
10
55
97
82
106
105
84
66
90
25
61
94
16
45
15
3
77
34
49
86
17
41
42
24
2
12
9
67
87
22
75
85
69
13
23
101
39
76
48
8
71
35
27
60
92
40
37
64
53
51
63
7
96
70
33
58
52
78
43
79
83
54
62
74
47
31
32
98
91
81
73
68
59
95
44
36
93
50
30
56
88

> <PUBCHEM_MMFF94_PARTIAL_CHARGES>
29
1 -0.68
10 -0.66
11 -0.85
12 0.37
13 0.28
14 0.65
15 0.28
16 0.11
17 0.2
18 0.28
19 0.77
2 -0.68
20 0.55
24 0.4
28 0.4
29 0.4
3 -0.68
30 0.4
31 0.4
32 0.4
33 0.4
34 0.4
35 0.4
4 -0.38
5 -0.68
6 -0.57
7 -0.87
8 -0.49
9 -0.55

> <PUBCHEM_EFFECTIVE_ROTOR_COUNT>
3.8

> <PUBCHEM_PHARMACOPHORE_FEATURES>
17
1 1 acceptor
1 1 donor
1 10 donor
1 11 donor
1 2 acceptor
1 2 donor
1 3 acceptor
1 3 donor
1 4 anion
1 5 acceptor
1 5 donor
1 6 acceptor
1 7 cation
1 7 donor
1 9 donor
6 7 8 12 14 16 17 rings
6 9 10 16 17 19 20 rings

> <PUBCHEM_HEAVY_ATOM_COUNT>
20

> <PUBCHEM_ATOM_DEF_STEREO_COUNT>
0

> <PUBCHEM_ATOM_UDEF_STEREO_COUNT>
4

> <PUBCHEM_BOND_DEF_STEREO_COUNT>
0

> <PUBCHEM_BOND_UDEF_STEREO_COUNT>
0

> <PUBCHEM_ISOTOPIC_ATOM_COUNT>
0

> <PUBCHEM_COMPONENT_COUNT>
1

> <PUBCHEM_CACTVS_TAUTO_COUNT>
6

> <PUBCHEM_CONFORMER_ID>
0000001900000001

> <PUBCHEM_MMFF94_ENERGY>
59.3777

> <PUBCHEM_FEATURE_SELFOVERLAP>
86.439

> <PUBCHEM_SHAPE_FINGERPRINT>
10165383 225 18131061636944542293
11031198 65 18411698798537173583
12730499 353 18342457054479606323
13294875 104 18196118614831350954
13464514 151 18408880763025035889
16945 1 18260554424056168467
18186145 218 18335708199819798757
18219364 16 18267004099098101169
19765921 60 18342179976821582147
19784866 34 18409167709843011112
19784866 9 18272092763433831912
21041028 32 17976257160058449065
21524375 3 18270131114526097643
229495 10 15687554566200613903
23402539 116 18040433274829441676
23419403 2 17697837631451063202
23493267 7 18059572413472467922
23559900 14 18262794065904511860
238 59 17909030704249261461
25 1 18410575088958046215
2637199 183 18187081754638023405
2748010 2 17975125444966399824
298252 57 17822008705248927767
633830 44 18409447011930299589
6442390 28 18131060503416288643
7226269 152 18409739443748734968
76465 3 7565072609791001068
7832392 63 18041006141530013941
81228 2 17481152193709064499
9981440 41 16668554817902704480

> <PUBCHEM_SHAPE_MULTIPOLES>
351.47
6.7
2.68
1.29
2.55
0.96
-0.12
-4.59
-1.86
-0.91
0.84
0.54
0.19
0.23

> <PUBCHEM_SHAPE_SELFOVERLAP>
738.803

> <PUBCHEM_SHAPE_VOLUME>
193.1

> <PUBCHEM_COORDINATE_TYPE>
2
5
10

$$$$

