443872
  -OEChem-07051213033D

 60 65  0     1  0  0  0  0  0999 V2000
   -0.6465   -0.5171    1.4529 O   0  0  0  0  0  0  0  0  0  0  0  0
    4.5825   -0.9615   -0.3254 O   0  0  0  0  0  0  0  0  0  0  0  0
   -2.0516    3.3512   -0.0402 O   0  0  0  0  0  0  0  0  0  0  0  0
   -0.6927    2.0024    1.2523 O   0  0  0  0  0  0  0  0  0  0  0  0
    6.8006   -1.1027    0.2416 O   0  0  0  0  0  0  0  0  0  0  0  0
   -6.3460   -0.8041    0.6907 O   0  0  0  0  0  0  0  0  0  0  0  0
   -0.8433   -0.7873    0.0589 C   0  0  1  0  0  0  0  0  0  0  0  0
   -0.2064    0.2326   -0.8809 C   0  0  2  0  0  0  0  0  0  0  0  0
    2.1099   -0.6802   -0.2260 C   0  0  2  0  0  0  0  0  0  0  0  0
    1.2337    0.5764   -0.4591 C   0  0  1  0  0  0  0  0  0  0  0  0
    0.0816   -1.6437    0.9315 C   0  0  1  0  0  0  0  0  0  0  0  0
   -2.2796   -1.2454   -0.3035 C   0  0  2  0  0  0  0  0  0  0  0  0
    1.5725   -1.4341    1.0054 C   0  0  0  0  0  0  0  0  0  0  0  0
    3.5178   -0.0260   -0.0975 C   0  0  2  0  0  0  0  0  0  0  0  0
   -1.1191    1.4581   -1.0583 C   0  0  1  0  0  0  0  0  0  0  0  0
    2.0353    1.4118   -1.4599 C   0  0  0  0  0  0  0  0  0  0  0  0
    3.5059    1.0422   -1.2225 C   0  0  0  0  0  0  0  0  0  0  0  0
   -3.1565   -0.0503   -0.7136 C   0  0  0  0  0  0  0  0  0  0  0  0
   -2.5037    1.0274   -1.5591 C   0  0  0  0  0  0  0  0  0  0  0  0
    2.0966   -1.6711   -1.4255 C   0  0  0  0  0  0  0  0  0  0  0  0
   -2.9549   -1.9913    0.8881 C   0  0  0  0  0  0  0  0  0  0  0  0
    3.8908    0.5938    1.2460 C   0  0  0  0  0  0  0  0  0  0  0  0
   -2.1837   -2.2208   -1.5021 C   0  0  0  0  0  0  0  0  0  0  0  0
   -1.2435    2.2786    0.1953 C   0  0  0  0  0  0  0  0  0  0  0  0
   -4.4408   -2.2515    0.6878 C   0  0  0  0  0  0  0  0  0  0  0  0
    5.4038    0.6361    1.1851 C   0  0  0  0  0  0  0  0  0  0  0  0
   -4.4474    0.0864   -0.3659 C   0  0  0  0  0  0  0  0  0  0  0  0
    5.7090   -0.5647    0.3419 C   0  0  0  0  0  0  0  0  0  0  0  0
   -5.1661   -0.9676    0.3858 C   0  0  0  0  0  0  0  0  0  0  0  0
   -2.2583    4.2223    1.0763 C   0  0  0  0  0  0  0  0  0  0  0  0
   -0.1408   -0.2397   -1.8695 H   0  0  0  0  0  0  0  0  0  0  0  0
    1.2320    1.1355    0.4824 H   0  0  0  0  0  0  0  0  0  0  0  0
   -0.2222   -2.6276    1.2569 H   0  0  0  0  0  0  0  0  0  0  0  0
    1.7676   -0.8886    1.9332 H   0  0  0  0  0  0  0  0  0  0  0  0
    2.0775   -2.4020    1.1077 H   0  0  0  0  0  0  0  0  0  0  0  0
   -0.6680    2.1165   -1.8126 H   0  0  0  0  0  0  0  0  0  0  0  0
    1.8655    2.4828   -1.3057 H   0  0  0  0  0  0  0  0  0  0  0  0
    1.7571    1.1830   -2.4950 H   0  0  0  0  0  0  0  0  0  0  0  0
    3.9489    0.6484   -2.1454 H   0  0  0  0  0  0  0  0  0  0  0  0
    4.0853    1.9349   -0.9630 H   0  0  0  0  0  0  0  0  0  0  0  0
   -2.3919    0.6252   -2.5752 H   0  0  0  0  0  0  0  0  0  0  0  0
   -3.1650    1.8964   -1.6635 H   0  0  0  0  0  0  0  0  0  0  0  0
    2.3880   -1.1945   -2.3664 H   0  0  0  0  0  0  0  0  0  0  0  0
    2.7902   -2.5018   -1.2506 H   0  0  0  0  0  0  0  0  0  0  0  0
    1.1116   -2.1210   -1.5840 H   0  0  0  0  0  0  0  0  0  0  0  0
   -2.8494   -1.3999    1.8077 H   0  0  0  0  0  0  0  0  0  0  0  0
   -2.4554   -2.9487    1.0781 H   0  0  0  0  0  0  0  0  0  0  0  0
    3.6248   -0.0583    2.0832 H   0  0  0  0  0  0  0  0  0  0  0  0
    3.4462    1.5764    1.4288 H   0  0  0  0  0  0  0  0  0  0  0  0
   -1.6996   -1.7621   -2.3707 H   0  0  0  0  0  0  0  0  0  0  0  0
   -1.5920   -3.1051   -1.2379 H   0  0  0  0  0  0  0  0  0  0  0  0
   -3.1689   -2.5642   -1.8349 H   0  0  0  0  0  0  0  0  0  0  0  0
   -4.8560   -2.6745    1.6095 H   0  0  0  0  0  0  0  0  0  0  0  0
   -4.6270   -2.9613   -0.1237 H   0  0  0  0  0  0  0  0  0  0  0  0
    5.8460    0.5397    2.1794 H   0  0  0  0  0  0  0  0  0  0  0  0
    5.7746    1.5348    0.6853 H   0  0  0  0  0  0  0  0  0  0  0  0
   -5.0297    0.9530   -0.6613 H   0  0  0  0  0  0  0  0  0  0  0  0
   -1.3060    4.6498    1.4044 H   0  0  0  0  0  0  0  0  0  0  0  0
   -2.7415    3.6798    1.8945 H   0  0  0  0  0  0  0  0  0  0  0  0
   -2.9165    5.0345    0.7565 H   0  0  0  0  0  0  0  0  0  0  0  0
  1  7  1  0  0  0  0
  1 11  1  0  0  0  0
  2 14  1  0  0  0  0
  2 28  1  0  0  0  0
  3 24  1  0  0  0  0
  3 30  1  0  0  0  0
  4 24  2  0  0  0  0
  5 28  2  0  0  0  0
  6 29  2  0  0  0  0
  7  8  1  0  0  0  0
  7 11  1  0  0  0  0
  7 12  1  0  0  0  0
  8 10  1  0  0  0  0
  8 15  1  0  0  0  0
  8 31  1  0  0  0  0
  9 10  1  0  0  0  0
  9 13  1  0  0  0  0
  9 14  1  0  0  0  0
  9 20  1  0  0  0  0
 10 16  1  0  0  0  0
 10 32  1  0  0  0  0
 11 13  1  0  0  0  0
 11 33  1  0  0  0  0
 12 18  1  0  0  0  0
 12 21  1  0  0  0  0
 12 23  1  0  0  0  0
 13 34  1  0  0  0  0
 13 35  1  0  0  0  0
 14 17  1  0  0  0  0
 14 22  1  0  0  0  0
 15 19  1  0  0  0  0
 15 24  1  0  0  0  0
 15 36  1  0  0  0  0
 16 17  1  0  0  0  0
 16 37  1  0  0  0  0
 16 38  1  0  0  0  0
 17 39  1  0  0  0  0
 17 40  1  0  0  0  0
 18 19  1  0  0  0  0
 18 27  2  0  0  0  0
 19 41  1  0  0  0  0
 19 42  1  0  0  0  0
 20 43  1  0  0  0  0
 20 44  1  0  0  0  0
 20 45  1  0  0  0  0
 21 25  1  0  0  0  0
 21 46  1  0  0  0  0
 21 47  1  0  0  0  0
 22 26  1  0  0  0  0
 22 48  1  0  0  0  0
 22 49  1  0  0  0  0
 23 50  1  0  0  0  0
 23 51  1  0  0  0  0
 23 52  1  0  0  0  0
 25 29  1  0  0  0  0
 25 53  1  0  0  0  0
 25 54  1  0  0  0  0
 26 28  1  0  0  0  0
 26 55  1  0  0  0  0
 26 56  1  0  0  0  0
 27 29  1  0  0  0  0
 27 57  1  0  0  0  0
 30 58  1  0  0  0  0
 30 59  1  0  0  0  0
 30 60  1  0  0  0  0
M  END
> <PUBCHEM_COMPOUND_CID>
443872

> <PUBCHEM_CONFORMER_RMSD>
0.8

> <PUBCHEM_CONFORMER_DIVERSEORDER>
1
2

> <PUBCHEM_MMFF94_PARTIAL_CHARGES>
24
1 -0.3
11 -0.05
12 0.23
13 0.09
14 0.28
15 0.06
18 -0.28
19 0.14
2 -0.43
24 0.66
25 0.06
26 0.06
27 -0.14
28 0.66
29 0.49
3 -0.43
30 0.28
33 0.1
4 -0.57
5 -0.57
57 0.15
6 -0.57
7 -0.04
8 0.09

> <PUBCHEM_EFFECTIVE_ROTOR_COUNT>
4.2

> <PUBCHEM_PHARMACOPHORE_FEATURES>
9
1 1 acceptor
1 4 acceptor
1 5 acceptor
1 6 acceptor
5 2 14 22 26 28 rings
5 9 10 14 16 17 rings
6 12 18 21 25 27 29 rings
6 7 8 12 15 18 19 rings
7 1 7 8 9 10 11 13 rings

> <PUBCHEM_HEAVY_ATOM_COUNT>
30

> <PUBCHEM_ATOM_DEF_STEREO_COUNT>
8

> <PUBCHEM_ATOM_UDEF_STEREO_COUNT>
0

> <PUBCHEM_BOND_DEF_STEREO_COUNT>
0

> <PUBCHEM_BOND_UDEF_STEREO_COUNT>
0

> <PUBCHEM_ISOTOPIC_ATOM_COUNT>
0

> <PUBCHEM_COMPONENT_COUNT>
1

> <PUBCHEM_CACTVS_TAUTO_COUNT>
10

> <PUBCHEM_CONFORMER_ID>
0006C5E000000001

> <PUBCHEM_MMFF94_ENERGY>
93.9158

> <PUBCHEM_FEATURE_SELFOVERLAP>
45.768

> <PUBCHEM_SHAPE_FINGERPRINT>
11315181 36 18272652368588937092
11578080 2 16444730848309689777
11607047 403 16601549407085846427
11646440 116 18340477886125654243
12107698 1 18342175557758962398
12166972 35 17346597448251919590
12236239 1 16343709850258528438
12403814 3 16805611356118332516
12516196 113 18336264549088968107
12788726 201 18338781347657154188
13140716 1 18194684769668738887
13224815 77 18411694362194600908
13965767 371 17621595442408428972
14142880 1 18270401736189270245
14178342 30 18340202015896732668
14341114 176 18412548700146570308
14787075 74 18129940062328105943
14955137 171 18265893562822305339
15131766 46 16155135776443664896
15196674 1 17988361464287945830
15788980 27 18335143055491699062
15849732 13 18040716931850187223
17349148 13 17703792513828962482
192875 21 18273213071778811468
200 152 18342178843013473870
20028762 73 18272090444305538082
20602899 9 12175628382089576501
20775438 99 16824215926327695119
21033648 144 16444498705796761672
21033648 29 17750536082057652168
21267235 1 17989202642254723022
22182313 1 18187639271336769366
23402539 116 18342463608009246206
23557571 272 18409449201946700454
23558518 356 18196079161114076201
23559900 14 18200596891585089204
23845131 108 17688301705191564521
24893992 56 18201998786950144699
25147074 1 17987780982879734068
3004659 81 17703509909138612230
335352 9 17988926656478384207
3380486 145 18122052109685866226
350125 39 18343862204264333716
392239 28 18410856529749501673
463206 1 18268432321690508126
469060 322 17846489374844435625
5104073 3 18059289851341894009
7226269 152 18413392038191708465
9896288 288 18263359364133762905

> <PUBCHEM_SHAPE_MULTIPOLES>
582.17
11.52
3.03
1.44
7.51
3.12
-0.15
-4.28
2.53
-3.09
0.7
0.13
0.11
0.05

> <PUBCHEM_SHAPE_SELFOVERLAP>
1285.197

> <PUBCHEM_SHAPE_VOLUME>
310.9

> <PUBCHEM_COORDINATE_TYPE>
2
5
10

$$$$

