12162
  -OEChem-06261206363D

 13 13  0     0  0  0  0  0  0999 V2000
   -3.6764   -0.0002   -0.0001 Br  0  0  0  0  0  0  0  0  0  0  0  0
    3.5941    0.0000   -0.0003 N   0  0  0  0  0  0  0  0  0  0  0  0
    1.0032    0.0000    0.0003 C   0  0  0  0  0  0  0  0  0  0  0  0
    0.3059   -1.2080    0.0002 C   0  0  0  0  0  0  0  0  0  0  0  0
    0.3058    1.2080    0.0002 C   0  0  0  0  0  0  0  0  0  0  0  0
   -1.0890   -1.2080   -0.0001 C   0  0  0  0  0  0  0  0  0  0  0  0
   -1.0891    1.2081    0.0000 C   0  0  0  0  0  0  0  0  0  0  0  0
   -1.7866    0.0000   -0.0001 C   0  0  0  0  0  0  0  0  0  0  0  0
    2.4320   -0.0001    0.0000 C   0  0  0  0  0  0  0  0  0  0  0  0
    0.8355   -2.1577    0.0002 H   0  0  0  0  0  0  0  0  0  0  0  0
    0.8354    2.1578    0.0002 H   0  0  0  0  0  0  0  0  0  0  0  0
   -1.6173   -2.1579   -0.0002 H   0  0  0  0  0  0  0  0  0  0  0  0
   -1.6175    2.1581   -0.0001 H   0  0  0  0  0  0  0  0  0  0  0  0
  1  8  1  0  0  0  0
  2  9  3  0  0  0  0
  3  4  2  0  0  0  0
  3  5  1  0  0  0  0
  3  9  1  0  0  0  0
  4  6  1  0  0  0  0
  4 10  1  0  0  0  0
  5  7  2  0  0  0  0
  5 11  1  0  0  0  0
  6  8  2  0  0  0  0
  6 12  1  0  0  0  0
  7  8  1  0  0  0  0
  7 13  1  0  0  0  0
M  END
> <PUBCHEM_COMPOUND_CID>
12162

> <PUBCHEM_CONFORMER_RMSD>
0.4

> <PUBCHEM_CONFORMER_DIVERSEORDER>
1

> <PUBCHEM_MMFF94_PARTIAL_CHARGES>
13
1 -0.11
10 0.15
11 0.15
12 0.15
13 0.15
2 -0.56
3 0.07
4 -0.15
5 -0.15
6 -0.15
7 -0.15
8 0.11
9 0.48

> <PUBCHEM_EFFECTIVE_ROTOR_COUNT>
0

> <PUBCHEM_PHARMACOPHORE_FEATURES>
3
1 1 hydrophobe
1 2 acceptor
6 3 4 5 6 7 8 rings

> <PUBCHEM_HEAVY_ATOM_COUNT>
9

> <PUBCHEM_ATOM_DEF_STEREO_COUNT>
0

> <PUBCHEM_ATOM_UDEF_STEREO_COUNT>
0

> <PUBCHEM_BOND_DEF_STEREO_COUNT>
0

> <PUBCHEM_BOND_UDEF_STEREO_COUNT>
0

> <PUBCHEM_ISOTOPIC_ATOM_COUNT>
0

> <PUBCHEM_COMPONENT_COUNT>
1

> <PUBCHEM_CACTVS_TAUTO_COUNT>
1

> <PUBCHEM_CONFORMER_ID>
00002F8200000001

> <PUBCHEM_MMFF94_ENERGY>
15.4675

> <PUBCHEM_FEATURE_SELFOVERLAP>
15.223

> <PUBCHEM_SHAPE_FINGERPRINT>
10219947 1 18411134740635047049
11062470 55 15068339012399066147
12032990 46 18410847759457807723
14325111 11 18410574032433131584
15310529 11 16486706834502319507
16945 1 18410856564082449927
193761 8 17690280834230414599
21040471 1 18338516455553889376
21293036 1 18412266129457379141
23235685 24 18410579491505246445
23402539 116 18260277359931626389
23402655 69 18193575565413398829
23552423 10 18057043497752162676
2748010 2 18122627145766474015
29004967 10 18272081712746755697
369184 2 18409452487944783114
5084963 1 18333450941076189713
528886 8 18408891728340442715

> <PUBCHEM_SHAPE_MULTIPOLES>
186.18
4.99
1.27
0.62
0.14
0
0
0
0
-0.2
0
-0.09
0
0

> <PUBCHEM_SHAPE_SELFOVERLAP>
373.184

> <PUBCHEM_SHAPE_VOLUME>
112.4

> <PUBCHEM_COORDINATE_TYPE>
2
5
10

$$$$

