177893
  -OEChem-07051212572D

 41 45  0     0  0  0  0  0  0999 V2000
    2.6079    0.5996    0.0000 O   0  0  0  0  0  0  0  0  0  0  0  0
    2.6079    2.2760    0.0000 O   0  0  0  0  0  0  0  0  0  0  0  0
    8.9752   -2.1604    0.0000 O   0  0  0  0  0  0  0  0  0  0  0  0
   10.7866   -1.1146    0.0000 O   0  0  0  0  0  0  0  0  0  0  0  0
    6.2435   -0.6037    0.0000 N   0  3  0  0  0  0  0  0  0  0  0  0
    6.2596    0.4378    0.0000 C   0  0  0  0  0  0  0  0  0  0  0  0
    7.1256    0.9378    0.0000 C   0  0  0  0  0  0  0  0  0  0  0  0
    5.3935    0.9378    0.0000 C   0  0  0  0  0  0  0  0  0  0  0  0
    8.0356    0.4309    0.0000 C   0  0  0  0  0  0  0  0  0  0  0  0
    5.3935    1.9378    0.0000 C   0  0  0  0  0  0  0  0  0  0  0  0
    8.0436   -0.6107    0.0000 C   0  0  0  0  0  0  0  0  0  0  0  0
    7.1415   -1.1315    0.0000 C   0  0  0  0  0  0  0  0  0  0  0  0
    7.1256    1.9378    0.0000 C   0  0  0  0  0  0  0  0  0  0  0  0
    4.4996    0.4031    0.0000 C   0  0  0  0  0  0  0  0  0  0  0  0
    6.2596    2.4378    0.0000 C   0  0  0  0  0  0  0  0  0  0  0  0
    4.4996    2.4724    0.0000 C   0  0  0  0  0  0  0  0  0  0  0  0
    3.5935    0.9170    0.0000 C   0  0  0  0  0  0  0  0  0  0  0  0
    3.5935    1.9586    0.0000 C   0  0  0  0  0  0  0  0  0  0  0  0
    8.9624    0.9950    0.0000 C   0  0  0  0  0  0  0  0  0  0  0  0
    8.9790   -1.1604    0.0000 C   0  0  0  0  0  0  0  0  0  0  0  0
    5.3717   -1.0937    0.0000 C   0  0  0  0  0  0  0  0  0  0  0  0
    9.9187   -0.6179    0.0000 C   0  0  0  0  0  0  0  0  0  0  0  0
    9.9103    0.4671    0.0000 C   0  0  0  0  0  0  0  0  0  0  0  0
    2.0000    1.4378    0.0000 C   0  0  0  0  0  0  0  0  0  0  0  0
   11.6507   -0.6112    0.0000 C   0  0  0  0  0  0  0  0  0  0  0  0
    7.1391   -1.7515    0.0000 H   0  0  0  0  0  0  0  0  0  0  0  0
    7.6625    2.2478    0.0000 H   0  0  0  0  0  0  0  0  0  0  0  0
    4.5068   -0.2168    0.0000 H   0  0  0  0  0  0  0  0  0  0  0  0
    6.2596    3.0578    0.0000 H   0  0  0  0  0  0  0  0  0  0  0  0
    4.5068    3.0924    0.0000 H   0  0  0  0  0  0  0  0  0  0  0  0
    8.9505    1.6149    0.0000 H   0  0  0  0  0  0  0  0  0  0  0  0
    5.0680   -0.5532    0.0000 H   0  0  0  0  0  0  0  0  0  0  0  0
    4.8313   -1.3974    0.0000 H   0  0  0  0  0  0  0  0  0  0  0  0
    5.6755   -1.6342    0.0000 H   0  0  0  0  0  0  0  0  0  0  0  0
   10.4436    0.7833    0.0000 H   0  0  0  0  0  0  0  0  0  0  0  0
    1.5391    1.8525    0.0000 H   0  0  0  0  0  0  0  0  0  0  0  0
    1.5391    1.0231    0.0000 H   0  0  0  0  0  0  0  0  0  0  0  0
    9.5109   -2.4724    0.0000 H   0  0  0  0  0  0  0  0  0  0  0  0
   11.9628   -1.1470    0.0000 H   0  0  0  0  0  0  0  0  0  0  0  0
   12.1864   -0.2991    0.0000 H   0  0  0  0  0  0  0  0  0  0  0  0
   11.3386   -0.0755    0.0000 H   0  0  0  0  0  0  0  0  0  0  0  0
  1 17  1  0  0  0  0
  1 24  1  0  0  0  0
  2 18  1  0  0  0  0
  2 24  1  0  0  0  0
  3 20  1  0  0  0  0
  3 38  1  0  0  0  0
  4 22  1  0  0  0  0
  4 25  1  0  0  0  0
  5  6  2  0  0  0  0
  5 12  1  0  0  0  0
  5 21  1  0  0  0  0
  6  7  1  0  0  0  0
  6  8  1  0  0  0  0
  7  9  2  0  0  0  0
  7 13  1  0  0  0  0
  8 10  1  0  0  0  0
  8 14  2  0  0  0  0
  9 11  1  0  0  0  0
  9 19  1  0  0  0  0
 10 15  1  0  0  0  0
 10 16  2  0  0  0  0
 11 12  2  0  0  0  0
 11 20  1  0  0  0  0
 12 26  1  0  0  0  0
 13 15  2  0  0  0  0
 13 27  1  0  0  0  0
 14 17  1  0  0  0  0
 14 28  1  0  0  0  0
 15 29  1  0  0  0  0
 16 18  1  0  0  0  0
 16 30  1  0  0  0  0
 17 18  2  0  0  0  0
 19 23  2  0  0  0  0
 19 31  1  0  0  0  0
 20 22  2  0  0  0  0
 21 32  1  0  0  0  0
 21 33  1  0  0  0  0
 21 34  1  0  0  0  0
 22 23  1  0  0  0  0
 23 35  1  0  0  0  0
 24 36  1  0  0  0  0
 24 37  1  0  0  0  0
 25 39  1  0  0  0  0
 25 40  1  0  0  0  0
 25 41  1  0  0  0  0
M  CHG  1   5   1
M  END
> <PUBCHEM_COMPOUND_CID>
177893

> <PUBCHEM_COMPOUND_CANONICALIZED>
1

> <PUBCHEM_CACTVS_COMPLEXITY>
502

> <PUBCHEM_CACTVS_HBOND_ACCEPTOR>
4

> <PUBCHEM_CACTVS_HBOND_DONOR>
1

> <PUBCHEM_CACTVS_ROTATABLE_BOND>
1

> <PUBCHEM_CACTVS_SUBSKEYS>
AAADceB6OAAAAAAAAAAAAAAAAAAAASAAAAA8YMEAAAAAAEjx/AAAHgAACAAADAzBngc+zvMMFgCgAzRnRACCiCAxICAI2CAuzJgdJuLGsZukcCtmwBnP+Aew0PMO4AADQAAaQADAAAaAADSAAAAAAAAAAA==

> <PUBCHEM_IUPAC_OPENEYE_NAME>
2-methoxy-12-methyl-[1,3]benzodioxolo[5,6-c]phenanthridin-12-ium-1-ol

> <PUBCHEM_IUPAC_CAS_NAME>
2-methoxy-12-methyl-[1,3]benzodioxolo[5,6-c]phenanthridin-12-ium-1-ol

> <PUBCHEM_IUPAC_NAME>
2-methoxy-12-methyl-[1,3]benzodioxolo[5,6-c]phenanthridin-12-ium-1-ol

> <PUBCHEM_IUPAC_SYSTEMATIC_NAME>
2-methoxy-12-methyl-[1,3]benzodioxolo[5,6-c]phenanthridin-12-ium-1-ol

> <PUBCHEM_IUPAC_TRADITIONAL_NAME>
2-methoxy-12-methyl-[1,3]benzodioxolo[5,6-c]phenanthridin-12-ium-1-ol

> <PUBCHEM_IUPAC_INCHI>
InChI=1S/C20H15NO4/c1-21-9-15-12(5-6-16(23-2)20(15)22)13-4-3-11-7-17-18(25-10-24-17)8-14(11)19(13)21/h3-9H,10H2,1-2H3/p+1

> <PUBCHEM_IUPAC_INCHIKEY>
RSCIYYHIBVZXDI-UHFFFAOYSA-O

> <PUBCHEM_XLOGP3_AA>
4.3

> <PUBCHEM_EXACT_MASS>
334.107933

> <PUBCHEM_MOLECULAR_FORMULA>
C20H16NO4+

> <PUBCHEM_MOLECULAR_WEIGHT>
334.34534

> <PUBCHEM_OPENEYE_CAN_SMILES>
C[N+]1=C2C(=C3C=CC(=C(C3=C1)O)OC)C=CC4=CC5=C(C=C42)OCO5

> <PUBCHEM_OPENEYE_ISO_SMILES>
C[N+]1=C2C(=C3C=CC(=C(C3=C1)O)OC)C=CC4=CC5=C(C=C42)OCO5

> <PUBCHEM_CACTVS_TPSA>
51.8

> <PUBCHEM_MONOISOTOPIC_WEIGHT>
334.107933

> <PUBCHEM_TOTAL_CHARGE>
1

> <PUBCHEM_HEAVY_ATOM_COUNT>
25

> <PUBCHEM_ATOM_DEF_STEREO_COUNT>
0

> <PUBCHEM_ATOM_UDEF_STEREO_COUNT>
0

> <PUBCHEM_BOND_DEF_STEREO_COUNT>
0

> <PUBCHEM_BOND_UDEF_STEREO_COUNT>
0

> <PUBCHEM_ISOTOPIC_ATOM_COUNT>
0

> <PUBCHEM_COMPONENT_COUNT>
1

> <PUBCHEM_CACTVS_TAUTO_COUNT>
3

> <PUBCHEM_COORDINATE_TYPE>
1
5
255

> <PUBCHEM_BONDANNOTATIONS>
10  15  8
10  16  8
11  12  8
11  20  8
13  15  8
14  17  8
16  18  8
17  18  8
19  23  8
20  22  8
22  23  8
5  12  8
5  6  8
6  7  8
6  8  8
7  13  8
7  9  8
8  10  8
8  14  8
9  11  8
9  19  8

$$$$

