46173722
  -OEChem-07051212483D

 43 45  0     1  0  0  0  0  0999 V2000
    0.8519   -0.1076   -1.0052 O   0  0  0  0  0  0  0  0  0  0  0  0
    1.7507    2.0709    0.6876 O   0  0  0  0  0  0  0  0  0  0  0  0
    2.3131   -2.5255   -0.5715 O   0  0  0  0  0  0  0  0  0  0  0  0
    4.5877    2.4179    0.6373 O   0  0  0  0  0  0  0  0  0  0  0  0
    5.1528   -2.1522   -0.6112 O   0  0  0  0  0  0  0  0  0  0  0  0
    6.0304   -0.0188    1.0619 O   0  0  0  0  0  0  0  0  0  0  0  0
   -0.5182    0.4191    0.7741 O   0  0  0  0  0  0  0  0  0  0  0  0
   -4.5876    1.7955   -0.4464 N   0  0  0  0  0  0  0  0  0  0  0  0
    1.9726   -0.1872   -0.1198 C   0  0  0  0  0  0  0  0  0  0  0  0
    2.6264    1.1887   -0.0198 C   0  0  2  0  0  0  0  0  0  0  0  0
    2.9281   -1.2384   -0.6809 C   0  0  1  0  0  0  0  0  0  0  0  0
    4.2507   -1.2860    0.0831 C   0  0  2  0  0  0  0  0  0  0  0  0
    3.9477    1.1429    0.7452 C   0  0  1  0  0  0  0  0  0  0  0  0
    4.9053    0.0918    0.1855 C   0  0  0  0  0  0  0  0  0  0  0  0
   -0.3419    0.2068   -0.4178 C   0  0  0  0  0  0  0  0  0  0  0  0
   -1.4122    0.2490   -1.4824 C   0  0  0  0  0  0  0  0  0  0  0  0
   -2.7665    0.6263   -0.9399 C   0  0  0  0  0  0  0  0  0  0  0  0
   -3.6464   -0.2122   -0.1998 C   0  0  0  0  0  0  0  0  0  0  0  0
   -4.7812    0.5456    0.0974 C   0  0  0  0  0  0  0  0  0  0  0  0
   -3.3729    1.8539   -1.0753 C   0  0  0  0  0  0  0  0  0  0  0  0
   -3.5860   -1.5470    0.2473 C   0  0  0  0  0  0  0  0  0  0  0  0
   -5.8630    0.0330    0.8221 C   0  0  0  0  0  0  0  0  0  0  0  0
   -4.6608   -2.0731    0.9733 C   0  0  0  0  0  0  0  0  0  0  0  0
   -5.7807   -1.2934    1.2552 C   0  0  0  0  0  0  0  0  0  0  0  0
    1.6348   -0.5227    0.8706 H   0  0  0  0  0  0  0  0  0  0  0  0
    2.7614    1.6276   -1.0153 H   0  0  0  0  0  0  0  0  0  0  0  0
    3.0990   -1.0745   -1.7516 H   0  0  0  0  0  0  0  0  0  0  0  0
    3.7749    0.9815    1.8159 H   0  0  0  0  0  0  0  0  0  0  0  0
    4.1122   -1.7275    1.0772 H   0  0  0  0  0  0  0  0  0  0  0  0
    5.3073    0.4064   -0.7850 H   0  0  0  0  0  0  0  0  0  0  0  0
    2.1367   -2.6971    0.3693 H   0  0  0  0  0  0  0  0  0  0  0  0
    1.5903    1.6938    1.5695 H   0  0  0  0  0  0  0  0  0  0  0  0
    5.2884   -1.7925   -1.5045 H   0  0  0  0  0  0  0  0  0  0  0  0
    4.7435    2.5981   -0.3056 H   0  0  0  0  0  0  0  0  0  0  0  0
    5.7049   -0.2883    1.9378 H   0  0  0  0  0  0  0  0  0  0  0  0
   -1.4753   -0.7395   -1.9518 H   0  0  0  0  0  0  0  0  0  0  0  0
   -1.1095    0.9766   -2.2447 H   0  0  0  0  0  0  0  0  0  0  0  0
   -3.0506    2.7642   -1.5614 H   0  0  0  0  0  0  0  0  0  0  0  0
   -5.2473    2.5590   -0.3890 H   0  0  0  0  0  0  0  0  0  0  0  0
   -2.7200   -2.1680    0.0364 H   0  0  0  0  0  0  0  0  0  0  0  0
   -6.7354    0.6392    1.0421 H   0  0  0  0  0  0  0  0  0  0  0  0
   -4.6197   -3.1020    1.3207 H   0  0  0  0  0  0  0  0  0  0  0  0
   -6.6040   -1.7223    1.8207 H   0  0  0  0  0  0  0  0  0  0  0  0
  1  9  1  0  0  0  0
  1 15  1  0  0  0  0
  2 10  1  0  0  0  0
  2 32  1  0  0  0  0
  3 11  1  0  0  0  0
  3 31  1  0  0  0  0
  4 13  1  0  0  0  0
  4 34  1  0  0  0  0
  5 12  1  0  0  0  0
  5 33  1  0  0  0  0
  6 14  1  0  0  0  0
  6 35  1  0  0  0  0
  7 15  2  0  0  0  0
  8 19  1  0  0  0  0
  8 20  1  0  0  0  0
  8 39  1  0  0  0  0
  9 10  1  0  0  0  0
  9 11  1  0  0  0  0
  9 25  1  0  0  0  0
 10 13  1  0  0  0  0
 10 26  1  0  0  0  0
 11 12  1  0  0  0  0
 11 27  1  0  0  0  0
 12 14  1  0  0  0  0
 12 29  1  0  0  0  0
 13 14  1  0  0  0  0
 13 28  1  0  0  0  0
 14 30  1  0  0  0  0
 15 16  1  0  0  0  0
 16 17  1  0  0  0  0
 16 36  1  0  0  0  0
 16 37  1  0  0  0  0
 17 18  1  0  0  0  0
 17 20  2  0  0  0  0
 18 19  1  0  0  0  0
 18 21  2  0  0  0  0
 19 22  2  0  0  0  0
 20 38  1  0  0  0  0
 21 23  1  0  0  0  0
 21 40  1  0  0  0  0
 22 24  1  0  0  0  0
 22 41  1  0  0  0  0
 23 24  2  0  0  0  0
 23 42  1  0  0  0  0
 24 43  1  0  0  0  0
M  END
> <PUBCHEM_COMPOUND_CID>
46173722

> <PUBCHEM_CONFORMER_RMSD>
0.8

> <PUBCHEM_CONFORMER_DIVERSEORDER>
1
21
57
62
41
53
50
5
46
74
91
2
94
93
3
22
80
4
43
63
72
40
87
64
10
67
56
8
66
73
31
82
69
13
20
85
17
68
15
24
89
14
48
37
23
12
92
52
76
35
90
44
65
49
95
51
30
39
27
86
84
38
18
11
26
19
29
78
59
96
45
36
33
71
54
6
9
75
25
70
61
98
55
58
28
79
60
77
83
34
7
88
47
16
81
32
42
97

> <PUBCHEM_MMFF94_PARTIAL_CHARGES>
34
1 -0.43
10 0.28
11 0.28
12 0.28
13 0.28
14 0.28
15 0.66
16 0.24
17 -0.18
19 -0.15
2 -0.68
20 -0.3
21 -0.15
22 -0.15
23 -0.15
24 -0.15
3 -0.68
31 0.4
32 0.4
33 0.4
34 0.4
35 0.4
38 0.15
39 0.27
4 -0.68
40 0.15
41 0.15
42 0.15
43 0.15
5 -0.68
6 -0.68
7 -0.57
8 0.03
9 0.28

> <PUBCHEM_EFFECTIVE_ROTOR_COUNT>
5.2

> <PUBCHEM_PHARMACOPHORE_FEATURES>
16
1 2 acceptor
1 2 donor
1 3 acceptor
1 3 donor
1 4 acceptor
1 4 donor
1 5 acceptor
1 5 donor
1 6 acceptor
1 6 donor
1 7 acceptor
1 8 cation
1 8 donor
5 8 17 18 19 20 rings
6 18 19 21 22 23 24 rings
6 9 10 11 12 13 14 rings

> <PUBCHEM_HEAVY_ATOM_COUNT>
24

> <PUBCHEM_ATOM_DEF_STEREO_COUNT>
4

> <PUBCHEM_ATOM_UDEF_STEREO_COUNT>
0

> <PUBCHEM_BOND_DEF_STEREO_COUNT>
0

> <PUBCHEM_BOND_UDEF_STEREO_COUNT>
0

> <PUBCHEM_ISOTOPIC_ATOM_COUNT>
0

> <PUBCHEM_COMPONENT_COUNT>
1

> <PUBCHEM_CACTVS_TAUTO_COUNT>
1

> <PUBCHEM_CONFORMER_ID>
02C08E1A00000001

> <PUBCHEM_MMFF94_ENERGY>
52.0539

> <PUBCHEM_FEATURE_SELFOVERLAP>
81.308

> <PUBCHEM_SHAPE_FINGERPRINT>
10 15 18339088099191245608
11045977 3 18411701002113787791
11370993 144 18335132146580338953
11405975 8 18411982502781317249
11545043 162 18273498991846232717
11552529 35 17751080211401552759
12236239 1 16732988630394145934
12507560 40 18410293614403465437
12596602 18 17095520673920760019
12616971 3 17458631120227707676
12788726 201 16515672369009236649
13402501 40 18341609317533999563
13583140 156 18335428971527546893
13675066 3 18409733966979259941
14251751 18 18272929427390026459
14341114 176 18410852157599342321
15188451 53 17846785066331369779
15348495 7 18411138013305239881
15475509 35 17345772888305232986
15788980 27 18113623395233399773
15880784 105 18336820914725779707
16126227 98 17762617283896602724
17349148 13 15410895171357512113
17844677 252 18412821399930660429
1813 80 16917349212601144741
18222031 100 16343984693436306997
18785283 64 18268712697524713284
18927931 339 17989202643029936167
19433438 28 18343023289418546149
21033648 29 18187944892582876385
21065198 57 18411702114394389917
21065199 12 18411700993587267181
21065201 7 17917436457526480589
21267235 1 18187359987463220678
21623969 137 18335137583639813578
22122407 14 17168413905744013633
23402539 116 15554450725279173607
23522609 53 17058908135053867740
23559900 14 18343024380809737837
239999 70 18335978744806556190
26918003 58 18408606980392852625
29717793 49 13758079627430521026
312425 54 18341603837735602323
3178227 256 18333731334739578138
3383291 50 17631721661981958339
351380 3 16056879126517625083
4073 2 18273492373132831362
4214541 1 18342455971894653165
465052 167 18271814540718126562
5104073 3 18411422842577731376
542803 24 15719395040093380245
5924683 9 18261396577719260703
602551 16 17704070681221978027
7495541 125 18131351904009419116
8863177 126 18413103970271899982
9995097 60 18408604781485667567

> <PUBCHEM_SHAPE_MULTIPOLES>
447.84
15.22
2.25
1.13
0.2
0.25
0.06
2.65
-4.57
0.44
-0.04
-0.31
-0.04
2.32

> <PUBCHEM_SHAPE_SELFOVERLAP>
965.114

> <PUBCHEM_SHAPE_VOLUME>
244.7

> <PUBCHEM_COORDINATE_TYPE>
2
5
10

$$$$

