405202
  -OEChem-07051212512D

 16 16  0     1  0  0  0  0  0999 V2000
    4.2690   -1.6550    0.0000 S   0  0  0  0  0  0  0  0  0  0  0  0
    5.1350   -1.1550    0.0000 S   0  0  0  0  0  0  0  0  0  0  0  0
    2.5369    0.3450    0.0000 O   0  0  0  0  0  0  0  0  0  0  0  0
    4.2690    1.3450    0.0000 O   0  0  0  0  0  0  0  0  0  0  0  0
    3.4030   -0.1550    0.0000 C   0  0  2  0  0  0  0  0  0  0  0  0
    4.2690    0.3450    0.0000 C   0  0  1  0  0  0  0  0  0  0  0  0
    3.4030   -1.1550    0.0000 C   0  0  0  0  0  0  0  0  0  0  0  0
    5.1350   -0.1550    0.0000 C   0  0  0  0  0  0  0  0  0  0  0  0
    3.4030    0.4650    0.0000 H   0  0  0  0  0  0  0  0  0  0  0  0
    4.8059    0.6550    0.0000 H   0  0  0  0  0  0  0  0  0  0  0  0
    2.7924   -1.0473    0.0000 H   0  0  0  0  0  0  0  0  0  0  0  0
    3.1909   -1.7376    0.0000 H   0  0  0  0  0  0  0  0  0  0  0  0
    5.7456   -0.2627    0.0000 H   0  0  0  0  0  0  0  0  0  0  0  0
    5.3471    0.4276    0.0000 H   0  0  0  0  0  0  0  0  0  0  0  0
    2.0000    0.0350    0.0000 H   0  0  0  0  0  0  0  0  0  0  0  0
    4.8059    1.6550    0.0000 H   0  0  0  0  0  0  0  0  0  0  0  0
  1  2  1  0  0  0  0
  1  7  1  0  0  0  0
  2  8  1  0  0  0  0
  5  3  1  6  0  0  0
  3 15  1  0  0  0  0
  6  4  1  6  0  0  0
  4 16  1  0  0  0  0
  5  6  1  0  0  0  0
  5  7  1  0  0  0  0
  5  9  1  0  0  0  0
  6  8  1  0  0  0  0
  6 10  1  0  0  0  0
  7 11  1  0  0  0  0
  7 12  1  0  0  0  0
  8 13  1  0  0  0  0
  8 14  1  0  0  0  0
M  END
> <PUBCHEM_COMPOUND_CID>
405202

> <PUBCHEM_COMPOUND_CANONICALIZED>
1

> <PUBCHEM_CACTVS_COMPLEXITY>
68.4

> <PUBCHEM_CACTVS_HBOND_ACCEPTOR>
4

> <PUBCHEM_CACTVS_HBOND_DONOR>
2

> <PUBCHEM_CACTVS_ROTATABLE_BOND>
0

> <PUBCHEM_CACTVS_SUBSKEYS>
AAADccBgMABgAAAAAAAAAAAAAAAAAAAAAAAkAAAAAAAAAAAAAAAAGgQACAAACBSkwAKAAAAAAgAAAAAAAAAAAAAAAAAAAAAAAAABEAAAAAAAQAAAAAABAAAAAAAAAAAAAAAAAAAAAAAAAAAAAAAAAAAAAA==

> <PUBCHEM_IUPAC_OPENEYE_NAME>
(4S,5R)-dithiane-4,5-diol

> <PUBCHEM_IUPAC_CAS_NAME>
(4S,5R)-dithiane-4,5-diol

> <PUBCHEM_IUPAC_NAME>
(4S,5R)-dithiane-4,5-diol

> <PUBCHEM_IUPAC_SYSTEMATIC_NAME>
(4S,5R)-1,2-dithiane-4,5-diol

> <PUBCHEM_IUPAC_TRADITIONAL_NAME>
(4S,5R)-dithiane-4,5-diol

> <PUBCHEM_IUPAC_INCHI>
InChI=1S/C4H8O2S2/c5-3-1-7-8-2-4(3)6/h3-6H,1-2H2/t3-,4+

> <PUBCHEM_IUPAC_INCHIKEY>
YPGMOWHXEQDBBV-ZXZARUISSA-N

> <PUBCHEM_XLOGP3_AA>
-0.6

> <PUBCHEM_EXACT_MASS>
151.996571

> <PUBCHEM_MOLECULAR_FORMULA>
C4H8O2S2

> <PUBCHEM_MOLECULAR_WEIGHT>
152.23512

> <PUBCHEM_OPENEYE_CAN_SMILES>
C1C(C(CSS1)O)O

> <PUBCHEM_OPENEYE_ISO_SMILES>
C1[C@H]([C@H](CSS1)O)O

> <PUBCHEM_CACTVS_TPSA>
91.1

> <PUBCHEM_MONOISOTOPIC_WEIGHT>
151.996571

> <PUBCHEM_TOTAL_CHARGE>
0

> <PUBCHEM_HEAVY_ATOM_COUNT>
8

> <PUBCHEM_ATOM_DEF_STEREO_COUNT>
2

> <PUBCHEM_ATOM_UDEF_STEREO_COUNT>
0

> <PUBCHEM_BOND_DEF_STEREO_COUNT>
0

> <PUBCHEM_BOND_UDEF_STEREO_COUNT>
0

> <PUBCHEM_ISOTOPIC_ATOM_COUNT>
0

> <PUBCHEM_COMPONENT_COUNT>
1

> <PUBCHEM_CACTVS_TAUTO_COUNT>
1

> <PUBCHEM_COORDINATE_TYPE>
1
5
255

> <PUBCHEM_BONDANNOTATIONS>
5  3  6
6  4  6

$$$$

