12678
  -OEChem-06261207143D

 29 28  0     1  0  0  0  0  0999 V2000
   -2.6544   -1.2536   -0.2609 F   0  0  0  0  0  0  0  0  0  0  0  0
   -2.0860    0.1809   -1.7869 F   0  0  0  0  0  0  0  0  0  0  0  0
   -3.1955    0.8457   -0.0324 F   0  0  0  0  0  0  0  0  0  0  0  0
   -0.2531    2.0340   -1.1743 F   0  0  0  0  0  0  0  0  0  0  0  0
    0.6087    2.0373    0.8279 F   0  0  0  0  0  0  0  0  0  0  0  0
   -1.4806    2.5857    0.5274 F   0  0  0  0  0  0  0  0  0  0  0  0
   -1.1449    0.0546    1.6903 O   0  0  0  0  0  0  0  0  0  0  0  0
    2.4761   -0.0477   -0.4941 O   0  0  0  0  0  0  0  0  0  0  0  0
   -0.3073   -2.6432    1.1562 O   0  0  0  0  0  0  0  0  0  0  0  0
    1.7806   -0.4399    1.6699 O   0  0  0  0  0  0  0  0  0  0  0  0
   -0.9044    0.2710    0.2975 C   0  0  0  0  0  0  0  0  0  0  0  0
    0.2210   -0.6921   -0.1831 C   0  0  2  0  0  0  0  0  0  0  0  0
   -2.2178    0.0124   -0.4534 C   0  0  0  0  0  0  0  0  0  0  0  0
   -0.5060    1.7427    0.1226 C   0  0  0  0  0  0  0  0  0  0  0  0
   -0.1329   -2.1671    0.0345 C   0  0  0  0  0  0  0  0  0  0  0  0
    1.5664   -0.3886    0.4655 C   0  0  0  0  0  0  0  0  0  0  0  0
   -0.2251   -3.0304   -1.1973 C   0  0  0  0  0  0  0  0  0  0  0  0
    3.7862    0.2723   -0.0156 C   0  0  0  0  0  0  0  0  0  0  0  0
    4.6687    0.6258   -1.1936 C   0  0  0  0  0  0  0  0  0  0  0  0
    0.3392   -0.5477   -1.2663 H   0  0  0  0  0  0  0  0  0  0  0  0
   -0.3414    0.3037    2.1777 H   0  0  0  0  0  0  0  0  0  0  0  0
    0.7523   -3.0766   -1.6837 H   0  0  0  0  0  0  0  0  0  0  0  0
   -0.5311   -4.0419   -0.9163 H   0  0  0  0  0  0  0  0  0  0  0  0
   -0.9688   -2.6174   -1.8831 H   0  0  0  0  0  0  0  0  0  0  0  0
    3.7258    1.1246    0.6705 H   0  0  0  0  0  0  0  0  0  0  0  0
    4.2031   -0.5920    0.5132 H   0  0  0  0  0  0  0  0  0  0  0  0
    5.6805    0.8768   -0.8630 H   0  0  0  0  0  0  0  0  0  0  0  0
    4.7240   -0.2105   -1.8983 H   0  0  0  0  0  0  0  0  0  0  0  0
    4.2546    1.4776   -1.7432 H   0  0  0  0  0  0  0  0  0  0  0  0
  1 13  1  0  0  0  0
  2 13  1  0  0  0  0
  3 13  1  0  0  0  0
  4 14  1  0  0  0  0
  5 14  1  0  0  0  0
  6 14  1  0  0  0  0
  7 11  1  0  0  0  0
  7 21  1  0  0  0  0
  8 16  1  0  0  0  0
  8 18  1  0  0  0  0
  9 15  2  0  0  0  0
 10 16  2  0  0  0  0
 11 12  1  0  0  0  0
 11 13  1  0  0  0  0
 11 14  1  0  0  0  0
 12 15  1  0  0  0  0
 12 16  1  0  0  0  0
 12 20  1  0  0  0  0
 15 17  1  0  0  0  0
 17 22  1  0  0  0  0
 17 23  1  0  0  0  0
 17 24  1  0  0  0  0
 18 19  1  0  0  0  0
 18 25  1  0  0  0  0
 18 26  1  0  0  0  0
 19 27  1  0  0  0  0
 19 28  1  0  0  0  0
 19 29  1  0  0  0  0
M  END
> <PUBCHEM_COMPOUND_CID>
12678

> <PUBCHEM_CONFORMER_RMSD>
0.8

> <PUBCHEM_CONFORMER_DIVERSEORDER>
1
31
19
4
11
27
21
15
16
26
12
18
28
17
22
34
24
20
10
25
33
35
36
23
6
5
8
30
32
7
9
29
13
14
2
3

> <PUBCHEM_MMFF94_PARTIAL_CHARGES>
19
1 -0.34
10 -0.57
11 0.28
12 0.12
13 1.02
14 1.02
15 0.45
16 0.66
17 0.06
18 0.28
2 -0.34
21 0.4
3 -0.34
4 -0.34
5 -0.34
6 -0.34
7 -0.68
8 -0.43
9 -0.57

> <PUBCHEM_EFFECTIVE_ROTOR_COUNT>
7

> <PUBCHEM_PHARMACOPHORE_FEATURES>
5
1 10 acceptor
1 12 anion
1 7 acceptor
1 7 donor
1 9 acceptor

> <PUBCHEM_HEAVY_ATOM_COUNT>
19

> <PUBCHEM_ATOM_DEF_STEREO_COUNT>
0

> <PUBCHEM_ATOM_UDEF_STEREO_COUNT>
1

> <PUBCHEM_BOND_DEF_STEREO_COUNT>
0

> <PUBCHEM_BOND_UDEF_STEREO_COUNT>
0

> <PUBCHEM_ISOTOPIC_ATOM_COUNT>
0

> <PUBCHEM_COMPONENT_COUNT>
1

> <PUBCHEM_CACTVS_TAUTO_COUNT>
5

> <PUBCHEM_CONFORMER_ID>
0000318600000001

> <PUBCHEM_MMFF94_ENERGY>
30.5147

> <PUBCHEM_FEATURE_SELFOVERLAP>
25.376

> <PUBCHEM_SHAPE_FINGERPRINT>
11680986 33 17833552293108307475
116883 192 17538583010190502767
12423570 1 5275073490461869971
13024252 1 16200149846439538378
13027679 85 18121209879378494420
13380535 220 18051700944809091111
13380536 55 17907301296727912388
14614273 12 18197504140815738756
14993402 34 18411141294496769070
15775835 57 18131351920956965308
16945 1 18115326504448500187
17492 54 18271537402777534015
20645476 183 17846782879866066002
20871999 31 18267023864664548526
21501502 16 17903642122141229321
21524375 3 18340488992800304890
22344851 12 9766143705717734370
22802520 49 18187074028097612614
23402539 116 18335146392854880910
23419403 2 17317045736703839194
23557571 272 18046344133518601592
2748010 2 17903929855027708608
4175511 318 18059852831739706062
528886 8 18409175428152274297
53812653 8 18411984701783337384
589210 1 17689155604148624582
7364860 26 17685497945733317974
81228 2 18266744588974688058

> <PUBCHEM_SHAPE_MULTIPOLES>
323.89
4.86
2.73
1.33
6.15
0.98
-0.07
-1.27
1.65
-1.24
0.17
0.04
0.17
-0.21

> <PUBCHEM_SHAPE_SELFOVERLAP>
660.412

> <PUBCHEM_SHAPE_VOLUME>
187.4

> <PUBCHEM_COORDINATE_TYPE>
2
5
10

$$$$

