27653
  -OEChem-07051213102D

 25 22  0     1  0  0  0  0  0999 V2000
    6.0010   -0.2500    0.0000 Zn  0  0  0  0  0  0  0  0  0  0  0  0
    6.8671    0.2500    0.0000 O   0  0  0  0  0  0  0  0  0  0  0  0
    5.1350    0.2500    0.0000 O   0  0  0  0  0  0  0  0  0  0  0  0
    9.4651   -0.2500    0.0000 O   0  0  0  0  0  0  0  0  0  0  0  0
    2.5369   -0.2500    0.0000 O   0  0  0  0  0  0  0  0  0  0  0  0
    7.7331   -1.2500    0.0000 O   0  0  0  0  0  0  0  0  0  0  0  0
    4.2690   -1.2500    0.0000 O   0  0  0  0  0  0  0  0  0  0  0  0
    8.5991    0.2500    0.0000 C   0  0  3  0  0  0  0  0  0  0  0  0
    3.4030    0.2500    0.0000 C   0  0  3  0  0  0  0  0  0  0  0  0
    8.5991    1.2500    0.0000 C   0  0  0  0  0  0  0  0  0  0  0  0
    3.4030    1.2500    0.0000 C   0  0  0  0  0  0  0  0  0  0  0  0
    4.2690   -0.2500    0.0000 C   0  0  0  0  0  0  0  0  0  0  0  0
    7.7331   -0.2500    0.0000 C   0  0  0  0  0  0  0  0  0  0  0  0
    8.5991   -0.6000    0.0000 H   0  0  0  0  0  0  0  0  0  0  0  0
    3.4030   -0.6000    0.0000 H   0  0  0  0  0  0  0  0  0  0  0  0
    9.2191    1.2500    0.0000 H   0  0  0  0  0  0  0  0  0  0  0  0
    8.5991    1.8700    0.0000 H   0  0  0  0  0  0  0  0  0  0  0  0
    7.9791    1.2500    0.0000 H   0  0  0  0  0  0  0  0  0  0  0  0
    4.0230    1.2500    0.0000 H   0  0  0  0  0  0  0  0  0  0  0  0
    3.4030    1.8700    0.0000 H   0  0  0  0  0  0  0  0  0  0  0  0
    2.7830    1.2500    0.0000 H   0  0  0  0  0  0  0  0  0  0  0  0
    6.8671    0.8700    0.0000 H   0  0  0  0  0  0  0  0  0  0  0  0
    5.1350    0.8700    0.0000 H   0  0  0  0  0  0  0  0  0  0  0  0
   10.0021    0.0600    0.0000 H   0  0  0  0  0  0  0  0  0  0  0  0
    2.0000    0.0600    0.0000 H   0  0  0  0  0  0  0  0  0  0  0  0
  2 13  1  0  0  0  0
  2 22  1  0  0  0  0
  3 12  1  0  0  0  0
  3 23  1  0  0  0  0
  4  8  1  0  0  0  0
  4 24  1  0  0  0  0
  5  9  1  0  0  0  0
  5 25  1  0  0  0  0
  6 13  2  0  0  0  0
  7 12  2  0  0  0  0
  8 10  1  0  0  0  0
  8 13  1  0  0  0  0
  8 14  1  0  0  0  0
  9 11  1  0  0  0  0
  9 12  1  0  0  0  0
  9 15  1  0  0  0  0
 10 16  1  0  0  0  0
 10 17  1  0  0  0  0
 10 18  1  0  0  0  0
 11 19  1  0  0  0  0
 11 20  1  0  0  0  0
 11 21  1  0  0  0  0
M  END
> <PUBCHEM_COMPOUND_CID>
27653

> <PUBCHEM_COMPOUND_CANONICALIZED>
1

> <PUBCHEM_CACTVS_COMPLEXITY>
141

> <PUBCHEM_CACTVS_HBOND_ACCEPTOR>
6

> <PUBCHEM_CACTVS_HBOND_DONOR>
4

> <PUBCHEM_CACTVS_ROTATABLE_BOND>
2

> <PUBCHEM_CACTVS_SUBSKEYS>
AAADccBgOAAAAAACAAAAAAAAAAAAAAAAAAAAAAAAAAAAAAAAAAAAGgAACAAACBSggAICCAAAAgAIAACQCAIAAAAAAAAAAAFAAAABEAAAAAAAQAAAAAABAAAAAAAAAAAAAAAAAAAAAAAAAAAAAAAAAAAAAA==

> <PUBCHEM_IUPAC_OPENEYE_NAME>
2-hydroxypropanoic acid; zinc

> <PUBCHEM_IUPAC_CAS_NAME>
2-hydroxypropanoic acid; zinc

> <PUBCHEM_IUPAC_NAME>
2-hydroxypropanoic acid; zinc

> <PUBCHEM_IUPAC_SYSTEMATIC_NAME>
2-oxidanylpropanoic acid; zinc

> <PUBCHEM_IUPAC_TRADITIONAL_NAME>
lactic acid; zinc

> <PUBCHEM_IUPAC_INCHI>
InChI=1S/2C3H6O3.Zn/c2*1-2(4)3(5)6;/h2*2,4H,1H3,(H,5,6);

> <PUBCHEM_IUPAC_INCHIKEY>
GWUDZEJIEQLLHN-UHFFFAOYSA-N

> <PUBCHEM_EXACT_MASS>
243.99253

> <PUBCHEM_MOLECULAR_FORMULA>
C6H12O6Zn

> <PUBCHEM_MOLECULAR_WEIGHT>
245.53588

> <PUBCHEM_OPENEYE_CAN_SMILES>
CC(C(=O)O)O.CC(C(=O)O)O.[Zn]

> <PUBCHEM_OPENEYE_ISO_SMILES>
CC(C(=O)O)O.CC(C(=O)O)O.[Zn]

> <PUBCHEM_CACTVS_TPSA>
115

> <PUBCHEM_MONOISOTOPIC_WEIGHT>
243.99253

> <PUBCHEM_TOTAL_CHARGE>
0

> <PUBCHEM_HEAVY_ATOM_COUNT>
13

> <PUBCHEM_ATOM_DEF_STEREO_COUNT>
0

> <PUBCHEM_ATOM_UDEF_STEREO_COUNT>
2

> <PUBCHEM_BOND_DEF_STEREO_COUNT>
0

> <PUBCHEM_BOND_UDEF_STEREO_COUNT>
0

> <PUBCHEM_ISOTOPIC_ATOM_COUNT>
0

> <PUBCHEM_COMPONENT_COUNT>
3

> <PUBCHEM_CACTVS_TAUTO_COUNT>
3

> <PUBCHEM_NONSTANDARDBOND>
1  2  6
1  3  6

> <PUBCHEM_COORDINATE_TYPE>
1
5
255

> <PUBCHEM_BONDANNOTATIONS>
8  14  3
9  15  3

$$$$

