442885
  -OEChem-07051213003D

 51 54  0     1  0  0  0  0  0999 V2000
   -0.2256    0.3187    1.0059 O   0  0  0  0  0  0  0  0  0  0  0  0
   -1.7878    1.9635   -1.7926 O   0  0  0  0  0  0  0  0  0  0  0  0
   -0.2695    2.5589    0.3160 O   0  0  0  0  0  0  0  0  0  0  0  0
   -3.8896    0.3129    2.4408 O   0  0  0  0  0  0  0  0  0  0  0  0
    4.9541    1.0783   -0.0226 O   0  0  0  0  0  0  0  0  0  0  0  0
    5.8269   -1.1380    0.3434 O   0  0  0  0  0  0  0  0  0  0  0  0
   -1.4773    0.8716   -0.9350 C   0  0  2  0  0  0  0  0  0  0  0  0
   -1.0524    1.3676    0.4563 C   0  0  1  0  0  0  0  0  0  0  0  0
   -0.1789    0.1756   -1.3730 C   0  0  1  0  0  0  0  0  0  0  0  0
    0.2604   -0.5107   -0.0732 C   0  0  1  0  0  0  0  0  0  0  0  0
   -2.2132    1.6548    1.3967 C   0  0  0  0  0  0  0  0  0  0  0  0
   -2.6871   -0.0308   -0.8857 C   0  0  0  0  0  0  0  0  0  0  0  0
   -0.2691   -0.7729   -2.5638 C   0  0  0  0  0  0  0  0  0  0  0  0
   -3.4826   -0.2306    0.1753 C   0  0  0  0  0  0  0  0  0  0  0  0
    1.7510   -0.7158    0.0439 C   0  0  0  0  0  0  0  0  0  0  0  0
   -3.2310    0.5385    1.4258 C   0  0  0  0  0  0  0  0  0  0  0  0
   -4.6427   -1.1761    0.1645 C   0  0  0  0  0  0  0  0  0  0  0  0
    2.6156    0.3787   -0.0599 C   0  0  0  0  0  0  0  0  0  0  0  0
   -2.1003    1.5216   -3.1064 C   0  0  0  0  0  0  0  0  0  0  0  0
    2.2638   -2.0094    0.2577 C   0  0  0  0  0  0  0  0  0  0  0  0
    0.2430    2.9832    1.5671 C   0  0  0  0  0  0  0  0  0  0  0  0
    3.9701    0.1413    0.0536 C   0  0  0  0  0  0  0  0  0  0  0  0
    3.6400   -2.2223    0.3693 C   0  0  0  0  0  0  0  0  0  0  0  0
    4.4685   -1.1242    0.2625 C   0  0  0  0  0  0  0  0  0  0  0  0
   -4.2422   -2.5582    0.5758 C   0  0  0  0  0  0  0  0  0  0  0  0
    6.1278    0.2607    0.1624 C   0  0  0  0  0  0  0  0  0  0  0  0
   -4.3722   -3.6370   -0.2049 C   0  0  0  0  0  0  0  0  0  0  0  0
    0.5362    0.9562   -1.6669 H   0  0  0  0  0  0  0  0  0  0  0  0
   -0.2550   -1.4738    0.0342 H   0  0  0  0  0  0  0  0  0  0  0  0
   -2.7313    2.5810    1.1221 H   0  0  0  0  0  0  0  0  0  0  0  0
   -1.8571    1.7558    2.4292 H   0  0  0  0  0  0  0  0  0  0  0  0
   -2.9228   -0.6426   -1.7518 H   0  0  0  0  0  0  0  0  0  0  0  0
   -1.0345   -1.5431   -2.4363 H   0  0  0  0  0  0  0  0  0  0  0  0
   -0.4219   -0.2780   -3.5215 H   0  0  0  0  0  0  0  0  0  0  0  0
    0.6825   -1.3087   -2.6701 H   0  0  0  0  0  0  0  0  0  0  0  0
   -5.4406   -0.8217    0.8281 H   0  0  0  0  0  0  0  0  0  0  0  0
   -5.0936   -1.1904   -0.8369 H   0  0  0  0  0  0  0  0  0  0  0  0
    2.2517    1.3877   -0.2152 H   0  0  0  0  0  0  0  0  0  0  0  0
   -2.8056    2.2547   -3.5148 H   0  0  0  0  0  0  0  0  0  0  0  0
   -2.5735    0.5509   -3.2411 H   0  0  0  0  0  0  0  0  0  0  0  0
   -1.2076    1.6110   -3.7319 H   0  0  0  0  0  0  0  0  0  0  0  0
    1.5921   -2.8606    0.3381 H   0  0  0  0  0  0  0  0  0  0  0  0
    1.0195    3.7277    1.3646 H   0  0  0  0  0  0  0  0  0  0  0  0
    0.7106    2.1778    2.1409 H   0  0  0  0  0  0  0  0  0  0  0  0
   -0.5252    3.4878    2.1602 H   0  0  0  0  0  0  0  0  0  0  0  0
    4.0366   -3.2177    0.5334 H   0  0  0  0  0  0  0  0  0  0  0  0
   -3.8389   -2.6897    1.5770 H   0  0  0  0  0  0  0  0  0  0  0  0
    6.6702    0.6200    1.0445 H   0  0  0  0  0  0  0  0  0  0  0  0
    6.7736    0.3699   -0.7164 H   0  0  0  0  0  0  0  0  0  0  0  0
   -4.0711   -4.6147    0.1554 H   0  0  0  0  0  0  0  0  0  0  0  0
   -4.7759   -3.5664   -1.2087 H   0  0  0  0  0  0  0  0  0  0  0  0
  1  8  1  0  0  0  0
  1 10  1  0  0  0  0
  2  7  1  0  0  0  0
  2 19  1  0  0  0  0
  3  8  1  0  0  0  0
  3 21  1  0  0  0  0
  4 16  2  0  0  0  0
  5 22  1  0  0  0  0
  5 26  1  0  0  0  0
  6 24  1  0  0  0  0
  6 26  1  0  0  0  0
  7  8  1  0  0  0  0
  7  9  1  0  0  0  0
  7 12  1  0  0  0  0
  8 11  1  0  0  0  0
  9 10  1  0  0  0  0
  9 13  1  0  0  0  0
  9 28  1  0  0  0  0
 10 15  1  0  0  0  0
 10 29  1  0  0  0  0
 11 16  1  0  0  0  0
 11 30  1  0  0  0  0
 11 31  1  0  0  0  0
 12 14  2  0  0  0  0
 12 32  1  0  0  0  0
 13 33  1  0  0  0  0
 13 34  1  0  0  0  0
 13 35  1  0  0  0  0
 14 16  1  0  0  0  0
 14 17  1  0  0  0  0
 15 18  2  0  0  0  0
 15 20  1  0  0  0  0
 17 25  1  0  0  0  0
 17 36  1  0  0  0  0
 17 37  1  0  0  0  0
 18 22  1  0  0  0  0
 18 38  1  0  0  0  0
 19 39  1  0  0  0  0
 19 40  1  0  0  0  0
 19 41  1  0  0  0  0
 20 23  2  0  0  0  0
 20 42  1  0  0  0  0
 21 43  1  0  0  0  0
 21 44  1  0  0  0  0
 21 45  1  0  0  0  0
 22 24  2  0  0  0  0
 23 24  1  0  0  0  0
 23 46  1  0  0  0  0
 25 27  2  0  0  0  0
 25 47  1  0  0  0  0
 26 48  1  0  0  0  0
 26 49  1  0  0  0  0
 27 50  1  0  0  0  0
 27 51  1  0  0  0  0
M  END
> <PUBCHEM_COMPOUND_CID>
442885

> <PUBCHEM_CONFORMER_RMSD>
0.8

> <PUBCHEM_CONFORMER_DIVERSEORDER>
1
5
17
18
6
15
8
13
14
4
12
10
16
2
11
9
7
3

> <PUBCHEM_MMFF94_PARTIAL_CHARGES>
32
1 -0.56
10 0.42
11 0.06
12 -0.29
14 -0.12
15 -0.14
16 0.49
17 0.28
18 -0.15
19 0.28
2 -0.56
20 -0.15
21 0.28
22 0.08
23 -0.15
24 0.08
25 -0.29
26 0.56
27 -0.3
3 -0.56
32 0.15
38 0.15
4 -0.57
42 0.15
46 0.15
47 0.15
5 -0.36
50 0.15
51 0.15
6 -0.36
7 0.42
8 0.56

> <PUBCHEM_EFFECTIVE_ROTOR_COUNT>
6.4

> <PUBCHEM_PHARMACOPHORE_FEATURES>
11
1 1 acceptor
1 2 acceptor
1 27 hydrophobe
1 3 acceptor
1 4 acceptor
1 5 acceptor
1 6 acceptor
5 1 7 8 9 10 rings
5 5 6 22 24 26 rings
6 15 18 20 22 23 24 rings
6 7 8 11 12 14 16 rings

> <PUBCHEM_HEAVY_ATOM_COUNT>
27

> <PUBCHEM_ATOM_DEF_STEREO_COUNT>
4

> <PUBCHEM_ATOM_UDEF_STEREO_COUNT>
0

> <PUBCHEM_BOND_DEF_STEREO_COUNT>
0

> <PUBCHEM_BOND_UDEF_STEREO_COUNT>
0

> <PUBCHEM_ISOTOPIC_ATOM_COUNT>
0

> <PUBCHEM_COMPONENT_COUNT>
1

> <PUBCHEM_CACTVS_TAUTO_COUNT>
2

> <PUBCHEM_CONFORMER_ID>
0006C20500000001

> <PUBCHEM_MMFF94_ENERGY>
88.1874

> <PUBCHEM_FEATURE_SELFOVERLAP>
56.303

> <PUBCHEM_SHAPE_FINGERPRINT>
10366900 7 15123505939572293620
10906281 52 17677603341146903897
10948715 1 8502386529000791957
11045515 52 18201721768820639324
11135609 12 17127598775664213891
11552529 35 18113622257394860819
11578080 2 18271251538925099565
12166972 35 18131912659735790228
12236239 1 17967816076485500226
12553582 1 17749969824752559020
12633257 1 18260534637590196739
12969540 37 18050572846169338083
13103583 49 17896021192802403195
13224815 77 18339082704580218832
13544653 18 18130780157609456747
13583140 156 18341061821088654726
13782708 43 17489306464753249914
14341114 328 18261661645223957810
14787075 74 18342454786293808034
14955137 171 17168411684602511528
15183329 4 8286208210637292642
15927050 60 17251181610192611012
17349148 13 13398620680491967618
17357779 13 16774076258848142991
17492 89 18191586561231111114
17980427 23 17240473733239151833
1813 80 17917128564548940895
19489759 90 15482672398884327564
200 152 18342741840227112770
20775530 9 18054516811880475491
21756936 100 17603872217301610730
23402539 116 16415480458407109079
23419403 2 18265351520753895733
23559900 14 18264498291261983537
23598288 3 17897733290893176956
3009799 131 15698006197622966015
3380486 145 18273205426890050709
392239 28 18409160000640492074
469060 322 18059579048864805958
497634 4 18409444803926524244
5104073 3 18114748239280233026
53917941 68 15123243190288860829
6913067 236 17846224310937223864
7226269 152 12895078409550264246

> <PUBCHEM_SHAPE_MULTIPOLES>
520.43
10.79
2.94
1.96
11.98
0.84
1.3
6.27
-2.69
-2.44
-0.57
-2.24
-1.11
0.14

> <PUBCHEM_SHAPE_SELFOVERLAP>
1134.373

> <PUBCHEM_SHAPE_VOLUME>
283.4

> <PUBCHEM_COORDINATE_TYPE>
2
5
10

$$$$

