10070
  -OEChem-06261204173D

 84 89  0     1  0  0  0  0  0999 V2000
    3.9903    1.1257   -1.0485 O   0  0  0  0  0  0  0  0  0  0  0  0
   -3.7070   -1.0323    0.0561 O   0  0  0  0  0  0  0  0  0  0  0  0
    8.5011    0.4683    0.0729 O   0  0  0  0  0  0  0  0  0  0  0  0
   -5.5714   -0.6043    1.4096 O   0  0  0  0  0  0  0  0  0  0  0  0
    8.3931    2.6597   -0.6214 O   0  0  0  0  0  0  0  0  0  0  0  0
   -6.0785   -1.3553   -1.3254 O   0  0  0  0  0  0  0  0  0  0  0  0
   -6.4459    2.2052   -0.6104 O   0  0  0  0  0  0  0  0  0  0  0  0
   -8.6700    1.3068    0.8265 O   0  0  0  0  0  0  0  0  0  0  0  0
    3.2113    0.3067   -0.1631 C   0  0  1  0  0  0  0  0  0  0  0  0
    1.9055   -0.0986   -0.9060 C   0  0  1  0  0  0  0  0  0  0  0  0
    1.0763   -1.1791   -0.1504 C   0  0  1  0  0  0  0  0  0  0  0  0
    4.0778   -0.9040    0.2809 C   0  0  2  0  0  0  0  0  0  0  0  0
   -0.2432   -1.5809   -0.9185 C   0  0  2  0  0  0  0  0  0  0  0  0
   -1.0781   -0.2979   -1.2342 C   0  0  2  0  0  0  0  0  0  0  0  0
    1.9716   -2.3812    0.2068 C   0  0  0  0  0  0  0  0  0  0  0  0
    3.2022   -1.9593    1.0064 C   0  0  0  0  0  0  0  0  0  0  0  0
    5.0618   -0.2707    1.3160 C   0  0  2  0  0  0  0  0  0  0  0  0
    1.0402    1.1291   -1.2541 C   0  0  0  0  0  0  0  0  0  0  0  0
    3.0013    1.0947    1.1442 C   0  0  0  0  0  0  0  0  0  0  0  0
   -0.2488    0.7575   -1.9792 C   0  0  0  0  0  0  0  0  0  0  0  0
    4.2285    0.8148    2.0229 C   0  0  0  0  0  0  0  0  0  0  0  0
   -1.1381   -2.5549   -0.0956 C   0  0  0  0  0  0  0  0  0  0  0  0
   -1.7258    0.3217    0.0276 C   0  0  0  0  0  0  0  0  0  0  0  0
    4.8132   -1.5882   -0.8905 C   0  0  0  0  0  0  0  0  0  0  0  0
    0.0842   -2.3194   -2.2432 C   0  0  0  0  0  0  0  0  0  0  0  0
   -1.7519   -1.9325    1.1570 C   0  0  0  0  0  0  0  0  0  0  0  0
   -2.5568   -0.6811    0.8227 C   0  0  2  0  0  0  0  0  0  0  0  0
    6.3197    0.3262    0.7528 C   0  0  0  0  0  0  0  0  0  0  0  0
    7.5697   -0.4536    0.6489 C   0  0  0  0  0  0  0  0  0  0  0  0
    6.4855    1.5641    0.2947 C   0  0  0  0  0  0  0  0  0  0  0  0
   -4.7919   -0.1403    0.3063 C   0  0  2  0  0  0  0  0  0  0  0  0
    7.8789    1.6639   -0.1421 C   0  0  0  0  0  0  0  0  0  0  0  0
   -5.6419   -0.0439   -0.9657 C   0  0  2  0  0  0  0  0  0  0  0  0
   -6.8623    0.8492   -0.7396 C   0  0  1  0  0  0  0  0  0  0  0  0
   -6.6927    0.2231    1.7407 C   0  0  2  0  0  0  0  0  0  0  0  0
   -7.6116    0.4076    0.5235 C   0  0  1  0  0  0  0  0  0  0  0  0
   -6.2482    1.5091    2.4374 C   0  0  0  0  0  0  0  0  0  0  0  0
   -5.7482    2.6442   -1.7661 C   0  0  0  0  0  0  0  0  0  0  0  0
    2.2171   -0.5284   -1.8671 H   0  0  0  0  0  0  0  0  0  0  0  0
    0.7696   -0.7363    0.8042 H   0  0  0  0  0  0  0  0  0  0  0  0
   -1.9039   -0.5814   -1.9028 H   0  0  0  0  0  0  0  0  0  0  0  0
    2.2872   -2.9142   -0.6952 H   0  0  0  0  0  0  0  0  0  0  0  0
    1.4177   -3.1013    0.8173 H   0  0  0  0  0  0  0  0  0  0  0  0
    2.8612   -1.5826    1.9790 H   0  0  0  0  0  0  0  0  0  0  0  0
    3.8043   -2.8492    1.2319 H   0  0  0  0  0  0  0  0  0  0  0  0
    5.3664   -1.0153    2.0639 H   0  0  0  0  0  0  0  0  0  0  0  0
    0.7949    1.6901   -0.3457 H   0  0  0  0  0  0  0  0  0  0  0  0
    1.6102    1.8166   -1.8908 H   0  0  0  0  0  0  0  0  0  0  0  0
    2.9163    2.1710    0.9561 H   0  0  0  0  0  0  0  0  0  0  0  0
    2.1016    0.7810    1.6825 H   0  0  0  0  0  0  0  0  0  0  0  0
   -0.0011    0.3911   -2.9826 H   0  0  0  0  0  0  0  0  0  0  0  0
   -0.8484    1.6631   -2.1340 H   0  0  0  0  0  0  0  0  0  0  0  0
    3.8785    0.4261    2.9886 H   0  0  0  0  0  0  0  0  0  0  0  0
    4.7709    1.7344    2.2663 H   0  0  0  0  0  0  0  0  0  0  0  0
   -1.9599   -2.9093   -0.7341 H   0  0  0  0  0  0  0  0  0  0  0  0
   -0.5863   -3.4584    0.1842 H   0  0  0  0  0  0  0  0  0  0  0  0
   -0.9582    0.7339    0.6915 H   0  0  0  0  0  0  0  0  0  0  0  0
   -2.3487    1.1676   -0.2865 H   0  0  0  0  0  0  0  0  0  0  0  0
    5.4158   -2.4299   -0.5313 H   0  0  0  0  0  0  0  0  0  0  0  0
    5.4792   -0.9129   -1.4355 H   0  0  0  0  0  0  0  0  0  0  0  0
    4.1106   -1.9858   -1.6296 H   0  0  0  0  0  0  0  0  0  0  0  0
    0.5403   -3.2971   -2.0553 H   0  0  0  0  0  0  0  0  0  0  0  0
    0.7633   -1.7584   -2.8894 H   0  0  0  0  0  0  0  0  0  0  0  0
   -0.8289   -2.5029   -2.8221 H   0  0  0  0  0  0  0  0  0  0  0  0
   -0.9675   -1.6943    1.8836 H   0  0  0  0  0  0  0  0  0  0  0  0
   -2.4095   -2.6752    1.6247 H   0  0  0  0  0  0  0  0  0  0  0  0
   -2.8678   -0.2310    1.7752 H   0  0  0  0  0  0  0  0  0  0  0  0
    4.0222    0.6967   -1.9198 H   0  0  0  0  0  0  0  0  0  0  0  0
    7.4869   -1.3228   -0.0071 H   0  0  0  0  0  0  0  0  0  0  0  0
    7.9431   -0.7661    1.6286 H   0  0  0  0  0  0  0  0  0  0  0  0
    5.7862    2.3801    0.2413 H   0  0  0  0  0  0  0  0  0  0  0  0
   -4.4040    0.8581    0.5372 H   0  0  0  0  0  0  0  0  0  0  0  0
   -5.0140    0.2838   -1.7984 H   0  0  0  0  0  0  0  0  0  0  0  0
   -7.5607    0.7824   -1.5844 H   0  0  0  0  0  0  0  0  0  0  0  0
   -7.2620   -0.3367    2.4940 H   0  0  0  0  0  0  0  0  0  0  0  0
   -8.0693   -0.5659    0.3029 H   0  0  0  0  0  0  0  0  0  0  0  0
   -5.2865   -1.9129   -1.4130 H   0  0  0  0  0  0  0  0  0  0  0  0
   -5.5948    1.2679    3.2833 H   0  0  0  0  0  0  0  0  0  0  0  0
   -7.1059    2.0721    2.8178 H   0  0  0  0  0  0  0  0  0  0  0  0
   -5.6723    2.1683    1.7837 H   0  0  0  0  0  0  0  0  0  0  0  0
   -9.1339    0.9620    1.6085 H   0  0  0  0  0  0  0  0  0  0  0  0
   -5.7982    3.7373   -1.7855 H   0  0  0  0  0  0  0  0  0  0  0  0
   -6.1991    2.2730   -2.6923 H   0  0  0  0  0  0  0  0  0  0  0  0
   -4.6889    2.3780   -1.7071 H   0  0  0  0  0  0  0  0  0  0  0  0
  1  9  1  0  0  0  0
  1 68  1  0  0  0  0
  2 27  1  0  0  0  0
  2 31  1  0  0  0  0
  3 29  1  0  0  0  0
  3 32  1  0  0  0  0
  4 31  1  0  0  0  0
  4 35  1  0  0  0  0
  5 32  2  0  0  0  0
  6 33  1  0  0  0  0
  6 77  1  0  0  0  0
  7 34  1  0  0  0  0
  7 38  1  0  0  0  0
  8 36  1  0  0  0  0
  8 81  1  0  0  0  0
  9 10  1  0  0  0  0
  9 12  1  0  0  0  0
  9 19  1  0  0  0  0
 10 11  1  0  0  0  0
 10 18  1  0  0  0  0
 10 39  1  0  0  0  0
 11 13  1  0  0  0  0
 11 15  1  0  0  0  0
 11 40  1  0  0  0  0
 12 16  1  0  0  0  0
 12 17  1  0  0  0  0
 12 24  1  0  0  0  0
 13 14  1  0  0  0  0
 13 22  1  0  0  0  0
 13 25  1  0  0  0  0
 14 20  1  0  0  0  0
 14 23  1  0  0  0  0
 14 41  1  0  0  0  0
 15 16  1  0  0  0  0
 15 42  1  0  0  0  0
 15 43  1  0  0  0  0
 16 44  1  0  0  0  0
 16 45  1  0  0  0  0
 17 21  1  0  0  0  0
 17 28  1  0  0  0  0
 17 46  1  0  0  0  0
 18 20  1  0  0  0  0
 18 47  1  0  0  0  0
 18 48  1  0  0  0  0
 19 21  1  0  0  0  0
 19 49  1  0  0  0  0
 19 50  1  0  0  0  0
 20 51  1  0  0  0  0
 20 52  1  0  0  0  0
 21 53  1  0  0  0  0
 21 54  1  0  0  0  0
 22 26  1  0  0  0  0
 22 55  1  0  0  0  0
 22 56  1  0  0  0  0
 23 27  1  0  0  0  0
 23 57  1  0  0  0  0
 23 58  1  0  0  0  0
 24 59  1  0  0  0  0
 24 60  1  0  0  0  0
 24 61  1  0  0  0  0
 25 62  1  0  0  0  0
 25 63  1  0  0  0  0
 25 64  1  0  0  0  0
 26 27  1  0  0  0  0
 26 65  1  0  0  0  0
 26 66  1  0  0  0  0
 27 67  1  0  0  0  0
 28 29  1  0  0  0  0
 28 30  2  0  0  0  0
 29 69  1  0  0  0  0
 29 70  1  0  0  0  0
 30 32  1  0  0  0  0
 30 71  1  0  0  0  0
 31 33  1  0  0  0  0
 31 72  1  0  0  0  0
 33 34  1  0  0  0  0
 33 73  1  0  0  0  0
 34 36  1  0  0  0  0
 34 74  1  0  0  0  0
 35 36  1  0  0  0  0
 35 37  1  0  0  0  0
 35 75  1  0  0  0  0
 36 76  1  0  0  0  0
 37 78  1  0  0  0  0
 37 79  1  0  0  0  0
 37 80  1  0  0  0  0
 38 82  1  0  0  0  0
 38 83  1  0  0  0  0
 38 84  1  0  0  0  0
M  END
> <PUBCHEM_COMPOUND_CID>
10070

> <PUBCHEM_CONFORMER_RMSD>
1

> <PUBCHEM_CONFORMER_DIVERSEORDER>
22
41
222
153
241
87
203
12
21
40
183
246
169
83
193
204
186
113
96
4
206
200
130
107
88
140
227
226
35
135
45
58
168
137
233
49
158
121
117
174
9
103
46
164
73
171
149
79
91
72
194
215
155
180
62
61
19
106
89
82
132
63
232
31
30
115
231
208
195
123
50
95
85
148
55
104
134
235
120
98
37
223
212
234
242
17
111
250
160
64
249
23
138
254
76
170
39
165
54
216
52
185
224
240
56
218
238
94
253
237
243
57
109
187
127
228
42
116
207
75
133
110
38
86
152
18
122
25
230
69
202
144
47
36
178
192
161
44
68
136
139
189
179
248
59
93
196
108
32
101
167
28
209
126
118
48
67
219
191
128
236
251
197
172
201
239
190
245
102
20
125
78
114
151
65
156
143
1
159
198
71
7
210
90
220
14
221
181
244
74
175
213
124
177
33
184
173
154
92
11
51
66
166
199
225
5
162
176
15
188
247
211
16
24
84
131
146
100
53
60
10
150
29
70
43
6
252
217
112
2
34
97
3
27
119
182
205
145
105
8
229
157
77
214
142
129
80
141
26
163
99
81
13
147

> <PUBCHEM_MMFF94_PARTIAL_CHARGES>
25
1 -0.68
17 0.14
2 -0.56
27 0.28
28 -0.28
29 0.42
3 -0.43
30 -0.14
31 0.56
32 0.71
33 0.28
34 0.28
35 0.28
36 0.28
38 0.28
4 -0.56
5 -0.57
6 -0.68
68 0.4
7 -0.56
71 0.15
77 0.4
8 -0.68
81 0.4
9 0.28

> <PUBCHEM_EFFECTIVE_ROTOR_COUNT>
7.8

> <PUBCHEM_PHARMACOPHORE_FEATURES>
16
1 1 acceptor
1 1 donor
1 2 acceptor
1 4 acceptor
1 5 acceptor
1 6 acceptor
1 6 donor
1 7 acceptor
1 8 acceptor
1 8 donor
5 3 28 29 30 32 rings
5 9 12 17 19 21 rings
6 10 11 13 14 18 20 rings
6 13 14 22 23 26 27 rings
6 4 31 33 34 35 36 rings
6 9 10 11 12 15 16 rings

> <PUBCHEM_HEAVY_ATOM_COUNT>
38

> <PUBCHEM_ATOM_DEF_STEREO_COUNT>
8

> <PUBCHEM_ATOM_UDEF_STEREO_COUNT>
5

> <PUBCHEM_BOND_DEF_STEREO_COUNT>
0

> <PUBCHEM_BOND_UDEF_STEREO_COUNT>
0

> <PUBCHEM_ISOTOPIC_ATOM_COUNT>
0

> <PUBCHEM_COMPONENT_COUNT>
1

> <PUBCHEM_CACTVS_TAUTO_COUNT>
1

> <PUBCHEM_CONFORMER_ID>
0000275600000016

> <PUBCHEM_MMFF94_ENERGY>
135.9084

> <PUBCHEM_FEATURE_SELFOVERLAP>
81.477

> <PUBCHEM_SHAPE_FINGERPRINT>
10 15 18202846551914087305
10165383 225 18408604752117410762
10533779 47 18200867495562140442
10625338 86 18201440293986255801
10670039 82 13984652672772825075
11181472 205 18040987484498067960
11297750 10 17838612611072160638
11386260 185 14923946705245231344
11456790 92 17917721201833556464
11828532 37 6338662050386471132
11991303 11 15068916239056363253
12422481 6 18201723994114371623
12522641 126 15141234507480674884
12539765 74 18187077344039342662
13150687 139 15357690885942374884
13673619 4 11600006539820138431
13690498 29 13912620351224312389
13782708 43 8358248263722815423
13811026 1 17989490744893304117
14856354 85 15864365614816354701
15021287 119 13182733754448851023
15183329 4 17603588534632381467
15301273 46 18131069359654436338
15461852 350 18041000592590718327
1577012 14 16950280732419678611
15799311 1 13254503315226590665
15840311 113 18201997699970062364
19315958 150 18413385454049347090
19841028 212 14117254905112820464
20105231 36 17275386513123703858
20156587 128 14779816226927616561
2026 5 9079110060458033593
21033648 29 18262254222410380762
21344244 246 7420686981200904324
23576562 1 15285938900318172425
24771293 8 18343586213670489214
25269216 80 15792027658361652621
3178227 256 17632859711902075160
3633792 109 17168134672487347894
4073 2 18334007290251212511
4093350 32 18040997379929015094
4169191 19 18408604781739070033
4353968 344 5616993114240416872
4403749 210 17988934396526163141
474113 269 14779810712764745548
5028188 123 18265608794238512950
504579 68 14779547889469822101
5219985 9 12247679370130212846
54039377 194 9871753490009710696
6086070 43 17241054201683574386
9962374 69 12319443356219685211

> <PUBCHEM_SHAPE_MULTIPOLES>
735.07
24.98
2.44
1.84
4.28
0.22
0.07
-16.32
5.33
-0.49
-0.57
1.83
-0.28
-0.15

> <PUBCHEM_SHAPE_SELFOVERLAP>
1576.367

> <PUBCHEM_SHAPE_VOLUME>
403.2

> <PUBCHEM_COORDINATE_TYPE>
2
5
10

$$$$

