12263
  -OEChem-06261206442D

 14 13  0     0  0  0  0  0  0999 V2000
    4.5981    1.0600    0.0000 O   0  0  0  0  0  0  0  0  0  0  0  0
    2.8660    1.0600    0.0000 O   0  0  0  0  0  0  0  0  0  0  0  0
    3.7320   -0.4400    0.0000 N   0  0  0  0  0  0  0  0  0  0  0  0
    4.5981    0.0600    0.0000 C   0  0  0  0  0  0  0  0  0  0  0  0
    2.8660    0.0600    0.0000 C   0  0  0  0  0  0  0  0  0  0  0  0
    5.4641   -0.4400    0.0000 C   0  0  0  0  0  0  0  0  0  0  0  0
    2.0000   -0.4400    0.0000 C   0  0  0  0  0  0  0  0  0  0  0  0
    3.7320   -1.0600    0.0000 H   0  0  0  0  0  0  0  0  0  0  0  0
    5.1541   -0.9769    0.0000 H   0  0  0  0  0  0  0  0  0  0  0  0
    6.0010   -0.7500    0.0000 H   0  0  0  0  0  0  0  0  0  0  0  0
    5.7741    0.0969    0.0000 H   0  0  0  0  0  0  0  0  0  0  0  0
    1.6900    0.0969    0.0000 H   0  0  0  0  0  0  0  0  0  0  0  0
    1.4631   -0.7500    0.0000 H   0  0  0  0  0  0  0  0  0  0  0  0
    2.3100   -0.9769    0.0000 H   0  0  0  0  0  0  0  0  0  0  0  0
  1  4  2  0  0  0  0
  2  5  2  0  0  0  0
  3  4  1  0  0  0  0
  3  5  1  0  0  0  0
  3  8  1  0  0  0  0
  4  6  1  0  0  0  0
  5  7  1  0  0  0  0
  6  9  1  0  0  0  0
  6 10  1  0  0  0  0
  6 11  1  0  0  0  0
  7 12  1  0  0  0  0
  7 13  1  0  0  0  0
  7 14  1  0  0  0  0
M  END
> <PUBCHEM_COMPOUND_CID>
12263

> <PUBCHEM_COMPOUND_CANONICALIZED>
1

> <PUBCHEM_CACTVS_COMPLEXITY>
85.9

> <PUBCHEM_CACTVS_HBOND_ACCEPTOR>
2

> <PUBCHEM_CACTVS_HBOND_DONOR>
1

> <PUBCHEM_CACTVS_ROTATABLE_BOND>
0

> <PUBCHEM_CACTVS_SUBSKEYS>
AAADcYBiMAAAAAAAAAAAAAAAAAAAAAAAAAAAAAAAAAAAAAAAAAAAHgAQAAAAAACBgAACAALAAAAIAAEQEAAAAAAAAAAAAAAAAAAAAAAAAAAAAAAAFCCAAAAAAAAAAAAAAAAAAAAAAAAAAAAAAAAAAAAAAA==

> <PUBCHEM_IUPAC_OPENEYE_NAME>
N-acetylacetamide

> <PUBCHEM_IUPAC_CAS_NAME>
N-acetylacetamide

> <PUBCHEM_IUPAC_NAME>
N-acetylacetamide

> <PUBCHEM_IUPAC_SYSTEMATIC_NAME>
N-ethanoylethanamide

> <PUBCHEM_IUPAC_TRADITIONAL_NAME>
diacetamide

> <PUBCHEM_IUPAC_INCHI>
InChI=1S/C4H7NO2/c1-3(6)5-4(2)7/h1-2H3,(H,5,6,7)

> <PUBCHEM_IUPAC_INCHIKEY>
ZSBDPRIWBYHIAF-UHFFFAOYSA-N

> <PUBCHEM_XLOGP3>
-1.4

> <PUBCHEM_EXACT_MASS>
101.047678

> <PUBCHEM_MOLECULAR_FORMULA>
C4H7NO2

> <PUBCHEM_MOLECULAR_WEIGHT>
101.10388

> <PUBCHEM_OPENEYE_CAN_SMILES>
CC(=O)NC(=O)C

> <PUBCHEM_OPENEYE_ISO_SMILES>
CC(=O)NC(=O)C

> <PUBCHEM_CACTVS_TPSA>
46.2

> <PUBCHEM_MONOISOTOPIC_WEIGHT>
101.047678

> <PUBCHEM_TOTAL_CHARGE>
0

> <PUBCHEM_HEAVY_ATOM_COUNT>
7

> <PUBCHEM_ATOM_DEF_STEREO_COUNT>
0

> <PUBCHEM_ATOM_UDEF_STEREO_COUNT>
0

> <PUBCHEM_BOND_DEF_STEREO_COUNT>
0

> <PUBCHEM_BOND_UDEF_STEREO_COUNT>
0

> <PUBCHEM_ISOTOPIC_ATOM_COUNT>
0

> <PUBCHEM_COMPONENT_COUNT>
1

> <PUBCHEM_CACTVS_TAUTO_COUNT>
2

> <PUBCHEM_COORDINATE_TYPE>
1
5
255

$$$$

