3247059
  -OEChem-07051213073D

 73 77  0     1  0  0  0  0  0999 V2000
   -6.4864   -0.6644    2.0612 O   0  0  0  0  0  0  0  0  0  0  0  0
    7.8570   -0.6644    1.2295 O   0  0  0  0  0  0  0  0  0  0  0  0
   -0.5439    0.8168   -0.6849 C   0  0  1  0  0  0  0  0  0  0  0  0
    0.0818   -0.5904   -0.6145 C   0  0  2  0  0  0  0  0  0  0  0  0
    1.5997   -0.5895   -0.8219 C   0  0  1  0  0  0  0  0  0  0  0  0
    2.2700    0.3194    0.2493 C   0  0  1  0  0  0  0  0  0  0  0  0
   -2.0332    0.4354   -0.5026 C   0  0  2  0  0  0  0  0  0  0  0  0
    0.0529    1.6446    0.4619 C   0  0  0  0  0  0  0  0  0  0  0  0
   -0.7879   -1.4213   -1.5531 C   0  0  0  0  0  0  0  0  0  0  0  0
    3.8379    0.3846    0.0536 C   0  0  2  0  0  0  0  0  0  0  0  0
    1.5873    1.7099    0.3698 C   0  0  0  0  0  0  0  0  0  0  0  0
   -2.1981   -0.8264   -1.3822 C   0  0  0  0  0  0  0  0  0  0  0  0
    2.1619   -2.0160   -0.7316 C   0  0  0  0  0  0  0  0  0  0  0  0
   -3.0566    1.5162   -0.8197 C   0  0  1  0  0  0  0  0  0  0  0  0
   -0.3141    1.5423   -2.0340 C   0  0  0  0  0  0  0  0  0  0  0  0
    4.4124   -1.0123   -0.2208 C   0  0  0  0  0  0  0  0  0  0  0  0
    4.4697    0.9477    1.3618 C   0  0  0  0  0  0  0  0  0  0  0  0
    3.6456   -2.0651   -0.5540 C   0  0  0  0  0  0  0  0  0  0  0  0
    4.2191    1.3000   -1.1347 C   0  0  0  0  0  0  0  0  0  0  0  0
   -4.5092    1.0441   -0.6058 C   0  0  0  0  0  0  0  0  0  0  0  0
    5.9091   -1.1798   -0.0949 C   0  0  0  0  0  0  0  0  0  0  0  0
    5.9907    0.8193    1.4324 C   0  0  0  0  0  0  0  0  0  0  0  0
    6.4335   -0.6249    1.2266 C   0  0  2  0  0  0  0  0  0  0  0  0
   -2.7937    2.7565    0.0424 C   0  0  0  0  0  0  0  0  0  0  0  0
   -4.8204    0.6710    0.8460 C   0  0  0  0  0  0  0  0  0  0  0  0
   -6.2583    0.2866    1.0224 C   0  0  1  0  0  0  0  0  0  0  0  0
   -6.7515   -1.0886    0.7179 C   0  0  0  0  0  0  0  0  0  0  0  0
   -8.1874   -1.3504    0.4577 C   0  0  0  0  0  0  0  0  0  0  0  0
   -5.7881   -2.1008    0.2223 C   0  0  0  0  0  0  0  0  0  0  0  0
   -0.0940   -0.9937    0.3973 H   0  0  0  0  0  0  0  0  0  0  0  0
    1.8288   -0.2067   -1.8227 H   0  0  0  0  0  0  0  0  0  0  0  0
    2.0895   -0.1764    1.2172 H   0  0  0  0  0  0  0  0  0  0  0  0
   -2.1569    0.1204    0.5426 H   0  0  0  0  0  0  0  0  0  0  0  0
   -0.2228    1.2088    1.4307 H   0  0  0  0  0  0  0  0  0  0  0  0
   -0.2979    2.6767    0.4707 H   0  0  0  0  0  0  0  0  0  0  0  0
   -0.7706   -2.4848   -1.2938 H   0  0  0  0  0  0  0  0  0  0  0  0
   -0.4577   -1.3284   -2.5938 H   0  0  0  0  0  0  0  0  0  0  0  0
    1.8530    2.3431   -0.4817 H   0  0  0  0  0  0  0  0  0  0  0  0
    1.9581    2.2261    1.2626 H   0  0  0  0  0  0  0  0  0  0  0  0
   -2.6203   -0.5950   -2.3667 H   0  0  0  0  0  0  0  0  0  0  0  0
   -2.8657   -1.5478   -0.8993 H   0  0  0  0  0  0  0  0  0  0  0  0
    1.8989   -2.5626   -1.6453 H   0  0  0  0  0  0  0  0  0  0  0  0
    1.7051   -2.5596    0.1049 H   0  0  0  0  0  0  0  0  0  0  0  0
   -2.9827    1.8124   -1.8734 H   0  0  0  0  0  0  0  0  0  0  0  0
   -0.7978    1.0285   -2.8710 H   0  0  0  0  0  0  0  0  0  0  0  0
   -0.7044    2.5642   -2.0139 H   0  0  0  0  0  0  0  0  0  0  0  0
    0.7453    1.6250   -2.2909 H   0  0  0  0  0  0  0  0  0  0  0  0
    4.0479    0.4216    2.2291 H   0  0  0  0  0  0  0  0  0  0  0  0
    4.2097    2.0056    1.4868 H   0  0  0  0  0  0  0  0  0  0  0  0
    4.1085   -3.0357   -0.7155 H   0  0  0  0  0  0  0  0  0  0  0  0
    3.7076    1.0040   -2.0564 H   0  0  0  0  0  0  0  0  0  0  0  0
    3.9718    2.3474   -0.9343 H   0  0  0  0  0  0  0  0  0  0  0  0
    5.2928    1.2784   -1.3495 H   0  0  0  0  0  0  0  0  0  0  0  0
   -4.7267    0.1989   -1.2676 H   0  0  0  0  0  0  0  0  0  0  0  0
   -5.1936    1.8427   -0.9226 H   0  0  0  0  0  0  0  0  0  0  0  0
    6.2077   -2.2331   -0.1767 H   0  0  0  0  0  0  0  0  0  0  0  0
    6.4056   -0.6814   -0.9371 H   0  0  0  0  0  0  0  0  0  0  0  0
    6.4661    1.4746    0.6919 H   0  0  0  0  0  0  0  0  0  0  0  0
    6.3480    1.1765    2.4063 H   0  0  0  0  0  0  0  0  0  0  0  0
    6.0839   -1.2450    2.0604 H   0  0  0  0  0  0  0  0  0  0  0  0
   -2.0063    3.3814   -0.3841 H   0  0  0  0  0  0  0  0  0  0  0  0
   -2.5479    2.5087    1.0796 H   0  0  0  0  0  0  0  0  0  0  0  0
   -3.6800    3.4024    0.0660 H   0  0  0  0  0  0  0  0  0  0  0  0
   -4.6427    1.5309    1.5015 H   0  0  0  0  0  0  0  0  0  0  0  0
   -4.1579   -0.1200    1.2057 H   0  0  0  0  0  0  0  0  0  0  0  0
   -6.9384    1.1235    0.9350 H   0  0  0  0  0  0  0  0  0  0  0  0
    8.1754   -0.1232    0.4870 H   0  0  0  0  0  0  0  0  0  0  0  0
   -8.8287   -0.5641    0.8707 H   0  0  0  0  0  0  0  0  0  0  0  0
   -8.4982   -2.3006    0.9044 H   0  0  0  0  0  0  0  0  0  0  0  0
   -8.3772   -1.4015   -0.6194 H   0  0  0  0  0  0  0  0  0  0  0  0
   -6.1982   -3.1099    0.3453 H   0  0  0  0  0  0  0  0  0  0  0  0
   -4.8311   -2.0972    0.7521 H   0  0  0  0  0  0  0  0  0  0  0  0
   -5.5947   -1.9588   -0.8454 H   0  0  0  0  0  0  0  0  0  0  0  0
  1 26  1  0  0  0  0
  1 27  1  0  0  0  0
  2 23  1  0  0  0  0
  2 67  1  0  0  0  0
  3  4  1  0  0  0  0
  3  7  1  0  0  0  0
  3  8  1  0  0  0  0
  3 15  1  0  0  0  0
  4  5  1  0  0  0  0
  4  9  1  0  0  0  0
  4 30  1  0  0  0  0
  5  6  1  0  0  0  0
  5 13  1  0  0  0  0
  5 31  1  0  0  0  0
  6 10  1  0  0  0  0
  6 11  1  0  0  0  0
  6 32  1  0  0  0  0
  7 12  1  0  0  0  0
  7 14  1  0  0  0  0
  7 33  1  0  0  0  0
  8 11  1  0  0  0  0
  8 34  1  0  0  0  0
  8 35  1  0  0  0  0
  9 12  1  0  0  0  0
  9 36  1  0  0  0  0
  9 37  1  0  0  0  0
 10 16  1  0  0  0  0
 10 17  1  0  0  0  0
 10 19  1  0  0  0  0
 11 38  1  0  0  0  0
 11 39  1  0  0  0  0
 12 40  1  0  0  0  0
 12 41  1  0  0  0  0
 13 18  1  0  0  0  0
 13 42  1  0  0  0  0
 13 43  1  0  0  0  0
 14 20  1  0  0  0  0
 14 24  1  0  0  0  0
 14 44  1  0  0  0  0
 15 45  1  0  0  0  0
 15 46  1  0  0  0  0
 15 47  1  0  0  0  0
 16 18  2  0  0  0  0
 16 21  1  0  0  0  0
 17 22  1  0  0  0  0
 17 48  1  0  0  0  0
 17 49  1  0  0  0  0
 18 50  1  0  0  0  0
 19 51  1  0  0  0  0
 19 52  1  0  0  0  0
 19 53  1  0  0  0  0
 20 25  1  0  0  0  0
 20 54  1  0  0  0  0
 20 55  1  0  0  0  0
 21 23  1  0  0  0  0
 21 56  1  0  0  0  0
 21 57  1  0  0  0  0
 22 23  1  0  0  0  0
 22 58  1  0  0  0  0
 22 59  1  0  0  0  0
 23 60  1  0  0  0  0
 24 61  1  0  0  0  0
 24 62  1  0  0  0  0
 24 63  1  0  0  0  0
 25 26  1  0  0  0  0
 25 64  1  0  0  0  0
 25 65  1  0  0  0  0
 26 27  1  0  0  0  0
 26 66  1  0  0  0  0
 27 28  1  0  0  0  0
 27 29  1  0  0  0  0
 28 68  1  0  0  0  0
 28 69  1  0  0  0  0
 28 70  1  0  0  0  0
 29 71  1  0  0  0  0
 29 72  1  0  0  0  0
 29 73  1  0  0  0  0
M  END
> <PUBCHEM_COMPOUND_CID>
3247059

> <PUBCHEM_CONFORMER_RMSD>
0.8

> <PUBCHEM_CONFORMER_DIVERSEORDER>
4
8
7
3
2
6
5
1

> <PUBCHEM_MMFF94_PARTIAL_CHARGES>
16
1 -0.3
10 0.14
13 0.14
16 -0.28
18 -0.29
2 -0.68
21 0.14
23 0.28
25 0.09
26 -0.05
27 -0.04
28 0.09
29 0.09
50 0.15
66 0.1
67 0.4

> <PUBCHEM_EFFECTIVE_ROTOR_COUNT>
6.6

> <PUBCHEM_PHARMACOPHORE_FEATURES>
9
1 1 acceptor
1 2 acceptor
1 2 donor
1 24 hydrophobe
3 27 28 29 hydrophobe
5 3 4 7 9 12 rings
6 10 16 17 21 22 23 rings
6 3 4 5 6 8 11 rings
6 5 6 10 13 16 18 rings

> <PUBCHEM_HEAVY_ATOM_COUNT>
29

> <PUBCHEM_ATOM_DEF_STEREO_COUNT>
9

> <PUBCHEM_ATOM_UDEF_STEREO_COUNT>
0

> <PUBCHEM_BOND_DEF_STEREO_COUNT>
0

> <PUBCHEM_BOND_UDEF_STEREO_COUNT>
0

> <PUBCHEM_ISOTOPIC_ATOM_COUNT>
0

> <PUBCHEM_COMPONENT_COUNT>
1

> <PUBCHEM_CACTVS_TAUTO_COUNT>
1

> <PUBCHEM_CONFORMER_ID>
00318BD300000004

> <PUBCHEM_MMFF94_ENERGY>
89.5541

> <PUBCHEM_FEATURE_SELFOVERLAP>
45.764

> <PUBCHEM_SHAPE_FINGERPRINT>
10 15 18335143068286625056
106641 1 17967251979871081275
10693767 8 12679197006866654832
10763959 59 8286190661090210874
11456790 92 17240772826240302330
11578080 2 16662070027365915146
11646440 116 17821730541929424944
11963148 33 18202289116689054058
12035758 1 18186242826844069416
12166972 35 15626220217174120564
12236239 1 15051728729024861316
12670543 26 10663820776049161895
13540713 4 17972312082473782373
13668630 136 15339115711587192587
13782708 43 17775286096666241578
13811026 1 18411704301218545733
14068700 675 17346596357847541797
14251764 18 17313108531667312501
14849402 71 17241054184451055737
15183329 4 10015588294378513535
15188451 53 17632859724486283591
15510800 12 17774425132529469787
1813 80 17703787033092159869
18222031 100 16630518540421168573
18608769 82 18408885122749462558
20028762 73 18060416910811129675
20105231 36 18187641441034160614
21267235 1 18334008432796078070
21304304 249 18201434741184164907
21424621 283 5328751759935869167
21521239 73 12751522877097989472
21623969 137 18334855038915546283
21637258 2 17060622196107842397
21756936 100 15719395036526400285
21781051 124 18339347627049000150
21792934 111 18410015442715904853
22149856 69 18188755245763932401
22224240 67 17676486142980537159
23522609 53 18053628526665260317
23569943 247 17340418416896954498
25222932 49 18060426832612682338
255183 313 17676209040048477799
29717793 49 13039188112731193818
3004659 81 11024106533951037511
3009799 131 10592042453442862013
3178227 256 18186522090413808984
3383291 50 18273214184044031635
392239 28 17821999884156040529
397830 11 18333168379799605887
4340502 62 18113898264824878166
465052 167 17988922267142860252
5104073 3 18189897702220931897
6081469 158 18059860541907505303
9953998 17 18259983778328533019

> <PUBCHEM_SHAPE_MULTIPOLES>
585.07
19.69
2.25
1.52
11.3
0.13
0.01
-7.65
-11.75
0.88
0.33
0.05
0.11
0.98

> <PUBCHEM_SHAPE_SELFOVERLAP>
1231.506

> <PUBCHEM_SHAPE_VOLUME>
329.7

> <PUBCHEM_COORDINATE_TYPE>
2
5
10

$$$$

