241764
  -OEChem-07051213073D

 60 63  0     1  0  0  0  0  0999 V2000
   -0.8840    2.2641   -0.1039 O   0  0  0  0  0  0  0  0  0  0  0  0
    4.3200    0.1907    0.0134 O   0  0  0  0  0  0  0  0  0  0  0  0
   -5.7498   -0.2527   -1.9025 O   0  0  0  0  0  0  0  0  0  0  0  0
    0.4369    3.7376    1.0883 O   0  0  0  0  0  0  0  0  0  0  0  0
    5.6740   -0.8271   -1.5576 O   0  0  0  0  0  0  0  0  0  0  0  0
    1.0484   -1.4127   -0.2055 C   0  0  2  0  0  0  0  0  0  0  0  0
    1.8940   -0.2283    0.2964 C   0  0  2  0  0  0  0  0  0  0  0  0
   -0.3208   -1.4812    0.4742 C   0  0  1  0  0  0  0  0  0  0  0  0
   -1.1201   -0.1563    0.1650 C   0  0  1  0  0  0  0  0  0  0  0  0
   -2.5563   -0.2083    0.8292 C   0  0  2  0  0  0  0  0  0  0  0  0
    1.1641    1.0599   -0.0851 C   0  0  0  0  0  0  0  0  0  0  0  0
   -0.2716    1.1144    0.4798 C   0  0  1  0  0  0  0  0  0  0  0  0
    3.1902   -0.4916   -0.4955 C   0  0  2  0  0  0  0  0  0  0  0  0
    1.9963   -2.6038   -0.0822 C   0  0  0  0  0  0  0  0  0  0  0  0
   -1.1016   -2.7364    0.0399 C   0  0  0  0  0  0  0  0  0  0  0  0
    3.3818   -2.0164   -0.4024 C   0  0  0  0  0  0  0  0  0  0  0  0
   -3.2149   -1.4819    0.2758 C   0  0  0  0  0  0  0  0  0  0  0  0
    2.1803   -0.2282    1.8187 C   0  0  0  0  0  0  0  0  0  0  0  0
   -2.5176   -2.7742    0.6147 C   0  0  0  0  0  0  0  0  0  0  0  0
   -3.4761    1.0077    0.5264 C   0  0  0  0  0  0  0  0  0  0  0  0
   -2.4667   -0.2608    2.3769 C   0  0  0  0  0  0  0  0  0  0  0  0
   -3.9938    1.0351   -0.8995 C   0  0  0  0  0  0  0  0  0  0  0  0
   -4.2483   -1.4926   -0.5835 C   0  0  0  0  0  0  0  0  0  0  0  0
   -4.7670   -0.2314   -1.1652 C   0  0  0  0  0  0  0  0  0  0  0  0
   -0.2404    3.4491    0.1110 C   0  0  0  0  0  0  0  0  0  0  0  0
    5.5119   -0.0677   -0.6120 C   0  0  0  0  0  0  0  0  0  0  0  0
   -0.4824    4.3725   -1.0444 C   0  0  0  0  0  0  0  0  0  0  0  0
    6.6134    0.7206    0.0295 C   0  0  0  0  0  0  0  0  0  0  0  0
    0.8620   -1.2807   -1.2845 H   0  0  0  0  0  0  0  0  0  0  0  0
   -0.1622   -1.5669    1.5537 H   0  0  0  0  0  0  0  0  0  0  0  0
   -1.2855   -0.1357   -0.9241 H   0  0  0  0  0  0  0  0  0  0  0  0
    1.1136    1.1529   -1.1796 H   0  0  0  0  0  0  0  0  0  0  0  0
    1.7701    1.9118    0.2419 H   0  0  0  0  0  0  0  0  0  0  0  0
   -0.2365    1.2567    1.5654 H   0  0  0  0  0  0  0  0  0  0  0  0
    3.0469   -0.2015   -1.5461 H   0  0  0  0  0  0  0  0  0  0  0  0
    1.7343   -3.4091   -0.7761 H   0  0  0  0  0  0  0  0  0  0  0  0
    1.9850   -3.0223    0.9304 H   0  0  0  0  0  0  0  0  0  0  0  0
   -0.5693   -3.6400    0.3598 H   0  0  0  0  0  0  0  0  0  0  0  0
   -1.1542   -2.7744   -1.0564 H   0  0  0  0  0  0  0  0  0  0  0  0
    4.1054   -2.3073    0.3677 H   0  0  0  0  0  0  0  0  0  0  0  0
    3.7404   -2.4210   -1.3554 H   0  0  0  0  0  0  0  0  0  0  0  0
    2.7936    0.6376    2.0948 H   0  0  0  0  0  0  0  0  0  0  0  0
    1.2700   -0.1737    2.4215 H   0  0  0  0  0  0  0  0  0  0  0  0
    2.7233   -1.1223    2.1412 H   0  0  0  0  0  0  0  0  0  0  0  0
   -2.4940   -2.9274    1.6987 H   0  0  0  0  0  0  0  0  0  0  0  0
   -3.0466   -3.6400    0.1979 H   0  0  0  0  0  0  0  0  0  0  0  0
   -2.9968    1.9565    0.7791 H   0  0  0  0  0  0  0  0  0  0  0  0
   -4.3553    0.9604    1.1877 H   0  0  0  0  0  0  0  0  0  0  0  0
   -2.0986    0.6879    2.7830 H   0  0  0  0  0  0  0  0  0  0  0  0
   -3.4539   -0.4417    2.8202 H   0  0  0  0  0  0  0  0  0  0  0  0
   -1.8095   -1.0477    2.7535 H   0  0  0  0  0  0  0  0  0  0  0  0
   -3.1871    1.1260   -1.6328 H   0  0  0  0  0  0  0  0  0  0  0  0
   -4.6707    1.8875   -1.0228 H   0  0  0  0  0  0  0  0  0  0  0  0
   -4.6680   -2.4160   -0.9681 H   0  0  0  0  0  0  0  0  0  0  0  0
   -1.5536    4.5628   -1.1482 H   0  0  0  0  0  0  0  0  0  0  0  0
   -0.0785    3.9329   -1.9598 H   0  0  0  0  0  0  0  0  0  0  0  0
    0.0243    5.3242   -0.8607 H   0  0  0  0  0  0  0  0  0  0  0  0
    6.7078    0.4360    1.0804 H   0  0  0  0  0  0  0  0  0  0  0  0
    6.4055    1.7895   -0.0630 H   0  0  0  0  0  0  0  0  0  0  0  0
    7.5581    0.5033   -0.4771 H   0  0  0  0  0  0  0  0  0  0  0  0
  1 12  1  0  0  0  0
  1 25  1  0  0  0  0
  2 13  1  0  0  0  0
  2 26  1  0  0  0  0
  3 24  2  0  0  0  0
  4 25  2  0  0  0  0
  5 26  2  0  0  0  0
  6  7  1  0  0  0  0
  6  8  1  0  0  0  0
  6 14  1  0  0  0  0
  6 29  1  0  0  0  0
  7 11  1  0  0  0  0
  7 13  1  0  0  0  0
  7 18  1  0  0  0  0
  8  9  1  0  0  0  0
  8 15  1  0  0  0  0
  8 30  1  0  0  0  0
  9 10  1  0  0  0  0
  9 12  1  0  0  0  0
  9 31  1  0  0  0  0
 10 17  1  0  0  0  0
 10 20  1  0  0  0  0
 10 21  1  0  0  0  0
 11 12  1  0  0  0  0
 11 32  1  0  0  0  0
 11 33  1  0  0  0  0
 12 34  1  0  0  0  0
 13 16  1  0  0  0  0
 13 35  1  0  0  0  0
 14 16  1  0  0  0  0
 14 36  1  0  0  0  0
 14 37  1  0  0  0  0
 15 19  1  0  0  0  0
 15 38  1  0  0  0  0
 15 39  1  0  0  0  0
 16 40  1  0  0  0  0
 16 41  1  0  0  0  0
 17 19  1  0  0  0  0
 17 23  2  0  0  0  0
 18 42  1  0  0  0  0
 18 43  1  0  0  0  0
 18 44  1  0  0  0  0
 19 45  1  0  0  0  0
 19 46  1  0  0  0  0
 20 22  1  0  0  0  0
 20 47  1  0  0  0  0
 20 48  1  0  0  0  0
 21 49  1  0  0  0  0
 21 50  1  0  0  0  0
 21 51  1  0  0  0  0
 22 24  1  0  0  0  0
 22 52  1  0  0  0  0
 22 53  1  0  0  0  0
 23 24  1  0  0  0  0
 23 54  1  0  0  0  0
 25 27  1  0  0  0  0
 26 28  1  0  0  0  0
 27 55  1  0  0  0  0
 27 56  1  0  0  0  0
 27 57  1  0  0  0  0
 28 58  1  0  0  0  0
 28 59  1  0  0  0  0
 28 60  1  0  0  0  0
M  END
> <PUBCHEM_COMPOUND_CID>
241764

> <PUBCHEM_CONFORMER_RMSD>
0.8

> <PUBCHEM_CONFORMER_DIVERSEORDER>
1
4
2
3

> <PUBCHEM_MMFF94_PARTIAL_CHARGES>
18
1 -0.43
10 0.14
12 0.28
13 0.28
17 -0.28
19 0.14
2 -0.43
22 0.06
23 -0.14
24 0.49
25 0.66
26 0.66
27 0.06
28 0.06
3 -0.57
4 -0.57
5 -0.57
54 0.15

> <PUBCHEM_EFFECTIVE_ROTOR_COUNT>
5.8

> <PUBCHEM_PHARMACOPHORE_FEATURES>
7
1 3 acceptor
1 4 acceptor
1 5 acceptor
5 6 7 13 14 16 rings
6 10 17 20 22 23 24 rings
6 6 7 8 9 11 12 rings
6 8 9 10 15 17 19 rings

> <PUBCHEM_HEAVY_ATOM_COUNT>
28

> <PUBCHEM_ATOM_DEF_STEREO_COUNT>
7

> <PUBCHEM_ATOM_UDEF_STEREO_COUNT>
0

> <PUBCHEM_BOND_DEF_STEREO_COUNT>
0

> <PUBCHEM_BOND_UDEF_STEREO_COUNT>
0

> <PUBCHEM_ISOTOPIC_ATOM_COUNT>
0

> <PUBCHEM_COMPONENT_COUNT>
1

> <PUBCHEM_CACTVS_TAUTO_COUNT>
5

> <PUBCHEM_CONFORMER_ID>
0003B06400000001

> <PUBCHEM_MMFF94_ENERGY>
91.2401

> <PUBCHEM_FEATURE_SELFOVERLAP>
35.637

> <PUBCHEM_SHAPE_FINGERPRINT>
10366900 7 18113622291632851570
10498660 4 18411980282267563282
10670039 82 18268971216697234468
10675989 125 17912091856379621079
10906281 52 18338222864748801801
10930396 42 18124066497447035776
11115154 58 17676501545144859865
12011746 2 18335706030887694711
12403260 363 18052265286543380514
12553582 1 18411412921155700715
12788726 201 18270971270111077208
13140716 1 18266444426584599664
13540713 4 17982459187834895651
13583140 156 16774074064241076603
13782708 43 17531234102889484094
13911987 19 18343294860216523022
14068700 675 17968101867877989027
14790565 3 17543344316641136081
14931854 50 18339937003819682039
14955137 171 18124286390243165355
15420108 30 17103392327331287969
17357779 13 18335146405302192493
17492 54 18342188790764354031
17980427 23 17531511106171957105
18608769 82 18271803468229698995
18769570 83 16702310065282170055
200 152 17530967977709105091
20600515 1 18263622039996810724
20775438 99 17540572057412406687
21285901 2 18114744948575589942
21304303 64 18341324587562844129
21641784 216 18200014261975701180
22122407 14 15266476493056955142
23402539 116 18261106391714773942
23558518 356 17550679145829434899
23559900 14 18262527966055678689
238 59 15251881953229673909
24771750 20 17911506602434594757
266924 87 18267869573589220919
283562 15 18337670935723978576
3380486 145 18341878689477291707
34934 24 18412826906089225130
350125 39 18124585397914889235
4280585 95 18339932532463489456
465052 167 5400223396012544143
484989 97 18126008166373337559
5283173 99 18201728404370674708
532947 4 18191591839429251072
6913067 236 18261683631678555930
7226269 152 18202280291115679464

> <PUBCHEM_SHAPE_MULTIPOLES>
546.88
10.84
3.81
1.37
10
4.06
0.34
-2.15
-4.67
-0.88
-0.22
-0.87
0.09
0.57

> <PUBCHEM_SHAPE_SELFOVERLAP>
1165.127

> <PUBCHEM_SHAPE_VOLUME>
301.3

> <PUBCHEM_COORDINATE_TYPE>
2
5
10

$$$$

