47205287
  -OEChem-06241222583D

 41 42  0     0  0  0  0  0  0999 V2000
    0.2670   -2.2520   -1.5399 O   0  0  0  0  0  0  0  0  0  0  0  0
   -1.6259   -2.0780    0.8269 O   0  0  0  0  0  0  0  0  0  0  0  0
   -4.8745    1.5754   -0.3479 O   0  0  0  0  0  0  0  0  0  0  0  0
    1.1113   -0.8498    0.1425 N   0  0  0  0  0  0  0  0  0  0  0  0
   -1.8266   -0.1925   -0.5933 N   0  0  0  0  0  0  0  0  0  0  0  0
   -3.6133    1.4070   -0.9065 N   0  0  0  0  0  0  0  0  0  0  0  0
    2.5159   -0.8994   -0.2005 C   0  0  0  0  0  0  0  0  0  0  0  0
    2.8411    0.1231   -1.2941 C   0  0  0  0  0  0  0  0  0  0  0  0
    3.3692   -0.8575    1.0734 C   0  0  0  0  0  0  0  0  0  0  0  0
    4.8744   -0.7145    0.8424 C   0  0  0  0  0  0  0  0  0  0  0  0
    2.6629    1.6000   -0.9436 C   0  0  0  0  0  0  0  0  0  0  0  0
    3.5371    2.1747    0.1704 C   0  0  0  0  0  0  0  0  0  0  0  0
    5.4247    0.6902    1.0969 C   0  0  0  0  0  0  0  0  0  0  0  0
    5.0129    1.7811    0.1061 C   0  0  0  0  0  0  0  0  0  0  0  0
    0.1480   -1.5295   -0.5635 C   0  0  0  0  0  0  0  0  0  0  0  0
   -1.2314   -1.2981   -0.0238 C   0  0  0  0  0  0  0  0  0  0  0  0
   -3.1107    0.3250   -0.3053 C   0  0  0  0  0  0  0  0  0  0  0  0
   -4.0006   -0.2260    0.6329 C   0  0  0  0  0  0  0  0  0  0  0  0
   -5.0935    0.5970    0.5674 C   0  0  0  0  0  0  0  0  0  0  0  0
   -6.3880    0.6240    1.2595 C   0  0  0  0  0  0  0  0  0  0  0  0
    2.6892   -1.8845   -0.6567 H   0  0  0  0  0  0  0  0  0  0  0  0
    3.8553   -0.0461   -1.6717 H   0  0  0  0  0  0  0  0  0  0  0  0
    2.1890   -0.0794   -2.1556 H   0  0  0  0  0  0  0  0  0  0  0  0
    3.0072   -0.0986    1.7753 H   0  0  0  0  0  0  0  0  0  0  0  0
    3.2004   -1.8094    1.5978 H   0  0  0  0  0  0  0  0  0  0  0  0
    5.1687   -1.0732   -0.1498 H   0  0  0  0  0  0  0  0  0  0  0  0
    5.3788   -1.3799    1.5562 H   0  0  0  0  0  0  0  0  0  0  0  0
    1.6115    1.7974   -0.7007 H   0  0  0  0  0  0  0  0  0  0  0  0
    2.8664    2.1753   -1.8568 H   0  0  0  0  0  0  0  0  0  0  0  0
    6.5204    0.6231    1.0750 H   0  0  0  0  0  0  0  0  0  0  0  0
    5.1651    1.0054    2.1156 H   0  0  0  0  0  0  0  0  0  0  0  0
    3.1088    1.9494    1.1518 H   0  0  0  0  0  0  0  0  0  0  0  0
    3.4749    3.2682    0.0840 H   0  0  0  0  0  0  0  0  0  0  0  0
    5.6003    2.6727    0.3639 H   0  0  0  0  0  0  0  0  0  0  0  0
    5.3166    1.5144   -0.9121 H   0  0  0  0  0  0  0  0  0  0  0  0
    0.8252   -0.2407    0.9040 H   0  0  0  0  0  0  0  0  0  0  0  0
   -1.3152    0.3342   -1.2970 H   0  0  0  0  0  0  0  0  0  0  0  0
   -3.8912   -1.0884    1.2729 H   0  0  0  0  0  0  0  0  0  0  0  0
   -6.4709   -0.2001    1.9749 H   0  0  0  0  0  0  0  0  0  0  0  0
   -7.2098    0.5339    0.5423 H   0  0  0  0  0  0  0  0  0  0  0  0
   -6.5115    1.5627    1.8083 H   0  0  0  0  0  0  0  0  0  0  0  0
  1 15  2  0  0  0  0
  2 16  2  0  0  0  0
  3  6  1  0  0  0  0
  3 19  1  0  0  0  0
  4  7  1  0  0  0  0
  4 15  1  0  0  0  0
  4 36  1  0  0  0  0
  5 16  1  0  0  0  0
  5 17  1  0  0  0  0
  5 37  1  0  0  0  0
  6 17  2  0  0  0  0
  7  8  1  0  0  0  0
  7  9  1  0  0  0  0
  7 21  1  0  0  0  0
  8 11  1  0  0  0  0
  8 22  1  0  0  0  0
  8 23  1  0  0  0  0
  9 10  1  0  0  0  0
  9 24  1  0  0  0  0
  9 25  1  0  0  0  0
 10 13  1  0  0  0  0
 10 26  1  0  0  0  0
 10 27  1  0  0  0  0
 11 12  1  0  0  0  0
 11 28  1  0  0  0  0
 11 29  1  0  0  0  0
 12 14  1  0  0  0  0
 12 32  1  0  0  0  0
 12 33  1  0  0  0  0
 13 14  1  0  0  0  0
 13 30  1  0  0  0  0
 13 31  1  0  0  0  0
 14 34  1  0  0  0  0
 14 35  1  0  0  0  0
 15 16  1  0  0  0  0
 17 18  1  0  0  0  0
 18 19  2  0  0  0  0
 18 38  1  0  0  0  0
 19 20  1  0  0  0  0
 20 39  1  0  0  0  0
 20 40  1  0  0  0  0
 20 41  1  0  0  0  0
M  END
> <PUBCHEM_COMPOUND_CID>
47205287

> <PUBCHEM_CONFORMER_RMSD>
0.8

> <PUBCHEM_CONFORMER_DIVERSEORDER>
1
42
15
40
10
16
31
39
9
34
21
11
43
37
17
3
36
7
38
22
33
12
25
35
41
28
26
14
29
23
32
27
24
8
6
30
19
4
13
18
20
2
5

> <PUBCHEM_MMFF94_PARTIAL_CHARGES>
16
1 -0.57
15 0.63
16 0.63
17 0.35
18 -0.15
19 -0.04
2 -0.57
20 0.18
3 -0.02
36 0.37
37 0.37
38 0.15
4 -0.73
5 -0.49
6 -0.41
7 0.3

> <PUBCHEM_EFFECTIVE_ROTOR_COUNT>
6.6

> <PUBCHEM_PHARMACOPHORE_FEATURES>
5
1 1 acceptor
1 2 acceptor
1 4 donor
1 5 donor
5 3 6 17 18 19 rings

> <PUBCHEM_HEAVY_ATOM_COUNT>
20

> <PUBCHEM_ATOM_DEF_STEREO_COUNT>
0

> <PUBCHEM_ATOM_UDEF_STEREO_COUNT>
0

> <PUBCHEM_BOND_DEF_STEREO_COUNT>
0

> <PUBCHEM_BOND_UDEF_STEREO_COUNT>
0

> <PUBCHEM_ISOTOPIC_ATOM_COUNT>
0

> <PUBCHEM_COMPONENT_COUNT>
1

> <PUBCHEM_CACTVS_TAUTO_COUNT>
16

> <PUBCHEM_CONFORMER_ID>
02D04BA700000001

> <PUBCHEM_MMFF94_ENERGY>
29.0066

> <PUBCHEM_FEATURE_SELFOVERLAP>
25.373

> <PUBCHEM_SHAPE_FINGERPRINT>
10319926 262 17561078142142250499
10354089 29 18202845461414218450
11724838 91 18340769243669092607
12507557 5 18202005451584204029
12516196 113 11600003241205646607
12596602 18 15554445188866388565
12633257 1 16916786232393106148
12670546 177 6266907874260298216
12760667 363 10519994776595274749
12892183 10 17274831310378407523
13103583 49 13470405634279976517
13464513 79 12679461993579401288
13583140 156 17346615083488090759
13914758 101 14476969987163440855
13955234 65 18190731128041414735
14251764 30 14404916833694468464
14251764 75 18120088390788765088
14341114 176 17988923392181562352
14366163 111 15430037690514814355
14576447 43 8646498435969683392
15188451 53 15697711520438683035
15238133 3 18059852870631840492
16760501 71 18341327786743748097
17834072 32 18187930521716787848
17857418 61 9223238446424252520
17980427 23 18340768144289457871
1813 80 13973965428388223294
18222031 100 12823291291040813307
193927 3 10015590535887400216
200 152 9583523135290611110
20281475 54 9367349245107089039
21033648 29 17060071366673378935
21637258 2 13038906624848404379
21792934 111 17703783778678235945
22224240 67 18341326761143168635
23016692 55 10879996873587561035
235170 7 13984659286769233449
23559900 14 18263350555024775807
23622692 88 17846500339785114166
2838139 119 18261403246922282060
2871803 45 7565345336182696780
3472631 163 17603868862309887804
351380 3 12031786963565570169
3680242 22 18409725200935451096
4259306 186 9655577409128707433
4280585 95 8354381256070950180
4325135 7 18187649072979574639
465052 167 11527937972256359305
474 4 18333731351143727375
5104073 3 18129111026524148752
7970288 3 11959734867091569448
960060 61 7853568007031191387

> <PUBCHEM_SHAPE_MULTIPOLES>
379.04
14.14
2.13
1.22
9.82
0
0.06
7.52
-5.47
-0.98
0.32
-0.24
-0.14
-0.12

> <PUBCHEM_SHAPE_SELFOVERLAP>
769.985

> <PUBCHEM_SHAPE_VOLUME>
216.7

> <PUBCHEM_COORDINATE_TYPE>
2
5
10

$$$$

