17396618
  -OEChem-06241222573D

 42 44  0     0  0  0  0  0  0999 V2000
    4.8155    1.6012    0.7792 S   0  0  0  0  0  0  0  0  0  0  0  0
    2.6705   -3.8658    0.0325 F   0  0  0  0  0  0  0  0  0  0  0  0
   -4.3891    0.6624    1.6299 O   0  0  0  0  0  0  0  0  0  0  0  0
   -5.6479   -0.7228   -0.5627 O   0  0  0  0  0  0  0  0  0  0  0  0
    1.9364    2.8516    0.8245 O   0  0  0  0  0  0  0  0  0  0  0  0
    1.7281    1.8110   -1.2441 N   0  0  0  0  0  0  0  0  0  0  0  0
   -0.0861    0.2680   -0.5918 C   0  0  0  0  0  0  0  0  0  0  0  0
   -1.5576    0.0244   -0.5708 C   0  0  0  0  0  0  0  0  0  0  0  0
    0.3038    1.6121   -1.2189 C   0  0  0  0  0  0  0  0  0  0  0  0
   -3.6942    0.2154    0.5366 C   0  0  0  0  0  0  0  0  0  0  0  0
   -2.3170    0.4376    0.5240 C   0  0  0  0  0  0  0  0  0  0  0  0
   -4.3061   -0.4461   -0.5310 C   0  0  0  0  0  0  0  0  0  0  0  0
   -2.1729   -0.6119   -1.6493 C   0  0  0  0  0  0  0  0  0  0  0  0
   -3.5480   -0.8469   -1.6314 C   0  0  0  0  0  0  0  0  0  0  0  0
   -5.7983    0.6982    1.3881 C   0  0  0  0  0  0  0  0  0  0  0  0
   -6.2506   -0.5896    0.7274 C   0  0  0  0  0  0  0  0  0  0  0  0
    2.4338    2.4187   -0.2136 C   0  0  0  0  0  0  0  0  0  0  0  0
    3.9152    2.5248   -0.4890 C   0  0  0  0  0  0  0  0  0  0  0  0
    4.1654   -0.0520    0.5523 C   0  0  0  0  0  0  0  0  0  0  0  0
    4.3204   -0.7008   -0.6729 C   0  0  0  0  0  0  0  0  0  0  0  0
    3.5058   -0.6916    1.6018 C   0  0  0  0  0  0  0  0  0  0  0  0
    3.8156   -1.9891   -0.8483 C   0  0  0  0  0  0  0  0  0  0  0  0
    3.0011   -1.9799    1.4262 C   0  0  0  0  0  0  0  0  0  0  0  0
    3.1559   -2.6288    0.2012 C   0  0  0  0  0  0  0  0  0  0  0  0
    0.4155   -0.5467   -1.1318 H   0  0  0  0  0  0  0  0  0  0  0  0
    0.3110    0.2100    0.4307 H   0  0  0  0  0  0  0  0  0  0  0  0
   -0.0476    1.6665   -2.2553 H   0  0  0  0  0  0  0  0  0  0  0  0
   -0.1617    2.4379   -0.6682 H   0  0  0  0  0  0  0  0  0  0  0  0
   -1.8425    0.9433    1.3616 H   0  0  0  0  0  0  0  0  0  0  0  0
   -1.5907   -0.9322   -2.5094 H   0  0  0  0  0  0  0  0  0  0  0  0
   -4.0179   -1.3505   -2.4719 H   0  0  0  0  0  0  0  0  0  0  0  0
   -6.0249    1.5729    0.7659 H   0  0  0  0  0  0  0  0  0  0  0  0
   -6.2984    0.8264    2.3531 H   0  0  0  0  0  0  0  0  0  0  0  0
   -5.9862   -1.4675    1.3300 H   0  0  0  0  0  0  0  0  0  0  0  0
   -7.3362   -0.5847    0.5887 H   0  0  0  0  0  0  0  0  0  0  0  0
    2.2314    1.4734   -2.0591 H   0  0  0  0  0  0  0  0  0  0  0  0
    4.1786    2.1626   -1.4866 H   0  0  0  0  0  0  0  0  0  0  0  0
    4.1977    3.5809   -0.4360 H   0  0  0  0  0  0  0  0  0  0  0  0
    4.8369   -0.2247   -1.5024 H   0  0  0  0  0  0  0  0  0  0  0  0
    3.3744   -0.2010    2.5630 H   0  0  0  0  0  0  0  0  0  0  0  0
    3.9367   -2.4952   -1.8014 H   0  0  0  0  0  0  0  0  0  0  0  0
    2.4863   -2.4779    2.2426 H   0  0  0  0  0  0  0  0  0  0  0  0
  1 18  1  0  0  0  0
  1 19  1  0  0  0  0
  2 24  1  0  0  0  0
  3 10  1  0  0  0  0
  3 15  1  0  0  0  0
  4 12  1  0  0  0  0
  4 16  1  0  0  0  0
  5 17  2  0  0  0  0
  6  9  1  0  0  0  0
  6 17  1  0  0  0  0
  6 36  1  0  0  0  0
  7  8  1  0  0  0  0
  7  9  1  0  0  0  0
  7 25  1  0  0  0  0
  7 26  1  0  0  0  0
  8 11  2  0  0  0  0
  8 13  1  0  0  0  0
  9 27  1  0  0  0  0
  9 28  1  0  0  0  0
 10 11  1  0  0  0  0
 10 12  2  0  0  0  0
 11 29  1  0  0  0  0
 12 14  1  0  0  0  0
 13 14  2  0  0  0  0
 13 30  1  0  0  0  0
 14 31  1  0  0  0  0
 15 16  1  0  0  0  0
 15 32  1  0  0  0  0
 15 33  1  0  0  0  0
 16 34  1  0  0  0  0
 16 35  1  0  0  0  0
 17 18  1  0  0  0  0
 18 37  1  0  0  0  0
 18 38  1  0  0  0  0
 19 20  2  0  0  0  0
 19 21  1  0  0  0  0
 20 22  1  0  0  0  0
 20 39  1  0  0  0  0
 21 23  2  0  0  0  0
 21 40  1  0  0  0  0
 22 24  2  0  0  0  0
 22 41  1  0  0  0  0
 23 24  1  0  0  0  0
 23 42  1  0  0  0  0
M  END
> <PUBCHEM_COMPOUND_CID>
17396618

> <PUBCHEM_CONFORMER_RMSD>
1

> <PUBCHEM_CONFORMER_DIVERSEORDER>
2
157
150
54
52
201
35
85
139
126
33
174
5
168
206
78
8
29
210
12
136
69
209
81
164
134
87
189
137
194
216
53
66
172
192
101
51
7
89
18
146
24
221
113
144
111
17
105
154
38
28
99
130
82
153
84
61
92
65
36
32
74
47
171
19
93
218
96
72
80
73
57
103
143
118
11
42
208
59
91
88
219
70
9
129
60
170
185
55
10
79
158
160
193
224
43
14
127
212
106
116
200
121
203
15
186
138
37
109
199
83
68
133
94
56
166
142
102
108
159
180
148
13
120
39
195
155
20
163
140
222
177
220
165
44
169
190
98
191
223
110
226
151
179
27
211
149
77
62
197
225
131
31
45
198
132
95
90
214
6
26
49
128
183
175
141
135
41
34
4
100
117
16
50
21
207
124
71
205
215
1
112
162
23
46
196
182
122
25
156
178
30
161
152
63
22
104
145
202
167
125
188
204
107
48
123
3
58
40
64
213
86
97
181
217
187
176
67
76
115
147
75
173
119
114
184

> <PUBCHEM_MMFF94_PARTIAL_CHARGES>
32
1 -0.33
10 0.08
11 -0.15
12 0.08
13 -0.15
14 -0.15
15 0.28
16 0.28
17 0.57
18 0.29
19 0.1
2 -0.19
20 -0.15
21 -0.15
22 -0.15
23 -0.15
24 0.19
29 0.15
3 -0.36
30 0.15
31 0.15
36 0.37
39 0.15
4 -0.36
40 0.15
41 0.15
42 0.15
5 -0.57
6 -0.73
7 0.14
8 -0.14
9 0.3

> <PUBCHEM_EFFECTIVE_ROTOR_COUNT>
7.8

> <PUBCHEM_PHARMACOPHORE_FEATURES>
7
1 3 acceptor
1 4 acceptor
1 5 acceptor
1 6 donor
6 19 20 21 22 23 24 rings
6 3 4 10 12 15 16 rings
6 8 10 11 12 13 14 rings

> <PUBCHEM_HEAVY_ATOM_COUNT>
24

> <PUBCHEM_ATOM_DEF_STEREO_COUNT>
0

> <PUBCHEM_ATOM_UDEF_STEREO_COUNT>
0

> <PUBCHEM_BOND_DEF_STEREO_COUNT>
0

> <PUBCHEM_BOND_UDEF_STEREO_COUNT>
0

> <PUBCHEM_ISOTOPIC_ATOM_COUNT>
0

> <PUBCHEM_COMPONENT_COUNT>
1

> <PUBCHEM_CACTVS_TAUTO_COUNT>
2

> <PUBCHEM_CONFORMER_ID>
0109738A00000002

> <PUBCHEM_MMFF94_ENERGY>
57.7951

> <PUBCHEM_FEATURE_SELFOVERLAP>
35.562

> <PUBCHEM_SHAPE_FINGERPRINT>
10316853 100 17561074766298534755
10981352 41 16986281917874489763
114674 6 18202282533068048450
11595378 159 17676202494185995825
12107183 9 17901941173527216505
12236239 1 18186801361998345917
12422481 6 18190734426971579541
12553582 1 18341057410241923374
12596602 18 17894629214743109377
12633257 1 18342190946632429098
12778500 126 17022896883176201970
13150687 139 17630018522865331228
13402501 40 17632577136954931194
13533116 47 18408602539818590313
13583140 156 18190730939315379657
1361 2 18411981347298491027
13785724 45 17973430294004302782
13914758 101 18341337777860922149
14211702 104 17630595723109043339
14251758 9 18340207496575884157
14848160 33 17987531440847504106
14863182 85 18342459223627982100
15142526 21 17538577504269568488
15635459 17 18059860579939829098
17349148 13 16805328786220535965
17818456 19 17896875658844041601
17844677 252 18341051916852027533
1813 80 18341331201052383126
19377110 9 17968653818715993151
1979834 28 18341900667035818408
20397935 70 18343013372623669099
20511986 3 17894924992087912397
20645477 70 18201444653435654964
20775530 9 18051983803288029966
21315763 178 18187933837078508792
21421861 104 18408602574178789836
21623969 137 17989208109906184176
22224240 67 18337118844139043040
23559900 14 15913320278646465135
3117164 225 18192424397591545697
341906 21 16298385760146920681
345986 75 18262243347068118144
3633792 109 18340219540070104471
3680242 22 17749655347263224097
3737641 26 18264208196333609598
394071 54 18343578521205064328
460360 51 18340488988263167285
5104073 3 18262219077014764019
5758199 1 18263085410505312704
8509985 295 17676486159480073849
86090 222 17489010622377334851

> <PUBCHEM_SHAPE_MULTIPOLES>
467.9
14.09
3.01
1.56
15.96
0.82
0.06
1.27
3.92
-5.81
0
0.72
0.06
-0.95

> <PUBCHEM_SHAPE_SELFOVERLAP>
983.98

> <PUBCHEM_SHAPE_VOLUME>
266.5

> <PUBCHEM_COORDINATE_TYPE>
2
5
10

$$$$

