441971
  -OEChem-07051212563D

 51 56  0     1  0  0  0  0  0999 V2000
   -1.9041    1.6590    0.3470 O   0  0  0  0  0  0  0  0  0  0  0  0
    4.2275   -1.8108   -0.0282 O   0  0  0  0  0  0  0  0  0  0  0  0
   -2.1653   -0.5910    1.2853 N   0  0  1  0  0  0  0  0  0  0  0  0
    2.0244   -1.0480   -0.0249 N   0  0  0  0  0  0  0  0  0  0  0  0
   -1.5610    0.2596    0.2426 C   0  0  2  0  0  0  0  0  0  0  0  0
   -0.0543    0.0524    0.5941 C   0  0  2  0  0  0  0  0  0  0  0  0
   -2.0554   -0.1674   -1.1515 C   0  0  2  0  0  0  0  0  0  0  0  0
    0.5466   -1.2534   -0.0317 C   0  0  1  0  0  0  0  0  0  0  0  0
   -0.0744   -0.0562    2.1531 C   0  0  0  0  0  0  0  0  0  0  0  0
   -1.3988   -1.4535   -1.6640 C   0  0  0  0  0  0  0  0  0  0  0  0
   -1.7161    1.0823   -1.9596 C   0  0  0  0  0  0  0  0  0  0  0  0
   -3.6091   -0.3546   -1.1855 C   0  0  0  0  0  0  0  0  0  0  0  0
    0.1081   -1.4745   -1.4934 C   0  0  0  0  0  0  0  0  0  0  0  0
   -1.5359   -0.2296    2.5425 C   0  0  0  0  0  0  0  0  0  0  0  0
    1.0501    1.0319    0.2373 C   0  0  0  0  0  0  0  0  0  0  0  0
   -3.6173   -0.5735    1.3205 C   0  0  0  0  0  0  0  0  0  0  0  0
   -2.0482    2.1985   -0.9814 C   0  0  0  0  0  0  0  0  0  0  0  0
   -4.1457   -1.1411    0.0075 C   0  0  0  0  0  0  0  0  0  0  0  0
    2.2446    0.3488   -0.0517 C   0  0  0  0  0  0  0  0  0  0  0  0
    1.0587    2.4181    0.3340 C   0  0  0  0  0  0  0  0  0  0  0  0
    3.0137   -2.0214   -0.0343 C   0  0  0  0  0  0  0  0  0  0  0  0
    3.4299    1.0323   -0.2910 C   0  0  0  0  0  0  0  0  0  0  0  0
    2.2417    3.1147    0.0772 C   0  0  0  0  0  0  0  0  0  0  0  0
    3.4176    2.4264   -0.2378 C   0  0  0  0  0  0  0  0  0  0  0  0
    2.5225   -3.4488   -0.0062 C   0  0  0  0  0  0  0  0  0  0  0  0
    0.2823   -2.1382    0.5575 H   0  0  0  0  0  0  0  0  0  0  0  0
    0.3205    0.8392    2.6490 H   0  0  0  0  0  0  0  0  0  0  0  0
    0.5212   -0.9071    2.5059 H   0  0  0  0  0  0  0  0  0  0  0  0
   -1.6384   -1.5946   -2.7255 H   0  0  0  0  0  0  0  0  0  0  0  0
   -1.8081   -2.3251   -1.1388 H   0  0  0  0  0  0  0  0  0  0  0  0
   -2.2746    1.1745   -2.8965 H   0  0  0  0  0  0  0  0  0  0  0  0
   -0.6523    1.1302   -2.2124 H   0  0  0  0  0  0  0  0  0  0  0  0
   -3.9096   -0.8501   -2.1176 H   0  0  0  0  0  0  0  0  0  0  0  0
   -4.1252    0.6125   -1.1927 H   0  0  0  0  0  0  0  0  0  0  0  0
    0.4829   -2.4377   -1.8551 H   0  0  0  0  0  0  0  0  0  0  0  0
    0.5642   -0.7278   -2.1547 H   0  0  0  0  0  0  0  0  0  0  0  0
   -1.6553   -1.0091    3.3017 H   0  0  0  0  0  0  0  0  0  0  0  0
   -1.9340    0.7101    2.9452 H   0  0  0  0  0  0  0  0  0  0  0  0
   -4.0077    0.4380    1.4869 H   0  0  0  0  0  0  0  0  0  0  0  0
   -3.9824   -1.2028    2.1408 H   0  0  0  0  0  0  0  0  0  0  0  0
   -1.3938    3.0652   -1.1080 H   0  0  0  0  0  0  0  0  0  0  0  0
   -3.0790    2.5497   -1.0912 H   0  0  0  0  0  0  0  0  0  0  0  0
   -5.2413   -1.1074    0.0058 H   0  0  0  0  0  0  0  0  0  0  0  0
   -3.8663   -2.1978   -0.0830 H   0  0  0  0  0  0  0  0  0  0  0  0
    0.1826    2.9747    0.6439 H   0  0  0  0  0  0  0  0  0  0  0  0
    4.3573    0.5271   -0.5315 H   0  0  0  0  0  0  0  0  0  0  0  0
    2.2543    4.1992    0.1441 H   0  0  0  0  0  0  0  0  0  0  0  0
    4.3318    2.9821   -0.4280 H   0  0  0  0  0  0  0  0  0  0  0  0
    1.8890   -3.6207    0.8671 H   0  0  0  0  0  0  0  0  0  0  0  0
    3.3817   -4.1233    0.0668 H   0  0  0  0  0  0  0  0  0  0  0  0
    1.9845   -3.6917   -0.9231 H   0  0  0  0  0  0  0  0  0  0  0  0
  1  5  1  0  0  0  0
  1 17  1  0  0  0  0
  2 21  2  0  0  0  0
  3  5  1  0  0  0  0
  3 14  1  0  0  0  0
  3 16  1  0  0  0  0
  4  8  1  0  0  0  0
  4 19  1  0  0  0  0
  4 21  1  0  0  0  0
  5  6  1  0  0  0  0
  5  7  1  0  0  0  0
  6  8  1  0  0  0  0
  6  9  1  0  0  0  0
  6 15  1  0  0  0  0
  7 10  1  0  0  0  0
  7 11  1  0  0  0  0
  7 12  1  0  0  0  0
  8 13  1  0  0  0  0
  8 26  1  0  0  0  0
  9 14  1  0  0  0  0
  9 27  1  0  0  0  0
  9 28  1  0  0  0  0
 10 13  1  0  0  0  0
 10 29  1  0  0  0  0
 10 30  1  0  0  0  0
 11 17  1  0  0  0  0
 11 31  1  0  0  0  0
 11 32  1  0  0  0  0
 12 18  1  0  0  0  0
 12 33  1  0  0  0  0
 12 34  1  0  0  0  0
 13 35  1  0  0  0  0
 13 36  1  0  0  0  0
 14 37  1  0  0  0  0
 14 38  1  0  0  0  0
 15 19  1  0  0  0  0
 15 20  2  0  0  0  0
 16 18  1  0  0  0  0
 16 39  1  0  0  0  0
 16 40  1  0  0  0  0
 17 41  1  0  0  0  0
 17 42  1  0  0  0  0
 18 43  1  0  0  0  0
 18 44  1  0  0  0  0
 19 22  2  0  0  0  0
 20 23  1  0  0  0  0
 20 45  1  0  0  0  0
 21 25  1  0  0  0  0
 22 24  1  0  0  0  0
 22 46  1  0  0  0  0
 23 24  2  0  0  0  0
 23 47  1  0  0  0  0
 24 48  1  0  0  0  0
 25 49  1  0  0  0  0
 25 50  1  0  0  0  0
 25 51  1  0  0  0  0
M  END
> <PUBCHEM_COMPOUND_CID>
441971

> <PUBCHEM_CONFORMER_RMSD>
0.6

> <PUBCHEM_CONFORMER_DIVERSEORDER>
1
2
3

> <PUBCHEM_MMFF94_PARTIAL_CHARGES>
22
1 -0.56
14 0.27
15 -0.14
16 0.27
17 0.28
19 0.12
2 -0.57
20 -0.15
21 0.57
22 -0.15
23 -0.15
24 -0.15
25 0.06
3 -0.81
4 -0.48
45 0.15
46 0.15
47 0.15
48 0.15
5 0.55
6 0.14
8 0.3

> <PUBCHEM_EFFECTIVE_ROTOR_COUNT>
3.2

> <PUBCHEM_PHARMACOPHORE_FEATURES>
9
1 1 acceptor
1 2 acceptor
1 3 cation
5 1 5 7 11 17 rings
5 3 5 6 9 14 rings
5 4 6 8 15 19 rings
6 15 19 20 22 23 24 rings
6 3 5 7 12 16 18 rings
6 5 6 7 8 10 13 rings

> <PUBCHEM_HEAVY_ATOM_COUNT>
25

> <PUBCHEM_ATOM_DEF_STEREO_COUNT>
4

> <PUBCHEM_ATOM_UDEF_STEREO_COUNT>
0

> <PUBCHEM_BOND_DEF_STEREO_COUNT>
0

> <PUBCHEM_BOND_UDEF_STEREO_COUNT>
0

> <PUBCHEM_ISOTOPIC_ATOM_COUNT>
0

> <PUBCHEM_COMPONENT_COUNT>
1

> <PUBCHEM_CACTVS_TAUTO_COUNT>
1

> <PUBCHEM_CONFORMER_ID>
0006BE7300000001

> <PUBCHEM_MMFF94_ENERGY>
96.465

> <PUBCHEM_FEATURE_SELFOVERLAP>
46.634

> <PUBCHEM_SHAPE_FINGERPRINT>
10366900 7 18060127718083577454
10863032 1 18409450284763898789
10948715 1 18268433430229153933
11578080 2 17343464973652184589
11582403 64 16691109207239257741
11640471 11 17677310737207958632
121448 382 17682693813521038600
12236239 1 17531516603413467704
12293681 4 17908422802915132481
12403814 3 18336270059215199087
12553582 1 18264201594905831918
12592029 89 18337393716748225410
12633257 1 18192128598961531155
12788726 201 17117767389196466610
13009979 54 17603579776925604074
13140716 1 17903362511365188488
13911987 19 18053088541906966332
14142880 1 17612592220124319537
14223421 5 18272086076143384357
14787075 74 17272011956970680253
15309172 13 18193552259876163328
16752209 62 16081359761721648945
16945 1 18337395937230512657
17492 54 17047422313992402717
1813 80 17969769973088983526
19049666 15 17988643029691110688
19591789 44 17833553388388427398
19930381 70 18339647719959527813
22112679 90 17167860872136666530
22802520 49 18202285831101628548
229495 10 18335983086680524841
23419403 2 17987495079337768131
23557571 272 17274531010828927771
23559900 14 17275105024676242382
238 59 18270133309391185510
2748010 2 18263934404668100716
3286 77 18272646870034065078
3380486 145 17770760343945770467
4340502 62 18046046186957546795
469060 322 17691692186058979594
77492 1 17603857884415281089

> <PUBCHEM_SHAPE_MULTIPOLES>
492.79
6.24
3.05
1.75
0.21
0.09
-0.54
0.88
0.34
3.55
0.5
-1.6
0.14
0.26

> <PUBCHEM_SHAPE_SELFOVERLAP>
1108.773

> <PUBCHEM_SHAPE_VOLUME>
260.7

> <PUBCHEM_COORDINATE_TYPE>
2
5
10

$$$$

