133777
  -OEChem-07051213023D

 34 36  0     0  0  0  0  0  0999 V2000
    0.1414    0.6899   -2.7370 Cl  0  0  0  0  0  0  0  0  0  0  0  0
    0.0943    4.8806    0.6405 Cl  0  0  0  0  0  0  0  0  0  0  0  0
   -0.0446   -1.7349    1.0735 O   0  0  0  0  0  0  0  0  0  0  0  0
    2.5322   -1.2897   -0.2690 N   0  0  0  0  0  0  0  0  0  0  0  0
   -2.5879   -1.2361   -0.3118 N   0  0  0  0  0  0  0  0  0  0  0  0
    3.1891   -0.1569   -0.5031 N   0  0  0  0  0  0  0  0  0  0  0  0
   -3.1133   -2.0934    0.5571 N   0  0  0  0  0  0  0  0  0  0  0  0
    4.2834   -1.5077    0.9837 N   0  0  0  0  0  0  0  0  0  0  0  0
   -4.3886   -0.2113    0.3035 N   0  0  0  0  0  0  0  0  0  0  0  0
   -0.0481   -1.0619   -0.2092 C   0  0  0  0  0  0  0  0  0  0  0  0
    1.2568   -1.5483   -0.9374 C   0  0  0  0  0  0  0  0  0  0  0  0
   -1.3232   -1.5554   -0.9806 C   0  0  0  0  0  0  0  0  0  0  0  0
   -0.0109    0.4212   -0.0300 C   0  0  0  0  0  0  0  0  0  0  0  0
    0.0749    1.2882   -1.1194 C   0  0  0  0  0  0  0  0  0  0  0  0
   -0.0640    0.9332    1.2664 C   0  0  0  0  0  0  0  0  0  0  0  0
    0.1074    2.6671   -0.9123 C   0  0  0  0  0  0  0  0  0  0  0  0
   -0.0314    2.3122    1.4734 C   0  0  0  0  0  0  0  0  0  0  0  0
    3.1698   -2.0910    0.6055 C   0  0  0  0  0  0  0  0  0  0  0  0
   -3.3303   -0.1257   -0.4685 C   0  0  0  0  0  0  0  0  0  0  0  0
    0.0544    3.1792    0.3841 C   0  0  0  0  0  0  0  0  0  0  0  0
    4.2523   -0.3355    0.2838 C   0  0  0  0  0  0  0  0  0  0  0  0
   -4.2137   -1.4238    0.9069 C   0  0  0  0  0  0  0  0  0  0  0  0
    1.3873   -1.2483   -1.9749 H   0  0  0  0  0  0  0  0  0  0  0  0
    1.2056   -2.6467   -0.9895 H   0  0  0  0  0  0  0  0  0  0  0  0
   -1.4177   -1.1888   -2.0029 H   0  0  0  0  0  0  0  0  0  0  0  0
   -1.3013   -2.6517   -1.0518 H   0  0  0  0  0  0  0  0  0  0  0  0
   -0.0778   -2.6929    0.9096 H   0  0  0  0  0  0  0  0  0  0  0  0
   -0.1354    0.3004    2.1456 H   0  0  0  0  0  0  0  0  0  0  0  0
    0.1741    3.3447   -1.7609 H   0  0  0  0  0  0  0  0  0  0  0  0
   -0.0746    2.6976    2.4889 H   0  0  0  0  0  0  0  0  0  0  0  0
    2.8061   -3.0551    0.9321 H   0  0  0  0  0  0  0  0  0  0  0  0
   -3.0838    0.6925   -1.1303 H   0  0  0  0  0  0  0  0  0  0  0  0
    5.0282    0.4126    0.3501 H   0  0  0  0  0  0  0  0  0  0  0  0
   -4.9097   -1.8319    1.6244 H   0  0  0  0  0  0  0  0  0  0  0  0
  1 14  1  0  0  0  0
  2 20  1  0  0  0  0
  3 10  1  0  0  0  0
  3 27  1  0  0  0  0
  4  6  1  0  0  0  0
  4 11  1  0  0  0  0
  4 18  1  0  0  0  0
  5  7  1  0  0  0  0
  5 12  1  0  0  0  0
  5 19  1  0  0  0  0
  6 21  2  0  0  0  0
  7 22  2  0  0  0  0
  8 18  2  0  0  0  0
  8 21  1  0  0  0  0
  9 19  2  0  0  0  0
  9 22  1  0  0  0  0
 10 11  1  0  0  0  0
 10 12  1  0  0  0  0
 10 13  1  0  0  0  0
 11 23  1  0  0  0  0
 11 24  1  0  0  0  0
 12 25  1  0  0  0  0
 12 26  1  0  0  0  0
 13 14  2  0  0  0  0
 13 15  1  0  0  0  0
 14 16  1  0  0  0  0
 15 17  2  0  0  0  0
 15 28  1  0  0  0  0
 16 20  2  0  0  0  0
 16 29  1  0  0  0  0
 17 20  1  0  0  0  0
 17 30  1  0  0  0  0
 18 31  1  0  0  0  0
 19 32  1  0  0  0  0
 21 33  1  0  0  0  0
 22 34  1  0  0  0  0
M  END
> <PUBCHEM_COMPOUND_CID>
133777

> <PUBCHEM_CONFORMER_RMSD>
0.8

> <PUBCHEM_CONFORMER_DIVERSEORDER>
1
5
47
41
22
32
23
42
46
26
12
50
35
45
33
36
19
28
15
49
21
27
39
37
51
44
43
30
38
31
14
17
48
8
40
10
29
11
25
6
16
9
13
20
2
7
24
34
3
18
4

> <PUBCHEM_MMFF94_PARTIAL_CHARGES>
30
1 -0.18
10 0.42
11 0.26
12 0.26
13 -0.14
14 0.18
15 -0.15
16 -0.15
17 -0.15
18 0.04
19 0.04
2 -0.18
20 0.18
21 0.37
22 0.37
27 0.4
28 0.15
29 0.15
3 -0.68
30 0.15
31 0.15
32 0.15
33 0.15
34 0.15
4 0.31
5 0.31
6 -0.71
7 -0.71
8 -0.57
9 -0.57

> <PUBCHEM_EFFECTIVE_ROTOR_COUNT>
5

> <PUBCHEM_PHARMACOPHORE_FEATURES>
9
1 3 acceptor
1 3 donor
3 4 8 18 cation
3 5 9 19 cation
3 6 8 21 cation
3 7 9 22 cation
5 4 6 8 18 21 rings
5 5 7 9 19 22 rings
6 13 14 15 16 17 20 rings

> <PUBCHEM_HEAVY_ATOM_COUNT>
22

> <PUBCHEM_ATOM_DEF_STEREO_COUNT>
0

> <PUBCHEM_ATOM_UDEF_STEREO_COUNT>
0

> <PUBCHEM_BOND_DEF_STEREO_COUNT>
0

> <PUBCHEM_BOND_UDEF_STEREO_COUNT>
0

> <PUBCHEM_ISOTOPIC_ATOM_COUNT>
0

> <PUBCHEM_COMPONENT_COUNT>
1

> <PUBCHEM_CACTVS_TAUTO_COUNT>
1

> <PUBCHEM_CONFORMER_ID>
00020A9100000001

> <PUBCHEM_MMFF94_ENERGY>
50.0646

> <PUBCHEM_FEATURE_SELFOVERLAP>
51.217

> <PUBCHEM_SHAPE_FINGERPRINT>
10162869 55 18114176442522213827
12035759 4 18055602145519553060
12788726 201 18340759451154070840
13004483 165 18338803428073018947
13132413 78 18333728001032306853
13134695 92 18410017598293121903
13140716 1 18410575136234705432
13294875 104 17756136800277860685
133893 2 17830765073970591014
14170010 4 18335709291469258387
14178342 30 17980493578904089466
14955137 171 18190158119026387134
15163728 17 6049620260043996211
15230672 131 17405146224127735596
15238133 3 18193530437991150033
16945 1 18122919632833765895
17876694 64 18129365154853702964
17980427 23 17095813105463985767
18785283 64 17909545056415625793
20510252 161 18339087115416991618
20600515 1 18114449098512111402
20671657 1 18048873001250500183
21041028 32 18410287008870468457
21524375 3 16960408055124549197
23175994 123 18410853270159363439
23419403 2 18198085636575191980
23557571 272 18265330784467154838
23558518 356 17688877857224866559
3286 77 18270112389001606063
350125 39 18045775956363712566
633830 44 12679461984599830199
7364860 26 18121216481054120441
81228 2 18122886888040115195
8509985 295 18408876331325674683
9981440 41 17185882692761359433

> <PUBCHEM_SHAPE_MULTIPOLES>
420.73
6.16
4.19
1.58
0.34
6.52
0.86
-6.09
-1.99
-0.26
-1.17
-0.05
0.37
-0.07

> <PUBCHEM_SHAPE_SELFOVERLAP>
893.651

> <PUBCHEM_SHAPE_VOLUME>
239.1

> <PUBCHEM_COORDINATE_TYPE>
2
5
10

$$$$

