9547273
  -OEChem-07051213113D

 61 63  0     1  0  0  0  0  0999 V2000
    7.8893   -1.1128   -0.1615 O   0  0  0  0  0  0  0  0  0  0  0  0
    6.6737   -1.2946    1.7531 O   0  0  0  0  0  0  0  0  0  0  0  0
   -7.3184    0.7383    1.2108 O   0  0  0  0  0  0  0  0  0  0  0  0
   -4.0539   -2.0629    1.5326 O   0  0  0  0  0  0  0  0  0  0  0  0
    1.9584    0.7633    0.0048 C   0  0  2  0  0  0  0  0  0  0  0  0
    3.2101    0.0841   -0.6022 C   0  0  2  0  0  0  0  0  0  0  0  0
    0.9450    0.4966   -1.1358 C   0  0  1  0  0  0  0  0  0  0  0  0
    2.6592   -1.2122   -1.2397 C   0  0  0  0  0  0  0  0  0  0  0  0
    1.1502   -0.9868   -1.4487 C   0  0  0  0  0  0  0  0  0  0  0  0
    2.0912    2.2882    0.1931 C   0  0  0  0  0  0  0  0  0  0  0  0
    4.3716   -0.1698    0.3479 C   0  0  1  0  0  0  0  0  0  0  0  0
   -0.4065    1.0743   -0.8136 C   0  0  0  0  0  0  0  0  0  0  0  0
    1.5535    0.1064    1.3495 C   0  0  0  0  0  0  0  0  0  0  0  0
    0.7291    2.9478    0.4750 C   0  0  0  0  0  0  0  0  0  0  0  0
   -0.3553    2.5646   -0.5452 C   0  0  0  0  0  0  0  0  0  0  0  0
    5.5621   -0.8329   -0.3692 C   0  0  0  0  0  0  0  0  0  0  0  0
    4.8259    1.1471    0.9878 C   0  0  0  0  0  0  0  0  0  0  0  0
   -1.5512    0.3790   -0.7673 C   0  0  0  0  0  0  0  0  0  0  0  0
    6.7326   -1.0938    0.5493 C   0  0  0  0  0  0  0  0  0  0  0  0
   -2.8272    0.9763   -0.4614 C   0  0  0  0  0  0  0  0  0  0  0  0
   -3.9741    0.2804   -0.4149 C   0  0  0  0  0  0  0  0  0  0  0  0
   -5.2851    0.9303   -0.0492 C   0  0  0  0  0  0  0  0  0  0  0  0
   -4.0430   -1.1568   -0.6708 C   0  0  0  0  0  0  0  0  0  0  0  0
   -6.0301    0.1559    1.0405 C   0  0  2  0  0  0  0  0  0  0  0  0
   -4.8292   -1.9636    0.3370 C   0  0  2  0  0  0  0  0  0  0  0  0
   -6.1827   -1.3197    0.6548 C   0  0  0  0  0  0  0  0  0  0  0  0
   -3.4954   -1.7268   -1.7565 C   0  0  0  0  0  0  0  0  0  0  0  0
    3.5762    0.7144   -1.4276 H   0  0  0  0  0  0  0  0  0  0  0  0
    1.2813    1.0366   -2.0371 H   0  0  0  0  0  0  0  0  0  0  0  0
    2.8130   -2.0886   -0.5998 H   0  0  0  0  0  0  0  0  0  0  0  0
    3.1570   -1.4112   -2.1954 H   0  0  0  0  0  0  0  0  0  0  0  0
    0.8451   -1.2338   -2.4710 H   0  0  0  0  0  0  0  0  0  0  0  0
    0.5860   -1.6362   -0.7703 H   0  0  0  0  0  0  0  0  0  0  0  0
    2.5193    2.7425   -0.7097 H   0  0  0  0  0  0  0  0  0  0  0  0
    2.7389    2.5651    1.0242 H   0  0  0  0  0  0  0  0  0  0  0  0
    4.0632   -0.8458    1.1554 H   0  0  0  0  0  0  0  0  0  0  0  0
    1.5695   -0.9871    1.3002 H   0  0  0  0  0  0  0  0  0  0  0  0
    2.2235    0.4020    2.1623 H   0  0  0  0  0  0  0  0  0  0  0  0
    0.5427    0.3893    1.6596 H   0  0  0  0  0  0  0  0  0  0  0  0
    0.8530    4.0376    0.4759 H   0  0  0  0  0  0  0  0  0  0  0  0
    0.3896    2.6780    1.4824 H   0  0  0  0  0  0  0  0  0  0  0  0
   -0.1209    3.0610   -1.4970 H   0  0  0  0  0  0  0  0  0  0  0  0
   -1.2811    3.0224   -0.2000 H   0  0  0  0  0  0  0  0  0  0  0  0
    5.8979   -0.1800   -1.1846 H   0  0  0  0  0  0  0  0  0  0  0  0
    5.2750   -1.7970   -0.8018 H   0  0  0  0  0  0  0  0  0  0  0  0
    4.1832    1.4261    1.8248 H   0  0  0  0  0  0  0  0  0  0  0  0
    4.8695    1.9622    0.2580 H   0  0  0  0  0  0  0  0  0  0  0  0
    5.8255    1.0811    1.4277 H   0  0  0  0  0  0  0  0  0  0  0  0
   -1.4710   -0.6880   -0.9151 H   0  0  0  0  0  0  0  0  0  0  0  0
   -2.9049    2.0350   -0.2543 H   0  0  0  0  0  0  0  0  0  0  0  0
   -5.1460    1.9669    0.2837 H   0  0  0  0  0  0  0  0  0  0  0  0
   -5.9138    0.9990   -0.9478 H   0  0  0  0  0  0  0  0  0  0  0  0
   -5.4939    0.2466    1.9929 H   0  0  0  0  0  0  0  0  0  0  0  0
    8.6659   -1.2961    0.4090 H   0  0  0  0  0  0  0  0  0  0  0  0
   -5.0052   -2.9860   -0.0174 H   0  0  0  0  0  0  0  0  0  0  0  0
   -6.8561   -1.4068   -0.2080 H   0  0  0  0  0  0  0  0  0  0  0  0
   -6.6692   -1.8521    1.4816 H   0  0  0  0  0  0  0  0  0  0  0  0
   -3.5798   -2.7966   -1.9222 H   0  0  0  0  0  0  0  0  0  0  0  0
   -2.9948   -1.1594   -2.5342 H   0  0  0  0  0  0  0  0  0  0  0  0
   -7.7778    0.2346    1.9042 H   0  0  0  0  0  0  0  0  0  0  0  0
   -3.2174   -2.5048    1.3067 H   0  0  0  0  0  0  0  0  0  0  0  0
  1 19  1  0  0  0  0
  1 54  1  0  0  0  0
  2 19  2  0  0  0  0
  3 24  1  0  0  0  0
  3 60  1  0  0  0  0
  4 25  1  0  0  0  0
  4 61  1  0  0  0  0
  5  6  1  0  0  0  0
  5  7  1  0  0  0  0
  5 10  1  0  0  0  0
  5 13  1  0  0  0  0
  6  8  1  0  0  0  0
  6 11  1  0  0  0  0
  6 28  1  0  0  0  0
  7  9  1  0  0  0  0
  7 12  1  0  0  0  0
  7 29  1  0  0  0  0
  8  9  1  0  0  0  0
  8 30  1  0  0  0  0
  8 31  1  0  0  0  0
  9 32  1  0  0  0  0
  9 33  1  0  0  0  0
 10 14  1  0  0  0  0
 10 34  1  0  0  0  0
 10 35  1  0  0  0  0
 11 16  1  0  0  0  0
 11 17  1  0  0  0  0
 11 36  1  0  0  0  0
 12 15  1  0  0  0  0
 12 18  2  0  0  0  0
 13 37  1  0  0  0  0
 13 38  1  0  0  0  0
 13 39  1  0  0  0  0
 14 15  1  0  0  0  0
 14 40  1  0  0  0  0
 14 41  1  0  0  0  0
 15 42  1  0  0  0  0
 15 43  1  0  0  0  0
 16 19  1  0  0  0  0
 16 44  1  0  0  0  0
 16 45  1  0  0  0  0
 17 46  1  0  0  0  0
 17 47  1  0  0  0  0
 17 48  1  0  0  0  0
 18 20  1  0  0  0  0
 18 49  1  0  0  0  0
 20 21  2  0  0  0  0
 20 50  1  0  0  0  0
 21 22  1  0  0  0  0
 21 23  1  0  0  0  0
 22 24  1  0  0  0  0
 22 51  1  0  0  0  0
 22 52  1  0  0  0  0
 23 25  1  0  0  0  0
 23 27  2  0  0  0  0
 24 26  1  0  0  0  0
 24 53  1  0  0  0  0
 25 26  1  0  0  0  0
 25 55  1  0  0  0  0
 26 56  1  0  0  0  0
 26 57  1  0  0  0  0
 27 58  1  0  0  0  0
 27 59  1  0  0  0  0
M  END
> <PUBCHEM_COMPOUND_CID>
9547273

> <PUBCHEM_CONFORMER_RMSD>
0.8

> <PUBCHEM_CONFORMER_DIVERSEORDER>
1
6
7
2
4
5
3

> <PUBCHEM_MMFF94_PARTIAL_CHARGES>
24
1 -0.65
12 -0.28
15 0.14
16 0.06
18 -0.15
19 0.66
2 -0.57
20 -0.15
21 -0.14
22 0.14
23 -0.14
24 0.28
25 0.42
27 -0.3
3 -0.68
4 -0.68
49 0.15
50 0.15
54 0.5
58 0.15
59 0.15
60 0.4
61 0.4
7 0.14

> <PUBCHEM_EFFECTIVE_ROTOR_COUNT>
6

> <PUBCHEM_PHARMACOPHORE_FEATURES>
11
1 1 acceptor
1 17 hydrophobe
1 2 acceptor
1 3 acceptor
1 3 donor
1 4 acceptor
1 4 donor
3 1 2 19 anion
5 5 6 7 8 9 rings
6 21 22 23 24 25 26 rings
6 5 7 10 12 14 15 rings

> <PUBCHEM_HEAVY_ATOM_COUNT>
27

> <PUBCHEM_ATOM_DEF_STEREO_COUNT>
6

> <PUBCHEM_ATOM_UDEF_STEREO_COUNT>
0

> <PUBCHEM_BOND_DEF_STEREO_COUNT>
2

> <PUBCHEM_BOND_UDEF_STEREO_COUNT>
0

> <PUBCHEM_ISOTOPIC_ATOM_COUNT>
0

> <PUBCHEM_COMPONENT_COUNT>
1

> <PUBCHEM_CACTVS_TAUTO_COUNT>
1

> <PUBCHEM_CONFORMER_ID>
0091AE0900000001

> <PUBCHEM_MMFF94_ENERGY>
81.8113

> <PUBCHEM_FEATURE_SELFOVERLAP>
55.934

> <PUBCHEM_SHAPE_FINGERPRINT>
10 15 18113057116949401336
10670039 82 10015869781607760383
10693767 8 13254531872206263792
11089746 13 15864074269540456537
11135609 12 18409726296231024692
11405975 8 18335133147455606889
11796584 16 17775014530136826126
12035758 1 17967829240866367146
12107183 9 18261385672744165225
12166972 35 17418372498135545988
12236239 1 17275383231098315212
12422481 6 17894636933247707372
12596602 18 16081090342349165351
12633257 1 18260829246466252095
13257819 101 7420954149097459984
13540713 4 17534617415894741524
13540713 5 17606975996376165172
13668630 136 15841549695270590938
13673619 4 18060139838196801421
13690498 29 17632583772584717933
13782708 43 17418106446512859050
14251764 30 18202006529631200576
14341114 176 18113897152270203173
14420673 8 18343299263090686107
14790565 3 17471014683806731748
14849402 71 18042970865862289904
14955137 171 18261396624679076904
15183329 4 11815901171408968204
15301273 46 17603578660576375198
15348495 7 17676777465631435842
15475509 35 17988378056769938874
15927050 60 17685497547008585900
16110190 28 18260268516630861287
17492 89 18050007697498726831
17780758 139 18187365437317666353
1813 80 18060695087674801005
18335252 98 18343021078517528626
18681886 176 14836119931788216972
1979834 28 17604138281455447246
20281389 69 7204770389480037278
21033648 29 17313392274782544185
21150785 3 14333404554352872566
21267235 1 18335982056552947292
21403212 168 18338228367646419585
21521239 73 13902190400412047624
21637258 2 17346888853335488332
21781051 124 18261943121129668294
22122407 14 14201687407583673738
22224240 67 17240208745897715142
22393880 68 11455623058369732725
23035841 295 18131913771208997651
23522609 53 18055884736761505925
23559900 14 18058170531926439221
2838139 119 7276822489996311370
3004659 81 17418375779200214340
392239 28 16950568744346975186
465052 167 18410856556104464740
5104073 3 18188487952790273489
559249 180 18343585144977915095
636775 8 18339072796840409710
7495541 125 18341049631961211252
999808 66 17274811459772555235

> <PUBCHEM_SHAPE_MULTIPOLES>
532.17
18.26
2.37
1.41
4.32
1
0.11
-9
7.76
-0.3
0.03
-0.21
-0.47
0.03

> <PUBCHEM_SHAPE_SELFOVERLAP>
1112.471

> <PUBCHEM_SHAPE_VOLUME>
300.7

> <PUBCHEM_COORDINATE_TYPE>
2
5
10

$$$$

