51090880
  -OEChem-06241223003D

 44 46  0     0  0  0  0  0  0999 V2000
   -2.4170   -1.8490    2.3641 Cl  0  0  0  0  0  0  0  0  0  0  0  0
    1.0427   -0.2627   -2.2963 O   0  0  0  0  0  0  0  0  0  0  0  0
   -4.4941   -0.8564    0.4402 O   0  0  0  0  0  0  0  0  0  0  0  0
    1.5221    1.0273   -0.4040 N   0  0  0  0  0  0  0  0  0  0  0  0
   -3.0339    0.0410   -1.1046 N   0  0  0  0  0  0  0  0  0  0  0  0
    5.5994   -1.7094    0.6734 N   0  0  0  0  0  0  0  0  0  0  0  0
    1.0971    1.5823    0.8660 C   0  0  0  0  0  0  0  0  0  0  0  0
   -0.1572    2.3986    0.9740 C   0  0  0  0  0  0  0  0  0  0  0  0
    1.1818    3.0552    1.1401 C   0  0  0  0  0  0  0  0  0  0  0  0
    2.9008    1.2963   -0.7915 C   0  0  0  0  0  0  0  0  0  0  0  0
    0.7135    0.2232   -1.2154 C   0  0  0  0  0  0  0  0  0  0  0  0
    3.8435    0.2457   -0.2797 C   0  0  0  0  0  0  0  0  0  0  0  0
   -0.6466   -0.0817   -0.7425 C   0  0  0  0  0  0  0  0  0  0  0  0
    4.2045    0.2265    1.0629 C   0  0  0  0  0  0  0  0  0  0  0  0
    4.3594   -0.7114   -1.1464 C   0  0  0  0  0  0  0  0  0  0  0  0
   -0.8558   -0.7498    0.4589 C   0  0  0  0  0  0  0  0  0  0  0  0
   -1.7592    0.2888   -1.4807 C   0  0  0  0  0  0  0  0  0  0  0  0
   -2.1526   -1.0229    0.8795 C   0  0  0  0  0  0  0  0  0  0  0  0
    5.0776   -0.7630    1.4856 C   0  0  0  0  0  0  0  0  0  0  0  0
    5.2256   -1.6588   -0.6249 C   0  0  0  0  0  0  0  0  0  0  0  0
   -3.1978   -0.6102    0.0687 C   0  0  0  0  0  0  0  0  0  0  0  0
   -5.4730    0.0784    0.0029 C   0  0  0  0  0  0  0  0  0  0  0  0
   -5.9914   -0.3421   -1.3639 C   0  0  0  0  0  0  0  0  0  0  0  0
   -6.5892    0.1539    1.0337 C   0  0  0  0  0  0  0  0  0  0  0  0
    1.3210    0.9243    1.7002 H   0  0  0  0  0  0  0  0  0  0  0  0
    1.4718    3.3661    2.1364 H   0  0  0  0  0  0  0  0  0  0  0  0
    1.5022    3.7256    0.3522 H   0  0  0  0  0  0  0  0  0  0  0  0
   -0.7116    2.6693    0.0842 H   0  0  0  0  0  0  0  0  0  0  0  0
   -0.7683    2.2727    1.8597 H   0  0  0  0  0  0  0  0  0  0  0  0
    3.2139    2.2831   -0.4322 H   0  0  0  0  0  0  0  0  0  0  0  0
    2.9531    1.3463   -1.8863 H   0  0  0  0  0  0  0  0  0  0  0  0
    3.8330    0.9623    1.7673 H   0  0  0  0  0  0  0  0  0  0  0  0
    4.0997   -0.7282   -2.1993 H   0  0  0  0  0  0  0  0  0  0  0  0
   -0.0099   -1.0764    1.0593 H   0  0  0  0  0  0  0  0  0  0  0  0
   -1.6609    0.8150   -2.4254 H   0  0  0  0  0  0  0  0  0  0  0  0
    5.3925   -0.8199    2.5224 H   0  0  0  0  0  0  0  0  0  0  0  0
    5.6552   -2.4273   -1.2591 H   0  0  0  0  0  0  0  0  0  0  0  0
   -5.0424    1.0871   -0.0644 H   0  0  0  0  0  0  0  0  0  0  0  0
   -6.1881    0.4519    2.0085 H   0  0  0  0  0  0  0  0  0  0  0  0
   -7.3591    0.8729    0.7377 H   0  0  0  0  0  0  0  0  0  0  0  0
   -5.2143   -0.3488   -2.1321 H   0  0  0  0  0  0  0  0  0  0  0  0
   -6.7871    0.3294   -1.7027 H   0  0  0  0  0  0  0  0  0  0  0  0
   -6.3955   -1.3603   -1.3253 H   0  0  0  0  0  0  0  0  0  0  0  0
   -7.0587   -0.8260    1.1737 H   0  0  0  0  0  0  0  0  0  0  0  0
  1 18  1  0  0  0  0
  2 11  2  0  0  0  0
  3 21  1  0  0  0  0
  3 22  1  0  0  0  0
  4  7  1  0  0  0  0
  4 10  1  0  0  0  0
  4 11  1  0  0  0  0
  5 17  2  0  0  0  0
  5 21  1  0  0  0  0
  6 19  2  0  0  0  0
  6 20  1  0  0  0  0
  7  8  1  0  0  0  0
  7  9  1  0  0  0  0
  7 25  1  0  0  0  0
  8  9  1  0  0  0  0
  8 28  1  0  0  0  0
  8 29  1  0  0  0  0
  9 26  1  0  0  0  0
  9 27  1  0  0  0  0
 10 12  1  0  0  0  0
 10 30  1  0  0  0  0
 10 31  1  0  0  0  0
 11 13  1  0  0  0  0
 12 14  2  0  0  0  0
 12 15  1  0  0  0  0
 13 16  2  0  0  0  0
 13 17  1  0  0  0  0
 14 19  1  0  0  0  0
 14 32  1  0  0  0  0
 15 20  2  0  0  0  0
 15 33  1  0  0  0  0
 16 18  1  0  0  0  0
 16 34  1  0  0  0  0
 17 35  1  0  0  0  0
 18 21  2  0  0  0  0
 19 36  1  0  0  0  0
 20 37  1  0  0  0  0
 22 23  1  0  0  0  0
 22 24  1  0  0  0  0
 22 38  1  0  0  0  0
 23 41  1  0  0  0  0
 23 42  1  0  0  0  0
 23 43  1  0  0  0  0
 24 39  1  0  0  0  0
 24 40  1  0  0  0  0
 24 44  1  0  0  0  0
M  END
> <PUBCHEM_COMPOUND_CID>
51090880

> <PUBCHEM_CONFORMER_RMSD>
0.8

> <PUBCHEM_CONFORMER_DIVERSEORDER>
1
160
86
206
29
154
209
177
71
217
114
127
184
34
58
133
106
170
123
158
178
180
107
130
197
221
36
199
213
212
203
48
120
101
44
124
41
159
50
156
181
88
211
93
76
66
190
167
175
164
198
121
74
33
138
67
91
112
49
179
122
102
195
128
151
64
216
98
201
65
80
20
97
63
145
13
96
18
157
126
119
53
165
137
83
189
215
186
82
52
12
150
54
10
87
108
219
222
73
182
173
79
162
205
196
169
143
42
109
147
188
95
136
139
16
68
47
148
59
193
207
46
200
118
51
153
38
183
104
4
69
43
23
220
25
168
194
40
144
161
185
111
75
132
100
134
146
131
125
141
218
92
110
81
129
103
172
105
30
90
37
15
55
202
152
22
99
27
39
187
17
115
113
7
21
35
149
28
174
14
163
6
171
60
57
116
204
31
166
142
5
140
176
94
84
85
117
89
135
70
191
78
208
155
72
210
192
2
61
32
56
62
45
9
24
214
26
77
8
3
19
11

> <PUBCHEM_MMFF94_PARTIAL_CHARGES>
33
1 -0.18
10 0.44
11 0.54
12 -0.14
13 0.09
14 -0.15
15 -0.15
16 -0.15
17 0.16
18 0.18
19 0.16
2 -0.57
20 0.16
21 0.39
22 0.28
25 0.1
26 0.1
27 0.1
28 0.1
29 0.1
3 -0.36
32 0.15
33 0.15
34 0.15
35 0.15
36 0.15
37 0.15
4 -0.51
5 -0.62
6 -0.62
7 0.05
8 -0.2
9 -0.2

> <PUBCHEM_EFFECTIVE_ROTOR_COUNT>
7.6

> <PUBCHEM_PHARMACOPHORE_FEATURES>
7
1 2 acceptor
1 3 acceptor
1 5 acceptor
1 6 acceptor
3 22 23 24 hydrophobe
6 5 13 16 17 18 21 rings
6 6 12 14 15 19 20 rings

> <PUBCHEM_HEAVY_ATOM_COUNT>
24

> <PUBCHEM_ATOM_DEF_STEREO_COUNT>
0

> <PUBCHEM_ATOM_UDEF_STEREO_COUNT>
0

> <PUBCHEM_BOND_DEF_STEREO_COUNT>
0

> <PUBCHEM_BOND_UDEF_STEREO_COUNT>
0

> <PUBCHEM_ISOTOPIC_ATOM_COUNT>
0

> <PUBCHEM_COMPONENT_COUNT>
1

> <PUBCHEM_CACTVS_TAUTO_COUNT>
1

> <PUBCHEM_CONFORMER_ID>
030B95C000000001

> <PUBCHEM_MMFF94_ENERGY>
71.3711

> <PUBCHEM_FEATURE_SELFOVERLAP>
35.57

> <PUBCHEM_SHAPE_FINGERPRINT>
10498660 4 10807924982220644142
11405975 8 18115869603632746095
11545043 162 18059289864980812531
11578080 2 17771048415602272657
11796584 16 18060413586769998002
12166972 35 17774996852853477877
12236239 1 16732703848393006711
12422481 6 17459175430076143249
12549972 3 18126561220040945793
12596602 18 16732991903180986918
12760667 363 18339641252160922546
13134695 92 18188208697863885168
13533116 47 18408042931508240746
13583140 156 17975405824357204315
13782708 43 18270678654817629115
13965767 371 15940303504645462011
14341114 328 13840269173916033902
14466204 15 18114739438591647201
14528608 73 11455892468208438942
14617045 38 17131829889085298954
15183329 4 17703792547930101647
15238133 3 18335406998438346069
15295992 7 18338231545231258753
15885798 251 18333732429381063232
15961568 22 5761654810760709602
17349148 13 17023173895333764699
1813 80 17967808358419122540
18222031 100 17603575318881095092
192875 21 17313376786798145897
19784866 240 17917712461448092162
20511986 3 15792021116398245917
20567600 234 15140971625132472946
20832881 197 18411418410166057577
21344244 181 14764343881446866976
21521721 280 11743827088717375461
21618674 57 18341611499667101105
2215653 11 18060423516533926231
22182313 1 17241595307259450028
23175994 123 18410293609697190664
23227448 37 6915676922301169194
23402539 116 17821730542177065181
23559900 14 17916866815882247501
3004659 81 17917709119926677598
33382 64 17775567571890709746
345986 75 18266190602533604986
4072396 5 17676203584854221508
4325135 7 6988320525845323835
5104073 3 17677892332342269203
633830 44 13973678365321080038
8509985 295 18333729091822118268
8988823 20 17385449799937348176

> <PUBCHEM_SHAPE_MULTIPOLES>
469.1
13.7
2.04
1.84
6.91
1.23
-0.05
-5.86
-0.8
-1.59
-1.16
0.29
-0.32
0.59

> <PUBCHEM_SHAPE_SELFOVERLAP>
984.524

> <PUBCHEM_SHAPE_VOLUME>
265.5

> <PUBCHEM_COORDINATE_TYPE>
2
5
10

$$$$

