15818234
  -OEChem-07051213093D

 60 62  0     1  0  0  0  0  0999 V2000
    5.7124   -0.6667    0.5734 Cl  0  0  0  0  0  0  0  0  0  0  0  0
    1.7726    0.1912    0.0366 O   0  0  0  0  0  0  0  0  0  0  0  0
   -1.3723    2.7932   -1.8167 O   0  0  0  0  0  0  0  0  0  0  0  0
   -2.8970   -2.1796    1.1753 N   0  3  0  0  0  0  0  0  0  0  0  0
   -0.0825    1.4684    1.3490 N   0  3  0  0  0  0  0  0  0  0  0  0
   -1.0408    0.1619   -0.4807 C   0  0  1  0  0  0  0  0  0  0  0  0
   -0.1839   -1.0962   -0.2134 C   0  0  2  0  0  0  0  0  0  0  0  0
   -2.4436   -0.0044    0.1842 C   0  0  2  0  0  0  0  0  0  0  0  0
   -3.0589   -1.4280   -0.0475 C   0  0  1  0  0  0  0  0  0  0  0  0
    1.2846   -0.9645   -0.6551 C   0  0  2  0  0  0  0  0  0  0  0  0
   -0.3885    1.4983   -0.0516 C   0  0  1  0  0  0  0  0  0  0  0  0
   -0.8151   -2.3231   -0.9011 C   0  0  0  0  0  0  0  0  0  0  0  0
   -3.3356    1.1820   -0.2259 C   0  0  0  0  0  0  0  0  0  0  0  0
   -2.3195   -2.1947   -1.1550 C   0  0  0  0  0  0  0  0  0  0  0  0
   -1.2909    2.7053   -0.3870 C   0  0  2  0  0  0  0  0  0  0  0  0
   -2.7098    2.5236    0.1706 C   0  0  0  0  0  0  0  0  0  0  0  0
    2.0371   -2.2396   -0.2461 C   0  0  0  0  0  0  0  0  0  0  0  0
   -4.5630   -1.4331   -0.3541 C   0  0  0  0  0  0  0  0  0  0  0  0
    1.2863   -0.7595   -2.1756 C   0  0  0  0  0  0  0  0  0  0  0  0
    3.1878    0.4315    0.1306 C   0  0  0  0  0  0  0  0  0  0  0  0
    3.5485   -2.0588   -0.2818 C   0  0  0  0  0  0  0  0  0  0  0  0
   -0.6830    4.0225    0.1076 C   0  0  0  0  0  0  0  0  0  0  0  0
    3.9328   -0.8516    0.5684 C   0  0  1  0  0  0  0  0  0  0  0  0
    3.3109    1.5047    1.2310 C   0  0  0  0  0  0  0  0  0  0  0  0
    3.7138    1.0547   -1.1725 C   0  0  0  0  0  0  0  0  0  0  0  0
   -2.7675   -2.7814    2.1536 C   0  5  0  0  0  0  0  0  0  0  0  0
    0.1650    1.4438    2.4839 C   0  5  0  0  0  0  0  0  0  0  0  0
   -1.2048    0.2292   -1.5658 H   0  0  0  0  0  0  0  0  0  0  0  0
   -0.1948   -1.2639    0.8732 H   0  0  0  0  0  0  0  0  0  0  0  0
   -2.3079    0.1004    1.2701 H   0  0  0  0  0  0  0  0  0  0  0  0
    0.5111    1.6972   -0.6386 H   0  0  0  0  0  0  0  0  0  0  0  0
   -0.6660   -3.1775   -0.2249 H   0  0  0  0  0  0  0  0  0  0  0  0
   -0.3600   -2.6588   -1.8317 H   0  0  0  0  0  0  0  0  0  0  0  0
   -4.3117    1.1190    0.2670 H   0  0  0  0  0  0  0  0  0  0  0  0
   -3.5151    1.1628   -1.3077 H   0  0  0  0  0  0  0  0  0  0  0  0
   -2.4764   -1.6857   -2.1152 H   0  0  0  0  0  0  0  0  0  0  0  0
   -2.7376   -3.2031   -1.2728 H   0  0  0  0  0  0  0  0  0  0  0  0
   -3.3634    3.3242   -0.1984 H   0  0  0  0  0  0  0  0  0  0  0  0
   -2.6985    2.6010    1.2650 H   0  0  0  0  0  0  0  0  0  0  0  0
    1.7678   -3.0908   -0.8817 H   0  0  0  0  0  0  0  0  0  0  0  0
    1.7668   -2.5138    0.7827 H   0  0  0  0  0  0  0  0  0  0  0  0
   -4.7890   -0.9062   -1.2868 H   0  0  0  0  0  0  0  0  0  0  0  0
   -4.9372   -2.4586   -0.4599 H   0  0  0  0  0  0  0  0  0  0  0  0
   -5.1386   -0.9757    0.4582 H   0  0  0  0  0  0  0  0  0  0  0  0
    2.3035   -0.8180   -2.5704 H   0  0  0  0  0  0  0  0  0  0  0  0
    0.7343   -1.4804   -2.7759 H   0  0  0  0  0  0  0  0  0  0  0  0
    0.9336    0.2411   -2.4475 H   0  0  0  0  0  0  0  0  0  0  0  0
    4.0260   -2.9656    0.1096 H   0  0  0  0  0  0  0  0  0  0  0  0
    3.8957   -1.9452   -1.3147 H   0  0  0  0  0  0  0  0  0  0  0  0
   -0.6423    4.0813    1.1991 H   0  0  0  0  0  0  0  0  0  0  0  0
    0.3307    4.1554   -0.2874 H   0  0  0  0  0  0  0  0  0  0  0  0
   -1.2671    4.8777   -0.2522 H   0  0  0  0  0  0  0  0  0  0  0  0
    3.6565   -1.0843    1.6047 H   0  0  0  0  0  0  0  0  0  0  0  0
   -1.9563    3.5378   -2.0404 H   0  0  0  0  0  0  0  0  0  0  0  0
    2.9661    1.1199    2.1960 H   0  0  0  0  0  0  0  0  0  0  0  0
    4.3448    1.8414    1.3611 H   0  0  0  0  0  0  0  0  0  0  0  0
    2.7011    2.3837    0.9928 H   0  0  0  0  0  0  0  0  0  0  0  0
    2.9875    1.7617   -1.5888 H   0  0  0  0  0  0  0  0  0  0  0  0
    4.6543    1.5942   -1.0142 H   0  0  0  0  0  0  0  0  0  0  0  0
    3.9161    0.3064   -1.9412 H   0  0  0  0  0  0  0  0  0  0  0  0
  1 23  1  0  0  0  0
  2 10  1  0  0  0  0
  2 20  1  0  0  0  0
  3 15  1  0  0  0  0
  3 54  1  0  0  0  0
  4  9  1  0  0  0  0
  4 26  3  0  0  0  0
  5 11  1  0  0  0  0
  5 27  3  0  0  0  0
  6  7  1  0  0  0  0
  6  8  1  0  0  0  0
  6 11  1  0  0  0  0
  6 28  1  0  0  0  0
  7 10  1  0  0  0  0
  7 12  1  0  0  0  0
  7 29  1  0  0  0  0
  8  9  1  0  0  0  0
  8 13  1  0  0  0  0
  8 30  1  0  0  0  0
  9 14  1  0  0  0  0
  9 18  1  0  0  0  0
 10 17  1  0  0  0  0
 10 19  1  0  0  0  0
 11 15  1  0  0  0  0
 11 31  1  0  0  0  0
 12 14  1  0  0  0  0
 12 32  1  0  0  0  0
 12 33  1  0  0  0  0
 13 16  1  0  0  0  0
 13 34  1  0  0  0  0
 13 35  1  0  0  0  0
 14 36  1  0  0  0  0
 14 37  1  0  0  0  0
 15 16  1  0  0  0  0
 15 22  1  0  0  0  0
 16 38  1  0  0  0  0
 16 39  1  0  0  0  0
 17 21  1  0  0  0  0
 17 40  1  0  0  0  0
 17 41  1  0  0  0  0
 18 42  1  0  0  0  0
 18 43  1  0  0  0  0
 18 44  1  0  0  0  0
 19 45  1  0  0  0  0
 19 46  1  0  0  0  0
 19 47  1  0  0  0  0
 20 23  1  0  0  0  0
 20 24  1  0  0  0  0
 20 25  1  0  0  0  0
 21 23  1  0  0  0  0
 21 48  1  0  0  0  0
 21 49  1  0  0  0  0
 22 50  1  0  0  0  0
 22 51  1  0  0  0  0
 22 52  1  0  0  0  0
 23 53  1  0  0  0  0
 24 55  1  0  0  0  0
 24 56  1  0  0  0  0
 24 57  1  0  0  0  0
 25 58  1  0  0  0  0
 25 59  1  0  0  0  0
 25 60  1  0  0  0  0
M  CHG  4   4   1   5   1  26  -1  27  -1
M  END
> <PUBCHEM_COMPOUND_CID>
15818234

> <PUBCHEM_CONFORMER_RMSD>
0.8

> <PUBCHEM_CONFORMER_DIVERSEORDER>
1
2

> <PUBCHEM_MMFF94_PARTIAL_CHARGES>
14
1 -0.29
10 0.28
11 0.27
15 0.28
2 -0.56
20 0.28
23 0.29
26 -0.37
27 -0.37
3 -0.68
4 0.1
5 0.1
54 0.4
9 0.27

> <PUBCHEM_EFFECTIVE_ROTOR_COUNT>
3.8

> <PUBCHEM_PHARMACOPHORE_FEATURES>
7
1 2 acceptor
1 3 acceptor
1 3 donor
3 20 24 25 hydrophobe
6 2 10 17 20 21 23 rings
6 6 7 8 9 12 14 rings
6 6 8 11 13 15 16 rings

> <PUBCHEM_HEAVY_ATOM_COUNT>
27

> <PUBCHEM_ATOM_DEF_STEREO_COUNT>
8

> <PUBCHEM_ATOM_UDEF_STEREO_COUNT>
0

> <PUBCHEM_BOND_DEF_STEREO_COUNT>
0

> <PUBCHEM_BOND_UDEF_STEREO_COUNT>
0

> <PUBCHEM_ISOTOPIC_ATOM_COUNT>
0

> <PUBCHEM_COMPONENT_COUNT>
1

> <PUBCHEM_CACTVS_TAUTO_COUNT>
1

> <PUBCHEM_CONFORMER_ID>
00F15DFA00000001

> <PUBCHEM_MMFF94_ENERGY>
107.7642

> <PUBCHEM_FEATURE_SELFOVERLAP>
35.538

> <PUBCHEM_SHAPE_FINGERPRINT>
10366900 7 18411981347488219434
10670039 82 18341883066703140036
10675989 125 16893147080684932224
10759866 29 18412818101975519406
10863032 1 18410013272934104316
10906281 52 18338498795508146567
1100329 8 4647017647802653042
11370993 70 17906741653883725341
11578080 2 17169297895300874931
12035758 1 18408316710061826017
12156800 1 12736049875136017552
12403259 226 18261118495228013158
12403814 3 18335141968669534387
12422481 6 18265590222282914921
12553582 1 18193834842880564030
12596599 1 17096637704408711686
12633257 1 18114456859364957016
12714826 92 18333726905799620666
12788726 201 18271537484429365787
13140716 1 18336256950896104755
13224815 77 18259984860064081966
133893 2 17614849513485837911
13402501 40 18261399974378475793
14081887 123 18336550507357271676
14223421 5 18335420205372701366
14363568 33 17763726707564216072
14787075 74 17485076397879578986
14790565 3 17474107596777296773
14955137 171 17685741684969194894
15840311 113 17098028776735360339
16728300 4 15759087719204769674
16945 1 18191868916089873151
17357779 13 18189354406602307589
17492 89 18338800134155752422
20510252 161 18260831561010661922
20600515 1 18189037742621229063
20691752 17 18049183093267483954
20715895 44 17978235177182526525
20905425 154 18260830405838182166
21033648 29 17460058325645374858
22182313 1 17822849913950220854
22956985 138 17337022694697008218
23419403 2 17823158768805353657
23557571 272 18412261752743377196
23558518 356 18196931295262818646
23559900 14 18045225096695698206
2748010 2 18261943124659341375
3380486 145 18040148505185800247
350125 39 18408605864360732204
3524813 1 18041003886313409664
352729 6 18190742144341488830
4340502 62 17972592471030047089
469060 322 18268128886766786712
5104073 3 18336553828031961842
633830 44 11023014748938096835
7097593 13 17984431999199842082
81228 2 18341317994481654421
9709674 26 18190461747575980646
9981440 41 17826248559630398802

> <PUBCHEM_SHAPE_MULTIPOLES>
535.82
7.81
3.88
1.65
6.57
2.11
0.46
-3.08
1
-2.79
0.12
-0.19
-0.1
0.93

> <PUBCHEM_SHAPE_SELFOVERLAP>
1107.308

> <PUBCHEM_SHAPE_VOLUME>
305.6

> <PUBCHEM_COORDINATE_TYPE>
2
5
10

$$$$

