9556
  -OEChem-06261203483D

 25 25  0     0  0  0  0  0  0999 V2000
    1.4259    1.7872   -1.5313 F   0  0  0  0  0  0  0  0  0  0  0  0
    2.3116    1.8598    0.4510 F   0  0  0  0  0  0  0  0  0  0  0  0
    1.4045   -0.9313   -1.4976 F   0  0  0  0  0  0  0  0  0  0  0  0
    3.3484   -0.0168   -1.1633 F   0  0  0  0  0  0  0  0  0  0  0  0
    1.1694   -1.3590    1.2575 F   0  0  0  0  0  0  0  0  0  0  0  0
    3.1443   -0.4717    1.5308 F   0  0  0  0  0  0  0  0  0  0  0  0
    2.9089   -2.2614    0.3069 F   0  0  0  0  0  0  0  0  0  0  0  0
   -0.1235    1.5410    1.3743 O   0  0  0  0  0  0  0  0  0  0  0  0
   -0.7835    0.3314   -0.5282 N   0  0  0  0  0  0  0  0  0  0  0  0
    1.4837    1.1229   -0.3417 C   0  0  0  0  0  0  0  0  0  0  0  0
    2.1316   -0.2311   -0.5903 C   0  0  0  0  0  0  0  0  0  0  0  0
    0.1002    1.0347    0.2786 C   0  0  0  0  0  0  0  0  0  0  0  0
    2.3362   -1.0830    0.6388 C   0  0  0  0  0  0  0  0  0  0  0  0
   -2.1469    0.0513   -0.2763 C   0  0  0  0  0  0  0  0  0  0  0  0
   -2.8746   -0.6714   -1.2076 C   0  0  0  0  0  0  0  0  0  0  0  0
   -2.7270    0.5067    0.8964 C   0  0  0  0  0  0  0  0  0  0  0  0
   -4.2194   -0.9463   -0.9594 C   0  0  0  0  0  0  0  0  0  0  0  0
   -4.0718    0.2318    1.1446 C   0  0  0  0  0  0  0  0  0  0  0  0
   -4.8180   -0.4947    0.2168 C   0  0  0  0  0  0  0  0  0  0  0  0
   -0.4272   -0.0234   -1.4130 H   0  0  0  0  0  0  0  0  0  0  0  0
   -2.4181   -1.0279   -2.1269 H   0  0  0  0  0  0  0  0  0  0  0  0
   -2.2176    1.0746    1.6608 H   0  0  0  0  0  0  0  0  0  0  0  0
   -4.8005   -1.5120   -1.6818 H   0  0  0  0  0  0  0  0  0  0  0  0
   -4.5393    0.5831    2.0599 H   0  0  0  0  0  0  0  0  0  0  0  0
   -5.8650   -0.7087    0.4100 H   0  0  0  0  0  0  0  0  0  0  0  0
  1 10  1  0  0  0  0
  2 10  1  0  0  0  0
  3 11  1  0  0  0  0
  4 11  1  0  0  0  0
  5 13  1  0  0  0  0
  6 13  1  0  0  0  0
  7 13  1  0  0  0  0
  8 12  2  0  0  0  0
  9 12  1  0  0  0  0
  9 14  1  0  0  0  0
  9 20  1  0  0  0  0
 10 11  1  0  0  0  0
 10 12  1  0  0  0  0
 11 13  1  0  0  0  0
 14 15  2  0  0  0  0
 14 16  1  0  0  0  0
 15 17  1  0  0  0  0
 15 21  1  0  0  0  0
 16 18  2  0  0  0  0
 16 22  1  0  0  0  0
 17 19  2  0  0  0  0
 17 23  1  0  0  0  0
 18 19  1  0  0  0  0
 18 24  1  0  0  0  0
 19 25  1  0  0  0  0
M  END
> <PUBCHEM_COMPOUND_CID>
9556

> <PUBCHEM_CONFORMER_RMSD>
0.6

> <PUBCHEM_CONFORMER_DIVERSEORDER>
1
19
11
14
25
26
8
22
4
23
16
5
15
7
13
24
17
18
2
6
9
27
21
10
12
20
3

> <PUBCHEM_MMFF94_PARTIAL_CHARGES>
25
1 -0.34
10 0.74
11 0.68
12 0.57
13 1.02
14 0.12
15 -0.15
16 -0.15
17 -0.15
18 -0.15
19 -0.15
2 -0.34
20 0.37
21 0.15
22 0.15
23 0.15
24 0.15
25 0.15
3 -0.34
4 -0.34
5 -0.34
6 -0.34
7 -0.34
8 -0.57
9 -0.55

> <PUBCHEM_EFFECTIVE_ROTOR_COUNT>
5

> <PUBCHEM_PHARMACOPHORE_FEATURES>
3
1 8 acceptor
1 9 donor
6 14 15 16 17 18 19 rings

> <PUBCHEM_HEAVY_ATOM_COUNT>
19

> <PUBCHEM_ATOM_DEF_STEREO_COUNT>
0

> <PUBCHEM_ATOM_UDEF_STEREO_COUNT>
0

> <PUBCHEM_BOND_DEF_STEREO_COUNT>
0

> <PUBCHEM_BOND_UDEF_STEREO_COUNT>
0

> <PUBCHEM_ISOTOPIC_ATOM_COUNT>
0

> <PUBCHEM_COMPONENT_COUNT>
1

> <PUBCHEM_CACTVS_TAUTO_COUNT>
2

> <PUBCHEM_CONFORMER_ID>
0000255400000001

> <PUBCHEM_MMFF94_ENERGY>
31.2047

> <PUBCHEM_FEATURE_SELFOVERLAP>
15.223

> <PUBCHEM_SHAPE_FINGERPRINT>
10646746 165 15068891019050163267
11578080 2 18264509410258014953
12173636 292 12966861121998171427
12553582 1 18408039632614459903
128620 24 14117511031023048799
12932764 1 18411136935564074957
13705890 14 17275107231951679448
14144814 61 17749383737905233733
14178342 30 17167583799992265679
14289901 80 14490480768227275511
15239191 94 18409166593726553031
15375462 189 18407757053657126275
16945 1 18342179946957134516
1813 80 18266448987755738414
18186145 218 18272084977085391847
19422 9 18335414660817738043
19786989 88 17487610832384887533
20279233 1 17346321453811785665
20361792 2 18341615944773629549
20442098 301 17530967964760523223
20559304 39 17821443539229414561
20645477 70 18130795555378676663
20671657 53 17846221123628599450
21501925 9 17822300067482758297
21730867 7 17632574924840960395
2255824 54 18340763737120242148
22646028 28 18410014368430638483
232386 152 17894351064366497725
23557571 272 14490479630293180903
3323516 105 17275378803229710627
4175511 335 17561080336702175278
474 4 18048882892207528185
5161694 15 17488476320061245687
5262128 65 15697705021536394887
5374978 207 17095523968471295259
90316 7 17895187848919530481

> <PUBCHEM_SHAPE_MULTIPOLES>
329.24
7.74
1.62
1.41
6.37
0.07
0.01
-2.14
-0.71
-0.99
-0.11
-0.55
-0.06
-1.05

> <PUBCHEM_SHAPE_SELFOVERLAP>
704.428

> <PUBCHEM_SHAPE_VOLUME>
181.2

> <PUBCHEM_COORDINATE_TYPE>
2
5
10

$$$$

