6959
  -OEChem-06261201373D

 20 20  0     0  0  0  0  0  0999 V2000
    2.4958    0.8889    0.0732 S   0  0  0  0  0  0  0  0  0  0  0  0
    3.0179    0.4455   -1.4096 O   0  0  0  0  0  0  0  0  0  0  0  0
    2.7210    2.3199    0.1960 O   0  0  0  0  0  0  0  0  0  0  0  0
    3.0464   -0.0394    1.0459 O   0  0  0  0  0  0  0  0  0  0  0  0
    0.5206   -2.9514   -0.0108 O   0  5  0  0  0  0  0  0  0  0  0  0
    2.3003   -1.6669    0.0305 O   0  0  0  0  0  0  0  0  0  0  0  0
   -4.1516    1.1107   -0.0109 O   0  5  0  0  0  0  0  0  0  0  0  0
   -3.8788   -1.0674   -0.0444 O   0  0  0  0  0  0  0  0  0  0  0  0
    1.0562   -1.8183    0.0118 N   0  3  0  0  0  0  0  0  0  0  0  0
   -3.4121    0.0970   -0.0188 N   0  3  0  0  0  0  0  0  0  0  0  0
    0.7646    0.6206    0.0441 C   0  0  0  0  0  0  0  0  0  0  0  0
    0.2234   -0.6648    0.0160 C   0  0  0  0  0  0  0  0  0  0  0  0
   -0.0781    1.7321    0.0509 C   0  0  0  0  0  0  0  0  0  0  0  0
   -1.1605   -0.8384   -0.0053 C   0  0  0  0  0  0  0  0  0  0  0  0
   -2.0031    0.2733    0.0016 C   0  0  0  0  0  0  0  0  0  0  0  0
   -1.4619    1.5585    0.0297 C   0  0  0  0  0  0  0  0  0  0  0  0
    0.3087    2.7466    0.0703 H   0  0  0  0  0  0  0  0  0  0  0  0
   -1.5877   -1.8383   -0.0266 H   0  0  0  0  0  0  0  0  0  0  0  0
   -2.0878    2.4473    0.0354 H   0  0  0  0  0  0  0  0  0  0  0  0
    2.6468    0.9644   -2.1616 H   0  0  0  0  0  0  0  0  0  0  0  0
  1  2  1  0  0  0  0
  1  3  2  0  0  0  0
  1  4  2  0  0  0  0
  1 11  1  0  0  0  0
  2 20  1  0  0  0  0
  5  9  1  0  0  0  0
  6  9  2  0  0  0  0
  7 10  1  0  0  0  0
  8 10  2  0  0  0  0
  9 12  1  0  0  0  0
 10 15  1  0  0  0  0
 11 12  2  0  0  0  0
 11 13  1  0  0  0  0
 12 14  1  0  0  0  0
 13 16  2  0  0  0  0
 13 17  1  0  0  0  0
 14 15  2  0  0  0  0
 14 18  1  0  0  0  0
 15 16  1  0  0  0  0
 16 19  1  0  0  0  0
M  CHG  4   5  -1   7  -1   9   1  10   1
M  END
> <PUBCHEM_COMPOUND_CID>
6959

> <PUBCHEM_CONFORMER_RMSD>
0.6

> <PUBCHEM_CONFORMER_DIVERSEORDER>
1

> <PUBCHEM_MMFF94_PARTIAL_CHARGES>
20
1 1.49
10 0.91
11 -0.01
12 0.13
13 -0.15
14 -0.15
15 0.13
16 -0.15
17 0.15
18 0.15
19 0.15
2 -0.68
20 0.5
3 -0.65
4 -0.65
5 -0.52
6 -0.52
7 -0.52
8 -0.52
9 0.91

> <PUBCHEM_EFFECTIVE_ROTOR_COUNT>
3

> <PUBCHEM_PHARMACOPHORE_FEATURES>
11
1 2 acceptor
1 3 acceptor
1 4 acceptor
1 5 acceptor
1 5 anion
1 6 acceptor
1 7 acceptor
1 7 anion
1 8 acceptor
4 1 2 3 4 anion
6 11 12 13 14 15 16 rings

> <PUBCHEM_HEAVY_ATOM_COUNT>
16

> <PUBCHEM_ATOM_DEF_STEREO_COUNT>
0

> <PUBCHEM_ATOM_UDEF_STEREO_COUNT>
0

> <PUBCHEM_BOND_DEF_STEREO_COUNT>
0

> <PUBCHEM_BOND_UDEF_STEREO_COUNT>
0

> <PUBCHEM_ISOTOPIC_ATOM_COUNT>
0

> <PUBCHEM_COMPONENT_COUNT>
1

> <PUBCHEM_CACTVS_TAUTO_COUNT>
1

> <PUBCHEM_CONFORMER_ID>
00001B2F00000001

> <PUBCHEM_MMFF94_ENERGY>
66.7114

> <PUBCHEM_FEATURE_SELFOVERLAP>
56.195

> <PUBCHEM_SHAPE_FINGERPRINT>
10608611 8 18341336690411373685
10967382 1 18338518530065317393
10980938 120 18410575110744210019
11132069 177 18410301310763274753
11471102 20 18338804515026811749
13380535 76 18341334418120382195
13380536 305 18410006620430773876
13897977 150 18411421687352866885
14178342 30 18120100730150100904
14251717 144 18409738348093847415
14325111 11 18410857625087396425
15219456 202 18270408320611206445
15442244 35 17903918099776299881
15536298 74 18260831543862116426
15775835 57 18335702706720060024
16945 1 18410011065284101337
18186145 218 18334852805643582005
193761 8 17977948213084221297
20559304 39 18339645650091012328
20645476 183 17845079663387397142
20645477 70 18335988674770691343
21501502 16 18194958767260640921
2334 1 17905890279780637833
23402539 116 18261120617126857204
23463225 33 18342182175871074888
23552423 10 18197494241037193651
23559900 14 18267029542458423730
2748010 2 18050845520388553577
3071541 250 18119800567596429742
449060 62 18335417997669853329
4990 188 17968365797496700988
528886 8 18410297973399560424
53812653 166 18334018254732305633
581208 293 18408047303183450817
633830 44 18259980453375272325
7364860 26 18263082282956237558

> <PUBCHEM_SHAPE_MULTIPOLES>
282.07
5.72
2.34
0.73
3.82
0.94
-0.08
-1.11
-0.11
-0.88
0.06
-0.5
-0.06
-0.05

> <PUBCHEM_SHAPE_SELFOVERLAP>
592.159

> <PUBCHEM_SHAPE_VOLUME>
159.8

> <PUBCHEM_COORDINATE_TYPE>
2
5
10

$$$$

