167158
  -OEChem-07051212592D

 63 67  0     1  0  0  0  0  0999 V2000
    6.3981    3.6053    0.0000 O   0  0  0  0  0  0  0  0  0  0  0  0
    5.5321   -0.8947    0.0000 O   0  0  0  0  0  0  0  0  0  0  0  0
    2.2691   -1.9635    0.0000 O   0  0  0  0  0  0  0  0  0  0  0  0
    8.1301    3.6053    0.0000 O   0  0  0  0  0  0  0  0  0  0  0  0
    4.5059   -3.2549    0.0000 O   0  0  0  0  0  0  0  0  0  0  0  0
    3.8000    2.1053    0.0000 N   0  0  3  0  0  0  0  0  0  0  0  0
    3.8000    3.1053    0.0000 C   0  0  2  0  0  0  0  0  0  0  0  0
    4.6660    1.6053    0.0000 C   0  0  1  0  0  0  0  0  0  0  0  0
    4.6660    3.6053    0.0000 C   0  0  0  0  0  0  0  0  0  0  0  0
    2.9061    3.6400    0.0000 C   0  0  0  0  0  0  0  0  0  0  0  0
    5.5321    3.1053    0.0000 C   0  0  1  0  0  0  0  0  0  0  0  0
    5.5321    2.1053    0.0000 C   0  0  0  0  0  0  0  0  0  0  0  0
    2.9061    1.5706    0.0000 C   0  0  0  0  0  0  0  0  0  0  0  0
    2.0000    3.1261    0.0000 C   0  0  0  0  0  0  0  0  0  0  0  0
    2.0000    2.0845    0.0000 C   0  0  0  0  0  0  0  0  0  0  0  0
    4.6660    0.6053    0.0000 C   0  0  0  0  0  0  0  0  0  0  0  0
    5.5321    0.1053    0.0000 C   0  0  0  0  0  0  0  0  0  0  0  0
    3.2547    0.0282    0.0000 C   0  0  0  0  0  0  0  0  0  0  0  0
    7.2641    3.1053    0.0000 C   0  0  0  0  0  0  0  0  0  0  0  0
    3.1516   -1.4931    0.0000 C   0  0  0  0  0  0  0  0  0  0  0  0
    5.7379   -1.4055    0.0000 C   0  0  0  0  0  0  0  0  0  0  0  0
    4.4720   -2.2555    0.0000 C   0  0  0  0  0  0  0  0  0  0  0  0
    7.2641    2.1053    0.0000 C   0  0  0  0  0  0  0  0  0  0  0  0
    8.1301    1.6053    0.0000 C   0  0  0  0  0  0  0  0  0  0  0  0
    6.3981   -1.3947    0.0000 C   0  0  0  0  0  0  0  0  0  0  0  0
    8.1301    0.6053    0.0000 C   0  0  0  0  0  0  0  0  0  0  0  0
    6.5162   -0.4057    0.0000 C   0  0  0  0  0  0  0  0  0  0  0  0
    7.2641   -0.8947    0.0000 C   0  0  0  0  0  0  0  0  0  0  0  0
    7.1682    0.3472    0.0000 C   0  0  0  0  0  0  0  0  0  0  0  0
    7.2641    0.1053    0.0000 C   0  0  0  0  0  0  0  0  0  0  0  0
    2.2353   -2.9629    0.0000 C   0  0  0  0  0  0  0  0  0  0  0  0
    5.3883   -3.7253    0.0000 C   0  0  0  0  0  0  0  0  0  0  0  0
    3.8000    3.9553    0.0000 H   0  0  0  0  0  0  0  0  0  0  0  0
    3.9299    1.1803    0.0000 H   0  0  0  0  0  0  0  0  0  0  0  0
    5.0646    4.0802    0.0000 H   0  0  0  0  0  0  0  0  0  0  0  0
    4.2675    4.0802    0.0000 H   0  0  0  0  0  0  0  0  0  0  0  0
    3.3107    4.1098    0.0000 H   0  0  0  0  0  0  0  0  0  0  0  0
    2.5124    4.1190    0.0000 H   0  0  0  0  0  0  0  0  0  0  0  0
    5.5321    3.9553    0.0000 H   0  0  0  0  0  0  0  0  0  0  0  0
    5.7441    1.5227    0.0000 H   0  0  0  0  0  0  0  0  0  0  0  0
    6.1426    2.2130    0.0000 H   0  0  0  0  0  0  0  0  0  0  0  0
    2.5124    1.0916    0.0000 H   0  0  0  0  0  0  0  0  0  0  0  0
    3.3107    1.1009    0.0000 H   0  0  0  0  0  0  0  0  0  0  0  0
    1.7909    3.7098    0.0000 H   0  0  0  0  0  0  0  0  0  0  0  0
    1.3891    3.0200    0.0000 H   0  0  0  0  0  0  0  0  0  0  0  0
    1.3891    2.1906    0.0000 H   0  0  0  0  0  0  0  0  0  0  0  0
    1.7909    1.5008    0.0000 H   0  0  0  0  0  0  0  0  0  0  0  0
    2.7520    0.3910    0.0000 H   0  0  0  0  0  0  0  0  0  0  0  0
    6.3035   -1.6595    0.0000 H   0  0  0  0  0  0  0  0  0  0  0  0
    6.6535    2.2130    0.0000 H   0  0  0  0  0  0  0  0  0  0  0  0
    7.0521    1.5227    0.0000 H   0  0  0  0  0  0  0  0  0  0  0  0
    8.7407    1.4976    0.0000 H   0  0  0  0  0  0  0  0  0  0  0  0
    8.3422    2.1879    0.0000 H   0  0  0  0  0  0  0  0  0  0  0  0
    5.9491   -0.1550    0.0000 H   0  0  0  0  0  0  0  0  0  0  0  0
    7.8010   -1.2047    0.0000 H   0  0  0  0  0  0  0  0  0  0  0  0
    6.8390    0.8726    0.0000 H   0  0  0  0  0  0  0  0  0  0  0  0
    6.7272    0.4153    0.0000 H   0  0  0  0  0  0  0  0  0  0  0  0
    1.6156   -2.9419    0.0000 H   0  0  0  0  0  0  0  0  0  0  0  0
    2.2143   -3.5826    0.0000 H   0  0  0  0  0  0  0  0  0  0  0  0
    2.8549   -2.9839    0.0000 H   0  0  0  0  0  0  0  0  0  0  0  0
    5.0967   -4.2724    0.0000 H   0  0  0  0  0  0  0  0  0  0  0  0
    5.9355   -4.0169    0.0000 H   0  0  0  0  0  0  0  0  0  0  0  0
    5.6800   -3.1782    0.0000 H   0  0  0  0  0  0  0  0  0  0  0  0
  1 11  1  0  0  0  0
  1 19  1  0  0  0  0
  2 17  1  0  0  0  0
  2 25  1  0  0  0  0
  3 20  1  0  0  0  0
  3 31  1  0  0  0  0
  4 19  2  0  0  0  0
  5 22  1  0  0  0  0
  5 32  1  0  0  0  0
  6  7  1  0  0  0  0
  6  8  1  0  0  0  0
  6 13  1  0  0  0  0
  7  9  1  0  0  0  0
  7 10  1  0  0  0  0
  7 33  1  6  0  0  0
  8 12  1  0  0  0  0
  8 16  1  0  0  0  0
  8 34  1  6  0  0  0
  9 11  1  0  0  0  0
  9 35  1  0  0  0  0
  9 36  1  0  0  0  0
 10 14  1  0  0  0  0
 10 37  1  0  0  0  0
 10 38  1  0  0  0  0
 11 12  1  0  0  0  0
 11 39  1  1  0  0  0
 12 40  1  0  0  0  0
 12 41  1  0  0  0  0
 13 15  1  0  0  0  0
 13 42  1  0  0  0  0
 13 43  1  0  0  0  0
 14 15  1  0  0  0  0
 14 44  1  0  0  0  0
 14 45  1  0  0  0  0
 15 46  1  0  0  0  0
 15 47  1  0  0  0  0
 16 17  1  0  0  0  0
 16 18  2  0  0  0  0
 17 21  2  0  0  0  0
 18 20  1  0  0  0  0
 18 48  1  0  0  0  0
 19 23  1  0  0  0  0
 20 22  2  0  0  0  0
 21 22  1  0  0  0  0
 21 49  1  0  0  0  0
 23 24  1  0  0  0  0
 23 50  1  0  0  0  0
 23 51  1  0  0  0  0
 24 26  1  0  0  0  0
 24 52  1  0  0  0  0
 24 53  1  0  0  0  0
 25 27  2  0  0  0  0
 25 28  1  0  0  0  0
 26 29  2  0  0  0  0
 26 30  1  0  0  0  0
 27 29  1  0  0  0  0
 27 54  1  0  0  0  0
 28 30  2  0  0  0  0
 28 55  1  0  0  0  0
 29 56  1  0  0  0  0
 30 57  1  0  0  0  0
 31 58  1  0  0  0  0
 31 59  1  0  0  0  0
 31 60  1  0  0  0  0
 32 61  1  0  0  0  0
 32 62  1  0  0  0  0
 32 63  1  0  0  0  0
M  END
> <PUBCHEM_COMPOUND_CID>
167158

> <PUBCHEM_COMPOUND_CANONICALIZED>
1

> <PUBCHEM_CACTVS_COMPLEXITY>
636

> <PUBCHEM_CACTVS_HBOND_ACCEPTOR>
6

> <PUBCHEM_CACTVS_HBOND_DONOR>
0

> <PUBCHEM_CACTVS_ROTATABLE_BOND>
2

> <PUBCHEM_CACTVS_SUBSKEYS>
AAADceB6OAAAAAAAAAAAAAAAAAAAAAAAAAA8eIEAAAAAAACxQAAAHgAAAAAADDzhmAYyDoMABACIAiDSCACCCAAgIAAIiAEOjIgNJzKEsRuGOCrnwBWKqAf4+P+OIQABCAAIQABCAAIQABCAAAAAAAAAAA==

> <PUBCHEM_IUPAC_INCHI>
InChI=1S/C26H31NO5/c1-29-24-15-21-22-14-20(13-18-5-3-4-12-27(18)22)32-26(28)11-8-17-6-9-19(10-7-17)31-23(21)16-25(24)30-2/h6-7,9-10,15-16,18,20,22H,3-5,8,11-14H2,1-2H3/t18-,20-,22-/m0/s1

> <PUBCHEM_IUPAC_INCHIKEY>
PXXNTAGJWPJAGM-VCOUNFBDSA-N

> <PUBCHEM_XLOGP3_AA>
4.3

> <PUBCHEM_EXACT_MASS>
437.220223

> <PUBCHEM_MOLECULAR_FORMULA>
C26H31NO5

> <PUBCHEM_MOLECULAR_WEIGHT>
437.52804

> <PUBCHEM_OPENEYE_CAN_SMILES>
COC1=C(C=C2C(=C1)C3CC(CC4N3CCCC4)OC(=O)CCC5=CC=C(O2)C=C5)OC

> <PUBCHEM_OPENEYE_ISO_SMILES>
COC1=C(C=C2C(=C1)[C@@H]3C[C@H](C[C@H]4N3CCCC4)OC(=O)CCC5=CC=C(O2)C=C5)OC

> <PUBCHEM_CACTVS_TPSA>
57.2

> <PUBCHEM_MONOISOTOPIC_WEIGHT>
437.220223

> <PUBCHEM_TOTAL_CHARGE>
0

> <PUBCHEM_HEAVY_ATOM_COUNT>
32

> <PUBCHEM_ATOM_DEF_STEREO_COUNT>
3

> <PUBCHEM_ATOM_UDEF_STEREO_COUNT>
0

> <PUBCHEM_BOND_DEF_STEREO_COUNT>
0

> <PUBCHEM_BOND_UDEF_STEREO_COUNT>
0

> <PUBCHEM_ISOTOPIC_ATOM_COUNT>
0

> <PUBCHEM_COMPONENT_COUNT>
1

> <PUBCHEM_CACTVS_TAUTO_COUNT>
1

> <PUBCHEM_COORDINATE_TYPE>
1
5
255

> <PUBCHEM_BONDANNOTATIONS>
11  39  5
16  17  8
16  18  8
17  21  8
18  20  8
20  22  8
21  22  8
25  27  8
25  28  8
26  29  8
26  30  8
27  29  8
28  30  8
7  33  6
8  34  6

$$$$

