47205084
  -OEChem-06241222583D

 29 30  0     0  0  0  0  0  0999 V2000
   -0.6024    1.4723    1.3906 Cl  0  0  0  0  0  0  0  0  0  0  0  0
   -5.5557    1.6311   -0.7088 Cl  0  0  0  0  0  0  0  0  0  0  0  0
    0.3073   -1.1578   -1.3154 O   0  0  0  0  0  0  0  0  0  0  0  0
    1.6718   -1.6663    0.4927 N   0  0  0  0  0  0  0  0  0  0  0  0
    3.0861    0.8015   -0.8948 N   0  0  0  0  0  0  0  0  0  0  0  0
    3.7654    1.9453   -0.7044 N   0  0  0  0  0  0  0  0  0  0  0  0
   -0.7112   -1.5592    0.8445 C   0  0  0  0  0  0  0  0  0  0  0  0
    2.9285   -1.6102   -0.2167 C   0  0  0  0  0  0  0  0  0  0  0  0
   -1.9017   -0.7377    0.4677 C   0  0  0  0  0  0  0  0  0  0  0  0
    0.4524   -1.4319   -0.1269 C   0  0  0  0  0  0  0  0  0  0  0  0
    3.5496   -0.2448   -0.1523 C   0  0  0  0  0  0  0  0  0  0  0  0
   -1.9372    0.6406    0.6792 C   0  0  0  0  0  0  0  0  0  0  0  0
   -2.9963   -1.3834   -0.1075 C   0  0  0  0  0  0  0  0  0  0  0  0
    4.6056    0.2490    0.5739 C   0  0  0  0  0  0  0  0  0  0  0  0
   -3.0670    1.3731    0.3155 C   0  0  0  0  0  0  0  0  0  0  0  0
   -4.1262   -0.6508   -0.4713 C   0  0  0  0  0  0  0  0  0  0  0  0
   -4.1614    0.7276   -0.2597 C   0  0  0  0  0  0  0  0  0  0  0  0
    4.6923    1.6017    0.1938 C   0  0  0  0  0  0  0  0  0  0  0  0
   -0.3945   -1.3095    1.8645 H   0  0  0  0  0  0  0  0  0  0  0  0
   -0.9741   -2.6249    0.8795 H   0  0  0  0  0  0  0  0  0  0  0  0
    2.7753   -1.9038   -1.2613 H   0  0  0  0  0  0  0  0  0  0  0  0
    3.5942   -2.3469    0.2456 H   0  0  0  0  0  0  0  0  0  0  0  0
    1.6976   -1.8781    1.4858 H   0  0  0  0  0  0  0  0  0  0  0  0
   -2.9851   -2.4562   -0.2818 H   0  0  0  0  0  0  0  0  0  0  0  0
    5.2232   -0.2902    1.2772 H   0  0  0  0  0  0  0  0  0  0  0  0
    2.3128    0.8070   -1.5483 H   0  0  0  0  0  0  0  0  0  0  0  0
   -3.0963    2.4482    0.4800 H   0  0  0  0  0  0  0  0  0  0  0  0
   -4.9715   -1.1670   -0.9191 H   0  0  0  0  0  0  0  0  0  0  0  0
    5.3923    2.3512    0.5341 H   0  0  0  0  0  0  0  0  0  0  0  0
  1 12  1  0  0  0  0
  2 17  1  0  0  0  0
  3 10  2  0  0  0  0
  4  8  1  0  0  0  0
  4 10  1  0  0  0  0
  4 23  1  0  0  0  0
  5  6  1  0  0  0  0
  5 11  1  0  0  0  0
  5 26  1  0  0  0  0
  6 18  2  0  0  0  0
  7  9  1  0  0  0  0
  7 10  1  0  0  0  0
  7 19  1  0  0  0  0
  7 20  1  0  0  0  0
  8 11  1  0  0  0  0
  8 21  1  0  0  0  0
  8 22  1  0  0  0  0
  9 12  2  0  0  0  0
  9 13  1  0  0  0  0
 11 14  2  0  0  0  0
 12 15  1  0  0  0  0
 13 16  2  0  0  0  0
 13 24  1  0  0  0  0
 14 18  1  0  0  0  0
 14 25  1  0  0  0  0
 15 17  2  0  0  0  0
 15 27  1  0  0  0  0
 16 17  1  0  0  0  0
 16 28  1  0  0  0  0
 18 29  1  0  0  0  0
M  END
> <PUBCHEM_COMPOUND_CID>
47205084

> <PUBCHEM_CONFORMER_RMSD>
0.6

> <PUBCHEM_CONFORMER_DIVERSEORDER>
2
39
341
138
92
209
153
190
280
96
195
293
214
221
60
327
277
175
43
325
121
218
160
262
36
107
241
238
177
291
9
267
331
333
35
223
70
99
181
147
102
227
212
236
288
210
266
196
146
197
148
57
53
88
65
213
230
219
316
228
32
305
142
86
23
168
30
317
345
166
128
8
217
336
283
78
244
245
159
350
273
274
255
64
5
204
7
347
297
51
114
108
323
216
104
299
252
158
139
16
169
63
208
232
200
54
149
76
322
3
61
93
130
231
206
284
211
304
47
25
199
37
33
75
127
295
125
328
246
309
329
117
10
354
110
172
124
109
151
145
264
324
312
44
279
90
140
270
184
164
320
332
143
26
193
207
46
22
18
337
272
106
101
123
269
281
59
220
351
21
301
137
250
116
67
152
321
348
224
38
311
294
170
343
254
34
222
174
276
349
306
194
83
259
334
119
133
335
256
79
28
282
31
226
292
118
268
318
103
234
243
257
205
14
4
240
330
326
66
135
85
80
129
198
52
29
41
261
296
173
302
82
126
353
338
15
56
237
176
71
180
12
186
340
136
179
263
313
11
189
286
339
77
131
50
310
105
352
98
183
187
45
115
167
314
62
113
355
81
346
287
134
235
154
69
242
156
307
95
163
171
144
298
233
249
150
24
308
89
290
73
258
97
289
215
271
84
155
303
201
68
72
112
344
191
111
300
17
20
253
229
178
157
161
27
251
319
94
19
49
278
247
265
58
188
203
48
1
239
162
91
13
6
275
165
202
74
42
285
225
185
192
182
100
87
55
315
141
40
122
260
120
132
248
342

> <PUBCHEM_MMFF94_PARTIAL_CHARGES>
25
1 -0.18
10 0.57
11 -0.33
12 0.18
13 -0.15
14 -0.15
15 -0.15
16 -0.15
17 0.18
18 0.14
2 -0.18
23 0.37
24 0.15
25 0.15
26 0.27
27 0.15
28 0.15
29 0.15
3 -0.57
4 -0.73
5 0.3
6 -0.71
7 0.2
8 0.48
9 -0.14

> <PUBCHEM_EFFECTIVE_ROTOR_COUNT>
5

> <PUBCHEM_PHARMACOPHORE_FEATURES>
6
1 3 acceptor
1 4 donor
1 5 donor
1 6 acceptor
5 5 6 11 14 18 rings
6 9 12 13 15 16 17 rings

> <PUBCHEM_HEAVY_ATOM_COUNT>
18

> <PUBCHEM_ATOM_DEF_STEREO_COUNT>
0

> <PUBCHEM_ATOM_UDEF_STEREO_COUNT>
0

> <PUBCHEM_BOND_DEF_STEREO_COUNT>
0

> <PUBCHEM_BOND_UDEF_STEREO_COUNT>
0

> <PUBCHEM_ISOTOPIC_ATOM_COUNT>
0

> <PUBCHEM_COMPONENT_COUNT>
1

> <PUBCHEM_CACTVS_TAUTO_COUNT>
4

> <PUBCHEM_CONFORMER_ID>
02D04ADC00000002

> <PUBCHEM_MMFF94_ENERGY>
25.6068

> <PUBCHEM_FEATURE_SELFOVERLAP>
30.446

> <PUBCHEM_SHAPE_MULTIPOLES>
353.36
11.03
2.18
1.02
0.78
0.1
0.06
5.71
-2.23
0.42
0
-0.06
0.15
-0.02

> <PUBCHEM_SHAPE_SELFOVERLAP>
730.093

> <PUBCHEM_SHAPE_VOLUME>
203.9

> <PUBCHEM_COORDINATE_TYPE>
2
5
10

$$$$

