4163
  -OEChem-06251223563D

 53 56  0     1  0  0  0  0  0999 V2000
   -2.5933    1.0739   -1.3316 O   0  0  0  0  0  0  0  0  0  0  0  0
   -5.6461    1.8699    1.7937 O   0  0  0  0  0  0  0  0  0  0  0  0
   -0.2509   -2.3566    0.1772 N   0  0  1  0  0  0  0  0  0  0  0  0
    5.2979   -0.0752    0.2046 N   0  0  0  0  0  0  0  0  0  0  0  0
   -4.0567    0.1090    0.2002 N   0  0  0  0  0  0  0  0  0  0  0  0
    0.9287   -1.5400   -0.2259 C   0  0  1  0  0  0  0  0  0  0  0  0
    0.7112   -0.0108   -0.0192 C   0  0  0  0  0  0  0  0  0  0  0  0
    2.2122   -2.0841    0.5047 C   0  0  0  0  0  0  0  0  0  0  0  0
   -1.7177   -0.3819    0.3450 C   0  0  1  0  0  0  0  0  0  0  0  0
   -1.5001   -1.7501   -0.3057 C   0  0  0  0  0  0  0  0  0  0  0  0
    3.3557   -1.1470    0.3434 C   0  0  0  0  0  0  0  0  0  0  0  0
    1.8936    0.8721   -0.1344 C   0  0  0  0  0  0  0  0  0  0  0  0
    3.1133    0.2112    0.0523 C   0  0  0  0  0  0  0  0  0  0  0  0
   -0.5014    0.4892    0.2761 C   0  0  0  0  0  0  0  0  0  0  0  0
    4.3267    0.8741   -0.0290 C   0  0  0  0  0  0  0  0  0  0  0  0
    4.7186   -1.3045    0.4342 C   0  0  0  0  0  0  0  0  0  0  0  0
   -0.1629   -3.7375   -0.3089 C   0  0  0  0  0  0  0  0  0  0  0  0
   -2.8169    0.3454   -0.3683 C   0  0  0  0  0  0  0  0  0  0  0  0
    1.9448    2.2440   -0.4097 C   0  0  0  0  0  0  0  0  0  0  0  0
    4.3954    2.2412   -0.3013 C   0  0  0  0  0  0  0  0  0  0  0  0
    3.1760    2.9106   -0.4897 C   0  0  0  0  0  0  0  0  0  0  0  0
   -5.2773    0.7103   -0.2867 C   0  0  1  0  0  0  0  0  0  0  0  0
    6.7241    0.1689    0.2169 C   0  0  0  0  0  0  0  0  0  0  0  0
   -6.4798   -0.2116   -0.0460 C   0  0  0  0  0  0  0  0  0  0  0  0
   -5.4883    2.0637    0.3926 C   0  0  0  0  0  0  0  0  0  0  0  0
   -6.3068   -1.5841   -0.6843 C   0  0  0  0  0  0  0  0  0  0  0  0
    1.0874   -1.6634   -1.3093 H   0  0  0  0  0  0  0  0  0  0  0  0
    2.4967   -3.0626    0.1020 H   0  0  0  0  0  0  0  0  0  0  0  0
    2.0094   -2.2075    1.5765 H   0  0  0  0  0  0  0  0  0  0  0  0
   -1.9758   -0.5054    1.4050 H   0  0  0  0  0  0  0  0  0  0  0  0
   -2.3551   -2.3877   -0.0436 H   0  0  0  0  0  0  0  0  0  0  0  0
   -1.4969   -1.6723   -1.4027 H   0  0  0  0  0  0  0  0  0  0  0  0
   -0.6315    1.5477    0.4879 H   0  0  0  0  0  0  0  0  0  0  0  0
    5.3226   -2.1771    0.6439 H   0  0  0  0  0  0  0  0  0  0  0  0
   -1.0589   -4.3027   -0.0267 H   0  0  0  0  0  0  0  0  0  0  0  0
    0.6760   -4.2711    0.1470 H   0  0  0  0  0  0  0  0  0  0  0  0
   -0.0594   -3.7853   -1.3988 H   0  0  0  0  0  0  0  0  0  0  0  0
    1.0341    2.8133   -0.5766 H   0  0  0  0  0  0  0  0  0  0  0  0
    5.3401    2.7690   -0.3672 H   0  0  0  0  0  0  0  0  0  0  0  0
    3.1876    3.9765   -0.7070 H   0  0  0  0  0  0  0  0  0  0  0  0
   -4.1160   -0.4727    1.0312 H   0  0  0  0  0  0  0  0  0  0  0  0
   -5.1673    0.8803   -1.3649 H   0  0  0  0  0  0  0  0  0  0  0  0
    7.2547   -0.7636    0.4250 H   0  0  0  0  0  0  0  0  0  0  0  0
    7.0163    0.5508   -0.7646 H   0  0  0  0  0  0  0  0  0  0  0  0
    6.9411    0.9017    0.9981 H   0  0  0  0  0  0  0  0  0  0  0  0
   -6.6477   -0.3589    1.0278 H   0  0  0  0  0  0  0  0  0  0  0  0
   -7.3852    0.2570   -0.4503 H   0  0  0  0  0  0  0  0  0  0  0  0
   -4.6384    2.7353    0.2315 H   0  0  0  0  0  0  0  0  0  0  0  0
   -6.3893    2.5560    0.0135 H   0  0  0  0  0  0  0  0  0  0  0  0
   -5.4771   -2.1380   -0.2343 H   0  0  0  0  0  0  0  0  0  0  0  0
   -6.1204   -1.4949   -1.7593 H   0  0  0  0  0  0  0  0  0  0  0  0
   -7.2158   -2.1786   -0.5470 H   0  0  0  0  0  0  0  0  0  0  0  0
   -4.8347    1.4462    2.1219 H   0  0  0  0  0  0  0  0  0  0  0  0
  1 18  2  0  0  0  0
  2 25  1  0  0  0  0
  2 53  1  0  0  0  0
  3  6  1  0  0  0  0
  3 10  1  0  0  0  0
  3 17  1  0  0  0  0
  4 15  1  0  0  0  0
  4 16  1  0  0  0  0
  4 23  1  0  0  0  0
  5 18  1  0  0  0  0
  5 22  1  0  0  0  0
  5 41  1  0  0  0  0
  6  7  1  0  0  0  0
  6  8  1  0  0  0  0
  6 27  1  0  0  0  0
  7 12  1  0  0  0  0
  7 14  2  0  0  0  0
  8 11  1  0  0  0  0
  8 28  1  0  0  0  0
  8 29  1  0  0  0  0
  9 10  1  0  0  0  0
  9 14  1  0  0  0  0
  9 18  1  0  0  0  0
  9 30  1  0  0  0  0
 10 31  1  0  0  0  0
 10 32  1  0  0  0  0
 11 13  1  0  0  0  0
 11 16  2  0  0  0  0
 12 13  2  0  0  0  0
 12 19  1  0  0  0  0
 13 15  1  0  0  0  0
 14 33  1  0  0  0  0
 15 20  2  0  0  0  0
 16 34  1  0  0  0  0
 17 35  1  0  0  0  0
 17 36  1  0  0  0  0
 17 37  1  0  0  0  0
 19 21  2  0  0  0  0
 19 38  1  0  0  0  0
 20 21  1  0  0  0  0
 20 39  1  0  0  0  0
 21 40  1  0  0  0  0
 22 24  1  0  0  0  0
 22 25  1  0  0  0  0
 22 42  1  0  0  0  0
 23 43  1  0  0  0  0
 23 44  1  0  0  0  0
 23 45  1  0  0  0  0
 24 26  1  0  0  0  0
 24 46  1  0  0  0  0
 24 47  1  0  0  0  0
 25 48  1  0  0  0  0
 25 49  1  0  0  0  0
 26 50  1  0  0  0  0
 26 51  1  0  0  0  0
 26 52  1  0  0  0  0
M  END
> <PUBCHEM_COMPOUND_CID>
4163

> <PUBCHEM_CONFORMER_RMSD>
0.8

> <PUBCHEM_CONFORMER_DIVERSEORDER>
4
54
138
95
20
120
124
52
96
68
73
60
47
58
88
7
132
55
61
69
122
123
63
64
65
135
104
92
86
19
144
33
42
143
101
2
16
91
56
115
93
127
89
46
43
99
98
22
62
74
141
53
90
130
39
15
17
25
80
75
59
41
145
51
119
6
116
125
72
70
113
8
102
57
136
38
44
118
37
77
30
67
108
26
23
14
106
24
128
79
109
40
82
3
84
131
71
29
142
87
81
10
36
31
107
76
140
18
94
35
12
49
110
126
48
114
28
134
66
121
11
5
111
137
21
100
32
34
83
78
50
85
129
112
117
103
45
13
97
133
105
27
139
1
9

> <PUBCHEM_MMFF94_PARTIAL_CHARGES>
30
1 -0.57
10 0.27
11 -0.18
12 0.03
14 -0.29
15 -0.15
16 -0.3
17 0.27
18 0.57
19 -0.15
2 -0.68
20 -0.15
21 -0.15
22 0.3
23 0.26
25 0.28
3 -0.81
33 0.15
34 0.15
38 0.15
39 0.15
4 0.05
40 0.15
41 0.37
5 -0.73
53 0.4
6 0.41
7 -0.17
8 0.18
9 0.2

> <PUBCHEM_EFFECTIVE_ROTOR_COUNT>
5.8

> <PUBCHEM_PHARMACOPHORE_FEATURES>
11
1 1 acceptor
1 2 acceptor
1 2 donor
1 26 hydrophobe
1 3 cation
1 4 cation
1 5 donor
5 4 11 13 15 16 rings
6 12 13 15 19 20 21 rings
6 3 6 7 9 10 14 rings
6 6 7 8 11 12 13 rings

> <PUBCHEM_HEAVY_ATOM_COUNT>
26

> <PUBCHEM_ATOM_DEF_STEREO_COUNT>
0

> <PUBCHEM_ATOM_UDEF_STEREO_COUNT>
3

> <PUBCHEM_BOND_DEF_STEREO_COUNT>
0

> <PUBCHEM_BOND_UDEF_STEREO_COUNT>
0

> <PUBCHEM_ISOTOPIC_ATOM_COUNT>
0

> <PUBCHEM_COMPONENT_COUNT>
1

> <PUBCHEM_CACTVS_TAUTO_COUNT>
2

> <PUBCHEM_CONFORMER_ID>
0000104300000004

> <PUBCHEM_MMFF94_ENERGY>
56.1806

> <PUBCHEM_FEATURE_SELFOVERLAP>
56.066

> <PUBCHEM_SHAPE_FINGERPRINT>
10050765 1 18123189001141557750
10411042 1 17763466514625925146
10595046 47 18408887304988240965
10763959 59 17561091301885707565
1100329 8 18411140195628635058
11578080 2 17316497106529760744
12107183 9 18412834586113197306
12166972 35 18261112963062664816
12236239 1 18040155144909405561
12788726 201 17749657545806958016
12838862 33 18340225028711377432
13140716 1 18269278967914310456
13631057 29 18187089413256224287
13782708 43 16701463518622947779
13785724 45 17833269001493156922
14251764 18 18343868801418255824
14464042 87 18113614624974017952
14790565 3 18409727357351651653
14849402 71 18410570643873597792
15081414 286 18338236093490712340
15183329 4 18411419518447292333
15196674 1 18340487747307203222
15475509 8 18117260644824076116
16087824 20 18340768264596566452
17844677 252 18341045302898115661
18681886 176 18335428945325083506
20028762 73 18333453161543068855
21033648 144 18202008690131645613
21033648 29 16845304842973411797
21033650 10 16807261744778894632
21197605 99 18268424647111353947
21236236 1 18338237060096341151
21267235 1 18412824720609857982
21307412 95 17969757814464025446
21709351 56 18411426141697956141
21792961 116 17703791483648734634
23558518 356 17769937879399836570
23559900 14 18189056409435437896
23569917 315 18335415759855833711
23569943 247 17681255978893855862
3178227 256 18343293790684913000
335352 9 18412262818781444582
34934 24 18341338825542785378
350125 39 18412829066394010247
3680242 22 18341896354587953602
38695281 34 18186522141816721351
397830 11 15984242021043263889
4073 2 17845930723752078755
4325135 7 18335143077393641319
474 4 18409728495422981267
5104073 3 18200036136264822832
513532 50 18040987476018734798
8272917 22 18336261357226614910
9996256 80 18410295792094198799
9999458 23 18059857255751206030

> <PUBCHEM_SHAPE_MULTIPOLES>
508.39
15.36
3.12
0.84
13.38
0.94
0.1
-4.83
1.27
-0.56
-0.2
0.74
-0.22
-1.53

> <PUBCHEM_SHAPE_SELFOVERLAP>
1099.422

> <PUBCHEM_SHAPE_VOLUME>
280.4

> <PUBCHEM_COORDINATE_TYPE>
2
5
10

$$$$

