25552
  -OEChem-07051213052D

 23 25  0     1  0  0  0  0  0999 V2000
    5.0481   -0.8727    0.0000 Cl  0  0  0  0  0  0  0  0  0  0  0  0
    5.8246    2.0251    0.0000 Cl  0  0  0  0  0  0  0  0  0  0  0  0
    3.9156    2.4485    0.0000 Cl  0  0  0  0  0  0  0  0  0  0  0  0
    4.9336    3.0363    0.0000 Cl  0  0  0  0  0  0  0  0  0  0  0  0
    7.6389   -1.5316    0.0000 Cl  0  0  0  0  0  0  0  0  0  0  0  0
    8.2637    0.8004    0.0000 Cl  0  0  0  0  0  0  0  0  0  0  0  0
    3.1140   -2.6223    0.0000 O   0  0  0  0  0  0  0  0  0  0  0  0
    3.5749   -0.9067    0.0000 C   0  0  3  0  0  0  0  0  0  0  0  0
    3.0749   -0.0407    0.0000 C   0  0  3  0  0  0  0  0  0  0  0  0
    5.3069    0.0933    0.0000 C   0  0  3  0  0  0  0  0  0  0  0  0
    5.5657    1.0592    0.0000 C   0  0  3  0  0  0  0  0  0  0  0  0
    4.8291    2.0418    0.0000 C   0  0  0  0  0  0  0  0  0  0  0  0
    2.9078   -1.6438    0.0000 C   0  0  3  0  0  0  0  0  0  0  0  0
    7.1389   -0.6656    0.0000 C   0  0  0  0  0  0  0  0  0  0  0  0
    7.3977    0.3004    0.0000 C   0  0  0  0  0  0  0  0  0  0  0  0
    2.1030   -0.2499    0.0000 C   0  0  0  0  0  0  0  0  0  0  0  0
    2.0000   -1.2386    0.0000 C   0  0  0  0  0  0  0  0  0  0  0  0
    3.9644   -1.3891    0.0000 H   0  0  0  0  0  0  0  0  0  0  0  0
    2.8834    0.5490    0.0000 H   0  0  0  0  0  0  0  0  0  0  0  0
    2.4254   -2.0333    0.0000 H   0  0  0  0  0  0  0  0  0  0  0  0
    1.6416    0.1641    0.0000 H   0  0  0  0  0  0  0  0  0  0  0  0
    1.4631   -1.5486    0.0000 H   0  0  0  0  0  0  0  0  0  0  0  0
    2.6525   -3.0363    0.0000 H   0  0  0  0  0  0  0  0  0  0  0  0
  1 10  1  0  0  0  0
  2 11  1  0  0  0  0
  3 12  1  0  0  0  0
  4 12  1  0  0  0  0
  5 14  1  0  0  0  0
  6 15  1  0  0  0  0
  7 13  1  0  0  0  0
  7 23  1  0  0  0  0
  8  9  1  0  0  0  0
  8 10  1  0  0  0  0
  8 13  1  0  0  0  0
  8 18  1  0  0  0  0
  9 11  1  0  0  0  0
  9 16  1  0  0  0  0
  9 19  1  0  0  0  0
 10 12  1  0  0  0  0
 10 14  1  0  0  0  0
 11 12  1  0  0  0  0
 11 15  1  0  0  0  0
 13 17  1  0  0  0  0
 13 20  1  0  0  0  0
 14 15  2  0  0  0  0
 16 17  2  0  0  0  0
 16 21  1  0  0  0  0
 17 22  1  0  0  0  0
M  END
> <PUBCHEM_COMPOUND_CID>
25552

> <PUBCHEM_COMPOUND_CANONICALIZED>
1

> <PUBCHEM_CACTVS_COMPLEXITY>
471

> <PUBCHEM_CACTVS_HBOND_ACCEPTOR>
1

> <PUBCHEM_CACTVS_HBOND_DONOR>
1

> <PUBCHEM_CACTVS_ROTATABLE_BOND>
0

> <PUBCHEM_CACTVS_SUBSKEYS>
AAADcYBwIAAHAAAAAAAAAAAAAAAAAYIEAAAgAAAAAAAQAAAAAAAAGgIACAAADRaggIIAAAAAAgCAACBCAAAAAAAgAAAICEAAAggAFAIBAQAAUAAEgAAIEAOAwPAOgAAAAAAAAAAAAAAAAAAAARAASIACAA==

> <PUBCHEM_IUPAC_INCHI>
InChI=1S/C10H6Cl6O/c11-6-7(12)9(14)5-3(1-2-4(5)17)8(6,13)10(9,15)16/h1-5,17H

> <PUBCHEM_IUPAC_INCHIKEY>
YQWCIPIEEBVRNY-UHFFFAOYSA-N

> <PUBCHEM_XLOGP3_AA>
3.1

> <PUBCHEM_EXACT_MASS>
353.852031

> <PUBCHEM_MOLECULAR_FORMULA>
C10H6Cl6O

> <PUBCHEM_MOLECULAR_WEIGHT>
354.87204

> <PUBCHEM_OPENEYE_CAN_SMILES>
C1=CC(C2C1C3(C(=C(C2(C3(Cl)Cl)Cl)Cl)Cl)Cl)O

> <PUBCHEM_OPENEYE_ISO_SMILES>
C1=CC(C2C1C3(C(=C(C2(C3(Cl)Cl)Cl)Cl)Cl)Cl)O

> <PUBCHEM_CACTVS_TPSA>
20.2

> <PUBCHEM_MONOISOTOPIC_WEIGHT>
351.854981

> <PUBCHEM_TOTAL_CHARGE>
0

> <PUBCHEM_HEAVY_ATOM_COUNT>
17

> <PUBCHEM_ATOM_DEF_STEREO_COUNT>
0

> <PUBCHEM_ATOM_UDEF_STEREO_COUNT>
5

> <PUBCHEM_BOND_DEF_STEREO_COUNT>
0

> <PUBCHEM_BOND_UDEF_STEREO_COUNT>
0

> <PUBCHEM_ISOTOPIC_ATOM_COUNT>
0

> <PUBCHEM_COMPONENT_COUNT>
1

> <PUBCHEM_CACTVS_TAUTO_COUNT>
1

> <PUBCHEM_COORDINATE_TYPE>
1
5
255

> <PUBCHEM_BONDANNOTATIONS>
10  1  3
11  2  3
13  7  3
8  13  3
9  16  3

$$$$

