14077
  -OEChem-06241222423D

 15 15  0     0  0  0  0  0  0999 V2000
   -1.4698   -0.1885   -0.4641 N   0  0  0  0  0  0  0  0  0  0  0  0
    3.2800    0.3413    0.3294 N   0  0  0  0  0  0  0  0  0  0  0  0
   -2.5507    0.7103   -0.0864 C   0  0  0  0  0  0  0  0  0  0  0  0
   -2.2724   -0.5379    0.6990 C   0  0  0  0  0  0  0  0  0  0  0  0
   -0.1811    0.3563   -0.0530 C   0  0  0  0  0  0  0  0  0  0  0  0
    0.9448   -0.6060   -0.4227 C   0  0  0  0  0  0  0  0  0  0  0  0
    2.2492   -0.0756   -0.0021 C   0  0  0  0  0  0  0  0  0  0  0  0
   -3.4095    0.7132   -0.7445 H   0  0  0  0  0  0  0  0  0  0  0  0
   -2.3030    1.6653    0.3588 H   0  0  0  0  0  0  0  0  0  0  0  0
   -1.8543   -0.4428    1.6924 H   0  0  0  0  0  0  0  0  0  0  0  0
   -2.9442   -1.3765    0.5670 H   0  0  0  0  0  0  0  0  0  0  0  0
   -0.0122    1.3026   -0.5866 H   0  0  0  0  0  0  0  0  0  0  0  0
   -0.1153    0.6032    1.0167 H   0  0  0  0  0  0  0  0  0  0  0  0
    0.7805   -1.5780    0.0580 H   0  0  0  0  0  0  0  0  0  0  0  0
    0.9534   -0.7793   -1.5056 H   0  0  0  0  0  0  0  0  0  0  0  0
  1  3  1  0  0  0  0
  1  4  1  0  0  0  0
  1  5  1  0  0  0  0
  2  7  3  0  0  0  0
  3  4  1  0  0  0  0
  3  8  1  0  0  0  0
  3  9  1  0  0  0  0
  4 10  1  0  0  0  0
  4 11  1  0  0  0  0
  5  6  1  0  0  0  0
  5 12  1  0  0  0  0
  5 13  1  0  0  0  0
  6  7  1  0  0  0  0
  6 14  1  0  0  0  0
  6 15  1  0  0  0  0
M  END
> <PUBCHEM_COMPOUND_CID>
14077

> <PUBCHEM_CONFORMER_RMSD>
0.4

> <PUBCHEM_CONFORMER_DIVERSEORDER>
1
3
5
4
2

> <PUBCHEM_MMFF94_PARTIAL_CHARGES>
11
1 -0.59
10 0.1
11 0.1
2 -0.56
3 -0.04
4 -0.04
5 0.27
6 0.2
7 0.36
8 0.1
9 0.1

> <PUBCHEM_EFFECTIVE_ROTOR_COUNT>
2.6

> <PUBCHEM_PHARMACOPHORE_FEATURES>
2
1 1 cation
1 2 acceptor

> <PUBCHEM_HEAVY_ATOM_COUNT>
7

> <PUBCHEM_ATOM_DEF_STEREO_COUNT>
0

> <PUBCHEM_ATOM_UDEF_STEREO_COUNT>
0

> <PUBCHEM_BOND_DEF_STEREO_COUNT>
0

> <PUBCHEM_BOND_UDEF_STEREO_COUNT>
0

> <PUBCHEM_ISOTOPIC_ATOM_COUNT>
0

> <PUBCHEM_COMPONENT_COUNT>
1

> <PUBCHEM_CACTVS_TAUTO_COUNT>
1

> <PUBCHEM_CONFORMER_ID>
000036FD00000001

> <PUBCHEM_MMFF94_ENERGY>
8.38

> <PUBCHEM_FEATURE_SELFOVERLAP>
10.148

> <PUBCHEM_SHAPE_FINGERPRINT>
10857977 72 18343022151135895489
11062470 55 18202004339039753877
14325111 11 18334295366301668750
14390081 3 17458347454701650808
16714656 1 6338955555286827571
29004967 10 18411410726400953874
5460574 1 9943806685742410982

> <PUBCHEM_SHAPE_MULTIPOLES>
134.09
4.8
0.81
0.73
1.99
0.01
-0.01
-0.48
-0.76
-0.25
-0.02
-0.08
0.05
0.23

> <PUBCHEM_SHAPE_SELFOVERLAP>
249.614

> <PUBCHEM_SHAPE_VOLUME>
83.8

> <PUBCHEM_COORDINATE_TYPE>
2
5
10

$$$$

