17396290
  -OEChem-06241222553D

 38 40  0     1  0  0  0  0  0999 V2000
   -1.6346    2.8231   -0.9070 S   0  0  0  0  0  0  0  0  0  0  0  0
   -3.9606   -1.0836    1.8930 S   0  0  0  0  0  0  0  0  0  0  0  0
    5.2216   -0.0848   -0.7442 F   0  0  0  0  0  0  0  0  0  0  0  0
    1.7000    2.9854   -0.2870 O   0  0  0  0  0  0  0  0  0  0  0  0
   -1.8266   -1.8637   -2.4768 O   0  0  0  0  0  0  0  0  0  0  0  0
    0.7574    1.0328    0.6111 N   0  0  0  0  0  0  0  0  0  0  0  0
   -1.8052    0.2959   -1.6294 N   0  0  0  0  0  0  0  0  0  0  0  0
   -2.7863    0.8719    0.4729 N   0  0  0  0  0  0  0  0  0  0  0  0
   -0.5639    3.0500    0.5284 C   0  0  1  0  0  0  0  0  0  0  0  0
    0.7678    2.3703    0.2235 C   0  0  0  0  0  0  0  0  0  0  0  0
    1.8057    0.0900    0.4880 C   0  0  0  0  0  0  0  0  0  0  0  0
   -0.3887    4.5379    0.8045 C   0  0  0  0  0  0  0  0  0  0  0  0
   -2.1470    1.1811   -0.6147 C   0  0  0  0  0  0  0  0  0  0  0  0
   -2.8349   -1.4315   -0.3851 C   0  0  0  0  0  0  0  0  0  0  0  0
   -3.1145   -0.4492    0.5503 C   0  0  0  0  0  0  0  0  0  0  0  0
   -2.1174   -1.0625   -1.5954 C   0  0  0  0  0  0  0  0  0  0  0  0
    3.8718   -1.7686    0.2454 C   0  0  0  0  0  0  0  0  0  0  0  0
    3.0226    0.4700   -0.0780 C   0  0  0  0  0  0  0  0  0  0  0  0
    1.6219   -1.2192    0.9326 C   0  0  0  0  0  0  0  0  0  0  0  0
   -3.3199   -2.7102    0.0085 C   0  0  0  0  0  0  0  0  0  0  0  0
    4.0557   -0.4592   -0.1993 C   0  0  0  0  0  0  0  0  0  0  0  0
    2.6549   -2.1486    0.8113 C   0  0  0  0  0  0  0  0  0  0  0  0
   -3.9540   -2.6621    1.2305 C   0  0  0  0  0  0  0  0  0  0  0  0
    4.9742   -2.7651    0.1169 C   0  0  0  0  0  0  0  0  0  0  0  0
   -1.0147    2.6027    1.4213 H   0  0  0  0  0  0  0  0  0  0  0  0
    0.2887    4.6883    1.6531 H   0  0  0  0  0  0  0  0  0  0  0  0
    0.0457    5.0714   -0.0491 H   0  0  0  0  0  0  0  0  0  0  0  0
   -1.3437    5.0121    1.0569 H   0  0  0  0  0  0  0  0  0  0  0  0
   -0.0921    0.6713    1.0384 H   0  0  0  0  0  0  0  0  0  0  0  0
   -1.3016    0.6551   -2.4350 H   0  0  0  0  0  0  0  0  0  0  0  0
    3.2409    1.4622   -0.4462 H   0  0  0  0  0  0  0  0  0  0  0  0
    0.6775   -1.5283    1.3738 H   0  0  0  0  0  0  0  0  0  0  0  0
   -3.2131   -3.6198   -0.5685 H   0  0  0  0  0  0  0  0  0  0  0  0
    2.4962   -3.1654    1.1607 H   0  0  0  0  0  0  0  0  0  0  0  0
   -4.4142   -3.4800    1.7665 H   0  0  0  0  0  0  0  0  0  0  0  0
    5.1332   -3.0169   -0.9365 H   0  0  0  0  0  0  0  0  0  0  0  0
    5.9042   -2.3624    0.5318 H   0  0  0  0  0  0  0  0  0  0  0  0
    4.7510   -3.6916    0.6567 H   0  0  0  0  0  0  0  0  0  0  0  0
  1  9  1  0  0  0  0
  1 13  1  0  0  0  0
  2 15  1  0  0  0  0
  2 23  1  0  0  0  0
  3 21  1  0  0  0  0
  4 10  2  0  0  0  0
  5 16  2  0  0  0  0
  6 10  1  0  0  0  0
  6 11  1  0  0  0  0
  6 29  1  0  0  0  0
  7 13  1  0  0  0  0
  7 16  1  0  0  0  0
  7 30  1  0  0  0  0
  8 13  2  0  0  0  0
  8 15  1  0  0  0  0
  9 10  1  0  0  0  0
  9 12  1  0  0  0  0
  9 25  1  0  0  0  0
 11 18  2  0  0  0  0
 11 19  1  0  0  0  0
 12 26  1  0  0  0  0
 12 27  1  0  0  0  0
 12 28  1  0  0  0  0
 14 15  2  0  0  0  0
 14 16  1  0  0  0  0
 14 20  1  0  0  0  0
 17 21  2  0  0  0  0
 17 22  1  0  0  0  0
 17 24  1  0  0  0  0
 18 21  1  0  0  0  0
 18 31  1  0  0  0  0
 19 22  2  0  0  0  0
 19 32  1  0  0  0  0
 20 23  2  0  0  0  0
 20 33  1  0  0  0  0
 22 34  1  0  0  0  0
 23 35  1  0  0  0  0
 24 36  1  0  0  0  0
 24 37  1  0  0  0  0
 24 38  1  0  0  0  0
M  END
> <PUBCHEM_COMPOUND_CID>
17396290

> <PUBCHEM_CONFORMER_RMSD>
0.8

> <PUBCHEM_CONFORMER_DIVERSEORDER>
1
33
98
242
24
222
27
249
5
200
212
231
64
100
233
141
250
82
104
35
54
223
204
224
225
83
117
209
220
174
38
257
238
247
52
228
152
30
103
20
60
243
10
255
146
79
89
252
147
161
144
16
184
178
210
138
66
96
2
191
211
81
25
241
105
203
45
9
37
213
145
102
206
125
221
23
62
253
129
217
188
61
63
256
22
194
208
232
166
7
47
165
69
246
181
153
29
226
19
158
49
86
112
87
235
92
110
154
118
121
123
164
72
149
163
13
80
55
109
108
180
71
148
44
93
58
151
219
216
127
236
51
11
199
167
259
39
28
84
185
106
171
17
137
187
34
234
245
214
179
114
140
95
3
136
258
97
31
132
227
169
192
8
41
139
42
207
46
119
21
229
134
50
18
155
120
183
76
177
36
218
85
128
70
43
4
26
94
73
75
230
65
193
57
107
205
197
170
237
157
77
48
74
113
190
68
189
244
159
122
88
198
56
143
150
53
239
115
91
116
251
162
201
182
111
173
202
124
12
196
135
172
254
168
133
142
186
101
176
78
195
40
248
130
59
6
240
215
14
99
90
32
131
15
175
126
156
67
160

> <PUBCHEM_MMFF94_PARTIAL_CHARGES>
30
1 -0.37
10 0.57
11 0.12
13 0.65
14 -0.09
15 0.17
16 0.72
17 -0.14
18 -0.15
19 -0.15
2 -0.08
20 -0.15
21 0.19
22 -0.15
23 -0.11
24 0.14
29 0.37
3 -0.19
30 0.37
31 0.15
32 0.15
33 0.15
34 0.15
35 0.15
4 -0.57
5 -0.57
6 -0.55
7 -0.49
8 -0.58
9 0.29

> <PUBCHEM_EFFECTIVE_ROTOR_COUNT>
5

> <PUBCHEM_PHARMACOPHORE_FEATURES>
8
1 12 hydrophobe
1 4 acceptor
1 5 acceptor
1 6 donor
1 7 donor
5 2 14 15 20 23 rings
6 11 17 18 19 21 22 rings
6 7 8 13 14 15 16 rings

> <PUBCHEM_HEAVY_ATOM_COUNT>
24

> <PUBCHEM_ATOM_DEF_STEREO_COUNT>
0

> <PUBCHEM_ATOM_UDEF_STEREO_COUNT>
1

> <PUBCHEM_BOND_DEF_STEREO_COUNT>
0

> <PUBCHEM_BOND_UDEF_STEREO_COUNT>
0

> <PUBCHEM_ISOTOPIC_ATOM_COUNT>
0

> <PUBCHEM_COMPONENT_COUNT>
1

> <PUBCHEM_CACTVS_TAUTO_COUNT>
8

> <PUBCHEM_CONFORMER_ID>
0109724200000001

> <PUBCHEM_MMFF94_ENERGY>
52.7273

> <PUBCHEM_FEATURE_SELFOVERLAP>
40.676

> <PUBCHEM_SHAPE_FINGERPRINT>
10064457 181 16682312912844261809
10616163 171 18193560205929651246
107951 10 17693094476022559751
114674 6 17911806773356316067
12107183 9 18263905727793763513
12156800 1 16616948518314179563
12553582 1 18410018718994950666
12633257 1 18262780918476700395
12788726 201 18049741890267092001
13135754 10 17899106559240804001
13533116 47 17978504240426327955
138480 1 15168546723954032753
14251757 5 18269840989432479389
14279260 333 17912363431974809850
14363568 33 18122616167814293296
19930381 70 17908702835046420339
20291156 8 18409730646900838184
20775438 99 17399006666723644887
21133410 38 16679758768624068523
21634736 98 18341053025285840804
221490 88 18412263965358299378
23559900 14 17986961735189847941
23566358 27 17905039257891301183
23598288 3 18337674246974556156
3737641 26 18338507530949789764
445580 42 18125734627651651730
6287921 2 17760648062305904451
7097593 13 18045774599095498513

> <PUBCHEM_SHAPE_MULTIPOLES>
467.65
8.76
4.7
1.49
7.99
4.37
-0.5
-8.69
0.94
-1.14
0.89
-1.59
-0.57
0.25

> <PUBCHEM_SHAPE_SELFOVERLAP>
986.526

> <PUBCHEM_SHAPE_VOLUME>
268

> <PUBCHEM_COORDINATE_TYPE>
2
5
10

$$$$

