46173895
  -OEChem-07051213103D

 65 66  0     1  0  0  0  0  0999 V2000
    1.4316   -2.6437   -0.0432 S   0  0  0  0  0  0  0  0  0  0  0  0
    3.1134    2.4127   -1.6298 O   0  0  0  0  0  0  0  0  0  0  0  0
    2.1478    3.5039    1.0845 O   0  0  0  0  0  0  0  0  0  0  0  0
    3.4936   -2.4560   -2.7629 O   0  0  0  0  0  0  0  0  0  0  0  0
    5.1008   -1.9841   -1.2170 O   0  0  0  0  0  0  0  0  0  0  0  0
   -4.6662    2.7992   -1.3302 O   0  0  0  0  0  0  0  0  0  0  0  0
   -2.9476   -1.9921    1.8767 O   0  0  0  0  0  0  0  0  0  0  0  0
   -2.3893    1.3756    1.9698 O   0  0  0  0  0  0  0  0  0  0  0  0
   -4.5005    0.2328   -2.1636 O   0  0  0  0  0  0  0  0  0  0  0  0
    3.9157    0.3688   -0.7640 N   0  0  0  0  0  0  0  0  0  0  0  0
   -1.5688   -3.4350    0.6888 N   0  0  0  0  0  0  0  0  0  0  0  0
   -4.5587   -0.4528    0.0523 N   0  0  0  0  0  0  0  0  0  0  0  0
    4.1421    0.3003    0.7017 C   0  0  1  0  0  0  0  0  0  0  0  0
    3.8221    1.8114    0.7402 C   0  0  1  0  0  0  0  0  0  0  0  0
    3.1557   -0.7839    1.1580 C   0  0  0  0  0  0  0  0  0  0  0  0
    3.0627   -0.6891   -1.2787 C   0  0  2  0  0  0  0  0  0  0  0  0
    2.2098   -1.0066   -0.0446 C   0  0  1  0  0  0  0  0  0  0  0  0
    3.5671    1.6909   -0.7702 C   0  0  0  0  0  0  0  0  0  0  0  0
    2.6248    2.2428    1.5524 C   0  0  1  0  0  0  0  0  0  0  0  0
    4.0098   -1.7608   -1.7201 C   0  0  0  0  0  0  0  0  0  0  0  0
    2.9808    2.3759    3.0300 C   0  0  0  0  0  0  0  0  0  0  0  0
    0.5630   -2.5186    1.5497 C   0  0  0  0  0  0  0  0  0  0  0  0
   -0.5355   -3.5636    1.6901 C   0  0  0  0  0  0  0  0  0  0  0  0
   -2.5267    2.1581   -0.3492 C   0  0  0  0  0  0  0  0  0  0  0  0
   -2.6990   -2.6510    0.8708 C   0  0  0  0  0  0  0  0  0  0  0  0
   -4.0547    1.8698   -0.4396 C   0  0  2  0  0  0  0  0  0  0  0  0
   -1.8388    1.2139    0.6670 C   0  0  0  0  0  0  0  0  0  0  0  0
   -3.6076   -2.6901   -0.3480 C   0  0  0  0  0  0  0  0  0  0  0  0
   -2.3281    3.6207    0.1159 C   0  0  0  0  0  0  0  0  0  0  0  0
   -1.8547    2.0162   -1.7294 C   0  0  0  0  0  0  0  0  0  0  0  0
   -4.4012    0.4775   -0.9626 C   0  0  0  0  0  0  0  0  0  0  0  0
   -4.8635   -1.8431   -0.1951 C   0  0  0  0  0  0  0  0  0  0  0  0
    5.1845    0.0675    0.9485 H   0  0  0  0  0  0  0  0  0  0  0  0
    4.7068    2.4348    0.9317 H   0  0  0  0  0  0  0  0  0  0  0  0
    3.7214   -1.6988    1.3767 H   0  0  0  0  0  0  0  0  0  0  0  0
    2.6204   -0.5083    2.0707 H   0  0  0  0  0  0  0  0  0  0  0  0
    2.4689   -0.3075   -2.1160 H   0  0  0  0  0  0  0  0  0  0  0  0
    1.4043   -0.2623    0.0014 H   0  0  0  0  0  0  0  0  0  0  0  0
    1.7886    1.5466    1.4423 H   0  0  0  0  0  0  0  0  0  0  0  0
    2.1054    2.6866    3.6102 H   0  0  0  0  0  0  0  0  0  0  0  0
    3.3571    1.4341    3.4400 H   0  0  0  0  0  0  0  0  0  0  0  0
    3.7475    3.1447    3.1779 H   0  0  0  0  0  0  0  0  0  0  0  0
    1.3680    3.7389    1.6159 H   0  0  0  0  0  0  0  0  0  0  0  0
    0.1232   -1.5192    1.6392 H   0  0  0  0  0  0  0  0  0  0  0  0
    1.2898   -2.6490    2.3575 H   0  0  0  0  0  0  0  0  0  0  0  0
    4.1005   -3.1639   -3.0677 H   0  0  0  0  0  0  0  0  0  0  0  0
   -0.1247   -4.5761    1.6078 H   0  0  0  0  0  0  0  0  0  0  0  0
   -0.9943   -3.4754    2.6815 H   0  0  0  0  0  0  0  0  0  0  0  0
   -1.4454   -3.9351   -0.1868 H   0  0  0  0  0  0  0  0  0  0  0  0
   -4.5230    2.0171    0.5413 H   0  0  0  0  0  0  0  0  0  0  0  0
   -1.9295    0.1665    0.3676 H   0  0  0  0  0  0  0  0  0  0  0  0
   -0.7683    1.4416    0.7300 H   0  0  0  0  0  0  0  0  0  0  0  0
   -2.8466    3.8149    1.0612 H   0  0  0  0  0  0  0  0  0  0  0  0
   -2.7082    4.3351   -0.6229 H   0  0  0  0  0  0  0  0  0  0  0  0
   -1.2655    3.8433    0.2675 H   0  0  0  0  0  0  0  0  0  0  0  0
   -1.8975    0.9840   -2.0922 H   0  0  0  0  0  0  0  0  0  0  0  0
   -0.7951    2.2933   -1.6766 H   0  0  0  0  0  0  0  0  0  0  0  0
   -2.3250    2.6598   -2.4804 H   0  0  0  0  0  0  0  0  0  0  0  0
   -3.0264   -2.3422   -1.2110 H   0  0  0  0  0  0  0  0  0  0  0  0
   -3.8921   -3.7326   -0.5318 H   0  0  0  0  0  0  0  0  0  0  0  0
   -5.4603   -2.1935    0.6539 H   0  0  0  0  0  0  0  0  0  0  0  0
   -5.4776   -1.9217   -1.0985 H   0  0  0  0  0  0  0  0  0  0  0  0
   -4.4442   -0.1601    1.0182 H   0  0  0  0  0  0  0  0  0  0  0  0
   -5.6295    2.6892   -1.2525 H   0  0  0  0  0  0  0  0  0  0  0  0
   -1.9180    0.7593    2.5559 H   0  0  0  0  0  0  0  0  0  0  0  0
  1 17  1  0  0  0  0
  1 22  1  0  0  0  0
  2 18  2  0  0  0  0
  3 19  1  0  0  0  0
  3 43  1  0  0  0  0
  4 20  1  0  0  0  0
  4 46  1  0  0  0  0
  5 20  2  0  0  0  0
  6 26  1  0  0  0  0
  6 64  1  0  0  0  0
  7 25  2  0  0  0  0
  8 27  1  0  0  0  0
  8 65  1  0  0  0  0
  9 31  2  0  0  0  0
 10 13  1  0  0  0  0
 10 16  1  0  0  0  0
 10 18  1  0  0  0  0
 11 23  1  0  0  0  0
 11 25  1  0  0  0  0
 11 49  1  0  0  0  0
 12 31  1  0  0  0  0
 12 32  1  0  0  0  0
 12 63  1  0  0  0  0
 13 14  1  0  0  0  0
 13 15  1  0  0  0  0
 13 33  1  0  0  0  0
 14 18  1  0  0  0  0
 14 19  1  0  0  0  0
 14 34  1  0  0  0  0
 15 17  1  0  0  0  0
 15 35  1  0  0  0  0
 15 36  1  0  0  0  0
 16 17  1  0  0  0  0
 16 20  1  0  0  0  0
 16 37  1  0  0  0  0
 17 38  1  0  0  0  0
 19 21  1  0  0  0  0
 19 39  1  0  0  0  0
 21 40  1  0  0  0  0
 21 41  1  0  0  0  0
 21 42  1  0  0  0  0
 22 23  1  0  0  0  0
 22 44  1  0  0  0  0
 22 45  1  0  0  0  0
 23 47  1  0  0  0  0
 23 48  1  0  0  0  0
 24 26  1  0  0  0  0
 24 27  1  0  0  0  0
 24 29  1  0  0  0  0
 24 30  1  0  0  0  0
 25 28  1  0  0  0  0
 26 31  1  0  0  0  0
 26 50  1  0  0  0  0
 27 51  1  0  0  0  0
 27 52  1  0  0  0  0
 28 32  1  0  0  0  0
 28 59  1  0  0  0  0
 28 60  1  0  0  0  0
 29 53  1  0  0  0  0
 29 54  1  0  0  0  0
 29 55  1  0  0  0  0
 30 56  1  0  0  0  0
 30 57  1  0  0  0  0
 30 58  1  0  0  0  0
 32 61  1  0  0  0  0
 32 62  1  0  0  0  0
M  END
> <PUBCHEM_COMPOUND_CID>
46173895

> <PUBCHEM_CONFORMER_RMSD>
1.2

> <PUBCHEM_CONFORMER_DIVERSEORDER>
1
396
155
432
485
261
176
308
443
463
46
337
452
433
80
335
244
82
8
216
134
43
2
53
240
355
473
489
210
186
234
201
492
188
26
324
178
168
329
454
220
467
227
459
360
68
205
307
414
341
312
161
194
275
363
193
424
206
351
181
56
173
229
21
152
429
223
65
353
167
246
237
465
120
182
33
394
139
170
450
85
189
313
287
208
436
260
444
135
232
247
288
102
448
144
266
388
428
405
364
238
112
195
348
294
213
402
88
263
245
282
422
179
332
278
286
96
57
321
311
376
132
435
404
47
378
491
339
18
230
316
64
440
171
50
241
183
392
214
158
345
254
490
427
488
44
439
110
274
390
164
441
334
38
330
300
412
438
212
157
121
366
6
236
41
58
73
264
203
346
361
242
59
140
4
145
262
222
150
250
358
128
385
268
289
395
327
30
126
421
342
51
218
344
462
270
482
331
63
160
416
156
90
322
136
129
445
372
447
451
418
67
446
153
347
377
97
60
349
325
92
431
380
91
306
277
356
474
487
486
224
359
475
251
27
425
280
481
34
95
217
219
453
75
253
235
387
204
7
403
257
259
108
165
343
32
326
466
104
455
290
106
417
66
303
309
283
192
413
397
49
476
434
5
10
74
340
124
480
249
16
86
442
267
352
79
401
382
272
169
207
111
293
22
426
190
252
13
295
76
81
40
375
45
456
24
297
11
248
393
122
39
54
483
202
449
19
381
292
323
138
285
12
279
269
172
185
328
368
200
93
115
437
256
271
298
231
420
484
318
410
281
131
89
125
461
406
304
211
464
9
399
199
123
354
147
87
407
398
430
411
314
276
310
42
226
35
319
225
174
391
107
317
384
72
265
255
196
423
458
117
149
77
52
370
243
477
71
273
69
103
78
296
177
350
479
198
127
415
478
215
55
221
105
291
284
197
62
369
28
119
83
162
457
175
84
113
61
239
130
187
141
371
408
471
468
100
469
25
305
302
365
333
379
142
114
299
228
15
301
98
37
116
338
472
23
154
315
362
36
383
386
137
166
48
146
101
470
20
389
31
163
94
419
143
180
148
374
357
109
118
233
151
320
400
409
133
70
209
367
14
17
336
29
184
258
191
99
3
373
159
460

> <PUBCHEM_MMFF94_PARTIAL_CHARGES>
33
1 -0.46
10 -0.59
11 -0.73
12 -0.73
13 0.22
14 0.05
16 0.36
17 0.23
18 0.58
19 0.28
2 -0.57
20 0.66
22 0.23
23 0.3
25 0.57
26 0.34
27 0.28
28 0.06
3 -0.68
31 0.57
32 0.3
4 -0.65
43 0.4
46 0.5
49 0.37
5 -0.57
6 -0.68
63 0.37
64 0.4
65 0.4
7 -0.57
8 -0.68
9 -0.57

> <PUBCHEM_EFFECTIVE_ROTOR_COUNT>
14.8

> <PUBCHEM_PHARMACOPHORE_FEATURES>
16
1 11 donor
1 12 donor
1 2 acceptor
1 3 acceptor
1 3 donor
1 4 acceptor
1 5 acceptor
1 6 acceptor
1 6 donor
1 7 acceptor
1 8 acceptor
1 8 donor
1 9 acceptor
3 24 29 30 hydrophobe
3 4 5 20 anion
7 10 13 14 15 16 17 18 rings

> <PUBCHEM_HEAVY_ATOM_COUNT>
32

> <PUBCHEM_ATOM_DEF_STEREO_COUNT>
5

> <PUBCHEM_ATOM_UDEF_STEREO_COUNT>
1

> <PUBCHEM_BOND_DEF_STEREO_COUNT>
0

> <PUBCHEM_BOND_UDEF_STEREO_COUNT>
0

> <PUBCHEM_ISOTOPIC_ATOM_COUNT>
0

> <PUBCHEM_COMPONENT_COUNT>
1

> <PUBCHEM_CACTVS_TAUTO_COUNT>
8

> <PUBCHEM_CONFORMER_ID>
02C08EC700000001

> <PUBCHEM_MMFF94_ENERGY>
70.3713

> <PUBCHEM_FEATURE_SELFOVERLAP>
81.254

> <PUBCHEM_SHAPE_FINGERPRINT>
10439779 11 17981629352196752562
10670039 82 18060129959819818150
108634 29 18410291394037281010
13402501 40 18264492775875044520
13561361 72 18126292947656318345
13617811 41 18130241384966403229
14251757 17 18334859385575431115
14251764 38 18343302522358758636
14347329 18 17917700297663217526
15001296 14 17702091479130506557
15629462 23 17463113980033349934
15975801 100 17560519637743777270
161222 619 17247536767522334537
20764821 26 18272371953572635721
22121540 332 18263928727360126508
22393880 68 18340207500247969359
23559900 14 18410016571511640629
238 59 18186522090239657640
238918 7 18046079163568304176
24941158 1 17386006135709633448
463206 1 18336263560576947632
469060 322 17774138155789193371
5047190 48 17185884887321400929
508706 21 18343579659365746095
5252454 2 17985256628350847759

> <PUBCHEM_SHAPE_MULTIPOLES>
600.5
11.18
5.15
2.3
3.28
0.32
0.16
-1.13
-3.83
1.56
1.16
-1.66
-0.08
3.43

> <PUBCHEM_SHAPE_SELFOVERLAP>
1208.257

> <PUBCHEM_SHAPE_VOLUME>
355.2

> <PUBCHEM_COORDINATE_TYPE>
2
5
10

$$$$

