161557
  -OEChem-07051212472D

 35 37  0     1  0  0  0  0  0999 V2000
    6.3301    0.2704    0.0000 O   0  0  0  0  0  0  0  0  0  0  0  0
    4.5981   -1.7296    0.0000 O   0  0  0  0  0  0  0  0  0  0  0  0
    6.3301   -2.7296    0.0000 O   0  0  0  0  0  0  0  0  0  0  0  0
    8.0785   -2.7642    0.0000 O   0  0  0  0  0  0  0  0  0  0  0  0
    2.0000   -0.2296    0.0000 O   0  0  0  0  0  0  0  0  0  0  0  0
    3.7320    2.7704    0.0000 O   0  0  0  0  0  0  0  0  0  0  0  0
    9.8602    0.2945    0.0000 O   0  0  0  0  0  0  0  0  0  0  0  0
    2.0000    1.7704    0.0000 O   0  0  0  0  0  0  0  0  0  0  0  0
    5.4641   -0.2296    0.0000 C   0  0  1  0  0  0  0  0  0  0  0  0
    5.4641   -1.2296    0.0000 C   0  0  2  0  0  0  0  0  0  0  0  0
    4.5981    0.2704    0.0000 C   0  0  0  0  0  0  0  0  0  0  0  0
    6.3301   -1.7296    0.0000 C   0  0  0  0  0  0  0  0  0  0  0  0
    7.1962   -1.2296    0.0000 C   0  0  0  0  0  0  0  0  0  0  0  0
    7.1962   -0.2296    0.0000 C   0  0  0  0  0  0  0  0  0  0  0  0
    4.5981    1.2704    0.0000 C   0  0  0  0  0  0  0  0  0  0  0  0
    3.7320   -0.2296    0.0000 C   0  0  0  0  0  0  0  0  0  0  0  0
    8.0901   -1.7643    0.0000 C   0  0  0  0  0  0  0  0  0  0  0  0
    8.0901    0.3051    0.0000 C   0  0  0  0  0  0  0  0  0  0  0  0
    2.8660    0.2704    0.0000 C   0  0  0  0  0  0  0  0  0  0  0  0
    3.7320    1.7704    0.0000 C   0  0  0  0  0  0  0  0  0  0  0  0
    8.9962   -1.2504    0.0000 C   0  0  0  0  0  0  0  0  0  0  0  0
    8.9962   -0.2088    0.0000 C   0  0  0  0  0  0  0  0  0  0  0  0
    2.8660    1.2704    0.0000 C   0  0  0  0  0  0  0  0  0  0  0  0
    5.4641    0.3904    0.0000 H   0  0  0  0  0  0  0  0  0  0  0  0
    5.4641   -1.8496    0.0000 H   0  0  0  0  0  0  0  0  0  0  0  0
    5.1350    1.5804    0.0000 H   0  0  0  0  0  0  0  0  0  0  0  0
    3.7320   -0.8496    0.0000 H   0  0  0  0  0  0  0  0  0  0  0  0
    8.0829    0.9250    0.0000 H   0  0  0  0  0  0  0  0  0  0  0  0
    4.5981   -2.3496    0.0000 H   0  0  0  0  0  0  0  0  0  0  0  0
    9.5319   -1.5625    0.0000 H   0  0  0  0  0  0  0  0  0  0  0  0
    8.6118   -3.0804    0.0000 H   0  0  0  0  0  0  0  0  0  0  0  0
    2.0000   -0.8496    0.0000 H   0  0  0  0  0  0  0  0  0  0  0  0
    4.2690    3.0804    0.0000 H   0  0  0  0  0  0  0  0  0  0  0  0
   10.3984   -0.0134    0.0000 H   0  0  0  0  0  0  0  0  0  0  0  0
    2.0000    2.3904    0.0000 H   0  0  0  0  0  0  0  0  0  0  0  0
  1  9  1  0  0  0  0
  1 14  1  0  0  0  0
 10  2  1  6  0  0  0
  2 29  1  0  0  0  0
  3 12  2  0  0  0  0
  4 17  1  0  0  0  0
  4 31  1  0  0  0  0
  5 19  1  0  0  0  0
  5 32  1  0  0  0  0
  6 20  1  0  0  0  0
  6 33  1  0  0  0  0
  7 22  1  0  0  0  0
  7 34  1  0  0  0  0
  8 23  1  0  0  0  0
  8 35  1  0  0  0  0
  9 10  1  0  0  0  0
  9 11  1  1  0  0  0
  9 24  1  0  0  0  0
 10 12  1  0  0  0  0
 10 25  1  0  0  0  0
 11 15  2  0  0  0  0
 11 16  1  0  0  0  0
 12 13  1  0  0  0  0
 13 14  1  0  0  0  0
 13 17  2  0  0  0  0
 14 18  2  0  0  0  0
 15 20  1  0  0  0  0
 15 26  1  0  0  0  0
 16 19  2  0  0  0  0
 16 27  1  0  0  0  0
 17 21  1  0  0  0  0
 18 22  1  0  0  0  0
 18 28  1  0  0  0  0
 19 23  1  0  0  0  0
 20 23  2  0  0  0  0
 21 22  2  0  0  0  0
 21 30  1  0  0  0  0
M  END
> <PUBCHEM_COMPOUND_CID>
161557

> <PUBCHEM_COMPOUND_CANONICALIZED>
1

> <PUBCHEM_CACTVS_COMPLEXITY>
445

> <PUBCHEM_CACTVS_HBOND_ACCEPTOR>
8

> <PUBCHEM_CACTVS_HBOND_DONOR>
6

> <PUBCHEM_CACTVS_ROTATABLE_BOND>
1

> <PUBCHEM_CACTVS_SUBSKEYS>
AAADccBwPAAAAAAAAAAAAAAAAAAAAAAAAAA0YIAAAAAAAACRQAAAGgAACAAADBSgmAIwBoAABgCIAqBSAAICCAAkIAAAiAFGiMgNNzaGNRqCeWGl4BULuQfI7PzOIAABCAAIQABAAAIQABCAAAAAAAAAAA==

> <PUBCHEM_IUPAC_OPENEYE_NAME>
(2R,3R)-3,5,7-trihydroxy-2-(3,4,5-trihydroxyphenyl)chroman-4-one

> <PUBCHEM_IUPAC_CAS_NAME>
(2R,3R)-3,5,7-trihydroxy-2-(3,4,5-trihydroxyphenyl)-3,4-dihydro-2H-1-benzopyran-4-one

> <PUBCHEM_IUPAC_NAME>
(2R,3R)-3,5,7-trihydroxy-2-(3,4,5-trihydroxyphenyl)-2,3-dihydrochromen-4-one

> <PUBCHEM_IUPAC_SYSTEMATIC_NAME>
(2R,3R)-3,5,7-tris(oxidanyl)-2-[3,4,5-tris(oxidanyl)phenyl]-2,3-dihydrochromen-4-one

> <PUBCHEM_IUPAC_TRADITIONAL_NAME>
(2R,3R)-3,5,7-trihydroxy-2-(3,4,5-trihydroxyphenyl)chroman-4-one

> <PUBCHEM_IUPAC_INCHI>
InChI=1S/C15H12O8/c16-6-3-7(17)11-10(4-6)23-15(14(22)13(11)21)5-1-8(18)12(20)9(19)2-5/h1-4,14-20,22H/t14-,15+/m0/s1

> <PUBCHEM_IUPAC_INCHIKEY>
KJXSIXMJHKAJOD-LSDHHAIUSA-N

> <PUBCHEM_XLOGP3_AA>
1.1

> <PUBCHEM_EXACT_MASS>
320.053217

> <PUBCHEM_MOLECULAR_FORMULA>
C15H12O8

> <PUBCHEM_MOLECULAR_WEIGHT>
320.25098

> <PUBCHEM_OPENEYE_CAN_SMILES>
C1=C(C=C(C(=C1O)O)O)C2C(C(=O)C3=C(C=C(C=C3O2)O)O)O

> <PUBCHEM_OPENEYE_ISO_SMILES>
C1=C(C=C(C(=C1O)O)O)[C@@H]2[C@H](C(=O)C3=C(C=C(C=C3O2)O)O)O

> <PUBCHEM_CACTVS_TPSA>
148

> <PUBCHEM_MONOISOTOPIC_WEIGHT>
320.053217

> <PUBCHEM_TOTAL_CHARGE>
0

> <PUBCHEM_HEAVY_ATOM_COUNT>
23

> <PUBCHEM_ATOM_DEF_STEREO_COUNT>
2

> <PUBCHEM_ATOM_UDEF_STEREO_COUNT>
0

> <PUBCHEM_BOND_DEF_STEREO_COUNT>
0

> <PUBCHEM_BOND_UDEF_STEREO_COUNT>
0

> <PUBCHEM_ISOTOPIC_ATOM_COUNT>
0

> <PUBCHEM_COMPONENT_COUNT>
1

> <PUBCHEM_CACTVS_TAUTO_COUNT>
999

> <PUBCHEM_COORDINATE_TYPE>
1
5
255

> <PUBCHEM_BONDANNOTATIONS>
11  15  8
11  16  8
13  14  8
13  17  8
14  18  8
15  20  8
16  19  8
17  21  8
18  22  8
19  23  8
10  2  6
20  23  8
21  22  8
9  11  5

$$$$

