5281255
  -OEChem-07051212553D

 44 45  0     0  0  0  0  0  0999 V2000
   -2.3632   -1.1352   -1.2413 O   0  0  0  0  0  0  0  0  0  0  0  0
   -4.0860    2.9215    0.6273 O   0  0  0  0  0  0  0  0  0  0  0  0
    0.1534   -0.9773   -2.0379 O   0  0  0  0  0  0  0  0  0  0  0  0
    7.7888   -0.0191    1.3807 O   0  0  0  0  0  0  0  0  0  0  0  0
   -3.2327    0.8854   -0.3094 C   0  0  0  0  0  0  0  0  0  0  0  0
   -4.6283    0.3167   -0.3720 C   0  0  0  0  0  0  0  0  0  0  0  0
   -2.1605    0.1224   -0.7520 C   0  0  0  0  0  0  0  0  0  0  0  0
   -0.8706    0.6501   -0.6935 C   0  0  0  0  0  0  0  0  0  0  0  0
   -3.0390    2.1662    0.1907 C   0  0  0  0  0  0  0  0  0  0  0  0
   -5.0018   -0.4216    0.8826 C   0  0  0  0  0  0  0  0  0  0  0  0
   -0.6649    1.9357   -0.1928 C   0  0  0  0  0  0  0  0  0  0  0  0
   -1.7490    2.6936    0.2492 C   0  0  0  0  0  0  0  0  0  0  0  0
   -5.3356   -1.7200    1.0102 C   0  0  0  0  0  0  0  0  0  0  0  0
    0.2769   -0.1227   -1.1490 C   0  0  0  0  0  0  0  0  0  0  0  0
   -5.7002   -2.3994    2.2996 C   0  0  0  0  0  0  0  0  0  0  0  0
   -5.3765   -2.6182   -0.1976 C   0  0  0  0  0  0  0  0  0  0  0  0
    1.6080    0.1162   -0.4958 C   0  0  0  0  0  0  0  0  0  0  0  0
    4.0270   -0.4409   -0.2747 C   0  0  0  0  0  0  0  0  0  0  0  0
    2.6854   -0.5922   -0.8649 C   0  0  0  0  0  0  0  0  0  0  0  0
    4.3417    0.7234    0.4068 C   0  0  0  0  0  0  0  0  0  0  0  0
    4.9476   -1.4670   -0.4127 C   0  0  0  0  0  0  0  0  0  0  0  0
    5.6119    0.8658    0.9653 C   0  0  0  0  0  0  0  0  0  0  0  0
    6.2177   -1.3248    0.1460 C   0  0  0  0  0  0  0  0  0  0  0  0
    6.5499   -0.1584    0.8351 C   0  0  0  0  0  0  0  0  0  0  0  0
   -5.3657    1.1120   -0.5397 H   0  0  0  0  0  0  0  0  0  0  0  0
   -4.7292   -0.2796   -1.2821 H   0  0  0  0  0  0  0  0  0  0  0  0
   -5.0055    0.1813    1.7903 H   0  0  0  0  0  0  0  0  0  0  0  0
    0.3141    2.4045   -0.1654 H   0  0  0  0  0  0  0  0  0  0  0  0
   -1.5836    3.6978    0.6300 H   0  0  0  0  0  0  0  0  0  0  0  0
   -5.6767   -1.7014    3.1429 H   0  0  0  0  0  0  0  0  0  0  0  0
   -6.7104   -2.8167    2.2387 H   0  0  0  0  0  0  0  0  0  0  0  0
   -4.9976   -3.2103    2.5170 H   0  0  0  0  0  0  0  0  0  0  0  0
   -4.8926   -2.2317   -1.0933 H   0  0  0  0  0  0  0  0  0  0  0  0
   -4.8675   -3.5622    0.0301 H   0  0  0  0  0  0  0  0  0  0  0  0
   -6.4164   -2.8519   -0.4498 H   0  0  0  0  0  0  0  0  0  0  0  0
    1.6494    0.8167    0.3279 H   0  0  0  0  0  0  0  0  0  0  0  0
   -1.5194   -1.5891   -1.3917 H   0  0  0  0  0  0  0  0  0  0  0  0
    2.6077   -1.3332   -1.6571 H   0  0  0  0  0  0  0  0  0  0  0  0
   -4.8251    2.3572    0.9019 H   0  0  0  0  0  0  0  0  0  0  0  0
    3.6530    1.5556    0.5131 H   0  0  0  0  0  0  0  0  0  0  0  0
    4.7032   -2.3823   -0.9454 H   0  0  0  0  0  0  0  0  0  0  0  0
    5.8671    1.7786    1.4967 H   0  0  0  0  0  0  0  0  0  0  0  0
    6.9393   -2.1302    0.0379 H   0  0  0  0  0  0  0  0  0  0  0  0
    8.3068   -0.8212    1.1950 H   0  0  0  0  0  0  0  0  0  0  0  0
  1  7  1  0  0  0  0
  1 37  1  0  0  0  0
  2  9  1  0  0  0  0
  2 39  1  0  0  0  0
  3 14  2  0  0  0  0
  4 24  1  0  0  0  0
  4 44  1  0  0  0  0
  5  6  1  0  0  0  0
  5  7  1  0  0  0  0
  5  9  2  0  0  0  0
  6 10  1  0  0  0  0
  6 25  1  0  0  0  0
  6 26  1  0  0  0  0
  7  8  2  0  0  0  0
  8 11  1  0  0  0  0
  8 14  1  0  0  0  0
  9 12  1  0  0  0  0
 10 13  2  0  0  0  0
 10 27  1  0  0  0  0
 11 12  2  0  0  0  0
 11 28  1  0  0  0  0
 12 29  1  0  0  0  0
 13 15  1  0  0  0  0
 13 16  1  0  0  0  0
 14 17  1  0  0  0  0
 15 30  1  0  0  0  0
 15 31  1  0  0  0  0
 15 32  1  0  0  0  0
 16 33  1  0  0  0  0
 16 34  1  0  0  0  0
 16 35  1  0  0  0  0
 17 19  2  0  0  0  0
 17 36  1  0  0  0  0
 18 19  1  0  0  0  0
 18 20  2  0  0  0  0
 18 21  1  0  0  0  0
 19 38  1  0  0  0  0
 20 22  1  0  0  0  0
 20 40  1  0  0  0  0
 21 23  2  0  0  0  0
 21 41  1  0  0  0  0
 22 24  2  0  0  0  0
 22 42  1  0  0  0  0
 23 24  1  0  0  0  0
 23 43  1  0  0  0  0
M  END
> <PUBCHEM_COMPOUND_CID>
5281255

> <PUBCHEM_CONFORMER_RMSD>
0.8

> <PUBCHEM_CONFORMER_DIVERSEORDER>
1
9
56
44
32
33
20
15
75
28
77
24
54
35
71
6
12
7
73
36
46
74
55
61
59
42
26
69
34
38
48
47
11
66
64
67
22
4
25
45
63
68
70
51
19
65
52
16
23
57
49
76
5
62
39
53
37
31
41
60
30
2
58
17
13
72
50
29
40
8
27
14
10
18
3
43
21

> <PUBCHEM_MMFF94_PARTIAL_CHARGES>
36
1 -0.53
10 -0.29
11 -0.15
12 -0.15
13 -0.28
14 0.47
15 0.14
16 0.14
17 -0.14
18 0.03
19 -0.18
2 -0.53
20 -0.15
21 -0.15
22 -0.15
23 -0.15
24 0.08
27 0.15
28 0.15
29 0.15
3 -0.57
36 0.15
37 0.45
38 0.15
39 0.45
4 -0.53
40 0.15
41 0.15
42 0.15
43 0.15
44 0.45
5 -0.14
6 0.28
7 0.08
8 0.09
9 0.08

> <PUBCHEM_EFFECTIVE_ROTOR_COUNT>
5

> <PUBCHEM_PHARMACOPHORE_FEATURES>
7
1 1 donor
1 2 donor
1 3 acceptor
1 4 donor
3 13 15 16 hydrophobe
6 18 20 21 22 23 24 rings
6 5 7 8 9 11 12 rings

> <PUBCHEM_HEAVY_ATOM_COUNT>
24

> <PUBCHEM_ATOM_DEF_STEREO_COUNT>
0

> <PUBCHEM_ATOM_UDEF_STEREO_COUNT>
0

> <PUBCHEM_BOND_DEF_STEREO_COUNT>
1

> <PUBCHEM_BOND_UDEF_STEREO_COUNT>
0

> <PUBCHEM_ISOTOPIC_ATOM_COUNT>
0

> <PUBCHEM_COMPONENT_COUNT>
1

> <PUBCHEM_CACTVS_TAUTO_COUNT>
57

> <PUBCHEM_CONFORMER_ID>
005095E700000001

> <PUBCHEM_MMFF94_ENERGY>
71.5634

> <PUBCHEM_FEATURE_SELFOVERLAP>
35.52

> <PUBCHEM_SHAPE_FINGERPRINT>
10 15 18259707796245481656
11088757 655 18198059184235840051
11273773 118 7420955304623029983
11315181 36 18131349717338419420
11646440 116 17167866357611984648
12107183 9 17397547984260376010
12166972 35 17274819125883275892
12555020 224 12967126107846456889
12596602 18 18060139830044560592
12670543 26 11383841458365957782
13540713 4 17824527806926568973
14211702 104 18130780187748743770
14251752 14 8862946065566931084
14341114 176 18186522137948508340
14844126 61 18411414013011187427
14930077 153 6699517351370346770
15052358 14 10375877363478628070
15183329 4 15140968361353122794
15188451 53 17989208122585364098
15519825 34 17988370269640913770
1768 4 17240774926573846272
17913733 40 17168137966189362918
18222031 100 16415477160452429510
18927931 339 18335134311191180703
19377110 9 18338792321736062340
19611394 137 18337951191272453154
20028762 73 17632574933895840482
21315759 148 18337104665971924714
21424621 283 5112009434888428822
21637258 2 17346601837529400959
21792934 111 18408603648390086425
23559900 14 17702099167596960205
312425 54 18271803591928552434
3383291 50 17988638541535573283
3663271 9 18342461474000779010
392239 28 18410285891973113611
4073 2 18337669827664250298
5104073 3 18189329241935440874
5718773 13 18056472856251767427
6608658 132 6411018583081300163
9953998 17 18333728048614544705

> <PUBCHEM_SHAPE_MULTIPOLES>
470.43
18.39
2.63
1.41
21.3
0.59
0.15
-9.42
9.37
-5.08
0.79
-0.58
-0.66
1.41

> <PUBCHEM_SHAPE_SELFOVERLAP>
1003.406

> <PUBCHEM_SHAPE_VOLUME>
261.5

> <PUBCHEM_COORDINATE_TYPE>
2
5
10

$$$$

