13598
  -OEChem-06241222393D

 24 24  0     1  0  0  0  0  0999 V2000
   -0.4069   -0.0552    0.2503 C   0  0  1  0  0  0  0  0  0  0  0  0
    0.8510   -0.7139   -0.3281 C   0  0  1  0  0  0  0  0  0  0  0  0
   -0.1926    1.4211   -0.0872 C   0  0  0  0  0  0  0  0  0  0  0  0
    1.9540    0.2584    0.0915 C   0  0  0  0  0  0  0  0  0  0  0  0
    1.3158    1.6451    0.0179 C   0  0  0  0  0  0  0  0  0  0  0  0
   -1.7083   -0.6003   -0.3176 C   0  0  0  0  0  0  0  0  0  0  0  0
    1.0970   -2.1277    0.1759 C   0  0  0  0  0  0  0  0  0  0  0  0
   -2.9101    0.1725    0.1972 C   0  0  0  0  0  0  0  0  0  0  0  0
   -0.4120   -0.1707    1.3435 H   0  0  0  0  0  0  0  0  0  0  0  0
    0.7921   -0.7336   -1.4248 H   0  0  0  0  0  0  0  0  0  0  0  0
   -0.7399    2.0850    0.5899 H   0  0  0  0  0  0  0  0  0  0  0  0
   -0.5211    1.6442   -1.1100 H   0  0  0  0  0  0  0  0  0  0  0  0
    2.8355    0.1812   -0.5530 H   0  0  0  0  0  0  0  0  0  0  0  0
    2.2795    0.0608    1.1204 H   0  0  0  0  0  0  0  0  0  0  0  0
    1.5690    2.2302    0.9087 H   0  0  0  0  0  0  0  0  0  0  0  0
    1.6798    2.2014   -0.8527 H   0  0  0  0  0  0  0  0  0  0  0  0
   -1.8202   -1.6541   -0.0383 H   0  0  0  0  0  0  0  0  0  0  0  0
   -1.6988   -0.5621   -1.4135 H   0  0  0  0  0  0  0  0  0  0  0  0
    0.3075   -2.8068   -0.1601 H   0  0  0  0  0  0  0  0  0  0  0  0
    2.0508   -2.5101   -0.2024 H   0  0  0  0  0  0  0  0  0  0  0  0
    1.1298   -2.1632    1.2700 H   0  0  0  0  0  0  0  0  0  0  0  0
   -2.9316    0.1885    1.2915 H   0  0  0  0  0  0  0  0  0  0  0  0
   -2.9163    1.2048   -0.1655 H   0  0  0  0  0  0  0  0  0  0  0  0
   -3.8345   -0.3010   -0.1496 H   0  0  0  0  0  0  0  0  0  0  0  0
  1  2  1  0  0  0  0
  1  3  1  0  0  0  0
  1  6  1  0  0  0  0
  1  9  1  0  0  0  0
  2  4  1  0  0  0  0
  2  7  1  0  0  0  0
  2 10  1  0  0  0  0
  3  5  1  0  0  0  0
  3 11  1  0  0  0  0
  3 12  1  0  0  0  0
  4  5  1  0  0  0  0
  4 13  1  0  0  0  0
  4 14  1  0  0  0  0
  5 15  1  0  0  0  0
  5 16  1  0  0  0  0
  6  8  1  0  0  0  0
  6 17  1  0  0  0  0
  6 18  1  0  0  0  0
  7 19  1  0  0  0  0
  7 20  1  0  0  0  0
  7 21  1  0  0  0  0
  8 22  1  0  0  0  0
  8 23  1  0  0  0  0
  8 24  1  0  0  0  0
M  END
> <PUBCHEM_COMPOUND_CID>
13598

> <PUBCHEM_CONFORMER_RMSD>
0.4

> <PUBCHEM_CONFORMER_DIVERSEORDER>
1
6
5
4
3
2

> <PUBCHEM_MMFF94_PARTIAL_CHARGES>
0

> <PUBCHEM_EFFECTIVE_ROTOR_COUNT>
2

> <PUBCHEM_PHARMACOPHORE_FEATURES>
2
1 8 hydrophobe
5 1 2 3 4 5 rings

> <PUBCHEM_HEAVY_ATOM_COUNT>
8

> <PUBCHEM_ATOM_DEF_STEREO_COUNT>
2

> <PUBCHEM_ATOM_UDEF_STEREO_COUNT>
0

> <PUBCHEM_BOND_DEF_STEREO_COUNT>
0

> <PUBCHEM_BOND_UDEF_STEREO_COUNT>
0

> <PUBCHEM_ISOTOPIC_ATOM_COUNT>
0

> <PUBCHEM_COMPONENT_COUNT>
1

> <PUBCHEM_CACTVS_TAUTO_COUNT>
1

> <PUBCHEM_CONFORMER_ID>
0000351E00000001

> <PUBCHEM_MMFF94_ENERGY>
10.4479

> <PUBCHEM_FEATURE_SELFOVERLAP>
10.148

> <PUBCHEM_SHAPE_FINGERPRINT>
18185500 45 18334579052986128751
20871998 184 17324658059271946622
20871998 22 18046340013801433231
21040471 1 17978229361701309780
23552333 60 18188204398590377683
23552423 10 18270110348253388783
241688 4 17907576178982370112
29004967 10 18342735230288275107
5084963 1 17898846851179279409

> <PUBCHEM_SHAPE_MULTIPOLES>
164.64
3
1.89
0.66
2.25
0.36
0
-0.06
0.14
-1
0.05
0.02
0.02
-0.07

> <PUBCHEM_SHAPE_SELFOVERLAP>
314.201

> <PUBCHEM_SHAPE_VOLUME>
100.5

> <PUBCHEM_COORDINATE_TYPE>
2
5
10

$$$$

