5280616
  -OEChem-07051212483D

 32 34  0     0  0  0  0  0  0999 V2000
   -0.8201    0.6451    0.0681 O   0  0  0  0  0  0  0  0  0  0  0  0
    1.5282   -0.2108   -2.2759 O   0  0  0  0  0  0  0  0  0  0  0  0
    4.2175    0.3511   -2.2095 O   0  0  0  0  0  0  0  0  0  0  0  0
    4.0850    0.4282    2.5710 O   0  0  0  0  0  0  0  0  0  0  0  0
   -2.3860   -3.1153    0.1502 O   0  0  0  0  0  0  0  0  0  0  0  0
    5.5064    0.6729    0.2080 O   0  0  0  0  0  0  0  0  0  0  0  0
   -5.1332    2.6267   -0.0431 O   0  0  0  0  0  0  0  0  0  0  0  0
    1.4353   -0.1780    0.1197 C   0  0  0  0  0  0  0  0  0  0  0  0
   -0.0102   -0.4794    0.1172 C   0  0  0  0  0  0  0  0  0  0  0  0
   -2.7822   -0.7866    0.0844 C   0  0  0  0  0  0  0  0  0  0  0  0
   -2.1808    0.4705    0.0566 C   0  0  0  0  0  0  0  0  0  0  0  0
   -0.4692   -1.7408    0.1407 C   0  0  0  0  0  0  0  0  0  0  0  0
    2.1547   -0.0543   -1.0732 C   0  0  0  0  0  0  0  0  0  0  0  0
   -1.9263   -1.9820    0.1273 C   0  0  0  0  0  0  0  0  0  0  0  0
    2.0944   -0.0137    1.3418 C   0  0  0  0  0  0  0  0  0  0  0  0
   -4.1739   -0.9045    0.0701 C   0  0  0  0  0  0  0  0  0  0  0  0
   -2.9699    1.6201    0.0138 C   0  0  0  0  0  0  0  0  0  0  0  0
    3.5198    0.2310   -1.0439 C   0  0  0  0  0  0  0  0  0  0  0  0
    3.4595    0.2717    1.3710 C   0  0  0  0  0  0  0  0  0  0  0  0
    4.1721    0.3941    0.1782 C   0  0  0  0  0  0  0  0  0  0  0  0
   -4.3603    1.5067   -0.0004 C   0  0  0  0  0  0  0  0  0  0  0  0
   -4.9608    0.2472    0.0278 C   0  0  0  0  0  0  0  0  0  0  0  0
    0.1879   -2.6028    0.1709 H   0  0  0  0  0  0  0  0  0  0  0  0
    1.5481   -0.1061    2.2783 H   0  0  0  0  0  0  0  0  0  0  0  0
   -4.6588   -1.8762    0.0912 H   0  0  0  0  0  0  0  0  0  0  0  0
   -2.5046    2.6024   -0.0086 H   0  0  0  0  0  0  0  0  0  0  0  0
   -6.0432    0.1494    0.0167 H   0  0  0  0  0  0  0  0  0  0  0  0
    2.1743   -0.4895   -2.9451 H   0  0  0  0  0  0  0  0  0  0  0  0
    3.6106    0.5910   -2.9285 H   0  0  0  0  0  0  0  0  0  0  0  0
    5.0240    0.6204    2.4037 H   0  0  0  0  0  0  0  0  0  0  0  0
    5.8306    0.7205   -0.7081 H   0  0  0  0  0  0  0  0  0  0  0  0
   -6.0695    2.3635   -0.0475 H   0  0  0  0  0  0  0  0  0  0  0  0
  1  9  1  0  0  0  0
  1 11  1  0  0  0  0
  2 13  1  0  0  0  0
  2 28  1  0  0  0  0
  3 18  1  0  0  0  0
  3 29  1  0  0  0  0
  4 19  1  0  0  0  0
  4 30  1  0  0  0  0
  5 14  2  0  0  0  0
  6 20  1  0  0  0  0
  6 31  1  0  0  0  0
  7 21  1  0  0  0  0
  7 32  1  0  0  0  0
  8  9  1  0  0  0  0
  8 13  1  0  0  0  0
  8 15  2  0  0  0  0
  9 12  2  0  0  0  0
 10 11  2  0  0  0  0
 10 14  1  0  0  0  0
 10 16  1  0  0  0  0
 11 17  1  0  0  0  0
 12 14  1  0  0  0  0
 12 23  1  0  0  0  0
 13 18  2  0  0  0  0
 15 19  1  0  0  0  0
 15 24  1  0  0  0  0
 16 22  2  0  0  0  0
 16 25  1  0  0  0  0
 17 21  2  0  0  0  0
 17 26  1  0  0  0  0
 18 20  1  0  0  0  0
 19 20  2  0  0  0  0
 21 22  1  0  0  0  0
 22 27  1  0  0  0  0
M  END
> <PUBCHEM_COMPOUND_CID>
5280616

> <PUBCHEM_CONFORMER_RMSD>
0.6

> <PUBCHEM_CONFORMER_DIVERSEORDER>
1
5
3
4
2
6

> <PUBCHEM_MMFF94_PARTIAL_CHARGES>
32
1 -0.16
10 0.09
11 0.08
12 -0.14
13 0.08
14 0.47
15 -0.15
16 -0.15
17 -0.15
18 0.08
19 0.08
2 -0.53
20 0.08
21 0.08
22 -0.15
23 0.15
24 0.15
25 0.15
26 0.15
27 0.15
28 0.45
29 0.45
3 -0.53
30 0.45
31 0.45
32 0.45
4 -0.53
5 -0.57
6 -0.53
7 -0.53
8 0.03
9 0.05

> <PUBCHEM_EFFECTIVE_ROTOR_COUNT>
1

> <PUBCHEM_PHARMACOPHORE_FEATURES>
10
1 1 acceptor
1 2 donor
1 3 donor
1 4 donor
1 5 acceptor
1 6 donor
1 7 donor
6 1 9 10 11 12 14 rings
6 10 11 16 17 21 22 rings
6 8 13 15 18 19 20 rings

> <PUBCHEM_HEAVY_ATOM_COUNT>
22

> <PUBCHEM_ATOM_DEF_STEREO_COUNT>
0

> <PUBCHEM_ATOM_UDEF_STEREO_COUNT>
0

> <PUBCHEM_BOND_DEF_STEREO_COUNT>
0

> <PUBCHEM_BOND_UDEF_STEREO_COUNT>
0

> <PUBCHEM_ISOTOPIC_ATOM_COUNT>
0

> <PUBCHEM_COMPONENT_COUNT>
1

> <PUBCHEM_CACTVS_TAUTO_COUNT>
268

> <PUBCHEM_CONFORMER_ID>
0050936800000001

> <PUBCHEM_MMFF94_ENERGY>
66.2175

> <PUBCHEM_FEATURE_SELFOVERLAP>
50.787

> <PUBCHEM_SHAPE_FINGERPRINT>
10319926 262 18263100863533302754
10411042 1 17834677098448200011
10498660 4 18336543923536780577
10646746 165 18335141973048748490
10912923 1 17489869323757334009
11796584 16 18335414686994477454
12173636 292 18338802342137363557
12236239 1 17703792496596189986
12390115 104 18189322619871479945
12403259 415 17894909611640791587
12403814 3 17346884459789692725
12596602 18 17203320079346527209
12730499 353 17603579751324287327
12788726 201 17557408891262813051
12969540 114 17530975704307479909
13140716 1 18124029023714757795
13583140 156 17895197658355866974
14294032 229 18342738572796835317
14386348 63 17749102262585664146
14739800 52 18126290740566244336
15375358 24 17894916221690425011
16752209 62 18340486651764021363
173720 79 18202293519652127659
18186145 218 17821722858127157739
200 152 16056889009163617603
20511986 3 17632306631103453588
20645477 56 18408040706519768755
20645477 70 16370998620663297886
21033648 29 17821737113007588352
21065201 7 18335136458242655698
212916 134 18410303526992831763
23402539 116 18334863813512581341
23557571 272 18187362090984183265
23559900 14 18261104201909324206
341906 21 18410577279417987920
345986 75 16772975708213431776
3472631 163 18412824672595565541
350125 39 17980760755280023883
38570 142 16628804376482611526
4028521 119 18040715896319684257
474 4 17060336310110061162
495365 180 17603875545542783494
5104073 3 18268425918758557011
5281201 14 16732977652389633376
542803 24 17704067395656275532
573450 72 18201727223249263402
7064713 232 18271811280236906341
77492 1 17632300034291967538
9862522 239 17702398410531530645

> <PUBCHEM_SHAPE_MULTIPOLES>
411.66
11.1
1.93
1.48
0.75
0.68
0.12
-4.94
-0.57
-3.44
-0.08
2.88
-0.17
0.15

> <PUBCHEM_SHAPE_SELFOVERLAP>
923.389

> <PUBCHEM_SHAPE_VOLUME>
216.7

> <PUBCHEM_COORDINATE_TYPE>
2
5
10

$$$$

