11145
  -OEChem-07051213013D

 33 33  0     0  0  0  0  0  0999 V2000
   -3.6499   -2.7846   -0.0768 Cl  0  0  0  0  0  0  0  0  0  0  0  0
   -5.4983   -0.1302   -0.1857 Cl  0  0  0  0  0  0  0  0  0  0  0  0
    0.7295    2.5499    0.7373 O   0  0  0  0  0  0  0  0  0  0  0  0
    2.4382    1.3465   -0.3078 N   0  0  0  0  0  0  0  0  0  0  0  0
    0.3848    0.3103    0.2095 N   0  0  0  0  0  0  0  0  0  0  0  0
    3.5924   -0.7712    0.1874 C   0  0  0  0  0  0  0  0  0  0  0  0
    2.8925    0.0971   -0.8527 C   0  0  0  0  0  0  0  0  0  0  0  0
    4.1022   -2.0912   -0.3955 C   0  0  0  0  0  0  0  0  0  0  0  0
    4.8472   -2.9083    0.6486 C   0  0  0  0  0  0  0  0  0  0  0  0
    1.1369    1.4864    0.2649 C   0  0  0  0  0  0  0  0  0  0  0  0
    3.3789    2.4721   -0.3692 C   0  0  0  0  0  0  0  0  0  0  0  0
   -1.0239    0.1883    0.1152 C   0  0  0  0  0  0  0  0  0  0  0  0
   -1.5919   -1.0731    0.0714 C   0  0  0  0  0  0  0  0  0  0  0  0
   -1.7990    1.3341    0.0689 C   0  0  0  0  0  0  0  0  0  0  0  0
   -2.9786   -1.1925   -0.0218 C   0  0  0  0  0  0  0  0  0  0  0  0
   -3.1856    1.2148   -0.0243 C   0  0  0  0  0  0  0  0  0  0  0  0
   -3.7754   -0.0484   -0.0694 C   0  0  0  0  0  0  0  0  0  0  0  0
    2.9143   -0.9809    1.0234 H   0  0  0  0  0  0  0  0  0  0  0  0
    4.4381   -0.2170    0.6140 H   0  0  0  0  0  0  0  0  0  0  0  0
    2.0757   -0.4512   -1.3335 H   0  0  0  0  0  0  0  0  0  0  0  0
    3.5947    0.3206   -1.6665 H   0  0  0  0  0  0  0  0  0  0  0  0
    4.7722   -1.8908   -1.2396 H   0  0  0  0  0  0  0  0  0  0  0  0
    3.2590   -2.6761   -0.7806 H   0  0  0  0  0  0  0  0  0  0  0  0
    4.1963   -3.1500    1.4949 H   0  0  0  0  0  0  0  0  0  0  0  0
    5.2008   -3.8478    0.2128 H   0  0  0  0  0  0  0  0  0  0  0  0
    5.7164   -2.3616    1.0282 H   0  0  0  0  0  0  0  0  0  0  0  0
    4.2974    2.1986    0.1567 H   0  0  0  0  0  0  0  0  0  0  0  0
    2.9506    3.3630    0.0965 H   0  0  0  0  0  0  0  0  0  0  0  0
    3.6001    2.6883   -1.4181 H   0  0  0  0  0  0  0  0  0  0  0  0
    0.8778   -0.5764    0.2189 H   0  0  0  0  0  0  0  0  0  0  0  0
   -0.9645   -1.9606    0.1085 H   0  0  0  0  0  0  0  0  0  0  0  0
   -1.4006    2.3399    0.0720 H   0  0  0  0  0  0  0  0  0  0  0  0
   -3.7917    2.1165   -0.0667 H   0  0  0  0  0  0  0  0  0  0  0  0
  1 15  1  0  0  0  0
  2 17  1  0  0  0  0
  3 10  2  0  0  0  0
  4  7  1  0  0  0  0
  4 10  1  0  0  0  0
  4 11  1  0  0  0  0
  5 10  1  0  0  0  0
  5 12  1  0  0  0  0
  5 30  1  0  0  0  0
  6  7  1  0  0  0  0
  6  8  1  0  0  0  0
  6 18  1  0  0  0  0
  6 19  1  0  0  0  0
  7 20  1  0  0  0  0
  7 21  1  0  0  0  0
  8  9  1  0  0  0  0
  8 22  1  0  0  0  0
  8 23  1  0  0  0  0
  9 24  1  0  0  0  0
  9 25  1  0  0  0  0
  9 26  1  0  0  0  0
 11 27  1  0  0  0  0
 11 28  1  0  0  0  0
 11 29  1  0  0  0  0
 12 13  2  0  0  0  0
 12 14  1  0  0  0  0
 13 15  1  0  0  0  0
 13 31  1  0  0  0  0
 14 16  2  0  0  0  0
 14 32  1  0  0  0  0
 15 17  2  0  0  0  0
 16 17  1  0  0  0  0
 16 33  1  0  0  0  0
M  END
> <PUBCHEM_COMPOUND_CID>
11145

> <PUBCHEM_CONFORMER_RMSD>
0.8

> <PUBCHEM_CONFORMER_DIVERSEORDER>
1
103
43
56
112
47
69
63
100
118
98
61
45
108
113
95
51
85
91
126
15
106
96
66
73
70
28
77
82
58
88
3
79
99
41
74
5
44
116
90
7
115
75
87
33
36
50
105
76
97
124
23
111
120
84
14
17
109
86
49
101
104
2
81
42
68
24
64
93
72
48
122
94
16
9
62
39
92
83
29
102
55
25
4
119
52
54
57
60
59
32
117
22
34
53
20
8
27
114
125
89
6
38
107
46
31
13
78
110
11
80
19
71
21
40
65
30
18
121
12
26
123
10
35
67
37

> <PUBCHEM_MMFF94_PARTIAL_CHARGES>
18
1 -0.18
10 0.69
11 0.3
12 0.12
13 -0.15
14 -0.15
15 0.18
16 -0.15
17 0.18
2 -0.18
3 -0.57
30 0.37
31 0.15
32 0.15
33 0.15
4 -0.66
5 -0.55
7 0.3

> <PUBCHEM_EFFECTIVE_ROTOR_COUNT>
6

> <PUBCHEM_PHARMACOPHORE_FEATURES>
4
1 3 acceptor
1 5 donor
1 9 hydrophobe
6 12 13 14 15 16 17 rings

> <PUBCHEM_HEAVY_ATOM_COUNT>
17

> <PUBCHEM_ATOM_DEF_STEREO_COUNT>
0

> <PUBCHEM_ATOM_UDEF_STEREO_COUNT>
0

> <PUBCHEM_BOND_DEF_STEREO_COUNT>
0

> <PUBCHEM_BOND_UDEF_STEREO_COUNT>
0

> <PUBCHEM_ISOTOPIC_ATOM_COUNT>
0

> <PUBCHEM_COMPONENT_COUNT>
1

> <PUBCHEM_CACTVS_TAUTO_COUNT>
2

> <PUBCHEM_CONFORMER_ID>
00002B8900000001

> <PUBCHEM_MMFF94_ENERGY>
39.1992

> <PUBCHEM_FEATURE_SELFOVERLAP>
20.297

> <PUBCHEM_SHAPE_FINGERPRINT>
10062212 137 18261115200940916839
10616163 171 18192988214674550190
11265709 11 18338795749467916042
11405975 8 18409163307707111873
12107183 9 18120929766096321241
12555020 224 18339370746752297231
12633257 1 18261379083757950239
13533116 47 18408043992095871123
13955234 65 18336826369197238624
14866123 147 17613995613483122672
15196674 1 18338233765470881063
15352361 1 18338236089233174718
15442244 35 18409444829907805272
17492 89 18339923710179189906
18186145 218 17489593350375272971
20281475 54 18408881806849872865
20369508 70 18186803560715951612
20403669 9 18335418031998333206
20645477 70 18411418397418370398
21250096 35 18335140925224622562
21267235 1 18338508733303242803
21618674 54 18339923693088387516
221490 88 18341043021885275266
23559900 14 18409452444794935904
3004659 81 18272646905127182462
314173 41 18338229470656819294
335352 9 18338236089280316573
3421961 26 18409733971870150618
5104073 3 18260823783262343331
559249 180 18198064887603917851
633830 44 16845570898695827869
6433294 58 18266455400105520282
88748 71 18342733031218313410
9709674 26 18270959033881158538

> <PUBCHEM_SHAPE_MULTIPOLES>
337.76
10.76
3.17
0.73
0.08
0.9
-0.02
6.34
-0.5
-2.99
0.29
-0.3
0.01
-0.58

> <PUBCHEM_SHAPE_SELFOVERLAP>
661.967

> <PUBCHEM_SHAPE_VOLUME>
205.1

> <PUBCHEM_COORDINATE_TYPE>
2
5
10

$$$$

