3828
  -OEChem-07051212563D

 31 33  0     0  0  0  0  0  0999 V2000
    1.7802    1.4914    0.1760 O   0  0  0  0  0  0  0  0  0  0  0  0
   -3.0088    1.1406    0.1688 O   0  0  0  0  0  0  0  0  0  0  0  0
   -0.5196   -2.7525   -0.3734 O   0  0  0  0  0  0  0  0  0  0  0  0
   -0.6163    2.7786    0.3686 O   0  0  0  0  0  0  0  0  0  0  0  0
    2.0927   -2.5335   -0.3644 O   0  0  0  0  0  0  0  0  0  0  0  0
    0.6625   -0.6509   -0.1015 C   0  0  0  0  0  0  0  0  0  0  0  0
   -1.7499   -0.7172   -0.0902 C   0  0  0  0  0  0  0  0  0  0  0  0
    0.6363    0.7335    0.0843 C   0  0  0  0  0  0  0  0  0  0  0  0
   -0.5232   -1.3985   -0.1916 C   0  0  0  0  0  0  0  0  0  0  0  0
   -1.7352    0.6613    0.0943 C   0  0  0  0  0  0  0  0  0  0  0  0
   -0.5742    1.4274    0.1874 C   0  0  0  0  0  0  0  0  0  0  0  0
    1.9667   -1.3272   -0.2037 C   0  0  0  0  0  0  0  0  0  0  0  0
   -3.1207   -1.0864   -0.1286 C   0  0  0  0  0  0  0  0  0  0  0  0
    3.0059    0.8543    0.0795 C   0  0  0  0  0  0  0  0  0  0  0  0
    3.1590   -0.4653   -0.0989 C   0  0  0  0  0  0  0  0  0  0  0  0
   -3.8401    0.0748    0.0327 C   0  0  0  0  0  0  0  0  0  0  0  0
    4.1722    1.7846    0.1942 C   0  0  0  0  0  0  0  0  0  0  0  0
   -0.5075   -3.5600    0.8001 C   0  0  0  0  0  0  0  0  0  0  0  0
   -1.2800    3.5449   -0.6335 C   0  0  0  0  0  0  0  0  0  0  0  0
   -3.5336   -2.0769   -0.2580 H   0  0  0  0  0  0  0  0  0  0  0  0
    4.1340   -0.9331   -0.1702 H   0  0  0  0  0  0  0  0  0  0  0  0
   -4.8959    0.2992    0.0711 H   0  0  0  0  0  0  0  0  0  0  0  0
    4.1502    2.3005    1.1595 H   0  0  0  0  0  0  0  0  0  0  0  0
    4.1346    2.5369   -0.6003 H   0  0  0  0  0  0  0  0  0  0  0  0
    5.1299    1.2598    0.1152 H   0  0  0  0  0  0  0  0  0  0  0  0
   -1.4946   -3.5463    1.2725 H   0  0  0  0  0  0  0  0  0  0  0  0
    0.2482   -3.2207    1.5158 H   0  0  0  0  0  0  0  0  0  0  0  0
   -0.2759   -4.5877    0.5072 H   0  0  0  0  0  0  0  0  0  0  0  0
   -0.8899    4.5659   -0.5930 H   0  0  0  0  0  0  0  0  0  0  0  0
   -2.3544    3.5816   -0.4328 H   0  0  0  0  0  0  0  0  0  0  0  0
   -1.0932    3.1442   -1.6356 H   0  0  0  0  0  0  0  0  0  0  0  0
  1  8  1  0  0  0  0
  1 14  1  0  0  0  0
  2 10  1  0  0  0  0
  2 16  1  0  0  0  0
  3  9  1  0  0  0  0
  3 18  1  0  0  0  0
  4 11  1  0  0  0  0
  4 19  1  0  0  0  0
  5 12  2  0  0  0  0
  6  8  1  0  0  0  0
  6  9  2  0  0  0  0
  6 12  1  0  0  0  0
  7  9  1  0  0  0  0
  7 10  2  0  0  0  0
  7 13  1  0  0  0  0
  8 11  2  0  0  0  0
 10 11  1  0  0  0  0
 12 15  1  0  0  0  0
 13 16  2  0  0  0  0
 13 20  1  0  0  0  0
 14 15  2  0  0  0  0
 14 17  1  0  0  0  0
 15 21  1  0  0  0  0
 16 22  1  0  0  0  0
 17 23  1  0  0  0  0
 17 24  1  0  0  0  0
 17 25  1  0  0  0  0
 18 26  1  0  0  0  0
 18 27  1  0  0  0  0
 18 28  1  0  0  0  0
 19 29  1  0  0  0  0
 19 30  1  0  0  0  0
 19 31  1  0  0  0  0
M  END
> <PUBCHEM_COMPOUND_CID>
3828

> <PUBCHEM_CONFORMER_RMSD>
0.6

> <PUBCHEM_CONFORMER_DIVERSEORDER>
1
2

> <PUBCHEM_MMFF94_PARTIAL_CHARGES>
21
1 -0.16
10 0.14
11 0.08
12 0.47
13 -0.15
14 -0.06
15 -0.14
16 -0.01
17 0.14
18 0.28
19 0.28
2 -0.28
20 0.15
21 0.15
22 0.15
3 -0.36
4 -0.36
5 -0.57
6 0.09
8 0.08
9 0.08

> <PUBCHEM_EFFECTIVE_ROTOR_COUNT>
2

> <PUBCHEM_PHARMACOPHORE_FEATURES>
8
1 1 acceptor
1 2 acceptor
1 3 acceptor
1 4 acceptor
1 5 acceptor
5 2 7 10 13 16 rings
6 1 6 8 12 14 15 rings
6 6 7 8 9 10 11 rings

> <PUBCHEM_HEAVY_ATOM_COUNT>
19

> <PUBCHEM_ATOM_DEF_STEREO_COUNT>
0

> <PUBCHEM_ATOM_UDEF_STEREO_COUNT>
0

> <PUBCHEM_BOND_DEF_STEREO_COUNT>
0

> <PUBCHEM_BOND_UDEF_STEREO_COUNT>
0

> <PUBCHEM_ISOTOPIC_ATOM_COUNT>
0

> <PUBCHEM_COMPONENT_COUNT>
1

> <PUBCHEM_CACTVS_TAUTO_COUNT>
3

> <PUBCHEM_CONFORMER_ID>
00000EF400000001

> <PUBCHEM_MMFF94_ENERGY>
61.711

> <PUBCHEM_FEATURE_SELFOVERLAP>
40.745

> <PUBCHEM_SHAPE_FINGERPRINT>
10411042 1 17040914838024794911
10608611 8 18338237192606999836
10693767 8 15663927608083344326
10967382 1 18409729521577201998
11132069 177 18261117344066144624
12382932 28 18337671901991166002
13132413 78 18192711133449266420
13140716 1 18338228379581833731
13380535 76 18337112267821315622
14223421 5 18266457783473869428
14790565 3 18338500942412630505
15042514 8 18268150860136100666
15196674 1 18408885122406291823
15536298 74 18259983790638298254
16945 1 18338792317134912268
193761 8 17906172111376628161
19591789 44 18410571751800683915
20510252 161 18334576862510967360
20588541 1 18336544906756743512
20739085 24 18124282082876673209
21029758 27 18127123083309760717
21267235 1 18408594859990180414
21421861 104 17912079757604376971
21501502 16 18192147307359400800
2334 1 18409729534794484711
23402539 116 18262247611764673951
23419403 2 15823060453951283947
23463225 33 18411136926530911541
23558518 356 18126277777584246601
23559900 14 18261674861492766774
238 59 16546397379565898925
2748010 2 18410007732726992351
335352 9 17905042904313352029
34934 24 18337680715052904703
350125 39 18266454489666833832
43471831 8 18341333408760908627
5104073 3 18409448089539654747
589210 1 17906737255989876429
7364860 26 18261391204435273454
8809292 202 18339920420639968402
9709674 26 18262512590168061774

> <PUBCHEM_SHAPE_MULTIPOLES>
361.66
5.52
3.79
0.68
1.92
0.21
-0.01
-1.4
-0.12
-0.58
-0.02
-0.02
0.06
0.34

> <PUBCHEM_SHAPE_SELFOVERLAP>
804.533

> <PUBCHEM_SHAPE_VOLUME>
195.3

> <PUBCHEM_COORDINATE_TYPE>
2
5
10

$$$$

