3177
  -OEChem-07051213023D

 35 37  0     0  0  0  0  0  0999 V2000
   -4.1498   -4.4347   -0.0030 Br  0  0  0  0  0  0  0  0  0  0  0  0
    4.6441   -0.1141    0.0005 S   0  0  0  0  0  0  0  0  0  0  0  0
   -3.7115   -1.2826   -0.0003 S   0  0  0  0  0  0  0  0  0  0  0  0
   -1.7498    4.9645    0.0001 F   0  0  0  0  0  0  0  0  0  0  0  0
    5.2182   -0.5662    1.2598 O   0  0  0  0  0  0  0  0  0  0  0  0
    5.2369   -0.5425   -1.2591 O   0  0  0  0  0  0  0  0  0  0  0  0
   -1.1513   -1.5528   -0.0004 C   0  0  0  0  0  0  0  0  0  0  0  0
    0.2420   -1.2071   -0.0002 C   0  0  0  0  0  0  0  0  0  0  0  0
   -2.1439   -0.5933    0.0000 C   0  0  0  0  0  0  0  0  0  0  0  0
    2.9495   -0.5346    0.0002 C   0  0  0  0  0  0  0  0  0  0  0  0
    0.9188   -1.0385   -1.2081 C   0  0  0  0  0  0  0  0  0  0  0  0
    0.9188   -1.0396    1.2078 C   0  0  0  0  0  0  0  0  0  0  0  0
    2.2725   -0.7023   -1.2079 C   0  0  0  0  0  0  0  0  0  0  0  0
    2.2726   -0.7033    1.2082 C   0  0  0  0  0  0  0  0  0  0  0  0
   -2.0414    0.8504    0.0007 C   0  0  0  0  0  0  0  0  0  0  0  0
   -1.6944   -2.8735   -0.0013 C   0  0  0  0  0  0  0  0  0  0  0  0
   -3.0718   -2.8710   -0.0013 C   0  0  0  0  0  0  0  0  0  0  0  0
    4.6577    1.6645    0.0009 C   0  0  0  0  0  0  0  0  0  0  0  0
   -1.9924    1.5411   -1.2072 C   0  0  0  0  0  0  0  0  0  0  0  0
   -1.9926    1.5415    1.2087 C   0  0  0  0  0  0  0  0  0  0  0  0
   -1.8937    2.9325   -1.2075 C   0  0  0  0  0  0  0  0  0  0  0  0
   -1.8939    2.9329    1.2086 C   0  0  0  0  0  0  0  0  0  0  0  0
   -1.8446    3.6285    0.0005 C   0  0  0  0  0  0  0  0  0  0  0  0
    0.4057   -1.1637   -2.1587 H   0  0  0  0  0  0  0  0  0  0  0  0
    0.4056   -1.1655    2.1584 H   0  0  0  0  0  0  0  0  0  0  0  0
    2.7786   -0.5694   -2.1598 H   0  0  0  0  0  0  0  0  0  0  0  0
    2.7776   -0.5706    2.1608 H   0  0  0  0  0  0  0  0  0  0  0  0
   -1.0982   -3.7785   -0.0019 H   0  0  0  0  0  0  0  0  0  0  0  0
    4.1492    2.0231    0.8978 H   0  0  0  0  0  0  0  0  0  0  0  0
    5.6985    1.9955    0.0057 H   0  0  0  0  0  0  0  0  0  0  0  0
    4.1567    2.0240   -0.8998 H   0  0  0  0  0  0  0  0  0  0  0  0
   -2.0283    1.0136   -2.1574 H   0  0  0  0  0  0  0  0  0  0  0  0
   -2.0286    1.0141    2.1589 H   0  0  0  0  0  0  0  0  0  0  0  0
   -1.8546    3.4743   -2.1478 H   0  0  0  0  0  0  0  0  0  0  0  0
   -1.8550    3.4750    2.1488 H   0  0  0  0  0  0  0  0  0  0  0  0
  1 17  1  0  0  0  0
  2  5  2  0  0  0  0
  2  6  2  0  0  0  0
  2 10  1  0  0  0  0
  2 18  1  0  0  0  0
  3  9  1  0  0  0  0
  3 17  1  0  0  0  0
  4 23  1  0  0  0  0
  7  8  1  0  0  0  0
  7  9  2  0  0  0  0
  7 16  1  0  0  0  0
  8 11  2  0  0  0  0
  8 12  1  0  0  0  0
  9 15  1  0  0  0  0
 10 13  2  0  0  0  0
 10 14  1  0  0  0  0
 11 13  1  0  0  0  0
 11 24  1  0  0  0  0
 12 14  2  0  0  0  0
 12 25  1  0  0  0  0
 13 26  1  0  0  0  0
 14 27  1  0  0  0  0
 15 19  2  0  0  0  0
 15 20  1  0  0  0  0
 16 17  2  0  0  0  0
 16 28  1  0  0  0  0
 18 29  1  0  0  0  0
 18 30  1  0  0  0  0
 18 31  1  0  0  0  0
 19 21  1  0  0  0  0
 19 32  1  0  0  0  0
 20 22  2  0  0  0  0
 20 33  1  0  0  0  0
 21 23  2  0  0  0  0
 21 34  1  0  0  0  0
 22 23  1  0  0  0  0
 22 35  1  0  0  0  0
M  END
> <PUBCHEM_COMPOUND_CID>
3177

> <PUBCHEM_CONFORMER_RMSD>
0.6

> <PUBCHEM_CONFORMER_DIVERSEORDER>
1
8
3
6
4
5
7
2

> <PUBCHEM_MMFF94_PARTIAL_CHARGES>
32
1 -0.06
10 -0.01
11 -0.15
12 -0.15
13 -0.15
14 -0.15
15 0.05
16 -0.15
17 0.1
18 0.11
19 -0.15
2 1.2
20 -0.15
21 -0.15
22 -0.15
23 0.19
24 0.15
25 0.15
26 0.15
27 0.15
28 0.15
3 -0.08
32 0.15
33 0.15
34 0.15
35 0.15
4 -0.19
5 -0.65
6 -0.65
7 -0.05
8 0.05
9 -0.01

> <PUBCHEM_EFFECTIVE_ROTOR_COUNT>
3

> <PUBCHEM_PHARMACOPHORE_FEATURES>
6
1 1 hydrophobe
1 5 acceptor
1 6 acceptor
5 3 7 9 16 17 rings
6 15 19 20 21 22 23 rings
6 8 10 11 12 13 14 rings

> <PUBCHEM_HEAVY_ATOM_COUNT>
23

> <PUBCHEM_ATOM_DEF_STEREO_COUNT>
0

> <PUBCHEM_ATOM_UDEF_STEREO_COUNT>
0

> <PUBCHEM_BOND_DEF_STEREO_COUNT>
0

> <PUBCHEM_BOND_UDEF_STEREO_COUNT>
0

> <PUBCHEM_ISOTOPIC_ATOM_COUNT>
0

> <PUBCHEM_COMPONENT_COUNT>
1

> <PUBCHEM_CACTVS_TAUTO_COUNT>
1

> <PUBCHEM_CONFORMER_ID>
00000C6900000001

> <PUBCHEM_MMFF94_ENERGY>
49.5313

> <PUBCHEM_FEATURE_SELFOVERLAP>
30.463

> <PUBCHEM_SHAPE_FINGERPRINT>
10165383 225 17398630942672905085
10411042 1 18194682562404487875
10670039 82 18268132177535298484
10937287 8 17833833046441367653
1100329 8 18339634530906012187
11045515 52 18198627627441454335
11477941 20 18262234401115808708
11582403 64 16196233618361520165
11640471 11 17844811592734669752
12107183 9 17838347629091152218
12156800 1 14133825360859345421
12173636 292 18193837278485704053
12236239 1 17703797972527336483
12403259 226 18260546671988391418
12788726 201 18272661159796649131
13140716 1 18339077078078317043
133893 2 17620460321749705179
13583140 156 17968681379421106546
138480 1 16176790030433832037
13955234 65 17041187516860822737
13965767 371 17411052151170098660
14142880 1 18129379474585975485
14251751 93 18411140272827243952
14347332 77 18411139138930380938
14713325 29 18334285496488213934
14790565 3 18264765648718920729
14955137 171 18123731094660599779
15961568 22 18122062005966021884
1813 80 18046613522030697143
20510252 161 18409731789641869619
20600515 1 18189317014754347143
21033650 10 18198317698818045798
21049683 271 17624411983387472455
21304303 172 18187917332431898067
21304303 282 17978544084241288567
22182937 141 18262232347578017568
22907989 373 18339374031842758725
22956985 138 16831220897717252258
2297311 6 18263914467351285190
23352939 185 17972589996484663659
23366157 5 17405991756783843943
23402539 116 18337676304370204343
23419403 2 17899155823132678995
23557571 272 18334570231002159150
23559900 14 18043529624465453126
23845131 108 17905593755945605785
283562 15 18342741780071898714
350125 39 17905880736901642707
3886686 26 17836118880050791178
469060 322 18339345393175110563
474 4 17545331134115084137
621550 5 17896029953886749650
6442390 28 17974832171994004577
6677587 24 15472881428269724229
7364860 26 17471287358616414195
7399639 24 18042126471154618918
7808743 9 18266734856552785104
81228 2 18337657677450138043
9981440 41 17980488080955372329

> <PUBCHEM_SHAPE_MULTIPOLES>
467.96
8.95
5.23
1.23
11.66
5.68
0
-7.05
-0.01
-7.55
0
0.5
0.26
-0.01

> <PUBCHEM_SHAPE_SELFOVERLAP>
984.208

> <PUBCHEM_SHAPE_VOLUME>
270.3

> <PUBCHEM_COORDINATE_TYPE>
2
5
10

$$$$

