9849230
  -OEChem-07051213072D

 59 61  0     1  0  0  0  0  0999 V2000
    5.4071    2.9739    0.0000 S   0  0  3  0  0  0  0  0  0  0  0  0
    5.0981    3.9249    0.0000 S   0  0  0  0  0  0  0  0  0  0  0  0
    3.1108   -1.8960    0.0000 S   0  0  0  0  0  0  0  0  0  0  0  0
    2.8380    3.2829    0.0000 O   0  0  0  0  0  0  0  0  0  0  0  0
    6.3582    2.6648    0.0000 O   0  0  0  0  0  0  0  0  0  0  0  0
    3.5103    4.7339    0.0000 O   0  0  0  0  0  0  0  0  0  0  0  0
    4.5981    0.3861    0.0000 O   0  0  0  0  0  0  0  0  0  0  0  0
    8.0622   -0.6139    0.0000 O   0  0  0  0  0  0  0  0  0  0  0  0
    8.0622   -2.6139    0.0000 O   0  0  0  0  0  0  0  0  0  0  0  0
    2.8660    0.3861    0.0000 N   0  0  0  0  0  0  0  0  0  0  0  0
    3.7320   -2.1139    0.0000 N   0  0  0  0  0  0  0  0  0  0  0  0
    4.5981    2.3861    0.0000 C   0  0  2  0  0  0  0  0  0  0  0  0
    3.7891    2.9739    0.0000 C   0  0  2  0  0  0  0  0  0  0  0  0
    5.4641    1.8861    0.0000 C   0  0  0  0  0  0  0  0  0  0  0  0
    3.7320    1.8861    0.0000 C   0  0  0  0  0  0  0  0  0  0  0  0
    4.0981    3.9249    0.0000 C   0  0  0  0  0  0  0  0  0  0  0  0
    5.4641    0.8861    0.0000 C   0  0  0  0  0  0  0  0  0  0  0  0
    2.9600    2.4146    0.0000 C   0  0  0  0  0  0  0  0  0  0  0  0
    3.7320    0.8861    0.0000 C   0  0  0  0  0  0  0  0  0  0  0  0
    6.3301    0.3861    0.0000 C   0  0  0  0  0  0  0  0  0  0  0  0
    2.8660   -0.6139    0.0000 C   0  0  2  0  0  0  0  0  0  0  0  0
    7.1962    0.8861    0.0000 C   0  0  0  0  0  0  0  0  0  0  0  0
    6.3301   -0.6139    0.0000 C   0  0  0  0  0  0  0  0  0  0  0  0
    7.1962   -1.1139    0.0000 C   0  0  2  0  0  0  0  0  0  0  0  0
    2.0000   -1.1139    0.0000 C   0  0  0  0  0  0  0  0  0  0  0  0
    3.7320   -1.1139    0.0000 C   0  0  0  0  0  0  0  0  0  0  0  0
    7.1962   -2.1139    0.0000 C   0  0  0  0  0  0  0  0  0  0  0  0
    4.5981   -2.6139    0.0000 C   0  0  0  0  0  0  0  0  0  0  0  0
    3.6102   -2.7609    0.0000 C   0  0  0  0  0  0  0  0  0  0  0  0
    6.3301   -2.6139    0.0000 C   0  0  0  0  0  0  0  0  0  0  0  0
    4.5981   -3.6139    0.0000 C   0  0  0  0  0  0  0  0  0  0  0  0
    6.3301   -3.6139    0.0000 C   0  0  0  0  0  0  0  0  0  0  0  0
    5.4641   -4.1139    0.0000 C   0  0  0  0  0  0  0  0  0  0  0  0
    6.0747    1.7784    0.0000 H   0  0  0  0  0  0  0  0  0  0  0  0
    5.6762    2.4687    0.0000 H   0  0  0  0  0  0  0  0  0  0  0  0
    3.5200    2.4687    0.0000 H   0  0  0  0  0  0  0  0  0  0  0  0
    3.1215    1.7784    0.0000 H   0  0  0  0  0  0  0  0  0  0  0  0
    4.8535    0.9937    0.0000 H   0  0  0  0  0  0  0  0  0  0  0  0
    5.2520    0.3035    0.0000 H   0  0  0  0  0  0  0  0  0  0  0  0
    2.6133    2.9286    0.0000 H   0  0  0  0  0  0  0  0  0  0  0  0
    2.4460    2.0679    0.0000 H   0  0  0  0  0  0  0  0  0  0  0  0
    3.3068    1.9006    0.0000 H   0  0  0  0  0  0  0  0  0  0  0  0
    2.7091    3.8893    0.0000 H   0  0  0  0  0  0  0  0  0  0  0  0
    2.3291    0.6961    0.0000 H   0  0  0  0  0  0  0  0  0  0  0  0
    2.3291   -0.3039    0.0000 H   0  0  0  0  0  0  0  0  0  0  0  0
    7.5062    0.3491    0.0000 H   0  0  0  0  0  0  0  0  0  0  0  0
    7.7331    1.1961    0.0000 H   0  0  0  0  0  0  0  0  0  0  0  0
    6.8862    1.4230    0.0000 H   0  0  0  0  0  0  0  0  0  0  0  0
    5.7932   -0.9239    0.0000 H   0  0  0  0  0  0  0  0  0  0  0  0
    7.7331   -1.4239    0.0000 H   0  0  0  0  0  0  0  0  0  0  0  0
    1.6900   -0.5770    0.0000 H   0  0  0  0  0  0  0  0  0  0  0  0
    1.4631   -1.4239    0.0000 H   0  0  0  0  0  0  0  0  0  0  0  0
    2.3100   -1.6509    0.0000 H   0  0  0  0  0  0  0  0  0  0  0  0
    8.5991   -0.9239    0.0000 H   0  0  0  0  0  0  0  0  0  0  0  0
    3.3407   -3.3193    0.0000 H   0  0  0  0  0  0  0  0  0  0  0  0
    5.7932   -2.3039    0.0000 H   0  0  0  0  0  0  0  0  0  0  0  0
    4.0611   -3.9239    0.0000 H   0  0  0  0  0  0  0  0  0  0  0  0
    6.8671   -3.9239    0.0000 H   0  0  0  0  0  0  0  0  0  0  0  0
    5.4641   -4.7339    0.0000 H   0  0  0  0  0  0  0  0  0  0  0  0
  1  2  1  0  0  0  0
  1  5  2  0  0  0  0
 12  1  1  6  0  0  0
  2 16  1  0  0  0  0
  3 26  1  0  0  0  0
  3 29  1  0  0  0  0
 13  4  1  1  0  0  0
  4 43  1  0  0  0  0
  6 16  2  0  0  0  0
  7 19  2  0  0  0  0
 24  8  1  1  0  0  0
  8 54  1  0  0  0  0
  9 27  2  0  0  0  0
 10 19  1  0  0  0  0
 10 21  1  0  0  0  0
 10 44  1  0  0  0  0
 11 26  2  0  0  0  0
 11 28  1  0  0  0  0
 12 13  1  0  0  0  0
 12 14  1  0  0  0  0
 12 15  1  0  0  0  0
 13 16  1  0  0  0  0
 13 18  1  0  0  0  0
 14 17  1  0  0  0  0
 14 34  1  0  0  0  0
 14 35  1  0  0  0  0
 15 19  1  0  0  0  0
 15 36  1  0  0  0  0
 15 37  1  0  0  0  0
 17 20  1  0  0  0  0
 17 38  1  0  0  0  0
 17 39  1  0  0  0  0
 18 40  1  0  0  0  0
 18 41  1  0  0  0  0
 18 42  1  0  0  0  0
 20 22  1  0  0  0  0
 20 23  2  0  0  0  0
 21 25  1  1  0  0  0
 21 26  1  0  0  0  0
 21 45  1  0  0  0  0
 22 46  1  0  0  0  0
 22 47  1  0  0  0  0
 22 48  1  0  0  0  0
 23 24  1  0  0  0  0
 23 49  1  0  0  0  0
 24 27  1  0  0  0  0
 24 50  1  0  0  0  0
 25 51  1  0  0  0  0
 25 52  1  0  0  0  0
 25 53  1  0  0  0  0
 27 30  1  0  0  0  0
 28 29  2  0  0  0  0
 28 31  1  0  0  0  0
 29 55  1  0  0  0  0
 30 32  2  0  0  0  0
 30 56  1  0  0  0  0
 31 33  2  0  0  0  0
 31 57  1  0  0  0  0
 32 33  1  0  0  0  0
 32 58  1  0  0  0  0
 33 59  1  0  0  0  0
M  END
> <PUBCHEM_COMPOUND_CID>
9849230

> <PUBCHEM_COMPOUND_CANONICALIZED>
1

> <PUBCHEM_CACTVS_COMPLEXITY>
935

> <PUBCHEM_CACTVS_HBOND_ACCEPTOR>
10

> <PUBCHEM_CACTVS_HBOND_DONOR>
3

> <PUBCHEM_CACTVS_ROTATABLE_BOND>
0

> <PUBCHEM_CACTVS_SUBSKEYS>
AAADceB7OABgAAAAAAAAAAAAAAAAAWJAAAAAAAAAAAAAAAABgAAAHgQQCAAADHzl1gaigRLIEgqsA6VyVELC8KBhCjgIiJV4IFgIVBKggQAUUAAE1gCokYe6y0COgAAAAAAAAAAAAAAAAAAAAAAAAAAAAA==

> <PUBCHEM_IUPAC_OPENEYE_NAME>
(2Z,4E,4'R,7R,8E,12R,16R)-4',7-dihydroxy-4',9,16-trimethyl-1'-oxo-spiro[18-thia-15,20-diazabicyclo[15.2.1]icosa-1(19),2,4,8,17(20)-pentaene-12,5'-dithiolane]-3',6,14-trione

> <PUBCHEM_IUPAC_CAS_NAME>
(2Z,4E,4'R,7R,8E,12R,16R)-4',7-dihydroxy-4',9,16-trimethyl-1'-oxospiro[18-thia-15,20-diazabicyclo[15.2.1]eicosa-1(19),2,4,8,17(20)-pentaene-12,5'-dithiolane]-3',6,14-trione

> <PUBCHEM_IUPAC_NAME>
(2Z,4E,4'R,7R,8E,12R,16R)-4',7-dihydroxy-4',9,16-trimethyl-1'-oxospiro[18-thia-15,20-diazabicyclo[15.2.1]icosa-1(19),2,4,8,17(20)-pentaene-12,5'-dithiolane]-3',6,14-trione

> <PUBCHEM_IUPAC_SYSTEMATIC_NAME>
(2'Z,4R,4'E,5R,7'R,8'E,16'R)-4,9',16'-trimethyl-4,7'-bis(oxidanyl)-1-oxidanylidene-spiro[1,2-dithiolane-5,12'-18-thia-15,20-diazabicyclo[15.2.1]icosa-1(19),2,4,8,17(20)-pentaene]-3,6',14'-trione

> <PUBCHEM_IUPAC_TRADITIONAL_NAME>
(2Z,4E,4'R,7R,8E,12R,16R)-4',7-dihydroxy-1'-keto-4',9,16-trimethyl-spiro[18-thia-15,20-diazabicyclo[15.2.1]eicosa-1(19),2,4,8,17(20)-pentaene-12,5'-dithiolane]-3',6,14-trione

> <PUBCHEM_IUPAC_INCHI>
InChI=1S/C22H26N2O6S3/c1-13-8-9-22(21(3,29)20(28)32-33(22)30)11-18(27)23-14(2)19-24-15(12-31-19)6-4-5-7-16(25)17(26)10-13/h4-7,10,12,14,17,26,29H,8-9,11H2,1-3H3,(H,23,27)/b6-4-,7-5+,13-10+/t14-,17-,21+,22-,33?/m1/s1

> <PUBCHEM_IUPAC_INCHIKEY>
ZHTRILQJTPJGNK-FYBAATNNSA-N

> <PUBCHEM_XLOGP3_AA>
0.7

> <PUBCHEM_EXACT_MASS>
510.0953

> <PUBCHEM_MOLECULAR_FORMULA>
C22H26N2O6S3

> <PUBCHEM_MOLECULAR_WEIGHT>
510.64664

> <PUBCHEM_OPENEYE_CAN_SMILES>
CC1C2=NC(=CS2)C=CC=CC(=O)C(C=C(CCC3(CC(=O)N1)C(C(=O)SS3=O)(C)O)C)O

> <PUBCHEM_OPENEYE_ISO_SMILES>
C[C@@H]1C2=NC(=CS2)/C=C\C=C\C(=O)[C@@H](/C=C(/CC[C@@]3(CC(=O)N1)[C@@](C(=O)SS3=O)(C)O)\C)O

> <PUBCHEM_CACTVS_TPSA>
206

> <PUBCHEM_MONOISOTOPIC_WEIGHT>
510.0953

> <PUBCHEM_TOTAL_CHARGE>
0

> <PUBCHEM_HEAVY_ATOM_COUNT>
33

> <PUBCHEM_ATOM_DEF_STEREO_COUNT>
4

> <PUBCHEM_ATOM_UDEF_STEREO_COUNT>
1

> <PUBCHEM_BOND_DEF_STEREO_COUNT>
3

> <PUBCHEM_BOND_UDEF_STEREO_COUNT>
0

> <PUBCHEM_ISOTOPIC_ATOM_COUNT>
0

> <PUBCHEM_COMPONENT_COUNT>
1

> <PUBCHEM_CACTVS_TAUTO_COUNT>
249

> <PUBCHEM_COORDINATE_TYPE>
1
5
255

> <PUBCHEM_BONDANNOTATIONS>
12  1  6
1  2  3
11  26  8
11  28  8
21  25  5
28  29  8
3  26  8
3  29  8
13  4  5
24  8  5

$$$$

