89755
  -OEChem-07051213013D

 29 29  0     1  0  0  0  0  0999 V2000
    2.1356   -1.9742    0.1237 O   0  0  0  0  0  0  0  0  0  0  0  0
    1.9418    0.4304    0.2800 C   0  0  2  0  0  0  0  0  0  0  0  0
   -0.9500    0.1415   -0.3678 C   0  0  2  0  0  0  0  0  0  0  0  0
    1.3837   -0.8578   -0.3459 C   0  0  2  0  0  0  0  0  0  0  0  0
   -0.0890   -1.0673    0.0146 C   0  0  0  0  0  0  0  0  0  0  0  0
    1.0755    1.6387   -0.0973 C   0  0  0  0  0  0  0  0  0  0  0  0
   -0.3923    1.4221    0.2664 C   0  0  0  0  0  0  0  0  0  0  0  0
    3.3959    0.6691   -0.1355 C   0  0  0  0  0  0  0  0  0  0  0  0
   -2.3791   -0.0729    0.0319 C   0  0  0  0  0  0  0  0  0  0  0  0
   -3.3831   -0.0838   -1.0825 C   0  0  0  0  0  0  0  0  0  0  0  0
   -2.7390   -0.2457    1.3124 C   0  0  0  0  0  0  0  0  0  0  0  0
    1.9356    0.3189    1.3731 H   0  0  0  0  0  0  0  0  0  0  0  0
   -0.8955    0.2580   -1.4592 H   0  0  0  0  0  0  0  0  0  0  0  0
    1.4939   -0.8191   -1.4368 H   0  0  0  0  0  0  0  0  0  0  0  0
   -0.1558   -1.2864    1.0888 H   0  0  0  0  0  0  0  0  0  0  0  0
   -0.4584   -1.9711   -0.4884 H   0  0  0  0  0  0  0  0  0  0  0  0
    1.1548    1.8330   -1.1747 H   0  0  0  0  0  0  0  0  0  0  0  0
    1.4439    2.5366    0.4135 H   0  0  0  0  0  0  0  0  0  0  0  0
   -0.4731    1.3906    1.3603 H   0  0  0  0  0  0  0  0  0  0  0  0
   -0.9748    2.2905   -0.0664 H   0  0  0  0  0  0  0  0  0  0  0  0
    4.0401   -0.1550    0.1879 H   0  0  0  0  0  0  0  0  0  0  0  0
    3.4871    0.7644   -1.2228 H   0  0  0  0  0  0  0  0  0  0  0  0
    3.7821    1.5881    0.3181 H   0  0  0  0  0  0  0  0  0  0  0  0
    1.7727   -2.7709   -0.2995 H   0  0  0  0  0  0  0  0  0  0  0  0
   -3.3686    0.8718   -1.6167 H   0  0  0  0  0  0  0  0  0  0  0  0
   -3.1538   -0.8847   -1.7930 H   0  0  0  0  0  0  0  0  0  0  0  0
   -4.4028   -0.2451   -0.7171 H   0  0  0  0  0  0  0  0  0  0  0  0
   -3.7781   -0.4001    1.5851 H   0  0  0  0  0  0  0  0  0  0  0  0
   -2.0184   -0.2393    2.1227 H   0  0  0  0  0  0  0  0  0  0  0  0
  1  4  1  0  0  0  0
  1 24  1  0  0  0  0
  2  4  1  0  0  0  0
  2  6  1  0  0  0  0
  2  8  1  0  0  0  0
  2 12  1  0  0  0  0
  3  5  1  0  0  0  0
  3  7  1  0  0  0  0
  3  9  1  0  0  0  0
  3 13  1  0  0  0  0
  4  5  1  0  0  0  0
  4 14  1  0  0  0  0
  5 15  1  0  0  0  0
  5 16  1  0  0  0  0
  6  7  1  0  0  0  0
  6 17  1  0  0  0  0
  6 18  1  0  0  0  0
  7 19  1  0  0  0  0
  7 20  1  0  0  0  0
  8 21  1  0  0  0  0
  8 22  1  0  0  0  0
  8 23  1  0  0  0  0
  9 10  1  0  0  0  0
  9 11  2  0  0  0  0
 10 25  1  0  0  0  0
 10 26  1  0  0  0  0
 10 27  1  0  0  0  0
 11 28  1  0  0  0  0
 11 29  1  0  0  0  0
M  END
> <PUBCHEM_COMPOUND_CID>
89755

> <PUBCHEM_CONFORMER_RMSD>
0.6

> <PUBCHEM_CONFORMER_DIVERSEORDER>
1
5
3
4
2

> <PUBCHEM_MMFF94_PARTIAL_CHARGES>
9
1 -0.68
10 0.14
11 -0.3
24 0.4
28 0.15
29 0.15
3 0.14
4 0.28
9 -0.28

> <PUBCHEM_EFFECTIVE_ROTOR_COUNT>
2.2

> <PUBCHEM_PHARMACOPHORE_FEATURES>
3
1 1 acceptor
1 1 donor
6 2 3 4 5 6 7 rings

> <PUBCHEM_HEAVY_ATOM_COUNT>
11

> <PUBCHEM_ATOM_DEF_STEREO_COUNT>
3

> <PUBCHEM_ATOM_UDEF_STEREO_COUNT>
0

> <PUBCHEM_BOND_DEF_STEREO_COUNT>
0

> <PUBCHEM_BOND_UDEF_STEREO_COUNT>
0

> <PUBCHEM_ISOTOPIC_ATOM_COUNT>
0

> <PUBCHEM_COMPONENT_COUNT>
1

> <PUBCHEM_CACTVS_TAUTO_COUNT>
1

> <PUBCHEM_CONFORMER_ID>
00015E9B00000001

> <PUBCHEM_MMFF94_ENERGY>
17.7411

> <PUBCHEM_FEATURE_SELFOVERLAP>
15.223

> <PUBCHEM_SHAPE_FINGERPRINT>
10219947 1 18411983529320763900
12138202 97 17560531611912410383
124424 183 17703524232559164640
12716758 59 16917072217391335227
12932764 1 17821446867744660137
14993402 34 17895199878626612437
15775835 57 17676478454392829033
16945 1 18410571756148008944
17844478 74 18059846255997101937
20201158 50 18343586235050327651
20279233 1 17988924466086962043
20645477 70 18338242669038598639
20711985 344 17699577144697830604
21501502 16 18265615579116026800
23235685 24 18411141290518416592
23402655 69 18337125552740718757
23552423 10 18198058277675330654
2748010 2 18266180728314113572
29004967 10 18342733013974523497
3248919 1 18060699498405460789
5084963 1 18041284274863880201
528862 383 18412550911596038674
528886 8 18336270041819071520

> <PUBCHEM_SHAPE_MULTIPOLES>
220.51
5.02
1.54
0.92
0.84
0.17
0.08
0.08
-0.31
-1.02
0.04
0.79
0.02
0.02

> <PUBCHEM_SHAPE_SELFOVERLAP>
430.776

> <PUBCHEM_SHAPE_VOLUME>
133.4

> <PUBCHEM_COORDINATE_TYPE>
2
5
10

$$$$

