31426
  -OEChem-07051213133D

 29 31  0     0  0  0  0  0  0999 V2000
    0.0274    2.2252   -0.0002 O   0  0  0  0  0  0  0  0  0  0  0  0
   -1.6308   -2.8545   -0.0008 O   0  0  0  0  0  0  0  0  0  0  0  0
    2.7703    2.0932   -1.0985 O   0  5  0  0  0  0  0  0  0  0  0  0
    2.7687    2.0962    1.0967 O   0  0  0  0  0  0  0  0  0  0  0  0
    2.5486    1.5359   -0.0004 N   0  3  0  0  0  0  0  0  0  0  0  0
    0.6504   -0.0658    0.0002 C   0  0  0  0  0  0  0  0  0  0  0  0
    0.2051   -1.3894   -0.0003 C   0  0  0  0  0  0  0  0  0  0  0  0
   -1.7628    0.7460    0.0000 C   0  0  0  0  0  0  0  0  0  0  0  0
   -2.2081   -0.5775   -0.0001 C   0  0  0  0  0  0  0  0  0  0  0  0
    2.0231    0.2090    0.0011 C   0  0  0  0  0  0  0  0  0  0  0  0
   -0.3173    1.0502    0.0001 C   0  0  0  0  0  0  0  0  0  0  0  0
   -1.2405   -1.6936   -0.0001 C   0  0  0  0  0  0  0  0  0  0  0  0
    2.9440   -0.8390    0.0015 C   0  0  0  0  0  0  0  0  0  0  0  0
    1.1326   -2.4381   -0.0004 C   0  0  0  0  0  0  0  0  0  0  0  0
    2.4997   -2.1597    0.0005 C   0  0  0  0  0  0  0  0  0  0  0  0
   -2.6903    1.7948   -0.0001 C   0  0  0  0  0  0  0  0  0  0  0  0
   -3.5809   -0.8525    0.0000 C   0  0  0  0  0  0  0  0  0  0  0  0
    4.4199   -0.5921    0.0002 C   0  0  0  0  0  0  0  0  0  0  0  0
   -4.0574    1.5164    0.0002 C   0  0  0  0  0  0  0  0  0  0  0  0
   -4.5018    0.1956    0.0004 C   0  0  0  0  0  0  0  0  0  0  0  0
    0.8115   -3.4764   -0.0009 H   0  0  0  0  0  0  0  0  0  0  0  0
    3.2039   -2.9878    0.0002 H   0  0  0  0  0  0  0  0  0  0  0  0
   -2.3727    2.8340   -0.0001 H   0  0  0  0  0  0  0  0  0  0  0  0
   -3.9527   -1.8736    0.0001 H   0  0  0  0  0  0  0  0  0  0  0  0
    4.7195   -0.0404   -0.8969 H   0  0  0  0  0  0  0  0  0  0  0  0
    4.7200   -0.0322    0.8921 H   0  0  0  0  0  0  0  0  0  0  0  0
    4.9890   -1.5285    0.0046 H   0  0  0  0  0  0  0  0  0  0  0  0
   -4.7765    2.3304    0.0003 H   0  0  0  0  0  0  0  0  0  0  0  0
   -5.5667   -0.0183    0.0007 H   0  0  0  0  0  0  0  0  0  0  0  0
  1 11  2  0  0  0  0
  2 12  2  0  0  0  0
  3  5  1  0  0  0  0
  4  5  2  0  0  0  0
  5 10  1  0  0  0  0
  6  7  2  0  0  0  0
  6 10  1  0  0  0  0
  6 11  1  0  0  0  0
  7 12  1  0  0  0  0
  7 14  1  0  0  0  0
  8  9  1  0  0  0  0
  8 11  1  0  0  0  0
  8 16  2  0  0  0  0
  9 12  1  0  0  0  0
  9 17  2  0  0  0  0
 10 13  2  0  0  0  0
 13 15  1  0  0  0  0
 13 18  1  0  0  0  0
 14 15  2  0  0  0  0
 14 21  1  0  0  0  0
 15 22  1  0  0  0  0
 16 19  1  0  0  0  0
 16 23  1  0  0  0  0
 17 20  1  0  0  0  0
 17 24  1  0  0  0  0
 18 25  1  0  0  0  0
 18 26  1  0  0  0  0
 18 27  1  0  0  0  0
 19 20  2  0  0  0  0
 19 28  1  0  0  0  0
 20 29  1  0  0  0  0
M  CHG  2   3  -1   5   1
M  END
> <PUBCHEM_COMPOUND_CID>
31426

> <PUBCHEM_CONFORMER_RMSD>
0.6

> <PUBCHEM_CONFORMER_DIVERSEORDER>
1

> <PUBCHEM_MMFF94_PARTIAL_CHARGES>
26
1 -0.57
10 0.13
11 0.4
12 0.4
13 -0.14
14 -0.15
15 -0.15
16 -0.15
17 -0.15
18 0.14
19 -0.15
2 -0.57
20 -0.15
21 0.15
22 0.15
23 0.15
24 0.15
28 0.15
29 0.15
3 -0.52
4 -0.52
5 0.91
6 0.09
7 0.09
8 0.09
9 0.09

> <PUBCHEM_EFFECTIVE_ROTOR_COUNT>
1

> <PUBCHEM_PHARMACOPHORE_FEATURES>
8
1 1 acceptor
1 2 acceptor
1 3 acceptor
1 3 anion
1 4 acceptor
6 6 7 10 13 14 15 rings
6 6 7 8 9 11 12 rings
6 8 9 16 17 19 20 rings

> <PUBCHEM_HEAVY_ATOM_COUNT>
20

> <PUBCHEM_ATOM_DEF_STEREO_COUNT>
0

> <PUBCHEM_ATOM_UDEF_STEREO_COUNT>
0

> <PUBCHEM_BOND_DEF_STEREO_COUNT>
0

> <PUBCHEM_BOND_UDEF_STEREO_COUNT>
0

> <PUBCHEM_ISOTOPIC_ATOM_COUNT>
0

> <PUBCHEM_COMPONENT_COUNT>
1

> <PUBCHEM_CACTVS_TAUTO_COUNT>
1

> <PUBCHEM_CONFORMER_ID>
00007AC200000001

> <PUBCHEM_MMFF94_ENERGY>
70.0591

> <PUBCHEM_FEATURE_SELFOVERLAP>
40.722

> <PUBCHEM_SHAPE_FINGERPRINT>
10411042 1 16609134465887055427
10608611 8 18410577296834980497
10616163 171 18338513041171401439
10967382 1 18410855490203508359
11132069 177 18339651052785434801
11471102 20 18338802337220007775
11578080 2 16952266304538475139
12011746 2 18338232790455289406
12403259 226 18196658607894502285
13140716 1 18411424968866175954
13221675 6 18338516442690404839
14178342 30 18122077411374727248
14790565 3 18411972556033133940
15196674 1 18410856555371222023
15230672 131 12794321866529502715
15442244 35 18194119844088565683
15536298 74 18334577953353025704
16945 1 18338797917883354306
17804303 29 18409727395995710422
18186145 218 18339361967416832525
19591789 44 18410854360933434907
200 152 18041288750620547493
20510252 161 18116715303587871241
20739085 24 18124849469600103785
21267235 1 18410565206613247255
21501502 16 18338519638119627927
22094290 62 18410858788743867850
221490 88 18412535531181216139
2334 1 18266457594764561102
23402539 116 18334305300413506991
23463225 33 18339923817731908359
23558518 356 18199752427552073066
23559900 14 18262240023190854058
238 59 17623611856776223965
2748010 2 18338511916000570726
335352 9 18338799047264509814
34934 24 18410862091885136722
350125 39 18411415107257039721
474 4 18060135401563818308
5104073 3 18410854361233726449
69090 78 18408890650403982031
7364860 26 18334859454479452202
7832392 63 18409733928261347862
9709674 26 18409162229612967247
9981440 41 17838057005601920928

> <PUBCHEM_SHAPE_MULTIPOLES>
383.13
7.29
2.83
0.69
1.94
0.27
0
-1.18
0
-0.8
0
-0.22
-0.19
0

> <PUBCHEM_SHAPE_SELFOVERLAP>
865.16

> <PUBCHEM_SHAPE_VOLUME>
200.4

> <PUBCHEM_COORDINATE_TYPE>
2
5
10

$$$$

