439740
  -OEChem-07051212472D

 34 37  0     1  0  0  0  0  0999 V2000
    6.9300    2.9664    0.0000 P   0  0  3  0  0  0  0  0  0  0  0  0
    7.3381    0.0153    0.0000 O   0  0  0  0  0  0  0  0  0  0  0  0
    6.1857    2.2985    0.0000 O   0  0  0  0  0  0  0  0  0  0  0  0
    7.8805    2.6557    0.0000 O   0  0  0  0  0  0  0  0  0  0  0  0
    7.2406    3.9169    0.0000 O   0  0  0  0  0  0  0  0  0  0  0  0
    6.2621    3.7106    0.0000 O   0  0  0  0  0  0  0  0  0  0  0  0
    4.2690   -4.0447    0.0000 O   0  0  0  0  0  0  0  0  0  0  0  0
    6.0812   -1.2400    0.0000 N   0  0  0  0  0  0  0  0  0  0  0  0
    4.2690   -1.0447    0.0000 N   0  0  0  0  0  0  0  0  0  0  0  0
    6.0812   -2.8494    0.0000 N   0  0  0  0  0  0  0  0  0  0  0  0
    3.4030   -2.5447    0.0000 N   0  0  0  0  0  0  0  0  0  0  0  0
    2.5369   -1.0447    0.0000 N   0  0  0  0  0  0  0  0  0  0  0  0
    6.3919    1.3200    0.0000 C   0  0  2  0  0  0  0  0  0  0  0  0
    7.3424    1.0093    0.0000 C   0  0  1  0  0  0  0  0  0  0  0  0
    5.8083    0.5153    0.0000 C   0  0  0  0  0  0  0  0  0  0  0  0
    6.3919   -0.2895    0.0000 C   0  0  1  0  0  0  0  0  0  0  0  0
    8.0867    1.6772    0.0000 C   0  0  0  0  0  0  0  0  0  0  0  0
    5.1350   -1.5447    0.0000 C   0  0  0  0  0  0  0  0  0  0  0  0
    6.6648   -2.0447    0.0000 C   0  0  0  0  0  0  0  0  0  0  0  0
    5.1350   -2.5447    0.0000 C   0  0  0  0  0  0  0  0  0  0  0  0
    4.2690   -3.0447    0.0000 C   0  0  0  0  0  0  0  0  0  0  0  0
    3.4030   -1.5447    0.0000 C   0  0  0  0  0  0  0  0  0  0  0  0
    5.5605    1.4971    0.0000 H   0  0  0  0  0  0  0  0  0  0  0  0
    8.1179    0.6613    0.0000 H   0  0  0  0  0  0  0  0  0  0  0  0
    5.3474    0.9300    0.0000 H   0  0  0  0  0  0  0  0  0  0  0  0
    5.3474    0.1005    0.0000 H   0  0  0  0  0  0  0  0  0  0  0  0
    5.7794   -0.3857    0.0000 H   0  0  0  0  0  0  0  0  0  0  0  0
    8.4144    1.1508    0.0000 H   0  0  0  0  0  0  0  0  0  0  0  0
    8.6620    1.9084    0.0000 H   0  0  0  0  0  0  0  0  0  0  0  0
    7.2848   -2.0447    0.0000 H   0  0  0  0  0  0  0  0  0  0  0  0
    4.2690   -0.4247    0.0000 H   0  0  0  0  0  0  0  0  0  0  0  0
    7.8473    4.0447    0.0000 H   0  0  0  0  0  0  0  0  0  0  0  0
    2.0000   -1.3547    0.0000 H   0  0  0  0  0  0  0  0  0  0  0  0
    2.5369   -0.4247    0.0000 H   0  0  0  0  0  0  0  0  0  0  0  0
  1  3  1  0  0  0  0
  1  4  1  0  0  0  0
  1  5  1  0  0  0  0
  1  6  2  0  0  0  0
  2 14  1  0  0  0  0
  2 16  1  0  0  0  0
  3 13  1  0  0  0  0
  4 17  1  0  0  0  0
  5 32  1  0  0  0  0
  7 21  2  0  0  0  0
 16  8  1  1  0  0  0
  8 18  1  0  0  0  0
  8 19  1  0  0  0  0
  9 18  1  0  0  0  0
  9 22  1  0  0  0  0
  9 31  1  0  0  0  0
 10 19  2  0  0  0  0
 10 20  1  0  0  0  0
 11 21  1  0  0  0  0
 11 22  2  0  0  0  0
 12 22  1  0  0  0  0
 12 33  1  0  0  0  0
 12 34  1  0  0  0  0
 13 14  1  0  0  0  0
 13 15  1  0  0  0  0
 13 23  1  1  0  0  0
 14 17  1  0  0  0  0
 14 24  1  6  0  0  0
 15 16  1  0  0  0  0
 15 25  1  0  0  0  0
 15 26  1  0  0  0  0
 16 27  1  0  0  0  0
 17 28  1  0  0  0  0
 17 29  1  0  0  0  0
 18 20  2  0  0  0  0
 19 30  1  0  0  0  0
 20 21  1  0  0  0  0
M  END
> <PUBCHEM_COMPOUND_CID>
439740

> <PUBCHEM_COMPOUND_CANONICALIZED>
1

> <PUBCHEM_CACTVS_COMPLEXITY>
586

> <PUBCHEM_CACTVS_HBOND_ACCEPTOR>
7

> <PUBCHEM_CACTVS_HBOND_DONOR>
3

> <PUBCHEM_CACTVS_ROTATABLE_BOND>
1

> <PUBCHEM_CACTVS_SUBSKEYS>
AAADccBzuAIAAAAAAAAAAAAAAAAAAWJAAAAkQAAAAAAAAEgBgAAAHgAQCCAACBzhlgYFsBfMFRCoQQdxdICAgC0XEKABUAGoVECBSApAyCAeAIAPAALCAGCwMAIAAAAAAAAAAAAAAAAAAAAAAAAAAAAAAA==

> <PUBCHEM_IUPAC_OPENEYE_NAME>
9-[(4aR,6R,7aS)-2-hydroxy-2-oxo-4a,6,7,7a-tetrahydro-4H-furo[3,2-d][1,3,2]dioxaphosphinin-6-yl]-2-amino-3H-purin-6-one

> <PUBCHEM_IUPAC_CAS_NAME>
9-[(4aR,6R,7aS)-2-hydroxy-2-oxo-4a,6,7,7a-tetrahydro-4H-furo[3,2-d][1,3,2]dioxaphosphorin-6-yl]-2-amino-3H-purin-6-one

> <PUBCHEM_IUPAC_NAME>
9-[(4aR,6R,7aS)-2-hydroxy-2-oxo-4a,6,7,7a-tetrahydro-4H-furo[3,2-d][1,3,2]dioxaphosphinin-6-yl]-2-amino-3H-purin-6-one

> <PUBCHEM_IUPAC_SYSTEMATIC_NAME>
9-[(4aR,6R,7aS)-2-oxidanyl-2-oxidanylidene-4a,6,7,7a-tetrahydro-4H-furo[3,2-d][1,3,2]dioxaphosphinin-6-yl]-2-azanyl-3H-purin-6-one

> <PUBCHEM_IUPAC_TRADITIONAL_NAME>
9-[(4aR,6R,7aS)-2-hydroxy-2-keto-4a,6,7,7a-tetrahydro-4H-furo[3,2-d][1,3,2]dioxaphosphorin-6-yl]-2-amino-3H-purin-6-one

> <PUBCHEM_IUPAC_INCHI>
InChI=1S/C10H12N5O6P/c11-10-13-8-7(9(16)14-10)12-3-15(8)6-1-4-5(20-6)2-19-22(17,18)21-4/h3-6H,1-2H2,(H,17,18)(H3,11,13,14,16)/t4-,5+,6+/m0/s1

> <PUBCHEM_IUPAC_INCHIKEY>
YAUQFBMBBHFWIR-KVQBGUIXSA-N

> <PUBCHEM_XLOGP3_AA>
-2.4

> <PUBCHEM_EXACT_MASS>
329.05252

> <PUBCHEM_MOLECULAR_FORMULA>
C10H12N5O6P

> <PUBCHEM_MOLECULAR_WEIGHT>
329.205942

> <PUBCHEM_OPENEYE_CAN_SMILES>
C1C2C(COP(=O)(O2)O)OC1N3C=NC4=C3NC(=NC4=O)N

> <PUBCHEM_OPENEYE_ISO_SMILES>
C1[C@H]2[C@@H](COP(=O)(O2)O)O[C@H]1N3C=NC4=C3NC(=NC4=O)N

> <PUBCHEM_CACTVS_TPSA>
150

> <PUBCHEM_MONOISOTOPIC_WEIGHT>
329.05252

> <PUBCHEM_TOTAL_CHARGE>
0

> <PUBCHEM_HEAVY_ATOM_COUNT>
22

> <PUBCHEM_ATOM_DEF_STEREO_COUNT>
3

> <PUBCHEM_ATOM_UDEF_STEREO_COUNT>
0

> <PUBCHEM_BOND_DEF_STEREO_COUNT>
0

> <PUBCHEM_BOND_UDEF_STEREO_COUNT>
0

> <PUBCHEM_ISOTOPIC_ATOM_COUNT>
0

> <PUBCHEM_COMPONENT_COUNT>
1

> <PUBCHEM_CACTVS_TAUTO_COUNT>
9

> <PUBCHEM_COORDINATE_TYPE>
1
5
255

> <PUBCHEM_BONDANNOTATIONS>
10  19  8
10  20  8
11  21  8
11  22  8
13  23  5
14  24  6
18  20  8
20  21  8
16  8  5
8  18  8
8  19  8
9  18  8
9  22  8

$$$$

