13499
  -OEChem-06261214493D

 39 41  0     0  0  0  0  0  0999 V2000
   -0.4683   -1.8708   -0.0305 O   0  0  0  0  0  0  0  0  0  0  0  0
    3.7164   -0.2402   -0.1741 N   0  0  0  0  0  0  0  0  0  0  0  0
   -1.8315   -1.7251   -0.2575 N   0  0  0  0  0  0  0  0  0  0  0  0
    4.0196    0.7136    0.9022 C   0  0  0  0  0  0  0  0  0  0  0  0
    4.4919    0.0617   -1.3854 C   0  0  0  0  0  0  0  0  0  0  0  0
    5.5068    0.6893    1.2584 C   0  0  0  0  0  0  0  0  0  0  0  0
    5.9946    0.0164   -1.1041 C   0  0  0  0  0  0  0  0  0  0  0  0
    6.3745    0.9569    0.0340 C   0  0  0  0  0  0  0  0  0  0  0  0
    2.2840   -0.2392   -0.4703 C   0  0  0  0  0  0  0  0  0  0  0  0
    1.4708   -0.6817    0.7478 C   0  0  0  0  0  0  0  0  0  0  0  0
   -0.0067   -0.7054    0.4434 C   0  0  0  0  0  0  0  0  0  0  0  0
   -0.9709    0.2219    0.5520 C   0  0  0  0  0  0  0  0  0  0  0  0
   -2.1086   -0.4672    0.0977 C   0  0  0  0  0  0  0  0  0  0  0  0
   -3.4482    0.0470   -0.0038 C   0  0  0  0  0  0  0  0  0  0  0  0
   -3.6556    1.4032   -0.2489 C   0  0  0  0  0  0  0  0  0  0  0  0
   -4.5357   -0.8122    0.1431 C   0  0  0  0  0  0  0  0  0  0  0  0
   -4.9545    1.9019   -0.3475 C   0  0  0  0  0  0  0  0  0  0  0  0
   -5.8346   -0.3137    0.0444 C   0  0  0  0  0  0  0  0  0  0  0  0
   -6.0440    1.0435   -0.2008 C   0  0  0  0  0  0  0  0  0  0  0  0
    3.5015    0.4615    1.8309 H   0  0  0  0  0  0  0  0  0  0  0  0
    3.7225    1.7325    0.6212 H   0  0  0  0  0  0  0  0  0  0  0  0
    4.2225    1.0479   -1.7863 H   0  0  0  0  0  0  0  0  0  0  0  0
    4.2695   -0.6783   -2.1639 H   0  0  0  0  0  0  0  0  0  0  0  0
    5.7678   -0.2881    1.6842 H   0  0  0  0  0  0  0  0  0  0  0  0
    5.7160    1.4397    2.0293 H   0  0  0  0  0  0  0  0  0  0  0  0
    6.5491    0.2887   -2.0092 H   0  0  0  0  0  0  0  0  0  0  0  0
    6.2890   -1.0086   -0.8448 H   0  0  0  0  0  0  0  0  0  0  0  0
    6.2401    1.9964   -0.2898 H   0  0  0  0  0  0  0  0  0  0  0  0
    7.4329    0.8324    0.2879 H   0  0  0  0  0  0  0  0  0  0  0  0
    1.9507    0.7514   -0.8088 H   0  0  0  0  0  0  0  0  0  0  0  0
    2.0801   -0.9375   -1.2930 H   0  0  0  0  0  0  0  0  0  0  0  0
    1.5862   -0.0016    1.5974 H   0  0  0  0  0  0  0  0  0  0  0  0
    1.7891   -1.6773    1.0812 H   0  0  0  0  0  0  0  0  0  0  0  0
   -0.8770    1.2376    0.9076 H   0  0  0  0  0  0  0  0  0  0  0  0
   -2.8271    2.0952   -0.3778 H   0  0  0  0  0  0  0  0  0  0  0  0
   -4.4046   -1.8729    0.3433 H   0  0  0  0  0  0  0  0  0  0  0  0
   -5.1180    2.9582   -0.5407 H   0  0  0  0  0  0  0  0  0  0  0  0
   -6.6834   -0.9814    0.1604 H   0  0  0  0  0  0  0  0  0  0  0  0
   -7.0555    1.4317   -0.2777 H   0  0  0  0  0  0  0  0  0  0  0  0
  1  3  1  0  0  0  0
  1 11  1  0  0  0  0
  2  4  1  0  0  0  0
  2  5  1  0  0  0  0
  2  9  1  0  0  0  0
  3 13  2  0  0  0  0
  4  6  1  0  0  0  0
  4 20  1  0  0  0  0
  4 21  1  0  0  0  0
  5  7  1  0  0  0  0
  5 22  1  0  0  0  0
  5 23  1  0  0  0  0
  6  8  1  0  0  0  0
  6 24  1  0  0  0  0
  6 25  1  0  0  0  0
  7  8  1  0  0  0  0
  7 26  1  0  0  0  0
  7 27  1  0  0  0  0
  8 28  1  0  0  0  0
  8 29  1  0  0  0  0
  9 10  1  0  0  0  0
  9 30  1  0  0  0  0
  9 31  1  0  0  0  0
 10 11  1  0  0  0  0
 10 32  1  0  0  0  0
 10 33  1  0  0  0  0
 11 12  2  0  0  0  0
 12 13  1  0  0  0  0
 12 34  1  0  0  0  0
 13 14  1  0  0  0  0
 14 15  2  0  0  0  0
 14 16  1  0  0  0  0
 15 17  1  0  0  0  0
 15 35  1  0  0  0  0
 16 18  2  0  0  0  0
 16 36  1  0  0  0  0
 17 19  2  0  0  0  0
 17 37  1  0  0  0  0
 18 19  1  0  0  0  0
 18 38  1  0  0  0  0
 19 39  1  0  0  0  0
M  END
> <PUBCHEM_COMPOUND_CID>
13499

> <PUBCHEM_CONFORMER_RMSD>
0.8

> <PUBCHEM_CONFORMER_DIVERSEORDER>
1
20
18
22
17
10
21
16
4
3
13
2
19
9
8
5
12
15
6
14
7
11

> <PUBCHEM_MMFF94_PARTIAL_CHARGES>
22
1 -0.02
10 0.18
11 -0.04
12 -0.15
13 0.23
14 0.05
15 -0.15
16 -0.15
17 -0.15
18 -0.15
19 -0.15
2 -0.81
3 -0.41
34 0.15
35 0.15
36 0.15
37 0.15
38 0.15
39 0.15
4 0.27
5 0.27
9 0.27

> <PUBCHEM_EFFECTIVE_ROTOR_COUNT>
5.2

> <PUBCHEM_PHARMACOPHORE_FEATURES>
5
1 2 cation
1 3 acceptor
5 1 3 11 12 13 rings
6 14 15 16 17 18 19 rings
6 2 4 5 6 7 8 rings

> <PUBCHEM_HEAVY_ATOM_COUNT>
19

> <PUBCHEM_ATOM_DEF_STEREO_COUNT>
0

> <PUBCHEM_ATOM_UDEF_STEREO_COUNT>
0

> <PUBCHEM_BOND_DEF_STEREO_COUNT>
0

> <PUBCHEM_BOND_UDEF_STEREO_COUNT>
0

> <PUBCHEM_ISOTOPIC_ATOM_COUNT>
0

> <PUBCHEM_COMPONENT_COUNT>
1

> <PUBCHEM_CACTVS_TAUTO_COUNT>
1

> <PUBCHEM_CONFORMER_ID>
000034BB00000001

> <PUBCHEM_MMFF94_ENERGY>
25.841

> <PUBCHEM_FEATURE_SELFOVERLAP>
25.371

> <PUBCHEM_SHAPE_FINGERPRINT>
10354089 29 16200431364998788332
10411042 1 17836082274519624371
106641 1 14692277427307812793
10670039 82 18337105782489530320
10688039 33 14189580745348242158
10730089 173 18412824702665344765
10912923 1 16988844943228097618
11128504 68 15647058157138000104
11646440 116 18334566936978787489
12236239 1 17847064380654557738
12390115 104 18261667194897119825
12516196 113 10663817477155822886
12596602 18 15554441894695089545
12670543 26 17676483986104828208
12730499 353 18113613495634917590
12916748 109 18408882944900155400
13167372 99 17346321535300418876
13288520 33 8142083165780225707
13533116 47 18260829358415378958
13631057 29 17417244317975947179
13668630 136 14056717941848641292
13685833 64 8718819903791644229
14251752 14 18408885170136397710
14251764 18 17060616676863831524
14341114 176 13398629455205209310
15048467 5 18202002148933506517
15183329 4 17676482882509392338
15348495 7 12535331381643197357
15716309 27 11527946750953214664
16079462 125 17894921698238029432
17834072 8 18113053839915728088
17857418 61 6411296819056206252
18006028 8 10447927261399430723
19489759 90 18273214192617303321
200 152 15068334623048205666
20281389 69 18202568388600027724
20374829 77 7781513715875893767
20645477 56 18409168796569957235
20645477 70 16732973254896757198
21150785 3 17458072547452557461
22061861 79 17022897969465382900
221357 26 17095243635449873480
2215653 11 17458061560694157320
22224240 67 14620792682811687545
23016692 55 7493286646964947160
23035841 295 7565346435509792765
23198884 109 16370724833841453561
23402539 116 18334863800616987023
23559900 14 17385730153737632042
2767999 5 18131072640429234508
2916195 48 18335426746265092896
293599 30 18409730677213613523
29717793 49 14634860951727873056
300161 21 18333735710852095886
3004659 81 6844199861707323074
312425 54 13254794676738513813
3472631 163 18342172220754152452
34797466 226 17894908499318426684
3545911 37 18333729113550110218
465052 167 9943804508653058064
5104073 3 18200873010811182139
5283173 99 17967529125125417896
542803 24 17561082501592077994
54446538 1 18059853948093813781
7062679 6 18201998849913515037

> <PUBCHEM_SHAPE_MULTIPOLES>
375.18
17.61
1.45
0.99
6.96
0.04
-0.04
6.71
-1.68
-1.6
-0.05
1.55
0.08
0.63

> <PUBCHEM_SHAPE_SELFOVERLAP>
795.131

> <PUBCHEM_SHAPE_VOLUME>
211.3

> <PUBCHEM_COORDINATE_TYPE>
2
5
10

$$$$

