4350
  -OEChem-06261200043D

 46 48  0     1  0  0  0  0  0999 V2000
   -2.0682    0.0470   -1.3605 O   0  0  0  0  0  0  0  0  0  0  0  0
    0.6764    1.7355   -0.1691 O   0  0  0  0  0  0  0  0  0  0  0  0
   -2.4386   -4.1293   -1.5608 O   0  0  0  0  0  0  0  0  0  0  0  0
   -0.0968    3.7730   -0.8816 O   0  0  0  0  0  0  0  0  0  0  0  0
   -1.2369   -1.3457    0.2905 N   0  0  0  0  0  0  0  0  0  0  0  0
   -1.5449    2.2253    0.0461 N   0  0  0  0  0  0  0  0  0  0  0  0
   -1.7382    0.9900    0.7918 C   0  0  1  0  0  0  0  0  0  0  0  0
   -3.1164    1.1376    1.4269 C   0  0  0  0  0  0  0  0  0  0  0  0
   -0.9823   -2.4924   -0.5716 C   0  0  1  0  0  0  0  0  0  0  0  0
   -3.8631    2.0465    0.4520 C   0  0  0  0  0  0  0  0  0  0  0  0
   -0.7892   -1.6040    1.6567 C   0  0  0  0  0  0  0  0  0  0  0  0
   -0.0826   -3.4051    0.2534 C   0  0  0  0  0  0  0  0  0  0  0  0
   -1.6980   -0.1337   -0.1992 C   0  0  0  0  0  0  0  0  0  0  0  0
   -2.7813    2.9946   -0.0420 C   0  0  0  0  0  0  0  0  0  0  0  0
   -0.4858   -3.0942    1.6928 C   0  0  0  0  0  0  0  0  0  0  0  0
   -2.3076   -3.1307   -0.8608 C   0  0  0  0  0  0  0  0  0  0  0  0
   -0.3019    2.6707   -0.3784 C   0  0  0  0  0  0  0  0  0  0  0  0
    1.9976    2.1086   -0.5759 C   0  0  0  0  0  0  0  0  0  0  0  0
    2.9392    0.9790   -0.2778 C   0  0  0  0  0  0  0  0  0  0  0  0
    3.5780    0.9226    0.9560 C   0  0  0  0  0  0  0  0  0  0  0  0
    3.1642   -0.0015   -1.2376 C   0  0  0  0  0  0  0  0  0  0  0  0
    4.4532   -0.1275    1.2334 C   0  0  0  0  0  0  0  0  0  0  0  0
    4.0394   -1.0517   -0.9601 C   0  0  0  0  0  0  0  0  0  0  0  0
    4.6838   -1.1146    0.2755 C   0  0  0  0  0  0  0  0  0  0  0  0
   -0.9528    0.9086    1.5466 H   0  0  0  0  0  0  0  0  0  0  0  0
   -3.6350    0.1870    1.5838 H   0  0  0  0  0  0  0  0  0  0  0  0
   -3.0266    1.6438    2.3958 H   0  0  0  0  0  0  0  0  0  0  0  0
   -0.5325   -2.1691   -1.5154 H   0  0  0  0  0  0  0  0  0  0  0  0
   -4.7009    2.5726    0.9180 H   0  0  0  0  0  0  0  0  0  0  0  0
   -4.2575    1.4556   -0.3829 H   0  0  0  0  0  0  0  0  0  0  0  0
   -1.5527   -1.3086    2.3816 H   0  0  0  0  0  0  0  0  0  0  0  0
    0.1224   -1.0218    1.8311 H   0  0  0  0  0  0  0  0  0  0  0  0
   -0.1874   -4.4678    0.0152 H   0  0  0  0  0  0  0  0  0  0  0  0
    0.9667   -3.1217    0.1041 H   0  0  0  0  0  0  0  0  0  0  0  0
   -2.6779    3.8664    0.6131 H   0  0  0  0  0  0  0  0  0  0  0  0
   -2.9405    3.3414   -1.0669 H   0  0  0  0  0  0  0  0  0  0  0  0
   -1.3918   -3.6546    1.9530 H   0  0  0  0  0  0  0  0  0  0  0  0
    0.2917   -3.3485    2.4185 H   0  0  0  0  0  0  0  0  0  0  0  0
   -3.1987   -2.6679   -0.4013 H   0  0  0  0  0  0  0  0  0  0  0  0
    2.0041    2.3341   -1.6496 H   0  0  0  0  0  0  0  0  0  0  0  0
    2.3086    3.0132   -0.0385 H   0  0  0  0  0  0  0  0  0  0  0  0
    3.4034    1.6847    1.7105 H   0  0  0  0  0  0  0  0  0  0  0  0
    2.6650    0.0359   -2.2019 H   0  0  0  0  0  0  0  0  0  0  0  0
    4.9542   -0.1772    2.1957 H   0  0  0  0  0  0  0  0  0  0  0  0
    4.2179   -1.8212   -1.7054 H   0  0  0  0  0  0  0  0  0  0  0  0
    5.3644   -1.9328    0.4917 H   0  0  0  0  0  0  0  0  0  0  0  0
  1 13  2  0  0  0  0
  2 17  1  0  0  0  0
  2 18  1  0  0  0  0
  3 16  2  0  0  0  0
  4 17  2  0  0  0  0
  5  9  1  0  0  0  0
  5 11  1  0  0  0  0
  5 13  1  0  0  0  0
  6  7  1  0  0  0  0
  6 14  1  0  0  0  0
  6 17  1  0  0  0  0
  7  8  1  0  0  0  0
  7 13  1  0  0  0  0
  7 25  1  0  0  0  0
  8 10  1  0  0  0  0
  8 26  1  0  0  0  0
  8 27  1  0  0  0  0
  9 12  1  0  0  0  0
  9 16  1  0  0  0  0
  9 28  1  0  0  0  0
 10 14  1  0  0  0  0
 10 29  1  0  0  0  0
 10 30  1  0  0  0  0
 11 15  1  0  0  0  0
 11 31  1  0  0  0  0
 11 32  1  0  0  0  0
 12 15  1  0  0  0  0
 12 33  1  0  0  0  0
 12 34  1  0  0  0  0
 14 35  1  0  0  0  0
 14 36  1  0  0  0  0
 15 37  1  0  0  0  0
 15 38  1  0  0  0  0
 16 39  1  0  0  0  0
 18 19  1  0  0  0  0
 18 40  1  0  0  0  0
 18 41  1  0  0  0  0
 19 20  2  0  0  0  0
 19 21  1  0  0  0  0
 20 22  1  0  0  0  0
 20 42  1  0  0  0  0
 21 23  2  0  0  0  0
 21 43  1  0  0  0  0
 22 24  2  0  0  0  0
 22 44  1  0  0  0  0
 23 24  1  0  0  0  0
 23 45  1  0  0  0  0
 24 46  1  0  0  0  0
M  END
> <PUBCHEM_COMPOUND_CID>
4350

> <PUBCHEM_CONFORMER_RMSD>
1

> <PUBCHEM_CONFORMER_DIVERSEORDER>
1
15
137
69
154
151
5
153
101
79
121
152
14
124
122
42
25
93
108
7
46
116
88
94
56
149
123
145
72
100
155
20
31
40
147
128
81
67
22
70
65
57
23
41
126
74
77
29
43
96
62
144
95
115
102
45
86
134
106
136
97
107
139
119
36
80
4
47
54
109
55
38
27
39
111
140
11
8
63
112
146
60
32
91
10
89
76
3
58
73
104
21
114
120
117
2
83
148
84
143
150
51
90
28
92
78
82
75
129
141
64
37
110
135
59
61
66
12
6
113
127
142
87
105
53
19
103
99
48
52
118
16
50
33
49
85
71
13
9
156
68
34
98
131
35
125
30
138
44
18
26
132
130
17
133
24

> <PUBCHEM_MMFF94_PARTIAL_CHARGES>
26
1 -0.57
11 0.3
13 0.57
14 0.3
16 0.45
17 0.78
18 0.42
19 -0.14
2 -0.43
20 -0.15
21 -0.15
22 -0.15
23 -0.15
24 -0.15
3 -0.57
39 0.06
4 -0.57
42 0.15
43 0.15
44 0.15
45 0.15
46 0.15
5 -0.66
6 -0.66
7 0.36
9 0.36

> <PUBCHEM_EFFECTIVE_ROTOR_COUNT>
9

> <PUBCHEM_PHARMACOPHORE_FEATURES>
6
1 1 acceptor
1 3 acceptor
1 4 acceptor
5 5 9 11 12 15 rings
5 6 7 8 10 14 rings
6 19 20 21 22 23 24 rings

> <PUBCHEM_HEAVY_ATOM_COUNT>
24

> <PUBCHEM_ATOM_DEF_STEREO_COUNT>
0

> <PUBCHEM_ATOM_UDEF_STEREO_COUNT>
2

> <PUBCHEM_BOND_DEF_STEREO_COUNT>
0

> <PUBCHEM_BOND_UDEF_STEREO_COUNT>
0

> <PUBCHEM_ISOTOPIC_ATOM_COUNT>
0

> <PUBCHEM_COMPONENT_COUNT>
1

> <PUBCHEM_CACTVS_TAUTO_COUNT>
2

> <PUBCHEM_CONFORMER_ID>
000010FE00000001

> <PUBCHEM_MMFF94_ENERGY>
55.2125

> <PUBCHEM_FEATURE_SELFOVERLAP>
30.446

> <PUBCHEM_SHAPE_FINGERPRINT>
11578080 2 17170109236066348921
12035759 4 18264511605623560965
12156800 1 16380085018946276350
12553582 1 17763731105868890986
12592029 89 18198049481788466097
12633257 1 18336562594186547072
12788726 201 18193832648305048531
13004483 165 17972893457431071926
13140716 1 18341608183984088072
13402501 40 18047178937579877974
14251757 17 17766312819353530711
14251757 5 18268969013046474444
15403338 16 16483324904270842971
15420108 30 18045780354520694689
19026451 147 17617390476431613410
19591789 44 18339636836791857553
19930381 70 17614555269323585855
20028762 73 18334287665952840783
20642791 13 18191037698284461568
20905425 154 17403449066934206684
21524375 3 18268140049228669427
23728640 28 18411416215485196562
3298306 158 17982733274698133077
38695281 34 18191587656631861789
465052 167 17630295654928738329
5265222 85 18268416014796223454
6287921 2 17540823123508574763
81228 2 18268151950530032912
9709674 26 18260269629497045044

> <PUBCHEM_SHAPE_MULTIPOLES>
460.47
7.28
5.08
1.43
7.77
2.83
-0.21
-1.86
-0.74
-4.37
1.15
-0.05
0.82
-0.86

> <PUBCHEM_SHAPE_SELFOVERLAP>
974.585

> <PUBCHEM_SHAPE_VOLUME>
257.7

> <PUBCHEM_COORDINATE_TYPE>
2
5
10

$$$$

