12737
  -OEChem-06261207183D

 16 15  0     0  0  0  0  0  0999 V2000
   -3.0413    1.2420    0.1593 Cl  0  0  0  0  0  0  0  0  0  0  0  0
    0.0228    0.0452   -0.4871 S   0  0  0  0  0  0  0  0  0  0  0  0
    2.8389    1.1311    0.1508 O   0  0  0  0  0  0  0  0  0  0  0  0
    1.4265   -0.8192    0.2818 C   0  0  0  0  0  0  0  0  0  0  0  0
   -1.3142   -0.8876    0.2920 C   0  0  0  0  0  0  0  0  0  0  0  0
    2.7550   -0.2471   -0.1869 C   0  0  0  0  0  0  0  0  0  0  0  0
   -2.6876   -0.4644   -0.2099 C   0  0  0  0  0  0  0  0  0  0  0  0
    1.3390   -0.6988    1.3666 H   0  0  0  0  0  0  0  0  0  0  0  0
    1.3757   -1.8846    0.0371 H   0  0  0  0  0  0  0  0  0  0  0  0
   -1.2561   -0.7559    1.3779 H   0  0  0  0  0  0  0  0  0  0  0  0
   -1.1732   -1.9514    0.0741 H   0  0  0  0  0  0  0  0  0  0  0  0
    2.8744   -0.3536   -1.2706 H   0  0  0  0  0  0  0  0  0  0  0  0
    3.5807   -0.7721    0.3042 H   0  0  0  0  0  0  0  0  0  0  0  0
   -2.7796   -0.6007   -1.2925 H   0  0  0  0  0  0  0  0  0  0  0  0
   -3.4641   -1.0666    0.2716 H   0  0  0  0  0  0  0  0  0  0  0  0
    3.7045    1.4483   -0.1585 H   0  0  0  0  0  0  0  0  0  0  0  0
  1  7  1  0  0  0  0
  2  4  1  0  0  0  0
  2  5  1  0  0  0  0
  3  6  1  0  0  0  0
  3 16  1  0  0  0  0
  4  6  1  0  0  0  0
  4  8  1  0  0  0  0
  4  9  1  0  0  0  0
  5  7  1  0  0  0  0
  5 10  1  0  0  0  0
  5 11  1  0  0  0  0
  6 12  1  0  0  0  0
  6 13  1  0  0  0  0
  7 14  1  0  0  0  0
  7 15  1  0  0  0  0
M  END
> <PUBCHEM_COMPOUND_CID>
12737

> <PUBCHEM_CONFORMER_RMSD>
0.6

> <PUBCHEM_CONFORMER_DIVERSEORDER>
1
42
21
6
39
20
16
43
5
4
19
36
30
27
8
40
12
18
13
11
41
34
37
23
35
25
17
22
38
7
14
26
31
10
24
15
9
29
3
33
28
32
2

> <PUBCHEM_MMFF94_PARTIAL_CHARGES>
8
1 -0.29
16 0.4
2 -0.46
3 -0.68
4 0.23
5 0.23
6 0.28
7 0.29

> <PUBCHEM_EFFECTIVE_ROTOR_COUNT>
4

> <PUBCHEM_PHARMACOPHORE_FEATURES>
2
1 3 acceptor
1 3 donor

> <PUBCHEM_HEAVY_ATOM_COUNT>
7

> <PUBCHEM_ATOM_DEF_STEREO_COUNT>
0

> <PUBCHEM_ATOM_UDEF_STEREO_COUNT>
0

> <PUBCHEM_BOND_DEF_STEREO_COUNT>
0

> <PUBCHEM_BOND_UDEF_STEREO_COUNT>
0

> <PUBCHEM_ISOTOPIC_ATOM_COUNT>
0

> <PUBCHEM_COMPONENT_COUNT>
1

> <PUBCHEM_CACTVS_TAUTO_COUNT>
1

> <PUBCHEM_CONFORMER_ID>
000031C100000001

> <PUBCHEM_MMFF94_ENERGY>
6.6502

> <PUBCHEM_FEATURE_SELFOVERLAP>
10.148

> <PUBCHEM_SHAPE_FINGERPRINT>
12932764 1 17632302306018430774
14325111 11 18410012143431623431
14390081 3 18409168805128100433
20651381 32 16950560029853050150
21293036 1 15285648676566659409
29004967 10 14979954795806702303
3248919 1 17561079181208117127
5460574 1 8070032168168778495

> <PUBCHEM_SHAPE_MULTIPOLES>
143.91
5.53
1.23
0.7
0.16
0.24
-0.03
1.64
0.18
-0.27
0.11
-0.05
-0.02
-0.06

> <PUBCHEM_SHAPE_SELFOVERLAP>
229.71

> <PUBCHEM_SHAPE_VOLUME>
102.4

> <PUBCHEM_COORDINATE_TYPE>
2
5
10

$$$$

