11608
  -OEChem-06261205533D

 27 26  0     0  0  0  0  0  0999 V2000
    0.0078    1.7249   -0.0019 S   0  0  0  0  0  0  0  0  0  0  0  0
   -1.9043   -0.3765    0.0515 C   0  0  0  0  0  0  0  0  0  0  0  0
    1.9015   -0.3776   -0.0501 C   0  0  0  0  0  0  0  0  0  0  0  0
   -1.0661    0.5339   -0.8623 C   0  0  0  0  0  0  0  0  0  0  0  0
    1.0679    0.5418    0.8587 C   0  0  0  0  0  0  0  0  0  0  0  0
   -2.8260    0.4102    0.9858 C   0  0  0  0  0  0  0  0  0  0  0  0
   -2.6981   -1.4275   -0.7274 C   0  0  0  0  0  0  0  0  0  0  0  0
    2.8272    0.3992   -0.9887 C   0  0  0  0  0  0  0  0  0  0  0  0
    2.6901   -1.4284    0.7345 C   0  0  0  0  0  0  0  0  0  0  0  0
   -1.2249   -0.9578    0.6851 H   0  0  0  0  0  0  0  0  0  0  0  0
    1.2203   -0.9601   -0.6807 H   0  0  0  0  0  0  0  0  0  0  0  0
   -0.4752   -0.0548   -1.5698 H   0  0  0  0  0  0  0  0  0  0  0  0
   -1.7481    1.1300   -1.4807 H   0  0  0  0  0  0  0  0  0  0  0  0
    0.4757   -0.0423    1.5689 H   0  0  0  0  0  0  0  0  0  0  0  0
    1.7541    1.1347    1.4757 H   0  0  0  0  0  0  0  0  0  0  0  0
   -3.5061    1.0532    0.4169 H   0  0  0  0  0  0  0  0  0  0  0  0
   -3.4366   -0.2701    1.5899 H   0  0  0  0  0  0  0  0  0  0  0  0
   -2.2632    1.0379    1.6829 H   0  0  0  0  0  0  0  0  0  0  0  0
   -3.4340   -0.9539   -1.3858 H   0  0  0  0  0  0  0  0  0  0  0  0
   -3.2319   -2.1005   -0.0482 H   0  0  0  0  0  0  0  0  0  0  0  0
   -2.0308   -2.0359   -1.3468 H   0  0  0  0  0  0  0  0  0  0  0  0
    3.5095    1.0430   -0.4234 H   0  0  0  0  0  0  0  0  0  0  0  0
    3.4354   -0.2874   -1.5879 H   0  0  0  0  0  0  0  0  0  0  0  0
    2.2677    1.0246   -1.6906 H   0  0  0  0  0  0  0  0  0  0  0  0
    3.4284   -0.9550    1.3903 H   0  0  0  0  0  0  0  0  0  0  0  0
    3.2206   -2.1077    0.0589 H   0  0  0  0  0  0  0  0  0  0  0  0
    2.0198   -2.0303    1.3570 H   0  0  0  0  0  0  0  0  0  0  0  0
  1  4  1  0  0  0  0
  1  5  1  0  0  0  0
  2  4  1  0  0  0  0
  2  6  1  0  0  0  0
  2  7  1  0  0  0  0
  2 10  1  0  0  0  0
  3  5  1  0  0  0  0
  3  8  1  0  0  0  0
  3  9  1  0  0  0  0
  3 11  1  0  0  0  0
  4 12  1  0  0  0  0
  4 13  1  0  0  0  0
  5 14  1  0  0  0  0
  5 15  1  0  0  0  0
  6 16  1  0  0  0  0
  6 17  1  0  0  0  0
  6 18  1  0  0  0  0
  7 19  1  0  0  0  0
  7 20  1  0  0  0  0
  7 21  1  0  0  0  0
  8 22  1  0  0  0  0
  8 23  1  0  0  0  0
  8 24  1  0  0  0  0
  9 25  1  0  0  0  0
  9 26  1  0  0  0  0
  9 27  1  0  0  0  0
M  END
> <PUBCHEM_COMPOUND_CID>
11608

> <PUBCHEM_CONFORMER_RMSD>
0.6

> <PUBCHEM_CONFORMER_DIVERSEORDER>
2
1
3

> <PUBCHEM_MMFF94_PARTIAL_CHARGES>
3
1 -0.46
4 0.23
5 0.23

> <PUBCHEM_EFFECTIVE_ROTOR_COUNT>
4

> <PUBCHEM_PHARMACOPHORE_FEATURES>
3
3 2 6 7 hydrophobe
3 3 8 9 hydrophobe
5 1 2 3 4 5 hydrophobe

> <PUBCHEM_HEAVY_ATOM_COUNT>
9

> <PUBCHEM_ATOM_DEF_STEREO_COUNT>
0

> <PUBCHEM_ATOM_UDEF_STEREO_COUNT>
0

> <PUBCHEM_BOND_DEF_STEREO_COUNT>
0

> <PUBCHEM_BOND_UDEF_STEREO_COUNT>
0

> <PUBCHEM_ISOTOPIC_ATOM_COUNT>
0

> <PUBCHEM_COMPONENT_COUNT>
1

> <PUBCHEM_CACTVS_TAUTO_COUNT>
1

> <PUBCHEM_CONFORMER_ID>
00002D5800000002

> <PUBCHEM_MMFF94_ENERGY>
11.7215

> <PUBCHEM_FEATURE_SELFOVERLAP>
15.243

> <PUBCHEM_SHAPE_FINGERPRINT>
10149128 76 9223226373218481458
10857977 72 17385725789707909053
12162725 195 9223230732430821863
12897270 3 15554450707904060175
12932764 1 18410572885640070213
14128692 85 18263354815694993516
14390081 3 11959741459987063887
15310529 11 17917987308472568148
18342897 137 17313107457999315797
18342897 96 10879996895268314179
18511873 20 18334570283095557281
18522851 12 18338783572439520994
20201158 50 17989489602015219818
20651381 17 9367064406875417317
20653085 51 10735604655820961929
20653091 64 18115591422263046376
20711983 138 16660914608027364750
20715346 28 15574713599086578721
23552423 10 18194120716288725621
3248919 1 17313109656642847333

> <PUBCHEM_SHAPE_MULTIPOLES>
189.07
4.98
1.58
1.12
0.02
0.01
0
-1.85
0
0
0
0
0.01
-0.74

> <PUBCHEM_SHAPE_SELFOVERLAP>
321.616

> <PUBCHEM_SHAPE_VOLUME>
127.3

> <PUBCHEM_COORDINATE_TYPE>
2
5
10

$$$$

