83933
  -OEChem-07051212512D

115117  0     1  0  0  0  0  0999 V2000
    5.5000   -1.1345    0.0000 O   0  0  0  0  0  0  0  0  0  0  0  0
    5.5000    0.5976    0.0000 O   0  0  0  0  0  0  0  0  0  0  0  0
    7.2589   -2.9664    0.0000 O   0  0  0  0  0  0  0  0  0  0  0  0
    5.5000   -2.8665    0.0000 O   0  0  0  0  0  0  0  0  0  0  0  0
    5.5000    2.3296    0.0000 O   0  0  0  0  0  0  0  0  0  0  0  0
    8.5000    2.3296    0.0000 O   0  0  0  0  0  0  0  0  0  0  0  0
    3.5000   -1.1345    0.0000 O   0  0  0  0  0  0  0  0  0  0  0  0
    2.6340    2.8296    0.0000 O   0  0  0  0  0  0  0  0  0  0  0  0
   10.9659    1.7224    0.0000 O   0  0  0  0  0  0  0  0  0  0  0  0
    8.7340    1.2404    0.0000 O   0  0  0  0  0  0  0  0  0  0  0  0
    3.5000    4.0617    0.0000 O   0  0  0  0  0  0  0  0  0  0  0  0
   10.0000   -2.0005    0.0000 O   0  0  0  0  0  0  0  0  0  0  0  0
    8.5000    0.5976    0.0000 O   0  0  0  0  0  0  0  0  0  0  0  0
    2.5000   -2.8665    0.0000 N   0  0  0  0  0  0  0  0  0  0  0  0
    6.5000   -1.1345    0.0000 C   0  0  2  0  0  0  0  0  0  0  0  0
    7.0000   -0.2685    0.0000 C   0  0  2  0  0  0  0  0  0  0  0  0
    7.0000   -2.0005    0.0000 C   0  0  1  0  0  0  0  0  0  0  0  0
    6.5000    0.5976    0.0000 C   0  0  1  0  0  0  0  0  0  0  0  0
    8.0000   -2.0005    0.0000 C   0  0  0  0  0  0  0  0  0  0  0  0
    7.0000    1.4636    0.0000 C   0  0  2  0  0  0  0  0  0  0  0  0
    8.5000   -1.1345    0.0000 C   0  0  2  0  0  0  0  0  0  0  0  0
    5.0000   -2.0005    0.0000 C   0  0  2  0  0  0  0  0  0  0  0  0
    8.0000   -0.2685    0.0000 C   0  0  0  0  0  0  0  0  0  0  0  0
    4.0000   -2.0005    0.0000 C   0  0  1  0  0  0  0  0  0  0  0  0
    3.5000   -2.8665    0.0000 C   0  0  2  0  0  0  0  0  0  0  0  0
    5.0000    1.4636    0.0000 C   0  0  2  0  0  0  0  0  0  0  0  0
    6.2929   -2.7076    0.0000 C   0  0  0  0  0  0  0  0  0  0  0  0
    3.5000    2.3296    0.0000 C   0  0  2  0  0  0  0  0  0  0  0  0
    4.0000    1.4636    0.0000 C   0  0  0  0  0  0  0  0  0  0  0  0
   10.0000   -0.2685    0.0000 C   0  0  2  0  0  0  0  0  0  0  0  0
   10.0000    1.4636    0.0000 C   0  0  1  0  0  0  0  0  0  0  0  0
    4.0000   -3.7326    0.0000 C   0  0  0  0  0  0  0  0  0  0  0  0
    9.5000    0.5976    0.0000 C   0  0  2  0  0  0  0  0  0  0  0  0
    4.0000    3.1956    0.0000 C   0  0  2  0  0  0  0  0  0  0  0  0
    9.5000   -1.1345    0.0000 C   0  0  0  0  0  0  0  0  0  0  0  0
    5.0000   -3.7326    0.0000 C   0  0  1  0  0  0  0  0  0  0  0  0
    5.0000    3.1956    0.0000 C   0  0  2  0  0  0  0  0  0  0  0  0
    9.5000    2.3296    0.0000 C   0  0  1  0  0  0  0  0  0  0  0  0
    8.0000    1.4636    0.0000 C   0  0  0  0  0  0  0  0  0  0  0  0
    6.5000    2.3296    0.0000 C   0  0  0  0  0  0  0  0  0  0  0  0
    7.5000   -1.1345    0.0000 C   0  0  0  0  0  0  0  0  0  0  0  0
    2.6340    1.8296    0.0000 C   0  0  0  0  0  0  0  0  0  0  0  0
   11.0000   -0.2685    0.0000 C   0  0  0  0  0  0  0  0  0  0  0  0
   10.8192    0.8900    0.0000 C   0  0  0  0  0  0  0  0  0  0  0  0
   10.0000    3.1956    0.0000 C   0  0  0  0  0  0  0  0  0  0  0  0
    5.5000   -4.5986    0.0000 C   0  0  0  0  0  0  0  0  0  0  0  0
    5.5000    4.0617    0.0000 C   0  0  0  0  0  0  0  0  0  0  0  0
    2.0000   -3.7326    0.0000 C   0  0  0  0  0  0  0  0  0  0  0  0
    2.0000   -2.0005    0.0000 C   0  0  0  0  0  0  0  0  0  0  0  0
    9.5000    4.0617    0.0000 C   0  0  0  0  0  0  0  0  0  0  0  0
    6.1900   -0.5976    0.0000 H   0  0  0  0  0  0  0  0  0  0  0  0
    7.3100   -0.8054    0.0000 H   0  0  0  0  0  0  0  0  0  0  0  0
    6.1900    1.1345    0.0000 H   0  0  0  0  0  0  0  0  0  0  0  0
    7.8923   -2.6111    0.0000 H   0  0  0  0  0  0  0  0  0  0  0  0
    8.5826   -2.2126    0.0000 H   0  0  0  0  0  0  0  0  0  0  0  0
    6.3800    1.4636    0.0000 H   0  0  0  0  0  0  0  0  0  0  0  0
    8.5000   -0.5145    0.0000 H   0  0  0  0  0  0  0  0  0  0  0  0
    4.6900   -1.4636    0.0000 H   0  0  0  0  0  0  0  0  0  0  0  0
    8.0000   -0.8885    0.0000 H   0  0  0  0  0  0  0  0  0  0  0  0
    8.6200   -0.2685    0.0000 H   0  0  0  0  0  0  0  0  0  0  0  0
    8.0000    0.3515    0.0000 H   0  0  0  0  0  0  0  0  0  0  0  0
    3.3800   -2.0005    0.0000 H   0  0  0  0  0  0  0  0  0  0  0  0
    3.1900   -2.3296    0.0000 H   0  0  0  0  0  0  0  0  0  0  0  0
    4.6900    0.9266    0.0000 H   0  0  0  0  0  0  0  0  0  0  0  0
    5.8545   -2.2692    0.0000 H   0  0  0  0  0  0  0  0  0  0  0  0
    5.8545   -3.1460    0.0000 H   0  0  0  0  0  0  0  0  0  0  0  0
    6.7313   -3.1460    0.0000 H   0  0  0  0  0  0  0  0  0  0  0  0
    3.4174    1.2515    0.0000 H   0  0  0  0  0  0  0  0  0  0  0  0
    4.1077    0.8530    0.0000 H   0  0  0  0  0  0  0  0  0  0  0  0
   10.3100   -0.8054    0.0000 H   0  0  0  0  0  0  0  0  0  0  0  0
    3.4174   -3.9446    0.0000 H   0  0  0  0  0  0  0  0  0  0  0  0
    4.1077   -4.3431    0.0000 H   0  0  0  0  0  0  0  0  0  0  0  0
    9.0250    0.1991    0.0000 H   0  0  0  0  0  0  0  0  0  0  0  0
    3.3800    3.1956    0.0000 H   0  0  0  0  0  0  0  0  0  0  0  0
    5.6200   -3.7326    0.0000 H   0  0  0  0  0  0  0  0  0  0  0  0
    5.6200    3.1956    0.0000 H   0  0  0  0  0  0  0  0  0  0  0  0
    9.1900    2.8665    0.0000 H   0  0  0  0  0  0  0  0  0  0  0  0
    7.8577   -3.1269    0.0000 H   0  0  0  0  0  0  0  0  0  0  0  0
    7.0369    2.6396    0.0000 H   0  0  0  0  0  0  0  0  0  0  0  0
    6.1900    2.8665    0.0000 H   0  0  0  0  0  0  0  0  0  0  0  0
    5.9631    2.0196    0.0000 H   0  0  0  0  0  0  0  0  0  0  0  0
    7.5000   -0.5145    0.0000 H   0  0  0  0  0  0  0  0  0  0  0  0
    6.8800   -1.1345    0.0000 H   0  0  0  0  0  0  0  0  0  0  0  0
    7.5000   -1.7545    0.0000 H   0  0  0  0  0  0  0  0  0  0  0  0
    2.3240    2.3665    0.0000 H   0  0  0  0  0  0  0  0  0  0  0  0
    2.0970    1.5196    0.0000 H   0  0  0  0  0  0  0  0  0  0  0  0
    2.9440    1.2927    0.0000 H   0  0  0  0  0  0  0  0  0  0  0  0
   11.0000   -0.8885    0.0000 H   0  0  0  0  0  0  0  0  0  0  0  0
   11.6200   -0.2685    0.0000 H   0  0  0  0  0  0  0  0  0  0  0  0
   11.0000    0.3515    0.0000 H   0  0  0  0  0  0  0  0  0  0  0  0
   10.4635    0.3821    0.0000 H   0  0  0  0  0  0  0  0  0  0  0  0
   11.3270    0.5344    0.0000 H   0  0  0  0  0  0  0  0  0  0  0  0
   11.1748    1.3979    0.0000 H   0  0  0  0  0  0  0  0  0  0  0  0
   10.4749    2.7971    0.0000 H   0  0  0  0  0  0  0  0  0  0  0  0
   10.4749    3.5942    0.0000 H   0  0  0  0  0  0  0  0  0  0  0  0
    4.9631   -4.9086    0.0000 H   0  0  0  0  0  0  0  0  0  0  0  0
    5.8100   -5.1355    0.0000 H   0  0  0  0  0  0  0  0  0  0  0  0
    6.0369   -4.2886    0.0000 H   0  0  0  0  0  0  0  0  0  0  0  0
    6.0369    3.7517    0.0000 H   0  0  0  0  0  0  0  0  0  0  0  0
    5.8100    4.5986    0.0000 H   0  0  0  0  0  0  0  0  0  0  0  0
    4.9631    4.3717    0.0000 H   0  0  0  0  0  0  0  0  0  0  0  0
    2.8800   -1.1345    0.0000 H   0  0  0  0  0  0  0  0  0  0  0  0
    2.0970    2.5196    0.0000 H   0  0  0  0  0  0  0  0  0  0  0  0
   11.1264    2.3213    0.0000 H   0  0  0  0  0  0  0  0  0  0  0  0
    9.1324    1.7153    0.0000 H   0  0  0  0  0  0  0  0  0  0  0  0
    1.4631   -3.4226    0.0000 H   0  0  0  0  0  0  0  0  0  0  0  0
    1.6900   -4.2695    0.0000 H   0  0  0  0  0  0  0  0  0  0  0  0
    2.5369   -4.0426    0.0000 H   0  0  0  0  0  0  0  0  0  0  0  0
    2.5369   -1.6905    0.0000 H   0  0  0  0  0  0  0  0  0  0  0  0
    1.6900   -1.4636    0.0000 H   0  0  0  0  0  0  0  0  0  0  0  0
    1.4631   -2.3105    0.0000 H   0  0  0  0  0  0  0  0  0  0  0  0
    3.8100    4.5986    0.0000 H   0  0  0  0  0  0  0  0  0  0  0  0
   10.0369    4.3717    0.0000 H   0  0  0  0  0  0  0  0  0  0  0  0
    9.1900    4.5986    0.0000 H   0  0  0  0  0  0  0  0  0  0  0  0
    8.9631    3.7517    0.0000 H   0  0  0  0  0  0  0  0  0  0  0  0
 15  1  1  6  0  0  0
 22  1  1  6  0  0  0
 18  2  1  6  0  0  0
 26  2  1  1  0  0  0
 17  3  1  1  0  0  0
  3 78  1  0  0  0  0
  4 22  1  0  0  0  0
  4 36  1  0  0  0  0
  5 26  1  0  0  0  0
  5 37  1  0  0  0  0
  6 38  1  0  0  0  0
  6 39  1  0  0  0  0
 24  7  1  1  0  0  0
  7102  1  0  0  0  0
 28  8  1  1  0  0  0
  8103  1  0  0  0  0
 31  9  1  1  0  0  0
  9104  1  0  0  0  0
 33 10  1  1  0  0  0
 10105  1  0  0  0  0
 34 11  1  1  0  0  0
 11112  1  0  0  0  0
 12 35  2  0  0  0  0
 13 39  2  0  0  0  0
 25 14  1  6  0  0  0
 14 48  1  0  0  0  0
 14 49  1  0  0  0  0
 15 16  1  0  0  0  0
 15 17  1  0  0  0  0
 15 51  1  0  0  0  0
 16 18  1  0  0  0  0
 16 23  1  6  0  0  0
 16 52  1  0  0  0  0
 17 19  1  0  0  0  0
 17 27  1  0  0  0  0
 18 20  1  0  0  0  0
 18 53  1  0  0  0  0
 19 21  1  0  0  0  0
 19 54  1  0  0  0  0
 19 55  1  0  0  0  0
 20 39  1  0  0  0  0
 20 40  1  1  0  0  0
 20 56  1  0  0  0  0
 21 35  1  0  0  0  0
 21 41  1  1  0  0  0
 21 57  1  0  0  0  0
 22 24  1  0  0  0  0
 22 58  1  0  0  0  0
 23 59  1  0  0  0  0
 23 60  1  0  0  0  0
 23 61  1  0  0  0  0
 24 25  1  0  0  0  0
 24 62  1  0  0  0  0
 25 32  1  0  0  0  0
 25 63  1  0  0  0  0
 26 29  1  0  0  0  0
 26 64  1  0  0  0  0
 27 65  1  0  0  0  0
 27 66  1  0  0  0  0
 27 67  1  0  0  0  0
 28 29  1  0  0  0  0
 28 34  1  0  0  0  0
 28 42  1  0  0  0  0
 29 68  1  0  0  0  0
 29 69  1  0  0  0  0
 30 33  1  0  0  0  0
 30 35  1  0  0  0  0
 30 43  1  1  0  0  0
 30 70  1  0  0  0  0
 31 33  1  0  0  0  0
 31 38  1  0  0  0  0
 31 44  1  0  0  0  0
 32 36  1  0  0  0  0
 32 71  1  0  0  0  0
 32 72  1  0  0  0  0
 33 73  1  0  0  0  0
 34 37  1  0  0  0  0
 34 74  1  0  0  0  0
 36 46  1  6  0  0  0
 36 75  1  0  0  0  0
 37 47  1  6  0  0  0
 37 76  1  0  0  0  0
 38 45  1  6  0  0  0
 38 77  1  0  0  0  0
 40 79  1  0  0  0  0
 40 80  1  0  0  0  0
 40 81  1  0  0  0  0
 41 82  1  0  0  0  0
 41 83  1  0  0  0  0
 41 84  1  0  0  0  0
 42 85  1  0  0  0  0
 42 86  1  0  0  0  0
 42 87  1  0  0  0  0
 43 88  1  0  0  0  0
 43 89  1  0  0  0  0
 43 90  1  0  0  0  0
 44 91  1  0  0  0  0
 44 92  1  0  0  0  0
 44 93  1  0  0  0  0
 45 50  1  0  0  0  0
 45 94  1  0  0  0  0
 45 95  1  0  0  0  0
 46 96  1  0  0  0  0
 46 97  1  0  0  0  0
 46 98  1  0  0  0  0
 47 99  1  0  0  0  0
 47100  1  0  0  0  0
 47101  1  0  0  0  0
 48106  1  0  0  0  0
 48107  1  0  0  0  0
 48108  1  0  0  0  0
 49109  1  0  0  0  0
 49110  1  0  0  0  0
 49111  1  0  0  0  0
 50113  1  0  0  0  0
 50114  1  0  0  0  0
 50115  1  0  0  0  0
M  END
> <PUBCHEM_COMPOUND_CID>
83933

> <PUBCHEM_COMPOUND_CANONICALIZED>
1

> <PUBCHEM_CACTVS_COMPLEXITY>
1160

> <PUBCHEM_CACTVS_HBOND_ACCEPTOR>
14

> <PUBCHEM_CACTVS_HBOND_DONOR>
6

> <PUBCHEM_CACTVS_ROTATABLE_BOND>
6

> <PUBCHEM_CACTVS_SUBSKEYS>
AAADcfB+PAAAAAAAAAAAAAAAAAAAAAAAAAAkSAAAAAAAAAAAAAAAHgAACAAADXzxgAcCCAMABgAIAICQCAAAAAAAAAAAAAEIAAATEBYAgAAmQAAHIAAXAAHK7PzOAAAAAAAAAAAAAAAAAAAAAAAAAAAAAA==

> <PUBCHEM_IUPAC_OPENEYE_NAME>
(3R,4S,5S,6R,7R,9R,11R,12R,13S,14R)-4-[(2R,4R,5S,6S)-4,5-dihydroxy-4,6-dimethyl-tetrahydropyran-2-yl]oxy-6-[(2S,3R,4S,6R)-4-(dimethylamino)-3-hydroxy-6-methyl-tetrahydropyran-2-yl]oxy-14-ethyl-7,12,13-trihydroxy-3,5,7,9,11,13-hexamethyl-oxacyclotetradecane-2,10-dione

> <PUBCHEM_IUPAC_CAS_NAME>
(3R,4S,5S,6R,7R,9R,11R,12R,13S,14R)-4-[[(2R,4R,5S,6S)-4,5-dihydroxy-4,6-dimethyl-2-oxanyl]oxy]-6-[[(2S,3R,4S,6R)-4-(dimethylamino)-3-hydroxy-6-methyl-2-oxanyl]oxy]-14-ethyl-7,12,13-trihydroxy-3,5,7,9,11,13-hexamethyl-oxacyclotetradecane-2,10-dione

> <PUBCHEM_IUPAC_NAME>
(3R,4S,5S,6R,7R,9R,11R,12R,13S,14R)-4-[(2R,4R,5S,6S)-4,5-dihydroxy-4,6-dimethyloxan-2-yl]oxy-6-[(2S,3R,4S,6R)-4-(dimethylamino)-3-hydroxy-6-methyloxan-2-yl]oxy-14-ethyl-7,12,13-trihydroxy-3,5,7,9,11,13-hexamethyl-oxacyclotetradecane-2,10-dione

> <PUBCHEM_IUPAC_SYSTEMATIC_NAME>
(3R,4S,5S,6R,7R,9R,11R,12R,13S,14R)-6-[(2S,3R,4S,6R)-4-(dimethylamino)-6-methyl-3-oxidanyl-oxan-2-yl]oxy-4-[(2R,4R,5S,6S)-4,6-dimethyl-4,5-bis(oxidanyl)oxan-2-yl]oxy-14-ethyl-3,5,7,9,11,13-hexamethyl-7,12,13-tris(oxidanyl)-1-oxacyclotetradecane-2,10-dione

> <PUBCHEM_IUPAC_TRADITIONAL_NAME>
(3R,4S,5S,6R,7R,9R,11R,12R,13S,14R)-4-[(2R,4R,5S,6S)-4,5-dihydroxy-4,6-dimethyl-tetrahydropyran-2-yl]oxy-6-[(2S,3R,4S,6R)-4-(dimethylamino)-3-hydroxy-6-methyl-tetrahydropyran-2-yl]oxy-14-ethyl-7,12,13-trihydroxy-3,5,7,9,11,13-hexamethyl-oxacyclotetradecane-2,10-quinone

> <PUBCHEM_IUPAC_INCHI>
InChI=1S/C36H65NO13/c1-13-24-36(10,45)29(40)19(4)26(38)17(2)15-35(9,44)31(50-33-27(39)23(37(11)12)14-18(3)46-33)20(5)28(21(6)32(42)48-24)49-25-16-34(8,43)30(41)22(7)47-25/h17-25,27-31,33,39-41,43-45H,13-16H2,1-12H3/t17-,18-,19+,20+,21-,22+,23+,24-,25+,27-,28+,29-,30+,31-,33+,34-,35-,36-/m1/s1

> <PUBCHEM_IUPAC_INCHIKEY>
MWFRKHPRXPSWNT-QNPWSHAKSA-N

> <PUBCHEM_XLOGP3>
2.2

> <PUBCHEM_EXACT_MASS>
719.445591

> <PUBCHEM_MOLECULAR_FORMULA>
C36H65NO13

> <PUBCHEM_MOLECULAR_WEIGHT>
719.9002

> <PUBCHEM_OPENEYE_CAN_SMILES>
CCC1C(C(C(C(=O)C(CC(C(C(C(C(C(=O)O1)C)OC2CC(C(C(O2)C)O)(C)O)C)OC3C(C(CC(O3)C)N(C)C)O)(C)O)C)C)O)(C)O

> <PUBCHEM_OPENEYE_ISO_SMILES>
CC[C@@H]1[C@@]([C@@H]([C@H](C(=O)[C@@H](C[C@@]([C@@H]([C@H]([C@@H]([C@H](C(=O)O1)C)O[C@H]2C[C@@]([C@H]([C@@H](O2)C)O)(C)O)C)O[C@H]3[C@@H]([C@H](C[C@H](O3)C)N(C)C)O)(C)O)C)C)O)(C)O

> <PUBCHEM_CACTVS_TPSA>
205

> <PUBCHEM_MONOISOTOPIC_WEIGHT>
719.445591

> <PUBCHEM_TOTAL_CHARGE>
0

> <PUBCHEM_HEAVY_ATOM_COUNT>
50

> <PUBCHEM_ATOM_DEF_STEREO_COUNT>
18

> <PUBCHEM_ATOM_UDEF_STEREO_COUNT>
0

> <PUBCHEM_BOND_DEF_STEREO_COUNT>
0

> <PUBCHEM_BOND_UDEF_STEREO_COUNT>
0

> <PUBCHEM_ISOTOPIC_ATOM_COUNT>
0

> <PUBCHEM_COMPONENT_COUNT>
1

> <PUBCHEM_CACTVS_TAUTO_COUNT>
6

> <PUBCHEM_COORDINATE_TYPE>
1
5
255

> <PUBCHEM_BONDANNOTATIONS>
15  1  6
22  1  6
33  10  5
34  11  5
25  14  6
16  23  6
18  2  6
26  2  5
20  40  5
21  41  5
17  3  5
30  43  5
36  46  6
37  47  6
38  45  6
24  7  5
28  8  5
31  9  5

$$$$

