227113
  -OEChem-07051213073D

 62 65  0     1  0  0  0  0  0999 V2000
   -5.5343    0.3433   -0.0709 O   0  0  0  0  0  0  0  0  0  0  0  0
    6.3664   -0.5382   -0.7759 O   0  0  0  0  0  0  0  0  0  0  0  0
   -6.3383   -1.3100    1.3279 O   0  0  0  0  0  0  0  0  0  0  0  0
    0.1988   -0.2006    0.1977 C   0  0  1  0  0  0  0  0  0  0  0  0
    1.0432    1.0701   -0.1445 C   0  0  2  0  0  0  0  0  0  0  0  0
    2.4421    0.9034    0.4597 C   0  0  1  0  0  0  0  0  0  0  0  0
    3.1871   -0.3381   -0.0779 C   0  0  2  0  0  0  0  0  0  0  0  0
   -1.2754   -0.0892   -0.3427 C   0  0  2  0  0  0  0  0  0  0  0  0
   -1.8923    1.2182    0.2520 C   0  0  1  0  0  0  0  0  0  0  0  0
    0.9316   -1.5088   -0.2002 C   0  0  0  0  0  0  0  0  0  0  0  0
    2.3787   -1.5803    0.3206 C   0  0  0  0  0  0  0  0  0  0  0  0
    0.3597    2.3474    0.3641 C   0  0  0  0  0  0  0  0  0  0  0  0
    4.5277   -0.1664    0.6698 C   0  0  2  0  0  0  0  0  0  0  0  0
    3.4594    2.0271    0.2931 C   0  0  0  0  0  0  0  0  0  0  0  0
   -1.0846    2.4673   -0.1170 C   0  0  0  0  0  0  0  0  0  0  0  0
   -2.1346   -1.2859    0.1567 C   0  0  0  0  0  0  0  0  0  0  0  0
    4.8068    1.3505    0.6021 C   0  0  0  0  0  0  0  0  0  0  0  0
   -3.3766    1.3888   -0.0945 C   0  0  0  0  0  0  0  0  0  0  0  0
    3.4052   -0.3234   -1.6140 C   0  0  0  0  0  0  0  0  0  0  0  0
   -1.2949   -0.0881   -1.8930 C   0  0  0  0  0  0  0  0  0  0  0  0
   -3.6278   -1.1327   -0.1408 C   0  0  0  0  0  0  0  0  0  0  0  0
   -4.1921    0.1868    0.3777 C   0  0  2  0  0  0  0  0  0  0  0  0
    5.6629   -0.9777    0.1253 C   0  0  0  0  0  0  0  0  0  0  0  0
    5.8625   -2.3280    0.7488 C   0  0  0  0  0  0  0  0  0  0  0  0
   -6.4042   -0.6412    0.3055 C   0  0  0  0  0  0  0  0  0  0  0  0
   -7.4771   -0.7942   -0.7297 C   0  0  0  0  0  0  0  0  0  0  0  0
    0.1230   -0.2346    1.2964 H   0  0  0  0  0  0  0  0  0  0  0  0
    1.1384    1.1680   -1.2305 H   0  0  0  0  0  0  0  0  0  0  0  0
    2.3016    0.7795    1.5470 H   0  0  0  0  0  0  0  0  0  0  0  0
   -1.8449    1.1323    1.3491 H   0  0  0  0  0  0  0  0  0  0  0  0
    0.9371   -1.6288   -1.2878 H   0  0  0  0  0  0  0  0  0  0  0  0
    0.3932   -2.3741    0.2021 H   0  0  0  0  0  0  0  0  0  0  0  0
    2.3539   -1.6808    1.4133 H   0  0  0  0  0  0  0  0  0  0  0  0
    2.8491   -2.4913   -0.0655 H   0  0  0  0  0  0  0  0  0  0  0  0
    0.9167    3.2309    0.0309 H   0  0  0  0  0  0  0  0  0  0  0  0
    0.3731    2.3629    1.4616 H   0  0  0  0  0  0  0  0  0  0  0  0
    4.4056   -0.4275    1.7303 H   0  0  0  0  0  0  0  0  0  0  0  0
    3.2681    2.8611    0.9759 H   0  0  0  0  0  0  0  0  0  0  0  0
    3.4541    2.4260   -0.7273 H   0  0  0  0  0  0  0  0  0  0  0  0
   -1.5361    3.3526    0.3473 H   0  0  0  0  0  0  0  0  0  0  0  0
   -1.1065    2.6406   -1.1988 H   0  0  0  0  0  0  0  0  0  0  0  0
   -2.0063   -1.3997    1.2413 H   0  0  0  0  0  0  0  0  0  0  0  0
   -1.7914   -2.2229   -0.2975 H   0  0  0  0  0  0  0  0  0  0  0  0
    5.5461    1.6386   -0.1523 H   0  0  0  0  0  0  0  0  0  0  0  0
    5.1934    1.6978    1.5677 H   0  0  0  0  0  0  0  0  0  0  0  0
   -3.7739    2.2938    0.3839 H   0  0  0  0  0  0  0  0  0  0  0  0
   -3.5210    1.5504   -1.1695 H   0  0  0  0  0  0  0  0  0  0  0  0
    4.0258    0.5160   -1.9428 H   0  0  0  0  0  0  0  0  0  0  0  0
    3.9011   -1.2438   -1.9434 H   0  0  0  0  0  0  0  0  0  0  0  0
    2.4681   -0.2600   -2.1731 H   0  0  0  0  0  0  0  0  0  0  0  0
   -0.6567    0.6874   -2.3231 H   0  0  0  0  0  0  0  0  0  0  0  0
   -0.9554   -1.0487   -2.2944 H   0  0  0  0  0  0  0  0  0  0  0  0
   -2.2976    0.0768   -2.2971 H   0  0  0  0  0  0  0  0  0  0  0  0
   -3.8136   -1.2209   -1.2184 H   0  0  0  0  0  0  0  0  0  0  0  0
   -4.1487   -1.9867    0.3066 H   0  0  0  0  0  0  0  0  0  0  0  0
   -4.1886    0.1826    1.4761 H   0  0  0  0  0  0  0  0  0  0  0  0
    5.9968   -2.2237    1.8283 H   0  0  0  0  0  0  0  0  0  0  0  0
    5.0115   -2.9757    0.5341 H   0  0  0  0  0  0  0  0  0  0  0  0
    6.7637   -2.7878    0.3328 H   0  0  0  0  0  0  0  0  0  0  0  0
   -7.0305   -1.0757   -1.6866 H   0  0  0  0  0  0  0  0  0  0  0  0
   -8.0359    0.1401   -0.8251 H   0  0  0  0  0  0  0  0  0  0  0  0
   -8.1682   -1.5841   -0.4219 H   0  0  0  0  0  0  0  0  0  0  0  0
  1 22  1  0  0  0  0
  1 25  1  0  0  0  0
  2 23  2  0  0  0  0
  3 25  2  0  0  0  0
  4  5  1  0  0  0  0
  4  8  1  0  0  0  0
  4 10  1  0  0  0  0
  4 27  1  0  0  0  0
  5  6  1  0  0  0  0
  5 12  1  0  0  0  0
  5 28  1  0  0  0  0
  6  7  1  0  0  0  0
  6 14  1  0  0  0  0
  6 29  1  0  0  0  0
  7 11  1  0  0  0  0
  7 13  1  0  0  0  0
  7 19  1  0  0  0  0
  8  9  1  0  0  0  0
  8 16  1  0  0  0  0
  8 20  1  0  0  0  0
  9 15  1  0  0  0  0
  9 18  1  0  0  0  0
  9 30  1  0  0  0  0
 10 11  1  0  0  0  0
 10 31  1  0  0  0  0
 10 32  1  0  0  0  0
 11 33  1  0  0  0  0
 11 34  1  0  0  0  0
 12 15  1  0  0  0  0
 12 35  1  0  0  0  0
 12 36  1  0  0  0  0
 13 17  1  0  0  0  0
 13 23  1  0  0  0  0
 13 37  1  0  0  0  0
 14 17  1  0  0  0  0
 14 38  1  0  0  0  0
 14 39  1  0  0  0  0
 15 40  1  0  0  0  0
 15 41  1  0  0  0  0
 16 21  1  0  0  0  0
 16 42  1  0  0  0  0
 16 43  1  0  0  0  0
 17 44  1  0  0  0  0
 17 45  1  0  0  0  0
 18 22  1  0  0  0  0
 18 46  1  0  0  0  0
 18 47  1  0  0  0  0
 19 48  1  0  0  0  0
 19 49  1  0  0  0  0
 19 50  1  0  0  0  0
 20 51  1  0  0  0  0
 20 52  1  0  0  0  0
 20 53  1  0  0  0  0
 21 22  1  0  0  0  0
 21 54  1  0  0  0  0
 21 55  1  0  0  0  0
 22 56  1  0  0  0  0
 23 24  1  0  0  0  0
 24 57  1  0  0  0  0
 24 58  1  0  0  0  0
 24 59  1  0  0  0  0
 25 26  1  0  0  0  0
 26 60  1  0  0  0  0
 26 61  1  0  0  0  0
 26 62  1  0  0  0  0
M  END
> <PUBCHEM_COMPOUND_CID>
227113

> <PUBCHEM_CONFORMER_RMSD>
0.8

> <PUBCHEM_CONFORMER_DIVERSEORDER>
1
5
2
4
3

> <PUBCHEM_MMFF94_PARTIAL_CHARGES>
9
1 -0.43
13 0.06
2 -0.57
22 0.28
23 0.45
24 0.06
25 0.66
26 0.06
3 -0.57

> <PUBCHEM_EFFECTIVE_ROTOR_COUNT>
5.2

> <PUBCHEM_PHARMACOPHORE_FEATURES>
6
1 2 acceptor
1 3 acceptor
5 6 7 13 14 17 rings
6 4 5 6 7 10 11 rings
6 4 5 8 9 12 15 rings
6 8 9 16 18 21 22 rings

> <PUBCHEM_HEAVY_ATOM_COUNT>
26

> <PUBCHEM_ATOM_DEF_STEREO_COUNT>
8

> <PUBCHEM_ATOM_UDEF_STEREO_COUNT>
0

> <PUBCHEM_BOND_DEF_STEREO_COUNT>
0

> <PUBCHEM_BOND_UDEF_STEREO_COUNT>
0

> <PUBCHEM_ISOTOPIC_ATOM_COUNT>
0

> <PUBCHEM_COMPONENT_COUNT>
1

> <PUBCHEM_CACTVS_TAUTO_COUNT>
3

> <PUBCHEM_CONFORMER_ID>
0003772900000001

> <PUBCHEM_MMFF94_ENERGY>
85.4395

> <PUBCHEM_FEATURE_SELFOVERLAP>
30.537

> <PUBCHEM_SHAPE_FINGERPRINT>
10 15 18341059514944872728
10366900 7 14261348081095791316
11578080 2 13828978232769886492
11646440 116 17676488358655836280
11796584 16 16630525098862636235
12011746 2 18413672405235434359
12166972 35 17918270961377727420
12236239 1 17917709140836862260
12403259 415 18202012027384856276
12516196 113 18333733498859432169
12596602 18 17530678801961099739
12616971 3 17894638036584927349
13402501 40 18411699872405715075
13533116 47 18342459253281348490
13685833 64 18410291414968727115
13782708 43 17917997204103968867
13862211 1 18408887330678903959
14251764 18 18113898238738530745
14341114 176 18411698764103621096
15196674 1 18409451384233490912
17349148 13 17988641934906804336
17492 89 18122910004013622970
1813 80 17489869336336612468
19141452 34 17676491609724767031
20028762 73 18186804677202143030
21130935 74 18260830388727456483
21150785 3 16917062253220260870
21267235 1 18409162220811327874
21682296 61 18337103574712550035
21792934 111 18335713762298462641
221357 26 18408885153104195608
23522609 53 18194650809379277560
23559900 14 18269559343390300153
3004659 81 18131634478054671832
3009799 131 13470687044732028647
335352 9 18409449163292047159
34797466 226 15936684865928937392
350125 39 18410574019838535952
3545911 37 18410293609686394246
4073 2 18129942256829898730
4093350 32 16732698317150797664
465052 167 18410289198770831542
5104073 3 18261117408865396056

> <PUBCHEM_SHAPE_MULTIPOLES>
517.46
16.06
2.19
1.04
12.72
0.68
0.34
-7.47
-1.6
-1.31
-0.36
-0.03
-0.17
0.17

> <PUBCHEM_SHAPE_SELFOVERLAP>
1091.228

> <PUBCHEM_SHAPE_VOLUME>
288.6

> <PUBCHEM_COORDINATE_TYPE>
2
5
10

$$$$

