443564
  -OEChem-07051213023D

 61 62  0     1  0  0  0  0  0999 V2000
    4.5621    0.3598   -0.0111 O   0  0  0  0  0  0  0  0  0  0  0  0
    1.3095    2.0052    1.8300 O   0  0  0  0  0  0  0  0  0  0  0  0
    2.7061   -0.9316   -1.9157 O   0  0  0  0  0  0  0  0  0  0  0  0
    0.3283   -2.5879   -1.5974 O   0  0  0  0  0  0  0  0  0  0  0  0
   -2.5715   -1.2045    0.3623 O   0  0  0  0  0  0  0  0  0  0  0  0
   -2.4374    3.3255   -0.0350 O   0  0  0  0  0  0  0  0  0  0  0  0
   -2.5441   -0.6165   -1.8694 O   0  0  0  0  0  0  0  0  0  0  0  0
    3.1157    0.4557   -0.0546 C   0  0  2  0  0  0  0  0  0  0  0  0
    2.6987    1.8384   -0.5350 C   0  0  0  0  0  0  0  0  0  0  0  0
    3.8983    0.3354    1.2465 C   0  0  0  0  0  0  0  0  0  0  0  0
    1.1713    2.0792   -0.6179 C   0  0  1  0  0  0  0  0  0  0  0  0
    2.5455   -0.7638   -0.7107 C   0  0  0  0  0  0  0  0  0  0  0  0
    0.4662    2.3872    0.7396 C   0  0  1  0  0  0  0  0  0  0  0  0
    1.7834   -1.7505    0.1730 C   0  0  1  0  0  0  0  0  0  0  0  0
   -0.9172    1.6836    0.9335 C   0  0  2  0  0  0  0  0  0  0  0  0
    0.3330   -1.9144   -0.3318 C   0  0  2  0  0  0  0  0  0  0  0  0
   -1.9617    1.9869   -0.1750 C   0  0  1  0  0  0  0  0  0  0  0  0
   -0.6333   -2.7045    0.6011 C   0  0  2  0  0  0  0  0  0  0  0  0
    0.9460    3.2484   -1.5966 C   0  0  0  0  0  0  0  0  0  0  0  0
   -3.1698    1.0173   -0.1840 C   0  0  2  0  0  0  0  0  0  0  0  0
    2.5620   -3.0638    0.2208 C   0  0  0  0  0  0  0  0  0  0  0  0
   -2.1014   -2.5492    0.0982 C   0  0  1  0  0  0  0  0  0  0  0  0
   -1.4707    2.0175    2.3340 C   0  0  0  0  0  0  0  0  0  0  0  0
   -0.4966   -2.3145    2.0786 C   0  0  0  0  0  0  0  0  0  0  0  0
   -2.7368   -0.3519   -0.6893 C   0  0  0  0  0  0  0  0  0  0  0  0
   -4.3104    1.5163   -1.0794 C   0  0  0  0  0  0  0  0  0  0  0  0
   -3.0755   -3.5030    0.7855 C   0  0  0  0  0  0  0  0  0  0  0  0
    3.1305    1.9550   -1.5386 H   0  0  0  0  0  0  0  0  0  0  0  0
    3.1632    2.6202    0.0800 H   0  0  0  0  0  0  0  0  0  0  0  0
    3.9973    1.2071    1.8816 H   0  0  0  0  0  0  0  0  0  0  0  0
    3.8974   -0.6001    1.7903 H   0  0  0  0  0  0  0  0  0  0  0  0
    0.7073    1.1948   -1.0667 H   0  0  0  0  0  0  0  0  0  0  0  0
    0.3264    3.4703    0.8390 H   0  0  0  0  0  0  0  0  0  0  0  0
    1.7546   -1.3191    1.1778 H   0  0  0  0  0  0  0  0  0  0  0  0
   -0.7169    0.6100    0.9325 H   0  0  0  0  0  0  0  0  0  0  0  0
   -0.0762   -0.9191   -0.5152 H   0  0  0  0  0  0  0  0  0  0  0  0
   -1.4875    1.9174   -1.1574 H   0  0  0  0  0  0  0  0  0  0  0  0
   -0.3817   -3.7705    0.5124 H   0  0  0  0  0  0  0  0  0  0  0  0
   -0.1095    3.5120   -1.6944 H   0  0  0  0  0  0  0  0  0  0  0  0
    1.4797    4.1453   -1.2626 H   0  0  0  0  0  0  0  0  0  0  0  0
    1.3128    2.9915   -2.5964 H   0  0  0  0  0  0  0  0  0  0  0  0
   -3.5987    0.9089    0.8178 H   0  0  0  0  0  0  0  0  0  0  0  0
    2.6488   -3.5213   -0.7706 H   0  0  0  0  0  0  0  0  0  0  0  0
    3.5809   -2.8954    0.5868 H   0  0  0  0  0  0  0  0  0  0  0  0
    2.0831   -3.7858    0.8888 H   0  0  0  0  0  0  0  0  0  0  0  0
   -2.1434   -2.7711   -0.9748 H   0  0  0  0  0  0  0  0  0  0  0  0
   -2.4423    1.5499    2.5126 H   0  0  0  0  0  0  0  0  0  0  0  0
   -0.8015    1.6481    3.1185 H   0  0  0  0  0  0  0  0  0  0  0  0
   -1.5788    3.0979    2.4755 H   0  0  0  0  0  0  0  0  0  0  0  0
    1.3069    1.0344    1.8816 H   0  0  0  0  0  0  0  0  0  0  0  0
    0.4913   -2.5784    2.4680 H   0  0  0  0  0  0  0  0  0  0  0  0
   -0.6473   -1.2432    2.2339 H   0  0  0  0  0  0  0  0  0  0  0  0
   -1.2174   -2.8491    2.7037 H   0  0  0  0  0  0  0  0  0  0  0  0
    0.8327   -2.0433   -2.2248 H   0  0  0  0  0  0  0  0  0  0  0  0
   -4.7692    2.4222   -0.6707 H   0  0  0  0  0  0  0  0  0  0  0  0
   -3.9545    1.7405   -2.0912 H   0  0  0  0  0  0  0  0  0  0  0  0
   -5.0965    0.7578   -1.1667 H   0  0  0  0  0  0  0  0  0  0  0  0
   -4.0636   -3.4242    0.3179 H   0  0  0  0  0  0  0  0  0  0  0  0
   -2.7404   -4.5414    0.7070 H   0  0  0  0  0  0  0  0  0  0  0  0
   -3.2212   -3.2504    1.8403 H   0  0  0  0  0  0  0  0  0  0  0  0
   -3.0289    3.3596    0.7355 H   0  0  0  0  0  0  0  0  0  0  0  0
  1  8  1  0  0  0  0
  1 10  1  0  0  0  0
  2 13  1  0  0  0  0
  2 50  1  0  0  0  0
  3 12  2  0  0  0  0
  4 16  1  0  0  0  0
  4 54  1  0  0  0  0
  5 22  1  0  0  0  0
  5 25  1  0  0  0  0
  6 17  1  0  0  0  0
  6 61  1  0  0  0  0
  7 25  2  0  0  0  0
  8  9  1  0  0  0  0
  8 10  1  0  0  0  0
  8 12  1  0  0  0  0
  9 11  1  0  0  0  0
  9 28  1  0  0  0  0
  9 29  1  0  0  0  0
 10 30  1  0  0  0  0
 10 31  1  0  0  0  0
 11 13  1  0  0  0  0
 11 19  1  0  0  0  0
 11 32  1  0  0  0  0
 12 14  1  0  0  0  0
 13 15  1  0  0  0  0
 13 33  1  0  0  0  0
 14 16  1  0  0  0  0
 14 21  1  0  0  0  0
 14 34  1  0  0  0  0
 15 17  1  0  0  0  0
 15 23  1  0  0  0  0
 15 35  1  0  0  0  0
 16 18  1  0  0  0  0
 16 36  1  0  0  0  0
 17 20  1  0  0  0  0
 17 37  1  0  0  0  0
 18 22  1  0  0  0  0
 18 24  1  0  0  0  0
 18 38  1  0  0  0  0
 19 39  1  0  0  0  0
 19 40  1  0  0  0  0
 19 41  1  0  0  0  0
 20 25  1  0  0  0  0
 20 26  1  0  0  0  0
 20 42  1  0  0  0  0
 21 43  1  0  0  0  0
 21 44  1  0  0  0  0
 21 45  1  0  0  0  0
 22 27  1  0  0  0  0
 22 46  1  0  0  0  0
 23 47  1  0  0  0  0
 23 48  1  0  0  0  0
 23 49  1  0  0  0  0
 24 51  1  0  0  0  0
 24 52  1  0  0  0  0
 24 53  1  0  0  0  0
 26 55  1  0  0  0  0
 26 56  1  0  0  0  0
 26 57  1  0  0  0  0
 27 58  1  0  0  0  0
 27 59  1  0  0  0  0
 27 60  1  0  0  0  0
M  END
> <PUBCHEM_COMPOUND_CID>
443564

> <PUBCHEM_CONFORMER_RMSD>
0.6

> <PUBCHEM_CONFORMER_DIVERSEORDER>
1
7
8
9
11
6
5
2
3
12
4
10

> <PUBCHEM_MMFF94_PARTIAL_CHARGES>
23
1 -0.3
10 -0.05
12 0.51
13 0.28
14 0.06
16 0.28
17 0.28
2 -0.68
20 0.06
22 0.28
25 0.66
3 -0.57
30 0.1
31 0.1
4 -0.68
5 -0.43
50 0.4
54 0.4
6 -0.68
61 0.4
7 -0.57
8 0.05
9 0.09

> <PUBCHEM_EFFECTIVE_ROTOR_COUNT>
2.6

> <PUBCHEM_PHARMACOPHORE_FEATURES>
9
1 1 acceptor
1 2 acceptor
1 2 donor
1 3 acceptor
1 4 acceptor
1 4 donor
1 6 acceptor
1 6 donor
1 7 acceptor

> <PUBCHEM_HEAVY_ATOM_COUNT>
27

> <PUBCHEM_ATOM_DEF_STEREO_COUNT>
10

> <PUBCHEM_ATOM_UDEF_STEREO_COUNT>
0

> <PUBCHEM_BOND_DEF_STEREO_COUNT>
0

> <PUBCHEM_BOND_UDEF_STEREO_COUNT>
0

> <PUBCHEM_ISOTOPIC_ATOM_COUNT>
0

> <PUBCHEM_COMPONENT_COUNT>
1

> <PUBCHEM_CACTVS_TAUTO_COUNT>
2

> <PUBCHEM_CONFORMER_ID>
0006C4AC00000001

> <PUBCHEM_MMFF94_ENERGY>
72.2586

> <PUBCHEM_FEATURE_SELFOVERLAP>
45.673

> <PUBCHEM_SHAPE_FINGERPRINT>
104564 63 18192697956937813000
10675989 125 17689164829786985984
10759866 29 17843118109248486100
108634 29 18408318899814788142
1100329 8 17833271195956889090
11370993 70 18339933704625804909
12156800 1 15455828891522275850
12539773 59 17463991407180831037
12596599 1 17462281653387559860
13122387 1 18411697694672465134
13140716 1 18265329500118855033
13402501 40 18050003298871707115
14114211 80 17042287590496090447
14251745 187 18334304157952095832
14363568 33 16972499358361433953
14725015 67 18196100940893695979
14787075 74 17750536004485087536
14931854 50 18337677515481741549
17093844 170 18339938064102071116
17357779 13 18115301181690438702
17492 54 18270675510162518517
19930381 70 17330837916047370219
20600515 1 18341622520637734556
20691752 17 18127685152662920136
20764821 26 18052542071383733191
20775438 99 17756468943780744735
20905425 154 18336827498367247175
23559900 14 18408605894478393626
238 59 18127122194140605001
27425 322 16558477357801906093
2818148 4 17614509940264942038
3052486 1 18343010078700166878
35225 105 17269797587327831983
3524813 1 18051129194378152303
469060 322 17986366946158811955

> <PUBCHEM_SHAPE_MULTIPOLES>
514.56
6.33
4.77
1.74
0.97
0.99
-0.38
-0.37
0.91
-1.75
-0.36
-0.11
-0.34
0.4

> <PUBCHEM_SHAPE_SELFOVERLAP>
1030.268

> <PUBCHEM_SHAPE_VOLUME>
302

> <PUBCHEM_COORDINATE_TYPE>
2
5
10

$$$$

