439290
  -OEChem-07051212443D

 21 20  0     1  0  0  0  0  0999 V2000
   -0.6901   -0.7813   -1.0942 O   0  0  0  0  0  0  0  0  0  0  0  0
   -1.7916    1.7558   -0.4663 O   0  0  0  0  0  0  0  0  0  0  0  0
   -3.2955   -1.1478    1.0344 O   0  0  0  0  0  0  0  0  0  0  0  0
    1.7924   -1.5571   -0.1875 O   0  0  0  0  0  0  0  0  0  0  0  0
   -3.9368    0.1541   -0.7103 O   0  0  0  0  0  0  0  0  0  0  0  0
    4.2061   -0.6365   -0.1952 O   0  0  0  0  0  0  0  0  0  0  0  0
    3.4378    1.4578    0.3065 O   0  0  0  0  0  0  0  0  0  0  0  0
   -0.6091   -0.2338    0.2260 C   0  0  2  0  0  0  0  0  0  0  0  0
   -1.8459    0.6510    0.4263 C   0  0  2  0  0  0  0  0  0  0  0  0
    0.7112    0.5314    0.3593 C   0  0  0  0  0  0  0  0  0  0  0  0
    1.8908   -0.3624    0.0533 C   0  0  0  0  0  0  0  0  0  0  0  0
   -3.1330   -0.1099    0.1743 C   0  0  0  0  0  0  0  0  0  0  0  0
    3.2636    0.2787    0.0734 C   0  0  0  0  0  0  0  0  0  0  0  0
   -0.6284   -1.0794    0.9229 H   0  0  0  0  0  0  0  0  0  0  0  0
   -1.8700    1.0509    1.4461 H   0  0  0  0  0  0  0  0  0  0  0  0
    0.8192    0.9273    1.3740 H   0  0  0  0  0  0  0  0  0  0  0  0
    0.7478    1.3582   -0.3591 H   0  0  0  0  0  0  0  0  0  0  0  0
   -0.6803   -0.0400   -1.7239 H   0  0  0  0  0  0  0  0  0  0  0  0
   -2.5230    2.3542   -0.2362 H   0  0  0  0  0  0  0  0  0  0  0  0
   -4.1249   -1.6416    0.8592 H   0  0  0  0  0  0  0  0  0  0  0  0
    5.1088   -0.2528   -0.1889 H   0  0  0  0  0  0  0  0  0  0  0  0
  1  8  1  0  0  0  0
  1 18  1  0  0  0  0
  2  9  1  0  0  0  0
  2 19  1  0  0  0  0
  3 12  1  0  0  0  0
  3 20  1  0  0  0  0
  4 11  2  0  0  0  0
  5 12  2  0  0  0  0
  6 13  1  0  0  0  0
  6 21  1  0  0  0  0
  7 13  2  0  0  0  0
  8  9  1  0  0  0  0
  8 10  1  0  0  0  0
  8 14  1  0  0  0  0
  9 12  1  0  0  0  0
  9 15  1  0  0  0  0
 10 11  1  0  0  0  0
 10 16  1  0  0  0  0
 10 17  1  0  0  0  0
 11 13  1  0  0  0  0
M  END
> <PUBCHEM_COMPOUND_CID>
439290

> <PUBCHEM_CONFORMER_RMSD>
0.6

> <PUBCHEM_CONFORMER_DIVERSEORDER>
1
52
11
43
29
24
30
45
51
17
7
3
37
14
18
49
32
27
13
53
56
38
57
2
16
34
35
19
4
54
31
55
21
15
8
46
44
10
25
33
40
5
42
48
39
28
36
12
26
23
22
47
9
50
20
41
6

> <PUBCHEM_MMFF94_PARTIAL_CHARGES>
17
1 -0.68
10 0.06
11 0.51
12 0.66
13 0.72
18 0.4
19 0.4
2 -0.68
20 0.5
21 0.5
3 -0.65
4 -0.57
5 -0.57
6 -0.65
7 -0.57
8 0.28
9 0.34

> <PUBCHEM_EFFECTIVE_ROTOR_COUNT>
5

> <PUBCHEM_PHARMACOPHORE_FEATURES>
11
1 1 acceptor
1 1 donor
1 2 acceptor
1 2 donor
1 3 acceptor
1 4 acceptor
1 5 acceptor
1 6 acceptor
1 7 acceptor
3 3 5 12 anion
3 6 7 13 anion

> <PUBCHEM_HEAVY_ATOM_COUNT>
13

> <PUBCHEM_ATOM_DEF_STEREO_COUNT>
2

> <PUBCHEM_ATOM_UDEF_STEREO_COUNT>
0

> <PUBCHEM_BOND_DEF_STEREO_COUNT>
0

> <PUBCHEM_BOND_UDEF_STEREO_COUNT>
0

> <PUBCHEM_ISOTOPIC_ATOM_COUNT>
0

> <PUBCHEM_COMPONENT_COUNT>
1

> <PUBCHEM_CACTVS_TAUTO_COUNT>
2

> <PUBCHEM_CONFORMER_ID>
0006B3FA00000001

> <PUBCHEM_MMFF94_ENERGY>
15.7273

> <PUBCHEM_FEATURE_SELFOVERLAP>
55.963

> <PUBCHEM_SHAPE_FINGERPRINT>
10608611 8 18411985792578845680
11062470 55 12823295701797932114
12032990 46 18408878551433454570
12932764 1 17385736810652058320
14325111 11 18335701671453522248
14993402 34 17603309236919285205
15309172 13 17530678810229488263
15375462 6 18411136982455020956
15775835 57 18040716948095989854
170605 34 18410575080869382082
17844478 74 18411132537169345673
18175812 5 18342174457767221791
18186145 218 18201716288446910128
190213 19 18412262826627580352
200 152 17968103035882350645
20201158 50 18411698802790007827
20279233 1 18272086110830404339
20528008 55 18342460330917128475
20645477 56 17775006847126246589
20645477 70 18189339129066538703
22485316 2 17561086903580317146
23402539 116 17918001550752972134
23402655 69 18260833729984918860
23557571 272 18130503136556173389
3248919 1 16271632481710920506

> <PUBCHEM_SHAPE_MULTIPOLES>
226.45
7.21
1.3
0.8
1.45
0.17
-0.02
-0.1
0.05
0.2
-0.03
-0.45
-0.09
0.47

> <PUBCHEM_SHAPE_SELFOVERLAP>
447.398

> <PUBCHEM_SHAPE_VOLUME>
132.8

> <PUBCHEM_COORDINATE_TYPE>
2
5
10

$$$$

