5282103
  -OEChem-07051213033D

 32 32  0     0  0  0  0  0  0999 V2000
    2.5174   -1.9192   -0.3362 O   0  0  0  0  0  0  0  0  0  0  0  0
    4.2680    0.1915    0.1141 O   0  0  0  0  0  0  0  0  0  0  0  0
   -3.5572    0.5049    0.3681 O   0  0  0  0  0  0  0  0  0  0  0  0
    0.1699    0.8559    0.0530 C   0  0  0  0  0  0  0  0  0  0  0  0
    2.0433   -0.6584   -0.1340 C   0  0  0  0  0  0  0  0  0  0  0  0
    2.9221    0.4007    0.0934 C   0  0  0  0  0  0  0  0  0  0  0  0
    0.6672   -0.4307   -0.1540 C   0  0  0  0  0  0  0  0  0  0  0  0
    1.0487    1.9150    0.2804 C   0  0  0  0  0  0  0  0  0  0  0  0
    2.4247    1.6873    0.3008 C   0  0  0  0  0  0  0  0  0  0  0  0
   -1.2648    1.0932    0.0316 C   0  0  0  0  0  0  0  0  0  0  0  0
   -2.2189    0.2171    0.4038 C   0  0  0  0  0  0  0  0  0  0  0  0
    2.6866   -2.7409    0.8173 C   0  0  0  0  0  0  0  0  0  0  0  0
    4.9623    0.3155   -1.1256 C   0  0  0  0  0  0  0  0  0  0  0  0
   -4.3263   -0.6629    0.1325 C   0  0  0  0  0  0  0  0  0  0  0  0
   -5.7709   -0.2884    0.1042 C   0  0  0  0  0  0  0  0  0  0  0  0
   -6.5720   -0.4804   -0.9495 C   0  0  0  0  0  0  0  0  0  0  0  0
    0.0046   -1.2711   -0.3478 H   0  0  0  0  0  0  0  0  0  0  0  0
    0.6786    2.9241    0.4452 H   0  0  0  0  0  0  0  0  0  0  0  0
    3.1036    2.5168    0.4794 H   0  0  0  0  0  0  0  0  0  0  0  0
   -1.5776    2.0807   -0.3015 H   0  0  0  0  0  0  0  0  0  0  0  0
   -1.9988   -0.7733    0.7800 H   0  0  0  0  0  0  0  0  0  0  0  0
    1.7268   -2.8995    1.3191 H   0  0  0  0  0  0  0  0  0  0  0  0
    3.4032   -2.2892    1.5106 H   0  0  0  0  0  0  0  0  0  0  0  0
    3.0765   -3.7098    0.4935 H   0  0  0  0  0  0  0  0  0  0  0  0
    4.8622    1.3313   -1.5211 H   0  0  0  0  0  0  0  0  0  0  0  0
    4.5851   -0.4102   -1.8530 H   0  0  0  0  0  0  0  0  0  0  0  0
    6.0217    0.1126   -0.9466 H   0  0  0  0  0  0  0  0  0  0  0  0
   -4.0217   -1.1296   -0.8134 H   0  0  0  0  0  0  0  0  0  0  0  0
   -4.1775   -1.3870    0.9441 H   0  0  0  0  0  0  0  0  0  0  0  0
   -6.1883    0.1626    1.0007 H   0  0  0  0  0  0  0  0  0  0  0  0
   -7.6155   -0.1880   -0.9063 H   0  0  0  0  0  0  0  0  0  0  0  0
   -6.2064   -0.9281   -1.8670 H   0  0  0  0  0  0  0  0  0  0  0  0
  1  5  1  0  0  0  0
  1 12  1  0  0  0  0
  2  6  1  0  0  0  0
  2 13  1  0  0  0  0
  3 11  1  0  0  0  0
  3 14  1  0  0  0  0
  4  7  2  0  0  0  0
  4  8  1  0  0  0  0
  4 10  1  0  0  0  0
  5  6  2  0  0  0  0
  5  7  1  0  0  0  0
  6  9  1  0  0  0  0
  7 17  1  0  0  0  0
  8  9  2  0  0  0  0
  8 18  1  0  0  0  0
  9 19  1  0  0  0  0
 10 11  2  0  0  0  0
 10 20  1  0  0  0  0
 11 21  1  0  0  0  0
 12 22  1  0  0  0  0
 12 23  1  0  0  0  0
 12 24  1  0  0  0  0
 13 25  1  0  0  0  0
 13 26  1  0  0  0  0
 13 27  1  0  0  0  0
 14 15  1  0  0  0  0
 14 28  1  0  0  0  0
 14 29  1  0  0  0  0
 15 16  2  0  0  0  0
 15 30  1  0  0  0  0
 16 31  1  0  0  0  0
 16 32  1  0  0  0  0
M  END
> <PUBCHEM_COMPOUND_CID>
5282103

> <PUBCHEM_CONFORMER_RMSD>
0.8

> <PUBCHEM_CONFORMER_DIVERSEORDER>
1
14
12
20
7
9
6
16
5
8
15
13
19
11
2
10
4
18
17
3

> <PUBCHEM_MMFF94_PARTIAL_CHARGES>
24
1 -0.36
10 -0.18
11 -0.07
12 0.28
13 0.28
14 0.42
15 -0.29
16 -0.3
17 0.15
18 0.15
19 0.15
2 -0.36
20 0.15
21 0.15
3 -0.36
30 0.15
31 0.15
32 0.15
4 0.03
5 0.08
6 0.08
7 -0.15
8 -0.15
9 -0.15

> <PUBCHEM_EFFECTIVE_ROTOR_COUNT>
6

> <PUBCHEM_PHARMACOPHORE_FEATURES>
5
1 1 acceptor
1 16 hydrophobe
1 2 acceptor
1 3 acceptor
6 4 5 6 7 8 9 rings

> <PUBCHEM_HEAVY_ATOM_COUNT>
16

> <PUBCHEM_ATOM_DEF_STEREO_COUNT>
0

> <PUBCHEM_ATOM_UDEF_STEREO_COUNT>
0

> <PUBCHEM_BOND_DEF_STEREO_COUNT>
1

> <PUBCHEM_BOND_UDEF_STEREO_COUNT>
0

> <PUBCHEM_ISOTOPIC_ATOM_COUNT>
0

> <PUBCHEM_COMPONENT_COUNT>
1

> <PUBCHEM_CACTVS_TAUTO_COUNT>
1

> <PUBCHEM_CONFORMER_ID>
0050993700000001

> <PUBCHEM_MMFF94_ENERGY>
62.8589

> <PUBCHEM_FEATURE_SELFOVERLAP>
25.376

> <PUBCHEM_SHAPE_FINGERPRINT>
10366900 7 18340760481487598185
10447042 23 18410583906942961407
11471102 20 18410009901363976800
11806522 49 18409726274582095184
12011746 2 18411130325319158590
12107183 9 17757543437086091553
12236239 1 17385720284055896065
12596602 18 16805321068174575707
13167823 11 18113621149725087783
13464513 79 18113896057285424180
13533116 47 18411141368234231003
13668630 136 17603867776542583399
13836976 161 18341889658870978676
13862211 1 18336262427348639694
14251717 144 18410292510443941363
14252887 29 17676477372140165540
14573314 32 18060145370910873957
14576447 43 18407477764771186013
15183329 4 18334863849048738725
15475509 35 14996559663886823526
15477762 27 18410572898604073952
17834072 33 18260831475680774917
19433438 28 5761653677242582115
200 152 18113900455659099721
20281475 54 18339640173659829641
20645477 70 18410576227478216895
21267235 1 18260256439494093397
212847 35 10375864186635164527
22224240 67 18262248716241435656
23402539 116 13901907774346807915
23557571 272 17275111651879501965
23559900 14 18268431244149154065
23596394 208 17988655137462465271
239999 70 18113894931930094188
2871803 45 18413386553201784906
29717793 49 17676201364852339437
33824 294 18411702075592043138
351380 3 17894914023147295647
4047638 21 9583520923219007737
4072396 5 18343032077527912442
42630746 31 18188213104916848128
465052 167 18040429984393843855
5104073 3 18335137652607198025
54040823 5 18408320003795306914
602551 16 14707781597795029733
9999458 23 18339642235755886836

> <PUBCHEM_SHAPE_MULTIPOLES>
311.66
12.5
1.95
0.83
20.74
0.99
-0.11
2.66
-3.21
-2.34
0.46
-0.12
0.09
-0.42

> <PUBCHEM_SHAPE_SELFOVERLAP>
630.648

> <PUBCHEM_SHAPE_VOLUME>
183

> <PUBCHEM_COORDINATE_TYPE>
2
5
10

$$$$

