6596
  -OEChem-06261201243D

 10  9  0     0  0  0  0  0  0999 V2000
    1.4283    1.0014    0.9697 S   0  0  0  0  0  0  0  0  0  0  0  0
   -1.4207   -0.9538    1.0192 S   0  0  0  0  0  0  0  0  0  0  0  0
    1.3231   -1.0015   -0.8490 N   0  0  0  0  0  0  0  0  0  0  0  0
   -1.3354    0.9587   -0.8857 N   0  0  0  0  0  0  0  0  0  0  0  0
    0.7256   -0.1269   -0.1242 C   0  0  0  0  0  0  0  0  0  0  0  0
   -0.7208    0.1222   -0.1300 C   0  0  0  0  0  0  0  0  0  0  0  0
    2.7068    0.6303    0.8099 H   0  0  0  0  0  0  0  0  0  0  0  0
   -2.6999   -0.5910    0.8466 H   0  0  0  0  0  0  0  0  0  0  0  0
    2.3318   -0.9571   -0.6700 H   0  0  0  0  0  0  0  0  0  0  0  0
   -2.3415    0.9134   -0.6929 H   0  0  0  0  0  0  0  0  0  0  0  0
  1  5  1  0  0  0  0
  1  7  1  0  0  0  0
  2  6  1  0  0  0  0
  2  8  1  0  0  0  0
  3  5  2  0  0  0  0
  3  9  1  0  0  0  0
  4  6  2  0  0  0  0
  4 10  1  0  0  0  0
  5  6  1  0  0  0  0
M  END
> <PUBCHEM_COMPOUND_CID>
6596

> <PUBCHEM_CONFORMER_RMSD>
0.4

> <PUBCHEM_CONFORMER_DIVERSEORDER>
1
3
2
4

> <PUBCHEM_MMFF94_PARTIAL_CHARGES>
10
1 -0.32
10 0.4
2 -0.32
3 -0.85
4 -0.85
5 0.59
6 0.59
7 0.18
8 0.18
9 0.4

> <PUBCHEM_EFFECTIVE_ROTOR_COUNT>
1

> <PUBCHEM_PHARMACOPHORE_FEATURES>
6
1 3 acceptor
1 3 donor
1 4 acceptor
1 4 donor
3 1 3 5 anion
3 2 4 6 anion

> <PUBCHEM_HEAVY_ATOM_COUNT>
6

> <PUBCHEM_ATOM_DEF_STEREO_COUNT>
0

> <PUBCHEM_ATOM_UDEF_STEREO_COUNT>
0

> <PUBCHEM_BOND_DEF_STEREO_COUNT>
0

> <PUBCHEM_BOND_UDEF_STEREO_COUNT>
0

> <PUBCHEM_ISOTOPIC_ATOM_COUNT>
0

> <PUBCHEM_COMPONENT_COUNT>
1

> <PUBCHEM_CACTVS_TAUTO_COUNT>
3

> <PUBCHEM_CONFORMER_ID>
000019C400000001

> <PUBCHEM_MMFF94_ENERGY>
16.1023

> <PUBCHEM_FEATURE_SELFOVERLAP>
30.493

> <PUBCHEM_SHAPE_FINGERPRINT>
20096714 4 15864894435925387536
21040471 1 17487627539759897165
24536 1 18411982459557422065
29004967 10 17896301666603087034
5943 1 8490375437602521153

> <PUBCHEM_SHAPE_MULTIPOLES>
121.21
2.11
1.21
1.2
0.01
0.04
-0.15
-0.04
-0.61
0.08
0.22
-0.09
-0.03
0.71

> <PUBCHEM_SHAPE_SELFOVERLAP>
208.99

> <PUBCHEM_SHAPE_VOLUME>
82.3

> <PUBCHEM_COORDINATE_TYPE>
2
5
10

$$$$

