11116489
  -OEChem-07051213113D

 30 30  0     1  0  0  0  0  0999 V2000
    0.6189    0.8537   -0.1986 O   0  0  0  0  0  0  0  0  0  0  0  0
   -0.7388    2.6118   -0.5542 O   0  0  0  0  0  0  0  0  0  0  0  0
    0.8975   -0.4361    0.3948 C   0  0  1  0  0  0  0  0  0  0  0  0
    0.1639   -1.5460   -0.3594 C   0  0  0  0  0  0  0  0  0  0  0  0
   -2.1660   -0.4566   -0.1924 C   0  0  2  0  0  0  0  0  0  0  0  0
   -1.2990   -1.6978    0.0578 C   0  0  0  0  0  0  0  0  0  0  0  0
    2.4083   -0.6267    0.2819 C   0  0  0  0  0  0  0  0  0  0  0  0
   -1.6806    0.7509    0.6130 C   0  0  0  0  0  0  0  0  0  0  0  0
   -3.6211   -0.7738    0.1677 C   0  0  0  0  0  0  0  0  0  0  0  0
   -0.5713    1.4859   -0.0910 C   0  0  0  0  0  0  0  0  0  0  0  0
    2.8419   -0.6240   -1.1822 C   0  0  0  0  0  0  0  0  0  0  0  0
    3.1463    0.4587    1.0624 C   0  0  0  0  0  0  0  0  0  0  0  0
    0.6235   -0.4238    1.4564 H   0  0  0  0  0  0  0  0  0  0  0  0
    0.6536   -2.5106   -0.1775 H   0  0  0  0  0  0  0  0  0  0  0  0
    0.1844   -1.3580   -1.4398 H   0  0  0  0  0  0  0  0  0  0  0  0
   -2.1330   -0.2196   -1.2641 H   0  0  0  0  0  0  0  0  0  0  0  0
   -1.7210   -2.5461   -0.4966 H   0  0  0  0  0  0  0  0  0  0  0  0
   -1.3424   -1.9740    1.1196 H   0  0  0  0  0  0  0  0  0  0  0  0
    2.6810   -1.5951    0.7208 H   0  0  0  0  0  0  0  0  0  0  0  0
   -1.3837    0.4964    1.6355 H   0  0  0  0  0  0  0  0  0  0  0  0
   -2.4997    1.4748    0.7207 H   0  0  0  0  0  0  0  0  0  0  0  0
   -3.9877   -1.6304   -0.4079 H   0  0  0  0  0  0  0  0  0  0  0  0
   -3.7246   -1.0102    1.2323 H   0  0  0  0  0  0  0  0  0  0  0  0
   -4.2723    0.0778   -0.0561 H   0  0  0  0  0  0  0  0  0  0  0  0
    2.5530    0.2947   -1.7033 H   0  0  0  0  0  0  0  0  0  0  0  0
    3.9332   -0.7031   -1.2504 H   0  0  0  0  0  0  0  0  0  0  0  0
    2.4354   -1.4768   -1.7341 H   0  0  0  0  0  0  0  0  0  0  0  0
    2.9798    1.4553    0.6402 H   0  0  0  0  0  0  0  0  0  0  0  0
    4.2258    0.2721    1.0504 H   0  0  0  0  0  0  0  0  0  0  0  0
    2.8255    0.4741    2.1094 H   0  0  0  0  0  0  0  0  0  0  0  0
  1  3  1  0  0  0  0
  1 10  1  0  0  0  0
  2 10  2  0  0  0  0
  3  4  1  0  0  0  0
  3  7  1  0  0  0  0
  3 13  1  0  0  0  0
  4  6  1  0  0  0  0
  4 14  1  0  0  0  0
  4 15  1  0  0  0  0
  5  6  1  0  0  0  0
  5  8  1  0  0  0  0
  5  9  1  0  0  0  0
  5 16  1  0  0  0  0
  6 17  1  0  0  0  0
  6 18  1  0  0  0  0
  7 11  1  0  0  0  0
  7 12  1  0  0  0  0
  7 19  1  0  0  0  0
  8 10  1  0  0  0  0
  8 20  1  0  0  0  0
  8 21  1  0  0  0  0
  9 22  1  0  0  0  0
  9 23  1  0  0  0  0
  9 24  1  0  0  0  0
 11 25  1  0  0  0  0
 11 26  1  0  0  0  0
 11 27  1  0  0  0  0
 12 28  1  0  0  0  0
 12 29  1  0  0  0  0
 12 30  1  0  0  0  0
M  END
> <PUBCHEM_COMPOUND_CID>
11116489

> <PUBCHEM_CONFORMER_RMSD>
0.6

> <PUBCHEM_CONFORMER_DIVERSEORDER>
1
4
3
2

> <PUBCHEM_MMFF94_PARTIAL_CHARGES>
5
1 -0.43
10 0.66
2 -0.57
3 0.28
8 0.06

> <PUBCHEM_EFFECTIVE_ROTOR_COUNT>
2.2

> <PUBCHEM_PHARMACOPHORE_FEATURES>
3
1 2 acceptor
3 7 11 12 hydrophobe
7 1 3 4 5 6 8 10 rings

> <PUBCHEM_HEAVY_ATOM_COUNT>
12

> <PUBCHEM_ATOM_DEF_STEREO_COUNT>
2

> <PUBCHEM_ATOM_UDEF_STEREO_COUNT>
0

> <PUBCHEM_BOND_DEF_STEREO_COUNT>
0

> <PUBCHEM_BOND_UDEF_STEREO_COUNT>
0

> <PUBCHEM_ISOTOPIC_ATOM_COUNT>
0

> <PUBCHEM_COMPONENT_COUNT>
1

> <PUBCHEM_CACTVS_TAUTO_COUNT>
1

> <PUBCHEM_CONFORMER_ID>
00A99FC900000001

> <PUBCHEM_MMFF94_ENERGY>
24.2665

> <PUBCHEM_FEATURE_SELFOVERLAP>
15.223

> <PUBCHEM_SHAPE_FINGERPRINT>
10219947 1 18335701615909234123
10353120 184 18342452638509505567
10857977 72 18410300198176789050
11132069 177 18261117365319337603
11206711 2 18339360884910948837
12032990 46 18410566267443860587
12423570 1 17980736535864665321
12524768 44 18262521377364914630
12932764 1 18266733765561987610
13380535 21 17902778992628529649
14993402 34 18411695457216257999
15219456 202 17822013142366654818
15775835 57 18266451195263095442
161256 15 18261390087421925614
16945 1 18342454854659798210
18380122 1 18260557727154940520
193761 8 17762902465017626099
20388701 513 18339656589161835520
20511035 2 17829611660761926891
20871998 184 18334580174046270783
21040471 1 17979638158334894220
21501502 16 18121493828303859830
22802520 49 18043525234132774326
23402539 116 18262535713828897686
23419403 2 16454950559512557247
23532345 42 18337391539205237099
23552423 10 17692811493549368119
241688 4 18411138013331620113
2748010 2 18265897947540724703
5084963 1 18261385706534028722
5255222 1 17975967992621166370
6333449 129 18336835302306856808
7364860 26 17902225611883667713
81228 2 18341325699315698305

> <PUBCHEM_SHAPE_MULTIPOLES>
235.22
4.79
1.94
0.91
0.27
0.89
-0.03
-1.05
0.48
-0.68
-0.35
0.58
0.03
0.35

> <PUBCHEM_SHAPE_SELFOVERLAP>
459.42

> <PUBCHEM_SHAPE_VOLUME>
141.6

> <PUBCHEM_COORDINATE_TYPE>
2
5
10

$$$$

