5281429
  -OEChem-07051212573D

 39 41  0     1  0  0  0  0  0999 V2000
    1.8583    2.6636   -0.4615 O   0  0  0  0  0  0  0  0  0  0  0  0
   -2.3722   -1.2252    0.7592 O   0  0  0  0  0  0  0  0  0  0  0  0
    4.2871   -1.5433   -0.0771 O   0  0  0  0  0  0  0  0  0  0  0  0
   -4.5633   -0.8663    0.1501 O   0  0  0  0  0  0  0  0  0  0  0  0
    2.0483    1.4084    0.2028 C   0  0  1  0  0  0  0  0  0  0  0  0
    0.8990    1.6313   -0.7365 C   0  0  1  0  0  0  0  0  0  0  0  0
   -0.4809    1.8601   -0.2101 C   0  0  0  0  0  0  0  0  0  0  0  0
    3.2038    0.5816   -0.2538 C   0  0  0  0  0  0  0  0  0  0  0  0
   -1.3230    0.5816   -0.3261 C   0  0  1  0  0  0  0  0  0  0  0  0
    1.9214    1.5994    1.6792 C   0  0  0  0  0  0  0  0  0  0  0  0
   -1.2056   -0.3814    0.8576 C   0  0  2  0  0  0  0  0  0  0  0  0
    3.0369   -0.8864    0.1579 C   0  0  1  0  0  0  0  0  0  0  0  0
   -2.8123    0.7377   -0.3231 C   0  0  0  0  0  0  0  0  0  0  0  0
    0.0509   -1.2587    1.0071 C   0  0  0  0  0  0  0  0  0  0  0  0
    1.9632   -1.6158   -0.6151 C   0  0  0  0  0  0  0  0  0  0  0  0
    0.6789   -1.8217   -0.2516 C   0  0  0  0  0  0  0  0  0  0  0  0
   -3.3997   -0.5135    0.2090 C   0  0  0  0  0  0  0  0  0  0  0  0
   -3.5893    1.7636   -0.6796 C   0  0  0  0  0  0  0  0  0  0  0  0
   -0.2014   -2.7152   -1.0884 C   0  0  0  0  0  0  0  0  0  0  0  0
    0.9188    1.2120   -1.7338 H   0  0  0  0  0  0  0  0  0  0  0  0
   -0.9132    2.6410   -0.8471 H   0  0  0  0  0  0  0  0  0  0  0  0
   -0.5075    2.2669    0.8053 H   0  0  0  0  0  0  0  0  0  0  0  0
    4.1326    0.9804    0.1751 H   0  0  0  0  0  0  0  0  0  0  0  0
    3.3391    0.6509   -1.3417 H   0  0  0  0  0  0  0  0  0  0  0  0
   -1.0806    0.0720   -1.2665 H   0  0  0  0  0  0  0  0  0  0  0  0
    2.0991    2.6474    1.9503 H   0  0  0  0  0  0  0  0  0  0  0  0
    0.9400    1.3332    2.0740 H   0  0  0  0  0  0  0  0  0  0  0  0
    2.6617    1.0164    2.2367 H   0  0  0  0  0  0  0  0  0  0  0  0
   -1.3193    0.1652    1.8061 H   0  0  0  0  0  0  0  0  0  0  0  0
    2.8656   -0.9744    1.2341 H   0  0  0  0  0  0  0  0  0  0  0  0
   -0.2122   -2.1208    1.6368 H   0  0  0  0  0  0  0  0  0  0  0  0
    0.7884   -0.7158    1.5918 H   0  0  0  0  0  0  0  0  0  0  0  0
    2.3010   -2.0546   -1.5536 H   0  0  0  0  0  0  0  0  0  0  0  0
    4.1949   -2.4671    0.2133 H   0  0  0  0  0  0  0  0  0  0  0  0
   -3.1693    2.6851   -1.0655 H   0  0  0  0  0  0  0  0  0  0  0  0
   -4.6704    1.7128   -0.6012 H   0  0  0  0  0  0  0  0  0  0  0  0
   -1.0351   -2.1606   -1.5257 H   0  0  0  0  0  0  0  0  0  0  0  0
   -0.6092   -3.5238   -0.4726 H   0  0  0  0  0  0  0  0  0  0  0  0
    0.3474   -3.1818   -1.9137 H   0  0  0  0  0  0  0  0  0  0  0  0
  1  5  1  0  0  0  0
  1  6  1  0  0  0  0
  2 11  1  0  0  0  0
  2 17  1  0  0  0  0
  3 12  1  0  0  0  0
  3 34  1  0  0  0  0
  4 17  2  0  0  0  0
  5  6  1  0  0  0  0
  5  8  1  0  0  0  0
  5 10  1  0  0  0  0
  6  7  1  0  0  0  0
  6 20  1  0  0  0  0
  7  9  1  0  0  0  0
  7 21  1  0  0  0  0
  7 22  1  0  0  0  0
  8 12  1  0  0  0  0
  8 23  1  0  0  0  0
  8 24  1  0  0  0  0
  9 11  1  0  0  0  0
  9 13  1  0  0  0  0
  9 25  1  0  0  0  0
 10 26  1  0  0  0  0
 10 27  1  0  0  0  0
 10 28  1  0  0  0  0
 11 14  1  0  0  0  0
 11 29  1  0  0  0  0
 12 15  1  0  0  0  0
 12 30  1  0  0  0  0
 13 17  1  0  0  0  0
 13 18  2  0  0  0  0
 14 16  1  0  0  0  0
 14 31  1  0  0  0  0
 14 32  1  0  0  0  0
 15 16  2  0  0  0  0
 15 33  1  0  0  0  0
 16 19  1  0  0  0  0
 18 35  1  0  0  0  0
 18 36  1  0  0  0  0
 19 37  1  0  0  0  0
 19 38  1  0  0  0  0
 19 39  1  0  0  0  0
M  END
> <PUBCHEM_COMPOUND_CID>
5281429

> <PUBCHEM_CONFORMER_RMSD>
0.6

> <PUBCHEM_CONFORMER_DIVERSEORDER>
1
2
3
4

> <PUBCHEM_MMFF94_PARTIAL_CHARGES>
24
1 -0.3
10 0.09
11 0.28
12 0.42
13 -0.12
14 0.14
15 -0.29
16 -0.28
17 0.71
18 -0.3
19 0.14
2 -0.43
20 0.1
3 -0.68
33 0.15
34 0.4
35 0.15
36 0.15
4 -0.57
5 -0.04
6 -0.05
7 0.09
8 0.09
9 0.14

> <PUBCHEM_EFFECTIVE_ROTOR_COUNT>
1.2

> <PUBCHEM_PHARMACOPHORE_FEATURES>
5
1 1 acceptor
1 3 acceptor
1 3 donor
1 4 acceptor
5 2 9 11 13 17 rings

> <PUBCHEM_HEAVY_ATOM_COUNT>
19

> <PUBCHEM_ATOM_DEF_STEREO_COUNT>
5

> <PUBCHEM_ATOM_UDEF_STEREO_COUNT>
0

> <PUBCHEM_BOND_DEF_STEREO_COUNT>
1

> <PUBCHEM_BOND_UDEF_STEREO_COUNT>
0

> <PUBCHEM_ISOTOPIC_ATOM_COUNT>
0

> <PUBCHEM_COMPONENT_COUNT>
1

> <PUBCHEM_CACTVS_TAUTO_COUNT>
1

> <PUBCHEM_CONFORMER_ID>
0050969500000001

> <PUBCHEM_MMFF94_ENERGY>
47.0083

> <PUBCHEM_FEATURE_SELFOVERLAP>
25.371

> <PUBCHEM_SHAPE_FINGERPRINT>
10062212 137 18410863195680922431
104564 63 18047465909840206160
10863032 1 17560504132737784086
10967382 1 18339640027599137084
12011746 2 18411130334214983582
13140716 1 18411131463601731585
14251717 144 18408040693519010703
14251745 187 18340772666483915904
15196674 1 18413388760946934852
15219456 202 18412545414169697093
15536298 74 18408886226276326889
15775835 57 18116146671392645460
15848702 151 17677605530973290598
15881359 60 17912676555672915604
16945 1 18194951066236371725
17357779 13 18190461756424124774
18186145 218 18040991813265861449
20201158 50 18339359798257842318
20511035 2 18269828736106795542
20645477 70 18270686368256586973
20691752 17 17346318232475660865
20905425 154 18053388983094713086
21249577 43 18413108380954711133
22721475 48 18339916116897900548
2334 1 18339921515613821333
23402539 116 18267030625001289310
23559900 14 18342179976784483229
238 59 18124628381699739813
2748010 2 18412544292940633333
3060560 45 18188501292373457318
3286 77 18113058229150739320
335352 9 18197217155606847685
495365 180 18043557038497755601
5939293 188 18341901830592355040
69090 78 18263365785241726031
7364860 26 18335139838592420541
7832392 63 17900813070165046025
81228 2 17037813106467850507
84936 31 17676494981136963582
9709674 26 18272086033552407665

> <PUBCHEM_SHAPE_MULTIPOLES>
367.53
6.36
2.8
1.06
2.61
0.07
0.23
0.41
-0.09
-0.92
-0.56
-0.14
-0.06
0.69

> <PUBCHEM_SHAPE_SELFOVERLAP>
771.179

> <PUBCHEM_SHAPE_VOLUME>
208.6

> <PUBCHEM_COORDINATE_TYPE>
2
5
10

$$$$

