11954123
  -OEChem-07051213073D

 48 49  0     1  0  0  0  0  0999 V2000
    5.7754   -0.5947    0.0103 O   0  0  0  0  0  0  0  0  0  0  0  0
   -6.1140    0.5194    0.0933 O   0  0  0  0  0  0  0  0  0  0  0  0
    0.2629    0.6283    0.0100 C   0  0  1  0  0  0  0  0  0  0  0  0
   -0.6042   -0.6819   -0.0864 C   0  0  1  0  0  0  0  0  0  0  0  0
    1.7554    0.2972    0.0100 C   0  0  0  0  0  0  0  0  0  0  0  0
   -0.0717    1.6576   -1.0997 C   0  0  0  0  0  0  0  0  0  0  0  0
   -0.2316   -1.7259    0.9969 C   0  0  0  0  0  0  0  0  0  0  0  0
   -2.0972   -0.3559   -0.0374 C   0  0  0  0  0  0  0  0  0  0  0  0
    2.5106    0.6335    1.1132 C   0  0  0  0  0  0  0  0  0  0  0  0
    2.2975   -0.3273   -1.0930 C   0  0  0  0  0  0  0  0  0  0  0  0
    0.6052    3.0120   -0.9064 C   0  0  0  0  0  0  0  0  0  0  0  0
   -0.9882   -3.0451    0.8649 C   0  0  0  0  0  0  0  0  0  0  0  0
   -2.8781   -0.6763   -1.1246 C   0  0  0  0  0  0  0  0  0  0  0  0
   -2.6050    0.2451    1.0918 C   0  0  0  0  0  0  0  0  0  0  0  0
    3.8724    0.3313    1.1134 C   0  0  0  0  0  0  0  0  0  0  0  0
    3.6592   -0.6297   -1.0929 C   0  0  0  0  0  0  0  0  0  0  0  0
    1.9203    1.3107    2.3067 C   0  0  0  0  0  0  0  0  0  0  0  0
    1.4767   -0.6897   -2.2873 C   0  0  0  0  0  0  0  0  0  0  0  0
    4.4467   -0.3003    0.0103 C   0  0  0  0  0  0  0  0  0  0  0  0
   -4.2403   -0.3796   -1.0800 C   0  0  0  0  0  0  0  0  0  0  0  0
   -3.9672    0.5417    1.1365 C   0  0  0  0  0  0  0  0  0  0  0  0
   -4.7849    0.2294    0.0505 C   0  0  0  0  0  0  0  0  0  0  0  0
   -0.0202    1.1169    0.9454 H   0  0  0  0  0  0  0  0  0  0  0  0
   -0.4536   -1.2172   -1.0198 H   0  0  0  0  0  0  0  0  0  0  0  0
    0.1357    1.3708   -2.1259 H   0  0  0  0  0  0  0  0  0  0  0  0
   -1.1496    1.8589   -1.0800 H   0  0  0  0  0  0  0  0  0  0  0  0
   -0.3980   -1.3211    2.0021 H   0  0  0  0  0  0  0  0  0  0  0  0
    0.8345   -1.9700    0.9346 H   0  0  0  0  0  0  0  0  0  0  0  0
    1.6918    2.9381   -1.0091 H   0  0  0  0  0  0  0  0  0  0  0  0
    0.2480    3.7215   -1.6603 H   0  0  0  0  0  0  0  0  0  0  0  0
    0.3748    3.4292    0.0789 H   0  0  0  0  0  0  0  0  0  0  0  0
   -0.6127   -3.7652    1.5993 H   0  0  0  0  0  0  0  0  0  0  0  0
   -2.0595   -2.9193    1.0464 H   0  0  0  0  0  0  0  0  0  0  0  0
   -0.8518   -3.4782   -0.1311 H   0  0  0  0  0  0  0  0  0  0  0  0
   -2.4659   -1.1491   -2.0106 H   0  0  0  0  0  0  0  0  0  0  0  0
   -1.9862    0.4908    1.9486 H   0  0  0  0  0  0  0  0  0  0  0  0
    4.4901    0.5863    1.9711 H   0  0  0  0  0  0  0  0  0  0  0  0
    4.1123   -1.1226   -1.9497 H   0  0  0  0  0  0  0  0  0  0  0  0
    1.1457    0.6898    2.7682 H   0  0  0  0  0  0  0  0  0  0  0  0
    2.6774    1.4869    3.0797 H   0  0  0  0  0  0  0  0  0  0  0  0
    1.5131    2.2916    2.0425 H   0  0  0  0  0  0  0  0  0  0  0  0
    1.9881   -0.3021   -3.1787 H   0  0  0  0  0  0  0  0  0  0  0  0
    1.4747   -1.7840   -2.3769 H   0  0  0  0  0  0  0  0  0  0  0  0
    0.4493   -0.3871   -2.4156 H   0  0  0  0  0  0  0  0  0  0  0  0
   -4.8665   -0.6277   -1.9329 H   0  0  0  0  0  0  0  0  0  0  0  0
   -4.3859    1.0152    2.0204 H   0  0  0  0  0  0  0  0  0  0  0  0
    6.1648   -0.2971    0.8504 H   0  0  0  0  0  0  0  0  0  0  0  0
   -6.5255    0.2354   -0.7410 H   0  0  0  0  0  0  0  0  0  0  0  0
  1 19  1  0  0  0  0
  1 47  1  0  0  0  0
  2 22  1  0  0  0  0
  2 48  1  0  0  0  0
  3  4  1  0  0  0  0
  3  5  1  0  0  0  0
  3  6  1  0  0  0  0
  3 23  1  0  0  0  0
  4  7  1  0  0  0  0
  4  8  1  0  0  0  0
  4 24  1  0  0  0  0
  5  9  2  0  0  0  0
  5 10  1  0  0  0  0
  6 11  1  0  0  0  0
  6 25  1  0  0  0  0
  6 26  1  0  0  0  0
  7 12  1  0  0  0  0
  7 27  1  0  0  0  0
  7 28  1  0  0  0  0
  8 13  2  0  0  0  0
  8 14  1  0  0  0  0
  9 15  1  0  0  0  0
  9 17  1  0  0  0  0
 10 16  2  0  0  0  0
 10 18  1  0  0  0  0
 11 29  1  0  0  0  0
 11 30  1  0  0  0  0
 11 31  1  0  0  0  0
 12 32  1  0  0  0  0
 12 33  1  0  0  0  0
 12 34  1  0  0  0  0
 13 20  1  0  0  0  0
 13 35  1  0  0  0  0
 14 21  2  0  0  0  0
 14 36  1  0  0  0  0
 15 19  2  0  0  0  0
 15 37  1  0  0  0  0
 16 19  1  0  0  0  0
 16 38  1  0  0  0  0
 17 39  1  0  0  0  0
 17 40  1  0  0  0  0
 17 41  1  0  0  0  0
 18 42  1  0  0  0  0
 18 43  1  0  0  0  0
 18 44  1  0  0  0  0
 20 22  2  0  0  0  0
 20 45  1  0  0  0  0
 21 22  1  0  0  0  0
 21 46  1  0  0  0  0
M  END
> <PUBCHEM_COMPOUND_CID>
11954123

> <PUBCHEM_CONFORMER_RMSD>
0.8

> <PUBCHEM_CONFORMER_DIVERSEORDER>
2
3
4
1

> <PUBCHEM_MMFF94_PARTIAL_CHARGES>
26
1 -0.53
10 -0.14
13 -0.15
14 -0.15
15 -0.15
16 -0.15
17 0.14
18 0.14
19 0.08
2 -0.53
20 -0.15
21 -0.15
22 0.08
3 0.14
35 0.15
36 0.15
37 0.15
38 0.15
4 0.14
45 0.15
46 0.15
47 0.45
48 0.45
5 -0.14
8 -0.14
9 -0.14

> <PUBCHEM_EFFECTIVE_ROTOR_COUNT>
5

> <PUBCHEM_PHARMACOPHORE_FEATURES>
7
1 1 donor
1 11 hydrophobe
1 12 hydrophobe
1 2 donor
4 3 4 6 7 hydrophobe
6 5 9 10 15 16 19 rings
6 8 13 14 20 21 22 rings

> <PUBCHEM_HEAVY_ATOM_COUNT>
22

> <PUBCHEM_ATOM_DEF_STEREO_COUNT>
0

> <PUBCHEM_ATOM_UDEF_STEREO_COUNT>
2

> <PUBCHEM_BOND_DEF_STEREO_COUNT>
0

> <PUBCHEM_BOND_UDEF_STEREO_COUNT>
0

> <PUBCHEM_ISOTOPIC_ATOM_COUNT>
0

> <PUBCHEM_COMPONENT_COUNT>
1

> <PUBCHEM_CACTVS_TAUTO_COUNT>
20

> <PUBCHEM_CONFORMER_ID>
00B667CB00000002

> <PUBCHEM_MMFF94_ENERGY>
77.0942

> <PUBCHEM_FEATURE_SELFOVERLAP>
35.52

> <PUBCHEM_SHAPE_FINGERPRINT>
10366900 7 17822000995924874312
104564 63 17774169040276656557
10906281 52 18264750139259036508
11370993 70 16950285104733303231
11646440 116 18335973225768131001
12107183 9 16157900240258986659
12236239 1 18187085061968536907
12293681 4 17894904127052178531
12467345 10 16298390166603882127
12633257 1 18337409162020295840
12788726 201 17703237329060751192
128620 24 7781520312866468017
13140716 1 18058163921385818497
13583140 156 15647062533736165295
14022347 108 18202558501706274392
14115302 16 17917985054021030246
15238133 3 17774434001557866157
1601671 61 17917433172145700117
16752209 62 17845950613787869556
16945 1 18272937098153845510
17349148 13 18261954046776888655
1813 80 18411410735186548388
18186145 218 18410020914129258291
200 152 15285358431335360563
20028762 73 18266733585633381835
20233049 118 17632580448132187988
20600515 1 18341600504440358900
20715895 44 15070002672761482251
21033648 29 18200896018297436381
21267235 1 14692568853243479466
21285901 2 18337943618833692870
23175994 123 17775281677303149669
23402539 116 18409733971210826190
23559900 14 16877949325505246827
3052486 1 18128818723218239140
3286 77 17531257123365232344
34934 24 17845082979339812484
351380 180 17240486896638212793
3545911 37 16877942745894748729
4214541 1 17095241428089500577
4340502 62 16298390153671806422
465052 167 16845562111546038499
474 4 18261675874630152137
633830 44 18335148561707843993
69090 78 17530966886628857743
7495541 125 16916774146835332393
74978 22 18128814140624588943
8272917 22 16298379180183176908
9709674 26 17240473706973196255
9971528 1 18334859402581518948
9981440 41 17030809823137103937

> <PUBCHEM_SHAPE_MULTIPOLES>
441.01
9.81
2
1.73
4.18
0
-0.01
-0.15
-0.39
0.03
-0.1
-0.72
0.16
0.4

> <PUBCHEM_SHAPE_SELFOVERLAP>
929.762

> <PUBCHEM_SHAPE_VOLUME>
250.5

> <PUBCHEM_COORDINATE_TYPE>
2
5
10

$$$$

