3609
  -OEChem-06251223322D

 62 63  0     1  0  0  0  0  0999 V2000
   10.3312    3.5000    0.0000 O   0  0  0  0  0  0  0  0  0  0  0  0
    3.4030   -3.5000    0.0000 O   0  0  0  0  0  0  0  0  0  0  0  0
   11.1972    7.0000    0.0000 O   0  0  0  0  0  0  0  0  0  0  0  0
    2.5369   -7.0000    0.0000 O   0  0  0  0  0  0  0  0  0  0  0  0
    9.4651    8.0000    0.0000 O   0  0  0  0  0  0  0  0  0  0  0  0
    4.2690   -8.0000    0.0000 O   0  0  0  0  0  0  0  0  0  0  0  0
    8.5991    2.5000    0.0000 N   0  0  0  0  0  0  0  0  0  0  0  0
    5.1350   -2.5000    0.0000 N   0  0  0  0  0  0  0  0  0  0  0  0
    6.8671    0.5000    0.0000 C   0  0  0  0  0  0  0  0  0  0  0  0
    6.8671   -0.5000    0.0000 C   0  0  0  0  0  0  0  0  0  0  0  0
    6.0010   -1.0000    0.0000 C   0  0  0  0  0  0  0  0  0  0  0  0
    7.7331    1.0000    0.0000 C   0  0  0  0  0  0  0  0  0  0  0  0
    6.0010   -2.0000    0.0000 C   0  0  0  0  0  0  0  0  0  0  0  0
    7.7331    2.0000    0.0000 C   0  0  0  0  0  0  0  0  0  0  0  0
    5.1350   -3.5000    0.0000 C   0  0  0  0  0  0  0  0  0  0  0  0
    8.5991    3.5000    0.0000 C   0  0  0  0  0  0  0  0  0  0  0  0
    4.2690   -4.0000    0.0000 C   0  0  3  0  0  0  0  0  0  0  0  0
    9.4651    4.0000    0.0000 C   0  0  3  0  0  0  0  0  0  0  0  0
    4.2690   -5.0000    0.0000 C   0  0  0  0  0  0  0  0  0  0  0  0
    9.4651    5.0000    0.0000 C   0  0  0  0  0  0  0  0  0  0  0  0
   10.3312    5.5000    0.0000 C   0  0  0  0  0  0  0  0  0  0  0  0
    3.4030   -5.5000    0.0000 C   0  0  0  0  0  0  0  0  0  0  0  0
    8.5991    5.5000    0.0000 C   0  0  0  0  0  0  0  0  0  0  0  0
    5.1350   -5.5000    0.0000 C   0  0  0  0  0  0  0  0  0  0  0  0
    3.4030   -6.5000    0.0000 C   0  0  0  0  0  0  0  0  0  0  0  0
   10.3312    6.5000    0.0000 C   0  0  0  0  0  0  0  0  0  0  0  0
    8.5991    6.5000    0.0000 C   0  0  0  0  0  0  0  0  0  0  0  0
    5.1350   -6.5000    0.0000 C   0  0  0  0  0  0  0  0  0  0  0  0
    4.2690   -7.0000    0.0000 C   0  0  0  0  0  0  0  0  0  0  0  0
    9.4651    7.0000    0.0000 C   0  0  0  0  0  0  0  0  0  0  0  0
    6.6550    1.0826    0.0000 H   0  0  0  0  0  0  0  0  0  0  0  0
    6.2565    0.3923    0.0000 H   0  0  0  0  0  0  0  0  0  0  0  0
    7.0791   -1.0826    0.0000 H   0  0  0  0  0  0  0  0  0  0  0  0
    7.4776   -0.3923    0.0000 H   0  0  0  0  0  0  0  0  0  0  0  0
    5.7890   -0.4174    0.0000 H   0  0  0  0  0  0  0  0  0  0  0  0
    5.3905   -1.1077    0.0000 H   0  0  0  0  0  0  0  0  0  0  0  0
    7.9451    0.4174    0.0000 H   0  0  0  0  0  0  0  0  0  0  0  0
    8.3437    1.1077    0.0000 H   0  0  0  0  0  0  0  0  0  0  0  0
    6.2131   -2.5826    0.0000 H   0  0  0  0  0  0  0  0  0  0  0  0
    6.6116   -1.8923    0.0000 H   0  0  0  0  0  0  0  0  0  0  0  0
    7.5210    2.5826    0.0000 H   0  0  0  0  0  0  0  0  0  0  0  0
    7.1225    1.8923    0.0000 H   0  0  0  0  0  0  0  0  0  0  0  0
    9.1360    2.1900    0.0000 H   0  0  0  0  0  0  0  0  0  0  0  0
    4.5981   -2.1900    0.0000 H   0  0  0  0  0  0  0  0  0  0  0  0
    5.3471   -4.0826    0.0000 H   0  0  0  0  0  0  0  0  0  0  0  0
    5.7456   -3.3923    0.0000 H   0  0  0  0  0  0  0  0  0  0  0  0
    8.3871    4.0826    0.0000 H   0  0  0  0  0  0  0  0  0  0  0  0
    7.9885    3.3923    0.0000 H   0  0  0  0  0  0  0  0  0  0  0  0
   10.0021    4.3100    0.0000 H   0  0  0  0  0  0  0  0  0  0  0  0
    4.2690   -3.3800    0.0000 H   0  0  0  0  0  0  0  0  0  0  0  0
   10.8681    5.1900    0.0000 H   0  0  0  0  0  0  0  0  0  0  0  0
    2.8660   -5.1900    0.0000 H   0  0  0  0  0  0  0  0  0  0  0  0
    8.0622    5.1900    0.0000 H   0  0  0  0  0  0  0  0  0  0  0  0
    5.6720   -5.1900    0.0000 H   0  0  0  0  0  0  0  0  0  0  0  0
   10.8681    3.8100    0.0000 H   0  0  0  0  0  0  0  0  0  0  0  0
    3.4030   -2.8800    0.0000 H   0  0  0  0  0  0  0  0  0  0  0  0
    8.0622    6.8100    0.0000 H   0  0  0  0  0  0  0  0  0  0  0  0
    5.6720   -6.8100    0.0000 H   0  0  0  0  0  0  0  0  0  0  0  0
   11.1972    7.6200    0.0000 H   0  0  0  0  0  0  0  0  0  0  0  0
    2.0000   -6.6900    0.0000 H   0  0  0  0  0  0  0  0  0  0  0  0
    8.9282    8.3100    0.0000 H   0  0  0  0  0  0  0  0  0  0  0  0
    4.8059   -8.3100    0.0000 H   0  0  0  0  0  0  0  0  0  0  0  0
  1 18  1  0  0  0  0
  1 55  1  0  0  0  0
  2 17  1  0  0  0  0
  2 56  1  0  0  0  0
  3 26  1  0  0  0  0
  3 59  1  0  0  0  0
  4 25  1  0  0  0  0
  4 60  1  0  0  0  0
  5 30  1  0  0  0  0
  5 61  1  0  0  0  0
  6 29  1  0  0  0  0
  6 62  1  0  0  0  0
  7 14  1  0  0  0  0
  7 16  1  0  0  0  0
  7 43  1  0  0  0  0
  8 13  1  0  0  0  0
  8 15  1  0  0  0  0
  8 44  1  0  0  0  0
  9 10  1  0  0  0  0
  9 12  1  0  0  0  0
  9 31  1  0  0  0  0
  9 32  1  0  0  0  0
 10 11  1  0  0  0  0
 10 33  1  0  0  0  0
 10 34  1  0  0  0  0
 11 13  1  0  0  0  0
 11 35  1  0  0  0  0
 11 36  1  0  0  0  0
 12 14  1  0  0  0  0
 12 37  1  0  0  0  0
 12 38  1  0  0  0  0
 13 39  1  0  0  0  0
 13 40  1  0  0  0  0
 14 41  1  0  0  0  0
 14 42  1  0  0  0  0
 15 17  1  0  0  0  0
 15 45  1  0  0  0  0
 15 46  1  0  0  0  0
 16 18  1  0  0  0  0
 16 47  1  0  0  0  0
 16 48  1  0  0  0  0
 17 19  1  0  0  0  0
 17 50  1  0  0  0  0
 18 20  1  0  0  0  0
 18 49  1  0  0  0  0
 19 22  2  0  0  0  0
 19 24  1  0  0  0  0
 20 21  2  0  0  0  0
 20 23  1  0  0  0  0
 21 26  1  0  0  0  0
 21 51  1  0  0  0  0
 22 25  1  0  0  0  0
 22 52  1  0  0  0  0
 23 27  2  0  0  0  0
 23 53  1  0  0  0  0
 24 28  2  0  0  0  0
 24 54  1  0  0  0  0
 25 29  2  0  0  0  0
 26 30  2  0  0  0  0
 27 30  1  0  0  0  0
 27 57  1  0  0  0  0
 28 29  1  0  0  0  0
 28 58  1  0  0  0  0
M  END
> <PUBCHEM_COMPOUND_CID>
3609

> <PUBCHEM_COMPOUND_CANONICALIZED>
1

> <PUBCHEM_CACTVS_COMPLEXITY>
417

> <PUBCHEM_CACTVS_HBOND_ACCEPTOR>
8

> <PUBCHEM_CACTVS_HBOND_DONOR>
8

> <PUBCHEM_CACTVS_ROTATABLE_BOND>
13

> <PUBCHEM_CACTVS_SUBSKEYS>
AAADcfB7OAAAAAAAAAAAAAAAAAAAAAAAAAAwYAAAAAAAAAABQAAAHgAQCAAADBThmAYwBoLAAgCAAiBCAAACAAAgIAAIiIAOiIgLNiKCkROEcAEk0BGZmAfQ8LYOIAABAAAAQABAAAIAAACAAAAAAAAAAA==

> <PUBCHEM_IUPAC_OPENEYE_NAME>
4-[2-[6-[[2-(3,4-dihydroxyphenyl)-2-hydroxy-ethyl]amino]hexylamino]-1-hydroxy-ethyl]benzene-1,2-diol

> <PUBCHEM_IUPAC_CAS_NAME>
4-[2-[6-[[2-(3,4-dihydroxyphenyl)-2-hydroxyethyl]amino]hexylamino]-1-hydroxyethyl]benzene-1,2-diol

> <PUBCHEM_IUPAC_NAME>
4-[2-[6-[[2-(3,4-dihydroxyphenyl)-2-hydroxyethyl]amino]hexylamino]-1-hydroxyethyl]benzene-1,2-diol

> <PUBCHEM_IUPAC_SYSTEMATIC_NAME>
4-[2-[6-[[2-[3,4-bis(oxidanyl)phenyl]-2-oxidanyl-ethyl]amino]hexylamino]-1-oxidanyl-ethyl]benzene-1,2-diol

> <PUBCHEM_IUPAC_TRADITIONAL_NAME>
4-[2-[6-[[2-(3,4-dihydroxyphenyl)-2-hydroxy-ethyl]amino]hexylamino]-1-hydroxy-ethyl]pyrocatechol

> <PUBCHEM_IUPAC_INCHI>
InChI=1S/C22H32N2O6/c25-17-7-5-15(11-19(17)27)21(29)13-23-9-3-1-2-4-10-24-14-22(30)16-6-8-18(26)20(28)12-16/h5-8,11-12,21-30H,1-4,9-10,13-14H2

> <PUBCHEM_IUPAC_INCHIKEY>
OXLZNBCNGJWPRV-UHFFFAOYSA-N

> <PUBCHEM_XLOGP3_AA>
1.1

> <PUBCHEM_EXACT_MASS>
420.226037

> <PUBCHEM_MOLECULAR_FORMULA>
C22H32N2O6

> <PUBCHEM_MOLECULAR_WEIGHT>
420.49928

> <PUBCHEM_OPENEYE_CAN_SMILES>
C1=CC(=C(C=C1C(CNCCCCCCNCC(C2=CC(=C(C=C2)O)O)O)O)O)O

> <PUBCHEM_OPENEYE_ISO_SMILES>
C1=CC(=C(C=C1C(CNCCCCCCNCC(C2=CC(=C(C=C2)O)O)O)O)O)O

> <PUBCHEM_CACTVS_TPSA>
145

> <PUBCHEM_MONOISOTOPIC_WEIGHT>
420.226037

> <PUBCHEM_TOTAL_CHARGE>
0

> <PUBCHEM_HEAVY_ATOM_COUNT>
30

> <PUBCHEM_ATOM_DEF_STEREO_COUNT>
0

> <PUBCHEM_ATOM_UDEF_STEREO_COUNT>
2

> <PUBCHEM_BOND_DEF_STEREO_COUNT>
0

> <PUBCHEM_BOND_UDEF_STEREO_COUNT>
0

> <PUBCHEM_ISOTOPIC_ATOM_COUNT>
0

> <PUBCHEM_COMPONENT_COUNT>
1

> <PUBCHEM_CACTVS_TAUTO_COUNT>
27

> <PUBCHEM_COORDINATE_TYPE>
1
5
255

> <PUBCHEM_BONDANNOTATIONS>
18  1  3
19  22  8
19  24  8
17  2  3
20  21  8
20  23  8
21  26  8
22  25  8
23  27  8
24  28  8
25  29  8
26  30  8
27  30  8
28  29  8

$$$$

