23724664
  -OEChem-07051213083D

 55 59  0     1  0  0  0  0  0999 V2000
   -3.3578    0.7761    1.5789 O   0  0  0  0  0  0  0  0  0  0  0  0
    2.8992   -0.5940    0.5254 O   0  0  0  0  0  0  0  0  0  0  0  0
   -1.4203    1.9964   -1.6415 O   0  0  0  0  0  0  0  0  0  0  0  0
    2.7632    1.7349    0.5666 O   0  0  0  0  0  0  0  0  0  0  0  0
    6.9104   -0.4737   -0.3484 O   0  0  0  0  0  0  0  0  0  0  0  0
    5.4167   -2.9101   -0.7827 O   0  0  0  0  0  0  0  0  0  0  0  0
    5.2106    1.8809   -0.8463 O   0  0  0  0  0  0  0  0  0  0  0  0
    1.3771   -2.8825    0.4771 O   0  0  0  0  0  0  0  0  0  0  0  0
   -4.9476   -3.3912   -0.2388 O   0  0  0  0  0  0  0  0  0  0  0  0
   -3.5935    2.0341   -0.4830 C   0  0  2  0  0  0  0  0  0  0  0  0
   -2.8985    1.9701    0.8891 C   0  0  2  0  0  0  0  0  0  0  0  0
    5.5157   -0.5053   -0.6558 C   0  0  1  0  0  0  0  0  0  0  0  0
    4.9286   -1.7841   -0.0582 C   0  0  1  0  0  0  0  0  0  0  0  0
    4.8387    0.7374   -0.0774 C   0  0  2  0  0  0  0  0  0  0  0  0
   -3.9559    0.5995   -0.6437 C   0  0  0  0  0  0  0  0  0  0  0  0
    3.3998   -1.7630   -0.1257 C   0  0  1  0  0  0  0  0  0  0  0  0
   -2.6992    2.6319   -1.5571 C   0  0  0  0  0  0  0  0  0  0  0  0
   -1.3914    1.9463    0.7927 C   0  0  0  0  0  0  0  0  0  0  0  0
    3.3158    0.6095   -0.1154 C   0  0  1  0  0  0  0  0  0  0  0  0
   -3.8287   -0.0397    0.5810 C   0  0  0  0  0  0  0  0  0  0  0  0
   -0.7462    1.9521   -0.4497 C   0  0  0  0  0  0  0  0  0  0  0  0
    2.7870   -2.9747    0.5696 C   0  0  0  0  0  0  0  0  0  0  0  0
   -0.6149    1.8963    1.9595 C   0  0  0  0  0  0  0  0  0  0  0  0
    1.4063    1.8093    0.6406 C   0  0  0  0  0  0  0  0  0  0  0  0
   -4.4220   -0.0867   -1.7513 C   0  0  0  0  0  0  0  0  0  0  0  0
    0.6459    1.8653   -0.5261 C   0  0  0  0  0  0  0  0  0  0  0  0
    0.7767    1.8304    1.8831 C   0  0  0  0  0  0  0  0  0  0  0  0
   -4.1565   -1.3707    0.7527 C   0  0  0  0  0  0  0  0  0  0  0  0
   -4.7482   -1.4376   -1.6047 C   0  0  0  0  0  0  0  0  0  0  0  0
   -4.6177   -2.0751   -0.3602 C   0  0  0  0  0  0  0  0  0  0  0  0
   -4.7934   -3.9819    1.0501 C   0  0  0  0  0  0  0  0  0  0  0  0
   -4.5276    2.6049   -0.4048 H   0  0  0  0  0  0  0  0  0  0  0  0
   -3.1894    2.8439    1.4862 H   0  0  0  0  0  0  0  0  0  0  0  0
    5.4446   -0.5168   -1.7498 H   0  0  0  0  0  0  0  0  0  0  0  0
    5.2639   -1.8931    0.9805 H   0  0  0  0  0  0  0  0  0  0  0  0
    5.1826    0.9201    0.9476 H   0  0  0  0  0  0  0  0  0  0  0  0
    3.0508   -1.7579   -1.1675 H   0  0  0  0  0  0  0  0  0  0  0  0
   -3.1687    2.5416   -2.5428 H   0  0  0  0  0  0  0  0  0  0  0  0
   -2.5449    3.7040   -1.3775 H   0  0  0  0  0  0  0  0  0  0  0  0
    2.9726    0.6140   -1.1582 H   0  0  0  0  0  0  0  0  0  0  0  0
    3.0509   -2.9891    1.6324 H   0  0  0  0  0  0  0  0  0  0  0  0
    3.1093   -3.9109    0.1039 H   0  0  0  0  0  0  0  0  0  0  0  0
   -1.0925    1.8988    2.9362 H   0  0  0  0  0  0  0  0  0  0  0  0
   -4.5427    0.4051   -2.7103 H   0  0  0  0  0  0  0  0  0  0  0  0
    1.1269    1.8686   -1.5009 H   0  0  0  0  0  0  0  0  0  0  0  0
    1.3638    1.7876    2.7964 H   0  0  0  0  0  0  0  0  0  0  0  0
   -4.0321   -1.7958    1.7408 H   0  0  0  0  0  0  0  0  0  0  0  0
    7.0064   -0.4451    0.6188 H   0  0  0  0  0  0  0  0  0  0  0  0
    5.1128   -2.8299   -1.7029 H   0  0  0  0  0  0  0  0  0  0  0  0
    4.9137    1.7388   -1.7614 H   0  0  0  0  0  0  0  0  0  0  0  0
   -5.1141   -1.9947   -2.4637 H   0  0  0  0  0  0  0  0  0  0  0  0
    1.0081   -3.6599    0.9299 H   0  0  0  0  0  0  0  0  0  0  0  0
   -5.0989   -5.0299    0.9643 H   0  0  0  0  0  0  0  0  0  0  0  0
   -5.4548   -3.5159    1.7884 H   0  0  0  0  0  0  0  0  0  0  0  0
   -3.7463   -3.9798    1.3714 H   0  0  0  0  0  0  0  0  0  0  0  0
  1 11  1  0  0  0  0
  1 20  1  0  0  0  0
  2 16  1  0  0  0  0
  2 19  1  0  0  0  0
  3 17  1  0  0  0  0
  3 21  1  0  0  0  0
  4 19  1  0  0  0  0
  4 24  1  0  0  0  0
  5 12  1  0  0  0  0
  5 48  1  0  0  0  0
  6 13  1  0  0  0  0
  6 49  1  0  0  0  0
  7 14  1  0  0  0  0
  7 50  1  0  0  0  0
  8 22  1  0  0  0  0
  8 52  1  0  0  0  0
  9 30  1  0  0  0  0
  9 31  1  0  0  0  0
 10 11  1  0  0  0  0
 10 15  1  0  0  0  0
 10 17  1  0  0  0  0
 10 32  1  0  0  0  0
 11 18  1  0  0  0  0
 11 33  1  0  0  0  0
 12 13  1  0  0  0  0
 12 14  1  0  0  0  0
 12 34  1  0  0  0  0
 13 16  1  0  0  0  0
 13 35  1  0  0  0  0
 14 19  1  0  0  0  0
 14 36  1  0  0  0  0
 15 20  2  0  0  0  0
 15 25  1  0  0  0  0
 16 22  1  0  0  0  0
 16 37  1  0  0  0  0
 17 38  1  0  0  0  0
 17 39  1  0  0  0  0
 18 21  2  0  0  0  0
 18 23  1  0  0  0  0
 19 40  1  0  0  0  0
 20 28  1  0  0  0  0
 21 26  1  0  0  0  0
 22 41  1  0  0  0  0
 22 42  1  0  0  0  0
 23 27  2  0  0  0  0
 23 43  1  0  0  0  0
 24 26  2  0  0  0  0
 24 27  1  0  0  0  0
 25 29  2  0  0  0  0
 25 44  1  0  0  0  0
 26 45  1  0  0  0  0
 27 46  1  0  0  0  0
 28 30  2  0  0  0  0
 28 47  1  0  0  0  0
 29 30  1  0  0  0  0
 29 51  1  0  0  0  0
 31 53  1  0  0  0  0
 31 54  1  0  0  0  0
 31 55  1  0  0  0  0
M  END
> <PUBCHEM_COMPOUND_CID>
23724664

> <PUBCHEM_CONFORMER_RMSD>
0.8

> <PUBCHEM_CONFORMER_DIVERSEORDER>
1
79
59
145
116
32
70
35
27
157
135
75
151
67
8
143
146
119
9
71
122
155
12
23
94
121
18
6
20
84
42
22
130
153
128
55
68
40
58
34
25
85
30
104
69
106
11
76
64
41
100
150
56
148
149
10
114
38
89
13
98
15
45
108
112
158
24
57
73
26
17
109
43
101
110
102
141
83
16
19
77
21
144
118
65
147
72
74
3
113
92
124
7
36
96
103
4
53
63
131
44
86
117
107
152
88
125
62
120
111
5
47
52
46
139
14
61
95
37
39
136
138
29
123
33
50
87
2
78
142
99
82
48
159
80
132
81
115
49
154
51
129
156
66
126
140
28
133
137
90
97
127
60
93
54
31
134
91
105

> <PUBCHEM_MMFF94_PARTIAL_CHARGES>
41
1 -0.36
10 0.14
11 0.42
12 0.28
13 0.28
14 0.28
15 -0.14
16 0.28
17 0.28
18 -0.14
19 0.56
2 -0.56
20 0.08
21 0.08
22 0.28
23 -0.15
24 0.08
25 -0.15
26 -0.15
27 -0.15
28 -0.15
29 -0.15
3 -0.36
30 0.08
31 0.28
4 -0.36
43 0.15
44 0.15
45 0.15
46 0.15
47 0.15
48 0.4
49 0.4
5 -0.68
50 0.4
51 0.15
52 0.4
6 -0.68
7 -0.68
8 -0.68
9 -0.36

> <PUBCHEM_EFFECTIVE_ROTOR_COUNT>
5.8

> <PUBCHEM_PHARMACOPHORE_FEATURES>
18
1 1 acceptor
1 2 acceptor
1 3 acceptor
1 4 acceptor
1 5 acceptor
1 5 donor
1 6 acceptor
1 6 donor
1 7 acceptor
1 7 donor
1 8 acceptor
1 8 donor
1 9 acceptor
5 1 10 11 15 20 rings
6 15 20 25 28 29 30 rings
6 18 21 23 24 26 27 rings
6 2 12 13 14 16 19 rings
6 3 10 11 17 18 21 rings

> <PUBCHEM_HEAVY_ATOM_COUNT>
31

> <PUBCHEM_ATOM_DEF_STEREO_COUNT>
7

> <PUBCHEM_ATOM_UDEF_STEREO_COUNT>
0

> <PUBCHEM_BOND_DEF_STEREO_COUNT>
0

> <PUBCHEM_BOND_UDEF_STEREO_COUNT>
0

> <PUBCHEM_ISOTOPIC_ATOM_COUNT>
0

> <PUBCHEM_COMPONENT_COUNT>
1

> <PUBCHEM_CACTVS_TAUTO_COUNT>
1

> <PUBCHEM_CONFORMER_ID>
016A027800000001

> <PUBCHEM_MMFF94_ENERGY>
115.4966

> <PUBCHEM_FEATURE_SELFOVERLAP>
91.796

> <PUBCHEM_SHAPE_FINGERPRINT>
10074138 170 16807279456891766777
105312 117 13758351189269583889
10763959 59 10591763225446411800
10928967 22 17822856368626592847
11136131 41 18201168711084366386
11315621 136 18341611456511582652
117089 54 17823406279323678222
11796584 16 18187643669235814156
12422481 6 15141223456192756605
12633257 1 16299222385912315493
12788726 201 17316201625380673369
13103583 49 17313652790113057081
1361 2 18129374900683565556
13631057 29 18409449171950566166
14848178 5 18408329869066010977
14910302 57 18341346572941419093
14950920 106 16588583085597469259
15163728 17 12607127369513276265
15238133 3 7709463857496157064
15250474 111 18267591375920580954
15510800 12 18265910064023638795
15537594 2 18260259754966298337
16114785 44 15371227729612327088
17627616 140 18056482978482264979
20028762 73 18189619522482059158
20775530 9 18338806615603825963
21054139 6 18411136953149885434
22393880 68 18200600314352186208
23379529 103 17912364222052716715
23559900 14 18337403651593936065
2838139 119 10015593774313736729
329604 57 18408603643493550406
3737641 26 18336826386313537563
437795 51 17532097095063606368
439807 62 18411698756004498179
44062 13 18339365274599860973
444735 86 18271257048798252506
445580 102 18334575741793606231
46194498 28 17487620723868455325
463206 1 18411980299426002497
484985 159 18260545637349477649
484989 97 18408316680308394674
508706 21 18273216425789592995
5309563 4 18193277395561145823
5486654 36 18114176424382378673
6431902 208 18335702719388937534
7970288 3 18050284770139344047

> <PUBCHEM_SHAPE_MULTIPOLES>
585.14
14.33
4.3
1.53
12.45
3.5
-0.1
10.32
3.71
-2.62
-0.51
-1.44
-0.64
0.76

> <PUBCHEM_SHAPE_SELFOVERLAP>
1289.285

> <PUBCHEM_SHAPE_VOLUME>
311.3

> <PUBCHEM_COORDINATE_TYPE>
2
5
10

$$$$

