21723007
  -OEChem-07051213093D

 57 61  0     1  0  0  0  0  0999 V2000
   -1.3058    0.1305   -1.6454 O   0  0  0  0  0  0  0  0  0  0  0  0
   -2.7404    0.4617    0.8334 O   0  0  0  0  0  0  0  0  0  0  0  0
    3.3873   -0.7096    0.2709 O   0  0  0  0  0  0  0  0  0  0  0  0
    3.0479    2.9565    0.3605 O   0  0  0  0  0  0  0  0  0  0  0  0
   -2.2526   -2.3439   -2.4020 O   0  0  0  0  0  0  0  0  0  0  0  0
    5.6755    2.6642   -0.2019 O   0  0  0  0  0  0  0  0  0  0  0  0
    7.8113    1.1950   -0.3732 O   0  0  0  0  0  0  0  0  0  0  0  0
   -7.3381   -1.4403    1.3986 O   0  0  0  0  0  0  0  0  0  0  0  0
    7.2093   -3.4973    0.0018 O   0  0  0  0  0  0  0  0  0  0  0  0
   -8.9763    0.1862   -0.1500 O   0  0  0  0  0  0  0  0  0  0  0  0
   -3.3414    0.7199   -0.4439 C   0  0  1  0  0  0  0  0  0  0  0  0
   -2.7079   -0.1690   -1.5266 C   0  0  2  0  0  0  0  0  0  0  0  0
    2.9305    0.5712    0.7334 C   0  0  2  0  0  0  0  0  0  0  0  0
    1.4140    0.5311    0.7422 C   0  0  0  0  0  0  0  0  0  0  0  0
    3.4629    1.7014   -0.1494 C   0  0  2  0  0  0  0  0  0  0  0  0
   -0.6807    0.3249   -0.4421 C   0  0  0  0  0  0  0  0  0  0  0  0
   -1.3726    0.4724    0.7611 C   0  0  0  0  0  0  0  0  0  0  0  0
   -4.8479    0.5743   -0.3630 C   0  0  0  0  0  0  0  0  0  0  0  0
    0.7139    0.3675   -0.4535 C   0  0  0  0  0  0  0  0  0  0  0  0
   -2.8774   -1.6771   -1.3232 C   0  0  0  0  0  0  0  0  0  0  0  0
    0.7216    0.6516    1.9473 C   0  0  0  0  0  0  0  0  0  0  0  0
    4.9753    1.6612   -0.1310 C   0  0  0  0  0  0  0  0  0  0  0  0
   -0.6728    0.6199    1.9586 C   0  0  0  0  0  0  0  0  0  0  0  0
    5.5765    0.3150   -0.0586 C   0  0  0  0  0  0  0  0  0  0  0  0
    4.7458   -0.7932    0.1219 C   0  0  0  0  0  0  0  0  0  0  0  0
   -5.4123   -0.3755    0.4885 C   0  0  0  0  0  0  0  0  0  0  0  0
   -5.6700    1.3904   -1.1401 C   0  0  0  0  0  0  0  0  0  0  0  0
    6.9571    0.1483   -0.1977 C   0  0  0  0  0  0  0  0  0  0  0  0
    5.2959   -2.0762    0.1282 C   0  0  0  0  0  0  0  0  0  0  0  0
   -6.7988   -0.5091    0.5631 C   0  0  0  0  0  0  0  0  0  0  0  0
   -7.0565    1.2565   -1.0657 C   0  0  0  0  0  0  0  0  0  0  0  0
    6.6733   -2.2459   -0.0143 C   0  0  0  0  0  0  0  0  0  0  0  0
    7.5025   -1.1355   -0.1720 C   0  0  0  0  0  0  0  0  0  0  0  0
   -7.6209    0.3069   -0.2140 C   0  0  0  0  0  0  0  0  0  0  0  0
   -6.4285   -2.2338    2.1582 C   0  0  0  0  0  0  0  0  0  0  0  0
   -3.1253    1.7752   -0.6716 H   0  0  0  0  0  0  0  0  0  0  0  0
   -3.1406    0.0898   -2.5017 H   0  0  0  0  0  0  0  0  0  0  0  0
    3.2821    0.7059    1.7672 H   0  0  0  0  0  0  0  0  0  0  0  0
    3.1434    1.6108   -1.1940 H   0  0  0  0  0  0  0  0  0  0  0  0
    1.2438    0.2507   -1.3954 H   0  0  0  0  0  0  0  0  0  0  0  0
   -3.9318   -1.9652   -1.3153 H   0  0  0  0  0  0  0  0  0  0  0  0
   -2.4054   -2.0225   -0.3985 H   0  0  0  0  0  0  0  0  0  0  0  0
    1.2547    0.7744    2.8862 H   0  0  0  0  0  0  0  0  0  0  0  0
   -1.2052    0.7210    2.9004 H   0  0  0  0  0  0  0  0  0  0  0  0
   -4.7329   -0.9922    1.0659 H   0  0  0  0  0  0  0  0  0  0  0  0
   -5.2422    2.1324   -1.8090 H   0  0  0  0  0  0  0  0  0  0  0  0
    4.6479   -2.9404    0.2540 H   0  0  0  0  0  0  0  0  0  0  0  0
    3.3408    3.6393   -0.2670 H   0  0  0  0  0  0  0  0  0  0  0  0
   -7.6851    1.8983   -1.6771 H   0  0  0  0  0  0  0  0  0  0  0  0
    8.5755   -1.2732   -0.2825 H   0  0  0  0  0  0  0  0  0  0  0  0
   -2.3712   -3.2983   -2.2585 H   0  0  0  0  0  0  0  0  0  0  0  0
    7.3278    2.0349   -0.3709 H   0  0  0  0  0  0  0  0  0  0  0  0
    6.4937   -4.1454    0.1196 H   0  0  0  0  0  0  0  0  0  0  0  0
   -9.3807    0.8309   -0.7556 H   0  0  0  0  0  0  0  0  0  0  0  0
   -5.7982   -2.8553    1.5128 H   0  0  0  0  0  0  0  0  0  0  0  0
   -5.8421   -1.6232    2.8533 H   0  0  0  0  0  0  0  0  0  0  0  0
   -7.0293   -2.9176    2.7670 H   0  0  0  0  0  0  0  0  0  0  0  0
  1 12  1  0  0  0  0
  1 16  1  0  0  0  0
  2 11  1  0  0  0  0
  2 17  1  0  0  0  0
  3 13  1  0  0  0  0
  3 25  1  0  0  0  0
  4 15  1  0  0  0  0
  4 48  1  0  0  0  0
  5 20  1  0  0  0  0
  5 51  1  0  0  0  0
  6 22  2  0  0  0  0
  7 28  1  0  0  0  0
  7 52  1  0  0  0  0
  8 30  1  0  0  0  0
  8 35  1  0  0  0  0
  9 32  1  0  0  0  0
  9 53  1  0  0  0  0
 10 34  1  0  0  0  0
 10 54  1  0  0  0  0
 11 12  1  0  0  0  0
 11 18  1  0  0  0  0
 11 36  1  0  0  0  0
 12 20  1  0  0  0  0
 12 37  1  0  0  0  0
 13 14  1  0  0  0  0
 13 15  1  0  0  0  0
 13 38  1  0  0  0  0
 14 19  2  0  0  0  0
 14 21  1  0  0  0  0
 15 22  1  0  0  0  0
 15 39  1  0  0  0  0
 16 17  2  0  0  0  0
 16 19  1  0  0  0  0
 17 23  1  0  0  0  0
 18 26  2  0  0  0  0
 18 27  1  0  0  0  0
 19 40  1  0  0  0  0
 20 41  1  0  0  0  0
 20 42  1  0  0  0  0
 21 23  2  0  0  0  0
 21 43  1  0  0  0  0
 22 24  1  0  0  0  0
 23 44  1  0  0  0  0
 24 25  1  0  0  0  0
 24 28  2  0  0  0  0
 25 29  2  0  0  0  0
 26 30  1  0  0  0  0
 26 45  1  0  0  0  0
 27 31  2  0  0  0  0
 27 46  1  0  0  0  0
 28 33  1  0  0  0  0
 29 32  1  0  0  0  0
 29 47  1  0  0  0  0
 30 34  2  0  0  0  0
 31 34  1  0  0  0  0
 31 49  1  0  0  0  0
 32 33  2  0  0  0  0
 33 50  1  0  0  0  0
 35 55  1  0  0  0  0
 35 56  1  0  0  0  0
 35 57  1  0  0  0  0
M  END
> <PUBCHEM_COMPOUND_CID>
21723007

> <PUBCHEM_CONFORMER_RMSD>
0.8

> <PUBCHEM_CONFORMER_DIVERSEORDER>
2
193
228
154
59
45
252
103
274
112
57
49
207
96
26
115
119
43
175
296
232
268
198
100
206
171
1
148
226
285
136
80
51
227
255
5
249
288
39
169
196
120
124
269
245
259
88
279
123
105
85
122
102
7
178
95
179
164
144
205
283
35
223
230
42
25
77
135
91
209
147
54
40
81
108
161
126
118
50
55
24
286
168
215
256
6
145
84
3
146
186
125
297
295
149
107
117
73
22
275
30
190
293
75
163
181
188
218
263
72
143
264
65
17
156
165
292
253
280
176
185
141
233
195
98
183
110
225
244
133
114
27
173
66
159
132
160
4
129
60
157
153
78
97
289
273
248
247
71
172
294
162
15
272
166
23
246
52
101
242
137
282
33
131
265
152
93
127
62
298
158
189
142
128
8
241
89
278
150
41
121
86
9
99
281
32
208
214
58
200
109
130
237
290
48
197
44
87
116
170
222
92
192
16
82
19
67
221
70
235
231
31
151
10
262
224
204
257
194
64
243
199
212
76
229
258
291
180
250
216
37
104
53
182
266
21
106
111
239
211
140
155
38
287
219
270
201
217
187
240
20
167
134
29
174
261
260
11
61
220
113
74
68
90
254
202
138
28
36
177
56
191
79
236
83
94
234
47
284
203
34
46
12
210
276
63
267
13
184
69
18
271
238
14
139
277
251
213

> <PUBCHEM_MMFF94_PARTIAL_CHARGES>
48
1 -0.36
10 -0.53
11 0.42
12 0.28
13 0.42
14 -0.14
15 0.34
16 0.08
17 0.08
18 -0.14
19 -0.15
2 -0.36
20 0.28
21 -0.15
22 0.42
23 -0.15
24 0.09
25 0.08
26 -0.15
27 -0.15
28 0.08
29 -0.15
3 -0.36
30 0.08
31 -0.15
32 0.08
33 -0.15
34 0.08
35 0.28
4 -0.68
40 0.15
43 0.15
44 0.15
45 0.15
46 0.15
47 0.15
48 0.4
49 0.15
5 -0.68
50 0.15
51 0.4
52 0.45
53 0.45
54 0.45
6 -0.57
7 -0.53
8 -0.36
9 -0.53

> <PUBCHEM_EFFECTIVE_ROTOR_COUNT>
5.4

> <PUBCHEM_PHARMACOPHORE_FEATURES>
17
1 1 acceptor
1 10 donor
1 2 acceptor
1 3 acceptor
1 4 acceptor
1 4 donor
1 5 acceptor
1 5 donor
1 6 acceptor
1 7 donor
1 8 acceptor
1 9 donor
6 1 2 11 12 16 17 rings
6 14 16 17 19 21 23 rings
6 18 26 27 30 31 34 rings
6 24 25 28 29 32 33 rings
6 3 13 15 22 24 25 rings

> <PUBCHEM_HEAVY_ATOM_COUNT>
35

> <PUBCHEM_ATOM_DEF_STEREO_COUNT>
2

> <PUBCHEM_ATOM_UDEF_STEREO_COUNT>
2

> <PUBCHEM_BOND_DEF_STEREO_COUNT>
0

> <PUBCHEM_BOND_UDEF_STEREO_COUNT>
0

> <PUBCHEM_ISOTOPIC_ATOM_COUNT>
0

> <PUBCHEM_COMPONENT_COUNT>
1

> <PUBCHEM_CACTVS_TAUTO_COUNT>
117

> <PUBCHEM_CONFORMER_ID>
014B777F00000002

> <PUBCHEM_MMFF94_ENERGY>
118.5089

> <PUBCHEM_FEATURE_SELFOVERLAP>
86.347

> <PUBCHEM_SHAPE_FINGERPRINT>
10050765 1 16517677745411942513
10258705 36 18201145599169482331
10299344 5 18259705601063636327
11103572 155 18411417280543231351
11796584 16 17676207919135476652
12082328 90 18412265073328395677
12144600 37 18272365330996861587
12236239 1 17967812778262119776
12741549 16 17918001577531215620
13782708 43 18130790053050817107
14028597 1 16733256954324155331
14294032 229 15051741906042905103
14400156 162 18412254061295954499
14856354 85 17095241394215195517
14933364 13 18272934920980362661
14955137 171 18272368642717567613
150020 25 18059856181603284547
15064986 266 18336819896686525040
15131766 46 18123191191027403028
15183329 4 16950282893051946441
15274700 21 17917426480582294563
15320294 125 17676779759850990902
15352257 5 18273493463970466371
15510794 2 18201720651986204323
15849732 13 18272370871572985509
18608769 82 17775568628236399491
19301679 30 17750509766803604694
19611394 137 18271799070151136833
19841028 212 18340207505445796562
21781055 127 16081630232385472897
21792961 116 18260829336222637128
22311459 1 16950282914183768181
23522609 53 17604973837510968657
23559900 14 17459206100390040448
24771293 8 16343420609485380581
249057 3 18334016064488973140
3004659 81 17603588513242271604
3383291 50 15140968318645933239
4073 2 18059853900970350026
4098825 35 18342740697628700994
4149490 64 18413110538009891930
44317340 157 18338518539072522560
46194498 28 17917713496662032668
4625314 4 18131634482987877765
5028188 123 17203603779169096767
5104073 3 16588598486886066331
5219985 9 17022905661609749561
54039377 194 18261109734028025262
5758199 1 15985107427205115705
6086070 43 16661214637574251379
6691757 9 16588022386418141647
9831232 110 18060133262992390982
999808 66 18412258437556554691

> <PUBCHEM_SHAPE_MULTIPOLES>
661.59
25.91
2.41
1.53
5.29
0.9
0.14
6.47
-0.52
-3.77
-0.06
2.39
0.52
1.64

> <PUBCHEM_SHAPE_SELFOVERLAP>
1474.507

> <PUBCHEM_SHAPE_VOLUME>
348.8

> <PUBCHEM_COORDINATE_TYPE>
2
5
10

$$$$

