13405
  -OEChem-06261209443D

 17 17  0     0  0  0  0  0  0999 V2000
   -3.1181   -1.3247   -0.0011 Cl  0  0  0  0  0  0  0  0  0  0  0  0
   -2.6787    1.2643    0.0004 O   0  0  0  0  0  0  0  0  0  0  0  0
    2.1133   -0.0591    0.0002 C   0  0  0  0  0  0  0  0  0  0  0  0
   -0.6733    0.0747    0.0001 C   0  0  0  0  0  0  0  0  0  0  0  0
    1.4744    1.1809   -0.0003 C   0  0  0  0  0  0  0  0  0  0  0  0
    1.3587   -1.2324    0.0006 C   0  0  0  0  0  0  0  0  0  0  0  0
    0.0812    1.2479   -0.0002 C   0  0  0  0  0  0  0  0  0  0  0  0
   -0.0346   -1.1654    0.0006 C   0  0  0  0  0  0  0  0  0  0  0  0
    3.6031   -0.1305   -0.0006 C   0  0  0  0  0  0  0  0  0  0  0  0
   -2.1260    0.1443    0.0004 C   0  0  0  0  0  0  0  0  0  0  0  0
    2.0516    2.1018    0.0011 H   0  0  0  0  0  0  0  0  0  0  0  0
    1.8454   -2.2043    0.0027 H   0  0  0  0  0  0  0  0  0  0  0  0
   -0.3900    2.2271   -0.0001 H   0  0  0  0  0  0  0  0  0  0  0  0
   -0.5774   -2.1050    0.0015 H   0  0  0  0  0  0  0  0  0  0  0  0
    3.9554   -1.0287   -0.5191 H   0  0  0  0  0  0  0  0  0  0  0  0
    4.0398    0.7301   -0.5189 H   0  0  0  0  0  0  0  0  0  0  0  0
    3.9788   -0.1486    1.0272 H   0  0  0  0  0  0  0  0  0  0  0  0
  1 10  1  0  0  0  0
  2 10  2  0  0  0  0
  3  5  2  0  0  0  0
  3  6  1  0  0  0  0
  3  9  1  0  0  0  0
  4  7  2  0  0  0  0
  4  8  1  0  0  0  0
  4 10  1  0  0  0  0
  5  7  1  0  0  0  0
  5 11  1  0  0  0  0
  6  8  2  0  0  0  0
  6 12  1  0  0  0  0
  7 13  1  0  0  0  0
  8 14  1  0  0  0  0
  9 15  1  0  0  0  0
  9 16  1  0  0  0  0
  9 17  1  0  0  0  0
M  END
> <PUBCHEM_COMPOUND_CID>
13405

> <PUBCHEM_CONFORMER_RMSD>
0.4

> <PUBCHEM_CONFORMER_DIVERSEORDER>
1
2

> <PUBCHEM_MMFF94_PARTIAL_CHARGES>
14
1 -0.21
10 0.69
11 0.15
12 0.15
13 0.15
14 0.15
2 -0.57
3 -0.14
4 0.09
5 -0.15
6 -0.15
7 -0.15
8 -0.15
9 0.14

> <PUBCHEM_EFFECTIVE_ROTOR_COUNT>
1

> <PUBCHEM_PHARMACOPHORE_FEATURES>
1
6 3 4 5 6 7 8 rings

> <PUBCHEM_HEAVY_ATOM_COUNT>
10

> <PUBCHEM_ATOM_DEF_STEREO_COUNT>
0

> <PUBCHEM_ATOM_UDEF_STEREO_COUNT>
0

> <PUBCHEM_BOND_DEF_STEREO_COUNT>
0

> <PUBCHEM_BOND_UDEF_STEREO_COUNT>
0

> <PUBCHEM_ISOTOPIC_ATOM_COUNT>
0

> <PUBCHEM_COMPONENT_COUNT>
1

> <PUBCHEM_CACTVS_TAUTO_COUNT>
1

> <PUBCHEM_CONFORMER_ID>
0000345D00000001

> <PUBCHEM_MMFF94_ENERGY>
26.4187

> <PUBCHEM_FEATURE_SELFOVERLAP>
5.074

> <PUBCHEM_SHAPE_FINGERPRINT>
10857977 72 18409739442951662523
12032990 46 18408597063608999158
12897270 3 18411986836477094015
12932764 1 17489311918395636565
14128692 85 18335419019766457823
14325111 11 18410573972414404704
16945 1 18338799030158298340
193761 8 17474106982812192388
20201158 50 18413108351132942451
21040471 1 18338797810503656800
23235685 24 18411142458781052672
23402655 69 18192728936906535597
23552423 10 18343862221032486215
2748010 2 18338239249806540428
29004967 10 18412259566626025008
5084963 1 18335136445209580201
528886 8 18410299150215331225

> <PUBCHEM_SHAPE_MULTIPOLES>
201.8
4.92
1.51
0.61
0.15
0.04
0
-0.73
0
0.45
0
-0.01
-0.02
0

> <PUBCHEM_SHAPE_SELFOVERLAP>
409.447

> <PUBCHEM_SHAPE_VOLUME>
116.8

> <PUBCHEM_COORDINATE_TYPE>
2
5
10

$$$$

