5939523
  -OEChem-07051213083D

 19 19  0     0  0  0  0  0  0999 V2000
    3.8341   -0.2954    0.9960 O   0  0  0  0  0  0  0  0  0  0  0  0
    3.0019   -0.4047   -0.1208 N   0  0  0  0  0  0  0  0  0  0  0  0
   -0.3810    0.2429   -0.4924 C   0  0  0  0  0  0  0  0  0  0  0  0
    0.9658    0.5576   -1.0510 C   0  0  0  0  0  0  0  0  0  0  0  0
   -0.8546   -1.0690   -0.5108 C   0  0  0  0  0  0  0  0  0  0  0  0
   -1.1671    1.2605    0.0480 C   0  0  0  0  0  0  0  0  0  0  0  0
   -2.1143   -1.3632    0.0111 C   0  0  0  0  0  0  0  0  0  0  0  0
   -2.4267    0.9664    0.5700 C   0  0  0  0  0  0  0  0  0  0  0  0
   -2.9002   -0.3456    0.5516 C   0  0  0  0  0  0  0  0  0  0  0  0
    2.0420    0.4504   -0.0015 C   0  0  0  0  0  0  0  0  0  0  0  0
    0.9845    1.5812   -1.4438 H   0  0  0  0  0  0  0  0  0  0  0  0
    1.1999   -0.1058   -1.8920 H   0  0  0  0  0  0  0  0  0  0  0  0
   -0.2510   -1.8709   -0.9276 H   0  0  0  0  0  0  0  0  0  0  0  0
   -0.8093    2.2865    0.0700 H   0  0  0  0  0  0  0  0  0  0  0  0
   -2.4828   -2.3848   -0.0029 H   0  0  0  0  0  0  0  0  0  0  0  0
   -3.0386    1.7586    0.9914 H   0  0  0  0  0  0  0  0  0  0  0  0
   -3.8809   -0.5746    0.9583 H   0  0  0  0  0  0  0  0  0  0  0  0
    1.9716    1.1344    0.8640 H   0  0  0  0  0  0  0  0  0  0  0  0
    4.5070   -0.9705    0.8049 H   0  0  0  0  0  0  0  0  0  0  0  0
  1  2  1  0  0  0  0
  1 19  1  0  0  0  0
  2 10  2  0  0  0  0
  3  4  1  0  0  0  0
  3  5  2  0  0  0  0
  3  6  1  0  0  0  0
  4 10  1  0  0  0  0
  4 11  1  0  0  0  0
  4 12  1  0  0  0  0
  5  7  1  0  0  0  0
  5 13  1  0  0  0  0
  6  8  2  0  0  0  0
  6 14  1  0  0  0  0
  7  9  2  0  0  0  0
  7 15  1  0  0  0  0
  8  9  1  0  0  0  0
  8 16  1  0  0  0  0
  9 17  1  0  0  0  0
 10 18  1  0  0  0  0
M  END
> <PUBCHEM_COMPOUND_CID>
5939523

> <PUBCHEM_CONFORMER_RMSD>
0.4

> <PUBCHEM_CONFORMER_DIVERSEORDER>
1
9
6
5
3
4
8
2
7

> <PUBCHEM_MMFF94_PARTIAL_CHARGES>
17
1 -0.34
10 0.33
13 0.15
14 0.15
15 0.15
16 0.15
17 0.15
18 0.06
19 0.4
2 -0.51
3 -0.14
4 0.2
5 -0.15
6 -0.15
7 -0.15
8 -0.15
9 -0.15

> <PUBCHEM_EFFECTIVE_ROTOR_COUNT>
2

> <PUBCHEM_PHARMACOPHORE_FEATURES>
3
1 1 anion
1 2 acceptor
6 3 5 6 7 8 9 rings

> <PUBCHEM_HEAVY_ATOM_COUNT>
10

> <PUBCHEM_ATOM_DEF_STEREO_COUNT>
0

> <PUBCHEM_ATOM_UDEF_STEREO_COUNT>
0

> <PUBCHEM_BOND_DEF_STEREO_COUNT>
1

> <PUBCHEM_BOND_UDEF_STEREO_COUNT>
0

> <PUBCHEM_ISOTOPIC_ATOM_COUNT>
0

> <PUBCHEM_COMPONENT_COUNT>
1

> <PUBCHEM_CACTVS_TAUTO_COUNT>
2

> <PUBCHEM_CONFORMER_ID>
005AA14300000001

> <PUBCHEM_MMFF94_ENERGY>
20.2667

> <PUBCHEM_FEATURE_SELFOVERLAP>
15.223

> <PUBCHEM_SHAPE_FINGERPRINT>
10857977 72 17968367962281504509
12251169 10 18334575724549939672
12932764 1 18060412500127279092
13024252 1 14836406951857733325
14390081 3 7925914763963501582
16945 1 18261655022685080437
20361792 2 16988848267590703134
20645464 45 17458057179347402718
20653085 51 7708921784771995791
20711985 344 15122410842527346188
20871998 184 17968652710034176015
21040471 1 18191560125690917613
22445834 79 18273216425763180378
23402539 116 18334022709446873925
23552423 10 17765985113353944781
2748010 2 17904457930131679061
29004967 10 15840985560011678037
369184 2 18187081737183847429

> <PUBCHEM_SHAPE_MULTIPOLES>
194.94
5.15
1.27
0.91
4.35
0.05
0.02
0.71
-1.91
-0.78
0.02
0.3
-0.02
-0.28

> <PUBCHEM_SHAPE_SELFOVERLAP>
396.237

> <PUBCHEM_SHAPE_VOLUME>
113.5

> <PUBCHEM_COORDINATE_TYPE>
2
5
10

$$$$

