5360414
  -OEChem-07051213133D

 31 32  0     0  0  0  0  0  0999 V2000
    6.4942    0.7958   -2.0854 Br  0  0  0  0  0  0  0  0  0  0  0  0
    4.4657    0.2039    3.2895 Br  0  0  0  0  0  0  0  0  0  0  0  0
   -0.7165   -1.2188   -0.9843 O   0  0  0  0  0  0  0  0  0  0  0  0
    6.4285    0.7403    0.9864 O   0  0  0  0  0  0  0  0  0  0  0  0
   -4.0177   -2.9179    0.7012 O   0  5  0  0  0  0  0  0  0  0  0  0
   -1.9879   -3.1409   -0.1162 O   0  0  0  0  0  0  0  0  0  0  0  0
   -5.0696    3.1616    0.0898 O   0  5  0  0  0  0  0  0  0  0  0  0
   -6.1285    1.3862    0.8413 O   0  0  0  0  0  0  0  0  0  0  0  0
    0.4162   -0.7891   -0.3007 N   0  0  0  0  0  0  0  0  0  0  0  0
   -2.9827   -2.4394    0.1814 N   0  3  0  0  0  0  0  0  0  0  0  0
   -5.1238    1.9309    0.3246 N   0  3  0  0  0  0  0  0  0  0  0  0
   -1.8149   -0.4572   -0.6556 C   0  0  0  0  0  0  0  0  0  0  0  0
   -2.9353   -1.0427   -0.0823 C   0  0  0  0  0  0  0  0  0  0  0  0
   -4.0047    1.1225   -0.0080 C   0  0  0  0  0  0  0  0  0  0  0  0
   -4.0354   -0.2493    0.2430 C   0  0  0  0  0  0  0  0  0  0  0  0
   -1.7738    0.9073   -0.9099 C   0  0  0  0  0  0  0  0  0  0  0  0
    2.7495   -0.1870   -0.5041 C   0  0  0  0  0  0  0  0  0  0  0  0
   -2.8739    1.7008   -0.5844 C   0  0  0  0  0  0  0  0  0  0  0  0
    1.5368   -0.4922   -0.9954 C   0  0  0  0  0  0  0  0  0  0  0  0
    3.8494    0.1071   -1.4059 C   0  0  0  0  0  0  0  0  0  0  0  0
    2.9672   -0.1499    0.9314 C   0  0  0  0  0  0  0  0  0  0  0  0
    5.0693    0.4150   -0.9407 C   0  0  0  0  0  0  0  0  0  0  0  0
    4.1680    0.1523    1.4470 C   0  0  0  0  0  0  0  0  0  0  0  0
    5.3201    0.4608    0.5373 C   0  0  0  0  0  0  0  0  0  0  0  0
   -4.9183   -0.6974    0.6930 H   0  0  0  0  0  0  0  0  0  0  0  0
   -0.9059    1.3713   -1.3696 H   0  0  0  0  0  0  0  0  0  0  0  0
   -2.8148    2.7652   -0.7968 H   0  0  0  0  0  0  0  0  0  0  0  0
    1.3717   -0.5224   -2.0693 H   0  0  0  0  0  0  0  0  0  0  0  0
    3.6590    0.0716   -2.4755 H   0  0  0  0  0  0  0  0  0  0  0  0
    2.1472   -0.3682    1.6073 H   0  0  0  0  0  0  0  0  0  0  0  0
    0.4065   -0.8746    0.7072 H   0  0  0  0  0  0  0  0  0  0  0  0
  1 22  1  0  0  0  0
  2 23  1  0  0  0  0
  3  9  1  0  0  0  0
  3 12  1  0  0  0  0
  4 24  2  0  0  0  0
  5 10  1  0  0  0  0
  6 10  2  0  0  0  0
  7 11  1  0  0  0  0
  8 11  2  0  0  0  0
  9 19  1  0  0  0  0
  9 31  1  0  0  0  0
 10 13  1  0  0  0  0
 11 14  1  0  0  0  0
 12 13  2  0  0  0  0
 12 16  1  0  0  0  0
 13 15  1  0  0  0  0
 14 15  2  0  0  0  0
 14 18  1  0  0  0  0
 15 25  1  0  0  0  0
 16 18  2  0  0  0  0
 16 26  1  0  0  0  0
 17 19  2  0  0  0  0
 17 20  1  0  0  0  0
 17 21  1  0  0  0  0
 18 27  1  0  0  0  0
 19 28  1  0  0  0  0
 20 22  2  0  0  0  0
 20 29  1  0  0  0  0
 21 23  2  0  0  0  0
 21 30  1  0  0  0  0
 22 24  1  0  0  0  0
 23 24  1  0  0  0  0
M  CHG  4   5  -1   7  -1  10   1  11   1
M  END
> <PUBCHEM_COMPOUND_CID>
5360414

> <PUBCHEM_CONFORMER_RMSD>
0.8

> <PUBCHEM_CONFORMER_DIVERSEORDER>
1
30
15
18
9
28
6
4
5
27
10
25
24
21
20
14
12
13
16
19
17
26
11
7
8
23
22
2
3
29

> <PUBCHEM_MMFF94_PARTIAL_CHARGES>
30
1 -0.11
10 0.91
11 0.91
12 0.08
13 0.13
14 0.13
15 -0.15
16 -0.15
18 -0.15
19 -0.05
2 -0.11
20 -0.15
21 -0.15
22 0.12
23 0.12
24 0.54
25 0.15
26 0.15
27 0.15
28 0.15
29 0.15
3 -0.06
30 0.15
31 0.4
4 -0.57
5 -0.52
6 -0.52
7 -0.52
8 -0.52
9 -0.52

> <PUBCHEM_EFFECTIVE_ROTOR_COUNT>
5

> <PUBCHEM_PHARMACOPHORE_FEATURES>
11
1 1 hydrophobe
1 2 hydrophobe
1 4 acceptor
1 5 acceptor
1 5 anion
1 6 acceptor
1 7 acceptor
1 7 anion
1 8 acceptor
6 12 13 14 15 16 18 rings
6 17 20 21 22 23 24 rings

> <PUBCHEM_HEAVY_ATOM_COUNT>
24

> <PUBCHEM_ATOM_DEF_STEREO_COUNT>
0

> <PUBCHEM_ATOM_UDEF_STEREO_COUNT>
0

> <PUBCHEM_BOND_DEF_STEREO_COUNT>
0

> <PUBCHEM_BOND_UDEF_STEREO_COUNT>
0

> <PUBCHEM_ISOTOPIC_ATOM_COUNT>
0

> <PUBCHEM_COMPONENT_COUNT>
1

> <PUBCHEM_CACTVS_TAUTO_COUNT>
3

> <PUBCHEM_CONFORMER_ID>
0051CB1E00000001

> <PUBCHEM_MMFF94_ENERGY>
77.3975

> <PUBCHEM_FEATURE_SELFOVERLAP>
55.978

> <PUBCHEM_SHAPE_FINGERPRINT>
10319926 262 18408893949123728842
10411042 1 17906722615238525687
10912923 1 17775570801943525398
11545043 162 18113896023105254550
12107183 9 17912938458942782890
12236239 1 17632860798281063302
12390115 104 18261383490657828257
12403259 415 17822287947206511406
12596602 18 17274815865871475888
12616971 3 17131838664161919998
12633257 1 18272655644699782229
13631057 29 16556486077566384242
14341114 328 17917991676739118828
15238133 3 18412267246734717856
15537594 2 17418089919146407620
17844677 252 18264204725836218272
19377110 9 17489591126035874912
20554085 129 18264785409973530993
20612939 158 15213019341415597652
21033648 144 15575006005409244128
21033648 29 17821739303804743554
21065198 48 17917714578455629422
212916 134 18337678606677721091
21623969 137 14405185075808355008
21792961 116 17241309379714625140
221357 26 16153425095275197016
22224240 67 18337102471908099585
23522609 53 17631711826015940924
23557571 272 18261380127144788342
23559900 14 18263634212245319006
25147074 1 17774143596990115557
2838139 119 17023473078592908593
44317340 157 14851900105321266584
5104073 3 18059012779149805656
7808743 9 18341325664908383309
90127 26 17894634716976010434

> <PUBCHEM_SHAPE_MULTIPOLES>
455.63
16.57
2.35
1.99
5.02
0.82
-1.52
-7.29
-2.26
-5.83
0.01
4.91
-0.12
-1.48

> <PUBCHEM_SHAPE_SELFOVERLAP>
950.972

> <PUBCHEM_SHAPE_VOLUME>
263.9

> <PUBCHEM_COORDINATE_TYPE>
2
5
10

$$$$

