13118284
  -OEChem-07051213102D

 37 38  0     1  0  0  0  0  0999 V2000
    6.2011   -1.0590    0.0000 O   0  0  0  0  0  0  0  0  0  0  0  0
    3.7320    1.6081    0.0000 O   0  0  0  0  0  0  0  0  0  0  0  0
    2.8660    1.1081    0.0000 C   0  0  1  0  0  0  0  0  0  0  0  0
    2.8660    2.1081    0.0000 C   0  0  0  0  0  0  0  0  0  0  0  0
    3.7320   -0.3919    0.0000 C   0  0  0  0  0  0  0  0  0  0  0  0
    3.7320    2.6081    0.0000 C   0  0  0  0  0  0  0  0  0  0  0  0
    4.5981   -0.8919    0.0000 C   0  0  0  0  0  0  0  0  0  0  0  0
    3.7320    0.6081    0.0000 C   0  0  0  0  0  0  0  0  0  0  0  0
    5.4641   -0.3919    0.0000 C   0  0  0  0  0  0  0  0  0  0  0  0
    5.4641    0.6081    0.0000 C   0  0  0  0  0  0  0  0  0  0  0  0
    2.0000    0.6081    0.0000 C   0  0  0  0  0  0  0  0  0  0  0  0
    4.5981    1.1081    0.0000 C   0  0  0  0  0  0  0  0  0  0  0  0
    4.5981    2.1081    0.0000 C   0  0  0  0  0  0  0  0  0  0  0  0
    4.8073   -1.8638    0.0000 C   0  0  0  0  0  0  0  0  0  0  0  0
    5.7960   -1.9668    0.0000 C   0  0  0  0  0  0  0  0  0  0  0  0
    4.3929    0.5442    0.0000 C   0  0  0  0  0  0  0  0  0  0  0  0
    4.1394   -2.6081    0.0000 C   0  0  0  0  0  0  0  0  0  0  0  0
    2.8660    0.4881    0.0000 H   0  0  0  0  0  0  0  0  0  0  0  0
    2.6540    2.6907    0.0000 H   0  0  0  0  0  0  0  0  0  0  0  0
    2.2554    2.0004    0.0000 H   0  0  0  0  0  0  0  0  0  0  0  0
    3.1215   -0.2843    0.0000 H   0  0  0  0  0  0  0  0  0  0  0  0
    3.5200   -0.9746    0.0000 H   0  0  0  0  0  0  0  0  0  0  0  0
    4.1306    3.0830    0.0000 H   0  0  0  0  0  0  0  0  0  0  0  0
    3.3335    3.0830    0.0000 H   0  0  0  0  0  0  0  0  0  0  0  0
    6.0747    0.5004    0.0000 H   0  0  0  0  0  0  0  0  0  0  0  0
    5.6762    1.1907    0.0000 H   0  0  0  0  0  0  0  0  0  0  0  0
    1.6900    1.1450    0.0000 H   0  0  0  0  0  0  0  0  0  0  0  0
    1.4631    0.2981    0.0000 H   0  0  0  0  0  0  0  0  0  0  0  0
    2.3100    0.0711    0.0000 H   0  0  0  0  0  0  0  0  0  0  0  0
    5.1350    2.4181    0.0000 H   0  0  0  0  0  0  0  0  0  0  0  0
    6.1060   -2.5038    0.0000 H   0  0  0  0  0  0  0  0  0  0  0  0
    3.8102    0.7563    0.0000 H   0  0  0  0  0  0  0  0  0  0  0  0
    4.1808   -0.0384    0.0000 H   0  0  0  0  0  0  0  0  0  0  0  0
    4.9755    0.3322    0.0000 H   0  0  0  0  0  0  0  0  0  0  0  0
    3.6780   -2.1940    0.0000 H   0  0  0  0  0  0  0  0  0  0  0  0
    3.7254   -3.0695    0.0000 H   0  0  0  0  0  0  0  0  0  0  0  0
    4.6009   -3.0221    0.0000 H   0  0  0  0  0  0  0  0  0  0  0  0
  1  9  1  0  0  0  0
  1 15  1  0  0  0  0
  2  8  2  0  0  0  0
  3  4  1  0  0  0  0
  3  8  1  0  0  0  0
  3 11  1  1  0  0  0
  3 18  1  0  0  0  0
  4  6  1  0  0  0  0
  4 19  1  0  0  0  0
  4 20  1  0  0  0  0
  5  7  1  0  0  0  0
  5  8  1  0  0  0  0
  5 21  1  0  0  0  0
  5 22  1  0  0  0  0
  6 13  1  0  0  0  0
  6 23  1  0  0  0  0
  6 24  1  0  0  0  0
  7  9  2  0  0  0  0
  7 14  1  0  0  0  0
  9 10  1  0  0  0  0
 10 12  1  0  0  0  0
 10 25  1  0  0  0  0
 10 26  1  0  0  0  0
 11 27  1  0  0  0  0
 11 28  1  0  0  0  0
 11 29  1  0  0  0  0
 12 13  2  0  0  0  0
 12 16  1  0  0  0  0
 13 30  1  0  0  0  0
 14 15  2  0  0  0  0
 14 17  1  0  0  0  0
 15 31  1  0  0  0  0
 16 32  1  0  0  0  0
 16 33  1  0  0  0  0
 16 34  1  0  0  0  0
 17 35  1  0  0  0  0
 17 36  1  0  0  0  0
 17 37  1  0  0  0  0
M  END
> <PUBCHEM_COMPOUND_CID>
13118284

> <PUBCHEM_COMPOUND_CANONICALIZED>
1

> <PUBCHEM_CACTVS_COMPLEXITY>
319

> <PUBCHEM_CACTVS_HBOND_ACCEPTOR>
2

> <PUBCHEM_CACTVS_HBOND_DONOR>
0

> <PUBCHEM_CACTVS_ROTATABLE_BOND>
0

> <PUBCHEM_CACTVS_SUBSKEYS>
AAADceBwMAAAAAAAAAAAAAAAAAAAASAAAAAAAAAAAAAAAACBgAAAGgAAAAAADQSgmAIiBIAABECIAqhSgAACCAAkIAAAiAEECMgMJjKENRqCGSCkwBEIqQeLzvCugAAAAAAAAAAAAAAAAAAAAAAAAAAAAA==

> <PUBCHEM_IUPAC_OPENEYE_NAME>
(6S,9E)-3,6,10-trimethyl-6,7,8,11-tetrahydro-4H-cyclodeca[b]furan-5-one

> <PUBCHEM_IUPAC_CAS_NAME>
(6S,9E)-3,6,10-trimethyl-6,7,8,11-tetrahydro-4H-cyclodeca[b]furan-5-one

> <PUBCHEM_IUPAC_NAME>
(6S,9E)-3,6,10-trimethyl-6,7,8,11-tetrahydro-4H-cyclodeca[b]furan-5-one

> <PUBCHEM_IUPAC_SYSTEMATIC_NAME>
(6S,9E)-3,6,10-trimethyl-6,7,8,11-tetrahydro-4H-cyclodeca[b]furan-5-one

> <PUBCHEM_IUPAC_TRADITIONAL_NAME>
(6S,9E)-3,6,10-trimethyl-6,7,8,11-tetrahydro-4H-cyclodeca[b]furan-5-one

> <PUBCHEM_IUPAC_INCHI>
InChI=1S/C15H20O2/c1-10-5-4-6-11(2)14(16)8-13-12(3)9-17-15(13)7-10/h5,9,11H,4,6-8H2,1-3H3/b10-5+/t11-/m0/s1

> <PUBCHEM_IUPAC_INCHIKEY>
ZLESWHXADLWJPV-UAWPZABVSA-N

> <PUBCHEM_XLOGP3_AA>
3

> <PUBCHEM_EXACT_MASS>
232.14633

> <PUBCHEM_MOLECULAR_FORMULA>
C15H20O2

> <PUBCHEM_MOLECULAR_WEIGHT>
232.3181

> <PUBCHEM_OPENEYE_CAN_SMILES>
CC1CCC=C(CC2=C(CC1=O)C(=CO2)C)C

> <PUBCHEM_OPENEYE_ISO_SMILES>
C[C@H]1CC/C=C(/CC2=C(CC1=O)C(=CO2)C)\C

> <PUBCHEM_CACTVS_TPSA>
30.2

> <PUBCHEM_MONOISOTOPIC_WEIGHT>
232.14633

> <PUBCHEM_TOTAL_CHARGE>
0

> <PUBCHEM_HEAVY_ATOM_COUNT>
17

> <PUBCHEM_ATOM_DEF_STEREO_COUNT>
1

> <PUBCHEM_ATOM_UDEF_STEREO_COUNT>
0

> <PUBCHEM_BOND_DEF_STEREO_COUNT>
1

> <PUBCHEM_BOND_UDEF_STEREO_COUNT>
0

> <PUBCHEM_ISOTOPIC_ATOM_COUNT>
0

> <PUBCHEM_COMPONENT_COUNT>
1

> <PUBCHEM_CACTVS_TAUTO_COUNT>
3

> <PUBCHEM_COORDINATE_TYPE>
1
5
255

> <PUBCHEM_BONDANNOTATIONS>
1  15  8
1  9  8
14  15  8
3  11  5
7  14  8
7  9  8

$$$$

