5252
  -OEChem-06261200362D

 26 28  0     1  0  0  0  0  0999 V2000
    2.0000    0.1324    0.0000 F   0  0  0  0  0  0  0  0  0  0  0  0
    5.5301    2.1566    0.0000 O   0  0  0  0  0  0  0  0  0  0  0  0
    7.2902   -0.1222    0.0000 O   0  0  0  0  0  0  0  0  0  0  0  0
    4.4423   -2.1913    0.0000 O   0  0  0  0  0  0  0  0  0  0  0  0
    4.7211   -0.4312    0.0000 N   0  0  0  0  0  0  0  0  0  0  0  0
    6.0301   -1.3822    0.0000 N   0  0  0  0  0  0  0  0  0  0  0  0
    5.5301    0.1566    0.0000 C   0  0  3  0  0  0  0  0  0  0  0  0
    6.3961    0.6566    0.0000 C   0  0  0  0  0  0  0  0  0  0  0  0
    4.6641    0.6566    0.0000 C   0  0  0  0  0  0  0  0  0  0  0  0
    6.3391   -0.4312    0.0000 C   0  0  0  0  0  0  0  0  0  0  0  0
    6.3961    1.6566    0.0000 C   0  0  0  0  0  0  0  0  0  0  0  0
    4.6641    1.6566    0.0000 C   0  0  0  0  0  0  0  0  0  0  0  0
    5.0301   -1.3822    0.0000 C   0  0  0  0  0  0  0  0  0  0  0  0
    3.7702    0.1219    0.0000 C   0  0  0  0  0  0  0  0  0  0  0  0
    3.7702    2.1913    0.0000 C   0  0  0  0  0  0  0  0  0  0  0  0
    2.8641    0.6358    0.0000 C   0  0  0  0  0  0  0  0  0  0  0  0
    2.8641    1.6774    0.0000 C   0  0  0  0  0  0  0  0  0  0  0  0
    6.6082    0.0740    0.0000 H   0  0  0  0  0  0  0  0  0  0  0  0
    7.0067    0.7643    0.0000 H   0  0  0  0  0  0  0  0  0  0  0  0
    4.1147   -0.5601    0.0000 H   0  0  0  0  0  0  0  0  0  0  0  0
    7.0067    1.5489    0.0000 H   0  0  0  0  0  0  0  0  0  0  0  0
    6.6082    2.2392    0.0000 H   0  0  0  0  0  0  0  0  0  0  0  0
    6.3946   -1.8838    0.0000 H   0  0  0  0  0  0  0  0  0  0  0  0
    3.7773   -0.4980    0.0000 H   0  0  0  0  0  0  0  0  0  0  0  0
    3.7773    2.8112    0.0000 H   0  0  0  0  0  0  0  0  0  0  0  0
    2.3284    1.9895    0.0000 H   0  0  0  0  0  0  0  0  0  0  0  0
  1 16  1  0  0  0  0
  2 11  1  0  0  0  0
  2 12  1  0  0  0  0
  3 10  2  0  0  0  0
  4 13  2  0  0  0  0
  5  7  1  0  0  0  0
  5 13  1  0  0  0  0
  5 20  1  0  0  0  0
  6 10  1  0  0  0  0
  6 13  1  0  0  0  0
  6 23  1  0  0  0  0
  7  8  1  0  0  0  0
  7  9  1  0  0  0  0
  7 10  1  0  0  0  0
  8 11  1  0  0  0  0
  8 18  1  0  0  0  0
  8 19  1  0  0  0  0
  9 12  2  0  0  0  0
  9 14  1  0  0  0  0
 11 21  1  0  0  0  0
 11 22  1  0  0  0  0
 12 15  1  0  0  0  0
 14 16  2  0  0  0  0
 14 24  1  0  0  0  0
 15 17  2  0  0  0  0
 15 25  1  0  0  0  0
 16 17  1  0  0  0  0
 17 26  1  0  0  0  0
M  END
> <PUBCHEM_COMPOUND_CID>
5252

> <PUBCHEM_COMPOUND_CANONICALIZED>
1

> <PUBCHEM_CACTVS_COMPLEXITY>
376

> <PUBCHEM_CACTVS_HBOND_ACCEPTOR>
4

> <PUBCHEM_CACTVS_HBOND_DONOR>
2

> <PUBCHEM_CACTVS_ROTATABLE_BOND>
0

> <PUBCHEM_CACTVS_SUBSKEYS>
AAADccBzMQAAAAAAAAAAAAAAAAAAAWAAAAA0QAAAAAAAAACRAAAAHwAQAAAADIyhmAoxBoLABACIAiFSEACCCAAgIAAIiAGGDIiMZjKEtTuWOCju1TMIqAe6yOCOgAAAAAAIAAAAAAAAABAAAAAAAAAAAA==

> <PUBCHEM_IUPAC_OPENEYE_NAME>
6-fluorospiro[chromane-4,5'-imidazolidine]-2',4'-dione

> <PUBCHEM_IUPAC_CAS_NAME>
6-fluorospiro[3,4-dihydro-2H-1-benzopyran-4,5'-imidazolidine]-2',4'-dione

> <PUBCHEM_IUPAC_NAME>
6-fluorospiro[2,3-dihydrochromene-4,5'-imidazolidine]-2',4'-dione

> <PUBCHEM_IUPAC_SYSTEMATIC_NAME>
6-fluoranylspiro[2,3-dihydrochromene-4,5'-imidazolidine]-2',4'-dione

> <PUBCHEM_IUPAC_TRADITIONAL_NAME>
6-fluorospiro[chroman-4,5'-imidazolidine]-2',4'-quinone

> <PUBCHEM_IUPAC_INCHI>
InChI=1S/C11H9FN2O3/c12-6-1-2-8-7(5-6)11(3-4-17-8)9(15)13-10(16)14-11/h1-2,5H,3-4H2,(H2,13,14,15,16)

> <PUBCHEM_IUPAC_INCHIKEY>
LXANPKRCLVQAOG-UHFFFAOYSA-N

> <PUBCHEM_XLOGP3_AA>
0.7

> <PUBCHEM_EXACT_MASS>
236.05972

> <PUBCHEM_MOLECULAR_FORMULA>
C11H9FN2O3

> <PUBCHEM_MOLECULAR_WEIGHT>
236.199163

> <PUBCHEM_OPENEYE_CAN_SMILES>
C1COC2=C(C13C(=O)NC(=O)N3)C=C(C=C2)F

> <PUBCHEM_OPENEYE_ISO_SMILES>
C1COC2=C(C13C(=O)NC(=O)N3)C=C(C=C2)F

> <PUBCHEM_CACTVS_TPSA>
67.4

> <PUBCHEM_MONOISOTOPIC_WEIGHT>
236.05972

> <PUBCHEM_TOTAL_CHARGE>
0

> <PUBCHEM_HEAVY_ATOM_COUNT>
17

> <PUBCHEM_ATOM_DEF_STEREO_COUNT>
0

> <PUBCHEM_ATOM_UDEF_STEREO_COUNT>
1

> <PUBCHEM_BOND_DEF_STEREO_COUNT>
0

> <PUBCHEM_BOND_UDEF_STEREO_COUNT>
0

> <PUBCHEM_ISOTOPIC_ATOM_COUNT>
0

> <PUBCHEM_COMPONENT_COUNT>
1

> <PUBCHEM_CACTVS_TAUTO_COUNT>
5

> <PUBCHEM_COORDINATE_TYPE>
1
5
255

> <PUBCHEM_BONDANNOTATIONS>
12  15  8
14  16  8
15  17  8
16  17  8
7  8  3
9  12  8
9  14  8

$$$$

