17395964
  -OEChem-06241222533D

 35 37  0     1  0  0  0  0  0999 V2000
   -0.7157   -1.1957   -0.1046 S   0  0  0  0  0  0  0  0  0  0  0  0
    4.7121    0.6062   -0.1541 S   0  0  0  0  0  0  0  0  0  0  0  0
    2.0245    0.1535   -0.1122 O   0  0  0  0  0  0  0  0  0  0  0  0
    6.6994   -1.5178    0.8641 O   0  0  0  0  0  0  0  0  0  0  0  0
    1.2412    2.2461   -0.0024 N   0  0  0  0  0  0  0  0  0  0  0  0
    2.6219    2.3079   -0.0335 N   0  0  0  0  0  0  0  0  0  0  0  0
   -5.1205   -0.2506    0.4298 C   0  0  1  0  0  0  0  0  0  0  0  0
   -4.7961   -1.5370   -0.3609 C   0  0  0  0  0  0  0  0  0  0  0  0
   -4.1426    0.8867    0.0571 C   0  0  0  0  0  0  0  0  0  0  0  0
   -3.3814   -2.0550   -0.0548 C   0  0  0  0  0  0  0  0  0  0  0  0
   -2.7225    0.4112    0.0187 C   0  0  0  0  0  0  0  0  0  0  0  0
   -2.3965   -0.9293   -0.0550 C   0  0  0  0  0  0  0  0  0  0  0  0
   -6.5640    0.1854    0.1884 C   0  0  0  0  0  0  0  0  0  0  0  0
   -1.5539    1.2305    0.0249 C   0  0  0  0  0  0  0  0  0  0  0  0
   -0.3961    0.4852   -0.0375 C   0  0  0  0  0  0  0  0  0  0  0  0
    0.9373    0.9701   -0.0505 C   0  0  0  0  0  0  0  0  0  0  0  0
    3.0361    1.0640   -0.0972 C   0  0  0  0  0  0  0  0  0  0  0  0
    4.5740   -1.2010   -0.2306 C   0  0  0  0  0  0  0  0  0  0  0  0
    5.9429   -1.8604   -0.2897 C   0  0  0  0  0  0  0  0  0  0  0  0
   -5.0070   -0.4715    1.5002 H   0  0  0  0  0  0  0  0  0  0  0  0
   -4.8834   -1.3333   -1.4366 H   0  0  0  0  0  0  0  0  0  0  0  0
   -5.5234   -2.3237   -0.1272 H   0  0  0  0  0  0  0  0  0  0  0  0
   -4.2429    1.7074    0.7776 H   0  0  0  0  0  0  0  0  0  0  0  0
   -4.3954    1.2901   -0.9320 H   0  0  0  0  0  0  0  0  0  0  0  0
   -3.1072   -2.8190   -0.7911 H   0  0  0  0  0  0  0  0  0  0  0  0
   -3.3767   -2.5303    0.9339 H   0  0  0  0  0  0  0  0  0  0  0  0
   -6.7430    0.4027   -0.8700 H   0  0  0  0  0  0  0  0  0  0  0  0
   -7.2628   -0.5999    0.4951 H   0  0  0  0  0  0  0  0  0  0  0  0
   -6.7983    1.0867    0.7646 H   0  0  0  0  0  0  0  0  0  0  0  0
   -1.5742    2.3128    0.0709 H   0  0  0  0  0  0  0  0  0  0  0  0
    4.0469   -1.5394    0.6680 H   0  0  0  0  0  0  0  0  0  0  0  0
    3.9891   -1.4889   -1.1101 H   0  0  0  0  0  0  0  0  0  0  0  0
    6.4973   -1.5488   -1.1815 H   0  0  0  0  0  0  0  0  0  0  0  0
    5.8311   -2.9492   -0.3163 H   0  0  0  0  0  0  0  0  0  0  0  0
    7.5578   -1.9680    0.7863 H   0  0  0  0  0  0  0  0  0  0  0  0
  1 12  1  0  0  0  0
  1 15  1  0  0  0  0
  2 17  1  0  0  0  0
  2 18  1  0  0  0  0
  3 16  1  0  0  0  0
  3 17  1  0  0  0  0
  4 19  1  0  0  0  0
  4 35  1  0  0  0  0
  5  6  1  0  0  0  0
  5 16  2  0  0  0  0
  6 17  2  0  0  0  0
  7  8  1  0  0  0  0
  7  9  1  0  0  0  0
  7 13  1  0  0  0  0
  7 20  1  0  0  0  0
  8 10  1  0  0  0  0
  8 21  1  0  0  0  0
  8 22  1  0  0  0  0
  9 11  1  0  0  0  0
  9 23  1  0  0  0  0
  9 24  1  0  0  0  0
 10 12  1  0  0  0  0
 10 25  1  0  0  0  0
 10 26  1  0  0  0  0
 11 12  2  0  0  0  0
 11 14  1  0  0  0  0
 13 27  1  0  0  0  0
 13 28  1  0  0  0  0
 13 29  1  0  0  0  0
 14 15  2  0  0  0  0
 14 30  1  0  0  0  0
 15 16  1  0  0  0  0
 18 19  1  0  0  0  0
 18 31  1  0  0  0  0
 18 32  1  0  0  0  0
 19 33  1  0  0  0  0
 19 34  1  0  0  0  0
M  END
> <PUBCHEM_COMPOUND_CID>
17395964

> <PUBCHEM_CONFORMER_RMSD>
0.6

> <PUBCHEM_CONFORMER_DIVERSEORDER>
1
179
200
40
116
95
161
211
192
70
42
164
110
39
108
148
10
146
208
96
49
112
68
35
57
215
206
13
154
107
28
156
159
92
67
60
140
175
11
219
76
128
78
197
143
22
151
89
191
209
91
222
17
182
73
34
88
207
106
56
135
77
195
184
58
41
194
218
165
181
9
26
127
171
119
21
204
93
125
120
50
160
150
174
29
153
80
44
134
75
20
130
37
144
101
169
6
115
193
66
113
142
2
167
43
213
30
103
3
53
166
170
189
31
99
114
90
212
104
196
202
98
137
16
55
183
216
7
45
72
203
162
141
47
172
109
122
24
136
33
188
214
19
79
185
4
63
138
84
117
46
48
102
155
210
132
38
27
187
14
111
217
221
15
121
23
87
131
18
173
145
177
64
139
152
186
52
149
124
105
12
8
205
25
126
69
220
82
83
86
61
168
163
51
201
59
158
118
129
62
5
71
190
32
54
176
147
100
178
123
180
198
97
36
133
65
94
85
74
199
81
157

> <PUBCHEM_MMFF94_PARTIAL_CHARGES>
18
1 -0.08
10 0.18
11 -0.18
12 -0.14
14 -0.15
15 0.04
16 0.48
17 0.53
18 0.23
19 0.28
2 -0.29
3 -0.28
30 0.15
35 0.4
4 -0.68
5 -0.34
6 -0.34
9 0.18

> <PUBCHEM_EFFECTIVE_ROTOR_COUNT>
4.8

> <PUBCHEM_PHARMACOPHORE_FEATURES>
5
1 4 acceptor
1 4 donor
5 1 11 12 14 15 rings
5 3 5 6 16 17 rings
6 7 8 9 10 11 12 rings

> <PUBCHEM_HEAVY_ATOM_COUNT>
19

> <PUBCHEM_ATOM_DEF_STEREO_COUNT>
0

> <PUBCHEM_ATOM_UDEF_STEREO_COUNT>
1

> <PUBCHEM_BOND_DEF_STEREO_COUNT>
0

> <PUBCHEM_BOND_UDEF_STEREO_COUNT>
0

> <PUBCHEM_ISOTOPIC_ATOM_COUNT>
0

> <PUBCHEM_COMPONENT_COUNT>
1

> <PUBCHEM_CACTVS_TAUTO_COUNT>
1

> <PUBCHEM_CONFORMER_ID>
010970FC00000001

> <PUBCHEM_MMFF94_ENERGY>
16.6171

> <PUBCHEM_FEATURE_SELFOVERLAP>
25.428

> <PUBCHEM_SHAPE_FINGERPRINT>
10670039 82 8430323485045648026
10753850 27 17988648540793573562
11405975 8 18261670372718971825
12107183 9 18263916812387526921
12236239 1 18409165489714099809
12516196 113 18333733533546127168
12555020 224 18411427189644018279
13073987 5 18262797342246711921
13167823 11 18410857620649867895
13288520 33 18411135848757715039
13533116 47 18260548905471722688
13551218 46 18408322211282091390
13685833 64 18412824703166244826
13862211 1 18408604755810880911
14251752 14 17917997216967297653
14251764 18 18335420162670792214
14341114 176 18411413990644852465
14420673 8 18411133675357258678
15183329 4 18408878551211882598
15196674 1 18337670819495740527
15352361 1 18410292536656960678
17492 89 18123750851056584155
17857418 61 18409448085571955022
1813 80 17489872622508774924
18186145 218 17845665733260652733
19141452 34 18335139760961463959
19784866 240 18408878564444956952
200 152 17967811605303303645
20374829 77 18413389860764524198
20403669 9 18408880763610916974
20645477 70 18341332215250253292
20832881 197 18411698777088730544
21065198 57 18264488378124159433
21267235 1 18411974780166348946
21279426 13 18339924934317930197
21682296 61 18262510511061167942
23016692 55 18336536184400930318
23402539 116 18113620050218962181
23522609 53 18124280948488972357
23559900 14 18337395928809773121
3004659 81 18272083916713935550
335352 9 18410292523639885037
3421961 26 18335986389943145600
4073 2 18057319492603785634
4214541 1 18409728465458657669
4340502 62 13912321287185510636
465052 167 18335134298311579318
5104073 3 18187639150966616451
559249 180 18410858797708251343
6138700 20 18340767147662242330
633830 44 17488466282606603977
77779 3 18338232644526660245
9709674 26 18197495125716281603
9965369 4 18335137609578195203
9971528 1 18201440220876866524
9981440 41 17187286764409620648

> <PUBCHEM_SHAPE_MULTIPOLES>
377.01
15.4
2.18
0.67
7.28
0.01
-0.02
6.97
-1.32
1.58
0.05
0.14
0.09
-0.4

> <PUBCHEM_SHAPE_SELFOVERLAP>
772.754

> <PUBCHEM_SHAPE_VOLUME>
220.9

> <PUBCHEM_COORDINATE_TYPE>
2
5
10

$$$$

