46174007
  -OEChem-07051213112D

 44 43  0     1  0  0  0  0  0999 V2000
    3.7320   -1.4400    0.0000 P   0  3  0  0  0  0  0  0  0  0  0  0
    5.4641    2.5600    0.0000 O   0  0  0  0  0  0  0  0  0  0  0  0
    8.0622    0.0600    0.0000 O   0  0  0  0  0  0  0  0  0  0  0  0
    2.8660   -1.9400    0.0000 O   0  0  0  0  0  0  0  0  0  0  0  0
    2.8660    0.0600    0.0000 O   0  0  0  0  0  0  0  0  0  0  0  0
    4.5981   -1.9400    0.0000 O   0  0  0  0  0  0  0  0  0  0  0  0
   11.5263    1.0600    0.0000 O   0  0  0  0  0  0  0  0  0  0  0  0
   10.6603    2.5600    0.0000 O   0  0  0  0  0  0  0  0  0  0  0  0
    6.3301    1.0600    0.0000 N   0  0  0  0  0  0  0  0  0  0  0  0
    3.7320    1.5600    0.0000 N   0  0  0  0  0  0  0  0  0  0  0  0
    8.9282    1.5600    0.0000 N   0  0  0  0  0  0  0  0  0  0  0  0
    4.5981    1.0600    0.0000 C   0  0  1  0  0  0  0  0  0  0  0  0
    4.5981    0.0600    0.0000 C   0  0  0  0  0  0  0  0  0  0  0  0
    7.1962    1.5600    0.0000 C   0  0  2  0  0  0  0  0  0  0  0  0
    5.4641    1.5600    0.0000 C   0  0  0  0  0  0  0  0  0  0  0  0
    3.7320   -0.4400    0.0000 C   0  0  0  0  0  0  0  0  0  0  0  0
    8.0622    1.0600    0.0000 C   0  0  0  0  0  0  0  0  0  0  0  0
    7.1962    2.5600    0.0000 C   0  0  0  0  0  0  0  0  0  0  0  0
    9.7942    1.0600    0.0000 C   0  0  1  0  0  0  0  0  0  0  0  0
    2.8660    1.0600    0.0000 C   0  0  0  0  0  0  0  0  0  0  0  0
    9.7942    0.0600    0.0000 C   0  0  0  0  0  0  0  0  0  0  0  0
   10.6603    1.5600    0.0000 C   0  0  0  0  0  0  0  0  0  0  0  0
    2.0000    1.5600    0.0000 C   0  0  0  0  0  0  0  0  0  0  0  0
    4.5981    1.6800    0.0000 H   0  0  0  0  0  0  0  0  0  0  0  0
    4.8101   -0.5226    0.0000 H   0  0  0  0  0  0  0  0  0  0  0  0
    5.2087    0.1677    0.0000 H   0  0  0  0  0  0  0  0  0  0  0  0
    6.6592    1.8700    0.0000 H   0  0  0  0  0  0  0  0  0  0  0  0
    6.3301    0.4400    0.0000 H   0  0  0  0  0  0  0  0  0  0  0  0
    3.5200    0.1426    0.0000 H   0  0  0  0  0  0  0  0  0  0  0  0
    3.1215   -0.5477    0.0000 H   0  0  0  0  0  0  0  0  0  0  0  0
    3.7320    2.1800    0.0000 H   0  0  0  0  0  0  0  0  0  0  0  0
    7.8162    2.5600    0.0000 H   0  0  0  0  0  0  0  0  0  0  0  0
    7.1962    3.1800    0.0000 H   0  0  0  0  0  0  0  0  0  0  0  0
    6.5762    2.5600    0.0000 H   0  0  0  0  0  0  0  0  0  0  0  0
    9.2573    0.7500    0.0000 H   0  0  0  0  0  0  0  0  0  0  0  0
    8.9282    2.1800    0.0000 H   0  0  0  0  0  0  0  0  0  0  0  0
    9.1742    0.0600    0.0000 H   0  0  0  0  0  0  0  0  0  0  0  0
    9.7942   -0.5600    0.0000 H   0  0  0  0  0  0  0  0  0  0  0  0
   10.4142    0.0600    0.0000 H   0  0  0  0  0  0  0  0  0  0  0  0
    2.3100    2.0969    0.0000 H   0  0  0  0  0  0  0  0  0  0  0  0
    1.4631    1.8700    0.0000 H   0  0  0  0  0  0  0  0  0  0  0  0
    1.6900    1.0231    0.0000 H   0  0  0  0  0  0  0  0  0  0  0  0
    2.8660   -2.5600    0.0000 H   0  0  0  0  0  0  0  0  0  0  0  0
   12.0632    1.3700    0.0000 H   0  0  0  0  0  0  0  0  0  0  0  0
  1  4  1  0  0  0  0
  1  6  2  0  0  0  0
  1 16  1  0  0  0  0
  2 15  2  0  0  0  0
  3 17  2  0  0  0  0
  4 43  1  0  0  0  0
  5 20  2  0  0  0  0
  7 22  1  0  0  0  0
  7 44  1  0  0  0  0
  8 22  2  0  0  0  0
 14  9  1  1  0  0  0
  9 15  1  0  0  0  0
  9 28  1  0  0  0  0
 12 10  1  6  0  0  0
 10 20  1  0  0  0  0
 10 31  1  0  0  0  0
 11 17  1  0  0  0  0
 19 11  1  6  0  0  0
 11 36  1  0  0  0  0
 12 13  1  0  0  0  0
 12 15  1  0  0  0  0
 12 24  1  0  0  0  0
 13 16  1  0  0  0  0
 13 25  1  0  0  0  0
 13 26  1  0  0  0  0
 14 17  1  0  0  0  0
 14 18  1  0  0  0  0
 14 27  1  0  0  0  0
 16 29  1  0  0  0  0
 16 30  1  0  0  0  0
 18 32  1  0  0  0  0
 18 33  1  0  0  0  0
 18 34  1  0  0  0  0
 19 21  1  0  0  0  0
 19 22  1  0  0  0  0
 19 35  1  0  0  0  0
 20 23  1  0  0  0  0
 21 37  1  0  0  0  0
 21 38  1  0  0  0  0
 21 39  1  0  0  0  0
 23 40  1  0  0  0  0
 23 41  1  0  0  0  0
 23 42  1  0  0  0  0
M  CHG  1   1   1
M  END
> <PUBCHEM_COMPOUND_CID>
46174007

> <PUBCHEM_COMPOUND_CANONICALIZED>
1

> <PUBCHEM_CACTVS_COMPLEXITY>
497

> <PUBCHEM_CACTVS_HBOND_ACCEPTOR>
7

> <PUBCHEM_CACTVS_HBOND_DONOR>
5

> <PUBCHEM_CACTVS_ROTATABLE_BOND>
9

> <PUBCHEM_CACTVS_SUBSKEYS>
AAADceBzOAIAAAAAAAAAAAAAAAAAAAAAAAAAAAAAAAAAAAAAAAAAHggQCCAACCjJgAQCCALAAhAIQAGQGIAAAAAAAAAAAIGIAAACQBAAgCAUQAAAFgCQAAAAAAAAAAAAAAAAAAAAAAAAAAAAAAAAAAAAAA==

> <PUBCHEM_IUPAC_OPENEYE_NAME>
[(3S)-3-acetamido-4-[[(1S)-2-[[(1S)-1-carboxyethyl]amino]-1-methyl-2-oxo-ethyl]amino]-4-oxo-butyl]-hydroxy-oxo-phosphonium

> <PUBCHEM_IUPAC_CAS_NAME>
[(3S)-3-acetamido-4-[[(2S)-1-[[(1S)-1-carboxyethyl]amino]-1-oxopropan-2-yl]amino]-4-oxobutyl]-hydroxy-oxophosphonium

> <PUBCHEM_IUPAC_NAME>
[(3S)-3-acetamido-4-[[(2S)-1-[[(1S)-1-carboxyethyl]amino]-1-oxopropan-2-yl]amino]-4-oxobutyl]-hydroxy-oxophosphanium

> <PUBCHEM_IUPAC_SYSTEMATIC_NAME>
[(3S)-3-acetamido-4-oxidanylidene-4-[[(2S)-1-oxidanylidene-1-[[(2S)-1-oxidanyl-1-oxidanylidene-propan-2-yl]amino]propan-2-yl]amino]butyl]-oxidanyl-oxidanylidene-phosphanium

> <PUBCHEM_IUPAC_TRADITIONAL_NAME>
[(3S)-3-acetamido-4-[[(1S)-2-[[(1S)-1-carboxyethyl]amino]-2-keto-1-methyl-ethyl]amino]-4-keto-butyl]-hydroxy-keto-phosphonium

> <PUBCHEM_IUPAC_INCHI>
InChI=1S/C12H19N3O7P/c1-6(10(17)14-7(2)12(19)20)13-11(18)9(15-8(3)16)4-5-23(21)22/h6-7,9H,4-5H2,1-3H3,(H3-2,13,14,15,16,17,18,19,20,21,22)/q-1/p+2/t6-,7-,9-/m0/s1

> <PUBCHEM_IUPAC_INCHIKEY>
YDNMXQCJJJFDED-ZKWXMUAHSA-P

> <PUBCHEM_XLOGP3>
-2

> <PUBCHEM_EXACT_MASS>
350.111712

> <PUBCHEM_MOLECULAR_FORMULA>
C12H21N3O7P+

> <PUBCHEM_MOLECULAR_WEIGHT>
350.284802

> <PUBCHEM_OPENEYE_CAN_SMILES>
CC(C(=O)NC(C)C(=O)O)NC(=O)C(CC[P+](=O)O)NC(=O)C

> <PUBCHEM_OPENEYE_ISO_SMILES>
C[C@@H](C(=O)N[C@@H](C)C(=O)O)NC(=O)[C@H](CC[P+](=O)O)NC(=O)C

> <PUBCHEM_CACTVS_TPSA>
162

> <PUBCHEM_MONOISOTOPIC_WEIGHT>
350.111712

> <PUBCHEM_TOTAL_CHARGE>
1

> <PUBCHEM_HEAVY_ATOM_COUNT>
23

> <PUBCHEM_ATOM_DEF_STEREO_COUNT>
3

> <PUBCHEM_ATOM_UDEF_STEREO_COUNT>
0

> <PUBCHEM_BOND_DEF_STEREO_COUNT>
0

> <PUBCHEM_BOND_UDEF_STEREO_COUNT>
0

> <PUBCHEM_ISOTOPIC_ATOM_COUNT>
0

> <PUBCHEM_COMPONENT_COUNT>
1

> <PUBCHEM_CACTVS_TAUTO_COUNT>
8

> <PUBCHEM_COORDINATE_TYPE>
1
5
255

> <PUBCHEM_BONDANNOTATIONS>
12  10  6
19  11  6
14  9  5

$$$$

