15531
  -OEChem-07051212493D

 14 14  0     0  0  0  0  0  0999 V2000
    1.6820   -2.8723    0.0001 Br  0  0  0  0  0  0  0  0  0  0  0  0
    1.6843    2.8715    0.0001 Br  0  0  0  0  0  0  0  0  0  0  0  0
    2.8363    0.0002   -0.0003 O   0  0  0  0  0  0  0  0  0  0  0  0
   -3.9099    0.0010    0.0000 N   0  0  0  0  0  0  0  0  0  0  0  0
    1.4709   -0.0006    0.0001 C   0  0  0  0  0  0  0  0  0  0  0  0
   -1.3190    0.0002   -0.0001 C   0  0  0  0  0  0  0  0  0  0  0  0
    0.7730   -1.2084    0.0001 C   0  0  0  0  0  0  0  0  0  0  0  0
    0.7737    1.2077    0.0001 C   0  0  0  0  0  0  0  0  0  0  0  0
   -0.6219   -1.2079    0.0000 C   0  0  0  0  0  0  0  0  0  0  0  0
   -0.6213    1.2079   -0.0001 C   0  0  0  0  0  0  0  0  0  0  0  0
   -2.7480    0.0007    0.0000 C   0  0  0  0  0  0  0  0  0  0  0  0
   -1.1693   -2.1486   -0.0001 H   0  0  0  0  0  0  0  0  0  0  0  0
   -1.1681    2.1490   -0.0002 H   0  0  0  0  0  0  0  0  0  0  0  0
    3.1441    0.9230   -0.0004 H   0  0  0  0  0  0  0  0  0  0  0  0
  1  7  1  0  0  0  0
  2  8  1  0  0  0  0
  3  5  1  0  0  0  0
  3 14  1  0  0  0  0
  4 11  3  0  0  0  0
  5  7  2  0  0  0  0
  5  8  1  0  0  0  0
  6  9  2  0  0  0  0
  6 10  1  0  0  0  0
  6 11  1  0  0  0  0
  7  9  1  0  0  0  0
  8 10  2  0  0  0  0
  9 12  1  0  0  0  0
 10 13  1  0  0  0  0
M  END
> <PUBCHEM_COMPOUND_CID>
15531

> <PUBCHEM_CONFORMER_RMSD>
0.4

> <PUBCHEM_CONFORMER_DIVERSEORDER>
1

> <PUBCHEM_MMFF94_PARTIAL_CHARGES>
14
1 -0.11
10 -0.15
11 0.48
12 0.15
13 0.15
14 0.45
2 -0.11
3 -0.53
4 -0.56
5 0.08
6 0.07
7 0.11
8 0.11
9 -0.15

> <PUBCHEM_EFFECTIVE_ROTOR_COUNT>
0

> <PUBCHEM_PHARMACOPHORE_FEATURES>
5
1 1 hydrophobe
1 2 hydrophobe
1 3 donor
1 4 acceptor
6 5 6 7 8 9 10 rings

> <PUBCHEM_HEAVY_ATOM_COUNT>
11

> <PUBCHEM_ATOM_DEF_STEREO_COUNT>
0

> <PUBCHEM_ATOM_UDEF_STEREO_COUNT>
0

> <PUBCHEM_BOND_DEF_STEREO_COUNT>
0

> <PUBCHEM_BOND_UDEF_STEREO_COUNT>
0

> <PUBCHEM_ISOTOPIC_ATOM_COUNT>
0

> <PUBCHEM_COMPONENT_COUNT>
1

> <PUBCHEM_CACTVS_TAUTO_COUNT>
2

> <PUBCHEM_CONFORMER_ID>
00003CAB00000001

> <PUBCHEM_MMFF94_ENERGY>
20.2087

> <PUBCHEM_FEATURE_SELFOVERLAP>
25.371

> <PUBCHEM_SHAPE_FINGERPRINT>
1 1 18339081488566417031
12423570 1 4797022915515371474
13380535 76 18048883987539628884
13380536 305 18338510837968956796
14325111 11 18266459802572943045
14817 1 11808231854224260748
161256 15 18192712460915881598
16945 1 18410573985220022917
19021347 4 17906455420098665512
193761 8 17834113430796435332
20201158 50 18342457058294642675
20511035 2 17914044301093591018
20588541 1 18343015601347854578
20645477 70 18412270528158394759
20871998 22 18046907366122739150
21040471 1 17978510828024853760
2334 1 17978228253425433728
23552423 10 18336830801423704351
241688 4 17906731754025825424
2748010 2 18052531080298451166
7364860 26 18409730664101760768
81228 2 17401772320096428544

> <PUBCHEM_SHAPE_MULTIPOLES>
227.41
4.06
3.08
0.63
4.16
0
0
-0.01
0
-3.08
0
-0.05
0
0

> <PUBCHEM_SHAPE_SELFOVERLAP>
449.328

> <PUBCHEM_SHAPE_VOLUME>
140.4

> <PUBCHEM_COORDINATE_TYPE>
2
5
10

$$$$

