17396384
  -OEChem-06241222563D

 55 58  0     0  0  0  0  0  0999 V2000
   -4.5844   -1.6248   -2.1321 Cl  0  0  0  0  0  0  0  0  0  0  0  0
   -6.0365    1.1020    3.2860 Cl  0  0  0  0  0  0  0  0  0  0  0  0
   -3.0518    1.0817   -1.2189 S   0  0  0  0  0  0  0  0  0  0  0  0
   -3.5072    1.0855   -2.5924 O   0  0  0  0  0  0  0  0  0  0  0  0
   -2.6506    2.3073   -0.5623 O   0  0  0  0  0  0  0  0  0  0  0  0
    2.8584   -1.6877   -1.2063 O   0  0  0  0  0  0  0  0  0  0  0  0
   -1.7996   -0.0751   -1.0489 N   0  0  0  0  0  0  0  0  0  0  0  0
    0.6332   -1.4913   -0.5800 N   0  0  0  0  0  0  0  0  0  0  0  0
    2.2940   -2.1629    0.9648 N   0  0  0  0  0  0  0  0  0  0  0  0
    4.5170   -0.2070    0.9020 N   0  0  0  0  0  0  0  0  0  0  0  0
    5.3343    1.0133   -0.7664 N   0  0  0  0  0  0  0  0  0  0  0  0
   -0.6471    0.0887   -1.9821 C   0  0  0  0  0  0  0  0  0  0  0  0
   -1.3366   -0.3149    0.3489 C   0  0  0  0  0  0  0  0  0  0  0  0
    0.2070   -1.1718   -1.9455 C   0  0  0  0  0  0  0  0  0  0  0  0
   -0.4634   -1.5670    0.3977 C   0  0  0  0  0  0  0  0  0  0  0  0
    1.9879   -1.7727   -0.3335 C   0  0  0  0  0  0  0  0  0  0  0  0
   -4.3065    0.3234   -0.2358 C   0  0  0  0  0  0  0  0  0  0  0  0
    3.6422   -2.4912    1.3713 C   0  0  0  0  0  0  0  0  0  0  0  0
    4.4090   -1.2785    1.8877 C   0  0  0  0  0  0  0  0  0  0  0  0
    3.6284    0.8237    0.7330 C   0  0  0  0  0  0  0  0  0  0  0  0
   -4.9590   -0.8416   -0.6392 C   0  0  0  0  0  0  0  0  0  0  0  0
   -4.6395    0.9245    0.9781 C   0  0  0  0  0  0  0  0  0  0  0  0
    5.5177   -0.0501   -0.0162 C   0  0  0  0  0  0  0  0  0  0  0  0
    4.1606    1.5713   -0.3139 C   0  0  0  0  0  0  0  0  0  0  0  0
    2.4409    1.1559    1.3860 C   0  0  0  0  0  0  0  0  0  0  0  0
   -5.6248    0.3606    1.7884 C   0  0  0  0  0  0  0  0  0  0  0  0
   -5.9444   -1.4055    0.1712 C   0  0  0  0  0  0  0  0  0  0  0  0
    6.6514   -0.9928   -0.1118 C   0  0  0  0  0  0  0  0  0  0  0  0
    3.4814    2.7220   -0.7481 C   0  0  0  0  0  0  0  0  0  0  0  0
   -6.2773   -0.8044    1.3849 C   0  0  0  0  0  0  0  0  0  0  0  0
    1.7780    2.3043    0.9407 C   0  0  0  0  0  0  0  0  0  0  0  0
    2.2872    3.0748   -0.1071 C   0  0  0  0  0  0  0  0  0  0  0  0
   -0.0573    0.9636   -1.6849 H   0  0  0  0  0  0  0  0  0  0  0  0
   -1.0096    0.2415   -3.0036 H   0  0  0  0  0  0  0  0  0  0  0  0
   -2.1758   -0.4716    1.0292 H   0  0  0  0  0  0  0  0  0  0  0  0
   -0.7696    0.5553    0.6972 H   0  0  0  0  0  0  0  0  0  0  0  0
    1.0692   -1.0519   -2.6087 H   0  0  0  0  0  0  0  0  0  0  0  0
   -0.3678   -2.0331   -2.3076 H   0  0  0  0  0  0  0  0  0  0  0  0
   -1.0553   -2.4524    0.1360 H   0  0  0  0  0  0  0  0  0  0  0  0
   -0.1159   -1.6975    1.4212 H   0  0  0  0  0  0  0  0  0  0  0  0
    3.5656   -3.2425    2.1642 H   0  0  0  0  0  0  0  0  0  0  0  0
    4.1675   -2.9507    0.5271 H   0  0  0  0  0  0  0  0  0  0  0  0
    1.5807   -2.2686    1.6714 H   0  0  0  0  0  0  0  0  0  0  0  0
    5.4199   -1.5633    2.1964 H   0  0  0  0  0  0  0  0  0  0  0  0
    3.9164   -0.8575    2.7718 H   0  0  0  0  0  0  0  0  0  0  0  0
   -4.1414    1.8305    1.3121 H   0  0  0  0  0  0  0  0  0  0  0  0
    2.0406    0.5635    2.2006 H   0  0  0  0  0  0  0  0  0  0  0  0
   -6.4625   -2.3131   -0.1282 H   0  0  0  0  0  0  0  0  0  0  0  0
    7.2976   -0.7255   -0.9543 H   0  0  0  0  0  0  0  0  0  0  0  0
    6.3055   -2.0176   -0.2750 H   0  0  0  0  0  0  0  0  0  0  0  0
    7.2628   -0.9641    0.7954 H   0  0  0  0  0  0  0  0  0  0  0  0
    3.8684    3.3270   -1.5618 H   0  0  0  0  0  0  0  0  0  0  0  0
   -7.0471   -1.2547    2.0062 H   0  0  0  0  0  0  0  0  0  0  0  0
    0.8482    2.6018    1.4194 H   0  0  0  0  0  0  0  0  0  0  0  0
    1.7484    3.9614   -0.4316 H   0  0  0  0  0  0  0  0  0  0  0  0
  1 21  1  0  0  0  0
  2 26  1  0  0  0  0
  3  4  2  0  0  0  0
  3  5  2  0  0  0  0
  3  7  1  0  0  0  0
  3 17  1  0  0  0  0
  6 16  2  0  0  0  0
  7 12  1  0  0  0  0
  7 13  1  0  0  0  0
  8 14  1  0  0  0  0
  8 15  1  0  0  0  0
  8 16  1  0  0  0  0
  9 16  1  0  0  0  0
  9 18  1  0  0  0  0
  9 43  1  0  0  0  0
 10 19  1  0  0  0  0
 10 20  1  0  0  0  0
 10 23  1  0  0  0  0
 11 23  2  0  0  0  0
 11 24  1  0  0  0  0
 12 14  1  0  0  0  0
 12 33  1  0  0  0  0
 12 34  1  0  0  0  0
 13 15  1  0  0  0  0
 13 35  1  0  0  0  0
 13 36  1  0  0  0  0
 14 37  1  0  0  0  0
 14 38  1  0  0  0  0
 15 39  1  0  0  0  0
 15 40  1  0  0  0  0
 17 21  2  0  0  0  0
 17 22  1  0  0  0  0
 18 19  1  0  0  0  0
 18 41  1  0  0  0  0
 18 42  1  0  0  0  0
 19 44  1  0  0  0  0
 19 45  1  0  0  0  0
 20 24  1  0  0  0  0
 20 25  2  0  0  0  0
 21 27  1  0  0  0  0
 22 26  2  0  0  0  0
 22 46  1  0  0  0  0
 23 28  1  0  0  0  0
 24 29  2  0  0  0  0
 25 31  1  0  0  0  0
 25 47  1  0  0  0  0
 26 30  1  0  0  0  0
 27 30  2  0  0  0  0
 27 48  1  0  0  0  0
 28 49  1  0  0  0  0
 28 50  1  0  0  0  0
 28 51  1  0  0  0  0
 29 32  1  0  0  0  0
 29 52  1  0  0  0  0
 30 53  1  0  0  0  0
 31 32  2  0  0  0  0
 31 54  1  0  0  0  0
 32 55  1  0  0  0  0
M  END
> <PUBCHEM_COMPOUND_CID>
17396384

> <PUBCHEM_CONFORMER_RMSD>
1.4

> <PUBCHEM_CONFORMER_DIVERSEORDER>
6
3
71
31
102
43
83
44
50
35
86
76
45
61
100
52
58
91
38
79
68
25
66
19
23
78
96
48
51
81
59
64
49
32
84
5
98
41
101
54
55
85
62
56
87
8
30
72
57
82
53
60
26
22
67
88
65
4
46
39
15
99
97
77
29
90
63
7
69
33
42
95
24
94
10
89
36
70
93
80
18
28
14
9
20
40
1
74
47
73
17
27
34
2
37
92
13
12
75
11
16
21

> <PUBCHEM_MMFF94_PARTIAL_CHARGES>
40
1 -0.18
10 0.05
11 -0.57
12 0.36
13 0.36
14 0.3
15 0.3
16 0.69
17 -0.01
18 0.3
19 0.26
2 -0.18
20 -0.15
21 0.18
22 -0.15
23 0.01
24 0.23
25 -0.15
26 0.18
27 -0.15
28 0.18
29 -0.15
3 1.45
30 -0.15
31 -0.15
32 -0.15
4 -0.65
43 0.37
46 0.15
47 0.15
48 0.15
5 -0.65
52 0.15
53 0.15
54 0.15
55 0.15
6 -0.57
7 -0.85
8 -0.66
9 -0.73

> <PUBCHEM_EFFECTIVE_ROTOR_COUNT>
8.2

> <PUBCHEM_PHARMACOPHORE_FEATURES>
9
1 4 acceptor
1 5 acceptor
1 6 acceptor
1 9 donor
3 10 11 23 cation
5 10 11 20 23 24 rings
6 17 21 22 26 27 30 rings
6 20 24 25 29 31 32 rings
6 7 8 12 13 14 15 rings

> <PUBCHEM_HEAVY_ATOM_COUNT>
32

> <PUBCHEM_ATOM_DEF_STEREO_COUNT>
0

> <PUBCHEM_ATOM_UDEF_STEREO_COUNT>
0

> <PUBCHEM_BOND_DEF_STEREO_COUNT>
0

> <PUBCHEM_BOND_UDEF_STEREO_COUNT>
0

> <PUBCHEM_ISOTOPIC_ATOM_COUNT>
0

> <PUBCHEM_COMPONENT_COUNT>
1

> <PUBCHEM_CACTVS_TAUTO_COUNT>
2

> <PUBCHEM_CONFORMER_ID>
010972A000000006

> <PUBCHEM_MMFF94_ENERGY>
54.6253

> <PUBCHEM_FEATURE_SELFOVERLAP>
45.794

> <PUBCHEM_SHAPE_FINGERPRINT>
10165383 225 17846777361550275334
10674148 151 17604414229706806468
11545043 162 17203055191501605087
11646440 116 18187368731700078984
12166972 35 18186522090361126440
12422481 6 17749667510420734393
12596602 18 14836121039773591708
12633257 1 18411421691642468787
13583140 156 18058465351160699967
13782708 43 16988290892747919402
14341114 328 18187363229683390163
14849402 71 18188771626690740520
14856354 85 17458345192045482415
14950920 106 18410008832681764787
15183329 4 18186241714611213164
15510800 12 16199573681847759307
15799311 1 18271233950701141211
19377110 9 18334858303686972191
20465049 17 18341326722219177398
21033648 29 17632032874415056341
21315764 371 14836127649660260041
21792961 116 17917706951332417706
23522609 53 18118377619267768257
23559900 14 16988566831411233527
3459 110 18337669815170154305
392239 28 18342172272182860147
4325135 7 18259985964234842807
46194498 28 17274821329571036732
5104073 3 17702663409855288369
6086070 43 17604448348747631489

> <PUBCHEM_SHAPE_MULTIPOLES>
623.62
16.4
2.76
2.29
7.02
0.85
-0.35
-0.53
-6.2
-2.1
0.03
3.07
0.09
-2.38

> <PUBCHEM_SHAPE_SELFOVERLAP>
1307.428

> <PUBCHEM_SHAPE_VOLUME>
354.7

> <PUBCHEM_COORDINATE_TYPE>
2
5
10

$$$$

