20749
  -OEChem-07051213032D

 52 53  0     1  0  0  0  0  0999 V2000
    3.4264    0.0000    0.0000 Br  0  5  0  0  0  0  0  0  0  0  0  0
    5.0837    7.8224    0.0000 N   0  3  0  0  0  0  0  0  0  0  0  0
    4.1056    7.6145    0.0000 C   0  0  3  0  0  0  0  0  0  0  0  0
    5.5837    6.9564    0.0000 C   0  0  0  0  0  0  0  0  0  0  0  0
    4.9146    6.2133    0.0000 C   0  0  0  0  0  0  0  0  0  0  0  0
    4.0010    6.6200    0.0000 C   0  0  0  0  0  0  0  0  0  0  0  0
    5.9497    8.3224    0.0000 C   0  0  0  0  0  0  0  0  0  0  0  0
    4.8758    8.8006    0.0000 C   0  0  0  0  0  0  0  0  0  0  0  0
    3.3624    8.2836    0.0000 C   0  0  0  0  0  0  0  0  0  0  0  0
    3.1350    6.1200    0.0000 C   0  0  0  0  0  0  0  0  0  0  0  0
    6.8158    7.8224    0.0000 C   0  0  0  0  0  0  0  0  0  0  0  0
    5.6190    9.4697    0.0000 C   0  0  0  0  0  0  0  0  0  0  0  0
    3.1350    5.1200    0.0000 C   0  0  0  0  0  0  0  0  0  0  0  0
    2.2690    6.6200    0.0000 C   0  0  0  0  0  0  0  0  0  0  0  0
    2.2690    7.6200    0.0000 C   0  0  0  0  0  0  0  0  0  0  0  0
    2.2690    4.6200    0.0000 C   0  0  0  0  0  0  0  0  0  0  0  0
    1.4030    6.1200    0.0000 C   0  0  0  0  0  0  0  0  0  0  0  0
    4.0010    4.6200    0.0000 C   0  0  0  0  0  0  0  0  0  0  0  0
    1.4030    8.1200    0.0000 C   0  0  0  0  0  0  0  0  0  0  0  0
    2.2690    3.6200    0.0000 C   0  0  0  0  0  0  0  0  0  0  0  0
    0.5369    6.6200    0.0000 C   0  0  0  0  0  0  0  0  0  0  0  0
    4.0010    3.6200    0.0000 C   0  0  0  0  0  0  0  0  0  0  0  0
    0.5369    7.6200    0.0000 C   0  0  0  0  0  0  0  0  0  0  0  0
    3.1350    3.1200    0.0000 C   0  0  0  0  0  0  0  0  0  0  0  0
    4.3256    8.4356    0.0000 H   0  0  0  0  0  0  0  0  0  0  0  0
    5.9986    6.4957    0.0000 H   0  0  0  0  0  0  0  0  0  0  0  0
    6.0853    7.3208    0.0000 H   0  0  0  0  0  0  0  0  0  0  0  0
    4.6046    5.6763    0.0000 H   0  0  0  0  0  0  0  0  0  0  0  0
    5.4162    5.8488    0.0000 H   0  0  0  0  0  0  0  0  0  0  0  0
    6.3483    8.7974    0.0000 H   0  0  0  0  0  0  0  0  0  0  0  0
    5.5512    8.7974    0.0000 H   0  0  0  0  0  0  0  0  0  0  0  0
    4.5472    9.3264    0.0000 H   0  0  0  0  0  0  0  0  0  0  0  0
    4.3010    8.5683    0.0000 H   0  0  0  0  0  0  0  0  0  0  0  0
    3.7773    8.7444    0.0000 H   0  0  0  0  0  0  0  0  0  0  0  0
    2.9017    8.6985    0.0000 H   0  0  0  0  0  0  0  0  0  0  0  0
    2.9476    7.8229    0.0000 H   0  0  0  0  0  0  0  0  0  0  0  0
    6.5058    7.2855    0.0000 H   0  0  0  0  0  0  0  0  0  0  0  0
    7.3527    7.5124    0.0000 H   0  0  0  0  0  0  0  0  0  0  0  0
    7.1258    8.3594    0.0000 H   0  0  0  0  0  0  0  0  0  0  0  0
    6.0338    9.0090    0.0000 H   0  0  0  0  0  0  0  0  0  0  0  0
    6.0797    9.8846    0.0000 H   0  0  0  0  0  0  0  0  0  0  0  0
    5.2041    9.9305    0.0000 H   0  0  0  0  0  0  0  0  0  0  0  0
    2.8059    7.9300    0.0000 H   0  0  0  0  0  0  0  0  0  0  0  0
    1.7320    4.9300    0.0000 H   0  0  0  0  0  0  0  0  0  0  0  0
    1.4030    5.5000    0.0000 H   0  0  0  0  0  0  0  0  0  0  0  0
    4.5380    4.9300    0.0000 H   0  0  0  0  0  0  0  0  0  0  0  0
    1.4030    8.7400    0.0000 H   0  0  0  0  0  0  0  0  0  0  0  0
    1.7320    3.3100    0.0000 H   0  0  0  0  0  0  0  0  0  0  0  0
    0.0000    6.3100    0.0000 H   0  0  0  0  0  0  0  0  0  0  0  0
    4.5380    3.3100    0.0000 H   0  0  0  0  0  0  0  0  0  0  0  0
    0.0000    7.9300    0.0000 H   0  0  0  0  0  0  0  0  0  0  0  0
    3.1350    2.5000    0.0000 H   0  0  0  0  0  0  0  0  0  0  0  0
  2  3  1  0  0  0  0
  2  4  1  0  0  0  0
  2  7  1  0  0  0  0
  2  8  1  0  0  0  0
  3  6  1  0  0  0  0
  3  9  1  0  0  0  0
  3 25  1  0  0  0  0
  4  5  1  0  0  0  0
  4 26  1  0  0  0  0
  4 27  1  0  0  0  0
  5  6  1  0  0  0  0
  5 28  1  0  0  0  0
  5 29  1  0  0  0  0
  6 10  2  0  0  0  0
  7 11  1  0  0  0  0
  7 30  1  0  0  0  0
  7 31  1  0  0  0  0
  8 12  1  0  0  0  0
  8 32  1  0  0  0  0
  8 33  1  0  0  0  0
  9 34  1  0  0  0  0
  9 35  1  0  0  0  0
  9 36  1  0  0  0  0
 10 13  1  0  0  0  0
 10 14  1  0  0  0  0
 11 37  1  0  0  0  0
 11 38  1  0  0  0  0
 11 39  1  0  0  0  0
 12 40  1  0  0  0  0
 12 41  1  0  0  0  0
 12 42  1  0  0  0  0
 13 16  2  0  0  0  0
 13 18  1  0  0  0  0
 14 15  2  0  0  0  0
 14 17  1  0  0  0  0
 15 19  1  0  0  0  0
 15 43  1  0  0  0  0
 16 20  1  0  0  0  0
 16 44  1  0  0  0  0
 17 21  2  0  0  0  0
 17 45  1  0  0  0  0
 18 22  2  0  0  0  0
 18 46  1  0  0  0  0
 19 23  2  0  0  0  0
 19 47  1  0  0  0  0
 20 24  2  0  0  0  0
 20 48  1  0  0  0  0
 21 23  1  0  0  0  0
 21 49  1  0  0  0  0
 22 24  1  0  0  0  0
 22 50  1  0  0  0  0
 23 51  1  0  0  0  0
 24 52  1  0  0  0  0
M  CHG  2   1  -1   2   1
M  END
> <PUBCHEM_COMPOUND_CID>
20749

> <PUBCHEM_COMPOUND_CANONICALIZED>
1

> <PUBCHEM_CACTVS_COMPLEXITY>
386

> <PUBCHEM_CACTVS_HBOND_ACCEPTOR>
1

> <PUBCHEM_CACTVS_HBOND_DONOR>
0

> <PUBCHEM_CACTVS_ROTATABLE_BOND>
4

> <PUBCHEM_CACTVS_SUBSKEYS>
AAADceB6AAAAEAAAAAAAAAAAAAAAAWAAAAAwYAAAAAAAAAABQAAAHAAAAAAADCjBGAQyAIMAAACAAiBCAACCAAAgAAAIiAAIAIgIICKAkRCEIAAggACIiAcQgMAOAAAAAAAAAAAAAAAAAAAAAAAAAAAAAA==

> <PUBCHEM_IUPAC_OPENEYE_NAME>
3-benzhydrylidene-1,1-diethyl-2-methyl-pyrrolidin-1-ium bromide

> <PUBCHEM_IUPAC_CAS_NAME>
3-(diphenylmethylene)-1,1-diethyl-2-methylpyrrolidin-1-ium bromide

> <PUBCHEM_IUPAC_NAME>
3-benzhydrylidene-1,1-diethyl-2-methylpyrrolidin-1-ium bromide

> <PUBCHEM_IUPAC_SYSTEMATIC_NAME>
3-(diphenylmethylidene)-1,1-diethyl-2-methyl-pyrrolidin-1-ium bromide

> <PUBCHEM_IUPAC_TRADITIONAL_NAME>
3-benzhydrylidene-1,1-diethyl-2-methyl-pyrrolidin-1-ium bromide

> <PUBCHEM_IUPAC_INCHI>
InChI=1S/C22H28N.BrH/c1-4-23(5-2)17-16-21(18(23)3)22(19-12-8-6-9-13-19)20-14-10-7-11-15-20;/h6-15,18H,4-5,16-17H2,1-3H3;1H/q+1;/p-1

> <PUBCHEM_IUPAC_INCHIKEY>
UCGJZJXOPSNTGZ-UHFFFAOYSA-M

> <PUBCHEM_EXACT_MASS>
385.140512

> <PUBCHEM_MOLECULAR_FORMULA>
C22H28BrN

> <PUBCHEM_MOLECULAR_WEIGHT>
386.36842

> <PUBCHEM_OPENEYE_CAN_SMILES>
CC[N+]1(CCC(=C(C2=CC=CC=C2)C3=CC=CC=C3)C1C)CC.[Br-]

> <PUBCHEM_OPENEYE_ISO_SMILES>
CC[N+]1(CCC(=C(C2=CC=CC=C2)C3=CC=CC=C3)C1C)CC.[Br-]

> <PUBCHEM_CACTVS_TPSA>
0

> <PUBCHEM_MONOISOTOPIC_WEIGHT>
385.140512

> <PUBCHEM_TOTAL_CHARGE>
0

> <PUBCHEM_HEAVY_ATOM_COUNT>
24

> <PUBCHEM_ATOM_DEF_STEREO_COUNT>
0

> <PUBCHEM_ATOM_UDEF_STEREO_COUNT>
1

> <PUBCHEM_BOND_DEF_STEREO_COUNT>
0

> <PUBCHEM_BOND_UDEF_STEREO_COUNT>
0

> <PUBCHEM_ISOTOPIC_ATOM_COUNT>
0

> <PUBCHEM_COMPONENT_COUNT>
2

> <PUBCHEM_CACTVS_TAUTO_COUNT>
1

> <PUBCHEM_COORDINATE_TYPE>
1
5
255

> <PUBCHEM_BONDANNOTATIONS>
13  16  8
13  18  8
14  15  8
14  17  8
15  19  8
16  20  8
17  21  8
18  22  8
19  23  8
20  24  8
21  23  8
22  24  8
3  25  3

$$$$

