5281386
  -OEChem-07051212563D

 89100  0     1  0  0  0  0  0999 V2000
    0.0575    0.0234    0.7168 O   0  0  0  0  0  0  0  0  0  0  0  0
    4.2944   -0.5529    0.9236 N   0  3  1  0  0  0  0  0  0  0  0  0
   -4.2870    0.4306    1.0443 N   0  3  1  0  0  0  0  0  0  0  0  0
    0.6673    1.6767   -0.8491 N   0  0  0  0  0  0  0  0  0  0  0  0
   -0.5982   -1.6048   -0.8482 N   0  0  0  0  0  0  0  0  0  0  0  0
    2.3636    0.9831    0.7987 C   0  0  2  0  0  0  0  0  0  0  0  0
   -2.2536   -0.9197    0.8439 C   0  0  2  0  0  0  0  0  0  0  0  0
    1.1697    0.4841   -0.1144 C   0  0  1  0  0  0  0  0  0  0  0  0
   -1.0772   -0.4221   -0.0890 C   0  0  1  0  0  0  0  0  0  0  0  0
    3.7777    0.7398    0.2050 C   0  0  2  0  0  0  0  0  0  0  0  0
   -3.6760   -0.7447    0.2472 C   0  0  2  0  0  0  0  0  0  0  0  0
    1.5618   -0.6173   -1.1235 C   0  0  0  0  0  0  0  0  0  0  0  0
   -1.4938    0.6915   -1.0750 C   0  0  0  0  0  0  0  0  0  0  0  0
    2.4323    0.3186    2.1724 C   0  0  0  0  0  0  0  0  0  0  0  0
   -2.2995   -0.2547    2.2312 C   0  0  0  0  0  0  0  0  0  0  0  0
    2.9654   -0.6674   -1.6974 C   0  0  1  0  0  0  0  0  0  0  0  0
   -2.9185    0.7711   -1.5860 C   0  0  1  0  0  0  0  0  0  0  0  0
    3.7705    0.5723   -1.3137 C   0  0  0  0  0  0  0  0  0  0  0  0
   -3.7019   -0.4921   -1.2559 C   0  0  0  0  0  0  0  0  0  0  0  0
    3.1699   -0.9738    1.8893 C   0  0  0  0  0  0  0  0  0  0  0  0
   -3.7492    0.1593    2.4534 C   0  0  0  0  0  0  0  0  0  0  0  0
    2.1056    2.4699    0.8177 C   0  0  0  0  0  0  0  0  0  0  0  0
   -1.9699   -2.4058    0.8703 C   0  0  0  0  0  0  0  0  0  0  0  0
    4.6581   -1.6932   -0.0410 C   0  0  0  0  0  0  0  0  0  0  0  0
   -3.8288    1.8247    0.5476 C   0  0  0  0  0  0  0  0  0  0  0  0
   -0.6020    1.6533   -1.3839 C   0  0  0  0  0  0  0  0  0  0  0  0
    0.6541   -1.5695   -1.4217 C   0  0  0  0  0  0  0  0  0  0  0  0
    1.1892    2.8123   -0.1819 C   0  0  0  0  0  0  0  0  0  0  0  0
   -1.0825   -2.7439   -0.1570 C   0  0  0  0  0  0  0  0  0  0  0  0
    3.7344   -1.8858   -1.2130 C   0  0  0  0  0  0  0  0  0  0  0  0
   -3.6711    1.9218   -0.9444 C   0  0  0  0  0  0  0  0  0  0  0  0
    5.5484   -0.2121    1.7405 C   0  0  0  0  0  0  0  0  0  0  0  0
   -5.8092    0.3689    1.0436 C   0  0  0  0  0  0  0  0  0  0  0  0
    2.6891    3.4436    1.6201 C   0  0  0  0  0  0  0  0  0  0  0  0
   -2.5090   -3.3780    1.7051 C   0  0  0  0  0  0  0  0  0  0  0  0
    0.8456    4.1449   -0.3868 C   0  0  0  0  0  0  0  0  0  0  0  0
   -0.7261   -4.0728   -0.3609 C   0  0  0  0  0  0  0  0  0  0  0  0
    3.6802   -3.0714   -1.8415 C   0  0  0  0  0  0  0  0  0  0  0  0
   -4.1847    2.9364   -1.6549 C   0  0  0  0  0  0  0  0  0  0  0  0
    2.3420    4.7789    1.4169 C   0  0  0  0  0  0  0  0  0  0  0  0
   -2.1487   -4.7097    1.5025 C   0  0  0  0  0  0  0  0  0  0  0  0
    1.4272    5.1278    0.4173 C   0  0  0  0  0  0  0  0  0  0  0  0
   -1.2650   -5.0554    0.4734 C   0  0  0  0  0  0  0  0  0  0  0  0
    2.7980   -3.3543   -3.0083 C   0  0  0  0  0  0  0  0  0  0  0  0
   -4.0502    3.0682   -3.1329 C   0  0  0  0  0  0  0  0  0  0  0  0
    4.4750    1.5435    0.4731 H   0  0  0  0  0  0  0  0  0  0  0  0
   -4.3115   -1.6121    0.4714 H   0  0  0  0  0  0  0  0  0  0  0  0
    1.4596    0.1419    2.6400 H   0  0  0  0  0  0  0  0  0  0  0  0
    3.0078    0.9200    2.8859 H   0  0  0  0  0  0  0  0  0  0  0  0
   -1.6783    0.6472    2.2655 H   0  0  0  0  0  0  0  0  0  0  0  0
   -1.9487   -0.8997    3.0437 H   0  0  0  0  0  0  0  0  0  0  0  0
    2.9042   -0.6477   -2.7915 H   0  0  0  0  0  0  0  0  0  0  0  0
   -2.8846    0.8481   -2.6782 H   0  0  0  0  0  0  0  0  0  0  0  0
    4.8001    0.4986   -1.6893 H   0  0  0  0  0  0  0  0  0  0  0  0
    3.3499    1.4660   -1.7911 H   0  0  0  0  0  0  0  0  0  0  0  0
   -4.7374   -0.4061   -1.6100 H   0  0  0  0  0  0  0  0  0  0  0  0
   -3.2787   -1.3531   -1.7880 H   0  0  0  0  0  0  0  0  0  0  0  0
    3.6077   -1.4344    2.7802 H   0  0  0  0  0  0  0  0  0  0  0  0
    2.5315   -1.7023    1.3794 H   0  0  0  0  0  0  0  0  0  0  0  0
   -4.3314   -0.6649    2.8812 H   0  0  0  0  0  0  0  0  0  0  0  0
   -3.8667    1.0596    3.0644 H   0  0  0  0  0  0  0  0  0  0  0  0
    4.7442   -2.6017    0.5678 H   0  0  0  0  0  0  0  0  0  0  0  0
    5.6546   -1.4537   -0.4340 H   0  0  0  0  0  0  0  0  0  0  0  0
   -2.8655    2.0477    1.0181 H   0  0  0  0  0  0  0  0  0  0  0  0
   -4.5456    2.5543    0.9427 H   0  0  0  0  0  0  0  0  0  0  0  0
   -0.8525    2.5020   -2.0090 H   0  0  0  0  0  0  0  0  0  0  0  0
    0.8056   -2.3941   -2.0879 H   0  0  0  0  0  0  0  0  0  0  0  0
    5.2943    0.5592    2.4727 H   0  0  0  0  0  0  0  0  0  0  0  0
    5.8875   -1.1224    2.2436 H   0  0  0  0  0  0  0  0  0  0  0  0
    6.3157    0.1551    1.0526 H   0  0  0  0  0  0  0  0  0  0  0  0
   -6.1237   -0.6248    1.3756 H   0  0  0  0  0  0  0  0  0  0  0  0
   -6.1825    1.1303    1.7348 H   0  0  0  0  0  0  0  0  0  0  0  0
   -6.1662    0.5632    0.0291 H   0  0  0  0  0  0  0  0  0  0  0  0
    3.4152    3.1843    2.3833 H   0  0  0  0  0  0  0  0  0  0  0  0
   -3.2086   -3.1173    2.4923 H   0  0  0  0  0  0  0  0  0  0  0  0
    0.1345    4.4384   -1.1522 H   0  0  0  0  0  0  0  0  0  0  0  0
   -0.0373   -4.3642   -1.1469 H   0  0  0  0  0  0  0  0  0  0  0  0
    4.2773   -3.9017   -1.4728 H   0  0  0  0  0  0  0  0  0  0  0  0
   -4.7353    3.7217   -1.1434 H   0  0  0  0  0  0  0  0  0  0  0  0
    2.7895    5.5540    2.0327 H   0  0  0  0  0  0  0  0  0  0  0  0
   -2.5609   -5.4851    2.1422 H   0  0  0  0  0  0  0  0  0  0  0  0
    1.1663    6.1719    0.2669 H   0  0  0  0  0  0  0  0  0  0  0  0
   -0.9936   -6.0970    0.3247 H   0  0  0  0  0  0  0  0  0  0  0  0
    3.4025   -3.8642   -3.7688 H   0  0  0  0  0  0  0  0  0  0  0  0
    2.3714   -2.4912   -3.5184 H   0  0  0  0  0  0  0  0  0  0  0  0
    2.0073   -4.0561   -2.7268 H   0  0  0  0  0  0  0  0  0  0  0  0
   -4.7084    2.3630   -3.6492 H   0  0  0  0  0  0  0  0  0  0  0  0
   -3.0185    2.9311   -3.4698 H   0  0  0  0  0  0  0  0  0  0  0  0
   -4.3468    4.0784   -3.4357 H   0  0  0  0  0  0  0  0  0  0  0  0
  1  8  1  0  0  0  0
  1  9  1  0  0  0  0
  2 10  1  0  0  0  0
  2 20  1  0  0  0  0
  2 24  1  0  0  0  0
  2 32  1  0  0  0  0
  3 11  1  0  0  0  0
  3 21  1  0  0  0  0
  3 25  1  0  0  0  0
  3 33  1  0  0  0  0
  4  8  1  0  0  0  0
  4 26  1  0  0  0  0
  4 28  1  0  0  0  0
  5  9  1  0  0  0  0
  5 27  1  0  0  0  0
  5 29  1  0  0  0  0
  6  8  1  0  0  0  0
  6 10  1  0  0  0  0
  6 14  1  0  0  0  0
  6 22  1  0  0  0  0
  7  9  1  0  0  0  0
  7 11  1  0  0  0  0
  7 15  1  0  0  0  0
  7 23  1  0  0  0  0
  8 12  1  0  0  0  0
  9 13  1  0  0  0  0
 10 18  1  0  0  0  0
 10 46  1  0  0  0  0
 11 19  1  0  0  0  0
 11 47  1  0  0  0  0
 12 16  1  0  0  0  0
 12 27  2  0  0  0  0
 13 17  1  0  0  0  0
 13 26  2  0  0  0  0
 14 20  1  0  0  0  0
 14 48  1  0  0  0  0
 14 49  1  0  0  0  0
 15 21  1  0  0  0  0
 15 50  1  0  0  0  0
 15 51  1  0  0  0  0
 16 18  1  0  0  0  0
 16 30  1  0  0  0  0
 16 52  1  0  0  0  0
 17 19  1  0  0  0  0
 17 31  1  0  0  0  0
 17 53  1  0  0  0  0
 18 54  1  0  0  0  0
 18 55  1  0  0  0  0
 19 56  1  0  0  0  0
 19 57  1  0  0  0  0
 20 58  1  0  0  0  0
 20 59  1  0  0  0  0
 21 60  1  0  0  0  0
 21 61  1  0  0  0  0
 22 28  1  0  0  0  0
 22 34  2  0  0  0  0
 23 29  1  0  0  0  0
 23 35  2  0  0  0  0
 24 30  1  0  0  0  0
 24 62  1  0  0  0  0
 24 63  1  0  0  0  0
 25 31  1  0  0  0  0
 25 64  1  0  0  0  0
 25 65  1  0  0  0  0
 26 66  1  0  0  0  0
 27 67  1  0  0  0  0
 28 36  2  0  0  0  0
 29 37  2  0  0  0  0
 30 38  2  0  0  0  0
 31 39  2  0  0  0  0
 32 68  1  0  0  0  0
 32 69  1  0  0  0  0
 32 70  1  0  0  0  0
 33 71  1  0  0  0  0
 33 72  1  0  0  0  0
 33 73  1  0  0  0  0
 34 40  1  0  0  0  0
 34 74  1  0  0  0  0
 35 41  1  0  0  0  0
 35 75  1  0  0  0  0
 36 42  1  0  0  0  0
 36 76  1  0  0  0  0
 37 43  1  0  0  0  0
 37 77  1  0  0  0  0
 38 44  1  0  0  0  0
 38 78  1  0  0  0  0
 39 45  1  0  0  0  0
 39 79  1  0  0  0  0
 40 42  2  0  0  0  0
 40 80  1  0  0  0  0
 41 43  2  0  0  0  0
 41 81  1  0  0  0  0
 42 82  1  0  0  0  0
 43 83  1  0  0  0  0
 44 84  1  0  0  0  0
 44 85  1  0  0  0  0
 44 86  1  0  0  0  0
 45 87  1  0  0  0  0
 45 88  1  0  0  0  0
 45 89  1  0  0  0  0
M  CHG  2   2   1   3   1
M  END
> <PUBCHEM_COMPOUND_CID>
5281386

> <PUBCHEM_CONFORMER_RMSD>
0.8

> <PUBCHEM_CONFORMER_DIVERSEORDER>
1

> <PUBCHEM_MMFF94_PARTIAL_CHARGES>
53
1 -0.56
10 0.5
11 0.5
12 -0.28
13 -0.28
16 0.28
17 0.28
2 -1.01
20 0.5
21 0.5
22 -0.14
23 -0.14
24 0.64
25 0.64
26 -0.05
27 -0.05
28 0.1
29 0.1
3 -1.01
30 -0.28
31 -0.28
32 0.5
33 0.5
34 -0.15
35 -0.15
36 -0.15
37 -0.15
38 -0.29
39 -0.29
4 -0.57
40 -0.15
41 -0.15
42 -0.15
43 -0.15
44 0.14
45 0.14
5 -0.57
6 0.14
66 0.15
67 0.15
7 0.14
74 0.15
75 0.15
76 0.15
77 0.15
78 0.15
79 0.15
8 0.79
80 0.15
81 0.15
82 0.15
83 0.15
9 0.79

> <PUBCHEM_EFFECTIVE_ROTOR_COUNT>
1.8

> <PUBCHEM_PHARMACOPHORE_FEATURES>
19
1 1 acceptor
1 2 cation
1 3 cation
1 4 cation
1 44 hydrophobe
1 45 hydrophobe
1 5 cation
5 2 6 10 14 20 rings
5 3 7 11 15 21 rings
5 4 6 8 22 28 rings
5 5 7 9 23 29 rings
6 1 4 8 9 13 26 rings
6 1 5 8 9 12 27 rings
6 2 10 16 18 24 30 rings
6 22 28 34 36 40 42 rings
6 23 29 35 37 41 43 rings
6 3 11 17 19 25 31 rings
6 6 8 10 12 16 18 rings
6 7 9 11 13 17 19 rings

> <PUBCHEM_HEAVY_ATOM_COUNT>
45

> <PUBCHEM_ATOM_DEF_STEREO_COUNT>
10

> <PUBCHEM_ATOM_UDEF_STEREO_COUNT>
0

> <PUBCHEM_BOND_DEF_STEREO_COUNT>
2

> <PUBCHEM_BOND_UDEF_STEREO_COUNT>
0

> <PUBCHEM_ISOTOPIC_ATOM_COUNT>
0

> <PUBCHEM_COMPONENT_COUNT>
1

> <PUBCHEM_CACTVS_TAUTO_COUNT>
1

> <PUBCHEM_CONFORMER_ID>
0050966A00000001

> <PUBCHEM_MMFF94_ENERGY>
207.1974

> <PUBCHEM_FEATURE_SELFOVERLAP>
102.254

> <PUBCHEM_SHAPE_FINGERPRINT>
10006869 2 16966038100331372129
10190108 129 17401170844529787217
10675989 125 17906183093750701844
11578080 2 18120926209937344073
12608794 3 18411131412483760155
12633257 1 18410573955134192250
13140716 1 18194401087078825178
13636023 20 17756747313242424613
13726171 33 17843654850889968436
140371 6 18261386771971196656
14856354 85 16695278439974945808
15775530 1 18194961842435853245
15815584 197 18194120956780631375
20764821 26 18123464140197475046
21033648 144 18122920736777959197
21033648 29 18341610481316681805
23559900 14 18188756258880497426
3298306 158 18127412469758733591
508706 21 18272082833928977071
513532 50 17610941097573171965
5265222 85 18058708321655609574
6086070 43 18194706932064119821
6287921 2 17687729555216831686
7399639 24 17688306789909641904

> <PUBCHEM_SHAPE_MULTIPOLES>
900.29
9.26
6.33
2.49
0.95
0.19
0.53
0.88
-0.81
-0.35
-0.26
0.28
-0.17
4.34

> <PUBCHEM_SHAPE_SELFOVERLAP>
2080.659

> <PUBCHEM_SHAPE_VOLUME>
453.9

> <PUBCHEM_COORDINATE_TYPE>
2
5
10

$$$$

