246204
  -OEChem-07051213063D

 49 52  0     1  0  0  0  0  0999 V2000
   -4.9623   -1.4673    0.8816 F   0  0  0  0  0  0  0  0  0  0  0  0
   -3.9489    0.6821    1.7775 O   0  0  0  0  0  0  0  0  0  0  0  0
    5.6887   -0.5040    1.1680 O   0  0  0  0  0  0  0  0  0  0  0  0
   -1.8771   -0.4864    0.0765 C   0  0  2  0  0  0  0  0  0  0  0  0
   -2.5431    0.8727   -0.2326 C   0  0  2  0  0  0  0  0  0  0  0  0
   -0.4634   -0.5979   -0.5071 C   0  0  1  0  0  0  0  0  0  0  0  0
    0.4270    0.5304    0.1011 C   0  0  1  0  0  0  0  0  0  0  0  0
    1.9191    0.4753   -0.4085 C   0  0  2  0  0  0  0  0  0  0  0  0
   -1.6972    1.9646    0.4393 C   0  0  0  0  0  0  0  0  0  0  0  0
   -0.2343    1.9287   -0.0392 C   0  0  0  0  0  0  0  0  0  0  0  0
   -3.9505    0.6252    0.3551 C   0  0  1  0  0  0  0  0  0  0  0  0
   -2.9260   -1.5165   -0.3415 C   0  0  0  0  0  0  0  0  0  0  0  0
    0.1556   -1.9709   -0.2157 C   0  0  0  0  0  0  0  0  0  0  0  0
   -4.2700   -0.8164   -0.0840 C   0  0  1  0  0  0  0  0  0  0  0  0
    2.4572   -0.9541   -0.2641 C   0  0  0  0  0  0  0  0  0  0  0  0
    1.5705   -2.0667   -0.7717 C   0  0  0  0  0  0  0  0  0  0  0  0
   -2.6909    1.1822   -1.7440 C   0  0  0  0  0  0  0  0  0  0  0  0
    2.7674    1.4529    0.4565 C   0  0  0  0  0  0  0  0  0  0  0  0
    2.0389    0.8877   -1.8931 C   0  0  0  0  0  0  0  0  0  0  0  0
    4.2668    1.2316    0.3335 C   0  0  0  0  0  0  0  0  0  0  0  0
    3.6582   -1.2558    0.2569 C   0  0  0  0  0  0  0  0  0  0  0  0
    4.6142   -0.1974    0.6554 C   0  0  0  0  0  0  0  0  0  0  0  0
   -1.7749   -0.5858    1.1698 H   0  0  0  0  0  0  0  0  0  0  0  0
   -0.5155   -0.4812   -1.5953 H   0  0  0  0  0  0  0  0  0  0  0  0
    0.4624    0.3310    1.1848 H   0  0  0  0  0  0  0  0  0  0  0  0
   -1.6953    1.8377    1.5289 H   0  0  0  0  0  0  0  0  0  0  0  0
   -2.1250    2.9550    0.2436 H   0  0  0  0  0  0  0  0  0  0  0  0
   -0.1883    2.2706   -1.0775 H   0  0  0  0  0  0  0  0  0  0  0  0
    0.3231    2.6655    0.5498 H   0  0  0  0  0  0  0  0  0  0  0  0
   -4.7047    1.3293   -0.0116 H   0  0  0  0  0  0  0  0  0  0  0  0
   -2.8255   -1.7620   -1.4047 H   0  0  0  0  0  0  0  0  0  0  0  0
   -2.8369   -2.4450    0.2311 H   0  0  0  0  0  0  0  0  0  0  0  0
   -0.4527   -2.7639   -0.6661 H   0  0  0  0  0  0  0  0  0  0  0  0
    0.1701   -2.1571    0.8661 H   0  0  0  0  0  0  0  0  0  0  0  0
   -4.8747   -0.8292   -0.9969 H   0  0  0  0  0  0  0  0  0  0  0  0
    1.5377   -2.0234   -1.8673 H   0  0  0  0  0  0  0  0  0  0  0  0
    1.9811   -3.0513   -0.5162 H   0  0  0  0  0  0  0  0  0  0  0  0
   -3.2724    0.4237   -2.2770 H   0  0  0  0  0  0  0  0  0  0  0  0
   -3.2086    2.1386   -1.8831 H   0  0  0  0  0  0  0  0  0  0  0  0
   -1.7303    1.2582   -2.2599 H   0  0  0  0  0  0  0  0  0  0  0  0
    2.4938    1.3361    1.5146 H   0  0  0  0  0  0  0  0  0  0  0  0
    2.5478    2.4944    0.1928 H   0  0  0  0  0  0  0  0  0  0  0  0
    3.0507    0.7152   -2.2783 H   0  0  0  0  0  0  0  0  0  0  0  0
    1.3556    0.3252   -2.5367 H   0  0  0  0  0  0  0  0  0  0  0  0
    1.8223    1.9517   -2.0350 H   0  0  0  0  0  0  0  0  0  0  0  0
    4.7852    1.8841    1.0449 H   0  0  0  0  0  0  0  0  0  0  0  0
    4.6322    1.4651   -0.6713 H   0  0  0  0  0  0  0  0  0  0  0  0
    3.9995   -2.2810    0.3543 H   0  0  0  0  0  0  0  0  0  0  0  0
   -3.8708    1.6172    2.0315 H   0  0  0  0  0  0  0  0  0  0  0  0
  1 14  1  0  0  0  0
  2 11  1  0  0  0  0
  2 49  1  0  0  0  0
  3 22  2  0  0  0  0
  4  5  1  0  0  0  0
  4  6  1  0  0  0  0
  4 12  1  0  0  0  0
  4 23  1  0  0  0  0
  5  9  1  0  0  0  0
  5 11  1  0  0  0  0
  5 17  1  0  0  0  0
  6  7  1  0  0  0  0
  6 13  1  0  0  0  0
  6 24  1  0  0  0  0
  7  8  1  0  0  0  0
  7 10  1  0  0  0  0
  7 25  1  0  0  0  0
  8 15  1  0  0  0  0
  8 18  1  0  0  0  0
  8 19  1  0  0  0  0
  9 10  1  0  0  0  0
  9 26  1  0  0  0  0
  9 27  1  0  0  0  0
 10 28  1  0  0  0  0
 10 29  1  0  0  0  0
 11 14  1  0  0  0  0
 11 30  1  0  0  0  0
 12 14  1  0  0  0  0
 12 31  1  0  0  0  0
 12 32  1  0  0  0  0
 13 16  1  0  0  0  0
 13 33  1  0  0  0  0
 13 34  1  0  0  0  0
 14 35  1  0  0  0  0
 15 16  1  0  0  0  0
 15 21  2  0  0  0  0
 16 36  1  0  0  0  0
 16 37  1  0  0  0  0
 17 38  1  0  0  0  0
 17 39  1  0  0  0  0
 17 40  1  0  0  0  0
 18 20  1  0  0  0  0
 18 41  1  0  0  0  0
 18 42  1  0  0  0  0
 19 43  1  0  0  0  0
 19 44  1  0  0  0  0
 19 45  1  0  0  0  0
 20 22  1  0  0  0  0
 20 46  1  0  0  0  0
 20 47  1  0  0  0  0
 21 22  1  0  0  0  0
 21 48  1  0  0  0  0
M  END
> <PUBCHEM_COMPOUND_CID>
246204

> <PUBCHEM_CONFORMER_RMSD>
0.6

> <PUBCHEM_CONFORMER_DIVERSEORDER>
1

> <PUBCHEM_MMFF94_PARTIAL_CHARGES>
13
1 -0.34
11 0.28
14 0.34
15 -0.28
16 0.14
2 -0.68
20 0.06
21 -0.14
22 0.49
3 -0.57
48 0.15
49 0.4
8 0.14

> <PUBCHEM_EFFECTIVE_ROTOR_COUNT>
1.8

> <PUBCHEM_PHARMACOPHORE_FEATURES>
7
1 2 acceptor
1 2 donor
1 3 acceptor
5 4 5 11 12 14 rings
6 4 5 6 7 9 10 rings
6 6 7 8 13 15 16 rings
6 8 15 18 20 21 22 rings

> <PUBCHEM_HEAVY_ATOM_COUNT>
22

> <PUBCHEM_ATOM_DEF_STEREO_COUNT>
7

> <PUBCHEM_ATOM_UDEF_STEREO_COUNT>
0

> <PUBCHEM_BOND_DEF_STEREO_COUNT>
0

> <PUBCHEM_BOND_UDEF_STEREO_COUNT>
0

> <PUBCHEM_ISOTOPIC_ATOM_COUNT>
0

> <PUBCHEM_COMPONENT_COUNT>
1

> <PUBCHEM_CACTVS_TAUTO_COUNT>
5

> <PUBCHEM_CONFORMER_ID>
0003C1BC00000001

> <PUBCHEM_MMFF94_ENERGY>
73.385

> <PUBCHEM_FEATURE_SELFOVERLAP>
35.615

> <PUBCHEM_SHAPE_FINGERPRINT>
10967382 1 18336264552660963198
11132069 177 18410569608912157503
11578080 2 16913984887398701358
12236239 1 18060701689271265956
12403259 226 18411706521247457572
12403259 415 18409174294429094796
12403814 3 18131349700801927253
12507557 5 18411989073843974664
12553582 1 18337373998954627613
12839892 36 18335712649664796098
13140716 1 18263646160464092538
13224815 77 18410006637156806493
13583140 156 17489040339086879404
13675066 3 18273778254671926468
13862211 1 18337115566366774543
14178342 30 18337946912831417673
14223421 5 18262797504975330292
14341114 176 18408040732484881314
14341114 328 18040431058019739800
14787075 74 18338520733473341010
15163728 17 14202500097527339937
15196674 1 18409167718369460236
15209294 21 17749381594410598353
15536298 74 18186797028197210750
15788980 27 17561084713088960701
16945 1 18263643046586396788
17349148 13 18202280303678808276
17492 89 18339926033751352370
1813 80 17489869375829704798
18186145 218 18261388970761888996
19050596 39 18409444791057492033
19862831 5 10015864279764644654
200 152 18334584533997271455
20028762 73 17896883153921085303
20261772 1 18261112933034719174
20715895 44 17983867949798356669
20775438 99 12459020722669768321
21033648 29 18269014079669455752
21069387 34 16559028285603489816
21267235 1 18410285904689495846
21637258 2 15912779375102916290
22182313 1 18267584795777281318
22854114 59 18334013891013721730
23402539 116 18261967283549532071
23557571 272 18041266716937302214
23559900 14 18190748724885819134
26918003 58 18413394254178535841
2748010 2 18339075016309236495
296302 2 15502377833070602436
312423 11 16630231567686196925
34934 24 18335708299157616287
350125 39 18409730647592304816
42 15 18343303669304891584
465052 167 17916858011716235971
474229 33 18408608045771783758
5104073 3 18335701705813404306
633830 44 17749105587017199028
7364860 26 18042681878897516414
9709674 26 18408599288138541870

> <PUBCHEM_SHAPE_MULTIPOLES>
433.74
9.62
2.08
1.21
2.21
0.2
0.28
1.07
-3.46
-0.18
0.11
-0.25
-0.29
0.1

> <PUBCHEM_SHAPE_SELFOVERLAP>
934.353

> <PUBCHEM_SHAPE_VOLUME>
240.5

> <PUBCHEM_COORDINATE_TYPE>
2
5
10

$$$$

