13759
  -OEChem-06241222403D

 31 32  0     0  0  0  0  0  0999 V2000
    2.2441   -3.1262   -0.7857 O   0  5  0  0  0  0  0  0  0  0  0  0
    0.1035   -3.0058   -0.3137 O   0  0  0  0  0  0  0  0  0  0  0  0
    4.2474    2.6296    0.3337 O   0  5  0  0  0  0  0  0  0  0  0  0
    5.0782    0.7139   -0.3436 O   0  0  0  0  0  0  0  0  0  0  0  0
   -0.9878   -0.9111    0.4664 N   0  0  0  0  0  0  0  0  0  0  0  0
    1.2381   -2.4815   -0.4072 N   0  3  0  0  0  0  0  0  0  0  0  0
    4.1126    1.4172    0.0400 N   0  3  0  0  0  0  0  0  0  0  0  0
    0.2973   -0.3459    0.3535 C   0  0  0  0  0  0  0  0  0  0  0  0
   -2.2839   -0.3726    0.3257 C   0  0  0  0  0  0  0  0  0  0  0  0
    1.3895   -1.1069   -0.0718 C   0  0  0  0  0  0  0  0  0  0  0  0
    0.4768    1.0022    0.6739 C   0  0  0  0  0  0  0  0  0  0  0  0
   -2.5048    0.6974   -0.5415 C   0  0  0  0  0  0  0  0  0  0  0  0
   -3.7868    1.2293   -0.6803 C   0  0  0  0  0  0  0  0  0  0  0  0
    2.6523   -0.5236   -0.1756 C   0  0  0  0  0  0  0  0  0  0  0  0
    2.8273    0.8226    0.1454 C   0  0  0  0  0  0  0  0  0  0  0  0
   -3.3450   -0.9104    1.0542 C   0  0  0  0  0  0  0  0  0  0  0  0
    1.7394    1.5854    0.5702 C   0  0  0  0  0  0  0  0  0  0  0  0
   -4.8478    0.6913    0.0481 C   0  0  0  0  0  0  0  0  0  0  0  0
   -4.6269   -0.3785    0.9152 C   0  0  0  0  0  0  0  0  0  0  0  0
   -4.0234    2.3735   -1.6067 C   0  0  0  0  0  0  0  0  0  0  0  0
   -0.9867   -1.8730    0.7920 H   0  0  0  0  0  0  0  0  0  0  0  0
   -0.3451    1.6168    1.0313 H   0  0  0  0  0  0  0  0  0  0  0  0
   -1.6942    1.1122   -1.1355 H   0  0  0  0  0  0  0  0  0  0  0  0
    3.5033   -1.1144   -0.5066 H   0  0  0  0  0  0  0  0  0  0  0  0
   -3.1858   -1.7436    1.7340 H   0  0  0  0  0  0  0  0  0  0  0  0
    1.8395    2.6352    0.8336 H   0  0  0  0  0  0  0  0  0  0  0  0
   -5.8516    1.0953   -0.0523 H   0  0  0  0  0  0  0  0  0  0  0  0
   -5.4530   -0.7976    1.4821 H   0  0  0  0  0  0  0  0  0  0  0  0
   -3.1633    3.0517   -1.6203 H   0  0  0  0  0  0  0  0  0  0  0  0
   -4.1977    2.0048   -2.6224 H   0  0  0  0  0  0  0  0  0  0  0  0
   -4.8918    2.9645   -1.2963 H   0  0  0  0  0  0  0  0  0  0  0  0
  1  6  1  0  0  0  0
  2  6  2  0  0  0  0
  3  7  1  0  0  0  0
  4  7  2  0  0  0  0
  5  8  1  0  0  0  0
  5  9  1  0  0  0  0
  5 21  1  0  0  0  0
  6 10  1  0  0  0  0
  7 15  1  0  0  0  0
  8 10  2  0  0  0  0
  8 11  1  0  0  0  0
  9 12  1  0  0  0  0
  9 16  2  0  0  0  0
 10 14  1  0  0  0  0
 11 17  2  0  0  0  0
 11 22  1  0  0  0  0
 12 13  2  0  0  0  0
 12 23  1  0  0  0  0
 13 18  1  0  0  0  0
 13 20  1  0  0  0  0
 14 15  2  0  0  0  0
 14 24  1  0  0  0  0
 15 17  1  0  0  0  0
 16 19  1  0  0  0  0
 16 25  1  0  0  0  0
 17 26  1  0  0  0  0
 18 19  2  0  0  0  0
 18 27  1  0  0  0  0
 19 28  1  0  0  0  0
 20 29  1  0  0  0  0
 20 30  1  0  0  0  0
 20 31  1  0  0  0  0
M  CHG  4   1  -1   3  -1   6   1   7   1
M  END
> <PUBCHEM_COMPOUND_CID>
13759

> <PUBCHEM_CONFORMER_RMSD>
0.6

> <PUBCHEM_CONFORMER_DIVERSEORDER>
1
9
10
2
6
11
8
7
12
5
3
4

> <PUBCHEM_MMFF94_PARTIAL_CHARGES>
28
1 -0.52
10 0.13
11 -0.15
12 -0.15
13 -0.14
14 -0.15
15 0.13
16 -0.15
17 -0.15
18 -0.15
19 -0.15
2 -0.52
20 0.14
21 0.4
22 0.15
23 0.15
24 0.15
25 0.15
26 0.15
27 0.15
28 0.15
3 -0.52
4 -0.52
5 -0.6
6 0.91
7 0.91
8 0.1
9 0.1

> <PUBCHEM_EFFECTIVE_ROTOR_COUNT>
4

> <PUBCHEM_PHARMACOPHORE_FEATURES>
10
1 1 acceptor
1 1 anion
1 2 acceptor
1 3 acceptor
1 3 anion
1 4 acceptor
1 5 cation
1 5 donor
6 8 10 11 14 15 17 rings
6 9 12 13 16 18 19 rings

> <PUBCHEM_HEAVY_ATOM_COUNT>
20

> <PUBCHEM_ATOM_DEF_STEREO_COUNT>
0

> <PUBCHEM_ATOM_UDEF_STEREO_COUNT>
0

> <PUBCHEM_BOND_DEF_STEREO_COUNT>
0

> <PUBCHEM_BOND_UDEF_STEREO_COUNT>
0

> <PUBCHEM_ISOTOPIC_ATOM_COUNT>
0

> <PUBCHEM_COMPONENT_COUNT>
1

> <PUBCHEM_CACTVS_TAUTO_COUNT>
1

> <PUBCHEM_CONFORMER_ID>
000035BF00000001

> <PUBCHEM_MMFF94_ENERGY>
82.5806

> <PUBCHEM_FEATURE_SELFOVERLAP>
50.907

> <PUBCHEM_SHAPE_FINGERPRINT>
10411042 1 17759514861092743854
10498660 4 17630897190994901797
10608611 8 18270964652178085093
11471102 20 18334574659118378099
12236239 1 16805315604928624121
12403259 415 18410573946892962696
12654215 9 18338240469751098410
12730499 353 18409725162739330195
12769317 202 18334866025515996032
13583140 156 16986343524347545960
14508225 48 17541939136606826854
15219456 202 18341611555485844963
15375358 24 18343586261147250481
15502722 9 18336262439605911103
1813 80 12535357843384925682
18186145 218 17968380043913888128
18222031 100 11887962046817871088
19049666 15 18198623435716598427
204376 136 18335416807868934386
20645477 70 18113897220942168623
21033648 29 18336558105239548904
22943178 12 18271803583882118203
231179 274 18413389830388594792
23402539 116 17703232802301929571
23402655 69 18260552251161607653
23557571 272 17846770841109541893
23559900 14 18124039184821584794
25 1 18335140886184684682
266924 87 18263074582438896752
350125 39 17974846164496437907
4072396 5 18337122245425697794
495365 180 18190762983881556969
5104073 3 18201151165783460753
53917941 68 17897746279127221452
6049 1 18199737198103962779
633830 44 17749653147754664848
7808743 9 17980481161969208352
81539 233 18410855464718794582
8272917 22 18188203312169522735
9709674 26 18341893039231968155

> <PUBCHEM_SHAPE_MULTIPOLES>
373.17
9.8
2.82
0.98
1.54
1.22
-0.1
-5.44
-0.42
-1.92
-0.83
0.83
-0.16
1.96

> <PUBCHEM_SHAPE_SELFOVERLAP>
805.002

> <PUBCHEM_SHAPE_VOLUME>
205.2

> <PUBCHEM_COORDINATE_TYPE>
2
5
10

$$$$

