5460401
  -OEChem-07051212452D

 31 30  0     1  0  0  0  0  0999 V2000
    5.4641    1.6550    0.0000 O   0  0  0  0  0  0  0  0  0  0  0  0
    6.3301   -0.8450    0.0000 O   0  0  0  0  0  0  0  0  0  0  0  0
    7.1962    1.6550    0.0000 O   0  0  0  0  0  0  0  0  0  0  0  0
    8.9282    0.6550    0.0000 O   0  0  0  0  0  0  0  0  0  0  0  0
    3.7320   -1.3450    0.0000 O   0  0  0  0  0  0  0  0  0  0  0  0
    5.4641   -1.3450    0.0000 O   0  0  0  0  0  0  0  0  0  0  0  0
    2.8660   -0.8450    0.0000 O   0  0  0  0  0  0  0  0  0  0  0  0
    3.7320    0.6550    0.0000 N   0  0  0  0  0  0  0  0  0  0  0  0
    5.4641    0.6550    0.0000 C   0  0  1  0  0  0  0  0  0  0  0  0
    6.3301    0.1550    0.0000 C   0  0  1  0  0  0  0  0  0  0  0  0
    4.5981    0.1550    0.0000 C   0  0  2  0  0  0  0  0  0  0  0  0
    7.1962    0.6550    0.0000 C   0  0  1  0  0  0  0  0  0  0  0  0
    8.0622    0.1550    0.0000 C   0  0  0  0  0  0  0  0  0  0  0  0
    4.5981   -0.8450    0.0000 C   0  0  0  0  0  0  0  0  0  0  0  0
    2.8660    0.1550    0.0000 C   0  0  0  0  0  0  0  0  0  0  0  0
    2.0000    0.6550    0.0000 C   0  0  0  0  0  0  0  0  0  0  0  0
    6.0010    0.9650    0.0000 H   0  0  0  0  0  0  0  0  0  0  0  0
    6.8671   -0.1550    0.0000 H   0  0  0  0  0  0  0  0  0  0  0  0
    4.5981    0.7750    0.0000 H   0  0  0  0  0  0  0  0  0  0  0  0
    6.6592    0.9650    0.0000 H   0  0  0  0  0  0  0  0  0  0  0  0
    7.6636   -0.3199    0.0000 H   0  0  0  0  0  0  0  0  0  0  0  0
    8.4607   -0.3199    0.0000 H   0  0  0  0  0  0  0  0  0  0  0  0
    3.7320    1.2750    0.0000 H   0  0  0  0  0  0  0  0  0  0  0  0
    6.0010    1.9650    0.0000 H   0  0  0  0  0  0  0  0  0  0  0  0
    6.8671   -1.1550    0.0000 H   0  0  0  0  0  0  0  0  0  0  0  0
    7.7331    1.9650    0.0000 H   0  0  0  0  0  0  0  0  0  0  0  0
    9.4651    0.3450    0.0000 H   0  0  0  0  0  0  0  0  0  0  0  0
    2.3100    1.1919    0.0000 H   0  0  0  0  0  0  0  0  0  0  0  0
    1.4631    0.9650    0.0000 H   0  0  0  0  0  0  0  0  0  0  0  0
    1.6900    0.1181    0.0000 H   0  0  0  0  0  0  0  0  0  0  0  0
    3.7320   -1.9650    0.0000 H   0  0  0  0  0  0  0  0  0  0  0  0
  9  1  1  1  0  0  0
  1 24  1  0  0  0  0
 10  2  1  1  0  0  0
  2 25  1  0  0  0  0
 12  3  1  6  0  0  0
  3 26  1  0  0  0  0
  4 13  1  0  0  0  0
  4 27  1  0  0  0  0
  5 14  1  0  0  0  0
  5 31  1  0  0  0  0
  6 14  2  0  0  0  0
  7 15  2  0  0  0  0
 11  8  1  6  0  0  0
  8 15  1  0  0  0  0
  8 23  1  0  0  0  0
  9 10  1  0  0  0  0
  9 11  1  0  0  0  0
  9 17  1  0  0  0  0
 10 12  1  0  0  0  0
 10 18  1  0  0  0  0
 11 14  1  0  0  0  0
 11 19  1  0  0  0  0
 12 13  1  0  0  0  0
 12 20  1  0  0  0  0
 13 21  1  0  0  0  0
 13 22  1  0  0  0  0
 15 16  1  0  0  0  0
 16 28  1  0  0  0  0
 16 29  1  0  0  0  0
 16 30  1  0  0  0  0
M  END
> <PUBCHEM_COMPOUND_CID>
5460401

> <PUBCHEM_COMPOUND_CANONICALIZED>
1

> <PUBCHEM_CACTVS_COMPLEXITY>
257

> <PUBCHEM_CACTVS_HBOND_ACCEPTOR>
7

> <PUBCHEM_CACTVS_HBOND_DONOR>
6

> <PUBCHEM_CACTVS_ROTATABLE_BOND>
6

> <PUBCHEM_CACTVS_SUBSKEYS>
AAADccByOAAAAAAAAAAAAAAAAAAAAAAAAAAAAAAAAAAAAAAAAAAAHgAQCAAACDzhgAYCCALAAgAIAAGQGAAAAAAAAAAAAIGIAAADEBYAgCAEQAAHNgCRAAH6fAdAAAAAAAAAAAAAAAAAAAAAAAAAAAAAAA==

> <PUBCHEM_IUPAC_OPENEYE_NAME>
(2R,3R,4S,5R)-2-acetamido-3,4,5,6-tetrahydroxy-hexanoic acid

> <PUBCHEM_IUPAC_CAS_NAME>
(2R,3R,4S,5R)-2-acetamido-3,4,5,6-tetrahydroxyhexanoic acid

> <PUBCHEM_IUPAC_NAME>
(2R,3R,4S,5R)-2-acetamido-3,4,5,6-tetrahydroxyhexanoic acid

> <PUBCHEM_IUPAC_SYSTEMATIC_NAME>
(2R,3R,4S,5R)-2-acetamido-3,4,5,6-tetrakis(oxidanyl)hexanoic acid

> <PUBCHEM_IUPAC_TRADITIONAL_NAME>
(2R,3R,4S,5R)-2-acetamido-3,4,5,6-tetrahydroxy-hexanoic acid

> <PUBCHEM_IUPAC_INCHI>
InChI=1S/C8H15NO7/c1-3(11)9-5(8(15)16)7(14)6(13)4(12)2-10/h4-7,10,12-14H,2H2,1H3,(H,9,11)(H,15,16)/t4-,5-,6-,7-/m1/s1

> <PUBCHEM_IUPAC_INCHIKEY>
LZKNVSNNPRQZJB-DBRKOABJSA-N

> <PUBCHEM_XLOGP3_AA>
-3.4

> <PUBCHEM_EXACT_MASS>
237.084852

> <PUBCHEM_MOLECULAR_FORMULA>
C8H15NO7

> <PUBCHEM_MOLECULAR_WEIGHT>
237.2072

> <PUBCHEM_OPENEYE_CAN_SMILES>
CC(=O)NC(C(C(C(CO)O)O)O)C(=O)O

> <PUBCHEM_OPENEYE_ISO_SMILES>
CC(=O)N[C@H]([C@H]([C@@H]([C@@H](CO)O)O)O)C(=O)O

> <PUBCHEM_CACTVS_TPSA>
147

> <PUBCHEM_MONOISOTOPIC_WEIGHT>
237.084852

> <PUBCHEM_TOTAL_CHARGE>
0

> <PUBCHEM_HEAVY_ATOM_COUNT>
16

> <PUBCHEM_ATOM_DEF_STEREO_COUNT>
4

> <PUBCHEM_ATOM_UDEF_STEREO_COUNT>
0

> <PUBCHEM_BOND_DEF_STEREO_COUNT>
0

> <PUBCHEM_BOND_UDEF_STEREO_COUNT>
0

> <PUBCHEM_ISOTOPIC_ATOM_COUNT>
0

> <PUBCHEM_COMPONENT_COUNT>
1

> <PUBCHEM_CACTVS_TAUTO_COUNT>
2

> <PUBCHEM_COORDINATE_TYPE>
1
5
255

> <PUBCHEM_BONDANNOTATIONS>
9  1  5
10  2  5
12  3  6
11  8  6

$$$$

