854134
  -OEChem-06241222473D

 24 25  0     0  0  0  0  0  0999 V2000
   -5.3493   -0.5492    0.0008 Br  0  0  0  0  0  0  0  0  0  0  0  0
    3.7945   -0.6970    0.0003 O   0  0  0  0  0  0  0  0  0  0  0  0
    3.3364    1.5493    0.0004 O   0  0  0  0  0  0  0  0  0  0  0  0
   -0.8074    0.6549   -0.0003 C   0  0  0  0  0  0  0  0  0  0  0  0
   -1.1767   -0.7112   -0.0002 C   0  0  0  0  0  0  0  0  0  0  0  0
    0.5545    0.9981   -0.0005 C   0  0  0  0  0  0  0  0  0  0  0  0
    1.5380    0.0083   -0.0003 C   0  0  0  0  0  0  0  0  0  0  0  0
   -0.1736   -1.6940   -0.0005 C   0  0  0  0  0  0  0  0  0  0  0  0
   -1.8108    1.6375   -0.0004 C   0  0  0  0  0  0  0  0  0  0  0  0
    1.1746   -1.3350   -0.0004 C   0  0  0  0  0  0  0  0  0  0  0  0
   -2.5386   -1.0544    0.0000 C   0  0  0  0  0  0  0  0  0  0  0  0
   -3.1589    1.2784   -0.0001 C   0  0  0  0  0  0  0  0  0  0  0  0
   -3.5222   -0.0651    0.0004 C   0  0  0  0  0  0  0  0  0  0  0  0
    2.9440    0.3808    0.0003 C   0  0  0  0  0  0  0  0  0  0  0  0
    5.1958   -0.4014    0.0005 C   0  0  0  0  0  0  0  0  0  0  0  0
    0.8385    2.0491   -0.0005 H   0  0  0  0  0  0  0  0  0  0  0  0
   -0.4349   -2.7502   -0.0006 H   0  0  0  0  0  0  0  0  0  0  0  0
   -1.5502    2.6939   -0.0006 H   0  0  0  0  0  0  0  0  0  0  0  0
    1.9093   -2.1354   -0.0004 H   0  0  0  0  0  0  0  0  0  0  0  0
   -2.8288   -2.1040    0.0001 H   0  0  0  0  0  0  0  0  0  0  0  0
   -3.9131    2.0613   -0.0001 H   0  0  0  0  0  0  0  0  0  0  0  0
    5.4636    0.1597   -0.8997 H   0  0  0  0  0  0  0  0  0  0  0  0
    5.7426   -1.3480    0.0004 H   0  0  0  0  0  0  0  0  0  0  0  0
    5.4633    0.1595    0.9009 H   0  0  0  0  0  0  0  0  0  0  0  0
  1 13  1  0  0  0  0
  2 14  1  0  0  0  0
  2 15  1  0  0  0  0
  3 14  2  0  0  0  0
  4  5  2  0  0  0  0
  4  6  1  0  0  0  0
  4  9  1  0  0  0  0
  5  8  1  0  0  0  0
  5 11  1  0  0  0  0
  6  7  2  0  0  0  0
  6 16  1  0  0  0  0
  7 10  1  0  0  0  0
  7 14  1  0  0  0  0
  8 10  2  0  0  0  0
  8 17  1  0  0  0  0
  9 12  2  0  0  0  0
  9 18  1  0  0  0  0
 10 19  1  0  0  0  0
 11 13  2  0  0  0  0
 11 20  1  0  0  0  0
 12 13  1  0  0  0  0
 12 21  1  0  0  0  0
 15 22  1  0  0  0  0
 15 23  1  0  0  0  0
 15 24  1  0  0  0  0
M  END
> <PUBCHEM_COMPOUND_CID>
854134

> <PUBCHEM_CONFORMER_RMSD>
0.6

> <PUBCHEM_CONFORMER_DIVERSEORDER>
1
3
2
4

> <PUBCHEM_MMFF94_PARTIAL_CHARGES>
19
1 -0.11
10 -0.15
11 -0.15
12 -0.15
13 0.11
14 0.63
15 0.28
16 0.15
17 0.15
18 0.15
19 0.15
2 -0.43
20 0.15
21 0.15
3 -0.57
6 -0.15
7 0.09
8 -0.15
9 -0.15

> <PUBCHEM_EFFECTIVE_ROTOR_COUNT>
2

> <PUBCHEM_PHARMACOPHORE_FEATURES>
4
1 1 hydrophobe
1 3 acceptor
6 4 5 6 7 8 10 rings
6 4 5 9 11 12 13 rings

> <PUBCHEM_HEAVY_ATOM_COUNT>
15

> <PUBCHEM_ATOM_DEF_STEREO_COUNT>
0

> <PUBCHEM_ATOM_UDEF_STEREO_COUNT>
0

> <PUBCHEM_BOND_DEF_STEREO_COUNT>
0

> <PUBCHEM_BOND_UDEF_STEREO_COUNT>
0

> <PUBCHEM_ISOTOPIC_ATOM_COUNT>
0

> <PUBCHEM_COMPONENT_COUNT>
1

> <PUBCHEM_CACTVS_TAUTO_COUNT>
1

> <PUBCHEM_CONFORMER_ID>
000D087600000001

> <PUBCHEM_MMFF94_ENERGY>
44.0654

> <PUBCHEM_FEATURE_SELFOVERLAP>
20.324

> <PUBCHEM_SHAPE_FINGERPRINT>
10608611 8 18410014355282011916
10967382 1 18410855455880673767
11132069 177 18408892819040524872
11401426 45 18335144184687958383
11471102 20 18410577262496393165
11806522 49 18410857625477507303
12032990 46 18410007745258381838
12236239 1 17775286075481288842
12403259 415 18409738360652143376
13081056 2 18408886226276398296
13288520 33 18409165528052248903
13380535 76 18411135852836891595
13690532 89 18412826884487326669
13862211 1 18410579470262947295
14115302 16 17917703557295221943
14325111 11 18410855464544682240
15042514 8 18338514115266965043
15196674 1 18410856551192578593
15219456 202 18114738360095692550
15536298 74 18262236754462331030
16945 1 18410855451991901351
17802600 8 18410296912606143032
17804303 29 18409445882243052672
18186145 218 18410576201692439468
18522853 276 18408041814178349361
200 152 18113341916336190061
20510252 161 18260827137637407145
20645477 70 17604422016134030038
21267235 1 18410847767863138979
21501502 16 18266743678399260699
21524375 3 18410292518859977906
23402539 116 18334583429985045623
23402655 69 18335994163933970525
23463225 33 18342177803842189810
23559900 14 18262521390803899536
2748010 2 18194962066022124407
2871803 45 18341899597515023999
366044 4 18411419509598914458
43471831 8 18271248334198832691
474 4 17130419091635141132
474229 33 18410855447618235011
4990 188 17968089850037288214
5104073 3 18410573989499420281
53655031 270 18410573994068511387
54173680 148 18196650692302054395
69090 78 18186805759533427119
7364860 26 18192149527979149942
8809292 202 18200590302846833419
9709674 26 18409160039063517326

> <PUBCHEM_SHAPE_MULTIPOLES>
302.9
9.32
1.62
0.61
1.99
0.13
0
-0.74
0
-0.22
0
-0.1
-0.01
0

> <PUBCHEM_SHAPE_SELFOVERLAP>
643.752

> <PUBCHEM_SHAPE_VOLUME>
175

> <PUBCHEM_COORDINATE_TYPE>
2
5
10

$$$$

