441763
  -OEChem-07051212562D

 79 84  0     1  0  0  0  0  0999 V2000
    4.0332   -1.2907    0.0000 O   0  0  0  0  0  0  0  0  0  0  0  0
    3.5919   -0.4526    0.0000 O   0  0  0  0  0  0  0  0  0  0  0  0
    5.1095   -1.6214    0.0000 O   0  0  0  0  0  0  0  0  0  0  0  0
    6.9321    2.1404    0.0000 O   0  0  0  0  0  0  0  0  0  0  0  0
    3.2153    1.7145    0.0000 O   0  0  0  0  0  0  0  0  0  0  0  0
    2.8145    2.5983    0.0000 O   0  0  0  0  0  0  0  0  0  0  0  0
    7.7982   -2.0948    0.0000 O   0  0  0  0  0  0  0  0  0  0  0  0
    6.9321   -3.5948    0.0000 O   0  0  0  0  0  0  0  0  0  0  0  0
    8.1274    0.3113    0.0000 N   0  0  3  0  0  0  0  0  0  0  0  0
    6.1808    0.7066    0.0000 C   0  0  2  0  0  0  0  0  0  0  0  0
    6.1808   -0.1610    0.0000 C   0  0  2  0  0  0  0  0  0  0  0  0
    7.1828    0.6005    0.0000 C   0  0  3  0  0  0  0  0  0  0  0  0
    5.5025    1.2475    0.0000 C   0  0  1  0  0  0  0  0  0  0  0  0
    4.6566   -0.5089    0.0000 C   0  0  2  0  0  0  0  0  0  0  0  0
    4.6566    1.0544    0.0000 C   0  0  1  0  0  0  0  0  0  0  0  0
    4.2802    0.2728    0.0000 C   0  0  1  0  0  0  0  0  0  0  0  0
    5.5025   -0.7019    0.0000 C   0  0  1  0  0  0  0  0  0  0  0  0
    6.9321   -0.5948    0.0000 C   0  0  2  0  0  0  0  0  0  0  0  0
    6.9321    1.1404    0.0000 C   0  0  2  0  0  0  0  0  0  0  0  0
    5.5803    2.1116    0.0000 C   0  0  0  0  0  0  0  0  0  0  0  0
    4.7825    2.4526    0.0000 C   0  0  1  0  0  0  0  0  0  0  0  0
    4.2117    1.7992    0.0000 C   0  0  2  0  0  0  0  0  0  0  0  0
    3.6353    0.5427    0.0000 C   0  0  0  0  0  0  0  0  0  0  0  0
    8.1274   -0.4406    0.0000 C   0  0  0  0  0  0  0  0  0  0  0  0
    7.6835   -0.1610    0.0000 C   0  0  0  0  0  0  0  0  0  0  0  0
    3.6353    2.0272    0.0000 C   0  0  2  0  0  0  0  0  0  0  0  0
    7.6835    0.7066    0.0000 C   0  0  0  0  0  0  0  0  0  0  0  0
    6.9321   -1.5948    0.0000 C   0  0  0  0  0  0  0  0  0  0  0  0
    8.9314    0.9060    0.0000 C   0  0  0  0  0  0  0  0  0  0  0  0
    5.7093   -2.4216    0.0000 C   0  0  0  0  0  0  0  0  0  0  0  0
    9.8484    0.5071    0.0000 C   0  0  0  0  0  0  0  0  0  0  0  0
    7.7982    2.6404    0.0000 C   0  0  0  0  0  0  0  0  0  0  0  0
    2.7904    0.8093    0.0000 C   0  0  0  0  0  0  0  0  0  0  0  0
    2.8986    3.5948    0.0000 C   0  0  0  0  0  0  0  0  0  0  0  0
    7.7981   -3.0948    0.0000 C   0  0  0  0  0  0  0  0  0  0  0  0
    8.6642   -3.5948    0.0000 C   0  0  0  0  0  0  0  0  0  0  0  0
    6.2443   -1.0086    0.0000 H   0  0  0  0  0  0  0  0  0  0  0  0
    7.3527    1.4334    0.0000 H   0  0  0  0  0  0  0  0  0  0  0  0
    6.2841    1.5816    0.0000 H   0  0  0  0  0  0  0  0  0  0  0  0
    3.8075    1.0163    0.0000 H   0  0  0  0  0  0  0  0  0  0  0  0
    5.7029   -1.2886    0.0000 H   0  0  0  0  0  0  0  0  0  0  0  0
    6.3952    1.4504    0.0000 H   0  0  0  0  0  0  0  0  0  0  0  0
    5.7630    2.7040    0.0000 H   0  0  0  0  0  0  0  0  0  0  0  0
    6.1886    1.9918    0.0000 H   0  0  0  0  0  0  0  0  0  0  0  0
    4.8032    3.3023    0.0000 H   0  0  0  0  0  0  0  0  0  0  0  0
    3.9316    2.3523    0.0000 H   0  0  0  0  0  0  0  0  0  0  0  0
    3.4734   -0.0558    0.0000 H   0  0  0  0  0  0  0  0  0  0  0  0
    3.0207    0.6244    0.0000 H   0  0  0  0  0  0  0  0  0  0  0  0
    8.7469   -0.4140    0.0000 H   0  0  0  0  0  0  0  0  0  0  0  0
    8.1804   -1.0583    0.0000 H   0  0  0  0  0  0  0  0  0  0  0  0
    8.2940   -0.0533    0.0000 H   0  0  0  0  0  0  0  0  0  0  0  0
    7.8955   -0.7436    0.0000 H   0  0  0  0  0  0  0  0  0  0  0  0
    3.7135    2.6423    0.0000 H   0  0  0  0  0  0  0  0  0  0  0  0
    7.8955    1.2892    0.0000 H   0  0  0  0  0  0  0  0  0  0  0  0
    8.2940    0.5989    0.0000 H   0  0  0  0  0  0  0  0  0  0  0  0
    6.7201   -2.1774    0.0000 H   0  0  0  0  0  0  0  0  0  0  0  0
    6.3215   -1.4871    0.0000 H   0  0  0  0  0  0  0  0  0  0  0  0
    4.2597   -1.8678    0.0000 H   0  0  0  0  0  0  0  0  0  0  0  0
    2.9890   -0.3079    0.0000 H   0  0  0  0  0  0  0  0  0  0  0  0
    8.4818    1.3329    0.0000 H   0  0  0  0  0  0  0  0  0  0  0  0
    9.2737    1.4230    0.0000 H   0  0  0  0  0  0  0  0  0  0  0  0
    6.2054   -2.0497    0.0000 H   0  0  0  0  0  0  0  0  0  0  0  0
    6.0812   -2.9177    0.0000 H   0  0  0  0  0  0  0  0  0  0  0  0
    5.2132   -2.7935    0.0000 H   0  0  0  0  0  0  0  0  0  0  0  0
   10.0957    1.0756    0.0000 H   0  0  0  0  0  0  0  0  0  0  0  0
   10.4169    0.2598    0.0000 H   0  0  0  0  0  0  0  0  0  0  0  0
    9.6011   -0.0614    0.0000 H   0  0  0  0  0  0  0  0  0  0  0  0
    7.4882    3.1773    0.0000 H   0  0  0  0  0  0  0  0  0  0  0  0
    8.3351    2.9504    0.0000 H   0  0  0  0  0  0  0  0  0  0  0  0
    8.1082    2.1034    0.0000 H   0  0  0  0  0  0  0  0  0  0  0  0
    3.3516    0.5459    0.0000 H   0  0  0  0  0  0  0  0  0  0  0  0
    2.5270    0.2480    0.0000 H   0  0  0  0  0  0  0  0  0  0  0  0
    2.2291    1.0727    0.0000 H   0  0  0  0  0  0  0  0  0  0  0  0
    2.2808    3.6470    0.0000 H   0  0  0  0  0  0  0  0  0  0  0  0
    2.9508    4.2126    0.0000 H   0  0  0  0  0  0  0  0  0  0  0  0
    3.5164    3.5426    0.0000 H   0  0  0  0  0  0  0  0  0  0  0  0
    8.9742   -3.0578    0.0000 H   0  0  0  0  0  0  0  0  0  0  0  0
    9.2011   -3.9048    0.0000 H   0  0  0  0  0  0  0  0  0  0  0  0
    8.3542   -4.1317    0.0000 H   0  0  0  0  0  0  0  0  0  0  0  0
 14  1  1  1  0  0  0
  1 58  1  0  0  0  0
 16  2  1  6  0  0  0
  2 59  1  0  0  0  0
 17  3  1  6  0  0  0
  3 30  1  0  0  0  0
 19  4  1  1  0  0  0
  4 32  1  0  0  0  0
 22  5  1  1  0  0  0
  5 33  1  0  0  0  0
 26  6  1  6  0  0  0
  6 34  1  0  0  0  0
  7 28  1  0  0  0  0
  7 35  1  0  0  0  0
  8 35  2  0  0  0  0
  9 12  1  0  0  0  0
  9 24  1  0  0  0  0
  9 29  1  0  0  0  0
 10 11  1  0  0  0  0
 10 12  1  0  0  0  0
 10 13  1  0  0  0  0
 10 19  1  6  0  0  0
 11 17  1  0  0  0  0
 11 18  1  0  0  0  0
 11 37  1  6  0  0  0
 12 14  1  0  0  0  0
 12 38  1  0  0  0  0
 13 15  1  0  0  0  0
 13 20  1  0  0  0  0
 13 39  1  6  0  0  0
 14 16  1  0  0  0  0
 14 17  1  0  0  0  0
 15 16  1  0  0  0  0
 15 22  1  0  0  0  0
 15 40  1  6  0  0  0
 16 23  1  0  0  0  0
 17 41  1  0  0  0  0
 18 24  1  0  0  0  0
 18 25  1  0  0  0  0
 18 28  1  6  0  0  0
 19 27  1  0  0  0  0
 19 42  1  0  0  0  0
 20 21  1  0  0  0  0
 20 43  1  0  0  0  0
 20 44  1  0  0  0  0
 21 22  1  0  0  0  0
 21 26  1  0  0  0  0
 21 45  1  6  0  0  0
 22 46  1  0  0  0  0
 23 26  1  0  0  0  0
 23 47  1  0  0  0  0
 23 48  1  0  0  0  0
 24 49  1  0  0  0  0
 24 50  1  0  0  0  0
 25 27  1  0  0  0  0
 25 51  1  0  0  0  0
 25 52  1  0  0  0  0
 26 53  1  0  0  0  0
 27 54  1  0  0  0  0
 27 55  1  0  0  0  0
 28 56  1  0  0  0  0
 28 57  1  0  0  0  0
 29 31  1  0  0  0  0
 29 60  1  0  0  0  0
 29 61  1  0  0  0  0
 30 62  1  0  0  0  0
 30 63  1  0  0  0  0
 30 64  1  0  0  0  0
 31 65  1  0  0  0  0
 31 66  1  0  0  0  0
 31 67  1  0  0  0  0
 32 68  1  0  0  0  0
 32 69  1  0  0  0  0
 32 70  1  0  0  0  0
 33 71  1  0  0  0  0
 33 72  1  0  0  0  0
 33 73  1  0  0  0  0
 34 74  1  0  0  0  0
 34 75  1  0  0  0  0
 34 76  1  0  0  0  0
 35 36  1  0  0  0  0
 36 77  1  0  0  0  0
 36 78  1  0  0  0  0
 36 79  1  0  0  0  0
M  END
> <PUBCHEM_COMPOUND_CID>
441763

> <PUBCHEM_COMPOUND_CANONICALIZED>
1

> <PUBCHEM_CACTVS_COMPLEXITY>
918

> <PUBCHEM_CACTVS_HBOND_ACCEPTOR>
9

> <PUBCHEM_CACTVS_HBOND_DONOR>
2

> <PUBCHEM_CACTVS_ROTATABLE_BOND>
8

> <PUBCHEM_CACTVS_SUBSKEYS>
AAADcfB6PAAAAAAAAAAAAAAAAAAAAYMAAAA8YMEAB4gWAGAAAAAAHgAACAAAD3zhgAYCCAMABgAIAACQCAAAAAAAAAAAAAAIAAADAAIAgAAGQAAHAACTAAHw8P8PgAAAAAAAAADQAAaUADSgAaEADSgAAA==

> <PUBCHEM_IUPAC_INCHI>
InChI=1S/C27H43NO8/c1-7-28-12-24(13-36-14(2)29)9-8-18(33-4)26-16-10-15-17(32-3)11-25(30,19(16)20(15)34-5)27(31,23(26)28)22(35-6)21(24)26/h15-23,30-31H,7-13H2,1-6H3/t15-,16-,17+,18+,19-,20+,21-,22+,23?,24+,25-,26+,27-/m1/s1

> <PUBCHEM_IUPAC_INCHIKEY>
STJQAAPRZLERIZ-VEUWJJFUSA-N

> <PUBCHEM_XLOGP3_AA>
0

> <PUBCHEM_EXACT_MASS>
509.298867

> <PUBCHEM_MOLECULAR_FORMULA>
C27H43NO8

> <PUBCHEM_MOLECULAR_WEIGHT>
509.63222

> <PUBCHEM_OPENEYE_CAN_SMILES>
CCN1CC2(CCC(C34C2C(C(C31)(C5(CC(C6CC4C5C6OC)OC)O)O)OC)OC)COC(=O)C

> <PUBCHEM_OPENEYE_ISO_SMILES>
CCN1C[C@@]2(CC[C@@H]([C@@]34[C@@H]2[C@@H]([C@@](C31)([C@]5(C[C@@H]([C@H]6C[C@@H]4[C@@H]5[C@H]6OC)OC)O)O)OC)OC)COC(=O)C

> <PUBCHEM_CACTVS_TPSA>
107

> <PUBCHEM_MONOISOTOPIC_WEIGHT>
509.298867

> <PUBCHEM_TOTAL_CHARGE>
0

> <PUBCHEM_HEAVY_ATOM_COUNT>
36

> <PUBCHEM_ATOM_DEF_STEREO_COUNT>
12

> <PUBCHEM_ATOM_UDEF_STEREO_COUNT>
1

> <PUBCHEM_BOND_DEF_STEREO_COUNT>
0

> <PUBCHEM_BOND_UDEF_STEREO_COUNT>
0

> <PUBCHEM_ISOTOPIC_ATOM_COUNT>
0

> <PUBCHEM_COMPONENT_COUNT>
1

> <PUBCHEM_CACTVS_TAUTO_COUNT>
1

> <PUBCHEM_COORDINATE_TYPE>
1
5
255

> <PUBCHEM_BONDANNOTATIONS>
14  1  5
10  19  6
11  37  6
12  38  3
13  39  6
15  40  6
18  28  6
16  2  6
21  45  6
17  3  6
19  4  5
22  5  5
26  6  6

$$$$

