23724766
  -OEChem-07051213082D

 16 16  0     1  0  0  0  0  0999 V2000
    3.7690    1.4330    0.0000 F   0  0  0  0  0  0  0  0  0  0  0  0
    4.7690    1.4330    0.0000 O   0  0  0  0  0  0  0  0  0  0  0  0
    2.5369    0.5670    0.0000 O   0  0  0  0  0  0  0  0  0  0  0  0
    4.2690    0.5670    0.0000 C   0  0  2  0  0  0  0  0  0  0  0  0
    3.4030    0.0670    0.0000 C   0  0  2  0  0  0  0  0  0  0  0  0
    5.1350    0.0670    0.0000 C   0  0  0  0  0  0  0  0  0  0  0  0
    3.4030   -0.9330    0.0000 C   0  0  0  0  0  0  0  0  0  0  0  0
    5.1350   -0.9330    0.0000 C   0  0  0  0  0  0  0  0  0  0  0  0
    4.2690   -1.4330    0.0000 C   0  0  0  0  0  0  0  0  0  0  0  0
    3.4030    0.6870    0.0000 H   0  0  0  0  0  0  0  0  0  0  0  0
    5.6720    0.3770    0.0000 H   0  0  0  0  0  0  0  0  0  0  0  0
    2.8660   -1.2430    0.0000 H   0  0  0  0  0  0  0  0  0  0  0  0
    5.6720   -1.2430    0.0000 H   0  0  0  0  0  0  0  0  0  0  0  0
    4.2690   -2.0530    0.0000 H   0  0  0  0  0  0  0  0  0  0  0  0
    5.3890    1.4330    0.0000 H   0  0  0  0  0  0  0  0  0  0  0  0
    2.0000    0.2570    0.0000 H   0  0  0  0  0  0  0  0  0  0  0  0
  1  4  1  0  0  0  0
  4  2  1  6  0  0  0
  2 15  1  0  0  0  0
  5  3  1  6  0  0  0
  3 16  1  0  0  0  0
  4  5  1  0  0  0  0
  4  6  1  0  0  0  0
  5  7  1  0  0  0  0
  5 10  1  0  0  0  0
  6  8  2  0  0  0  0
  6 11  1  0  0  0  0
  7  9  2  0  0  0  0
  7 12  1  0  0  0  0
  8  9  1  0  0  0  0
  8 13  1  0  0  0  0
  9 14  1  0  0  0  0
M  END
> <PUBCHEM_COMPOUND_CID>
23724766

> <PUBCHEM_COMPOUND_CANONICALIZED>
1

> <PUBCHEM_CACTVS_COMPLEXITY>
164

> <PUBCHEM_CACTVS_HBOND_ACCEPTOR>
3

> <PUBCHEM_CACTVS_HBOND_DONOR>
2

> <PUBCHEM_CACTVS_ROTATABLE_BOND>
0

> <PUBCHEM_CACTVS_SUBSKEYS>
AAADcYBgMQAAAAAAAAAAAAAAAAAAAAAAAAAgAAAAAAAAAAAAAAAAGwAACAAACBSggAIAAAAAAgCAACBCAAAAAAAgAAAICAAAAAgJFAAAAQAAUAAAwAAJkAIAAAAAAAAAAAAAAAAAAAAAAAAAAAAAAAAAAA==

> <PUBCHEM_IUPAC_OPENEYE_NAME>
(1S,2S)-1-fluorocyclohexa-3,5-diene-1,2-diol

> <PUBCHEM_IUPAC_CAS_NAME>
(1S,2S)-1-fluorocyclohexa-3,5-diene-1,2-diol

> <PUBCHEM_IUPAC_NAME>
(1S,2S)-1-fluorocyclohexa-3,5-diene-1,2-diol

> <PUBCHEM_IUPAC_SYSTEMATIC_NAME>
(1S,2S)-1-fluoranylcyclohexa-3,5-diene-1,2-diol

> <PUBCHEM_IUPAC_TRADITIONAL_NAME>
(1S,2S)-1-fluorocyclohexa-3,5-diene-1,2-diol

> <PUBCHEM_IUPAC_INCHI>
InChI=1S/C6H7FO2/c7-6(9)4-2-1-3-5(6)8/h1-5,8-9H/t5-,6+/m0/s1

> <PUBCHEM_IUPAC_INCHIKEY>
AERDYPVCYXMHIV-NTSWFWBYSA-N

> <PUBCHEM_XLOGP3_AA>
0.2

> <PUBCHEM_EXACT_MASS>
130.043008

> <PUBCHEM_MOLECULAR_FORMULA>
C6H7FO2

> <PUBCHEM_MOLECULAR_WEIGHT>
130.116983

> <PUBCHEM_OPENEYE_CAN_SMILES>
C1=CC(C(C=C1)(O)F)O

> <PUBCHEM_OPENEYE_ISO_SMILES>
C1=C[C@@H]([C@@](C=C1)(O)F)O

> <PUBCHEM_CACTVS_TPSA>
40.5

> <PUBCHEM_MONOISOTOPIC_WEIGHT>
130.043008

> <PUBCHEM_TOTAL_CHARGE>
0

> <PUBCHEM_HEAVY_ATOM_COUNT>
9

> <PUBCHEM_ATOM_DEF_STEREO_COUNT>
2

> <PUBCHEM_ATOM_UDEF_STEREO_COUNT>
0

> <PUBCHEM_BOND_DEF_STEREO_COUNT>
0

> <PUBCHEM_BOND_UDEF_STEREO_COUNT>
0

> <PUBCHEM_ISOTOPIC_ATOM_COUNT>
0

> <PUBCHEM_COMPONENT_COUNT>
1

> <PUBCHEM_CACTVS_TAUTO_COUNT>
1

> <PUBCHEM_COORDINATE_TYPE>
1
5
255

> <PUBCHEM_BONDANNOTATIONS>
4  2  6
5  3  6

$$$$

