5989
  -OEChem-06261201023D

 18 18  0     0  0  0  0  0  0999 V2000
    3.2004   -0.1260    0.1123 Cl  0  0  0  0  0  0  0  0  0  0  0  0
   -0.8483    0.1688    0.1043 N   0  3  0  0  0  0  0  0  0  0  0  0
   -1.2869   -0.8576   -0.8083 C   0  0  0  0  0  0  0  0  0  0  0  0
   -1.8295   -0.7634    0.6011 C   0  0  0  0  0  0  0  0  0  0  0  0
    0.5257    0.0231    0.6425 C   0  0  0  0  0  0  0  0  0  0  0  0
   -1.2931    1.5392   -0.1590 C   0  0  0  0  0  0  0  0  0  0  0  0
    1.5319    0.0158   -0.4929 C   0  0  0  0  0  0  0  0  0  0  0  0
   -0.6512   -1.7085   -1.0188 H   0  0  0  0  0  0  0  0  0  0  0  0
   -1.9427   -0.5736   -1.6221 H   0  0  0  0  0  0  0  0  0  0  0  0
   -2.8481   -0.4170    0.7269 H   0  0  0  0  0  0  0  0  0  0  0  0
   -1.5249   -1.5227    1.3103 H   0  0  0  0  0  0  0  0  0  0  0  0
    0.7032    0.8519    1.3378 H   0  0  0  0  0  0  0  0  0  0  0  0
    0.5946   -0.9105    1.2151 H   0  0  0  0  0  0  0  0  0  0  0  0
   -1.2578    2.1026    0.7782 H   0  0  0  0  0  0  0  0  0  0  0  0
   -0.6264    1.9931   -0.8974 H   0  0  0  0  0  0  0  0  0  0  0  0
   -2.3181    1.5424   -0.5459 H   0  0  0  0  0  0  0  0  0  0  0  0
    1.4846    0.9403   -1.0757 H   0  0  0  0  0  0  0  0  0  0  0  0
    1.3846   -0.8234   -1.1770 H   0  0  0  0  0  0  0  0  0  0  0  0
  1  7  1  0  0  0  0
  2  3  1  0  0  0  0
  2  4  1  0  0  0  0
  2  5  1  0  0  0  0
  2  6  1  0  0  0  0
  3  4  1  0  0  0  0
  3  8  1  0  0  0  0
  3  9  1  0  0  0  0
  4 10  1  0  0  0  0
  4 11  1  0  0  0  0
  5  7  1  0  0  0  0
  5 12  1  0  0  0  0
  5 13  1  0  0  0  0
  6 14  1  0  0  0  0
  6 15  1  0  0  0  0
  6 16  1  0  0  0  0
  7 17  1  0  0  0  0
  7 18  1  0  0  0  0
M  CHG  1   2   1
M  END
> <PUBCHEM_COMPOUND_CID>
5989

> <PUBCHEM_CONFORMER_RMSD>
0.4

> <PUBCHEM_CONFORMER_DIVERSEORDER>
1
5
3
2
4

> <PUBCHEM_MMFF94_PARTIAL_CHARGES>
11
1 -0.29
10 0.1
11 0.1
2 -0.8
3 0.2
4 0.2
5 0.5
6 0.5
7 0.29
8 0.1
9 0.1

> <PUBCHEM_EFFECTIVE_ROTOR_COUNT>
2.6

> <PUBCHEM_PHARMACOPHORE_FEATURES>
1
1 2 cation

> <PUBCHEM_HEAVY_ATOM_COUNT>
7

> <PUBCHEM_ATOM_DEF_STEREO_COUNT>
0

> <PUBCHEM_ATOM_UDEF_STEREO_COUNT>
0

> <PUBCHEM_BOND_DEF_STEREO_COUNT>
0

> <PUBCHEM_BOND_UDEF_STEREO_COUNT>
0

> <PUBCHEM_ISOTOPIC_ATOM_COUNT>
0

> <PUBCHEM_COMPONENT_COUNT>
1

> <PUBCHEM_CACTVS_TAUTO_COUNT>
1

> <PUBCHEM_CONFORMER_ID>
0000176500000001

> <PUBCHEM_MMFF94_ENERGY>
18.7382

> <PUBCHEM_FEATURE_SELFOVERLAP>
5.074

> <PUBCHEM_SHAPE_FINGERPRINT>
12932764 1 18186802478832267658
15310529 11 18411132537459372502
16714656 1 18335136488217236319
21040471 1 18122912198398487017
23552423 10 18201434835172200986
24536 1 17988931075851622506
29004967 10 18338789001325350802
369184 2 17894351090036126562
5460574 1 9799696991346503530
5943 1 12655498592791845547

> <PUBCHEM_SHAPE_MULTIPOLES>
140.95
3.67
1.15
0.86
3.6
0.38
-0.02
-0.37
0.1
-0.75
-0.09
-0.12
-0.12
0.03

> <PUBCHEM_SHAPE_SELFOVERLAP>
252.78

> <PUBCHEM_SHAPE_VOLUME>
94.5

> <PUBCHEM_COORDINATE_TYPE>
2
5
10

$$$$

