442735
  -OEChem-07051212593D

 61 61  0     1  0  0  0  0  0999 V2000
    1.7276   -0.7293    0.1587 O   0  0  0  0  0  0  0  0  0  0  0  0
    4.2548   -1.0095    1.7734 O   0  0  0  0  0  0  0  0  0  0  0  0
    6.7377   -1.6260    0.8035 O   0  0  0  0  0  0  0  0  0  0  0  0
    1.8129   -0.5016   -2.1386 O   0  0  0  0  0  0  0  0  0  0  0  0
    6.4477    2.3915   -1.6866 O   0  0  0  0  0  0  0  0  0  0  0  0
   -2.3448    0.6492    0.7631 C   0  0  0  0  0  0  0  0  0  0  0  0
   -3.5506    0.1542   -0.0424 C   0  0  0  0  0  0  0  0  0  0  0  0
   -0.9721    0.3875    0.1355 C   0  0  0  0  0  0  0  0  0  0  0  0
   -4.9196    0.3658    0.6126 C   0  0  0  0  0  0  0  0  0  0  0  0
    0.1935    0.9209    0.9766 C   0  0  0  0  0  0  0  0  0  0  0  0
   -6.0884   -0.0750   -0.2718 C   0  0  0  0  0  0  0  0  0  0  0  0
    1.5506    0.6799    0.2996 C   0  0  1  0  0  0  0  0  0  0  0  0
   -7.4580    0.1432    0.3803 C   0  0  0  0  0  0  0  0  0  0  0  0
   -8.6700   -0.2593   -0.4670 C   0  0  0  0  0  0  0  0  0  0  0  0
    2.6886    1.2585    1.1499 C   0  0  0  0  0  0  0  0  0  0  0  0
  -10.0095    0.0343    0.2131 C   0  0  0  0  0  0  0  0  0  0  0  0
    4.0393    1.0166    0.5574 C   0  0  0  0  0  0  0  0  0  0  0  0
  -11.2179   -0.3754   -0.6323 C   0  0  0  0  0  0  0  0  0  0  0  0
    4.7539   -0.2207    0.9759 C   0  0  0  0  0  0  0  0  0  0  0  0
    4.6062    1.8596   -0.3136 C   0  0  0  0  0  0  0  0  0  0  0  0
  -12.5520   -0.0200    0.0056 C   0  0  0  0  0  0  0  0  0  0  0  0
    1.8454   -1.1836   -1.1232 C   0  0  0  0  0  0  0  0  0  0  0  0
    6.0971   -0.4737    0.3981 C   0  0  0  0  0  0  0  0  0  0  0  0
    5.9416    1.6089   -0.8901 C   0  0  0  0  0  0  0  0  0  0  0  0
    6.6449    0.3823   -0.4705 C   0  0  0  0  0  0  0  0  0  0  0  0
    2.0252   -2.6714   -1.1169 C   0  0  0  0  0  0  0  0  0  0  0  0
    6.4159   -2.7067   -0.0505 C   0  0  0  0  0  0  0  0  0  0  0  0
   -2.4575    1.7279    0.9301 H   0  0  0  0  0  0  0  0  0  0  0  0
   -2.3714    0.1791    1.7542 H   0  0  0  0  0  0  0  0  0  0  0  0
   -3.5434    0.6562   -1.0182 H   0  0  0  0  0  0  0  0  0  0  0  0
   -3.4216   -0.9165   -0.2453 H   0  0  0  0  0  0  0  0  0  0  0  0
   -0.9422    0.8500   -0.8586 H   0  0  0  0  0  0  0  0  0  0  0  0
   -0.8616   -0.6931   -0.0129 H   0  0  0  0  0  0  0  0  0  0  0  0
   -5.0364    1.4283    0.8587 H   0  0  0  0  0  0  0  0  0  0  0  0
   -4.9520   -0.1845    1.5608 H   0  0  0  0  0  0  0  0  0  0  0  0
    0.0543    1.9938    1.1549 H   0  0  0  0  0  0  0  0  0  0  0  0
    0.1735    0.4193    1.9525 H   0  0  0  0  0  0  0  0  0  0  0  0
   -5.9754   -1.1376   -0.5190 H   0  0  0  0  0  0  0  0  0  0  0  0
   -6.0525    0.4764   -1.2193 H   0  0  0  0  0  0  0  0  0  0  0  0
    1.5448    1.2020   -0.6658 H   0  0  0  0  0  0  0  0  0  0  0  0
   -7.4905   -0.4128    1.3259 H   0  0  0  0  0  0  0  0  0  0  0  0
   -7.5528    1.2046    0.6429 H   0  0  0  0  0  0  0  0  0  0  0  0
   -8.6284    0.2732   -1.4250 H   0  0  0  0  0  0  0  0  0  0  0  0
   -8.6056   -1.3299   -0.6965 H   0  0  0  0  0  0  0  0  0  0  0  0
    2.5301    2.3381    1.2747 H   0  0  0  0  0  0  0  0  0  0  0  0
    2.6495    0.8408    2.1641 H   0  0  0  0  0  0  0  0  0  0  0  0
  -10.0715    1.1073    0.4330 H   0  0  0  0  0  0  0  0  0  0  0  0
  -10.0501   -0.4891    1.1762 H   0  0  0  0  0  0  0  0  0  0  0  0
  -11.1572    0.1117   -1.6129 H   0  0  0  0  0  0  0  0  0  0  0  0
  -11.1854   -1.4565   -0.8122 H   0  0  0  0  0  0  0  0  0  0  0  0
    4.0991    2.7651   -0.6310 H   0  0  0  0  0  0  0  0  0  0  0  0
  -12.6347    1.0603    0.1614 H   0  0  0  0  0  0  0  0  0  0  0  0
  -12.6652   -0.5165    0.9745 H   0  0  0  0  0  0  0  0  0  0  0  0
  -13.3782   -0.3361   -0.6388 H   0  0  0  0  0  0  0  0  0  0  0  0
    7.6270    0.2013   -0.8942 H   0  0  0  0  0  0  0  0  0  0  0  0
    2.8710   -2.9418   -0.4802 H   0  0  0  0  0  0  0  0  0  0  0  0
    2.2362   -3.0157   -2.1333 H   0  0  0  0  0  0  0  0  0  0  0  0
    1.1096   -3.1514   -0.7632 H   0  0  0  0  0  0  0  0  0  0  0  0
    6.9418   -3.5952    0.3117 H   0  0  0  0  0  0  0  0  0  0  0  0
    6.7466   -2.5155   -1.0775 H   0  0  0  0  0  0  0  0  0  0  0  0
    5.3425   -2.9225   -0.0358 H   0  0  0  0  0  0  0  0  0  0  0  0
  1 12  1  0  0  0  0
  1 22  1  0  0  0  0
  2 19  2  0  0  0  0
  3 23  1  0  0  0  0
  3 27  1  0  0  0  0
  4 22  2  0  0  0  0
  5 24  2  0  0  0  0
  6  7  1  0  0  0  0
  6  8  1  0  0  0  0
  6 28  1  0  0  0  0
  6 29  1  0  0  0  0
  7  9  1  0  0  0  0
  7 30  1  0  0  0  0
  7 31  1  0  0  0  0
  8 10  1  0  0  0  0
  8 32  1  0  0  0  0
  8 33  1  0  0  0  0
  9 11  1  0  0  0  0
  9 34  1  0  0  0  0
  9 35  1  0  0  0  0
 10 12  1  0  0  0  0
 10 36  1  0  0  0  0
 10 37  1  0  0  0  0
 11 13  1  0  0  0  0
 11 38  1  0  0  0  0
 11 39  1  0  0  0  0
 12 15  1  0  0  0  0
 12 40  1  0  0  0  0
 13 14  1  0  0  0  0
 13 41  1  0  0  0  0
 13 42  1  0  0  0  0
 14 16  1  0  0  0  0
 14 43  1  0  0  0  0
 14 44  1  0  0  0  0
 15 17  1  0  0  0  0
 15 45  1  0  0  0  0
 15 46  1  0  0  0  0
 16 18  1  0  0  0  0
 16 47  1  0  0  0  0
 16 48  1  0  0  0  0
 17 19  1  0  0  0  0
 17 20  2  0  0  0  0
 18 21  1  0  0  0  0
 18 49  1  0  0  0  0
 18 50  1  0  0  0  0
 19 23  1  0  0  0  0
 20 24  1  0  0  0  0
 20 51  1  0  0  0  0
 21 52  1  0  0  0  0
 21 53  1  0  0  0  0
 21 54  1  0  0  0  0
 22 26  1  0  0  0  0
 23 25  2  0  0  0  0
 24 25  1  0  0  0  0
 25 55  1  0  0  0  0
 26 56  1  0  0  0  0
 26 57  1  0  0  0  0
 26 58  1  0  0  0  0
 27 59  1  0  0  0  0
 27 60  1  0  0  0  0
 27 61  1  0  0  0  0
M  END
> <PUBCHEM_COMPOUND_CID>
442735

> <PUBCHEM_CONFORMER_RMSD>
1.4

> <PUBCHEM_CONFORMER_DIVERSEORDER>
1
212
21
215
224
6
105
149
161
196
126
229
52
153
17
47
195
135
180
72
169
164
200
106
163
120
246
69
204
254
32
94
109
24
20
147
239
181
222
110
203
221
31
84
252
128
227
104
97
241
111
119
127
49
213
103
162
134
116
255
14
51
124
248
242
176
148
140
244
55
68
253
237
113
170
66
205
108
236
146
61
26
217
85
121
231
220
228
65
3
235
138
183
156
77
64
177
249
13
125
206
4
187
225
73
174
45
247
191
10
188
59
39
238
112
197
189
207
226
160
22
202
223
87
250
38
123
90
175
179
80
210
8
232
41
99
234
165
219
115
29
114
71
67
141
102
76
88
57
70
245
158
44
240
171
208
216
190
43
9
145
74
36
184
243
152
35
157
11
211
63
50
40
79
193
101
25
185
133
95
18
139
155
173
199
15
16
46
89
30
166
117
132
150
54
144
167
75
42
233
122
7
186
33
83
78
201
154
12
182
142
58
98
143
19
118
82
56
192
194
5
81
218
131
137
209
2
251
151
130
159
27
172
60
93
62
230
178
34
86
28
23
168
198
92
48
100
136
107
214
96
91
53
37
129

> <PUBCHEM_MMFF94_PARTIAL_CHARGES>
18
1 -0.43
12 0.28
15 0.14
17 -0.12
19 0.54
2 -0.57
20 -0.14
22 0.66
23 0.09
24 0.54
25 -0.14
26 0.06
27 0.28
3 -0.36
4 -0.57
5 -0.57
51 0.15
55 0.15

> <PUBCHEM_EFFECTIVE_ROTOR_COUNT>
15

> <PUBCHEM_PHARMACOPHORE_FEATURES>
6
1 2 acceptor
1 21 hydrophobe
1 3 acceptor
1 4 acceptor
1 5 acceptor
6 17 19 20 23 24 25 rings

> <PUBCHEM_HEAVY_ATOM_COUNT>
27

> <PUBCHEM_ATOM_DEF_STEREO_COUNT>
0

> <PUBCHEM_ATOM_UDEF_STEREO_COUNT>
1

> <PUBCHEM_BOND_DEF_STEREO_COUNT>
0

> <PUBCHEM_BOND_UDEF_STEREO_COUNT>
0

> <PUBCHEM_ISOTOPIC_ATOM_COUNT>
0

> <PUBCHEM_COMPONENT_COUNT>
1

> <PUBCHEM_CACTVS_TAUTO_COUNT>
3

> <PUBCHEM_CONFORMER_ID>
0006C16F00000001

> <PUBCHEM_MMFF94_ENERGY>
35.1693

> <PUBCHEM_FEATURE_SELFOVERLAP>
30.451

> <PUBCHEM_SHAPE_FINGERPRINT>
10299344 5 18408323281293060745
11719270 70 18113337535296040286
12089408 11 18408322186535524681
13692114 37 16877950420938582238
14118638 360 17531521079734650481
14251764 18 17748824125542198353
14251764 46 11527950059127779737
15065858 18 5545197226019742345
15510794 2 18272366461533434259
15840311 113 17704069577852947364
20771845 140 16370730374318104718
20771845 171 18410282628267662230
20812841 46 8430314636531718235
22956985 138 17608642049267927454
232437 2 18335422362401001019
249057 3 14045737111364875993
33684 2 17385443212296233793
34797466 226 17632857517163510332
4325135 7 18334294266753150261
4340502 62 5906042635308513900
465052 167 18410290329249343162
67123 10 17775568620754286337

> <PUBCHEM_SHAPE_MULTIPOLES>
526.3
36.1
1.95
1.27
135.08
1
-0.25
2.86
-3.31
-5.65
-0.46
-2.04
-0.07
-1.71

> <PUBCHEM_SHAPE_SELFOVERLAP>
1033.331

> <PUBCHEM_SHAPE_VOLUME>
313.7

> <PUBCHEM_COORDINATE_TYPE>
2
5
10

$$$$

