6495
  -OEChem-06261201212D

 19 18  0     0  0  0  0  0  0999 V2000
    4.5981    0.5000    0.0000 O   0  0  0  0  0  0  0  0  0  0  0  0
    2.8660   -0.5000    0.0000 O   0  0  0  0  0  0  0  0  0  0  0  0
    3.7320    0.0000    0.0000 C   0  0  0  0  0  0  0  0  0  0  0  0
    3.2320    0.8660    0.0000 C   0  0  0  0  0  0  0  0  0  0  0  0
    4.2320   -0.8660    0.0000 C   0  0  0  0  0  0  0  0  0  0  0  0
    2.0000    0.0000    0.0000 C   0  0  0  0  0  0  0  0  0  0  0  0
    5.4641    0.0000    0.0000 C   0  0  0  0  0  0  0  0  0  0  0  0
    3.6951   -1.1760    0.0000 H   0  0  0  0  0  0  0  0  0  0  0  0
    4.5420   -1.4030    0.0000 H   0  0  0  0  0  0  0  0  0  0  0  0
    4.7690   -0.5560    0.0000 H   0  0  0  0  0  0  0  0  0  0  0  0
    3.7690    1.1760    0.0000 H   0  0  0  0  0  0  0  0  0  0  0  0
    2.9220    1.4030    0.0000 H   0  0  0  0  0  0  0  0  0  0  0  0
    2.6951    0.5560    0.0000 H   0  0  0  0  0  0  0  0  0  0  0  0
    5.1541   -0.5369    0.0000 H   0  0  0  0  0  0  0  0  0  0  0  0
    6.0010   -0.3100    0.0000 H   0  0  0  0  0  0  0  0  0  0  0  0
    5.7741    0.5369    0.0000 H   0  0  0  0  0  0  0  0  0  0  0  0
    2.3100    0.5369    0.0000 H   0  0  0  0  0  0  0  0  0  0  0  0
    1.4631    0.3100    0.0000 H   0  0  0  0  0  0  0  0  0  0  0  0
    1.6900   -0.5369    0.0000 H   0  0  0  0  0  0  0  0  0  0  0  0
  1  3  1  0  0  0  0
  1  7  1  0  0  0  0
  2  3  1  0  0  0  0
  2  6  1  0  0  0  0
  3  4  1  0  0  0  0
  3  5  1  0  0  0  0
  4 11  1  0  0  0  0
  4 12  1  0  0  0  0
  4 13  1  0  0  0  0
  5  8  1  0  0  0  0
  5  9  1  0  0  0  0
  5 10  1  0  0  0  0
  6 17  1  0  0  0  0
  6 18  1  0  0  0  0
  6 19  1  0  0  0  0
  7 14  1  0  0  0  0
  7 15  1  0  0  0  0
  7 16  1  0  0  0  0
M  END
> <PUBCHEM_COMPOUND_CID>
6495

> <PUBCHEM_COMPOUND_CANONICALIZED>
1

> <PUBCHEM_CACTVS_COMPLEXITY>
44

> <PUBCHEM_CACTVS_HBOND_ACCEPTOR>
2

> <PUBCHEM_CACTVS_HBOND_DONOR>
0

> <PUBCHEM_CACTVS_ROTATABLE_BOND>
2

> <PUBCHEM_CACTVS_SUBSKEYS>
AAADccBgMAAAAAAAAAAAAAAAAAAAAAAAAAAAAAAAAAAAAAAAAAAAGgAAAAAACASAgAICCAAABAAAAAAAAAAAAAAAAAAAAAAAAAAQAAAAAAAgAAAAAAAAAAAAAAAAAAAAAAAAAAAAAAAAAAAAAAAAAAAAAA==

> <PUBCHEM_IUPAC_OPENEYE_NAME>
2,2-dimethoxypropane

> <PUBCHEM_IUPAC_CAS_NAME>
2,2-dimethoxypropane

> <PUBCHEM_IUPAC_NAME>
2,2-dimethoxypropane

> <PUBCHEM_IUPAC_SYSTEMATIC_NAME>
2,2-dimethoxypropane

> <PUBCHEM_IUPAC_TRADITIONAL_NAME>
2,2-dimethoxypropane

> <PUBCHEM_IUPAC_INCHI>
InChI=1S/C5H12O2/c1-5(2,6-3)7-4/h1-4H3

> <PUBCHEM_IUPAC_INCHIKEY>
HEWZVZIVELJPQZ-UHFFFAOYSA-N

> <PUBCHEM_XLOGP3_AA>
0.6

> <PUBCHEM_EXACT_MASS>
104.08373

> <PUBCHEM_MOLECULAR_FORMULA>
C5H12O2

> <PUBCHEM_MOLECULAR_WEIGHT>
104.14758

> <PUBCHEM_OPENEYE_CAN_SMILES>
CC(C)(OC)OC

> <PUBCHEM_OPENEYE_ISO_SMILES>
CC(C)(OC)OC

> <PUBCHEM_CACTVS_TPSA>
18.5

> <PUBCHEM_MONOISOTOPIC_WEIGHT>
104.08373

> <PUBCHEM_TOTAL_CHARGE>
0

> <PUBCHEM_HEAVY_ATOM_COUNT>
7

> <PUBCHEM_ATOM_DEF_STEREO_COUNT>
0

> <PUBCHEM_ATOM_UDEF_STEREO_COUNT>
0

> <PUBCHEM_BOND_DEF_STEREO_COUNT>
0

> <PUBCHEM_BOND_UDEF_STEREO_COUNT>
0

> <PUBCHEM_ISOTOPIC_ATOM_COUNT>
0

> <PUBCHEM_COMPONENT_COUNT>
1

> <PUBCHEM_CACTVS_TAUTO_COUNT>
1

> <PUBCHEM_COORDINATE_TYPE>
1
5
255

$$$$

