68184
  -OEChem-07051212593D

 52 56  0     1  0  0  0  0  0999 V2000
   -0.8051    0.1330   -1.4776 O   0  0  0  0  0  0  0  0  0  0  0  0
    1.6301   -0.9034   -2.5181 O   0  0  0  0  0  0  0  0  0  0  0  0
    1.9033    2.6209   -1.7013 O   0  0  0  0  0  0  0  0  0  0  0  0
   -4.4394   -0.2369    1.4053 O   0  0  0  0  0  0  0  0  0  0  0  0
    0.7689    3.2754    0.6416 O   0  0  0  0  0  0  0  0  0  0  0  0
    4.4473   -0.1552    2.1684 O   0  0  0  0  0  0  0  0  0  0  0  0
    4.7437   -2.4713    0.6633 O   0  0  0  0  0  0  0  0  0  0  0  0
    1.1518    1.5931   -1.0536 C   0  0  1  0  0  0  0  0  0  0  0  0
    0.1590    1.0183   -2.0658 C   0  0  1  0  0  0  0  0  0  0  0  0
    2.1087    0.5199   -0.5810 C   0  0  0  0  0  0  0  0  0  0  0  0
    0.3721    2.2724    0.0573 C   0  0  0  0  0  0  0  0  0  0  0  0
   -1.4146    0.6118   -0.3581 C   0  0  0  0  0  0  0  0  0  0  0  0
    0.9278    0.2001   -3.1017 C   0  0  0  0  0  0  0  0  0  0  0  0
   -0.9154    1.6534    0.4264 C   0  0  0  0  0  0  0  0  0  0  0  0
   -2.5946    0.0064    0.0397 C   0  0  0  0  0  0  0  0  0  0  0  0
   -3.3702   -1.0789   -0.6069 C   0  0  0  0  0  0  0  0  0  0  0  0
    2.2918   -0.6431   -1.3460 C   0  0  0  0  0  0  0  0  0  0  0  0
   -4.3574   -1.3904    0.5291 C   0  0  2  0  0  0  0  0  0  0  0  0
   -3.2769    0.4497    1.1629 C   0  0  0  0  0  0  0  0  0  0  0  0
   -1.6151    2.1041    1.5620 C   0  0  0  0  0  0  0  0  0  0  0  0
    2.8586    0.6692    0.5972 C   0  0  0  0  0  0  0  0  0  0  0  0
   -2.8174    1.4997    1.9333 C   0  0  0  0  0  0  0  0  0  0  0  0
    3.1681   -1.6458   -0.9172 C   0  0  0  0  0  0  0  0  0  0  0  0
   -5.7282   -1.7226    0.0443 C   0  0  0  0  0  0  0  0  0  0  0  0
    3.7399   -0.3289    1.0171 C   0  0  0  0  0  0  0  0  0  0  0  0
    3.8908   -1.4881    0.2627 C   0  0  0  0  0  0  0  0  0  0  0  0
   -6.6534   -0.5617   -0.1703 C   0  0  0  0  0  0  0  0  0  0  0  0
   -6.1113   -2.9871   -0.1868 C   0  0  0  0  0  0  0  0  0  0  0  0
    3.8472   -0.6231    3.3746 C   0  0  0  0  0  0  0  0  0  0  0  0
    6.0901   -2.3908    0.1992 C   0  0  0  0  0  0  0  0  0  0  0  0
   -0.3819    1.8200   -2.5876 H   0  0  0  0  0  0  0  0  0  0  0  0
    0.2269   -0.2308   -3.8253 H   0  0  0  0  0  0  0  0  0  0  0  0
    1.6418    0.8159   -3.6613 H   0  0  0  0  0  0  0  0  0  0  0  0
   -3.8628   -0.7031   -1.5102 H   0  0  0  0  0  0  0  0  0  0  0  0
   -2.7604   -1.9522   -0.8569 H   0  0  0  0  0  0  0  0  0  0  0  0
   -3.9632   -2.2136    1.1430 H   0  0  0  0  0  0  0  0  0  0  0  0
   -1.2307    2.9194    2.1694 H   0  0  0  0  0  0  0  0  0  0  0  0
    2.7640    1.5701    1.1985 H   0  0  0  0  0  0  0  0  0  0  0  0
    2.6412    2.8772   -1.1219 H   0  0  0  0  0  0  0  0  0  0  0  0
   -3.3630    1.8412    2.8059 H   0  0  0  0  0  0  0  0  0  0  0  0
    3.2898   -2.5503   -1.5089 H   0  0  0  0  0  0  0  0  0  0  0  0
   -6.9073   -0.0810    0.7798 H   0  0  0  0  0  0  0  0  0  0  0  0
   -6.1966    0.1821   -0.8312 H   0  0  0  0  0  0  0  0  0  0  0  0
   -7.5940   -0.8746   -0.6372 H   0  0  0  0  0  0  0  0  0  0  0  0
   -7.1108   -3.2197   -0.5389 H   0  0  0  0  0  0  0  0  0  0  0  0
   -5.4317   -3.8182   -0.0299 H   0  0  0  0  0  0  0  0  0  0  0  0
    4.5331   -0.4170    4.2008 H   0  0  0  0  0  0  0  0  0  0  0  0
    3.6733   -1.7026    3.3251 H   0  0  0  0  0  0  0  0  0  0  0  0
    2.9050   -0.0987    3.5625 H   0  0  0  0  0  0  0  0  0  0  0  0
    6.1228   -2.4468   -0.8936 H   0  0  0  0  0  0  0  0  0  0  0  0
    6.6451   -3.2388    0.6097 H   0  0  0  0  0  0  0  0  0  0  0  0
    6.5615   -1.4646    0.5426 H   0  0  0  0  0  0  0  0  0  0  0  0
  1  9  1  0  0  0  0
  1 12  1  0  0  0  0
  2 13  1  0  0  0  0
  2 17  1  0  0  0  0
  3  8  1  0  0  0  0
  3 39  1  0  0  0  0
  4 18  1  0  0  0  0
  4 19  1  0  0  0  0
  5 11  2  0  0  0  0
  6 25  1  0  0  0  0
  6 29  1  0  0  0  0
  7 26  1  0  0  0  0
  7 30  1  0  0  0  0
  8  9  1  0  0  0  0
  8 10  1  0  0  0  0
  8 11  1  0  0  0  0
  9 13  1  0  0  0  0
  9 31  1  0  0  0  0
 10 17  1  0  0  0  0
 10 21  2  0  0  0  0
 11 14  1  0  0  0  0
 12 14  2  0  0  0  0
 12 15  1  0  0  0  0
 13 32  1  0  0  0  0
 13 33  1  0  0  0  0
 14 20  1  0  0  0  0
 15 16  1  0  0  0  0
 15 19  2  0  0  0  0
 16 18  1  0  0  0  0
 16 34  1  0  0  0  0
 16 35  1  0  0  0  0
 17 23  2  0  0  0  0
 18 24  1  0  0  0  0
 18 36  1  0  0  0  0
 19 22  1  0  0  0  0
 20 22  2  0  0  0  0
 20 37  1  0  0  0  0
 21 25  1  0  0  0  0
 21 38  1  0  0  0  0
 22 40  1  0  0  0  0
 23 26  1  0  0  0  0
 23 41  1  0  0  0  0
 24 27  1  0  0  0  0
 24 28  2  0  0  0  0
 25 26  2  0  0  0  0
 27 42  1  0  0  0  0
 27 43  1  0  0  0  0
 27 44  1  0  0  0  0
 28 45  1  0  0  0  0
 28 46  1  0  0  0  0
 29 47  1  0  0  0  0
 29 48  1  0  0  0  0
 29 49  1  0  0  0  0
 30 50  1  0  0  0  0
 30 51  1  0  0  0  0
 30 52  1  0  0  0  0
M  END
> <PUBCHEM_COMPOUND_CID>
68184

> <PUBCHEM_CONFORMER_RMSD>
0.8

> <PUBCHEM_CONFORMER_DIVERSEORDER>
1
3
4
2

> <PUBCHEM_MMFF94_PARTIAL_CHARGES>
37
1 -0.36
10 -0.14
11 0.42
12 0.08
13 0.28
14 0.09
15 -0.14
16 0.14
17 0.08
18 0.42
19 0.08
2 -0.36
20 -0.15
21 -0.15
22 -0.15
23 -0.15
24 -0.28
25 0.08
26 0.08
27 0.14
28 -0.3
29 0.28
3 -0.68
30 0.28
37 0.15
38 0.15
39 0.4
4 -0.36
40 0.15
41 0.15
45 0.15
46 0.15
5 -0.57
6 -0.36
7 -0.36
8 0.48
9 0.28

> <PUBCHEM_EFFECTIVE_ROTOR_COUNT>
4.2

> <PUBCHEM_PHARMACOPHORE_FEATURES>
13
1 1 acceptor
1 2 acceptor
1 3 acceptor
1 3 donor
1 4 acceptor
1 5 acceptor
1 6 acceptor
1 7 acceptor
5 4 15 16 18 19 rings
6 1 8 9 11 12 14 rings
6 10 17 21 23 25 26 rings
6 12 14 15 19 20 22 rings
6 2 8 9 10 13 17 rings

> <PUBCHEM_HEAVY_ATOM_COUNT>
30

> <PUBCHEM_ATOM_DEF_STEREO_COUNT>
3

> <PUBCHEM_ATOM_UDEF_STEREO_COUNT>
0

> <PUBCHEM_BOND_DEF_STEREO_COUNT>
0

> <PUBCHEM_BOND_UDEF_STEREO_COUNT>
0

> <PUBCHEM_ISOTOPIC_ATOM_COUNT>
0

> <PUBCHEM_COMPONENT_COUNT>
1

> <PUBCHEM_CACTVS_TAUTO_COUNT>
1

> <PUBCHEM_CONFORMER_ID>
00010A5800000001

> <PUBCHEM_MMFF94_ENERGY>
116.3507

> <PUBCHEM_FEATURE_SELFOVERLAP>
66.25

> <PUBCHEM_SHAPE_FINGERPRINT>
10319926 262 17386556006955102950
10674148 151 15984825982076391959
11115154 58 16773799225258111333
11135609 201 7276534396364325311
11578080 2 18059858376142507540
11720765 8 14333142866311613270
11796584 16 18201716203112397995
1200032 147 8214148481626500910
12166972 35 18202843240742514455
12892183 10 17821733866070250208
12895836 83 10735869565320003403
13083527 12 18260547775679357609
131258 38 18055083059809682010
13533116 47 18269551642413614083
13583140 156 17168997848859123968
13782708 43 18198055877913005067
13911987 19 14544454694792659366
14068700 675 18201439220365146858
14178342 30 18042671983192295077
14251751 18 18341335509685640607
14251757 17 13398623987379454416
14341114 328 14779555551749591491
14537116 161 14548750474069858911
14705955 166 17313381304956178835
14848178 5 18341895169398824523
14950920 106 17823146768761869402
15064986 96 15938094620662138702
15163728 17 6194555658292977960
15183329 4 15339121260395100031
15188451 53 18334016103465529355
15210252 30 9439403518956540454
15475509 8 15769226045937410655
17349148 13 18341881983944119171
1813 80 18131351920904451628
18222031 100 18131353024763781314
18681886 176 17460855320434726316
19438510 23 6121915314861539266
19784866 240 18201997742202134711
1979834 28 16878490264347564023
20028762 73 18408322194008023790
20465049 17 12391518602747389457
20567600 234 14996286890740486075
20626108 58 18273494567876885229
20775438 99 16125838137838320339
20775530 9 16914263055234770170
21033648 29 15936680579598639441
21304304 249 18260266360573830639
21421861 104 18115571661514156369
21458453 9 16227193408983758259
21792934 111 17458890627559938563
22122407 14 14852174008592447465
23559900 14 17315042624529690493
25222932 49 17686327673718328295
2838139 119 7925628886735308242
3004659 81 18339351969065185999
3680242 22 18262507101553493091
3729539 64 14261084219985398009
3886686 26 17465929876203406995
392239 28 15791743991870153387
394222 165 17609207961920412489
4098825 35 11383821684584388648
427121 178 15068613860183340724
437795 70 16486705757178166431
439807 62 18196368110321319395
46194498 28 13613078159588444986
463206 1 16917073260694148115
484985 159 17768539639505539894
49207404 50 16660637518027601484
6523845 18 15502371210716614432
6823239 73 17097180948936063405
7970288 3 18341331179673499138
960060 61 16487252149473342175

> <PUBCHEM_SHAPE_MULTIPOLES>
576.3
12.61
2.88
2.48
10.03
0.3
0.05
-12.9
-5.43
0.01
-0.2
-2.66
0.35
-1.12

> <PUBCHEM_SHAPE_SELFOVERLAP>
1290.686

> <PUBCHEM_SHAPE_VOLUME>
304.8

> <PUBCHEM_COORDINATE_TYPE>
2
5
10

$$$$

