439901
  -OEChem-07051212483D

 31 33  0     0  0  0  0  0  0999 V2000
    2.0564    1.8838    0.0657 O   0  0  0  0  0  0  0  0  0  0  0  0
    0.6473   -1.9372   -0.1856 O   0  0  0  0  0  0  0  0  0  0  0  0
   -5.4466   -0.1794   -0.2458 O   0  0  0  0  0  0  0  0  0  0  0  0
    0.1479    0.3884   -0.0747 C   0  0  0  0  0  0  0  0  0  0  0  0
    2.5034   -0.5009    0.0004 C   0  0  0  0  0  0  0  0  0  0  0  0
   -1.3159    0.2401   -0.1201 C   0  0  0  0  0  0  0  0  0  0  0  0
    1.0599   -0.7885   -0.0906 C   0  0  0  0  0  0  0  0  0  0  0  0
    2.9281    0.8253    0.0726 C   0  0  0  0  0  0  0  0  0  0  0  0
    0.7132    1.6026    0.0020 C   0  0  0  0  0  0  0  0  0  0  0  0
   -1.9823    0.2312   -1.3472 C   0  0  0  0  0  0  0  0  0  0  0  0
   -2.0429    0.1076    1.0650 C   0  0  0  0  0  0  0  0  0  0  0  0
    3.4377   -1.5400    0.0105 C   0  0  0  0  0  0  0  0  0  0  0  0
    4.2893    1.1201    0.1553 C   0  0  0  0  0  0  0  0  0  0  0  0
   -3.3694    0.0905   -1.3891 C   0  0  0  0  0  0  0  0  0  0  0  0
   -3.4300   -0.0333    1.0230 C   0  0  0  0  0  0  0  0  0  0  0  0
   -4.0934   -0.0419   -0.2041 C   0  0  0  0  0  0  0  0  0  0  0  0
    4.7986   -1.2426    0.0939 C   0  0  0  0  0  0  0  0  0  0  0  0
    5.2237    0.0845    0.1660 C   0  0  0  0  0  0  0  0  0  0  0  0
   -6.1250   -0.3102    1.0027 C   0  0  0  0  0  0  0  0  0  0  0  0
    0.1502    2.5278    0.0252 H   0  0  0  0  0  0  0  0  0  0  0  0
   -1.4322    0.3322   -2.2798 H   0  0  0  0  0  0  0  0  0  0  0  0
   -1.5393    0.1115    2.0290 H   0  0  0  0  0  0  0  0  0  0  0  0
    3.1276   -2.5796   -0.0454 H   0  0  0  0  0  0  0  0  0  0  0  0
    4.6288    2.1507    0.2117 H   0  0  0  0  0  0  0  0  0  0  0  0
   -3.8806    0.0842   -2.3479 H   0  0  0  0  0  0  0  0  0  0  0  0
   -3.9301   -0.1316    1.9804 H   0  0  0  0  0  0  0  0  0  0  0  0
    5.5292   -2.0464    0.1023 H   0  0  0  0  0  0  0  0  0  0  0  0
    6.2840    0.3112    0.2305 H   0  0  0  0  0  0  0  0  0  0  0  0
   -6.0084    0.5872    1.6199 H   0  0  0  0  0  0  0  0  0  0  0  0
   -5.8220   -1.2201    1.5319 H   0  0  0  0  0  0  0  0  0  0  0  0
   -7.1928   -0.4095    0.7815 H   0  0  0  0  0  0  0  0  0  0  0  0
  1  8  1  0  0  0  0
  1  9  1  0  0  0  0
  2  7  2  0  0  0  0
  3 16  1  0  0  0  0
  3 19  1  0  0  0  0
  4  6  1  0  0  0  0
  4  7  1  0  0  0  0
  4  9  2  0  0  0  0
  5  7  1  0  0  0  0
  5  8  1  0  0  0  0
  5 12  2  0  0  0  0
  6 10  2  0  0  0  0
  6 11  1  0  0  0  0
  8 13  2  0  0  0  0
  9 20  1  0  0  0  0
 10 14  1  0  0  0  0
 10 21  1  0  0  0  0
 11 15  2  0  0  0  0
 11 22  1  0  0  0  0
 12 17  1  0  0  0  0
 12 23  1  0  0  0  0
 13 18  1  0  0  0  0
 13 24  1  0  0  0  0
 14 16  2  0  0  0  0
 14 25  1  0  0  0  0
 15 16  1  0  0  0  0
 15 26  1  0  0  0  0
 17 18  2  0  0  0  0
 17 27  1  0  0  0  0
 18 28  1  0  0  0  0
 19 29  1  0  0  0  0
 19 30  1  0  0  0  0
 19 31  1  0  0  0  0
M  END
> <PUBCHEM_COMPOUND_CID>
439901

> <PUBCHEM_CONFORMER_RMSD>
0.6

> <PUBCHEM_CONFORMER_DIVERSEORDER>
1
3
2

> <PUBCHEM_MMFF94_PARTIAL_CHARGES>
28
1 -0.16
10 -0.15
11 -0.15
12 -0.15
13 -0.15
14 -0.15
15 -0.15
16 0.08
17 -0.15
18 -0.15
19 0.28
2 -0.57
20 0.15
21 0.15
22 0.15
23 0.15
24 0.15
25 0.15
26 0.15
27 0.15
28 0.15
3 -0.36
4 -0.01
5 0.09
6 0.03
7 0.47
8 0.08
9 -0.07

> <PUBCHEM_EFFECTIVE_ROTOR_COUNT>
2

> <PUBCHEM_PHARMACOPHORE_FEATURES>
6
1 1 acceptor
1 2 acceptor
1 3 acceptor
6 1 4 5 7 8 9 rings
6 5 8 12 13 17 18 rings
6 6 10 11 14 15 16 rings

> <PUBCHEM_HEAVY_ATOM_COUNT>
19

> <PUBCHEM_ATOM_DEF_STEREO_COUNT>
0

> <PUBCHEM_ATOM_UDEF_STEREO_COUNT>
0

> <PUBCHEM_BOND_DEF_STEREO_COUNT>
0

> <PUBCHEM_BOND_UDEF_STEREO_COUNT>
0

> <PUBCHEM_ISOTOPIC_ATOM_COUNT>
0

> <PUBCHEM_COMPONENT_COUNT>
1

> <PUBCHEM_CACTVS_TAUTO_COUNT>
1

> <PUBCHEM_CONFORMER_ID>
0006B65D00000001

> <PUBCHEM_MMFF94_ENERGY>
67.817

> <PUBCHEM_FEATURE_SELFOVERLAP>
30.474

> <PUBCHEM_SHAPE_FINGERPRINT>
10 15 17988650636985871624
10354089 29 18260263040521223752
11471102 20 18411139130413493876
12107183 9 17248347528540394043
12236239 1 17603867793142242053
12403259 415 18131359600158407493
12616971 3 18040158400711049885
13140716 1 18194128409044716424
13533116 47 17822290218922710754
13760787 5 18261118464846874228
13862211 1 18338239366525271682
1420 363 17775281664671312243
14341114 176 18411412912887493113
14386348 63 17918272052077555723
14573314 32 17203614816955251518
15196674 1 18338237175669723692
15788980 27 18272093802847585375
15848702 151 17895470444513167182
1813 80 18189040032081495356
19141452 34 18271803485076927379
19489759 90 16272211907317170711
200 152 18333454252923184289
20279233 1 17847057787557972491
20645477 70 18341333383360363214
21033648 29 18130523971363684053
21267235 1 18337104666314595302
21641784 216 18129645509393095804
2297311 6 16845288363025511253
23175994 123 18202280303695191445
23402539 116 14418139525975269297
23557571 272 17132117982585098045
23559900 14 16343694405244707438
26918003 58 18411134723755904067
33824 294 18342177791105422962
345986 75 17969510484033647362
34797466 226 16343409666319997646
42630746 31 18333729126482563030
4340502 62 17132119031058213202
465052 167 18343016701197255034
474 4 17679037993067061064
5104073 3 18339650060832898664
542803 24 17385723595122084457
7495541 125 17489863808755659685
77492 1 17603587413234615861
9999458 23 17846217718320673684

> <PUBCHEM_SHAPE_MULTIPOLES>
373.4
12.11
1.42
0.99
6.38
0
-0.11
1.7
1.8
-1.72
0
1.21
-0.02
0.26

> <PUBCHEM_SHAPE_SELFOVERLAP>
827.032

> <PUBCHEM_SHAPE_VOLUME>
199.7

> <PUBCHEM_COORDINATE_TYPE>
2
5
10

$$$$

