8581
  -OEChem-06261202562D

 74 82  0     0  0  0  0  0  0999 V2000
   12.0059   -1.1871    0.0000 O   0  0  0  0  0  0  0  0  0  0  0  0
    9.9233   -3.1339    0.0000 O   0  0  0  0  0  0  0  0  0  0  0  0
   12.0059    2.8821    0.0000 O   0  0  0  0  0  0  0  0  0  0  0  0
    5.7998   -2.7362    0.0000 O   0  0  0  0  0  0  0  0  0  0  0  0
    8.5254    2.8475    0.0000 O   0  0  0  0  0  0  0  0  0  0  0  0
    5.3866   -6.3475    0.0000 O   0  0  0  0  0  0  0  0  0  0  0  0
   10.0483   -1.1243    0.0000 N   0  0  0  0  0  0  0  0  0  0  0  0
   10.2575    2.8475    0.0000 N   0  0  0  0  0  0  0  0  0  0  0  0
    5.5728   -4.6255    0.0000 N   0  0  0  0  0  0  0  0  0  0  0  0
   10.2575   -0.1525    0.0000 C   0  0  0  0  0  0  0  0  0  0  0  0
    9.3915    0.3475    0.0000 C   0  0  0  0  0  0  0  0  0  0  0  0
    9.0596   -1.2274    0.0000 C   0  0  0  0  0  0  0  0  0  0  0  0
    8.6544   -0.3196    0.0000 C   0  0  0  0  0  0  0  0  0  0  0  0
   11.1235    0.3475    0.0000 C   0  0  0  0  0  0  0  0  0  0  0  0
    8.4646   -2.0749    0.0000 C   0  0  0  0  0  0  0  0  0  0  0  0
   11.1235    1.3475    0.0000 C   0  0  0  0  0  0  0  0  0  0  0  0
    7.4340   -1.9755    0.0000 C   0  0  0  0  0  0  0  0  0  0  0  0
    9.3915    1.3475    0.0000 C   0  0  0  0  0  0  0  0  0  0  0  0
   10.2575    1.8475    0.0000 C   0  0  0  0  0  0  0  0  0  0  0  0
    7.6263   -0.1964    0.0000 C   0  0  0  0  0  0  0  0  0  0  0  0
   12.0175   -0.1872    0.0000 C   0  0  0  0  0  0  0  0  0  0  0  0
    7.0120   -1.0299    0.0000 C   0  0  0  0  0  0  0  0  0  0  0  0
    8.9268   -3.0494    0.0000 C   0  0  0  0  0  0  0  0  0  0  0  0
   12.0175    1.8822    0.0000 C   0  0  0  0  0  0  0  0  0  0  0  0
    8.3072   -3.9322    0.0000 C   0  0  0  0  0  0  0  0  0  0  0  0
    6.7940   -2.8437    0.0000 C   0  0  0  0  0  0  0  0  0  0  0  0
    7.2336   -3.8286    0.0000 C   0  0  0  0  0  0  0  0  0  0  0  0
   12.9235    0.3267    0.0000 C   0  0  0  0  0  0  0  0  0  0  0  0
   12.9235    1.3683    0.0000 C   0  0  0  0  0  0  0  0  0  0  0  0
    6.5670   -4.7330    0.0000 C   0  0  0  0  0  0  0  0  0  0  0  0
    8.7886   -4.9473    0.0000 C   0  0  0  0  0  0  0  0  0  0  0  0
   13.8547   -0.2302    0.0000 C   0  0  0  0  0  0  0  0  0  0  0  0
   13.8547    1.9252    0.0000 C   0  0  0  0  0  0  0  0  0  0  0  0
    7.0249   -5.7589    0.0000 C   0  0  0  0  0  0  0  0  0  0  0  0
    8.1432   -5.8668    0.0000 C   0  0  0  0  0  0  0  0  0  0  0  0
   14.7985    0.3050    0.0000 C   0  0  0  0  0  0  0  0  0  0  0  0
   14.7985    1.3900    0.0000 C   0  0  0  0  0  0  0  0  0  0  0  0
    9.3915    3.3475    0.0000 C   0  0  0  0  0  0  0  0  0  0  0  0
    9.3915    4.3475    0.0000 C   0  0  0  0  0  0  0  0  0  0  0  0
    4.9826   -5.4328    0.0000 C   0  0  0  0  0  0  0  0  0  0  0  0
   10.2575    4.8475    0.0000 C   0  0  0  0  0  0  0  0  0  0  0  0
    8.5254    4.8475    0.0000 C   0  0  0  0  0  0  0  0  0  0  0  0
    3.9884   -5.3252    0.0000 C   0  0  0  0  0  0  0  0  0  0  0  0
   10.2575    5.8475    0.0000 C   0  0  0  0  0  0  0  0  0  0  0  0
    8.5254    5.8475    0.0000 C   0  0  0  0  0  0  0  0  0  0  0  0
    3.5844   -4.4105    0.0000 C   0  0  0  0  0  0  0  0  0  0  0  0
    3.3982   -6.1325    0.0000 C   0  0  0  0  0  0  0  0  0  0  0  0
    9.3915    6.3475    0.0000 C   0  0  0  0  0  0  0  0  0  0  0  0
    2.5902   -4.3030    0.0000 C   0  0  0  0  0  0  0  0  0  0  0  0
    2.4040   -6.0250    0.0000 C   0  0  0  0  0  0  0  0  0  0  0  0
    2.0000   -5.1102    0.0000 C   0  0  0  0  0  0  0  0  0  0  0  0
   10.4623   -1.5858    0.0000 H   0  0  0  0  0  0  0  0  0  0  0  0
    8.8545    1.6575    0.0000 H   0  0  0  0  0  0  0  0  0  0  0  0
    7.3802    0.3727    0.0000 H   0  0  0  0  0  0  0  0  0  0  0  0
    6.3956   -0.9632    0.0000 H   0  0  0  0  0  0  0  0  0  0  0  0
   10.7944    3.1575    0.0000 H   0  0  0  0  0  0  0  0  0  0  0  0
    9.4064   -4.9996    0.0000 H   0  0  0  0  0  0  0  0  0  0  0  0
   13.8475   -0.8502    0.0000 H   0  0  0  0  0  0  0  0  0  0  0  0
   13.8475    2.5452    0.0000 H   0  0  0  0  0  0  0  0  0  0  0  0
    6.6628   -6.2622    0.0000 H   0  0  0  0  0  0  0  0  0  0  0  0
    8.4024   -6.4300    0.0000 H   0  0  0  0  0  0  0  0  0  0  0  0
   15.3342   -0.0071    0.0000 H   0  0  0  0  0  0  0  0  0  0  0  0
   15.3342    1.7021    0.0000 H   0  0  0  0  0  0  0  0  0  0  0  0
    5.3223   -4.0584    0.0000 H   0  0  0  0  0  0  0  0  0  0  0  0
   10.7944    4.5375    0.0000 H   0  0  0  0  0  0  0  0  0  0  0  0
    7.9885    4.5375    0.0000 H   0  0  0  0  0  0  0  0  0  0  0  0
   10.7944    6.1575    0.0000 H   0  0  0  0  0  0  0  0  0  0  0  0
    7.9885    6.1575    0.0000 H   0  0  0  0  0  0  0  0  0  0  0  0
    3.9503   -3.9100    0.0000 H   0  0  0  0  0  0  0  0  0  0  0  0
    3.6487   -6.6997    0.0000 H   0  0  0  0  0  0  0  0  0  0  0  0
    9.3915    6.9675    0.0000 H   0  0  0  0  0  0  0  0  0  0  0  0
    2.3397   -3.7358    0.0000 H   0  0  0  0  0  0  0  0  0  0  0  0
    2.0381   -6.5255    0.0000 H   0  0  0  0  0  0  0  0  0  0  0  0
    1.3836   -5.0436    0.0000 H   0  0  0  0  0  0  0  0  0  0  0  0
  1 21  2  0  0  0  0
  2 23  2  0  0  0  0
  3 24  2  0  0  0  0
  4 26  2  0  0  0  0
  5 38  2  0  0  0  0
  6 40  2  0  0  0  0
  7 10  1  0  0  0  0
  7 12  1  0  0  0  0
  7 52  1  0  0  0  0
  8 19  1  0  0  0  0
  8 38  1  0  0  0  0
  8 56  1  0  0  0  0
  9 30  1  0  0  0  0
  9 40  1  0  0  0  0
  9 64  1  0  0  0  0
 10 11  1  0  0  0  0
 10 14  2  0  0  0  0
 11 13  1  0  0  0  0
 11 18  2  0  0  0  0
 12 13  2  0  0  0  0
 12 15  1  0  0  0  0
 13 20  1  0  0  0  0
 14 16  1  0  0  0  0
 14 21  1  0  0  0  0
 15 17  2  0  0  0  0
 15 23  1  0  0  0  0
 16 19  2  0  0  0  0
 16 24  1  0  0  0  0
 17 22  1  0  0  0  0
 17 26  1  0  0  0  0
 18 19  1  0  0  0  0
 18 53  1  0  0  0  0
 20 22  2  0  0  0  0
 20 54  1  0  0  0  0
 21 28  1  0  0  0  0
 22 55  1  0  0  0  0
 23 25  1  0  0  0  0
 24 29  1  0  0  0  0
 25 27  2  0  0  0  0
 25 31  1  0  0  0  0
 26 27  1  0  0  0  0
 27 30  1  0  0  0  0
 28 29  1  0  0  0  0
 28 32  2  0  0  0  0
 29 33  2  0  0  0  0
 30 34  2  0  0  0  0
 31 35  2  0  0  0  0
 31 57  1  0  0  0  0
 32 36  1  0  0  0  0
 32 58  1  0  0  0  0
 33 37  1  0  0  0  0
 33 59  1  0  0  0  0
 34 35  1  0  0  0  0
 34 60  1  0  0  0  0
 35 61  1  0  0  0  0
 36 37  2  0  0  0  0
 36 62  1  0  0  0  0
 37 63  1  0  0  0  0
 38 39  1  0  0  0  0
 39 41  2  0  0  0  0
 39 42  1  0  0  0  0
 40 43  1  0  0  0  0
 41 44  1  0  0  0  0
 41 65  1  0  0  0  0
 42 45  2  0  0  0  0
 42 66  1  0  0  0  0
 43 46  2  0  0  0  0
 43 47  1  0  0  0  0
 44 48  2  0  0  0  0
 44 67  1  0  0  0  0
 45 48  1  0  0  0  0
 45 68  1  0  0  0  0
 46 49  1  0  0  0  0
 46 69  1  0  0  0  0
 47 50  2  0  0  0  0
 47 70  1  0  0  0  0
 48 71  1  0  0  0  0
 49 51  2  0  0  0  0
 49 72  1  0  0  0  0
 50 51  1  0  0  0  0
 50 73  1  0  0  0  0
 51 74  1  0  0  0  0
M  END
> <PUBCHEM_COMPOUND_CID>
8581

> <PUBCHEM_COMPOUND_CANONICALIZED>
1

> <PUBCHEM_CACTVS_COMPLEXITY>
1450

> <PUBCHEM_CACTVS_HBOND_ACCEPTOR>
6

> <PUBCHEM_CACTVS_HBOND_DONOR>
3

> <PUBCHEM_CACTVS_ROTATABLE_BOND>
4

> <PUBCHEM_CACTVS_SUBSKEYS>
AAADceB/OAAAAAAAAAAAAAAAAAAAAWAAAAAwYMGDAAAAAFjB/AAAHgAQAAAADAyBngAwwPLJkACoA6VyVACCgCAlAiAImSEgZNgIIPrAlZGEIYhglADIyccdiMCOwACCQAASAACAAQSAACQAAAAAAAAAAA==

> <PUBCHEM_IUPAC_INCHI>
InChI=1S/C42H23N3O6/c46-37-24-14-7-8-15-25(24)38(47)34-33(37)30(44-42(51)22-12-5-2-6-13-22)20-28-23-18-19-27-32(35(23)45-36(28)34)40(49)26-16-9-17-29(31(26)39(27)48)43-41(50)21-10-3-1-4-11-21/h1-20,45H,(H,43,50)(H,44,51)

> <PUBCHEM_IUPAC_INCHIKEY>
AAKMSGQPNUGLAZ-UHFFFAOYSA-N

> <PUBCHEM_XLOGP3_AA>
8.1

> <PUBCHEM_EXACT_MASS>
665.158685

> <PUBCHEM_MOLECULAR_FORMULA>
C42H23N3O6

> <PUBCHEM_MOLECULAR_WEIGHT>
665.64852

> <PUBCHEM_OPENEYE_CAN_SMILES>
C1=CC=C(C=C1)C(=O)NC2=CC=CC3=C2C(=O)C4=C(C3=O)C5=C(C=C4)C6=CC(=C7C(=C6N5)C(=O)C8=CC=CC=C8C7=O)NC(=O)C9=CC=CC=C9

> <PUBCHEM_OPENEYE_ISO_SMILES>
C1=CC=C(C=C1)C(=O)NC2=CC=CC3=C2C(=O)C4=C(C3=O)C5=C(C=C4)C6=CC(=C7C(=C6N5)C(=O)C8=CC=CC=C8C7=O)NC(=O)C9=CC=CC=C9

> <PUBCHEM_CACTVS_TPSA>
142

> <PUBCHEM_MONOISOTOPIC_WEIGHT>
665.158685

> <PUBCHEM_TOTAL_CHARGE>
0

> <PUBCHEM_HEAVY_ATOM_COUNT>
51

> <PUBCHEM_ATOM_DEF_STEREO_COUNT>
0

> <PUBCHEM_ATOM_UDEF_STEREO_COUNT>
0

> <PUBCHEM_BOND_DEF_STEREO_COUNT>
0

> <PUBCHEM_BOND_UDEF_STEREO_COUNT>
0

> <PUBCHEM_ISOTOPIC_ATOM_COUNT>
0

> <PUBCHEM_COMPONENT_COUNT>
1

> <PUBCHEM_CACTVS_TAUTO_COUNT>
414

> <PUBCHEM_COORDINATE_TYPE>
1
5
255

> <PUBCHEM_BONDANNOTATIONS>
10  11  8
10  14  8
11  13  8
11  18  8
12  13  8
12  15  8
13  20  8
14  16  8
14  21  8
15  17  8
15  23  8
16  19  8
16  24  8
17  22  8
17  26  8
18  19  8
20  22  8
21  28  8
23  25  8
24  29  8
25  27  8
25  31  8
26  27  8
27  30  8
28  29  8
28  32  8
29  33  8
30  34  8
31  35  8
32  36  8
33  37  8
34  35  8
36  37  8
39  41  8
39  42  8
41  44  8
42  45  8
43  46  8
43  47  8
44  48  8
45  48  8
46  49  8
47  50  8
49  51  8
50  51  8
7  10  8
7  12  8

$$$$

