17395328
  -OEChem-06241222493D

 39 40  0     1  0  0  0  0  0999 V2000
    5.7991   -0.4512    0.3461 O   0  0  0  0  0  0  0  0  0  0  0  0
   -5.4680   -2.0641    1.1108 O   0  5  0  0  0  0  0  0  0  0  0  0
   -5.1416   -2.3602   -1.0397 O   0  0  0  0  0  0  0  0  0  0  0  0
   -0.9382    2.2185    0.0884 N   0  0  3  0  0  0  0  0  0  0  0  0
   -4.8775   -1.7794    0.0408 N   0  3  0  0  0  0  0  0  0  0  0  0
    4.4456   -2.3062    0.2863 N   0  0  0  0  0  0  0  0  0  0  0  0
    0.0627    2.3024   -0.9449 C   0  0  0  0  0  0  0  0  0  0  0  0
    1.2587    1.4635   -0.6455 C   0  0  0  0  0  0  0  0  0  0  0  0
   -1.9229    1.2187    0.0766 C   0  0  0  0  0  0  0  0  0  0  0  0
   -0.9072    3.1975    1.1780 C   0  0  0  0  0  0  0  0  0  0  0  0
    2.3301    2.0036    0.0657 C   0  0  0  0  0  0  0  0  0  0  0  0
    1.3055    0.1380   -1.0775 C   0  0  0  0  0  0  0  0  0  0  0  0
   -2.5915    0.8843    1.2543 C   0  0  0  0  0  0  0  0  0  0  0  0
   -2.2330    0.5594   -1.1129 C   0  0  0  0  0  0  0  0  0  0  0  0
    3.4952   -0.1073   -0.0865 C   0  0  0  0  0  0  0  0  0  0  0  0
    3.4483    1.2183    0.3453 C   0  0  0  0  0  0  0  0  0  0  0  0
    2.4238   -0.6475   -0.7979 C   0  0  0  0  0  0  0  0  0  0  0  0
   -3.5702   -0.1094    1.2425 C   0  0  0  0  0  0  0  0  0  0  0  0
   -3.2118   -0.4344   -1.1246 C   0  0  0  0  0  0  0  0  0  0  0  0
   -3.8802   -0.7689    0.0531 C   0  0  0  0  0  0  0  0  0  0  0  0
    4.6617   -0.9259    0.2036 C   0  0  0  0  0  0  0  0  0  0  0  0
    5.5113   -3.2497    0.5378 C   0  0  0  0  0  0  0  0  0  0  0  0
    0.3962    3.3461   -1.0409 H   0  0  0  0  0  0  0  0  0  0  0  0
   -0.3073    2.0996   -1.9549 H   0  0  0  0  0  0  0  0  0  0  0  0
   -1.9010    3.6227    1.3569 H   0  0  0  0  0  0  0  0  0  0  0  0
   -0.5320    2.7395    2.0995 H   0  0  0  0  0  0  0  0  0  0  0  0
   -0.2438    4.0372    0.9430 H   0  0  0  0  0  0  0  0  0  0  0  0
    2.3065    3.0342    0.4100 H   0  0  0  0  0  0  0  0  0  0  0  0
    0.4898   -0.2955   -1.6480 H   0  0  0  0  0  0  0  0  0  0  0  0
   -2.3730    1.3635    2.2039 H   0  0  0  0  0  0  0  0  0  0  0  0
   -1.7697    0.7873   -2.0652 H   0  0  0  0  0  0  0  0  0  0  0  0
    4.2723    1.6548    0.9038 H   0  0  0  0  0  0  0  0  0  0  0  0
    2.4328   -1.6632   -1.1824 H   0  0  0  0  0  0  0  0  0  0  0  0
   -4.0690   -0.3457    2.1790 H   0  0  0  0  0  0  0  0  0  0  0  0
   -3.4316   -0.9237   -2.0702 H   0  0  0  0  0  0  0  0  0  0  0  0
    3.5044   -2.6827    0.2479 H   0  0  0  0  0  0  0  0  0  0  0  0
    5.7604   -3.2175    1.6015 H   0  0  0  0  0  0  0  0  0  0  0  0
    5.1649   -4.2493    0.2658 H   0  0  0  0  0  0  0  0  0  0  0  0
    6.3923   -2.9838   -0.0521 H   0  0  0  0  0  0  0  0  0  0  0  0
  1 21  2  0  0  0  0
  2  5  1  0  0  0  0
  3  5  2  0  0  0  0
  4  7  1  0  0  0  0
  4  9  1  0  0  0  0
  4 10  1  0  0  0  0
  5 20  1  0  0  0  0
  6 21  1  0  0  0  0
  6 22  1  0  0  0  0
  6 36  1  0  0  0  0
  7  8  1  0  0  0  0
  7 23  1  0  0  0  0
  7 24  1  0  0  0  0
  8 11  2  0  0  0  0
  8 12  1  0  0  0  0
  9 13  2  0  0  0  0
  9 14  1  0  0  0  0
 10 25  1  0  0  0  0
 10 26  1  0  0  0  0
 10 27  1  0  0  0  0
 11 16  1  0  0  0  0
 11 28  1  0  0  0  0
 12 17  2  0  0  0  0
 12 29  1  0  0  0  0
 13 18  1  0  0  0  0
 13 30  1  0  0  0  0
 14 19  2  0  0  0  0
 14 31  1  0  0  0  0
 15 16  2  0  0  0  0
 15 17  1  0  0  0  0
 15 21  1  0  0  0  0
 16 32  1  0  0  0  0
 17 33  1  0  0  0  0
 18 20  2  0  0  0  0
 18 34  1  0  0  0  0
 19 20  1  0  0  0  0
 19 35  1  0  0  0  0
 22 37  1  0  0  0  0
 22 38  1  0  0  0  0
 22 39  1  0  0  0  0
M  CHG  2   2  -1   5   1
M  END
> <PUBCHEM_COMPOUND_CID>
17395328

> <PUBCHEM_CONFORMER_RMSD>
0.8

> <PUBCHEM_CONFORMER_DIVERSEORDER>
6
15
17
13
18
8
12
3
16
2
10
5
14
4
9
1
11
7

> <PUBCHEM_MMFF94_PARTIAL_CHARGES>
31
1 -0.57
10 0.37
11 -0.15
12 -0.15
13 -0.15
14 -0.15
15 0.09
16 -0.15
17 -0.15
18 -0.15
19 -0.15
2 -0.52
20 0.13
21 0.54
22 0.3
28 0.15
29 0.15
3 -0.52
30 0.15
31 0.15
32 0.15
33 0.15
34 0.15
35 0.15
36 0.37
4 -0.84
5 0.91
6 -0.73
7 0.51
8 -0.14
9 0.1

> <PUBCHEM_EFFECTIVE_ROTOR_COUNT>
6

> <PUBCHEM_PHARMACOPHORE_FEATURES>
8
1 1 acceptor
1 2 acceptor
1 2 anion
1 3 acceptor
1 4 cation
1 6 donor
6 8 11 12 15 16 17 rings
6 9 13 14 18 19 20 rings

> <PUBCHEM_HEAVY_ATOM_COUNT>
22

> <PUBCHEM_ATOM_DEF_STEREO_COUNT>
0

> <PUBCHEM_ATOM_UDEF_STEREO_COUNT>
0

> <PUBCHEM_BOND_DEF_STEREO_COUNT>
0

> <PUBCHEM_BOND_UDEF_STEREO_COUNT>
0

> <PUBCHEM_ISOTOPIC_ATOM_COUNT>
0

> <PUBCHEM_COMPONENT_COUNT>
1

> <PUBCHEM_CACTVS_TAUTO_COUNT>
2

> <PUBCHEM_CONFORMER_ID>
01096E8000000006

> <PUBCHEM_MMFF94_ENERGY>
78.3815

> <PUBCHEM_FEATURE_SELFOVERLAP>
40.676

> <PUBCHEM_SHAPE_FINGERPRINT>
10447042 23 18335708178540063653
11552529 35 18119533382371435000
11796584 16 17845949505612213656
12107183 9 18335688482474529377
12363563 72 18202275896800087893
12596602 18 17749107794867629914
12633257 1 16226052149982844243
12892183 10 16153972634616596893
13103583 49 18187635959584408016
13533116 47 18337952277498440379
13544653 18 18413106138987583661
13885169 86 8358248276471333659
13944108 23 9869824950942012743
13955234 65 18121496843339675649
14178342 30 18043517520171082884
1420 369 18411697690541145046
14341114 328 15936688155804905017
14848178 5 18343869917677359578
14950920 106 17458350744847196618
15163728 17 11240004498577388273
15342168 16 8935010256674625785
15352361 1 18413388730660747538
15375462 189 17969499308297069093
15475509 35 17831853561235496011
17492 89 18411139151687779378
17780758 139 18115875285647599832
17959699 21 9294993683866082318
193927 3 18342168955871956541
20028762 73 18260551095657825702
20681677 274 18334580174315958872
22620623 9 17059791016909989469
23402655 69 11167949047511979796
23503958 8 18264772232634097704
23559900 14 18340499944629910108
270888 7 8358259232837687339
2838139 119 9005900182761038434
314194 84 18265893549710387435
3472631 163 9943813283134003011
44062 13 18130794520175358141
463206 1 18269835328913938699
484985 159 18126009509763528279
5104073 3 18186804716294237568
5924683 9 18335985388382257401
6431902 208 18342176700141694170
76465 3 18412826910600047824
7808743 9 8646475311195829374
7970288 3 18412825767807191419

> <PUBCHEM_SHAPE_MULTIPOLES>
420.2
12.5
3.31
1.2
3.8
0.39
-0.01
13.8
-2.35
0.52
-0.64
-0.98
-0.12
-0.87

> <PUBCHEM_SHAPE_SELFOVERLAP>
892.926

> <PUBCHEM_SHAPE_VOLUME>
236

> <PUBCHEM_COORDINATE_TYPE>
2
5
10

$$$$

