5717
  -OEChem-07051212532D

 74 78  0     0  0  0  0  0  0999 V2000
   15.2389    2.0646    0.0000 S   0  0  0  0  0  0  0  0  0  0  0  0
    4.4487   -0.6723    0.0000 O   0  0  0  0  0  0  0  0  0  0  0  0
    5.3147   -2.1723    0.0000 O   0  0  0  0  0  0  0  0  0  0  0  0
   10.6570    1.9840    0.0000 O   0  0  0  0  0  0  0  0  0  0  0  0
   14.6176    0.1635    0.0000 O   0  0  0  0  0  0  0  0  0  0  0  0
   15.0327    3.0431    0.0000 O   0  0  0  0  0  0  0  0  0  0  0  0
   15.4451    1.0861    0.0000 O   0  0  0  0  0  0  0  0  0  0  0  0
    9.7250   -2.4770    0.0000 N   0  0  0  0  0  0  0  0  0  0  0  0
    6.1808   -0.6723    0.0000 N   0  0  0  0  0  0  0  0  0  0  0  0
   14.2604    1.8584    0.0000 N   0  0  0  0  0  0  0  0  0  0  0  0
    3.5827   -1.1723    0.0000 C   0  0  0  0  0  0  0  0  0  0  0  0
    2.6691   -0.7655    0.0000 C   0  0  0  0  0  0  0  0  0  0  0  0
    3.4782   -2.1668    0.0000 C   0  0  0  0  0  0  0  0  0  0  0  0
    2.0000   -1.5087    0.0000 C   0  0  0  0  0  0  0  0  0  0  0  0
    2.5000   -2.3747    0.0000 C   0  0  0  0  0  0  0  0  0  0  0  0
    5.3147   -1.1723    0.0000 C   0  0  0  0  0  0  0  0  0  0  0  0
    8.7788   -1.1723    0.0000 C   0  0  0  0  0  0  0  0  0  0  0  0
    9.7250   -0.8676    0.0000 C   0  0  0  0  0  0  0  0  0  0  0  0
    8.7788   -2.1723    0.0000 C   0  0  0  0  0  0  0  0  0  0  0  0
    7.0468   -1.1723    0.0000 C   0  0  0  0  0  0  0  0  0  0  0  0
   10.0357    0.0830    0.0000 C   0  0  0  0  0  0  0  0  0  0  0  0
    7.9128   -0.6723    0.0000 C   0  0  0  0  0  0  0  0  0  0  0  0
   10.3087   -1.6723    0.0000 C   0  0  0  0  0  0  0  0  0  0  0  0
    7.9128   -2.6723    0.0000 C   0  0  0  0  0  0  0  0  0  0  0  0
    7.0468   -2.1723    0.0000 C   0  0  0  0  0  0  0  0  0  0  0  0
   11.0142    0.2892    0.0000 C   0  0  0  0  0  0  0  0  0  0  0  0
   10.0357   -3.4275    0.0000 C   0  0  0  0  0  0  0  0  0  0  0  0
   11.3249    1.2397    0.0000 C   0  0  0  0  0  0  0  0  0  0  0  0
   11.6821   -0.4551    0.0000 C   0  0  0  0  0  0  0  0  0  0  0  0
   12.3034    1.4459    0.0000 C   0  0  0  0  0  0  0  0  0  0  0  0
   12.9712    0.7016    0.0000 C   0  0  0  0  0  0  0  0  0  0  0  0
   12.6606   -0.2489    0.0000 C   0  0  0  0  0  0  0  0  0  0  0  0
   13.9497    0.9078    0.0000 C   0  0  0  0  0  0  0  0  0  0  0  0
   16.2174    2.2708    0.0000 C   0  0  0  0  0  0  0  0  0  0  0  0
   16.8853    1.5265    0.0000 C   0  0  0  0  0  0  0  0  0  0  0  0
   10.9677    2.9345    0.0000 C   0  0  0  0  0  0  0  0  0  0  0  0
   16.5281    3.2213    0.0000 C   0  0  0  0  0  0  0  0  0  0  0  0
   17.8638    1.7327    0.0000 C   0  0  0  0  0  0  0  0  0  0  0  0
   16.5746    0.5760    0.0000 C   0  0  0  0  0  0  0  0  0  0  0  0
   17.5066    3.4275    0.0000 C   0  0  0  0  0  0  0  0  0  0  0  0
   18.1744    2.6832    0.0000 C   0  0  0  0  0  0  0  0  0  0  0  0
    4.1026   -1.5100    0.0000 H   0  0  0  0  0  0  0  0  0  0  0  0
    3.5430   -2.7834    0.0000 H   0  0  0  0  0  0  0  0  0  0  0  0
    4.0982   -2.1668    0.0000 H   0  0  0  0  0  0  0  0  0  0  0  0
    2.9791   -0.2286    0.0000 H   0  0  0  0  0  0  0  0  0  0  0  0
    2.1675   -0.4011    0.0000 H   0  0  0  0  0  0  0  0  0  0  0  0
    1.9336   -2.6269    0.0000 H   0  0  0  0  0  0  0  0  0  0  0  0
    2.6916   -2.9644    0.0000 H   0  0  0  0  0  0  0  0  0  0  0  0
    1.5851   -1.0479    0.0000 H   0  0  0  0  0  0  0  0  0  0  0  0
    1.4984   -1.8731    0.0000 H   0  0  0  0  0  0  0  0  0  0  0  0
   10.0151    0.7026    0.0000 H   0  0  0  0  0  0  0  0  0  0  0  0
    9.4219    0.1703    0.0000 H   0  0  0  0  0  0  0  0  0  0  0  0
    6.1808   -0.0523    0.0000 H   0  0  0  0  0  0  0  0  0  0  0  0
    7.9128   -0.0523    0.0000 H   0  0  0  0  0  0  0  0  0  0  0  0
   10.9287   -1.6723    0.0000 H   0  0  0  0  0  0  0  0  0  0  0  0
    7.9128   -3.2923    0.0000 H   0  0  0  0  0  0  0  0  0  0  0  0
    6.5098   -2.4823    0.0000 H   0  0  0  0  0  0  0  0  0  0  0  0
    9.4464   -3.6202    0.0000 H   0  0  0  0  0  0  0  0  0  0  0  0
   10.2283   -4.0169    0.0000 H   0  0  0  0  0  0  0  0  0  0  0  0
   10.6250   -3.2349    0.0000 H   0  0  0  0  0  0  0  0  0  0  0  0
   11.4894   -1.0444    0.0000 H   0  0  0  0  0  0  0  0  0  0  0  0
   12.4960    2.0352    0.0000 H   0  0  0  0  0  0  0  0  0  0  0  0
   13.0746   -0.7104    0.0000 H   0  0  0  0  0  0  0  0  0  0  0  0
   13.8463    2.3198    0.0000 H   0  0  0  0  0  0  0  0  0  0  0  0
   11.5570    2.7419    0.0000 H   0  0  0  0  0  0  0  0  0  0  0  0
   11.1603    3.5238    0.0000 H   0  0  0  0  0  0  0  0  0  0  0  0
   10.3784    3.1271    0.0000 H   0  0  0  0  0  0  0  0  0  0  0  0
   16.1140    3.6828    0.0000 H   0  0  0  0  0  0  0  0  0  0  0  0
   18.2778    1.2712    0.0000 H   0  0  0  0  0  0  0  0  0  0  0  0
   15.9853    0.7686    0.0000 H   0  0  0  0  0  0  0  0  0  0  0  0
   16.3820   -0.0133    0.0000 H   0  0  0  0  0  0  0  0  0  0  0  0
   17.1639    0.3834    0.0000 H   0  0  0  0  0  0  0  0  0  0  0  0
   17.6992    4.0169    0.0000 H   0  0  0  0  0  0  0  0  0  0  0  0
   18.7811    2.8111    0.0000 H   0  0  0  0  0  0  0  0  0  0  0  0
  1  6  2  0  0  0  0
  1  7  2  0  0  0  0
  1 10  1  0  0  0  0
  1 34  1  0  0  0  0
  2 11  1  0  0  0  0
  2 16  1  0  0  0  0
  3 16  2  0  0  0  0
  4 28  1  0  0  0  0
  4 36  1  0  0  0  0
  5 33  2  0  0  0  0
  8 19  1  0  0  0  0
  8 23  1  0  0  0  0
  8 27  1  0  0  0  0
  9 16  1  0  0  0  0
  9 20  1  0  0  0  0
  9 53  1  0  0  0  0
 10 33  1  0  0  0  0
 10 64  1  0  0  0  0
 11 12  1  0  0  0  0
 11 13  1  0  0  0  0
 11 42  1  0  0  0  0
 12 14  1  0  0  0  0
 12 45  1  0  0  0  0
 12 46  1  0  0  0  0
 13 15  1  0  0  0  0
 13 43  1  0  0  0  0
 13 44  1  0  0  0  0
 14 15  1  0  0  0  0
 14 49  1  0  0  0  0
 14 50  1  0  0  0  0
 15 47  1  0  0  0  0
 15 48  1  0  0  0  0
 17 18  1  0  0  0  0
 17 19  2  0  0  0  0
 17 22  1  0  0  0  0
 18 21  1  0  0  0  0
 18 23  2  0  0  0  0
 19 24  1  0  0  0  0
 20 22  2  0  0  0  0
 20 25  1  0  0  0  0
 21 26  1  0  0  0  0
 21 51  1  0  0  0  0
 21 52  1  0  0  0  0
 22 54  1  0  0  0  0
 23 55  1  0  0  0  0
 24 25  2  0  0  0  0
 24 56  1  0  0  0  0
 25 57  1  0  0  0  0
 26 28  2  0  0  0  0
 26 29  1  0  0  0  0
 27 58  1  0  0  0  0
 27 59  1  0  0  0  0
 27 60  1  0  0  0  0
 28 30  1  0  0  0  0
 29 32  2  0  0  0  0
 29 61  1  0  0  0  0
 30 31  2  0  0  0  0
 30 62  1  0  0  0  0
 31 32  1  0  0  0  0
 31 33  1  0  0  0  0
 32 63  1  0  0  0  0
 34 35  1  0  0  0  0
 34 37  2  0  0  0  0
 35 38  2  0  0  0  0
 35 39  1  0  0  0  0
 36 65  1  0  0  0  0
 36 66  1  0  0  0  0
 36 67  1  0  0  0  0
 37 40  1  0  0  0  0
 37 68  1  0  0  0  0
 38 41  1  0  0  0  0
 38 69  1  0  0  0  0
 39 70  1  0  0  0  0
 39 71  1  0  0  0  0
 39 72  1  0  0  0  0
 40 41  2  0  0  0  0
 40 73  1  0  0  0  0
 41 74  1  0  0  0  0
M  END
> <PUBCHEM_COMPOUND_CID>
5717

> <PUBCHEM_COMPOUND_CANONICALIZED>
1

> <PUBCHEM_CACTVS_COMPLEXITY>
1010

> <PUBCHEM_CACTVS_HBOND_ACCEPTOR>
6

> <PUBCHEM_CACTVS_HBOND_DONOR>
2

> <PUBCHEM_CACTVS_ROTATABLE_BOND>
9

> <PUBCHEM_CACTVS_SUBSKEYS>
AAADcfB7OABAAAAAAAAAAAAAAAAAAeIAAAAwYMAAAAAAAFgB9AAAHgQQQAAADBzh3gY+z/PMFAKoAzV3XHDCiDA1IiAI2Dk+bNkMJvLEtZuMMShk1BHI6Ye62PKOwACBQAAOAACAAQKAABwAAAAAAAAAAA==

> <PUBCHEM_IUPAC_OPENEYE_NAME>
cyclopentyl N-[3-[[2-methoxy-4-(o-tolylsulfonylcarbamoyl)phenyl]methyl]-1-methyl-indol-5-yl]carbamate

> <PUBCHEM_IUPAC_CAS_NAME>
N-[3-[[2-methoxy-4-[[(2-methylphenyl)sulfonylamino]-oxomethyl]phenyl]methyl]-1-methyl-5-indolyl]carbamic acid cyclopentyl ester

> <PUBCHEM_IUPAC_NAME>
cyclopentyl N-[3-[[2-methoxy-4-[(2-methylphenyl)sulfonylcarbamoyl]phenyl]methyl]-1-methylindol-5-yl]carbamate

> <PUBCHEM_IUPAC_SYSTEMATIC_NAME>
cyclopentyl N-[3-[[2-methoxy-4-[(2-methylphenyl)sulfonylcarbamoyl]phenyl]methyl]-1-methyl-indol-5-yl]carbamate

> <PUBCHEM_IUPAC_TRADITIONAL_NAME>
N-[3-[2-methoxy-4-(o-tolylsulfonylcarbamoyl)benzyl]-1-methyl-indol-5-yl]carbamic acid cyclopentyl ester

> <PUBCHEM_IUPAC_INCHI>
InChI=1S/C31H33N3O6S/c1-20-8-4-7-11-29(20)41(37,38)33-30(35)22-13-12-21(28(17-22)39-3)16-23-19-34(2)27-15-14-24(18-26(23)27)32-31(36)40-25-9-5-6-10-25/h4,7-8,11-15,17-19,25H,5-6,9-10,16H2,1-3H3,(H,32,36)(H,33,35)

> <PUBCHEM_IUPAC_INCHIKEY>
YEEZWCHGZNKEEK-UHFFFAOYSA-N

> <PUBCHEM_XLOGP3_AA>
5.5

> <PUBCHEM_EXACT_MASS>
575.209007

> <PUBCHEM_MOLECULAR_FORMULA>
C31H33N3O6S

> <PUBCHEM_MOLECULAR_WEIGHT>
575.67522

> <PUBCHEM_OPENEYE_CAN_SMILES>
CC1=CC=CC=C1S(=O)(=O)NC(=O)C2=CC(=C(C=C2)CC3=CN(C4=C3C=C(C=C4)NC(=O)OC5CCCC5)C)OC

> <PUBCHEM_OPENEYE_ISO_SMILES>
CC1=CC=CC=C1S(=O)(=O)NC(=O)C2=CC(=C(C=C2)CC3=CN(C4=C3C=C(C=C4)NC(=O)OC5CCCC5)C)OC

> <PUBCHEM_CACTVS_TPSA>
124

> <PUBCHEM_MONOISOTOPIC_WEIGHT>
575.209007

> <PUBCHEM_TOTAL_CHARGE>
0

> <PUBCHEM_HEAVY_ATOM_COUNT>
41

> <PUBCHEM_ATOM_DEF_STEREO_COUNT>
0

> <PUBCHEM_ATOM_UDEF_STEREO_COUNT>
0

> <PUBCHEM_BOND_DEF_STEREO_COUNT>
0

> <PUBCHEM_BOND_UDEF_STEREO_COUNT>
0

> <PUBCHEM_ISOTOPIC_ATOM_COUNT>
0

> <PUBCHEM_COMPONENT_COUNT>
1

> <PUBCHEM_CACTVS_TAUTO_COUNT>
10

> <PUBCHEM_COORDINATE_TYPE>
1
5
255

> <PUBCHEM_BONDANNOTATIONS>
17  18  8
17  19  8
17  22  8
18  23  8
19  24  8
20  22  8
20  25  8
24  25  8
26  28  8
26  29  8
28  30  8
29  32  8
30  31  8
31  32  8
34  35  8
34  37  8
35  38  8
37  40  8
38  41  8
40  41  8
8  19  8
8  23  8

$$$$

