60947
  -OEChem-07051212543D

 66 67  0     1  0  0  0  0  0999 V2000
   -2.9905    1.3491    0.3466 S   0  0  0  0  0  0  0  0  0  0  0  0
    1.4596   -2.9102   -0.6425 O   0  0  0  0  0  0  0  0  0  0  0  0
   -2.4937    0.9958   -0.9688 O   0  0  0  0  0  0  0  0  0  0  0  0
   -2.0938    1.8601    1.3657 O   0  0  0  0  0  0  0  0  0  0  0  0
   -6.8229   -1.4850   -0.4289 O   0  0  0  0  0  0  0  0  0  0  0  0
   -6.5291   -0.0760    1.3242 O   0  0  0  0  0  0  0  0  0  0  0  0
    8.6545    2.4745    0.2640 N   0  0  0  0  0  0  0  0  0  0  0  0
   -3.8626    0.0448    1.0090 N   0  0  0  0  0  0  0  0  0  0  0  0
    6.8068    0.1954    0.1518 C   0  0  0  0  0  0  0  0  0  0  0  0
    6.3174    1.6480    0.2144 C   0  0  0  0  0  0  0  0  0  0  0  0
    8.2142    0.1433   -0.4560 C   0  0  0  0  0  0  0  0  0  0  0  0
    5.8354   -0.6771   -0.6381 C   0  0  0  0  0  0  0  0  0  0  0  0
    7.3411    2.5466    0.9080 C   0  0  0  0  0  0  0  0  0  0  0  0
    9.1627    1.1010    0.2647 C   0  0  0  0  0  0  0  0  0  0  0  0
    4.5874   -0.9979    0.1801 C   0  0  0  0  0  0  0  0  0  0  0  0
    3.6034   -1.8438   -0.6252 C   0  0  0  0  0  0  0  0  0  0  0  0
    2.3355   -2.1356    0.1647 C   0  0  0  0  0  0  0  0  0  0  0  0
   -4.5835   -0.8738    0.0959 C   0  0  1  0  0  0  0  0  0  0  0  0
   -4.0796   -2.3113    0.3057 C   0  0  0  0  0  0  0  0  0  0  0  0
   -4.2918    2.5428    0.1376 C   0  0  0  0  0  0  0  0  0  0  0  0
    0.1160   -2.7654   -0.4124 C   0  0  0  0  0  0  0  0  0  0  0  0
   -3.7641    3.8394   -0.4567 C   0  0  0  0  0  0  0  0  0  0  0  0
   -2.6183   -2.4697    0.0551 C   0  0  0  0  0  0  0  0  0  0  0  0
   -4.8796    4.8705   -0.6169 C   0  0  0  0  0  0  0  0  0  0  0  0
   -0.7928   -2.9399   -1.4561 C   0  0  0  0  0  0  0  0  0  0  0  0
   -0.3423   -2.4429    0.8650 C   0  0  0  0  0  0  0  0  0  0  0  0
   -2.1599   -2.7920   -1.2223 C   0  0  0  0  0  0  0  0  0  0  0  0
   -1.7093   -2.2951    1.0987 C   0  0  0  0  0  0  0  0  0  0  0  0
   -6.0555   -0.7505    0.4193 C   0  0  0  0  0  0  0  0  0  0  0  0
   -4.3648    6.1550   -1.2465 C   0  0  0  0  0  0  0  0  0  0  0  0
    6.8795   -0.1903    1.1783 H   0  0  0  0  0  0  0  0  0  0  0  0
    6.1325    2.0269   -0.7994 H   0  0  0  0  0  0  0  0  0  0  0  0
    5.3692    1.7165    0.7580 H   0  0  0  0  0  0  0  0  0  0  0  0
    8.6128   -0.8764   -0.3950 H   0  0  0  0  0  0  0  0  0  0  0  0
    8.1709    0.4060   -1.5212 H   0  0  0  0  0  0  0  0  0  0  0  0
    5.5597   -0.1895   -1.5813 H   0  0  0  0  0  0  0  0  0  0  0  0
    6.3242   -1.6230   -0.9047 H   0  0  0  0  0  0  0  0  0  0  0  0
    6.9888    3.5833    0.8718 H   0  0  0  0  0  0  0  0  0  0  0  0
    7.4265    2.2754    1.9676 H   0  0  0  0  0  0  0  0  0  0  0  0
    9.3316    0.7630    1.2946 H   0  0  0  0  0  0  0  0  0  0  0  0
   10.1355    1.0860   -0.2389 H   0  0  0  0  0  0  0  0  0  0  0  0
    4.0861   -0.0746    0.4896 H   0  0  0  0  0  0  0  0  0  0  0  0
    4.8693   -1.5347    1.0941 H   0  0  0  0  0  0  0  0  0  0  0  0
    9.3082    3.0752    0.7655 H   0  0  0  0  0  0  0  0  0  0  0  0
    3.3372   -1.3311   -1.5583 H   0  0  0  0  0  0  0  0  0  0  0  0
    4.0715   -2.7895   -0.9256 H   0  0  0  0  0  0  0  0  0  0  0  0
    2.5797   -2.6989    1.0728 H   0  0  0  0  0  0  0  0  0  0  0  0
    1.8847   -1.1739    0.4427 H   0  0  0  0  0  0  0  0  0  0  0  0
   -4.4468   -0.5673   -0.9467 H   0  0  0  0  0  0  0  0  0  0  0  0
   -4.3120   -2.6424    1.3278 H   0  0  0  0  0  0  0  0  0  0  0  0
   -4.6377   -3.0003   -0.3425 H   0  0  0  0  0  0  0  0  0  0  0  0
   -5.0436    2.0994   -0.5229 H   0  0  0  0  0  0  0  0  0  0  0  0
   -4.7355    2.7194    1.1226 H   0  0  0  0  0  0  0  0  0  0  0  0
   -4.1306    0.0418    2.0004 H   0  0  0  0  0  0  0  0  0  0  0  0
   -3.3041    3.6396   -1.4322 H   0  0  0  0  0  0  0  0  0  0  0  0
   -2.9740    4.2500    0.1837 H   0  0  0  0  0  0  0  0  0  0  0  0
   -5.3190    5.0986    0.3612 H   0  0  0  0  0  0  0  0  0  0  0  0
   -5.6793    4.4598   -1.2442 H   0  0  0  0  0  0  0  0  0  0  0  0
   -2.8578   -2.9278   -2.0442 H   0  0  0  0  0  0  0  0  0  0  0  0
   -2.0525   -2.0526    2.1010 H   0  0  0  0  0  0  0  0  0  0  0  0
   -0.4412   -3.1899   -2.4533 H   0  0  0  0  0  0  0  0  0  0  0  0
    0.3291   -2.3260    1.7104 H   0  0  0  0  0  0  0  0  0  0  0  0
   -3.9497    5.9655   -2.2415 H   0  0  0  0  0  0  0  0  0  0  0  0
   -5.1791    6.8789   -1.3505 H   0  0  0  0  0  0  0  0  0  0  0  0
   -3.5835    6.6089   -0.6286 H   0  0  0  0  0  0  0  0  0  0  0  0
   -7.7780   -1.4036   -0.2205 H   0  0  0  0  0  0  0  0  0  0  0  0
  1  3  2  0  0  0  0
  1  4  2  0  0  0  0
  1  8  1  0  0  0  0
  1 20  1  0  0  0  0
  2 17  1  0  0  0  0
  2 21  1  0  0  0  0
  5 29  1  0  0  0  0
  5 66  1  0  0  0  0
  6 29  2  0  0  0  0
  7 13  1  0  0  0  0
  7 14  1  0  0  0  0
  7 44  1  0  0  0  0
  8 18  1  0  0  0  0
  8 54  1  0  0  0  0
  9 10  1  0  0  0  0
  9 11  1  0  0  0  0
  9 12  1  0  0  0  0
  9 31  1  0  0  0  0
 10 13  1  0  0  0  0
 10 32  1  0  0  0  0
 10 33  1  0  0  0  0
 11 14  1  0  0  0  0
 11 34  1  0  0  0  0
 11 35  1  0  0  0  0
 12 15  1  0  0  0  0
 12 36  1  0  0  0  0
 12 37  1  0  0  0  0
 13 38  1  0  0  0  0
 13 39  1  0  0  0  0
 14 40  1  0  0  0  0
 14 41  1  0  0  0  0
 15 16  1  0  0  0  0
 15 42  1  0  0  0  0
 15 43  1  0  0  0  0
 16 17  1  0  0  0  0
 16 45  1  0  0  0  0
 16 46  1  0  0  0  0
 17 47  1  0  0  0  0
 17 48  1  0  0  0  0
 18 19  1  0  0  0  0
 18 29  1  0  0  0  0
 18 49  1  0  0  0  0
 19 23  1  0  0  0  0
 19 50  1  0  0  0  0
 19 51  1  0  0  0  0
 20 22  1  0  0  0  0
 20 52  1  0  0  0  0
 20 53  1  0  0  0  0
 21 25  2  0  0  0  0
 21 26  1  0  0  0  0
 22 24  1  0  0  0  0
 22 55  1  0  0  0  0
 22 56  1  0  0  0  0
 23 27  2  0  0  0  0
 23 28  1  0  0  0  0
 24 30  1  0  0  0  0
 24 57  1  0  0  0  0
 24 58  1  0  0  0  0
 25 27  1  0  0  0  0
 25 61  1  0  0  0  0
 26 28  2  0  0  0  0
 26 62  1  0  0  0  0
 27 59  1  0  0  0  0
 28 60  1  0  0  0  0
 30 63  1  0  0  0  0
 30 64  1  0  0  0  0
 30 65  1  0  0  0  0
M  END
> <PUBCHEM_COMPOUND_CID>
60947

> <PUBCHEM_CONFORMER_RMSD>
1.2

> <PUBCHEM_CONFORMER_DIVERSEORDER>
1
96
167
82
173
73
179
19
181
98
36
80
22
176
87
148
175
165
3
70
46
158
60
54
71
131
152
11
103
133
161
42
125
86
40
25
109
120
159
50
100
65
32
53
108
155
97
75
110
79
166
61
111
83
84
112
149
180
123
164
20
127
17
34
163
76
139
15
172
39
5
13
128
126
135
92
14
85
52
45
101
69
55
150
41
35
144
57
66
21
6
182
18
29
151
116
26
132
94
47
102
162
38
130
146
107
174
48
88
156
169
9
72
30
12
143
93
51
24
89
141
59
99
4
16
10
121
160
154
119
56
145
44
177
104
33
43
115
8
183
124
49
63
140
31
74
170
27
117
37
2
64
23
153
147
106
136
58
68
91
118
7
90
62
81
137
105
78
157
138
178
122
134
67
28
113
95
142
129
114
77
171
168

> <PUBCHEM_MMFF94_PARTIAL_CHARGES>
28
1 1.33
13 0.27
14 0.27
17 0.28
18 0.42
19 0.14
2 -0.36
20 0.11
21 0.08
23 -0.14
25 -0.15
26 -0.15
27 -0.15
28 -0.15
29 0.66
3 -0.65
4 -0.65
44 0.36
5 -0.65
54 0.42
59 0.15
6 -0.57
60 0.15
61 0.15
62 0.15
66 0.5
7 -0.9
8 -0.91

> <PUBCHEM_EFFECTIVE_ROTOR_COUNT>
15.2

> <PUBCHEM_PHARMACOPHORE_FEATURES>
12
1 2 acceptor
1 3 acceptor
1 30 hydrophobe
1 4 acceptor
1 5 acceptor
1 6 acceptor
1 7 cation
1 7 donor
1 8 donor
3 5 6 29 anion
6 21 23 25 26 27 28 rings
6 7 9 10 11 13 14 rings

> <PUBCHEM_HEAVY_ATOM_COUNT>
30

> <PUBCHEM_ATOM_DEF_STEREO_COUNT>
1

> <PUBCHEM_ATOM_UDEF_STEREO_COUNT>
0

> <PUBCHEM_BOND_DEF_STEREO_COUNT>
0

> <PUBCHEM_BOND_UDEF_STEREO_COUNT>
0

> <PUBCHEM_ISOTOPIC_ATOM_COUNT>
0

> <PUBCHEM_COMPONENT_COUNT>
1

> <PUBCHEM_CACTVS_TAUTO_COUNT>
1

> <PUBCHEM_CONFORMER_ID>
0000EE1300000001

> <PUBCHEM_MMFF94_ENERGY>
40.0076

> <PUBCHEM_FEATURE_SELFOVERLAP>
60.968

> <PUBCHEM_SHAPE_FINGERPRINT>
10369192 42 17385437726705573383
10625338 131 18408890663937581672
10864689 126 18193832868155788508
11621639 148 18338506453762337835
11621639 254 18261403208889738157
13726171 33 18264764536042108921
13911987 19 17022895757442063939
14394314 77 18261664952602730577
15276724 80 18335422370152464406
15419008 145 18271255980416460624
15604295 49 17970352513084652280
19053607 189 18192447457254822208
20058555 10 18408603661068811640
23191077 185 18337681896512854898
2838139 119 18337392759076741326
44249763 50 17604725356963362874

> <PUBCHEM_SHAPE_MULTIPOLES>
581.93
24.69
6.55
1.12
57.73
10.32
-0.04
20.53
2.47
-11.32
-2.36
-0.75
-0.07
2.72

> <PUBCHEM_SHAPE_SELFOVERLAP>
1154.162

> <PUBCHEM_SHAPE_VOLUME>
344.6

> <PUBCHEM_COORDINATE_TYPE>
2
5
10

$$$$

