440051
  -OEChem-07051212483D

 50 54  0     1  0  0  0  0  0999 V2000
    1.0562   -1.1327   -1.2876 O   0  0  0  0  0  0  0  0  0  0  0  0
   -4.6234   -0.6790   -1.2305 O   0  0  0  0  0  0  0  0  0  0  0  0
    3.6666    0.5419    1.6135 O   0  0  0  0  0  0  0  0  0  0  0  0
    4.0282   -2.1316    1.5783 O   0  0  0  0  0  0  0  0  0  0  0  0
    2.5480   -0.1932   -2.7722 O   0  0  0  0  0  0  0  0  0  0  0  0
   -0.9111    3.4480   -0.6214 O   0  0  0  0  0  0  0  0  0  0  0  0
    0.0599    2.9741    1.3858 O   0  0  0  0  0  0  0  0  0  0  0  0
   -1.3613    0.3066    0.0332 C   0  0  1  0  0  0  0  0  0  0  0  0
    0.7611   -0.9385    0.1123 C   0  0  2  0  0  0  0  0  0  0  0  0
   -0.7306   -1.0772    0.4320 C   0  0  2  0  0  0  0  0  0  0  0  0
    1.0583    0.5368    0.3149 C   0  0  2  0  0  0  0  0  0  0  0  0
   -0.1732    1.2434   -0.2854 C   0  0  2  0  0  0  0  0  0  0  0  0
    2.3788    0.6241   -0.4612 C   0  0  1  0  0  0  0  0  0  0  0  0
   -2.3448    0.1388   -1.1361 C   0  0  0  0  0  0  0  0  0  0  0  0
   -3.4245   -0.7292   -0.4795 C   0  0  2  0  0  0  0  0  0  0  0  0
   -2.3339    0.7771    1.1429 C   0  0  0  0  0  0  0  0  0  0  0  0
   -1.3998   -2.2877   -0.2375 C   0  0  0  0  0  0  0  0  0  0  0  0
    1.6947   -1.8137    0.9616 C   0  0  0  0  0  0  0  0  0  0  0  0
   -2.9282   -2.1781   -0.3165 C   0  0  0  0  0  0  0  0  0  0  0  0
    3.5000   -0.0957    0.3450 C   0  0  2  0  0  0  0  0  0  0  0  0
    3.1687   -1.5863    0.5844 C   0  0  1  0  0  0  0  0  0  0  0  0
   -3.5652   -0.0494    0.8703 C   0  0  0  0  0  0  0  0  0  0  0  0
    2.0370   -0.2400   -1.6655 C   0  0  0  0  0  0  0  0  0  0  0  0
   -0.3115    2.6266    0.2746 C   0  0  0  0  0  0  0  0  0  0  0  0
    2.7619    2.0449   -0.8558 C   0  0  0  0  0  0  0  0  0  0  0  0
   -4.6119   -0.1300    1.7003 C   0  0  0  0  0  0  0  0  0  0  0  0
   -0.8290   -1.2016    1.5196 H   0  0  0  0  0  0  0  0  0  0  0  0
    1.1723    0.7859    1.3769 H   0  0  0  0  0  0  0  0  0  0  0  0
   -0.0547    1.3336   -1.3731 H   0  0  0  0  0  0  0  0  0  0  0  0
   -1.9006   -0.3331   -2.0199 H   0  0  0  0  0  0  0  0  0  0  0  0
   -2.7512    1.1035   -1.4700 H   0  0  0  0  0  0  0  0  0  0  0  0
   -2.6037    1.8329    1.0286 H   0  0  0  0  0  0  0  0  0  0  0  0
   -1.9347    0.6203    2.1499 H   0  0  0  0  0  0  0  0  0  0  0  0
   -1.1198   -3.2103    0.2847 H   0  0  0  0  0  0  0  0  0  0  0  0
   -1.0268   -2.4064   -1.2621 H   0  0  0  0  0  0  0  0  0  0  0  0
    1.4616   -2.8754    0.8133 H   0  0  0  0  0  0  0  0  0  0  0  0
    1.5463   -1.6144    2.0305 H   0  0  0  0  0  0  0  0  0  0  0  0
   -3.2801   -2.7976   -1.1515 H   0  0  0  0  0  0  0  0  0  0  0  0
   -3.3709   -2.6308    0.5804 H   0  0  0  0  0  0  0  0  0  0  0  0
    4.4643   -0.0339   -0.1744 H   0  0  0  0  0  0  0  0  0  0  0  0
    3.3760   -2.1374   -0.3417 H   0  0  0  0  0  0  0  0  0  0  0  0
    2.0605    2.4708   -1.5811 H   0  0  0  0  0  0  0  0  0  0  0  0
    2.7952    2.7087    0.0140 H   0  0  0  0  0  0  0  0  0  0  0  0
    3.7494    2.0628   -1.3307 H   0  0  0  0  0  0  0  0  0  0  0  0
   -4.4265   -0.9983   -2.1277 H   0  0  0  0  0  0  0  0  0  0  0  0
   -5.4780   -0.7343    1.4538 H   0  0  0  0  0  0  0  0  0  0  0  0
   -4.6194    0.4055    2.6435 H   0  0  0  0  0  0  0  0  0  0  0  0
    4.0028    1.4392    1.4510 H   0  0  0  0  0  0  0  0  0  0  0  0
    3.7852   -3.0659    1.6951 H   0  0  0  0  0  0  0  0  0  0  0  0
   -1.0130    4.3588   -0.2719 H   0  0  0  0  0  0  0  0  0  0  0  0
  1  9  1  0  0  0  0
  1 23  1  0  0  0  0
  2 15  1  0  0  0  0
  2 45  1  0  0  0  0
  3 20  1  0  0  0  0
  3 48  1  0  0  0  0
  4 21  1  0  0  0  0
  4 49  1  0  0  0  0
  5 23  2  0  0  0  0
  6 24  1  0  0  0  0
  6 50  1  0  0  0  0
  7 24  2  0  0  0  0
  8 10  1  0  0  0  0
  8 12  1  0  0  0  0
  8 14  1  0  0  0  0
  8 16  1  0  0  0  0
  9 10  1  0  0  0  0
  9 11  1  0  0  0  0
  9 18  1  0  0  0  0
 10 17  1  0  0  0  0
 10 27  1  0  0  0  0
 11 12  1  0  0  0  0
 11 13  1  0  0  0  0
 11 28  1  0  0  0  0
 12 24  1  0  0  0  0
 12 29  1  0  0  0  0
 13 20  1  0  0  0  0
 13 23  1  0  0  0  0
 13 25  1  0  0  0  0
 14 15  1  0  0  0  0
 14 30  1  0  0  0  0
 14 31  1  0  0  0  0
 15 19  1  0  0  0  0
 15 22  1  0  0  0  0
 16 22  1  0  0  0  0
 16 32  1  0  0  0  0
 16 33  1  0  0  0  0
 17 19  1  0  0  0  0
 17 34  1  0  0  0  0
 17 35  1  0  0  0  0
 18 21  1  0  0  0  0
 18 36  1  0  0  0  0
 18 37  1  0  0  0  0
 19 38  1  0  0  0  0
 19 39  1  0  0  0  0
 20 21  1  0  0  0  0
 20 40  1  0  0  0  0
 21 41  1  0  0  0  0
 22 26  2  0  0  0  0
 25 42  1  0  0  0  0
 25 43  1  0  0  0  0
 25 44  1  0  0  0  0
 26 46  1  0  0  0  0
 26 47  1  0  0  0  0
M  END
> <PUBCHEM_COMPOUND_CID>
440051

> <PUBCHEM_CONFORMER_RMSD>
0.6

> <PUBCHEM_CONFORMER_DIVERSEORDER>
1
2
3

> <PUBCHEM_MMFF94_PARTIAL_CHARGES>
24
1 -0.43
12 0.06
13 0.06
15 0.42
16 0.14
2 -0.68
20 0.28
21 0.28
22 -0.28
23 0.66
24 0.66
26 -0.3
3 -0.68
4 -0.68
45 0.4
46 0.15
47 0.15
48 0.4
49 0.4
5 -0.57
50 0.5
6 -0.65
7 -0.57
9 0.28

> <PUBCHEM_EFFECTIVE_ROTOR_COUNT>
2.8

> <PUBCHEM_PHARMACOPHORE_FEATURES>
13
1 2 acceptor
1 2 donor
1 3 acceptor
1 3 donor
1 4 acceptor
1 4 donor
1 5 acceptor
1 6 acceptor
1 7 acceptor
3 6 7 24 anion
5 8 9 10 11 12 rings
8 1 9 11 13 18 20 21 23 rings
8 8 10 14 15 16 17 19 22 rings

> <PUBCHEM_HEAVY_ATOM_COUNT>
26

> <PUBCHEM_ATOM_DEF_STEREO_COUNT>
8

> <PUBCHEM_ATOM_UDEF_STEREO_COUNT>
1

> <PUBCHEM_BOND_DEF_STEREO_COUNT>
0

> <PUBCHEM_BOND_UDEF_STEREO_COUNT>
0

> <PUBCHEM_ISOTOPIC_ATOM_COUNT>
0

> <PUBCHEM_COMPONENT_COUNT>
1

> <PUBCHEM_CACTVS_TAUTO_COUNT>
1

> <PUBCHEM_CONFORMER_ID>
0006B6F300000001

> <PUBCHEM_MMFF94_ENERGY>
106.6563

> <PUBCHEM_FEATURE_SELFOVERLAP>
66.197

> <PUBCHEM_SHAPE_FINGERPRINT>
10863032 1 18267022747803966830
10967382 1 18339927000112744643
11132069 177 18187081771596391825
11578080 2 17987542379770992340
12422481 6 17908125922381387825
12553582 1 18409719664964802925
12596599 1 18040988532306505815
12633257 1 17822299023531588002
12788726 201 18190441908995823136
13009979 54 17986102144640691778
13140716 1 18410855447391518602
13224815 77 18186238420207597703
13544653 18 18131079267774762362
13583140 156 17774439374282008075
14022347 108 18193244529901217103
14223421 5 18194127540643410872
14787075 74 18200322000745393968
14790565 3 17908423546245733224
14955137 171 17899940977508858339
15238133 3 18128242575547390977
15375462 189 18341887468268846027
16752209 62 18268987764103535797
16945 1 18342737433733130924
17349148 13 18187656794624059919
17980427 23 17530973440807038873
1813 80 18334285466628963373
19078846 21 18336537270552908713
200 152 18272099326381535431
20600515 1 18040716943822349251
20691752 17 18128822949523528449
20715895 44 17911816961520161917
20905425 154 18335986367898700852
21421861 104 18269542978994962984
22112679 90 18334858311860051867
23184049 29 18265615557888856824
2334 1 18266175024428765162
23402539 116 18187656820340895175
23419403 2 15825594776676822561
23557571 272 17895193358871622456
23559900 14 18339938081788069826
2748010 2 18192702345977554318
296302 2 16588022390164228915
34934 24 18337114453669116223
350125 39 17831844012684069067
392239 28 18266199283026312360
394222 165 16557055633648822900
81228 2 18190162650274633809
90316 7 18409737291247147129

> <PUBCHEM_SHAPE_MULTIPOLES>
493.98
7.11
2.76
1.64
2.81
1.58
0.38
-2.34
-1.24
-0.52
-0.39
-0.58
-0.08
-0.98

> <PUBCHEM_SHAPE_SELFOVERLAP>
1110.898

> <PUBCHEM_SHAPE_VOLUME>
261.4

> <PUBCHEM_COORDINATE_TYPE>
2
5
10

$$$$

