440867
  -OEChem-07051212513D

 42 44  0     1  0  0  0  0  0999 V2000
    4.7105    0.3888    0.6636 P   0  0  1  0  0  0  0  0  0  0  0  0
    0.0566   -1.2241    1.4167 O   0  0  0  0  0  0  0  0  0  0  0  0
   -0.2762   -3.1288   -1.1435 O   0  0  0  0  0  0  0  0  0  0  0  0
    2.0902   -1.8188   -1.4850 O   0  0  0  0  0  0  0  0  0  0  0  0
    3.6217   -0.8044    0.7729 O   0  0  0  0  0  0  0  0  0  0  0  0
    3.9028    1.6298    0.0100 O   0  0  0  0  0  0  0  0  0  0  0  0
    4.9366    0.8640    2.1942 O   0  0  0  0  0  0  0  0  0  0  0  0
    5.9754    0.0230   -0.0584 O   0  0  0  0  0  0  0  0  0  0  0  0
    3.5148    0.7319   -2.0633 O   0  0  0  0  0  0  0  0  0  0  0  0
   -1.8727   -0.2865    0.4003 N   0  0  0  0  0  0  0  0  0  0  0  0
   -2.5407    1.8391    0.5175 N   0  0  0  0  0  0  0  0  0  0  0  0
   -3.9941   -1.3605   -0.0987 N   0  0  0  0  0  0  0  0  0  0  0  0
   -5.8035    0.2710   -0.2416 N   0  0  0  0  0  0  0  0  0  0  0  0
   -5.4478    2.6155    0.0805 N   0  0  0  0  0  0  0  0  0  0  0  0
   -0.2879   -1.7222   -0.9055 C   0  0  2  0  0  0  0  0  0  0  0  0
    1.1154   -1.1917   -0.6795 C   0  0  1  0  0  0  0  0  0  0  0  0
   -0.9760   -1.4431    0.4318 C   0  0  1  0  0  0  0  0  0  0  0  0
    1.3306   -1.4677    0.7984 C   0  0  1  0  0  0  0  0  0  0  0  0
    2.3876   -0.5811    1.4320 C   0  0  0  0  0  0  0  0  0  0  0  0
   -3.2181   -0.2968    0.1583 C   0  0  0  0  0  0  0  0  0  0  0  0
   -1.5141    1.0198    0.6107 C   0  0  0  0  0  0  0  0  0  0  0  0
   -3.6122    1.0296    0.2350 C   0  0  0  0  0  0  0  0  0  0  0  0
   -4.9607    1.2983    0.0231 C   0  0  0  0  0  0  0  0  0  0  0  0
   -5.2755   -0.9761   -0.2853 C   0  0  0  0  0  0  0  0  0  0  0  0
    3.4133    1.6451   -1.2568 C   0  0  0  0  0  0  0  0  0  0  0  0
    2.7245    2.9459   -1.5272 C   0  0  0  0  0  0  0  0  0  0  0  0
   -0.7723   -1.2539   -1.7684 H   0  0  0  0  0  0  0  0  0  0  0  0
    1.1196   -0.1134   -0.8765 H   0  0  0  0  0  0  0  0  0  0  0  0
   -1.5733   -2.2947    0.7777 H   0  0  0  0  0  0  0  0  0  0  0  0
    1.6016   -2.5205    0.9524 H   0  0  0  0  0  0  0  0  0  0  0  0
    2.5019   -0.8240    2.4938 H   0  0  0  0  0  0  0  0  0  0  0  0
    2.0913    0.4721    1.3776 H   0  0  0  0  0  0  0  0  0  0  0  0
   -1.2009   -3.4143   -1.2397 H   0  0  0  0  0  0  0  0  0  0  0  0
    2.9577   -1.4623   -1.2292 H   0  0  0  0  0  0  0  0  0  0  0  0
   -0.4965    1.3193    0.8217 H   0  0  0  0  0  0  0  0  0  0  0  0
   -5.9787   -1.7739   -0.4997 H   0  0  0  0  0  0  0  0  0  0  0  0
   -4.8210    3.3838    0.2777 H   0  0  0  0  0  0  0  0  0  0  0  0
   -6.4318    2.7852   -0.0772 H   0  0  0  0  0  0  0  0  0  0  0  0
    5.5340    0.3403    2.7695 H   0  0  0  0  0  0  0  0  0  0  0  0
    2.3508    2.9511   -2.5551 H   0  0  0  0  0  0  0  0  0  0  0  0
    1.8768    3.0633   -0.8473 H   0  0  0  0  0  0  0  0  0  0  0  0
    3.4306    3.7716   -1.4096 H   0  0  0  0  0  0  0  0  0  0  0  0
  1  5  1  0  0  0  0
  1  6  1  0  0  0  0
  1  7  1  0  0  0  0
  1  8  2  0  0  0  0
  2 17  1  0  0  0  0
  2 18  1  0  0  0  0
  3 15  1  0  0  0  0
  3 33  1  0  0  0  0
  4 16  1  0  0  0  0
  4 34  1  0  0  0  0
  5 19  1  0  0  0  0
  6 25  1  0  0  0  0
  7 39  1  0  0  0  0
  9 25  2  0  0  0  0
 10 17  1  0  0  0  0
 10 20  1  0  0  0  0
 10 21  1  0  0  0  0
 11 21  2  0  0  0  0
 11 22  1  0  0  0  0
 12 20  2  0  0  0  0
 12 24  1  0  0  0  0
 13 23  1  0  0  0  0
 13 24  2  0  0  0  0
 14 23  1  0  0  0  0
 14 37  1  0  0  0  0
 14 38  1  0  0  0  0
 15 16  1  0  0  0  0
 15 17  1  0  0  0  0
 15 27  1  0  0  0  0
 16 18  1  0  0  0  0
 16 28  1  0  0  0  0
 17 29  1  0  0  0  0
 18 19  1  0  0  0  0
 18 30  1  0  0  0  0
 19 31  1  0  0  0  0
 19 32  1  0  0  0  0
 20 22  1  0  0  0  0
 21 35  1  0  0  0  0
 22 23  2  0  0  0  0
 24 36  1  0  0  0  0
 25 26  1  0  0  0  0
 26 40  1  0  0  0  0
 26 41  1  0  0  0  0
 26 42  1  0  0  0  0
M  END
> <PUBCHEM_COMPOUND_CID>
440867

> <PUBCHEM_CONFORMER_RMSD>
1

> <PUBCHEM_CONFORMER_DIVERSEORDER>
3
511
84
108
156
601
277
557
114
445
237
411
190
29
119
486
77
337
305
17
210
62
377
36
88
443
565
521
99
76
413
218
385
493
150
116
478
235
364
506
35
492
318
349
523
151
583
37
427
246
53
453
177
8
288
439
115
160
406
242
442
11
381
640
429
256
40
87
539
39
10
70
182
85
223
481
589
31
38
416
45
590
152
20
149
78
316
549
224
355
74
658
469
592
154
48
395
320
304
56
248
360
353
120
226
249
15
560
340
18
148
254
51
187
243
134
9
227
132
89
522
64
164
19
499
21
113
100
659
274
14
83
111
141
372
46
220
122
12
222
23
72
465
512
1
390
627
27
55
328
142
667
6
674
163
124
645
675
16
594
476
283
5
376
65
2
339
4
555
407
22
517
440

> <PUBCHEM_MMFF94_PARTIAL_CHARGES>
33
1 1.51
10 0.05
11 -0.57
12 -0.57
13 -0.62
14 -0.9
15 0.28
16 0.28
17 0.54
18 0.28
19 0.28
2 -0.56
20 0.11
21 0.04
22 0.23
23 0.41
24 0.47
25 0.66
26 0.06
3 -0.68
33 0.4
34 0.4
35 0.15
36 0.15
37 0.4
38 0.4
39 0.5
4 -0.68
5 -0.55
6 -0.42
7 -0.77
8 -0.7
9 -0.57

> <PUBCHEM_EFFECTIVE_ROTOR_COUNT>
7

> <PUBCHEM_PHARMACOPHORE_FEATURES>
16
1 14 cation
1 14 donor
1 2 acceptor
1 3 acceptor
1 3 donor
1 4 acceptor
1 4 donor
1 7 acceptor
1 8 acceptor
1 9 acceptor
3 10 11 21 cation
3 10 12 20 cation
3 12 13 24 cation
5 10 11 20 21 22 rings
5 2 15 16 17 18 rings
6 12 13 20 22 23 24 rings

> <PUBCHEM_HEAVY_ATOM_COUNT>
26

> <PUBCHEM_ATOM_DEF_STEREO_COUNT>
4

> <PUBCHEM_ATOM_UDEF_STEREO_COUNT>
0

> <PUBCHEM_BOND_DEF_STEREO_COUNT>
0

> <PUBCHEM_BOND_UDEF_STEREO_COUNT>
0

> <PUBCHEM_ISOTOPIC_ATOM_COUNT>
0

> <PUBCHEM_COMPONENT_COUNT>
1

> <PUBCHEM_CACTVS_TAUTO_COUNT>
3

> <PUBCHEM_CONFORMER_ID>
0006BA2300000003

> <PUBCHEM_MMFF94_ENERGY>
35.0368

> <PUBCHEM_FEATURE_SELFOVERLAP>
81.82

> <PUBCHEM_SHAPE_FINGERPRINT>
10498660 4 18187642539775070113
10670039 82 18337378435793215364
10906281 52 18337098030785204587
11045977 3 17060334106781217746
11578080 2 17129602373443628997
12166972 35 18411138035213047800
12236239 1 18343868818223708770
12403259 118 18343025458292297105
12516196 113 11743836967242467018
12633257 1 17131841941095516032
12824470 246 8502387619643215546
13583140 156 17489864921331511867
14251764 38 18343295964176306469
14341114 328 18060422412721582273
15238133 3 18060692884783553324
15537594 2 8070034384340417261
17980427 23 18273214210029287967
1813 80 5833713435237242835
18681886 176 18408327661869682464
20715895 44 18198348557789354565
20775530 9 8068377321950349476
22149856 69 18114163243623795003
22950370 63 8358265834307481237
23559900 14 17972037204651682063
2838139 119 18410577270870342276
314173 41 9799683801317438158
3472631 163 18270964669637652821
34797466 226 17023185994452056841
3680242 22 18201434839177148241
4325135 7 18412266129984945143
4409770 3 16109237135630042798
474 4 18131631175277373978
7288768 16 16770137641200666104
8509985 295 17989209239841434964
9981440 41 18412259541305361683

> <PUBCHEM_SHAPE_MULTIPOLES>
467.06
12.74
2.7
1.47
4.03
0.63
0.08
6.12
-1.08
0.22
1.03
-2.14
0.02
-1.1

> <PUBCHEM_SHAPE_SELFOVERLAP>
983.382

> <PUBCHEM_SHAPE_VOLUME>
264.7

> <PUBCHEM_COORDINATE_TYPE>
2
5
10

$$$$

