49661773
  -OEChem-06241223002D

 61 64  0     0  0  0  0  0  0999 V2000
    3.7320    1.5000    0.0000 Cl  0  0  0  0  0  0  0  0  0  0  0  0
   11.5263    0.0000    0.0000 S   0  0  0  0  0  0  0  0  0  0  0  0
    2.0000   -1.5000    0.0000 F   0  0  0  0  0  0  0  0  0  0  0  0
   12.5263    0.0000    0.0000 O   0  0  0  0  0  0  0  0  0  0  0  0
   10.5263    0.0000    0.0000 O   0  0  0  0  0  0  0  0  0  0  0  0
    7.1962    1.5000    0.0000 O   0  0  0  0  0  0  0  0  0  0  0  0
    9.7942   -1.0000    0.0000 N   0  0  0  0  0  0  0  0  0  0  0  0
   11.5263    1.0000    0.0000 N   0  0  0  0  0  0  0  0  0  0  0  0
    6.3301    0.0000    0.0000 N   0  0  0  0  0  0  0  0  0  0  0  0
   10.6603   -2.5000    0.0000 N   0  0  0  0  0  0  0  0  0  0  0  0
    8.0622    0.0000    0.0000 C   0  0  0  0  0  0  0  0  0  0  0  0
    8.9282    0.5000    0.0000 C   0  0  0  0  0  0  0  0  0  0  0  0
    8.0622   -1.0000    0.0000 C   0  0  0  0  0  0  0  0  0  0  0  0
    9.7942    0.0000    0.0000 C   0  0  0  0  0  0  0  0  0  0  0  0
    8.9282   -1.5000    0.0000 C   0  0  0  0  0  0  0  0  0  0  0  0
   12.3923    1.5000    0.0000 C   0  0  0  0  0  0  0  0  0  0  0  0
   10.6603    1.5000    0.0000 C   0  0  0  0  0  0  0  0  0  0  0  0
   10.6603    2.5000    0.0000 C   0  0  0  0  0  0  0  0  0  0  0  0
   12.3923    2.5000    0.0000 C   0  0  0  0  0  0  0  0  0  0  0  0
   11.5263    3.0000    0.0000 C   0  0  0  0  0  0  0  0  0  0  0  0
   10.6603   -1.5000    0.0000 C   0  0  0  0  0  0  0  0  0  0  0  0
   11.5263   -1.0000    0.0000 C   0  0  0  0  0  0  0  0  0  0  0  0
    7.1962    0.5000    0.0000 C   0  0  0  0  0  0  0  0  0  0  0  0
   12.3923   -1.5000    0.0000 C   0  0  0  0  0  0  0  0  0  0  0  0
   12.3923   -2.5000    0.0000 C   0  0  0  0  0  0  0  0  0  0  0  0
   11.5263   -3.0000    0.0000 C   0  0  0  0  0  0  0  0  0  0  0  0
    5.4641    0.5000    0.0000 C   0  0  0  0  0  0  0  0  0  0  0  0
    4.5981    0.0000    0.0000 C   0  0  0  0  0  0  0  0  0  0  0  0
    3.7320    0.5000    0.0000 C   0  0  0  0  0  0  0  0  0  0  0  0
    4.5981   -1.0000    0.0000 C   0  0  0  0  0  0  0  0  0  0  0  0
    2.8660    0.0000    0.0000 C   0  0  0  0  0  0  0  0  0  0  0  0
    3.7320   -1.5000    0.0000 C   0  0  0  0  0  0  0  0  0  0  0  0
    2.8660   -1.0000    0.0000 C   0  0  0  0  0  0  0  0  0  0  0  0
    8.0622    0.6200    0.0000 H   0  0  0  0  0  0  0  0  0  0  0  0
    9.3267    0.9749    0.0000 H   0  0  0  0  0  0  0  0  0  0  0  0
    8.5297    0.9749    0.0000 H   0  0  0  0  0  0  0  0  0  0  0  0
    7.4516   -0.8923    0.0000 H   0  0  0  0  0  0  0  0  0  0  0  0
    7.8501   -1.5826    0.0000 H   0  0  0  0  0  0  0  0  0  0  0  0
    8.5297   -1.9750    0.0000 H   0  0  0  0  0  0  0  0  0  0  0  0
    9.3267   -1.9750    0.0000 H   0  0  0  0  0  0  0  0  0  0  0  0
   10.4048   -0.1077    0.0000 H   0  0  0  0  0  0  0  0  0  0  0  0
   10.0063    0.5826    0.0000 H   0  0  0  0  0  0  0  0  0  0  0  0
   12.6044    0.9174    0.0000 H   0  0  0  0  0  0  0  0  0  0  0  0
   13.0029    1.6077    0.0000 H   0  0  0  0  0  0  0  0  0  0  0  0
   10.0497    1.6077    0.0000 H   0  0  0  0  0  0  0  0  0  0  0  0
   10.4482    0.9174    0.0000 H   0  0  0  0  0  0  0  0  0  0  0  0
   13.0029    2.3923    0.0000 H   0  0  0  0  0  0  0  0  0  0  0  0
   12.6044    3.0826    0.0000 H   0  0  0  0  0  0  0  0  0  0  0  0
   10.4482    3.0826    0.0000 H   0  0  0  0  0  0  0  0  0  0  0  0
   10.0497    2.3923    0.0000 H   0  0  0  0  0  0  0  0  0  0  0  0
   11.9248    3.4750    0.0000 H   0  0  0  0  0  0  0  0  0  0  0  0
   11.1278    3.4750    0.0000 H   0  0  0  0  0  0  0  0  0  0  0  0
   12.9292   -1.1900    0.0000 H   0  0  0  0  0  0  0  0  0  0  0  0
    6.3301   -0.6200    0.0000 H   0  0  0  0  0  0  0  0  0  0  0  0
   12.9292   -2.8100    0.0000 H   0  0  0  0  0  0  0  0  0  0  0  0
   11.5263   -3.6200    0.0000 H   0  0  0  0  0  0  0  0  0  0  0  0
    5.8626    0.9749    0.0000 H   0  0  0  0  0  0  0  0  0  0  0  0
    5.0656    0.9749    0.0000 H   0  0  0  0  0  0  0  0  0  0  0  0
    5.1350   -1.3100    0.0000 H   0  0  0  0  0  0  0  0  0  0  0  0
    2.3291    0.3100    0.0000 H   0  0  0  0  0  0  0  0  0  0  0  0
    3.7320   -2.1200    0.0000 H   0  0  0  0  0  0  0  0  0  0  0  0
  1 29  1  0  0  0  0
  2  4  2  0  0  0  0
  2  5  2  0  0  0  0
  2  8  1  0  0  0  0
  2 22  1  0  0  0  0
  3 33  1  0  0  0  0
  6 23  2  0  0  0  0
  7 14  1  0  0  0  0
  7 15  1  0  0  0  0
  7 21  1  0  0  0  0
  8 16  1  0  0  0  0
  8 17  1  0  0  0  0
  9 23  1  0  0  0  0
  9 27  1  0  0  0  0
  9 54  1  0  0  0  0
 10 21  1  0  0  0  0
 10 26  2  0  0  0  0
 11 12  1  0  0  0  0
 11 13  1  0  0  0  0
 11 23  1  0  0  0  0
 11 34  1  0  0  0  0
 12 14  1  0  0  0  0
 12 35  1  0  0  0  0
 12 36  1  0  0  0  0
 13 15  1  0  0  0  0
 13 37  1  0  0  0  0
 13 38  1  0  0  0  0
 14 41  1  0  0  0  0
 14 42  1  0  0  0  0
 15 39  1  0  0  0  0
 15 40  1  0  0  0  0
 16 19  1  0  0  0  0
 16 43  1  0  0  0  0
 16 44  1  0  0  0  0
 17 18  1  0  0  0  0
 17 45  1  0  0  0  0
 17 46  1  0  0  0  0
 18 20  1  0  0  0  0
 18 49  1  0  0  0  0
 18 50  1  0  0  0  0
 19 20  1  0  0  0  0
 19 47  1  0  0  0  0
 19 48  1  0  0  0  0
 20 51  1  0  0  0  0
 20 52  1  0  0  0  0
 21 22  2  0  0  0  0
 22 24  1  0  0  0  0
 24 25  2  0  0  0  0
 24 53  1  0  0  0  0
 25 26  1  0  0  0  0
 25 55  1  0  0  0  0
 26 56  1  0  0  0  0
 27 28  1  0  0  0  0
 27 57  1  0  0  0  0
 27 58  1  0  0  0  0
 28 29  2  0  0  0  0
 28 30  1  0  0  0  0
 29 31  1  0  0  0  0
 30 32  2  0  0  0  0
 30 59  1  0  0  0  0
 31 33  2  0  0  0  0
 31 60  1  0  0  0  0
 32 33  1  0  0  0  0
 32 61  1  0  0  0  0
M  END
> <PUBCHEM_COMPOUND_CID>
49661773

> <PUBCHEM_COMPOUND_CANONICALIZED>
1

> <PUBCHEM_CACTVS_COMPLEXITY>
753

> <PUBCHEM_CACTVS_HBOND_ACCEPTOR>
7

> <PUBCHEM_CACTVS_HBOND_DONOR>
1

> <PUBCHEM_CACTVS_ROTATABLE_BOND>
6

> <PUBCHEM_CACTVS_SUBSKEYS>
AAADceB7sQBEAAAAAAAAAAAAAAAAAAAAAAA8WLEAAAAAAAABwAAAHwYQQAAADQLB2iw9sZPIEAKoAjN3dHDCgDkxByAJ2L04ZpiIIPLBm5GEIAholgLIyCcUgAAOAAAAAAABAAAAAAAAAAIAAAAAAAAAAA==

> <PUBCHEM_IUPAC_OPENEYE_NAME>
N-[(2-chloro-4-fluoro-phenyl)methyl]-1-[3-(1-piperidylsulfonyl)-2-pyridyl]piperidine-4-carboxamide

> <PUBCHEM_IUPAC_CAS_NAME>
N-[(2-chloro-4-fluorophenyl)methyl]-1-[3-(1-piperidinylsulfonyl)-2-pyridinyl]-4-piperidinecarboxamide

> <PUBCHEM_IUPAC_NAME>
N-[(2-chloro-4-fluorophenyl)methyl]-1-(3-piperidin-1-ylsulfonylpyridin-2-yl)piperidine-4-carboxamide

> <PUBCHEM_IUPAC_SYSTEMATIC_NAME>
N-[(2-chloranyl-4-fluoranyl-phenyl)methyl]-1-(3-piperidin-1-ylsulfonylpyridin-2-yl)piperidine-4-carboxamide

> <PUBCHEM_IUPAC_TRADITIONAL_NAME>
N-(2-chloro-4-fluoro-benzyl)-1-(3-piperidinosulfonyl-2-pyridyl)isonipecotamide

> <PUBCHEM_IUPAC_INCHI>
InChI=1S/C23H28ClFN4O3S/c24-20-15-19(25)7-6-18(20)16-27-23(30)17-8-13-28(14-9-17)22-21(5-4-10-26-22)33(31,32)29-11-2-1-3-12-29/h4-7,10,15,17H,1-3,8-9,11-14,16H2,(H,27,30)

> <PUBCHEM_IUPAC_INCHIKEY>
AMXALLNOESYWRY-UHFFFAOYSA-N

> <PUBCHEM_XLOGP3_AA>
3.3

> <PUBCHEM_EXACT_MASS>
494.155468

> <PUBCHEM_MOLECULAR_FORMULA>
C23H28ClFN4O3S

> <PUBCHEM_MOLECULAR_WEIGHT>
495.009823

> <PUBCHEM_OPENEYE_CAN_SMILES>
C1CCN(CC1)S(=O)(=O)C2=C(N=CC=C2)N3CCC(CC3)C(=O)NCC4=C(C=C(C=C4)F)Cl

> <PUBCHEM_OPENEYE_ISO_SMILES>
C1CCN(CC1)S(=O)(=O)C2=C(N=CC=C2)N3CCC(CC3)C(=O)NCC4=C(C=C(C=C4)F)Cl

> <PUBCHEM_CACTVS_TPSA>
91

> <PUBCHEM_MONOISOTOPIC_WEIGHT>
494.155468

> <PUBCHEM_TOTAL_CHARGE>
0

> <PUBCHEM_HEAVY_ATOM_COUNT>
33

> <PUBCHEM_ATOM_DEF_STEREO_COUNT>
0

> <PUBCHEM_ATOM_UDEF_STEREO_COUNT>
0

> <PUBCHEM_BOND_DEF_STEREO_COUNT>
0

> <PUBCHEM_BOND_UDEF_STEREO_COUNT>
0

> <PUBCHEM_ISOTOPIC_ATOM_COUNT>
0

> <PUBCHEM_COMPONENT_COUNT>
1

> <PUBCHEM_CACTVS_TAUTO_COUNT>
2

> <PUBCHEM_COORDINATE_TYPE>
1
5
255

> <PUBCHEM_BONDANNOTATIONS>
10  21  8
10  26  8
21  22  8
22  24  8
24  25  8
25  26  8
28  29  8
28  30  8
29  31  8
30  32  8
31  33  8
32  33  8

$$$$

