9568618
  -OEChem-07051213032D

 44 43  0     1  0  0  0  0  0999 V2000
   10.2124    1.6369    0.0000 S   0  0  0  0  0  0  0  0  0  0  0  0
    3.7208    0.2523    0.0000 S   0  0  0  0  0  0  0  0  0  0  0  0
   11.9066    1.9970    0.0000 Na  0  3  0  0  0  0  0  0  0  0  0  0
    9.4578   -4.8693    0.0000 Na  0  3  0  0  0  0  0  0  0  0  0  0
    8.1105    2.7143    0.0000 O   0  0  0  0  0  0  0  0  0  0  0  0
   10.0860   -0.7740    0.0000 O   0  0  0  0  0  0  0  0  0  0  0  0
   10.9555    2.3060    0.0000 O   0  5  0  0  0  0  0  0  0  0  0  0
   10.8815    0.8938    0.0000 O   0  0  0  0  0  0  0  0  0  0  0  0
    9.5432    2.3801    0.0000 O   0  0  0  0  0  0  0  0  0  0  0  0
    6.5161    0.6395    0.0000 O   0  0  0  0  0  0  0  0  0  0  0  0
    6.4632    3.2495    0.0000 O   0  0  0  0  0  0  0  0  0  0  0  0
    7.1399   -2.2949    0.0000 O   0  0  0  0  0  0  0  0  0  0  0  0
    8.5068   -4.5602    0.0000 O   0  5  0  0  0  0  0  0  0  0  0  0
    9.0420   -2.9130    0.0000 O   0  0  0  0  0  0  0  0  0  0  0  0
    9.4692    0.9678    0.0000 N   0  0  0  0  0  0  0  0  0  0  0  0
    7.6751   -0.6477    0.0000 N   0  0  0  0  0  0  0  0  0  0  0  0
    6.1888   -1.9859    0.0000 N   0  0  0  0  0  0  0  0  0  0  0  0
    7.7504    4.4085    0.0000 N   0  0  0  0  0  0  0  0  0  0  0  0
    4.2208   -1.2865    0.0000 N   0  0  0  0  0  0  0  0  0  0  0  0
    2.4608   -1.0078    0.0000 N   0  0  0  0  0  0  0  0  0  0  0  0
    8.4706    1.0201    0.0000 C   0  0  1  0  0  0  0  0  0  0  0  0
    8.4182    0.0215    0.0000 C   0  0  1  0  0  0  0  0  0  0  0  0
    9.4169   -0.0309    0.0000 C   0  0  0  0  0  0  0  0  0  0  0  0
    7.8014    1.7632    0.0000 C   0  0  0  0  0  0  0  0  0  0  0  0
    6.7240   -0.3386    0.0000 C   0  0  0  0  0  0  0  0  0  0  0  0
    5.9809   -1.0078    0.0000 C   0  0  0  0  0  0  0  0  0  0  0  0
    7.4413    3.4574    0.0000 C   0  0  0  0  0  0  0  0  0  0  0  0
    5.0298   -0.6987    0.0000 C   0  0  0  0  0  0  0  0  0  0  0  0
    4.7208    0.2523    0.0000 C   0  0  0  0  0  0  0  0  0  0  0  0
    3.4118   -0.6987    0.0000 C   0  0  0  0  0  0  0  0  0  0  0  0
    7.3478   -3.2731    0.0000 C   0  0  0  0  0  0  0  0  0  0  0  0
    8.2988   -3.5821    0.0000 C   0  0  0  0  0  0  0  0  0  0  0  0
    8.7375    1.5797    0.0000 H   0  0  0  0  0  0  0  0  0  0  0  0
    8.6252   -0.5630    0.0000 H   0  0  0  0  0  0  0  0  0  0  0  0
    7.2540    2.0543    0.0000 H   0  0  0  0  0  0  0  0  0  0  0  0
    7.4197    1.2747    0.0000 H   0  0  0  0  0  0  0  0  0  0  0  0
    7.8040   -1.2541    0.0000 H   0  0  0  0  0  0  0  0  0  0  0  0
    7.3355    4.8693    0.0000 H   0  0  0  0  0  0  0  0  0  0  0  0
    8.3568    4.5374    0.0000 H   0  0  0  0  0  0  0  0  0  0  0  0
    5.0852    0.7539    0.0000 H   0  0  0  0  0  0  0  0  0  0  0  0
    6.7282   -3.2947    0.0000 H   0  0  0  0  0  0  0  0  0  0  0  0
    7.2615   -3.8870    0.0000 H   0  0  0  0  0  0  0  0  0  0  0  0
    2.0000   -0.5929    0.0000 H   0  0  0  0  0  0  0  0  0  0  0  0
    2.3318   -1.6142    0.0000 H   0  0  0  0  0  0  0  0  0  0  0  0
  1  7  1  0  0  0  0
  1  8  2  0  0  0  0
  1  9  2  0  0  0  0
  1 15  1  0  0  0  0
  2 29  1  0  0  0  0
  2 30  1  0  0  0  0
  5 24  1  0  0  0  0
  5 27  1  0  0  0  0
  6 23  2  0  0  0  0
 10 25  2  0  0  0  0
 11 27  2  0  0  0  0
 12 17  1  0  0  0  0
 12 31  1  0  0  0  0
 13 32  1  0  0  0  0
 14 32  2  0  0  0  0
 15 21  1  0  0  0  0
 15 23  1  0  0  0  0
 22 16  1  1  0  0  0
 16 25  1  0  0  0  0
 16 37  1  0  0  0  0
 17 26  2  0  0  0  0
 18 27  1  0  0  0  0
 18 38  1  0  0  0  0
 18 39  1  0  0  0  0
 19 28  1  0  0  0  0
 19 30  2  0  0  0  0
 20 30  1  0  0  0  0
 20 43  1  0  0  0  0
 20 44  1  0  0  0  0
 21 22  1  0  0  0  0
 21 24  1  1  0  0  0
 21 33  1  0  0  0  0
 22 23  1  0  0  0  0
 22 34  1  0  0  0  0
 24 35  1  0  0  0  0
 24 36  1  0  0  0  0
 25 26  1  0  0  0  0
 26 28  1  0  0  0  0
 28 29  2  0  0  0  0
 29 40  1  0  0  0  0
 31 32  1  0  0  0  0
 31 41  1  0  0  0  0
 31 42  1  0  0  0  0
M  CHG  4   3   1   4   1   7  -1  13  -1
M  END
> <PUBCHEM_COMPOUND_CID>
9568618

> <PUBCHEM_COMPOUND_CANONICALIZED>
1

> <PUBCHEM_CACTVS_COMPLEXITY>
839

> <PUBCHEM_CACTVS_HBOND_ACCEPTOR>
14

> <PUBCHEM_CACTVS_HBOND_DONOR>
3

> <PUBCHEM_CACTVS_ROTATABLE_BOND>
8

> <PUBCHEM_CACTVS_SUBSKEYS>
AAADccBzvDBgAAAAAAAAAAAAAABYAWAAAAAAAAAAAAAAAAABgAAAHgQUQAAACCjl1gahmRLYFAisAQXyfDIA8KlhCjkAAJX4IBmDYJggxCEdAAAGFgKQACAiAAAAAAAAAAAAAAAAAAAAAAAAAAAAAAAAAA==

> <PUBCHEM_IUPAC_OPENEYE_NAME>
disodium 2-[(Z)-[1-(2-aminothiazol-4-yl)-2-[[(2S,3S)-2-(carbamoyloxymethyl)-4-oxo-1-sulfonato-azetidin-3-yl]amino]-2-oxo-ethylidene]amino]oxyacetate

> <PUBCHEM_IUPAC_CAS_NAME>
disodium 2-[(Z)-[1-(2-amino-4-thiazolyl)-2-[[(2S,3S)-2-(carbamoyloxymethyl)-4-oxo-1-sulfonato-3-azetidinyl]amino]-2-oxoethylidene]amino]oxyacetate

> <PUBCHEM_IUPAC_NAME>
disodium 2-[(Z)-[1-(2-amino-1,3-thiazol-4-yl)-2-[[(2S,3S)-2-(carbamoyloxymethyl)-4-oxo-1-sulfonatoazetidin-3-yl]amino]-2-oxoethylidene]amino]oxyacetate

> <PUBCHEM_IUPAC_SYSTEMATIC_NAME>
disodium 2-[(Z)-[2-[[(2S,3S)-2-(aminocarbonyloxymethyl)-4-oxidanylidene-1-sulfonato-azetidin-3-yl]amino]-1-(2-azanyl-1,3-thiazol-4-yl)-2-oxidanylidene-ethylidene]amino]oxyethanoate

> <PUBCHEM_IUPAC_TRADITIONAL_NAME>
disodium 2-[(Z)-[1-(2-aminothiazol-4-yl)-2-[[(2S,3S)-2-(carbamoyloxymethyl)-4-keto-1-sulfonato-azetidin-3-yl]amino]-2-keto-ethylidene]amino]oxyacetate

> <PUBCHEM_IUPAC_INCHI>
InChI=1S/C12H14N6O10S2.2Na/c13-11-15-4(3-29-11)7(17-28-2-6(19)20)9(21)16-8-5(1-27-12(14)23)18(10(8)22)30(24,25)26;;/h3,5,8H,1-2H2,(H2,13,15)(H2,14,23)(H,16,21)(H,19,20)(H,24,25,26);;/q;2*+1/p-2/b17-7-;;/t5-,8+;;/m1../s1

> <PUBCHEM_IUPAC_INCHIKEY>
BGGXRVPCJUKHTQ-AHCAJXDVSA-L

> <PUBCHEM_EXACT_MASS>
509.985171

> <PUBCHEM_MOLECULAR_FORMULA>
C12H12N6Na2O10S2

> <PUBCHEM_MOLECULAR_WEIGHT>
510.367419

> <PUBCHEM_OPENEYE_CAN_SMILES>
C1=C(N=C(S1)N)C(=NOCC(=O)[O-])C(=O)NC2C(N(C2=O)S(=O)(=O)[O-])COC(=O)N.[Na+].[Na+]

> <PUBCHEM_OPENEYE_ISO_SMILES>
C1=C(N=C(S1)N)/C(=N/OCC(=O)[O-])/C(=O)N[C@H]2[C@H](N(C2=O)S(=O)(=O)[O-])COC(=O)N.[Na+].[Na+]

> <PUBCHEM_CACTVS_TPSA>
296

> <PUBCHEM_MONOISOTOPIC_WEIGHT>
509.985171

> <PUBCHEM_TOTAL_CHARGE>
0

> <PUBCHEM_HEAVY_ATOM_COUNT>
32

> <PUBCHEM_ATOM_DEF_STEREO_COUNT>
2

> <PUBCHEM_ATOM_UDEF_STEREO_COUNT>
0

> <PUBCHEM_BOND_DEF_STEREO_COUNT>
1

> <PUBCHEM_BOND_UDEF_STEREO_COUNT>
0

> <PUBCHEM_ISOTOPIC_ATOM_COUNT>
0

> <PUBCHEM_COMPONENT_COUNT>
3

> <PUBCHEM_CACTVS_TAUTO_COUNT>
28

> <PUBCHEM_COORDINATE_TYPE>
1
5
255

> <PUBCHEM_BONDANNOTATIONS>
22  16  5
19  28  8
19  30  8
2  29  8
2  30  8
21  24  5
28  29  8

$$$$

