543
  -OEChem-07051212452D

 19 19  0     1  0  0  0  0  0999 V2000
    3.9777   -0.2751    0.0000 O   0  0  0  0  0  0  0  0  0  0  0  0
    6.3690    1.0171    0.0000 O   0  0  0  0  0  0  0  0  0  0  0  0
    4.9677    2.0352    0.0000 O   0  0  0  0  0  0  0  0  0  0  0  0
    2.6166    1.8262    0.0000 O   0  0  0  0  0  0  0  0  0  0  0  0
    3.6989   -2.0352    0.0000 O   0  0  0  0  0  0  0  0  0  0  0  0
    2.7976    0.1036    0.0000 O   0  0  0  0  0  0  0  0  0  0  0  0
    4.7867    0.3126    0.0000 C   0  0  3  0  0  0  0  0  0  0  0  0
    4.1989    1.1217    0.0000 C   0  0  0  0  0  0  0  0  0  0  0  0
    5.5957   -0.2751    0.0000 C   0  0  0  0  0  0  0  0  0  0  0  0
    5.3745    1.1217    0.0000 C   0  0  0  0  0  0  0  0  0  0  0  0
    5.2867   -1.2262    0.0000 C   0  0  0  0  0  0  0  0  0  0  0  0
    4.2867   -1.2262    0.0000 C   0  0  0  0  0  0  0  0  0  0  0  0
    3.2044    1.0171    0.0000 C   0  0  0  0  0  0  0  0  0  0  0  0
    4.7562    1.3935    0.0000 H   0  0  0  0  0  0  0  0  0  0  0  0
    4.0280    1.7176    0.0000 H   0  0  0  0  0  0  0  0  0  0  0  0
    6.1854   -0.0835    0.0000 H   0  0  0  0  0  0  0  0  0  0  0  0
    5.6511   -1.7278    0.0000 H   0  0  0  0  0  0  0  0  0  0  0  0
    6.7334    1.5187    0.0000 H   0  0  0  0  0  0  0  0  0  0  0  0
    2.0000    1.7614    0.0000 H   0  0  0  0  0  0  0  0  0  0  0  0
  1  7  1  0  0  0  0
  1 12  1  0  0  0  0
  2 10  1  0  0  0  0
  2 18  1  0  0  0  0
  3 10  2  0  0  0  0
  4 13  1  0  0  0  0
  4 19  1  0  0  0  0
  5 12  2  0  0  0  0
  6 13  2  0  0  0  0
  7  8  1  0  0  0  0
  7  9  1  0  0  0  0
  7 10  1  0  0  0  0
  8 13  1  0  0  0  0
  8 14  1  0  0  0  0
  8 15  1  0  0  0  0
  9 11  2  0  0  0  0
  9 16  1  0  0  0  0
 11 12  1  0  0  0  0
 11 17  1  0  0  0  0
M  END
> <PUBCHEM_COMPOUND_CID>
543

> <PUBCHEM_COMPOUND_CANONICALIZED>
1

> <PUBCHEM_CACTVS_COMPLEXITY>
304

> <PUBCHEM_CACTVS_HBOND_ACCEPTOR>
6

> <PUBCHEM_CACTVS_HBOND_DONOR>
2

> <PUBCHEM_CACTVS_ROTATABLE_BOND>
3

> <PUBCHEM_CACTVS_SUBSKEYS>
AAADcYBgOAAAAAAAAAAAAAAAAAAAAQAAAAAAAAAAAAAAAAAAAAAAGgAACAAADESAgAAACAAABgCIACDSCAIAAAAgAAAICAFAAEgBBBQAIAQCUAAF4AALIYJDAAAIAAAAAAAAAAAAAAAAAAAAAAAAAAAAAA==

> <PUBCHEM_IUPAC_OPENEYE_NAME>
2-(carboxymethyl)-5-oxo-furan-2-carboxylic acid

> <PUBCHEM_IUPAC_CAS_NAME>
2-(carboxymethyl)-5-oxo-2-furancarboxylic acid

> <PUBCHEM_IUPAC_NAME>
2-(carboxymethyl)-5-oxofuran-2-carboxylic acid

> <PUBCHEM_IUPAC_SYSTEMATIC_NAME>
2-(2-hydroxy-2-oxoethyl)-5-oxidanylidene-furan-2-carboxylic acid

> <PUBCHEM_IUPAC_TRADITIONAL_NAME>
2-(carboxymethyl)-5-keto-2-furoic acid

> <PUBCHEM_IUPAC_INCHI>
InChI=1S/C7H6O6/c8-4(9)3-7(6(11)12)2-1-5(10)13-7/h1-2H,3H2,(H,8,9)(H,11,12)

> <PUBCHEM_IUPAC_INCHIKEY>
DHCUIDTZCMREHG-UHFFFAOYSA-N

> <PUBCHEM_XLOGP3_AA>
-0.7

> <PUBCHEM_EXACT_MASS>
186.016438

> <PUBCHEM_MOLECULAR_FORMULA>
C7H6O6

> <PUBCHEM_MOLECULAR_WEIGHT>
186.11894

> <PUBCHEM_OPENEYE_CAN_SMILES>
C1=CC(OC1=O)(CC(=O)O)C(=O)O

> <PUBCHEM_OPENEYE_ISO_SMILES>
C1=CC(OC1=O)(CC(=O)O)C(=O)O

> <PUBCHEM_CACTVS_TPSA>
101

> <PUBCHEM_MONOISOTOPIC_WEIGHT>
186.016438

> <PUBCHEM_TOTAL_CHARGE>
0

> <PUBCHEM_HEAVY_ATOM_COUNT>
13

> <PUBCHEM_ATOM_DEF_STEREO_COUNT>
0

> <PUBCHEM_ATOM_UDEF_STEREO_COUNT>
1

> <PUBCHEM_BOND_DEF_STEREO_COUNT>
0

> <PUBCHEM_BOND_UDEF_STEREO_COUNT>
0

> <PUBCHEM_ISOTOPIC_ATOM_COUNT>
0

> <PUBCHEM_COMPONENT_COUNT>
1

> <PUBCHEM_CACTVS_TAUTO_COUNT>
1

> <PUBCHEM_COORDINATE_TYPE>
1
5
255

> <PUBCHEM_BONDANNOTATIONS>
7  8  3

$$$$

