5280571
  -OEChem-07051212482D

 57 56  0     1  0  0  0  0  0999 V2000
    6.8671    0.0000    0.0000 P   0  0  3  0  0  0  0  0  0  0  0  0
    5.1350    0.0000    0.0000 P   0  0  3  0  0  0  0  0  0  0  0  0
    3.4030    0.0000    0.0000 P   0  0  0  0  0  0  0  0  0  0  0  0
    7.7331   -0.5000    0.0000 O   0  0  0  0  0  0  0  0  0  0  0  0
    6.0010    0.5000    0.0000 O   0  0  0  0  0  0  0  0  0  0  0  0
    7.3671    0.8660    0.0000 O   0  0  0  0  0  0  0  0  0  0  0  0
    6.3671   -0.8660    0.0000 O   0  0  0  0  0  0  0  0  0  0  0  0
    4.2690   -0.5000    0.0000 O   0  0  0  0  0  0  0  0  0  0  0  0
    4.6350    0.8660    0.0000 O   0  0  0  0  0  0  0  0  0  0  0  0
    5.6350   -0.8660    0.0000 O   0  0  0  0  0  0  0  0  0  0  0  0
    2.5369    0.5000    0.0000 O   0  0  0  0  0  0  0  0  0  0  0  0
    2.9030   -0.8660    0.0000 O   0  0  0  0  0  0  0  0  0  0  0  0
    3.9030    0.8660    0.0000 O   0  0  0  0  0  0  0  0  0  0  0  0
   12.0632    0.0000    0.0000 C   0  0  0  0  0  0  0  0  0  0  0  0
   11.1972   -0.5000    0.0000 C   0  0  0  0  0  0  0  0  0  0  0  0
   14.6613   -0.5000    0.0000 C   0  0  0  0  0  0  0  0  0  0  0  0
   13.7953    0.0000    0.0000 C   0  0  0  0  0  0  0  0  0  0  0  0
   12.9292   -0.5000    0.0000 C   0  0  0  0  0  0  0  0  0  0  0  0
   15.5273    0.0000    0.0000 C   0  0  0  0  0  0  0  0  0  0  0  0
   10.3312    0.0000    0.0000 C   0  0  0  0  0  0  0  0  0  0  0  0
   13.7953    1.0000    0.0000 C   0  0  0  0  0  0  0  0  0  0  0  0
   16.3933   -0.5000    0.0000 C   0  0  0  0  0  0  0  0  0  0  0  0
    9.4651   -0.5000    0.0000 C   0  0  0  0  0  0  0  0  0  0  0  0
   10.3312    1.0000    0.0000 C   0  0  0  0  0  0  0  0  0  0  0  0
   17.2594    0.0000    0.0000 C   0  0  0  0  0  0  0  0  0  0  0  0
    8.5991    0.0000    0.0000 C   0  0  0  0  0  0  0  0  0  0  0  0
   18.1254   -0.5000    0.0000 C   0  0  0  0  0  0  0  0  0  0  0  0
   17.2594    1.0000    0.0000 C   0  0  0  0  0  0  0  0  0  0  0  0
   12.4617    0.4749    0.0000 H   0  0  0  0  0  0  0  0  0  0  0  0
   11.6647    0.4749    0.0000 H   0  0  0  0  0  0  0  0  0  0  0  0
   10.7987   -0.9749    0.0000 H   0  0  0  0  0  0  0  0  0  0  0  0
   11.5957   -0.9749    0.0000 H   0  0  0  0  0  0  0  0  0  0  0  0
   14.2628   -0.9749    0.0000 H   0  0  0  0  0  0  0  0  0  0  0  0
   15.0598   -0.9749    0.0000 H   0  0  0  0  0  0  0  0  0  0  0  0
   12.9292   -1.1200    0.0000 H   0  0  0  0  0  0  0  0  0  0  0  0
   15.9258    0.4749    0.0000 H   0  0  0  0  0  0  0  0  0  0  0  0
   15.1288    0.4749    0.0000 H   0  0  0  0  0  0  0  0  0  0  0  0
   14.4153    1.0000    0.0000 H   0  0  0  0  0  0  0  0  0  0  0  0
   13.7953    1.6200    0.0000 H   0  0  0  0  0  0  0  0  0  0  0  0
   13.1753    1.0000    0.0000 H   0  0  0  0  0  0  0  0  0  0  0  0
   16.3933   -1.1200    0.0000 H   0  0  0  0  0  0  0  0  0  0  0  0
    9.4651   -1.1200    0.0000 H   0  0  0  0  0  0  0  0  0  0  0  0
   10.9512    1.0000    0.0000 H   0  0  0  0  0  0  0  0  0  0  0  0
   10.3312    1.6200    0.0000 H   0  0  0  0  0  0  0  0  0  0  0  0
    9.7112    1.0000    0.0000 H   0  0  0  0  0  0  0  0  0  0  0  0
    8.9976    0.4749    0.0000 H   0  0  0  0  0  0  0  0  0  0  0  0
    8.2006    0.4749    0.0000 H   0  0  0  0  0  0  0  0  0  0  0  0
   17.8154   -1.0369    0.0000 H   0  0  0  0  0  0  0  0  0  0  0  0
   18.6623   -0.8100    0.0000 H   0  0  0  0  0  0  0  0  0  0  0  0
   18.4354    0.0369    0.0000 H   0  0  0  0  0  0  0  0  0  0  0  0
   17.8794    1.0000    0.0000 H   0  0  0  0  0  0  0  0  0  0  0  0
   17.2594    1.6200    0.0000 H   0  0  0  0  0  0  0  0  0  0  0  0
   16.6394    1.0000    0.0000 H   0  0  0  0  0  0  0  0  0  0  0  0
    7.0571    1.4030    0.0000 H   0  0  0  0  0  0  0  0  0  0  0  0
    4.9450    1.4030    0.0000 H   0  0  0  0  0  0  0  0  0  0  0  0
    2.0000    0.1900    0.0000 H   0  0  0  0  0  0  0  0  0  0  0  0
    3.2130   -1.4030    0.0000 H   0  0  0  0  0  0  0  0  0  0  0  0
  1  4  1  0  0  0  0
  1  5  1  0  0  0  0
  1  6  1  0  0  0  0
  1  7  2  0  0  0  0
  2  5  1  0  0  0  0
  2  8  1  0  0  0  0
  2  9  1  0  0  0  0
  2 10  2  0  0  0  0
  3  8  1  0  0  0  0
  3 11  1  0  0  0  0
  3 12  1  0  0  0  0
  3 13  2  0  0  0  0
  4 26  1  0  0  0  0
  6 54  1  0  0  0  0
  9 55  1  0  0  0  0
 11 56  1  0  0  0  0
 12 57  1  0  0  0  0
 14 15  1  0  0  0  0
 14 18  1  0  0  0  0
 14 29  1  0  0  0  0
 14 30  1  0  0  0  0
 15 20  1  0  0  0  0
 15 31  1  0  0  0  0
 15 32  1  0  0  0  0
 16 17  1  0  0  0  0
 16 19  1  0  0  0  0
 16 33  1  0  0  0  0
 16 34  1  0  0  0  0
 17 18  2  0  0  0  0
 17 21  1  0  0  0  0
 18 35  1  0  0  0  0
 19 22  1  0  0  0  0
 19 36  1  0  0  0  0
 19 37  1  0  0  0  0
 20 23  2  0  0  0  0
 20 24  1  0  0  0  0
 21 38  1  0  0  0  0
 21 39  1  0  0  0  0
 21 40  1  0  0  0  0
 22 25  2  0  0  0  0
 22 41  1  0  0  0  0
 23 26  1  0  0  0  0
 23 42  1  0  0  0  0
 24 43  1  0  0  0  0
 24 44  1  0  0  0  0
 24 45  1  0  0  0  0
 25 27  1  0  0  0  0
 25 28  1  0  0  0  0
 26 46  1  0  0  0  0
 26 47  1  0  0  0  0
 27 48  1  0  0  0  0
 27 49  1  0  0  0  0
 27 50  1  0  0  0  0
 28 51  1  0  0  0  0
 28 52  1  0  0  0  0
 28 53  1  0  0  0  0
M  END
> <PUBCHEM_COMPOUND_CID>
5280571

> <PUBCHEM_COMPOUND_CANONICALIZED>
1

> <PUBCHEM_CACTVS_COMPLEXITY>
730

> <PUBCHEM_CACTVS_HBOND_ACCEPTOR>
10

> <PUBCHEM_CACTVS_HBOND_DONOR>
4

> <PUBCHEM_CACTVS_ROTATABLE_BOND>
13

> <PUBCHEM_CACTVS_SUBSKEYS>
AAADceBwPAMAAAAAAAAAAAAAAAAAAAAAAAAAAAAAAAAAAAAAAAAAGgAACCAADACggAICAAAAARCAQiBCAIAAAAAgAAAACAAAAAgABAIAAQAAEAAAgAAIAAIAAAAAAAAAAAAAAAAAAAAAAAAAAAAAAAAAAA==

> <PUBCHEM_IUPAC_OPENEYE_NAME>
[hydroxy(phosphonooxy)phosphoryl] [(2E,6E)-3,7,11-trimethyldodeca-2,6,10-trienyl] hydrogen phosphate

> <PUBCHEM_IUPAC_CAS_NAME>
[hydroxy(phosphonooxy)phosphoryl] [(2E,6E)-3,7,11-trimethyldodeca-2,6,10-trienyl] hydrogen phosphate

> <PUBCHEM_IUPAC_NAME>
[hydroxy(phosphonooxy)phosphoryl] [(2E,6E)-3,7,11-trimethyldodeca-2,6,10-trienyl] hydrogen phosphate

> <PUBCHEM_IUPAC_SYSTEMATIC_NAME>
[oxidanyl(phosphonooxy)phosphoryl] [(2E,6E)-3,7,11-trimethyldodeca-2,6,10-trienyl] hydrogen phosphate

> <PUBCHEM_IUPAC_TRADITIONAL_NAME>
[hydroxy(phosphonooxy)phosphoryl] [(2E,6E)-3,7,11-trimethyldodeca-2,6,10-trienyl] hydrogen phosphate

> <PUBCHEM_IUPAC_INCHI>
InChI=1S/C15H29O10P3/c1-13(2)7-5-8-14(3)9-6-10-15(4)11-12-23-27(19,20)25-28(21,22)24-26(16,17)18/h7,9,11H,5-6,8,10,12H2,1-4H3,(H,19,20)(H,21,22)(H2,16,17,18)/b14-9+,15-11+

> <PUBCHEM_IUPAC_INCHIKEY>
QIOOKVHMPPJVHS-YFVJMOTDSA-N

> <PUBCHEM_XLOGP3_AA>
1.5

> <PUBCHEM_EXACT_MASS>
462.097357

> <PUBCHEM_MOLECULAR_FORMULA>
C15H29O10P3

> <PUBCHEM_MOLECULAR_WEIGHT>
462.306046

> <PUBCHEM_OPENEYE_CAN_SMILES>
CC(=CCCC(=CCCC(=CCOP(=O)(O)OP(=O)(O)OP(=O)(O)O)C)C)C

> <PUBCHEM_OPENEYE_ISO_SMILES>
CC(=CCC/C(=C/CC/C(=C/COP(=O)(O)OP(=O)(O)OP(=O)(O)O)/C)/C)C

> <PUBCHEM_CACTVS_TPSA>
160

> <PUBCHEM_MONOISOTOPIC_WEIGHT>
462.097357

> <PUBCHEM_TOTAL_CHARGE>
0

> <PUBCHEM_HEAVY_ATOM_COUNT>
28

> <PUBCHEM_ATOM_DEF_STEREO_COUNT>
0

> <PUBCHEM_ATOM_UDEF_STEREO_COUNT>
0

> <PUBCHEM_BOND_DEF_STEREO_COUNT>
2

> <PUBCHEM_BOND_UDEF_STEREO_COUNT>
0

> <PUBCHEM_ISOTOPIC_ATOM_COUNT>
0

> <PUBCHEM_COMPONENT_COUNT>
1

> <PUBCHEM_CACTVS_TAUTO_COUNT>
1

> <PUBCHEM_COORDINATE_TYPE>
1
5
255

$$$$

