442995
  -OEChem-07051213002D

 82 88  0     1  0  0  0  0  0999 V2000
    6.4392   -2.5279    0.0000 O   0  0  0  0  0  0  0  0  0  0  0  0
    4.0731    1.8381    0.0000 O   0  0  0  0  0  0  0  0  0  0  0  0
    5.2656   -3.5127    0.0000 O   0  0  0  0  0  0  0  0  0  0  0  0
    5.8052    1.8381    0.0000 O   0  0  0  0  0  0  0  0  0  0  0  0
    7.2535   -6.7912    0.0000 N   0  0  0  0  0  0  0  0  0  0  0  0
    5.4995    5.9375    0.0000 N   0  0  0  0  0  0  0  0  0  0  0  0
    8.3828   -6.3085    0.0000 C   0  0  3  0  0  0  0  0  0  0  0  0
    8.6416   -5.3426    0.0000 C   0  0  3  0  0  0  0  0  0  0  0  0
    4.2802    6.0841    0.0000 C   0  0  3  0  0  0  0  0  0  0  0  0
    3.5731    5.3770    0.0000 C   0  0  3  0  0  0  0  0  0  0  0  0
   10.6075   -5.6014    0.0000 C   0  0  0  0  0  0  0  0  0  0  0  0
   10.3487   -6.5674    0.0000 C   0  0  0  0  0  0  0  0  0  0  0  0
    7.9337   -3.4984    0.0000 C   0  0  0  0  0  0  0  0  0  0  0  0
    6.5324   -4.3074    0.0000 C   0  0  0  0  0  0  0  0  0  0  0  0
    2.7071    7.2912    0.0000 C   0  0  0  0  0  0  0  0  0  0  0  0
    2.0000    6.5841    0.0000 C   0  0  0  0  0  0  0  0  0  0  0  0
    6.9392   -3.3939    0.0000 C   0  0  0  0  0  0  0  0  0  0  0  0
    3.2641    3.4259    0.0000 C   0  0  0  0  0  0  0  0  0  0  0  0
    4.8822    3.4259    0.0000 C   0  0  0  0  0  0  0  0  0  0  0  0
    4.0731    2.8381    0.0000 C   0  0  0  0  0  0  0  0  0  0  0  0
    6.3875   -7.2912    0.0000 C   0  0  0  0  0  0  0  0  0  0  0  0
    6.4995    5.9375    0.0000 C   0  0  0  0  0  0  0  0  0  0  0  0
    4.9392   -1.6619    0.0000 C   0  0  1  0  0  0  0  0  0  0  0  0
    4.9392    0.3381    0.0000 C   0  0  2  0  0  0  0  0  0  0  0  0
    4.0731   -1.1619    0.0000 C   0  0  0  0  0  0  0  0  0  0  0  0
    4.0731   -0.1619    0.0000 C   0  0  0  0  0  0  0  0  0  0  0  0
    5.4392   -2.5279    0.0000 C   0  0  0  0  0  0  0  0  0  0  0  0
    5.8052   -1.1619    0.0000 C   0  0  0  0  0  0  0  0  0  0  0  0
    4.9392    1.3381    0.0000 C   0  0  0  0  0  0  0  0  0  0  0  0
    5.8052   -0.1619    0.0000 C   0  0  0  0  0  0  0  0  0  0  0  0
    4.1731   -2.3047    0.0000 C   0  0  0  0  0  0  0  0  0  0  0  0
    6.6991   -1.6965    0.0000 C   0  0  0  0  0  0  0  0  0  0  0  0
    6.6991    0.3728    0.0000 C   0  0  0  0  0  0  0  0  0  0  0  0
    3.2334   -1.9626    0.0000 C   0  0  0  0  0  0  0  0  0  0  0  0
    4.3469   -3.2895    0.0000 C   0  0  0  0  0  0  0  0  0  0  0  0
    7.6052   -1.1827    0.0000 C   0  0  0  0  0  0  0  0  0  0  0  0
    7.6052   -0.1410    0.0000 C   0  0  0  0  0  0  0  0  0  0  0  0
    2.4674   -2.6054    0.0000 C   0  0  0  0  0  0  0  0  0  0  0  0
    3.5808   -3.9323    0.0000 C   0  0  0  0  0  0  0  0  0  0  0  0
    2.6410   -3.5902    0.0000 C   0  0  0  0  0  0  0  0  0  0  0  0
    8.6678   -5.7579    0.0000 H   0  0  0  0  0  0  0  0  0  0  0  0
    9.0254   -4.8557    0.0000 H   0  0  0  0  0  0  0  0  0  0  0  0
    4.5143    6.6582    0.0000 H   0  0  0  0  0  0  0  0  0  0  0  0
    2.9973    5.1472    0.0000 H   0  0  0  0  0  0  0  0  0  0  0  0
   10.2410   -7.1779    0.0000 H   0  0  0  0  0  0  0  0  0  0  0  0
   10.9540   -6.7016    0.0000 H   0  0  0  0  0  0  0  0  0  0  0  0
   11.2128   -5.7356    0.0000 H   0  0  0  0  0  0  0  0  0  0  0  0
   10.7152   -4.9908    0.0000 H   0  0  0  0  0  0  0  0  0  0  0  0
    6.0052   -3.9812    0.0000 H   0  0  0  0  0  0  0  0  0  0  0  0
    6.1381   -4.7859    0.0000 H   0  0  0  0  0  0  0  0  0  0  0  0
    8.5401   -3.3695    0.0000 H   0  0  0  0  0  0  0  0  0  0  0  0
    7.9012   -2.8793    0.0000 H   0  0  0  0  0  0  0  0  0  0  0  0
    3.1056    7.7661    0.0000 H   0  0  0  0  0  0  0  0  0  0  0  0
    2.2500    7.7101    0.0000 H   0  0  0  0  0  0  0  0  0  0  0  0
    1.5429    7.0030    0.0000 H   0  0  0  0  0  0  0  0  0  0  0  0
    1.6015    6.1091    0.0000 H   0  0  0  0  0  0  0  0  0  0  0  0
    7.2768   -2.8739    0.0000 H   0  0  0  0  0  0  0  0  0  0  0  0
    5.1756    2.8798    0.0000 H   0  0  0  0  0  0  0  0  0  0  0  0
    5.4629    3.6431    0.0000 H   0  0  0  0  0  0  0  0  0  0  0  0
    2.6745    3.6175    0.0000 H   0  0  0  0  0  0  0  0  0  0  0  0
    2.9826    2.8735    0.0000 H   0  0  0  0  0  0  0  0  0  0  0  0
    3.5207    2.5567    0.0000 H   0  0  0  0  0  0  0  0  0  0  0  0
    6.0775   -6.7543    0.0000 H   0  0  0  0  0  0  0  0  0  0  0  0
    5.8506   -7.6012    0.0000 H   0  0  0  0  0  0  0  0  0  0  0  0
    6.6975   -7.8281    0.0000 H   0  0  0  0  0  0  0  0  0  0  0  0
    6.4995    5.3175    0.0000 H   0  0  0  0  0  0  0  0  0  0  0  0
    7.1195    5.9375    0.0000 H   0  0  0  0  0  0  0  0  0  0  0  0
    6.4995    6.5575    0.0000 H   0  0  0  0  0  0  0  0  0  0  0  0
    5.4761    0.6481    0.0000 H   0  0  0  0  0  0  0  0  0  0  0  0
    3.4626   -1.0542    0.0000 H   0  0  0  0  0  0  0  0  0  0  0  0
    3.8611   -1.7445    0.0000 H   0  0  0  0  0  0  0  0  0  0  0  0
    3.8611    0.4208    0.0000 H   0  0  0  0  0  0  0  0  0  0  0  0
    3.4626   -0.2695    0.0000 H   0  0  0  0  0  0  0  0  0  0  0  0
    6.6920   -2.3165    0.0000 H   0  0  0  0  0  0  0  0  0  0  0  0
    6.6920    0.9928    0.0000 H   0  0  0  0  0  0  0  0  0  0  0  0
    3.1258   -1.3520    0.0000 H   0  0  0  0  0  0  0  0  0  0  0  0
    4.9295   -3.5015    0.0000 H   0  0  0  0  0  0  0  0  0  0  0  0
    8.1409   -1.4947    0.0000 H   0  0  0  0  0  0  0  0  0  0  0  0
    8.1409    0.1710    0.0000 H   0  0  0  0  0  0  0  0  0  0  0  0
    1.8848   -2.3934    0.0000 H   0  0  0  0  0  0  0  0  0  0  0  0
    3.6884   -4.5429    0.0000 H   0  0  0  0  0  0  0  0  0  0  0  0
    2.1661   -3.9888    0.0000 H   0  0  0  0  0  0  0  0  0  0  0  0
  1 17  1  0  0  0  0
  1 27  1  0  0  0  0
  2 20  1  0  0  0  0
  2 29  1  0  0  0  0
  3 27  2  0  0  0  0
  4 29  2  0  0  0  0
  5  7  1  0  0  0  0
  5  8  1  0  0  0  0
  5 21  1  0  0  0  0
  6  9  1  0  0  0  0
  6 10  1  0  0  0  0
  6 22  1  0  0  0  0
  7 12  1  0  0  0  0
  7 14  1  0  0  0  0
  7 41  1  0  0  0  0
  8 11  1  0  0  0  0
  8 13  1  0  0  0  0
  8 42  1  0  0  0  0
  9 15  1  0  0  0  0
  9 19  1  0  0  0  0
  9 43  1  0  0  0  0
 10 16  1  0  0  0  0
 10 18  1  0  0  0  0
 10 44  1  0  0  0  0
 11 12  1  0  0  0  0
 11 47  1  0  0  0  0
 11 48  1  0  0  0  0
 12 45  1  0  0  0  0
 12 46  1  0  0  0  0
 13 17  1  0  0  0  0
 13 51  1  0  0  0  0
 13 52  1  0  0  0  0
 14 17  1  0  0  0  0
 14 49  1  0  0  0  0
 14 50  1  0  0  0  0
 15 16  1  0  0  0  0
 15 53  1  0  0  0  0
 15 54  1  0  0  0  0
 16 55  1  0  0  0  0
 16 56  1  0  0  0  0
 17 57  1  0  0  0  0
 18 20  1  0  0  0  0
 18 60  1  0  0  0  0
 18 61  1  0  0  0  0
 19 20  1  0  0  0  0
 19 58  1  0  0  0  0
 19 59  1  0  0  0  0
 20 62  1  0  0  0  0
 21 63  1  0  0  0  0
 21 64  1  0  0  0  0
 21 65  1  0  0  0  0
 22 66  1  0  0  0  0
 22 67  1  0  0  0  0
 22 68  1  0  0  0  0
 23 25  1  0  0  0  0
 23 27  1  6  0  0  0
 23 28  1  0  0  0  0
 23 31  1  0  0  0  0
 24 26  1  0  0  0  0
 24 29  1  6  0  0  0
 24 30  1  0  0  0  0
 24 69  1  0  0  0  0
 25 26  1  0  0  0  0
 25 70  1  0  0  0  0
 25 71  1  0  0  0  0
 26 72  1  0  0  0  0
 26 73  1  0  0  0  0
 28 30  1  0  0  0  0
 28 32  2  0  0  0  0
 30 33  2  0  0  0  0
 31 34  2  0  0  0  0
 31 35  1  0  0  0  0
 32 36  1  0  0  0  0
 32 74  1  0  0  0  0
 33 37  1  0  0  0  0
 33 75  1  0  0  0  0
 34 38  1  0  0  0  0
 34 76  1  0  0  0  0
 35 39  2  0  0  0  0
 35 77  1  0  0  0  0
 36 37  2  0  0  0  0
 36 78  1  0  0  0  0
 37 79  1  0  0  0  0
 38 40  2  0  0  0  0
 38 80  1  0  0  0  0
 39 40  1  0  0  0  0
 39 81  1  0  0  0  0
 40 82  1  0  0  0  0
M  END
> <PUBCHEM_COMPOUND_CID>
442995

> <PUBCHEM_COMPOUND_CANONICALIZED>
1

> <PUBCHEM_CACTVS_COMPLEXITY>
922

> <PUBCHEM_CACTVS_HBOND_ACCEPTOR>
6

> <PUBCHEM_CACTVS_HBOND_DONOR>
0

> <PUBCHEM_CACTVS_ROTATABLE_BOND>
7

> <PUBCHEM_CACTVS_SUBSKEYS>
AAADcfB/OAAAAAAAAAAAAAAAAAAAAWLAAAA8eMECBgwAAADBQAAAHgAAAAAADzzhmAYyCIMABACIAiDSCAACAAAgAAAIiAEIAIgIIDKAlRCGIAAmwAGIiAeYyPCPgAAAAAAQAACAAAQAACAAAAAAAAAAAA==

> <PUBCHEM_IUPAC_OPENEYE_NAME>
bis(8-methyl-8-azabicyclo[3.2.1]octan-3-yl) (1S,4S)-1-phenyltetralin-1,4-dicarboxylate

> <PUBCHEM_IUPAC_CAS_NAME>
(1S,4S)-4-phenyl-2,3-dihydro-1H-naphthalene-1,4-dicarboxylic acid bis(8-methyl-8-azabicyclo[3.2.1]octan-3-yl) ester

> <PUBCHEM_IUPAC_NAME>
bis(8-methyl-8-azabicyclo[3.2.1]octan-3-yl) (1S,4S)-4-phenyl-2,3-dihydro-1H-naphthalene-1,4-dicarboxylate

> <PUBCHEM_IUPAC_SYSTEMATIC_NAME>
bis(8-methyl-8-azabicyclo[3.2.1]octan-3-yl) (1S,4S)-4-phenyl-2,3-dihydro-1H-naphthalene-1,4-dicarboxylate

> <PUBCHEM_IUPAC_TRADITIONAL_NAME>
(1S,4S)-1-phenyltetralin-1,4-dicarboxylic acid bis(8-methyl-8-azabicyclo[3.2.1]octan-3-yl) ester

> <PUBCHEM_IUPAC_INCHI>
InChI=1S/C34H42N2O4/c1-35-23-12-13-24(35)19-27(18-23)39-32(37)30-16-17-34(22-8-4-3-5-9-22,31-11-7-6-10-29(30)31)33(38)40-28-20-25-14-15-26(21-28)36(25)2/h3-11,23-28,30H,12-21H2,1-2H3/t23?,24?,25?,26?,27?,28?,30-,34-/m0/s1

> <PUBCHEM_IUPAC_INCHIKEY>
GERIGMSHTUAXSI-KZYONXTKSA-N

> <PUBCHEM_XLOGP3_AA>
6

> <PUBCHEM_EXACT_MASS>
542.314458

> <PUBCHEM_MOLECULAR_FORMULA>
C34H42N2O4

> <PUBCHEM_MOLECULAR_WEIGHT>
542.70828

> <PUBCHEM_OPENEYE_CAN_SMILES>
CN1C2CCC1CC(C2)OC(=O)C3CCC(C4=CC=CC=C34)(C5=CC=CC=C5)C(=O)OC6CC7CCC(C6)N7C

> <PUBCHEM_OPENEYE_ISO_SMILES>
CN1C2CCC1CC(C2)OC(=O)[C@H]3CC[C@@](C4=CC=CC=C34)(C5=CC=CC=C5)C(=O)OC6CC7CCC(C6)N7C

> <PUBCHEM_CACTVS_TPSA>
59.1

> <PUBCHEM_MONOISOTOPIC_WEIGHT>
542.314458

> <PUBCHEM_TOTAL_CHARGE>
0

> <PUBCHEM_HEAVY_ATOM_COUNT>
40

> <PUBCHEM_ATOM_DEF_STEREO_COUNT>
2

> <PUBCHEM_ATOM_UDEF_STEREO_COUNT>
4

> <PUBCHEM_BOND_DEF_STEREO_COUNT>
0

> <PUBCHEM_BOND_UDEF_STEREO_COUNT>
0

> <PUBCHEM_ISOTOPIC_ATOM_COUNT>
0

> <PUBCHEM_COMPONENT_COUNT>
1

> <PUBCHEM_CACTVS_TAUTO_COUNT>
1

> <PUBCHEM_COORDINATE_TYPE>
1
5
255

> <PUBCHEM_BONDANNOTATIONS>
10  16  3
23  27  6
24  29  6
28  30  8
28  32  8
30  33  8
31  34  8
31  35  8
32  36  8
33  37  8
34  38  8
35  39  8
36  37  8
38  40  8
39  40  8
7  12  3
8  11  3
9  15  3

$$$$

