12696
  -OEChem-06261207152D

 29 28  0     0  0  0  0  0  0999 V2000
    3.7321    0.0000    0.0000 P   0  0  0  0  0  0  0  0  0  0  0  0
    4.2321   -0.8660    0.0000 O   0  0  0  0  0  0  0  0  0  0  0  0
    4.5981    0.5000    0.0000 C   0  0  0  0  0  0  0  0  0  0  0  0
    2.8660   -0.5000    0.0000 C   0  0  0  0  0  0  0  0  0  0  0  0
    5.4641    1.0000    0.0000 C   0  0  0  0  0  0  0  0  0  0  0  0
    4.0981    1.3660    0.0000 C   0  0  0  0  0  0  0  0  0  0  0  0
    5.0981   -0.3660    0.0000 C   0  0  0  0  0  0  0  0  0  0  0  0
    2.0000   -1.0000    0.0000 C   0  0  0  0  0  0  0  0  0  0  0  0
    2.3660    0.3660    0.0000 C   0  0  0  0  0  0  0  0  0  0  0  0
    3.3660   -1.3660    0.0000 C   0  0  0  0  0  0  0  0  0  0  0  0
    3.4221    0.5369    0.0000 H   0  0  0  0  0  0  0  0  0  0  0  0
    5.1541    1.5369    0.0000 H   0  0  0  0  0  0  0  0  0  0  0  0
    6.0010    1.3100    0.0000 H   0  0  0  0  0  0  0  0  0  0  0  0
    5.7741    0.4631    0.0000 H   0  0  0  0  0  0  0  0  0  0  0  0
    3.5611    1.0560    0.0000 H   0  0  0  0  0  0  0  0  0  0  0  0
    3.7881    1.9030    0.0000 H   0  0  0  0  0  0  0  0  0  0  0  0
    4.6350    1.6760    0.0000 H   0  0  0  0  0  0  0  0  0  0  0  0
    5.6350   -0.0560    0.0000 H   0  0  0  0  0  0  0  0  0  0  0  0
    5.4081   -0.9030    0.0000 H   0  0  0  0  0  0  0  0  0  0  0  0
    4.5611   -0.6760    0.0000 H   0  0  0  0  0  0  0  0  0  0  0  0
    2.3100   -1.5369    0.0000 H   0  0  0  0  0  0  0  0  0  0  0  0
    1.4631   -1.3100    0.0000 H   0  0  0  0  0  0  0  0  0  0  0  0
    1.6900   -0.4631    0.0000 H   0  0  0  0  0  0  0  0  0  0  0  0
    1.8291    0.0560    0.0000 H   0  0  0  0  0  0  0  0  0  0  0  0
    2.0560    0.9030    0.0000 H   0  0  0  0  0  0  0  0  0  0  0  0
    2.9030    0.6760    0.0000 H   0  0  0  0  0  0  0  0  0  0  0  0
    3.9030   -1.0560    0.0000 H   0  0  0  0  0  0  0  0  0  0  0  0
    3.6760   -1.9030    0.0000 H   0  0  0  0  0  0  0  0  0  0  0  0
    2.8291   -1.6760    0.0000 H   0  0  0  0  0  0  0  0  0  0  0  0
  1  2  2  0  0  0  0
  1  3  1  0  0  0  0
  1  4  1  0  0  0  0
  1 11  1  0  0  0  0
  3  5  1  0  0  0  0
  3  6  1  0  0  0  0
  3  7  1  0  0  0  0
  4  8  1  0  0  0  0
  4  9  1  0  0  0  0
  4 10  1  0  0  0  0
  5 12  1  0  0  0  0
  5 13  1  0  0  0  0
  5 14  1  0  0  0  0
  6 15  1  0  0  0  0
  6 16  1  0  0  0  0
  6 17  1  0  0  0  0
  7 18  1  0  0  0  0
  7 19  1  0  0  0  0
  7 20  1  0  0  0  0
  8 21  1  0  0  0  0
  8 22  1  0  0  0  0
  8 23  1  0  0  0  0
  9 24  1  0  0  0  0
  9 25  1  0  0  0  0
  9 26  1  0  0  0  0
 10 27  1  0  0  0  0
 10 28  1  0  0  0  0
 10 29  1  0  0  0  0
M  END
> <PUBCHEM_COMPOUND_CID>
12696

> <PUBCHEM_COMPOUND_CANONICALIZED>
1

> <PUBCHEM_CACTVS_COMPLEXITY>
120

> <PUBCHEM_CACTVS_HBOND_ACCEPTOR>
1

> <PUBCHEM_CACTVS_HBOND_DONOR>
0

> <PUBCHEM_CACTVS_ROTATABLE_BOND>
2

> <PUBCHEM_CACTVS_SUBSKEYS>
AAADceBwIAIAAAAAAAAAAAAAAAAAAAAAAAAAAAAAAAAAAAAAAAAAGAgAACAQDACAAAACAAAAACAAQAAAAAAAAAAAAAAAAAAAAAAAAAAAAAAAAAAAAAAAAAAAAAAAAAAAAAAAAAAAAAAAAAAAAAAAAAAAAA==

> <PUBCHEM_IUPAC_OPENEYE_NAME>
2-tert-butylphosphonoyl-2-methyl-propane

> <PUBCHEM_IUPAC_CAS_NAME>
2-tert-butylphosphonoyl-2-methylpropane

> <PUBCHEM_IUPAC_NAME>
2-tert-butylphosphonoyl-2-methylpropane

> <PUBCHEM_IUPAC_SYSTEMATIC_NAME>
2-tert-butylphosphonoyl-2-methyl-propane

> <PUBCHEM_IUPAC_TRADITIONAL_NAME>
2-tert-butylphosphonoyl-2-methyl-propane

> <PUBCHEM_IUPAC_INCHI>
InChI=1S/C8H19OP/c1-7(2,3)10(9)8(4,5)6/h10H,1-6H3

> <PUBCHEM_IUPAC_INCHIKEY>
RYLNFGJYRKJXQE-UHFFFAOYSA-N

> <PUBCHEM_XLOGP3_AA>
1.3

> <PUBCHEM_EXACT_MASS>
162.117352

> <PUBCHEM_MOLECULAR_FORMULA>
C8H19OP

> <PUBCHEM_MOLECULAR_WEIGHT>
162.209622

> <PUBCHEM_OPENEYE_CAN_SMILES>
CC(C)(C)P(=O)C(C)(C)C

> <PUBCHEM_OPENEYE_ISO_SMILES>
CC(C)(C)P(=O)C(C)(C)C

> <PUBCHEM_CACTVS_TPSA>
17.1

> <PUBCHEM_MONOISOTOPIC_WEIGHT>
162.117352

> <PUBCHEM_TOTAL_CHARGE>
0

> <PUBCHEM_HEAVY_ATOM_COUNT>
10

> <PUBCHEM_ATOM_DEF_STEREO_COUNT>
0

> <PUBCHEM_ATOM_UDEF_STEREO_COUNT>
0

> <PUBCHEM_BOND_DEF_STEREO_COUNT>
0

> <PUBCHEM_BOND_UDEF_STEREO_COUNT>
0

> <PUBCHEM_ISOTOPIC_ATOM_COUNT>
0

> <PUBCHEM_COMPONENT_COUNT>
1

> <PUBCHEM_CACTVS_TAUTO_COUNT>
2

> <PUBCHEM_COORDINATE_TYPE>
1
5
255

$$$$

