104987
  -OEChem-07051213133D

 32 36  0     0  0  0  0  0  0999 V2000
   -2.0879    0.0289   -0.0003 C   0  0  0  0  0  0  0  0  0  0  0  0
   -1.2959    1.1457   -0.0002 C   0  0  0  0  0  0  0  0  0  0  0  0
    0.0960    1.0114    0.0001 C   0  0  0  0  0  0  0  0  0  0  0  0
    0.6720   -0.3005    0.0001 C   0  0  0  0  0  0  0  0  0  0  0  0
   -1.6217   -1.2768   -0.0001 C   0  0  0  0  0  0  0  0  0  0  0  0
   -3.4107    0.3881   -0.0004 C   0  0  0  0  0  0  0  0  0  0  0  0
   -0.2194   -1.4238    0.0002 C   0  0  0  0  0  0  0  0  0  0  0  0
    2.1063   -0.4282    0.0000 C   0  0  0  0  0  0  0  0  0  0  0  0
   -2.2024    2.2963   -0.0003 C   0  0  0  0  0  0  0  0  0  0  0  0
    2.9107    0.7423    0.0003 C   0  0  0  0  0  0  0  0  0  0  0  0
    0.9276    2.1380    0.0005 C   0  0  0  0  0  0  0  0  0  0  0  0
   -3.4675    1.8406   -0.0004 C   0  0  0  0  0  0  0  0  0  0  0  0
   -2.6082   -2.2836    0.0005 C   0  0  0  0  0  0  0  0  0  0  0  0
    2.3115    2.0035    0.0007 C   0  0  0  0  0  0  0  0  0  0  0  0
   -4.3846   -0.5924    0.0000 C   0  0  0  0  0  0  0  0  0  0  0  0
   -3.9751   -1.9362    0.0005 C   0  0  0  0  0  0  0  0  0  0  0  0
    2.7954   -1.6677   -0.0002 C   0  0  0  0  0  0  0  0  0  0  0  0
    4.3130    0.6489    0.0001 C   0  0  0  0  0  0  0  0  0  0  0  0
    4.1908   -1.7468   -0.0004 C   0  0  0  0  0  0  0  0  0  0  0  0
    4.9501   -0.5877   -0.0005 C   0  0  0  0  0  0  0  0  0  0  0  0
    0.1701   -2.4393    0.0004 H   0  0  0  0  0  0  0  0  0  0  0  0
   -1.8934    3.3284   -0.0003 H   0  0  0  0  0  0  0  0  0  0  0  0
    0.5124    3.1432    0.0006 H   0  0  0  0  0  0  0  0  0  0  0  0
   -4.3721    2.4252   -0.0005 H   0  0  0  0  0  0  0  0  0  0  0  0
   -2.3238   -3.3327    0.0009 H   0  0  0  0  0  0  0  0  0  0  0  0
    2.9189    2.9069    0.0009 H   0  0  0  0  0  0  0  0  0  0  0  0
   -5.4399   -0.3410    0.0001 H   0  0  0  0  0  0  0  0  0  0  0  0
   -4.7248   -2.7235    0.0009 H   0  0  0  0  0  0  0  0  0  0  0  0
    2.2565   -2.6115   -0.0003 H   0  0  0  0  0  0  0  0  0  0  0  0
    4.9274    1.5477    0.0002 H   0  0  0  0  0  0  0  0  0  0  0  0
    4.6783   -2.7173   -0.0007 H   0  0  0  0  0  0  0  0  0  0  0  0
    6.0343   -0.6434   -0.0008 H   0  0  0  0  0  0  0  0  0  0  0  0
  1  2  2  0  0  0  0
  1  5  1  0  0  0  0
  1  6  1  0  0  0  0
  2  3  1  0  0  0  0
  2  9  1  0  0  0  0
  3  4  2  0  0  0  0
  3 11  1  0  0  0  0
  4  7  1  0  0  0  0
  4  8  1  0  0  0  0
  5  7  2  0  0  0  0
  5 13  1  0  0  0  0
  6 12  1  0  0  0  0
  6 15  2  0  0  0  0
  7 21  1  0  0  0  0
  8 10  1  0  0  0  0
  8 17  2  0  0  0  0
  9 12  2  0  0  0  0
  9 22  1  0  0  0  0
 10 14  1  0  0  0  0
 10 18  2  0  0  0  0
 11 14  2  0  0  0  0
 11 23  1  0  0  0  0
 12 24  1  0  0  0  0
 13 16  2  0  0  0  0
 13 25  1  0  0  0  0
 14 26  1  0  0  0  0
 15 16  1  0  0  0  0
 15 27  1  0  0  0  0
 16 28  1  0  0  0  0
 17 19  1  0  0  0  0
 17 29  1  0  0  0  0
 18 20  1  0  0  0  0
 18 30  1  0  0  0  0
 19 20  2  0  0  0  0
 19 31  1  0  0  0  0
 20 32  1  0  0  0  0
M  END
> <PUBCHEM_COMPOUND_CID>
104987

> <PUBCHEM_CONFORMER_RMSD>
0.6

> <PUBCHEM_CONFORMER_DIVERSEORDER>
1

> <PUBCHEM_MMFF94_PARTIAL_CHARGES>
26
11 -0.15
12 -0.18
13 -0.15
14 -0.15
15 -0.15
16 -0.15
17 -0.15
18 -0.15
19 -0.15
2 0.03
20 -0.15
21 0.15
22 0.15
23 0.15
24 0.15
25 0.15
26 0.15
27 0.15
28 0.15
29 0.15
30 0.15
31 0.15
32 0.15
6 0.03
7 -0.15
9 -0.18

> <PUBCHEM_EFFECTIVE_ROTOR_COUNT>
0

> <PUBCHEM_PHARMACOPHORE_FEATURES>
5
5 1 2 6 9 12 rings
6 1 2 3 4 5 7 rings
6 1 5 6 13 15 16 rings
6 3 4 8 10 11 14 rings
6 8 10 17 18 19 20 rings

> <PUBCHEM_HEAVY_ATOM_COUNT>
20

> <PUBCHEM_ATOM_DEF_STEREO_COUNT>
0

> <PUBCHEM_ATOM_UDEF_STEREO_COUNT>
0

> <PUBCHEM_BOND_DEF_STEREO_COUNT>
0

> <PUBCHEM_BOND_UDEF_STEREO_COUNT>
0

> <PUBCHEM_ISOTOPIC_ATOM_COUNT>
0

> <PUBCHEM_COMPONENT_COUNT>
1

> <PUBCHEM_CACTVS_TAUTO_COUNT>
1

> <PUBCHEM_CONFORMER_ID>
00019A1B00000001

> <PUBCHEM_MMFF94_ENERGY>
82.4554

> <PUBCHEM_FEATURE_SELFOVERLAP>
25.643

> <PUBCHEM_SHAPE_FINGERPRINT>
10062212 137 18335708251427887207
10319926 262 18191891079165736610
10411042 1 18194682562678807459
10493431 412 18118675767797658393
10608611 8 18409451370947668824
10616163 171 18409165502224838638
10693767 8 17971776384537085247
10967382 1 18266740190463771045
1100329 8 16607723787350101744
11578080 2 17169569418906822139
11806522 49 18413108333979063700
12107183 9 17764593509616663514
12236239 1 17918273177928796750
12403259 226 18337115579188515785
13140716 1 18408600374875836329
13288520 33 18408882958127929126
13675066 3 18113344111032862336
138480 1 15240321739182781089
14223421 5 18337957774808678809
14341114 176 18410285913115542921
14790565 3 17760923339550757633
14866123 147 17035276524958779546
15196674 1 18410574002695369156
15209289 33 18273211997593895459
15352361 1 18410575067557212182
15442244 35 18410856589899733016
15536298 74 18335703814969205088
16945 1 18266740173415933061
17492 89 18410855443075822122
17804303 29 18408882940631698125
1813 80 17346598577897078628
19141452 34 18410571829421058765
19591789 44 18411419535426727474
200 152 18041002817288461511
20510252 161 18333730247410927281
21267235 1 18411129225675882674
21421861 104 17700419358379130362
21501502 16 18411132507020210965
221490 88 18341044104148150282
23175994 123 17167859781320540032
2334 1 18410573950818106029
23366157 5 18059295340827224956
23402539 116 18334583434353788007
23463225 33 18411135822777018612
23557571 272 18260540152296549462
23559900 14 18336553733073240728
2748010 2 18338521811900398989
2871803 45 18342746182381280047
335352 9 18338516455991863133
34934 24 18340493369392922586
350125 39 18410852175095748689
4214541 1 18410856589757392608
4409770 3 17483130619081394788
474 4 17274250631485888388
4921388 177 16271634599356800771
5104073 3 18409450301817051296
559249 180 18270406125825019330
633830 44 16845564344528449716
7364860 26 18263646165223660192
77779 3 18410854373844372758
8809292 202 18342736286787179803
9709674 26 18410288103744562358
9981440 41 17406831783398842512

> <PUBCHEM_SHAPE_MULTIPOLES>
411.59
8.97
2.62
0.62
3.6
0.24
0
-2.52
0
-0.95
0
0
0
0

> <PUBCHEM_SHAPE_SELFOVERLAP>
972.937

> <PUBCHEM_SHAPE_VOLUME>
192.2

> <PUBCHEM_COORDINATE_TYPE>
2
5
10

$$$$

