3032417
  -OEChem-07051213093D

 16 17  0     0  0  0  0  0  0999 V2000
   -0.9032   -3.0320    0.0000 S   0  0  0  0  0  0  0  0  0  0  0  0
    3.6979    0.3320   -0.0009 O   0  0  0  0  0  0  0  0  0  0  0  0
   -3.2100    1.3967   -0.0005 O   0  0  0  0  0  0  0  0  0  0  0  0
    1.6670   -0.9128   -0.0001 N   0  0  0  0  0  0  0  0  0  0  0  0
    1.5372    1.3364    0.0003 N   0  0  0  0  0  0  0  0  0  0  0  0
   -0.9020    1.4820    0.0003 N   0  0  0  0  0  0  0  0  0  0  0  0
   -2.0229   -0.5969   -0.0002 N   0  0  0  0  0  0  0  0  0  0  0  0
    0.3563   -0.5255    0.0006 C   0  0  0  0  0  0  0  0  0  0  0  0
    0.2758    0.8068    0.0005 C   0  0  0  0  0  0  0  0  0  0  0  0
   -0.8489   -1.3604    0.0001 C   0  0  0  0  0  0  0  0  0  0  0  0
    2.4790    0.2620    0.0001 C   0  0  0  0  0  0  0  0  0  0  0  0
   -2.1263    0.8117   -0.0002 C   0  0  0  0  0  0  0  0  0  0  0  0
    1.9918   -1.8717   -0.0006 H   0  0  0  0  0  0  0  0  0  0  0  0
    1.7498    2.3262    0.0001 H   0  0  0  0  0  0  0  0  0  0  0  0
   -0.8811    2.4968    0.0002 H   0  0  0  0  0  0  0  0  0  0  0  0
   -2.8987   -1.1124   -0.0006 H   0  0  0  0  0  0  0  0  0  0  0  0
  1 10  2  0  0  0  0
  2 11  2  0  0  0  0
  3 12  2  0  0  0  0
  4  8  1  0  0  0  0
  4 11  1  0  0  0  0
  4 13  1  0  0  0  0
  5  9  1  0  0  0  0
  5 11  1  0  0  0  0
  5 14  1  0  0  0  0
  6  9  1  0  0  0  0
  6 12  1  0  0  0  0
  6 15  1  0  0  0  0
  7 10  1  0  0  0  0
  7 12  1  0  0  0  0
  7 16  1  0  0  0  0
  8  9  2  0  0  0  0
  8 10  1  0  0  0  0
M  END
> <PUBCHEM_COMPOUND_CID>
3032417

> <PUBCHEM_CONFORMER_RMSD>
0.4

> <PUBCHEM_CONFORMER_DIVERSEORDER>
1

> <PUBCHEM_MMFF94_PARTIAL_CHARGES>
16
1 -0.38
10 0.43
11 0.69
12 0.69
13 0.37
14 0.37
15 0.37
16 0.37
2 -0.57
3 -0.57
4 -0.54
5 -0.54
6 -0.54
7 -0.49
8 0.12
9 0.22

> <PUBCHEM_EFFECTIVE_ROTOR_COUNT>
0

> <PUBCHEM_PHARMACOPHORE_FEATURES>
9
1 1 acceptor
1 2 acceptor
1 3 acceptor
1 4 donor
1 5 donor
1 6 donor
1 7 donor
5 4 5 8 9 11 rings
6 6 7 8 9 10 12 rings

> <PUBCHEM_HEAVY_ATOM_COUNT>
12

> <PUBCHEM_ATOM_DEF_STEREO_COUNT>
0

> <PUBCHEM_ATOM_UDEF_STEREO_COUNT>
0

> <PUBCHEM_BOND_DEF_STEREO_COUNT>
0

> <PUBCHEM_BOND_UDEF_STEREO_COUNT>
0

> <PUBCHEM_ISOTOPIC_ATOM_COUNT>
0

> <PUBCHEM_COMPONENT_COUNT>
1

> <PUBCHEM_CACTVS_TAUTO_COUNT>
24

> <PUBCHEM_CONFORMER_ID>
002E456100000001

> <PUBCHEM_MMFF94_ENERGY>
39.3417

> <PUBCHEM_FEATURE_SELFOVERLAP>
45.899

> <PUBCHEM_SHAPE_FINGERPRINT>
1 1 18195247951819679599
12138202 97 18411981351598278398
12716758 59 18336268950850016098
13380535 76 18335704965788578774
14325111 11 18410574023827502657
16945 1 18338798896929890150
193761 8 17906453229808003073
20645476 183 17987777683991344718
20871998 184 18116708517439699927
21040471 1 18410856559645090309
21501502 16 18195808462337204124
23235685 24 18337115656307724141
23402539 116 18262531286160597471
23402655 69 18192164891820960245
23552423 10 17984705515411696748
23559900 14 18334009489880337148
241688 4 16392962799715260515
2748010 2 18339353179760893903
528886 8 18410580620992156553
54173680 148 18267584602620297170
6333449 129 18409451358030806560
7364860 26 17832146391456669271
81228 2 18123759651438818427

> <PUBCHEM_SHAPE_MULTIPOLES>
219.14
4.09
2.41
0.58
2.19
1.84
0
-1.39
0
-1.75
0
-0.02
0.05
0

> <PUBCHEM_SHAPE_SELFOVERLAP>
466.071

> <PUBCHEM_SHAPE_VOLUME>
123.8

> <PUBCHEM_COORDINATE_TYPE>
2
5
10

$$$$

