9809914
  -OEChem-07051213123D

 49 51  0     1  0  0  0  0  0999 V2000
   -4.4654   -2.5642   -1.0062 Br  0  0  0  0  0  0  0  0  0  0  0  0
   -0.8386   -2.4601   -1.3706 Br  0  0  0  0  0  0  0  0  0  0  0  0
   -0.7237   -1.7370    1.7676 Br  0  0  0  0  0  0  0  0  0  0  0  0
   -2.2091   -4.3915    0.8308 Br  0  0  0  0  0  0  0  0  0  0  0  0
   -0.9639    1.4822   -0.4768 O   0  0  0  0  0  0  0  0  0  0  0  0
   -1.8081    2.9147    1.1305 O   0  0  0  0  0  0  0  0  0  0  0  0
    3.2396   -0.3035    1.5014 O   0  0  0  0  0  0  0  0  0  0  0  0
    0.4510    2.2780   -3.4608 N   0  0  0  0  0  0  0  0  0  0  0  0
   -4.1108    0.7198    0.2427 C   0  0  0  0  0  0  0  0  0  0  0  0
   -3.0643   -0.2722   -0.1733 C   0  0  1  0  0  0  0  0  0  0  0  0
   -2.7486    0.7581    0.8710 C   0  0  1  0  0  0  0  0  0  0  0  0
   -3.1713   -1.6968    0.2323 C   0  0  2  0  0  0  0  0  0  0  0  0
   -5.2467    0.2593    1.0919 C   0  0  0  0  0  0  0  0  0  0  0  0
   -4.4866    1.7734   -0.7432 C   0  0  0  0  0  0  0  0  0  0  0  0
   -1.7958    1.8469    0.5352 C   0  0  0  0  0  0  0  0  0  0  0  0
   -1.8497   -2.5045    0.3170 C   0  0  0  0  0  0  0  0  0  0  0  0
   -0.0064    2.4745   -0.8704 C   0  0  1  0  0  0  0  0  0  0  0  0
    1.2380    2.3298   -0.0618 C   0  0  0  0  0  0  0  0  0  0  0  0
    0.2435    2.3645   -2.3222 C   0  0  0  0  0  0  0  0  0  0  0  0
    1.6615    1.0652    0.3470 C   0  0  0  0  0  0  0  0  0  0  0  0
    1.9787    3.4595    0.2859 C   0  0  0  0  0  0  0  0  0  0  0  0
    2.8258    0.9302    1.1031 C   0  0  0  0  0  0  0  0  0  0  0  0
    3.1430    3.3246    1.0421 C   0  0  0  0  0  0  0  0  0  0  0  0
    3.5664    2.0599    1.4507 C   0  0  0  0  0  0  0  0  0  0  0  0
    3.2150   -1.3240    0.5654 C   0  0  0  0  0  0  0  0  0  0  0  0
    3.7004   -1.1005   -0.7230 C   0  0  0  0  0  0  0  0  0  0  0  0
    2.7047   -2.5752    0.9111 C   0  0  0  0  0  0  0  0  0  0  0  0
    3.6758   -2.1283   -1.6657 C   0  0  0  0  0  0  0  0  0  0  0  0
    2.6800   -3.6031   -0.0316 C   0  0  0  0  0  0  0  0  0  0  0  0
    3.1655   -3.3796   -1.3200 C   0  0  0  0  0  0  0  0  0  0  0  0
   -2.6681   -0.1575   -1.1758 H   0  0  0  0  0  0  0  0  0  0  0  0
   -2.7058    0.4584    1.9132 H   0  0  0  0  0  0  0  0  0  0  0  0
   -3.6765   -1.8066    1.1975 H   0  0  0  0  0  0  0  0  0  0  0  0
   -5.9655   -0.3263    0.5106 H   0  0  0  0  0  0  0  0  0  0  0  0
   -4.9419   -0.3267    1.9642 H   0  0  0  0  0  0  0  0  0  0  0  0
   -5.7876    1.1264    1.4900 H   0  0  0  0  0  0  0  0  0  0  0  0
   -5.3447    1.4477   -1.3415 H   0  0  0  0  0  0  0  0  0  0  0  0
   -4.7663    2.6993   -0.2289 H   0  0  0  0  0  0  0  0  0  0  0  0
   -3.6802    2.0125   -1.4450 H   0  0  0  0  0  0  0  0  0  0  0  0
   -0.4351    3.4731   -0.7079 H   0  0  0  0  0  0  0  0  0  0  0  0
    1.0833    0.1892    0.0703 H   0  0  0  0  0  0  0  0  0  0  0  0
    1.6613    4.4508   -0.0267 H   0  0  0  0  0  0  0  0  0  0  0  0
    3.7201    4.2041    1.3125 H   0  0  0  0  0  0  0  0  0  0  0  0
    4.4745    1.9609    2.0391 H   0  0  0  0  0  0  0  0  0  0  0  0
    4.1230   -0.1422   -1.0129 H   0  0  0  0  0  0  0  0  0  0  0  0
    2.3388   -2.7597    1.9170 H   0  0  0  0  0  0  0  0  0  0  0  0
    4.0578   -1.9559   -2.6677 H   0  0  0  0  0  0  0  0  0  0  0  0
    2.2844   -4.5778    0.2384 H   0  0  0  0  0  0  0  0  0  0  0  0
    3.1469   -4.1802   -2.0536 H   0  0  0  0  0  0  0  0  0  0  0  0
  1 12  1  0  0  0  0
  2 16  1  0  0  0  0
  3 16  1  0  0  0  0
  4 16  1  0  0  0  0
  5 15  1  0  0  0  0
  5 17  1  0  0  0  0
  6 15  2  0  0  0  0
  7 22  1  0  0  0  0
  7 25  1  0  0  0  0
  8 19  3  0  0  0  0
  9 10  1  0  0  0  0
  9 11  1  0  0  0  0
  9 13  1  0  0  0  0
  9 14  1  0  0  0  0
 10 11  1  0  0  0  0
 10 12  1  0  0  0  0
 10 31  1  0  0  0  0
 11 15  1  0  0  0  0
 11 32  1  0  0  0  0
 12 16  1  0  0  0  0
 12 33  1  0  0  0  0
 13 34  1  0  0  0  0
 13 35  1  0  0  0  0
 13 36  1  0  0  0  0
 14 37  1  0  0  0  0
 14 38  1  0  0  0  0
 14 39  1  0  0  0  0
 17 18  1  0  0  0  0
 17 19  1  0  0  0  0
 17 40  1  0  0  0  0
 18 20  2  0  0  0  0
 18 21  1  0  0  0  0
 20 22  1  0  0  0  0
 20 41  1  0  0  0  0
 21 23  2  0  0  0  0
 21 42  1  0  0  0  0
 22 24  2  0  0  0  0
 23 24  1  0  0  0  0
 23 43  1  0  0  0  0
 24 44  1  0  0  0  0
 25 26  2  0  0  0  0
 25 27  1  0  0  0  0
 26 28  1  0  0  0  0
 26 45  1  0  0  0  0
 27 29  2  0  0  0  0
 27 46  1  0  0  0  0
 28 30  2  0  0  0  0
 28 47  1  0  0  0  0
 29 30  1  0  0  0  0
 29 48  1  0  0  0  0
 30 49  1  0  0  0  0
M  END
> <PUBCHEM_COMPOUND_CID>
9809914

> <PUBCHEM_CONFORMER_RMSD>
1.6

> <PUBCHEM_CONFORMER_DIVERSEORDER>
1
106
103
22
86
45
48
82
73
6
57
107
70
94
10
87
33
118
47
90
108
38
31
75
54
21
50
28
11
64
34
112
81
49
44
72
99
40
91
97
110
79
25
127
68
39
111
27
18
104
67
102
17
35
93
105
52
26
15
37
20
129
4
9
8
109
120
30
63
69
29
62
65
76
19
5
51
32
95
46
119
60
101
125
100
66
43
128
61
78
36
117
3
122
41
12
16
53
74
77
13
14
83
84
124
42
121
58
55
88
85
7
23
59
2
123
92
114
98
56
80
126
71
96
113
115
24
89
116

> <PUBCHEM_MMFF94_PARTIAL_CHARGES>
41
1 -0.23
10 -0.19
11 -0.1
12 0.32
13 0.09
14 0.09
15 0.72
16 0.69
17 0.62
18 -0.14
19 0.36
2 -0.23
20 -0.15
21 -0.15
22 0.08
23 -0.15
24 -0.15
25 0.08
26 -0.15
27 -0.15
28 -0.15
29 -0.15
3 -0.23
30 -0.15
31 0.1
32 0.1
4 -0.23
41 0.15
42 0.15
43 0.15
44 0.15
45 0.15
46 0.15
47 0.15
48 0.15
49 0.15
5 -0.43
6 -0.57
7 -0.17
8 -0.56
9 -0.19

> <PUBCHEM_EFFECTIVE_ROTOR_COUNT>
8.6

> <PUBCHEM_PHARMACOPHORE_FEATURES>
11
1 1 hydrophobe
1 2 hydrophobe
1 3 hydrophobe
1 4 hydrophobe
1 6 acceptor
1 7 acceptor
1 8 acceptor
3 9 13 14 hydrophobe
4 2 3 4 16 hydrophobe
6 18 20 21 22 23 24 rings
6 25 26 27 28 29 30 rings

> <PUBCHEM_HEAVY_ATOM_COUNT>
30

> <PUBCHEM_ATOM_DEF_STEREO_COUNT>
0

> <PUBCHEM_ATOM_UDEF_STEREO_COUNT>
4

> <PUBCHEM_BOND_DEF_STEREO_COUNT>
0

> <PUBCHEM_BOND_UDEF_STEREO_COUNT>
0

> <PUBCHEM_ISOTOPIC_ATOM_COUNT>
0

> <PUBCHEM_COMPONENT_COUNT>
1

> <PUBCHEM_CACTVS_TAUTO_COUNT>
1

> <PUBCHEM_CONFORMER_ID>
0095AFFA00000001

> <PUBCHEM_MMFF94_ENERGY>
84.9679

> <PUBCHEM_FEATURE_SELFOVERLAP>
56.765

> <PUBCHEM_SHAPE_FINGERPRINT>
10616163 171 18122347873907584969
11513181 2 18040996198269729095
12156800 1 16093121392032900506
12422481 6 18267047002164841648
12788726 201 17834945752694240002
13122387 1 18193276527423747306
13140716 1 18266467511980990210
13402501 40 18118963835127116534
13533116 47 18186803595418698633
13583140 156 17532391780647672977
13642711 20 17764618768524793575
14725015 67 18050014590230069155
14863182 85 18051124800853429316
15210252 30 17774422950464270654
15664445 248 17560786750324197380
17974551 9 17460039689202295304
1813 80 17775279495496939789
19319366 153 15899260501028199064
19930381 70 18335709286721117139
20691752 17 17917439721606654323
23559900 14 18333736810005216384
25222932 49 17533224055320474901
25265897 201 17242434235148310783
35225 105 17623570160986138430
4403749 210 17832168038440807048
463206 1 16897933756952910347
6287921 2 18195235625269022538
9709674 26 18337673009976794411

> <PUBCHEM_SHAPE_MULTIPOLES>
618.57
8.74
5.84
1.97
4.84
2.29
-1.28
1.21
1.1
-2.12
-0.55
-0.76
-0.54
1.08

> <PUBCHEM_SHAPE_SELFOVERLAP>
1252.631

> <PUBCHEM_SHAPE_VOLUME>
370.7

> <PUBCHEM_COORDINATE_TYPE>
2
5
10

$$$$

