11219
  -OEChem-06261205243D

 63 67  0     1  0  0  0  0  0999 V2000
    1.8238   -1.4650    0.4759 O   0  0  0  0  0  0  0  0  0  0  0  0
   -4.6332   -1.2264    0.9707 O   0  0  0  0  0  0  0  0  0  0  0  0
   -4.1336    0.4331    2.6167 O   0  0  0  0  0  0  0  0  0  0  0  0
   -5.9669   -0.1651   -1.2584 O   0  0  0  0  0  0  0  0  0  0  0  0
    6.2367    0.4898    0.5625 O   0  0  0  0  0  0  0  0  0  0  0  0
    6.6099   -1.7777    0.4394 O   0  0  0  0  0  0  0  0  0  0  0  0
   -0.4354   -0.5891    0.4404 C   0  0  1  0  0  0  0  0  0  0  0  0
    1.0044   -0.4563   -0.1325 C   0  0  1  0  0  0  0  0  0  0  0  0
   -1.3882    0.5579   -0.0007 C   0  0  1  0  0  0  0  0  0  0  0  0
    1.6390    0.9465    0.0703 C   0  0  2  0  0  0  0  0  0  0  0  0
   -2.8419    0.4039    0.6074 C   0  0  2  0  0  0  0  0  0  0  0  0
   -3.4102   -1.0162    0.2467 C   0  0  1  0  0  0  0  0  0  0  0  0
   -0.7353    1.9254    0.2816 C   0  0  0  0  0  0  0  0  0  0  0  0
    0.6401    2.0510   -0.3711 C   0  0  0  0  0  0  0  0  0  0  0  0
    2.8454    0.9429   -0.9233 C   0  0  2  0  0  0  0  0  0  0  0  0
   -1.0367   -1.9723    0.1280 C   0  0  0  0  0  0  0  0  0  0  0  0
    1.1154   -0.6752   -1.6512 C   0  0  0  0  0  0  0  0  0  0  0  0
   -2.4468   -2.1356    0.6798 C   0  0  0  0  0  0  0  0  0  0  0  0
    2.3882    0.0559   -2.0970 C   0  0  0  0  0  0  0  0  0  0  0  0
   -3.8239    1.4836    0.0561 C   0  0  0  0  0  0  0  0  0  0  0  0
   -3.7429   -1.1442   -1.2646 C   0  0  0  0  0  0  0  0  0  0  0  0
    2.0712    1.2239    1.5244 C   0  0  0  0  0  0  0  0  0  0  0  0
   -2.8184    0.6072    2.1487 C   0  0  0  0  0  0  0  0  0  0  0  0
   -4.1176    1.3526   -1.4379 C   0  0  0  0  0  0  0  0  0  0  0  0
   -4.6519   -0.0303   -1.7924 C   0  0  2  0  0  0  0  0  0  0  0  0
    4.1560    0.4407   -0.3910 C   0  0  0  0  0  0  0  0  0  0  0  0
    5.1618    1.3564    0.1847 C   0  0  0  0  0  0  0  0  0  0  0  0
    4.5799   -0.8199   -0.3607 C   0  0  0  0  0  0  0  0  0  0  0  0
    5.9110   -0.7977    0.2475 C   0  0  0  0  0  0  0  0  0  0  0  0
   -0.3320   -0.5444    1.5331 H   0  0  0  0  0  0  0  0  0  0  0  0
   -1.4855    0.4901   -1.0901 H   0  0  0  0  0  0  0  0  0  0  0  0
   -0.6424    2.1010    1.3572 H   0  0  0  0  0  0  0  0  0  0  0  0
   -1.3583    2.7336   -0.1143 H   0  0  0  0  0  0  0  0  0  0  0  0
    0.5030    2.0402   -1.4600 H   0  0  0  0  0  0  0  0  0  0  0  0
    1.0560    3.0401   -0.1386 H   0  0  0  0  0  0  0  0  0  0  0  0
    3.0262    1.9559   -1.3081 H   0  0  0  0  0  0  0  0  0  0  0  0
   -0.4172   -2.7641    0.5642 H   0  0  0  0  0  0  0  0  0  0  0  0
   -1.0470   -2.1514   -0.9523 H   0  0  0  0  0  0  0  0  0  0  0  0
    0.2618   -0.2562   -2.1934 H   0  0  0  0  0  0  0  0  0  0  0  0
    1.1828   -1.7345   -1.9231 H   0  0  0  0  0  0  0  0  0  0  0  0
   -2.8485   -3.1095    0.3703 H   0  0  0  0  0  0  0  0  0  0  0  0
   -2.4063   -2.1919    1.7750 H   0  0  0  0  0  0  0  0  0  0  0  0
    3.1369   -0.6439   -2.4814 H   0  0  0  0  0  0  0  0  0  0  0  0
    2.1348    0.6959   -2.9529 H   0  0  0  0  0  0  0  0  0  0  0  0
   -3.4427    2.4912    0.2554 H   0  0  0  0  0  0  0  0  0  0  0  0
   -4.7907    1.4494    0.5716 H   0  0  0  0  0  0  0  0  0  0  0  0
   -4.2521   -2.1030   -1.4292 H   0  0  0  0  0  0  0  0  0  0  0  0
   -2.8284   -1.1537   -1.8661 H   0  0  0  0  0  0  0  0  0  0  0  0
    2.7851    0.4839    1.8989 H   0  0  0  0  0  0  0  0  0  0  0  0
    2.5289    2.2148    1.6159 H   0  0  0  0  0  0  0  0  0  0  0  0
    1.2185    1.1957    2.2101 H   0  0  0  0  0  0  0  0  0  0  0  0
   -2.4794    1.6083    2.4330 H   0  0  0  0  0  0  0  0  0  0  0  0
   -2.1800   -0.1161    2.6601 H   0  0  0  0  0  0  0  0  0  0  0  0
   -4.8517    2.1190   -1.7151 H   0  0  0  0  0  0  0  0  0  0  0  0
   -3.2114    1.5608   -2.0171 H   0  0  0  0  0  0  0  0  0  0  0  0
   -4.7391   -0.1256   -2.8806 H   0  0  0  0  0  0  0  0  0  0  0  0
    1.5854   -2.3317    0.1082 H   0  0  0  0  0  0  0  0  0  0  0  0
   -5.3100   -0.6167    0.6364 H   0  0  0  0  0  0  0  0  0  0  0  0
    5.5316    2.0778   -0.5501 H   0  0  0  0  0  0  0  0  0  0  0  0
    4.8091    1.8840    1.0735 H   0  0  0  0  0  0  0  0  0  0  0  0
   -4.5362    1.3121    2.7193 H   0  0  0  0  0  0  0  0  0  0  0  0
    4.0985   -1.7195   -0.7017 H   0  0  0  0  0  0  0  0  0  0  0  0
   -6.5174    0.5345   -1.6495 H   0  0  0  0  0  0  0  0  0  0  0  0
  1  8  1  0  0  0  0
  1 57  1  0  0  0  0
  2 12  1  0  0  0  0
  2 58  1  0  0  0  0
  3 23  1  0  0  0  0
  3 61  1  0  0  0  0
  4 25  1  0  0  0  0
  4 63  1  0  0  0  0
  5 27  1  0  0  0  0
  5 29  1  0  0  0  0
  6 29  2  0  0  0  0
  7  8  1  0  0  0  0
  7  9  1  0  0  0  0
  7 16  1  0  0  0  0
  7 30  1  0  0  0  0
  8 10  1  0  0  0  0
  8 17  1  0  0  0  0
  9 11  1  0  0  0  0
  9 13  1  0  0  0  0
  9 31  1  0  0  0  0
 10 14  1  0  0  0  0
 10 15  1  0  0  0  0
 10 22  1  0  0  0  0
 11 12  1  0  0  0  0
 11 20  1  0  0  0  0
 11 23  1  0  0  0  0
 12 18  1  0  0  0  0
 12 21  1  0  0  0  0
 13 14  1  0  0  0  0
 13 32  1  0  0  0  0
 13 33  1  0  0  0  0
 14 34  1  0  0  0  0
 14 35  1  0  0  0  0
 15 19  1  0  0  0  0
 15 26  1  0  0  0  0
 15 36  1  0  0  0  0
 16 18  1  0  0  0  0
 16 37  1  0  0  0  0
 16 38  1  0  0  0  0
 17 19  1  0  0  0  0
 17 39  1  0  0  0  0
 17 40  1  0  0  0  0
 18 41  1  0  0  0  0
 18 42  1  0  0  0  0
 19 43  1  0  0  0  0
 19 44  1  0  0  0  0
 20 24  1  0  0  0  0
 20 45  1  0  0  0  0
 20 46  1  0  0  0  0
 21 25  1  0  0  0  0
 21 47  1  0  0  0  0
 21 48  1  0  0  0  0
 22 49  1  0  0  0  0
 22 50  1  0  0  0  0
 22 51  1  0  0  0  0
 23 52  1  0  0  0  0
 23 53  1  0  0  0  0
 24 25  1  0  0  0  0
 24 54  1  0  0  0  0
 24 55  1  0  0  0  0
 25 56  1  0  0  0  0
 26 27  1  0  0  0  0
 26 28  2  0  0  0  0
 27 59  1  0  0  0  0
 27 60  1  0  0  0  0
 28 29  1  0  0  0  0
 28 62  1  0  0  0  0
M  END
> <PUBCHEM_COMPOUND_CID>
11219

> <PUBCHEM_CONFORMER_RMSD>
0.8

> <PUBCHEM_CONFORMER_DIVERSEORDER>
8
25
16
6
12
23
11
20
18
26
22
7
13
4
21
10
14
9
19
15
2
24
17
1
5
3

> <PUBCHEM_MMFF94_PARTIAL_CHARGES>
20
1 -0.68
12 0.28
15 0.14
2 -0.68
23 0.28
25 0.28
26 -0.28
27 0.42
28 -0.14
29 0.71
3 -0.68
4 -0.68
5 -0.43
57 0.4
58 0.4
6 -0.57
61 0.4
62 0.15
63 0.4
8 0.28

> <PUBCHEM_EFFECTIVE_ROTOR_COUNT>
4.6

> <PUBCHEM_PHARMACOPHORE_FEATURES>
14
1 1 acceptor
1 1 donor
1 2 acceptor
1 2 donor
1 3 acceptor
1 3 donor
1 4 acceptor
1 4 donor
1 6 acceptor
5 5 26 27 28 29 rings
5 8 10 15 17 19 rings
6 11 12 20 21 24 25 rings
6 7 8 9 10 13 14 rings
6 7 9 11 12 16 18 rings

> <PUBCHEM_HEAVY_ATOM_COUNT>
29

> <PUBCHEM_ATOM_DEF_STEREO_COUNT>
6

> <PUBCHEM_ATOM_UDEF_STEREO_COUNT>
2

> <PUBCHEM_BOND_DEF_STEREO_COUNT>
0

> <PUBCHEM_BOND_UDEF_STEREO_COUNT>
0

> <PUBCHEM_ISOTOPIC_ATOM_COUNT>
0

> <PUBCHEM_COMPONENT_COUNT>
1

> <PUBCHEM_CACTVS_TAUTO_COUNT>
1

> <PUBCHEM_CONFORMER_ID>
00002BD300000008

> <PUBCHEM_MMFF94_ENERGY>
110.1358

> <PUBCHEM_FEATURE_SELFOVERLAP>
71.346

> <PUBCHEM_SHAPE_FINGERPRINT>
10675989 125 16973092566371018629
11315181 36 17894632534853224688
11545043 162 16845285016871720504
11796584 16 17917998256824442250
12011746 2 18411146835067858380
12166972 35 17988923319209316717
12236239 1 18259988166925142830
12403260 363 17386009420821681312
12422481 6 17749947899092297518
12553582 1 18265873861195557757
12633257 1 18041268937715138304
12788726 201 18116440434772639049
13140716 1 18264193725881927384
13224815 77 18113893849577275333
13583140 156 18335707083497365558
13631057 29 14346092892556751093
13675066 3 17704064067452292400
13782708 43 17023454361615589070
13914758 101 18201448020568617805
14068700 675 16733842886889767773
14251758 9 17561365101934791838
14787075 74 14129348360222810094
14856354 85 14333121983663798626
15131766 46 17411299198122157149
15183329 4 15913332416139426342
15788980 27 17989481918418882444
1601671 61 13686303482805130884
17349148 13 18040711446459362776
17844677 252 15697708234271879556
17980427 23 17749098972340548497
18608769 82 18272089362843424735
18927931 339 18339631326111303710
19377110 9 16660359294399201758
19489759 90 18408326591979512524
200 152 17385726876830611109
20567600 75 18130791183228349158
21033648 29 17845945034530659697
21267235 1 18343011173226153026
21279426 13 18342742965904443310
21682296 61 17677605540312383222
21709351 56 16702299044549042814
22079108 93 14201405963082573478
22393880 68 17845947233806590227
23402539 116 18335422387089623676
23559900 14 18338808805425132752
3004659 81 18060423525962136878
32027 91 15576938027453639020
34797466 226 14996280267695388656
3633792 109 18340216301089886535
4015057 19 18336552616197341936
4325135 7 4750872675896975694
5104073 3 18261667095938363962
5283173 99 18342185508813702348
6913067 236 17022908960423797908
7226269 152 18413106178032393488
7495541 125 17749398044510102600
9981440 41 17846500378903699411

> <PUBCHEM_SHAPE_MULTIPOLES>
561.59
13.14
1.93
1.72
10.66
0.11
-0.1
1.94
0.18
-0.11
-0.23
-1.82
-0.18
-0.05

> <PUBCHEM_SHAPE_SELFOVERLAP>
1221.913

> <PUBCHEM_SHAPE_VOLUME>
303.5

> <PUBCHEM_COORDINATE_TYPE>
2
5
10

$$$$

