11954172
  -OEChem-07051213072D

 65 68  0     1  0  0  0  0  0999 V2000
    8.0319    1.5954    0.0000 O   0  0  0  0  0  0  0  0  0  0  0  0
    4.7950    0.8391    0.0000 O   0  0  0  0  0  0  0  0  0  0  0  0
    9.0465    2.2249    0.0000 O   0  0  0  0  0  0  0  0  0  0  0  0
   10.8722    1.4083    0.0000 O   0  0  0  0  0  0  0  0  0  0  0  0
    2.0000   -2.7133    0.0000 O   0  0  0  0  0  0  0  0  0  0  0  0
   11.8879    0.0052    0.0000 O   0  0  0  0  0  0  0  0  0  0  0  0
   15.2308    1.3561    0.0000 O   0  0  0  0  0  0  0  0  0  0  0  0
   14.2151    2.7591    0.0000 O   0  0  0  0  0  0  0  0  0  0  0  0
    7.3931   -0.6609    0.0000 C   0  0  2  0  0  0  0  0  0  0  0  0
    7.3931    0.3391    0.0000 C   0  0  1  0  0  0  0  0  0  0  0  0
    6.5271   -1.1609    0.0000 C   0  0  1  0  0  0  0  0  0  0  0  0
    5.6610   -0.6609    0.0000 C   0  0  1  0  0  0  0  0  0  0  0  0
    8.3393    0.6438    0.0000 C   0  0  1  0  0  0  0  0  0  0  0  0
    8.3393   -0.9657    0.0000 C   0  0  0  0  0  0  0  0  0  0  0  0
    4.7510   -1.1678    0.0000 C   0  0  2  0  0  0  0  0  0  0  0  0
    6.5271    0.8391    0.0000 C   0  0  0  0  0  0  0  0  0  0  0  0
    8.9229   -0.1609    0.0000 C   0  0  0  0  0  0  0  0  0  0  0  0
    6.5431   -2.2024    0.0000 C   0  0  0  0  0  0  0  0  0  0  0  0
    5.6610    0.3391    0.0000 C   0  0  0  0  0  0  0  0  0  0  0  0
    7.3931    1.3391    0.0000 C   0  0  0  0  0  0  0  0  0  0  0  0
    4.7430   -2.2094    0.0000 C   0  0  0  0  0  0  0  0  0  0  0  0
    5.6451   -2.7302    0.0000 C   0  0  0  0  0  0  0  0  0  0  0  0
    3.8242   -0.6037    0.0000 C   0  0  0  0  0  0  0  0  0  0  0  0
    9.1493    1.2302    0.0000 C   0  0  0  0  0  0  0  0  0  0  0  0
    4.7587   -0.1678    0.0000 C   0  0  0  0  0  0  0  0  0  0  0  0
    2.8763   -1.1316    0.0000 C   0  0  0  0  0  0  0  0  0  0  0  0
    3.8076   -2.7591    0.0000 C   0  0  0  0  0  0  0  0  0  0  0  0
    2.8680   -2.2166    0.0000 C   0  0  0  0  0  0  0  0  0  0  0  0
   10.0622    0.8219    0.0000 C   0  0  0  0  0  0  0  0  0  0  0  0
   11.7851    0.9999    0.0000 C   0  0  0  0  0  0  0  0  0  0  0  0
   12.5951    1.5863    0.0000 C   0  0  0  0  0  0  0  0  0  0  0  0
   13.5079    1.1780    0.0000 C   0  0  0  0  0  0  0  0  0  0  0  0
   14.3180    1.7644    0.0000 C   0  0  0  0  0  0  0  0  0  0  0  0
    7.4830   -1.5062    0.0000 H   0  0  0  0  0  0  0  0  0  0  0  0
    7.2664   -1.5802    0.0000 H   0  0  0  0  0  0  0  0  0  0  0  0
    6.3972   -0.2359    0.0000 H   0  0  0  0  0  0  0  0  0  0  0  0
    8.0883   -1.5326    0.0000 H   0  0  0  0  0  0  0  0  0  0  0  0
    8.8767   -1.2749    0.0000 H   0  0  0  0  0  0  0  0  0  0  0  0
    6.9256    1.3140    0.0000 H   0  0  0  0  0  0  0  0  0  0  0  0
    6.1285    1.3140    0.0000 H   0  0  0  0  0  0  0  0  0  0  0  0
    9.3838   -0.5757    0.0000 H   0  0  0  0  0  0  0  0  0  0  0  0
    9.3838    0.2538    0.0000 H   0  0  0  0  0  0  0  0  0  0  0  0
    6.7612   -2.7828    0.0000 H   0  0  0  0  0  0  0  0  0  0  0  0
    7.1523   -2.0869    0.0000 H   0  0  0  0  0  0  0  0  0  0  0  0
    8.0131    1.3391    0.0000 H   0  0  0  0  0  0  0  0  0  0  0  0
    7.3931    1.9591    0.0000 H   0  0  0  0  0  0  0  0  0  0  0  0
    6.7731    1.3391    0.0000 H   0  0  0  0  0  0  0  0  0  0  0  0
    5.2478   -3.2062    0.0000 H   0  0  0  0  0  0  0  0  0  0  0  0
    6.0460   -3.2031    0.0000 H   0  0  0  0  0  0  0  0  0  0  0  0
    4.2324   -0.1370    0.0000 H   0  0  0  0  0  0  0  0  0  0  0  0
    3.4343   -0.1216    0.0000 H   0  0  0  0  0  0  0  0  0  0  0  0
    5.3787   -0.1726    0.0000 H   0  0  0  0  0  0  0  0  0  0  0  0
    4.7635    0.4522    0.0000 H   0  0  0  0  0  0  0  0  0  0  0  0
    4.1388   -0.1630    0.0000 H   0  0  0  0  0  0  0  0  0  0  0  0
    8.4476    2.0554    0.0000 H   0  0  0  0  0  0  0  0  0  0  0  0
    2.6718   -0.5464    0.0000 H   0  0  0  0  0  0  0  0  0  0  0  0
    2.2647   -1.2330    0.0000 H   0  0  0  0  0  0  0  0  0  0  0  0
    3.8100   -3.3791    0.0000 H   0  0  0  0  0  0  0  0  0  0  0  0
    9.7146    0.3085    0.0000 H   0  0  0  0  0  0  0  0  0  0  0  0
   10.5074    0.3904    0.0000 H   0  0  0  0  0  0  0  0  0  0  0  0
   12.9427    2.0997    0.0000 H   0  0  0  0  0  0  0  0  0  0  0  0
   12.1498    2.0178    0.0000 H   0  0  0  0  0  0  0  0  0  0  0  0
   13.1603    0.6646    0.0000 H   0  0  0  0  0  0  0  0  0  0  0  0
   13.9532    0.7466    0.0000 H   0  0  0  0  0  0  0  0  0  0  0  0
   15.7330    1.7196    0.0000 H   0  0  0  0  0  0  0  0  0  0  0  0
 13  1  1  6  0  0  0
  1 55  1  0  0  0  0
  2 19  2  0  0  0  0
  3 24  2  0  0  0  0
  4 29  1  0  0  0  0
  4 30  1  0  0  0  0
  5 28  2  0  0  0  0
  6 30  2  0  0  0  0
  7 33  1  0  0  0  0
  7 65  1  0  0  0  0
  8 33  2  0  0  0  0
  9 10  1  0  0  0  0
  9 11  1  0  0  0  0
  9 14  1  0  0  0  0
  9 34  1  6  0  0  0
 10 13  1  0  0  0  0
 10 16  1  0  0  0  0
 10 20  1  1  0  0  0
 11 12  1  0  0  0  0
 11 18  1  0  0  0  0
 11 35  1  1  0  0  0
 12 15  1  0  0  0  0
 12 19  1  0  0  0  0
 12 36  1  6  0  0  0
 13 17  1  0  0  0  0
 13 24  1  0  0  0  0
 14 17  1  0  0  0  0
 14 37  1  0  0  0  0
 14 38  1  0  0  0  0
 15 21  1  0  0  0  0
 15 23  1  0  0  0  0
 15 25  1  1  0  0  0
 16 19  1  0  0  0  0
 16 39  1  0  0  0  0
 16 40  1  0  0  0  0
 17 41  1  0  0  0  0
 17 42  1  0  0  0  0
 18 22  1  0  0  0  0
 18 43  1  0  0  0  0
 18 44  1  0  0  0  0
 20 45  1  0  0  0  0
 20 46  1  0  0  0  0
 20 47  1  0  0  0  0
 21 22  1  0  0  0  0
 21 27  2  0  0  0  0
 22 48  1  0  0  0  0
 22 49  1  0  0  0  0
 23 26  1  0  0  0  0
 23 50  1  0  0  0  0
 23 51  1  0  0  0  0
 24 29  1  0  0  0  0
 25 52  1  0  0  0  0
 25 53  1  0  0  0  0
 25 54  1  0  0  0  0
 26 28  1  0  0  0  0
 26 56  1  0  0  0  0
 26 57  1  0  0  0  0
 27 28  1  0  0  0  0
 27 58  1  0  0  0  0
 29 59  1  0  0  0  0
 29 60  1  0  0  0  0
 30 31  1  0  0  0  0
 31 32  1  0  0  0  0
 31 61  1  0  0  0  0
 31 62  1  0  0  0  0
 32 33  1  0  0  0  0
 32 63  1  0  0  0  0
 32 64  1  0  0  0  0
M  END
> <PUBCHEM_COMPOUND_CID>
11954172

> <PUBCHEM_COMPOUND_CANONICALIZED>
1

> <PUBCHEM_CACTVS_COMPLEXITY>
950

> <PUBCHEM_CACTVS_HBOND_ACCEPTOR>
8

> <PUBCHEM_CACTVS_HBOND_DONOR>
2

> <PUBCHEM_CACTVS_ROTATABLE_BOND>
7

> <PUBCHEM_CACTVS_SUBSKEYS>
AAADcfB4PAAAAAAAAAAAAAAAAAAAAYAAAAAwYIAAAAAAAGDAAAAAGgAACAAAD0SggAICCAAABgCIAqDSCAIAAAAgAAAACAFAAEgAABIAAQQCQAAFgAAIAQPLyvCvgAAAAAAAAACAAAQAACAAAYAADAAAAA==

> <PUBCHEM_IUPAC_OPENEYE_NAME>
4-[2-[(8S,9S,10R,13S,14S,17R)-17-hydroxy-10,13-dimethyl-3,11-dioxo-1,2,6,7,8,9,12,14,15,16-decahydrocyclopenta[a]phenanthren-17-yl]-2-oxo-ethoxy]-4-oxo-butanoic acid

> <PUBCHEM_IUPAC_CAS_NAME>
4-[2-[(8S,9S,10R,13S,14S,17R)-17-hydroxy-10,13-dimethyl-3,11-dioxo-1,2,6,7,8,9,12,14,15,16-decahydrocyclopenta[a]phenanthren-17-yl]-2-oxoethoxy]-4-oxobutanoic acid

> <PUBCHEM_IUPAC_NAME>
4-[2-[(8S,9S,10R,13S,14S,17R)-17-hydroxy-10,13-dimethyl-3,11-dioxo-1,2,6,7,8,9,12,14,15,16-decahydrocyclopenta[a]phenanthren-17-yl]-2-oxoethoxy]-4-oxobutanoic acid

> <PUBCHEM_IUPAC_SYSTEMATIC_NAME>
4-[2-[(8S,9S,10R,13S,14S,17R)-10,13-dimethyl-17-oxidanyl-3,11-bis(oxidanylidene)-1,2,6,7,8,9,12,14,15,16-decahydrocyclopenta[a]phenanthren-17-yl]-2-oxidanylidene-ethoxy]-4-oxidanylidene-butanoic acid

> <PUBCHEM_IUPAC_TRADITIONAL_NAME>
4-[2-[(8S,9S,10R,13S,14S,17R)-17-hydroxy-3,11-diketo-10,13-dimethyl-1,2,6,7,8,9,12,14,15,16-decahydrocyclopenta[a]phenanthren-17-yl]-2-keto-ethoxy]-4-keto-butyric acid

> <PUBCHEM_IUPAC_INCHI>
InChI=1S/C25H32O8/c1-23-9-7-15(26)11-14(23)3-4-16-17-8-10-25(32,24(17,2)12-18(27)22(16)23)19(28)13-33-21(31)6-5-20(29)30/h11,16-17,22,32H,3-10,12-13H2,1-2H3,(H,29,30)/t16-,17-,22+,23-,24-,25-/m0/s1

> <PUBCHEM_IUPAC_INCHIKEY>
WVSVAJGDZIWYBX-WFLBVZAHSA-N

> <PUBCHEM_XLOGP3>
1.5

> <PUBCHEM_EXACT_MASS>
460.209718

> <PUBCHEM_MOLECULAR_FORMULA>
C25H32O8

> <PUBCHEM_MOLECULAR_WEIGHT>
460.51678

> <PUBCHEM_OPENEYE_CAN_SMILES>
CC12CCC(=O)C=C1CCC3C2C(=O)CC4(C3CCC4(C(=O)COC(=O)CCC(=O)O)O)C

> <PUBCHEM_OPENEYE_ISO_SMILES>
C[C@]12CCC(=O)C=C1CC[C@@H]3[C@@H]2C(=O)C[C@]4([C@H]3CC[C@@]4(C(=O)COC(=O)CCC(=O)O)O)C

> <PUBCHEM_CACTVS_TPSA>
135

> <PUBCHEM_MONOISOTOPIC_WEIGHT>
460.209718

> <PUBCHEM_TOTAL_CHARGE>
0

> <PUBCHEM_HEAVY_ATOM_COUNT>
33

> <PUBCHEM_ATOM_DEF_STEREO_COUNT>
6

> <PUBCHEM_ATOM_UDEF_STEREO_COUNT>
0

> <PUBCHEM_BOND_DEF_STEREO_COUNT>
0

> <PUBCHEM_BOND_UDEF_STEREO_COUNT>
0

> <PUBCHEM_ISOTOPIC_ATOM_COUNT>
0

> <PUBCHEM_COMPONENT_COUNT>
1

> <PUBCHEM_CACTVS_TAUTO_COUNT>
30

> <PUBCHEM_COORDINATE_TYPE>
1
5
255

> <PUBCHEM_BONDANNOTATIONS>
13  1  6
10  20  5
11  35  5
12  36  6
15  25  5
9  34  6

$$$$

