47205798
  -OEChem-06241223002D

 38 38  0     0  0  0  0  0  0999 V2000
    5.0724   -0.1532    0.0000 O   0  0  0  0  0  0  0  0  0  0  0  0
    2.8576    2.6920    0.0000 O   0  0  0  0  0  0  0  0  0  0  0  0
    3.4901   -0.8576    0.0000 N   0  0  0  0  0  0  0  0  0  0  0  0
    4.2589    1.6739    0.0000 N   0  0  0  0  0  0  0  0  0  0  0  0
    2.8090   -4.1190    0.0000 N   0  0  0  0  0  0  0  0  0  0  0  0
    2.0000   -3.5313    0.0000 N   0  0  0  0  0  0  0  0  0  0  0  0
    3.8968   -1.7712    0.0000 C   0  0  0  0  0  0  0  0  0  0  0  0
    3.3090   -2.5802    0.0000 C   0  0  0  0  0  0  0  0  0  0  0  0
    4.0778   -0.0486    0.0000 C   0  0  0  0  0  0  0  0  0  0  0  0
    3.6711    0.8649    0.0000 C   0  0  0  0  0  0  0  0  0  0  0  0
    4.4399    3.3965    0.0000 C   0  0  0  0  0  0  0  0  0  0  0  0
    3.6180   -3.5313    0.0000 C   0  0  0  0  0  0  0  0  0  0  0  0
    2.4955   -0.7531    0.0000 C   0  0  0  0  0  0  0  0  0  0  0  0
    4.0332    4.3100    0.0000 C   0  0  0  0  0  0  0  0  0  0  0  0
    2.3090   -2.5802    0.0000 C   0  0  0  0  0  0  0  0  0  0  0  0
    3.8522    2.5875    0.0000 C   0  0  0  0  0  0  0  0  0  0  0  0
    4.6210    5.1190    0.0000 C   0  0  0  0  0  0  0  0  0  0  0  0
    2.8090   -5.1190    0.0000 C   0  0  0  0  0  0  0  0  0  0  0  0
    4.3275   -2.2172    0.0000 H   0  0  0  0  0  0  0  0  0  0  0  0
    4.4108   -1.4245    0.0000 H   0  0  0  0  0  0  0  0  0  0  0  0
    3.2404    1.3109    0.0000 H   0  0  0  0  0  0  0  0  0  0  0  0
    3.1571    0.5182    0.0000 H   0  0  0  0  0  0  0  0  0  0  0  0
    4.8706    2.9505    0.0000 H   0  0  0  0  0  0  0  0  0  0  0  0
    4.9540    3.7432    0.0000 H   0  0  0  0  0  0  0  0  0  0  0  0
    4.2077   -3.7229    0.0000 H   0  0  0  0  0  0  0  0  0  0  0  0
    2.5604   -0.1365    0.0000 H   0  0  0  0  0  0  0  0  0  0  0  0
    1.8789   -0.6883    0.0000 H   0  0  0  0  0  0  0  0  0  0  0  0
    2.4307   -1.3697    0.0000 H   0  0  0  0  0  0  0  0  0  0  0  0
    3.6025    4.7560    0.0000 H   0  0  0  0  0  0  0  0  0  0  0  0
    3.5192    3.9633    0.0000 H   0  0  0  0  0  0  0  0  0  0  0  0
    4.8755    1.6091    0.0000 H   0  0  0  0  0  0  0  0  0  0  0  0
    1.9446   -2.0786    0.0000 H   0  0  0  0  0  0  0  0  0  0  0  0
    5.1226    4.7546    0.0000 H   0  0  0  0  0  0  0  0  0  0  0  0
    4.9854    5.6207    0.0000 H   0  0  0  0  0  0  0  0  0  0  0  0
    4.1194    5.4835    0.0000 H   0  0  0  0  0  0  0  0  0  0  0  0
    2.1890   -5.1190    0.0000 H   0  0  0  0  0  0  0  0  0  0  0  0
    2.8090   -5.7390    0.0000 H   0  0  0  0  0  0  0  0  0  0  0  0
    3.4290   -5.1190    0.0000 H   0  0  0  0  0  0  0  0  0  0  0  0
  1  9  2  0  0  0  0
  2 16  2  0  0  0  0
  3  7  1  0  0  0  0
  3  9  1  0  0  0  0
  3 13  1  0  0  0  0
  4 10  1  0  0  0  0
  4 16  1  0  0  0  0
  4 31  1  0  0  0  0
  5  6  1  0  0  0  0
  5 12  1  0  0  0  0
  5 18  1  0  0  0  0
  6 15  2  0  0  0  0
  7  8  1  0  0  0  0
  7 19  1  0  0  0  0
  7 20  1  0  0  0  0
  8 12  2  0  0  0  0
  8 15  1  0  0  0  0
  9 10  1  0  0  0  0
 10 21  1  0  0  0  0
 10 22  1  0  0  0  0
 11 14  1  0  0  0  0
 11 16  1  0  0  0  0
 11 23  1  0  0  0  0
 11 24  1  0  0  0  0
 12 25  1  0  0  0  0
 13 26  1  0  0  0  0
 13 27  1  0  0  0  0
 13 28  1  0  0  0  0
 14 17  1  0  0  0  0
 14 29  1  0  0  0  0
 14 30  1  0  0  0  0
 15 32  1  0  0  0  0
 17 33  1  0  0  0  0
 17 34  1  0  0  0  0
 17 35  1  0  0  0  0
 18 36  1  0  0  0  0
 18 37  1  0  0  0  0
 18 38  1  0  0  0  0
M  END
> <PUBCHEM_COMPOUND_CID>
47205798

> <PUBCHEM_COMPOUND_CANONICALIZED>
1

> <PUBCHEM_CACTVS_COMPLEXITY>
296

> <PUBCHEM_CACTVS_HBOND_ACCEPTOR>
3

> <PUBCHEM_CACTVS_HBOND_DONOR>
1

> <PUBCHEM_CACTVS_ROTATABLE_BOND>
6

> <PUBCHEM_CACTVS_SUBSKEYS>
AAADceBzsAAAAAAAAAAAAAAAAAAAAWAAAAAAAAAAAAAAAAABgAAAHgAYAAAADADBmgQugJPIAACqAhF3VACQBAARgAAQUKGoRBAAQJBAwWAUhAgAHgDAAAAAAAAAAAAAAAAAAAAAAAAAAAAAAAAAAAAAAA==

> <PUBCHEM_IUPAC_OPENEYE_NAME>
N-[2-[methyl-[(1-methylpyrazol-4-yl)methyl]amino]-2-oxo-ethyl]butanamide

> <PUBCHEM_IUPAC_CAS_NAME>
N-[2-[methyl-[(1-methyl-4-pyrazolyl)methyl]amino]-2-oxoethyl]butanamide

> <PUBCHEM_IUPAC_NAME>
N-[2-[methyl-[(1-methylpyrazol-4-yl)methyl]amino]-2-oxoethyl]butanamide

> <PUBCHEM_IUPAC_SYSTEMATIC_NAME>
N-[2-[methyl-[(1-methylpyrazol-4-yl)methyl]amino]-2-oxidanylidene-ethyl]butanamide

> <PUBCHEM_IUPAC_TRADITIONAL_NAME>
N-[2-keto-2-[methyl-[(1-methylpyrazol-4-yl)methyl]amino]ethyl]butyramide

> <PUBCHEM_IUPAC_INCHI>
InChI=1S/C12H20N4O2/c1-4-5-11(17)13-7-12(18)15(2)8-10-6-14-16(3)9-10/h6,9H,4-5,7-8H2,1-3H3,(H,13,17)

> <PUBCHEM_IUPAC_INCHIKEY>
ZTXAANWWBLALHW-UHFFFAOYSA-N

> <PUBCHEM_XLOGP3_AA>
-0.3

> <PUBCHEM_EXACT_MASS>
252.158626

> <PUBCHEM_MOLECULAR_FORMULA>
C12H20N4O2

> <PUBCHEM_MOLECULAR_WEIGHT>
252.3128

> <PUBCHEM_OPENEYE_CAN_SMILES>
CCCC(=O)NCC(=O)N(C)CC1=CN(N=C1)C

> <PUBCHEM_OPENEYE_ISO_SMILES>
CCCC(=O)NCC(=O)N(C)CC1=CN(N=C1)C

> <PUBCHEM_CACTVS_TPSA>
67.2

> <PUBCHEM_MONOISOTOPIC_WEIGHT>
252.158626

> <PUBCHEM_TOTAL_CHARGE>
0

> <PUBCHEM_HEAVY_ATOM_COUNT>
18

> <PUBCHEM_ATOM_DEF_STEREO_COUNT>
0

> <PUBCHEM_ATOM_UDEF_STEREO_COUNT>
0

> <PUBCHEM_BOND_DEF_STEREO_COUNT>
0

> <PUBCHEM_BOND_UDEF_STEREO_COUNT>
0

> <PUBCHEM_ISOTOPIC_ATOM_COUNT>
0

> <PUBCHEM_COMPONENT_COUNT>
1

> <PUBCHEM_CACTVS_TAUTO_COUNT>
2

> <PUBCHEM_COORDINATE_TYPE>
1
5
255

> <PUBCHEM_BONDANNOTATIONS>
5  12  8
5  6  8
6  15  8
8  12  8
8  15  8

$$$$

