441580
  -OEChem-07051212552D

 29 29  0     1  0  0  0  0  0999 V2000
    3.8313   -1.2214    0.0000 O   0  0  0  0  0  0  0  0  0  0  0  0
    6.6791    0.8477    0.0000 O   0  0  0  0  0  0  0  0  0  0  0  0
    5.6001   -2.1349    0.0000 O   0  0  0  0  0  0  0  0  0  0  0  0
    4.9190    1.1265    0.0000 N   0  0  0  0  0  0  0  0  0  0  0  0
    4.1100    0.5387    0.0000 C   0  0  1  0  0  0  0  0  0  0  0  0
    3.1590    0.8477    0.0000 C   0  0  2  0  0  0  0  0  0  0  0  0
    5.4190   -0.4123    0.0000 C   0  0  3  0  0  0  0  0  0  0  0  0
    4.4190   -0.4123    0.0000 C   0  0  0  0  0  0  0  0  0  0  0  0
    2.9511    1.8259    0.0000 C   0  0  0  0  0  0  0  0  0  0  0  0
    5.7281    0.5387    0.0000 C   0  0  0  0  0  0  0  0  0  0  0  0
    2.4158    0.1786    0.0000 C   0  0  0  0  0  0  0  0  0  0  0  0
    6.0068   -1.2214    0.0000 C   0  0  0  0  0  0  0  0  0  0  0  0
    2.0000    2.1349    0.0000 C   0  0  0  0  0  0  0  0  0  0  0  0
    7.0014   -1.1168    0.0000 C   0  0  0  0  0  0  0  0  0  0  0  0
    3.9771    1.3782    0.0000 H   0  0  0  0  0  0  0  0  0  0  0  0
    2.5693    1.0393    0.0000 H   0  0  0  0  0  0  0  0  0  0  0  0
    5.0332   -1.1697    0.0000 H   0  0  0  0  0  0  0  0  0  0  0  0
    3.5707    1.8475    0.0000 H   0  0  0  0  0  0  0  0  0  0  0  0
    3.0373    2.4398    0.0000 H   0  0  0  0  0  0  0  0  0  0  0  0
    4.9190    1.7465    0.0000 H   0  0  0  0  0  0  0  0  0  0  0  0
    2.0010    0.6394    0.0000 H   0  0  0  0  0  0  0  0  0  0  0  0
    1.9551   -0.2363    0.0000 H   0  0  0  0  0  0  0  0  0  0  0  0
    2.8307   -0.2821    0.0000 H   0  0  0  0  0  0  0  0  0  0  0  0
    2.1916    2.7246    0.0000 H   0  0  0  0  0  0  0  0  0  0  0  0
    1.4103    2.3265    0.0000 H   0  0  0  0  0  0  0  0  0  0  0  0
    1.8084    1.5452    0.0000 H   0  0  0  0  0  0  0  0  0  0  0  0
    7.0662   -1.7334    0.0000 H   0  0  0  0  0  0  0  0  0  0  0  0
    7.6180   -1.0520    0.0000 H   0  0  0  0  0  0  0  0  0  0  0  0
    6.9365   -0.5002    0.0000 H   0  0  0  0  0  0  0  0  0  0  0  0
  1  8  2  0  0  0  0
  2 10  2  0  0  0  0
  3 12  2  0  0  0  0
  4  5  1  0  0  0  0
  4 10  1  0  0  0  0
  4 20  1  0  0  0  0
  5  6  1  0  0  0  0
  5  8  1  0  0  0  0
  5 15  1  1  0  0  0
  6  9  1  0  0  0  0
  6 11  1  1  0  0  0
  6 16  1  0  0  0  0
  7  8  1  0  0  0  0
  7 10  1  0  0  0  0
  7 12  1  0  0  0  0
  7 17  1  0  0  0  0
  9 13  1  0  0  0  0
  9 18  1  0  0  0  0
  9 19  1  0  0  0  0
 11 21  1  0  0  0  0
 11 22  1  0  0  0  0
 11 23  1  0  0  0  0
 12 14  1  0  0  0  0
 13 24  1  0  0  0  0
 13 25  1  0  0  0  0
 13 26  1  0  0  0  0
 14 27  1  0  0  0  0
 14 28  1  0  0  0  0
 14 29  1  0  0  0  0
M  END
> <PUBCHEM_COMPOUND_CID>
441580

> <PUBCHEM_COMPOUND_CANONICALIZED>
1

> <PUBCHEM_CACTVS_COMPLEXITY>
285

> <PUBCHEM_CACTVS_HBOND_ACCEPTOR>
3

> <PUBCHEM_CACTVS_HBOND_DONOR>
1

> <PUBCHEM_CACTVS_ROTATABLE_BOND>
3

> <PUBCHEM_CACTVS_SUBSKEYS>
AAADccByMAAAAAAAAAAAAAAAAAAAAWAAAAAAAAAAAAAAAAAAAAAAHgAQAAAADSzBgAQCAALAAAAIAIEQEAAAAAAAAAAAAIGIAAAAABoIgCAEAAAAFgCAAAEciMCOAAAAAAAAAAAAAAAAAAAAAAAAAAAAAA==

> <PUBCHEM_IUPAC_OPENEYE_NAME>
(5S)-3-acetyl-5-[(1S)-1-methylpropyl]pyrrolidine-2,4-dione

> <PUBCHEM_IUPAC_CAS_NAME>
(5S)-3-acetyl-5-[(2S)-butan-2-yl]pyrrolidine-2,4-dione

> <PUBCHEM_IUPAC_NAME>
(5S)-3-acetyl-5-[(2S)-butan-2-yl]pyrrolidine-2,4-dione

> <PUBCHEM_IUPAC_SYSTEMATIC_NAME>
(5S)-5-[(2S)-butan-2-yl]-3-ethanoyl-pyrrolidine-2,4-dione

> <PUBCHEM_IUPAC_TRADITIONAL_NAME>
(5S)-3-acetyl-5-[(1S)-1-methylpropyl]pyrrolidine-2,4-quinone

> <PUBCHEM_IUPAC_INCHI>
InChI=1S/C10H15NO3/c1-4-5(2)8-9(13)7(6(3)12)10(14)11-8/h5,7-8H,4H2,1-3H3,(H,11,14)/t5-,7?,8-/m0/s1

> <PUBCHEM_IUPAC_INCHIKEY>
KLBSRSYHIIAQTG-PZICIZFRSA-N

> <PUBCHEM_XLOGP3_AA>
1

> <PUBCHEM_EXACT_MASS>
197.105193

> <PUBCHEM_MOLECULAR_FORMULA>
C10H15NO3

> <PUBCHEM_MOLECULAR_WEIGHT>
197.231

> <PUBCHEM_OPENEYE_CAN_SMILES>
CCC(C)C1C(=O)C(C(=O)N1)C(=O)C

> <PUBCHEM_OPENEYE_ISO_SMILES>
CC[C@H](C)[C@H]1C(=O)C(C(=O)N1)C(=O)C

> <PUBCHEM_CACTVS_TPSA>
63.2

> <PUBCHEM_MONOISOTOPIC_WEIGHT>
197.105193

> <PUBCHEM_TOTAL_CHARGE>
0

> <PUBCHEM_HEAVY_ATOM_COUNT>
14

> <PUBCHEM_ATOM_DEF_STEREO_COUNT>
2

> <PUBCHEM_ATOM_UDEF_STEREO_COUNT>
1

> <PUBCHEM_BOND_DEF_STEREO_COUNT>
0

> <PUBCHEM_BOND_UDEF_STEREO_COUNT>
0

> <PUBCHEM_ISOTOPIC_ATOM_COUNT>
0

> <PUBCHEM_COMPONENT_COUNT>
1

> <PUBCHEM_CACTVS_TAUTO_COUNT>
20

> <PUBCHEM_COORDINATE_TYPE>
1
5
255

> <PUBCHEM_BONDANNOTATIONS>
5  15  5
6  11  5
7  17  3

$$$$

