5281775
  -OEChem-07051212593D

 50 51  0     0  0  0  0  0  0999 V2000
    1.0413   -2.3843   -0.6751 O   0  0  0  0  0  0  0  0  0  0  0  0
   -2.0955   -1.4759   -1.8400 O   0  0  0  0  0  0  0  0  0  0  0  0
    0.9371    2.5402   -1.9718 O   0  0  0  0  0  0  0  0  0  0  0  0
    2.2211   -3.0622    1.7489 O   0  0  0  0  0  0  0  0  0  0  0  0
   -2.3720   -3.0816    0.4122 O   0  0  0  0  0  0  0  0  0  0  0  0
    3.6019    1.7688   -0.8205 C   0  0  0  0  0  0  0  0  0  0  0  0
   -3.3040    2.4732    0.7619 C   0  0  0  0  0  0  0  0  0  0  0  0
    2.7147    2.9417   -0.4028 C   0  0  0  0  0  0  0  0  0  0  0  0
   -2.0526    3.2857    1.1155 C   0  0  0  0  0  0  0  0  0  0  0  0
    3.2300    0.4760   -0.1358 C   0  0  0  0  0  0  0  0  0  0  0  0
   -3.0543    0.9875    0.6647 C   0  0  0  0  0  0  0  0  0  0  0  0
    1.2640    2.7352   -0.8031 C   0  0  0  0  0  0  0  0  0  0  0  0
   -0.9938    3.2101    0.0507 C   0  0  0  0  0  0  0  0  0  0  0  0
    2.2991   -0.3630   -0.7277 C   0  0  0  0  0  0  0  0  0  0  0  0
   -2.6875    0.4387   -0.5537 C   0  0  0  0  0  0  0  0  0  0  0  0
    0.2583    2.8009    0.2933 C   0  0  0  0  0  0  0  0  0  0  0  0
    3.8264    0.1514    1.0722 C   0  0  0  0  0  0  0  0  0  0  0  0
   -3.1960    0.1999    1.7960 C   0  0  0  0  0  0  0  0  0  0  0  0
    1.9558   -1.5579   -0.0951 C   0  0  0  0  0  0  0  0  0  0  0  0
   -2.4563   -0.9340   -0.6434 C   0  0  0  0  0  0  0  0  0  0  0  0
    3.4829   -1.0434    1.7050 C   0  0  0  0  0  0  0  0  0  0  0  0
   -2.9650   -1.1729    1.7063 C   0  0  0  0  0  0  0  0  0  0  0  0
    2.5478   -1.8982    1.1213 C   0  0  0  0  0  0  0  0  0  0  0  0
   -2.5952   -1.7398    0.4867 C   0  0  0  0  0  0  0  0  0  0  0  0
    1.5396   -3.3747   -1.5723 C   0  0  0  0  0  0  0  0  0  0  0  0
   -3.1479   -1.9213   -2.6935 C   0  0  0  0  0  0  0  0  0  0  0  0
    4.6492    2.0109   -0.5989 H   0  0  0  0  0  0  0  0  0  0  0  0
    3.5563    1.6290   -1.9085 H   0  0  0  0  0  0  0  0  0  0  0  0
   -3.7344    2.8342   -0.1820 H   0  0  0  0  0  0  0  0  0  0  0  0
   -4.0758    2.6597    1.5204 H   0  0  0  0  0  0  0  0  0  0  0  0
    3.0583    3.8639   -0.8855 H   0  0  0  0  0  0  0  0  0  0  0  0
    2.7864    3.1034    0.6790 H   0  0  0  0  0  0  0  0  0  0  0  0
   -1.6567    2.9544    2.0837 H   0  0  0  0  0  0  0  0  0  0  0  0
   -2.3396    4.3375    1.2345 H   0  0  0  0  0  0  0  0  0  0  0  0
   -1.2882    3.5066   -0.9530 H   0  0  0  0  0  0  0  0  0  0  0  0
    1.8393   -0.1076   -1.6783 H   0  0  0  0  0  0  0  0  0  0  0  0
   -2.5823    1.0611   -1.4383 H   0  0  0  0  0  0  0  0  0  0  0  0
    0.5856    2.5357    1.2924 H   0  0  0  0  0  0  0  0  0  0  0  0
    4.5541    0.8114    1.5355 H   0  0  0  0  0  0  0  0  0  0  0  0
   -3.4811    0.6326    2.7506 H   0  0  0  0  0  0  0  0  0  0  0  0
    3.9471   -1.3024    2.6528 H   0  0  0  0  0  0  0  0  0  0  0  0
   -3.0759   -1.7888    2.5947 H   0  0  0  0  0  0  0  0  0  0  0  0
    1.5310   -3.5099    1.2299 H   0  0  0  0  0  0  0  0  0  0  0  0
   -2.5139   -3.4756    1.2901 H   0  0  0  0  0  0  0  0  0  0  0  0
    2.2509   -4.0352   -1.0666 H   0  0  0  0  0  0  0  0  0  0  0  0
    2.0160   -2.9011   -2.4366 H   0  0  0  0  0  0  0  0  0  0  0  0
    0.6948   -3.9735   -1.9234 H   0  0  0  0  0  0  0  0  0  0  0  0
   -3.7359   -2.7044   -2.2045 H   0  0  0  0  0  0  0  0  0  0  0  0
   -3.7952   -1.0839   -2.9726 H   0  0  0  0  0  0  0  0  0  0  0  0
   -2.7005   -2.3353   -3.6011 H   0  0  0  0  0  0  0  0  0  0  0  0
  1 19  1  0  0  0  0
  1 25  1  0  0  0  0
  2 20  1  0  0  0  0
  2 26  1  0  0  0  0
  3 12  2  0  0  0  0
  4 23  1  0  0  0  0
  4 43  1  0  0  0  0
  5 24  1  0  0  0  0
  5 44  1  0  0  0  0
  6  8  1  0  0  0  0
  6 10  1  0  0  0  0
  6 27  1  0  0  0  0
  6 28  1  0  0  0  0
  7  9  1  0  0  0  0
  7 11  1  0  0  0  0
  7 29  1  0  0  0  0
  7 30  1  0  0  0  0
  8 12  1  0  0  0  0
  8 31  1  0  0  0  0
  8 32  1  0  0  0  0
  9 13  1  0  0  0  0
  9 33  1  0  0  0  0
  9 34  1  0  0  0  0
 10 14  2  0  0  0  0
 10 17  1  0  0  0  0
 11 15  2  0  0  0  0
 11 18  1  0  0  0  0
 12 16  1  0  0  0  0
 13 16  2  0  0  0  0
 13 35  1  0  0  0  0
 14 19  1  0  0  0  0
 14 36  1  0  0  0  0
 15 20  1  0  0  0  0
 15 37  1  0  0  0  0
 16 38  1  0  0  0  0
 17 21  2  0  0  0  0
 17 39  1  0  0  0  0
 18 22  2  0  0  0  0
 18 40  1  0  0  0  0
 19 23  2  0  0  0  0
 20 24  2  0  0  0  0
 21 23  1  0  0  0  0
 21 41  1  0  0  0  0
 22 24  1  0  0  0  0
 22 42  1  0  0  0  0
 25 45  1  0  0  0  0
 25 46  1  0  0  0  0
 25 47  1  0  0  0  0
 26 48  1  0  0  0  0
 26 49  1  0  0  0  0
 26 50  1  0  0  0  0
M  END
> <PUBCHEM_COMPOUND_CID>
5281775

> <PUBCHEM_CONFORMER_RMSD>
1.2

> <PUBCHEM_CONFORMER_DIVERSEORDER>
1
8
140
112
331
298
287
142
244
125
111
266
229
271
9
153
110
251
205
321
182
212
157
320
163
80
245
84
54
305
79
11
35
330
261
75
299
169
47
29
65
322
213
103
282
187
193
102
235
150
14
227
243
146
151
249
190
133
247
283
297
302
70
164
107
95
290
275
312
85
325
204
165
178
224
117
232
288
129
303
199
15
174
113
158
38
237
238
258
108
40
289
25
4
278
328
141
294
268
74
145
218
201
138
323
313
21
246
86
310
99
191
307
185
308
295
72
32
175
5
228
172
273
152
314
131
183
300
301
123
33
37
45
23
62
22
292
214
233
264
30
281
26
77
126
160
306
262
46
327
202
31
279
200
64
184
63
284
66
159
265
148
270
296
55
105
209
219
267
161
311
24
166
269
69
48
128
277
195
162
317
332
250
17
197
43
136
81
19
274
57
280
255
194
259
58
230
13
87
119
180
130
36
223
96
241
176
216
89
135
41
149
155
88
256
134
260
276
217
83
167
122
203
118
254
240
44
239
127
242
91
252
181
73
329
82
318
272
198
124
319
286
316
291
333
263
106
132
49
208
94
137
154
100
109
173
215
67
28
120
222
147
27
211
304
10
92
143
42
156
121
171
293
144
68
186
188
116
104
177
309
76
7
6
324
257
101
71
179
56
168
50
93
139
98
97
20
315
170
248
210
206
60
231
18
61
90
59
39
226
285
12
51
34
253
196
52
16
326
192
3
115
53
114
78
207
189
225
2
221
236
220
234

> <PUBCHEM_MMFF94_PARTIAL_CHARGES>
36
1 -0.36
10 -0.14
11 -0.14
12 0.49
13 -0.29
14 -0.15
15 -0.15
16 -0.14
17 -0.15
18 -0.15
19 0.08
2 -0.36
20 0.08
21 -0.15
22 -0.15
23 0.08
24 0.08
25 0.28
26 0.28
3 -0.57
35 0.15
36 0.15
37 0.15
38 0.15
39 0.15
4 -0.53
40 0.15
41 0.15
42 0.15
43 0.45
44 0.45
5 -0.53
6 0.14
7 0.14
8 0.06
9 0.14

> <PUBCHEM_EFFECTIVE_ROTOR_COUNT>
9

> <PUBCHEM_PHARMACOPHORE_FEATURES>
7
1 1 acceptor
1 2 acceptor
1 3 acceptor
1 4 donor
1 5 donor
6 10 14 17 19 21 23 rings
6 11 15 18 20 22 24 rings

> <PUBCHEM_HEAVY_ATOM_COUNT>
26

> <PUBCHEM_ATOM_DEF_STEREO_COUNT>
0

> <PUBCHEM_ATOM_UDEF_STEREO_COUNT>
0

> <PUBCHEM_BOND_DEF_STEREO_COUNT>
1

> <PUBCHEM_BOND_UDEF_STEREO_COUNT>
0

> <PUBCHEM_ISOTOPIC_ATOM_COUNT>
0

> <PUBCHEM_COMPONENT_COUNT>
1

> <PUBCHEM_CACTVS_TAUTO_COUNT>
40

> <PUBCHEM_CONFORMER_ID>
005097EF00000001

> <PUBCHEM_MMFF94_ENERGY>
78.7395

> <PUBCHEM_FEATURE_SELFOVERLAP>
35.52

> <PUBCHEM_SHAPE_FINGERPRINT>
10616163 171 18411407410781653752
10675989 125 15739106707322382135
11513181 2 17752761609049972965
12156800 1 15224777767306719540
12422481 6 17831271142264283801
12539773 59 17679556992635239011
12553582 1 18411132558575837596
12633257 1 18130793411941822882
13122387 1 16898772190350182992
13140716 1 18338232657042563600
13402501 40 16965471846940542447
13965767 371 18116445923513613154
14114207 22 12742801890259090680
14251757 5 17403714036573762062
19026451 147 17756167595209191287
192875 21 18265638514236184351
19930381 70 17619058435401573299
20764821 26 16391545941343795288
21864079 5 18409442562122550214
238 59 17835822801867898279
238918 7 16461937345826850615
35225 105 17119191230525280974
445580 8 18261098635024975393
463206 1 17905044751334002747
5283178 26 17180513201630087800
5309563 4 17908407075224410459
6438754 60 17828226310971730679

> <PUBCHEM_SHAPE_MULTIPOLES>
505.72
7.26
4.95
1.99
0.65
1
-0.46
-0.49
1.61
0.04
-0.74
-0.69
-1.18
-2.08

> <PUBCHEM_SHAPE_SELFOVERLAP>
1058.718

> <PUBCHEM_SHAPE_VOLUME>
286.3

> <PUBCHEM_COORDINATE_TYPE>
2
5
10

$$$$

