86175
  -OEChem-07051213123D

 51 54  0     1  0  0  0  0  0999 V2000
   -6.5294    4.4139    1.0151 Cl  0  0  0  0  0  0  0  0  0  0  0  0
    5.3607    2.4945   -0.4302 O   0  0  0  0  0  0  0  0  0  0  0  0
    4.5631   -0.0556    0.5153 O   0  0  0  0  0  0  0  0  0  0  0  0
    2.0303   -2.5483    0.9982 O   0  0  0  0  0  0  0  0  0  0  0  0
    4.3520   -2.1986   -0.3103 O   0  0  0  0  0  0  0  0  0  0  0  0
   -3.0224   -2.3762   -1.1977 O   0  0  0  0  0  0  0  0  0  0  0  0
   -3.2621   -0.3171   -0.1519 N   0  0  0  0  0  0  0  0  0  0  0  0
   -5.8279   -0.1000   -1.1955 N   0  0  0  0  0  0  0  0  0  0  0  0
    6.3111    1.5104    0.0114 C   0  0  2  0  0  0  0  0  0  0  0  0
    7.6002    1.8013   -0.7372 C   0  0  0  0  0  0  0  0  0  0  0  0
    7.5487    3.3041   -0.8514 C   0  0  0  0  0  0  0  0  0  0  0  0
    6.0744    3.5492   -1.0926 C   0  0  0  0  0  0  0  0  0  0  0  0
    5.7656    0.1183   -0.2412 C   0  0  0  0  0  0  0  0  0  0  0  0
    3.9564   -1.2719    0.3849 C   0  0  0  0  0  0  0  0  0  0  0  0
    2.6875   -1.3003    1.2127 C   0  0  2  0  0  0  0  0  0  0  0  0
    2.9903   -1.1751    2.6956 C   0  0  0  0  0  0  0  0  0  0  0  0
    0.7825   -2.5061    0.4557 C   0  0  0  0  0  0  0  0  0  0  0  0
   -0.3014   -3.0336    1.1576 C   0  0  0  0  0  0  0  0  0  0  0  0
    0.5876   -1.9350   -0.8019 C   0  0  0  0  0  0  0  0  0  0  0  0
   -1.7548   -2.4195   -0.6468 C   0  0  0  0  0  0  0  0  0  0  0  0
   -1.5801   -2.9900    0.6019 C   0  0  0  0  0  0  0  0  0  0  0  0
   -0.6911   -1.8913   -1.3575 C   0  0  0  0  0  0  0  0  0  0  0  0
   -4.0194    0.7627    0.1092 C   0  0  0  0  0  0  0  0  0  0  0  0
   -5.3188    0.8727   -0.4193 C   0  0  0  0  0  0  0  0  0  0  0  0
   -3.7897   -1.2789   -0.9304 C   0  0  0  0  0  0  0  0  0  0  0  0
   -3.5245    1.7896    0.9097 C   0  0  0  0  0  0  0  0  0  0  0  0
   -6.0749    2.0056   -0.1278 C   0  0  0  0  0  0  0  0  0  0  0  0
   -5.0544   -1.1718   -1.4450 C   0  0  0  0  0  0  0  0  0  0  0  0
   -4.2894    2.9191    1.1953 C   0  0  0  0  0  0  0  0  0  0  0  0
   -5.5701    3.0277    0.6742 C   0  0  0  0  0  0  0  0  0  0  0  0
    6.4439    1.6719    1.0884 H   0  0  0  0  0  0  0  0  0  0  0  0
    8.4875    1.4354   -0.2133 H   0  0  0  0  0  0  0  0  0  0  0  0
    7.5835    1.3554   -1.7390 H   0  0  0  0  0  0  0  0  0  0  0  0
    8.1839    3.7080   -1.6440 H   0  0  0  0  0  0  0  0  0  0  0  0
    7.8535    3.7598    0.0983 H   0  0  0  0  0  0  0  0  0  0  0  0
    5.8331    3.4945   -2.1594 H   0  0  0  0  0  0  0  0  0  0  0  0
    5.7414    4.5175   -0.7086 H   0  0  0  0  0  0  0  0  0  0  0  0
    5.5243   -0.0058   -1.3037 H   0  0  0  0  0  0  0  0  0  0  0  0
    6.4995   -0.6374    0.0612 H   0  0  0  0  0  0  0  0  0  0  0  0
    2.0592   -0.4563    0.8986 H   0  0  0  0  0  0  0  0  0  0  0  0
    3.6504   -1.9841    3.0289 H   0  0  0  0  0  0  0  0  0  0  0  0
    2.0700   -1.2519    3.2846 H   0  0  0  0  0  0  0  0  0  0  0  0
    3.4759   -0.2231    2.9314 H   0  0  0  0  0  0  0  0  0  0  0  0
   -0.1556   -3.4792    2.1378 H   0  0  0  0  0  0  0  0  0  0  0  0
    1.4232   -1.5285   -1.3650 H   0  0  0  0  0  0  0  0  0  0  0  0
   -2.4216   -3.4025    1.1506 H   0  0  0  0  0  0  0  0  0  0  0  0
   -0.8390   -1.4487   -2.3382 H   0  0  0  0  0  0  0  0  0  0  0  0
   -2.5211    1.7171    1.3248 H   0  0  0  0  0  0  0  0  0  0  0  0
   -7.0807    2.0900   -0.5373 H   0  0  0  0  0  0  0  0  0  0  0  0
   -5.4933   -1.9370   -2.0733 H   0  0  0  0  0  0  0  0  0  0  0  0
   -3.8709    3.7008    1.8234 H   0  0  0  0  0  0  0  0  0  0  0  0
  1 30  1  0  0  0  0
  2  9  1  0  0  0  0
  2 12  1  0  0  0  0
  3 13  1  0  0  0  0
  3 14  1  0  0  0  0
  4 15  1  0  0  0  0
  4 17  1  0  0  0  0
  5 14  2  0  0  0  0
  6 20  1  0  0  0  0
  6 25  1  0  0  0  0
  7 23  2  0  0  0  0
  7 25  1  0  0  0  0
  8 24  2  0  0  0  0
  8 28  1  0  0  0  0
  9 10  1  0  0  0  0
  9 13  1  0  0  0  0
  9 31  1  0  0  0  0
 10 11  1  0  0  0  0
 10 32  1  0  0  0  0
 10 33  1  0  0  0  0
 11 12  1  0  0  0  0
 11 34  1  0  0  0  0
 11 35  1  0  0  0  0
 12 36  1  0  0  0  0
 12 37  1  0  0  0  0
 13 38  1  0  0  0  0
 13 39  1  0  0  0  0
 14 15  1  0  0  0  0
 15 16  1  0  0  0  0
 15 40  1  0  0  0  0
 16 41  1  0  0  0  0
 16 42  1  0  0  0  0
 16 43  1  0  0  0  0
 17 18  2  0  0  0  0
 17 19  1  0  0  0  0
 18 21  1  0  0  0  0
 18 44  1  0  0  0  0
 19 22  2  0  0  0  0
 19 45  1  0  0  0  0
 20 21  2  0  0  0  0
 20 22  1  0  0  0  0
 21 46  1  0  0  0  0
 22 47  1  0  0  0  0
 23 24  1  0  0  0  0
 23 26  1  0  0  0  0
 24 27  1  0  0  0  0
 25 28  2  0  0  0  0
 26 29  2  0  0  0  0
 26 48  1  0  0  0  0
 27 30  2  0  0  0  0
 27 49  1  0  0  0  0
 28 50  1  0  0  0  0
 29 30  1  0  0  0  0
 29 51  1  0  0  0  0
M  END
> <PUBCHEM_COMPOUND_CID>
86175

> <PUBCHEM_CONFORMER_RMSD>
1.2

> <PUBCHEM_CONFORMER_DIVERSEORDER>
1
100
9
88
92
94
72
45
175
85
121
160
157
162
148
89
18
57
29
152
40
149
60
30
145
119
47
44
21
103
15
123
106
46
143
22
150
108
117
71
96
86
64
35
10
37
49
101
3
36
52
153
141
5
59
28
34
170
166
32
115
84
140
54
116
102
90
74
19
8
39
16
67
159
144
53
154
38
165
25
50
136
69
147
155
99
17
105
172
55
110
62
81
137
77
142
97
14
20
146
134
127
173
26
70
76
79
66
138
2
111
87
56
13
151
51
68
65
133
139
95
122
27
163
169
114
23
158
129
176
125
132
107
83
6
80
24
161
63
75
135
93
131
41
4
12
33
174
48
43
91
78
164
73
11
112
126
130
31
104
7
124
128
82
61
167
171
118
98
42
58
120
113
168
156
177
109

> <PUBCHEM_MMFF94_PARTIAL_CHARGES>
35
1 -0.18
12 0.28
13 0.28
14 0.66
15 0.34
17 0.08
18 -0.15
19 -0.15
2 -0.56
20 0.08
21 -0.15
22 -0.15
23 0.31
24 0.31
25 0.39
26 -0.15
27 -0.15
28 0.16
29 -0.15
3 -0.43
30 0.18
4 -0.36
44 0.15
45 0.15
46 0.15
47 0.15
48 0.15
49 0.15
5 -0.57
50 0.15
51 0.15
6 -0.17
7 -0.62
8 -0.62
9 0.28

> <PUBCHEM_EFFECTIVE_ROTOR_COUNT>
9

> <PUBCHEM_PHARMACOPHORE_FEATURES>
10
1 2 acceptor
1 4 acceptor
1 5 acceptor
1 6 acceptor
1 7 acceptor
1 8 acceptor
5 2 9 10 11 12 rings
6 17 18 19 20 21 22 rings
6 23 24 26 27 29 30 rings
6 7 8 23 24 25 28 rings

> <PUBCHEM_HEAVY_ATOM_COUNT>
30

> <PUBCHEM_ATOM_DEF_STEREO_COUNT>
0

> <PUBCHEM_ATOM_UDEF_STEREO_COUNT>
2

> <PUBCHEM_BOND_DEF_STEREO_COUNT>
0

> <PUBCHEM_BOND_UDEF_STEREO_COUNT>
0

> <PUBCHEM_ISOTOPIC_ATOM_COUNT>
0

> <PUBCHEM_COMPONENT_COUNT>
1

> <PUBCHEM_CACTVS_TAUTO_COUNT>
1

> <PUBCHEM_CONFORMER_ID>
0001509F00000001

> <PUBCHEM_MMFF94_ENERGY>
90.2027

> <PUBCHEM_FEATURE_SELFOVERLAP>
50.839

> <PUBCHEM_SHAPE_FINGERPRINT>
100830 2 18263073473899751273
10258705 36 7418362639796499485
10305334 12 18336820910146379013
10556698 54 17677631798983120096
10917259 128 18264504918871840624
11200772 71 18334858290395908000
11374522 155 18191863647411115841
11411753 29 18196625485688009966
11476731 99 18042976380838078008
12895837 130 18334011701292427477
12975358 362 17827346993807544561
13383665 225 17894911859100807895
13627167 48 17894629223391261801
13885169 86 18412539937822793705
14150022 121 17915165828924875923
14251764 75 18341609339098227568
14347329 18 18261116270372053690
14394314 77 18412258450278484949
14664723 55 18042396018764672633
14840074 17 18059571442488268101
15198563 99 17679605350073777007
15357212 105 17751344296202901009
155225 6 18265328585518297945
15980000 95 17766003084236557674
16067689 134 18339631313607359996
16112460 7 18342177756708761364
16992752 21 18115035092025587647
19053607 189 18261964041034158456
19438510 23 18059857225707599458
20058555 10 18410856538434381420
20691028 202 18411140251004644232
21033648 29 15984830380217991015
21774942 28 18336547124073341072
22122407 14 18342173328686747386
23569914 152 17534884580425225718
249057 25 18266765595206760147
2748736 6 18342181038227110784
38570 142 18272086098293934850
4258327 124 18261673783693462865
445580 204 18409169875160409152
44802255 64 17459182981145550158
474113 269 10159691358015238865
5104073 3 17274553027327783306
54583773 228 18337117856818960581
5718773 13 8070038770108395702
5911458 16 18412545392753175428
6058803 2 18267327441443731307
6201320 77 6192551288000030693
6328613 192 18411983529515871484
636775 72 18194124019704697352
6673363 416 18048032974003103830
7808743 9 18042979859940025467

> <PUBCHEM_SHAPE_MULTIPOLES>
579.95
21.37
5.51
1.53
20.27
3.52
0.54
29.44
-4.05
-1.07
0.55
0.07
-0.47
-5.43

> <PUBCHEM_SHAPE_SELFOVERLAP>
1248.444

> <PUBCHEM_SHAPE_VOLUME>
320.4

> <PUBCHEM_COORDINATE_TYPE>
2
5
10

$$$$

