17396229
  -OEChem-06241222553D

 30 31  0     0  0  0  0  0  0999 V2000
    2.4826   -2.0233    1.8882 Br  0  0  0  0  0  0  0  0  0  0  0  0
    2.7585    2.8232   -2.5489 Br  0  0  0  0  0  0  0  0  0  0  0  0
    0.4477   -1.8994   -0.7776 S   0  0  0  0  0  0  0  0  0  0  0  0
   -4.6019   -0.0278   -1.7876 F   0  0  0  0  0  0  0  0  0  0  0  0
    1.1037   -3.1689   -0.5260 O   0  0  0  0  0  0  0  0  0  0  0  0
   -0.1759   -1.6530   -2.0636 O   0  0  0  0  0  0  0  0  0  0  0  0
    0.1109    1.9557    1.8231 O   0  0  0  0  0  0  0  0  0  0  0  0
   -0.4465    0.1262    3.0327 O   0  0  0  0  0  0  0  0  0  0  0  0
   -0.6733   -1.5889    0.4916 N   0  0  0  0  0  0  0  0  0  0  0  0
    1.6581   -0.6355   -0.5131 C   0  0  0  0  0  0  0  0  0  0  0  0
   -1.6718   -0.5836    0.2964 C   0  0  0  0  0  0  0  0  0  0  0  0
   -1.6629    0.5929    1.0458 C   0  0  0  0  0  0  0  0  0  0  0  0
    2.5245   -0.6485    0.5801 C   0  0  0  0  0  0  0  0  0  0  0  0
    1.7284    0.3990   -1.4462 C   0  0  0  0  0  0  0  0  0  0  0  0
   -2.6647   -0.7932   -0.6608 C   0  0  0  0  0  0  0  0  0  0  0  0
   -2.6467    1.5597    0.8381 C   0  0  0  0  0  0  0  0  0  0  0  0
    2.6648    1.4205   -1.2859 C   0  0  0  0  0  0  0  0  0  0  0  0
    3.4607    0.3729    0.7404 C   0  0  0  0  0  0  0  0  0  0  0  0
   -3.6486    0.1737   -0.8683 C   0  0  0  0  0  0  0  0  0  0  0  0
   -3.6394    1.3501   -0.1189 C   0  0  0  0  0  0  0  0  0  0  0  0
    3.5309    1.4073   -0.1926 C   0  0  0  0  0  0  0  0  0  0  0  0
   -0.6391    0.8409    2.0530 C   0  0  0  0  0  0  0  0  0  0  0  0
   -0.2875   -1.6298    1.4440 H   0  0  0  0  0  0  0  0  0  0  0  0
    1.0590    0.4296   -2.3015 H   0  0  0  0  0  0  0  0  0  0  0  0
   -2.7012   -1.7114   -1.2409 H   0  0  0  0  0  0  0  0  0  0  0  0
   -2.6545    2.4803    1.4164 H   0  0  0  0  0  0  0  0  0  0  0  0
    4.1436    0.3813    1.5861 H   0  0  0  0  0  0  0  0  0  0  0  0
   -4.4059    2.1023   -0.2805 H   0  0  0  0  0  0  0  0  0  0  0  0
    4.2656    2.1960   -0.0527 H   0  0  0  0  0  0  0  0  0  0  0  0
    0.7914    2.0865    2.5174 H   0  0  0  0  0  0  0  0  0  0  0  0
  1 13  1  0  0  0  0
  2 17  1  0  0  0  0
  3  5  2  0  0  0  0
  3  6  2  0  0  0  0
  3  9  1  0  0  0  0
  3 10  1  0  0  0  0
  4 19  1  0  0  0  0
  7 22  1  0  0  0  0
  7 30  1  0  0  0  0
  8 22  2  0  0  0  0
  9 11  1  0  0  0  0
  9 23  1  0  0  0  0
 10 13  2  0  0  0  0
 10 14  1  0  0  0  0
 11 12  2  0  0  0  0
 11 15  1  0  0  0  0
 12 16  1  0  0  0  0
 12 22  1  0  0  0  0
 13 18  1  0  0  0  0
 14 17  2  0  0  0  0
 14 24  1  0  0  0  0
 15 19  2  0  0  0  0
 15 25  1  0  0  0  0
 16 20  2  0  0  0  0
 16 26  1  0  0  0  0
 17 21  1  0  0  0  0
 18 21  2  0  0  0  0
 18 27  1  0  0  0  0
 19 20  1  0  0  0  0
 20 28  1  0  0  0  0
 21 29  1  0  0  0  0
M  END
> <PUBCHEM_COMPOUND_CID>
17396229

> <PUBCHEM_CONFORMER_RMSD>
0.6

> <PUBCHEM_CONFORMER_DIVERSEORDER>
1
47
106
86
64
7
97
82
102
71
74
98
92
44
66
25
20
50
78
91
72
22
26
38
77
73
99
88
19
84
104
59
4
94
95
31
52
85
45
46
58
67
100
51
49
101
105
63
8
70
62
30
3
27
29
54
39
17
81
21
80
75
18
89
87
42
28
57
9
12
53
10
65
79
23
90
76
61
68
48
40
24
35
56
32
103
41
5
16
36
96
2
93
69
34
83
37
15
43
13
33
60
11
6
14
55

> <PUBCHEM_MMFF94_PARTIAL_CHARGES>
30
1 -0.11
10 -0.01
11 0.2
12 0.09
13 0.11
14 -0.15
15 -0.15
16 -0.15
17 0.11
18 -0.15
19 0.19
2 -0.11
20 -0.15
21 -0.15
22 0.63
23 0.42
24 0.15
25 0.15
26 0.15
27 0.15
28 0.15
29 0.15
3 1.45
30 0.5
4 -0.19
5 -0.65
6 -0.65
7 -0.65
8 -0.57
9 -0.76

> <PUBCHEM_EFFECTIVE_ROTOR_COUNT>
4

> <PUBCHEM_PHARMACOPHORE_FEATURES>
10
1 1 hydrophobe
1 2 hydrophobe
1 5 acceptor
1 6 acceptor
1 7 acceptor
1 8 acceptor
1 9 donor
3 7 8 22 anion
6 10 13 14 17 18 21 rings
6 11 12 15 16 19 20 rings

> <PUBCHEM_HEAVY_ATOM_COUNT>
22

> <PUBCHEM_ATOM_DEF_STEREO_COUNT>
0

> <PUBCHEM_ATOM_UDEF_STEREO_COUNT>
0

> <PUBCHEM_BOND_DEF_STEREO_COUNT>
0

> <PUBCHEM_BOND_UDEF_STEREO_COUNT>
0

> <PUBCHEM_ISOTOPIC_ATOM_COUNT>
0

> <PUBCHEM_COMPONENT_COUNT>
1

> <PUBCHEM_CACTVS_TAUTO_COUNT>
2

> <PUBCHEM_CONFORMER_ID>
0109720500000001

> <PUBCHEM_MMFF94_ENERGY>
56.2515

> <PUBCHEM_FEATURE_SELFOVERLAP>
50.822

> <PUBCHEM_SHAPE_FINGERPRINT>
10498660 4 17458341965934127337
10863032 1 18130792234936264851
11640471 11 18340484465704230556
11725454 13 16773534199990059751
12166972 35 18410019861419269822
12633257 1 15697449810617287508
13134695 92 17559677424526720518
13149001 5 17243304811732971191
13583140 156 17489866042455236435
15635459 17 15864081982985202529
15664445 248 16153432744274048889
15848702 105 18195246607304901342
16945 1 18186802465747107155
17492 54 18115312154931362717
17980427 23 18191322665232913082
18981168 100 17908660138465170630
192875 21 18409453600120137020
19765921 60 18261947544286183907
20715895 44 17761506081288225637
21475661 188 16845309240751157685
21731516 1 9006778627256014900
21756936 100 16624301713290597604
22892500 29 17346604088234487590
23402539 116 17022905666173332012
23419403 2 16819728222151811618
23557571 272 16371011831687411275
23559900 14 17242741037077517222
2748010 2 17391096745628976987
3797600 57 18194948656749584955
394222 165 18272091557033428850
474 4 18272365399621119789

> <PUBCHEM_SHAPE_MULTIPOLES>
432.75
6.46
2.91
2.36
3.5
1.09
-0.42
3.68
0.39
-3.52
0.57
0.87
-0.7
-0.29

> <PUBCHEM_SHAPE_SELFOVERLAP>
889.895

> <PUBCHEM_SHAPE_VOLUME>
253.6

> <PUBCHEM_COORDINATE_TYPE>
2
5
10

$$$$

