5281617
  -OEChem-07051212583D

 33 35  0     0  0  0  0  0  0999 V2000
    0.0559   -0.5915   -0.0295 O   0  0  0  0  0  0  0  0  0  0  0  0
   -4.3640   -2.3225   -0.1157 O   0  0  0  0  0  0  0  0  0  0  0  0
   -3.7681    2.3843    0.1001 O   0  0  0  0  0  0  0  0  0  0  0  0
   -1.2915    3.2493    0.1481 O   0  0  0  0  0  0  0  0  0  0  0  0
    6.3667   -0.9807   -0.0178 O   0  0  0  0  0  0  0  0  0  0  0  0
   -1.8209    0.9490    0.0372 C   0  0  0  0  0  0  0  0  0  0  0  0
   -1.2926   -0.3395   -0.0209 C   0  0  0  0  0  0  0  0  0  0  0  0
    0.9293    0.4847    0.0139 C   0  0  0  0  0  0  0  0  0  0  0  0
   -0.8976    2.0926    0.0926 C   0  0  0  0  0  0  0  0  0  0  0  0
    2.3552    0.1010    0.0059 C   0  0  0  0  0  0  0  0  0  0  0  0
   -3.2036    1.1460    0.0440 C   0  0  0  0  0  0  0  0  0  0  0  0
    0.5434    1.7690    0.0783 C   0  0  0  0  0  0  0  0  0  0  0  0
   -2.1465   -1.4415   -0.0723 C   0  0  0  0  0  0  0  0  0  0  0  0
   -3.5283   -1.2489   -0.0659 C   0  0  0  0  0  0  0  0  0  0  0  0
   -4.0554    0.0420   -0.0079 C   0  0  0  0  0  0  0  0  0  0  0  0
    3.3100    0.9588   -0.5452 C   0  0  0  0  0  0  0  0  0  0  0  0
    2.7554   -1.1224    0.5493 C   0  0  0  0  0  0  0  0  0  0  0  0
    4.6569    0.5956   -0.5530 C   0  0  0  0  0  0  0  0  0  0  0  0
    4.1022   -1.4854    0.5414 C   0  0  0  0  0  0  0  0  0  0  0  0
    5.0529   -0.6265   -0.0098 C   0  0  0  0  0  0  0  0  0  0  0  0
   -3.7596   -3.6135   -0.1729 C   0  0  0  0  0  0  0  0  0  0  0  0
    1.2272    2.6074    0.1402 H   0  0  0  0  0  0  0  0  0  0  0  0
   -1.6788   -2.4196   -0.1158 H   0  0  0  0  0  0  0  0  0  0  0  0
   -5.1333    0.1859   -0.0030 H   0  0  0  0  0  0  0  0  0  0  0  0
    3.0400    1.9091   -0.9982 H   0  0  0  0  0  0  0  0  0  0  0  0
    2.0379   -1.8081    0.9932 H   0  0  0  0  0  0  0  0  0  0  0  0
    5.3875    1.2713   -0.9898 H   0  0  0  0  0  0  0  0  0  0  0  0
    4.4052   -2.4379    0.9677 H   0  0  0  0  0  0  0  0  0  0  0  0
   -3.0830    3.0695    0.1302 H   0  0  0  0  0  0  0  0  0  0  0  0
   -3.1754   -3.8250    0.7292 H   0  0  0  0  0  0  0  0  0  0  0  0
   -3.1725   -3.7432   -1.0884 H   0  0  0  0  0  0  0  0  0  0  0  0
   -4.5705   -4.3485   -0.2073 H   0  0  0  0  0  0  0  0  0  0  0  0
    6.8823   -0.2699   -0.4363 H   0  0  0  0  0  0  0  0  0  0  0  0
  1  7  1  0  0  0  0
  1  8  1  0  0  0  0
  2 14  1  0  0  0  0
  2 21  1  0  0  0  0
  3 11  1  0  0  0  0
  3 29  1  0  0  0  0
  4  9  2  0  0  0  0
  5 20  1  0  0  0  0
  5 33  1  0  0  0  0
  6  7  1  0  0  0  0
  6  9  1  0  0  0  0
  6 11  2  0  0  0  0
  7 13  2  0  0  0  0
  8 10  1  0  0  0  0
  8 12  2  0  0  0  0
  9 12  1  0  0  0  0
 10 16  2  0  0  0  0
 10 17  1  0  0  0  0
 11 15  1  0  0  0  0
 12 22  1  0  0  0  0
 13 14  1  0  0  0  0
 13 23  1  0  0  0  0
 14 15  2  0  0  0  0
 15 24  1  0  0  0  0
 16 18  1  0  0  0  0
 16 25  1  0  0  0  0
 17 19  2  0  0  0  0
 17 26  1  0  0  0  0
 18 20  2  0  0  0  0
 18 27  1  0  0  0  0
 19 20  1  0  0  0  0
 19 28  1  0  0  0  0
 21 30  1  0  0  0  0
 21 31  1  0  0  0  0
 21 32  1  0  0  0  0
M  END
> <PUBCHEM_COMPOUND_CID>
5281617

> <PUBCHEM_CONFORMER_RMSD>
0.6

> <PUBCHEM_CONFORMER_DIVERSEORDER>
2
1

> <PUBCHEM_MMFF94_PARTIAL_CHARGES>
30
1 -0.16
10 0.03
11 0.08
12 -0.14
13 -0.15
14 0.08
15 -0.15
16 -0.15
17 -0.15
18 -0.15
19 -0.15
2 -0.36
20 0.08
21 0.28
22 0.15
23 0.15
24 0.15
25 0.15
26 0.15
27 0.15
28 0.15
29 0.45
3 -0.53
33 0.45
4 -0.57
5 -0.53
6 0.09
7 0.08
8 0.05
9 0.47

> <PUBCHEM_EFFECTIVE_ROTOR_COUNT>
2

> <PUBCHEM_PHARMACOPHORE_FEATURES>
8
1 1 acceptor
1 2 acceptor
1 3 donor
1 4 acceptor
1 5 donor
6 1 6 7 8 9 12 rings
6 10 16 17 18 19 20 rings
6 6 7 11 13 14 15 rings

> <PUBCHEM_HEAVY_ATOM_COUNT>
21

> <PUBCHEM_ATOM_DEF_STEREO_COUNT>
0

> <PUBCHEM_ATOM_UDEF_STEREO_COUNT>
0

> <PUBCHEM_BOND_DEF_STEREO_COUNT>
0

> <PUBCHEM_BOND_UDEF_STEREO_COUNT>
0

> <PUBCHEM_ISOTOPIC_ATOM_COUNT>
0

> <PUBCHEM_COMPONENT_COUNT>
1

> <PUBCHEM_CACTVS_TAUTO_COUNT>
21

> <PUBCHEM_CONFORMER_ID>
0050975100000002

> <PUBCHEM_MMFF94_ENERGY>
73.1454

> <PUBCHEM_FEATURE_SELFOVERLAP>
40.623

> <PUBCHEM_SHAPE_FINGERPRINT>
10062212 137 18342176674181362491
10319926 262 18190481505206108738
10369192 42 17100616768940453776
10411042 1 18266178323533698479
10595046 47 18342173346151413892
10616163 171 18409729590460683342
11045515 52 18131635560529238957
11046707 91 18407759226836660009
12107183 9 17549266282235984514
12236239 1 18060697307892973156
12553582 1 18264780860996905543
12788726 201 18270405008880062041
13140716 1 18334011666606109369
13167823 11 18413671309802846846
13288520 33 18409165515056538230
138480 1 16032392281165963793
13911882 115 17822284717644689614
14790565 3 17976816811752216217
14866123 147 18409725150292720147
15042514 8 18409726275061896169
15196674 1 18411136922689663868
15250474 111 18271537484720139730
15352361 1 18338517430664849143
17349148 13 17775567546474333840
17492 89 17905048050143920151
17804303 29 18333732411905756089
18681886 176 18410857643095135450
18927931 339 18409441496796769639
19141452 34 18339640143774471501
200 152 18272651242653358338
20281475 54 18412545383762060684
21054139 6 18201721739488922226
21267235 1 18412536604885941387
221490 88 18053661374326349667
22950370 63 18338511933074964339
2297311 6 18261101998469645516
23402539 116 18411985779878190100
23557571 272 18187641427093515436
23559900 14 18335991930150452584
3004659 81 18130794434228610470
335352 9 18410294701641965245
4214541 1 18411699919639773132
465052 167 18118114780296287567
474 4 17417518122040755428
5104073 3 18334577932342608656
5486654 36 18269545062566077483
559249 180 18341898549295259322
633830 44 16702014309734722476
7495541 125 17967818224196144768
77779 3 18411698794595517030
7970288 3 18192436272775790151
9709674 26 18262796405733098254

> <PUBCHEM_SHAPE_MULTIPOLES>
402.82
11.17
3.06
0.66
10.63
0.35
0
5.86
0.5
-4.25
-0.05
0.22
0.03
-0.7

> <PUBCHEM_SHAPE_SELFOVERLAP>
895.418

> <PUBCHEM_SHAPE_VOLUME>
214.4

> <PUBCHEM_COORDINATE_TYPE>
2
5
10

$$$$

