31155
  -OEChem-07051212473D

 19 19  0     0  0  0  0  0  0999 V2000
    3.2611    0.4117   -0.9598 N   0  0  0  0  0  0  0  0  0  0  0  0
    0.0860    0.1841    0.4633 C   0  0  0  0  0  0  0  0  0  0  0  0
   -0.5681   -0.9846    0.0733 C   0  0  0  0  0  0  0  0  0  0  0  0
    1.4900    0.1461    0.9711 C   0  0  0  0  0  0  0  0  0  0  0  0
   -0.5709    1.4118    0.3803 C   0  0  0  0  0  0  0  0  0  0  0  0
   -1.8790   -0.9257   -0.3997 C   0  0  0  0  0  0  0  0  0  0  0  0
    0.1151   -2.3104    0.1531 C   0  0  0  0  0  0  0  0  0  0  0  0
   -1.8819    1.4707   -0.0924 C   0  0  0  0  0  0  0  0  0  0  0  0
   -2.5360    0.3020   -0.4827 C   0  0  0  0  0  0  0  0  0  0  0  0
    2.4836    0.2942   -0.1065 C   0  0  0  0  0  0  0  0  0  0  0  0
    1.6862   -0.7674    1.5431 H   0  0  0  0  0  0  0  0  0  0  0  0
    1.6339    0.9564    1.6984 H   0  0  0  0  0  0  0  0  0  0  0  0
   -0.0739    2.3313    0.6786 H   0  0  0  0  0  0  0  0  0  0  0  0
   -2.4036   -1.8266   -0.7070 H   0  0  0  0  0  0  0  0  0  0  0  0
    1.0605   -2.3016   -0.3983 H   0  0  0  0  0  0  0  0  0  0  0  0
    0.2986   -2.5873    1.1962 H   0  0  0  0  0  0  0  0  0  0  0  0
   -0.4976   -3.1047   -0.2883 H   0  0  0  0  0  0  0  0  0  0  0  0
   -2.3933    2.4266   -0.1575 H   0  0  0  0  0  0  0  0  0  0  0  0
   -3.5567    0.3482   -0.8508 H   0  0  0  0  0  0  0  0  0  0  0  0
  1 10  3  0  0  0  0
  2  3  1  0  0  0  0
  2  4  1  0  0  0  0
  2  5  2  0  0  0  0
  3  6  2  0  0  0  0
  3  7  1  0  0  0  0
  4 10  1  0  0  0  0
  4 11  1  0  0  0  0
  4 12  1  0  0  0  0
  5  8  1  0  0  0  0
  5 13  1  0  0  0  0
  6  9  1  0  0  0  0
  6 14  1  0  0  0  0
  7 15  1  0  0  0  0
  7 16  1  0  0  0  0
  7 17  1  0  0  0  0
  8  9  2  0  0  0  0
  8 18  1  0  0  0  0
  9 19  1  0  0  0  0
M  END
> <PUBCHEM_COMPOUND_CID>
31155

> <PUBCHEM_CONFORMER_RMSD>
0.4

> <PUBCHEM_CONFORMER_DIVERSEORDER>
2
4
3
6
1
5

> <PUBCHEM_MMFF94_PARTIAL_CHARGES>
14
1 -0.56
10 0.36
13 0.15
14 0.15
18 0.15
19 0.15
2 -0.14
3 -0.14
4 0.34
5 -0.15
6 -0.15
7 0.14
8 -0.15
9 -0.15

> <PUBCHEM_EFFECTIVE_ROTOR_COUNT>
1

> <PUBCHEM_PHARMACOPHORE_FEATURES>
2
1 1 acceptor
6 2 3 5 6 8 9 rings

> <PUBCHEM_HEAVY_ATOM_COUNT>
10

> <PUBCHEM_ATOM_DEF_STEREO_COUNT>
0

> <PUBCHEM_ATOM_UDEF_STEREO_COUNT>
0

> <PUBCHEM_BOND_DEF_STEREO_COUNT>
0

> <PUBCHEM_BOND_UDEF_STEREO_COUNT>
0

> <PUBCHEM_ISOTOPIC_ATOM_COUNT>
0

> <PUBCHEM_COMPONENT_COUNT>
1

> <PUBCHEM_CACTVS_TAUTO_COUNT>
1

> <PUBCHEM_CONFORMER_ID>
000079B300000002

> <PUBCHEM_MMFF94_ENERGY>
21.6933

> <PUBCHEM_FEATURE_SELFOVERLAP>
10.148

> <PUBCHEM_SHAPE_FINGERPRINT>
11206711 2 18338253591097838101
12524768 44 17829059718503632849
12716758 59 18408887304618943458
12897270 3 18408326587763815812
13024252 1 12175627239332330893
13380535 21 18263638644804074393
15775835 57 17846778516200392604
16945 1 18335998514150181177
20201158 50 17676481748838349942
20645464 45 17823720597655960976
20645476 183 17988647367566089246
20653085 51 17917416627905139740
21040471 1 18264786495898415873
23235685 24 18412830204755684733
23552423 10 18124321763784011043
23559900 14 18187086179118891970
2748010 2 17977966587344274917
29004967 10 15719681973984145176
369184 2 8142087541729512004
5084963 1 18113339678304866073

> <PUBCHEM_SHAPE_MULTIPOLES>
200.81
3.74
1.8
0.86
2.06
0.82
0
-1.03
1.22
-0.53
-0.1
0.34
-0.07
-0.16

> <PUBCHEM_SHAPE_SELFOVERLAP>
413.062

> <PUBCHEM_SHAPE_VOLUME>
114.1

> <PUBCHEM_COORDINATE_TYPE>
2
5
10

$$$$

