7636
  -OEChem-06261202123D

 33 32  0     1  0  0  0  0  0999 V2000
    1.7362    0.0081    0.3768 O   0  0  0  0  0  0  0  0  0  0  0  0
    3.1033    1.1002   -1.1325 O   0  0  0  0  0  0  0  0  0  0  0  0
   -0.6897   -0.0975    0.3506 C   0  0  1  0  0  0  0  0  0  0  0  0
   -1.9293    0.5524   -0.2998 C   0  0  0  0  0  0  0  0  0  0  0  0
   -0.7352   -1.6414    0.3946 C   0  0  0  0  0  0  0  0  0  0  0  0
   -3.2444    0.2072    0.4064 C   0  0  0  0  0  0  0  0  0  0  0  0
    0.5811    0.4313   -0.3345 C   0  0  0  0  0  0  0  0  0  0  0  0
   -4.4692    0.8431   -0.2568 C   0  0  0  0  0  0  0  0  0  0  0  0
   -0.7976   -2.3258   -0.9640 C   0  0  0  0  0  0  0  0  0  0  0  0
   -5.7809    0.4833    0.4239 C   0  0  0  0  0  0  0  0  0  0  0  0
    2.9333    0.4162   -0.1358 C   0  0  0  0  0  0  0  0  0  0  0  0
    4.0065   -0.1174    0.7285 C   0  0  0  0  0  0  0  0  0  0  0  0
    5.2860    0.1403    0.4427 C   0  0  0  0  0  0  0  0  0  0  0  0
   -0.6506    0.2326    1.3984 H   0  0  0  0  0  0  0  0  0  0  0  0
   -1.9931    0.2664   -1.3565 H   0  0  0  0  0  0  0  0  0  0  0  0
   -1.8092    1.6435   -0.2850 H   0  0  0  0  0  0  0  0  0  0  0  0
    0.1541   -2.0090    0.9219 H   0  0  0  0  0  0  0  0  0  0  0  0
   -1.5867   -1.9725    0.9992 H   0  0  0  0  0  0  0  0  0  0  0  0
   -3.1899    0.5282    1.4537 H   0  0  0  0  0  0  0  0  0  0  0  0
   -3.3928   -0.8779    0.4111 H   0  0  0  0  0  0  0  0  0  0  0  0
    0.6370    0.0923   -1.3752 H   0  0  0  0  0  0  0  0  0  0  0  0
    0.5618    1.5285   -0.3361 H   0  0  0  0  0  0  0  0  0  0  0  0
   -4.3568    1.9337   -0.2564 H   0  0  0  0  0  0  0  0  0  0  0  0
   -4.5186    0.5288   -1.3062 H   0  0  0  0  0  0  0  0  0  0  0  0
   -1.6932   -2.0357   -1.5205 H   0  0  0  0  0  0  0  0  0  0  0  0
   -0.8315   -3.4121   -0.8295 H   0  0  0  0  0  0  0  0  0  0  0  0
    0.0817   -2.0991   -1.5731 H   0  0  0  0  0  0  0  0  0  0  0  0
   -6.6199    0.9647   -0.0881 H   0  0  0  0  0  0  0  0  0  0  0  0
   -5.9459   -0.5986    0.4065 H   0  0  0  0  0  0  0  0  0  0  0  0
   -5.7823    0.8143    1.4672 H   0  0  0  0  0  0  0  0  0  0  0  0
    3.7404   -0.7169    1.5918 H   0  0  0  0  0  0  0  0  0  0  0  0
    6.0734   -0.2519    1.0777 H   0  0  0  0  0  0  0  0  0  0  0  0
    5.5837    0.7362   -0.4130 H   0  0  0  0  0  0  0  0  0  0  0  0
  1  7  1  0  0  0  0
  1 11  1  0  0  0  0
  2 11  2  0  0  0  0
  3  4  1  0  0  0  0
  3  5  1  0  0  0  0
  3  7  1  0  0  0  0
  3 14  1  0  0  0  0
  4  6  1  0  0  0  0
  4 15  1  0  0  0  0
  4 16  1  0  0  0  0
  5  9  1  0  0  0  0
  5 17  1  0  0  0  0
  5 18  1  0  0  0  0
  6  8  1  0  0  0  0
  6 19  1  0  0  0  0
  6 20  1  0  0  0  0
  7 21  1  0  0  0  0
  7 22  1  0  0  0  0
  8 10  1  0  0  0  0
  8 23  1  0  0  0  0
  8 24  1  0  0  0  0
  9 25  1  0  0  0  0
  9 26  1  0  0  0  0
  9 27  1  0  0  0  0
 10 28  1  0  0  0  0
 10 29  1  0  0  0  0
 10 30  1  0  0  0  0
 11 12  1  0  0  0  0
 12 13  2  0  0  0  0
 12 31  1  0  0  0  0
 13 32  1  0  0  0  0
 13 33  1  0  0  0  0
M  END
> <PUBCHEM_COMPOUND_CID>
7636

> <PUBCHEM_CONFORMER_RMSD>
0.8

> <PUBCHEM_CONFORMER_DIVERSEORDER>
1
210
98
173
253
221
91
186
85
257
167
80
73
182
184
122
229
217
180
34
38
61
155
250
121
264
2
188
54
178
138
92
135
137
127
145
40
64
197
246
134
75
260
17
244
201
37
23
236
193
199
204
209
78
120
100
19
93
235
172
150
63
105
113
30
226
241
102
57
88
222
119
84
213
233
76
47
152
211
215
35
28
115
214
202
31
42
87
228
3
68
130
123
103
248
117
170
118
70
181
95
230
124
157
237
247
223
62
24
206
189
203
131
81
49
60
126
55
175
8
46
97
94
11
74
144
252
41
59
262
258
238
232
259
111
72
158
132
164
43
263
101
216
106
139
242
107
114
58
169
162
156
32
198
218
147
148
219
161
65
194
45
89
36
192
14
140
48
212
208
5
146
207
82
16
128
227
154
79
52
13
151
225
96
83
20
6
168
256
142
27
22
56
133
261
90
4
67
153
112
220
243
15
185
234
254
51
149
104
249
231
239
174
10
224
25
177
190
109
99
7
191
205
183
18
136
143
29
159
196
69
9
251
200
108
179
77
53
163
12
240
166
116
39
21
195
245
110
129
33
187
255
171
141
165
125
160
26
71
86
44
66
50
176

> <PUBCHEM_MMFF94_PARTIAL_CHARGES>
9
1 -0.43
11 0.71
12 -0.14
13 -0.3
2 -0.57
31 0.15
32 0.15
33 0.15
7 0.28

> <PUBCHEM_EFFECTIVE_ROTOR_COUNT>
8

> <PUBCHEM_PHARMACOPHORE_FEATURES>
5
1 10 hydrophobe
1 13 hydrophobe
1 2 acceptor
1 9 hydrophobe
5 3 4 5 6 8 hydrophobe

> <PUBCHEM_HEAVY_ATOM_COUNT>
13

> <PUBCHEM_ATOM_DEF_STEREO_COUNT>
0

> <PUBCHEM_ATOM_UDEF_STEREO_COUNT>
1

> <PUBCHEM_BOND_DEF_STEREO_COUNT>
0

> <PUBCHEM_BOND_UDEF_STEREO_COUNT>
0

> <PUBCHEM_ISOTOPIC_ATOM_COUNT>
0

> <PUBCHEM_COMPONENT_COUNT>
1

> <PUBCHEM_CACTVS_TAUTO_COUNT>
1

> <PUBCHEM_CONFORMER_ID>
00001DD400000001

> <PUBCHEM_MMFF94_ENERGY>
13.6205

> <PUBCHEM_FEATURE_SELFOVERLAP>
25.374

> <PUBCHEM_SHAPE_FINGERPRINT>
10922049 32 18410854378229251191
11287383 113 15864078641574362873
114248 4 15285361721449244321
12119455 92 18342178881979214463
12500047 106 18113907018200439742
12714333 28 15430039863546616209
12815109 37 8502652606145343001
12932764 1 14332861335526565064
13533116 47 17531247322614204078
14115302 16 18336262367092484016
15342168 16 15481244017342013300
15501527 24 7132426947845533784
17834072 8 18410005568401286798
17834076 25 4967608377846844064
18186145 218 17822585949080305001
18222031 100 11815891228607202529
187816 3 17458344143455822153
20279233 1 17095516271742201302
20645477 56 18334579014489691600
20724930 69 18186804681876229343
212847 35 18343017783370926812
21524375 3 18411699906876093171
2297311 6 11527671924928756762
23402539 116 18040724657826218773
23559900 14 17894352151467912360
265663 24 17989488515641532627
2916195 48 17603876593451390273
3250762 1 17246413092718838681
366044 4 18334296474413955979
42 15 16988562415852511016
42630746 31 18188490293226060071
42788 4 17704072906057293665
474229 33 18411136918779922379
6430166 295 18413673517131005501
69090 78 18335144184703886630
81539 233 18341894142896339959

> <PUBCHEM_SHAPE_MULTIPOLES>
255.8
11.15
1.46
0.89
1.68
1.25
-0.09
-4.21
1.88
0.56
-0.39
-0.27
0.05
-0.32

> <PUBCHEM_SHAPE_SELFOVERLAP>
471.907

> <PUBCHEM_SHAPE_VOLUME>
161.4

> <PUBCHEM_COORDINATE_TYPE>
2
5
10

$$$$

