36383
  -OEChem-07051213142D

 39 39  0     0  0  0  0  0  0999 V2000
    9.4651   -2.8450    0.0000 O   0  0  0  0  0  0  0  0  0  0  0  0
   11.1972    0.1550    0.0000 O   0  0  0  0  0  0  0  0  0  0  0  0
    2.5369    1.1550    0.0000 O   0  0  0  0  0  0  0  0  0  0  0  0
    7.7331    3.1550    0.0000 O   0  5  0  0  0  0  0  0  0  0  0  0
    6.0010    3.1550    0.0000 O   0  0  0  0  0  0  0  0  0  0  0  0
    8.5991   -0.3450    0.0000 N   0  0  0  0  0  0  0  0  0  0  0  0
    5.1350    1.6550    0.0000 N   0  0  0  0  0  0  0  0  0  0  0  0
    6.8671    2.6550    0.0000 N   0  3  0  0  0  0  0  0  0  0  0  0
    7.7331    0.1550    0.0000 C   0  0  0  0  0  0  0  0  0  0  0  0
    8.5991   -1.3450    0.0000 C   0  0  0  0  0  0  0  0  0  0  0  0
    9.4651    0.1550    0.0000 C   0  0  0  0  0  0  0  0  0  0  0  0
    7.7331    1.1550    0.0000 C   0  0  0  0  0  0  0  0  0  0  0  0
    6.0010    1.1550    0.0000 C   0  0  0  0  0  0  0  0  0  0  0  0
    6.8671   -0.3450    0.0000 C   0  0  0  0  0  0  0  0  0  0  0  0
    6.8671    1.6550    0.0000 C   0  0  0  0  0  0  0  0  0  0  0  0
   10.3312   -0.3450    0.0000 C   0  0  0  0  0  0  0  0  0  0  0  0
    9.4651   -1.8450    0.0000 C   0  0  0  0  0  0  0  0  0  0  0  0
    6.0010    0.1550    0.0000 C   0  0  0  0  0  0  0  0  0  0  0  0
    4.2690    1.1550    0.0000 C   0  0  0  0  0  0  0  0  0  0  0  0
    3.4030    1.6550    0.0000 C   0  0  0  0  0  0  0  0  0  0  0  0
    9.8637    0.6299    0.0000 H   0  0  0  0  0  0  0  0  0  0  0  0
    9.0666    0.6299    0.0000 H   0  0  0  0  0  0  0  0  0  0  0  0
    7.9885   -1.2373    0.0000 H   0  0  0  0  0  0  0  0  0  0  0  0
    8.3871   -1.9276    0.0000 H   0  0  0  0  0  0  0  0  0  0  0  0
    8.2700    1.4650    0.0000 H   0  0  0  0  0  0  0  0  0  0  0  0
    6.8671   -0.9650    0.0000 H   0  0  0  0  0  0  0  0  0  0  0  0
    9.9326   -0.8199    0.0000 H   0  0  0  0  0  0  0  0  0  0  0  0
   10.7297   -0.8199    0.0000 H   0  0  0  0  0  0  0  0  0  0  0  0
   10.0757   -1.9527    0.0000 H   0  0  0  0  0  0  0  0  0  0  0  0
    9.6772   -1.2624    0.0000 H   0  0  0  0  0  0  0  0  0  0  0  0
    5.4641   -0.1550    0.0000 H   0  0  0  0  0  0  0  0  0  0  0  0
    5.1350    2.2750    0.0000 H   0  0  0  0  0  0  0  0  0  0  0  0
    3.8705    0.6801    0.0000 H   0  0  0  0  0  0  0  0  0  0  0  0
    4.6675    0.6801    0.0000 H   0  0  0  0  0  0  0  0  0  0  0  0
    3.8015    2.1300    0.0000 H   0  0  0  0  0  0  0  0  0  0  0  0
    3.0044    2.1300    0.0000 H   0  0  0  0  0  0  0  0  0  0  0  0
   10.0021   -3.1550    0.0000 H   0  0  0  0  0  0  0  0  0  0  0  0
   11.7341   -0.1550    0.0000 H   0  0  0  0  0  0  0  0  0  0  0  0
    2.0000    1.4650    0.0000 H   0  0  0  0  0  0  0  0  0  0  0  0
  1 17  1  0  0  0  0
  1 37  1  0  0  0  0
  2 16  1  0  0  0  0
  2 38  1  0  0  0  0
  3 20  1  0  0  0  0
  3 39  1  0  0  0  0
  4  8  1  0  0  0  0
  5  8  2  0  0  0  0
  6  9  1  0  0  0  0
  6 10  1  0  0  0  0
  6 11  1  0  0  0  0
  7 13  1  0  0  0  0
  7 19  1  0  0  0  0
  7 32  1  0  0  0  0
  8 15  1  0  0  0  0
  9 12  2  0  0  0  0
  9 14  1  0  0  0  0
 10 17  1  0  0  0  0
 10 23  1  0  0  0  0
 10 24  1  0  0  0  0
 11 16  1  0  0  0  0
 11 21  1  0  0  0  0
 11 22  1  0  0  0  0
 12 15  1  0  0  0  0
 12 25  1  0  0  0  0
 13 15  2  0  0  0  0
 13 18  1  0  0  0  0
 14 18  2  0  0  0  0
 14 26  1  0  0  0  0
 16 27  1  0  0  0  0
 16 28  1  0  0  0  0
 17 29  1  0  0  0  0
 17 30  1  0  0  0  0
 18 31  1  0  0  0  0
 19 20  1  0  0  0  0
 19 33  1  0  0  0  0
 19 34  1  0  0  0  0
 20 35  1  0  0  0  0
 20 36  1  0  0  0  0
M  CHG  2   4  -1   8   1
M  END
> <PUBCHEM_COMPOUND_CID>
36383

> <PUBCHEM_COMPOUND_CANONICALIZED>
1

> <PUBCHEM_CACTVS_COMPLEXITY>
281

> <PUBCHEM_CACTVS_HBOND_ACCEPTOR>
7

> <PUBCHEM_CACTVS_HBOND_DONOR>
4

> <PUBCHEM_CACTVS_ROTATABLE_BOND>
8

> <PUBCHEM_CACTVS_SUBSKEYS>
AAADceBzOAAAAAAAAAAAAAAAAAAAAAAAAAAwAAAAAAAAAAABAAAAHgAUCAAACAjhkAYwwIPQQgCBACRCQwCCAAAhAgAoiIAIdIoKcCLA0dGUIAhgkIDYyAcQAAAAAACAAAQAACAAAQAACAAAQAAAAAAAAA==

> <PUBCHEM_IUPAC_OPENEYE_NAME>
2-[4-[bis(2-hydroxyethyl)amino]-2-nitro-anilino]ethanol

> <PUBCHEM_IUPAC_CAS_NAME>
2-[4-[bis(2-hydroxyethyl)amino]-2-nitroanilino]ethanol

> <PUBCHEM_IUPAC_NAME>
2-[4-[bis(2-hydroxyethyl)amino]-2-nitroanilino]ethanol

> <PUBCHEM_IUPAC_SYSTEMATIC_NAME>
2-[[4-[bis(2-hydroxyethyl)amino]-2-nitro-phenyl]amino]ethanol

> <PUBCHEM_IUPAC_TRADITIONAL_NAME>
2-[4-[bis(2-hydroxyethyl)amino]-2-nitro-anilino]ethanol

> <PUBCHEM_IUPAC_INCHI>
InChI=1S/C12H19N3O5/c16-6-3-13-11-2-1-10(9-12(11)15(19)20)14(4-7-17)5-8-18/h1-2,9,13,16-18H,3-8H2

> <PUBCHEM_IUPAC_INCHIKEY>
MIWUTEVJIISHCP-UHFFFAOYSA-N

> <PUBCHEM_XLOGP3_AA>
0.4

> <PUBCHEM_EXACT_MASS>
285.132471

> <PUBCHEM_MOLECULAR_FORMULA>
C12H19N3O5

> <PUBCHEM_MOLECULAR_WEIGHT>
285.29636

> <PUBCHEM_OPENEYE_CAN_SMILES>
C1=CC(=C(C=C1N(CCO)CCO)[N+](=O)[O-])NCCO

> <PUBCHEM_OPENEYE_ISO_SMILES>
C1=CC(=C(C=C1N(CCO)CCO)[N+](=O)[O-])NCCO

> <PUBCHEM_CACTVS_TPSA>
122

> <PUBCHEM_MONOISOTOPIC_WEIGHT>
285.132471

> <PUBCHEM_TOTAL_CHARGE>
0

> <PUBCHEM_HEAVY_ATOM_COUNT>
20

> <PUBCHEM_ATOM_DEF_STEREO_COUNT>
0

> <PUBCHEM_ATOM_UDEF_STEREO_COUNT>
0

> <PUBCHEM_BOND_DEF_STEREO_COUNT>
0

> <PUBCHEM_BOND_UDEF_STEREO_COUNT>
0

> <PUBCHEM_ISOTOPIC_ATOM_COUNT>
0

> <PUBCHEM_COMPONENT_COUNT>
1

> <PUBCHEM_CACTVS_TAUTO_COUNT>
1

> <PUBCHEM_COORDINATE_TYPE>
1
5
255

> <PUBCHEM_BONDANNOTATIONS>
12  15  8
13  15  8
13  18  8
14  18  8
9  12  8
9  14  8

$$$$

