3669
  -OEChem-06251223342D

 95 99  0     1  0  0  0  0  0999 V2000
    8.2443   -4.0055    0.0000 S   0  0  0  0  0  0  0  0  0  0  0  0
    2.8718   -0.8903    0.0000 S   0  0  0  0  0  0  0  0  0  0  0  0
    3.7235   -3.4919    0.0000 S   0  0  0  0  0  0  0  0  0  0  0  0
    7.3763   -3.5088    0.0000 O   0  0  0  0  0  0  0  0  0  0  0  0
    3.7435   -0.4003    0.0000 O   0  0  0  0  0  0  0  0  0  0  0  0
    3.7274   -2.4919    0.0000 O   0  0  0  0  0  0  0  0  0  0  0  0
    9.1122   -4.5022    0.0000 O   0  5  0  0  0  0  0  0  0  0  0  0
    7.7476   -4.8734    0.0000 O   0  0  0  0  0  0  0  0  0  0  0  0
    8.7409   -3.1376    0.0000 O   0  0  0  0  0  0  0  0  0  0  0  0
    2.0000   -1.3802    0.0000 O   0  5  0  0  0  0  0  0  0  0  0  0
    2.3818   -0.0185    0.0000 O   0  0  0  0  0  0  0  0  0  0  0  0
    3.3617   -1.7620    0.0000 O   0  0  0  0  0  0  0  0  0  0  0  0
    3.7197   -4.4919    0.0000 O   0  5  0  0  0  0  0  0  0  0  0  0
    2.7235   -3.4881    0.0000 O   0  0  0  0  0  0  0  0  0  0  0  0
    4.7235   -3.4958    0.0000 O   0  0  0  0  0  0  0  0  0  0  0  0
    9.1205   -0.4396    0.0000 C   0  0  3  0  0  0  0  0  0  0  0  0
    9.1205    0.5604    0.0000 C   0  0  3  0  0  0  0  0  0  0  0  0
    8.2544   -0.9396    0.0000 C   0  0  3  0  0  0  0  0  0  0  0  0
   10.0667    0.8651    0.0000 C   0  0  3  0  0  0  0  0  0  0  0  0
   10.0667   -0.7443    0.0000 C   0  0  0  0  0  0  0  0  0  0  0  0
    6.4784   -0.9464    0.0000 C   0  0  3  0  0  0  0  0  0  0  0  0
    7.3884   -0.4396    0.0000 C   0  0  0  0  0  0  0  0  0  0  0  0
   10.6503    0.0604    0.0000 C   0  0  0  0  0  0  0  0  0  0  0  0
    8.2544    1.0604    0.0000 C   0  0  0  0  0  0  0  0  0  0  0  0
    6.4704   -1.9880    0.0000 C   0  0  3  0  0  0  0  0  0  0  0  0
    8.2705   -1.9811    0.0000 C   0  0  0  0  0  0  0  0  0  0  0  0
   10.3773    1.8157    0.0000 C   0  0  3  0  0  0  0  0  0  0  0  0
    7.3724   -2.5088    0.0000 C   0  0  3  0  0  0  0  0  0  0  0  0
    9.1205   -1.4396    0.0000 C   0  0  0  0  0  0  0  0  0  0  0  0
   12.6450    3.1786    0.0000 C   0  0  3  0  0  0  0  0  0  0  0  0
    9.1205    1.5604    0.0000 C   0  0  0  0  0  0  0  0  0  0  0  0
    7.3884    0.5604    0.0000 C   0  0  0  0  0  0  0  0  0  0  0  0
    5.5516   -0.3824    0.0000 C   0  0  0  0  0  0  0  0  0  0  0  0
   12.8512    2.2001    0.0000 C   0  0  3  0  0  0  0  0  0  0  0  0
   11.3558    2.0219    0.0000 C   0  0  0  0  0  0  0  0  0  0  0  0
   13.5955    2.8680    0.0000 C   0  0  0  0  0  0  0  0  0  0  0  0
   11.6665    2.9724    0.0000 C   0  0  0  0  0  0  0  0  0  0  0  0
    5.5350   -2.5378    0.0000 C   0  0  0  0  0  0  0  0  0  0  0  0
    6.4861    0.0535    0.0000 C   0  0  0  0  0  0  0  0  0  0  0  0
    4.6037   -0.9103    0.0000 C   0  0  3  0  0  0  0  0  0  0  0  0
    4.5953   -1.9953    0.0000 C   0  0  3  0  0  0  0  0  0  0  0  0
   12.9557    4.1291    0.0000 C   0  0  0  0  0  0  0  0  0  0  0  0
    9.7095    2.5600    0.0000 C   0  0  0  0  0  0  0  0  0  0  0  0
   12.5406    1.2496    0.0000 C   0  0  0  0  0  0  0  0  0  0  0  0
   12.2878    4.8734    0.0000 C   0  0  0  0  0  0  0  0  0  0  0  0
   13.9342    4.3354    0.0000 C   0  0  0  0  0  0  0  0  0  0  0  0
    8.7937   -1.2454    0.0000 H   0  0  0  0  0  0  0  0  0  0  0  0
   10.6792    0.9613    0.0000 H   0  0  0  0  0  0  0  0  0  0  0  0
    9.8156   -1.3112    0.0000 H   0  0  0  0  0  0  0  0  0  0  0  0
   10.6041   -1.0535    0.0000 H   0  0  0  0  0  0  0  0  0  0  0  0
   11.1112   -0.3543    0.0000 H   0  0  0  0  0  0  0  0  0  0  0  0
   11.1112    0.4751    0.0000 H   0  0  0  0  0  0  0  0  0  0  0  0
    8.6530    1.5354    0.0000 H   0  0  0  0  0  0  0  0  0  0  0  0
    7.8559    1.5354    0.0000 H   0  0  0  0  0  0  0  0  0  0  0  0
    6.4728   -2.6080    0.0000 H   0  0  0  0  0  0  0  0  0  0  0  0
    8.4885   -2.5615    0.0000 H   0  0  0  0  0  0  0  0  0  0  0  0
    8.8796   -1.8656    0.0000 H   0  0  0  0  0  0  0  0  0  0  0  0
   10.5700    2.4050    0.0000 H   0  0  0  0  0  0  0  0  0  0  0  0
    6.8361   -2.8199    0.0000 H   0  0  0  0  0  0  0  0  0  0  0  0
    8.5005   -1.4396    0.0000 H   0  0  0  0  0  0  0  0  0  0  0  0
    9.1205   -2.0596    0.0000 H   0  0  0  0  0  0  0  0  0  0  0  0
    9.7405   -1.4396    0.0000 H   0  0  0  0  0  0  0  0  0  0  0  0
    9.7405    1.5604    0.0000 H   0  0  0  0  0  0  0  0  0  0  0  0
    9.1205    2.1804    0.0000 H   0  0  0  0  0  0  0  0  0  0  0  0
    8.5005    1.5604    0.0000 H   0  0  0  0  0  0  0  0  0  0  0  0
    6.8515    0.8704    0.0000 H   0  0  0  0  0  0  0  0  0  0  0  0
    5.9598    0.0843    0.0000 H   0  0  0  0  0  0  0  0  0  0  0  0
    5.1616    0.0997    0.0000 H   0  0  0  0  0  0  0  0  0  0  0  0
   12.2321    2.2336    0.0000 H   0  0  0  0  0  0  0  0  0  0  0  0
   11.3764    1.4022    0.0000 H   0  0  0  0  0  0  0  0  0  0  0  0
   11.9697    1.9345    0.0000 H   0  0  0  0  0  0  0  0  0  0  0  0
   14.0834    2.4854    0.0000 H   0  0  0  0  0  0  0  0  0  0  0  0
   13.8876    3.4149    0.0000 H   0  0  0  0  0  0  0  0  0  0  0  0
   11.6459    3.5921    0.0000 H   0  0  0  0  0  0  0  0  0  0  0  0
   11.0527    3.0598    0.0000 H   0  0  0  0  0  0  0  0  0  0  0  0
    5.1376   -3.0137    0.0000 H   0  0  0  0  0  0  0  0  0  0  0  0
    5.9359   -3.0106    0.0000 H   0  0  0  0  0  0  0  0  0  0  0  0
    7.1061    0.0488    0.0000 H   0  0  0  0  0  0  0  0  0  0  0  0
    6.4909    0.6735    0.0000 H   0  0  0  0  0  0  0  0  0  0  0  0
    5.8661    0.0583    0.0000 H   0  0  0  0  0  0  0  0  0  0  0  0
    4.0638   -1.2151    0.0000 H   0  0  0  0  0  0  0  0  0  0  0  0
    4.0602   -1.6822    0.0000 H   0  0  0  0  0  0  0  0  0  0  0  0
   13.3697    3.6677    0.0000 H   0  0  0  0  0  0  0  0  0  0  0  0
   10.1710    2.9740    0.0000 H   0  0  0  0  0  0  0  0  0  0  0  0
    9.2954    3.0214    0.0000 H   0  0  0  0  0  0  0  0  0  0  0  0
    9.2480    2.1459    0.0000 H   0  0  0  0  0  0  0  0  0  0  0  0
   11.9512    1.4422    0.0000 H   0  0  0  0  0  0  0  0  0  0  0  0
   12.3480    0.6603    0.0000 H   0  0  0  0  0  0  0  0  0  0  0  0
   13.1299    1.0570    0.0000 H   0  0  0  0  0  0  0  0  0  0  0  0
   14.0620    3.7287    0.0000 H   0  0  0  0  0  0  0  0  0  0  0  0
   12.7493    5.2875    0.0000 H   0  0  0  0  0  0  0  0  0  0  0  0
   11.8738    5.3349    0.0000 H   0  0  0  0  0  0  0  0  0  0  0  0
   11.8264    4.4594    0.0000 H   0  0  0  0  0  0  0  0  0  0  0  0
   14.5409    4.4632    0.0000 H   0  0  0  0  0  0  0  0  0  0  0  0
   13.8063    4.9420    0.0000 H   0  0  0  0  0  0  0  0  0  0  0  0
  1  4  1  0  0  0  0
  1  7  1  0  0  0  0
  1  8  2  0  0  0  0
  1  9  2  0  0  0  0
  2  5  1  0  0  0  0
  2 10  1  0  0  0  0
  2 11  2  0  0  0  0
  2 12  2  0  0  0  0
  3  6  1  0  0  0  0
  3 13  1  0  0  0  0
  3 14  2  0  0  0  0
  3 15  2  0  0  0  0
  4 28  1  0  0  0  0
  5 40  1  0  0  0  0
  6 41  1  0  0  0  0
 16 17  1  0  0  0  0
 16 18  1  0  0  0  0
 16 20  1  0  0  0  0
 16 29  1  0  0  0  0
 17 19  1  0  0  0  0
 17 24  1  0  0  0  0
 17 31  1  0  0  0  0
 18 22  1  0  0  0  0
 18 26  1  0  0  0  0
 18 47  1  0  0  0  0
 19 23  1  0  0  0  0
 19 27  1  0  0  0  0
 19 48  1  0  0  0  0
 20 23  1  0  0  0  0
 20 49  1  0  0  0  0
 20 50  1  0  0  0  0
 21 22  1  0  0  0  0
 21 25  1  0  0  0  0
 21 33  1  0  0  0  0
 21 39  1  0  0  0  0
 22 32  2  0  0  0  0
 23 51  1  0  0  0  0
 23 52  1  0  0  0  0
 24 32  1  0  0  0  0
 24 53  1  0  0  0  0
 24 54  1  0  0  0  0
 25 28  1  0  0  0  0
 25 38  1  0  0  0  0
 25 55  1  0  0  0  0
 26 28  1  0  0  0  0
 26 56  1  0  0  0  0
 26 57  1  0  0  0  0
 27 35  1  0  0  0  0
 27 43  1  0  0  0  0
 27 58  1  0  0  0  0
 28 59  1  0  0  0  0
 29 60  1  0  0  0  0
 29 61  1  0  0  0  0
 29 62  1  0  0  0  0
 30 34  1  0  0  0  0
 30 36  1  0  0  0  0
 30 37  1  0  0  0  0
 30 42  1  0  0  0  0
 31 63  1  0  0  0  0
 31 64  1  0  0  0  0
 31 65  1  0  0  0  0
 32 66  1  0  0  0  0
 33 40  1  0  0  0  0
 33 67  1  0  0  0  0
 33 68  1  0  0  0  0
 34 36  1  0  0  0  0
 34 44  1  0  0  0  0
 34 69  1  0  0  0  0
 35 37  1  0  0  0  0
 35 70  1  0  0  0  0
 35 71  1  0  0  0  0
 36 72  1  0  0  0  0
 36 73  1  0  0  0  0
 37 74  1  0  0  0  0
 37 75  1  0  0  0  0
 38 41  1  0  0  0  0
 38 76  1  0  0  0  0
 38 77  1  0  0  0  0
 39 78  1  0  0  0  0
 39 79  1  0  0  0  0
 39 80  1  0  0  0  0
 40 41  1  0  0  0  0
 40 81  1  0  0  0  0
 41 82  1  0  0  0  0
 42 45  1  0  0  0  0
 42 46  1  0  0  0  0
 42 83  1  0  0  0  0
 43 84  1  0  0  0  0
 43 85  1  0  0  0  0
 43 86  1  0  0  0  0
 44 87  1  0  0  0  0
 44 88  1  0  0  0  0
 44 89  1  0  0  0  0
 45 91  1  0  0  0  0
 45 92  1  0  0  0  0
 45 93  1  0  0  0  0
 46 90  1  0  0  0  0
 46 94  1  0  0  0  0
 46 95  1  0  0  0  0
M  CHG  3   7  -1  10  -1  13  -1
M  END
> <PUBCHEM_COMPOUND_CID>
3669

> <PUBCHEM_COMPOUND_CANONICALIZED>
1

> <PUBCHEM_CACTVS_COMPLEXITY>
1500

> <PUBCHEM_CACTVS_HBOND_ACCEPTOR>
12

> <PUBCHEM_CACTVS_HBOND_DONOR>
0

> <PUBCHEM_CACTVS_ROTATABLE_BOND>
8

> <PUBCHEM_CACTVS_SUBSKEYS>
AAADcfB4PABgAAAAAAAAAAAAGAAAAYAAAAAwYIAAAAAAAEDAAAAAGgAAAAAADxSggAICAAAAAACAAiBCADAAAAAgAAAACAAAAAgBAAIAAQAAAAAEgAAIAAPA4PQPgAAAAAAAAADAAAYAADCAAQAACAAAAA==

> <PUBCHEM_IUPAC_OPENEYE_NAME>
[17-[3-(1-isopropyl-2-methyl-cyclopropyl)-1-methyl-propyl]-10,13,14-trimethyl-2,3-disulfonatooxy-1,2,3,4,5,6,7,8,12,15,16,17-dodecahydrocyclopenta[a]phenanthren-6-yl] sulfate

> <PUBCHEM_IUPAC_CAS_NAME>
[10,13,14-trimethyl-17-[4-(2-methyl-1-propan-2-ylcyclopropyl)butan-2-yl]-2,3-disulfonatooxy-1,2,3,4,5,6,7,8,12,15,16,17-dodecahydrocyclopenta[a]phenanthren-6-yl] sulfate

> <PUBCHEM_IUPAC_NAME>
[10,13,14-trimethyl-17-[4-(2-methyl-1-propan-2-ylcyclopropyl)butan-2-yl]-2,3-disulfonatooxy-1,2,3,4,5,6,7,8,12,15,16,17-dodecahydrocyclopenta[a]phenanthren-6-yl] sulfate

> <PUBCHEM_IUPAC_SYSTEMATIC_NAME>
[10,13,14-trimethyl-17-[4-(2-methyl-1-propan-2-yl-cyclopropyl)butan-2-yl]-2,3-disulfonatooxy-1,2,3,4,5,6,7,8,12,15,16,17-dodecahydrocyclopenta[a]phenanthren-6-yl] sulfate

> <PUBCHEM_IUPAC_TRADITIONAL_NAME>
[17-[3-(1-isopropyl-2-methyl-cyclopropyl)-1-methyl-propyl]-10,13,14-trimethyl-2,3-disulfato-1,2,3,4,5,6,7,8,12,15,16,17-dodecahydrocyclopenta[a]phenanthren-6-yl] sulfate

> <PUBCHEM_IUPAC_INCHI>
InChI=1S/C31H52O12S3/c1-18(2)31(16-20(31)4)13-8-19(3)21-9-11-30(7)23-14-25(41-44(32,33)34)24-15-26(42-45(35,36)37)27(43-46(38,39)40)17-28(24,5)22(23)10-12-29(21,30)6/h10,18-21,23-27H,8-9,11-17H2,1-7H3,(H,32,33,34)(H,35,36,37)(H,38,39,40)/p-3

> <PUBCHEM_IUPAC_INCHIKEY>
FWGYFSFKAJGECF-UHFFFAOYSA-K

> <PUBCHEM_XLOGP3_AA>
5.8

> <PUBCHEM_EXACT_MASS>
709.238615

> <PUBCHEM_MOLECULAR_FORMULA>
C31H49O12S3-3

> <PUBCHEM_MOLECULAR_WEIGHT>
709.90856

> <PUBCHEM_OPENEYE_CAN_SMILES>
CC1CC1(CCC(C)C2CCC3(C2(CC=C4C3CC(C5C4(CC(C(C5)OS(=O)(=O)[O-])OS(=O)(=O)[O-])C)OS(=O)(=O)[O-])C)C)C(C)C

> <PUBCHEM_OPENEYE_ISO_SMILES>
CC1CC1(CCC(C)C2CCC3(C2(CC=C4C3CC(C5C4(CC(C(C5)OS(=O)(=O)[O-])OS(=O)(=O)[O-])C)OS(=O)(=O)[O-])C)C)C(C)C

> <PUBCHEM_CACTVS_TPSA>
224

> <PUBCHEM_MONOISOTOPIC_WEIGHT>
709.238615

> <PUBCHEM_TOTAL_CHARGE>
-3

> <PUBCHEM_HEAVY_ATOM_COUNT>
46

> <PUBCHEM_ATOM_DEF_STEREO_COUNT>
0

> <PUBCHEM_ATOM_UDEF_STEREO_COUNT>
12

> <PUBCHEM_BOND_DEF_STEREO_COUNT>
0

> <PUBCHEM_BOND_UDEF_STEREO_COUNT>
0

> <PUBCHEM_ISOTOPIC_ATOM_COUNT>
0

> <PUBCHEM_COMPONENT_COUNT>
1

> <PUBCHEM_CACTVS_TAUTO_COUNT>
1

> <PUBCHEM_COORDINATE_TYPE>
1
5
255

> <PUBCHEM_BONDANNOTATIONS>
16  29  3
17  31  3
18  26  3
19  23  3
21  39  3
25  38  3
27  43  3
30  37  3
34  44  3
28  4  3
40  5  3
41  6  3

$$$$

