164480
  -OEChem-07051213082D

 26 28  0     1  0  0  0  0  0999 V2000
    5.6454    1.0251    0.0000 O   0  0  0  0  0  0  0  0  0  0  0  0
    6.6498    1.2608    0.0000 O   0  0  0  0  0  0  0  0  0  0  0  0
    4.5274    1.6618    0.0000 O   0  0  0  0  0  0  0  0  0  0  0  0
    5.3364    0.0740    0.0000 C   0  0  1  0  0  0  0  0  0  0  0  0
    5.0274   -0.8771    0.0000 C   0  0  0  0  0  0  0  0  0  0  0  0
    6.3518    0.3063    0.0000 C   0  0  1  0  0  0  0  0  0  0  0  0
    4.5274    0.6618    0.0000 C   0  0  0  0  0  0  0  0  0  0  0  0
    4.0274   -0.8771    0.0000 C   0  0  0  0  0  0  0  0  0  0  0  0
    3.7183    0.0740    0.0000 C   0  0  0  0  0  0  0  0  0  0  0  0
    5.7123   -1.6618    0.0000 C   0  0  0  0  0  0  0  0  0  0  0  0
    7.0547   -0.4624    0.0000 C   0  0  0  0  0  0  0  0  0  0  0  0
    6.7328   -1.4531    0.0000 C   0  0  0  0  0  0  0  0  0  0  0  0
    3.3424   -1.6618    0.0000 C   0  0  0  0  0  0  0  0  0  0  0  0
    2.7029    0.3063    0.0000 C   0  0  0  0  0  0  0  0  0  0  0  0
    2.3219   -1.4531    0.0000 C   0  0  0  0  0  0  0  0  0  0  0  0
    2.0000   -0.4624    0.0000 C   0  0  0  0  0  0  0  0  0  0  0  0
    6.9570    0.4410    0.0000 H   0  0  0  0  0  0  0  0  0  0  0  0
    5.5139   -2.2492    0.0000 H   0  0  0  0  0  0  0  0  0  0  0  0
    7.6607   -0.3312    0.0000 H   0  0  0  0  0  0  0  0  0  0  0  0
    7.1459   -1.9154    0.0000 H   0  0  0  0  0  0  0  0  0  0  0  0
    3.5408   -2.2492    0.0000 H   0  0  0  0  0  0  0  0  0  0  0  0
    5.2305    1.4858    0.0000 H   0  0  0  0  0  0  0  0  0  0  0  0
    2.5182    0.8981    0.0000 H   0  0  0  0  0  0  0  0  0  0  0  0
    7.2547    1.3967    0.0000 H   0  0  0  0  0  0  0  0  0  0  0  0
    1.9088   -1.9154    0.0000 H   0  0  0  0  0  0  0  0  0  0  0  0
    1.3940   -0.3312    0.0000 H   0  0  0  0  0  0  0  0  0  0  0  0
  4  1  1  6  0  0  0
  1 22  1  0  0  0  0
  6  2  1  6  0  0  0
  2 24  1  0  0  0  0
  3  7  2  0  0  0  0
  4  5  1  0  0  0  0
  4  6  1  0  0  0  0
  4  7  1  0  0  0  0
  5  8  1  0  0  0  0
  5 10  2  0  0  0  0
  6 11  1  0  0  0  0
  6 17  1  0  0  0  0
  7  9  1  0  0  0  0
  8  9  1  0  0  0  0
  8 13  2  0  0  0  0
  9 14  2  0  0  0  0
 10 12  1  0  0  0  0
 10 18  1  0  0  0  0
 11 12  2  0  0  0  0
 11 19  1  0  0  0  0
 12 20  1  0  0  0  0
 13 15  1  0  0  0  0
 13 21  1  0  0  0  0
 14 16  1  0  0  0  0
 14 23  1  0  0  0  0
 15 16  2  0  0  0  0
 15 25  1  0  0  0  0
 16 26  1  0  0  0  0
M  END
> <PUBCHEM_COMPOUND_CID>
164480

> <PUBCHEM_COMPOUND_CANONICALIZED>
1

> <PUBCHEM_CACTVS_COMPLEXITY>
396

> <PUBCHEM_CACTVS_HBOND_ACCEPTOR>
3

> <PUBCHEM_CACTVS_HBOND_DONOR>
2

> <PUBCHEM_CACTVS_ROTATABLE_BOND>
0

> <PUBCHEM_CACTVS_SUBSKEYS>
AAADccBwMAAAAAAAAAAAAAAAAAAAAYAAAAAwQAAAAAAAAGABAAAAGgAACAAADFSgmAIwAIAAAgCIAqBSAAICAAAkAAAIiAFAAMgJNDaAFRCAcQAk4AEJmYeIzPDOgAAAAAAQAAAAAAAAACAAAYAACAAAAA==

> <PUBCHEM_IUPAC_OPENEYE_NAME>
(1R,9aS)-1,9a-dihydroxy-1H-fluoren-9-one

> <PUBCHEM_IUPAC_CAS_NAME>
(1R,9aS)-1,9a-dihydroxy-1H-fluoren-9-one

> <PUBCHEM_IUPAC_NAME>
(1R,9aS)-1,9a-dihydroxy-1H-fluoren-9-one

> <PUBCHEM_IUPAC_SYSTEMATIC_NAME>
(1R,9aS)-1,9a-bis(oxidanyl)-1H-fluoren-9-one

> <PUBCHEM_IUPAC_TRADITIONAL_NAME>
(1R,9aS)-1,9a-dihydroxy-1H-fluoren-9-one

> <PUBCHEM_IUPAC_INCHI>
InChI=1S/C13H10O3/c14-11-7-3-6-10-8-4-1-2-5-9(8)12(15)13(10,11)16/h1-7,11,14,16H/t11-,13+/m1/s1

> <PUBCHEM_IUPAC_INCHIKEY>
CZWUUOGKBHOBEC-YPMHNXCESA-N

> <PUBCHEM_XLOGP3_AA>
0.7

> <PUBCHEM_EXACT_MASS>
214.062994

> <PUBCHEM_MOLECULAR_FORMULA>
C13H10O3

> <PUBCHEM_MOLECULAR_WEIGHT>
214.2167

> <PUBCHEM_OPENEYE_CAN_SMILES>
C1=CC=C2C(=C1)C3=CC=CC(C3(C2=O)O)O

> <PUBCHEM_OPENEYE_ISO_SMILES>
C1=CC=C2C(=C1)C3=CC=C[C@H]([C@@]3(C2=O)O)O

> <PUBCHEM_CACTVS_TPSA>
57.5

> <PUBCHEM_MONOISOTOPIC_WEIGHT>
214.062994

> <PUBCHEM_TOTAL_CHARGE>
0

> <PUBCHEM_HEAVY_ATOM_COUNT>
16

> <PUBCHEM_ATOM_DEF_STEREO_COUNT>
2

> <PUBCHEM_ATOM_UDEF_STEREO_COUNT>
0

> <PUBCHEM_BOND_DEF_STEREO_COUNT>
0

> <PUBCHEM_BOND_UDEF_STEREO_COUNT>
0

> <PUBCHEM_ISOTOPIC_ATOM_COUNT>
0

> <PUBCHEM_COMPONENT_COUNT>
1

> <PUBCHEM_CACTVS_TAUTO_COUNT>
1

> <PUBCHEM_COORDINATE_TYPE>
1
5
255

> <PUBCHEM_BONDANNOTATIONS>
4  1  6
13  15  8
14  16  8
15  16  8
6  2  6
8  13  8
8  9  8
9  14  8

$$$$

