441962
  -OEChem-07051212562D

 40 41  0     0  0  0  0  0  0999 V2000
    6.8950   -0.0347    0.0000 O   0  0  0  0  0  0  0  0  0  0  0  0
    2.5369    1.5000    0.0000 O   0  0  0  0  0  0  0  0  0  0  0  0
    3.4030    3.0000    0.0000 O   0  0  0  0  0  0  0  0  0  0  0  0
    7.8010    0.4792    0.0000 C   0  0  0  0  0  0  0  0  0  0  0  0
    6.0010    0.5000    0.0000 C   0  0  0  0  0  0  0  0  0  0  0  0
    6.0010    1.5000    0.0000 C   0  0  0  0  0  0  0  0  0  0  0  0
    5.1350    0.0000    0.0000 C   0  0  0  0  0  0  0  0  0  0  0  0
    7.8010    1.5208    0.0000 C   0  0  0  0  0  0  0  0  0  0  0  0
    8.8010    0.4753    0.0000 C   0  0  0  0  0  0  0  0  0  0  0  0
    8.2977   -0.3888    0.0000 C   0  0  0  0  0  0  0  0  0  0  0  0
    6.8950    2.0347    0.0000 C   0  0  0  0  0  0  0  0  0  0  0  0
    5.1350   -1.0000    0.0000 C   0  0  0  0  0  0  0  0  0  0  0  0
    5.1350    2.0000    0.0000 C   0  0  0  0  0  0  0  0  0  0  0  0
    4.2690    0.5000    0.0000 C   0  0  0  0  0  0  0  0  0  0  0  0
    4.2690    1.5000    0.0000 C   0  0  0  0  0  0  0  0  0  0  0  0
    4.2690   -1.5000    0.0000 C   0  0  0  0  0  0  0  0  0  0  0  0
    4.2690   -2.5000    0.0000 C   0  0  0  0  0  0  0  0  0  0  0  0
    3.4030    2.0000    0.0000 C   0  0  0  0  0  0  0  0  0  0  0  0
    3.4030   -3.0000    0.0000 C   0  0  0  0  0  0  0  0  0  0  0  0
    5.1350   -3.0000    0.0000 C   0  0  0  0  0  0  0  0  0  0  0  0
    8.3368    1.8329    0.0000 H   0  0  0  0  0  0  0  0  0  0  0  0
    7.7596   -0.6967    0.0000 H   0  0  0  0  0  0  0  0  0  0  0  0
    8.6056   -0.9269    0.0000 H   0  0  0  0  0  0  0  0  0  0  0  0
    8.7986   -0.1447    0.0000 H   0  0  0  0  0  0  0  0  0  0  0  0
    9.4210    0.4729    0.0000 H   0  0  0  0  0  0  0  0  0  0  0  0
    8.8034    1.0953    0.0000 H   0  0  0  0  0  0  0  0  0  0  0  0
    8.8358   -0.0808    0.0000 H   0  0  0  0  0  0  0  0  0  0  0  0
    6.8878    2.6546    0.0000 H   0  0  0  0  0  0  0  0  0  0  0  0
    5.3471   -1.5826    0.0000 H   0  0  0  0  0  0  0  0  0  0  0  0
    5.7456   -0.8923    0.0000 H   0  0  0  0  0  0  0  0  0  0  0  0
    5.1350    2.6200    0.0000 H   0  0  0  0  0  0  0  0  0  0  0  0
    3.7320    0.1900    0.0000 H   0  0  0  0  0  0  0  0  0  0  0  0
    3.7320   -1.1900    0.0000 H   0  0  0  0  0  0  0  0  0  0  0  0
    3.0930   -2.4631    0.0000 H   0  0  0  0  0  0  0  0  0  0  0  0
    4.8250   -3.5369    0.0000 H   0  0  0  0  0  0  0  0  0  0  0  0
    5.6720   -3.3100    0.0000 H   0  0  0  0  0  0  0  0  0  0  0  0
    5.4450   -2.4631    0.0000 H   0  0  0  0  0  0  0  0  0  0  0  0
    2.8660   -3.3100    0.0000 H   0  0  0  0  0  0  0  0  0  0  0  0
    3.7130   -3.5369    0.0000 H   0  0  0  0  0  0  0  0  0  0  0  0
    2.0000    1.8100    0.0000 H   0  0  0  0  0  0  0  0  0  0  0  0
  1  4  1  0  0  0  0
  1  5  1  0  0  0  0
  2 18  1  0  0  0  0
  2 40  1  0  0  0  0
  3 18  2  0  0  0  0
  4  8  1  0  0  0  0
  4  9  1  0  0  0  0
  4 10  1  0  0  0  0
  5  6  2  0  0  0  0
  5  7  1  0  0  0  0
  6 11  1  0  0  0  0
  6 13  1  0  0  0  0
  7 12  1  0  0  0  0
  7 14  2  0  0  0  0
  8 11  2  0  0  0  0
  8 21  1  0  0  0  0
  9 24  1  0  0  0  0
  9 25  1  0  0  0  0
  9 26  1  0  0  0  0
 10 22  1  0  0  0  0
 10 23  1  0  0  0  0
 10 27  1  0  0  0  0
 11 28  1  0  0  0  0
 12 16  1  0  0  0  0
 12 29  1  0  0  0  0
 12 30  1  0  0  0  0
 13 15  2  0  0  0  0
 13 31  1  0  0  0  0
 14 15  1  0  0  0  0
 14 32  1  0  0  0  0
 15 18  1  0  0  0  0
 16 17  2  0  0  0  0
 16 33  1  0  0  0  0
 17 19  1  0  0  0  0
 17 20  1  0  0  0  0
 19 34  1  0  0  0  0
 19 38  1  0  0  0  0
 19 39  1  0  0  0  0
 20 35  1  0  0  0  0
 20 36  1  0  0  0  0
 20 37  1  0  0  0  0
M  END
> <PUBCHEM_COMPOUND_CID>
441962

> <PUBCHEM_COMPOUND_CANONICALIZED>
1

> <PUBCHEM_CACTVS_COMPLEXITY>
430

> <PUBCHEM_CACTVS_HBOND_ACCEPTOR>
3

> <PUBCHEM_CACTVS_HBOND_DONOR>
1

> <PUBCHEM_CACTVS_ROTATABLE_BOND>
3

> <PUBCHEM_CACTVS_SUBSKEYS>
AAADceB4MAAAAAAAAAAAAAAAAAAAAAAAAAAwQAAAAAAAAACBAAAAGgAACAAADESAmAAyDoAABgCIAiDSCAACCAAkIAAIiAEECMgMJjKENRqCeSCkwBEIuYeI7OzOIAACAAAIAABAAAQAABAAAAAAAAAAAA==

> <PUBCHEM_IUPAC_OPENEYE_NAME>
2,2-dimethyl-8-(3-methylbut-2-enyl)chromene-6-carboxylic acid

> <PUBCHEM_IUPAC_CAS_NAME>
2,2-dimethyl-8-(3-methylbut-2-enyl)-1-benzopyran-6-carboxylic acid

> <PUBCHEM_IUPAC_NAME>
2,2-dimethyl-8-(3-methylbut-2-enyl)chromene-6-carboxylic acid

> <PUBCHEM_IUPAC_SYSTEMATIC_NAME>
2,2-dimethyl-8-(3-methylbut-2-enyl)chromene-6-carboxylic acid

> <PUBCHEM_IUPAC_TRADITIONAL_NAME>
2,2-dimethyl-8-(3-methylbut-2-enyl)chromene-6-carboxylic acid

> <PUBCHEM_IUPAC_INCHI>
InChI=1S/C17H20O3/c1-11(2)5-6-12-9-14(16(18)19)10-13-7-8-17(3,4)20-15(12)13/h5,7-10H,6H2,1-4H3,(H,18,19)

> <PUBCHEM_IUPAC_INCHIKEY>
MCQWYGYDCGLCJD-UHFFFAOYSA-N

> <PUBCHEM_XLOGP3_AA>
4.3

> <PUBCHEM_EXACT_MASS>
272.141245

> <PUBCHEM_MOLECULAR_FORMULA>
C17H20O3

> <PUBCHEM_MOLECULAR_WEIGHT>
272.3389

> <PUBCHEM_OPENEYE_CAN_SMILES>
CC(=CCC1=C2C(=CC(=C1)C(=O)O)C=CC(O2)(C)C)C

> <PUBCHEM_OPENEYE_ISO_SMILES>
CC(=CCC1=C2C(=CC(=C1)C(=O)O)C=CC(O2)(C)C)C

> <PUBCHEM_CACTVS_TPSA>
46.5

> <PUBCHEM_MONOISOTOPIC_WEIGHT>
272.141245

> <PUBCHEM_TOTAL_CHARGE>
0

> <PUBCHEM_HEAVY_ATOM_COUNT>
20

> <PUBCHEM_ATOM_DEF_STEREO_COUNT>
0

> <PUBCHEM_ATOM_UDEF_STEREO_COUNT>
0

> <PUBCHEM_BOND_DEF_STEREO_COUNT>
0

> <PUBCHEM_BOND_UDEF_STEREO_COUNT>
0

> <PUBCHEM_ISOTOPIC_ATOM_COUNT>
0

> <PUBCHEM_COMPONENT_COUNT>
1

> <PUBCHEM_CACTVS_TAUTO_COUNT>
1

> <PUBCHEM_COORDINATE_TYPE>
1
5
255

> <PUBCHEM_BONDANNOTATIONS>
13  15  8
14  15  8
5  6  8
5  7  8
6  13  8
7  14  8

$$$$

