351795
  -OEChem-07051212473D

 20 21  0     0  0  0  0  0  0999 V2000
   -0.5341    2.0313    0.2456 N   0  0  0  0  0  0  0  0  0  0  0  0
    3.6150   -0.9911    1.0682 N   0  0  0  0  0  0  0  0  0  0  0  0
   -0.3189   -0.1263   -0.2791 C   0  0  0  0  0  0  0  0  0  0  0  0
    0.9291    0.5275   -0.4787 C   0  0  0  0  0  0  0  0  0  0  0  0
   -1.2195    0.8394    0.1753 C   0  0  0  0  0  0  0  0  0  0  0  0
    0.7650    1.8529   -0.1477 C   0  0  0  0  0  0  0  0  0  0  0  0
   -0.7702   -1.4512   -0.4420 C   0  0  0  0  0  0  0  0  0  0  0  0
    2.1819   -0.0938   -0.9545 C   0  0  0  0  0  0  0  0  0  0  0  0
   -2.5542    0.5453    0.4763 C   0  0  0  0  0  0  0  0  0  0  0  0
   -2.1026   -1.7600   -0.1450 C   0  0  0  0  0  0  0  0  0  0  0  0
   -2.9791   -0.7755    0.3071 C   0  0  0  0  0  0  0  0  0  0  0  0
    2.9876   -0.5984    0.1743 C   0  0  0  0  0  0  0  0  0  0  0  0
    1.4544    2.6858   -0.1557 H   0  0  0  0  0  0  0  0  0  0  0  0
   -0.9331    2.9104    0.5446 H   0  0  0  0  0  0  0  0  0  0  0  0
   -0.1005   -2.2313   -0.7923 H   0  0  0  0  0  0  0  0  0  0  0  0
    2.7710    0.6362   -1.5228 H   0  0  0  0  0  0  0  0  0  0  0  0
    1.9637   -0.9154   -1.6466 H   0  0  0  0  0  0  0  0  0  0  0  0
   -3.2374    1.3110    0.8283 H   0  0  0  0  0  0  0  0  0  0  0  0
   -2.4563   -2.7802   -0.2685 H   0  0  0  0  0  0  0  0  0  0  0  0
   -4.0099   -1.0376    0.5320 H   0  0  0  0  0  0  0  0  0  0  0  0
  1  5  1  0  0  0  0
  1  6  1  0  0  0  0
  1 14  1  0  0  0  0
  2 12  3  0  0  0  0
  3  4  1  0  0  0  0
  3  5  1  0  0  0  0
  3  7  2  0  0  0  0
  4  6  2  0  0  0  0
  4  8  1  0  0  0  0
  5  9  2  0  0  0  0
  6 13  1  0  0  0  0
  7 10  1  0  0  0  0
  7 15  1  0  0  0  0
  8 12  1  0  0  0  0
  8 16  1  0  0  0  0
  8 17  1  0  0  0  0
  9 11  1  0  0  0  0
  9 18  1  0  0  0  0
 10 11  2  0  0  0  0
 10 19  1  0  0  0  0
 11 20  1  0  0  0  0
M  END
> <PUBCHEM_COMPOUND_CID>
351795

> <PUBCHEM_CONFORMER_RMSD>
0.4

> <PUBCHEM_CONFORMER_DIVERSEORDER>
1
5
4
6
3
2

> <PUBCHEM_MMFF94_PARTIAL_CHARGES>
17
1 0.03
10 -0.15
11 -0.15
12 0.36
13 0.15
14 0.27
15 0.15
18 0.15
19 0.15
2 -0.56
20 0.15
4 -0.18
5 -0.15
6 -0.3
7 -0.15
8 0.38
9 -0.15

> <PUBCHEM_EFFECTIVE_ROTOR_COUNT>
1

> <PUBCHEM_PHARMACOPHORE_FEATURES>
5
1 1 cation
1 1 donor
1 2 acceptor
5 1 3 4 5 6 rings
6 3 5 7 9 10 11 rings

> <PUBCHEM_HEAVY_ATOM_COUNT>
12

> <PUBCHEM_ATOM_DEF_STEREO_COUNT>
0

> <PUBCHEM_ATOM_UDEF_STEREO_COUNT>
0

> <PUBCHEM_BOND_DEF_STEREO_COUNT>
0

> <PUBCHEM_BOND_UDEF_STEREO_COUNT>
0

> <PUBCHEM_ISOTOPIC_ATOM_COUNT>
0

> <PUBCHEM_COMPONENT_COUNT>
1

> <PUBCHEM_CACTVS_TAUTO_COUNT>
1

> <PUBCHEM_CONFORMER_ID>
00055E3300000001

> <PUBCHEM_MMFF94_ENERGY>
16.3814

> <PUBCHEM_FEATURE_SELFOVERLAP>
25.463

> <PUBCHEM_SHAPE_FINGERPRINT>
10130415 120 18412257311926469547
10857977 72 18186517713372538076
11769659 78 18201440237882239763
12202030 40 16772944771194103907
12382932 28 18334293197200882930
15375462 189 18271797982885879866
16945 1 18335126635652021133
20871998 184 18260269689352267734
21501502 16 18191299378025878309
21501925 9 18262523576388137715
21650355 55 18338531823390012464
232386 152 18411695470233048278
23402539 116 18261122919440311541
23419403 2 15797701068702301549
23463225 33 18412821399930348694
23552423 10 17981035315438580981
23559900 14 18188760786588158030
2748010 2 18263355894042917285
53812654 25 18261393316952287855
7364860 26 17971746671267008676

> <PUBCHEM_SHAPE_MULTIPOLES>
236.99
4.71
1.88
0.84
2.12
0.43
0.02
-2.09
1.19
-0.36
0.04
0.42
-0.12
-0.49

> <PUBCHEM_SHAPE_SELFOVERLAP>
516.031

> <PUBCHEM_SHAPE_VOLUME>
129.4

> <PUBCHEM_COORDINATE_TYPE>
2
5
10

$$$$

