25208
  -OEChem-07051213052D

 26 27  0     1  0  0  0  0  0999 V2000
    6.5640   -2.2840    0.0000 O   0  0  0  0  0  0  0  0  0  0  0  0
    7.1888    0.0480    0.0000 O   0  0  0  0  0  0  0  0  0  0  0  0
    3.7543    1.2894    0.0000 C   0  0  0  0  0  0  0  0  0  0  0  0
    4.2320   -0.6591    0.0000 C   0  0  3  0  0  0  0  0  0  0  0  0
    4.4909    0.3068    0.0000 C   0  0  3  0  0  0  0  0  0  0  0  0
    2.5000   -1.6591    0.0000 C   0  0  0  0  0  0  0  0  0  0  0  0
    2.0000   -0.7931    0.0000 C   0  0  0  0  0  0  0  0  0  0  0  0
    6.0640   -1.4179    0.0000 C   0  0  0  0  0  0  0  0  0  0  0  0
    6.3228   -0.4520    0.0000 C   0  0  0  0  0  0  0  0  0  0  0  0
    3.8588    2.2840    0.0000 C   0  0  0  0  0  0  0  0  0  0  0  0
    2.8407    1.6962    0.0000 C   0  0  0  0  0  0  0  0  0  0  0  0
    3.9732   -1.6250    0.0000 C   0  0  0  0  0  0  0  0  0  0  0  0
    4.4980   -0.3131    0.0000 H   0  0  0  0  0  0  0  0  0  0  0  0
    1.9631   -1.9691    0.0000 H   0  0  0  0  0  0  0  0  0  0  0  0
    2.8100   -2.1960    0.0000 H   0  0  0  0  0  0  0  0  0  0  0  0
    1.7294   -0.2353    0.0000 H   0  0  0  0  0  0  0  0  0  0  0  0
    1.4523   -1.0836    0.0000 H   0  0  0  0  0  0  0  0  0  0  0  0
    4.4754    2.2192    0.0000 H   0  0  0  0  0  0  0  0  0  0  0  0
    3.9236    2.9006    0.0000 H   0  0  0  0  0  0  0  0  0  0  0  0
    3.2422    2.3488    0.0000 H   0  0  0  0  0  0  0  0  0  0  0  0
    3.0929    2.2626    0.0000 H   0  0  0  0  0  0  0  0  0  0  0  0
    2.2743    1.9483    0.0000 H   0  0  0  0  0  0  0  0  0  0  0  0
    2.5885    1.1298    0.0000 H   0  0  0  0  0  0  0  0  0  0  0  0
    3.3744   -1.4646    0.0000 H   0  0  0  0  0  0  0  0  0  0  0  0
    3.8128   -2.2239    0.0000 H   0  0  0  0  0  0  0  0  0  0  0  0
    4.5721   -1.7855    0.0000 H   0  0  0  0  0  0  0  0  0  0  0  0
  1  8  2  0  0  0  0
  2  9  2  0  0  0  0
  3  4  1  0  0  0  0
  3  5  1  0  0  0  0
  3 10  1  0  0  0  0
  3 11  1  0  0  0  0
  4  6  1  0  0  0  0
  4  8  1  0  0  0  0
  4 12  1  0  0  0  0
  5  7  1  0  0  0  0
  5  9  1  0  0  0  0
  5 13  1  0  0  0  0
  6  7  1  0  0  0  0
  6 14  1  0  0  0  0
  6 15  1  0  0  0  0
  7 16  1  0  0  0  0
  7 17  1  0  0  0  0
  8  9  1  0  0  0  0
 10 18  1  0  0  0  0
 10 19  1  0  0  0  0
 10 20  1  0  0  0  0
 11 21  1  0  0  0  0
 11 22  1  0  0  0  0
 11 23  1  0  0  0  0
 12 24  1  0  0  0  0
 12 25  1  0  0  0  0
 12 26  1  0  0  0  0
M  END
> <PUBCHEM_COMPOUND_CID>
25208

> <PUBCHEM_COMPOUND_CANONICALIZED>
1

> <PUBCHEM_CACTVS_COMPLEXITY>
278

> <PUBCHEM_CACTVS_HBOND_ACCEPTOR>
2

> <PUBCHEM_CACTVS_HBOND_DONOR>
0

> <PUBCHEM_CACTVS_ROTATABLE_BOND>
0

> <PUBCHEM_CACTVS_SUBSKEYS>
AAADccBwMAAAAAAAAAAAAAAAAAAAAYMAAAAwAAAAAAAAAAAAAAAAGgAAAAAADwSAgAACAAAAAAAIAIAQAAAAAAAAAAAAAAEAAAAAABIAAAAAAAAAAAAAAAEIisCPgAAAAAAAAACAAAAAAAAAAQAACAAAAA==

> <PUBCHEM_IUPAC_OPENEYE_NAME>
1,7,7-trimethylnorbornane-2,3-dione

> <PUBCHEM_IUPAC_CAS_NAME>
4,7,7-trimethylbicyclo[2.2.1]heptane-2,3-dione

> <PUBCHEM_IUPAC_NAME>
4,7,7-trimethylbicyclo[2.2.1]heptane-2,3-dione

> <PUBCHEM_IUPAC_SYSTEMATIC_NAME>
4,7,7-trimethylbicyclo[2.2.1]heptane-2,3-dione

> <PUBCHEM_IUPAC_TRADITIONAL_NAME>
1,7,7-trimethylnorbornane-2,3-quinone

> <PUBCHEM_IUPAC_INCHI>
InChI=1S/C10H14O2/c1-9(2)6-4-5-10(9,3)8(12)7(6)11/h6H,4-5H2,1-3H3

> <PUBCHEM_IUPAC_INCHIKEY>
VNQXSTWCDUXYEZ-UHFFFAOYSA-N

> <PUBCHEM_XLOGP3>
1.5

> <PUBCHEM_EXACT_MASS>
166.09938

> <PUBCHEM_MOLECULAR_FORMULA>
C10H14O2

> <PUBCHEM_MOLECULAR_WEIGHT>
166.21696

> <PUBCHEM_OPENEYE_CAN_SMILES>
CC1(C2CCC1(C(=O)C2=O)C)C

> <PUBCHEM_OPENEYE_ISO_SMILES>
CC1(C2CCC1(C(=O)C2=O)C)C

> <PUBCHEM_CACTVS_TPSA>
34.1

> <PUBCHEM_MONOISOTOPIC_WEIGHT>
166.09938

> <PUBCHEM_TOTAL_CHARGE>
0

> <PUBCHEM_HEAVY_ATOM_COUNT>
12

> <PUBCHEM_ATOM_DEF_STEREO_COUNT>
0

> <PUBCHEM_ATOM_UDEF_STEREO_COUNT>
2

> <PUBCHEM_BOND_DEF_STEREO_COUNT>
0

> <PUBCHEM_BOND_UDEF_STEREO_COUNT>
0

> <PUBCHEM_ISOTOPIC_ATOM_COUNT>
0

> <PUBCHEM_COMPONENT_COUNT>
1

> <PUBCHEM_CACTVS_TAUTO_COUNT>
1

> <PUBCHEM_COORDINATE_TYPE>
1
5
255

> <PUBCHEM_BONDANNOTATIONS>
5  3  3
4  12  3

$$$$

