5284654
  -OEChem-07051213052D

 38 40  0     0  0  0  0  0  0999 V2000
    7.1962    1.7327    0.0000 O   0  0  0  0  0  0  0  0  0  0  0  0
    5.4641    1.7327    0.0000 O   0  0  0  0  0  0  0  0  0  0  0  0
   10.7263    1.7568    0.0000 O   0  0  0  0  0  0  0  0  0  0  0  0
    2.8660   -1.7673    0.0000 O   0  0  0  0  0  0  0  0  0  0  0  0
    7.1962   -0.2673    0.0000 C   0  0  0  0  0  0  0  0  0  0  0  0
    8.0622    0.2327    0.0000 C   0  0  0  0  0  0  0  0  0  0  0  0
    6.3301    0.2327    0.0000 C   0  0  0  0  0  0  0  0  0  0  0  0
    7.1962   -1.2673    0.0000 C   0  0  0  0  0  0  0  0  0  0  0  0
    8.0622    1.2327    0.0000 C   0  0  0  0  0  0  0  0  0  0  0  0
    5.4641   -0.2673    0.0000 C   0  0  0  0  0  0  0  0  0  0  0  0
    6.3301    1.2327    0.0000 C   0  0  0  0  0  0  0  0  0  0  0  0
    8.9561   -0.3020    0.0000 C   0  0  0  0  0  0  0  0  0  0  0  0
    8.0622   -1.7673    0.0000 C   0  0  0  0  0  0  0  0  0  0  0  0
    8.9561    1.7673    0.0000 C   0  0  0  0  0  0  0  0  0  0  0  0
    4.5981    0.2327    0.0000 C   0  0  0  0  0  0  0  0  0  0  0  0
    5.4641   -1.2673    0.0000 C   0  0  0  0  0  0  0  0  0  0  0  0
    9.8622    0.2119    0.0000 C   0  0  0  0  0  0  0  0  0  0  0  0
    9.8622    1.2535    0.0000 C   0  0  0  0  0  0  0  0  0  0  0  0
    3.7320   -0.2673    0.0000 C   0  0  0  0  0  0  0  0  0  0  0  0
    4.5981   -1.7673    0.0000 C   0  0  0  0  0  0  0  0  0  0  0  0
    3.7320   -1.2673    0.0000 C   0  0  0  0  0  0  0  0  0  0  0  0
    2.0000   -1.2673    0.0000 C   0  0  0  0  0  0  0  0  0  0  0  0
    6.5856   -1.1597    0.0000 H   0  0  0  0  0  0  0  0  0  0  0  0
    6.9841   -1.8499    0.0000 H   0  0  0  0  0  0  0  0  0  0  0  0
    8.9490   -0.9220    0.0000 H   0  0  0  0  0  0  0  0  0  0  0  0
    7.7522   -2.3043    0.0000 H   0  0  0  0  0  0  0  0  0  0  0  0
    8.5991   -2.0773    0.0000 H   0  0  0  0  0  0  0  0  0  0  0  0
    8.3722   -1.2304    0.0000 H   0  0  0  0  0  0  0  0  0  0  0  0
    8.9490    2.3873    0.0000 H   0  0  0  0  0  0  0  0  0  0  0  0
    4.5981    0.8527    0.0000 H   0  0  0  0  0  0  0  0  0  0  0  0
    6.0010   -1.5773    0.0000 H   0  0  0  0  0  0  0  0  0  0  0  0
   10.3979   -0.1002    0.0000 H   0  0  0  0  0  0  0  0  0  0  0  0
    3.1951    0.0427    0.0000 H   0  0  0  0  0  0  0  0  0  0  0  0
    4.5981   -2.3873    0.0000 H   0  0  0  0  0  0  0  0  0  0  0  0
   11.2644    1.4489    0.0000 H   0  0  0  0  0  0  0  0  0  0  0  0
    2.3100   -0.7304    0.0000 H   0  0  0  0  0  0  0  0  0  0  0  0
    1.4631   -0.9573    0.0000 H   0  0  0  0  0  0  0  0  0  0  0  0
    1.6900   -1.8043    0.0000 H   0  0  0  0  0  0  0  0  0  0  0  0
  1  9  1  0  0  0  0
  1 11  1  0  0  0  0
  2 11  2  0  0  0  0
  3 18  1  0  0  0  0
  3 35  1  0  0  0  0
  4 21  1  0  0  0  0
  4 22  1  0  0  0  0
  5  6  1  0  0  0  0
  5  7  2  0  0  0  0
  5  8  1  0  0  0  0
  6  9  2  0  0  0  0
  6 12  1  0  0  0  0
  7 10  1  0  0  0  0
  7 11  1  0  0  0  0
  8 13  1  0  0  0  0
  8 23  1  0  0  0  0
  8 24  1  0  0  0  0
  9 14  1  0  0  0  0
 10 15  2  0  0  0  0
 10 16  1  0  0  0  0
 12 17  2  0  0  0  0
 12 25  1  0  0  0  0
 13 26  1  0  0  0  0
 13 27  1  0  0  0  0
 13 28  1  0  0  0  0
 14 18  2  0  0  0  0
 14 29  1  0  0  0  0
 15 19  1  0  0  0  0
 15 30  1  0  0  0  0
 16 20  2  0  0  0  0
 16 31  1  0  0  0  0
 17 18  1  0  0  0  0
 17 32  1  0  0  0  0
 19 21  2  0  0  0  0
 19 33  1  0  0  0  0
 20 21  1  0  0  0  0
 20 34  1  0  0  0  0
 22 36  1  0  0  0  0
 22 37  1  0  0  0  0
 22 38  1  0  0  0  0
M  END
> <PUBCHEM_COMPOUND_CID>
5284654

> <PUBCHEM_COMPOUND_CANONICALIZED>
1

> <PUBCHEM_CACTVS_COMPLEXITY>
448

> <PUBCHEM_CACTVS_HBOND_ACCEPTOR>
4

> <PUBCHEM_CACTVS_HBOND_DONOR>
1

> <PUBCHEM_CACTVS_ROTATABLE_BOND>
3

> <PUBCHEM_CACTVS_SUBSKEYS>
AAADceB4OAAAAAAAAAAAAAAAAAAAAAAAAAAwYIAAAAAAAACBQAAAGgAACAAADASAmAIyDoAABgCIAiDSCAACCAAgIAAIiAEGCMgMJzKGNRqCeiClwBUIuQeI6KyOIAAACAAIAABAAAAQABAAAAAAAAAAAA==

> <PUBCHEM_IUPAC_OPENEYE_NAME>
4-ethyl-7-hydroxy-3-(4-methoxyphenyl)chromen-2-one

> <PUBCHEM_IUPAC_CAS_NAME>
4-ethyl-7-hydroxy-3-(4-methoxyphenyl)-1-benzopyran-2-one

> <PUBCHEM_IUPAC_NAME>
4-ethyl-7-hydroxy-3-(4-methoxyphenyl)chromen-2-one

> <PUBCHEM_IUPAC_SYSTEMATIC_NAME>
4-ethyl-3-(4-methoxyphenyl)-7-oxidanyl-chromen-2-one

> <PUBCHEM_IUPAC_TRADITIONAL_NAME>
4-ethyl-7-hydroxy-3-(4-methoxyphenyl)coumarin

> <PUBCHEM_IUPAC_INCHI>
InChI=1S/C18H16O4/c1-3-14-15-9-6-12(19)10-16(15)22-18(20)17(14)11-4-7-13(21-2)8-5-11/h4-10,19H,3H2,1-2H3

> <PUBCHEM_IUPAC_INCHIKEY>
OFVOGSOIXOYRRC-UHFFFAOYSA-N

> <PUBCHEM_XLOGP3_AA>
3.5

> <PUBCHEM_EXACT_MASS>
296.104859

> <PUBCHEM_MOLECULAR_FORMULA>
C18H16O4

> <PUBCHEM_MOLECULAR_WEIGHT>
296.31724

> <PUBCHEM_OPENEYE_CAN_SMILES>
CCC1=C(C(=O)OC2=C1C=CC(=C2)O)C3=CC=C(C=C3)OC

> <PUBCHEM_OPENEYE_ISO_SMILES>
CCC1=C(C(=O)OC2=C1C=CC(=C2)O)C3=CC=C(C=C3)OC

> <PUBCHEM_CACTVS_TPSA>
55.8

> <PUBCHEM_MONOISOTOPIC_WEIGHT>
296.104859

> <PUBCHEM_TOTAL_CHARGE>
0

> <PUBCHEM_HEAVY_ATOM_COUNT>
22

> <PUBCHEM_ATOM_DEF_STEREO_COUNT>
0

> <PUBCHEM_ATOM_UDEF_STEREO_COUNT>
0

> <PUBCHEM_BOND_DEF_STEREO_COUNT>
0

> <PUBCHEM_BOND_UDEF_STEREO_COUNT>
0

> <PUBCHEM_ISOTOPIC_ATOM_COUNT>
0

> <PUBCHEM_COMPONENT_COUNT>
1

> <PUBCHEM_CACTVS_TAUTO_COUNT>
9

> <PUBCHEM_COORDINATE_TYPE>
1
5
255

> <PUBCHEM_BONDANNOTATIONS>
1  11  8
1  9  8
10  15  8
10  16  8
12  17  8
14  18  8
15  19  8
16  20  8
17  18  8
19  21  8
20  21  8
5  6  8
5  7  8
6  12  8
6  9  8
7  11  8
9  14  8

$$$$

