68862
  -OEChem-07051213003D

 51 53  0     1  0  0  0  0  0999 V2000
    0.8415    0.0843   -1.7468 O   0  0  0  0  0  0  0  0  0  0  0  0
   -0.2590    0.3226    1.4656 O   0  0  0  0  0  0  0  0  0  0  0  0
   -4.6766   -0.2723    0.1717 N   0  0  2  0  0  0  0  0  0  0  0  0
   -0.9877   -0.8244   -0.4001 N   0  0  0  0  0  0  0  0  0  0  0  0
   -3.2966    0.0007   -0.2530 C   0  0  2  0  0  0  0  0  0  0  0  0
   -3.4360    0.1544   -1.7690 C   0  0  0  0  0  0  0  0  0  0  0  0
   -4.8812    0.5828   -1.9986 C   0  0  0  0  0  0  0  0  0  0  0  0
   -5.5021    0.6489   -0.6132 C   0  0  0  0  0  0  0  0  0  0  0  0
   -2.3195   -1.1088    0.1151 C   0  0  0  0  0  0  0  0  0  0  0  0
   -4.8870   -0.0909    1.6029 C   0  0  0  0  0  0  0  0  0  0  0  0
   -6.3440   -0.3069    1.9754 C   0  0  0  0  0  0  0  0  0  0  0  0
   -0.0509   -0.1178    0.3348 C   0  0  0  0  0  0  0  0  0  0  0  0
    1.3054    0.0293   -0.3825 C   0  0  0  0  0  0  0  0  0  0  0  0
    2.0714    1.3075   -0.0247 C   0  0  0  0  0  0  0  0  0  0  0  0
    2.2023   -1.2012   -0.2026 C   0  0  0  0  0  0  0  0  0  0  0  0
    2.5709    1.4386    1.2495 C   0  0  0  0  0  0  0  0  0  0  0  0
    3.3583   -1.2837   -0.9415 C   0  0  0  0  0  0  0  0  0  0  0  0
    2.2278    2.2716   -0.9922 C   0  0  0  0  0  0  0  0  0  0  0  0
    1.8132   -2.1715    0.6897 C   0  0  0  0  0  0  0  0  0  0  0  0
    3.2678    2.6023    1.5753 C   0  0  0  0  0  0  0  0  0  0  0  0
    4.1741   -2.4033   -0.7784 C   0  0  0  0  0  0  0  0  0  0  0  0
    2.9248    3.4352   -0.6664 C   0  0  0  0  0  0  0  0  0  0  0  0
    2.6289   -3.2911    0.8530 C   0  0  0  0  0  0  0  0  0  0  0  0
    3.4447    3.6005    0.6173 C   0  0  0  0  0  0  0  0  0  0  0  0
    3.8094   -3.4070    0.1188 C   0  0  0  0  0  0  0  0  0  0  0  0
   -2.9497    0.9589    0.1605 H   0  0  0  0  0  0  0  0  0  0  0  0
   -3.2481   -0.7854   -2.3023 H   0  0  0  0  0  0  0  0  0  0  0  0
   -2.7364    0.9025   -2.1579 H   0  0  0  0  0  0  0  0  0  0  0  0
   -5.3934   -0.1619   -2.6193 H   0  0  0  0  0  0  0  0  0  0  0  0
   -4.9418    1.5471   -2.5131 H   0  0  0  0  0  0  0  0  0  0  0  0
   -6.5538    0.3483   -0.6560 H   0  0  0  0  0  0  0  0  0  0  0  0
   -5.4429    1.6767   -0.2320 H   0  0  0  0  0  0  0  0  0  0  0  0
   -2.6280   -2.0699   -0.3119 H   0  0  0  0  0  0  0  0  0  0  0  0
   -2.2516   -1.2330    1.2009 H   0  0  0  0  0  0  0  0  0  0  0  0
   -4.5715    0.9055    1.9372 H   0  0  0  0  0  0  0  0  0  0  0  0
   -4.2896   -0.8224    2.1582 H   0  0  0  0  0  0  0  0  0  0  0  0
   -0.7582   -1.1743   -1.3237 H   0  0  0  0  0  0  0  0  0  0  0  0
   -6.4470   -0.3234    3.0659 H   0  0  0  0  0  0  0  0  0  0  0  0
   -6.7181   -1.2637    1.5954 H   0  0  0  0  0  0  0  0  0  0  0  0
   -6.9916    0.4946    1.6060 H   0  0  0  0  0  0  0  0  0  0  0  0
    0.9359   -0.7927   -2.1559 H   0  0  0  0  0  0  0  0  0  0  0  0
    2.4408    0.6720    2.0067 H   0  0  0  0  0  0  0  0  0  0  0  0
    3.6500   -0.5138   -1.6489 H   0  0  0  0  0  0  0  0  0  0  0  0
    1.8389    2.1775   -2.0000 H   0  0  0  0  0  0  0  0  0  0  0  0
    0.9150   -2.1220    1.2933 H   0  0  0  0  0  0  0  0  0  0  0  0
    3.6725    2.7312    2.5749 H   0  0  0  0  0  0  0  0  0  0  0  0
    5.0924   -2.4944   -1.3511 H   0  0  0  0  0  0  0  0  0  0  0  0
    3.0631    4.2128   -1.4121 H   0  0  0  0  0  0  0  0  0  0  0  0
    2.3473   -4.0716    1.5539 H   0  0  0  0  0  0  0  0  0  0  0  0
    3.9873    4.5065    0.8709 H   0  0  0  0  0  0  0  0  0  0  0  0
    4.4448   -4.2786    0.2462 H   0  0  0  0  0  0  0  0  0  0  0  0
  1 13  1  0  0  0  0
  1 41  1  0  0  0  0
  2 12  2  0  0  0  0
  3  5  1  0  0  0  0
  3  8  1  0  0  0  0
  3 10  1  0  0  0  0
  4  9  1  0  0  0  0
  4 12  1  0  0  0  0
  4 37  1  0  0  0  0
  5  6  1  0  0  0  0
  5  9  1  0  0  0  0
  5 26  1  0  0  0  0
  6  7  1  0  0  0  0
  6 27  1  0  0  0  0
  6 28  1  0  0  0  0
  7  8  1  0  0  0  0
  7 29  1  0  0  0  0
  7 30  1  0  0  0  0
  8 31  1  0  0  0  0
  8 32  1  0  0  0  0
  9 33  1  0  0  0  0
  9 34  1  0  0  0  0
 10 11  1  0  0  0  0
 10 35  1  0  0  0  0
 10 36  1  0  0  0  0
 11 38  1  0  0  0  0
 11 39  1  0  0  0  0
 11 40  1  0  0  0  0
 12 13  1  0  0  0  0
 13 14  1  0  0  0  0
 13 15  1  0  0  0  0
 14 16  2  0  0  0  0
 14 18  1  0  0  0  0
 15 17  2  0  0  0  0
 15 19  1  0  0  0  0
 16 20  1  0  0  0  0
 16 42  1  0  0  0  0
 17 21  1  0  0  0  0
 17 43  1  0  0  0  0
 18 22  2  0  0  0  0
 18 44  1  0  0  0  0
 19 23  2  0  0  0  0
 19 45  1  0  0  0  0
 20 24  2  0  0  0  0
 20 46  1  0  0  0  0
 21 25  2  0  0  0  0
 21 47  1  0  0  0  0
 22 24  1  0  0  0  0
 22 48  1  0  0  0  0
 23 25  1  0  0  0  0
 23 49  1  0  0  0  0
 24 50  1  0  0  0  0
 25 51  1  0  0  0  0
M  END
> <PUBCHEM_COMPOUND_CID>
68862

> <PUBCHEM_CONFORMER_RMSD>
0.8

> <PUBCHEM_CONFORMER_DIVERSEORDER>
1
17
27
91
198
15
133
127
132
85
83
186
71
167
32
158
28
153
110
13
100
164
179
84
9
55
3
147
2
137
154
113
4
138
177
139
136
41
6
33
11
57
126
178
107
209
34
204
207
26
129
111
112
195
82
99
80
67
189
143
134
121
25
98
87
115
187
20
197
190
119
86
211
150
163
68
200
193
145
185
61
10
124
58
77
120
109
75
103
171
64
181
5
196
194
117
97
14
148
62
88
146
205
53
188
128
40
7
114
42
51
8
45
78
19
183
206
65
74
165
36
95
168
141
37
201
89
72
52
90
39
157
30
24
16
174
29
79
125
160
203
192
176
22
49
144
118
199
173
175
169
48
180
56
81
142
104
18
151
162
149
47
106
69
101
94
116
131
96
182
92
130
208
161
202
184
46
102
159
63
59
35
38
123
43
172
21
140
156
54
12
135
50
166
105
31
108
66
60
155
23
73
191
70
170
76
152
44
93
210
122

> <PUBCHEM_MMFF94_PARTIAL_CHARGES>
34
1 -0.68
10 0.27
12 0.57
13 0.63
14 -0.14
15 -0.14
16 -0.15
17 -0.15
18 -0.15
19 -0.15
2 -0.57
20 -0.15
21 -0.15
22 -0.15
23 -0.15
24 -0.15
25 -0.15
3 -0.81
37 0.37
4 -0.73
41 0.4
42 0.15
43 0.15
44 0.15
45 0.15
46 0.15
47 0.15
48 0.15
49 0.15
5 0.27
50 0.15
51 0.15
8 0.27
9 0.3

> <PUBCHEM_EFFECTIVE_ROTOR_COUNT>
8

> <PUBCHEM_PHARMACOPHORE_FEATURES>
8
1 1 acceptor
1 1 donor
1 2 acceptor
1 3 cation
1 4 donor
5 3 5 6 7 8 rings
6 14 16 18 20 22 24 rings
6 15 17 19 21 23 25 rings

> <PUBCHEM_HEAVY_ATOM_COUNT>
25

> <PUBCHEM_ATOM_DEF_STEREO_COUNT>
0

> <PUBCHEM_ATOM_UDEF_STEREO_COUNT>
1

> <PUBCHEM_BOND_DEF_STEREO_COUNT>
0

> <PUBCHEM_BOND_UDEF_STEREO_COUNT>
0

> <PUBCHEM_ISOTOPIC_ATOM_COUNT>
0

> <PUBCHEM_COMPONENT_COUNT>
1

> <PUBCHEM_CACTVS_TAUTO_COUNT>
2

> <PUBCHEM_CONFORMER_ID>
00010CFE00000001

> <PUBCHEM_MMFF94_ENERGY>
62.0271

> <PUBCHEM_FEATURE_SELFOVERLAP>
40.62

> <PUBCHEM_SHAPE_FINGERPRINT>
10369192 42 17913199867458208204
11135609 201 17830734249223117865
11331351 85 17460873153565492314
11405975 8 18408600358033681003
11475781 23 16915688963719909039
11545043 162 17703784869035069519
11578080 2 18195787597243656011
12035758 1 18271541818800291408
12342043 65 17845352488717361467
12403259 415 18131630093594377263
12616971 3 17821443591264732051
12730499 353 18270387300587312761
12788726 201 17115808054937929570
12930653 34 18051411764550781578
13134695 92 18340211911401104150
13533116 47 18411689994429294843
13590594 115 18192426583513485120
13878862 14 18337124440217815669
13955234 65 18410852136081937986
14347329 18 15910529902739603981
14739800 52 17023200270379939744
14950920 106 18264468712059411339
15131766 46 18116435835269086985
15163728 17 18053653686314213388
15238133 3 16298378102605328131
17349148 13 17458346389924567471
17844677 252 18410854395799335253
17868525 174 18266178529159288129
17980427 23 17604715611017540224
1813 80 17970345025991148118
18785283 64 18343585105795643208
19784866 34 18117840997326123841
20369508 70 18339929319669897926
20832881 197 18198907109152640555
21033648 29 17917436440984895749
21049683 271 18271792554543051214
21065201 7 16773797034940755823
2132832 1 18041282191667845633
22122407 14 18189599705608113281
22149856 69 18129078063214992211
22182313 1 17988660609039817381
22849341 161 18042396001273365330
23559900 14 18341618130606144847
268830 7 18040712567904620265
312423 11 18040991860879727961
46194498 28 17202743965218377087
474 4 18339085860912046752
495365 180 18411987927182606778
5104073 3 18261666000991267843
5281201 14 18343021112160069917
5385378 56 18336824195975318232
5895379 119 16371827716496610505
633830 44 17970060037578318628
6823239 73 17131825486775007663
7471813 234 17968663825319646168
7495541 125 18202277043767547271
9841814 1 18341058518296136514

> <PUBCHEM_SHAPE_MULTIPOLES>
492.79
11.92
3.91
1.72
21.73
0.74
-0.04
-0.4
-1.48
-9.34
-0.59
1.84
0.4
1.21

> <PUBCHEM_SHAPE_SELFOVERLAP>
1050.71

> <PUBCHEM_SHAPE_VOLUME>
273.8

> <PUBCHEM_COORDINATE_TYPE>
2
5
10

$$$$

