5281741
  -OEChem-07051212593D

 54 56  0     1  0  0  0  0  0999 V2000
   -2.0331   -2.6570    1.5677 O   0  0  0  0  0  0  0  0  0  0  0  0
    0.3627   -1.2770    0.5518 O   0  0  0  0  0  0  0  0  0  0  0  0
   -3.9686    2.1557    0.4233 O   0  0  0  0  0  0  0  0  0  0  0  0
   -0.4430   -2.3333   -1.3430 O   0  0  0  0  0  0  0  0  0  0  0  0
   -0.4203    2.0272   -0.0129 O   0  0  0  0  0  0  0  0  0  0  0  0
   -1.7430    3.0402    1.5792 O   0  0  0  0  0  0  0  0  0  0  0  0
    1.4059    0.5054   -1.8034 O   0  0  0  0  0  0  0  0  0  0  0  0
    4.4860   -0.1789   -0.4011 N   0  0  1  0  0  0  0  0  0  0  0  0
   -1.9294   -1.7912    0.4206 C   0  0  1  0  0  0  0  0  0  0  0  0
   -2.8056   -3.0294    0.4247 C   0  0  1  0  0  0  0  0  0  0  0  0
   -2.5747   -0.4404    0.6561 C   0  0  0  0  0  0  0  0  0  0  0  0
   -2.6614    0.4095   -0.6403 C   0  0  2  0  0  0  0  0  0  0  0  0
   -0.5932   -1.8650   -0.2230 C   0  0  0  0  0  0  0  0  0  0  0  0
   -2.7780    1.9305   -0.3286 C   0  0  1  0  0  0  0  0  0  0  0  0
   -2.3780   -4.3142   -0.1780 C   0  0  0  0  0  0  0  0  0  0  0  0
   -3.8242   -0.1042   -1.5037 C   0  0  0  0  0  0  0  0  0  0  0  0
   -2.8328    2.7987   -1.5891 C   0  0  0  0  0  0  0  0  0  0  0  0
    1.6644   -1.1050   -0.0337 C   0  0  2  0  0  0  0  0  0  0  0  0
   -1.6113    2.4135    0.5346 C   0  0  0  0  0  0  0  0  0  0  0  0
    2.7282   -1.3301    1.0424 C   0  0  0  0  0  0  0  0  0  0  0  0
    1.6684    0.3014   -0.6184 C   0  0  0  0  0  0  0  0  0  0  0  0
    4.1585   -1.3141    0.4829 C   0  0  0  0  0  0  0  0  0  0  0  0
    1.9175    1.4545    0.2880 C   0  0  0  0  0  0  0  0  0  0  0  0
    0.7408    2.2349    0.8067 C   0  0  0  0  0  0  0  0  0  0  0  0
    4.4961    1.1147    0.2959 C   0  0  0  0  0  0  0  0  0  0  0  0
    3.1783    1.7699    0.6329 C   0  0  0  0  0  0  0  0  0  0  0  0
    5.7898   -0.4163   -1.0315 C   0  0  0  0  0  0  0  0  0  0  0  0
   -3.8801   -2.9139    0.4648 H   0  0  0  0  0  0  0  0  0  0  0  0
   -1.9681    0.0672    1.4140 H   0  0  0  0  0  0  0  0  0  0  0  0
   -3.5731   -0.5562    1.0970 H   0  0  0  0  0  0  0  0  0  0  0  0
   -1.7463    0.2612   -1.2269 H   0  0  0  0  0  0  0  0  0  0  0  0
   -2.9715   -5.1352    0.2375 H   0  0  0  0  0  0  0  0  0  0  0  0
   -2.5419   -4.2979   -1.2599 H   0  0  0  0  0  0  0  0  0  0  0  0
   -1.3244   -4.5453    0.0098 H   0  0  0  0  0  0  0  0  0  0  0  0
   -4.7892    0.0422   -1.0076 H   0  0  0  0  0  0  0  0  0  0  0  0
   -3.8566    0.4055   -2.4712 H   0  0  0  0  0  0  0  0  0  0  0  0
   -3.7139   -1.1729   -1.7148 H   0  0  0  0  0  0  0  0  0  0  0  0
   -2.7703    3.8631   -1.3313 H   0  0  0  0  0  0  0  0  0  0  0  0
   -2.0056    2.5744   -2.2705 H   0  0  0  0  0  0  0  0  0  0  0  0
   -3.7797    2.6719   -2.1241 H   0  0  0  0  0  0  0  0  0  0  0  0
    1.8353   -1.8217   -0.8467 H   0  0  0  0  0  0  0  0  0  0  0  0
    2.5503   -2.3079    1.5099 H   0  0  0  0  0  0  0  0  0  0  0  0
    2.6232   -0.6132    1.8649 H   0  0  0  0  0  0  0  0  0  0  0  0
   -4.0810    3.1153    0.5340 H   0  0  0  0  0  0  0  0  0  0  0  0
    4.8695   -1.3760    1.3172 H   0  0  0  0  0  0  0  0  0  0  0  0
    4.2759   -2.2436   -0.0907 H   0  0  0  0  0  0  0  0  0  0  0  0
    0.5272    1.9017    1.8298 H   0  0  0  0  0  0  0  0  0  0  0  0
    0.9638    3.3081    0.8125 H   0  0  0  0  0  0  0  0  0  0  0  0
    5.0201    1.8524   -0.3276 H   0  0  0  0  0  0  0  0  0  0  0  0
    5.0842    1.0321    1.2200 H   0  0  0  0  0  0  0  0  0  0  0  0
    3.2991    2.6348    1.2869 H   0  0  0  0  0  0  0  0  0  0  0  0
    6.0213    0.3761   -1.7523 H   0  0  0  0  0  0  0  0  0  0  0  0
    5.7811   -1.3535   -1.5993 H   0  0  0  0  0  0  0  0  0  0  0  0
    6.6005   -0.4638   -0.2955 H   0  0  0  0  0  0  0  0  0  0  0  0
  1  9  1  0  0  0  0
  1 10  1  0  0  0  0
  2 13  1  0  0  0  0
  2 18  1  0  0  0  0
  3 14  1  0  0  0  0
  3 44  1  0  0  0  0
  4 13  2  0  0  0  0
  5 19  1  0  0  0  0
  5 24  1  0  0  0  0
  6 19  2  0  0  0  0
  7 21  2  0  0  0  0
  8 22  1  0  0  0  0
  8 25  1  0  0  0  0
  8 27  1  0  0  0  0
  9 10  1  0  0  0  0
  9 11  1  0  0  0  0
  9 13  1  0  0  0  0
 10 15  1  0  0  0  0
 10 28  1  0  0  0  0
 11 12  1  0  0  0  0
 11 29  1  0  0  0  0
 11 30  1  0  0  0  0
 12 14  1  0  0  0  0
 12 16  1  0  0  0  0
 12 31  1  0  0  0  0
 14 17  1  0  0  0  0
 14 19  1  0  0  0  0
 15 32  1  0  0  0  0
 15 33  1  0  0  0  0
 15 34  1  0  0  0  0
 16 35  1  0  0  0  0
 16 36  1  0  0  0  0
 16 37  1  0  0  0  0
 17 38  1  0  0  0  0
 17 39  1  0  0  0  0
 17 40  1  0  0  0  0
 18 20  1  0  0  0  0
 18 21  1  0  0  0  0
 18 41  1  0  0  0  0
 20 22  1  0  0  0  0
 20 42  1  0  0  0  0
 20 43  1  0  0  0  0
 21 23  1  0  0  0  0
 22 45  1  0  0  0  0
 22 46  1  0  0  0  0
 23 24  1  0  0  0  0
 23 26  2  0  0  0  0
 24 47  1  0  0  0  0
 24 48  1  0  0  0  0
 25 26  1  0  0  0  0
 25 49  1  0  0  0  0
 25 50  1  0  0  0  0
 26 51  1  0  0  0  0
 27 52  1  0  0  0  0
 27 53  1  0  0  0  0
 27 54  1  0  0  0  0
M  END
> <PUBCHEM_COMPOUND_CID>
5281741

> <PUBCHEM_CONFORMER_RMSD>
0.6

> <PUBCHEM_CONFORMER_DIVERSEORDER>
1

> <PUBCHEM_MMFF94_PARTIAL_CHARGES>
26
1 -0.3
10 -0.05
11 0.09
13 0.72
14 0.34
15 0.09
18 0.34
19 0.66
2 -0.43
21 0.49
22 0.27
23 -0.12
24 0.42
25 0.41
26 -0.29
27 0.27
28 0.1
3 -0.68
4 -0.57
44 0.4
5 -0.43
51 0.15
6 -0.57
7 -0.57
8 -0.81
9 0.05

> <PUBCHEM_EFFECTIVE_ROTOR_COUNT>
2.4

> <PUBCHEM_PHARMACOPHORE_FEATURES>
7
1 1 acceptor
1 3 acceptor
1 3 donor
1 4 acceptor
1 6 acceptor
1 7 acceptor
1 8 cation

> <PUBCHEM_HEAVY_ATOM_COUNT>
27

> <PUBCHEM_ATOM_DEF_STEREO_COUNT>
5

> <PUBCHEM_ATOM_UDEF_STEREO_COUNT>
0

> <PUBCHEM_BOND_DEF_STEREO_COUNT>
1

> <PUBCHEM_BOND_UDEF_STEREO_COUNT>
0

> <PUBCHEM_ISOTOPIC_ATOM_COUNT>
0

> <PUBCHEM_COMPONENT_COUNT>
1

> <PUBCHEM_CACTVS_TAUTO_COUNT>
1

> <PUBCHEM_CONFORMER_ID>
005097CD00000001

> <PUBCHEM_MMFF94_ENERGY>
67.3549

> <PUBCHEM_FEATURE_SELFOVERLAP>
35.529

> <PUBCHEM_SHAPE_FINGERPRINT>
10675989 125 17332538271967368932
10759866 29 18130504249416744458
107951 10 17489020595549839145
108634 29 18408603660404362102
1100329 8 17689998255542463914
11370993 70 18126859419404327205
11578080 2 17460049391390479128
12293681 25 17605810707782979054
12403259 226 18120092775685895986
12788726 201 17896878961673931440
13140716 1 18337103454506122619
13631057 29 18267582404108432676
138480 1 16753249636180967033
14081887 123 18338528434555373008
14223421 5 18266745666763403408
14251757 5 18411695513150884182
14363568 33 17403439789678513208
14790565 3 18049154767863864593
14931854 50 18339374062034085165
17357779 13 18121232978049846007
17492 54 18271539688137874653
20775438 99 16816631576812852319
20905425 154 18192992616973356086
23557571 272 18335130964831615734
23559900 14 18335421314133497168
3380486 145 17827927217490467019
350125 39 18342734126787751971
4058900 60 17911514621381408013
484989 97 18271251504892213743
6443956 14 17474108697026603843
7237137 82 18269258094283906276
9709674 26 18335143076892442100

> <PUBCHEM_SHAPE_MULTIPOLES>
509.58
8.51
4.3
1.32
9.59
1.65
0.23
0.09
1.51
-5.01
-0.65
-0.37
-0.25
0.59

> <PUBCHEM_SHAPE_SELFOVERLAP>
1059.286

> <PUBCHEM_SHAPE_VOLUME>
286.9

> <PUBCHEM_COORDINATE_TYPE>
2
5
10

$$$$

