439488
  -OEChem-07051212452D

 40 42  0     1  0  0  0  0  0999 V2000
    5.0474    2.4964    0.0000 P   0  0  3  0  0  0  0  0  0  0  0  0
    5.4104    4.1900    0.0000 P   0  0  0  0  0  0  0  0  0  0  0  0
    4.4026   -0.9567    0.0000 O   0  0  0  0  0  0  0  0  0  0  0  0
    6.7523    0.1270    0.0000 O   0  0  0  0  0  0  0  0  0  0  0  0
    5.3548    1.5449    0.0000 O   0  0  0  0  0  0  0  0  0  0  0  0
    4.7400    3.4480    0.0000 O   0  0  0  0  0  0  0  0  0  0  0  0
    5.9990    2.8038    0.0000 O   0  0  0  0  0  0  0  0  0  0  0  0
    4.0958    2.1891    0.0000 O   0  0  0  0  0  0  0  0  0  0  0  0
    2.8660   -5.5220    0.0000 O   0  0  0  0  0  0  0  0  0  0  0  0
    6.0809    4.9320    0.0000 O   0  0  0  0  0  0  0  0  0  0  0  0
    4.6685    4.8604    0.0000 O   0  0  0  0  0  0  0  0  0  0  0  0
    6.1524    3.5196    0.0000 O   0  0  0  0  0  0  0  0  0  0  0  0
    4.6783   -2.7173    0.0000 N   0  0  0  0  0  0  0  0  0  0  0  0
    4.6783   -4.3267    0.0000 N   0  0  0  0  0  0  0  0  0  0  0  0
    2.8660   -2.5220    0.0000 N   0  0  0  0  0  0  0  0  0  0  0  0
    2.0000   -4.0220    0.0000 N   0  0  0  0  0  0  0  0  0  0  0  0
    5.9422   -0.4594    0.0000 C   0  0  2  0  0  0  0  0  0  0  0  0
    4.9889   -1.7668    0.0000 C   0  0  1  0  0  0  0  0  0  0  0  0
    4.9917   -0.1487    0.0000 C   0  0  1  0  0  0  0  0  0  0  0  0
    5.9405   -1.4594    0.0000 C   0  0  0  0  0  0  0  0  0  0  0  0
    4.6844    0.8029    0.0000 C   0  0  0  0  0  0  0  0  0  0  0  0
    3.7320   -3.0220    0.0000 C   0  0  0  0  0  0  0  0  0  0  0  0
    5.2619   -3.5220    0.0000 C   0  0  0  0  0  0  0  0  0  0  0  0
    3.7320   -4.0220    0.0000 C   0  0  0  0  0  0  0  0  0  0  0  0
    2.8660   -4.5220    0.0000 C   0  0  0  0  0  0  0  0  0  0  0  0
    2.0000   -3.0220    0.0000 C   0  0  0  0  0  0  0  0  0  0  0  0
    6.4942   -0.7418    0.0000 H   0  0  0  0  0  0  0  0  0  0  0  0
    5.4266   -2.2059    0.0000 H   0  0  0  0  0  0  0  0  0  0  0  0
    4.3795   -0.0507    0.0000 H   0  0  0  0  0  0  0  0  0  0  0  0
    6.0684   -2.0660    0.0000 H   0  0  0  0  0  0  0  0  0  0  0  0
    6.5572   -1.3956    0.0000 H   0  0  0  0  0  0  0  0  0  0  0  0
    4.3035    1.2921    0.0000 H   0  0  0  0  0  0  0  0  0  0  0  0
    4.1364    0.5128    0.0000 H   0  0  0  0  0  0  0  0  0  0  0  0
    7.3182   -0.1261    0.0000 H   0  0  0  0  0  0  0  0  0  0  0  0
    5.8819   -3.5220    0.0000 H   0  0  0  0  0  0  0  0  0  0  0  0
    2.8660   -1.9020    0.0000 H   0  0  0  0  0  0  0  0  0  0  0  0
    1.4631   -2.7120    0.0000 H   0  0  0  0  0  0  0  0  0  0  0  0
    6.4590    2.3882    0.0000 H   0  0  0  0  0  0  0  0  0  0  0  0
    5.8903    5.5220    0.0000 H   0  0  0  0  0  0  0  0  0  0  0  0
    4.0785    4.6699    0.0000 H   0  0  0  0  0  0  0  0  0  0  0  0
  1  5  1  0  0  0  0
  1  6  1  0  0  0  0
  1  7  1  0  0  0  0
  1  8  2  0  0  0  0
  2  6  1  0  0  0  0
  2 10  1  0  0  0  0
  2 11  1  0  0  0  0
  2 12  2  0  0  0  0
  3 18  1  0  0  0  0
  3 19  1  0  0  0  0
 17  4  1  1  0  0  0
  4 34  1  0  0  0  0
  5 21  1  0  0  0  0
  7 38  1  0  0  0  0
  9 25  2  0  0  0  0
 10 39  1  0  0  0  0
 11 40  1  0  0  0  0
 18 13  1  6  0  0  0
 13 22  1  0  0  0  0
 13 23  1  0  0  0  0
 14 23  2  0  0  0  0
 14 24  1  0  0  0  0
 15 22  1  0  0  0  0
 15 26  1  0  0  0  0
 15 36  1  0  0  0  0
 16 25  1  0  0  0  0
 16 26  2  0  0  0  0
 17 19  1  0  0  0  0
 17 20  1  0  0  0  0
 17 27  1  0  0  0  0
 18 20  1  0  0  0  0
 18 28  1  0  0  0  0
 19 21  1  6  0  0  0
 19 29  1  0  0  0  0
 20 30  1  0  0  0  0
 20 31  1  0  0  0  0
 21 32  1  0  0  0  0
 21 33  1  0  0  0  0
 22 24  2  0  0  0  0
 23 35  1  0  0  0  0
 24 25  1  0  0  0  0
 26 37  1  0  0  0  0
M  END
> <PUBCHEM_COMPOUND_CID>
439488

> <PUBCHEM_COMPOUND_CANONICALIZED>
1

> <PUBCHEM_CACTVS_COMPLEXITY>
685

> <PUBCHEM_CACTVS_HBOND_ACCEPTOR>
11

> <PUBCHEM_CACTVS_HBOND_DONOR>
5

> <PUBCHEM_CACTVS_ROTATABLE_BOND>
6

> <PUBCHEM_CACTVS_SUBSKEYS>
AAADccBzvAMAAAAAAAAAAAAAAAAAAWJAAAAgAAAAAAAAAEABgAAAHgAQCCAACBzhlgYFsBfMFxCoQQdxdICAgC0XEKABUIGoVECBWApAyCAeQIAPAALDAGCwMAIAAAAAAAAAAAAAAAAAAAAAAAAAAAAAAA==

> <PUBCHEM_IUPAC_OPENEYE_NAME>
[(2R,3S,5R)-3-hydroxy-5-(6-oxo-3H-purin-9-yl)tetrahydrofuran-2-yl]methyl phosphono hydrogen phosphate

> <PUBCHEM_IUPAC_CAS_NAME>
[(2R,3S,5R)-3-hydroxy-5-(6-oxo-3H-purin-9-yl)-2-oxolanyl]methyl phosphono hydrogen phosphate

> <PUBCHEM_IUPAC_NAME>
[(2R,3S,5R)-3-hydroxy-5-(6-oxo-3H-purin-9-yl)oxolan-2-yl]methyl phosphono hydrogen phosphate

> <PUBCHEM_IUPAC_SYSTEMATIC_NAME>
[(2R,3S,5R)-3-oxidanyl-5-(6-oxidanylidene-3H-purin-9-yl)oxolan-2-yl]methyl phosphono hydrogen phosphate

> <PUBCHEM_IUPAC_TRADITIONAL_NAME>
[(2R,3S,5R)-3-hydroxy-5-(6-keto-3H-purin-9-yl)tetrahydrofuran-2-yl]methyl phosphono hydrogen phosphate

> <PUBCHEM_IUPAC_INCHI>
InChI=1S/C10H14N4O10P2/c15-5-1-7(14-4-13-8-9(14)11-3-12-10(8)16)23-6(5)2-22-26(20,21)24-25(17,18)19/h3-7,15H,1-2H2,(H,20,21)(H,11,12,16)(H2,17,18,19)/t5-,6+,7+/m0/s1

> <PUBCHEM_IUPAC_INCHIKEY>
BKUSIKGSPSFQAC-RRKCRQDMSA-N

> <PUBCHEM_XLOGP3>
-4.5

> <PUBCHEM_EXACT_MASS>
412.018516

> <PUBCHEM_MOLECULAR_FORMULA>
C10H14N4O10P2

> <PUBCHEM_MOLECULAR_WEIGHT>
412.186484

> <PUBCHEM_OPENEYE_CAN_SMILES>
C1C(C(OC1N2C=NC3=C2NC=NC3=O)COP(=O)(O)OP(=O)(O)O)O

> <PUBCHEM_OPENEYE_ISO_SMILES>
C1[C@@H]([C@H](O[C@H]1N2C=NC3=C2NC=NC3=O)COP(=O)(O)OP(=O)(O)O)O

> <PUBCHEM_CACTVS_TPSA>
202

> <PUBCHEM_MONOISOTOPIC_WEIGHT>
412.018516

> <PUBCHEM_TOTAL_CHARGE>
0

> <PUBCHEM_HEAVY_ATOM_COUNT>
26

> <PUBCHEM_ATOM_DEF_STEREO_COUNT>
3

> <PUBCHEM_ATOM_UDEF_STEREO_COUNT>
0

> <PUBCHEM_BOND_DEF_STEREO_COUNT>
0

> <PUBCHEM_BOND_UDEF_STEREO_COUNT>
0

> <PUBCHEM_ISOTOPIC_ATOM_COUNT>
0

> <PUBCHEM_COMPONENT_COUNT>
1

> <PUBCHEM_CACTVS_TAUTO_COUNT>
3

> <PUBCHEM_COORDINATE_TYPE>
1
5
255

> <PUBCHEM_BONDANNOTATIONS>
18  13  6
13  22  8
13  23  8
14  23  8
14  24  8
15  22  8
15  26  8
16  25  8
16  26  8
19  21  6
22  24  8
24  25  8
17  4  5

$$$$

