14543515
  -OEChem-07051213092D

 38 40  0     1  0  0  0  0  0999 V2000
    2.6735   -2.2093    0.0000 O   0  0  0  0  0  0  0  0  0  0  0  0
    2.5977    2.2093    0.0000 O   0  0  0  0  0  0  0  0  0  0  0  0
    4.7057    0.6268    0.0000 C   0  0  1  0  0  0  0  0  0  0  0  0
    5.3570    1.3965    0.0000 C   0  0  0  0  0  0  0  0  0  0  0  0
    3.9397    1.2696    0.0000 C   0  0  2  0  0  0  0  0  0  0  0  0
    4.5846    2.0447    0.0000 C   0  0  0  0  0  0  0  0  0  0  0  0
    3.4397   -1.5660    0.0000 C   0  0  1  0  0  0  0  0  0  0  0  0
    4.8794   -0.3580    0.0000 C   0  0  0  0  0  0  0  0  0  0  0  0
    2.5000   -1.2240    0.0000 C   0  0  2  0  0  0  0  0  0  0  0  0
    4.3794   -1.2240    0.0000 C   0  0  0  0  0  0  0  0  0  0  0  0
    2.9397    1.2696    0.0000 C   0  0  0  0  0  0  0  0  0  0  0  0
    2.0000   -0.3580    0.0000 C   0  0  0  0  0  0  0  0  0  0  0  0
    6.0014    2.1613    0.0000 C   0  0  0  0  0  0  0  0  0  0  0  0
    6.1217    0.7522    0.0000 C   0  0  0  0  0  0  0  0  0  0  0  0
    2.1736    0.6268    0.0000 C   0  0  0  0  0  0  0  0  0  0  0  0
    4.3794   -1.9080    0.0000 C   0  0  0  0  0  0  0  0  0  0  0  0
    5.5263    0.4051    0.0000 H   0  0  0  0  0  0  0  0  0  0  0  0
    3.5789    2.0392    0.0000 H   0  0  0  0  0  0  0  0  0  0  0  0
    4.9825    2.5202    0.0000 H   0  0  0  0  0  0  0  0  0  0  0  0
    4.1086    2.4419    0.0000 H   0  0  0  0  0  0  0  0  0  0  0  0
    5.3049   -0.8090    0.0000 H   0  0  0  0  0  0  0  0  0  0  0  0
    5.4334   -0.0797    0.0000 H   0  0  0  0  0  0  0  0  0  0  0  0
    1.7012   -1.5146    0.0000 H   0  0  0  0  0  0  0  0  0  0  0  0
    4.4154   -1.8430    0.0000 H   0  0  0  0  0  0  0  0  0  0  0  0
    4.9827   -1.3670    0.0000 H   0  0  0  0  0  0  0  0  0  0  0  0
    1.4460   -0.0797    0.0000 H   0  0  0  0  0  0  0  0  0  0  0  0
    1.5745   -0.8090    0.0000 H   0  0  0  0  0  0  0  0  0  0  0  0
    6.4755    1.7618    0.0000 H   0  0  0  0  0  0  0  0  0  0  0  0
    6.4009    2.6354    0.0000 H   0  0  0  0  0  0  0  0  0  0  0  0
    5.5273    2.5608    0.0000 H   0  0  0  0  0  0  0  0  0  0  0  0
    5.7222    0.2781    0.0000 H   0  0  0  0  0  0  0  0  0  0  0  0
    6.5959    0.3527    0.0000 H   0  0  0  0  0  0  0  0  0  0  0  0
    6.5212    1.2263    0.0000 H   0  0  0  0  0  0  0  0  0  0  0  0
    1.9281    1.1961    0.0000 H   0  0  0  0  0  0  0  0  0  0  0  0
    1.5578    0.5548    0.0000 H   0  0  0  0  0  0  0  0  0  0  0  0
    4.1673   -2.4907    0.0000 H   0  0  0  0  0  0  0  0  0  0  0  0
    4.9620   -2.1201    0.0000 H   0  0  0  0  0  0  0  0  0  0  0  0
    4.5914   -1.3254    0.0000 H   0  0  0  0  0  0  0  0  0  0  0  0
  1  7  1  0  0  0  0
  1  9  1  0  0  0  0
  2 11  2  0  0  0  0
  3  4  1  0  0  0  0
  3  5  1  0  0  0  0
  3  8  1  0  0  0  0
  3 17  1  1  0  0  0
  4  6  1  0  0  0  0
  4 13  1  0  0  0  0
  4 14  1  0  0  0  0
  5  6  1  0  0  0  0
  5 11  1  0  0  0  0
  5 18  1  6  0  0  0
  6 19  1  0  0  0  0
  6 20  1  0  0  0  0
  7  9  1  0  0  0  0
  7 10  1  0  0  0  0
  7 16  1  6  0  0  0
  8 10  1  0  0  0  0
  8 21  1  0  0  0  0
  8 22  1  0  0  0  0
  9 12  1  0  0  0  0
  9 23  1  6  0  0  0
 10 24  1  0  0  0  0
 10 25  1  0  0  0  0
 11 15  1  0  0  0  0
 12 15  1  0  0  0  0
 12 26  1  0  0  0  0
 12 27  1  0  0  0  0
 13 28  1  0  0  0  0
 13 29  1  0  0  0  0
 13 30  1  0  0  0  0
 14 31  1  0  0  0  0
 14 32  1  0  0  0  0
 14 33  1  0  0  0  0
 15 34  1  0  0  0  0
 15 35  1  0  0  0  0
 16 36  1  0  0  0  0
 16 37  1  0  0  0  0
 16 38  1  0  0  0  0
M  END
> <PUBCHEM_COMPOUND_CID>
14543515

> <PUBCHEM_COMPOUND_CANONICALIZED>
1

> <PUBCHEM_CACTVS_COMPLEXITY>
334

> <PUBCHEM_CACTVS_HBOND_ACCEPTOR>
2

> <PUBCHEM_CACTVS_HBOND_DONOR>
0

> <PUBCHEM_CACTVS_ROTATABLE_BOND>
0

> <PUBCHEM_CACTVS_SUBSKEYS>
AAADceBwMAAAAAAAAAAAAAAAEgBgAAAAAAAAAAAAAAAAAGCQAAAAGgAAAAAAD1SggAICAAAABAAIAIAQAAAAAAAAAAAAAAEAAAAAABIAAAACAAAEAAAAAAGKzPDPgAAAAAAAAAAAAAAAAAAAAAAAAAAAAA==

> <PUBCHEM_IUPAC_INCHI>
InChI=1S/C14H22O2/c1-13(2)8-9-10(13)6-7-14(3)12(16-14)5-4-11(9)15/h9-10,12H,4-8H2,1-3H3/t9-,10+,12-,14+/m0/s1

> <PUBCHEM_IUPAC_INCHIKEY>
UETZJEZFLKASPR-HEQLZXTPSA-N

> <PUBCHEM_XLOGP3_AA>
2.3

> <PUBCHEM_EXACT_MASS>
222.16198

> <PUBCHEM_MOLECULAR_FORMULA>
C14H22O2

> <PUBCHEM_MOLECULAR_WEIGHT>
222.32328

> <PUBCHEM_OPENEYE_CAN_SMILES>
CC1(CC2C1CCC3(C(O3)CCC2=O)C)C

> <PUBCHEM_OPENEYE_ISO_SMILES>
C[C@@]12CC[C@@H]3[C@H](CC3(C)C)C(=O)CC[C@@H]1O2

> <PUBCHEM_CACTVS_TPSA>
29.6

> <PUBCHEM_MONOISOTOPIC_WEIGHT>
222.16198

> <PUBCHEM_TOTAL_CHARGE>
0

> <PUBCHEM_HEAVY_ATOM_COUNT>
16

> <PUBCHEM_ATOM_DEF_STEREO_COUNT>
4

> <PUBCHEM_ATOM_UDEF_STEREO_COUNT>
0

> <PUBCHEM_BOND_DEF_STEREO_COUNT>
0

> <PUBCHEM_BOND_UDEF_STEREO_COUNT>
0

> <PUBCHEM_ISOTOPIC_ATOM_COUNT>
0

> <PUBCHEM_COMPONENT_COUNT>
1

> <PUBCHEM_CACTVS_TAUTO_COUNT>
3

> <PUBCHEM_COORDINATE_TYPE>
1
5
255

> <PUBCHEM_BONDANNOTATIONS>
3  17  5
5  18  6
7  16  6
9  23  6

$$$$

