12372
  -OEChem-06261206523D

 21 20  0     0  0  0  0  0  0999 V2000
    3.2239    1.3593    0.1926 N   0  0  0  0  0  0  0  0  0  0  0  0
   -0.3010   -0.1379   -0.2625 C   0  0  0  0  0  0  0  0  0  0  0  0
   -1.7084   -0.3620    0.2950 C   0  0  0  0  0  0  0  0  0  0  0  0
    0.7397   -1.1193    0.2916 C   0  0  0  0  0  0  0  0  0  0  0  0
   -2.7187    0.5826   -0.3577 C   0  0  0  0  0  0  0  0  0  0  0  0
    2.1447   -0.9872   -0.2993 C   0  0  0  0  0  0  0  0  0  0  0  0
   -4.1261    0.3402    0.1641 C   0  0  0  0  0  0  0  0  0  0  0  0
    2.7459    0.3243   -0.0237 C   0  0  0  0  0  0  0  0  0  0  0  0
    0.0071    0.8913   -0.0429 H   0  0  0  0  0  0  0  0  0  0  0  0
   -0.3269   -0.2344   -1.3552 H   0  0  0  0  0  0  0  0  0  0  0  0
   -1.7021   -0.2091    1.3808 H   0  0  0  0  0  0  0  0  0  0  0  0
   -2.0105   -1.4011    0.1161 H   0  0  0  0  0  0  0  0  0  0  0  0
    0.7919   -0.9984    1.3815 H   0  0  0  0  0  0  0  0  0  0  0  0
    0.3893   -2.1430    0.1091 H   0  0  0  0  0  0  0  0  0  0  0  0
   -2.7118    0.4431   -1.4450 H   0  0  0  0  0  0  0  0  0  0  0  0
   -2.4351    1.6232   -0.1620 H   0  0  0  0  0  0  0  0  0  0  0  0
    2.1039   -1.1531   -1.3819 H   0  0  0  0  0  0  0  0  0  0  0  0
    2.7831   -1.7736    0.1193 H   0  0  0  0  0  0  0  0  0  0  0  0
   -4.8313    1.0271   -0.3143 H   0  0  0  0  0  0  0  0  0  0  0  0
   -4.4521   -0.6832   -0.0473 H   0  0  0  0  0  0  0  0  0  0  0  0
   -4.1761    0.5006    1.2458 H   0  0  0  0  0  0  0  0  0  0  0  0
  1  8  3  0  0  0  0
  2  3  1  0  0  0  0
  2  4  1  0  0  0  0
  2  9  1  0  0  0  0
  2 10  1  0  0  0  0
  3  5  1  0  0  0  0
  3 11  1  0  0  0  0
  3 12  1  0  0  0  0
  4  6  1  0  0  0  0
  4 13  1  0  0  0  0
  4 14  1  0  0  0  0
  5  7  1  0  0  0  0
  5 15  1  0  0  0  0
  5 16  1  0  0  0  0
  6  8  1  0  0  0  0
  6 17  1  0  0  0  0
  6 18  1  0  0  0  0
  7 19  1  0  0  0  0
  7 20  1  0  0  0  0
  7 21  1  0  0  0  0
M  END
> <PUBCHEM_COMPOUND_CID>
12372

> <PUBCHEM_CONFORMER_RMSD>
0.6

> <PUBCHEM_CONFORMER_DIVERSEORDER>
1
32
2
31
25
33
9
34
21
3
22
35
28
5
12
26
29
4
23
30
16
20
8
11
27
13
19
7
24
17
14
15
18
6
10

> <PUBCHEM_MMFF94_PARTIAL_CHARGES>
3
1 -0.56
6 0.2
8 0.36

> <PUBCHEM_EFFECTIVE_ROTOR_COUNT>
4

> <PUBCHEM_PHARMACOPHORE_FEATURES>
3
1 1 acceptor
1 7 hydrophobe
5 2 3 4 5 6 hydrophobe

> <PUBCHEM_HEAVY_ATOM_COUNT>
8

> <PUBCHEM_ATOM_DEF_STEREO_COUNT>
0

> <PUBCHEM_ATOM_UDEF_STEREO_COUNT>
0

> <PUBCHEM_BOND_DEF_STEREO_COUNT>
0

> <PUBCHEM_BOND_UDEF_STEREO_COUNT>
0

> <PUBCHEM_ISOTOPIC_ATOM_COUNT>
0

> <PUBCHEM_COMPONENT_COUNT>
1

> <PUBCHEM_CACTVS_TAUTO_COUNT>
1

> <PUBCHEM_CONFORMER_ID>
0000305400000001

> <PUBCHEM_MMFF94_ENERGY>
-2.1785

> <PUBCHEM_FEATURE_SELFOVERLAP>
15.223

> <PUBCHEM_SHAPE_FINGERPRINT>
10857977 72 16988836190110992047
11062470 55 18412544331943290655
12932764 1 17988646349653539455
14325111 11 18410856572809729479
14390081 3 18413389856042211021
170605 34 18411419514051916426
177051 138 11672063051420305897
18342897 55 18335148591614645719
20606313 2 18408887330204514016
20711983 171 16805875312055370337
20765181 27 17988931093194970285
21293036 1 15647055945208730546
3248919 1 17530682151540075039

> <PUBCHEM_SHAPE_MULTIPOLES>
159.66
6.79
1.16
0.67
3.44
0.06
0.01
2.28
-0.2
-0.92
-0.05
0.05
-0.02
0.22

> <PUBCHEM_SHAPE_SELFOVERLAP>
280.904

> <PUBCHEM_SHAPE_VOLUME>
102.9

> <PUBCHEM_COORDINATE_TYPE>
2
5
10

$$$$

