11954158
  -OEChem-07051213073D

 61 64  0     1  0  0  0  0  0999 V2000
   -5.1450    0.6415    0.0966 O   0  0  0  0  0  0  0  0  0  0  0  0
    5.3097    0.7511    0.5403 O   0  0  0  0  0  0  0  0  0  0  0  0
   -6.4426   -0.6264    1.5269 O   0  0  0  0  0  0  0  0  0  0  0  0
    6.1693   -1.3510    0.9632 O   0  0  0  0  0  0  0  0  0  0  0  0
   -1.8219   -0.8674    0.0604 C   0  0  2  0  0  0  0  0  0  0  0  0
   -2.7111    0.3487   -0.2644 C   0  0  2  0  0  0  0  0  0  0  0  0
   -0.4530   -0.7938   -0.6224 C   0  0  1  0  0  0  0  0  0  0  0  0
    0.2885    0.4983   -0.1201 C   0  0  1  0  0  0  0  0  0  0  0  0
    1.7330    0.6188   -0.7359 C   0  0  2  0  0  0  0  0  0  0  0  0
   -2.0172    1.6037    0.2786 C   0  0  0  0  0  0  0  0  0  0  0  0
   -0.5956    1.7628   -0.2930 C   0  0  0  0  0  0  0  0  0  0  0  0
   -3.9864   -0.0644    0.4968 C   0  0  2  0  0  0  0  0  0  0  0  0
   -2.7323   -2.0596   -0.2222 C   0  0  0  0  0  0  0  0  0  0  0  0
    0.3792   -2.0617   -0.3600 C   0  0  0  0  0  0  0  0  0  0  0  0
   -4.1294   -1.5691    0.1986 C   0  0  0  0  0  0  0  0  0  0  0  0
    2.4452   -0.6992   -0.3994 C   0  0  0  0  0  0  0  0  0  0  0  0
    1.7951   -1.9530   -0.9252 C   0  0  0  0  0  0  0  0  0  0  0  0
   -3.0223    0.5418   -1.7703 C   0  0  0  0  0  0  0  0  0  0  0  0
    2.5353    1.8334   -0.1734 C   0  0  0  0  0  0  0  0  0  0  0  0
    1.6853    0.8269   -2.2702 C   0  0  0  0  0  0  0  0  0  0  0  0
    3.1265    1.5769    1.2096 C   0  0  0  0  0  0  0  0  0  0  0  0
    3.5117   -0.7778    0.4177 C   0  0  0  0  0  0  0  0  0  0  0  0
    4.0836    0.3855    1.1659 C   0  0  1  0  0  0  0  0  0  0  0  0
   -6.3189    0.2596    0.6923 C   0  0  0  0  0  0  0  0  0  0  0  0
   -7.4544    1.0896    0.1748 C   0  0  0  0  0  0  0  0  0  0  0  0
    6.2704   -0.2193    0.5093 C   0  0  0  0  0  0  0  0  0  0  0  0
    7.4970    0.3041   -0.1748 C   0  0  0  0  0  0  0  0  0  0  0  0
   -1.6328   -0.8816    1.1471 H   0  0  0  0  0  0  0  0  0  0  0  0
   -0.6044   -0.7303   -1.7050 H   0  0  0  0  0  0  0  0  0  0  0  0
    0.4150    0.3763    0.9673 H   0  0  0  0  0  0  0  0  0  0  0  0
   -1.9462    1.5500    1.3728 H   0  0  0  0  0  0  0  0  0  0  0  0
   -2.6074    2.5001    0.0528 H   0  0  0  0  0  0  0  0  0  0  0  0
   -0.6602    2.0387   -1.3501 H   0  0  0  0  0  0  0  0  0  0  0  0
   -0.1379    2.6141    0.2212 H   0  0  0  0  0  0  0  0  0  0  0  0
   -3.8374    0.0854    1.5756 H   0  0  0  0  0  0  0  0  0  0  0  0
   -2.4335   -2.9473    0.3446 H   0  0  0  0  0  0  0  0  0  0  0  0
   -2.7253   -2.3268   -1.2848 H   0  0  0  0  0  0  0  0  0  0  0  0
   -0.1130   -2.9333   -0.8072 H   0  0  0  0  0  0  0  0  0  0  0  0
    0.4332   -2.2504    0.7205 H   0  0  0  0  0  0  0  0  0  0  0  0
   -4.8596   -1.7786   -0.5916 H   0  0  0  0  0  0  0  0  0  0  0  0
   -4.4540   -2.1113    1.0938 H   0  0  0  0  0  0  0  0  0  0  0  0
    1.7733   -1.9408   -2.0203 H   0  0  0  0  0  0  0  0  0  0  0  0
    2.3590   -2.8503   -0.6430 H   0  0  0  0  0  0  0  0  0  0  0  0
   -3.5551   -0.3123   -2.1999 H   0  0  0  0  0  0  0  0  0  0  0  0
   -3.6553    1.4239   -1.9218 H   0  0  0  0  0  0  0  0  0  0  0  0
   -2.1228    0.6909   -2.3733 H   0  0  0  0  0  0  0  0  0  0  0  0
    1.9256    2.7412   -0.1498 H   0  0  0  0  0  0  0  0  0  0  0  0
    3.3683    2.0692   -0.8516 H   0  0  0  0  0  0  0  0  0  0  0  0
    1.0669    0.0902   -2.7891 H   0  0  0  0  0  0  0  0  0  0  0  0
    1.2913    1.8170   -2.5245 H   0  0  0  0  0  0  0  0  0  0  0  0
    2.6904    0.7584   -2.7048 H   0  0  0  0  0  0  0  0  0  0  0  0
    3.6640    2.4738    1.5394 H   0  0  0  0  0  0  0  0  0  0  0  0
    2.3210    1.3918    1.9297 H   0  0  0  0  0  0  0  0  0  0  0  0
    3.8986   -1.7668    0.6472 H   0  0  0  0  0  0  0  0  0  0  0  0
    4.2947    0.0930    2.2025 H   0  0  0  0  0  0  0  0  0  0  0  0
   -7.5541    0.9479   -0.9042 H   0  0  0  0  0  0  0  0  0  0  0  0
   -7.2806    2.1424    0.4108 H   0  0  0  0  0  0  0  0  0  0  0  0
   -8.3843    0.7728    0.6556 H   0  0  0  0  0  0  0  0  0  0  0  0
    7.8915    1.1613    0.3766 H   0  0  0  0  0  0  0  0  0  0  0  0
    7.2560    0.5848   -1.2031 H   0  0  0  0  0  0  0  0  0  0  0  0
    8.2614   -0.4779   -0.1971 H   0  0  0  0  0  0  0  0  0  0  0  0
  1 12  1  0  0  0  0
  1 24  1  0  0  0  0
  2 23  1  0  0  0  0
  2 26  1  0  0  0  0
  3 24  2  0  0  0  0
  4 26  2  0  0  0  0
  5  6  1  0  0  0  0
  5  7  1  0  0  0  0
  5 13  1  0  0  0  0
  5 28  1  0  0  0  0
  6 10  1  0  0  0  0
  6 12  1  0  0  0  0
  6 18  1  0  0  0  0
  7  8  1  0  0  0  0
  7 14  1  0  0  0  0
  7 29  1  0  0  0  0
  8  9  1  0  0  0  0
  8 11  1  0  0  0  0
  8 30  1  0  0  0  0
  9 16  1  0  0  0  0
  9 19  1  0  0  0  0
  9 20  1  0  0  0  0
 10 11  1  0  0  0  0
 10 31  1  0  0  0  0
 10 32  1  0  0  0  0
 11 33  1  0  0  0  0
 11 34  1  0  0  0  0
 12 15  1  0  0  0  0
 12 35  1  0  0  0  0
 13 15  1  0  0  0  0
 13 36  1  0  0  0  0
 13 37  1  0  0  0  0
 14 17  1  0  0  0  0
 14 38  1  0  0  0  0
 14 39  1  0  0  0  0
 15 40  1  0  0  0  0
 15 41  1  0  0  0  0
 16 17  1  0  0  0  0
 16 22  2  0  0  0  0
 17 42  1  0  0  0  0
 17 43  1  0  0  0  0
 18 44  1  0  0  0  0
 18 45  1  0  0  0  0
 18 46  1  0  0  0  0
 19 21  1  0  0  0  0
 19 47  1  0  0  0  0
 19 48  1  0  0  0  0
 20 49  1  0  0  0  0
 20 50  1  0  0  0  0
 20 51  1  0  0  0  0
 21 23  1  0  0  0  0
 21 52  1  0  0  0  0
 21 53  1  0  0  0  0
 22 23  1  0  0  0  0
 22 54  1  0  0  0  0
 23 55  1  0  0  0  0
 24 25  1  0  0  0  0
 25 56  1  0  0  0  0
 25 57  1  0  0  0  0
 25 58  1  0  0  0  0
 26 27  1  0  0  0  0
 27 59  1  0  0  0  0
 27 60  1  0  0  0  0
 27 61  1  0  0  0  0
M  END
> <PUBCHEM_COMPOUND_CID>
11954158

> <PUBCHEM_CONFORMER_RMSD>
0.8

> <PUBCHEM_CONFORMER_DIVERSEORDER>
1
2
6
4
5
3

> <PUBCHEM_MMFF94_PARTIAL_CHARGES>
15
1 -0.43
12 0.28
16 -0.28
17 0.14
2 -0.43
22 -0.29
23 0.42
24 0.66
25 0.06
26 0.66
27 0.06
3 -0.57
4 -0.57
54 0.15
9 0.14

> <PUBCHEM_EFFECTIVE_ROTOR_COUNT>
6

> <PUBCHEM_PHARMACOPHORE_FEATURES>
6
1 3 acceptor
1 4 acceptor
5 5 6 12 13 15 rings
6 5 6 7 8 10 11 rings
6 7 8 9 14 16 17 rings
6 9 16 19 21 22 23 rings

> <PUBCHEM_HEAVY_ATOM_COUNT>
27

> <PUBCHEM_ATOM_DEF_STEREO_COUNT>
7

> <PUBCHEM_ATOM_UDEF_STEREO_COUNT>
0

> <PUBCHEM_BOND_DEF_STEREO_COUNT>
0

> <PUBCHEM_BOND_UDEF_STEREO_COUNT>
0

> <PUBCHEM_ISOTOPIC_ATOM_COUNT>
0

> <PUBCHEM_COMPONENT_COUNT>
1

> <PUBCHEM_CACTVS_TAUTO_COUNT>
1

> <PUBCHEM_CONFORMER_ID>
00B667EE00000001

> <PUBCHEM_MMFF94_ENERGY>
80.7647

> <PUBCHEM_FEATURE_SELFOVERLAP>
30.559

> <PUBCHEM_SHAPE_FINGERPRINT>
10 15 18342174466357188971
106641 1 17775564213511192128
10670039 82 8718557094563915083
11045977 3 18114186289547386296
11089746 13 16877947122603755561
11135609 12 18060131029334622762
11578080 2 16914274028775938782
12011746 2 18336554871761365436
12107698 1 16630524042374865613
12166972 35 17917990559974353836
12236239 1 17989486303744067516
12403259 415 18337404785296276224
12633257 1 18113905931394132232
12838862 33 18336282200861203273
13140716 1 18265053539632037419
13583140 156 17202505375690089511
13668630 136 14836121074186129947
13685833 64 16057162813333954064
13914758 101 14707197847177687274
14117953 113 18408884053244753061
14123256 10 8862943875117727513
14170010 4 18113333141871193230
14251764 18 18343864398512450431
14341114 176 18410576184786682120
15131766 46 14130783176121670330
15142383 8 16917358056086564861
15238133 3 18342167843512395853
15461852 350 17822295656962828503
15840311 113 18130782327407101636
15849732 13 17704353273311996934
17349148 13 18342181033509923158
17980427 23 18339083674773434100
1813 80 17274823588908028446
18335252 98 7420943193243010325
2026 5 14116419311020422072
21033648 29 17895771595056859986
21150785 3 14045738219039144256
21267235 1 18342454859624659024
21344244 181 15554168177283358992
21792934 111 18410851101833868993
21859007 373 17987246710565353605
22182313 1 18271248347695002037
22224240 67 18114187427745523818
23402539 116 17967541137842456772
23559900 14 18336271158589943160
2838139 119 15864069871419982905
335352 9 18408324367265743549
34797466 226 14189568672585653250
34934 24 18260832596762366727
350125 39 18409730647349549268
3545911 37 18335139803815905290
3633792 109 14490738122747013749
392239 28 18187077330668669595
4093350 32 16515957172628059206
4340502 62 18261106375241903383
46194498 28 11312054361521533938
465052 167 17846492621501640136
5104073 3 18338511916290520371

> <PUBCHEM_SHAPE_MULTIPOLES>
532.17
16.55
1.93
1.27
1.56
0.41
-0.43
-1.53
6.13
0.1
-0.08
-0.14
-0.19
0.18

> <PUBCHEM_SHAPE_SELFOVERLAP>
1128.149

> <PUBCHEM_SHAPE_VOLUME>
294.3

> <PUBCHEM_COORDINATE_TYPE>
2
5
10

$$$$

