441863
  -OEChem-07051212563D

 88 92  0     1  0  0  0  0  0999 V2000
   -3.9190   -3.1818   -0.7578 O   0  0  0  0  0  0  0  0  0  0  0  0
    2.4045   -1.7789   -0.4177 O   0  0  0  0  0  0  0  0  0  0  0  0
    3.1405   -0.0864    1.6789 O   0  0  0  0  0  0  0  0  0  0  0  0
    1.1272    0.2056   -2.8050 O   0  0  0  0  0  0  0  0  0  0  0  0
   -8.2135    1.3873    0.3252 O   0  0  0  0  0  0  0  0  0  0  0  0
    2.8290   -3.5557    0.9962 O   0  0  0  0  0  0  0  0  0  0  0  0
    3.2923    2.0478    2.5394 O   0  0  0  0  0  0  0  0  0  0  0  0
   -8.9488    3.5064   -0.0438 O   0  0  0  0  0  0  0  0  0  0  0  0
    6.0353    1.7134    2.5048 O   0  0  0  0  0  0  0  0  0  0  0  0
    4.6621    0.8124   -0.7694 O   0  0  0  0  0  0  0  0  0  0  0  0
    7.3171    0.0210   -0.2218 O   0  0  0  0  0  0  0  0  0  0  0  0
    6.8380    3.3156   -1.7751 O   0  0  0  0  0  0  0  0  0  0  0  0
   -3.3793   -1.9512   -0.2517 C   0  0  1  0  0  0  0  0  0  0  0  0
   -1.8619   -1.9267   -0.6141 C   0  0  1  0  0  0  0  0  0  0  0  0
   -1.2135   -0.5438   -0.3450 C   0  0  1  0  0  0  0  0  0  0  0  0
   -4.1882   -0.7181   -0.8090 C   0  0  2  0  0  0  0  0  0  0  0  0
    0.3302   -0.5208   -0.6349 C   0  0  2  0  0  0  0  0  0  0  0  0
    1.0584   -1.7021    0.0802 C   0  0  1  0  0  0  0  0  0  0  0  0
   -1.9760    0.5982   -1.0609 C   0  0  0  0  0  0  0  0  0  0  0  0
   -3.3079    0.1914   -1.6868 C   0  0  0  0  0  0  0  0  0  0  0  0
   -4.6652    0.0209    0.4824 C   0  0  2  0  0  0  0  0  0  0  0  0
   -1.1000   -3.0757    0.0768 C   0  0  0  0  0  0  0  0  0  0  0  0
   -3.6573   -1.9712    1.2719 C   0  0  0  0  0  0  0  0  0  0  0  0
    0.3925   -3.0567   -0.2201 C   0  0  0  0  0  0  0  0  0  0  0  0
   -4.9004   -1.1167    1.4702 C   0  0  0  0  0  0  0  0  0  0  0  0
    0.9868    0.8252   -0.2157 C   0  0  0  0  0  0  0  0  0  0  0  0
    1.1456   -1.4742    1.6132 C   0  0  0  0  0  0  0  0  0  0  0  0
   -5.3965   -1.1558   -1.6779 C   0  0  0  0  0  0  0  0  0  0  0  0
    1.0527    1.0325    1.2970 C   0  0  0  0  0  0  0  0  0  0  0  0
    1.7527   -0.1229    2.0020 C   0  0  2  0  0  0  0  0  0  0  0  0
    0.5424   -0.6398   -2.1358 C   0  0  0  0  0  0  0  0  0  0  0  0
   -5.8405    0.9328    0.3455 C   0  0  0  0  0  0  0  0  0  0  0  0
   -5.6014    2.3278    0.0815 C   0  0  0  0  0  0  0  0  0  0  0  0
   -7.1109    0.5306    0.4535 C   0  0  0  0  0  0  0  0  0  0  0  0
    3.1724   -2.7568    0.1354 C   0  0  0  0  0  0  0  0  0  0  0  0
   -6.6179    3.1857   -0.0494 C   0  0  0  0  0  0  0  0  0  0  0  0
    3.7968    1.0688    2.0046 C   0  0  0  0  0  0  0  0  0  0  0  0
    4.5401   -2.7179   -0.4759 C   0  0  0  0  0  0  0  0  0  0  0  0
   -8.0150    2.7198    0.0752 C   0  0  0  0  0  0  0  0  0  0  0  0
    5.2511    0.9756    1.5780 C   0  0  1  0  0  0  0  0  0  0  0  0
    5.4803    1.5255    0.1587 C   0  0  1  0  0  0  0  0  0  0  0  0
    6.9491    1.3974   -0.2960 C   0  0  2  0  0  0  0  0  0  0  0  0
    7.1856    1.9331   -1.7223 C   0  0  2  0  0  0  0  0  0  0  0  0
    8.6307    1.7788   -2.1844 C   0  0  0  0  0  0  0  0  0  0  0  0
   -1.7977   -2.1344   -1.6915 H   0  0  0  0  0  0  0  0  0  0  0  0
   -1.3391   -0.3514    0.7266 H   0  0  0  0  0  0  0  0  0  0  0  0
   -1.3761    1.0496   -1.8584 H   0  0  0  0  0  0  0  0  0  0  0  0
   -2.1406    1.4106   -0.3419 H   0  0  0  0  0  0  0  0  0  0  0  0
   -3.0872   -0.3302   -2.6287 H   0  0  0  0  0  0  0  0  0  0  0  0
   -3.8542    1.0967   -1.9777 H   0  0  0  0  0  0  0  0  0  0  0  0
   -3.8338    0.6051    0.9017 H   0  0  0  0  0  0  0  0  0  0  0  0
   -1.2474   -3.0465    1.1612 H   0  0  0  0  0  0  0  0  0  0  0  0
   -1.4940   -4.0424   -0.2581 H   0  0  0  0  0  0  0  0  0  0  0  0
   -3.8139   -2.9767    1.6769 H   0  0  0  0  0  0  0  0  0  0  0  0
   -2.8391   -1.5117    1.8371 H   0  0  0  0  0  0  0  0  0  0  0  0
    0.5570   -3.3280   -1.2711 H   0  0  0  0  0  0  0  0  0  0  0  0
    0.8087   -3.8926    0.3456 H   0  0  0  0  0  0  0  0  0  0  0  0
   -4.9851   -0.7647    2.5039 H   0  0  0  0  0  0  0  0  0  0  0  0
   -5.7847   -1.7213    1.2429 H   0  0  0  0  0  0  0  0  0  0  0  0
    2.0093    0.8877   -0.6084 H   0  0  0  0  0  0  0  0  0  0  0  0
    0.4564    1.6759   -0.6603 H   0  0  0  0  0  0  0  0  0  0  0  0
    1.6735   -2.2456    2.1726 H   0  0  0  0  0  0  0  0  0  0  0  0
    0.1305   -1.4921    2.0294 H   0  0  0  0  0  0  0  0  0  0  0  0
   -6.1053   -1.7768   -1.1207 H   0  0  0  0  0  0  0  0  0  0  0  0
   -5.0585   -1.7424   -2.5408 H   0  0  0  0  0  0  0  0  0  0  0  0
   -5.9392   -0.2961   -2.0860 H   0  0  0  0  0  0  0  0  0  0  0  0
    1.4621    2.0264    1.4697 H   0  0  0  0  0  0  0  0  0  0  0  0
    0.0286    1.0958    1.6861 H   0  0  0  0  0  0  0  0  0  0  0  0
    1.6548   -0.0041    3.0889 H   0  0  0  0  0  0  0  0  0  0  0  0
    0.1449   -1.5425   -2.6261 H   0  0  0  0  0  0  0  0  0  0  0  0
   -3.5755   -3.9216   -0.2309 H   0  0  0  0  0  0  0  0  0  0  0  0
   -4.5801    2.6816   -0.0104 H   0  0  0  0  0  0  0  0  0  0  0  0
   -7.4645   -0.4721    0.6405 H   0  0  0  0  0  0  0  0  0  0  0  0
   -6.4461    4.2372   -0.2478 H   0  0  0  0  0  0  0  0  0  0  0  0
    4.5005   -2.3130   -1.4910 H   0  0  0  0  0  0  0  0  0  0  0  0
    5.2016   -2.1131    0.1468 H   0  0  0  0  0  0  0  0  0  0  0  0
    4.9284   -3.7380   -0.5443 H   0  0  0  0  0  0  0  0  0  0  0  0
    5.5484   -0.0764    1.6538 H   0  0  0  0  0  0  0  0  0  0  0  0
    5.1765    2.5781    0.1244 H   0  0  0  0  0  0  0  0  0  0  0  0
    5.9611    1.2721    3.3682 H   0  0  0  0  0  0  0  0  0  0  0  0
    7.5894    1.9573    0.3973 H   0  0  0  0  0  0  0  0  0  0  0  0
    5.0088   -0.0924   -0.8312 H   0  0  0  0  0  0  0  0  0  0  0  0
    6.5486    1.4006   -2.4373 H   0  0  0  0  0  0  0  0  0  0  0  0
    7.4955   -0.1890    0.7102 H   0  0  0  0  0  0  0  0  0  0  0  0
    9.3146    2.3090   -1.5126 H   0  0  0  0  0  0  0  0  0  0  0  0
    8.7619    2.2197   -3.1784 H   0  0  0  0  0  0  0  0  0  0  0  0
    8.9293    0.7274   -2.2291 H   0  0  0  0  0  0  0  0  0  0  0  0
    7.4084    3.7903   -1.1465 H   0  0  0  0  0  0  0  0  0  0  0  0
  1 13  1  0  0  0  0
  1 71  1  0  0  0  0
  2 18  1  0  0  0  0
  2 35  1  0  0  0  0
  3 30  1  0  0  0  0
  3 37  1  0  0  0  0
  4 31  2  0  0  0  0
  5 34  1  0  0  0  0
  5 39  1  0  0  0  0
  6 35  2  0  0  0  0
  7 37  2  0  0  0  0
  8 39  2  0  0  0  0
  9 40  1  0  0  0  0
  9 80  1  0  0  0  0
 10 41  1  0  0  0  0
 10 82  1  0  0  0  0
 11 42  1  0  0  0  0
 11 84  1  0  0  0  0
 12 43  1  0  0  0  0
 12 88  1  0  0  0  0
 13 14  1  0  0  0  0
 13 16  1  0  0  0  0
 13 23  1  0  0  0  0
 14 15  1  0  0  0  0
 14 22  1  0  0  0  0
 14 45  1  0  0  0  0
 15 17  1  0  0  0  0
 15 19  1  0  0  0  0
 15 46  1  0  0  0  0
 16 20  1  0  0  0  0
 16 21  1  0  0  0  0
 16 28  1  0  0  0  0
 17 18  1  0  0  0  0
 17 26  1  0  0  0  0
 17 31  1  0  0  0  0
 18 24  1  0  0  0  0
 18 27  1  0  0  0  0
 19 20  1  0  0  0  0
 19 47  1  0  0  0  0
 19 48  1  0  0  0  0
 20 49  1  0  0  0  0
 20 50  1  0  0  0  0
 21 25  1  0  0  0  0
 21 32  1  0  0  0  0
 21 51  1  0  0  0  0
 22 24  1  0  0  0  0
 22 52  1  0  0  0  0
 22 53  1  0  0  0  0
 23 25  1  0  0  0  0
 23 54  1  0  0  0  0
 23 55  1  0  0  0  0
 24 56  1  0  0  0  0
 24 57  1  0  0  0  0
 25 58  1  0  0  0  0
 25 59  1  0  0  0  0
 26 29  1  0  0  0  0
 26 60  1  0  0  0  0
 26 61  1  0  0  0  0
 27 30  1  0  0  0  0
 27 62  1  0  0  0  0
 27 63  1  0  0  0  0
 28 64  1  0  0  0  0
 28 65  1  0  0  0  0
 28 66  1  0  0  0  0
 29 30  1  0  0  0  0
 29 67  1  0  0  0  0
 29 68  1  0  0  0  0
 30 69  1  0  0  0  0
 31 70  1  0  0  0  0
 32 33  1  0  0  0  0
 32 34  2  0  0  0  0
 33 36  2  0  0  0  0
 33 72  1  0  0  0  0
 34 73  1  0  0  0  0
 35 38  1  0  0  0  0
 36 39  1  0  0  0  0
 36 74  1  0  0  0  0
 37 40  1  0  0  0  0
 38 75  1  0  0  0  0
 38 76  1  0  0  0  0
 38 77  1  0  0  0  0
 40 41  1  0  0  0  0
 40 78  1  0  0  0  0
 41 42  1  0  0  0  0
 41 79  1  0  0  0  0
 42 43  1  0  0  0  0
 42 81  1  0  0  0  0
 43 44  1  0  0  0  0
 43 83  1  0  0  0  0
 44 85  1  0  0  0  0
 44 86  1  0  0  0  0
 44 87  1  0  0  0  0
M  END
> <PUBCHEM_COMPOUND_CID>
441863

> <PUBCHEM_CONFORMER_RMSD>
1.2

> <PUBCHEM_CONFORMER_DIVERSEORDER>
1
38
46
16
48
33
39
49
19
24
35
40
37
32
5
41
9
29
15
8
13
36
42
22
6
31
30
14
44
20
2
27
28
47
10
4
23
43
18
12
51
7
21
3
52
17
26
34
25
50
11
45

> <PUBCHEM_MMFF94_PARTIAL_CHARGES>
39
1 -0.68
10 -0.68
11 -0.68
12 -0.68
13 0.28
17 0.06
18 0.28
2 -0.43
21 0.14
3 -0.43
30 0.28
31 0.45
32 -0.14
33 -0.15
34 -0.07
35 0.66
36 -0.14
37 0.66
38 0.06
39 0.71
4 -0.57
40 0.34
41 0.28
42 0.28
43 0.28
5 -0.23
6 -0.57
7 -0.57
70 0.06
71 0.4
72 0.15
73 0.15
74 0.15
8 -0.57
80 0.4
82 0.4
84 0.4
88 0.4
9 -0.68

> <PUBCHEM_EFFECTIVE_ROTOR_COUNT>
12.2

> <PUBCHEM_PHARMACOPHORE_FEATURES>
19
1 1 acceptor
1 1 donor
1 10 acceptor
1 10 donor
1 11 acceptor
1 11 donor
1 12 acceptor
1 12 donor
1 4 acceptor
1 6 acceptor
1 7 acceptor
1 8 acceptor
1 9 acceptor
1 9 donor
5 13 16 21 23 25 rings
6 13 14 15 16 19 20 rings
6 14 15 17 18 22 24 rings
6 17 18 26 27 29 30 rings
6 5 32 33 34 36 39 rings

> <PUBCHEM_HEAVY_ATOM_COUNT>
44

> <PUBCHEM_ATOM_DEF_STEREO_COUNT>
12

> <PUBCHEM_ATOM_UDEF_STEREO_COUNT>
0

> <PUBCHEM_BOND_DEF_STEREO_COUNT>
0

> <PUBCHEM_BOND_UDEF_STEREO_COUNT>
0

> <PUBCHEM_ISOTOPIC_ATOM_COUNT>
0

> <PUBCHEM_COMPONENT_COUNT>
1

> <PUBCHEM_CACTVS_TAUTO_COUNT>
1

> <PUBCHEM_CONFORMER_ID>
0006BE0700000001

> <PUBCHEM_MMFF94_ENERGY>
160.5951

> <PUBCHEM_FEATURE_SELFOVERLAP>
96.691

> <PUBCHEM_SHAPE_FINGERPRINT>
10816530 90 18260548982834141066
10906281 52 18131633353068763042
11578080 2 18411701006108418951
11828532 37 7564756028284518733
1200032 147 18342736342647966330
12422481 6 17774739592622781030
13383665 225 18341889667360953095
13726171 33 17987233314815674588
14664723 55 18334005090848116569
14840074 17 17274271530801902086
14856354 85 18340205163838891287
14951699 99 18412828006001565113
15064981 113 15792297128467186773
15183329 4 16225758602196033944
15840311 113 18271237334750248927
16112460 7 18188771785783651441
20691028 202 18410857667957915599
21033648 29 18341899610347529371
21781055 127 18343308051226939536
23522609 53 17917428675489066348
24771293 8 17846776278348092054
392239 28 16343710906361404755
3986486 107 17240757410932951328
4073 2 18273209807783378779
4461854 278 13758068619023745601
5265222 85 18051122606810586100
5718773 13 8934999265705680481
6086070 43 16950292784303470987
6328613 192 18335979852406588179
9896288 288 18269837515390331515

> <PUBCHEM_SHAPE_MULTIPOLES>
835.07
22.83
3.94
2.1
2.62
0.55
0.12
-25.57
-3.43
1.48
-0.17
-3.27
-0.71
-1.35

> <PUBCHEM_SHAPE_SELFOVERLAP>
1787.177

> <PUBCHEM_SHAPE_VOLUME>
453.4

> <PUBCHEM_COORDINATE_TYPE>
2
5
10

$$$$

