5280648
  -OEChem-07051212493D

 19 18  0     0  0  0  0  0  0999 V2000
    3.9024   -0.5709    0.0546 O   0  0  0  0  0  0  0  0  0  0  0  0
   -3.0477   -0.1098    1.2037 O   0  0  0  0  0  0  0  0  0  0  0  0
    2.7098    1.3664   -0.0328 O   0  0  0  0  0  0  0  0  0  0  0  0
   -3.1259   -0.2330   -1.0658 O   0  0  0  0  0  0  0  0  0  0  0  0
    0.3005   -0.4875   -0.0089 C   0  0  0  0  0  0  0  0  0  0  0  0
   -0.6952   -1.6253   -0.0338 C   0  0  0  0  0  0  0  0  0  0  0  0
   -0.2361    0.8734   -0.0332 C   0  0  0  0  0  0  0  0  0  0  0  0
    1.6138   -0.7942    0.0051 C   0  0  0  0  0  0  0  0  0  0  0  0
   -1.5369    1.2072   -0.0474 C   0  0  0  0  0  0  0  0  0  0  0  0
    2.7564    0.1499   -0.0011 C   0  0  0  0  0  0  0  0  0  0  0  0
   -2.6412    0.2238   -0.0404 C   0  0  0  0  0  0  0  0  0  0  0  0
   -1.3070   -1.6698    0.8680 H   0  0  0  0  0  0  0  0  0  0  0  0
   -1.2710   -1.6541   -0.9605 H   0  0  0  0  0  0  0  0  0  0  0  0
   -0.1672   -2.5898   -0.0313 H   0  0  0  0  0  0  0  0  0  0  0  0
    0.4574    1.7054   -0.0363 H   0  0  0  0  0  0  0  0  0  0  0  0
    1.9032   -1.8442    0.0146 H   0  0  0  0  0  0  0  0  0  0  0  0
   -1.8332    2.2512   -0.0616 H   0  0  0  0  0  0  0  0  0  0  0  0
    4.6974    0.0039    0.0604 H   0  0  0  0  0  0  0  0  0  0  0  0
   -3.7794   -0.7631    1.1892 H   0  0  0  0  0  0  0  0  0  0  0  0
  1 10  1  0  0  0  0
  1 18  1  0  0  0  0
  2 11  1  0  0  0  0
  2 19  1  0  0  0  0
  3 10  2  0  0  0  0
  4 11  2  0  0  0  0
  5  6  1  0  0  0  0
  5  7  1  0  0  0  0
  5  8  2  0  0  0  0
  6 12  1  0  0  0  0
  6 13  1  0  0  0  0
  6 14  1  0  0  0  0
  7  9  2  0  0  0  0
  7 15  1  0  0  0  0
  8 10  1  0  0  0  0
  8 16  1  0  0  0  0
  9 11  1  0  0  0  0
  9 17  1  0  0  0  0
M  END
> <PUBCHEM_COMPOUND_CID>
5280648

> <PUBCHEM_CONFORMER_RMSD>
0.6

> <PUBCHEM_CONFORMER_DIVERSEORDER>
1
3
4
2

> <PUBCHEM_MMFF94_PARTIAL_CHARGES>
16
1 -0.65
10 0.71
11 0.71
15 0.15
16 0.15
17 0.15
18 0.5
19 0.5
2 -0.65
3 -0.57
4 -0.57
5 -0.14
6 0.14
7 -0.15
8 -0.14
9 -0.14

> <PUBCHEM_EFFECTIVE_ROTOR_COUNT>
3

> <PUBCHEM_PHARMACOPHORE_FEATURES>
7
1 1 acceptor
1 2 acceptor
1 3 acceptor
1 4 acceptor
1 6 hydrophobe
3 1 3 10 anion
3 2 4 11 anion

> <PUBCHEM_HEAVY_ATOM_COUNT>
11

> <PUBCHEM_ATOM_DEF_STEREO_COUNT>
0

> <PUBCHEM_ATOM_UDEF_STEREO_COUNT>
0

> <PUBCHEM_BOND_DEF_STEREO_COUNT>
2

> <PUBCHEM_BOND_UDEF_STEREO_COUNT>
0

> <PUBCHEM_ISOTOPIC_ATOM_COUNT>
0

> <PUBCHEM_COMPONENT_COUNT>
1

> <PUBCHEM_CACTVS_TAUTO_COUNT>
1

> <PUBCHEM_CONFORMER_ID>
0050938800000001

> <PUBCHEM_MMFF94_ENERGY>
38.3853

> <PUBCHEM_FEATURE_SELFOVERLAP>
35.635

> <PUBCHEM_SHAPE_FINGERPRINT>
10857977 72 17989202629506737505
11062470 55 13039184822849392702
11132069 177 18261402134615033464
12897270 3 18340772627728788541
12932764 1 17632583746804039210
14325111 11 18410575110607137916
16945 1 18411135835630200438
21028194 46 18333733541645451208
21293036 1 18340497690061515727
23402539 116 18115036293808931588
3248919 1 16950284035117433109
5084963 1 18186809122661351976
6333449 129 18335702680776306366

> <PUBCHEM_SHAPE_MULTIPOLES>
202.9
5.65
1.33
0.77
1.93
0.06
-0.04
-0.22
-0.08
0.13
0.02
-0.58
0.04
-0.03

> <PUBCHEM_SHAPE_SELFOVERLAP>
399.849

> <PUBCHEM_SHAPE_VOLUME>
119.7

> <PUBCHEM_COORDINATE_TYPE>
2
5
10

$$$$

