47205574
  -OEChem-06241222592D

 34 36  0     0  0  0  0  0  0999 V2000
    4.5411    3.5684    0.0000 S   0  0  0  0  0  0  0  0  0  0  0  0
    2.0000    1.9806    0.0000 O   0  0  0  0  0  0  0  0  0  0  0  0
    2.8660   -1.5194    0.0000 N   0  0  0  0  0  0  0  0  0  0  0  0
    3.7320    1.9806    0.0000 N   0  0  0  0  0  0  0  0  0  0  0  0
    3.7320   -3.0194    0.0000 N   0  0  0  0  0  0  0  0  0  0  0  0
    2.0000   -3.0194    0.0000 N   0  0  0  0  0  0  0  0  0  0  0  0
    2.9230    3.5684    0.0000 N   0  0  0  0  0  0  0  0  0  0  0  0
    3.2320    4.5194    0.0000 N   0  0  0  0  0  0  0  0  0  0  0  0
    2.8660    0.4806    0.0000 C   0  0  0  0  0  0  0  0  0  0  0  0
    2.0000   -0.0194    0.0000 C   0  0  0  0  0  0  0  0  0  0  0  0
    3.7320   -0.0194    0.0000 C   0  0  0  0  0  0  0  0  0  0  0  0
    2.0000   -1.0194    0.0000 C   0  0  0  0  0  0  0  0  0  0  0  0
    3.7320   -1.0194    0.0000 C   0  0  0  0  0  0  0  0  0  0  0  0
    2.8660    1.4806    0.0000 C   0  0  0  0  0  0  0  0  0  0  0  0
    2.8660   -2.5194    0.0000 C   0  0  0  0  0  0  0  0  0  0  0  0
    3.7320    2.9806    0.0000 C   0  0  0  0  0  0  0  0  0  0  0  0
    3.7320   -4.0194    0.0000 C   0  0  0  0  0  0  0  0  0  0  0  0
    2.0000   -4.0194    0.0000 C   0  0  0  0  0  0  0  0  0  0  0  0
    2.8660   -4.5194    0.0000 C   0  0  0  0  0  0  0  0  0  0  0  0
    4.2320    4.5194    0.0000 C   0  0  0  0  0  0  0  0  0  0  0  0
    3.4030    0.7906    0.0000 H   0  0  0  0  0  0  0  0  0  0  0  0
    1.7880    0.5632    0.0000 H   0  0  0  0  0  0  0  0  0  0  0  0
    1.3894   -0.1271    0.0000 H   0  0  0  0  0  0  0  0  0  0  0  0
    4.3426   -0.1271    0.0000 H   0  0  0  0  0  0  0  0  0  0  0  0
    3.9441    0.5632    0.0000 H   0  0  0  0  0  0  0  0  0  0  0  0
    1.3894   -0.9118    0.0000 H   0  0  0  0  0  0  0  0  0  0  0  0
    1.7880   -1.6020    0.0000 H   0  0  0  0  0  0  0  0  0  0  0  0
    3.9441   -1.6020    0.0000 H   0  0  0  0  0  0  0  0  0  0  0  0
    4.3426   -0.9118    0.0000 H   0  0  0  0  0  0  0  0  0  0  0  0
    4.2690    1.6706    0.0000 H   0  0  0  0  0  0  0  0  0  0  0  0
    4.2690   -4.3294    0.0000 H   0  0  0  0  0  0  0  0  0  0  0  0
    1.4631   -4.3294    0.0000 H   0  0  0  0  0  0  0  0  0  0  0  0
    2.8660   -5.1394    0.0000 H   0  0  0  0  0  0  0  0  0  0  0  0
    4.5965    5.0210    0.0000 H   0  0  0  0  0  0  0  0  0  0  0  0
  1 16  1  0  0  0  0
  1 20  1  0  0  0  0
  2 14  2  0  0  0  0
  3 12  1  0  0  0  0
  3 13  1  0  0  0  0
  3 15  1  0  0  0  0
  4 14  1  0  0  0  0
  4 16  1  0  0  0  0
  4 30  1  0  0  0  0
  5 15  1  0  0  0  0
  5 17  2  0  0  0  0
  6 15  2  0  0  0  0
  6 18  1  0  0  0  0
  7  8  1  0  0  0  0
  7 16  2  0  0  0  0
  8 20  2  0  0  0  0
  9 10  1  0  0  0  0
  9 11  1  0  0  0  0
  9 14  1  0  0  0  0
  9 21  1  0  0  0  0
 10 12  1  0  0  0  0
 10 22  1  0  0  0  0
 10 23  1  0  0  0  0
 11 13  1  0  0  0  0
 11 24  1  0  0  0  0
 11 25  1  0  0  0  0
 12 26  1  0  0  0  0
 12 27  1  0  0  0  0
 13 28  1  0  0  0  0
 13 29  1  0  0  0  0
 17 19  1  0  0  0  0
 17 31  1  0  0  0  0
 18 19  2  0  0  0  0
 18 32  1  0  0  0  0
 19 33  1  0  0  0  0
 20 34  1  0  0  0  0
M  END
> <PUBCHEM_COMPOUND_CID>
47205574

> <PUBCHEM_COMPOUND_CANONICALIZED>
1

> <PUBCHEM_CACTVS_COMPLEXITY>
330

> <PUBCHEM_CACTVS_HBOND_ACCEPTOR>
7

> <PUBCHEM_CACTVS_HBOND_DONOR>
1

> <PUBCHEM_CACTVS_ROTATABLE_BOND>
3

> <PUBCHEM_CACTVS_SUBSKEYS>
AAADccBzoABAAAAAAAAAAAAAAAAAAWAAAAAsWAAAAAAAAAAB4AAAHgQYAAAADQDBkgS9kJfIEAiuADF3dACQgCtRgqkNUCE4ZBCACJJAyUAEBAgYEQLAACAUAAAKAAAAAAAAAAAAAAAAAAAAAAAAAAAAAA==

> <PUBCHEM_IUPAC_OPENEYE_NAME>
1-pyrimidin-2-yl-N-(1,3,4-thiadiazol-2-yl)piperidine-4-carboxamide

> <PUBCHEM_IUPAC_CAS_NAME>
1-(2-pyrimidinyl)-N-(1,3,4-thiadiazol-2-yl)-4-piperidinecarboxamide

> <PUBCHEM_IUPAC_NAME>
1-pyrimidin-2-yl-N-(1,3,4-thiadiazol-2-yl)piperidine-4-carboxamide

> <PUBCHEM_IUPAC_SYSTEMATIC_NAME>
1-pyrimidin-2-yl-N-(1,3,4-thiadiazol-2-yl)piperidine-4-carboxamide

> <PUBCHEM_IUPAC_TRADITIONAL_NAME>
1-(2-pyrimidyl)-N-(1,3,4-thiadiazol-2-yl)isonipecotamide

> <PUBCHEM_IUPAC_INCHI>
InChI=1S/C12H14N6OS/c19-10(16-12-17-15-8-20-12)9-2-6-18(7-3-9)11-13-4-1-5-14-11/h1,4-5,8-9H,2-3,6-7H2,(H,16,17,19)

> <PUBCHEM_IUPAC_INCHIKEY>
MMAALEZSHHXQRY-UHFFFAOYSA-N

> <PUBCHEM_XLOGP3_AA>
0.8

> <PUBCHEM_EXACT_MASS>
290.09498

> <PUBCHEM_MOLECULAR_FORMULA>
C12H14N6OS

> <PUBCHEM_MOLECULAR_WEIGHT>
290.34416

> <PUBCHEM_OPENEYE_CAN_SMILES>
C1CN(CCC1C(=O)NC2=NN=CS2)C3=NC=CC=N3

> <PUBCHEM_OPENEYE_ISO_SMILES>
C1CN(CCC1C(=O)NC2=NN=CS2)C3=NC=CC=N3

> <PUBCHEM_CACTVS_TPSA>
112

> <PUBCHEM_MONOISOTOPIC_WEIGHT>
290.09498

> <PUBCHEM_TOTAL_CHARGE>
0

> <PUBCHEM_HEAVY_ATOM_COUNT>
20

> <PUBCHEM_ATOM_DEF_STEREO_COUNT>
0

> <PUBCHEM_ATOM_UDEF_STEREO_COUNT>
0

> <PUBCHEM_BOND_DEF_STEREO_COUNT>
0

> <PUBCHEM_BOND_UDEF_STEREO_COUNT>
0

> <PUBCHEM_ISOTOPIC_ATOM_COUNT>
0

> <PUBCHEM_COMPONENT_COUNT>
1

> <PUBCHEM_CACTVS_TAUTO_COUNT>
5

> <PUBCHEM_COORDINATE_TYPE>
1
5
255

> <PUBCHEM_BONDANNOTATIONS>
1  16  8
1  20  8
17  19  8
18  19  8
5  15  8
5  17  8
6  15  8
6  18  8
7  16  8
7  8  8
8  20  8

$$$$

