5281191
  -OEChem-07051212552D

 41 41  0     1  0  0  0  0  0999 V2000
    9.7942    2.0950    0.0000 O   0  0  0  0  0  0  0  0  0  0  0  0
    7.1962    3.5950    0.0000 O   0  0  0  0  0  0  0  0  0  0  0  0
    5.4641    3.5950    0.0000 O   0  0  0  0  0  0  0  0  0  0  0  0
    2.8660   -3.9050    0.0000 O   0  0  0  0  0  0  0  0  0  0  0  0
    2.0000   -2.4050    0.0000 O   0  0  0  0  0  0  0  0  0  0  0  0
    6.3301   -3.9050    0.0000 O   0  0  0  0  0  0  0  0  0  0  0  0
    7.1962   -2.4050    0.0000 O   0  0  0  0  0  0  0  0  0  0  0  0
    5.4641    1.5950    0.0000 N   0  0  0  0  0  0  0  0  0  0  0  0
    4.5981   -2.9050    0.0000 N   0  0  0  0  0  0  0  0  0  0  0  0
    6.3301    2.0950    0.0000 C   0  0  1  0  0  0  0  0  0  0  0  0
    7.1962    1.5950    0.0000 C   0  0  0  0  0  0  0  0  0  0  0  0
    3.7320   -1.4050    0.0000 C   0  0  0  0  0  0  0  0  0  0  0  0
    8.0622    2.0950    0.0000 C   0  0  0  0  0  0  0  0  0  0  0  0
    3.7320   -2.4050    0.0000 C   0  0  2  0  0  0  0  0  0  0  0  0
    4.5981   -0.9050    0.0000 C   0  0  0  0  0  0  0  0  0  0  0  0
    4.5981    0.0950    0.0000 C   0  0  0  0  0  0  0  0  0  0  0  0
    8.9282    1.5950    0.0000 C   0  0  0  0  0  0  0  0  0  0  0  0
    5.4641   -1.4050    0.0000 C   0  0  0  0  0  0  0  0  0  0  0  0
    5.4641    0.5950    0.0000 C   0  0  0  0  0  0  0  0  0  0  0  0
    6.3301    3.0950    0.0000 C   0  0  0  0  0  0  0  0  0  0  0  0
    5.4641   -2.4050    0.0000 C   0  0  0  0  0  0  0  0  0  0  0  0
    2.8660   -2.9050    0.0000 C   0  0  0  0  0  0  0  0  0  0  0  0
    6.3301   -2.9050    0.0000 C   0  0  0  0  0  0  0  0  0  0  0  0
    5.7932    2.4050    0.0000 H   0  0  0  0  0  0  0  0  0  0  0  0
    6.7976    1.1200    0.0000 H   0  0  0  0  0  0  0  0  0  0  0  0
    7.5947    1.1200    0.0000 H   0  0  0  0  0  0  0  0  0  0  0  0
    3.5200   -0.8224    0.0000 H   0  0  0  0  0  0  0  0  0  0  0  0
    3.1215   -1.5127    0.0000 H   0  0  0  0  0  0  0  0  0  0  0  0
    8.4607    2.5700    0.0000 H   0  0  0  0  0  0  0  0  0  0  0  0
    7.6636    2.5700    0.0000 H   0  0  0  0  0  0  0  0  0  0  0  0
    3.7320   -3.0250    0.0000 H   0  0  0  0  0  0  0  0  0  0  0  0
    4.9272    1.9050    0.0000 H   0  0  0  0  0  0  0  0  0  0  0  0
    4.0611    0.4050    0.0000 H   0  0  0  0  0  0  0  0  0  0  0  0
    8.5297    1.1200    0.0000 H   0  0  0  0  0  0  0  0  0  0  0  0
    9.3267    1.1200    0.0000 H   0  0  0  0  0  0  0  0  0  0  0  0
    6.0010   -1.0950    0.0000 H   0  0  0  0  0  0  0  0  0  0  0  0
    6.0010    0.2850    0.0000 H   0  0  0  0  0  0  0  0  0  0  0  0
   10.3312    1.7850    0.0000 H   0  0  0  0  0  0  0  0  0  0  0  0
    7.1962    4.2150    0.0000 H   0  0  0  0  0  0  0  0  0  0  0  0
    2.3291   -4.2150    0.0000 H   0  0  0  0  0  0  0  0  0  0  0  0
    6.8671   -4.2150    0.0000 H   0  0  0  0  0  0  0  0  0  0  0  0
  1 17  1  0  0  0  0
  1 38  1  0  0  0  0
  2 20  1  0  0  0  0
  2 39  1  0  0  0  0
  3 20  2  0  0  0  0
  4 22  1  0  0  0  0
  4 40  1  0  0  0  0
  5 22  2  0  0  0  0
  6 23  1  0  0  0  0
  6 41  1  0  0  0  0
  7 23  2  0  0  0  0
 10  8  1  6  0  0  0
  8 19  1  0  0  0  0
  8 32  1  0  0  0  0
  9 14  1  0  0  0  0
  9 21  2  0  0  0  0
 10 11  1  0  0  0  0
 10 20  1  0  0  0  0
 10 24  1  0  0  0  0
 11 13  1  0  0  0  0
 11 25  1  0  0  0  0
 11 26  1  0  0  0  0
 12 14  1  0  0  0  0
 12 15  1  0  0  0  0
 12 27  1  0  0  0  0
 12 28  1  0  0  0  0
 13 17  1  0  0  0  0
 13 29  1  0  0  0  0
 13 30  1  0  0  0  0
 14 22  1  1  0  0  0
 14 31  1  0  0  0  0
 15 16  1  0  0  0  0
 15 18  2  0  0  0  0
 16 19  2  0  0  0  0
 16 33  1  0  0  0  0
 17 34  1  0  0  0  0
 17 35  1  0  0  0  0
 18 21  1  0  0  0  0
 18 36  1  0  0  0  0
 19 37  1  0  0  0  0
 21 23  1  0  0  0  0
M  END
> <PUBCHEM_COMPOUND_CID>
5281191

> <PUBCHEM_COMPOUND_CANONICALIZED>
1

> <PUBCHEM_CACTVS_COMPLEXITY>
566

> <PUBCHEM_CACTVS_HBOND_ACCEPTOR>
9

> <PUBCHEM_CACTVS_HBOND_DONOR>
5

> <PUBCHEM_CACTVS_ROTATABLE_BOND>
9

> <PUBCHEM_CACTVS_SUBSKEYS>
AAADceBzOAAAAAAAAAAAAAAAAAAAAAAAAAAgAAAAAAAAAAAAAAAAHgAQCAAADCjhgAYACALAAgCoAyD2TAQAAAAgAgAICIGYABgKEBIAgSAEQAAE0AAYgAKoJAAAAAAAAAAAAAAAAAAAAAAAAAAAAAAAAA==

> <PUBCHEM_IUPAC_OPENEYE_NAME>
(2R)-4-[(E)-2-[[(1S)-1-carboxy-4-hydroxy-butyl]amino]vinyl]-2,3-dihydropyridine-2,6-dicarboxylic acid

> <PUBCHEM_IUPAC_CAS_NAME>
(2R)-4-[(E)-2-[[(1S)-1-carboxy-4-hydroxybutyl]amino]ethenyl]-2,3-dihydropyridine-2,6-dicarboxylic acid

> <PUBCHEM_IUPAC_NAME>
(2R)-4-[(E)-2-[[(1S)-1-carboxy-4-hydroxybutyl]amino]ethenyl]-2,3-dihydropyridine-2,6-dicarboxylic acid

> <PUBCHEM_IUPAC_SYSTEMATIC_NAME>
(2R)-4-[(E)-2-[[(2S)-1,5-bis(oxidanyl)-1-oxidanylidene-pentan-2-yl]amino]ethenyl]-2,3-dihydropyridine-2,6-dicarboxylic acid

> <PUBCHEM_IUPAC_TRADITIONAL_NAME>
(2R)-4-[(E)-2-[[(1S)-1-carboxy-4-hydroxy-butyl]amino]vinyl]-2,3-dihydropyridine-2,6-dicarboxylic acid

> <PUBCHEM_IUPAC_INCHI>
InChI=1S/C14H18N2O7/c17-5-1-2-9(12(18)19)15-4-3-8-6-10(13(20)21)16-11(7-8)14(22)23/h3-4,6,9,11,15,17H,1-2,5,7H2,(H,18,19)(H,20,21)(H,22,23)/b4-3+/t9-,11+/m0/s1

> <PUBCHEM_IUPAC_INCHIKEY>
QOCJNRPNBHJDDW-NCDNIOQDSA-N

> <PUBCHEM_XLOGP3_AA>
-0.4

> <PUBCHEM_EXACT_MASS>
326.111401

> <PUBCHEM_MOLECULAR_FORMULA>
C14H18N2O7

> <PUBCHEM_MOLECULAR_WEIGHT>
326.30192

> <PUBCHEM_OPENEYE_CAN_SMILES>
C1C(N=C(C=C1C=CNC(CCCO)C(=O)O)C(=O)O)C(=O)O

> <PUBCHEM_OPENEYE_ISO_SMILES>
C1[C@@H](N=C(C=C1/C=C/N[C@@H](CCCO)C(=O)O)C(=O)O)C(=O)O

> <PUBCHEM_CACTVS_TPSA>
157

> <PUBCHEM_MONOISOTOPIC_WEIGHT>
326.111401

> <PUBCHEM_TOTAL_CHARGE>
0

> <PUBCHEM_HEAVY_ATOM_COUNT>
23

> <PUBCHEM_ATOM_DEF_STEREO_COUNT>
2

> <PUBCHEM_ATOM_UDEF_STEREO_COUNT>
0

> <PUBCHEM_BOND_DEF_STEREO_COUNT>
1

> <PUBCHEM_BOND_UDEF_STEREO_COUNT>
0

> <PUBCHEM_ISOTOPIC_ATOM_COUNT>
0

> <PUBCHEM_COMPONENT_COUNT>
1

> <PUBCHEM_CACTVS_TAUTO_COUNT>
3

> <PUBCHEM_COORDINATE_TYPE>
1
5
255

> <PUBCHEM_BONDANNOTATIONS>
14  22  5
10  8  6

$$$$

