5280494
  -OEChem-07051212463D

 19 18  0     0  0  0  0  0  0999 V2000
   -0.6915   -1.8790   -0.9942 O   0  0  0  0  0  0  0  0  0  0  0  0
    1.4741   -0.1520   -1.4535 O   0  0  0  0  0  0  0  0  0  0  0  0
    3.6106    0.8831   -0.6010 O   0  0  0  0  0  0  0  0  0  0  0  0
    3.0160    0.4062    1.5629 O   0  0  0  0  0  0  0  0  0  0  0  0
   -2.8360    2.1204    0.2681 O   0  0  0  0  0  0  0  0  0  0  0  0
   -1.7318    0.7883   -1.2190 O   0  0  0  0  0  0  0  0  0  0  0  0
    0.5429   -0.7225    0.7264 C   0  0  0  0  0  0  0  0  0  0  0  0
   -0.7022   -1.3117    0.0948 C   0  0  0  0  0  0  0  0  0  0  0  0
    1.5671   -0.1742   -0.2355 C   0  0  0  0  0  0  0  0  0  0  0  0
   -1.9513   -1.1932    0.9030 C   0  0  0  0  0  0  0  0  0  0  0  0
   -2.7423   -0.1228    0.7685 C   0  0  0  0  0  0  0  0  0  0  0  0
    2.8085    0.4211    0.3665 C   0  0  0  0  0  0  0  0  0  0  0  0
   -2.3642    0.9364   -0.1870 C   0  0  0  0  0  0  0  0  0  0  0  0
    1.0129   -1.5164    1.3170 H   0  0  0  0  0  0  0  0  0  0  0  0
    0.2525    0.0961    1.3945 H   0  0  0  0  0  0  0  0  0  0  0  0
   -2.1752   -1.9899    1.6016 H   0  0  0  0  0  0  0  0  0  0  0  0
   -3.6306    0.0026    1.3759 H   0  0  0  0  0  0  0  0  0  0  0  0
    4.4443    1.2584   -0.2454 H   0  0  0  0  0  0  0  0  0  0  0  0
   -2.6099    2.8616   -0.3335 H   0  0  0  0  0  0  0  0  0  0  0  0
  1  8  2  0  0  0  0
  2  9  2  0  0  0  0
  3 12  1  0  0  0  0
  3 18  1  0  0  0  0
  4 12  2  0  0  0  0
  5 13  1  0  0  0  0
  5 19  1  0  0  0  0
  6 13  2  0  0  0  0
  7  8  1  0  0  0  0
  7  9  1  0  0  0  0
  7 14  1  0  0  0  0
  7 15  1  0  0  0  0
  8 10  1  0  0  0  0
  9 12  1  0  0  0  0
 10 11  2  0  0  0  0
 10 16  1  0  0  0  0
 11 13  1  0  0  0  0
 11 17  1  0  0  0  0
M  END
> <PUBCHEM_COMPOUND_CID>
5280494

> <PUBCHEM_CONFORMER_RMSD>
0.6

> <PUBCHEM_CONFORMER_DIVERSEORDER>
1
119
134
89
74
57
99
84
21
128
66
114
51
26
14
79
5
43
71
62
24
113
44
139
138
118
81
116
77
96
2
48
140
87
88
3
92
136
45
37
91
9
55
41
18
142
123
13
85
135
64
47
115
106
34
80
129
4
125
32
16
69
105
39
49
67
28
75
73
54
20
29
68
7
94
36
110
15
53
38
72
11
42
27
109
12
19
63
131
124
104
30
33
61
95
141
35
23
60
82
17
70
122
6
133
52
126
97
8
117
120
93
127
83
31
56
101
90
100
108
50
107
78
103
65
112
86
10
58
137
102
46
111
121
25
22
76
130
40
98
132
59

> <PUBCHEM_MMFF94_PARTIAL_CHARGES>
17
1 -0.57
10 -0.14
11 -0.14
12 0.72
13 0.71
16 0.15
17 0.15
18 0.5
19 0.5
2 -0.57
3 -0.65
4 -0.57
5 -0.65
6 -0.57
7 0.12
8 0.49
9 0.51

> <PUBCHEM_EFFECTIVE_ROTOR_COUNT>
5

> <PUBCHEM_PHARMACOPHORE_FEATURES>
9
1 1 acceptor
1 2 acceptor
1 3 acceptor
1 4 acceptor
1 5 acceptor
1 6 acceptor
1 7 anion
3 3 4 12 anion
3 5 6 13 anion

> <PUBCHEM_HEAVY_ATOM_COUNT>
13

> <PUBCHEM_ATOM_DEF_STEREO_COUNT>
0

> <PUBCHEM_ATOM_UDEF_STEREO_COUNT>
0

> <PUBCHEM_BOND_DEF_STEREO_COUNT>
1

> <PUBCHEM_BOND_UDEF_STEREO_COUNT>
0

> <PUBCHEM_ISOTOPIC_ATOM_COUNT>
0

> <PUBCHEM_COMPONENT_COUNT>
1

> <PUBCHEM_CACTVS_TAUTO_COUNT>
3

> <PUBCHEM_CONFORMER_ID>
005092EE00000001

> <PUBCHEM_MMFF94_ENERGY>
28.7861

> <PUBCHEM_FEATURE_SELFOVERLAP>
45.803

> <PUBCHEM_SHAPE_FINGERPRINT>
11127187 94 8286199431618761521
11471102 22 14261354618019937890
12897270 3 14201409273790234419
12932764 1 18187364273276235514
13764800 53 18339631326354221769
13839132 238 18337666515906822565
15775835 57 18131628997602646537
16945 1 18271228440284467523
17846911 113 18413111679980393369
18186145 218 17095239233055224738
19837323 101 18334576867143096227
21028194 46 18337667632862180467
21524375 3 18266751353458267841
23402539 116 18263096435084539743
25 1 17385991927324874114
305870 269 18272091651106354642
81228 2 17609503721947897374

> <PUBCHEM_SHAPE_MULTIPOLES>
232.32
5.32
1.6
1.22
2.76
0.15
-0.07
2.35
1.05
-1.32
-0.09
0.38
-0.09
0.04

> <PUBCHEM_SHAPE_SELFOVERLAP>
466.388

> <PUBCHEM_SHAPE_VOLUME>
133.6

> <PUBCHEM_COORDINATE_TYPE>
2
5
10

$$$$

