237413
  -OEChem-07051213073D

 22 23  0     1  0  0  0  0  0999 V2000
    3.4281    1.1509    0.9809 O   0  0  0  0  0  0  0  0  0  0  0  0
    3.4873   -0.0272   -0.9696 O   0  0  0  0  0  0  0  0  0  0  0  0
    0.5640   -0.4878   -0.5600 C   0  0  1  0  0  0  0  0  0  0  0  0
    1.5945   -0.1934    0.4853 C   0  0  1  0  0  0  0  0  0  0  0  0
    1.2108   -1.6129    0.1865 C   0  0  0  0  0  0  0  0  0  0  0  0
   -0.8639   -0.1600   -0.2868 C   0  0  0  0  0  0  0  0  0  0  0  0
    2.9181    0.2936    0.0630 C   0  0  0  0  0  0  0  0  0  0  0  0
   -1.3192    1.1505   -0.4311 C   0  0  0  0  0  0  0  0  0  0  0  0
   -1.7452   -1.1644    0.1133 C   0  0  0  0  0  0  0  0  0  0  0  0
   -2.6557    1.4567   -0.1752 C   0  0  0  0  0  0  0  0  0  0  0  0
   -3.0818   -0.8583    0.3691 C   0  0  0  0  0  0  0  0  0  0  0  0
   -3.5370    0.4523    0.2248 C   0  0  0  0  0  0  0  0  0  0  0  0
    0.8697   -0.3871   -1.5996 H   0  0  0  0  0  0  0  0  0  0  0  0
    1.2381    0.1984    1.4353 H   0  0  0  0  0  0  0  0  0  0  0  0
    0.6980   -2.1427    0.9802 H   0  0  0  0  0  0  0  0  0  0  0  0
    1.9083   -2.2397   -0.3585 H   0  0  0  0  0  0  0  0  0  0  0  0
   -0.6406    1.9403   -0.7426 H   0  0  0  0  0  0  0  0  0  0  0  0
   -1.4270   -2.1980    0.2129 H   0  0  0  0  0  0  0  0  0  0  0  0
   -3.0103    2.4771   -0.2878 H   0  0  0  0  0  0  0  0  0  0  0  0
   -3.7696   -1.6410    0.6755 H   0  0  0  0  0  0  0  0  0  0  0  0
    4.3115    1.4864    0.7178 H   0  0  0  0  0  0  0  0  0  0  0  0
   -4.5781    0.6904    0.4227 H   0  0  0  0  0  0  0  0  0  0  0  0
  1  7  1  0  0  0  0
  1 21  1  0  0  0  0
  2  7  2  0  0  0  0
  3  4  1  0  0  0  0
  3  5  1  0  0  0  0
  3  6  1  0  0  0  0
  3 13  1  0  0  0  0
  4  5  1  0  0  0  0
  4  7  1  0  0  0  0
  4 14  1  0  0  0  0
  5 15  1  0  0  0  0
  5 16  1  0  0  0  0
  6  8  2  0  0  0  0
  6  9  1  0  0  0  0
  8 10  1  0  0  0  0
  8 17  1  0  0  0  0
  9 11  2  0  0  0  0
  9 18  1  0  0  0  0
 10 12  2  0  0  0  0
 10 19  1  0  0  0  0
 11 12  1  0  0  0  0
 11 20  1  0  0  0  0
 12 22  1  0  0  0  0
M  END
> <PUBCHEM_COMPOUND_CID>
237413

> <PUBCHEM_CONFORMER_RMSD>
0.6

> <PUBCHEM_CONFORMER_DIVERSEORDER>
1
2

> <PUBCHEM_MMFF94_PARTIAL_CHARGES>
22
1 -0.65
10 -0.15
11 -0.15
12 -0.15
13 0.1
14 0.1
15 0.1
16 0.1
17 0.15
18 0.15
19 0.15
2 -0.57
20 0.15
21 0.5
22 0.15
3 -0.07
4 -0.1
5 -0.2
6 -0.03
7 0.72
8 -0.15
9 -0.15

> <PUBCHEM_EFFECTIVE_ROTOR_COUNT>
2.6

> <PUBCHEM_PHARMACOPHORE_FEATURES>
4
1 1 acceptor
1 2 acceptor
3 1 2 7 anion
6 6 8 9 10 11 12 rings

> <PUBCHEM_HEAVY_ATOM_COUNT>
12

> <PUBCHEM_ATOM_DEF_STEREO_COUNT>
2

> <PUBCHEM_ATOM_UDEF_STEREO_COUNT>
0

> <PUBCHEM_BOND_DEF_STEREO_COUNT>
0

> <PUBCHEM_BOND_UDEF_STEREO_COUNT>
0

> <PUBCHEM_ISOTOPIC_ATOM_COUNT>
0

> <PUBCHEM_COMPONENT_COUNT>
1

> <PUBCHEM_CACTVS_TAUTO_COUNT>
1

> <PUBCHEM_CONFORMER_ID>
00039F6500000001

> <PUBCHEM_MMFF94_ENERGY>
28.6161

> <PUBCHEM_FEATURE_SELFOVERLAP>
20.353

> <PUBCHEM_SHAPE_FINGERPRINT>
10219947 1 14764348228064155762
10608611 8 18337394936535060521
10857977 72 18272089379273934897
11031198 65 17167860889258480902
11062470 55 15482672368566381535
11132069 177 18341897363678440293
12346645 44 18413389830420191298
12932764 1 18186807984352834039
13380535 21 18339633555152162623
13764800 53 18410007767028819137
14144814 61 18342460365255696427
14325111 11 18411701014661163846
15219456 202 18261950855241881807
15775835 57 18412260666153503067
16945 1 18342740684939094847
18186145 218 17676762111392189362
20528008 55 18412549829496161325
20645464 45 18261388979378268639
20871998 184 18335414626495501279
21028194 46 18409165519699704002
21501502 16 18340491195802204931
23402539 116 18339370678138263399
2748010 2 18199183086903222959
3248919 1 17489866046502231555
369184 2 18270685376150744475
6333449 129 18410294713930845807
7364860 26 18193277618393172938
74978 22 6050150151665151399
75552 356 18201434753546541459
81228 2 17611485037817133582

> <PUBCHEM_SHAPE_MULTIPOLES>
235.22
6.22
1.45
0.81
1.73
0.06
0
-1.46
-0.59
-0.41
-0.08
0.39
-0.07
0.38

> <PUBCHEM_SHAPE_SELFOVERLAP>
497.492

> <PUBCHEM_SHAPE_VOLUME>
132.5

> <PUBCHEM_COORDINATE_TYPE>
2
5
10

$$$$

