439642
  -OEChem-07051212462D

 60 60  0     1  0  0  0  0  0999 V2000
   13.0499    3.7041    0.0000 O   0  0  0  0  0  0  0  0  0  0  0  0
   11.3179    3.7041    0.0000 O   0  0  0  0  0  0  0  0  0  0  0  0
    8.7768   -2.8837    0.0000 C   0  0  2  0  0  0  0  0  0  0  0  0
    9.5858   -2.2959    0.0000 C   0  0  2  0  0  0  0  0  0  0  0  0
    9.0858   -3.8347    0.0000 C   0  0  0  0  0  0  0  0  0  0  0  0
   10.3948   -2.8837    0.0000 C   0  0  0  0  0  0  0  0  0  0  0  0
   10.0858   -3.8347    0.0000 C   0  0  0  0  0  0  0  0  0  0  0  0
    7.8258   -2.5746    0.0000 C   0  0  0  0  0  0  0  0  0  0  0  0
    9.5858   -1.2959    0.0000 C   0  0  0  0  0  0  0  0  0  0  0  0
    7.0826   -3.2438    0.0000 C   0  0  0  0  0  0  0  0  0  0  0  0
   10.4518   -0.7959    0.0000 C   0  0  0  0  0  0  0  0  0  0  0  0
    6.1316   -2.9348    0.0000 C   0  0  0  0  0  0  0  0  0  0  0  0
   10.4518    0.2041    0.0000 C   0  0  0  0  0  0  0  0  0  0  0  0
    5.3884   -3.6039    0.0000 C   0  0  0  0  0  0  0  0  0  0  0  0
   11.3179    0.7041    0.0000 C   0  0  0  0  0  0  0  0  0  0  0  0
    4.4374   -3.2949    0.0000 C   0  0  0  0  0  0  0  0  0  0  0  0
   11.3179    1.7041    0.0000 C   0  0  0  0  0  0  0  0  0  0  0  0
    3.6942   -3.9640    0.0000 C   0  0  0  0  0  0  0  0  0  0  0  0
   12.1839    2.2041    0.0000 C   0  0  0  0  0  0  0  0  0  0  0  0
    2.7431   -3.6550    0.0000 C   0  0  0  0  0  0  0  0  0  0  0  0
    2.0000   -4.3241    0.0000 C   0  0  0  0  0  0  0  0  0  0  0  0
   12.1839    3.2041    0.0000 C   0  0  0  0  0  0  0  0  0  0  0  0
    8.3384   -3.3221    0.0000 H   0  0  0  0  0  0  0  0  0  0  0  0
   10.1382   -2.0144    0.0000 H   0  0  0  0  0  0  0  0  0  0  0  0
    8.4794   -3.9636    0.0000 H   0  0  0  0  0  0  0  0  0  0  0  0
    9.1506   -4.4513    0.0000 H   0  0  0  0  0  0  0  0  0  0  0  0
   10.9612   -3.1358    0.0000 H   0  0  0  0  0  0  0  0  0  0  0  0
   10.7048   -2.3467    0.0000 H   0  0  0  0  0  0  0  0  0  0  0  0
   10.0210   -4.4513    0.0000 H   0  0  0  0  0  0  0  0  0  0  0  0
   10.6923   -3.9636    0.0000 H   0  0  0  0  0  0  0  0  0  0  0  0
    8.1168   -2.0272    0.0000 H   0  0  0  0  0  0  0  0  0  0  0  0
    7.3372   -2.1929    0.0000 H   0  0  0  0  0  0  0  0  0  0  0  0
    9.3738   -0.7133    0.0000 H   0  0  0  0  0  0  0  0  0  0  0  0
    8.9752   -1.4035    0.0000 H   0  0  0  0  0  0  0  0  0  0  0  0
    6.7915   -3.7912    0.0000 H   0  0  0  0  0  0  0  0  0  0  0  0
    7.5712   -3.6255    0.0000 H   0  0  0  0  0  0  0  0  0  0  0  0
   10.6639   -1.3785    0.0000 H   0  0  0  0  0  0  0  0  0  0  0  0
   11.0624   -0.6882    0.0000 H   0  0  0  0  0  0  0  0  0  0  0  0
    6.4226   -2.3873    0.0000 H   0  0  0  0  0  0  0  0  0  0  0  0
    5.6430   -2.5530    0.0000 H   0  0  0  0  0  0  0  0  0  0  0  0
   10.2398    0.7867    0.0000 H   0  0  0  0  0  0  0  0  0  0  0  0
    9.8413    0.0965    0.0000 H   0  0  0  0  0  0  0  0  0  0  0  0
    5.0973   -4.1513    0.0000 H   0  0  0  0  0  0  0  0  0  0  0  0
    5.8770   -3.9856    0.0000 H   0  0  0  0  0  0  0  0  0  0  0  0
   11.5299    0.1215    0.0000 H   0  0  0  0  0  0  0  0  0  0  0  0
   11.9285    0.8118    0.0000 H   0  0  0  0  0  0  0  0  0  0  0  0
    4.7284   -2.7474    0.0000 H   0  0  0  0  0  0  0  0  0  0  0  0
    3.9488   -2.9132    0.0000 H   0  0  0  0  0  0  0  0  0  0  0  0
   11.1058    2.2867    0.0000 H   0  0  0  0  0  0  0  0  0  0  0  0
   10.7073    1.5965    0.0000 H   0  0  0  0  0  0  0  0  0  0  0  0
    3.4031   -4.5114    0.0000 H   0  0  0  0  0  0  0  0  0  0  0  0
    4.1828   -4.3457    0.0000 H   0  0  0  0  0  0  0  0  0  0  0  0
   12.3960    1.6215    0.0000 H   0  0  0  0  0  0  0  0  0  0  0  0
   12.7945    2.3118    0.0000 H   0  0  0  0  0  0  0  0  0  0  0  0
    3.0342   -3.1076    0.0000 H   0  0  0  0  0  0  0  0  0  0  0  0
    2.2546   -3.2733    0.0000 H   0  0  0  0  0  0  0  0  0  0  0  0
    1.5851   -3.8634    0.0000 H   0  0  0  0  0  0  0  0  0  0  0  0
    1.5392   -4.7390    0.0000 H   0  0  0  0  0  0  0  0  0  0  0  0
    2.4149   -4.7849    0.0000 H   0  0  0  0  0  0  0  0  0  0  0  0
   13.0499    4.3241    0.0000 H   0  0  0  0  0  0  0  0  0  0  0  0
  1 22  1  0  0  0  0
  1 60  1  0  0  0  0
  2 22  2  0  0  0  0
  3  4  1  0  0  0  0
  3  5  1  0  0  0  0
  3  8  1  6  0  0  0
  3 23  1  0  0  0  0
  4  6  1  0  0  0  0
  4  9  1  1  0  0  0
  4 24  1  0  0  0  0
  5  7  1  0  0  0  0
  5 25  1  0  0  0  0
  5 26  1  0  0  0  0
  6  7  1  0  0  0  0
  6 27  1  0  0  0  0
  6 28  1  0  0  0  0
  7 29  1  0  0  0  0
  7 30  1  0  0  0  0
  8 10  1  0  0  0  0
  8 31  1  0  0  0  0
  8 32  1  0  0  0  0
  9 11  1  0  0  0  0
  9 33  1  0  0  0  0
  9 34  1  0  0  0  0
 10 12  1  0  0  0  0
 10 35  1  0  0  0  0
 10 36  1  0  0  0  0
 11 13  1  0  0  0  0
 11 37  1  0  0  0  0
 11 38  1  0  0  0  0
 12 14  1  0  0  0  0
 12 39  1  0  0  0  0
 12 40  1  0  0  0  0
 13 15  1  0  0  0  0
 13 41  1  0  0  0  0
 13 42  1  0  0  0  0
 14 16  1  0  0  0  0
 14 43  1  0  0  0  0
 14 44  1  0  0  0  0
 15 17  1  0  0  0  0
 15 45  1  0  0  0  0
 15 46  1  0  0  0  0
 16 18  1  0  0  0  0
 16 47  1  0  0  0  0
 16 48  1  0  0  0  0
 17 19  1  0  0  0  0
 17 49  1  0  0  0  0
 17 50  1  0  0  0  0
 18 20  1  0  0  0  0
 18 51  1  0  0  0  0
 18 52  1  0  0  0  0
 19 22  1  0  0  0  0
 19 53  1  0  0  0  0
 19 54  1  0  0  0  0
 20 21  1  0  0  0  0
 20 55  1  0  0  0  0
 20 56  1  0  0  0  0
 21 57  1  0  0  0  0
 21 58  1  0  0  0  0
 21 59  1  0  0  0  0
M  END
> <PUBCHEM_COMPOUND_CID>
439642

> <PUBCHEM_COMPOUND_CANONICALIZED>
1

> <PUBCHEM_CACTVS_COMPLEXITY>
275

> <PUBCHEM_CACTVS_HBOND_ACCEPTOR>
2

> <PUBCHEM_CACTVS_HBOND_DONOR>
1

> <PUBCHEM_CACTVS_ROTATABLE_BOND>
14

> <PUBCHEM_CACTVS_SUBSKEYS>
AAADcfB4MAAAAAAAAAAAAAAAAAAAAYAAAAAAAAAAAAAAAAAAAAAAGgAACAAADQCAgAACCAAAAgAIAACQCAAAAAAAAAAAAAEAAAAAABIAAAAAQAAEAAAAAAGIyOCOgAAAAAAAAAAAAAAAAAAAAAAACAAAAA==

> <PUBCHEM_IUPAC_OPENEYE_NAME>
7-[(1S,2S)-2-octylcyclopentyl]heptanoic acid

> <PUBCHEM_IUPAC_CAS_NAME>
7-[(1S,2S)-2-octylcyclopentyl]heptanoic acid

> <PUBCHEM_IUPAC_NAME>
7-[(1S,2S)-2-octylcyclopentyl]heptanoic acid

> <PUBCHEM_IUPAC_SYSTEMATIC_NAME>
7-[(1S,2S)-2-octylcyclopentyl]heptanoic acid

> <PUBCHEM_IUPAC_TRADITIONAL_NAME>
7-[(1S,2S)-2-octylcyclopentyl]enanthic acid

> <PUBCHEM_IUPAC_INCHI>
InChI=1S/C20H38O2/c1-2-3-4-5-6-9-13-18-15-12-16-19(18)14-10-7-8-11-17-20(21)22/h18-19H,2-17H2,1H3,(H,21,22)/t18-,19-/m0/s1

> <PUBCHEM_IUPAC_INCHIKEY>
WGJJROVFWIXTPA-OALUTQOASA-N

> <PUBCHEM_XLOGP3_AA>
8.5

> <PUBCHEM_EXACT_MASS>
310.28718

> <PUBCHEM_MOLECULAR_FORMULA>
C20H38O2

> <PUBCHEM_MOLECULAR_WEIGHT>
310.51452

> <PUBCHEM_OPENEYE_CAN_SMILES>
CCCCCCCCC1CCCC1CCCCCCC(=O)O

> <PUBCHEM_OPENEYE_ISO_SMILES>
CCCCCCCC[C@H]1CCC[C@@H]1CCCCCCC(=O)O

> <PUBCHEM_CACTVS_TPSA>
37.3

> <PUBCHEM_MONOISOTOPIC_WEIGHT>
310.28718

> <PUBCHEM_TOTAL_CHARGE>
0

> <PUBCHEM_HEAVY_ATOM_COUNT>
22

> <PUBCHEM_ATOM_DEF_STEREO_COUNT>
2

> <PUBCHEM_ATOM_UDEF_STEREO_COUNT>
0

> <PUBCHEM_BOND_DEF_STEREO_COUNT>
0

> <PUBCHEM_BOND_UDEF_STEREO_COUNT>
0

> <PUBCHEM_ISOTOPIC_ATOM_COUNT>
0

> <PUBCHEM_COMPONENT_COUNT>
1

> <PUBCHEM_CACTVS_TAUTO_COUNT>
1

> <PUBCHEM_COORDINATE_TYPE>
1
5
255

> <PUBCHEM_BONDANNOTATIONS>
3  8  6
4  9  5

$$$$

