227037
  -OEChem-07051213082D

 75 79  0     1  0  0  0  0  0999 V2000
    5.2020   -3.9249    0.0000 O   0  0  0  0  0  0  0  0  0  0  0  0
    2.5381   -3.4486    0.0000 O   0  0  0  0  0  0  0  0  0  0  0  0
    5.2022   -2.9244    0.0000 C   0  0  2  0  0  0  0  0  0  0  0  0
    5.2022   -1.9244    0.0000 C   0  0  1  0  0  0  0  0  0  0  0  0
    6.0682   -1.4244    0.0000 C   0  0  2  0  0  0  0  0  0  0  0  0
    6.9343   -1.9244    0.0000 C   0  0  2  0  0  0  0  0  0  0  0  0
    6.0682   -3.4244    0.0000 C   0  0  2  0  0  0  0  0  0  0  0  0
    7.8443   -1.4176    0.0000 C   0  0  1  0  0  0  0  0  0  0  0  0
    7.8523   -0.3760    0.0000 C   0  0  2  0  0  0  0  0  0  0  0  0
    6.9343   -2.9244    0.0000 C   0  0  0  0  0  0  0  0  0  0  0  0
    6.0522   -0.3829    0.0000 C   0  0  0  0  0  0  0  0  0  0  0  0
    4.3083   -3.4591    0.0000 C   0  0  0  0  0  0  0  0  0  0  0  0
    6.9502    0.1448    0.0000 C   0  0  0  0  0  0  0  0  0  0  0  0
    4.3083   -1.3898    0.0000 C   0  0  0  0  0  0  0  0  0  0  0  0
    8.8403   -0.0662    0.0000 C   0  0  2  0  0  0  0  0  0  0  0  0
    8.8274   -1.7426    0.0000 C   0  0  0  0  0  0  0  0  0  0  0  0
    5.2022   -0.9244    0.0000 C   0  0  0  0  0  0  0  0  0  0  0  0
    9.4418   -0.9091    0.0000 C   0  0  0  0  0  0  0  0  0  0  0  0
    3.4022   -2.9452    0.0000 C   0  0  2  0  0  0  0  0  0  0  0  0
    3.4022   -1.9036    0.0000 C   0  0  0  0  0  0  0  0  0  0  0  0
    7.8600    0.6240    0.0000 C   0  0  0  0  0  0  0  0  0  0  0  0
    9.1583    0.8819    0.0000 C   0  0  1  0  0  0  0  0  0  0  0  0
   10.1384    1.0806    0.0000 C   0  0  0  0  0  0  0  0  0  0  0  0
    8.4962    1.6314    0.0000 C   0  0  0  0  0  0  0  0  0  0  0  0
   10.4564    2.0287    0.0000 C   0  0  0  0  0  0  0  0  0  0  0  0
   11.4364    2.2274    0.0000 C   0  0  0  0  0  0  0  0  0  0  0  0
   11.7544    3.1754    0.0000 C   0  0  0  0  0  0  0  0  0  0  0  0
   12.7345    3.3741    0.0000 C   0  0  0  0  0  0  0  0  0  0  0  0
   11.0923    3.9249    0.0000 C   0  0  0  0  0  0  0  0  0  0  0  0
    6.8011   -0.9938    0.0000 H   0  0  0  0  0  0  0  0  0  0  0  0
    7.6671   -2.3551    0.0000 H   0  0  0  0  0  0  0  0  0  0  0  0
    6.4934   -4.1605    0.0000 H   0  0  0  0  0  0  0  0  0  0  0  0
    7.9244   -2.2638    0.0000 H   0  0  0  0  0  0  0  0  0  0  0  0
    7.1463   -3.5070    0.0000 H   0  0  0  0  0  0  0  0  0  0  0  0
    7.5449   -2.8168    0.0000 H   0  0  0  0  0  0  0  0  0  0  0  0
    5.8342    0.1975    0.0000 H   0  0  0  0  0  0  0  0  0  0  0  0
    5.4431   -0.4984    0.0000 H   0  0  0  0  0  0  0  0  0  0  0  0
    3.9147   -3.9381    0.0000 H   0  0  0  0  0  0  0  0  0  0  0  0
    4.7129   -3.9289    0.0000 H   0  0  0  0  0  0  0  0  0  0  0  0
    7.3475    0.6208    0.0000 H   0  0  0  0  0  0  0  0  0  0  0  0
    6.5493    0.6177    0.0000 H   0  0  0  0  0  0  0  0  0  0  0  0
    4.7129   -0.9200    0.0000 H   0  0  0  0  0  0  0  0  0  0  0  0
    3.9147   -0.9108    0.0000 H   0  0  0  0  0  0  0  0  0  0  0  0
    9.6810    0.0592    0.0000 H   0  0  0  0  0  0  0  0  0  0  0  0
    8.5720   -2.3076    0.0000 H   0  0  0  0  0  0  0  0  0  0  0  0
    9.3624   -2.0560    0.0000 H   0  0  0  0  0  0  0  0  0  0  0  0
    5.8222   -0.9244    0.0000 H   0  0  0  0  0  0  0  0  0  0  0  0
    5.2022   -0.3044    0.0000 H   0  0  0  0  0  0  0  0  0  0  0  0
    4.5822   -0.9244    0.0000 H   0  0  0  0  0  0  0  0  0  0  0  0
    9.8994   -1.3273    0.0000 H   0  0  0  0  0  0  0  0  0  0  0  0
    9.9058   -0.4979    0.0000 H   0  0  0  0  0  0  0  0  0  0  0  0
    2.8647   -2.6363    0.0000 H   0  0  0  0  0  0  0  0  0  0  0  0
    3.1932   -1.3199    0.0000 H   0  0  0  0  0  0  0  0  0  0  0  0
    2.7914   -2.0097    0.0000 H   0  0  0  0  0  0  0  0  0  0  0  0
    8.4800    0.6192    0.0000 H   0  0  0  0  0  0  0  0  0  0  0  0
    7.8648    1.2440    0.0000 H   0  0  0  0  0  0  0  0  0  0  0  0
    7.2400    0.6288    0.0000 H   0  0  0  0  0  0  0  0  0  0  0  0
    9.3555    1.4697    0.0000 H   0  0  0  0  0  0  0  0  0  0  0  0
   10.1542    0.4608    0.0000 H   0  0  0  0  0  0  0  0  0  0  0  0
   10.7515    0.9885    0.0000 H   0  0  0  0  0  0  0  0  0  0  0  0
    8.9609    2.0418    0.0000 H   0  0  0  0  0  0  0  0  0  0  0  0
    8.0857    2.0960    0.0000 H   0  0  0  0  0  0  0  0  0  0  0  0
    8.0316    1.2208    0.0000 H   0  0  0  0  0  0  0  0  0  0  0  0
    2.0000   -3.1407    0.0000 H   0  0  0  0  0  0  0  0  0  0  0  0
   10.4406    2.6485    0.0000 H   0  0  0  0  0  0  0  0  0  0  0  0
    9.8432    2.1208    0.0000 H   0  0  0  0  0  0  0  0  0  0  0  0
   11.4522    1.6076    0.0000 H   0  0  0  0  0  0  0  0  0  0  0  0
   12.0496    2.1353    0.0000 H   0  0  0  0  0  0  0  0  0  0  0  0
   11.9516    3.7633    0.0000 H   0  0  0  0  0  0  0  0  0  0  0  0
   12.8577    2.7665    0.0000 H   0  0  0  0  0  0  0  0  0  0  0  0
   11.5570    4.3354    0.0000 H   0  0  0  0  0  0  0  0  0  0  0  0
   10.6818    4.3895    0.0000 H   0  0  0  0  0  0  0  0  0  0  0  0
   10.6277    3.5144    0.0000 H   0  0  0  0  0  0  0  0  0  0  0  0
   13.3421    3.4973    0.0000 H   0  0  0  0  0  0  0  0  0  0  0  0
   12.6113    3.9818    0.0000 H   0  0  0  0  0  0  0  0  0  0  0  0
  3  1  1  6  0  0  0
  1  7  1  0  0  0  0
 19  2  1  1  0  0  0
  2 64  1  0  0  0  0
  3  4  1  0  0  0  0
  3  7  1  0  0  0  0
  3 12  1  0  0  0  0
  4  5  1  0  0  0  0
  4 14  1  0  0  0  0
  4 17  1  1  0  0  0
  5  6  1  0  0  0  0
  5 11  1  0  0  0  0
  5 30  1  6  0  0  0
  6  8  1  0  0  0  0
  6 10  1  0  0  0  0
  6 31  1  1  0  0  0
  7 10  1  0  0  0  0
  7 32  1  1  0  0  0
  8  9  1  0  0  0  0
  8 16  1  0  0  0  0
  8 33  1  6  0  0  0
  9 13  1  0  0  0  0
  9 15  1  0  0  0  0
  9 21  1  1  0  0  0
 10 34  1  0  0  0  0
 10 35  1  0  0  0  0
 11 13  1  0  0  0  0
 11 36  1  0  0  0  0
 11 37  1  0  0  0  0
 12 19  1  0  0  0  0
 12 38  1  0  0  0  0
 12 39  1  0  0  0  0
 13 40  1  0  0  0  0
 13 41  1  0  0  0  0
 14 20  1  0  0  0  0
 14 42  1  0  0  0  0
 14 43  1  0  0  0  0
 15 18  1  0  0  0  0
 15 22  1  0  0  0  0
 15 44  1  6  0  0  0
 16 18  1  0  0  0  0
 16 45  1  0  0  0  0
 16 46  1  0  0  0  0
 17 47  1  0  0  0  0
 17 48  1  0  0  0  0
 17 49  1  0  0  0  0
 18 50  1  0  0  0  0
 18 51  1  0  0  0  0
 19 20  1  0  0  0  0
 19 52  1  0  0  0  0
 20 53  1  0  0  0  0
 20 54  1  0  0  0  0
 21 55  1  0  0  0  0
 21 56  1  0  0  0  0
 21 57  1  0  0  0  0
 22 23  1  0  0  0  0
 22 24  1  6  0  0  0
 22 58  1  0  0  0  0
 23 25  1  0  0  0  0
 23 59  1  0  0  0  0
 23 60  1  0  0  0  0
 24 61  1  0  0  0  0
 24 62  1  0  0  0  0
 24 63  1  0  0  0  0
 25 26  1  0  0  0  0
 25 65  1  0  0  0  0
 25 66  1  0  0  0  0
 26 27  1  0  0  0  0
 26 67  1  0  0  0  0
 26 68  1  0  0  0  0
 27 28  1  0  0  0  0
 27 29  1  0  0  0  0
 27 69  1  0  0  0  0
 28 70  1  0  0  0  0
 28 74  1  0  0  0  0
 28 75  1  0  0  0  0
 29 71  1  0  0  0  0
 29 72  1  0  0  0  0
 29 73  1  0  0  0  0
M  END
> <PUBCHEM_COMPOUND_CID>
227037

> <PUBCHEM_COMPOUND_CANONICALIZED>
1

> <PUBCHEM_CACTVS_COMPLEXITY>
630

> <PUBCHEM_CACTVS_HBOND_ACCEPTOR>
2

> <PUBCHEM_CACTVS_HBOND_DONOR>
1

> <PUBCHEM_CACTVS_ROTATABLE_BOND>
5

> <PUBCHEM_CACTVS_SUBSKEYS>
AAADcfB4MAAAAAAAAAAAAAAAEgAAAYAAAAAwYMAABIAAAGDAAAAAGgAACAAAD1SggAICAAAABgAAAAAAAAAAAAAAAAAAAAAAAAAAEAIAAAACQAAFAAAAAAHA4PwPgAAAAAAAAADAAAYQADAAAQAACAAAAA==

> <PUBCHEM_IUPAC_INCHI>
InChI=1S/C27H46O2/c1-17(2)7-6-8-18(3)21-9-10-22-20-15-24-27(29-24)16-19(28)11-14-26(27,5)23(20)12-13-25(21,22)4/h17-24,28H,6-16H2,1-5H3/t18-,19+,20+,21-,22+,23+,24+,25-,26-,27+/m1/s1

> <PUBCHEM_IUPAC_INCHIKEY>
PRYIJAGAEJZDBO-ZEQHCUNVSA-N

> <PUBCHEM_XLOGP3_AA>
8

> <PUBCHEM_EXACT_MASS>
402.349781

> <PUBCHEM_MOLECULAR_FORMULA>
C27H46O2

> <PUBCHEM_MOLECULAR_WEIGHT>
402.65294

> <PUBCHEM_OPENEYE_CAN_SMILES>
CC(C)CCCC(C)C1CCC2C1(CCC3C2CC4C5(C3(CCC(C5)O)C)O4)C

> <PUBCHEM_OPENEYE_ISO_SMILES>
C[C@H](CCCC(C)C)[C@H]1CC[C@@H]2[C@@]1(CC[C@H]3[C@H]2C[C@H]4[C@@]5([C@@]3(CC[C@@H](C5)O)C)O4)C

> <PUBCHEM_CACTVS_TPSA>
32.8

> <PUBCHEM_MONOISOTOPIC_WEIGHT>
402.349781

> <PUBCHEM_TOTAL_CHARGE>
0

> <PUBCHEM_HEAVY_ATOM_COUNT>
29

> <PUBCHEM_ATOM_DEF_STEREO_COUNT>
10

> <PUBCHEM_ATOM_UDEF_STEREO_COUNT>
0

> <PUBCHEM_BOND_DEF_STEREO_COUNT>
0

> <PUBCHEM_BOND_UDEF_STEREO_COUNT>
0

> <PUBCHEM_ISOTOPIC_ATOM_COUNT>
0

> <PUBCHEM_COMPONENT_COUNT>
1

> <PUBCHEM_CACTVS_TAUTO_COUNT>
1

> <PUBCHEM_COORDINATE_TYPE>
1
5
255

> <PUBCHEM_BONDANNOTATIONS>
3  1  6
15  44  6
19  2  5
22  24  6
4  17  5
5  30  6
6  31  5
7  32  5
8  33  6
9  21  5

$$$$

