10533
  -OEChem-06261204392D

 68 72  0     1  0  0  0  0  0999 V2000
    5.1350   -1.4038    0.0000 O   0  0  0  0  0  0  0  0  0  0  0  0
    6.0010   -2.9038    0.0000 O   0  0  0  0  0  0  0  0  0  0  0  0
    2.5369   -2.9038    0.0000 O   0  0  0  0  0  0  0  0  0  0  0  0
    7.9719    1.8811    0.0000 N   0  3  0  0  0  0  0  0  0  0  0  0
    8.7086    0.8985    0.0000 C   0  0  3  0  0  0  0  0  0  0  0  0
    8.4497   -0.0674    0.0000 C   0  0  3  0  0  0  0  0  0  0  0  0
   10.5405    0.1397    0.0000 C   0  0  0  0  0  0  0  0  0  0  0  0
   10.2817   -0.8262    0.0000 C   0  0  0  0  0  0  0  0  0  0  0  0
    6.1056    0.0907    0.0000 C   0  0  0  0  0  0  0  0  0  0  0  0
    6.9146   -1.3106    0.0000 C   0  0  0  0  0  0  0  0  0  0  0  0
    6.0010   -0.9038    0.0000 C   0  0  0  0  0  0  0  0  0  0  0  0
    8.0765    2.8756    0.0000 C   0  0  0  0  0  0  0  0  0  0  0  0
    7.0584    2.2878    0.0000 C   0  0  0  0  0  0  0  0  0  0  0  0
    8.9900    3.2824    0.0000 C   0  0  0  0  0  0  0  0  0  0  0  0
    9.7990    2.6946    0.0000 C   0  0  0  0  0  0  0  0  0  0  0  0
    9.0946    4.2769    0.0000 C   0  0  0  0  0  0  0  0  0  0  0  0
    5.1350   -2.4038    0.0000 C   0  0  0  0  0  0  0  0  0  0  0  0
    4.2690   -2.9038    0.0000 C   0  0  3  0  0  0  0  0  0  0  0  0
   10.7126    3.1013    0.0000 C   0  0  0  0  0  0  0  0  0  0  0  0
   10.0081    4.6836    0.0000 C   0  0  0  0  0  0  0  0  0  0  0  0
   10.8171    4.0958    0.0000 C   0  0  0  0  0  0  0  0  0  0  0  0
    3.4030   -2.4038    0.0000 C   0  0  0  0  0  0  0  0  0  0  0  0
    4.2690   -3.9038    0.0000 C   0  0  0  0  0  0  0  0  0  0  0  0
   11.7307    4.5026    0.0000 C   0  0  0  0  0  0  0  0  0  0  0  0
    3.4030   -4.4038    0.0000 C   0  0  0  0  0  0  0  0  0  0  0  0
    5.1350   -4.4038    0.0000 C   0  0  0  0  0  0  0  0  0  0  0  0
   12.5397    3.9148    0.0000 C   0  0  0  0  0  0  0  0  0  0  0  0
   11.8352    5.4971    0.0000 C   0  0  0  0  0  0  0  0  0  0  0  0
    3.4030   -5.4038    0.0000 C   0  0  0  0  0  0  0  0  0  0  0  0
    5.1350   -5.4038    0.0000 C   0  0  0  0  0  0  0  0  0  0  0  0
    4.2690   -5.9038    0.0000 C   0  0  0  0  0  0  0  0  0  0  0  0
   13.4532    4.3215    0.0000 C   0  0  0  0  0  0  0  0  0  0  0  0
   12.7487    5.9038    0.0000 C   0  0  0  0  0  0  0  0  0  0  0  0
   13.5577    5.3160    0.0000 C   0  0  0  0  0  0  0  0  0  0  0  0
    8.6696    0.0494    0.0000 H   0  0  0  0  0  0  0  0  0  0  0  0
    8.5717   -0.9086    0.0000 H   0  0  0  0  0  0  0  0  0  0  0  0
   10.0696   -1.4089    0.0000 H   0  0  0  0  0  0  0  0  0  0  0  0
   10.8730   -1.0127    0.0000 H   0  0  0  0  0  0  0  0  0  0  0  0
   11.1318   -0.0468    0.0000 H   0  0  0  0  0  0  0  0  0  0  0  0
   10.7526    0.7223    0.0000 H   0  0  0  0  0  0  0  0  0  0  0  0
    6.0033    0.7022    0.0000 H   0  0  0  0  0  0  0  0  0  0  0  0
    5.4858    0.0718    0.0000 H   0  0  0  0  0  0  0  0  0  0  0  0
    6.5769   -1.8306    0.0000 H   0  0  0  0  0  0  0  0  0  0  0  0
    7.3753   -1.7254    0.0000 H   0  0  0  0  0  0  0  0  0  0  0  0
    6.0335   -1.5230    0.0000 H   0  0  0  0  0  0  0  0  0  0  0  0
    7.9265    3.4772    0.0000 H   0  0  0  0  0  0  0  0  0  0  0  0
    7.4580    2.8324    0.0000 H   0  0  0  0  0  0  0  0  0  0  0  0
    7.3106    2.8542    0.0000 H   0  0  0  0  0  0  0  0  0  0  0  0
    6.4920    2.5400    0.0000 H   0  0  0  0  0  0  0  0  0  0  0  0
    6.8062    1.7214    0.0000 H   0  0  0  0  0  0  0  0  0  0  0  0
    9.7342    2.0780    0.0000 H   0  0  0  0  0  0  0  0  0  0  0  0
    8.5930    4.6413    0.0000 H   0  0  0  0  0  0  0  0  0  0  0  0
    4.2690   -2.0538    0.0000 H   0  0  0  0  0  0  0  0  0  0  0  0
   11.2142    2.7369    0.0000 H   0  0  0  0  0  0  0  0  0  0  0  0
   10.0729    5.3002    0.0000 H   0  0  0  0  0  0  0  0  0  0  0  0
    3.8015   -1.9289    0.0000 H   0  0  0  0  0  0  0  0  0  0  0  0
    3.0044   -1.9289    0.0000 H   0  0  0  0  0  0  0  0  0  0  0  0
    2.8660   -4.0938    0.0000 H   0  0  0  0  0  0  0  0  0  0  0  0
    5.6720   -4.0938    0.0000 H   0  0  0  0  0  0  0  0  0  0  0  0
    2.0000   -2.5938    0.0000 H   0  0  0  0  0  0  0  0  0  0  0  0
   12.4749    3.2982    0.0000 H   0  0  0  0  0  0  0  0  0  0  0  0
   11.3336    5.8615    0.0000 H   0  0  0  0  0  0  0  0  0  0  0  0
    2.8660   -5.7138    0.0000 H   0  0  0  0  0  0  0  0  0  0  0  0
    5.6720   -5.7138    0.0000 H   0  0  0  0  0  0  0  0  0  0  0  0
    4.2690   -6.5238    0.0000 H   0  0  0  0  0  0  0  0  0  0  0  0
   13.9548    3.9571    0.0000 H   0  0  0  0  0  0  0  0  0  0  0  0
   12.8135    6.5204    0.0000 H   0  0  0  0  0  0  0  0  0  0  0  0
   14.1241    5.5682    0.0000 H   0  0  0  0  0  0  0  0  0  0  0  0
  1 11  1  0  0  0  0
  1 17  1  0  0  0  0
  2 17  2  0  0  0  0
  3 22  1  0  0  0  0
  3 60  1  0  0  0  0
  4  5  1  0  0  0  0
  4  6  1  0  0  0  0
  4 12  1  0  0  0  0
  4 13  1  0  0  0  0
  5  7  1  0  0  0  0
  5  9  1  0  0  0  0
  5 35  1  0  0  0  0
  6  8  1  0  0  0  0
  6 10  1  0  0  0  0
  6 36  1  0  0  0  0
  7  8  1  0  0  0  0
  7 39  1  0  0  0  0
  7 40  1  0  0  0  0
  8 37  1  0  0  0  0
  8 38  1  0  0  0  0
  9 11  1  0  0  0  0
  9 41  1  0  0  0  0
  9 42  1  0  0  0  0
 10 11  1  0  0  0  0
 10 43  1  0  0  0  0
 10 44  1  0  0  0  0
 11 45  1  0  0  0  0
 12 14  1  0  0  0  0
 12 46  1  0  0  0  0
 12 47  1  0  0  0  0
 13 48  1  0  0  0  0
 13 49  1  0  0  0  0
 13 50  1  0  0  0  0
 14 15  2  0  0  0  0
 14 16  1  0  0  0  0
 15 19  1  0  0  0  0
 15 51  1  0  0  0  0
 16 20  2  0  0  0  0
 16 52  1  0  0  0  0
 17 18  1  0  0  0  0
 18 22  1  0  0  0  0
 18 23  1  0  0  0  0
 18 53  1  0  0  0  0
 19 21  2  0  0  0  0
 19 54  1  0  0  0  0
 20 21  1  0  0  0  0
 20 55  1  0  0  0  0
 21 24  1  0  0  0  0
 22 56  1  0  0  0  0
 22 57  1  0  0  0  0
 23 25  2  0  0  0  0
 23 26  1  0  0  0  0
 24 27  2  0  0  0  0
 24 28  1  0  0  0  0
 25 29  1  0  0  0  0
 25 58  1  0  0  0  0
 26 30  2  0  0  0  0
 26 59  1  0  0  0  0
 27 32  1  0  0  0  0
 27 61  1  0  0  0  0
 28 33  2  0  0  0  0
 28 62  1  0  0  0  0
 29 31  2  0  0  0  0
 29 63  1  0  0  0  0
 30 31  1  0  0  0  0
 30 64  1  0  0  0  0
 31 65  1  0  0  0  0
 32 34  2  0  0  0  0
 32 66  1  0  0  0  0
 33 34  1  0  0  0  0
 33 67  1  0  0  0  0
 34 68  1  0  0  0  0
M  CHG  1   4   1
M  END
> <PUBCHEM_COMPOUND_CID>
10533

> <PUBCHEM_COMPOUND_CANONICALIZED>
1

> <PUBCHEM_CACTVS_COMPLEXITY>
646

> <PUBCHEM_CACTVS_HBOND_ACCEPTOR>
3

> <PUBCHEM_CACTVS_HBOND_DONOR>
1

> <PUBCHEM_CACTVS_ROTATABLE_BOND>
8

> <PUBCHEM_CACTVS_SUBSKEYS>
AAADcfB6MAAAAAAAAAAAAAAAAAAAAWAAAAA8YMEABgAAAAABUAAAHgAACAAADTzhmAYyCIMABgCIAiDSCACCAAAgAAAIiAEIBIgIMDaAlRGGYAhn4AGIiAeYyOCOwAAAAAAAAACAAAAAAAAAAAAAAAAAAA==

> <PUBCHEM_IUPAC_OPENEYE_NAME>
[8-methyl-8-[(4-phenylphenyl)methyl]-8-azoniabicyclo[3.2.1]octan-3-yl] 3-hydroxy-2-phenyl-propanoate

> <PUBCHEM_IUPAC_CAS_NAME>
3-hydroxy-2-phenylpropanoic acid [8-methyl-8-[(4-phenylphenyl)methyl]-8-azoniabicyclo[3.2.1]octan-3-yl] ester

> <PUBCHEM_IUPAC_NAME>
[8-methyl-8-[(4-phenylphenyl)methyl]-8-azoniabicyclo[3.2.1]octan-3-yl] 3-hydroxy-2-phenylpropanoate

> <PUBCHEM_IUPAC_SYSTEMATIC_NAME>
[8-methyl-8-[(4-phenylphenyl)methyl]-8-azoniabicyclo[3.2.1]octan-3-yl] 3-oxidanyl-2-phenyl-propanoate

> <PUBCHEM_IUPAC_TRADITIONAL_NAME>
3-hydroxy-2-phenyl-propionic acid [8-methyl-8-(4-phenylbenzyl)-8-azoniabicyclo[3.2.1]octan-3-yl] ester

> <PUBCHEM_IUPAC_INCHI>
InChI=1S/C30H34NO3/c1-31(20-22-12-14-24(15-13-22)23-8-4-2-5-9-23)26-16-17-27(31)19-28(18-26)34-30(33)29(21-32)25-10-6-3-7-11-25/h2-15,26-29,32H,16-21H2,1H3/q+1

> <PUBCHEM_IUPAC_INCHIKEY>
QDCILXFPWMMNQY-UHFFFAOYSA-N

> <PUBCHEM_XLOGP3>
5

> <PUBCHEM_EXACT_MASS>
456.253869

> <PUBCHEM_MOLECULAR_FORMULA>
C30H34NO3+

> <PUBCHEM_MOLECULAR_WEIGHT>
456.59586

> <PUBCHEM_OPENEYE_CAN_SMILES>
C[N+]1(C2CCC1CC(C2)OC(=O)C(CO)C3=CC=CC=C3)CC4=CC=C(C=C4)C5=CC=CC=C5

> <PUBCHEM_OPENEYE_ISO_SMILES>
C[N+]1(C2CCC1CC(C2)OC(=O)C(CO)C3=CC=CC=C3)CC4=CC=C(C=C4)C5=CC=CC=C5

> <PUBCHEM_CACTVS_TPSA>
46.5

> <PUBCHEM_MONOISOTOPIC_WEIGHT>
456.253869

> <PUBCHEM_TOTAL_CHARGE>
1

> <PUBCHEM_HEAVY_ATOM_COUNT>
34

> <PUBCHEM_ATOM_DEF_STEREO_COUNT>
0

> <PUBCHEM_ATOM_UDEF_STEREO_COUNT>
3

> <PUBCHEM_BOND_DEF_STEREO_COUNT>
0

> <PUBCHEM_BOND_UDEF_STEREO_COUNT>
0

> <PUBCHEM_ISOTOPIC_ATOM_COUNT>
0

> <PUBCHEM_COMPONENT_COUNT>
1

> <PUBCHEM_CACTVS_TAUTO_COUNT>
1

> <PUBCHEM_COORDINATE_TYPE>
1
5
255

> <PUBCHEM_BONDANNOTATIONS>
14  15  8
14  16  8
15  19  8
16  20  8
18  53  3
19  21  8
20  21  8
23  25  8
23  26  8
24  27  8
24  28  8
25  29  8
26  30  8
27  32  8
28  33  8
29  31  8
30  31  8
32  34  8
33  34  8
5  35  3
6  36  3

$$$$

