3050412
  -OEChem-07051213053D

 23 24  0     0  0  0  0  0  0999 V2000
    0.4609   -2.6112    0.0319 Cl  0  0  0  0  0  0  0  0  0  0  0  0
   -0.6871    0.0795   -2.8124 Cl  0  0  0  0  0  0  0  0  0  0  0  0
    3.6330   -2.4747    0.2430 Cl  0  0  0  0  0  0  0  0  0  0  0  0
    3.3641    2.9281    0.1774 Cl  0  0  0  0  0  0  0  0  0  0  0  0
   -3.8966    0.1325    2.5475 Cl  0  0  0  0  0  0  0  0  0  0  0  0
   -5.4134    0.1144   -0.3101 Cl  0  0  0  0  0  0  0  0  0  0  0  0
    4.6896    0.2642    0.2896 O   0  0  0  0  0  0  0  0  0  0  0  0
    0.5461    0.1020    0.0132 C   0  0  0  0  0  0  0  0  0  0  0  0
   -0.9023    0.1045   -0.0839 C   0  0  0  0  0  0  0  0  0  0  0  0
    1.2856   -1.0792    0.0733 C   0  0  0  0  0  0  0  0  0  0  0  0
    1.1976    1.3349    0.0458 C   0  0  0  0  0  0  0  0  0  0  0  0
   -1.5553    0.0954   -1.3160 C   0  0  0  0  0  0  0  0  0  0  0  0
   -1.6413    0.1167    1.0984 C   0  0  0  0  0  0  0  0  0  0  0  0
    2.6765   -1.0276    0.1660 C   0  0  0  0  0  0  0  0  0  0  0  0
    2.5884    1.3867    0.1386 C   0  0  0  0  0  0  0  0  0  0  0  0
    3.3280    0.2055    0.1987 C   0  0  0  0  0  0  0  0  0  0  0  0
   -3.0352    0.1195    1.0486 C   0  0  0  0  0  0  0  0  0  0  0  0
   -2.9493    0.0984   -1.3659 C   0  0  0  0  0  0  0  0  0  0  0  0
   -3.6893    0.1104   -0.1835 C   0  0  0  0  0  0  0  0  0  0  0  0
    0.6242    2.2592   -0.0010 H   0  0  0  0  0  0  0  0  0  0  0  0
   -1.1325    0.1233    2.0609 H   0  0  0  0  0  0  0  0  0  0  0  0
   -3.4589    0.0912   -2.3274 H   0  0  0  0  0  0  0  0  0  0  0  0
    5.0355   -0.6445    0.3208 H   0  0  0  0  0  0  0  0  0  0  0  0
  1 10  1  0  0  0  0
  2 12  1  0  0  0  0
  3 14  1  0  0  0  0
  4 15  1  0  0  0  0
  5 17  1  0  0  0  0
  6 19  1  0  0  0  0
  7 16  1  0  0  0  0
  7 23  1  0  0  0  0
  8  9  1  0  0  0  0
  8 10  1  0  0  0  0
  8 11  2  0  0  0  0
  9 12  1  0  0  0  0
  9 13  2  0  0  0  0
 10 14  2  0  0  0  0
 11 15  1  0  0  0  0
 11 20  1  0  0  0  0
 12 18  2  0  0  0  0
 13 17  1  0  0  0  0
 13 21  1  0  0  0  0
 14 16  1  0  0  0  0
 15 16  2  0  0  0  0
 17 19  2  0  0  0  0
 18 19  1  0  0  0  0
 18 22  1  0  0  0  0
M  END
> <PUBCHEM_COMPOUND_CID>
3050412

> <PUBCHEM_CONFORMER_RMSD>
0.6

> <PUBCHEM_CONFORMER_DIVERSEORDER>
1
2

> <PUBCHEM_MMFF94_PARTIAL_CHARGES>
21
1 -0.18
10 0.18
11 -0.15
12 0.18
13 -0.15
14 0.18
15 0.18
16 0.08
17 0.18
18 -0.15
19 0.18
2 -0.18
20 0.15
21 0.15
22 0.15
23 0.45
3 -0.18
4 -0.18
5 -0.18
6 -0.18
7 -0.53

> <PUBCHEM_EFFECTIVE_ROTOR_COUNT>
1

> <PUBCHEM_PHARMACOPHORE_FEATURES>
3
1 7 donor
6 8 10 11 14 15 16 rings
6 9 12 13 17 18 19 rings

> <PUBCHEM_HEAVY_ATOM_COUNT>
19

> <PUBCHEM_ATOM_DEF_STEREO_COUNT>
0

> <PUBCHEM_ATOM_UDEF_STEREO_COUNT>
0

> <PUBCHEM_BOND_DEF_STEREO_COUNT>
0

> <PUBCHEM_BOND_UDEF_STEREO_COUNT>
0

> <PUBCHEM_ISOTOPIC_ATOM_COUNT>
0

> <PUBCHEM_COMPONENT_COUNT>
1

> <PUBCHEM_CACTVS_TAUTO_COUNT>
3

> <PUBCHEM_CONFORMER_ID>
002E8BAC00000001

> <PUBCHEM_MMFF94_ENERGY>
52.6053

> <PUBCHEM_FEATURE_SELFOVERLAP>
15.223

> <PUBCHEM_SHAPE_FINGERPRINT>
10366900 7 17775003552337717043
11471102 20 18411703205416231698
11582403 64 16047383688039061964
12236239 1 17676490548851851193
12390115 104 17761762976209338024
12916748 109 15936405615924159713
13140716 1 18195255421384843160
13538477 17 17313399889379589311
13544592 145 17703226325406961699
13583140 156 18262235500447639497
14289901 80 18411421696137889553
14386348 63 17489586779249318587
14739800 52 16154578401510579690
15219456 202 17988927794385819063
15309172 13 18413107238530457090
15342168 16 18198062469516543348
15375358 24 17561084722301303003
16752209 62 16008751303625852381
16945 1 18410863148863433152
1813 80 17970056962919590814
18175812 5 17703790297351349391
18186145 218 18334293154430369644
19049666 15 17559409151867969164
19422 9 17821731636855817815
200 152 18334020510191178179
20279233 1 17703788132851447115
204376 136 18339641114315468832
20600515 1 16200155361594447333
20645477 70 18341619260177470314
21041028 32 18191584370812958560
21065201 7 16343706555638635641
21486144 27 18271249313746274812
21756936 100 17752187406477888584
22112679 90 17385735711119370496
2255824 54 18334858329398604230
22854114 59 18342176661359770609
23402539 116 15213310724618467005
23557571 272 16916794010541995357
23559900 14 16487261014512584074
23598291 2 17822566213346682224
298252 57 16733259071378470111
31174 14 18343868839919948246
3286 77 18272090555820862438
4340502 62 18409730621727399643
4409770 3 15664181186809506839
458136 41 18270387292609437740
474 4 18189059690094282312
602551 16 16200425836748300416
6049 1 17775001327491767412
621550 5 17701802496540490926
633830 44 18041260106903655005
77492 1 17749112183706877869
81228 2 16467304045271311010
8272917 22 18335136544347268903
9981440 41 16378639990274603216

> <PUBCHEM_SHAPE_MULTIPOLES>
396.36
8.8
2.16
1.77
3.62
0.22
-0.47
-1
2.15
-3.77
0.24
2.34
-0.12
-0.02

> <PUBCHEM_SHAPE_SELFOVERLAP>
808.264

> <PUBCHEM_SHAPE_VOLUME>
236.3

> <PUBCHEM_COORDINATE_TYPE>
2
5
10

$$$$

