91777
  -OEChem-07051213002D

 38 38  0     1  0  0  0  0  0999 V2000
    2.8660   -0.9400    0.0000 S   0  0  0  0  0  0  0  0  0  0  0  0
    4.5981   -0.9400    0.0000 S   0  0  0  0  0  0  0  0  0  0  0  0
    2.3660   -0.0740    0.0000 O   0  0  0  0  0  0  0  0  0  0  0  0
    3.3660   -1.8060    0.0000 O   0  0  0  0  0  0  0  0  0  0  0  0
    4.0981   -1.8060    0.0000 O   0  0  0  0  0  0  0  0  0  0  0  0
    5.0981   -0.0740    0.0000 O   0  0  0  0  0  0  0  0  0  0  0  0
    6.3301    0.0600    0.0000 O   0  0  0  0  0  0  0  0  0  0  0  0
   10.6603   -1.4400    0.0000 O   0  0  0  0  0  0  0  0  0  0  0  0
    8.9282    1.5600    0.0000 O   0  0  0  0  0  0  0  0  0  0  0  0
    3.7320   -0.4400    0.0000 N   0  0  3  0  0  0  0  0  0  0  0  0
    5.4641   -1.4400    0.0000 N   0  0  0  0  0  0  0  0  0  0  0  0
    7.1962   -1.4400    0.0000 N   0  0  0  0  0  0  0  0  0  0  0  0
    8.9282   -1.4400    0.0000 N   0  0  0  0  0  0  0  0  0  0  0  0
    8.0622    0.0600    0.0000 N   0  0  0  0  0  0  0  0  0  0  0  0
    3.7320    0.5600    0.0000 C   0  0  0  0  0  0  0  0  0  0  0  0
    2.0000   -1.4400    0.0000 C   0  0  0  0  0  0  0  0  0  0  0  0
    6.3301   -0.9400    0.0000 C   0  0  0  0  0  0  0  0  0  0  0  0
    8.0622   -0.9400    0.0000 C   0  0  0  0  0  0  0  0  0  0  0  0
    9.7942   -0.9400    0.0000 C   0  0  0  0  0  0  0  0  0  0  0  0
    8.9282    0.5600    0.0000 C   0  0  0  0  0  0  0  0  0  0  0  0
    9.7942    0.0600    0.0000 C   0  0  0  0  0  0  0  0  0  0  0  0
   11.5263   -0.9400    0.0000 C   0  0  0  0  0  0  0  0  0  0  0  0
    9.7942    2.0600    0.0000 C   0  0  0  0  0  0  0  0  0  0  0  0
    4.3520    0.5600    0.0000 H   0  0  0  0  0  0  0  0  0  0  0  0
    3.7320    1.1800    0.0000 H   0  0  0  0  0  0  0  0  0  0  0  0
    3.1120    0.5600    0.0000 H   0  0  0  0  0  0  0  0  0  0  0  0
    1.6900   -0.9031    0.0000 H   0  0  0  0  0  0  0  0  0  0  0  0
    1.4631   -1.7500    0.0000 H   0  0  0  0  0  0  0  0  0  0  0  0
    2.3100   -1.9769    0.0000 H   0  0  0  0  0  0  0  0  0  0  0  0
    5.4641   -2.0600    0.0000 H   0  0  0  0  0  0  0  0  0  0  0  0
    7.1962   -2.0600    0.0000 H   0  0  0  0  0  0  0  0  0  0  0  0
   10.3312    0.3700    0.0000 H   0  0  0  0  0  0  0  0  0  0  0  0
   11.8363   -1.4769    0.0000 H   0  0  0  0  0  0  0  0  0  0  0  0
   12.0632   -0.6300    0.0000 H   0  0  0  0  0  0  0  0  0  0  0  0
   11.2163   -0.4031    0.0000 H   0  0  0  0  0  0  0  0  0  0  0  0
   10.1042    1.5231    0.0000 H   0  0  0  0  0  0  0  0  0  0  0  0
   10.3312    2.3700    0.0000 H   0  0  0  0  0  0  0  0  0  0  0  0
    9.4842    2.5969    0.0000 H   0  0  0  0  0  0  0  0  0  0  0  0
  1  3  2  0  0  0  0
  1  4  2  0  0  0  0
  1 10  1  0  0  0  0
  1 16  1  0  0  0  0
  2  5  2  0  0  0  0
  2  6  2  0  0  0  0
  2 10  1  0  0  0  0
  2 11  1  0  0  0  0
  7 17  2  0  0  0  0
  8 19  1  0  0  0  0
  8 22  1  0  0  0  0
  9 20  1  0  0  0  0
  9 23  1  0  0  0  0
 10 15  1  0  0  0  0
 11 17  1  0  0  0  0
 11 30  1  0  0  0  0
 12 17  1  0  0  0  0
 12 18  1  0  0  0  0
 12 31  1  0  0  0  0
 13 18  1  0  0  0  0
 13 19  2  0  0  0  0
 14 18  2  0  0  0  0
 14 20  1  0  0  0  0
 15 24  1  0  0  0  0
 15 25  1  0  0  0  0
 15 26  1  0  0  0  0
 16 27  1  0  0  0  0
 16 28  1  0  0  0  0
 16 29  1  0  0  0  0
 19 21  1  0  0  0  0
 20 21  2  0  0  0  0
 21 32  1  0  0  0  0
 22 33  1  0  0  0  0
 22 34  1  0  0  0  0
 22 35  1  0  0  0  0
 23 36  1  0  0  0  0
 23 37  1  0  0  0  0
 23 38  1  0  0  0  0
M  END
> <PUBCHEM_COMPOUND_CID>
91777

> <PUBCHEM_COMPOUND_CANONICALIZED>
1

> <PUBCHEM_CACTVS_COMPLEXITY>
599

> <PUBCHEM_CACTVS_HBOND_ACCEPTOR>
10

> <PUBCHEM_CACTVS_HBOND_DONOR>
2

> <PUBCHEM_CACTVS_ROTATABLE_BOND>
6

> <PUBCHEM_CACTVS_SUBSKEYS>
AAADccBzuABgAAAAAAAAAAAAAAAAAAAAAAAsAAAAAAAAAAABgAAAHgQQQAAACACBkgazlJbIFAKoACBidHCAiCkBIqABECA2bBCEDQBEaEgEBCgLAQ5AICAAAAAAAAAAAAAAAAAAAAAAAAAAAAAAAAAAAA==

> <PUBCHEM_IUPAC_OPENEYE_NAME>
1-(4,6-dimethoxypyrimidin-2-yl)-3-[methyl(methylsulfonyl)sulfamoyl]urea

> <PUBCHEM_IUPAC_CAS_NAME>
1-(4,6-dimethoxy-2-pyrimidinyl)-3-[methyl(methylsulfonyl)sulfamoyl]urea

> <PUBCHEM_IUPAC_NAME>
1-(4,6-dimethoxypyrimidin-2-yl)-3-[methyl(methylsulfonyl)sulfamoyl]urea

> <PUBCHEM_IUPAC_SYSTEMATIC_NAME>
1-(4,6-dimethoxypyrimidin-2-yl)-3-[methyl(methylsulfonyl)sulfamoyl]urea

> <PUBCHEM_IUPAC_TRADITIONAL_NAME>
1-(4,6-dimethoxypyrimidin-2-yl)-3-[mesyl(methyl)sulfamoyl]urea

> <PUBCHEM_IUPAC_INCHI>
InChI=1S/C9H15N5O7S2/c1-14(22(4,16)17)23(18,19)13-9(15)12-8-10-6(20-2)5-7(11-8)21-3/h5H,1-4H3,(H2,10,11,12,13,15)

> <PUBCHEM_IUPAC_INCHIKEY>
CTTHWASMBLQOFR-UHFFFAOYSA-N

> <PUBCHEM_XLOGP3_AA>
-0.2

> <PUBCHEM_EXACT_MASS>
369.04129

> <PUBCHEM_MOLECULAR_FORMULA>
C9H15N5O7S2

> <PUBCHEM_MOLECULAR_WEIGHT>
369.3747

> <PUBCHEM_OPENEYE_CAN_SMILES>
CN(S(=O)(=O)C)S(=O)(=O)NC(=O)NC1=NC(=CC(=N1)OC)OC

> <PUBCHEM_OPENEYE_ISO_SMILES>
CN(S(=O)(=O)C)S(=O)(=O)NC(=O)NC1=NC(=CC(=N1)OC)OC

> <PUBCHEM_CACTVS_TPSA>
174

> <PUBCHEM_MONOISOTOPIC_WEIGHT>
369.04129

> <PUBCHEM_TOTAL_CHARGE>
0

> <PUBCHEM_HEAVY_ATOM_COUNT>
23

> <PUBCHEM_ATOM_DEF_STEREO_COUNT>
0

> <PUBCHEM_ATOM_UDEF_STEREO_COUNT>
0

> <PUBCHEM_BOND_DEF_STEREO_COUNT>
0

> <PUBCHEM_BOND_UDEF_STEREO_COUNT>
0

> <PUBCHEM_ISOTOPIC_ATOM_COUNT>
0

> <PUBCHEM_COMPONENT_COUNT>
1

> <PUBCHEM_CACTVS_TAUTO_COUNT>
5

> <PUBCHEM_COORDINATE_TYPE>
1
5
255

> <PUBCHEM_BONDANNOTATIONS>
13  18  8
13  19  8
14  18  8
14  20  8
19  21  8
20  21  8

$$$$

