47205571
  -OEChem-06241222593D

 34 36  0     1  0  0  0  0  0999 V2000
   -1.5266   -2.4205    0.2782 O   0  0  0  0  0  0  0  0  0  0  0  0
   -3.5603    0.3562   -0.1600 N   0  0  0  0  0  0  0  0  0  0  0  0
   -0.7436   -0.3757   -0.5812 N   0  0  0  0  0  0  0  0  0  0  0  0
   -4.1635    1.8033    1.4127 N   0  0  0  0  0  0  0  0  0  0  0  0
    2.4975   -1.5483    0.6994 N   0  0  0  0  0  0  0  0  0  0  0  0
   -3.1055   -0.9442   -0.7982 C   0  0  1  0  0  0  0  0  0  0  0  0
   -1.7156   -1.3517   -0.2955 C   0  0  0  0  0  0  0  0  0  0  0  0
   -4.1351   -2.0531   -0.5655 C   0  0  0  0  0  0  0  0  0  0  0  0
    0.6157   -0.3966   -0.2804 C   0  0  0  0  0  0  0  0  0  0  0  0
   -3.8325    1.5257   -0.8123 C   0  0  0  0  0  0  0  0  0  0  0  0
    2.8129    0.6111   -0.3225 C   0  0  0  0  0  0  0  0  0  0  0  0
   -3.7730    0.5712    1.1732 C   0  0  0  0  0  0  0  0  0  0  0  0
    1.4475    0.6559   -0.6347 C   0  0  0  0  0  0  0  0  0  0  0  0
    3.3023   -0.5255    0.3545 C   0  0  0  0  0  0  0  0  0  0  0  0
    1.1857   -1.4661    0.3795 C   0  0  0  0  0  0  0  0  0  0  0  0
   -4.2026    2.4036    0.1790 C   0  0  0  0  0  0  0  0  0  0  0  0
    3.6816    1.6604   -0.6675 C   0  0  0  0  0  0  0  0  0  0  0  0
    4.6587   -0.5693    0.6645 C   0  0  0  0  0  0  0  0  0  0  0  0
    5.0338    1.5901   -0.3452 C   0  0  0  0  0  0  0  0  0  0  0  0
    5.5225    0.4737    0.3218 C   0  0  0  0  0  0  0  0  0  0  0  0
   -3.0366   -0.7290   -1.8720 H   0  0  0  0  0  0  0  0  0  0  0  0
   -4.2324   -2.3003    0.4974 H   0  0  0  0  0  0  0  0  0  0  0  0
   -5.1226   -1.7489   -0.9287 H   0  0  0  0  0  0  0  0  0  0  0  0
   -3.8450   -2.9675   -1.0940 H   0  0  0  0  0  0  0  0  0  0  0  0
   -1.0604    0.4542   -1.0776 H   0  0  0  0  0  0  0  0  0  0  0  0
   -3.7428    1.6304   -1.8843 H   0  0  0  0  0  0  0  0  0  0  0  0
   -3.6269   -0.1986    1.9186 H   0  0  0  0  0  0  0  0  0  0  0  0
    1.0367    1.5183   -1.1568 H   0  0  0  0  0  0  0  0  0  0  0  0
    0.6428   -2.3416    0.7058 H   0  0  0  0  0  0  0  0  0  0  0  0
   -4.4950    3.4375    0.0672 H   0  0  0  0  0  0  0  0  0  0  0  0
    3.3092    2.5391   -1.1896 H   0  0  0  0  0  0  0  0  0  0  0  0
    5.0666   -1.4330    1.1866 H   0  0  0  0  0  0  0  0  0  0  0  0
    5.7020    2.4027   -0.6134 H   0  0  0  0  0  0  0  0  0  0  0  0
    6.5763    0.4104    0.5774 H   0  0  0  0  0  0  0  0  0  0  0  0
  1  7  2  0  0  0  0
  2  6  1  0  0  0  0
  2 10  1  0  0  0  0
  2 12  1  0  0  0  0
  3  7  1  0  0  0  0
  3  9  1  0  0  0  0
  3 25  1  0  0  0  0
  4 12  2  0  0  0  0
  4 16  1  0  0  0  0
  5 14  1  0  0  0  0
  5 15  2  0  0  0  0
  6  7  1  0  0  0  0
  6  8  1  0  0  0  0
  6 21  1  0  0  0  0
  8 22  1  0  0  0  0
  8 23  1  0  0  0  0
  8 24  1  0  0  0  0
  9 13  2  0  0  0  0
  9 15  1  0  0  0  0
 10 16  2  0  0  0  0
 10 26  1  0  0  0  0
 11 13  1  0  0  0  0
 11 14  1  0  0  0  0
 11 17  2  0  0  0  0
 12 27  1  0  0  0  0
 13 28  1  0  0  0  0
 14 18  2  0  0  0  0
 15 29  1  0  0  0  0
 16 30  1  0  0  0  0
 17 19  1  0  0  0  0
 17 31  1  0  0  0  0
 18 20  1  0  0  0  0
 18 32  1  0  0  0  0
 19 20  2  0  0  0  0
 19 33  1  0  0  0  0
 20 34  1  0  0  0  0
M  END
> <PUBCHEM_COMPOUND_CID>
47205571

> <PUBCHEM_CONFORMER_RMSD>
0.6

> <PUBCHEM_CONFORMER_DIVERSEORDER>
2
9
75
93
53
11
78
29
50
47
25
76
90
62
73
55
26
32
59
92
7
64
10
44
61
12
31
28
46
54
19
27
52
24
15
51
20
79
63
45
91
57
74
5
66
69
77
30
3
8
1
49
39
58
6
81
14
4
60
86
83
89
56
67
43
70
48
68
72
65
87
22
85
34
23
37
71
36
13
80
84
21
88
35
41
38
17
33
82
40
18
42
16

> <PUBCHEM_MMFF94_PARTIAL_CHARGES>
28
1 -0.57
10 -0.3
12 0.04
13 -0.15
14 0.31
15 0.16
16 0.08
17 -0.15
18 -0.15
19 -0.15
2 0.05
20 -0.15
25 0.37
26 0.15
27 0.15
28 0.15
29 0.15
3 -0.55
30 0.15
31 0.15
32 0.15
33 0.15
34 0.15
4 -0.57
5 -0.62
6 0.32
7 0.57
9 0.12

> <PUBCHEM_EFFECTIVE_ROTOR_COUNT>
4

> <PUBCHEM_PHARMACOPHORE_FEATURES>
7
1 1 acceptor
1 3 donor
1 5 acceptor
3 2 4 12 cation
5 2 4 10 12 16 rings
6 11 14 17 18 19 20 rings
6 5 9 11 13 14 15 rings

> <PUBCHEM_HEAVY_ATOM_COUNT>
20

> <PUBCHEM_ATOM_DEF_STEREO_COUNT>
0

> <PUBCHEM_ATOM_UDEF_STEREO_COUNT>
1

> <PUBCHEM_BOND_DEF_STEREO_COUNT>
0

> <PUBCHEM_BOND_UDEF_STEREO_COUNT>
0

> <PUBCHEM_ISOTOPIC_ATOM_COUNT>
0

> <PUBCHEM_COMPONENT_COUNT>
1

> <PUBCHEM_CACTVS_TAUTO_COUNT>
2

> <PUBCHEM_CONFORMER_ID>
02D04CC300000002

> <PUBCHEM_MMFF94_ENERGY>
50.8951

> <PUBCHEM_FEATURE_SELFOVERLAP>
35.551

> <PUBCHEM_SHAPE_MULTIPOLES>
385.8
12.3
2.37
0.98
4.23
0.07
0.14
5.01
1.14
-2.33
0.06
-0.6
0.18
-1.48

> <PUBCHEM_SHAPE_SELFOVERLAP>
841.515

> <PUBCHEM_SHAPE_VOLUME>
210.4

> <PUBCHEM_COORDINATE_TYPE>
2
5
10

$$$$

