46173851
  -OEChem-07051213092D

106110  0     1  0  0  0  0  0999 V2000
    7.4149   -2.2889    0.0000 O   0  0  0  0  0  0  0  0  0  0  0  0
    6.5662   -3.7988    0.0000 O   0  0  0  0  0  0  0  0  0  0  0  0
    2.0000   -2.3097    0.0000 O   0  0  0  0  0  0  0  0  0  0  0  0
    9.1815   -5.2686    0.0000 O   0  0  0  0  0  0  0  0  0  0  0  0
    7.4611   -6.2886    0.0000 O   0  0  0  0  0  0  0  0  0  0  0  0
    5.7292   -6.3086    0.0000 O   0  0  0  0  0  0  0  0  0  0  0  0
   12.5175    5.4681    0.0000 O   0  0  0  0  0  0  0  0  0  0  0  0
   10.0417   -4.7586    0.0000 O   0  0  0  0  0  0  0  0  0  0  0  0
   14.1638    4.9300    0.0000 O   0  0  0  0  0  0  0  0  0  0  0  0
    9.1584   -3.2688    0.0000 N   0  0  0  0  0  0  0  0  0  0  0  0
    7.3931    0.7426    0.0000 C   0  0  1  0  0  0  0  0  0  0  0  0
    7.3931   -0.2574    0.0000 C   0  0  1  0  0  0  0  0  0  0  0  0
    6.5271   -0.7574    0.0000 C   0  0  2  0  0  0  0  0  0  0  0  0
    5.6610   -0.2574    0.0000 C   0  0  2  0  0  0  0  0  0  0  0  0
    8.3393    1.0473    0.0000 C   0  0  2  0  0  0  0  0  0  0  0  0
    6.5271    1.2426    0.0000 C   0  0  0  0  0  0  0  0  0  0  0  0
    8.3393   -0.5621    0.0000 C   0  0  0  0  0  0  0  0  0  0  0  0
    4.7510   -0.7642    0.0000 C   0  0  2  0  0  0  0  0  0  0  0  0
    5.6610    0.7426    0.0000 C   0  0  0  0  0  0  0  0  0  0  0  0
    8.9229    0.2426    0.0000 C   0  0  0  0  0  0  0  0  0  0  0  0
    6.5431   -1.7989    0.0000 C   0  0  1  0  0  0  0  0  0  0  0  0
    8.6500    1.9978    0.0000 C   0  0  1  0  0  0  0  0  0  0  0  0
    7.3931    1.7426    0.0000 C   0  0  0  0  0  0  0  0  0  0  0  0
    4.7430   -1.8058    0.0000 C   0  0  0  0  0  0  0  0  0  0  0  0
    5.6451   -2.3267    0.0000 C   0  0  0  0  0  0  0  0  0  0  0  0
    3.8242   -0.2002    0.0000 C   0  0  0  0  0  0  0  0  0  0  0  0
    4.7587    0.2357    0.0000 C   0  0  0  0  0  0  0  0  0  0  0  0
    9.6285    2.2041    0.0000 C   0  0  0  0  0  0  0  0  0  0  0  0
    2.8763   -0.7281    0.0000 C   0  0  0  0  0  0  0  0  0  0  0  0
    7.9821    2.7422    0.0000 C   0  0  0  0  0  0  0  0  0  0  0  0
    3.8076   -2.3556    0.0000 C   0  0  0  0  0  0  0  0  0  0  0  0
    2.8680   -1.8131    0.0000 C   0  0  0  0  0  0  0  0  0  0  0  0
    7.4264   -3.2888    0.0000 C   0  0  2  0  0  0  0  0  0  0  0  0
    9.9391    3.1546    0.0000 C   0  0  0  0  0  0  0  0  0  0  0  0
    8.2982   -3.7788    0.0000 C   0  0  1  0  0  0  0  0  0  0  0  0
   10.9176    3.3608    0.0000 C   0  0  0  0  0  0  0  0  0  0  0  0
    8.3097   -4.7787    0.0000 C   0  0  2  0  0  0  0  0  0  0  0  0
    6.5778   -4.7987    0.0000 C   0  0  1  0  0  0  0  0  0  0  0  0
    7.4496   -5.2887    0.0000 C   0  0  1  0  0  0  0  0  0  0  0  0
   11.2283    4.3113    0.0000 C   0  0  2  0  0  0  0  0  0  0  0  0
    5.7176   -5.3087    0.0000 C   0  0  0  0  0  0  0  0  0  0  0  0
   12.2068    4.5176    0.0000 C   0  0  0  0  0  0  0  0  0  0  0  0
   10.5605    5.0556    0.0000 C   0  0  0  0  0  0  0  0  0  0  0  0
   10.0301   -3.7587    0.0000 C   0  0  0  0  0  0  0  0  0  0  0  0
   10.8903   -3.2487    0.0000 C   0  0  0  0  0  0  0  0  0  0  0  0
   13.4960    5.6743    0.0000 C   0  0  0  0  0  0  0  0  0  0  0  0
   13.8066    6.6248    0.0000 C   0  0  0  0  0  0  0  0  0  0  0  0
    7.4830   -1.1026    0.0000 H   0  0  0  0  0  0  0  0  0  0  0  0
    7.2664   -1.1767    0.0000 H   0  0  0  0  0  0  0  0  0  0  0  0
    6.3972    0.1676    0.0000 H   0  0  0  0  0  0  0  0  0  0  0  0
    9.1790    1.1792    0.0000 H   0  0  0  0  0  0  0  0  0  0  0  0
    6.9256    1.7176    0.0000 H   0  0  0  0  0  0  0  0  0  0  0  0
    6.1285    1.7176    0.0000 H   0  0  0  0  0  0  0  0  0  0  0  0
    8.0883   -1.1290    0.0000 H   0  0  0  0  0  0  0  0  0  0  0  0
    8.8767   -0.8714    0.0000 H   0  0  0  0  0  0  0  0  0  0  0  0
    5.4490    1.3252    0.0000 H   0  0  0  0  0  0  0  0  0  0  0  0
    5.0504    0.6349    0.0000 H   0  0  0  0  0  0  0  0  0  0  0  0
    9.3838   -0.1721    0.0000 H   0  0  0  0  0  0  0  0  0  0  0  0
    9.3838    0.6573    0.0000 H   0  0  0  0  0  0  0  0  0  0  0  0
    6.5491   -2.4189    0.0000 H   0  0  0  0  0  0  0  0  0  0  0  0
    8.0433    1.8700    0.0000 H   0  0  0  0  0  0  0  0  0  0  0  0
    8.0131    1.7426    0.0000 H   0  0  0  0  0  0  0  0  0  0  0  0
    7.3931    2.3626    0.0000 H   0  0  0  0  0  0  0  0  0  0  0  0
    6.7731    1.7426    0.0000 H   0  0  0  0  0  0  0  0  0  0  0  0
    5.2478   -2.8026    0.0000 H   0  0  0  0  0  0  0  0  0  0  0  0
    6.0460   -2.7996    0.0000 H   0  0  0  0  0  0  0  0  0  0  0  0
    4.2324    0.2665    0.0000 H   0  0  0  0  0  0  0  0  0  0  0  0
    3.4343    0.2819    0.0000 H   0  0  0  0  0  0  0  0  0  0  0  0
    5.3787    0.2309    0.0000 H   0  0  0  0  0  0  0  0  0  0  0  0
    4.7635    0.8557    0.0000 H   0  0  0  0  0  0  0  0  0  0  0  0
    4.1388    0.2405    0.0000 H   0  0  0  0  0  0  0  0  0  0  0  0
    9.6490    1.5844    0.0000 H   0  0  0  0  0  0  0  0  0  0  0  0
   10.2423    2.1167    0.0000 H   0  0  0  0  0  0  0  0  0  0  0  0
    2.6718   -0.1428    0.0000 H   0  0  0  0  0  0  0  0  0  0  0  0
    2.2647   -0.8295    0.0000 H   0  0  0  0  0  0  0  0  0  0  0  0
    8.4436    3.1562    0.0000 H   0  0  0  0  0  0  0  0  0  0  0  0
    7.5681    3.2036    0.0000 H   0  0  0  0  0  0  0  0  0  0  0  0
    7.5207    2.3281    0.0000 H   0  0  0  0  0  0  0  0  0  0  0  0
    3.8100   -2.9756    0.0000 H   0  0  0  0  0  0  0  0  0  0  0  0
    7.9598   -2.9726    0.0000 H   0  0  0  0  0  0  0  0  0  0  0  0
    9.9186    3.7742    0.0000 H   0  0  0  0  0  0  0  0  0  0  0  0
    9.3253    3.2419    0.0000 H   0  0  0  0  0  0  0  0  0  0  0  0
    8.8387   -4.0825    0.0000 H   0  0  0  0  0  0  0  0  0  0  0  0
   10.9382    2.7412    0.0000 H   0  0  0  0  0  0  0  0  0  0  0  0
   11.5315    3.2735    0.0000 H   0  0  0  0  0  0  0  0  0  0  0  0
    8.8431   -4.4625    0.0000 H   0  0  0  0  0  0  0  0  0  0  0  0
    6.0373   -4.4949    0.0000 H   0  0  0  0  0  0  0  0  0  0  0  0
    7.9900   -5.5924    0.0000 H   0  0  0  0  0  0  0  0  0  0  0  0
   11.4209    4.9006    0.0000 H   0  0  0  0  0  0  0  0  0  0  0  0
    9.1512   -2.6488    0.0000 H   0  0  0  0  0  0  0  0  0  0  0  0
    5.4988   -4.7286    0.0000 H   0  0  0  0  0  0  0  0  0  0  0  0
    5.1083   -5.4234    0.0000 H   0  0  0  0  0  0  0  0  0  0  0  0
   12.2274    3.8979    0.0000 H   0  0  0  0  0  0  0  0  0  0  0  0
   12.8206    4.4302    0.0000 H   0  0  0  0  0  0  0  0  0  0  0  0
   11.0219    5.4697    0.0000 H   0  0  0  0  0  0  0  0  0  0  0  0
   10.1464    5.5171    0.0000 H   0  0  0  0  0  0  0  0  0  0  0  0
   10.0990    4.6416    0.0000 H   0  0  0  0  0  0  0  0  0  0  0  0
    9.1887   -5.8886    0.0000 H   0  0  0  0  0  0  0  0  0  0  0  0
    8.0016   -6.5924    0.0000 H   0  0  0  0  0  0  0  0  0  0  0  0
    5.1959   -6.6248    0.0000 H   0  0  0  0  0  0  0  0  0  0  0  0
   11.2065   -3.7820    0.0000 H   0  0  0  0  0  0  0  0  0  0  0  0
   11.4236   -2.9326    0.0000 H   0  0  0  0  0  0  0  0  0  0  0  0
   10.5741   -2.7154    0.0000 H   0  0  0  0  0  0  0  0  0  0  0  0
   14.3960    6.4322    0.0000 H   0  0  0  0  0  0  0  0  0  0  0  0
   13.9993    7.2141    0.0000 H   0  0  0  0  0  0  0  0  0  0  0  0
   13.2173    6.8174    0.0000 H   0  0  0  0  0  0  0  0  0  0  0  0
 21  1  1  6  0  0  0
 33  1  1  1  0  0  0
  2 33  1  0  0  0  0
  2 38  1  0  0  0  0
  3 32  2  0  0  0  0
 37  4  1  1  0  0  0
  4 98  1  0  0  0  0
 39  5  1  6  0  0  0
  5 99  1  0  0  0  0
  6 41  1  0  0  0  0
  6100  1  0  0  0  0
  7 42  1  0  0  0  0
  7 46  1  0  0  0  0
  8 44  2  0  0  0  0
  9 46  2  0  0  0  0
 35 10  1  6  0  0  0
 10 44  1  0  0  0  0
 10 90  1  0  0  0  0
 11 12  1  0  0  0  0
 11 15  1  0  0  0  0
 11 16  1  0  0  0  0
 11 23  1  1  0  0  0
 12 13  1  0  0  0  0
 12 17  1  0  0  0  0
 12 48  1  1  0  0  0
 13 14  1  0  0  0  0
 13 21  1  0  0  0  0
 13 49  1  6  0  0  0
 14 18  1  0  0  0  0
 14 19  1  0  0  0  0
 14 50  1  1  0  0  0
 15 20  1  0  0  0  0
 15 22  1  0  0  0  0
 15 51  1  6  0  0  0
 16 19  1  0  0  0  0
 16 52  1  0  0  0  0
 16 53  1  0  0  0  0
 17 20  1  0  0  0  0
 17 54  1  0  0  0  0
 17 55  1  0  0  0  0
 18 24  1  0  0  0  0
 18 26  1  0  0  0  0
 18 27  1  1  0  0  0
 19 56  1  0  0  0  0
 19 57  1  0  0  0  0
 20 58  1  0  0  0  0
 20 59  1  0  0  0  0
 21 25  1  0  0  0  0
 21 60  1  0  0  0  0
 22 28  1  0  0  0  0
 22 30  1  6  0  0  0
 22 61  1  0  0  0  0
 23 62  1  0  0  0  0
 23 63  1  0  0  0  0
 23 64  1  0  0  0  0
 24 25  1  0  0  0  0
 24 31  2  0  0  0  0
 25 65  1  0  0  0  0
 25 66  1  0  0  0  0
 26 29  1  0  0  0  0
 26 67  1  0  0  0  0
 26 68  1  0  0  0  0
 27 69  1  0  0  0  0
 27 70  1  0  0  0  0
 27 71  1  0  0  0  0
 28 34  1  0  0  0  0
 28 72  1  0  0  0  0
 28 73  1  0  0  0  0
 29 32  1  0  0  0  0
 29 74  1  0  0  0  0
 29 75  1  0  0  0  0
 30 76  1  0  0  0  0
 30 77  1  0  0  0  0
 30 78  1  0  0  0  0
 31 32  1  0  0  0  0
 31 79  1  0  0  0  0
 33 35  1  0  0  0  0
 33 80  1  0  0  0  0
 34 36  1  0  0  0  0
 34 81  1  0  0  0  0
 34 82  1  0  0  0  0
 35 37  1  0  0  0  0
 35 83  1  0  0  0  0
 36 40  1  0  0  0  0
 36 84  1  0  0  0  0
 36 85  1  0  0  0  0
 37 39  1  0  0  0  0
 37 86  1  0  0  0  0
 38 39  1  0  0  0  0
 38 41  1  1  0  0  0
 38 87  1  0  0  0  0
 39 88  1  0  0  0  0
 40 42  1  0  0  0  0
 40 43  1  1  0  0  0
 40 89  1  0  0  0  0
 41 91  1  0  0  0  0
 41 92  1  0  0  0  0
 42 93  1  0  0  0  0
 42 94  1  0  0  0  0
 43 95  1  0  0  0  0
 43 96  1  0  0  0  0
 43 97  1  0  0  0  0
 44 45  1  0  0  0  0
 45101  1  0  0  0  0
 45102  1  0  0  0  0
 45103  1  0  0  0  0
 46 47  1  0  0  0  0
 47104  1  0  0  0  0
 47105  1  0  0  0  0
 47106  1  0  0  0  0
M  END
> <PUBCHEM_COMPOUND_CID>
46173851

> <PUBCHEM_COMPOUND_CANONICALIZED>
1

> <PUBCHEM_CACTVS_COMPLEXITY>
1190

> <PUBCHEM_CACTVS_HBOND_ACCEPTOR>
9

> <PUBCHEM_CACTVS_HBOND_DONOR>
4

> <PUBCHEM_CACTVS_ROTATABLE_BOND>
12

> <PUBCHEM_CACTVS_SUBSKEYS>
AAADcfB+PAAAAAAAAAAAAAAAAAAAAYAAAAA0YIEAAAAAAGDAAAAAHgAQCAAADzzxgAcCCALABgCIAqHSGAAAAAAgAAAACIEIAEgTEBIAgQAnQAAH1gCfAQP4+P+PgAAAAAAAAADAAAYAADAAAQAACAAAAA==

> <PUBCHEM_IUPAC_OPENEYE_NAME>
[(2R,6R)-6-[(7R,8R,9R,10R,13R,14R,17R)-7-[(2R,3R,4R,5S,6R)-3-acetamido-4,5-dihydroxy-6-(hydroxymethyl)tetrahydropyran-2-yl]oxy-10,13-dimethyl-3-oxo-1,2,6,7,8,9,11,12,14,15,16,17-dodecahydrocyclopenta[a]phenanthren-17-yl]-2-methyl-heptyl] acetate

> <PUBCHEM_IUPAC_CAS_NAME>
acetic acid [(2R,6R)-6-[(7R,8R,9R,10R,13R,14R,17R)-7-[[(2R,3R,4R,5S,6R)-3-acetamido-4,5-dihydroxy-6-(hydroxymethyl)-2-oxanyl]oxy]-10,13-dimethyl-3-oxo-1,2,6,7,8,9,11,12,14,15,16,17-dodecahydrocyclopenta[a]phenanthren-17-yl]-2-methylheptyl] ester

> <PUBCHEM_IUPAC_NAME>
[(2R,6R)-6-[(7R,8R,9R,10R,13R,14R,17R)-7-[(2R,3R,4R,5S,6R)-3-acetamido-4,5-dihydroxy-6-(hydroxymethyl)oxan-2-yl]oxy-10,13-dimethyl-3-oxo-1,2,6,7,8,9,11,12,14,15,16,17-dodecahydrocyclopenta[a]phenanthren-17-yl]-2-methylheptyl] acetate

> <PUBCHEM_IUPAC_SYSTEMATIC_NAME>
[(2R,6R)-6-[(7R,8R,9R,10R,13R,14R,17R)-7-[(2R,3R,4R,5S,6R)-3-acetamido-6-(hydroxymethyl)-4,5-bis(oxidanyl)oxan-2-yl]oxy-10,13-dimethyl-3-oxidanylidene-1,2,6,7,8,9,11,12,14,15,16,17-dodecahydrocyclopenta[a]phenanthren-17-yl]-2-methyl-heptyl] ethanoate

> <PUBCHEM_IUPAC_TRADITIONAL_NAME>
acetic acid [(2R,6R)-6-[(7R,8R,9R,10R,13R,14R,17R)-7-[(2R,3R,4R,5S,6R)-3-acetamido-4,5-dihydroxy-6-methylol-tetrahydropyran-2-yl]oxy-3-keto-10,13-dimethyl-1,2,6,7,8,9,11,12,14,15,16,17-dodecahydrocyclopenta[a]phenanthren-17-yl]-2-methyl-heptyl] ester

> <PUBCHEM_IUPAC_INCHI>
InChI=1S/C37H59NO9/c1-20(19-45-23(4)41)8-7-9-21(2)26-10-11-27-31-28(13-15-37(26,27)6)36(5)14-12-25(42)16-24(36)17-29(31)46-35-32(38-22(3)40)34(44)33(43)30(18-39)47-35/h16,20-21,26-35,39,43-44H,7-15,17-19H2,1-6H3,(H,38,40)/t20-,21-,26-,27-,28-,29-,30-,31-,32-,33-,34-,35-,36+,37-/m1/s1

> <PUBCHEM_IUPAC_INCHIKEY>
BRNQQEJYQPMDNG-KKNRGALGSA-N

> <PUBCHEM_XLOGP3_AA>
4.9

> <PUBCHEM_EXACT_MASS>
661.418982

> <PUBCHEM_MOLECULAR_FORMULA>
C37H59NO9

> <PUBCHEM_MOLECULAR_WEIGHT>
661.86566

> <PUBCHEM_OPENEYE_CAN_SMILES>
CC(CCCC(C)C1CCC2C1(CCC3C2C(CC4=CC(=O)CCC34C)OC5C(C(C(C(O5)CO)O)O)NC(=O)C)C)COC(=O)C

> <PUBCHEM_OPENEYE_ISO_SMILES>
C[C@H](CCC[C@@H](C)[C@H]1CC[C@H]2[C@@]1(CC[C@@H]3[C@@H]2[C@@H](CC4=CC(=O)CC[C@]34C)O[C@H]5[C@@H]([C@H]([C@@H]([C@H](O5)CO)O)O)NC(=O)C)C)COC(=O)C

> <PUBCHEM_CACTVS_TPSA>
152

> <PUBCHEM_MONOISOTOPIC_WEIGHT>
661.418982

> <PUBCHEM_TOTAL_CHARGE>
0

> <PUBCHEM_HEAVY_ATOM_COUNT>
47

> <PUBCHEM_ATOM_DEF_STEREO_COUNT>
14

> <PUBCHEM_ATOM_UDEF_STEREO_COUNT>
0

> <PUBCHEM_BOND_DEF_STEREO_COUNT>
0

> <PUBCHEM_BOND_UDEF_STEREO_COUNT>
0

> <PUBCHEM_ISOTOPIC_ATOM_COUNT>
0

> <PUBCHEM_COMPONENT_COUNT>
1

> <PUBCHEM_CACTVS_TAUTO_COUNT>
10

> <PUBCHEM_COORDINATE_TYPE>
1
5
255

> <PUBCHEM_BONDANNOTATIONS>
21  1  6
33  1  5
35  10  6
11  23  5
12  48  5
13  49  6
14  50  5
15  51  6
18  27  5
22  30  6
38  41  5
37  4  5
40  43  5
39  5  6

$$$$

