53297433
  -OEChem-07051213143D

 25 26  0     1  0  0  0  0  0999 V2000
   -0.7607   -2.6878    0.3506 O   0  0  0  0  0  0  0  0  0  0  0  0
   -1.5562   -0.7587   -0.1273 N   0  0  0  0  0  0  0  0  0  0  0  0
   -1.5648   -2.0899   -0.3713 N   0  0  0  0  0  0  0  0  0  0  0  0
    2.2780    0.3843   -1.5030 N   0  0  0  0  0  0  0  0  0  0  0  0
   -0.6455   -0.1376    0.8701 C   0  0  2  0  0  0  0  0  0  0  0  0
   -1.2245    1.1931    1.3967 C   0  0  0  0  0  0  0  0  0  0  0  0
   -1.7353    2.1260    0.2927 C   0  0  0  0  0  0  0  0  0  0  0  0
    0.7802    0.0134    0.3582 C   0  0  0  0  0  0  0  0  0  0  0  0
   -2.5269    1.3797   -0.7365 C   0  0  0  0  0  0  0  0  0  0  0  0
   -2.4117    0.0511   -0.8647 C   0  0  0  0  0  0  0  0  0  0  0  0
    1.8652   -0.0747    1.2234 C   0  0  0  0  0  0  0  0  0  0  0  0
    1.0379    0.2420   -0.9839 C   0  0  0  0  0  0  0  0  0  0  0  0
    3.1564    0.0665    0.7268 C   0  0  0  0  0  0  0  0  0  0  0  0
    3.3077    0.2926   -0.6317 C   0  0  0  0  0  0  0  0  0  0  0  0
   -0.6007   -0.7971    1.7496 H   0  0  0  0  0  0  0  0  0  0  0  0
   -0.4960    1.7241    2.0214 H   0  0  0  0  0  0  0  0  0  0  0  0
   -2.0754    0.9555    2.0513 H   0  0  0  0  0  0  0  0  0  0  0  0
   -0.8985    2.6354   -0.1982 H   0  0  0  0  0  0  0  0  0  0  0  0
   -2.3646    2.9006    0.7453 H   0  0  0  0  0  0  0  0  0  0  0  0
   -3.1987    1.9343   -1.3831 H   0  0  0  0  0  0  0  0  0  0  0  0
   -3.0020   -0.4753   -1.6093 H   0  0  0  0  0  0  0  0  0  0  0  0
    1.7170   -0.2514    2.2850 H   0  0  0  0  0  0  0  0  0  0  0  0
    0.2517    0.3330   -1.7242 H   0  0  0  0  0  0  0  0  0  0  0  0
    4.0171    0.0019    1.3826 H   0  0  0  0  0  0  0  0  0  0  0  0
    4.2939    0.4097   -1.0687 H   0  0  0  0  0  0  0  0  0  0  0  0
  1  3  2  0  0  0  0
  2  3  1  0  0  0  0
  2  5  1  0  0  0  0
  2 10  1  0  0  0  0
  4 12  1  0  0  0  0
  4 14  2  0  0  0  0
  5  6  1  0  0  0  0
  5  8  1  0  0  0  0
  5 15  1  0  0  0  0
  6  7  1  0  0  0  0
  6 16  1  0  0  0  0
  6 17  1  0  0  0  0
  7  9  1  0  0  0  0
  7 18  1  0  0  0  0
  7 19  1  0  0  0  0
  8 11  1  0  0  0  0
  8 12  2  0  0  0  0
  9 10  2  0  0  0  0
  9 20  1  0  0  0  0
 10 21  1  0  0  0  0
 11 13  2  0  0  0  0
 11 22  1  0  0  0  0
 12 23  1  0  0  0  0
 13 14  1  0  0  0  0
 13 24  1  0  0  0  0
 14 25  1  0  0  0  0
M  END
> <PUBCHEM_COMPOUND_CID>
53297433

> <PUBCHEM_CONFORMER_RMSD>
0.6

> <PUBCHEM_CONFORMER_DIVERSEORDER>
1
12
6
9
7
3
8
11
5
13
10
14
4
2

> <PUBCHEM_MMFF94_PARTIAL_CHARGES>
18
1 -0.16
10 -0.05
11 -0.15
12 0.16
13 -0.15
14 0.16
2 -0.3
20 0.15
21 0.15
22 0.15
23 0.15
24 0.15
25 0.15
4 -0.62
5 0.51
7 0.14
8 -0.14
9 -0.29

> <PUBCHEM_EFFECTIVE_ROTOR_COUNT>
2.8

> <PUBCHEM_PHARMACOPHORE_FEATURES>
3
1 4 acceptor
6 2 5 6 7 9 10 rings
6 4 8 11 12 13 14 rings

> <PUBCHEM_HEAVY_ATOM_COUNT>
14

> <PUBCHEM_ATOM_DEF_STEREO_COUNT>
1

> <PUBCHEM_ATOM_UDEF_STEREO_COUNT>
0

> <PUBCHEM_BOND_DEF_STEREO_COUNT>
0

> <PUBCHEM_BOND_UDEF_STEREO_COUNT>
0

> <PUBCHEM_ISOTOPIC_ATOM_COUNT>
0

> <PUBCHEM_COMPONENT_COUNT>
1

> <PUBCHEM_CACTVS_TAUTO_COUNT>
1

> <PUBCHEM_CONFORMER_ID>
032D411900000001

> <PUBCHEM_MMFF94_ENERGY>
32.7921

> <PUBCHEM_FEATURE_SELFOVERLAP>
15.223

> <PUBCHEM_SHAPE_FINGERPRINT>
12138202 97 18187089468040525958
12423570 1 5995594944817219951
12491281 212 18130505322752626696
12716758 59 18334013916910106626
12897270 3 16226341403045523456
12932764 1 18271514317676425144
13024252 1 15410889631118888065
14817 1 10392310621470578971
15775835 57 17989207083192924093
15852999 172 18261117425580924182
15906896 17 17988633095605867595
16945 1 18408893922878742473
18534176 82 18186801361660787712
19837323 101 18335974380681686697
20201158 50 17022629688327615828
20645476 183 18202004347566540823
20653085 51 17846499287280444397
22802520 49 17749658705442034124
23402539 116 18261410952330832357
23557571 272 18117837707681647312
23559900 14 18187656825516674938
305870 269 18051133897462150425
6992083 37 18060424663606231092
74978 22 18412822486931549492
77492 1 17918283060010209048
81228 2 18262792961169132043

> <PUBCHEM_SHAPE_MULTIPOLES>
267.3
4.54
1.88
1.32
2.6
1.13
0.01
-1.19
0.87
-1.65
-0.18
0.35
-0.26
-0.23

> <PUBCHEM_SHAPE_SELFOVERLAP>
562.67

> <PUBCHEM_SHAPE_VOLUME>
148.3

> <PUBCHEM_COORDINATE_TYPE>
2
5
10

$$$$

