23668837
  -OEChem-07051213032D

 36 36  0     1  0  0  0  0  0999 V2000
    6.3301   -1.8444    0.0000 S   0  0  0  0  0  0  0  0  0  0  0  0
    5.4641    2.6556    0.0000 Na  0  3  0  0  0  0  0  0  0  0  0  0
    8.9101    0.3683    0.0000 O   0  0  0  0  0  0  0  0  0  0  0  0
    3.7320   -0.3444    0.0000 O   0  0  0  0  0  0  0  0  0  0  0  0
    5.4641    1.6556    0.0000 O   0  5  0  0  0  0  0  0  0  0  0  0
    7.1962    1.6556    0.0000 O   0  0  0  0  0  0  0  0  0  0  0  0
   10.1373   -0.8349    0.0000 O   0  0  0  0  0  0  0  0  0  0  0  0
    2.8660    1.1556    0.0000 O   0  0  0  0  0  0  0  0  0  0  0  0
    7.1962   -0.3444    0.0000 N   0  0  0  0  0  0  0  0  0  0  0  0
    8.9101   -2.0571    0.0000 N   0  0  0  0  0  0  0  0  0  0  0  0
   12.5151   -1.9951    0.0000 N   0  0  0  0  0  0  0  0  0  0  0  0
    7.1962   -1.3444    0.0000 C   0  0  1  0  0  0  0  0  0  0  0  0
    8.2044   -1.3485    0.0000 C   0  0  1  0  0  0  0  0  0  0  0  0
    8.2044   -0.3402    0.0000 C   0  0  0  0  0  0  0  0  0  0  0  0
    6.3301    0.1556    0.0000 C   0  0  0  0  0  0  0  0  0  0  0  0
    5.4641   -0.3444    0.0000 C   0  0  0  0  0  0  0  0  0  0  0  0
    5.4641   -1.3444    0.0000 C   0  0  0  0  0  0  0  0  0  0  0  0
    4.5981    0.1556    0.0000 C   0  0  0  0  0  0  0  0  0  0  0  0
    6.3301    1.1556    0.0000 C   0  0  0  0  0  0  0  0  0  0  0  0
    9.8765   -1.8002    0.0000 C   0  0  0  0  0  0  0  0  0  0  0  0
   10.5822   -2.5088    0.0000 C   0  0  0  0  0  0  0  0  0  0  0  0
    2.8660    0.1556    0.0000 C   0  0  0  0  0  0  0  0  0  0  0  0
   11.5486   -2.2520    0.0000 C   0  0  0  0  0  0  0  0  0  0  0  0
    2.0000   -0.3444    0.0000 C   0  0  0  0  0  0  0  0  0  0  0  0
    7.4145   -2.1659    0.0000 H   0  0  0  0  0  0  0  0  0  0  0  0
    7.9654   -1.9206    0.0000 H   0  0  0  0  0  0  0  0  0  0  0  0
    4.8535   -1.2367    0.0000 H   0  0  0  0  0  0  0  0  0  0  0  0
    5.2520   -1.9270    0.0000 H   0  0  0  0  0  0  0  0  0  0  0  0
    8.7484   -2.6556    0.0000 H   0  0  0  0  0  0  0  0  0  0  0  0
    4.9966    0.6306    0.0000 H   0  0  0  0  0  0  0  0  0  0  0  0
    4.1996    0.6306    0.0000 H   0  0  0  0  0  0  0  0  0  0  0  0
   10.0736   -2.8634    0.0000 H   0  0  0  0  0  0  0  0  0  0  0  0
   10.8431   -3.0712    0.0000 H   0  0  0  0  0  0  0  0  0  0  0  0
    1.6900    0.1926    0.0000 H   0  0  0  0  0  0  0  0  0  0  0  0
    1.4631   -0.6544    0.0000 H   0  0  0  0  0  0  0  0  0  0  0  0
    2.3100   -0.8813    0.0000 H   0  0  0  0  0  0  0  0  0  0  0  0
  1 12  1  0  0  0  0
  1 17  1  0  0  0  0
  3 14  2  0  0  0  0
  4 18  1  0  0  0  0
  4 22  1  0  0  0  0
  5 19  1  0  0  0  0
  6 19  2  0  0  0  0
  7 20  2  0  0  0  0
  8 22  2  0  0  0  0
  9 12  1  0  0  0  0
  9 14  1  0  0  0  0
  9 15  1  0  0  0  0
 13 10  1  1  0  0  0
 10 20  1  0  0  0  0
 10 29  1  0  0  0  0
 11 23  3  0  0  0  0
 12 13  1  0  0  0  0
 12 25  1  6  0  0  0
 13 14  1  0  0  0  0
 13 26  1  0  0  0  0
 15 16  2  0  0  0  0
 15 19  1  0  0  0  0
 16 17  1  0  0  0  0
 16 18  1  0  0  0  0
 17 27  1  0  0  0  0
 17 28  1  0  0  0  0
 18 30  1  0  0  0  0
 18 31  1  0  0  0  0
 20 21  1  0  0  0  0
 21 23  1  0  0  0  0
 21 32  1  0  0  0  0
 21 33  1  0  0  0  0
 22 24  1  0  0  0  0
 24 34  1  0  0  0  0
 24 35  1  0  0  0  0
 24 36  1  0  0  0  0
M  CHG  2   2   1   5  -1
M  END
> <PUBCHEM_COMPOUND_CID>
23668837

> <PUBCHEM_COMPOUND_CANONICALIZED>
1

> <PUBCHEM_CACTVS_COMPLEXITY>
670

> <PUBCHEM_CACTVS_HBOND_ACCEPTOR>
8

> <PUBCHEM_CACTVS_HBOND_DONOR>
1

> <PUBCHEM_CACTVS_ROTATABLE_BOND>
6

> <PUBCHEM_CACTVS_SUBSKEYS>
AAADccBzOCBAAAAAAAAAAAAAAABYAAAAAAAgAAAAAAAQAAAAAAAAHgQQAAAADCjlwAaCCAPABAiYBgXQWAAAAABAABAACIGIAEACxAggICAWEAAAFgCwIQAAAAAAAAAAAAAAAAAAAAAAAAAAAAAAAAAAAA==

> <PUBCHEM_IUPAC_OPENEYE_NAME>
sodium (6R,7R)-3-(acetoxymethyl)-7-[(2-cyanoacetyl)amino]-8-oxo-5-thia-1-azabicyclo[4.2.0]oct-2-ene-2-carboxylate

> <PUBCHEM_IUPAC_CAS_NAME>
sodium (6R,7R)-3-(acetyloxymethyl)-7-[(2-cyano-1-oxoethyl)amino]-8-oxo-5-thia-1-azabicyclo[4.2.0]oct-2-ene-2-carboxylate

> <PUBCHEM_IUPAC_NAME>
sodium (6R,7R)-3-(acetyloxymethyl)-7-[(2-cyanoacetyl)amino]-8-oxo-5-thia-1-azabicyclo[4.2.0]oct-2-ene-2-carboxylate

> <PUBCHEM_IUPAC_SYSTEMATIC_NAME>
sodium (6R,7R)-3-(acetyloxymethyl)-7-(2-cyanoethanoylamino)-8-oxidanylidene-5-thia-1-azabicyclo[4.2.0]oct-2-ene-2-carboxylate

> <PUBCHEM_IUPAC_TRADITIONAL_NAME>
sodium (6R,7R)-3-(acetoxymethyl)-7-[(2-cyanoacetyl)amino]-8-keto-5-thia-1-azabicyclo[4.2.0]oct-2-ene-2-carboxylate

> <PUBCHEM_IUPAC_INCHI>
InChI=1S/C13H13N3O6S.Na/c1-6(17)22-4-7-5-23-12-9(15-8(18)2-3-14)11(19)16(12)10(7)13(20)21;/h9,12H,2,4-5H2,1H3,(H,15,18)(H,20,21);/q;+1/p-1/t9-,12-;/m1./s1

> <PUBCHEM_IUPAC_INCHIKEY>
GXCRUTWHNMMJEK-WYUVZMMLSA-M

> <PUBCHEM_EXACT_MASS>
361.03445

> <PUBCHEM_MOLECULAR_FORMULA>
C13H12N3NaO6S

> <PUBCHEM_MOLECULAR_WEIGHT>
361.305649

> <PUBCHEM_OPENEYE_CAN_SMILES>
CC(=O)OCC1=C(N2C(C(C2=O)NC(=O)CC#N)SC1)C(=O)[O-].[Na+]

> <PUBCHEM_OPENEYE_ISO_SMILES>
CC(=O)OCC1=C(N2[C@@H]([C@@H](C2=O)NC(=O)CC#N)SC1)C(=O)[O-].[Na+]

> <PUBCHEM_CACTVS_TPSA>
165

> <PUBCHEM_MONOISOTOPIC_WEIGHT>
361.03445

> <PUBCHEM_TOTAL_CHARGE>
0

> <PUBCHEM_HEAVY_ATOM_COUNT>
24

> <PUBCHEM_ATOM_DEF_STEREO_COUNT>
2

> <PUBCHEM_ATOM_UDEF_STEREO_COUNT>
0

> <PUBCHEM_BOND_DEF_STEREO_COUNT>
0

> <PUBCHEM_BOND_UDEF_STEREO_COUNT>
0

> <PUBCHEM_ISOTOPIC_ATOM_COUNT>
0

> <PUBCHEM_COMPONENT_COUNT>
2

> <PUBCHEM_CACTVS_TAUTO_COUNT>
4

> <PUBCHEM_NONSTANDARDBOND>
2  5  7

> <PUBCHEM_COORDINATE_TYPE>
1
5
255

> <PUBCHEM_BONDANNOTATIONS>
13  10  5
12  25  6

$$$$

