5281246
  -OEChem-07051212552D

 97 99  0     1  0  0  0  0  0999 V2000
    4.6783    4.4518    0.0000 O   0  0  0  0  0  0  0  0  0  0  0  0
    3.7320    4.1471    0.0000 C   0  0  3  0  0  0  0  0  0  0  0  0
    2.8660    2.6471    0.0000 C   0  0  0  0  0  0  0  0  0  0  0  0
    3.7320    3.1471    0.0000 C   0  0  0  0  0  0  0  0  0  0  0  0
    2.8660    4.6471    0.0000 C   0  0  0  0  0  0  0  0  0  0  0  0
    2.0000    3.1471    0.0000 C   0  0  0  0  0  0  0  0  0  0  0  0
    2.0000    4.1471    0.0000 C   0  0  0  0  0  0  0  0  0  0  0  0
    4.6783    2.8424    0.0000 C   0  0  0  0  0  0  0  0  0  0  0  0
    5.2619    3.6471    0.0000 C   0  0  3  0  0  0  0  0  0  0  0  0
    3.7320    5.1471    0.0000 C   0  0  0  0  0  0  0  0  0  0  0  0
    2.3660    1.7811    0.0000 C   0  0  0  0  0  0  0  0  0  0  0  0
    3.3660    1.7811    0.0000 C   0  0  0  0  0  0  0  0  0  0  0  0
    6.2619    3.6471    0.0000 C   0  0  0  0  0  0  0  0  0  0  0  0
    6.7619    4.5131    0.0000 C   0  0  0  0  0  0  0  0  0  0  0  0
    6.7619    2.7811    0.0000 C   0  0  0  0  0  0  0  0  0  0  0  0
   18.7619   -4.1471    0.0000 C   0  0  0  0  0  0  0  0  0  0  0  0
   19.7619   -4.1471    0.0000 C   0  0  0  0  0  0  0  0  0  0  0  0
   20.2619   -3.2811    0.0000 C   0  0  0  0  0  0  0  0  0  0  0  0
   18.2619   -3.2811    0.0000 C   0  0  0  0  0  0  0  0  0  0  0  0
   19.7619   -2.4151    0.0000 C   0  0  0  0  0  0  0  0  0  0  0  0
   18.7619   -2.4151    0.0000 C   0  0  0  0  0  0  0  0  0  0  0  0
   18.7619   -5.1471    0.0000 C   0  0  0  0  0  0  0  0  0  0  0  0
   17.8959   -4.6471    0.0000 C   0  0  0  0  0  0  0  0  0  0  0  0
    7.7619    2.7811    0.0000 C   0  0  0  0  0  0  0  0  0  0  0  0
   17.2619   -3.2811    0.0000 C   0  0  0  0  0  0  0  0  0  0  0  0
   18.2619   -1.5490    0.0000 C   0  0  0  0  0  0  0  0  0  0  0  0
    8.2619    1.9151    0.0000 C   0  0  0  0  0  0  0  0  0  0  0  0
   16.7619   -2.4151    0.0000 C   0  0  0  0  0  0  0  0  0  0  0  0
    9.2619    1.9151    0.0000 C   0  0  0  0  0  0  0  0  0  0  0  0
   15.7619   -2.4151    0.0000 C   0  0  0  0  0  0  0  0  0  0  0  0
    9.7619    2.7811    0.0000 C   0  0  0  0  0  0  0  0  0  0  0  0
    9.7619    1.0490    0.0000 C   0  0  0  0  0  0  0  0  0  0  0  0
   15.2619   -3.2811    0.0000 C   0  0  0  0  0  0  0  0  0  0  0  0
   15.2619   -1.5490    0.0000 C   0  0  0  0  0  0  0  0  0  0  0  0
   10.7619    1.0490    0.0000 C   0  0  0  0  0  0  0  0  0  0  0  0
   14.2619   -1.5490    0.0000 C   0  0  0  0  0  0  0  0  0  0  0  0
   11.2619    0.1830    0.0000 C   0  0  0  0  0  0  0  0  0  0  0  0
   13.7619   -0.6830    0.0000 C   0  0  0  0  0  0  0  0  0  0  0  0
   12.7619   -0.6830    0.0000 C   0  0  0  0  0  0  0  0  0  0  0  0
   12.2619    0.1830    0.0000 C   0  0  0  0  0  0  0  0  0  0  0  0
   12.2619   -1.5490    0.0000 C   0  0  0  0  0  0  0  0  0  0  0  0
    3.2646    5.1221    0.0000 H   0  0  0  0  0  0  0  0  0  0  0  0
    2.4675    5.1221    0.0000 H   0  0  0  0  0  0  0  0  0  0  0  0
    1.3894    3.2548    0.0000 H   0  0  0  0  0  0  0  0  0  0  0  0
    1.7880    2.5645    0.0000 H   0  0  0  0  0  0  0  0  0  0  0  0
    1.7880    4.7297    0.0000 H   0  0  0  0  0  0  0  0  0  0  0  0
    1.3894    4.0395    0.0000 H   0  0  0  0  0  0  0  0  0  0  0  0
    4.8709    2.2531    0.0000 H   0  0  0  0  0  0  0  0  0  0  0  0
    5.6481    4.4043    0.0000 H   0  0  0  0  0  0  0  0  0  0  0  0
    4.3520    5.1471    0.0000 H   0  0  0  0  0  0  0  0  0  0  0  0
    3.7320    5.7671    0.0000 H   0  0  0  0  0  0  0  0  0  0  0  0
    3.1120    5.1471    0.0000 H   0  0  0  0  0  0  0  0  0  0  0  0
    2.8291    1.4711    0.0000 H   0  0  0  0  0  0  0  0  0  0  0  0
    3.6760    1.2442    0.0000 H   0  0  0  0  0  0  0  0  0  0  0  0
    3.9030    2.0911    0.0000 H   0  0  0  0  0  0  0  0  0  0  0  0
    1.8291    2.0911    0.0000 H   0  0  0  0  0  0  0  0  0  0  0  0
    2.0560    1.2442    0.0000 H   0  0  0  0  0  0  0  0  0  0  0  0
    2.9030    1.4711    0.0000 H   0  0  0  0  0  0  0  0  0  0  0  0
    7.2988    4.2031    0.0000 H   0  0  0  0  0  0  0  0  0  0  0  0
    7.0719    5.0501    0.0000 H   0  0  0  0  0  0  0  0  0  0  0  0
    6.2249    4.8231    0.0000 H   0  0  0  0  0  0  0  0  0  0  0  0
    6.4519    2.2442    0.0000 H   0  0  0  0  0  0  0  0  0  0  0  0
   19.6542   -4.7577    0.0000 H   0  0  0  0  0  0  0  0  0  0  0  0
   20.3445   -4.3592    0.0000 H   0  0  0  0  0  0  0  0  0  0  0  0
   20.7368   -3.6796    0.0000 H   0  0  0  0  0  0  0  0  0  0  0  0
   20.7368   -2.8826    0.0000 H   0  0  0  0  0  0  0  0  0  0  0  0
   20.3445   -2.2030    0.0000 H   0  0  0  0  0  0  0  0  0  0  0  0
   19.6542   -1.8045    0.0000 H   0  0  0  0  0  0  0  0  0  0  0  0
   18.1419   -5.1471    0.0000 H   0  0  0  0  0  0  0  0  0  0  0  0
   17.5859   -4.1102    0.0000 H   0  0  0  0  0  0  0  0  0  0  0  0
   17.3589   -4.9571    0.0000 H   0  0  0  0  0  0  0  0  0  0  0  0
   18.2059   -5.1840    0.0000 H   0  0  0  0  0  0  0  0  0  0  0  0
   18.7619   -5.7671    0.0000 H   0  0  0  0  0  0  0  0  0  0  0  0
   19.3819   -5.1471    0.0000 H   0  0  0  0  0  0  0  0  0  0  0  0
    8.0719    3.3180    0.0000 H   0  0  0  0  0  0  0  0  0  0  0  0
   16.9519   -3.8180    0.0000 H   0  0  0  0  0  0  0  0  0  0  0  0
   18.7988   -1.2390    0.0000 H   0  0  0  0  0  0  0  0  0  0  0  0
   17.9519   -1.0121    0.0000 H   0  0  0  0  0  0  0  0  0  0  0  0
   17.7249   -1.8590    0.0000 H   0  0  0  0  0  0  0  0  0  0  0  0
    7.9519    1.3781    0.0000 H   0  0  0  0  0  0  0  0  0  0  0  0
   17.0719   -1.8781    0.0000 H   0  0  0  0  0  0  0  0  0  0  0  0
   10.2988    2.4711    0.0000 H   0  0  0  0  0  0  0  0  0  0  0  0
   10.0719    3.3180    0.0000 H   0  0  0  0  0  0  0  0  0  0  0  0
    9.2249    3.0911    0.0000 H   0  0  0  0  0  0  0  0  0  0  0  0
    9.4519    0.5121    0.0000 H   0  0  0  0  0  0  0  0  0  0  0  0
   14.7249   -2.9711    0.0000 H   0  0  0  0  0  0  0  0  0  0  0  0
   14.9519   -3.8180    0.0000 H   0  0  0  0  0  0  0  0  0  0  0  0
   15.7988   -3.5911    0.0000 H   0  0  0  0  0  0  0  0  0  0  0  0
   15.5719   -1.0121    0.0000 H   0  0  0  0  0  0  0  0  0  0  0  0
   11.0719    1.5860    0.0000 H   0  0  0  0  0  0  0  0  0  0  0  0
   13.9519   -2.0860    0.0000 H   0  0  0  0  0  0  0  0  0  0  0  0
   14.0719   -0.1461    0.0000 H   0  0  0  0  0  0  0  0  0  0  0  0
   10.9519   -0.3539    0.0000 H   0  0  0  0  0  0  0  0  0  0  0  0
   12.5719    0.7199    0.0000 H   0  0  0  0  0  0  0  0  0  0  0  0
   11.7249   -1.2390    0.0000 H   0  0  0  0  0  0  0  0  0  0  0  0
   11.9519   -2.0860    0.0000 H   0  0  0  0  0  0  0  0  0  0  0  0
   12.7988   -1.8590    0.0000 H   0  0  0  0  0  0  0  0  0  0  0  0
  1  2  1  0  0  0  0
  1  9  1  0  0  0  0
  2  4  1  0  0  0  0
  2  5  1  0  0  0  0
  2 10  1  0  0  0  0
  3  4  1  0  0  0  0
  3  6  1  0  0  0  0
  3 11  1  0  0  0  0
  3 12  1  0  0  0  0
  4  8  2  0  0  0  0
  5  7  1  0  0  0  0
  5 42  1  0  0  0  0
  5 43  1  0  0  0  0
  6  7  1  0  0  0  0
  6 44  1  0  0  0  0
  6 45  1  0  0  0  0
  7 46  1  0  0  0  0
  7 47  1  0  0  0  0
  8  9  1  0  0  0  0
  8 48  1  0  0  0  0
  9 13  1  0  0  0  0
  9 49  1  0  0  0  0
 10 50  1  0  0  0  0
 10 51  1  0  0  0  0
 10 52  1  0  0  0  0
 11 56  1  0  0  0  0
 11 57  1  0  0  0  0
 11 58  1  0  0  0  0
 12 53  1  0  0  0  0
 12 54  1  0  0  0  0
 12 55  1  0  0  0  0
 13 14  1  0  0  0  0
 13 15  2  0  0  0  0
 14 59  1  0  0  0  0
 14 60  1  0  0  0  0
 14 61  1  0  0  0  0
 15 24  1  0  0  0  0
 15 62  1  0  0  0  0
 16 17  1  0  0  0  0
 16 19  1  0  0  0  0
 16 22  1  0  0  0  0
 16 23  1  0  0  0  0
 17 18  1  0  0  0  0
 17 63  1  0  0  0  0
 17 64  1  0  0  0  0
 18 20  1  0  0  0  0
 18 65  1  0  0  0  0
 18 66  1  0  0  0  0
 19 21  2  0  0  0  0
 19 25  1  0  0  0  0
 20 21  1  0  0  0  0
 20 67  1  0  0  0  0
 20 68  1  0  0  0  0
 21 26  1  0  0  0  0
 22 69  1  0  0  0  0
 22 73  1  0  0  0  0
 22 74  1  0  0  0  0
 23 70  1  0  0  0  0
 23 71  1  0  0  0  0
 23 72  1  0  0  0  0
 24 27  2  0  0  0  0
 24 75  1  0  0  0  0
 25 28  2  0  0  0  0
 25 76  1  0  0  0  0
 26 77  1  0  0  0  0
 26 78  1  0  0  0  0
 26 79  1  0  0  0  0
 27 29  1  0  0  0  0
 27 80  1  0  0  0  0
 28 30  1  0  0  0  0
 28 81  1  0  0  0  0
 29 31  1  0  0  0  0
 29 32  2  0  0  0  0
 30 33  1  0  0  0  0
 30 34  2  0  0  0  0
 31 82  1  0  0  0  0
 31 83  1  0  0  0  0
 31 84  1  0  0  0  0
 32 35  1  0  0  0  0
 32 85  1  0  0  0  0
 33 86  1  0  0  0  0
 33 87  1  0  0  0  0
 33 88  1  0  0  0  0
 34 36  1  0  0  0  0
 34 89  1  0  0  0  0
 35 37  2  0  0  0  0
 35 90  1  0  0  0  0
 36 38  2  0  0  0  0
 36 91  1  0  0  0  0
 37 40  1  0  0  0  0
 37 93  1  0  0  0  0
 38 39  1  0  0  0  0
 38 92  1  0  0  0  0
 39 40  2  0  0  0  0
 39 41  1  0  0  0  0
 40 94  1  0  0  0  0
 41 95  1  0  0  0  0
 41 96  1  0  0  0  0
 41 97  1  0  0  0  0
M  END
> <PUBCHEM_COMPOUND_CID>
5281246

> <PUBCHEM_COMPOUND_CANONICALIZED>
1

> <PUBCHEM_CACTVS_COMPLEXITY>
1260

> <PUBCHEM_CACTVS_HBOND_ACCEPTOR>
1

> <PUBCHEM_CACTVS_HBOND_DONOR>
0

> <PUBCHEM_CACTVS_ROTATABLE_BOND>
9

> <PUBCHEM_CACTVS_SUBSKEYS>
AAADcfB8IAAAAAAAAAAAAAAAAAAAAQAAAAAwQAAAAAAAAEAAAAAAGgAAAAAADlSggAICAAAABACAAiBCAAAAAAAgAAAICAAAAAgIBAIAIQACEAAEgAAIoAOAwNAPAAAAAAAAAAAAAAYAAAAAAAAAAAAAAA==

> <PUBCHEM_IUPAC_OPENEYE_NAME>
4,4,7a-trimethyl-2-[(1E,3E,5E,7E,9E,11E,13E,15E)-1,5,10,14-tetramethyl-16-(2,6,6-trimethylcyclohexen-1-yl)hexadeca-1,3,5,7,9,11,13,15-octaenyl]-2,5,6,7-tetrahydrobenzofuran

> <PUBCHEM_IUPAC_CAS_NAME>
4,4,7a-trimethyl-2-[(2E,4E,6E,8E,10E,12E,14E,16E)-6,11,15-trimethyl-17-(2,6,6-trimethyl-1-cyclohexenyl)heptadeca-2,4,6,8,10,12,14,16-octaen-2-yl]-2,5,6,7-tetrahydrobenzofuran

> <PUBCHEM_IUPAC_NAME>
4,4,7a-trimethyl-2-[(2E,4E,6E,8E,10E,12E,14E,16E)-6,11,15-trimethyl-17-(2,6,6-trimethylcyclohexen-1-yl)heptadeca-2,4,6,8,10,12,14,16-octaen-2-yl]-2,5,6,7-tetrahydro-1-benzofuran

> <PUBCHEM_IUPAC_SYSTEMATIC_NAME>
4,4,7a-trimethyl-2-[(2E,4E,6E,8E,10E,12E,14E,16E)-6,11,15-trimethyl-17-(2,6,6-trimethylcyclohexen-1-yl)heptadeca-2,4,6,8,10,12,14,16-octaen-2-yl]-2,5,6,7-tetrahydro-1-benzofuran

> <PUBCHEM_IUPAC_TRADITIONAL_NAME>
4,4,7a-trimethyl-2-[(1E,3E,5E,7E,9E,11E,13E,15E)-1,5,10,14-tetramethyl-16-(2,6,6-trimethylcyclohexen-1-yl)hexadeca-1,3,5,7,9,11,13,15-octaenyl]-2,5,6,7-tetrahydrobenzofuran

> <PUBCHEM_IUPAC_INCHI>
InChI=1S/C40H56O/c1-30(19-13-20-32(3)24-25-35-33(4)23-15-26-38(35,6)7)17-11-12-18-31(2)21-14-22-34(5)36-29-37-39(8,9)27-16-28-40(37,10)41-36/h11-14,17-22,24-25,29,36H,15-16,23,26-28H2,1-10H3/b12-11+,19-13+,21-14+,25-24+,30-17+,31-18+,32-20+,34-22+

> <PUBCHEM_IUPAC_INCHIKEY>
GFPJSSAOISEBQL-FZKBJVJCSA-N

> <PUBCHEM_XLOGP3_AA>
12.5

> <PUBCHEM_EXACT_MASS>
552.433116

> <PUBCHEM_MOLECULAR_FORMULA>
C40H56O

> <PUBCHEM_MOLECULAR_WEIGHT>
552.87204

> <PUBCHEM_OPENEYE_CAN_SMILES>
CC1=C(C(CCC1)(C)C)C=CC(=CC=CC(=CC=CC=C(C)C=CC=C(C)C2C=C3C(CCCC3(O2)C)(C)C)C)C

> <PUBCHEM_OPENEYE_ISO_SMILES>
CC1=C(C(CCC1)(C)C)/C=C/C(=C/C=C/C(=C/C=C/C=C(\C)/C=C/C=C(\C)/C2C=C3C(CCCC3(O2)C)(C)C)/C)/C

> <PUBCHEM_CACTVS_TPSA>
9.2

> <PUBCHEM_MONOISOTOPIC_WEIGHT>
552.433116

> <PUBCHEM_TOTAL_CHARGE>
0

> <PUBCHEM_HEAVY_ATOM_COUNT>
41

> <PUBCHEM_ATOM_DEF_STEREO_COUNT>
0

> <PUBCHEM_ATOM_UDEF_STEREO_COUNT>
2

> <PUBCHEM_BOND_DEF_STEREO_COUNT>
8

> <PUBCHEM_BOND_UDEF_STEREO_COUNT>
0

> <PUBCHEM_ISOTOPIC_ATOM_COUNT>
0

> <PUBCHEM_COMPONENT_COUNT>
1

> <PUBCHEM_CACTVS_TAUTO_COUNT>
1

> <PUBCHEM_COORDINATE_TYPE>
1
5
255

> <PUBCHEM_BONDANNOTATIONS>
2  10  3
9  49  3

$$$$

