442951
  -OEChem-07051213003D

 39 39  0     1  0  0  0  0  0999 V2000
    2.6531    1.5735    0.7044 O   0  0  0  0  0  0  0  0  0  0  0  0
   -3.0393   -1.7968   -0.6695 O   0  0  0  0  0  0  0  0  0  0  0  0
   -2.3600    2.8821    0.0694 O   0  0  0  0  0  0  0  0  0  0  0  0
   -0.8463   -3.2825   -0.4105 O   0  0  0  0  0  0  0  0  0  0  0  0
    1.1638   -0.2281    1.3253 C   0  0  2  0  0  0  0  0  0  0  0  0
    2.8334   -0.4038   -0.6681 C   0  0  1  0  0  0  0  0  0  0  0  0
    2.2507    0.4323    0.4736 C   0  0  0  0  0  0  0  0  0  0  0  0
   -0.2129    0.0238    0.7448 C   0  0  0  0  0  0  0  0  0  0  0  0
    3.2927    0.4707   -1.8439 C   0  0  0  0  0  0  0  0  0  0  0  0
    1.2519    0.2182    2.7865 C   0  0  0  0  0  0  0  0  0  0  0  0
    3.9985   -1.2213   -0.1156 C   0  0  0  0  0  0  0  0  0  0  0  0
   -0.9920   -1.0313    0.3025 C   0  0  0  0  0  0  0  0  0  0  0  0
   -0.6589    1.3328    0.6718 C   0  0  0  0  0  0  0  0  0  0  0  0
    2.1469    1.2465   -2.4808 C   0  0  0  0  0  0  0  0  0  0  0  0
   -2.2553   -0.7705   -0.2285 C   0  0  0  0  0  0  0  0  0  0  0  0
   -2.7203    0.5421   -0.3096 C   0  0  0  0  0  0  0  0  0  0  0  0
   -1.9221    1.5937    0.1405 C   0  0  0  0  0  0  0  0  0  0  0  0
   -0.5099   -2.4056    0.3863 C   0  0  0  0  0  0  0  0  0  0  0  0
   -4.0739    0.8241   -0.8787 C   0  0  0  0  0  0  0  0  0  0  0  0
    1.4408   -1.2820    1.3409 H   0  0  0  0  0  0  0  0  0  0  0  0
    2.0539   -1.0851   -1.0291 H   0  0  0  0  0  0  0  0  0  0  0  0
    4.0636    1.1799   -1.5183 H   0  0  0  0  0  0  0  0  0  0  0  0
    3.7505   -0.1656   -2.6111 H   0  0  0  0  0  0  0  0  0  0  0  0
    1.0960    1.2956    2.9078 H   0  0  0  0  0  0  0  0  0  0  0  0
    0.5066   -0.3002    3.4000 H   0  0  0  0  0  0  0  0  0  0  0  0
    2.2432   -0.0080    3.1957 H   0  0  0  0  0  0  0  0  0  0  0  0
    3.6752   -1.8672    0.7074 H   0  0  0  0  0  0  0  0  0  0  0  0
    4.4295   -1.8602   -0.8933 H   0  0  0  0  0  0  0  0  0  0  0  0
    4.7916   -0.5713    0.2706 H   0  0  0  0  0  0  0  0  0  0  0  0
   -0.0481    2.1630    1.0147 H   0  0  0  0  0  0  0  0  0  0  0  0
    1.7109    1.9720   -1.7881 H   0  0  0  0  0  0  0  0  0  0  0  0
    1.3536    0.5694   -2.8138 H   0  0  0  0  0  0  0  0  0  0  0  0
    2.5084    1.7981   -3.3545 H   0  0  0  0  0  0  0  0  0  0  0  0
    0.1378   -2.6831    1.2300 H   0  0  0  0  0  0  0  0  0  0  0  0
   -3.9901    1.4660   -1.7625 H   0  0  0  0  0  0  0  0  0  0  0  0
   -4.6036   -0.0791   -1.1967 H   0  0  0  0  0  0  0  0  0  0  0  0
   -4.7081    1.3127   -0.1310 H   0  0  0  0  0  0  0  0  0  0  0  0
   -2.6488   -2.6559   -0.4462 H   0  0  0  0  0  0  0  0  0  0  0  0
   -3.2477    2.9321   -0.3171 H   0  0  0  0  0  0  0  0  0  0  0  0
  1  7  2  0  0  0  0
  2 15  1  0  0  0  0
  2 38  1  0  0  0  0
  3 17  1  0  0  0  0
  3 39  1  0  0  0  0
  4 18  2  0  0  0  0
  5  7  1  0  0  0  0
  5  8  1  0  0  0  0
  5 10  1  0  0  0  0
  5 20  1  0  0  0  0
  6  7  1  0  0  0  0
  6  9  1  0  0  0  0
  6 11  1  0  0  0  0
  6 21  1  0  0  0  0
  8 12  1  0  0  0  0
  8 13  2  0  0  0  0
  9 14  1  0  0  0  0
  9 22  1  0  0  0  0
  9 23  1  0  0  0  0
 10 24  1  0  0  0  0
 10 25  1  0  0  0  0
 10 26  1  0  0  0  0
 11 27  1  0  0  0  0
 11 28  1  0  0  0  0
 11 29  1  0  0  0  0
 12 15  2  0  0  0  0
 12 18  1  0  0  0  0
 13 17  1  0  0  0  0
 13 30  1  0  0  0  0
 14 31  1  0  0  0  0
 14 32  1  0  0  0  0
 14 33  1  0  0  0  0
 15 16  1  0  0  0  0
 16 17  2  0  0  0  0
 16 19  1  0  0  0  0
 18 34  1  0  0  0  0
 19 35  1  0  0  0  0
 19 36  1  0  0  0  0
 19 37  1  0  0  0  0
M  END
> <PUBCHEM_COMPOUND_CID>
442951

> <PUBCHEM_CONFORMER_RMSD>
0.6

> <PUBCHEM_CONFORMER_DIVERSEORDER>
1
171
154
145
129
115
103
155
165
132
168
119
118
47
127
140
143
99
54
162
153
95
161
185
86
121
107
174
61
26
35
42
179
106
141
157
169
151
44
124
146
110
50
83
111
167
71
75
58
68
163
94
177
55
100
114
156
180
84
137
98
18
138
3
133
32
117
89
101
166
73
40
43
123
34
149
176
21
52
92
178
4
160
135
77
144
130
57
139
184
142
25
120
181
172
158
22
104
186
182
97
62
112
30
91
46
15
65
108
128
59
17
69
175
10
74
64
76
78
41
113
37
70
7
93
125
39
29
109
88
183
16
60
66
6
11
164
131
28
116
90
12
136
23
170
187
85
87
102
24
31
150
173
81
36
45
148
80
105
51
63
9
82
33
122
96
49
56
126
67
19
147
48
152
38
20
14
159
53
27
72
13
79
134
2
5
8

> <PUBCHEM_MMFF94_PARTIAL_CHARGES>
19
1 -0.57
12 0.09
13 -0.15
15 0.08
16 -0.14
17 0.08
18 0.42
19 0.14
2 -0.53
3 -0.53
30 0.15
34 0.06
38 0.45
39 0.45
4 -0.57
5 0.2
6 0.06
7 0.45
8 -0.14

> <PUBCHEM_EFFECTIVE_ROTOR_COUNT>
5

> <PUBCHEM_PHARMACOPHORE_FEATURES>
8
1 1 acceptor
1 10 hydrophobe
1 11 hydrophobe
1 14 hydrophobe
1 2 donor
1 3 donor
1 4 acceptor
6 8 12 13 15 16 17 rings

> <PUBCHEM_HEAVY_ATOM_COUNT>
19

> <PUBCHEM_ATOM_DEF_STEREO_COUNT>
0

> <PUBCHEM_ATOM_UDEF_STEREO_COUNT>
2

> <PUBCHEM_BOND_DEF_STEREO_COUNT>
0

> <PUBCHEM_BOND_UDEF_STEREO_COUNT>
0

> <PUBCHEM_ISOTOPIC_ATOM_COUNT>
0

> <PUBCHEM_COMPONENT_COUNT>
1

> <PUBCHEM_CACTVS_TAUTO_COUNT>
62

> <PUBCHEM_CONFORMER_ID>
0006C24700000001

> <PUBCHEM_MMFF94_ENERGY>
51.1109

> <PUBCHEM_FEATURE_SELFOVERLAP>
40.594

> <PUBCHEM_SHAPE_FINGERPRINT>
10498660 4 18340216223659129621
11370993 70 18336270132287938422
11640471 11 17632582600016265804
12173636 292 18411420626559300693
12202030 40 17313939697811875110
12363563 72 16660913474509309870
128993 33 14547015392626927756
13538477 17 18129681745503851899
14115302 16 18410852174937311302
14817 1 12011362371180306506
15207287 21 17313110773698445350
15375462 175 18409171017226194795
16752209 62 18341062826227364351
16945 1 18197490736280537784
17357990 137 17775010119495427192
18186145 218 18186798088821835857
19868273 293 18343014488982772142
20361792 2 14851597800117388248
20600515 1 17972353739166907833
20645476 183 17775570836002882483
20645477 70 16081382833742864869
20739085 24 14870162337020122969
21524375 3 18201155584750880635
22802520 49 18259981544096108978
23419403 2 17025750180264592040
23493267 7 17917428765588200643
23526113 38 17458065984304731194
23557571 272 18192712233224436760
23559900 14 18187372034746161898
23598291 2 17630909263572581082
2748010 2 18120961429122383905
298252 57 18200583817393053274
3060560 45 18199761390968984516
5262128 65 17676200269245496608
77492 1 17775014500087788632
81228 2 18047485430450989499
9981440 41 17483100554621831436

> <PUBCHEM_SHAPE_MULTIPOLES>
367.53
6.09
2.51
1.86
0.46
1.04
-0.37
-1.14
2.62
-1.41
0.5
1.63
-0.53
-0.71

> <PUBCHEM_SHAPE_SELFOVERLAP>
760.687

> <PUBCHEM_SHAPE_VOLUME>
211.6

> <PUBCHEM_COORDINATE_TYPE>
2
5
10

$$$$

