151011
  -OEChem-07051212523D

 13 13  0     0  0  0  0  0  0999 V2000
   -1.7526   -1.7839    0.0000 O   0  0  0  0  0  0  0  0  0  0  0  0
   -2.3446    0.9399    0.0000 O   0  0  0  0  0  0  0  0  0  0  0  0
    2.7843   -0.4838   -0.0001 O   0  0  0  0  0  0  0  0  0  0  0  0
   -0.7623   -0.8239    0.0000 C   0  0  0  0  0  0  0  0  0  0  0  0
   -1.1651    0.6038    0.0000 C   0  0  0  0  0  0  0  0  0  0  0  0
    0.5272   -1.1720   -0.0001 C   0  0  0  0  0  0  0  0  0  0  0  0
    1.6023   -0.1581    0.0001 C   0  0  0  0  0  0  0  0  0  0  0  0
   -0.0878    1.6157   -0.0001 C   0  0  0  0  0  0  0  0  0  0  0  0
    1.1986    1.2622    0.0001 C   0  0  0  0  0  0  0  0  0  0  0  0
    0.8286   -2.2143   -0.0001 H   0  0  0  0  0  0  0  0  0  0  0  0
   -0.3786    2.6603   -0.0001 H   0  0  0  0  0  0  0  0  0  0  0  0
    1.9834    2.0102    0.0001 H   0  0  0  0  0  0  0  0  0  0  0  0
   -2.6077   -1.3199    0.0000 H   0  0  0  0  0  0  0  0  0  0  0  0
  1  4  1  0  0  0  0
  1 13  1  0  0  0  0
  2  5  2  0  0  0  0
  3  7  2  0  0  0  0
  4  5  1  0  0  0  0
  4  6  2  0  0  0  0
  5  8  1  0  0  0  0
  6  7  1  0  0  0  0
  6 10  1  0  0  0  0
  7  9  1  0  0  0  0
  8  9  2  0  0  0  0
  8 11  1  0  0  0  0
  9 12  1  0  0  0  0
M  END
> <PUBCHEM_COMPOUND_CID>
151011

> <PUBCHEM_CONFORMER_RMSD>
0.4

> <PUBCHEM_CONFORMER_DIVERSEORDER>
1

> <PUBCHEM_MMFF94_PARTIAL_CHARGES>
13
1 -0.53
10 0.15
11 0.15
12 0.15
13 0.45
2 -0.57
3 -0.57
4 0.09
5 0.54
6 -0.14
7 0.54
8 -0.14
9 -0.14

> <PUBCHEM_EFFECTIVE_ROTOR_COUNT>
0

> <PUBCHEM_PHARMACOPHORE_FEATURES>
4
1 1 donor
1 2 acceptor
1 3 acceptor
6 4 5 6 7 8 9 rings

> <PUBCHEM_HEAVY_ATOM_COUNT>
9

> <PUBCHEM_ATOM_DEF_STEREO_COUNT>
0

> <PUBCHEM_ATOM_UDEF_STEREO_COUNT>
0

> <PUBCHEM_BOND_DEF_STEREO_COUNT>
0

> <PUBCHEM_BOND_UDEF_STEREO_COUNT>
0

> <PUBCHEM_ISOTOPIC_ATOM_COUNT>
0

> <PUBCHEM_COMPONENT_COUNT>
1

> <PUBCHEM_CACTVS_TAUTO_COUNT>
3

> <PUBCHEM_CONFORMER_ID>
00024DE300000001

> <PUBCHEM_MMFF94_ENERGY>
15.8269

> <PUBCHEM_FEATURE_SELFOVERLAP>
20.297

> <PUBCHEM_SHAPE_FINGERPRINT>
16714656 1 18339358690235394700
16945 1 18338799025831779972
18185500 45 18413390955564394802
21040471 1 18266458887312249408
23235685 24 18264775526409744200
23552423 10 18200875063362352662
2748010 2 18338237046540980684
29004967 10 18200020888635172704
5084963 1 18187922811860315986

> <PUBCHEM_SHAPE_MULTIPOLES>
167.61
2.78
1.77
0.58
0.51
0.01
0
0.29
0
-0.46
0
0.02
-0.02
0

> <PUBCHEM_SHAPE_SELFOVERLAP>
350.674

> <PUBCHEM_SHAPE_VOLUME>
94

> <PUBCHEM_COORDINATE_TYPE>
2
5
10

$$$$

