854114
  -OEChem-06241222473D

 44 47  0     1  0  0  0  0  0999 V2000
    2.5143    1.6666   -0.5726 O   0  0  0  0  0  0  0  0  0  0  0  0
   -1.6953   -0.5930   -0.9837 O   0  0  0  0  0  0  0  0  0  0  0  0
    4.5314    2.7493   -0.3973 O   0  0  0  0  0  0  0  0  0  0  0  0
   -4.2568   -2.5756    0.6196 O   0  0  0  0  0  0  0  0  0  0  0  0
   -3.2695   -2.7772   -1.4103 O   0  0  0  0  0  0  0  0  0  0  0  0
    3.7674   -0.6648    0.3133 C   0  0  0  0  0  0  0  0  0  0  0  0
    4.6110   -1.7936    0.7970 C   0  0  0  0  0  0  0  0  0  0  0  0
    5.8849   -1.0745    1.2574 C   0  0  0  0  0  0  0  0  0  0  0  0
    5.9005    0.2839    0.5492 C   0  0  0  0  0  0  0  0  0  0  0  0
    4.4694    0.4623    0.1818 C   0  0  0  0  0  0  0  0  0  0  0  0
    2.3553   -0.7090   -0.0066 C   0  0  0  0  0  0  0  0  0  0  0  0
    1.7576    0.4754   -0.4456 C   0  0  0  0  0  0  0  0  0  0  0  0
    3.8773    1.7208   -0.2781 C   0  0  0  0  0  0  0  0  0  0  0  0
    0.4058    0.5393   -0.7777 C   0  0  0  0  0  0  0  0  0  0  0  0
    1.5673   -1.8574    0.0957 C   0  0  0  0  0  0  0  0  0  0  0  0
   -0.3696   -0.6124   -0.6696 C   0  0  0  0  0  0  0  0  0  0  0  0
    0.2091   -1.8070   -0.2349 C   0  0  0  0  0  0  0  0  0  0  0  0
   -0.2064    1.8191   -1.2435 C   0  0  0  0  0  0  0  0  0  0  0  0
   -2.6117   -0.9398    0.0525 C   0  0  1  0  0  0  0  0  0  0  0  0
   -3.5181    0.2387    0.3301 C   0  0  0  0  0  0  0  0  0  0  0  0
   -3.3817   -2.1862   -0.3440 C   0  0  0  0  0  0  0  0  0  0  0  0
   -3.8541    1.0928   -0.7066 C   0  0  0  0  0  0  0  0  0  0  0  0
   -3.9928    0.4393    1.6151 C   0  0  0  0  0  0  0  0  0  0  0  0
   -4.6897    2.1800   -0.4506 C   0  0  0  0  0  0  0  0  0  0  0  0
   -4.8286    1.5263    1.8711 C   0  0  0  0  0  0  0  0  0  0  0  0
   -5.1769    2.3968    0.8382 C   0  0  0  0  0  0  0  0  0  0  0  0
    4.1575   -2.3400    1.6297 H   0  0  0  0  0  0  0  0  0  0  0  0
    4.8253   -2.4937   -0.0176 H   0  0  0  0  0  0  0  0  0  0  0  0
    5.8487   -0.9221    2.3443 H   0  0  0  0  0  0  0  0  0  0  0  0
    6.7859   -1.6592    1.0446 H   0  0  0  0  0  0  0  0  0  0  0  0
    6.5271    0.2557   -0.3485 H   0  0  0  0  0  0  0  0  0  0  0  0
    6.2658    1.0699    1.2166 H   0  0  0  0  0  0  0  0  0  0  0  0
    1.9906   -2.8019    0.4271 H   0  0  0  0  0  0  0  0  0  0  0  0
   -0.3823   -2.7158   -0.1580 H   0  0  0  0  0  0  0  0  0  0  0  0
   -0.6599    2.3467   -0.3986 H   0  0  0  0  0  0  0  0  0  0  0  0
    0.5258    2.4823   -1.7152 H   0  0  0  0  0  0  0  0  0  0  0  0
   -0.9754    1.6386   -2.0020 H   0  0  0  0  0  0  0  0  0  0  0  0
   -2.0662   -1.1856    0.9750 H   0  0  0  0  0  0  0  0  0  0  0  0
   -3.5007    0.9357   -1.7212 H   0  0  0  0  0  0  0  0  0  0  0  0
   -3.7276   -0.2318    2.4268 H   0  0  0  0  0  0  0  0  0  0  0  0
   -4.9640    2.8557   -1.2554 H   0  0  0  0  0  0  0  0  0  0  0  0
   -5.2081    1.6951    2.8746 H   0  0  0  0  0  0  0  0  0  0  0  0
   -5.8283    3.2427    1.0375 H   0  0  0  0  0  0  0  0  0  0  0  0
   -4.7624   -3.3730    0.3534 H   0  0  0  0  0  0  0  0  0  0  0  0
  1 12  1  0  0  0  0
  1 13  1  0  0  0  0
  2 16  1  0  0  0  0
  2 19  1  0  0  0  0
  3 13  2  0  0  0  0
  4 21  1  0  0  0  0
  4 44  1  0  0  0  0
  5 21  2  0  0  0  0
  6  7  1  0  0  0  0
  6 10  2  0  0  0  0
  6 11  1  0  0  0  0
  7  8  1  0  0  0  0
  7 27  1  0  0  0  0
  7 28  1  0  0  0  0
  8  9  1  0  0  0  0
  8 29  1  0  0  0  0
  8 30  1  0  0  0  0
  9 10  1  0  0  0  0
  9 31  1  0  0  0  0
  9 32  1  0  0  0  0
 10 13  1  0  0  0  0
 11 12  2  0  0  0  0
 11 15  1  0  0  0  0
 12 14  1  0  0  0  0
 14 16  2  0  0  0  0
 14 18  1  0  0  0  0
 15 17  2  0  0  0  0
 15 33  1  0  0  0  0
 16 17  1  0  0  0  0
 17 34  1  0  0  0  0
 18 35  1  0  0  0  0
 18 36  1  0  0  0  0
 18 37  1  0  0  0  0
 19 20  1  0  0  0  0
 19 21  1  0  0  0  0
 19 38  1  0  0  0  0
 20 22  2  0  0  0  0
 20 23  1  0  0  0  0
 22 24  1  0  0  0  0
 22 39  1  0  0  0  0
 23 25  2  0  0  0  0
 23 40  1  0  0  0  0
 24 26  2  0  0  0  0
 24 41  1  0  0  0  0
 25 26  1  0  0  0  0
 25 42  1  0  0  0  0
 26 43  1  0  0  0  0
M  END
> <PUBCHEM_COMPOUND_CID>
854114

> <PUBCHEM_CONFORMER_RMSD>
0.8

> <PUBCHEM_CONFORMER_DIVERSEORDER>
1
15
5
2
6
13
11
17
10
14
16
12
9
4
8
3
7

> <PUBCHEM_MMFF94_PARTIAL_CHARGES>
33
1 -0.23
10 -0.12
11 0.03
12 0.08
13 0.71
14 -0.14
15 -0.15
16 0.08
17 -0.15
18 0.14
19 0.48
2 -0.36
20 -0.14
21 0.66
22 -0.15
23 -0.15
24 -0.15
25 -0.15
26 -0.15
3 -0.57
33 0.15
34 0.15
39 0.15
4 -0.65
40 0.15
41 0.15
42 0.15
43 0.15
44 0.5
5 -0.57
6 -0.17
7 0.14
9 0.14

> <PUBCHEM_EFFECTIVE_ROTOR_COUNT>
4.6

> <PUBCHEM_PHARMACOPHORE_FEATURES>
9
1 2 acceptor
1 3 acceptor
1 4 acceptor
1 5 acceptor
3 4 5 21 anion
5 6 7 8 9 10 rings
6 1 6 10 11 12 13 rings
6 11 12 14 15 16 17 rings
6 20 22 23 24 25 26 rings

> <PUBCHEM_HEAVY_ATOM_COUNT>
26

> <PUBCHEM_ATOM_DEF_STEREO_COUNT>
1

> <PUBCHEM_ATOM_UDEF_STEREO_COUNT>
0

> <PUBCHEM_BOND_DEF_STEREO_COUNT>
0

> <PUBCHEM_BOND_UDEF_STEREO_COUNT>
0

> <PUBCHEM_ISOTOPIC_ATOM_COUNT>
0

> <PUBCHEM_COMPONENT_COUNT>
1

> <PUBCHEM_CACTVS_TAUTO_COUNT>
1

> <PUBCHEM_CONFORMER_ID>
000D086200000001

> <PUBCHEM_MMFF94_ENERGY>
83.6728

> <PUBCHEM_FEATURE_SELFOVERLAP>
45.835

> <PUBCHEM_SHAPE_FINGERPRINT>
10 15 18343857827476316449
105312 117 16225768527675700829
10906281 52 18201148868403406274
11089746 13 17386300868923527848
11370993 144 18130505326889052707
11405975 8 18412546522054825890
12107183 9 18266743669667174458
12403259 118 18335147462080360106
12422481 6 18342461499348719172
12616971 3 18202844361834051236
12633257 1 18411139177083173168
12788726 201 17825677651002553239
13073987 5 18339364046344391088
13140716 1 18341894099460974103
13583140 156 16298678212991851582
13785724 45 18049723224904304026
14068700 675 17970366823419485583
14251758 9 18339921618808873276
14341114 176 18341330106368608928
14739800 52 17752496360919220504
14790565 3 17768518401462597636
14849402 71 18269836407657689392
15196674 1 18341899554501917740
15348495 7 17917703604450302256
15475509 8 18190443018077827108
15788980 27 17775567541567482054
1601671 61 18408885161630722772
17844677 252 18338513045634829438
1813 80 16702295776042040238
20511986 3 18337124430920356203
20715895 44 18191586565314867761
20739085 24 18131340917462159148
21065198 48 18411698742676179350
21130935 74 18336839628457854026
21236236 1 18410016511603469055
21421861 104 17843973769649735906
21859007 373 17557710445686145845
23503953 91 18408325514174868770
23522609 53 18129639964711382244
23559900 14 17749934674735058046
25147074 1 18341607062807531639
2838139 119 16877949389982640881
3117164 225 18340205305588311402
32027 91 17387957914699373470
350125 39 18263077735208058027
3633792 109 18271823336811376423
5104073 3 18341056233425938512
5924683 9 18410013191941954175
7226269 152 17895194445398479376
7970288 3 10879121615673676945
9849439 229 17026818961491218321
9981440 41 17603863459984827895

> <PUBCHEM_SHAPE_MULTIPOLES>
505.72
13.91
2.91
1.25
4.67
0.36
-0.3
-3.69
-5.49
-1.89
0.43
-1.07
-0.14
-1.74

> <PUBCHEM_SHAPE_SELFOVERLAP>
1121.54

> <PUBCHEM_SHAPE_VOLUME>
270.9

> <PUBCHEM_COORDINATE_TYPE>
2
5
10

$$$$

