17395759
  -OEChem-06241222522D

 50 53  0     0  0  0  0  0  0999 V2000
    8.9282    1.2500    0.0000 O   0  0  0  0  0  0  0  0  0  0  0  0
    7.1962    2.2500    0.0000 O   0  0  0  0  0  0  0  0  0  0  0  0
    2.8660    0.7500    0.0000 O   0  0  0  0  0  0  0  0  0  0  0  0
    4.5981   -0.2500    0.0000 N   0  0  0  0  0  0  0  0  0  0  0  0
    6.3301    0.7500    0.0000 N   0  0  0  0  0  0  0  0  0  0  0  0
    5.4641   -0.7500    0.0000 C   0  0  0  0  0  0  0  0  0  0  0  0
    4.5981    0.7500    0.0000 C   0  0  0  0  0  0  0  0  0  0  0  0
    5.4641    1.2500    0.0000 C   0  0  0  0  0  0  0  0  0  0  0  0
    6.3301   -0.2500    0.0000 C   0  0  0  0  0  0  0  0  0  0  0  0
   13.0561    0.2500    0.0000 C   0  0  0  0  0  0  0  0  0  0  0  0
   12.4725    1.0547    0.0000 C   0  0  0  0  0  0  0  0  0  0  0  0
   12.4725   -0.5547    0.0000 C   0  0  0  0  0  0  0  0  0  0  0  0
   11.5263    0.7500    0.0000 C   0  0  0  0  0  0  0  0  0  0  0  0
   11.5263   -0.2500    0.0000 C   0  0  0  0  0  0  0  0  0  0  0  0
    3.7320   -0.7500    0.0000 C   0  0  0  0  0  0  0  0  0  0  0  0
    7.1962    1.2500    0.0000 C   0  0  0  0  0  0  0  0  0  0  0  0
   10.6603    1.2500    0.0000 C   0  0  0  0  0  0  0  0  0  0  0  0
   10.6603   -0.7500    0.0000 C   0  0  0  0  0  0  0  0  0  0  0  0
    8.0622    0.7500    0.0000 C   0  0  0  0  0  0  0  0  0  0  0  0
    9.7942    0.7500    0.0000 C   0  0  0  0  0  0  0  0  0  0  0  0
    9.7942   -0.2500    0.0000 C   0  0  0  0  0  0  0  0  0  0  0  0
    2.8660   -0.2500    0.0000 C   0  0  0  0  0  0  0  0  0  0  0  0
    3.7320   -1.7500    0.0000 C   0  0  0  0  0  0  0  0  0  0  0  0
    2.0000   -0.7500    0.0000 C   0  0  0  0  0  0  0  0  0  0  0  0
    2.8660   -2.2500    0.0000 C   0  0  0  0  0  0  0  0  0  0  0  0
    2.0000   -1.7500    0.0000 C   0  0  0  0  0  0  0  0  0  0  0  0
    4.3860    1.3326    0.0000 H   0  0  0  0  0  0  0  0  0  0  0  0
    3.9875    0.6423    0.0000 H   0  0  0  0  0  0  0  0  0  0  0  0
    5.0656   -1.2250    0.0000 H   0  0  0  0  0  0  0  0  0  0  0  0
    5.8626   -1.2250    0.0000 H   0  0  0  0  0  0  0  0  0  0  0  0
    5.8626    1.7250    0.0000 H   0  0  0  0  0  0  0  0  0  0  0  0
    5.0656    1.7250    0.0000 H   0  0  0  0  0  0  0  0  0  0  0  0
    6.5422   -0.8326    0.0000 H   0  0  0  0  0  0  0  0  0  0  0  0
    6.9407   -0.1423    0.0000 H   0  0  0  0  0  0  0  0  0  0  0  0
   13.5170   -0.1647    0.0000 H   0  0  0  0  0  0  0  0  0  0  0  0
   13.5170    0.6647    0.0000 H   0  0  0  0  0  0  0  0  0  0  0  0
   13.0099    1.3640    0.0000 H   0  0  0  0  0  0  0  0  0  0  0  0
   12.2215    1.6216    0.0000 H   0  0  0  0  0  0  0  0  0  0  0  0
   12.2215   -1.1216    0.0000 H   0  0  0  0  0  0  0  0  0  0  0  0
   13.0099   -0.8640    0.0000 H   0  0  0  0  0  0  0  0  0  0  0  0
   10.6603    1.8700    0.0000 H   0  0  0  0  0  0  0  0  0  0  0  0
   10.6603   -1.3700    0.0000 H   0  0  0  0  0  0  0  0  0  0  0  0
    7.6636    0.2751    0.0000 H   0  0  0  0  0  0  0  0  0  0  0  0
    8.4607    0.2751    0.0000 H   0  0  0  0  0  0  0  0  0  0  0  0
    9.2573   -0.5600    0.0000 H   0  0  0  0  0  0  0  0  0  0  0  0
    4.2690   -2.0600    0.0000 H   0  0  0  0  0  0  0  0  0  0  0  0
    1.4631   -0.4400    0.0000 H   0  0  0  0  0  0  0  0  0  0  0  0
    2.8660   -2.8700    0.0000 H   0  0  0  0  0  0  0  0  0  0  0  0
    1.4631   -2.0600    0.0000 H   0  0  0  0  0  0  0  0  0  0  0  0
    2.3291    1.0600    0.0000 H   0  0  0  0  0  0  0  0  0  0  0  0
  1 19  1  0  0  0  0
  1 20  1  0  0  0  0
  2 16  2  0  0  0  0
  3 22  1  0  0  0  0
  3 50  1  0  0  0  0
  4  6  1  0  0  0  0
  4  7  1  0  0  0  0
  4 15  1  0  0  0  0
  5  8  1  0  0  0  0
  5  9  1  0  0  0  0
  5 16  1  0  0  0  0
  6  9  1  0  0  0  0
  6 29  1  0  0  0  0
  6 30  1  0  0  0  0
  7  8  1  0  0  0  0
  7 27  1  0  0  0  0
  7 28  1  0  0  0  0
  8 31  1  0  0  0  0
  8 32  1  0  0  0  0
  9 33  1  0  0  0  0
  9 34  1  0  0  0  0
 10 11  1  0  0  0  0
 10 12  1  0  0  0  0
 10 35  1  0  0  0  0
 10 36  1  0  0  0  0
 11 13  1  0  0  0  0
 11 37  1  0  0  0  0
 11 38  1  0  0  0  0
 12 14  1  0  0  0  0
 12 39  1  0  0  0  0
 12 40  1  0  0  0  0
 13 14  2  0  0  0  0
 13 17  1  0  0  0  0
 14 18  1  0  0  0  0
 15 22  1  0  0  0  0
 15 23  2  0  0  0  0
 16 19  1  0  0  0  0
 17 20  2  0  0  0  0
 17 41  1  0  0  0  0
 18 21  2  0  0  0  0
 18 42  1  0  0  0  0
 19 43  1  0  0  0  0
 19 44  1  0  0  0  0
 20 21  1  0  0  0  0
 21 45  1  0  0  0  0
 22 24  2  0  0  0  0
 23 25  1  0  0  0  0
 23 46  1  0  0  0  0
 24 26  1  0  0  0  0
 24 47  1  0  0  0  0
 25 26  2  0  0  0  0
 25 48  1  0  0  0  0
 26 49  1  0  0  0  0
M  END
> <PUBCHEM_COMPOUND_CID>
17395759

> <PUBCHEM_COMPOUND_CANONICALIZED>
1

> <PUBCHEM_CACTVS_COMPLEXITY>
478

> <PUBCHEM_CACTVS_HBOND_ACCEPTOR>
4

> <PUBCHEM_CACTVS_HBOND_DONOR>
1

> <PUBCHEM_CACTVS_ROTATABLE_BOND>
4

> <PUBCHEM_CACTVS_SUBSKEYS>
AAADceB7MAAAAAAAAAAAAAAAAAAAAYAAAAA8YIAAAAAAAGABQAAAHgAACAAADAzhmAYwxoMABgCIAiVSUAKCCAAhIgAIiABPbIgOZiLWsZ+XeCjkxhHY+AeQwLAOoAABAAAQEABAAAIAACAgAAAACAAAAA==

> <PUBCHEM_IUPAC_OPENEYE_NAME>
1-[4-(2-hydroxyphenyl)piperazin-1-yl]-2-indan-5-yloxy-ethanone

> <PUBCHEM_IUPAC_CAS_NAME>
2-(2,3-dihydro-1H-inden-5-yloxy)-1-[4-(2-hydroxyphenyl)-1-piperazinyl]ethanone

> <PUBCHEM_IUPAC_NAME>
2-(2,3-dihydro-1H-inden-5-yloxy)-1-[4-(2-hydroxyphenyl)piperazin-1-yl]ethanone

> <PUBCHEM_IUPAC_SYSTEMATIC_NAME>
2-(2,3-dihydro-1H-inden-5-yloxy)-1-[4-(2-hydroxyphenyl)piperazin-1-yl]ethanone

> <PUBCHEM_IUPAC_TRADITIONAL_NAME>
1-[4-(2-hydroxyphenyl)piperazino]-2-indan-5-yloxy-ethanone

> <PUBCHEM_IUPAC_INCHI>
InChI=1S/C21H24N2O3/c24-20-7-2-1-6-19(20)22-10-12-23(13-11-22)21(25)15-26-18-9-8-16-4-3-5-17(16)14-18/h1-2,6-9,14,24H,3-5,10-13,15H2

> <PUBCHEM_IUPAC_INCHIKEY>
MUNNBEJTSKYBRQ-UHFFFAOYSA-N

> <PUBCHEM_XLOGP3_AA>
3.5

> <PUBCHEM_EXACT_MASS>
352.178693

> <PUBCHEM_MOLECULAR_FORMULA>
C21H24N2O3

> <PUBCHEM_MOLECULAR_WEIGHT>
352.42686

> <PUBCHEM_OPENEYE_CAN_SMILES>
C1CC2=C(C1)C=C(C=C2)OCC(=O)N3CCN(CC3)C4=CC=CC=C4O

> <PUBCHEM_OPENEYE_ISO_SMILES>
C1CC2=C(C1)C=C(C=C2)OCC(=O)N3CCN(CC3)C4=CC=CC=C4O

> <PUBCHEM_CACTVS_TPSA>
53

> <PUBCHEM_MONOISOTOPIC_WEIGHT>
352.178693

> <PUBCHEM_TOTAL_CHARGE>
0

> <PUBCHEM_HEAVY_ATOM_COUNT>
26

> <PUBCHEM_ATOM_DEF_STEREO_COUNT>
0

> <PUBCHEM_ATOM_UDEF_STEREO_COUNT>
0

> <PUBCHEM_BOND_DEF_STEREO_COUNT>
0

> <PUBCHEM_BOND_UDEF_STEREO_COUNT>
0

> <PUBCHEM_ISOTOPIC_ATOM_COUNT>
0

> <PUBCHEM_COMPONENT_COUNT>
1

> <PUBCHEM_CACTVS_TAUTO_COUNT>
3

> <PUBCHEM_COORDINATE_TYPE>
1
5
255

> <PUBCHEM_BONDANNOTATIONS>
13  14  8
13  17  8
14  18  8
15  22  8
15  23  8
17  20  8
18  21  8
20  21  8
22  24  8
23  25  8
24  26  8
25  26  8

$$$$

