7187
  -OEChem-07051213143D

 28 29  0     0  0  0  0  0  0999 V2000
   -0.6672   -0.2683   -0.0008 O   0  0  0  0  0  0  0  0  0  0  0  0
    0.6860    0.2752   -0.0010 O   0  0  0  0  0  0  0  0  0  0  0  0
   -1.2038    1.9745    0.0063 O   0  0  0  0  0  0  0  0  0  0  0  0
    1.2223   -1.9676    0.0065 O   0  0  0  0  0  0  0  0  0  0  0  0
   -2.9235    0.3240   -0.0011 C   0  0  0  0  0  0  0  0  0  0  0  0
    2.9426   -0.3175   -0.0007 C   0  0  0  0  0  0  0  0  0  0  0  0
   -3.9149    1.0910    0.6107 C   0  0  0  0  0  0  0  0  0  0  0  0
    3.9055   -1.0947    0.6103 C   0  0  0  0  0  0  0  0  0  0  0  0
   -3.2552   -0.8850   -0.6126 C   0  0  0  0  0  0  0  0  0  0  0  0
    3.2457    0.8822   -0.6117 C   0  0  0  0  0  0  0  0  0  0  0  0
   -5.2379    0.6491    0.6111 C   0  0  0  0  0  0  0  0  0  0  0  0
    5.2286   -0.6532    0.6103 C   0  0  0  0  0  0  0  0  0  0  0  0
   -4.5782   -1.3269   -0.6123 C   0  0  0  0  0  0  0  0  0  0  0  0
    4.5689    1.3237   -0.6118 C   0  0  0  0  0  0  0  0  0  0  0  0
   -5.5695   -0.5598   -0.0004 C   0  0  0  0  0  0  0  0  0  0  0  0
    5.5603    0.5560   -0.0007 C   0  0  0  0  0  0  0  0  0  0  0  0
   -1.5441    0.7843   -0.0013 C   0  0  0  0  0  0  0  0  0  0  0  0
    1.5345   -0.7870   -0.0006 C   0  0  0  0  0  0  0  0  0  0  0  0
   -3.6732    2.0340    1.0942 H   0  0  0  0  0  0  0  0  0  0  0  0
    3.6591   -2.0362    1.0922 H   0  0  0  0  0  0  0  0  0  0  0  0
   -2.5067   -1.4980   -1.1078 H   0  0  0  0  0  0  0  0  0  0  0  0
    2.4958    1.4920   -1.1067 H   0  0  0  0  0  0  0  0  0  0  0  0
   -6.0099    1.2460    1.0880 H   0  0  0  0  0  0  0  0  0  0  0  0
    6.0006   -1.2506    1.0866 H   0  0  0  0  0  0  0  0  0  0  0  0
   -4.8373   -2.2668   -1.0909 H   0  0  0  0  0  0  0  0  0  0  0  0
    4.8281    2.2637   -1.0903 H   0  0  0  0  0  0  0  0  0  0  0  0
   -6.5997   -0.9036   -0.0007 H   0  0  0  0  0  0  0  0  0  0  0  0
    6.5907    0.8995   -0.0013 H   0  0  0  0  0  0  0  0  0  0  0  0
  1  2  1  0  0  0  0
  1 17  1  0  0  0  0
  2 18  1  0  0  0  0
  3 17  2  0  0  0  0
  4 18  2  0  0  0  0
  5  7  2  0  0  0  0
  5  9  1  0  0  0  0
  5 17  1  0  0  0  0
  6  8  2  0  0  0  0
  6 10  1  0  0  0  0
  6 18  1  0  0  0  0
  7 11  1  0  0  0  0
  7 19  1  0  0  0  0
  8 12  1  0  0  0  0
  8 20  1  0  0  0  0
  9 13  2  0  0  0  0
  9 21  1  0  0  0  0
 10 14  2  0  0  0  0
 10 22  1  0  0  0  0
 11 15  2  0  0  0  0
 11 23  1  0  0  0  0
 12 16  2  0  0  0  0
 12 24  1  0  0  0  0
 13 15  1  0  0  0  0
 13 25  1  0  0  0  0
 14 16  1  0  0  0  0
 14 26  1  0  0  0  0
 15 27  1  0  0  0  0
 16 28  1  0  0  0  0
M  END
> <PUBCHEM_COMPOUND_CID>
7187

> <PUBCHEM_CONFORMER_RMSD>
0.6

> <PUBCHEM_CONFORMER_DIVERSEORDER>
1
38
13
67
26
31
7
45
25
64
6
51
21
36
37
76
27
5
74
62
16
11
28
44
82
15
68
2
63
29
8
80
78
3
57
69
4
83
41
35
39
55
14
33
19
40
10
24
17
23
42
9
70
60
12
53
48
43
18
32
61
50
73
46
49
20
22
58
30
71
34
54
65
77
66
59
81
47
52
75
79
56
72

> <PUBCHEM_MMFF94_PARTIAL_CHARGES>
28
1 -0.15
10 -0.15
11 -0.15
12 -0.15
13 -0.15
14 -0.15
15 -0.15
16 -0.15
17 0.63
18 0.63
19 0.15
2 -0.15
20 0.15
21 0.15
22 0.15
23 0.15
24 0.15
25 0.15
26 0.15
27 0.15
28 0.15
3 -0.57
4 -0.57
5 0.09
6 0.09
7 -0.15
8 -0.15
9 -0.15

> <PUBCHEM_EFFECTIVE_ROTOR_COUNT>
5

> <PUBCHEM_PHARMACOPHORE_FEATURES>
4
1 3 acceptor
1 4 acceptor
6 5 7 9 11 13 15 rings
6 6 8 10 12 14 16 rings

> <PUBCHEM_HEAVY_ATOM_COUNT>
18

> <PUBCHEM_ATOM_DEF_STEREO_COUNT>
0

> <PUBCHEM_ATOM_UDEF_STEREO_COUNT>
0

> <PUBCHEM_BOND_DEF_STEREO_COUNT>
0

> <PUBCHEM_BOND_UDEF_STEREO_COUNT>
0

> <PUBCHEM_ISOTOPIC_ATOM_COUNT>
0

> <PUBCHEM_COMPONENT_COUNT>
1

> <PUBCHEM_CACTVS_TAUTO_COUNT>
1

> <PUBCHEM_CONFORMER_ID>
00001C1300000001

> <PUBCHEM_MMFF94_ENERGY>
50.7664

> <PUBCHEM_FEATURE_SELFOVERLAP>
20.297

> <PUBCHEM_SHAPE_FINGERPRINT>
10090160 65 18131071532422649986
10595046 47 18410856542465208152
10912923 1 18410573993741386057
10968037 39 18408604743458670535
12107183 9 17617940674072543993
12166972 35 18060416915786513956
12236239 1 18410573989446418471
12616971 3 18343021090252528215
128620 24 18409729573122052046
12916748 109 16153705431768653762
13167823 11 18412547638672833570
13533116 47 17346043367706814090
1420 363 17561078111834925259
14341114 328 18408321094447799271
14528608 73 18409445847804290684
14848160 23 16343984706178751345
15196674 1 18410855485897965612
15788980 27 17346600780961911615
17834072 33 18410012117529801409
19050596 39 18410293631161224250
200 152 18343868822555482205
20645477 70 18059578031332389130
21033648 29 16414931759086767196
21267235 1 18411411821633613974
2297311 6 17022612070820167073
23402539 116 18202005447130760245
23557571 272 17676756665047104220
23559900 14 17489582334280037672
26918003 58 17704067395867233321
300161 21 18409172125406845589
34797466 226 16733257954666179124
351380 180 18273496775737878240
3545911 37 18201998820476185870
4214541 1 18408886269621827089
42788 4 18410855464428403856
4325135 7 18410575084668353967
474229 33 18411982446736096546
5104073 3 18410575093253014418
5283173 99 17631185237065873189
542803 24 18411981364335265995
5486654 2 18408601439827168055
7495541 125 18113623352595034888

> <PUBCHEM_SHAPE_MULTIPOLES>
346.95
14.53
1.55
0.77
0.12
0
0
-0.02
-0.79
0
0.05
0
0
-1.21

> <PUBCHEM_SHAPE_SELFOVERLAP>
746.435

> <PUBCHEM_SHAPE_VOLUME>
190.5

> <PUBCHEM_COORDINATE_TYPE>
2
5
10

$$$$

