5819
  -OEChem-07051212463D

 35 36  0     1  0  0  0  0  0999 V2000
    0.1456   -0.7021   -3.2374 I   0  0  0  0  0  0  0  0  0  0  0  0
    0.6342   -2.5402    2.5616 I   0  0  0  0  0  0  0  0  0  0  0  0
    6.5942   -0.2322   -0.4190 I   0  0  0  0  0  0  0  0  0  0  0  0
    1.8786    3.3285    1.1090 I   0  0  0  0  0  0  0  0  0  0  0  0
    1.4387   -1.8017   -0.4835 O   0  0  0  0  0  0  0  0  0  0  0  0
   -3.2006    2.1698   -0.5863 O   0  0  0  0  0  0  0  0  0  0  0  0
   -5.3952    1.8399   -1.0559 O   0  0  0  0  0  0  0  0  0  0  0  0
    4.9129    2.3590    0.5438 O   0  0  0  0  0  0  0  0  0  0  0  0
   -5.6938    0.6242    1.3862 N   0  0  0  0  0  0  0  0  0  0  0  0
   -4.0749   -0.8508    0.2824 C   0  0  0  0  0  0  0  0  0  0  0  0
   -4.3742    0.5785    0.7604 C   0  0  1  0  0  0  0  0  0  0  0  0
   -2.5991   -1.1048    0.0776 C   0  0  0  0  0  0  0  0  0  0  0  0
   -1.8410   -1.5827    1.1336 C   0  0  0  0  0  0  0  0  0  0  0  0
   -2.0343   -0.8548   -1.1620 C   0  0  0  0  0  0  0  0  0  0  0  0
    0.1052   -1.5708   -0.2980 C   0  0  0  0  0  0  0  0  0  0  0  0
   -0.6725   -1.0897   -1.3512 C   0  0  0  0  0  0  0  0  0  0  0  0
   -0.4791   -1.8174    0.9443 C   0  0  0  0  0  0  0  0  0  0  0  0
   -4.4040    1.5710   -0.3892 C   0  0  0  0  0  0  0  0  0  0  0  0
    2.3093   -0.7591   -0.2258 C   0  0  0  0  0  0  0  0  0  0  0  0
    1.8017    0.4555    0.2026 C   0  0  0  0  0  0  0  0  0  0  0  0
    3.6685   -0.9539   -0.4023 C   0  0  0  0  0  0  0  0  0  0  0  0
    4.5469    0.0980   -0.1425 C   0  0  0  0  0  0  0  0  0  0  0  0
    2.6802    1.5074    0.4622 C   0  0  0  0  0  0  0  0  0  0  0  0
    4.0527    1.3287    0.2896 C   0  0  0  0  0  0  0  0  0  0  0  0
   -4.6165   -1.0719   -0.6477 H   0  0  0  0  0  0  0  0  0  0  0  0
   -4.4434   -1.5837    1.0139 H   0  0  0  0  0  0  0  0  0  0  0  0
   -3.6447    0.9214    1.5033 H   0  0  0  0  0  0  0  0  0  0  0  0
   -2.3090   -1.7676    2.0973 H   0  0  0  0  0  0  0  0  0  0  0  0
   -2.6522   -0.4826   -1.9753 H   0  0  0  0  0  0  0  0  0  0  0  0
   -5.7088    0.0053    2.1963 H   0  0  0  0  0  0  0  0  0  0  0  0
   -6.3949    0.2563    0.7433 H   0  0  0  0  0  0  0  0  0  0  0  0
    0.7444    0.6444    0.3516 H   0  0  0  0  0  0  0  0  0  0  0  0
    4.0312   -1.9213   -0.7398 H   0  0  0  0  0  0  0  0  0  0  0  0
   -3.2310    2.8182   -1.3217 H   0  0  0  0  0  0  0  0  0  0  0  0
    5.8199    2.0536    0.3702 H   0  0  0  0  0  0  0  0  0  0  0  0
  1 16  1  0  0  0  0
  2 17  1  0  0  0  0
  3 22  1  0  0  0  0
  4 23  1  0  0  0  0
  5 15  1  0  0  0  0
  5 19  1  0  0  0  0
  6 18  1  0  0  0  0
  6 34  1  0  0  0  0
  7 18  2  0  0  0  0
  8 24  1  0  0  0  0
  8 35  1  0  0  0  0
  9 11  1  0  0  0  0
  9 30  1  0  0  0  0
  9 31  1  0  0  0  0
 10 11  1  0  0  0  0
 10 12  1  0  0  0  0
 10 25  1  0  0  0  0
 10 26  1  0  0  0  0
 11 18  1  0  0  0  0
 11 27  1  0  0  0  0
 12 13  2  0  0  0  0
 12 14  1  0  0  0  0
 13 17  1  0  0  0  0
 13 28  1  0  0  0  0
 14 16  2  0  0  0  0
 14 29  1  0  0  0  0
 15 16  1  0  0  0  0
 15 17  2  0  0  0  0
 19 20  2  0  0  0  0
 19 21  1  0  0  0  0
 20 23  1  0  0  0  0
 20 32  1  0  0  0  0
 21 22  2  0  0  0  0
 21 33  1  0  0  0  0
 22 24  1  0  0  0  0
 23 24  2  0  0  0  0
M  END
> <PUBCHEM_COMPOUND_CID>
5819

> <PUBCHEM_CONFORMER_RMSD>
0.8

> <PUBCHEM_CONFORMER_DIVERSEORDER>
1
7
14
22
4
5
20
21
11
9
16
12
10
2
19
23
17
13
6
15
18
8
3

> <PUBCHEM_MMFF94_PARTIAL_CHARGES>
32
1 -0.08
10 0.14
11 0.33
12 -0.14
13 -0.15
14 -0.15
15 0.08
16 0.08
17 0.08
18 0.66
19 0.08
2 -0.08
20 -0.15
21 -0.15
22 0.08
23 0.08
24 0.08
28 0.15
29 0.15
3 -0.08
30 0.36
31 0.36
32 0.15
33 0.15
34 0.5
35 0.45
4 -0.08
5 -0.17
6 -0.65
7 -0.57
8 -0.53
9 -0.99

> <PUBCHEM_EFFECTIVE_ROTOR_COUNT>
5

> <PUBCHEM_PHARMACOPHORE_FEATURES>
13
1 1 hydrophobe
1 2 hydrophobe
1 3 hydrophobe
1 4 hydrophobe
1 5 acceptor
1 6 acceptor
1 7 acceptor
1 8 donor
1 9 cation
1 9 donor
3 6 7 18 anion
6 12 13 14 15 16 17 rings
6 19 20 21 22 23 24 rings

> <PUBCHEM_HEAVY_ATOM_COUNT>
24

> <PUBCHEM_ATOM_DEF_STEREO_COUNT>
1

> <PUBCHEM_ATOM_UDEF_STEREO_COUNT>
0

> <PUBCHEM_BOND_DEF_STEREO_COUNT>
0

> <PUBCHEM_BOND_UDEF_STEREO_COUNT>
0

> <PUBCHEM_ISOTOPIC_ATOM_COUNT>
0

> <PUBCHEM_COMPONENT_COUNT>
1

> <PUBCHEM_CACTVS_TAUTO_COUNT>
2

> <PUBCHEM_CONFORMER_ID>
000016BB00000001

> <PUBCHEM_MMFF94_ENERGY>
69.0987

> <PUBCHEM_FEATURE_SELFOVERLAP>
66.025

> <PUBCHEM_SHAPE_FINGERPRINT>
10006869 2 17984718967423705389
10165383 225 17846778533475161574
11763715 3 17404567892946160238
12236239 1 17240480282900688998
12596602 18 15625931015651892725
12633257 1 17559966415659275868
12788726 201 18336826524237781648
13103583 49 14620786129045034365
13149001 5 14707788185774077863
13402501 40 18411419522684497209
13544653 18 11024108754749640899
13583140 156 18335411340428931095
14178342 30 17346306082256378283
14279260 333 18265615558659334430
14466204 15 18411426132955170664
14739800 52 18200043961542235593
14790565 3 17471576526159874240
15209294 21 18060420239869394607
15238133 3 18341608192874644436
15295992 7 18340762624881864346
15475509 84 17410227517396213801
19930381 70 16533995390830602067
20511986 3 17241058604884596706
20723712 36 16988835094694177303
20739085 24 16773230837401721883
21033648 29 17989487437694645785
21279426 13 18410289221005245356
21475661 188 18412549790567551793
21709351 56 18041000609221811942
23227448 37 18335141943147527191
23402539 116 4823219403039178662
23419403 2 15247957061347926527
2838139 119 18186523228242837173
3633792 109 16009577097251682918
392239 28 18129647626884922587
4325135 7 17967532364321685743
469060 322 16027613073487190122
5081480 168 16591368358941012453
5895379 119 17610064833796948889
5951187 136 17252589483715157157
633830 44 18341903948380406278
9981440 41 16889786414909448808

> <PUBCHEM_SHAPE_MULTIPOLES>
513.19
11.91
3.12
2.21
1
1.93
-1.06
6.08
0.27
0.34
1.7
-0.58
-1.26
1.12

> <PUBCHEM_SHAPE_SELFOVERLAP>
1008.298

> <PUBCHEM_SHAPE_VOLUME>
318.8

> <PUBCHEM_COORDINATE_TYPE>
2
5
10

$$$$

