17396494
  -OEChem-06241222573D

 54 57  0     1  0  0  0  0  0999 V2000
   -3.5007   -2.0751   -1.4081 S   0  0  0  0  0  0  0  0  0  0  0  0
    1.5929   -2.1824    2.7218 S   0  0  0  0  0  0  0  0  0  0  0  0
   -2.5298   -3.0192   -0.8991 O   0  0  0  0  0  0  0  0  0  0  0  0
   -3.6781   -1.8581   -2.8275 O   0  0  0  0  0  0  0  0  0  0  0  0
   -0.7880    0.2753   -0.4506 O   0  0  0  0  0  0  0  0  0  0  0  0
    7.6166    0.9752   -1.5583 O   0  0  0  0  0  0  0  0  0  0  0  0
   -3.2523   -0.5641   -0.6462 N   0  0  2  0  0  0  0  0  0  0  0  0
   -0.4481   -1.1412    1.4032 N   0  0  0  0  0  0  0  0  0  0  0  0
    1.8150   -0.6231    0.6719 N   0  0  0  0  0  0  0  0  0  0  0  0
   -2.6573   -0.5887    0.7215 C   0  0  2  0  0  0  0  0  0  0  0  0
   -3.1831    0.4915    1.6692 C   0  0  0  0  0  0  0  0  0  0  0  0
   -4.2717    0.4859   -0.9252 C   0  0  0  0  0  0  0  0  0  0  0  0
   -3.3915    1.8162    0.9879 C   0  0  0  0  0  0  0  0  0  0  0  0
   -3.9321    1.8124   -0.3057 C   0  0  0  0  0  0  0  0  0  0  0  0
   -1.1893   -0.4222    0.4748 C   0  0  0  0  0  0  0  0  0  0  0  0
   -5.0812   -2.4872   -0.7149 C   0  0  0  0  0  0  0  0  0  0  0  0
   -3.1118    3.0289    1.6234 C   0  0  0  0  0  0  0  0  0  0  0  0
   -4.1904    3.0224   -0.9558 C   0  0  0  0  0  0  0  0  0  0  0  0
   -3.3578    4.2333    0.9641 C   0  0  0  0  0  0  0  0  0  0  0  0
   -3.8959    4.2300   -0.3227 C   0  0  0  0  0  0  0  0  0  0  0  0
   -5.5784   -3.8222   -1.2227 C   0  0  0  0  0  0  0  0  0  0  0  0
    0.9458   -1.2110    1.4638 C   0  0  0  0  0  0  0  0  0  0  0  0
    3.0906   -0.9591    1.0817 C   0  0  0  0  0  0  0  0  0  0  0  0
    3.1717   -1.7950    2.1755 C   0  0  0  0  0  0  0  0  0  0  0  0
    4.2526   -0.4622    0.4030 C   0  0  0  0  0  0  0  0  0  0  0  0
    5.4222   -1.2221    0.3757 C   0  0  0  0  0  0  0  0  0  0  0  0
    4.2135    0.7805   -0.2292 C   0  0  0  0  0  0  0  0  0  0  0  0
    6.5524   -0.7391   -0.2838 C   0  0  0  0  0  0  0  0  0  0  0  0
    5.3437    1.2635   -0.8885 C   0  0  0  0  0  0  0  0  0  0  0  0
    6.5132    0.5038   -0.9158 C   0  0  0  0  0  0  0  0  0  0  0  0
    7.5075    2.2531   -2.1835 C   0  0  0  0  0  0  0  0  0  0  0  0
   -2.8510   -1.5597    1.1929 H   0  0  0  0  0  0  0  0  0  0  0  0
   -4.1536    0.1768    2.0750 H   0  0  0  0  0  0  0  0  0  0  0  0
   -2.5033    0.6077    2.5223 H   0  0  0  0  0  0  0  0  0  0  0  0
   -4.3578    0.6062   -2.0109 H   0  0  0  0  0  0  0  0  0  0  0  0
   -5.2476    0.1978   -0.5248 H   0  0  0  0  0  0  0  0  0  0  0  0
   -5.8081   -1.7295   -1.0114 H   0  0  0  0  0  0  0  0  0  0  0  0
   -4.9881   -2.5071    0.3742 H   0  0  0  0  0  0  0  0  0  0  0  0
   -2.7042    3.0440    2.6304 H   0  0  0  0  0  0  0  0  0  0  0  0
   -4.6219    3.0329   -1.9529 H   0  0  0  0  0  0  0  0  0  0  0  0
   -3.1363    5.1759    1.4565 H   0  0  0  0  0  0  0  0  0  0  0  0
   -4.0929    5.1700   -0.8300 H   0  0  0  0  0  0  0  0  0  0  0  0
   -0.9290   -1.6735    2.1236 H   0  0  0  0  0  0  0  0  0  0  0  0
   -6.5553   -4.0558   -0.7883 H   0  0  0  0  0  0  0  0  0  0  0  0
   -4.8869   -4.6282   -0.9570 H   0  0  0  0  0  0  0  0  0  0  0  0
   -5.6826   -3.8185   -2.3125 H   0  0  0  0  0  0  0  0  0  0  0  0
    4.0377   -2.1875    2.6901 H   0  0  0  0  0  0  0  0  0  0  0  0
    5.4866   -2.2024    0.8408 H   0  0  0  0  0  0  0  0  0  0  0  0
    3.3145    1.3925   -0.2168 H   0  0  0  0  0  0  0  0  0  0  0  0
    7.4597   -1.3367   -0.3052 H   0  0  0  0  0  0  0  0  0  0  0  0
    5.2449    2.2367   -1.3572 H   0  0  0  0  0  0  0  0  0  0  0  0
    6.7637    2.2456   -2.9875 H   0  0  0  0  0  0  0  0  0  0  0  0
    7.3186    3.0447   -1.4506 H   0  0  0  0  0  0  0  0  0  0  0  0
    8.4759    2.4703   -2.6461 H   0  0  0  0  0  0  0  0  0  0  0  0
  1  3  2  0  0  0  0
  1  4  2  0  0  0  0
  1  7  1  0  0  0  0
  1 16  1  0  0  0  0
  2 22  1  0  0  0  0
  2 24  1  0  0  0  0
  5 15  2  0  0  0  0
  6 30  1  0  0  0  0
  6 31  1  0  0  0  0
  7 10  1  0  0  0  0
  7 12  1  0  0  0  0
  8 15  1  0  0  0  0
  8 22  1  0  0  0  0
  8 43  1  0  0  0  0
  9 22  2  0  0  0  0
  9 23  1  0  0  0  0
 10 11  1  0  0  0  0
 10 15  1  0  0  0  0
 10 32  1  0  0  0  0
 11 13  1  0  0  0  0
 11 33  1  0  0  0  0
 11 34  1  0  0  0  0
 12 14  1  0  0  0  0
 12 35  1  0  0  0  0
 12 36  1  0  0  0  0
 13 14  1  0  0  0  0
 13 17  2  0  0  0  0
 14 18  2  0  0  0  0
 16 21  1  0  0  0  0
 16 37  1  0  0  0  0
 16 38  1  0  0  0  0
 17 19  1  0  0  0  0
 17 39  1  0  0  0  0
 18 20  1  0  0  0  0
 18 40  1  0  0  0  0
 19 20  2  0  0  0  0
 19 41  1  0  0  0  0
 20 42  1  0  0  0  0
 21 44  1  0  0  0  0
 21 45  1  0  0  0  0
 21 46  1  0  0  0  0
 23 24  2  0  0  0  0
 23 25  1  0  0  0  0
 24 47  1  0  0  0  0
 25 26  2  0  0  0  0
 25 27  1  0  0  0  0
 26 28  1  0  0  0  0
 26 48  1  0  0  0  0
 27 29  2  0  0  0  0
 27 49  1  0  0  0  0
 28 30  2  0  0  0  0
 28 50  1  0  0  0  0
 29 30  1  0  0  0  0
 29 51  1  0  0  0  0
 31 52  1  0  0  0  0
 31 53  1  0  0  0  0
 31 54  1  0  0  0  0
M  END
> <PUBCHEM_COMPOUND_CID>
17396494

> <PUBCHEM_CONFORMER_RMSD>
1

> <PUBCHEM_CONFORMER_DIVERSEORDER>
2
86
79
98
50
108
94
90
22
74
53
83
60
39
54
19
85
84
41
82
106
36
46
87
20
73
77
57
31
76
100
101
35
55
69
40
7
48
104
102
12
88
80
17
89
26
66
97
14
71
78
11
103
107
18
52
99
15
67
65
6
42
51
28
49
72
68
44
61
63
23
105
3
34
25
91
30
62
9
24
70
96
75
16
45
29
38
8
92
37
93
5
43
27
95
33
13
4
21
58
56
32
81
47
1
10
59
64

> <PUBCHEM_MMFF94_PARTIAL_CHARGES>
40
1 1.33
10 0.42
11 0.14
12 0.5
13 -0.14
14 -0.14
15 0.57
16 0.11
17 -0.15
18 -0.15
19 -0.15
2 -0.08
20 -0.15
22 0.44
23 0.17
24 -0.11
25 0.05
26 -0.15
27 -0.15
28 -0.15
29 -0.15
3 -0.65
30 0.08
31 0.28
39 0.15
4 -0.65
40 0.15
41 0.15
42 0.15
43 0.37
47 0.15
48 0.15
49 0.15
5 -0.57
50 0.15
51 0.15
6 -0.36
7 -0.85
8 -0.49
9 -0.57

> <PUBCHEM_EFFECTIVE_ROTOR_COUNT>
7.8

> <PUBCHEM_PHARMACOPHORE_FEATURES>
9
1 3 acceptor
1 4 acceptor
1 5 acceptor
1 6 acceptor
1 8 donor
5 2 9 22 23 24 rings
6 13 14 17 18 19 20 rings
6 25 26 27 28 29 30 rings
6 7 10 11 12 13 14 rings

> <PUBCHEM_HEAVY_ATOM_COUNT>
31

> <PUBCHEM_ATOM_DEF_STEREO_COUNT>
0

> <PUBCHEM_ATOM_UDEF_STEREO_COUNT>
1

> <PUBCHEM_BOND_DEF_STEREO_COUNT>
0

> <PUBCHEM_BOND_UDEF_STEREO_COUNT>
0

> <PUBCHEM_ISOTOPIC_ATOM_COUNT>
0

> <PUBCHEM_COMPONENT_COUNT>
1

> <PUBCHEM_CACTVS_TAUTO_COUNT>
3

> <PUBCHEM_CONFORMER_ID>
0109730E00000002

> <PUBCHEM_MMFF94_ENERGY>
80.7582

> <PUBCHEM_FEATURE_SELFOVERLAP>
45.71

> <PUBCHEM_SHAPE_FINGERPRINT>
10595046 47 18412827980268820846
10794284 68 18337656557017088147
11049842 53 17464829252015766235
11315621 246 18114181878706196199
11477941 20 18262242118565435933
11621639 183 13686033015972636382
12342043 65 16009887008505889959
12788726 201 18339376192792219835
131258 43 17973725766495358023
13540713 5 18129677420424741042
13673619 4 17096085771268243067
13690498 29 18114465565358702247
13692115 27 17970642788328156015
13782708 43 16298394526270410054
14114211 68 17171803889213978209
14202776 33 18408600357548111805
14294032 229 18187924036870377689
14556957 393 18340769247969413453
14790565 3 17988069089396745016
15021287 119 17555187100453833074
15064981 113 17754193185874038764
15163728 17 17681273588206333025
15183329 4 18186514436971958644
15513586 35 15263644030517606526
15705408 1 17618532895146343087
15876981 60 18410852148920030117
16992828 155 17986674972576809621
16994733 274 15481575099819286039
20101258 96 18336551513212965379
21033648 144 17132117935694391946
21120745 212 18410295775209839017
21223535 225 18272080631148532276
21585481 151 10015599290186686892
21599406 157 17531513344398616428
21796203 349 17980740672931898675
22122407 14 17127333054263885185
22393880 68 18261403247217447872
249057 25 18130804373162800762
255183 451 17684104487414859647
268830 7 17417257674363680370
2748736 6 17846216623505394492
2838139 119 18343013373198694936
3388396 114 18051406267014151676
3552219 110 18130218273625654167
3610482 184 18341316860599791060
38570 142 18057590161458655658
393628 194 17773863235022598596
4169191 19 17488732377996869332
4258327 124 18271527615132933773
437795 83 18127396862295992564
46194498 28 17386858214387629648
497634 4 18272378563764779031
5104073 3 16845286185693429328
531348 171 18262798591766021514
6034566 193 18268710683342624993
6058803 2 18127991890664069179
633830 44 17987235706384562882
6608658 132 18341334473897272637
6898599 12 18337958999317749237
7970288 3 6483354370883563044

> <PUBCHEM_SHAPE_MULTIPOLES>
607.24
18.05
4.66
2.24
32.81
2.79
0.18
4.95
-10.9
-9.35
-0.5
0.37
-0.91
-6.09

> <PUBCHEM_SHAPE_SELFOVERLAP>
1286.813

> <PUBCHEM_SHAPE_VOLUME>
340.8

> <PUBCHEM_COORDINATE_TYPE>
2
5
10

$$$$

