17357
  -OEChem-07051213132D

 23 24  0     1  0  0  0  0  0999 V2000
    5.1980   -1.3251    0.0000 Cl  0  0  0  0  0  0  0  0  0  0  0  0
    5.9744    1.5727    0.0000 Cl  0  0  0  0  0  0  0  0  0  0  0  0
    4.0654    1.9961    0.0000 Cl  0  0  0  0  0  0  0  0  0  0  0  0
    5.0835    2.5839    0.0000 Cl  0  0  0  0  0  0  0  0  0  0  0  0
    7.7888   -1.9840    0.0000 Cl  0  0  0  0  0  0  0  0  0  0  0  0
    8.4136    0.3479    0.0000 Cl  0  0  0  0  0  0  0  0  0  0  0  0
    2.5000   -2.5839    0.0000 Cl  0  0  0  0  0  0  0  0  0  0  0  0
    2.0000    0.7316    0.0000 Cl  0  0  0  0  0  0  0  0  0  0  0  0
    5.4568   -0.3592    0.0000 C   0  0  3  0  0  0  0  0  0  0  0  0
    5.7156    0.6068    0.0000 C   0  0  3  0  0  0  0  0  0  0  0  0
    3.7247   -1.3592    0.0000 C   0  0  3  0  0  0  0  0  0  0  0  0
    3.2247   -0.4931    0.0000 C   0  0  3  0  0  0  0  0  0  0  0  0
    4.9790    1.5894    0.0000 C   0  0  0  0  0  0  0  0  0  0  0  0
    7.2888   -1.1180    0.0000 C   0  0  0  0  0  0  0  0  0  0  0  0
    7.5476   -0.1521    0.0000 C   0  0  0  0  0  0  0  0  0  0  0  0
    3.4659   -2.3251    0.0000 C   0  0  0  0  0  0  0  0  0  0  0  0
    2.2588   -0.2343    0.0000 C   0  0  0  0  0  0  0  0  0  0  0  0
    3.1770    0.1250    0.0000 H   0  0  0  0  0  0  0  0  0  0  0  0
    3.1101   -1.4401    0.0000 H   0  0  0  0  0  0  0  0  0  0  0  0
    1.6412   -0.2884    0.0000 H   0  0  0  0  0  0  0  0  0  0  0  0
    2.2048   -0.8520    0.0000 H   0  0  0  0  0  0  0  0  0  0  0  0
    3.5200   -2.9427    0.0000 H   0  0  0  0  0  0  0  0  0  0  0  0
    4.0836   -2.3791    0.0000 H   0  0  0  0  0  0  0  0  0  0  0  0
  1  9  1  0  0  0  0
  2 10  1  0  0  0  0
  3 13  1  0  0  0  0
  4 13  1  0  0  0  0
  5 14  1  0  0  0  0
  6 15  1  0  0  0  0
  7 16  1  0  0  0  0
  8 17  1  0  0  0  0
  9 11  1  0  0  0  0
  9 13  1  0  0  0  0
  9 14  1  0  0  0  0
 10 12  1  0  0  0  0
 10 13  1  0  0  0  0
 10 15  1  0  0  0  0
 11 12  1  0  0  0  0
 11 16  1  0  0  0  0
 11 19  1  0  0  0  0
 12 17  1  0  0  0  0
 12 18  1  0  0  0  0
 14 15  2  0  0  0  0
 16 22  1  0  0  0  0
 16 23  1  0  0  0  0
 17 20  1  0  0  0  0
 17 21  1  0  0  0  0
M  END
> <PUBCHEM_COMPOUND_CID>
17357

> <PUBCHEM_COMPOUND_CANONICALIZED>
1

> <PUBCHEM_CACTVS_COMPLEXITY>
357

> <PUBCHEM_CACTVS_HBOND_ACCEPTOR>
0

> <PUBCHEM_CACTVS_HBOND_DONOR>
0

> <PUBCHEM_CACTVS_ROTATABLE_BOND>
2

> <PUBCHEM_CACTVS_SUBSKEYS>
AAADcYBwAAAHgAAAAAAAAAAAAAAAAYIAAAAgAAAAAAAAAAAAAAAAGAIAAAAADQOAAMAAAAAAAACAAABAAAAAAAAgAAAACEAAAggAAAIBAAAAAAAAgAAIAAMAgAAOgAAAAAAAAAAAAAAAAAAAARAASIACAA==

> <PUBCHEM_IUPAC_OPENEYE_NAME>
1,2,3,4,7,7-hexachloro-5,6-bis(chloromethyl)bicyclo[2.2.1]hept-2-ene

> <PUBCHEM_IUPAC_CAS_NAME>
1,2,3,4,7,7-hexachloro-5,6-bis(chloromethyl)bicyclo[2.2.1]hept-2-ene

> <PUBCHEM_IUPAC_NAME>
1,2,3,4,7,7-hexachloro-5,6-bis(chloromethyl)bicyclo[2.2.1]hept-2-ene

> <PUBCHEM_IUPAC_SYSTEMATIC_NAME>
1,2,3,4,7,7-hexakis(chloranyl)-5,6-bis(chloromethyl)bicyclo[2.2.1]hept-2-ene

> <PUBCHEM_IUPAC_TRADITIONAL_NAME>
1,2,3,4,7,7-hexachloro-5,6-bis(chloromethyl)bicyclo[2.2.1]hept-2-ene

> <PUBCHEM_IUPAC_INCHI>
InChI=1S/C9H6Cl8/c10-1-3-4(2-11)8(15)6(13)5(12)7(3,14)9(8,16)17/h3-4H,1-2H2

> <PUBCHEM_IUPAC_INCHIKEY>
FUZORIOHZSVKAW-UHFFFAOYSA-N

> <PUBCHEM_XLOGP3_AA>
4.7

> <PUBCHEM_EXACT_MASS>
397.791871

> <PUBCHEM_MOLECULAR_FORMULA>
C9H6Cl8

> <PUBCHEM_MOLECULAR_WEIGHT>
397.76794

> <PUBCHEM_OPENEYE_CAN_SMILES>
C(C1C(C2(C(=C(C1(C2(Cl)Cl)Cl)Cl)Cl)Cl)CCl)Cl

> <PUBCHEM_OPENEYE_ISO_SMILES>
C(C1C(C2(C(=C(C1(C2(Cl)Cl)Cl)Cl)Cl)Cl)CCl)Cl

> <PUBCHEM_CACTVS_TPSA>
0

> <PUBCHEM_MONOISOTOPIC_WEIGHT>
393.797772

> <PUBCHEM_TOTAL_CHARGE>
0

> <PUBCHEM_HEAVY_ATOM_COUNT>
17

> <PUBCHEM_ATOM_DEF_STEREO_COUNT>
0

> <PUBCHEM_ATOM_UDEF_STEREO_COUNT>
4

> <PUBCHEM_BOND_DEF_STEREO_COUNT>
0

> <PUBCHEM_BOND_UDEF_STEREO_COUNT>
0

> <PUBCHEM_ISOTOPIC_ATOM_COUNT>
0

> <PUBCHEM_COMPONENT_COUNT>
1

> <PUBCHEM_CACTVS_TAUTO_COUNT>
1

> <PUBCHEM_COORDINATE_TYPE>
1
5
255

> <PUBCHEM_BONDANNOTATIONS>
9  1  3
11  16  3
12  17  3
10  2  3

$$$$

