5459979
  -OEChem-07051212482D

 42 42  0     1  0  0  0  0  0999 V2000
    7.7331    1.5950    0.0000 O   0  0  0  0  0  0  0  0  0  0  0  0
    6.0010    3.5950    0.0000 O   0  0  0  0  0  0  0  0  0  0  0  0
    6.0010    0.5950    0.0000 O   0  0  0  0  0  0  0  0  0  0  0  0
    8.5991    3.0950    0.0000 O   0  0  0  0  0  0  0  0  0  0  0  0
    5.1350    3.0950    0.0000 O   0  0  0  0  0  0  0  0  0  0  0  0
    8.5991    5.0950    0.0000 O   0  0  0  0  0  0  0  0  0  0  0  0
    4.2690    1.5950    0.0000 O   0  0  0  0  0  0  0  0  0  0  0  0
    6.8671    5.0950    0.0000 O   0  0  0  0  0  0  0  0  0  0  0  0
    4.2690    0.5950    0.0000 O   0  0  0  0  0  0  0  0  0  0  0  0
    2.5369   -4.4050    0.0000 O   0  0  0  0  0  0  0  0  0  0  0  0
    4.2690   -5.4050    0.0000 O   0  0  0  0  0  0  0  0  0  0  0  0
    6.8671    2.0950    0.0000 C   0  0  1  0  0  0  0  0  0  0  0  0
    6.8671    3.0950    0.0000 C   0  0  1  0  0  0  0  0  0  0  0  0
    6.0010    1.5950    0.0000 C   0  0  2  0  0  0  0  0  0  0  0  0
    7.7331    3.5950    0.0000 C   0  0  1  0  0  0  0  0  0  0  0  0
    5.1350    2.0950    0.0000 C   0  0  0  0  0  0  0  0  0  0  0  0
    7.7331    4.5950    0.0000 C   0  0  0  0  0  0  0  0  0  0  0  0
    5.1350    0.0950    0.0000 C   0  0  0  0  0  0  0  0  0  0  0  0
    5.1350   -0.9050    0.0000 C   0  0  0  0  0  0  0  0  0  0  0  0
    4.2690   -2.4050    0.0000 C   0  0  0  0  0  0  0  0  0  0  0  0
    4.2690   -1.4050    0.0000 C   0  0  0  0  0  0  0  0  0  0  0  0
    3.4030   -2.9050    0.0000 C   0  0  0  0  0  0  0  0  0  0  0  0
    5.1350   -2.9050    0.0000 C   0  0  0  0  0  0  0  0  0  0  0  0
    3.4030   -3.9050    0.0000 C   0  0  0  0  0  0  0  0  0  0  0  0
    5.1350   -3.9050    0.0000 C   0  0  0  0  0  0  0  0  0  0  0  0
    4.2690   -4.4050    0.0000 C   0  0  0  0  0  0  0  0  0  0  0  0
    7.4040    2.4050    0.0000 H   0  0  0  0  0  0  0  0  0  0  0  0
    6.3301    2.7850    0.0000 H   0  0  0  0  0  0  0  0  0  0  0  0
    6.5380    1.2850    0.0000 H   0  0  0  0  0  0  0  0  0  0  0  0
    7.7331    2.9750    0.0000 H   0  0  0  0  0  0  0  0  0  0  0  0
    8.2700    1.9050    0.0000 H   0  0  0  0  0  0  0  0  0  0  0  0
    6.0010    4.2150    0.0000 H   0  0  0  0  0  0  0  0  0  0  0  0
    9.1360    3.4050    0.0000 H   0  0  0  0  0  0  0  0  0  0  0  0
    5.6720   -1.2150    0.0000 H   0  0  0  0  0  0  0  0  0  0  0  0
    4.5981    3.4050    0.0000 H   0  0  0  0  0  0  0  0  0  0  0  0
    8.5991    5.7150    0.0000 H   0  0  0  0  0  0  0  0  0  0  0  0
    3.7320   -1.0950    0.0000 H   0  0  0  0  0  0  0  0  0  0  0  0
    2.8660   -2.5950    0.0000 H   0  0  0  0  0  0  0  0  0  0  0  0
    5.6720   -2.5950    0.0000 H   0  0  0  0  0  0  0  0  0  0  0  0
    5.6720   -4.2150    0.0000 H   0  0  0  0  0  0  0  0  0  0  0  0
    2.0000   -4.0950    0.0000 H   0  0  0  0  0  0  0  0  0  0  0  0
    4.8059   -5.7150    0.0000 H   0  0  0  0  0  0  0  0  0  0  0  0
 12  1  1  6  0  0  0
  1 31  1  0  0  0  0
 13  2  1  6  0  0  0
  2 32  1  0  0  0  0
 14  3  1  1  0  0  0
  3 18  1  0  0  0  0
 15  4  1  1  0  0  0
  4 33  1  0  0  0  0
  5 16  1  0  0  0  0
  5 35  1  0  0  0  0
  6 17  1  0  0  0  0
  6 36  1  0  0  0  0
  7 16  2  0  0  0  0
  8 17  2  0  0  0  0
  9 18  2  0  0  0  0
 10 24  1  0  0  0  0
 10 41  1  0  0  0  0
 11 26  1  0  0  0  0
 11 42  1  0  0  0  0
 12 13  1  0  0  0  0
 12 14  1  0  0  0  0
 12 27  1  0  0  0  0
 13 15  1  0  0  0  0
 13 28  1  0  0  0  0
 14 16  1  0  0  0  0
 14 29  1  0  0  0  0
 15 17  1  0  0  0  0
 15 30  1  0  0  0  0
 18 19  1  0  0  0  0
 19 21  2  0  0  0  0
 19 34  1  0  0  0  0
 20 21  1  0  0  0  0
 20 22  2  0  0  0  0
 20 23  1  0  0  0  0
 21 37  1  0  0  0  0
 22 24  1  0  0  0  0
 22 38  1  0  0  0  0
 23 25  2  0  0  0  0
 23 39  1  0  0  0  0
 24 26  2  0  0  0  0
 25 26  1  0  0  0  0
 25 40  1  0  0  0  0
M  END
> <PUBCHEM_COMPOUND_CID>
5459979

> <PUBCHEM_COMPOUND_CANONICALIZED>
1

> <PUBCHEM_CACTVS_COMPLEXITY>
546

> <PUBCHEM_CACTVS_HBOND_ACCEPTOR>
11

> <PUBCHEM_CACTVS_HBOND_DONOR>
7

> <PUBCHEM_CACTVS_ROTATABLE_BOND>
9

> <PUBCHEM_CACTVS_SUBSKEYS>
AAADceBwPAAAAAAAAAAAAAAAAAAAAAAAAAAwAAAAAAAAAAABAAAAGgAACAAADBSgmAIwDoAABgCIAiDSCAICAAAgIAAIiAFGiMgJNjaCMRaCcAEl4BELuYfK7BxOIAABAAAAQABAAAIAAACAAAAAAAAAAA==

> <PUBCHEM_IUPAC_OPENEYE_NAME>
(2R,3S,4S,5S)-2-[(E)-3-(3,4-dihydroxyphenyl)prop-2-enoyl]oxy-3,4,5-trihydroxy-hexanedioic acid

> <PUBCHEM_IUPAC_CAS_NAME>
(2R,3S,4S,5S)-2-[(E)-3-(3,4-dihydroxyphenyl)-1-oxoprop-2-enoxy]-3,4,5-trihydroxyhexanedioic acid

> <PUBCHEM_IUPAC_NAME>
(2R,3S,4S,5S)-2-[(E)-3-(3,4-dihydroxyphenyl)prop-2-enoyl]oxy-3,4,5-trihydroxyhexanedioic acid

> <PUBCHEM_IUPAC_SYSTEMATIC_NAME>
(2R,3S,4S,5S)-2-[(E)-3-[3,4-bis(oxidanyl)phenyl]prop-2-enoyl]oxy-3,4,5-tris(oxidanyl)hexanedioic acid

> <PUBCHEM_IUPAC_TRADITIONAL_NAME>
(2R,3S,4S,5S)-2-[(E)-3-(3,4-dihydroxyphenyl)acryloyl]oxy-3,4,5-trihydroxy-adipic acid

> <PUBCHEM_IUPAC_INCHI>
InChI=1S/C15H16O11/c16-7-3-1-6(5-8(7)17)2-4-9(18)26-13(15(24)25)11(20)10(19)12(21)14(22)23/h1-5,10-13,16-17,19-21H,(H,22,23)(H,24,25)/b4-2+/t10-,11-,12-,13+/m0/s1

> <PUBCHEM_IUPAC_INCHIKEY>
OMIXKOJEIRRAJW-CDEBNWADSA-N

> <PUBCHEM_XLOGP3_AA>
-1.2

> <PUBCHEM_EXACT_MASS>
372.069261

> <PUBCHEM_MOLECULAR_FORMULA>
C15H16O11

> <PUBCHEM_MOLECULAR_WEIGHT>
372.28094

> <PUBCHEM_OPENEYE_CAN_SMILES>
C1=CC(=C(C=C1C=CC(=O)OC(C(C(C(C(=O)O)O)O)O)C(=O)O)O)O

> <PUBCHEM_OPENEYE_ISO_SMILES>
C1=CC(=C(C=C1/C=C/C(=O)O[C@H]([C@H]([C@@H]([C@@H](C(=O)O)O)O)O)C(=O)O)O)O

> <PUBCHEM_CACTVS_TPSA>
202

> <PUBCHEM_MONOISOTOPIC_WEIGHT>
372.069261

> <PUBCHEM_TOTAL_CHARGE>
0

> <PUBCHEM_HEAVY_ATOM_COUNT>
26

> <PUBCHEM_ATOM_DEF_STEREO_COUNT>
4

> <PUBCHEM_ATOM_UDEF_STEREO_COUNT>
0

> <PUBCHEM_BOND_DEF_STEREO_COUNT>
1

> <PUBCHEM_BOND_UDEF_STEREO_COUNT>
0

> <PUBCHEM_ISOTOPIC_ATOM_COUNT>
0

> <PUBCHEM_COMPONENT_COUNT>
1

> <PUBCHEM_CACTVS_TAUTO_COUNT>
16

> <PUBCHEM_COORDINATE_TYPE>
1
5
255

> <PUBCHEM_BONDANNOTATIONS>
12  1  6
13  2  6
20  22  8
20  23  8
22  24  8
23  25  8
24  26  8
25  26  8
14  3  5
15  4  5

$$$$

