10272
  -OEChem-07051212592D

 36 36  0     1  0  0  0  0  0999 V2000
    5.4641   -2.0950    0.0000 O   0  0  0  0  0  0  0  0  0  0  0  0
    7.1962   -1.0950    0.0000 O   0  0  0  0  0  0  0  0  0  0  0  0
    5.4641   -1.0950    0.0000 N   0  0  0  0  0  0  0  0  0  0  0  0
    5.4641    0.9050    0.0000 N   0  0  0  0  0  0  0  0  0  0  0  0
    3.7320   -1.0950    0.0000 C   0  0  3  0  0  0  0  0  0  0  0  0
    7.1962    1.9050    0.0000 C   0  0  0  0  0  0  0  0  0  0  0  0
    4.5981   -0.5950    0.0000 C   0  0  0  0  0  0  0  0  0  0  0  0
    7.1962    0.9050    0.0000 C   0  0  0  0  0  0  0  0  0  0  0  0
    2.8660   -0.5950    0.0000 C   0  0  0  0  0  0  0  0  0  0  0  0
    6.3301    0.4050    0.0000 C   0  0  0  0  0  0  0  0  0  0  0  0
    3.7320   -2.0950    0.0000 C   0  0  0  0  0  0  0  0  0  0  0  0
    6.3301   -0.5950    0.0000 C   0  0  0  0  0  0  0  0  0  0  0  0
    4.5981    0.4050    0.0000 C   0  0  0  0  0  0  0  0  0  0  0  0
    8.0622    2.4050    0.0000 C   0  0  0  0  0  0  0  0  0  0  0  0
    6.3301    2.4050    0.0000 C   0  0  0  0  0  0  0  0  0  0  0  0
    2.0000   -1.0950    0.0000 C   0  0  0  0  0  0  0  0  0  0  0  0
    4.4682   -1.5200    0.0000 H   0  0  0  0  0  0  0  0  0  0  0  0
    6.6592    1.5950    0.0000 H   0  0  0  0  0  0  0  0  0  0  0  0
    7.4082    0.3224    0.0000 H   0  0  0  0  0  0  0  0  0  0  0  0
    7.8067    1.0127    0.0000 H   0  0  0  0  0  0  0  0  0  0  0  0
    3.2646   -0.1201    0.0000 H   0  0  0  0  0  0  0  0  0  0  0  0
    2.4675   -0.1201    0.0000 H   0  0  0  0  0  0  0  0  0  0  0  0
    3.1120   -2.0950    0.0000 H   0  0  0  0  0  0  0  0  0  0  0  0
    3.7320   -2.7150    0.0000 H   0  0  0  0  0  0  0  0  0  0  0  0
    4.3520   -2.0950    0.0000 H   0  0  0  0  0  0  0  0  0  0  0  0
    4.0611    0.7150    0.0000 H   0  0  0  0  0  0  0  0  0  0  0  0
    8.3722    1.8681    0.0000 H   0  0  0  0  0  0  0  0  0  0  0  0
    8.5991    2.7150    0.0000 H   0  0  0  0  0  0  0  0  0  0  0  0
    7.7522    2.9419    0.0000 H   0  0  0  0  0  0  0  0  0  0  0  0
    6.6401    2.9419    0.0000 H   0  0  0  0  0  0  0  0  0  0  0  0
    5.7932    2.7150    0.0000 H   0  0  0  0  0  0  0  0  0  0  0  0
    6.0201    1.8681    0.0000 H   0  0  0  0  0  0  0  0  0  0  0  0
    1.6900   -0.5581    0.0000 H   0  0  0  0  0  0  0  0  0  0  0  0
    1.4631   -1.4050    0.0000 H   0  0  0  0  0  0  0  0  0  0  0  0
    2.3100   -1.6319    0.0000 H   0  0  0  0  0  0  0  0  0  0  0  0
    6.0010   -2.4050    0.0000 H   0  0  0  0  0  0  0  0  0  0  0  0
  1  3  1  0  0  0  0
  1 36  1  0  0  0  0
  2 12  2  0  0  0  0
  3  7  1  0  0  0  0
  3 12  1  0  0  0  0
  4 10  2  0  0  0  0
  4 13  1  0  0  0  0
  5  7  1  0  0  0  0
  5  9  1  0  0  0  0
  5 11  1  0  0  0  0
  5 17  1  0  0  0  0
  6  8  1  0  0  0  0
  6 14  1  0  0  0  0
  6 15  1  0  0  0  0
  6 18  1  0  0  0  0
  7 13  2  0  0  0  0
  8 10  1  0  0  0  0
  8 19  1  0  0  0  0
  8 20  1  0  0  0  0
  9 16  1  0  0  0  0
  9 21  1  0  0  0  0
  9 22  1  0  0  0  0
 10 12  1  0  0  0  0
 11 23  1  0  0  0  0
 11 24  1  0  0  0  0
 11 25  1  0  0  0  0
 13 26  1  0  0  0  0
 14 27  1  0  0  0  0
 14 28  1  0  0  0  0
 14 29  1  0  0  0  0
 15 30  1  0  0  0  0
 15 31  1  0  0  0  0
 15 32  1  0  0  0  0
 16 33  1  0  0  0  0
 16 34  1  0  0  0  0
 16 35  1  0  0  0  0
M  END
> <PUBCHEM_COMPOUND_CID>
10272

> <PUBCHEM_COMPOUND_CANONICALIZED>
1

> <PUBCHEM_CACTVS_COMPLEXITY>
332

> <PUBCHEM_CACTVS_HBOND_ACCEPTOR>
3

> <PUBCHEM_CACTVS_HBOND_DONOR>
1

> <PUBCHEM_CACTVS_ROTATABLE_BOND>
4

> <PUBCHEM_CACTVS_SUBSKEYS>
AAADceBzMAAAAAAAAAAAAAAAAAAAAAAAAAAgAAAAAAAAAAAAAAAAHgAECAAADQjBgAQCAAIQAACoAQV2VAAAAAAgAgAgAAEwAAgAABIAgQAEAAAAhACAAAAYAAAMAAAAAAAAAAAAAAAAAAAAAAAAAAAAAA==

> <PUBCHEM_IUPAC_OPENEYE_NAME>
1-hydroxy-3-isobutyl-6-sec-butyl-pyrazin-2-one

> <PUBCHEM_IUPAC_CAS_NAME>
6-butan-2-yl-1-hydroxy-3-(2-methylpropyl)-2-pyrazinone

> <PUBCHEM_IUPAC_NAME>
6-butan-2-yl-1-hydroxy-3-(2-methylpropyl)pyrazin-2-one

> <PUBCHEM_IUPAC_SYSTEMATIC_NAME>
6-butan-2-yl-3-(2-methylpropyl)-1-oxidanyl-pyrazin-2-one

> <PUBCHEM_IUPAC_TRADITIONAL_NAME>
1-hydroxy-3-isobutyl-6-sec-butyl-pyrazin-2-one

> <PUBCHEM_IUPAC_INCHI>
InChI=1S/C12H20N2O2/c1-5-9(4)11-7-13-10(6-8(2)3)12(15)14(11)16/h7-9,16H,5-6H2,1-4H3

> <PUBCHEM_IUPAC_INCHIKEY>
IUZCDJYHMMWBBE-UHFFFAOYSA-N

> <PUBCHEM_XLOGP3_AA>
1.7

> <PUBCHEM_EXACT_MASS>
224.152478

> <PUBCHEM_MOLECULAR_FORMULA>
C12H20N2O2

> <PUBCHEM_MOLECULAR_WEIGHT>
224.2994

> <PUBCHEM_OPENEYE_CAN_SMILES>
CCC(C)C1=CN=C(C(=O)N1O)CC(C)C

> <PUBCHEM_OPENEYE_ISO_SMILES>
CCC(C)C1=CN=C(C(=O)N1O)CC(C)C

> <PUBCHEM_CACTVS_TPSA>
52.9

> <PUBCHEM_MONOISOTOPIC_WEIGHT>
224.152478

> <PUBCHEM_TOTAL_CHARGE>
0

> <PUBCHEM_HEAVY_ATOM_COUNT>
16

> <PUBCHEM_ATOM_DEF_STEREO_COUNT>
0

> <PUBCHEM_ATOM_UDEF_STEREO_COUNT>
1

> <PUBCHEM_BOND_DEF_STEREO_COUNT>
0

> <PUBCHEM_BOND_UDEF_STEREO_COUNT>
0

> <PUBCHEM_ISOTOPIC_ATOM_COUNT>
0

> <PUBCHEM_COMPONENT_COUNT>
1

> <PUBCHEM_CACTVS_TAUTO_COUNT>
3

> <PUBCHEM_COORDINATE_TYPE>
1
5
255

> <PUBCHEM_BONDANNOTATIONS>
10  12  8
3  12  8
3  7  8
4  10  8
4  13  8
5  17  3
7  13  8

$$$$

