442278
  -OEChem-07051212572D

 39 42  0     1  0  0  0  0  0999 V2000
    6.2621   -2.2504    0.0000 O   0  0  0  0  0  0  0  0  0  0  0  0
    7.1282    2.2504    0.0000 O   0  0  0  0  0  0  0  0  0  0  0  0
    3.5836   -1.5547    0.0000 O   0  0  0  0  0  0  0  0  0  0  0  0
    2.0000   -0.7500    0.0000 O   0  0  0  0  0  0  0  0  0  0  0  0
    6.2619   -1.2500    0.0000 C   0  0  1  0  0  0  0  0  0  0  0  0
    5.3958   -1.7500    0.0000 C   0  0  1  0  0  0  0  0  0  0  0  0
    6.2619    1.7500    0.0000 C   0  0  1  0  0  0  0  0  0  0  0  0
    7.1279    1.2500    0.0000 C   0  0  1  0  0  0  0  0  0  0  0  0
    4.5298   -1.2500    0.0000 C   0  0  2  0  0  0  0  0  0  0  0  0
    6.2619   -0.2500    0.0000 C   0  0  0  0  0  0  0  0  0  0  0  0
    7.1279    0.2500    0.0000 C   0  0  0  0  0  0  0  0  0  0  0  0
    4.5298   -0.2500    0.0000 C   0  0  1  0  0  0  0  0  0  0  0  0
    5.3958    1.2500    0.0000 C   0  0  0  0  0  0  0  0  0  0  0  0
    5.3958    0.2500    0.0000 C   0  0  0  0  0  0  0  0  0  0  0  0
    7.1279   -0.7500    0.0000 C   0  0  0  0  0  0  0  0  0  0  0  0
    5.3958    2.2500    0.0000 C   0  0  0  0  0  0  0  0  0  0  0  0
    3.5836    0.0547    0.0000 C   0  0  0  0  0  0  0  0  0  0  0  0
    3.0000   -0.7500    0.0000 C   0  0  0  0  0  0  0  0  0  0  0  0
    3.2729    1.0052    0.0000 C   0  0  0  0  0  0  0  0  0  0  0  0
    4.9708   -2.4861    0.0000 H   0  0  0  0  0  0  0  0  0  0  0  0
    7.9779    1.2499    0.0000 H   0  0  0  0  0  0  0  0  0  0  0  0
    4.4399   -2.0952    0.0000 H   0  0  0  0  0  0  0  0  0  0  0  0
    6.0498    0.3326    0.0000 H   0  0  0  0  0  0  0  0  0  0  0  0
    5.6513   -0.3577    0.0000 H   0  0  0  0  0  0  0  0  0  0  0  0
    7.3400   -0.3326    0.0000 H   0  0  0  0  0  0  0  0  0  0  0  0
    7.7385    0.3577    0.0000 H   0  0  0  0  0  0  0  0  0  0  0  0
    4.4399    0.5952    0.0000 H   0  0  0  0  0  0  0  0  0  0  0  0
    5.1838    1.8326    0.0000 H   0  0  0  0  0  0  0  0  0  0  0  0
    4.7853    1.1423    0.0000 H   0  0  0  0  0  0  0  0  0  0  0  0
    5.6079   -0.3326    0.0000 H   0  0  0  0  0  0  0  0  0  0  0  0
    6.0064    0.3577    0.0000 H   0  0  0  0  0  0  0  0  0  0  0  0
    7.4379   -1.2869    0.0000 H   0  0  0  0  0  0  0  0  0  0  0  0
    7.6648   -0.4400    0.0000 H   0  0  0  0  0  0  0  0  0  0  0  0
    6.8179   -0.2131    0.0000 H   0  0  0  0  0  0  0  0  0  0  0  0
    5.7058    2.7869    0.0000 H   0  0  0  0  0  0  0  0  0  0  0  0
    4.8589    2.5600    0.0000 H   0  0  0  0  0  0  0  0  0  0  0  0
    5.0858    1.7131    0.0000 H   0  0  0  0  0  0  0  0  0  0  0  0
    3.6870    1.4667    0.0000 H   0  0  0  0  0  0  0  0  0  0  0  0
    2.6663    1.1331    0.0000 H   0  0  0  0  0  0  0  0  0  0  0  0
  1  5  1  0  0  0  0
  1  6  1  0  0  0  0
  2  7  1  0  0  0  0
  2  8  1  0  0  0  0
  3  9  1  0  0  0  0
  3 18  1  0  0  0  0
  4 18  2  0  0  0  0
  5  6  1  0  0  0  0
  5 10  1  0  0  0  0
  5 15  1  6  0  0  0
  6  9  1  0  0  0  0
  6 20  1  1  0  0  0
  7  8  1  0  0  0  0
  7 13  1  0  0  0  0
  7 16  1  6  0  0  0
  8 11  1  0  0  0  0
  8 21  1  1  0  0  0
  9 12  1  0  0  0  0
  9 22  1  6  0  0  0
 10 11  1  0  0  0  0
 10 23  1  0  0  0  0
 10 24  1  0  0  0  0
 11 25  1  0  0  0  0
 11 26  1  0  0  0  0
 12 14  1  0  0  0  0
 12 17  1  0  0  0  0
 12 27  1  1  0  0  0
 13 14  1  0  0  0  0
 13 28  1  0  0  0  0
 13 29  1  0  0  0  0
 14 30  1  0  0  0  0
 14 31  1  0  0  0  0
 15 32  1  0  0  0  0
 15 33  1  0  0  0  0
 15 34  1  0  0  0  0
 16 35  1  0  0  0  0
 16 36  1  0  0  0  0
 16 37  1  0  0  0  0
 17 18  1  0  0  0  0
 17 19  2  0  0  0  0
 19 38  1  0  0  0  0
 19 39  1  0  0  0  0
M  END
> <PUBCHEM_COMPOUND_CID>
442278

> <PUBCHEM_COMPOUND_CANONICALIZED>
1

> <PUBCHEM_CACTVS_COMPLEXITY>
473

> <PUBCHEM_CACTVS_HBOND_ACCEPTOR>
4

> <PUBCHEM_CACTVS_HBOND_DONOR>
0

> <PUBCHEM_CACTVS_ROTATABLE_BOND>
0

> <PUBCHEM_CACTVS_SUBSKEYS>
AAADceBwOAAAAAAAAAAAAAAAEiQAASAAAAAAAAAAAAAAAADAAAAAGgAAAAAADVSggAICCAAABACIAgDSCAAAAAAgAAAAAAEAAEgBBBIAIQACAAAFwAACIIHK7PzOAAAAAAAAAAAAAAAAAAAAAAAAAAAAAA==

> <PUBCHEM_IUPAC_INCHI>
InChI=1S/C15H20O4/c1-8-9-4-6-14(2)10(18-14)5-7-15(3)12(19-15)11(9)17-13(8)16/h9-12H,1,4-7H2,2-3H3/t9-,10+,11-,12+,14+,15+/m0/s1

> <PUBCHEM_IUPAC_INCHIKEY>
ZNURDDCKOFUOKI-NMAMFNKQSA-N

> <PUBCHEM_XLOGP3_AA>
1.7

> <PUBCHEM_EXACT_MASS>
264.136159

> <PUBCHEM_MOLECULAR_FORMULA>
C15H20O4

> <PUBCHEM_MOLECULAR_WEIGHT>
264.3169

> <PUBCHEM_OPENEYE_CAN_SMILES>
CC12CCC3C(C4C(O4)(CCC1O2)C)OC(=O)C3=C

> <PUBCHEM_OPENEYE_ISO_SMILES>
C[C@@]12CC[C@@H]3[C@@H]([C@@H]4[C@](O4)(CC[C@H]1O2)C)OC(=O)C3=C

> <PUBCHEM_CACTVS_TPSA>
51.4

> <PUBCHEM_MONOISOTOPIC_WEIGHT>
264.136159

> <PUBCHEM_TOTAL_CHARGE>
0

> <PUBCHEM_HEAVY_ATOM_COUNT>
19

> <PUBCHEM_ATOM_DEF_STEREO_COUNT>
6

> <PUBCHEM_ATOM_UDEF_STEREO_COUNT>
0

> <PUBCHEM_BOND_DEF_STEREO_COUNT>
0

> <PUBCHEM_BOND_UDEF_STEREO_COUNT>
0

> <PUBCHEM_ISOTOPIC_ATOM_COUNT>
0

> <PUBCHEM_COMPONENT_COUNT>
1

> <PUBCHEM_CACTVS_TAUTO_COUNT>
1

> <PUBCHEM_COORDINATE_TYPE>
1
5
255

> <PUBCHEM_BONDANNOTATIONS>
12  27  5
5  15  6
6  20  5
7  16  6
8  21  5
9  22  6

$$$$

