47205538
  -OEChem-06241222592D

 40 41  0     0  0  0  0  0  0999 V2000
    2.8660   -3.5670    0.0000 S   0  0  0  0  0  0  0  0  0  0  0  0
    2.3660   -4.4330    0.0000 O   0  0  0  0  0  0  0  0  0  0  0  0
    3.3660   -4.4330    0.0000 O   0  0  0  0  0  0  0  0  0  0  0  0
    4.5981   -0.5670    0.0000 O   0  0  0  0  0  0  0  0  0  0  0  0
    2.8660   -1.5670    0.0000 N   0  0  0  0  0  0  0  0  0  0  0  0
    3.7320    0.9330    0.0000 N   0  0  0  0  0  0  0  0  0  0  0  0
    2.0000   -2.0670    0.0000 C   0  0  0  0  0  0  0  0  0  0  0  0
    3.7320   -2.0670    0.0000 C   0  0  0  0  0  0  0  0  0  0  0  0
    2.0000   -3.0670    0.0000 C   0  0  0  0  0  0  0  0  0  0  0  0
    3.7320   -3.0670    0.0000 C   0  0  0  0  0  0  0  0  0  0  0  0
    2.8660   -0.5670    0.0000 C   0  0  0  0  0  0  0  0  0  0  0  0
    3.7320   -0.0670    0.0000 C   0  0  0  0  0  0  0  0  0  0  0  0
    4.5981    1.4330    0.0000 C   0  0  0  0  0  0  0  0  0  0  0  0
    4.5981    2.4330    0.0000 C   0  0  0  0  0  0  0  0  0  0  0  0
    5.4641    2.9330    0.0000 C   0  0  0  0  0  0  0  0  0  0  0  0
    3.7320    2.9330    0.0000 C   0  0  0  0  0  0  0  0  0  0  0  0
    5.4641    3.9330    0.0000 C   0  0  0  0  0  0  0  0  0  0  0  0
    6.3301    2.4330    0.0000 C   0  0  0  0  0  0  0  0  0  0  0  0
    3.7320    3.9330    0.0000 C   0  0  0  0  0  0  0  0  0  0  0  0
    4.5981    4.4330    0.0000 C   0  0  0  0  0  0  0  0  0  0  0  0
    4.3426   -2.1747    0.0000 H   0  0  0  0  0  0  0  0  0  0  0  0
    3.9441   -1.4844    0.0000 H   0  0  0  0  0  0  0  0  0  0  0  0
    1.7880   -1.4844    0.0000 H   0  0  0  0  0  0  0  0  0  0  0  0
    1.3894   -2.1747    0.0000 H   0  0  0  0  0  0  0  0  0  0  0  0
    3.9441   -3.6496    0.0000 H   0  0  0  0  0  0  0  0  0  0  0  0
    4.3426   -2.9593    0.0000 H   0  0  0  0  0  0  0  0  0  0  0  0
    1.3894   -2.9593    0.0000 H   0  0  0  0  0  0  0  0  0  0  0  0
    1.7880   -3.6496    0.0000 H   0  0  0  0  0  0  0  0  0  0  0  0
    2.6540    0.0156    0.0000 H   0  0  0  0  0  0  0  0  0  0  0  0
    2.2554   -0.6746    0.0000 H   0  0  0  0  0  0  0  0  0  0  0  0
    3.1951    1.2430    0.0000 H   0  0  0  0  0  0  0  0  0  0  0  0
    4.8101    0.8504    0.0000 H   0  0  0  0  0  0  0  0  0  0  0  0
    5.2087    1.5407    0.0000 H   0  0  0  0  0  0  0  0  0  0  0  0
    3.1951    2.6230    0.0000 H   0  0  0  0  0  0  0  0  0  0  0  0
    6.0010    4.2430    0.0000 H   0  0  0  0  0  0  0  0  0  0  0  0
    6.0201    1.8961    0.0000 H   0  0  0  0  0  0  0  0  0  0  0  0
    6.8671    2.1230    0.0000 H   0  0  0  0  0  0  0  0  0  0  0  0
    6.6401    2.9700    0.0000 H   0  0  0  0  0  0  0  0  0  0  0  0
    3.1951    4.2430    0.0000 H   0  0  0  0  0  0  0  0  0  0  0  0
    4.5981    5.0530    0.0000 H   0  0  0  0  0  0  0  0  0  0  0  0
  1  2  2  0  0  0  0
  1  3  2  0  0  0  0
  1  9  1  0  0  0  0
  1 10  1  0  0  0  0
  4 12  2  0  0  0  0
  5  7  1  0  0  0  0
  5  8  1  0  0  0  0
  5 11  1  0  0  0  0
  6 12  1  0  0  0  0
  6 13  1  0  0  0  0
  6 31  1  0  0  0  0
  7  9  1  0  0  0  0
  7 23  1  0  0  0  0
  7 24  1  0  0  0  0
  8 10  1  0  0  0  0
  8 21  1  0  0  0  0
  8 22  1  0  0  0  0
  9 27  1  0  0  0  0
  9 28  1  0  0  0  0
 10 25  1  0  0  0  0
 10 26  1  0  0  0  0
 11 12  1  0  0  0  0
 11 29  1  0  0  0  0
 11 30  1  0  0  0  0
 13 14  1  0  0  0  0
 13 32  1  0  0  0  0
 13 33  1  0  0  0  0
 14 15  1  0  0  0  0
 14 16  2  0  0  0  0
 15 17  2  0  0  0  0
 15 18  1  0  0  0  0
 16 19  1  0  0  0  0
 16 34  1  0  0  0  0
 17 20  1  0  0  0  0
 17 35  1  0  0  0  0
 18 36  1  0  0  0  0
 18 37  1  0  0  0  0
 18 38  1  0  0  0  0
 19 20  2  0  0  0  0
 19 39  1  0  0  0  0
 20 40  1  0  0  0  0
M  END
> <PUBCHEM_COMPOUND_CID>
47205538

> <PUBCHEM_COMPOUND_CANONICALIZED>
1

> <PUBCHEM_CACTVS_COMPLEXITY>
416

> <PUBCHEM_CACTVS_HBOND_ACCEPTOR>
4

> <PUBCHEM_CACTVS_HBOND_DONOR>
1

> <PUBCHEM_CACTVS_ROTATABLE_BOND>
4

> <PUBCHEM_CACTVS_SUBSKEYS>
AAADceBzMABAAAAAAAAAAAAAAAAAAAAAAAA8QAAAAAAAAAABAAAAHgQQAAAADADF2ASyAIPAAAqIAiFSEHDCAAAgABAIiICIBIgIYCKAkTGUIAhglgCoiAcQgIAOgAAAAAAQAAAAAAAAACAAAAAAAAAAAA==

> <PUBCHEM_IUPAC_OPENEYE_NAME>
2-(1,1-dioxo-1,4-thiazinan-4-yl)-N-(o-tolylmethyl)acetamide

> <PUBCHEM_IUPAC_CAS_NAME>
2-(1,1-dioxo-1,4-thiazinan-4-yl)-N-[(2-methylphenyl)methyl]acetamide

> <PUBCHEM_IUPAC_NAME>
2-(1,1-dioxo-1,4-thiazinan-4-yl)-N-[(2-methylphenyl)methyl]acetamide

> <PUBCHEM_IUPAC_SYSTEMATIC_NAME>
2-[1,1-bis(oxidanylidene)-1,4-thiazinan-4-yl]-N-[(2-methylphenyl)methyl]ethanamide

> <PUBCHEM_IUPAC_TRADITIONAL_NAME>
2-(1,1-diketo-1,4-thiazinan-4-yl)-N-(2-methylbenzyl)acetamide

> <PUBCHEM_IUPAC_INCHI>
InChI=1S/C14H20N2O3S/c1-12-4-2-3-5-13(12)10-15-14(17)11-16-6-8-20(18,19)9-7-16/h2-5H,6-11H2,1H3,(H,15,17)

> <PUBCHEM_IUPAC_INCHIKEY>
HLAKNJFFROPUHX-UHFFFAOYSA-N

> <PUBCHEM_XLOGP3_AA>
0.6

> <PUBCHEM_EXACT_MASS>
296.119464

> <PUBCHEM_MOLECULAR_FORMULA>
C14H20N2O3S

> <PUBCHEM_MOLECULAR_WEIGHT>
296.3852

> <PUBCHEM_OPENEYE_CAN_SMILES>
CC1=CC=CC=C1CNC(=O)CN2CCS(=O)(=O)CC2

> <PUBCHEM_OPENEYE_ISO_SMILES>
CC1=CC=CC=C1CNC(=O)CN2CCS(=O)(=O)CC2

> <PUBCHEM_CACTVS_TPSA>
74.9

> <PUBCHEM_MONOISOTOPIC_WEIGHT>
296.119464

> <PUBCHEM_TOTAL_CHARGE>
0

> <PUBCHEM_HEAVY_ATOM_COUNT>
20

> <PUBCHEM_ATOM_DEF_STEREO_COUNT>
0

> <PUBCHEM_ATOM_UDEF_STEREO_COUNT>
0

> <PUBCHEM_BOND_DEF_STEREO_COUNT>
0

> <PUBCHEM_BOND_UDEF_STEREO_COUNT>
0

> <PUBCHEM_ISOTOPIC_ATOM_COUNT>
0

> <PUBCHEM_COMPONENT_COUNT>
1

> <PUBCHEM_CACTVS_TAUTO_COUNT>
2

> <PUBCHEM_COORDINATE_TYPE>
1
5
255

> <PUBCHEM_BONDANNOTATIONS>
14  15  8
14  16  8
15  17  8
16  19  8
17  20  8
19  20  8

$$$$

