442512
  -OEChem-07051212582D

 32 33  0     1  0  0  0  0  0999 V2000
    3.7320   -1.8450    0.0000 O   0  0  0  0  0  0  0  0  0  0  0  0
    3.7320    2.1550    0.0000 O   0  0  0  0  0  0  0  0  0  0  0  0
    7.2622   -0.8692    0.0000 O   0  0  0  0  0  0  0  0  0  0  0  0
    2.8660    0.6550    0.0000 C   0  0  2  0  0  0  0  0  0  0  0  0
    2.8660   -0.3450    0.0000 C   0  0  0  0  0  0  0  0  0  0  0  0
    3.7320   -0.8450    0.0000 C   0  0  1  0  0  0  0  0  0  0  0  0
    4.5981   -0.3450    0.0000 C   0  0  0  0  0  0  0  0  0  0  0  0
    4.5981    0.6550    0.0000 C   0  0  0  0  0  0  0  0  0  0  0  0
    3.7320    1.1550    0.0000 C   0  0  0  0  0  0  0  0  0  0  0  0
    2.0000    1.1550    0.0000 C   0  0  0  0  0  0  0  0  0  0  0  0
    5.4920   -0.8797    0.0000 C   0  0  0  0  0  0  0  0  0  0  0  0
    5.4920    1.1897    0.0000 C   0  0  0  0  0  0  0  0  0  0  0  0
    6.3981    0.6758    0.0000 C   0  0  0  0  0  0  0  0  0  0  0  0
    6.3981   -0.3658    0.0000 C   0  0  0  0  0  0  0  0  0  0  0  0
    7.2622    1.1792    0.0000 C   0  0  0  0  0  0  0  0  0  0  0  0
    7.2583   -1.8691    0.0000 C   0  0  0  0  0  0  0  0  0  0  0  0
    2.8660    1.2750    0.0000 H   0  0  0  0  0  0  0  0  0  0  0  0
    2.2554   -0.2373    0.0000 H   0  0  0  0  0  0  0  0  0  0  0  0
    2.6540   -0.9276    0.0000 H   0  0  0  0  0  0  0  0  0  0  0  0
    4.2690   -1.1550    0.0000 H   0  0  0  0  0  0  0  0  0  0  0  0
    2.3100    1.6919    0.0000 H   0  0  0  0  0  0  0  0  0  0  0  0
    1.4631    1.4650    0.0000 H   0  0  0  0  0  0  0  0  0  0  0  0
    1.6900    0.6181    0.0000 H   0  0  0  0  0  0  0  0  0  0  0  0
    5.4848   -1.4996    0.0000 H   0  0  0  0  0  0  0  0  0  0  0  0
    5.4848    1.8096    0.0000 H   0  0  0  0  0  0  0  0  0  0  0  0
    3.1951   -2.1550    0.0000 H   0  0  0  0  0  0  0  0  0  0  0  0
    7.5742    0.6434    0.0000 H   0  0  0  0  0  0  0  0  0  0  0  0
    7.7979    1.4912    0.0000 H   0  0  0  0  0  0  0  0  0  0  0  0
    6.9501    1.7149    0.0000 H   0  0  0  0  0  0  0  0  0  0  0  0
    6.6383   -1.8668    0.0000 H   0  0  0  0  0  0  0  0  0  0  0  0
    7.2559   -2.4891    0.0000 H   0  0  0  0  0  0  0  0  0  0  0  0
    7.8783   -1.8715    0.0000 H   0  0  0  0  0  0  0  0  0  0  0  0
  6  1  1  1  0  0  0
  1 26  1  0  0  0  0
  2  9  2  0  0  0  0
  3 14  1  0  0  0  0
  3 16  1  0  0  0  0
  4  5  1  0  0  0  0
  4  9  1  0  0  0  0
  4 10  1  1  0  0  0
  4 17  1  0  0  0  0
  5  6  1  0  0  0  0
  5 18  1  0  0  0  0
  5 19  1  0  0  0  0
  6  7  1  0  0  0  0
  6 20  1  0  0  0  0
  7  8  1  0  0  0  0
  7 11  2  0  0  0  0
  8  9  1  0  0  0  0
  8 12  2  0  0  0  0
 10 21  1  0  0  0  0
 10 22  1  0  0  0  0
 10 23  1  0  0  0  0
 11 14  1  0  0  0  0
 11 24  1  0  0  0  0
 12 13  1  0  0  0  0
 12 25  1  0  0  0  0
 13 14  2  0  0  0  0
 13 15  1  0  0  0  0
 15 27  1  0  0  0  0
 15 28  1  0  0  0  0
 15 29  1  0  0  0  0
 16 30  1  0  0  0  0
 16 31  1  0  0  0  0
 16 32  1  0  0  0  0
M  END
> <PUBCHEM_COMPOUND_CID>
442512

> <PUBCHEM_COMPOUND_CANONICALIZED>
1

> <PUBCHEM_CACTVS_COMPLEXITY>
276

> <PUBCHEM_CACTVS_HBOND_ACCEPTOR>
3

> <PUBCHEM_CACTVS_HBOND_DONOR>
1

> <PUBCHEM_CACTVS_ROTATABLE_BOND>
1

> <PUBCHEM_CACTVS_SUBSKEYS>
AAADceBwMAAAAAAAAAAAAAAAAAAAAAAAAAAwYAAAAAAAAADBAAAAGgAACAAADRSgmAIyBoAABgCIAqBSAAACCAAkIAAAiAEGCMgMNjKENRqAcSAkwBEIuYfKzPDO4AADAAAYAADAAAYAADAAAAAAAAAAAA==

> <PUBCHEM_IUPAC_OPENEYE_NAME>
(2R,4S)-4-hydroxy-6-methoxy-2,7-dimethyl-tetralin-1-one

> <PUBCHEM_IUPAC_CAS_NAME>
(2R,4S)-4-hydroxy-6-methoxy-2,7-dimethyl-3,4-dihydro-2H-naphthalen-1-one

> <PUBCHEM_IUPAC_NAME>
(2R,4S)-4-hydroxy-6-methoxy-2,7-dimethyl-3,4-dihydro-2H-naphthalen-1-one

> <PUBCHEM_IUPAC_SYSTEMATIC_NAME>
(2R,4S)-6-methoxy-2,7-dimethyl-4-oxidanyl-3,4-dihydro-2H-naphthalen-1-one

> <PUBCHEM_IUPAC_TRADITIONAL_NAME>
(2R,4S)-4-hydroxy-6-methoxy-2,7-dimethyl-tetralin-1-one

> <PUBCHEM_IUPAC_INCHI>
InChI=1S/C13H16O3/c1-7-4-10-9(6-12(7)16-3)11(14)5-8(2)13(10)15/h4,6,8,11,14H,5H2,1-3H3/t8-,11+/m1/s1

> <PUBCHEM_IUPAC_INCHIKEY>
UCEGSXPHVOXHBN-KCJUWKMLSA-N

> <PUBCHEM_XLOGP3_AA>
1.8

> <PUBCHEM_EXACT_MASS>
220.109944

> <PUBCHEM_MOLECULAR_FORMULA>
C13H16O3

> <PUBCHEM_MOLECULAR_WEIGHT>
220.26434

> <PUBCHEM_OPENEYE_CAN_SMILES>
CC1CC(C2=CC(=C(C=C2C1=O)C)OC)O

> <PUBCHEM_OPENEYE_ISO_SMILES>
C[C@@H]1C[C@@H](C2=CC(=C(C=C2C1=O)C)OC)O

> <PUBCHEM_CACTVS_TPSA>
46.5

> <PUBCHEM_MONOISOTOPIC_WEIGHT>
220.109944

> <PUBCHEM_TOTAL_CHARGE>
0

> <PUBCHEM_HEAVY_ATOM_COUNT>
16

> <PUBCHEM_ATOM_DEF_STEREO_COUNT>
2

> <PUBCHEM_ATOM_UDEF_STEREO_COUNT>
0

> <PUBCHEM_BOND_DEF_STEREO_COUNT>
0

> <PUBCHEM_BOND_UDEF_STEREO_COUNT>
0

> <PUBCHEM_ISOTOPIC_ATOM_COUNT>
0

> <PUBCHEM_COMPONENT_COUNT>
1

> <PUBCHEM_CACTVS_TAUTO_COUNT>
2

> <PUBCHEM_COORDINATE_TYPE>
1
5
255

> <PUBCHEM_BONDANNOTATIONS>
6  1  5
11  14  8
12  13  8
13  14  8
4  10  5
7  11  8
7  8  8
8  12  8

$$$$

