5269
  -OEChem-06261200363D

 25 27  0     0  0  0  0  0  0999 V2000
   -2.4621    0.9251   -0.1415 O   0  0  0  0  0  0  0  0  0  0  0  0
   -4.4769   -0.1585   -0.1939 O   0  0  0  0  0  0  0  0  0  0  0  0
   -0.3839   -0.3817   -0.0546 C   0  0  0  0  0  0  0  0  0  0  0  0
   -1.2229   -1.6273   -0.1469 C   0  0  0  0  0  0  0  0  0  0  0  0
    1.0369   -0.3937   -0.0395 C   0  0  0  0  0  0  0  0  0  0  0  0
   -2.5614   -1.4123    0.5390 C   0  0  0  0  0  0  0  0  0  0  0  0
   -1.0553    0.8471   -0.0377 C   0  0  0  0  0  0  0  0  0  0  0  0
    1.7295    0.8451    0.0423 C   0  0  0  0  0  0  0  0  0  0  0  0
   -0.3763    2.0574    0.0332 C   0  0  0  0  0  0  0  0  0  0  0  0
    1.0126    2.0511    0.0838 C   0  0  0  0  0  0  0  0  0  0  0  0
   -3.2683   -0.1956    0.0101 C   0  0  0  0  0  0  0  0  0  0  0  0
    1.8145   -1.5728   -0.1064 C   0  0  0  0  0  0  0  0  0  0  0  0
    3.1338    0.8654    0.0734 C   0  0  0  0  0  0  0  0  0  0  0  0
    3.2103   -1.5336   -0.0771 C   0  0  0  0  0  0  0  0  0  0  0  0
    3.8693   -0.3158    0.0161 C   0  0  0  0  0  0  0  0  0  0  0  0
   -1.3677   -1.8740   -1.2055 H   0  0  0  0  0  0  0  0  0  0  0  0
   -0.7372   -2.4774    0.3411 H   0  0  0  0  0  0  0  0  0  0  0  0
   -2.4413   -1.2878    1.6217 H   0  0  0  0  0  0  0  0  0  0  0  0
   -3.1983   -2.2876    0.3697 H   0  0  0  0  0  0  0  0  0  0  0  0
   -0.9160    2.9996    0.0440 H   0  0  0  0  0  0  0  0  0  0  0  0
    1.5355    3.0039    0.1419 H   0  0  0  0  0  0  0  0  0  0  0  0
    1.3462   -2.5503   -0.1883 H   0  0  0  0  0  0  0  0  0  0  0  0
    3.6717    1.8094    0.1389 H   0  0  0  0  0  0  0  0  0  0  0  0
    3.7792   -2.4575   -0.1286 H   0  0  0  0  0  0  0  0  0  0  0  0
    4.9545   -0.2830    0.0393 H   0  0  0  0  0  0  0  0  0  0  0  0
  1  7  1  0  0  0  0
  1 11  1  0  0  0  0
  2 11  2  0  0  0  0
  3  4  1  0  0  0  0
  3  5  1  0  0  0  0
  3  7  2  0  0  0  0
  4  6  1  0  0  0  0
  4 16  1  0  0  0  0
  4 17  1  0  0  0  0
  5  8  1  0  0  0  0
  5 12  2  0  0  0  0
  6 11  1  0  0  0  0
  6 18  1  0  0  0  0
  6 19  1  0  0  0  0
  7  9  1  0  0  0  0
  8 10  1  0  0  0  0
  8 13  2  0  0  0  0
  9 10  2  0  0  0  0
  9 20  1  0  0  0  0
 10 21  1  0  0  0  0
 12 14  1  0  0  0  0
 12 22  1  0  0  0  0
 13 15  1  0  0  0  0
 13 23  1  0  0  0  0
 14 15  2  0  0  0  0
 14 24  1  0  0  0  0
 15 25  1  0  0  0  0
M  END
> <PUBCHEM_COMPOUND_CID>
5269

> <PUBCHEM_CONFORMER_RMSD>
0.4

> <PUBCHEM_CONFORMER_DIVERSEORDER>
1

> <PUBCHEM_MMFF94_PARTIAL_CHARGES>
19
1 -0.23
10 -0.15
11 0.66
12 -0.15
13 -0.15
14 -0.15
15 -0.15
2 -0.57
20 0.15
21 0.15
22 0.15
23 0.15
24 0.15
25 0.15
3 -0.14
4 0.14
6 0.06
7 0.08
9 -0.15

> <PUBCHEM_EFFECTIVE_ROTOR_COUNT>
0.6

> <PUBCHEM_PHARMACOPHORE_FEATURES>
4
1 2 acceptor
6 1 3 4 6 7 11 rings
6 3 5 7 8 9 10 rings
6 5 8 12 13 14 15 rings

> <PUBCHEM_HEAVY_ATOM_COUNT>
15

> <PUBCHEM_ATOM_DEF_STEREO_COUNT>
0

> <PUBCHEM_ATOM_UDEF_STEREO_COUNT>
0

> <PUBCHEM_BOND_DEF_STEREO_COUNT>
0

> <PUBCHEM_BOND_UDEF_STEREO_COUNT>
0

> <PUBCHEM_ISOTOPIC_ATOM_COUNT>
0

> <PUBCHEM_COMPONENT_COUNT>
1

> <PUBCHEM_CACTVS_TAUTO_COUNT>
1

> <PUBCHEM_CONFORMER_ID>
0000149500000001

> <PUBCHEM_MMFF94_ENERGY>
46.7876

> <PUBCHEM_FEATURE_SELFOVERLAP>
20.349

> <PUBCHEM_SHAPE_FINGERPRINT>
10130415 120 18412827992578385219
10608611 8 18411705378364040172
10618630 7 18411136952553767068
10967382 1 18410292497490480558
11132069 177 18410299077464585890
11471102 20 18410578366023387445
11543360 7 15913033292704480286
12032990 46 18410851079319698062
12382932 28 18408886217844641538
13140716 1 18193563259471888648
13221675 6 18411136922278155266
13380535 76 18410293596838876854
13571099 22 18410011022328958703
14115302 16 17989196036531601631
14144814 61 18409164419850498778
15196674 1 18410292540250074053
15219456 202 18339923714489137075
15442244 35 18337106881668225184
15536298 74 18333732394899752208
15848700 24 18335709342249152382
16945 1 18337670819480091596
193761 8 17617658095336820710
19591789 44 16173113250586214144
200 152 17968103010312987583
20201158 50 18411981355782443099
20510252 161 18188211025714742760
20588541 1 18411698772688144388
20645477 70 18408042905290096271
20871998 22 18189327030196107870
21029758 11 18335146405629395937
21267235 1 18410565206486614222
21501502 16 18265327490179635856
21501925 9 18410581699250312056
221490 88 18197491822997304747
22721475 48 18410288129434803048
2334 1 17761492491404428708
23402539 116 18261967335062824327
23402655 69 18335709364251665613
23463225 33 18411417310844281476
23559900 14 18265901439982327426
2748010 2 18337675337975461332
3312278 4 18412821378523973594
335352 9 18122625225710390740
34934 24 18337680728180562098
5104073 3 18410855464444235585
528886 8 18409172078040938138
537710 114 18411131429162813308
53812653 166 18262242110201899936
69090 78 18335144180773033183
7364860 26 18263363590577131144
81228 2 18195795482793048512
8809292 202 18272928293476521059
9709674 26 18409163350477956326

> <PUBCHEM_SHAPE_MULTIPOLES>
296.95
6.29
2.07
0.63
1.87
0.39
-0.02
-1.56
0.03
-0.42
-0.04
0.02
-0.03
0.19

> <PUBCHEM_SHAPE_SELFOVERLAP>
662.031

> <PUBCHEM_SHAPE_VOLUME>
157.3

> <PUBCHEM_COORDINATE_TYPE>
2
5
10

$$$$

