5462436
  -OEChem-07051212573D

 37 40  0     1  0  0  0  0  0999 V2000
    3.1903    0.4067   -1.1499 O   0  0  0  0  0  0  0  0  0  0  0  0
   -2.7818    1.2431   -0.2204 O   0  0  0  0  0  0  0  0  0  0  0  0
    1.7394   -2.8106    0.4307 O   0  0  0  0  0  0  0  0  0  0  0  0
   -4.6490   -0.0509   -0.5515 O   0  0  0  0  0  0  0  0  0  0  0  0
    1.1807   -0.5710   -0.4291 C   0  0  1  0  0  0  0  0  0  0  0  0
    1.5034    0.6200    0.4791 C   0  0  1  0  0  0  0  0  0  0  0  0
    3.0141    0.4453    0.2899 C   0  0  1  0  0  0  0  0  0  0  0  0
    0.9526    1.9912    0.0537 C   0  0  1  0  0  0  0  0  0  0  0  0
   -0.2730   -0.9503   -0.6702 C   0  0  0  0  0  0  0  0  0  0  0  0
    2.0114   -0.2603   -1.6771 C   0  0  0  0  0  0  0  0  0  0  0  0
    3.2809   -0.9764    0.8179 C   0  0  0  0  0  0  0  0  0  0  0  0
    2.0161   -1.6289    0.2993 C   0  0  0  0  0  0  0  0  0  0  0  0
   -1.2062   -0.4247    0.4329 C   0  0  1  0  0  0  0  0  0  0  0  0
   -0.5082    1.9557   -0.4224 C   0  0  0  0  0  0  0  0  0  0  0  0
   -1.4763    1.0850    0.3862 C   0  0  1  0  0  0  0  0  0  0  0  0
    1.1148    2.9895    1.2081 C   0  0  0  0  0  0  0  0  0  0  0  0
   -2.5895   -0.9629    0.3045 C   0  0  0  0  0  0  0  0  0  0  0  0
   -3.4908    0.0832   -0.2010 C   0  0  0  0  0  0  0  0  0  0  0  0
   -3.0292   -2.1840    0.6191 C   0  0  0  0  0  0  0  0  0  0  0  0
    1.2303    0.4282    1.5269 H   0  0  0  0  0  0  0  0  0  0  0  0
    3.6547    1.2085    0.7366 H   0  0  0  0  0  0  0  0  0  0  0  0
    1.5475    2.3912   -0.7778 H   0  0  0  0  0  0  0  0  0  0  0  0
   -0.3623   -2.0421   -0.7376 H   0  0  0  0  0  0  0  0  0  0  0  0
   -0.6094   -0.5805   -1.6473 H   0  0  0  0  0  0  0  0  0  0  0  0
    2.3295   -1.1526   -2.2261 H   0  0  0  0  0  0  0  0  0  0  0  0
    1.5149    0.4290   -2.3666 H   0  0  0  0  0  0  0  0  0  0  0  0
    3.2984   -1.0159    1.9093 H   0  0  0  0  0  0  0  0  0  0  0  0
    4.1604   -1.4371    0.3636 H   0  0  0  0  0  0  0  0  0  0  0  0
   -0.7975   -0.6969    1.4142 H   0  0  0  0  0  0  0  0  0  0  0  0
   -0.9056    2.9799   -0.4554 H   0  0  0  0  0  0  0  0  0  0  0  0
   -0.5355    1.6430   -1.4743 H   0  0  0  0  0  0  0  0  0  0  0  0
   -1.5585    1.4839    1.4053 H   0  0  0  0  0  0  0  0  0  0  0  0
    2.1632    3.0672    1.5142 H   0  0  0  0  0  0  0  0  0  0  0  0
    0.7848    3.9894    0.9067 H   0  0  0  0  0  0  0  0  0  0  0  0
    0.5280    2.6904    2.0830 H   0  0  0  0  0  0  0  0  0  0  0  0
   -2.3476   -2.9335    1.0072 H   0  0  0  0  0  0  0  0  0  0  0  0
   -4.0695   -2.4672    0.5005 H   0  0  0  0  0  0  0  0  0  0  0  0
  1  7  1  0  0  0  0
  1 10  1  0  0  0  0
  2 15  1  0  0  0  0
  2 18  1  0  0  0  0
  3 12  2  0  0  0  0
  4 18  2  0  0  0  0
  5  6  1  0  0  0  0
  5  9  1  0  0  0  0
  5 10  1  0  0  0  0
  5 12  1  0  0  0  0
  6  7  1  0  0  0  0
  6  8  1  0  0  0  0
  6 20  1  0  0  0  0
  7 11  1  0  0  0  0
  7 21  1  0  0  0  0
  8 14  1  0  0  0  0
  8 16  1  0  0  0  0
  8 22  1  0  0  0  0
  9 13  1  0  0  0  0
  9 23  1  0  0  0  0
  9 24  1  0  0  0  0
 10 25  1  0  0  0  0
 10 26  1  0  0  0  0
 11 12  1  0  0  0  0
 11 27  1  0  0  0  0
 11 28  1  0  0  0  0
 13 15  1  0  0  0  0
 13 17  1  0  0  0  0
 13 29  1  0  0  0  0
 14 15  1  0  0  0  0
 14 30  1  0  0  0  0
 14 31  1  0  0  0  0
 15 32  1  0  0  0  0
 16 33  1  0  0  0  0
 16 34  1  0  0  0  0
 16 35  1  0  0  0  0
 17 18  1  0  0  0  0
 17 19  2  0  0  0  0
 19 36  1  0  0  0  0
 19 37  1  0  0  0  0
M  END
> <PUBCHEM_COMPOUND_CID>
5462436

> <PUBCHEM_CONFORMER_RMSD>
0.6

> <PUBCHEM_CONFORMER_DIVERSEORDER>
1
2
3

> <PUBCHEM_MMFF94_PARTIAL_CHARGES>
16
1 -0.56
10 0.28
11 0.06
12 0.45
13 0.14
15 0.28
17 -0.12
18 0.71
19 -0.3
2 -0.43
3 -0.57
36 0.15
37 0.15
4 -0.57
5 0.06
7 0.28

> <PUBCHEM_EFFECTIVE_ROTOR_COUNT>
1.4

> <PUBCHEM_PHARMACOPHORE_FEATURES>
6
1 1 acceptor
1 3 acceptor
1 4 acceptor
5 2 13 15 17 18 rings
7 1 5 6 7 10 11 12 rings
7 5 6 8 9 13 14 15 rings

> <PUBCHEM_HEAVY_ATOM_COUNT>
19

> <PUBCHEM_ATOM_DEF_STEREO_COUNT>
6

> <PUBCHEM_ATOM_UDEF_STEREO_COUNT>
0

> <PUBCHEM_BOND_DEF_STEREO_COUNT>
0

> <PUBCHEM_BOND_UDEF_STEREO_COUNT>
0

> <PUBCHEM_ISOTOPIC_ATOM_COUNT>
0

> <PUBCHEM_COMPONENT_COUNT>
1

> <PUBCHEM_CACTVS_TAUTO_COUNT>
2

> <PUBCHEM_CONFORMER_ID>
005359A400000001

> <PUBCHEM_MMFF94_ENERGY>
65.6101

> <PUBCHEM_FEATURE_SELFOVERLAP>
30.511

> <PUBCHEM_SHAPE_FINGERPRINT>
10863032 1 18272931605059479024
10967382 1 18411420630738158147
11578080 2 17487648336192524764
12011746 2 18408325488236305572
12382932 28 18336547217512439506
12500047 106 18202007607826572119
12506688 2 18410574015279603952
12553582 1 18337661005690778065
12654215 9 18409730642711521804
12707595 3 18261946375680357405
13140716 1 18265050228571020217
14115302 16 18060696208407680231
14181834 199 18117006493802035693
14223421 5 18048876295274209955
16945 1 18340759416383129177
1813 80 13985757712661768788
20201158 50 18411419509888662051
20559304 39 18411702114325837402
20645477 70 18042407941751609237
21267235 1 18340198686885835755
21501502 16 18266455605973105025
21524375 3 17250337198020982024
22721475 48 18409163329108400329
23184049 29 18050005794358488730
2334 1 17905043647289894329
23419403 2 17483164557886268736
23557571 272 18115590503503756080
23559900 14 18342462529797881224
2748010 2 18051409570075077297
296302 2 17704069564583001157
3060560 45 17894347778358009103
34934 24 18409737252703061591
394222 165 17488735663377610176
495365 180 18042423347746896617
5939293 188 18261114019703753520
6438718 38 17387409262770953969
7364860 26 18042122050958265536
74978 22 18409164381638839755
81228 2 17826500360419553288
8809292 202 18272368655206551091
9709674 26 18411699924109313891

> <PUBCHEM_SHAPE_MULTIPOLES>
367.53
5.99
2.62
1.06
4.5
0.54
0.21
-1.52
0.23
-0.62
-0.84
-0.57
0.06
0.32

> <PUBCHEM_SHAPE_SELFOVERLAP>
813.707

> <PUBCHEM_SHAPE_VOLUME>
201

> <PUBCHEM_COORDINATE_TYPE>
2
5
10

$$$$

