9201
  -OEChem-07051213053D

 29 32  0     0  0  0  0  0  0999 V2000
   -0.1482   -1.1370    0.0008 C   0  0  0  0  0  0  0  0  0  0  0  0
   -1.4381   -1.9307    0.0009 C   0  0  0  0  0  0  0  0  0  0  0  0
   -0.4183    0.2459    0.0011 C   0  0  0  0  0  0  0  0  0  0  0  0
   -2.4772   -0.8294    0.0004 C   0  0  0  0  0  0  0  0  0  0  0  0
   -1.8528    0.4379    0.0007 C   0  0  0  0  0  0  0  0  0  0  0  0
    1.1483   -1.6211    0.0002 C   0  0  0  0  0  0  0  0  0  0  0  0
    0.6179    1.1650    0.0010 C   0  0  0  0  0  0  0  0  0  0  0  0
    2.2115   -0.7031    0.0001 C   0  0  0  0  0  0  0  0  0  0  0  0
    1.9453    0.6981    0.0006 C   0  0  0  0  0  0  0  0  0  0  0  0
   -2.6121    1.5960    0.0003 C   0  0  0  0  0  0  0  0  0  0  0  0
   -3.8551   -0.9570   -0.0008 C   0  0  0  0  0  0  0  0  0  0  0  0
    3.5431   -1.1462   -0.0010 C   0  0  0  0  0  0  0  0  0  0  0  0
    3.0231    1.5968    0.0005 C   0  0  0  0  0  0  0  0  0  0  0  0
   -4.0050    1.4744   -0.0008 C   0  0  0  0  0  0  0  0  0  0  0  0
   -4.6203    0.2106   -0.0017 C   0  0  0  0  0  0  0  0  0  0  0  0
    4.5985   -0.2337   -0.0015 C   0  0  0  0  0  0  0  0  0  0  0  0
    4.3393    1.1336   -0.0006 C   0  0  0  0  0  0  0  0  0  0  0  0
   -1.5186   -2.5393    0.9062 H   0  0  0  0  0  0  0  0  0  0  0  0
   -1.5184   -2.5398   -0.9041 H   0  0  0  0  0  0  0  0  0  0  0  0
    1.3287   -2.6924   -0.0002 H   0  0  0  0  0  0  0  0  0  0  0  0
    0.4063    2.2311    0.0011 H   0  0  0  0  0  0  0  0  0  0  0  0
   -2.1520    2.5784    0.0006 H   0  0  0  0  0  0  0  0  0  0  0  0
   -4.3310   -1.9312   -0.0013 H   0  0  0  0  0  0  0  0  0  0  0  0
    3.7723   -2.2100   -0.0017 H   0  0  0  0  0  0  0  0  0  0  0  0
    2.8478    2.6708    0.0009 H   0  0  0  0  0  0  0  0  0  0  0  0
   -4.6222    2.3691   -0.0012 H   0  0  0  0  0  0  0  0  0  0  0  0
   -5.7050    0.1437   -0.0028 H   0  0  0  0  0  0  0  0  0  0  0  0
    5.6240   -0.5916   -0.0023 H   0  0  0  0  0  0  0  0  0  0  0  0
    5.1627    1.8419   -0.0009 H   0  0  0  0  0  0  0  0  0  0  0  0
  1  2  1  0  0  0  0
  1  3  1  0  0  0  0
  1  6  2  0  0  0  0
  2  4  1  0  0  0  0
  2 18  1  0  0  0  0
  2 19  1  0  0  0  0
  3  5  1  0  0  0  0
  3  7  2  0  0  0  0
  4  5  1  0  0  0  0
  4 11  2  0  0  0  0
  5 10  2  0  0  0  0
  6  8  1  0  0  0  0
  6 20  1  0  0  0  0
  7  9  1  0  0  0  0
  7 21  1  0  0  0  0
  8  9  1  0  0  0  0
  8 12  2  0  0  0  0
  9 13  2  0  0  0  0
 10 14  1  0  0  0  0
 10 22  1  0  0  0  0
 11 15  1  0  0  0  0
 11 23  1  0  0  0  0
 12 16  1  0  0  0  0
 12 24  1  0  0  0  0
 13 17  1  0  0  0  0
 13 25  1  0  0  0  0
 14 15  2  0  0  0  0
 14 26  1  0  0  0  0
 15 27  1  0  0  0  0
 16 17  2  0  0  0  0
 16 28  1  0  0  0  0
 17 29  1  0  0  0  0
M  END
> <PUBCHEM_COMPOUND_CID>
9201

> <PUBCHEM_CONFORMER_RMSD>
0.4

> <PUBCHEM_CONFORMER_DIVERSEORDER>
1

> <PUBCHEM_MMFF94_PARTIAL_CHARGES>
23
1 -0.14
10 -0.15
11 -0.15
12 -0.15
13 -0.15
14 -0.15
15 -0.15
16 -0.15
17 -0.15
2 0.29
20 0.15
21 0.15
22 0.15
23 0.15
24 0.15
25 0.15
26 0.15
27 0.15
28 0.15
29 0.15
4 -0.14
6 -0.15
7 -0.15

> <PUBCHEM_EFFECTIVE_ROTOR_COUNT>
0.2

> <PUBCHEM_PHARMACOPHORE_FEATURES>
4
5 1 2 3 4 5 rings
6 1 3 6 7 8 9 rings
6 4 5 10 11 14 15 rings
6 8 9 12 13 16 17 rings

> <PUBCHEM_HEAVY_ATOM_COUNT>
17

> <PUBCHEM_ATOM_DEF_STEREO_COUNT>
0

> <PUBCHEM_ATOM_UDEF_STEREO_COUNT>
0

> <PUBCHEM_BOND_DEF_STEREO_COUNT>
0

> <PUBCHEM_BOND_UDEF_STEREO_COUNT>
0

> <PUBCHEM_ISOTOPIC_ATOM_COUNT>
0

> <PUBCHEM_COMPONENT_COUNT>
1

> <PUBCHEM_CACTVS_TAUTO_COUNT>
1

> <PUBCHEM_CONFORMER_ID>
000023F100000001

> <PUBCHEM_MMFF94_ENERGY>
59.9177

> <PUBCHEM_FEATURE_SELFOVERLAP>
20.488

> <PUBCHEM_SHAPE_FINGERPRINT>
10062212 137 18336275595048644591
10411042 1 16681472886272045990
10608611 8 18410295795872448064
10616163 171 18337107860894953606
10646746 165 18410291423748604668
10967382 1 18410855490229856128
11132069 177 18410859853927269424
11471102 20 18410013247470164742
12107183 9 17762902468937813896
12403259 415 18410016537093990161
12403814 3 17846502543150504701
13140716 1 18411989039937813394
13380535 76 18410291415032316335
13675066 3 18341891866104327914
138480 1 17689998255226556678
14897335 6 18410012130420043062
15196674 1 18410575088958046210
15375358 24 18335138691609539606
15442244 35 18194402414482364458
15536298 74 18335420179586988758
16945 1 18266458694028178087
17802600 8 18410578383261467145
18186145 218 18341614853609213356
18522853 276 18408041814220560353
200 152 17967537865594250703
20510252 161 18333447664338019961
20645477 70 18261954141192712662
21267235 1 18410846664040765130
23402539 116 18333740108740143941
23402655 69 18334015007689427069
23463225 33 18413389843357736724
23559900 14 18261674869971918486
3004659 81 18271236227893846118
335352 9 18338517572651679102
3545911 37 18410571786144104316
4214541 1 18410573998142081925
474 4 17417244304653064892
495365 180 17386298610134460832
4990 188 18041271136722270548
5104073 3 18411418414387133363
69090 78 18335423456462607743
7364860 26 18264770037784814622
77779 3 18411135839893506208
9709674 26 18408879624922597310
9981440 41 17190940454702614728

> <PUBCHEM_SHAPE_MULTIPOLES>
349.85
9.03
1.9
0.62
0.49
0.08
0
-1.85
0.01
-0.16
0
0
0
0

> <PUBCHEM_SHAPE_SELFOVERLAP>
804.598

> <PUBCHEM_SHAPE_VOLUME>
167.8

> <PUBCHEM_COORDINATE_TYPE>
2
5
10

$$$$

