12313697
  -OEChem-07051213082D

 97 97  0     0  0  0  0  0  0999 V2000
   14.9904   10.2500    0.0000 O   0  0  0  0  0  0  0  0  0  0  0  0
   11.5263    8.2500    0.0000 O   0  0  0  0  0  0  0  0  0  0  0  0
   14.1244    9.7500    0.0000 C   0  0  0  0  0  0  0  0  0  0  0  0
   13.2583    9.2500    0.0000 C   0  0  0  0  0  0  0  0  0  0  0  0
   13.2583    8.2500    0.0000 C   0  0  0  0  0  0  0  0  0  0  0  0
   13.6244   10.6160    0.0000 C   0  0  0  0  0  0  0  0  0  0  0  0
   14.6244    8.8840    0.0000 C   0  0  0  0  0  0  0  0  0  0  0  0
   12.3923    7.7500    0.0000 C   0  0  0  0  0  0  0  0  0  0  0  0
   14.9904   11.2500    0.0000 C   0  0  0  0  0  0  0  0  0  0  0  0
   12.3923    6.7500    0.0000 C   0  0  0  0  0  0  0  0  0  0  0  0
   13.2583    6.2500    0.0000 C   0  0  0  0  0  0  0  0  0  0  0  0
   11.5263    6.2500    0.0000 C   0  0  0  0  0  0  0  0  0  0  0  0
    2.8660   -9.7500    0.0000 C   0  0  0  0  0  0  0  0  0  0  0  0
    2.8660   -8.7500    0.0000 C   0  0  0  0  0  0  0  0  0  0  0  0
   11.5263    5.2500    0.0000 C   0  0  0  0  0  0  0  0  0  0  0  0
    3.7320  -10.2500    0.0000 C   0  0  0  0  0  0  0  0  0  0  0  0
    3.7320   -8.2500    0.0000 C   0  0  0  0  0  0  0  0  0  0  0  0
    4.5981   -9.7500    0.0000 C   0  0  0  0  0  0  0  0  0  0  0  0
    4.5981   -8.7500    0.0000 C   0  0  0  0  0  0  0  0  0  0  0  0
    2.0000  -10.2500    0.0000 C   0  0  0  0  0  0  0  0  0  0  0  0
    2.0000   -8.2500    0.0000 C   0  0  0  0  0  0  0  0  0  0  0  0
    3.7320  -11.2500    0.0000 C   0  0  0  0  0  0  0  0  0  0  0  0
   10.6603    4.7500    0.0000 C   0  0  0  0  0  0  0  0  0  0  0  0
    3.7320   -7.2500    0.0000 C   0  0  0  0  0  0  0  0  0  0  0  0
   10.6603    3.7500    0.0000 C   0  0  0  0  0  0  0  0  0  0  0  0
    4.5981   -6.7500    0.0000 C   0  0  0  0  0  0  0  0  0  0  0  0
    4.5981   -5.7500    0.0000 C   0  0  0  0  0  0  0  0  0  0  0  0
   11.5263    3.2500    0.0000 C   0  0  0  0  0  0  0  0  0  0  0  0
    9.7942    3.2500    0.0000 C   0  0  0  0  0  0  0  0  0  0  0  0
    3.7320   -5.2500    0.0000 C   0  0  0  0  0  0  0  0  0  0  0  0
    5.4641   -5.2500    0.0000 C   0  0  0  0  0  0  0  0  0  0  0  0
    9.7942    2.2500    0.0000 C   0  0  0  0  0  0  0  0  0  0  0  0
    5.4641   -4.2500    0.0000 C   0  0  0  0  0  0  0  0  0  0  0  0
    8.9282    1.7500    0.0000 C   0  0  0  0  0  0  0  0  0  0  0  0
    6.3301   -3.7500    0.0000 C   0  0  0  0  0  0  0  0  0  0  0  0
    6.3301   -2.7500    0.0000 C   0  0  0  0  0  0  0  0  0  0  0  0
    8.9282    0.7500    0.0000 C   0  0  0  0  0  0  0  0  0  0  0  0
    7.1962   -2.2500    0.0000 C   0  0  0  0  0  0  0  0  0  0  0  0
    8.0622    0.2500    0.0000 C   0  0  0  0  0  0  0  0  0  0  0  0
    5.4641   -2.2500    0.0000 C   0  0  0  0  0  0  0  0  0  0  0  0
    9.7942    0.2500    0.0000 C   0  0  0  0  0  0  0  0  0  0  0  0
    7.1962   -1.2500    0.0000 C   0  0  0  0  0  0  0  0  0  0  0  0
    8.0622   -0.7500    0.0000 C   0  0  0  0  0  0  0  0  0  0  0  0
   13.0463    9.8326    0.0000 H   0  0  0  0  0  0  0  0  0  0  0  0
   12.6477    9.1423    0.0000 H   0  0  0  0  0  0  0  0  0  0  0  0
   13.4704    7.6674    0.0000 H   0  0  0  0  0  0  0  0  0  0  0  0
   13.8689    8.3577    0.0000 H   0  0  0  0  0  0  0  0  0  0  0  0
   14.0874    8.5740    0.0000 H   0  0  0  0  0  0  0  0  0  0  0  0
   14.1613   10.9260    0.0000 H   0  0  0  0  0  0  0  0  0  0  0  0
   13.3144   11.1530    0.0000 H   0  0  0  0  0  0  0  0  0  0  0  0
   13.0874   10.3060    0.0000 H   0  0  0  0  0  0  0  0  0  0  0  0
   14.9344    8.3470    0.0000 H   0  0  0  0  0  0  0  0  0  0  0  0
   15.1613    9.1940    0.0000 H   0  0  0  0  0  0  0  0  0  0  0  0
   15.6104   11.2500    0.0000 H   0  0  0  0  0  0  0  0  0  0  0  0
   14.9904   11.8700    0.0000 H   0  0  0  0  0  0  0  0  0  0  0  0
   14.3704   11.2500    0.0000 H   0  0  0  0  0  0  0  0  0  0  0  0
   12.9483    5.7131    0.0000 H   0  0  0  0  0  0  0  0  0  0  0  0
   13.7953    5.9400    0.0000 H   0  0  0  0  0  0  0  0  0  0  0  0
   13.5683    6.7869    0.0000 H   0  0  0  0  0  0  0  0  0  0  0  0
   10.9893    6.5600    0.0000 H   0  0  0  0  0  0  0  0  0  0  0  0
   12.0632    4.9400    0.0000 H   0  0  0  0  0  0  0  0  0  0  0  0
    5.1350  -10.0600    0.0000 H   0  0  0  0  0  0  0  0  0  0  0  0
    5.1350   -8.4400    0.0000 H   0  0  0  0  0  0  0  0  0  0  0  0
    1.6900   -9.7131    0.0000 H   0  0  0  0  0  0  0  0  0  0  0  0
    1.4631  -10.5600    0.0000 H   0  0  0  0  0  0  0  0  0  0  0  0
    2.3100  -10.7869    0.0000 H   0  0  0  0  0  0  0  0  0  0  0  0
    2.3100   -7.7131    0.0000 H   0  0  0  0  0  0  0  0  0  0  0  0
    1.4631   -7.9400    0.0000 H   0  0  0  0  0  0  0  0  0  0  0  0
    1.6900   -8.7869    0.0000 H   0  0  0  0  0  0  0  0  0  0  0  0
    3.1120  -11.2500    0.0000 H   0  0  0  0  0  0  0  0  0  0  0  0
    3.7320  -11.8700    0.0000 H   0  0  0  0  0  0  0  0  0  0  0  0
    4.3520  -11.2500    0.0000 H   0  0  0  0  0  0  0  0  0  0  0  0
    3.1951   -6.9400    0.0000 H   0  0  0  0  0  0  0  0  0  0  0  0
   10.1233    5.0600    0.0000 H   0  0  0  0  0  0  0  0  0  0  0  0
    5.1350   -7.0600    0.0000 H   0  0  0  0  0  0  0  0  0  0  0  0
   11.2163    2.7131    0.0000 H   0  0  0  0  0  0  0  0  0  0  0  0
   12.0632    2.9400    0.0000 H   0  0  0  0  0  0  0  0  0  0  0  0
   11.8363    3.7869    0.0000 H   0  0  0  0  0  0  0  0  0  0  0  0
    9.2573    3.5600    0.0000 H   0  0  0  0  0  0  0  0  0  0  0  0
    4.0420   -4.7131    0.0000 H   0  0  0  0  0  0  0  0  0  0  0  0
    3.1951   -4.9400    0.0000 H   0  0  0  0  0  0  0  0  0  0  0  0
    3.4220   -5.7869    0.0000 H   0  0  0  0  0  0  0  0  0  0  0  0
    6.0010   -5.5600    0.0000 H   0  0  0  0  0  0  0  0  0  0  0  0
   10.3312    1.9400    0.0000 H   0  0  0  0  0  0  0  0  0  0  0  0
    4.9272   -3.9400    0.0000 H   0  0  0  0  0  0  0  0  0  0  0  0
    8.3913    2.0600    0.0000 H   0  0  0  0  0  0  0  0  0  0  0  0
    6.8671   -4.0600    0.0000 H   0  0  0  0  0  0  0  0  0  0  0  0
    7.7331   -2.5600    0.0000 H   0  0  0  0  0  0  0  0  0  0  0  0
    7.5252    0.5600    0.0000 H   0  0  0  0  0  0  0  0  0  0  0  0
    5.7741   -1.7131    0.0000 H   0  0  0  0  0  0  0  0  0  0  0  0
    4.9272   -1.9400    0.0000 H   0  0  0  0  0  0  0  0  0  0  0  0
    5.1541   -2.7869    0.0000 H   0  0  0  0  0  0  0  0  0  0  0  0
    9.4842   -0.2869    0.0000 H   0  0  0  0  0  0  0  0  0  0  0  0
   10.3312   -0.0600    0.0000 H   0  0  0  0  0  0  0  0  0  0  0  0
   10.1042    0.7869    0.0000 H   0  0  0  0  0  0  0  0  0  0  0  0
    6.6592   -0.9400    0.0000 H   0  0  0  0  0  0  0  0  0  0  0  0
    8.5991   -1.0600    0.0000 H   0  0  0  0  0  0  0  0  0  0  0  0
  1  3  1  0  0  0  0
  1  9  1  0  0  0  0
  2  8  2  0  0  0  0
  3  4  1  0  0  0  0
  3  6  1  0  0  0  0
  3  7  1  0  0  0  0
  4  5  1  0  0  0  0
  4 44  1  0  0  0  0
  4 45  1  0  0  0  0
  5  8  1  0  0  0  0
  5 46  1  0  0  0  0
  5 47  1  0  0  0  0
  6 49  1  0  0  0  0
  6 50  1  0  0  0  0
  6 51  1  0  0  0  0
  7 48  1  0  0  0  0
  7 52  1  0  0  0  0
  7 53  1  0  0  0  0
  8 10  1  0  0  0  0
  9 54  1  0  0  0  0
  9 55  1  0  0  0  0
  9 56  1  0  0  0  0
 10 11  1  0  0  0  0
 10 12  2  0  0  0  0
 11 57  1  0  0  0  0
 11 58  1  0  0  0  0
 11 59  1  0  0  0  0
 12 15  1  0  0  0  0
 12 60  1  0  0  0  0
 13 14  1  0  0  0  0
 13 16  2  0  0  0  0
 13 20  1  0  0  0  0
 14 17  2  0  0  0  0
 14 21  1  0  0  0  0
 15 23  2  0  0  0  0
 15 61  1  0  0  0  0
 16 18  1  0  0  0  0
 16 22  1  0  0  0  0
 17 19  1  0  0  0  0
 17 24  1  0  0  0  0
 18 19  2  0  0  0  0
 18 62  1  0  0  0  0
 19 63  1  0  0  0  0
 20 64  1  0  0  0  0
 20 65  1  0  0  0  0
 20 66  1  0  0  0  0
 21 67  1  0  0  0  0
 21 68  1  0  0  0  0
 21 69  1  0  0  0  0
 22 70  1  0  0  0  0
 22 71  1  0  0  0  0
 22 72  1  0  0  0  0
 23 25  1  0  0  0  0
 23 74  1  0  0  0  0
 24 26  2  0  0  0  0
 24 73  1  0  0  0  0
 25 28  1  0  0  0  0
 25 29  2  0  0  0  0
 26 27  1  0  0  0  0
 26 75  1  0  0  0  0
 27 30  1  0  0  0  0
 27 31  2  0  0  0  0
 28 76  1  0  0  0  0
 28 77  1  0  0  0  0
 28 78  1  0  0  0  0
 29 32  1  0  0  0  0
 29 79  1  0  0  0  0
 30 80  1  0  0  0  0
 30 81  1  0  0  0  0
 30 82  1  0  0  0  0
 31 33  1  0  0  0  0
 31 83  1  0  0  0  0
 32 34  2  0  0  0  0
 32 84  1  0  0  0  0
 33 35  2  0  0  0  0
 33 85  1  0  0  0  0
 34 37  1  0  0  0  0
 34 86  1  0  0  0  0
 35 36  1  0  0  0  0
 35 87  1  0  0  0  0
 36 38  2  0  0  0  0
 36 40  1  0  0  0  0
 37 39  2  0  0  0  0
 37 41  1  0  0  0  0
 38 42  1  0  0  0  0
 38 88  1  0  0  0  0
 39 43  1  0  0  0  0
 39 89  1  0  0  0  0
 40 90  1  0  0  0  0
 40 91  1  0  0  0  0
 40 92  1  0  0  0  0
 41 93  1  0  0  0  0
 41 94  1  0  0  0  0
 41 95  1  0  0  0  0
 42 43  2  0  0  0  0
 42 96  1  0  0  0  0
 43 97  1  0  0  0  0
M  END
> <PUBCHEM_COMPOUND_CID>
12313697

> <PUBCHEM_COMPOUND_CANONICALIZED>
1

> <PUBCHEM_CACTVS_COMPLEXITY>
1190

> <PUBCHEM_CACTVS_HBOND_ACCEPTOR>
2

> <PUBCHEM_CACTVS_HBOND_DONOR>
0

> <PUBCHEM_CACTVS_ROTATABLE_BOND>
15

> <PUBCHEM_CACTVS_SUBSKEYS>
AAADcfB8MAAAAAAAAAAAAAAAAAAAAAAAAAAwAAAAAAAAAAABAAAAGgAAAAAADESAmAIyAIAABACIAqBSAAACAAAgAAAIiAEAAMgIIDKAERCAIAAkgAAIiYeKwMAOwAACAAAQAACAAAQAACAAAAAAAAAAAA==

> <PUBCHEM_IUPAC_OPENEYE_NAME>
(6E,8E,10E,12E,14E,16E,18E,20E,22E,24E)-2-methoxy-2,6,10,14,19,23-hexamethyl-25-(2,3,4-trimethylphenyl)pentacosa-6,8,10,12,14,16,18,20,22,24-decaen-5-one

> <PUBCHEM_IUPAC_CAS_NAME>
(6E,8E,10E,12E,14E,16E,18E,20E,22E,24E)-2-methoxy-2,6,10,14,19,23-hexamethyl-25-(2,3,4-trimethylphenyl)-5-pentacosa-6,8,10,12,14,16,18,20,22,24-decaenone

> <PUBCHEM_IUPAC_NAME>
(6E,8E,10E,12E,14E,16E,18E,20E,22E,24E)-2-methoxy-2,6,10,14,19,23-hexamethyl-25-(2,3,4-trimethylphenyl)pentacosa-6,8,10,12,14,16,18,20,22,24-decaen-5-one

> <PUBCHEM_IUPAC_SYSTEMATIC_NAME>
(6E,8E,10E,12E,14E,16E,18E,20E,22E,24E)-2-methoxy-2,6,10,14,19,23-hexamethyl-25-(2,3,4-trimethylphenyl)pentacosa-6,8,10,12,14,16,18,20,22,24-decaen-5-one

> <PUBCHEM_IUPAC_TRADITIONAL_NAME>
(6E,8E,10E,12E,14E,16E,18E,20E,22E,24E)-2-methoxy-2,6,10,14,19,23-hexamethyl-25-(2,3,4-trimethylphenyl)pentacosa-6,8,10,12,14,16,18,20,22,24-decaen-5-one

> <PUBCHEM_IUPAC_INCHI>
InChI=1S/C41H54O2/c1-31(19-14-21-33(3)23-16-24-36(6)40(42)29-30-41(9,10)43-11)17-12-13-18-32(2)20-15-22-34(4)25-27-39-28-26-35(5)37(7)38(39)8/h12-28H,29-30H2,1-11H3/b13-12+,19-14+,20-15+,23-16+,27-25+,31-17+,32-18+,33-21+,34-22+,36-24+

> <PUBCHEM_IUPAC_INCHIKEY>
FSQZIFSGNDUYRQ-TYKRLFMMSA-N

> <PUBCHEM_XLOGP3_AA>
12.5

> <PUBCHEM_EXACT_MASS>
578.412381

> <PUBCHEM_MOLECULAR_FORMULA>
C41H54O2

> <PUBCHEM_MOLECULAR_WEIGHT>
578.86626

> <PUBCHEM_OPENEYE_CAN_SMILES>
CC1=C(C(=C(C=C1)C=CC(=CC=CC(=CC=CC=C(C)C=CC=C(C)C=CC=C(C)C(=O)CCC(C)(C)OC)C)C)C)C

> <PUBCHEM_OPENEYE_ISO_SMILES>
CC1=C(C(=C(C=C1)/C=C/C(=C/C=C/C(=C/C=C/C=C(\C)/C=C/C=C(\C)/C=C/C=C(\C)/C(=O)CCC(C)(C)OC)/C)/C)C)C

> <PUBCHEM_CACTVS_TPSA>
26.3

> <PUBCHEM_MONOISOTOPIC_WEIGHT>
578.412381

> <PUBCHEM_TOTAL_CHARGE>
0

> <PUBCHEM_HEAVY_ATOM_COUNT>
43

> <PUBCHEM_ATOM_DEF_STEREO_COUNT>
0

> <PUBCHEM_ATOM_UDEF_STEREO_COUNT>
0

> <PUBCHEM_BOND_DEF_STEREO_COUNT>
10

> <PUBCHEM_BOND_UDEF_STEREO_COUNT>
0

> <PUBCHEM_ISOTOPIC_ATOM_COUNT>
0

> <PUBCHEM_COMPONENT_COUNT>
1

> <PUBCHEM_CACTVS_TAUTO_COUNT>
2

> <PUBCHEM_COORDINATE_TYPE>
1
5
255

> <PUBCHEM_BONDANNOTATIONS>
13  14  8
13  16  8
14  17  8
16  18  8
17  19  8
18  19  8

$$$$

