56928169
  -OEChem-07051213153D

 72 74  0     1  0  0  0  0  0999 V2000
    5.1040    2.1951   -1.7882 Cl  0  0  0  0  0  0  0  0  0  0  0  0
   -5.2260    0.6126   -0.5169 O   0  0  0  0  0  0  0  0  0  0  0  0
   -3.2144   -1.6876    1.2945 O   0  0  0  0  0  0  0  0  0  0  0  0
   -2.9055   -3.8661   -0.3752 O   0  0  0  0  0  0  0  0  0  0  0  0
   -6.8424   -0.9077   -0.9254 O   0  0  0  0  0  0  0  0  0  0  0  0
   -0.4572    3.8430    2.2867 O   0  0  0  0  0  0  0  0  0  0  0  0
    0.7946    1.5404    1.1298 O   0  0  0  0  0  0  0  0  0  0  0  0
    6.4148   -0.4594   -1.7728 O   0  0  0  0  0  0  0  0  0  0  0  0
   -4.7379   -1.6782   -0.4676 N   0  0  0  0  0  0  0  0  0  0  0  0
    2.7847    2.1288    0.0303 N   0  0  0  0  0  0  0  0  0  0  0  0
   -3.3336   -1.4949   -0.1166 C   0  0  1  0  0  0  0  0  0  0  0  0
   -3.9345    0.9265    0.0621 C   0  0  1  0  0  0  0  0  0  0  0  0
   -2.8935   -0.0657   -0.4595 C   0  0  0  0  0  0  0  0  0  0  0  0
   -3.5892    2.3958   -0.2924 C   0  0  2  0  0  0  0  0  0  0  0  0
   -2.4851   -2.5767   -0.8311 C   0  0  1  0  0  0  0  0  0  0  0  0
   -2.3818    2.8999    0.4745 C   0  0  0  0  0  0  0  0  0  0  0  0
   -4.7670    3.3335    0.0134 C   0  0  0  0  0  0  0  0  0  0  0  0
   -5.6686   -0.6741   -0.6409 C   0  0  0  0  0  0  0  0  0  0  0  0
   -0.9993   -2.3983   -0.6462 C   0  0  0  0  0  0  0  0  0  0  0  0
   -1.3591    3.6495    0.0094 C   0  0  0  0  0  0  0  0  0  0  0  0
   -0.2591    4.1991    0.9182 C   0  0  2  0  0  0  0  0  0  0  0  0
   -1.2588    4.1054   -1.4251 C   0  0  0  0  0  0  0  0  0  0  0  0
   -0.2302   -3.0330    0.2532 C   0  0  0  0  0  0  0  0  0  0  0  0
    1.1750    3.8419    0.5024 C   0  0  0  0  0  0  0  0  0  0  0  0
   -2.6332   -4.8661   -1.3428 C   0  0  0  0  0  0  0  0  0  0  0  0
    1.1810   -2.7426    0.3850 C   0  0  0  0  0  0  0  0  0  0  0  0
    1.5349    2.3637    0.6019 C   0  0  0  0  0  0  0  0  0  0  0  0
    2.0123   -3.1055    1.3835 C   0  0  0  0  0  0  0  0  0  0  0  0
    3.4623   -2.6361    1.4678 C   0  0  0  0  0  0  0  0  0  0  0  0
    3.8586   -1.4204    0.6548 C   0  0  0  0  0  0  0  0  0  0  0  0
    3.4977    0.9075    0.0116 C   0  0  0  0  0  0  0  0  0  0  0  0
    1.6156   -3.9784    2.5487 C   0  0  0  0  0  0  0  0  0  0  0  0
    3.1554   -0.2073    0.7833 C   0  0  0  0  0  0  0  0  0  0  0  0
    4.9556   -1.4813   -0.2123 C   0  0  0  0  0  0  0  0  0  0  0  0
    4.6100    0.8283   -0.8353 C   0  0  0  0  0  0  0  0  0  0  0  0
    5.3341   -0.3589   -0.9465 C   0  0  0  0  0  0  0  0  0  0  0  0
    7.6859   -0.1326   -1.2165 C   0  0  0  0  0  0  0  0  0  0  0  0
   -4.0460    0.8340    1.1504 H   0  0  0  0  0  0  0  0  0  0  0  0
   -2.8164    0.0373   -1.5498 H   0  0  0  0  0  0  0  0  0  0  0  0
   -1.9151    0.1607   -0.0217 H   0  0  0  0  0  0  0  0  0  0  0  0
   -3.4193    2.4379   -1.3736 H   0  0  0  0  0  0  0  0  0  0  0  0
   -2.6930   -2.5013   -1.9087 H   0  0  0  0  0  0  0  0  0  0  0  0
   -5.0808   -2.6329   -0.5171 H   0  0  0  0  0  0  0  0  0  0  0  0
   -2.4058    2.6516    1.5340 H   0  0  0  0  0  0  0  0  0  0  0  0
   -5.0675    3.2677    1.0653 H   0  0  0  0  0  0  0  0  0  0  0  0
   -5.6388    3.0906   -0.6030 H   0  0  0  0  0  0  0  0  0  0  0  0
   -4.5056    4.3768   -0.1979 H   0  0  0  0  0  0  0  0  0  0  0  0
   -2.3065   -1.4627    1.5586 H   0  0  0  0  0  0  0  0  0  0  0  0
   -0.5433   -1.6570   -1.3014 H   0  0  0  0  0  0  0  0  0  0  0  0
   -0.3450    5.2928    0.8911 H   0  0  0  0  0  0  0  0  0  0  0  0
   -0.9725    5.1620   -1.4695 H   0  0  0  0  0  0  0  0  0  0  0  0
   -2.1988    4.0234   -1.9752 H   0  0  0  0  0  0  0  0  0  0  0  0
   -0.5017    3.5199   -1.9561 H   0  0  0  0  0  0  0  0  0  0  0  0
   -0.6832   -3.7454    0.9321 H   0  0  0  0  0  0  0  0  0  0  0  0
    1.3740    4.1899   -0.5179 H   0  0  0  0  0  0  0  0  0  0  0  0
    1.8718    4.3673    1.1693 H   0  0  0  0  0  0  0  0  0  0  0  0
   -2.9475   -5.8297   -0.9317 H   0  0  0  0  0  0  0  0  0  0  0  0
   -1.5667   -4.9294   -1.5775 H   0  0  0  0  0  0  0  0  0  0  0  0
   -3.2086   -4.6845   -2.2563 H   0  0  0  0  0  0  0  0  0  0  0  0
    1.5738   -2.1256   -0.4206 H   0  0  0  0  0  0  0  0  0  0  0  0
   -0.2764    2.8931    2.3856 H   0  0  0  0  0  0  0  0  0  0  0  0
    4.1021   -3.4878    1.2023 H   0  0  0  0  0  0  0  0  0  0  0  0
    3.6970   -2.3920    2.5130 H   0  0  0  0  0  0  0  0  0  0  0  0
    3.2158    2.8920   -0.4868 H   0  0  0  0  0  0  0  0  0  0  0  0
    2.3376   -0.1662    1.4953 H   0  0  0  0  0  0  0  0  0  0  0  0
    1.6700   -3.4070    3.4814 H   0  0  0  0  0  0  0  0  0  0  0  0
    0.6070   -4.3888    2.4734 H   0  0  0  0  0  0  0  0  0  0  0  0
    2.3008   -4.8297    2.6261 H   0  0  0  0  0  0  0  0  0  0  0  0
    5.5210   -2.4048   -0.3135 H   0  0  0  0  0  0  0  0  0  0  0  0
    7.6837    0.8726   -0.7838 H   0  0  0  0  0  0  0  0  0  0  0  0
    7.9639   -0.8659   -0.4528 H   0  0  0  0  0  0  0  0  0  0  0  0
    8.4290   -0.1657   -2.0180 H   0  0  0  0  0  0  0  0  0  0  0  0
  1 35  1  0  0  0  0
  2 12  1  0  0  0  0
  2 18  1  0  0  0  0
  3 11  1  0  0  0  0
  3 48  1  0  0  0  0
  4 15  1  0  0  0  0
  4 25  1  0  0  0  0
  5 18  2  0  0  0  0
  6 21  1  0  0  0  0
  6 61  1  0  0  0  0
  7 27  2  0  0  0  0
  8 36  1  0  0  0  0
  8 37  1  0  0  0  0
  9 11  1  0  0  0  0
  9 18  1  0  0  0  0
  9 43  1  0  0  0  0
 10 27  1  0  0  0  0
 10 31  1  0  0  0  0
 10 64  1  0  0  0  0
 11 13  1  0  0  0  0
 11 15  1  0  0  0  0
 12 13  1  0  0  0  0
 12 14  1  0  0  0  0
 12 38  1  0  0  0  0
 13 39  1  0  0  0  0
 13 40  1  0  0  0  0
 14 16  1  0  0  0  0
 14 17  1  0  0  0  0
 14 41  1  0  0  0  0
 15 19  1  0  0  0  0
 15 42  1  0  0  0  0
 16 20  2  0  0  0  0
 16 44  1  0  0  0  0
 17 45  1  0  0  0  0
 17 46  1  0  0  0  0
 17 47  1  0  0  0  0
 19 23  2  0  0  0  0
 19 49  1  0  0  0  0
 20 21  1  0  0  0  0
 20 22  1  0  0  0  0
 21 24  1  0  0  0  0
 21 50  1  0  0  0  0
 22 51  1  0  0  0  0
 22 52  1  0  0  0  0
 22 53  1  0  0  0  0
 23 26  1  0  0  0  0
 23 54  1  0  0  0  0
 24 27  1  0  0  0  0
 24 55  1  0  0  0  0
 24 56  1  0  0  0  0
 25 57  1  0  0  0  0
 25 58  1  0  0  0  0
 25 59  1  0  0  0  0
 26 28  2  0  0  0  0
 26 60  1  0  0  0  0
 28 29  1  0  0  0  0
 28 32  1  0  0  0  0
 29 30  1  0  0  0  0
 29 62  1  0  0  0  0
 29 63  1  0  0  0  0
 30 33  2  0  0  0  0
 30 34  1  0  0  0  0
 31 33  1  0  0  0  0
 31 35  2  0  0  0  0
 32 66  1  0  0  0  0
 32 67  1  0  0  0  0
 32 68  1  0  0  0  0
 33 65  1  0  0  0  0
 34 36  2  0  0  0  0
 34 69  1  0  0  0  0
 35 36  1  0  0  0  0
 37 70  1  0  0  0  0
 37 71  1  0  0  0  0
 37 72  1  0  0  0  0
M  END
> <PUBCHEM_COMPOUND_CID>
56928169

> <PUBCHEM_CONFORMER_RMSD>
0.8

> <PUBCHEM_CONFORMER_DIVERSEORDER>
1
2

> <PUBCHEM_MMFF94_PARTIAL_CHARGES>
45
1 -0.18
10 -0.55
11 0.58
12 0.28
14 0.14
15 0.42
16 -0.29
18 0.78
19 -0.29
2 -0.43
20 -0.28
21 0.42
22 0.14
23 -0.15
24 0.06
25 0.28
26 -0.15
27 0.57
28 -0.28
29 0.28
3 -0.68
30 -0.14
31 0.12
32 0.14
33 -0.15
34 -0.15
35 0.18
36 0.08
37 0.28
4 -0.56
43 0.37
44 0.15
48 0.4
49 0.15
5 -0.57
54 0.15
6 -0.68
60 0.15
61 0.4
64 0.37
65 0.15
69 0.15
7 -0.57
8 -0.36
9 -0.73

> <PUBCHEM_EFFECTIVE_ROTOR_COUNT>
3.8

> <PUBCHEM_PHARMACOPHORE_FEATURES>
12
1 10 donor
1 3 acceptor
1 3 donor
1 4 acceptor
1 5 acceptor
1 6 acceptor
1 6 donor
1 7 acceptor
1 8 acceptor
1 9 donor
6 2 9 11 12 13 18 rings
6 30 31 33 34 35 36 rings

> <PUBCHEM_HEAVY_ATOM_COUNT>
37

> <PUBCHEM_ATOM_DEF_STEREO_COUNT>
5

> <PUBCHEM_ATOM_UDEF_STEREO_COUNT>
0

> <PUBCHEM_BOND_DEF_STEREO_COUNT>
3

> <PUBCHEM_BOND_UDEF_STEREO_COUNT>
0

> <PUBCHEM_ISOTOPIC_ATOM_COUNT>
0

> <PUBCHEM_COMPONENT_COUNT>
1

> <PUBCHEM_CACTVS_TAUTO_COUNT>
6

> <PUBCHEM_CONFORMER_ID>
0364A7A900000001

> <PUBCHEM_MMFF94_ENERGY>
113.5267

> <PUBCHEM_FEATURE_SELFOVERLAP>
60.944

> <PUBCHEM_SHAPE_FINGERPRINT>
10190206 1 18338217359376078252
10462674 296 17608381138388681094
10670039 82 18410291449829722934
10675989 125 18342740668255156304
10677394 353 18337094711034032603
11434127 23 16772361064133791520
11513181 2 18044937024174584822
12218070 45 17548442726700553298
12788726 201 18411133662973049322
12978246 48 17834402597780154689
13122387 1 17039796634123872833
13165053 182 17126451998306513356
13631057 29 18408884075157614208
14114211 80 18044084881562157169
14251757 5 18409443713210890660
14279260 333 18411417350375375862
14394314 77 18335701697535400817
14931854 50 18412546539139834374
14932702 115 17899992808689370872
15001296 14 18269563753498734864
15250474 111 18124598849462680336
15264996 142 17693077978964356962
15274700 256 18408325489760689194
15274700 259 17628378240590722045
15297060 5 17897159337106599072
15320467 1 18409736131816707201
15351339 4 18341900726880563162
15448158 6 18336268921154503815
15790856 291 18338785716383135134
15968369 153 18262246512253286547
161222 619 15966241628295923770
17627616 140 18270401736035932067
19311894 1 18334002879050338854
19319366 153 18202004326166012362
19930381 70 17546460981302424843
20764821 26 18121505919111337377
20775530 9 18334867108058926449
21792965 302 18268993094960394828
23559900 14 18044943372531431625
354706 35 16753835061624759453
437795 70 18260816099629485446
44880168 125 17313388971282755134
463206 1 18410011013781326457
474144 1 18130239266787617738
5776283 40 17980754948901698724
6608658 132 18409740560081600887

> <PUBCHEM_SHAPE_MULTIPOLES>
712.27
14.11
7.09
1.6
6.99
0.41
0.42
-1.13
-7.2
-4.42
1.3
1.39
-0.41
-2.76

> <PUBCHEM_SHAPE_SELFOVERLAP>
1471.697

> <PUBCHEM_SHAPE_VOLUME>
404.5

> <PUBCHEM_COORDINATE_TYPE>
2
5
10

$$$$

