54680478
  -OEChem-07051213023D

 27 28  0     0  0  0  0  0  0999 V2000
    2.0981   -0.9789    0.0888 O   0  0  0  0  0  0  0  0  0  0  0  0
   -6.1702    0.3099   -0.0255 O   0  0  0  0  0  0  0  0  0  0  0  0
    4.9519    2.0257   -0.1904 O   0  0  0  0  0  0  0  0  0  0  0  0
    3.7617   -2.5225    0.2113 O   0  0  0  0  0  0  0  0  0  0  0  0
   -2.0513   -0.2011    0.0210 C   0  0  0  0  0  0  0  0  0  0  0  0
   -0.5892   -0.3829    0.0395 C   0  0  0  0  0  0  0  0  0  0  0  0
    1.7295    0.3817   -0.0268 C   0  0  0  0  0  0  0  0  0  0  0  0
    0.3130    0.6081   -0.0390 C   0  0  0  0  0  0  0  0  0  0  0  0
   -2.6036    1.0412    0.3329 C   0  0  0  0  0  0  0  0  0  0  0  0
   -2.8832   -1.2716   -0.3071 C   0  0  0  0  0  0  0  0  0  0  0  0
    2.6437    1.3552   -0.1167 C   0  0  0  0  0  0  0  0  0  0  0  0
   -3.9877    1.2129    0.3170 C   0  0  0  0  0  0  0  0  0  0  0  0
   -4.2672   -1.1000   -0.3230 C   0  0  0  0  0  0  0  0  0  0  0  0
   -4.8195    0.1423   -0.0109 C   0  0  0  0  0  0  0  0  0  0  0  0
    4.0339    1.0024   -0.0954 C   0  0  0  0  0  0  0  0  0  0  0  0
    4.4234   -0.2728    0.0122 C   0  0  0  0  0  0  0  0  0  0  0  0
    3.4167   -1.3497    0.1122 C   0  0  0  0  0  0  0  0  0  0  0  0
   -0.2706   -1.4203    0.1135 H   0  0  0  0  0  0  0  0  0  0  0  0
    0.0044    1.6445   -0.1397 H   0  0  0  0  0  0  0  0  0  0  0  0
   -1.9972    1.8969    0.6146 H   0  0  0  0  0  0  0  0  0  0  0  0
   -2.4704   -2.2468   -0.5541 H   0  0  0  0  0  0  0  0  0  0  0  0
    2.3706    2.4013   -0.2060 H   0  0  0  0  0  0  0  0  0  0  0  0
   -4.4129    2.1815    0.5656 H   0  0  0  0  0  0  0  0  0  0  0  0
   -4.9045   -1.9418   -0.5802 H   0  0  0  0  0  0  0  0  0  0  0  0
    5.4691   -0.5587    0.0298 H   0  0  0  0  0  0  0  0  0  0  0  0
   -6.5895   -0.5323   -0.2728 H   0  0  0  0  0  0  0  0  0  0  0  0
    5.8449    1.6406   -0.1631 H   0  0  0  0  0  0  0  0  0  0  0  0
  1  7  1  0  0  0  0
  1 17  1  0  0  0  0
  2 14  1  0  0  0  0
  2 26  1  0  0  0  0
  3 15  1  0  0  0  0
  3 27  1  0  0  0  0
  4 17  2  0  0  0  0
  5  6  1  0  0  0  0
  5  9  2  0  0  0  0
  5 10  1  0  0  0  0
  6  8  2  0  0  0  0
  6 18  1  0  0  0  0
  7  8  1  0  0  0  0
  7 11  2  0  0  0  0
  8 19  1  0  0  0  0
  9 12  1  0  0  0  0
  9 20  1  0  0  0  0
 10 13  2  0  0  0  0
 10 21  1  0  0  0  0
 11 15  1  0  0  0  0
 11 22  1  0  0  0  0
 12 14  2  0  0  0  0
 12 23  1  0  0  0  0
 13 14  1  0  0  0  0
 13 24  1  0  0  0  0
 15 16  2  0  0  0  0
 16 17  1  0  0  0  0
 16 25  1  0  0  0  0
M  END
> <PUBCHEM_COMPOUND_CID>
54680478

> <PUBCHEM_CONFORMER_RMSD>
0.6

> <PUBCHEM_CONFORMER_DIVERSEORDER>
1
4
2
3

> <PUBCHEM_MMFF94_PARTIAL_CHARGES>
27
1 -0.23
10 -0.15
11 -0.15
12 -0.15
13 -0.15
14 0.08
15 0.08
16 -0.14
17 0.71
18 0.15
19 0.15
2 -0.53
20 0.15
21 0.15
22 0.15
23 0.15
24 0.15
25 0.15
26 0.45
27 0.45
3 -0.53
4 -0.57
5 0.03
6 -0.18
7 0.08
8 -0.15
9 -0.15

> <PUBCHEM_EFFECTIVE_ROTOR_COUNT>
2

> <PUBCHEM_PHARMACOPHORE_FEATURES>
5
1 2 donor
1 3 donor
1 4 acceptor
6 1 7 11 15 16 17 rings
6 5 9 10 12 13 14 rings

> <PUBCHEM_HEAVY_ATOM_COUNT>
17

> <PUBCHEM_ATOM_DEF_STEREO_COUNT>
0

> <PUBCHEM_ATOM_UDEF_STEREO_COUNT>
0

> <PUBCHEM_BOND_DEF_STEREO_COUNT>
1

> <PUBCHEM_BOND_UDEF_STEREO_COUNT>
0

> <PUBCHEM_ISOTOPIC_ATOM_COUNT>
0

> <PUBCHEM_COMPONENT_COUNT>
1

> <PUBCHEM_CACTVS_TAUTO_COUNT>
17

> <PUBCHEM_CONFORMER_ID>
03425B9E00000001

> <PUBCHEM_MMFF94_ENERGY>
46.9489

> <PUBCHEM_FEATURE_SELFOVERLAP>
25.371

> <PUBCHEM_SHAPE_FINGERPRINT>
10014705 185 18343587347974644429
10595046 47 18408323255117042445
10616163 171 18262799545154108351
10912923 1 18113615703289760195
11471102 20 18412825776987209460
12107183 9 17759799638592343649
12236239 1 18260266339093010853
13073987 5 18409445908176387113
13167823 11 18408324397409797991
13533116 47 18334860540974491363
13675066 3 17989200460669559157
13760787 19 18261111837823138662
14341114 176 18411130334072512833
14528608 73 18337388241145237556
15196674 1 18410293610013695223
15242433 33 18408885122643811639
15250474 111 18261689094329285527
15442244 35 18265613367492537224
15536298 74 18409730677203102922
17834072 33 18408886221928475678
17844677 252 18339354262103351317
1813 80 16988559121512368877
18186145 218 17632580465296193770
18335252 98 18270956835617545371
200 152 18186804664923077033
20279233 1 16271928203041482552
20281389 69 18271242824694762381
20645477 70 18409729603567072926
21065198 48 18334853948078268777
21267235 1 18337101354377812862
22485316 2 18409168796506549823
22646028 1 18333453140278695823
23402539 116 18041005051072564125
23402655 69 18335984190344532806
23532345 1 18343297029570515976
23559900 14 18335425621105078104
239999 70 18260259764252734422
245318 6 16911987822180420444
29717793 49 17894625980922892388
300161 21 18410863139693340805
3004659 81 18410572929096158366
33824 294 18343303669737759226
34797466 226 17458616766405280460
3545911 37 18411698768414490461
4073 2 18059287673746067226
42 15 18411981377362651167
4214541 1 18409449219501297913
42788 4 18410855456250055829
474 4 17988076678287387428
5104073 3 18410009948850957683
522135 26 18412544327611458534
5281201 14 17846217795260943732
542803 24 17775566416407486829
573450 72 18114466746812104387
633830 44 17632295692032298747
77779 3 18410573993899654291
8272917 22 18409163333672393254
90127 26 17917424384553019561
9709674 26 18411694366083983842
9971528 1 17917709110861937820
9981440 41 17404863653142528209

> <PUBCHEM_SHAPE_MULTIPOLES>
326.37
12.73
1.8
0.63
4.86
0.43
0
-1.03
-0.25
-1.91
0.03
0.07
0
-0.61

> <PUBCHEM_SHAPE_SELFOVERLAP>
703.147

> <PUBCHEM_SHAPE_VOLUME>
178.7

> <PUBCHEM_COORDINATE_TYPE>
2
5
10

$$$$

