23724459
  -OEChem-07051212443D

 56 58  0     1  0  0  0  0  0999 V2000
   -2.6684    2.5451   -1.2214 P   0  0  2  0  0  0  0  0  0  0  0  0
   -4.1530    0.2109   -0.2194 P   0  0  1  0  0  0  0  0  0  0  0  0
    0.9485    1.2461    0.7651 O   0  0  0  0  0  0  0  0  0  0  0  0
    1.9583    3.7417    2.0850 O   0  0  0  0  0  0  0  0  0  0  0  0
    4.1431    2.8739    0.7024 O   0  0  0  0  0  0  0  0  0  0  0  0
   -1.2375    1.8671   -0.8900 O   0  0  0  0  0  0  0  0  0  0  0  0
   -3.2022   -2.9253    0.4003 O   0  0  0  0  0  0  0  0  0  0  0  0
   -2.8197   -0.5942    0.2018 O   0  0  0  0  0  0  0  0  0  0  0  0
    0.5618   -2.7164    2.0901 O   0  0  0  0  0  0  0  0  0  0  0  0
   -1.3730   -0.6215    2.5919 O   0  0  0  0  0  0  0  0  0  0  0  0
    0.1836   -3.9036   -0.5842 O   0  0  0  0  0  0  0  0  0  0  0  0
   -3.6571    1.2713   -1.3344 O   0  0  0  0  0  0  0  0  0  0  0  0
    4.7074   -0.3655    1.1637 O   0  0  0  0  0  0  0  0  0  0  0  0
   -2.5226    3.0296   -2.7579 O   0  0  0  0  0  0  0  0  0  0  0  0
   -3.1239    3.6062   -0.2628 O   0  0  0  0  0  0  0  0  0  0  0  0
   -5.0178   -0.8529   -1.0786 O   0  0  0  0  0  0  0  0  0  0  0  0
   -4.8959    0.8282    0.9299 O   0  0  0  0  0  0  0  0  0  0  0  0
    3.8392   -3.0038   -2.5148 O   0  0  0  0  0  0  0  0  0  0  0  0
    2.7885    0.0856   -0.0906 N   0  0  0  0  0  0  0  0  0  0  0  0
    4.2737   -1.6778   -0.6690 N   0  0  0  0  0  0  0  0  0  0  0  0
    1.7836    3.4618    0.6963 C   0  0  1  0  0  0  0  0  0  0  0  0
    2.8664    2.5221    0.2098 C   0  0  2  0  0  0  0  0  0  0  0  0
    0.5303    2.6109    0.5432 C   0  0  1  0  0  0  0  0  0  0  0  0
    2.3838    1.1833    0.7408 C   0  0  1  0  0  0  0  0  0  0  0  0
   -0.0901    2.6972   -0.8448 C   0  0  0  0  0  0  0  0  0  0  0  0
   -0.4684   -2.3610    1.1661 C   0  0  2  0  0  0  0  0  0  0  0  0
   -1.6724   -1.8653    1.9682 C   0  0  2  0  0  0  0  0  0  0  0  0
   -0.8534   -3.5883    0.3385 C   0  0  1  0  0  0  0  0  0  0  0  0
   -2.9161   -1.7060    1.0908 C   0  0  2  0  0  0  0  0  0  0  0  0
   -2.1353   -3.3429   -0.4482 C   0  0  0  0  0  0  0  0  0  0  0  0
    3.9736   -0.6269    0.2080 C   0  0  0  0  0  0  0  0  0  0  0  0
    2.0153   -0.2757   -1.1878 C   0  0  0  0  0  0  0  0  0  0  0  0
    2.3143   -1.2798   -2.0146 C   0  0  0  0  0  0  0  0  0  0  0  0
    3.5355   -2.0742   -1.7734 C   0  0  0  0  0  0  0  0  0  0  0  0
    1.7551    4.4167    0.1653 H   0  0  0  0  0  0  0  0  0  0  0  0
    2.9022    2.5351   -0.8862 H   0  0  0  0  0  0  0  0  0  0  0  0
   -0.2249    2.8378    1.3044 H   0  0  0  0  0  0  0  0  0  0  0  0
    2.7342    1.0085    1.7651 H   0  0  0  0  0  0  0  0  0  0  0  0
   -0.3645    3.7354   -1.0637 H   0  0  0  0  0  0  0  0  0  0  0  0
    0.5918    2.3682   -1.6323 H   0  0  0  0  0  0  0  0  0  0  0  0
   -0.0671   -1.5600    0.5364 H   0  0  0  0  0  0  0  0  0  0  0  0
   -1.8871   -2.5884    2.7658 H   0  0  0  0  0  0  0  0  0  0  0  0
   -0.9786   -4.4526    1.0013 H   0  0  0  0  0  0  0  0  0  0  0  0
   -3.7658   -1.5139    1.7560 H   0  0  0  0  0  0  0  0  0  0  0  0
    1.8780    2.9142    2.5878 H   0  0  0  0  0  0  0  0  0  0  0  0
    4.7657    2.1829    0.4194 H   0  0  0  0  0  0  0  0  0  0  0  0
   -2.4442   -4.2669   -0.9497 H   0  0  0  0  0  0  0  0  0  0  0  0
   -1.9845   -2.6043   -1.2455 H   0  0  0  0  0  0  0  0  0  0  0  0
    1.1146    0.2879   -1.3796 H   0  0  0  0  0  0  0  0  0  0  0  0
    1.3130   -3.0501    1.5702 H   0  0  0  0  0  0  0  0  0  0  0  0
   -0.5647   -0.7463    3.1181 H   0  0  0  0  0  0  0  0  0  0  0  0
    5.1210   -2.2036   -0.4734 H   0  0  0  0  0  0  0  0  0  0  0  0
    1.6855   -1.5346   -2.8589 H   0  0  0  0  0  0  0  0  0  0  0  0
    0.2921   -3.1462   -1.1838 H   0  0  0  0  0  0  0  0  0  0  0  0
   -2.0320    3.8567   -2.9516 H   0  0  0  0  0  0  0  0  0  0  0  0
   -5.5501   -1.5256   -0.6029 H   0  0  0  0  0  0  0  0  0  0  0  0
  1  6  1  0  0  0  0
  1 12  1  0  0  0  0
  1 14  1  0  0  0  0
  1 15  2  0  0  0  0
  2  8  1  0  0  0  0
  2 12  1  0  0  0  0
  2 16  1  0  0  0  0
  2 17  2  0  0  0  0
  3 23  1  0  0  0  0
  3 24  1  0  0  0  0
  4 21  1  0  0  0  0
  4 45  1  0  0  0  0
  5 22  1  0  0  0  0
  5 46  1  0  0  0  0
  6 25  1  0  0  0  0
  7 29  1  0  0  0  0
  7 30  1  0  0  0  0
  8 29  1  0  0  0  0
  9 26  1  0  0  0  0
  9 50  1  0  0  0  0
 10 27  1  0  0  0  0
 10 51  1  0  0  0  0
 11 28  1  0  0  0  0
 11 54  1  0  0  0  0
 13 31  2  0  0  0  0
 14 55  1  0  0  0  0
 16 56  1  0  0  0  0
 18 34  2  0  0  0  0
 19 24  1  0  0  0  0
 19 31  1  0  0  0  0
 19 32  1  0  0  0  0
 20 31  1  0  0  0  0
 20 34  1  0  0  0  0
 20 52  1  0  0  0  0
 21 22  1  0  0  0  0
 21 23  1  0  0  0  0
 21 35  1  0  0  0  0
 22 24  1  0  0  0  0
 22 36  1  0  0  0  0
 23 25  1  0  0  0  0
 23 37  1  0  0  0  0
 24 38  1  0  0  0  0
 25 39  1  0  0  0  0
 25 40  1  0  0  0  0
 26 27  1  0  0  0  0
 26 28  1  0  0  0  0
 26 41  1  0  0  0  0
 27 29  1  0  0  0  0
 27 42  1  0  0  0  0
 28 30  1  0  0  0  0
 28 43  1  0  0  0  0
 29 44  1  0  0  0  0
 30 47  1  0  0  0  0
 30 48  1  0  0  0  0
 32 33  2  0  0  0  0
 32 49  1  0  0  0  0
 33 34  1  0  0  0  0
 33 53  1  0  0  0  0
M  END
> <PUBCHEM_COMPOUND_CID>
23724459

> <PUBCHEM_CONFORMER_RMSD>
1.6

> <PUBCHEM_CONFORMER_DIVERSEORDER>
1
36
153
193
218
69
245
228
48
29
169
8
39
28
147
248
294
283
93
241
135
59
15
17
54
250
259
114
174
12
192
203
132
297
199
272
276
208
237
188
95
90
242
185
187
266
180
164
53
31
88
76
26
265
217
24
239
178
227
67
120
16
27
140
45
143
117
122
104
75
205
275
299
289
131
194
66
195
253
177
152
20
216
257
287
139
22
118
277
285
119
112
42
61
46
62
274
14
225
38
247
74
87
260
213
159
78
301
223
202
175
102
292
86
233
229
181
246
7
212
72
171
154
166
85
92
35
230
263
224
222
191
197
220
44
99
41
129
160
231
65
268
179
10
251
201
6
50
295
60
105
80
127
77
109
138
238
150
172
279
21
98
13
204
262
189
170
155
47
100
97
183
136
68
111
196
49
83
5
264
121
173
256
52
176
261
11
236
273
107
206
244
303
198
209
25
81
124
255
243
3
56
207
214
89
115
280
79
101
298
144
156
23
149
291
240
110
73
158
33
157
32
57
284
126
271
286
70
34
128
94
186
184
167
40
106
43
51
210
37
19
9
267
18
162
302
190
145
113
125
278
64
249
134
91
293
96
84
108
141
200
296
254
82
258
123
58
71
148
130
63
282
269
137
133
151
281
290
2
300
103
161
4
211
234
235
163
55
288
215
252
270
219
168
221
146
165
232
116
182
226
142
30

> <PUBCHEM_MMFF94_PARTIAL_CHARGES>
44
1 1.51
10 -0.68
11 -0.68
12 -0.54
13 -0.57
14 -0.77
15 -0.7
16 -0.77
17 -0.7
18 -0.57
19 -0.47
2 1.51
20 -0.49
21 0.28
22 0.28
23 0.28
24 0.58
25 0.28
26 0.28
27 0.28
28 0.28
29 0.56
3 -0.56
30 0.28
31 0.69
32 -0.04
33 -0.14
34 0.62
4 -0.68
45 0.4
46 0.4
49 0.15
5 -0.68
50 0.4
51 0.4
52 0.37
53 0.15
54 0.4
55 0.5
56 0.5
6 -0.55
7 -0.56
8 -0.55
9 -0.68

> <PUBCHEM_EFFECTIVE_ROTOR_COUNT>
10.2

> <PUBCHEM_PHARMACOPHORE_FEATURES>
22
1 10 acceptor
1 10 donor
1 11 acceptor
1 11 donor
1 13 acceptor
1 14 acceptor
1 15 acceptor
1 16 acceptor
1 17 acceptor
1 18 acceptor
1 20 donor
1 3 acceptor
1 4 acceptor
1 4 donor
1 5 acceptor
1 5 donor
1 7 acceptor
1 9 acceptor
1 9 donor
5 3 21 22 23 24 rings
6 19 20 31 32 33 34 rings
6 7 26 27 28 29 30 rings

> <PUBCHEM_HEAVY_ATOM_COUNT>
34

> <PUBCHEM_ATOM_DEF_STEREO_COUNT>
7

> <PUBCHEM_ATOM_UDEF_STEREO_COUNT>
1

> <PUBCHEM_BOND_DEF_STEREO_COUNT>
0

> <PUBCHEM_BOND_UDEF_STEREO_COUNT>
0

> <PUBCHEM_ISOTOPIC_ATOM_COUNT>
0

> <PUBCHEM_COMPONENT_COUNT>
1

> <PUBCHEM_CACTVS_TAUTO_COUNT>
3

> <PUBCHEM_CONFORMER_ID>
016A01AB00000001

> <PUBCHEM_MMFF94_ENERGY>
45.7558

> <PUBCHEM_FEATURE_SELFOVERLAP>
111.681

> <PUBCHEM_SHAPE_FINGERPRINT>
108634 29 18412265068853865910
11285246 1 17324620663434812622
11828532 37 18058450907523748171
12100795 323 18120375354342295991
12156800 1 17178904371348168370
12422481 6 18046646520807329760
12712778 12 18129110085863526714
13402501 40 18412267207399458605
13617811 41 17560239275422955957
14114211 68 17337560781226781631
14251757 17 18336266837573184082
14725015 67 18343310262333178003
20764821 26 18269835324391409959
238918 7 18191878820680271904
3298306 158 18127419071123019397
35225 105 17700168505981013823
463206 1 17548138187126320160
508706 21 18342174513976726543

> <PUBCHEM_SHAPE_MULTIPOLES>
603.53
8.57
5.78
2.14
0.71
0.54
0.24
-0.21
1.48
0.09
0.31
-0.32
-0.29
3.76

> <PUBCHEM_SHAPE_SELFOVERLAP>
1230.883

> <PUBCHEM_SHAPE_VOLUME>
350

> <PUBCHEM_COORDINATE_TYPE>
2
5
10

$$$$

