9949234
  -OEChem-07051213072D

 45 46  0     1  0  0  0  0  0999 V2000
    5.5869    0.1399    0.0000 O   0  0  0  0  0  0  0  0  0  0  0  0
    5.5869   -1.5921    0.0000 O   0  0  0  0  0  0  0  0  0  0  0  0
    8.5869    0.1399    0.0000 O   0  0  0  0  0  0  0  0  0  0  0  0
    7.5869    1.8720    0.0000 O   0  0  0  0  0  0  0  0  0  0  0  0
    7.5869   -1.5921    0.0000 O   0  0  0  0  0  0  0  0  0  0  0  0
    6.0869    2.7380    0.0000 O   0  0  0  0  0  0  0  0  0  0  0  0
    4.7765   -3.2749    0.0000 O   0  0  0  0  0  0  0  0  0  0  0  0
    7.5869    0.1399    0.0000 C   0  0  1  0  0  0  0  0  0  0  0  0
    7.0869    1.0059    0.0000 C   0  0  1  0  0  0  0  0  0  0  0  0
    7.0869   -0.7261    0.0000 C   0  0  2  0  0  0  0  0  0  0  0  0
    6.0869    1.0059    0.0000 C   0  0  1  0  0  0  0  0  0  0  0  0
    6.0869   -0.7261    0.0000 C   0  0  1  0  0  0  0  0  0  0  0  0
    5.5869    1.8720    0.0000 C   0  0  0  0  0  0  0  0  0  0  0  0
    4.5869   -1.5921    0.0000 C   0  0  0  0  0  0  0  0  0  0  0  0
    4.1530   -0.6912    0.0000 C   0  0  0  0  0  0  0  0  0  0  0  0
    2.9556    0.5063    0.0000 C   0  0  0  0  0  0  0  0  0  0  0  0
    3.1781   -0.4686    0.0000 C   0  0  0  0  0  0  0  0  0  0  0  0
    4.1530   -2.4931    0.0000 C   0  0  0  0  0  0  0  0  0  0  0  0
    2.3963   -1.0921    0.0000 C   0  0  0  0  0  0  0  0  0  0  0  0
    2.0000    0.8010    0.0000 C   0  0  0  0  0  0  0  0  0  0  0  0
    3.6886    1.1865    0.0000 C   0  0  0  0  0  0  0  0  0  0  0  0
    3.1781   -2.7156    0.0000 C   0  0  0  0  0  0  0  0  0  0  0  0
    2.3963   -2.0921    0.0000 C   0  0  0  0  0  0  0  0  0  0  0  0
    7.8969   -0.3970    0.0000 H   0  0  0  0  0  0  0  0  0  0  0  0
    7.7069    1.0059    0.0000 H   0  0  0  0  0  0  0  0  0  0  0  0
    7.7069   -0.7261    0.0000 H   0  0  0  0  0  0  0  0  0  0  0  0
    5.4669    1.0059    0.0000 H   0  0  0  0  0  0  0  0  0  0  0  0
    5.4669   -0.7261    0.0000 H   0  0  0  0  0  0  0  0  0  0  0  0
    5.1120    2.2705    0.0000 H   0  0  0  0  0  0  0  0  0  0  0  0
    5.1120    1.4734    0.0000 H   0  0  0  0  0  0  0  0  0  0  0  0
    8.8969    0.6769    0.0000 H   0  0  0  0  0  0  0  0  0  0  0  0
    8.2069    1.8720    0.0000 H   0  0  0  0  0  0  0  0  0  0  0  0
    8.2069   -1.5921    0.0000 H   0  0  0  0  0  0  0  0  0  0  0  0
    5.7769    3.2749    0.0000 H   0  0  0  0  0  0  0  0  0  0  0  0
    3.5480    0.3235    0.0000 H   0  0  0  0  0  0  0  0  0  0  0  0
    4.5396   -0.2064    0.0000 H   0  0  0  0  0  0  0  0  0  0  0  0
    1.8377   -0.8231    0.0000 H   0  0  0  0  0  0  0  0  0  0  0  0
    4.1103    0.7320    0.0000 H   0  0  0  0  0  0  0  0  0  0  0  0
    4.1431    1.6082    0.0000 H   0  0  0  0  0  0  0  0  0  0  0  0
    3.2669    1.6410    0.0000 H   0  0  0  0  0  0  0  0  0  0  0  0
    2.1828    1.3935    0.0000 H   0  0  0  0  0  0  0  0  0  0  0  0
    1.4075    0.9838    0.0000 H   0  0  0  0  0  0  0  0  0  0  0  0
    1.8172    0.2086    0.0000 H   0  0  0  0  0  0  0  0  0  0  0  0
    3.0401   -3.3201    0.0000 H   0  0  0  0  0  0  0  0  0  0  0  0
    1.8377   -2.3611    0.0000 H   0  0  0  0  0  0  0  0  0  0  0  0
  1 11  1  0  0  0  0
  1 12  1  0  0  0  0
 12  2  1  6  0  0  0
  2 14  1  0  0  0  0
  8  3  1  6  0  0  0
  3 31  1  0  0  0  0
  9  4  1  1  0  0  0
  4 32  1  0  0  0  0
 10  5  1  1  0  0  0
  5 33  1  0  0  0  0
  6 13  1  0  0  0  0
  6 34  1  0  0  0  0
  7 18  2  0  0  0  0
  8  9  1  0  0  0  0
  8 10  1  0  0  0  0
  8 24  1  0  0  0  0
  9 11  1  0  0  0  0
  9 25  1  0  0  0  0
 10 12  1  0  0  0  0
 10 26  1  0  0  0  0
 11 13  1  6  0  0  0
 11 27  1  0  0  0  0
 12 28  1  0  0  0  0
 13 29  1  0  0  0  0
 13 30  1  0  0  0  0
 14 15  2  0  0  0  0
 14 18  1  0  0  0  0
 15 17  1  0  0  0  0
 15 36  1  0  0  0  0
 16 17  1  0  0  0  0
 16 20  1  0  0  0  0
 16 21  1  0  0  0  0
 16 35  1  0  0  0  0
 17 19  2  0  0  0  0
 18 22  1  0  0  0  0
 19 23  1  0  0  0  0
 19 37  1  0  0  0  0
 20 41  1  0  0  0  0
 20 42  1  0  0  0  0
 20 43  1  0  0  0  0
 21 38  1  0  0  0  0
 21 39  1  0  0  0  0
 21 40  1  0  0  0  0
 22 23  2  0  0  0  0
 22 44  1  0  0  0  0
 23 45  1  0  0  0  0
M  END
> <PUBCHEM_COMPOUND_CID>
9949234

> <PUBCHEM_COMPOUND_CANONICALIZED>
1

> <PUBCHEM_CACTVS_COMPLEXITY>
535

> <PUBCHEM_CACTVS_HBOND_ACCEPTOR>
7

> <PUBCHEM_CACTVS_HBOND_DONOR>
4

> <PUBCHEM_CACTVS_ROTATABLE_BOND>
4

> <PUBCHEM_CACTVS_SUBSKEYS>
AAADceB4OAAAAAAAAAAAAAAAAAAAAAAAAAAkAAAABAAAAAAAAAAAGgAACAAADRSwgAMCCAAABgCIAqBSAAIACAAgIAAICABAAEgZEAIAAQQiQAAFwAAPgYPAYAwIAAAAAAAAAAAAAAAAAAAAAAAAAAAAAA==

> <PUBCHEM_IUPAC_OPENEYE_NAME>
4-isopropyl-2-[(2S,3R,4S,5S,6R)-3,4,5-trihydroxy-6-(hydroxymethyl)tetrahydropyran-2-yl]oxy-cyclohepta-2,4,6-trien-1-one

> <PUBCHEM_IUPAC_CAS_NAME>
4-propan-2-yl-2-[[(2S,3R,4S,5S,6R)-3,4,5-trihydroxy-6-(hydroxymethyl)-2-oxanyl]oxy]-1-cyclohepta-2,4,6-trienone

> <PUBCHEM_IUPAC_NAME>
4-propan-2-yl-2-[(2S,3R,4S,5S,6R)-3,4,5-trihydroxy-6-(hydroxymethyl)oxan-2-yl]oxycyclohepta-2,4,6-trien-1-one

> <PUBCHEM_IUPAC_SYSTEMATIC_NAME>
2-[(2S,3R,4S,5S,6R)-6-(hydroxymethyl)-3,4,5-tris(oxidanyl)oxan-2-yl]oxy-4-propan-2-yl-cyclohepta-2,4,6-trien-1-one

> <PUBCHEM_IUPAC_TRADITIONAL_NAME>
4-isopropyl-2-[(2S,3R,4S,5S,6R)-3,4,5-trihydroxy-6-methylol-tetrahydropyran-2-yl]oxy-cyclohepta-2,4,6-trien-1-one

> <PUBCHEM_IUPAC_INCHI>
InChI=1S/C16H22O7/c1-8(2)9-4-3-5-10(18)11(6-9)22-16-15(21)14(20)13(19)12(7-17)23-16/h3-6,8,12-17,19-21H,7H2,1-2H3/t12-,13-,14+,15-,16-/m1/s1

> <PUBCHEM_IUPAC_INCHIKEY>
IBEQWTPAYJQNDR-IBEHDNSVSA-N

> <PUBCHEM_XLOGP3_AA>
0.3

> <PUBCHEM_EXACT_MASS>
326.136553

> <PUBCHEM_MOLECULAR_FORMULA>
C16H22O7

> <PUBCHEM_MOLECULAR_WEIGHT>
326.34168

> <PUBCHEM_OPENEYE_CAN_SMILES>
CC(C)C1=CC=CC(=O)C(=C1)OC2C(C(C(C(O2)CO)O)O)O

> <PUBCHEM_OPENEYE_ISO_SMILES>
CC(C)C1=CC=CC(=O)C(=C1)O[C@H]2[C@@H]([C@H]([C@@H]([C@H](O2)CO)O)O)O

> <PUBCHEM_CACTVS_TPSA>
116

> <PUBCHEM_MONOISOTOPIC_WEIGHT>
326.136553

> <PUBCHEM_TOTAL_CHARGE>
0

> <PUBCHEM_HEAVY_ATOM_COUNT>
23

> <PUBCHEM_ATOM_DEF_STEREO_COUNT>
5

> <PUBCHEM_ATOM_UDEF_STEREO_COUNT>
0

> <PUBCHEM_BOND_DEF_STEREO_COUNT>
0

> <PUBCHEM_BOND_UDEF_STEREO_COUNT>
0

> <PUBCHEM_ISOTOPIC_ATOM_COUNT>
0

> <PUBCHEM_COMPONENT_COUNT>
1

> <PUBCHEM_CACTVS_TAUTO_COUNT>
16

> <PUBCHEM_COORDINATE_TYPE>
1
5
255

> <PUBCHEM_BONDANNOTATIONS>
11  13  6
14  15  8
14  18  8
15  17  8
17  19  8
18  22  8
19  23  8
12  2  6
22  23  8
8  3  6
9  4  5
10  5  5

$$$$

