10659816
  -OEChem-07051213113D

 52 54  0     1  0  0  0  0  0999 V2000
   -0.3192    1.6194   -0.0737 C   0  0  2  0  0  0  0  0  0  0  0  0
    1.8918   -1.1736   -0.6080 C   0  0  2  0  0  0  0  0  0  0  0  0
    0.7843    1.1738   -1.0719 C   0  0  0  0  0  0  0  0  0  0  0  0
   -1.0644    0.4429    0.5317 C   0  0  0  0  0  0  0  0  0  0  0  0
    1.8995    0.3384   -0.5056 C   0  0  0  0  0  0  0  0  0  0  0  0
   -1.4566    2.3485   -0.8393 C   0  0  0  0  0  0  0  0  0  0  0  0
    0.5703   -1.9477   -0.3870 C   0  0  2  0  0  0  0  0  0  0  0  0
   -2.2999    0.3133    0.0183 C   0  0  0  0  0  0  0  0  0  0  0  0
   -0.4077   -0.4564    1.5364 C   0  0  0  0  0  0  0  0  0  0  0  0
   -2.5714    1.3294   -1.0441 C   0  0  0  0  0  0  0  0  0  0  0  0
   -0.0752   -1.8569    1.0125 C   0  0  0  0  0  0  0  0  0  0  0  0
    3.0282   -1.5634    0.3495 C   0  0  0  0  0  0  0  0  0  0  0  0
    3.0789    0.7684   -0.0193 C   0  0  0  0  0  0  0  0  0  0  0  0
    0.2249    2.5804    0.9986 C   0  0  0  0  0  0  0  0  0  0  0  0
    3.9779   -0.3714    0.3542 C   0  0  0  0  0  0  0  0  0  0  0  0
   -3.3406   -0.7023    0.3379 C   0  0  0  0  0  0  0  0  0  0  0  0
    0.7751   -3.4339   -0.7298 C   0  0  0  0  0  0  0  0  0  0  0  0
    3.5864    2.1609    0.1296 C   0  0  0  0  0  0  0  0  0  0  0  0
   -4.5919   -0.0308    0.9037 C   0  0  0  0  0  0  0  0  0  0  0  0
   -3.6904   -1.5392   -0.8938 C   0  0  0  0  0  0  0  0  0  0  0  0
    2.2210   -1.3981   -1.6346 H   0  0  0  0  0  0  0  0  0  0  0  0
    1.2128    2.0694   -1.5415 H   0  0  0  0  0  0  0  0  0  0  0  0
    0.3324    0.6229   -1.9082 H   0  0  0  0  0  0  0  0  0  0  0  0
   -1.1246    2.7731   -1.7937 H   0  0  0  0  0  0  0  0  0  0  0  0
   -1.8539    3.1868   -0.2503 H   0  0  0  0  0  0  0  0  0  0  0  0
   -0.1576   -1.5734   -1.1181 H   0  0  0  0  0  0  0  0  0  0  0  0
    0.5093   -0.0009    1.9228 H   0  0  0  0  0  0  0  0  0  0  0  0
   -1.0600   -0.5508    2.4141 H   0  0  0  0  0  0  0  0  0  0  0  0
   -2.5042    0.8750   -2.0385 H   0  0  0  0  0  0  0  0  0  0  0  0
   -3.5456    1.8152   -0.9445 H   0  0  0  0  0  0  0  0  0  0  0  0
    0.5596   -2.3578    1.7539 H   0  0  0  0  0  0  0  0  0  0  0  0
   -0.9999   -2.4480    0.9945 H   0  0  0  0  0  0  0  0  0  0  0  0
    3.5384   -2.4795    0.0332 H   0  0  0  0  0  0  0  0  0  0  0  0
    2.6610   -1.7302    1.3685 H   0  0  0  0  0  0  0  0  0  0  0  0
    1.0272    2.1370    1.5947 H   0  0  0  0  0  0  0  0  0  0  0  0
    0.6177    3.4940    0.5382 H   0  0  0  0  0  0  0  0  0  0  0  0
   -0.5624    2.8794    1.7015 H   0  0  0  0  0  0  0  0  0  0  0  0
    4.7731   -0.4895   -0.3897 H   0  0  0  0  0  0  0  0  0  0  0  0
    4.4298   -0.2378    1.3419 H   0  0  0  0  0  0  0  0  0  0  0  0
   -2.9745   -1.3865    1.1105 H   0  0  0  0  0  0  0  0  0  0  0  0
    1.1885   -3.5499   -1.7373 H   0  0  0  0  0  0  0  0  0  0  0  0
    1.4551   -3.9211   -0.0232 H   0  0  0  0  0  0  0  0  0  0  0  0
   -0.1788   -3.9719   -0.7022 H   0  0  0  0  0  0  0  0  0  0  0  0
    4.5305    2.2781   -0.4123 H   0  0  0  0  0  0  0  0  0  0  0  0
    3.7652    2.3869    1.1855 H   0  0  0  0  0  0  0  0  0  0  0  0
    2.8916    2.9082   -0.2607 H   0  0  0  0  0  0  0  0  0  0  0  0
   -5.1125    0.5777    0.1567 H   0  0  0  0  0  0  0  0  0  0  0  0
   -4.3461    0.6118    1.7566 H   0  0  0  0  0  0  0  0  0  0  0  0
   -5.3019   -0.7879    1.2553 H   0  0  0  0  0  0  0  0  0  0  0  0
   -2.7968   -2.0118   -1.3164 H   0  0  0  0  0  0  0  0  0  0  0  0
   -4.1623   -0.9393   -1.6797 H   0  0  0  0  0  0  0  0  0  0  0  0
   -4.3912   -2.3375   -0.6253 H   0  0  0  0  0  0  0  0  0  0  0  0
  1  3  1  0  0  0  0
  1  4  1  0  0  0  0
  1  6  1  0  0  0  0
  1 14  1  0  0  0  0
  2  5  1  0  0  0  0
  2  7  1  0  0  0  0
  2 12  1  0  0  0  0
  2 21  1  0  0  0  0
  3  5  1  0  0  0  0
  3 22  1  0  0  0  0
  3 23  1  0  0  0  0
  4  8  2  0  0  0  0
  4  9  1  0  0  0  0
  5 13  2  0  0  0  0
  6 10  1  0  0  0  0
  6 24  1  0  0  0  0
  6 25  1  0  0  0  0
  7 11  1  0  0  0  0
  7 17  1  0  0  0  0
  7 26  1  0  0  0  0
  8 10  1  0  0  0  0
  8 16  1  0  0  0  0
  9 11  1  0  0  0  0
  9 27  1  0  0  0  0
  9 28  1  0  0  0  0
 10 29  1  0  0  0  0
 10 30  1  0  0  0  0
 11 31  1  0  0  0  0
 11 32  1  0  0  0  0
 12 15  1  0  0  0  0
 12 33  1  0  0  0  0
 12 34  1  0  0  0  0
 13 15  1  0  0  0  0
 13 18  1  0  0  0  0
 14 35  1  0  0  0  0
 14 36  1  0  0  0  0
 14 37  1  0  0  0  0
 15 38  1  0  0  0  0
 15 39  1  0  0  0  0
 16 19  1  0  0  0  0
 16 20  1  0  0  0  0
 16 40  1  0  0  0  0
 17 41  1  0  0  0  0
 17 42  1  0  0  0  0
 17 43  1  0  0  0  0
 18 44  1  0  0  0  0
 18 45  1  0  0  0  0
 18 46  1  0  0  0  0
 19 47  1  0  0  0  0
 19 48  1  0  0  0  0
 19 49  1  0  0  0  0
 20 50  1  0  0  0  0
 20 51  1  0  0  0  0
 20 52  1  0  0  0  0
M  END
> <PUBCHEM_COMPOUND_CID>
10659816

> <PUBCHEM_CONFORMER_RMSD>
0.6

> <PUBCHEM_CONFORMER_DIVERSEORDER>
2
5
7
3
4
1
6

> <PUBCHEM_MMFF94_PARTIAL_CHARGES>
12
1 0.14
10 0.14
13 -0.28
15 0.14
16 0.14
18 0.14
2 0.14
3 0.14
4 -0.28
5 -0.28
8 -0.28
9 0.14

> <PUBCHEM_EFFECTIVE_ROTOR_COUNT>
2.6

> <PUBCHEM_PHARMACOPHORE_FEATURES>
3
3 16 19 20 hydrophobe
5 1 4 6 8 10 rings
5 2 5 12 13 15 rings

> <PUBCHEM_HEAVY_ATOM_COUNT>
20

> <PUBCHEM_ATOM_DEF_STEREO_COUNT>
3

> <PUBCHEM_ATOM_UDEF_STEREO_COUNT>
0

> <PUBCHEM_BOND_DEF_STEREO_COUNT>
0

> <PUBCHEM_BOND_UDEF_STEREO_COUNT>
0

> <PUBCHEM_ISOTOPIC_ATOM_COUNT>
0

> <PUBCHEM_COMPONENT_COUNT>
1

> <PUBCHEM_CACTVS_TAUTO_COUNT>
1

> <PUBCHEM_CONFORMER_ID>
00A2A7E800000002

> <PUBCHEM_MMFF94_ENERGY>
46.7627

> <PUBCHEM_FEATURE_SELFOVERLAP>
15.223

> <PUBCHEM_SHAPE_FINGERPRINT>
10062212 137 18200604716588020307
108231 29 18334297548097848792
10863032 1 18340213002085348572
10967382 1 18339079268342715844
1100329 8 17976257942096561408
11132069 177 18409172103583960051
12011746 2 18341887485881231908
12035758 1 18124031230647329977
12403259 226 18341617078850658908
12403260 363 18341341054145177450
12403814 3 18411420618312062215
12596599 1 17750214994128221135
13140716 1 18411695521434928850
14178342 30 18048036565033606560
14223421 5 18194400219542923748
14251745 187 18267872687672534747
14787075 74 18264211318310538524
15196674 1 18411699850930832903
16945 1 18048031062869107772
17492 54 18196940971992948543
17492 89 18199190774615946091
18186145 218 18333447659969010884
20905425 154 18127979800182930450
2334 1 18412823590485040916
23402539 116 18273221901714483766
23419403 2 16183060347514811369
23557571 272 18265611163868489139
23559900 14 18266188416632458544
2748010 2 18124289667635839274
2871803 45 18343026613928721495
296302 2 18260824852387627769
3286 77 18201159965918397814
350125 39 18411132559235064732
5262128 65 17756706703856947318
69090 78 18340209579128230522
7364860 26 17976826707087015742
7832392 63 17543062841563295576
9709674 26 18343297085241521562

> <PUBCHEM_SHAPE_MULTIPOLES>
411.59
6.49
3.1
1.16
1.86
0.74
0.11
0.17
0.4
-0.93
-0.45
0.43
-0.01
0.21

> <PUBCHEM_SHAPE_SELFOVERLAP>
859.068

> <PUBCHEM_SHAPE_VOLUME>
229.2

> <PUBCHEM_COORDINATE_TYPE>
2
5
10

$$$$

