644101
  -OEChem-07051213093D

 50 51  0     1  0  0  0  0  0999 V2000
    3.0053   -2.6002   -0.1825 P   0  0  0  0  0  0  0  0  0  0  0  0
   -1.4500   -0.8219   -0.6229 O   0  0  0  0  0  0  0  0  0  0  0  0
   -1.2687    0.7959    1.0689 O   0  0  0  0  0  0  0  0  0  0  0  0
    0.4091    0.8096   -0.5657 O   0  0  0  0  0  0  0  0  0  0  0  0
   -3.4897   -0.2273    2.2899 O   0  0  0  0  0  0  0  0  0  0  0  0
   -5.0028   -0.7875   -0.3493 O   0  0  0  0  0  0  0  0  0  0  0  0
   -0.5514    3.3750    0.3821 O   0  0  0  0  0  0  0  0  0  0  0  0
    2.6649    2.3912    1.7552 O   0  0  0  0  0  0  0  0  0  0  0  0
    1.5759    3.3638   -1.5680 O   0  0  0  0  0  0  0  0  0  0  0  0
   -0.9339   -2.8262    1.2397 O   0  0  0  0  0  0  0  0  0  0  0  0
   -1.7435   -0.1827   -3.3413 O   0  0  0  0  0  0  0  0  0  0  0  0
    2.1992   -1.2908   -0.6915 O   0  0  0  0  0  0  0  0  0  0  0  0
    4.5056   -2.3356   -0.7249 O   0  0  0  0  0  0  0  0  0  0  0  0
    3.1407   -2.3711    1.4126 O   0  0  0  0  0  0  0  0  0  0  0  0
    2.4050   -3.9128   -0.5936 O   0  0  0  0  0  0  0  0  0  0  0  0
   -1.5772   -0.5705    0.7890 C   0  0  1  0  0  0  0  0  0  0  0  0
   -3.0492   -0.8325    1.0907 C   0  0  2  0  0  0  0  0  0  0  0  0
   -3.7126   -0.2453   -0.1368 C   0  0  1  0  0  0  0  0  0  0  0  0
   -2.7495   -0.6856   -1.2336 C   0  0  1  0  0  0  0  0  0  0  0  0
    0.1019    1.0846    0.7996 C   0  0  1  0  0  0  0  0  0  0  0  0
    0.3582    2.5584    1.1209 C   0  0  1  0  0  0  0  0  0  0  0  0
    1.7955    2.9590    0.7808 C   0  0  2  0  0  0  0  0  0  0  0  0
    2.2024    2.4910   -0.6227 C   0  0  1  0  0  0  0  0  0  0  0  0
    1.7724    1.0478   -0.9379 C   0  0  1  0  0  0  0  0  0  0  0  0
   -0.6406   -1.4794    1.5694 C   0  0  0  0  0  0  0  0  0  0  0  0
   -2.6664    0.3053   -2.3817 C   0  0  0  0  0  0  0  0  0  0  0  0
    2.6995   -0.0122   -0.3463 C   0  0  0  0  0  0  0  0  0  0  0  0
   -3.2766   -1.9040    1.1505 H   0  0  0  0  0  0  0  0  0  0  0  0
   -3.8028    0.8443   -0.0544 H   0  0  0  0  0  0  0  0  0  0  0  0
   -3.0143   -1.6747   -1.6276 H   0  0  0  0  0  0  0  0  0  0  0  0
    0.7478    0.5210    1.4757 H   0  0  0  0  0  0  0  0  0  0  0  0
    0.1542    2.7384    2.1834 H   0  0  0  0  0  0  0  0  0  0  0  0
    1.8861    4.0504    0.8440 H   0  0  0  0  0  0  0  0  0  0  0  0
    3.2852    2.5955   -0.7587 H   0  0  0  0  0  0  0  0  0  0  0  0
    1.7796    0.9087   -2.0265 H   0  0  0  0  0  0  0  0  0  0  0  0
    0.4081   -1.3640    1.3006 H   0  0  0  0  0  0  0  0  0  0  0  0
   -0.7423   -1.3323    2.6497 H   0  0  0  0  0  0  0  0  0  0  0  0
   -2.3077    1.2831   -2.0435 H   0  0  0  0  0  0  0  0  0  0  0  0
   -3.6376    0.4339   -2.8682 H   0  0  0  0  0  0  0  0  0  0  0  0
    2.7562    0.0564    0.7418 H   0  0  0  0  0  0  0  0  0  0  0  0
    3.7093    0.1100   -0.7510 H   0  0  0  0  0  0  0  0  0  0  0  0
   -4.4548   -0.3368    2.3345 H   0  0  0  0  0  0  0  0  0  0  0  0
   -5.3312   -0.4379   -1.1951 H   0  0  0  0  0  0  0  0  0  0  0  0
   -1.4509    3.0679    0.5883 H   0  0  0  0  0  0  0  0  0  0  0  0
    3.5707    2.6710    1.5391 H   0  0  0  0  0  0  0  0  0  0  0  0
    1.8922    3.1138   -2.4529 H   0  0  0  0  0  0  0  0  0  0  0  0
   -0.3370   -3.3878    1.7632 H   0  0  0  0  0  0  0  0  0  0  0  0
   -0.8861   -0.2903   -2.8948 H   0  0  0  0  0  0  0  0  0  0  0  0
    5.1789   -3.0413   -0.6216 H   0  0  0  0  0  0  0  0  0  0  0  0
    3.5384   -3.0797    1.9618 H   0  0  0  0  0  0  0  0  0  0  0  0
  1 12  1  0  0  0  0
  1 13  1  0  0  0  0
  1 14  1  0  0  0  0
  1 15  2  0  0  0  0
  2 16  1  0  0  0  0
  2 19  1  0  0  0  0
  3 16  1  0  0  0  0
  3 20  1  0  0  0  0
  4 20  1  0  0  0  0
  4 24  1  0  0  0  0
  5 17  1  0  0  0  0
  5 42  1  0  0  0  0
  6 18  1  0  0  0  0
  6 43  1  0  0  0  0
  7 21  1  0  0  0  0
  7 44  1  0  0  0  0
  8 22  1  0  0  0  0
  8 45  1  0  0  0  0
  9 23  1  0  0  0  0
  9 46  1  0  0  0  0
 10 25  1  0  0  0  0
 10 47  1  0  0  0  0
 11 26  1  0  0  0  0
 11 48  1  0  0  0  0
 12 27  1  0  0  0  0
 13 49  1  0  0  0  0
 14 50  1  0  0  0  0
 16 17  1  0  0  0  0
 16 25  1  0  0  0  0
 17 18  1  0  0  0  0
 17 28  1  0  0  0  0
 18 19  1  0  0  0  0
 18 29  1  0  0  0  0
 19 26  1  0  0  0  0
 19 30  1  0  0  0  0
 20 21  1  0  0  0  0
 20 31  1  0  0  0  0
 21 22  1  0  0  0  0
 21 32  1  0  0  0  0
 22 23  1  0  0  0  0
 22 33  1  0  0  0  0
 23 24  1  0  0  0  0
 23 34  1  0  0  0  0
 24 27  1  0  0  0  0
 24 35  1  0  0  0  0
 25 36  1  0  0  0  0
 25 37  1  0  0  0  0
 26 38  1  0  0  0  0
 26 39  1  0  0  0  0
 27 40  1  0  0  0  0
 27 41  1  0  0  0  0
M  END
> <PUBCHEM_COMPOUND_CID>
644101

> <PUBCHEM_CONFORMER_RMSD>
1

> <PUBCHEM_CONFORMER_DIVERSEORDER>
1
5
12
16
10
7
15
17
2
13
14
3
8
9
6
11
4

> <PUBCHEM_MMFF94_PARTIAL_CHARGES>
36
1 1.51
10 -0.68
11 -0.68
12 -0.55
13 -0.77
14 -0.77
15 -0.7
16 0.56
17 0.28
18 0.28
19 0.28
2 -0.56
20 0.56
21 0.28
22 0.28
23 0.28
24 0.28
25 0.28
26 0.28
27 0.28
3 -0.56
4 -0.56
42 0.4
43 0.4
44 0.4
45 0.4
46 0.4
47 0.4
48 0.4
49 0.5
5 -0.68
50 0.5
6 -0.68
7 -0.68
8 -0.68
9 -0.68

> <PUBCHEM_EFFECTIVE_ROTOR_COUNT>
9.2

> <PUBCHEM_PHARMACOPHORE_FEATURES>
23
1 10 acceptor
1 10 donor
1 11 acceptor
1 11 donor
1 13 acceptor
1 14 acceptor
1 15 acceptor
1 2 acceptor
1 3 acceptor
1 4 acceptor
1 5 acceptor
1 5 donor
1 6 acceptor
1 6 donor
1 7 acceptor
1 7 donor
1 8 acceptor
1 8 donor
1 9 acceptor
1 9 donor
4 1 13 14 15 anion
5 2 16 17 18 19 rings
6 4 20 21 22 23 24 rings

> <PUBCHEM_HEAVY_ATOM_COUNT>
27

> <PUBCHEM_ATOM_DEF_STEREO_COUNT>
9

> <PUBCHEM_ATOM_UDEF_STEREO_COUNT>
0

> <PUBCHEM_BOND_DEF_STEREO_COUNT>
0

> <PUBCHEM_BOND_UDEF_STEREO_COUNT>
0

> <PUBCHEM_ISOTOPIC_ATOM_COUNT>
0

> <PUBCHEM_COMPONENT_COUNT>
1

> <PUBCHEM_CACTVS_TAUTO_COUNT>
1

> <PUBCHEM_CONFORMER_ID>
0009D40500000001

> <PUBCHEM_MMFF94_ENERGY>
50.1016

> <PUBCHEM_FEATURE_SELFOVERLAP>
116.883

> <PUBCHEM_SHAPE_FINGERPRINT>
10165383 225 17695594417223923493
121448 382 17249217903789528332
12422481 6 17318431461073646915
12553582 1 18337094774604187290
12788726 201 17693389145233774870
13004483 165 18047762773521461430
13140716 1 18121486969710184240
13533116 47 18263914467852269843
13583140 156 18044085762220155331
13681431 1 18411421721986704028
14178342 30 17901658276583846120
14251757 17 17417255471341083678
16945 1 18119798111112792801
1813 80 18261391221093104562
19777482 4 17897183496276741333
19930381 70 18410009897464719835
20511986 3 17168434761377533201
23114952 82 18059851714658039964
23419403 2 18124348066443235284
23526113 38 18060707207723940694
23559900 14 18270394975878753224
23598291 2 17750213873131155201
238 59 17983045304298800935
35225 105 7309900154550748590
3524813 1 17846495958755097935
513532 50 16971467252050694109
6438718 38 17684089467043046218
81228 2 17907020934585295536

> <PUBCHEM_SHAPE_MULTIPOLES>
477.33
6.54
4.17
2.12
2.73
0.01
0.94
-3.54
0.61
-5.56
-0.46
1.49
0.18
0.53

> <PUBCHEM_SHAPE_SELFOVERLAP>
969.714

> <PUBCHEM_SHAPE_VOLUME>
278.6

> <PUBCHEM_COORDINATE_TYPE>
2
5
10

$$$$

