93306
  -OEChem-07051212583D

 39 41  0     1  0  0  0  0  0999 V2000
    0.6931   -0.8396   -1.4683 O   0  0  0  0  0  0  0  0  0  0  0  0
   -4.4601   -0.6560   -0.7420 O   0  0  0  0  0  0  0  0  0  0  0  0
    2.4838    1.9266   -0.9500 O   0  0  0  0  0  0  0  0  0  0  0  0
    3.1633    0.2974    1.8896 O   0  0  0  0  0  0  0  0  0  0  0  0
   -0.8300   -0.3250    0.4597 C   0  0  2  0  0  0  0  0  0  0  0  0
    0.4215   -1.0170   -0.0703 C   0  0  2  0  0  0  0  0  0  0  0  0
    1.5895   -0.2049   -0.5417 C   0  0  2  0  0  0  0  0  0  0  0  0
   -2.0932   -0.9213   -0.2674 C   0  0  2  0  0  0  0  0  0  0  0  0
   -0.8111    1.2013    0.2587 C   0  0  0  0  0  0  0  0  0  0  0  0
   -3.3981   -0.1639    0.0753 C   0  0  1  0  0  0  0  0  0  0  0  0
   -0.8680   -0.5909    1.9871 C   0  0  0  0  0  0  0  0  0  0  0  0
    1.5217    1.2621   -0.5867 C   0  0  0  0  0  0  0  0  0  0  0  0
   -2.0898    1.9336    0.5938 C   0  0  0  0  0  0  0  0  0  0  0  0
   -3.2645    1.3383   -0.1669 C   0  0  0  0  0  0  0  0  0  0  0  0
    0.2445    1.8972   -0.1980 C   0  0  0  0  0  0  0  0  0  0  0  0
    2.9163   -0.7370   -0.2510 C   0  0  0  0  0  0  0  0  0  0  0  0
   -2.2914   -2.4283   -0.0201 C   0  0  0  0  0  0  0  0  0  0  0  0
    3.2549   -0.9442    1.2026 C   0  0  0  0  0  0  0  0  0  0  0  0
    3.8177   -1.0285   -1.2042 C   0  0  0  0  0  0  0  0  0  0  0  0
    0.5754   -2.0147    0.3209 H   0  0  0  0  0  0  0  0  0  0  0  0
   -1.9363   -0.8206   -1.3522 H   0  0  0  0  0  0  0  0  0  0  0  0
   -3.6852   -0.3468    1.1166 H   0  0  0  0  0  0  0  0  0  0  0  0
   -0.0215   -0.1043    2.4881 H   0  0  0  0  0  0  0  0  0  0  0  0
   -1.7849   -0.2251    2.4587 H   0  0  0  0  0  0  0  0  0  0  0  0
   -0.7885   -1.6601    2.2139 H   0  0  0  0  0  0  0  0  0  0  0  0
   -2.2744    1.8806    1.6729 H   0  0  0  0  0  0  0  0  0  0  0  0
   -2.0167    3.0004    0.3495 H   0  0  0  0  0  0  0  0  0  0  0  0
   -4.1942    1.8410    0.1267 H   0  0  0  0  0  0  0  0  0  0  0  0
   -3.1531    1.5336   -1.2421 H   0  0  0  0  0  0  0  0  0  0  0  0
    0.2000    2.9760   -0.3117 H   0  0  0  0  0  0  0  0  0  0  0  0
   -2.5462   -2.6358    1.0239 H   0  0  0  0  0  0  0  0  0  0  0  0
   -3.1052   -2.8208   -0.6396 H   0  0  0  0  0  0  0  0  0  0  0  0
   -1.3977   -3.0033   -0.2781 H   0  0  0  0  0  0  0  0  0  0  0  0
    2.5620   -1.6491    1.6718 H   0  0  0  0  0  0  0  0  0  0  0  0
    4.2672   -1.3371    1.3455 H   0  0  0  0  0  0  0  0  0  0  0  0
   -4.2176   -0.5068   -1.6719 H   0  0  0  0  0  0  0  0  0  0  0  0
    4.7992   -1.4194   -0.9584 H   0  0  0  0  0  0  0  0  0  0  0  0
    3.5885   -0.8795   -2.2546 H   0  0  0  0  0  0  0  0  0  0  0  0
    3.8174    0.9009    1.4971 H   0  0  0  0  0  0  0  0  0  0  0  0
  1  6  1  0  0  0  0
  1  7  1  0  0  0  0
  2 10  1  0  0  0  0
  2 36  1  0  0  0  0
  3 12  2  0  0  0  0
  4 18  1  0  0  0  0
  4 39  1  0  0  0  0
  5  6  1  0  0  0  0
  5  8  1  0  0  0  0
  5  9  1  0  0  0  0
  5 11  1  0  0  0  0
  6  7  1  0  0  0  0
  6 20  1  0  0  0  0
  7 12  1  0  0  0  0
  7 16  1  0  0  0  0
  8 10  1  0  0  0  0
  8 17  1  0  0  0  0
  8 21  1  0  0  0  0
  9 13  1  0  0  0  0
  9 15  2  0  0  0  0
 10 14  1  0  0  0  0
 10 22  1  0  0  0  0
 11 23  1  0  0  0  0
 11 24  1  0  0  0  0
 11 25  1  0  0  0  0
 12 15  1  0  0  0  0
 13 14  1  0  0  0  0
 13 26  1  0  0  0  0
 13 27  1  0  0  0  0
 14 28  1  0  0  0  0
 14 29  1  0  0  0  0
 15 30  1  0  0  0  0
 16 18  1  0  0  0  0
 16 19  2  0  0  0  0
 17 31  1  0  0  0  0
 17 32  1  0  0  0  0
 17 33  1  0  0  0  0
 18 34  1  0  0  0  0
 18 35  1  0  0  0  0
 19 37  1  0  0  0  0
 19 38  1  0  0  0  0
M  END
> <PUBCHEM_COMPOUND_CID>
93306

> <PUBCHEM_CONFORMER_RMSD>
0.6

> <PUBCHEM_CONFORMER_DIVERSEORDER>
1
3
4
5
6
2

> <PUBCHEM_MMFF94_PARTIAL_CHARGES>
21
1 -0.3
10 0.28
12 0.56
13 0.14
15 -0.14
16 -0.18
18 0.42
19 -0.3
2 -0.68
20 0.1
3 -0.57
30 0.15
36 0.4
37 0.15
38 0.15
39 0.4
4 -0.68
5 0.23
6 -0.05
7 0.19
9 -0.28

> <PUBCHEM_EFFECTIVE_ROTOR_COUNT>
3

> <PUBCHEM_PHARMACOPHORE_FEATURES>
9
1 1 acceptor
1 19 hydrophobe
1 2 acceptor
1 2 donor
1 3 acceptor
1 4 acceptor
1 4 donor
6 5 8 9 10 13 14 rings
7 1 5 6 7 9 12 15 rings

> <PUBCHEM_HEAVY_ATOM_COUNT>
19

> <PUBCHEM_ATOM_DEF_STEREO_COUNT>
5

> <PUBCHEM_ATOM_UDEF_STEREO_COUNT>
0

> <PUBCHEM_BOND_DEF_STEREO_COUNT>
0

> <PUBCHEM_BOND_UDEF_STEREO_COUNT>
0

> <PUBCHEM_ISOTOPIC_ATOM_COUNT>
0

> <PUBCHEM_COMPONENT_COUNT>
1

> <PUBCHEM_CACTVS_TAUTO_COUNT>
3

> <PUBCHEM_CONFORMER_ID>
00016C7A00000001

> <PUBCHEM_MMFF94_ENERGY>
41.4631

> <PUBCHEM_FEATURE_SELFOVERLAP>
45.685

> <PUBCHEM_SHAPE_FINGERPRINT>
10062212 137 18271530900455321907
10863032 1 18268144271297384045
11132069 177 18335706091043597473
13140716 1 18411412891148925865
14289901 80 16371019519567984386
14787075 74 16662076649873065122
15536298 74 18335698326048720500
15775835 57 17845927567304511149
15852999 172 17896038917551937823
16752209 62 18341613767193464335
16945 1 18341613779851610445
17349148 13 18335146409649751495
17492 89 18341047415389490298
17804303 29 18115586101299674470
17834072 14 18260277347178703425
1813 80 16771833406148194002
18175812 5 17676773157794873678
18186145 218 17846497019785476157
18981168 100 7564801017554962242
192875 21 18410302401816940661
21267235 1 18338502101931786207
21452121 199 17903090936304094539
21501502 16 18340198605455348613
21501925 9 18410301297699057040
2334 1 18267576910238443789
23402539 116 18334866055960159623
23419403 2 17619400516467027844
23557571 272 18113909251166377955
23559900 14 18261392303962563150
2748010 2 18338504232071716389
296302 2 17022624160825823905
3286 77 17561094604546193679
5104073 3 18410851028397263345
69090 78 18409729590803093981
7364860 26 18262513689806380812
74978 22 18130497565893743802
77492 1 17703506696271011642
81228 2 18263632013047710313
9981440 41 17624976032747409752

> <PUBCHEM_SHAPE_MULTIPOLES>
367.53
6.38
2.08
1.35
0.1
0.32
-0.54
-1.22
0.66
0.74
0.2
-0.86
-0.2
-0.26

> <PUBCHEM_SHAPE_SELFOVERLAP>
783.241

> <PUBCHEM_SHAPE_VOLUME>
202.4

> <PUBCHEM_COORDINATE_TYPE>
2
5
10

$$$$

