117301
  -OEChem-07051213092D

 43 44  0     1  0  0  0  0  0999 V2000
    3.9511    0.8944    0.0000 O   0  0  0  0  0  0  0  0  0  0  0  0
    6.1622    2.4635    0.0000 O   0  0  0  0  0  0  0  0  0  0  0  0
    2.9511    0.8944    0.0000 C   0  0  3  0  0  0  0  0  0  0  0  0
    2.9511   -0.1056    0.0000 C   0  0  3  0  0  0  0  0  0  0  0  0
    2.6420    1.8455    0.0000 C   0  0  0  0  0  0  0  0  0  0  0  0
    4.2601    1.8455    0.0000 C   0  0  3  0  0  0  0  0  0  0  0  0
    3.4511    2.4333    0.0000 C   0  0  0  0  0  0  0  0  0  0  0  0
    2.0850   -0.6056    0.0000 C   0  0  0  0  0  0  0  0  0  0  0  0
    3.8171   -0.6056    0.0000 C   0  0  0  0  0  0  0  0  0  0  0  0
    5.2111    2.1545    0.0000 C   0  0  0  0  0  0  0  0  0  0  0  0
    2.0000    0.5854    0.0000 C   0  0  0  0  0  0  0  0  0  0  0  0
    2.0850   -1.6056    0.0000 C   0  0  0  0  0  0  0  0  0  0  0  0
    3.8171   -1.6056    0.0000 C   0  0  0  0  0  0  0  0  0  0  0  0
    2.9511   -2.1056    0.0000 C   0  0  0  0  0  0  0  0  0  0  0  0
    4.9021    3.1056    0.0000 C   0  0  0  0  0  0  0  0  0  0  0  0
    5.5202    1.2034    0.0000 C   0  0  0  0  0  0  0  0  0  0  0  0
    2.9511   -3.1056    0.0000 C   0  0  0  0  0  0  0  0  0  0  0  0
    3.6872    0.3194    0.0000 H   0  0  0  0  0  0  0  0  0  0  0  0
    2.3320    2.3824    0.0000 H   0  0  0  0  0  0  0  0  0  0  0  0
    2.0756    1.5933    0.0000 H   0  0  0  0  0  0  0  0  0  0  0  0
    4.8611    1.2444    0.0000 H   0  0  0  0  0  0  0  0  0  0  0  0
    3.8659    2.8940    0.0000 H   0  0  0  0  0  0  0  0  0  0  0  0
    3.0362    2.8940    0.0000 H   0  0  0  0  0  0  0  0  0  0  0  0
    1.8730   -0.0230    0.0000 H   0  0  0  0  0  0  0  0  0  0  0  0
    1.4744   -0.7132    0.0000 H   0  0  0  0  0  0  0  0  0  0  0  0
    4.4277   -0.7132    0.0000 H   0  0  0  0  0  0  0  0  0  0  0  0
    4.0291   -0.0230    0.0000 H   0  0  0  0  0  0  0  0  0  0  0  0
    1.8084    1.1751    0.0000 H   0  0  0  0  0  0  0  0  0  0  0  0
    1.4103    0.3938    0.0000 H   0  0  0  0  0  0  0  0  0  0  0  0
    2.1916   -0.0042    0.0000 H   0  0  0  0  0  0  0  0  0  0  0  0
    1.4744   -1.4979    0.0000 H   0  0  0  0  0  0  0  0  0  0  0  0
    1.8730   -2.1882    0.0000 H   0  0  0  0  0  0  0  0  0  0  0  0
    4.3540   -1.9156    0.0000 H   0  0  0  0  0  0  0  0  0  0  0  0
    4.9305    1.0119    0.0000 H   0  0  0  0  0  0  0  0  0  0  0  0
    5.7117    0.6138    0.0000 H   0  0  0  0  0  0  0  0  0  0  0  0
    6.1098    1.3950    0.0000 H   0  0  0  0  0  0  0  0  0  0  0  0
    5.4918    3.2972    0.0000 H   0  0  0  0  0  0  0  0  0  0  0  0
    4.7105    3.6952    0.0000 H   0  0  0  0  0  0  0  0  0  0  0  0
    4.3125    2.9140    0.0000 H   0  0  0  0  0  0  0  0  0  0  0  0
    6.2911    3.0700    0.0000 H   0  0  0  0  0  0  0  0  0  0  0  0
    2.3311   -3.1056    0.0000 H   0  0  0  0  0  0  0  0  0  0  0  0
    2.9511   -3.7256    0.0000 H   0  0  0  0  0  0  0  0  0  0  0  0
    3.5711   -3.1056    0.0000 H   0  0  0  0  0  0  0  0  0  0  0  0
  1  3  1  0  0  0  0
  1  6  1  0  0  0  0
  2 10  1  0  0  0  0
  2 40  1  0  0  0  0
  3  4  1  0  0  0  0
  3  5  1  0  0  0  0
  3 11  1  0  0  0  0
  4  8  1  0  0  0  0
  4  9  1  0  0  0  0
  4 18  1  0  0  0  0
  5  7  1  0  0  0  0
  5 19  1  0  0  0  0
  5 20  1  0  0  0  0
  6  7  1  0  0  0  0
  6 10  1  0  0  0  0
  6 21  1  0  0  0  0
  7 22  1  0  0  0  0
  7 23  1  0  0  0  0
  8 12  1  0  0  0  0
  8 24  1  0  0  0  0
  8 25  1  0  0  0  0
  9 13  1  0  0  0  0
  9 26  1  0  0  0  0
  9 27  1  0  0  0  0
 10 15  1  0  0  0  0
 10 16  1  0  0  0  0
 11 28  1  0  0  0  0
 11 29  1  0  0  0  0
 11 30  1  0  0  0  0
 12 14  1  0  0  0  0
 12 31  1  0  0  0  0
 12 32  1  0  0  0  0
 13 14  2  0  0  0  0
 13 33  1  0  0  0  0
 14 17  1  0  0  0  0
 15 37  1  0  0  0  0
 15 38  1  0  0  0  0
 15 39  1  0  0  0  0
 16 34  1  0  0  0  0
 16 35  1  0  0  0  0
 16 36  1  0  0  0  0
 17 41  1  0  0  0  0
 17 42  1  0  0  0  0
 17 43  1  0  0  0  0
M  END
> <PUBCHEM_COMPOUND_CID>
117301

> <PUBCHEM_COMPOUND_CANONICALIZED>
1

> <PUBCHEM_CACTVS_COMPLEXITY>
319

> <PUBCHEM_CACTVS_HBOND_ACCEPTOR>
2

> <PUBCHEM_CACTVS_HBOND_DONOR>
1

> <PUBCHEM_CACTVS_ROTATABLE_BOND>
2

> <PUBCHEM_CACTVS_SUBSKEYS>
AAADceBwMAAAAAAAAAAAAAAAAAAAASAAAAAgAAAAAAAAAAAAAAAAGgAACAAADVSggAICAAAABgCAAiBCAAAAAAAgAAAACAAAAAgBAAIAAQACQAAEgAALAAOA4PQOgAAAAAAAAAAAAAAAAAAAAAAAAAAAAA==

> <PUBCHEM_IUPAC_OPENEYE_NAME>
2-[5-methyl-5-(4-methylcyclohex-3-en-1-yl)tetrahydrofuran-2-yl]propan-2-ol

> <PUBCHEM_IUPAC_CAS_NAME>
2-[5-methyl-5-(4-methyl-1-cyclohex-3-enyl)-2-oxolanyl]-2-propanol

> <PUBCHEM_IUPAC_NAME>
2-[5-methyl-5-(4-methylcyclohex-3-en-1-yl)oxolan-2-yl]propan-2-ol

> <PUBCHEM_IUPAC_SYSTEMATIC_NAME>
2-[5-methyl-5-(4-methylcyclohex-3-en-1-yl)oxolan-2-yl]propan-2-ol

> <PUBCHEM_IUPAC_TRADITIONAL_NAME>
2-[5-methyl-5-(4-methylcyclohex-3-en-1-yl)tetrahydrofuran-2-yl]propan-2-ol

> <PUBCHEM_IUPAC_INCHI>
InChI=1S/C15H26O2/c1-11-5-7-12(8-6-11)15(4)10-9-13(17-15)14(2,3)16/h5,12-13,16H,6-10H2,1-4H3

> <PUBCHEM_IUPAC_INCHIKEY>
RKBAYVATPNYHLW-UHFFFAOYSA-N

> <PUBCHEM_XLOGP3_AA>
2.5

> <PUBCHEM_EXACT_MASS>
238.19328

> <PUBCHEM_MOLECULAR_FORMULA>
C15H26O2

> <PUBCHEM_MOLECULAR_WEIGHT>
238.36574

> <PUBCHEM_OPENEYE_CAN_SMILES>
CC1=CCC(CC1)C2(CCC(O2)C(C)(C)O)C

> <PUBCHEM_OPENEYE_ISO_SMILES>
CC1=CCC(CC1)C2(CCC(O2)C(C)(C)O)C

> <PUBCHEM_CACTVS_TPSA>
29.5

> <PUBCHEM_MONOISOTOPIC_WEIGHT>
238.19328

> <PUBCHEM_TOTAL_CHARGE>
0

> <PUBCHEM_HEAVY_ATOM_COUNT>
17

> <PUBCHEM_ATOM_DEF_STEREO_COUNT>
0

> <PUBCHEM_ATOM_UDEF_STEREO_COUNT>
3

> <PUBCHEM_BOND_DEF_STEREO_COUNT>
0

> <PUBCHEM_BOND_UDEF_STEREO_COUNT>
0

> <PUBCHEM_ISOTOPIC_ATOM_COUNT>
0

> <PUBCHEM_COMPONENT_COUNT>
1

> <PUBCHEM_CACTVS_TAUTO_COUNT>
1

> <PUBCHEM_COORDINATE_TYPE>
1
5
255

> <PUBCHEM_BONDANNOTATIONS>
3  11  3
4  18  3
6  21  3

$$$$

