47205123
  -OEChem-06241222583D

 33 34  0     1  0  0  0  0  0999 V2000
   -0.2669    1.5498   -2.0004 Cl  0  0  0  0  0  0  0  0  0  0  0  0
   -1.6538   -2.5875    1.3048 Cl  0  0  0  0  0  0  0  0  0  0  0  0
   -5.0255    1.5099    0.4887 Cl  0  0  0  0  0  0  0  0  0  0  0  0
    0.4948   -1.2475   -0.6498 S   0  0  0  0  0  0  0  0  0  0  0  0
    0.6055   -2.3999    0.2140 O   0  0  0  0  0  0  0  0  0  0  0  0
    0.6525   -1.3618   -2.0809 O   0  0  0  0  0  0  0  0  0  0  0  0
    1.5519   -0.0303   -0.0792 N   0  0  2  0  0  0  0  0  0  0  0  0
    2.9650   -0.0617   -0.5809 C   0  0  1  0  0  0  0  0  0  0  0  0
    3.6378    1.2864   -0.2918 C   0  0  0  0  0  0  0  0  0  0  0  0
    1.4103    0.3392    1.3574 C   0  0  0  0  0  0  0  0  0  0  0  0
    3.5197    1.7062    1.1710 C   0  0  0  0  0  0  0  0  0  0  0  0
    2.0617    1.6920    1.6157 C   0  0  0  0  0  0  0  0  0  0  0  0
    3.7479   -1.2437   -0.0127 C   0  0  0  0  0  0  0  0  0  0  0  0
   -1.0565   -0.4717   -0.3290 C   0  0  0  0  0  0  0  0  0  0  0  0
   -1.3642    0.7478   -0.9320 C   0  0  0  0  0  0  0  0  0  0  0  0
   -1.9758   -1.0781    0.5270 C   0  0  0  0  0  0  0  0  0  0  0  0
   -2.5912    1.3611   -0.6790 C   0  0  0  0  0  0  0  0  0  0  0  0
   -3.2027   -0.4649    0.7801 C   0  0  0  0  0  0  0  0  0  0  0  0
   -3.5106    0.7548    0.1771 C   0  0  0  0  0  0  0  0  0  0  0  0
    2.9370   -0.1678   -1.6725 H   0  0  0  0  0  0  0  0  0  0  0  0
    3.1631    2.0578   -0.9127 H   0  0  0  0  0  0  0  0  0  0  0  0
    4.6939    1.2555   -0.5842 H   0  0  0  0  0  0  0  0  0  0  0  0
    1.8652   -0.4316    1.9885 H   0  0  0  0  0  0  0  0  0  0  0  0
    0.3600    0.4177    1.6479 H   0  0  0  0  0  0  0  0  0  0  0  0
    3.9351    2.7120    1.3004 H   0  0  0  0  0  0  0  0  0  0  0  0
    4.1096    1.0348    1.8056 H   0  0  0  0  0  0  0  0  0  0  0  0
    1.9981    1.9364    2.6819 H   0  0  0  0  0  0  0  0  0  0  0  0
    1.5115    2.4716    1.0737 H   0  0  0  0  0  0  0  0  0  0  0  0
    3.7939   -1.2321    1.0799 H   0  0  0  0  0  0  0  0  0  0  0  0
    4.7767   -1.2361   -0.3886 H   0  0  0  0  0  0  0  0  0  0  0  0
    3.2992   -2.1957   -0.3128 H   0  0  0  0  0  0  0  0  0  0  0  0
   -2.8341    2.3125   -1.1477 H   0  0  0  0  0  0  0  0  0  0  0  0
   -3.9220   -0.9353    1.4473 H   0  0  0  0  0  0  0  0  0  0  0  0
  1 15  1  0  0  0  0
  2 16  1  0  0  0  0
  3 19  1  0  0  0  0
  4  5  2  0  0  0  0
  4  6  2  0  0  0  0
  4  7  1  0  0  0  0
  4 14  1  0  0  0  0
  7  8  1  0  0  0  0
  7 10  1  0  0  0  0
  8  9  1  0  0  0  0
  8 13  1  0  0  0  0
  8 20  1  0  0  0  0
  9 11  1  0  0  0  0
  9 21  1  0  0  0  0
  9 22  1  0  0  0  0
 10 12  1  0  0  0  0
 10 23  1  0  0  0  0
 10 24  1  0  0  0  0
 11 12  1  0  0  0  0
 11 25  1  0  0  0  0
 11 26  1  0  0  0  0
 12 27  1  0  0  0  0
 12 28  1  0  0  0  0
 13 29  1  0  0  0  0
 13 30  1  0  0  0  0
 13 31  1  0  0  0  0
 14 15  2  0  0  0  0
 14 16  1  0  0  0  0
 15 17  1  0  0  0  0
 16 18  2  0  0  0  0
 17 19  2  0  0  0  0
 17 32  1  0  0  0  0
 18 19  1  0  0  0  0
 18 33  1  0  0  0  0
M  END
> <PUBCHEM_COMPOUND_CID>
47205123

> <PUBCHEM_CONFORMER_RMSD>
0.6

> <PUBCHEM_CONFORMER_DIVERSEORDER>
1
11
15
12
9
14
13
3
5
10
8
4
2
7
6

> <PUBCHEM_MMFF94_PARTIAL_CHARGES>
17
1 -0.18
10 0.36
14 -0.01
15 0.18
16 0.18
17 -0.15
18 -0.15
19 0.18
2 -0.18
3 -0.18
32 0.15
33 0.15
4 1.45
5 -0.65
6 -0.65
7 -0.85
8 0.36

> <PUBCHEM_EFFECTIVE_ROTOR_COUNT>
3.2

> <PUBCHEM_PHARMACOPHORE_FEATURES>
4
1 5 acceptor
1 6 acceptor
6 14 15 16 17 18 19 rings
6 7 8 9 10 11 12 rings

> <PUBCHEM_HEAVY_ATOM_COUNT>
19

> <PUBCHEM_ATOM_DEF_STEREO_COUNT>
0

> <PUBCHEM_ATOM_UDEF_STEREO_COUNT>
1

> <PUBCHEM_BOND_DEF_STEREO_COUNT>
0

> <PUBCHEM_BOND_UDEF_STEREO_COUNT>
0

> <PUBCHEM_ISOTOPIC_ATOM_COUNT>
0

> <PUBCHEM_COMPONENT_COUNT>
1

> <PUBCHEM_CACTVS_TAUTO_COUNT>
1

> <PUBCHEM_CONFORMER_ID>
02D04B0300000001

> <PUBCHEM_MMFF94_ENERGY>
40.8081

> <PUBCHEM_FEATURE_SELFOVERLAP>
20.315

> <PUBCHEM_SHAPE_FINGERPRINT>
10165383 225 18412254060620681636
10366900 7 18334007315666945373
10863032 1 18040719125712980603
11132069 177 18060142020208700213
11640471 11 15719399386869458576
12011746 2 18272370901532202917
12633257 1 18340494472730214683
12824470 246 14763203533665185427
13764800 53 18411140190801041289
14178342 30 18202273698483662355
14386348 128 18334582291607910084
14787075 74 18334579027981359033
15219456 202 18409165502250816090
15295992 7 18260834782393980712
15775835 57 18113622248614294732
16945 1 17418106394282193790
17349148 13 18130508531689107623
18175812 5 18411135831319396127
18186145 218 17385718054820026984
18219364 16 17677605372122531226
18981168 100 17844274932713858758
192875 21 15864068788645008360
19862831 5 14996285812096994193
20600515 1 18060123345822792509
21041028 32 17684936095381221174
21524375 3 18334582360058335703
22112679 90 17274532110282656583
22892500 29 18187085095721782773
23175994 123 17970059148825718654
23419403 2 17609169633674181870
23557571 272 18267004103836439475
23559900 14 18343576369705900590
25 1 17967814950861398088
27216 239 18046076959933862441
3060560 45 17022906803870226052
3286 77 18114472188113733662
3524813 1 18339361984343559020
427121 178 18271518792958312939
474 4 18186805772851131529
495365 180 17895205423260586377
5262128 65 8214136387003694659
633830 44 18187651318514253813
6442390 28 18410290268402739915
7364860 26 18123185976894484783
77492 1 15213293140578992102
81228 2 17984436130441402907
8272917 22 17313939857100179213
90316 7 17346329184478943605
9981440 41 15796561914705927090

> <PUBCHEM_SHAPE_MULTIPOLES>
383.75
7.27
2.41
1.61
2.06
1
-0.27
-3.36
2.08
0.29
0.34
-0.52
-0.34
1.11

> <PUBCHEM_SHAPE_SELFOVERLAP>
762.081

> <PUBCHEM_SHAPE_VOLUME>
230

> <PUBCHEM_COORDINATE_TYPE>
2
5
10

$$$$

