439967
  -OEChem-07051212482D

 51 54  0     1  0  0  0  0  0999 V2000
    5.0474    2.0310    0.0000 P   0  0  3  0  0  0  0  0  0  0  0  0
    4.4026   -1.4221    0.0000 O   0  0  0  0  0  0  0  0  0  0  0  0
    6.7485   -2.5140    0.0000 O   0  0  0  0  0  0  0  0  0  0  0  0
    6.7523   -0.3384    0.0000 O   0  0  0  0  0  0  0  0  0  0  0  0
    5.3548    1.0794    0.0000 O   0  0  0  0  0  0  0  0  0  0  0  0
    5.9990    2.3384    0.0000 O   0  0  0  0  0  0  0  0  0  0  0  0
    4.0958    1.7237    0.0000 O   0  0  0  0  0  0  0  0  0  0  0  0
    3.8179    5.8374    0.0000 O   0  0  0  0  0  0  0  0  0  0  0  0
    3.4549    4.1438    0.0000 O   0  0  0  0  0  0  0  0  0  0  0  0
    4.6783   -3.1827    0.0000 N   0  0  0  0  0  0  0  0  0  0  0  0
    4.6783   -4.7922    0.0000 N   0  0  0  0  0  0  0  0  0  0  0  0
    2.8660   -2.9874    0.0000 N   0  0  0  0  0  0  0  0  0  0  0  0
    4.7400    2.9826    0.0000 N   0  0  0  0  0  0  0  0  0  0  0  0
    2.0000   -4.4874    0.0000 N   0  0  0  0  0  0  0  0  0  0  0  0
    2.8660   -5.9874    0.0000 N   0  0  0  0  0  0  0  0  0  0  0  0
    5.9405   -1.9248    0.0000 C   0  0  2  0  0  0  0  0  0  0  0  0
    5.9422   -0.9248    0.0000 C   0  0  1  0  0  0  0  0  0  0  0  0
    4.9889   -2.2322    0.0000 C   0  0  1  0  0  0  0  0  0  0  0  0
    4.9917   -0.6141    0.0000 C   0  0  1  0  0  0  0  0  0  0  0  0
    4.6844    0.3375    0.0000 C   0  0  0  0  0  0  0  0  0  0  0  0
    3.7320   -3.4874    0.0000 C   0  0  0  0  0  0  0  0  0  0  0  0
    5.2619   -3.9874    0.0000 C   0  0  0  0  0  0  0  0  0  0  0  0
    3.7320   -4.4874    0.0000 C   0  0  0  0  0  0  0  0  0  0  0  0
    2.8660   -4.9874    0.0000 C   0  0  0  0  0  0  0  0  0  0  0  0
    2.0000   -3.4874    0.0000 C   0  0  0  0  0  0  0  0  0  0  0  0
    5.4104    3.7246    0.0000 C   0  0  0  0  0  0  0  0  0  0  0  0
    5.1031    4.6762    0.0000 C   0  0  0  0  0  0  0  0  0  0  0  0
    6.3882    3.5150    0.0000 C   0  0  0  0  0  0  0  0  0  0  0  0
    5.7735    5.4182    0.0000 C   0  0  0  0  0  0  0  0  0  0  0  0
    7.0586    4.2570    0.0000 C   0  0  0  0  0  0  0  0  0  0  0  0
    6.7513    5.2086    0.0000 C   0  0  0  0  0  0  0  0  0  0  0  0
    4.1253    4.8858    0.0000 C   0  0  0  0  0  0  0  0  0  0  0  0
    6.4934   -1.6443    0.0000 H   0  0  0  0  0  0  0  0  0  0  0  0
    6.4942   -1.2072    0.0000 H   0  0  0  0  0  0  0  0  0  0  0  0
    5.4266   -2.6713    0.0000 H   0  0  0  0  0  0  0  0  0  0  0  0
    4.3795   -0.5161    0.0000 H   0  0  0  0  0  0  0  0  0  0  0  0
    4.3035    0.8267    0.0000 H   0  0  0  0  0  0  0  0  0  0  0  0
    4.1364    0.0473    0.0000 H   0  0  0  0  0  0  0  0  0  0  0  0
    7.3154   -2.2628    0.0000 H   0  0  0  0  0  0  0  0  0  0  0  0
    7.3182   -0.5916    0.0000 H   0  0  0  0  0  0  0  0  0  0  0  0
    5.8819   -3.9874    0.0000 H   0  0  0  0  0  0  0  0  0  0  0  0
    4.1338    3.1126    0.0000 H   0  0  0  0  0  0  0  0  0  0  0  0
    1.4631   -3.1774    0.0000 H   0  0  0  0  0  0  0  0  0  0  0  0
    6.4590    1.9227    0.0000 H   0  0  0  0  0  0  0  0  0  0  0  0
    2.3291   -6.2974    0.0000 H   0  0  0  0  0  0  0  0  0  0  0  0
    3.4030   -6.2974    0.0000 H   0  0  0  0  0  0  0  0  0  0  0  0
    6.5788    2.9250    0.0000 H   0  0  0  0  0  0  0  0  0  0  0  0
    5.5829    6.0082    0.0000 H   0  0  0  0  0  0  0  0  0  0  0  0
    7.6649    4.1270    0.0000 H   0  0  0  0  0  0  0  0  0  0  0  0
    7.1669    5.6686    0.0000 H   0  0  0  0  0  0  0  0  0  0  0  0
    4.2336    6.2974    0.0000 H   0  0  0  0  0  0  0  0  0  0  0  0
  1  5  1  0  0  0  0
  1  6  1  0  0  0  0
  1  7  2  0  0  0  0
  1 13  1  0  0  0  0
  2 18  1  0  0  0  0
  2 19  1  0  0  0  0
 16  3  1  1  0  0  0
  3 39  1  0  0  0  0
 17  4  1  1  0  0  0
  4 40  1  0  0  0  0
  5 20  1  0  0  0  0
  6 44  1  0  0  0  0
  8 32  1  0  0  0  0
  8 51  1  0  0  0  0
  9 32  2  0  0  0  0
 18 10  1  6  0  0  0
 10 21  1  0  0  0  0
 10 22  1  0  0  0  0
 11 22  2  0  0  0  0
 11 23  1  0  0  0  0
 12 21  2  0  0  0  0
 12 25  1  0  0  0  0
 13 26  1  0  0  0  0
 13 42  1  0  0  0  0
 14 24  1  0  0  0  0
 14 25  2  0  0  0  0
 15 24  1  0  0  0  0
 15 45  1  0  0  0  0
 15 46  1  0  0  0  0
 16 17  1  0  0  0  0
 16 18  1  0  0  0  0
 16 33  1  0  0  0  0
 17 19  1  0  0  0  0
 17 34  1  0  0  0  0
 18 35  1  0  0  0  0
 19 20  1  6  0  0  0
 19 36  1  0  0  0  0
 20 37  1  0  0  0  0
 20 38  1  0  0  0  0
 21 23  1  0  0  0  0
 22 41  1  0  0  0  0
 23 24  2  0  0  0  0
 25 43  1  0  0  0  0
 26 27  1  0  0  0  0
 26 28  2  0  0  0  0
 27 29  2  0  0  0  0
 27 32  1  0  0  0  0
 28 30  1  0  0  0  0
 28 47  1  0  0  0  0
 29 31  1  0  0  0  0
 29 48  1  0  0  0  0
 30 31  2  0  0  0  0
 30 49  1  0  0  0  0
 31 50  1  0  0  0  0
M  END
> <PUBCHEM_COMPOUND_CID>
439967

> <PUBCHEM_COMPOUND_CANONICALIZED>
1

> <PUBCHEM_CACTVS_COMPLEXITY>
735

> <PUBCHEM_CACTVS_HBOND_ACCEPTOR>
13

> <PUBCHEM_CACTVS_HBOND_DONOR>
6

> <PUBCHEM_CACTVS_ROTATABLE_BOND>
7

> <PUBCHEM_CACTVS_SUBSKEYS>
AAADceB7vAIAAAAAAAAAAAAAAAAAAWJAAAA8QAAAAAAAAFgB/AAAHgAQiCAADBzhnwY1+L9MFxCoQybzbICCgC01EqAJ2CEofNiLfjrA3dGedYhv0APb2ef4+CKOAAAAAAACAAAAAAAAAAQAAAAAAAAAAA==

> <PUBCHEM_IUPAC_OPENEYE_NAME>
2-[[[(2R,3S,4R,5R)-5-(6-aminopurin-9-yl)-3,4-dihydroxy-tetrahydrofuran-2-yl]methoxy-hydroxy-phosphoryl]amino]benzoic acid

> <PUBCHEM_IUPAC_CAS_NAME>
2-[[[(2R,3S,4R,5R)-5-(6-aminopurin-9-yl)-3,4-dihydroxy-2-oxolanyl]methoxy-hydroxyphosphoryl]amino]benzoic acid

> <PUBCHEM_IUPAC_NAME>
2-[[[(2R,3S,4R,5R)-5-(6-aminopurin-9-yl)-3,4-dihydroxyoxolan-2-yl]methoxy-hydroxyphosphoryl]amino]benzoic acid

> <PUBCHEM_IUPAC_SYSTEMATIC_NAME>
2-[[[(2R,3S,4R,5R)-5-(6-aminopurin-9-yl)-3,4-bis(oxidanyl)oxolan-2-yl]methoxy-oxidanyl-phosphoryl]amino]benzoic acid

> <PUBCHEM_IUPAC_TRADITIONAL_NAME>
2-[[[(2R,3S,4R,5R)-5-adenin-9-yl-3,4-dihydroxy-tetrahydrofuran-2-yl]methoxy-hydroxy-phosphoryl]amino]benzoic acid

> <PUBCHEM_IUPAC_INCHI>
InChI=1S/C17H19N6O8P/c18-14-11-15(20-6-19-14)23(7-21-11)16-13(25)12(24)10(31-16)5-30-32(28,29)22-9-4-2-1-3-8(9)17(26)27/h1-4,6-7,10,12-13,16,24-25H,5H2,(H,26,27)(H2,18,19,20)(H2,22,28,29)/t10-,12-,13-,16-/m1/s1

> <PUBCHEM_IUPAC_INCHIKEY>
VRPRDYILQKJWNN-XNIJJKJLSA-N

> <PUBCHEM_XLOGP3>
-1.1

> <PUBCHEM_EXACT_MASS>
466.100198

> <PUBCHEM_MOLECULAR_FORMULA>
C17H19N6O8P

> <PUBCHEM_MOLECULAR_WEIGHT>
466.341922

> <PUBCHEM_OPENEYE_CAN_SMILES>
C1=CC=C(C(=C1)C(=O)O)NP(=O)(O)OCC2C(C(C(O2)N3C=NC4=C3N=CN=C4N)O)O

> <PUBCHEM_OPENEYE_ISO_SMILES>
C1=CC=C(C(=C1)C(=O)O)NP(=O)(O)OC[C@@H]2[C@H]([C@H]([C@@H](O2)N3C=NC4=C3N=CN=C4N)O)O

> <PUBCHEM_CACTVS_TPSA>
215

> <PUBCHEM_MONOISOTOPIC_WEIGHT>
466.100198

> <PUBCHEM_TOTAL_CHARGE>
0

> <PUBCHEM_HEAVY_ATOM_COUNT>
32

> <PUBCHEM_ATOM_DEF_STEREO_COUNT>
4

> <PUBCHEM_ATOM_UDEF_STEREO_COUNT>
0

> <PUBCHEM_BOND_DEF_STEREO_COUNT>
0

> <PUBCHEM_BOND_UDEF_STEREO_COUNT>
0

> <PUBCHEM_ISOTOPIC_ATOM_COUNT>
0

> <PUBCHEM_COMPONENT_COUNT>
1

> <PUBCHEM_CACTVS_TAUTO_COUNT>
15

> <PUBCHEM_COORDINATE_TYPE>
1
5
255

> <PUBCHEM_BONDANNOTATIONS>
18  10  6
10  21  8
10  22  8
11  22  8
11  23  8
12  21  8
12  25  8
14  24  8
14  25  8
19  20  6
21  23  8
23  24  8
26  27  8
26  28  8
27  29  8
28  30  8
29  31  8
16  3  5
30  31  8
17  4  5

$$$$

