441436
  -OEChem-07051212543D

 30 29  0     1  0  0  0  0  0999 V2000
   -0.0557    0.3381   -1.5792 O   0  0  0  0  0  0  0  0  0  0  0  0
    1.3470   -1.0758    1.4928 O   0  0  0  0  0  0  0  0  0  0  0  0
   -1.2665   -1.9903   -0.5488 O   0  0  0  0  0  0  0  0  0  0  0  0
    3.7156   -0.9582    0.0053 O   0  0  0  0  0  0  0  0  0  0  0  0
   -3.7054   -0.8716    0.1007 O   0  0  0  0  0  0  0  0  0  0  0  0
    4.0342    1.8079   -0.1328 O   0  0  0  0  0  0  0  0  0  0  0  0
   -4.0629    1.8595    0.1940 O   0  0  0  0  0  0  0  0  0  0  0  0
    0.0007    0.0080   -0.1867 C   0  0  0  0  0  0  0  0  0  0  0  0
    1.2902   -0.7892    0.0929 C   0  0  1  0  0  0  0  0  0  0  0  0
   -1.3015   -0.7424    0.1590 C   0  0  1  0  0  0  0  0  0  0  0  0
    2.6116   -0.1144   -0.3233 C   0  0  1  0  0  0  0  0  0  0  0  0
   -2.6031   -0.0053   -0.1972 C   0  0  2  0  0  0  0  0  0  0  0  0
    2.8131    1.2459    0.3380 C   0  0  0  0  0  0  0  0  0  0  0  0
   -2.8174    1.2880    0.5852 C   0  0  0  0  0  0  0  0  0  0  0  0
    0.0235    0.9404    0.3877 H   0  0  0  0  0  0  0  0  0  0  0  0
    1.2464   -1.7562   -0.4231 H   0  0  0  0  0  0  0  0  0  0  0  0
   -1.3087   -0.9969    1.2257 H   0  0  0  0  0  0  0  0  0  0  0  0
    2.6302    0.0079   -1.4128 H   0  0  0  0  0  0  0  0  0  0  0  0
   -2.6632    0.1759   -1.2761 H   0  0  0  0  0  0  0  0  0  0  0  0
    2.0085    1.9434    0.0919 H   0  0  0  0  0  0  0  0  0  0  0  0
    2.8946    1.1489    1.4252 H   0  0  0  0  0  0  0  0  0  0  0  0
   -2.8743    1.0922    1.6605 H   0  0  0  0  0  0  0  0  0  0  0  0
   -2.0290    2.0216    0.3979 H   0  0  0  0  0  0  0  0  0  0  0  0
   -0.6724    1.0825   -1.6812 H   0  0  0  0  0  0  0  0  0  0  0  0
    2.1530   -1.5961    1.6519 H   0  0  0  0  0  0  0  0  0  0  0  0
   -2.0810   -2.4725   -0.3253 H   0  0  0  0  0  0  0  0  0  0  0  0
    4.5268   -0.4976   -0.2693 H   0  0  0  0  0  0  0  0  0  0  0  0
   -4.5208   -0.3997   -0.1407 H   0  0  0  0  0  0  0  0  0  0  0  0
    4.1400    2.6686    0.3073 H   0  0  0  0  0  0  0  0  0  0  0  0
   -4.0072    2.0581   -0.7563 H   0  0  0  0  0  0  0  0  0  0  0  0
  1  8  1  0  0  0  0
  1 24  1  0  0  0  0
  2  9  1  0  0  0  0
  2 25  1  0  0  0  0
  3 10  1  0  0  0  0
  3 26  1  0  0  0  0
  4 11  1  0  0  0  0
  4 27  1  0  0  0  0
  5 12  1  0  0  0  0
  5 28  1  0  0  0  0
  6 13  1  0  0  0  0
  6 29  1  0  0  0  0
  7 14  1  0  0  0  0
  7 30  1  0  0  0  0
  8  9  1  0  0  0  0
  8 10  1  0  0  0  0
  8 15  1  0  0  0  0
  9 11  1  0  0  0  0
  9 16  1  0  0  0  0
 10 12  1  0  0  0  0
 10 17  1  0  0  0  0
 11 13  1  0  0  0  0
 11 18  1  0  0  0  0
 12 14  1  0  0  0  0
 12 19  1  0  0  0  0
 13 20  1  0  0  0  0
 13 21  1  0  0  0  0
 14 22  1  0  0  0  0
 14 23  1  0  0  0  0
M  END
> <PUBCHEM_COMPOUND_CID>
441436

> <PUBCHEM_CONFORMER_RMSD>
0.6

> <PUBCHEM_CONFORMER_DIVERSEORDER>
4
83
75
14
78
8
72
1
42
77
61
13
5
81
58
70
40
22
45
66
47
82
57
6
31
41
32
73
17
39
37
33
38
68
7
9
25
56
26
69
49
2
64
15
65
51
30
21
62
55
79
28
44
19
50
18
74
36
29
34
3
24
46
48
71
63
54
12
53
43
16
52
76
67
60
11
80
27
35
23
10
59
20

> <PUBCHEM_MMFF94_PARTIAL_CHARGES>
21
1 -0.68
10 0.28
11 0.28
12 0.28
13 0.28
14 0.28
2 -0.68
24 0.4
25 0.4
26 0.4
27 0.4
28 0.4
29 0.4
3 -0.68
30 0.4
4 -0.68
5 -0.68
6 -0.68
7 -0.68
8 0.28
9 0.28

> <PUBCHEM_EFFECTIVE_ROTOR_COUNT>
6

> <PUBCHEM_PHARMACOPHORE_FEATURES>
14
1 1 acceptor
1 1 donor
1 2 acceptor
1 2 donor
1 3 acceptor
1 3 donor
1 4 acceptor
1 4 donor
1 5 acceptor
1 5 donor
1 6 acceptor
1 6 donor
1 7 acceptor
1 7 donor

> <PUBCHEM_HEAVY_ATOM_COUNT>
14

> <PUBCHEM_ATOM_DEF_STEREO_COUNT>
4

> <PUBCHEM_ATOM_UDEF_STEREO_COUNT>
0

> <PUBCHEM_BOND_DEF_STEREO_COUNT>
0

> <PUBCHEM_BOND_UDEF_STEREO_COUNT>
0

> <PUBCHEM_ISOTOPIC_ATOM_COUNT>
0

> <PUBCHEM_COMPONENT_COUNT>
1

> <PUBCHEM_CACTVS_TAUTO_COUNT>
1

> <PUBCHEM_CONFORMER_ID>
0006BC5C00000004

> <PUBCHEM_MMFF94_ENERGY>
34.1062

> <PUBCHEM_FEATURE_SELFOVERLAP>
71.085

> <PUBCHEM_SHAPE_FINGERPRINT>
10608611 8 18334576828114026104
10980938 120 18272090508792428368
12138202 97 17312823766772118367
12162725 195 18260829306142002697
12173636 292 18261118421897240303
12346645 44 18341897355267659026
12491281 212 18410003321526489200
12932764 1 17775013422235717342
14144814 61 18412545418216608179
14325111 11 18408602569545764175
15775835 57 18341609364931308793
17834072 32 18265894838412274433
18186145 218 18201720673735119878
19422 9 18413670210016905986
201361 129 18342176704198778050
20279233 1 14764349349235171731
20281407 28 11959724962970174637
20510252 161 18260542308428076483
20711983 171 18114180843275796492
21061003 4 15841832252547216919
22485316 2 10663813066503744313
23402539 116 17968386731067042181
474 4 17916865699517992956

> <PUBCHEM_SHAPE_MULTIPOLES>
247.03
7.09
1.74
0.92
0.06
0.32
0.02
3.05
-0.45
0.25
-0.09
-0.13
-0.09
-0.38

> <PUBCHEM_SHAPE_SELFOVERLAP>
468.143

> <PUBCHEM_SHAPE_VOLUME>
151.8

> <PUBCHEM_COORDINATE_TYPE>
2
5
10

$$$$

