5282340
  -OEChem-07051213043D

 61 64  0     1  0  0  0  0  0999 V2000
    1.7479   -2.5318    1.9474 Cl  0  0  0  0  0  0  0  0  0  0  0  0
   -1.3952   -2.4701   -1.6419 S   0  0  0  0  0  0  0  0  0  0  0  0
   -1.2397    4.4025   -1.2890 F   0  0  0  0  0  0  0  0  0  0  0  0
    5.9919   -0.1560    0.5559 O   0  0  0  0  0  0  0  0  0  0  0  0
   -2.7080   -0.4518   -0.5126 N   0  0  0  0  0  0  0  0  0  0  0  0
   -0.3552   -0.5298   -0.2867 N   0  0  0  0  0  0  0  0  0  0  0  0
   -3.7908   -1.7422    1.9146 C   0  0  0  0  0  0  0  0  0  0  0  0
   -3.2147   -3.1143    1.8086 C   0  0  0  0  0  0  0  0  0  0  0  0
   -3.8250   -2.6494    3.0983 C   0  0  0  0  0  0  0  0  0  0  0  0
   -2.8547   -0.5683    1.9344 C   0  0  0  0  0  0  0  0  0  0  0  0
   -2.9925    0.3172    0.6843 C   0  0  1  0  0  0  0  0  0  0  0  0
   -2.0780    1.5241    0.7358 C   0  0  0  0  0  0  0  0  0  0  0  0
   -3.7945   -0.5994   -1.4805 C   0  0  0  0  0  0  0  0  0  0  0  0
   -1.4675   -1.0299   -0.7357 C   0  0  0  0  0  0  0  0  0  0  0  0
   -2.0830    2.4183   -0.3192 C   0  0  0  0  0  0  0  0  0  0  0  0
   -1.2598    1.7025    1.8365 C   0  0  0  0  0  0  0  0  0  0  0  0
   -1.2410    3.5293   -0.2720 C   0  0  0  0  0  0  0  0  0  0  0  0
   -0.4177    2.8135    1.8837 C   0  0  0  0  0  0  0  0  0  0  0  0
   -0.4082    3.7268    0.8295 C   0  0  0  0  0  0  0  0  0  0  0  0
   -3.4239   -0.0077   -2.7683 C   0  0  0  0  0  0  0  0  0  0  0  0
    0.6748   -1.3563   -0.6907 C   0  0  0  0  0  0  0  0  0  0  0  0
    0.3073   -2.4578   -1.4348 C   0  0  0  0  0  0  0  0  0  0  0  0
    0.4907    4.9156    0.8844 C   0  0  0  0  0  0  0  0  0  0  0  0
    2.0376   -1.0640   -0.3455 C   0  0  0  0  0  0  0  0  0  0  0  0
    1.1267   -3.5372   -2.0256 C   0  0  0  0  0  0  0  0  0  0  0  0
   -3.1239    0.4757   -3.8256 C   0  0  0  0  0  0  0  0  0  0  0  0
    2.7865   -0.2718   -1.2186 C   0  0  0  0  0  0  0  0  0  0  0  0
    2.6237   -1.5466    0.8271 C   0  0  0  0  0  0  0  0  0  0  0  0
    4.1141    0.0361   -0.9212 C   0  0  0  0  0  0  0  0  0  0  0  0
    3.9512   -1.2388    1.1246 C   0  0  0  0  0  0  0  0  0  0  0  0
    4.6964   -0.4475    0.2503 C   0  0  0  0  0  0  0  0  0  0  0  0
    4.8972    0.8845   -1.8680 C   0  0  0  0  0  0  0  0  0  0  0  0
    6.2273    1.0246    1.3203 C   0  0  0  0  0  0  0  0  0  0  0  0
   -4.7435   -1.5313    1.4450 H   0  0  0  0  0  0  0  0  0  0  0  0
   -2.1395   -3.2402    1.7814 H   0  0  0  0  0  0  0  0  0  0  0  0
   -3.7615   -3.8453    1.2254 H   0  0  0  0  0  0  0  0  0  0  0  0
   -3.1574   -2.4506    3.9277 H   0  0  0  0  0  0  0  0  0  0  0  0
   -4.7797   -3.0734    3.3845 H   0  0  0  0  0  0  0  0  0  0  0  0
   -3.1194    0.0178    2.8250 H   0  0  0  0  0  0  0  0  0  0  0  0
   -1.8277   -0.9302    2.0738 H   0  0  0  0  0  0  0  0  0  0  0  0
   -4.0202    0.7057    0.6741 H   0  0  0  0  0  0  0  0  0  0  0  0
   -4.7064   -0.1021   -1.1276 H   0  0  0  0  0  0  0  0  0  0  0  0
   -4.0791   -1.6519   -1.5947 H   0  0  0  0  0  0  0  0  0  0  0  0
   -2.7383    2.2930   -1.1739 H   0  0  0  0  0  0  0  0  0  0  0  0
   -1.2135    1.0368    2.6889 H   0  0  0  0  0  0  0  0  0  0  0  0
    0.2251    2.9559    2.7485 H   0  0  0  0  0  0  0  0  0  0  0  0
   -0.0956    5.8230    1.0608 H   0  0  0  0  0  0  0  0  0  0  0  0
    1.2322    4.8276    1.6858 H   0  0  0  0  0  0  0  0  0  0  0  0
    1.0416    5.0241   -0.0559 H   0  0  0  0  0  0  0  0  0  0  0  0
    1.8757   -3.1201   -2.7070 H   0  0  0  0  0  0  0  0  0  0  0  0
    0.5306   -4.2580   -2.5952 H   0  0  0  0  0  0  0  0  0  0  0  0
    1.6519   -4.0914   -1.2407 H   0  0  0  0  0  0  0  0  0  0  0  0
   -2.8566    0.9047   -4.7628 H   0  0  0  0  0  0  0  0  0  0  0  0
    2.3349    0.1102   -2.1324 H   0  0  0  0  0  0  0  0  0  0  0  0
    4.4145   -1.6117    2.0353 H   0  0  0  0  0  0  0  0  0  0  0  0
    4.9372    1.9169   -1.5075 H   0  0  0  0  0  0  0  0  0  0  0  0
    4.4459    0.8906   -2.8664 H   0  0  0  0  0  0  0  0  0  0  0  0
    5.9178    0.5056   -1.9872 H   0  0  0  0  0  0  0  0  0  0  0  0
    5.8294    1.9080    0.8120 H   0  0  0  0  0  0  0  0  0  0  0  0
    5.7769    0.9305    2.3136 H   0  0  0  0  0  0  0  0  0  0  0  0
    7.3076    1.1465    1.4374 H   0  0  0  0  0  0  0  0  0  0  0  0
  1 28  1  0  0  0  0
  2 14  1  0  0  0  0
  2 22  1  0  0  0  0
  3 17  1  0  0  0  0
  4 31  1  0  0  0  0
  4 33  1  0  0  0  0
  5 11  1  0  0  0  0
  5 13  1  0  0  0  0
  5 14  1  0  0  0  0
  6 14  2  0  0  0  0
  6 21  1  0  0  0  0
  7  8  1  0  0  0  0
  7  9  1  0  0  0  0
  7 10  1  0  0  0  0
  7 34  1  0  0  0  0
  8  9  1  0  0  0  0
  8 35  1  0  0  0  0
  8 36  1  0  0  0  0
  9 37  1  0  0  0  0
  9 38  1  0  0  0  0
 10 11  1  0  0  0  0
 10 39  1  0  0  0  0
 10 40  1  0  0  0  0
 11 12  1  0  0  0  0
 11 41  1  0  0  0  0
 12 15  2  0  0  0  0
 12 16  1  0  0  0  0
 13 20  1  0  0  0  0
 13 42  1  0  0  0  0
 13 43  1  0  0  0  0
 15 17  1  0  0  0  0
 15 44  1  0  0  0  0
 16 18  2  0  0  0  0
 16 45  1  0  0  0  0
 17 19  2  0  0  0  0
 18 19  1  0  0  0  0
 18 46  1  0  0  0  0
 19 23  1  0  0  0  0
 20 26  3  0  0  0  0
 21 22  2  0  0  0  0
 21 24  1  0  0  0  0
 22 25  1  0  0  0  0
 23 47  1  0  0  0  0
 23 48  1  0  0  0  0
 23 49  1  0  0  0  0
 24 27  1  0  0  0  0
 24 28  2  0  0  0  0
 25 50  1  0  0  0  0
 25 51  1  0  0  0  0
 25 52  1  0  0  0  0
 26 53  1  0  0  0  0
 27 29  2  0  0  0  0
 27 54  1  0  0  0  0
 28 30  1  0  0  0  0
 29 31  1  0  0  0  0
 29 32  1  0  0  0  0
 30 31  2  0  0  0  0
 30 55  1  0  0  0  0
 32 56  1  0  0  0  0
 32 57  1  0  0  0  0
 32 58  1  0  0  0  0
 33 59  1  0  0  0  0
 33 60  1  0  0  0  0
 33 61  1  0  0  0  0
M  END
> <PUBCHEM_COMPOUND_CID>
5282340

> <PUBCHEM_CONFORMER_RMSD>
1

> <PUBCHEM_CONFORMER_DIVERSEORDER>
3
118
284
108
175
209
299
57
247
97
59
202
311
237
280
193
70
63
84
253
100
80
269
223
297
250
56
302
104
58
148
204
301
190
162
215
48
264
249
265
234
16
295
35
154
178
64
231
307
205
272
283
15
312
31
161
149
170
160
196
198
126
273
102
266
242
261
129
27
166
229
194
180
46
298
216
73
124
42
53
103
271
44
279
211
134
176
326
185
315
159
270
155
111
116
39
240
86
4
289
173
248
187
219
83
257
60
110
227
182
5
206
136
107
169
153
245
45
140
30
275
158
189
201
93
91
258
47
99
238
55
246
309
11
96
152
23
278
119
146
177
263
88
183
174
325
10
262
323
76
43
142
300
12
313
188
89
251
82
95
255
132
2
171
135
72
115
267
54
286
143
98
52
49
94
260
232
321
165
191
114
61
230
106
139
210
141
87
85
304
181
138
226
252
241
150
38
164
125
281
69
13
291
92
236
144
324
1
294
292
319
222
151
195
277
123
207
203
156
244
218
20
71
322
50
29
254
113
293
186
316
320
121
213
17
147
220
179
306
268
145
208
65
233
33
18
303
168
130
34
296
285
67
117
317
25
37
157
239
127
305
75
225
228
290
14
36
131
24
235
287
256
22
62
40
137
197
163
221
6
21
51
122
259
318
8
68
172
26
282
120
224
192
78
41
184
7
105
212
217
9
288
28
308
274
167
243
74
112
81
66
77
133
314
79
101
214
109
276
200
310
19
199
32
128
90

> <PUBCHEM_MMFF94_PARTIAL_CHARGES>
44
1 -0.18
10 0.09
11 0.51
12 -0.14
13 0.57
14 0.46
15 -0.15
16 -0.15
17 0.19
18 -0.15
19 -0.14
2 -0.08
20 -0.2
21 0.17
22 -0.14
23 0.14
24 0.05
25 0.18
26 -0.18
27 -0.15
28 0.18
29 -0.14
3 -0.19
30 -0.15
31 0.08
32 0.14
33 0.28
34 0.1
35 0.1
36 0.1
37 0.1
38 0.1
4 -0.36
44 0.15
45 0.15
46 0.15
5 -0.82
53 0.18
54 0.15
55 0.15
6 -0.57
7 -0.19
8 -0.2
9 -0.2

> <PUBCHEM_EFFECTIVE_ROTOR_COUNT>
8.6

> <PUBCHEM_PHARMACOPHORE_FEATURES>
6
1 26 hydrophobe
1 4 acceptor
3 5 6 14 cation
5 2 6 14 21 22 rings
6 12 15 16 17 18 19 rings
6 24 27 28 29 30 31 rings

> <PUBCHEM_HEAVY_ATOM_COUNT>
33

> <PUBCHEM_ATOM_DEF_STEREO_COUNT>
1

> <PUBCHEM_ATOM_UDEF_STEREO_COUNT>
0

> <PUBCHEM_BOND_DEF_STEREO_COUNT>
0

> <PUBCHEM_BOND_UDEF_STEREO_COUNT>
0

> <PUBCHEM_ISOTOPIC_ATOM_COUNT>
0

> <PUBCHEM_COMPONENT_COUNT>
1

> <PUBCHEM_CACTVS_TAUTO_COUNT>
1

> <PUBCHEM_CONFORMER_ID>
00509A2400000003

> <PUBCHEM_MMFF94_ENERGY>
106.3316

> <PUBCHEM_FEATURE_SELFOVERLAP>
30.446

> <PUBCHEM_SHAPE_FINGERPRINT>
10032420 55 17916582025201132915
10670039 82 18335688473947476124
11578080 2 17773025364227675589
12156800 1 14420076727997888661
12788726 201 18267596890906443857
133893 2 17900551068933753205
13583140 156 18060427888979477486
13911987 19 18337108969017239062
14787075 74 17841409463367165426
14955137 171 17973410283719924495
19315092 285 16916508026255832106
20600515 1 17986927774931092947
21304303 282 17842295931869457309
22956985 138 17552346675113651019
23419403 2 18127690418893932403
392239 28 18199737077528498106
469060 322 18113624482256037311
5252454 2 17314788722593933154
56638632 33 17556847036462007771
9981440 41 17973176302444132962

> <PUBCHEM_SHAPE_MULTIPOLES>
661.74
9.4
5.15
3.1
14.05
5.87
-0.96
-2.31
1.52
-2.09
1.05
-3.51
-1.41
1.53

> <PUBCHEM_SHAPE_SELFOVERLAP>
1400.127

> <PUBCHEM_SHAPE_VOLUME>
378

> <PUBCHEM_COORDINATE_TYPE>
2
5
10

$$$$

