10775424
  -OEChem-07051213153D

 42 44  0     1  0  0  0  0  0999 V2000
    0.3140    0.8668    1.8819 O   0  0  0  0  0  0  0  0  0  0  0  0
   -0.0910    0.2982    0.6041 C   0  0  1  0  0  0  0  0  0  0  0  0
    0.3606    1.2077   -0.5571 C   0  0  2  0  0  0  0  0  0  0  0  0
    0.7354   -0.9670    0.4904 C   0  0  2  0  0  0  0  0  0  0  0  0
   -1.6033    0.3272    0.5834 C   0  0  1  0  0  0  0  0  0  0  0  0
    2.1395   -0.3922    0.0241 C   0  0  0  0  0  0  0  0  0  0  0  0
    1.8784    1.1275   -0.3649 C   0  0  0  0  0  0  0  0  0  0  0  0
   -0.4920    2.4352   -0.2284 C   0  0  0  0  0  0  0  0  0  0  0  0
   -1.8811    1.7879    0.0986 C   0  0  0  0  0  0  0  0  0  0  0  0
   -2.2100   -0.8077   -0.2607 C   0  0  1  0  0  0  0  0  0  0  0  0
    0.0332   -2.0397   -0.3476 C   0  0  0  0  0  0  0  0  0  0  0  0
   -1.4625   -2.1340   -0.0044 C   0  0  0  0  0  0  0  0  0  0  0  0
    0.0514    0.8627   -2.0329 C   0  0  0  0  0  0  0  0  0  0  0  0
    3.1414   -0.4294    1.2002 C   0  0  0  0  0  0  0  0  0  0  0  0
    2.7882   -1.1756   -1.1267 C   0  0  0  0  0  0  0  0  0  0  0  0
   -3.7019   -0.9676    0.0401 C   0  0  0  0  0  0  0  0  0  0  0  0
    0.8579   -1.4074    1.4909 H   0  0  0  0  0  0  0  0  0  0  0  0
   -1.9884    0.2357    1.6087 H   0  0  0  0  0  0  0  0  0  0  0  0
    2.4286    1.4029   -1.2724 H   0  0  0  0  0  0  0  0  0  0  0  0
    2.2316    1.8136    0.4129 H   0  0  0  0  0  0  0  0  0  0  0  0
   -0.5771    3.1432   -1.0601 H   0  0  0  0  0  0  0  0  0  0  0  0
   -0.1223    3.0075    0.6285 H   0  0  0  0  0  0  0  0  0  0  0  0
   -2.3850    2.3698    0.8782 H   0  0  0  0  0  0  0  0  0  0  0  0
   -2.5296    1.7966   -0.7841 H   0  0  0  0  0  0  0  0  0  0  0  0
   -2.1284   -0.5822   -1.3273 H   0  0  0  0  0  0  0  0  0  0  0  0
    0.5068   -3.0099   -0.1539 H   0  0  0  0  0  0  0  0  0  0  0  0
    0.1304   -1.8731   -1.4208 H   0  0  0  0  0  0  0  0  0  0  0  0
   -1.9117   -2.9310   -0.6095 H   0  0  0  0  0  0  0  0  0  0  0  0
   -1.5769   -2.4314    1.0458 H   0  0  0  0  0  0  0  0  0  0  0  0
    0.4208   -0.1065   -2.3534 H   0  0  0  0  0  0  0  0  0  0  0  0
   -1.0123    0.9016   -2.2780 H   0  0  0  0  0  0  0  0  0  0  0  0
    0.5291    1.6038   -2.6873 H   0  0  0  0  0  0  0  0  0  0  0  0
    3.3392   -1.4611    1.5127 H   0  0  0  0  0  0  0  0  0  0  0  0
    4.0976    0.0247    0.9165 H   0  0  0  0  0  0  0  0  0  0  0  0
    2.7693    0.1133    2.0748 H   0  0  0  0  0  0  0  0  0  0  0  0
    2.9341   -2.2263   -0.8517 H   0  0  0  0  0  0  0  0  0  0  0  0
    2.2011   -1.1525   -2.0460 H   0  0  0  0  0  0  0  0  0  0  0  0
    3.7726   -0.7607   -1.3733 H   0  0  0  0  0  0  0  0  0  0  0  0
    0.8199    1.6840    1.7709 H   0  0  0  0  0  0  0  0  0  0  0  0
   -4.2448   -0.0395   -0.1659 H   0  0  0  0  0  0  0  0  0  0  0  0
   -4.1396   -1.7554   -0.5821 H   0  0  0  0  0  0  0  0  0  0  0  0
   -3.8710   -1.2349    1.0889 H   0  0  0  0  0  0  0  0  0  0  0  0
  1  2  1  0  0  0  0
  1 39  1  0  0  0  0
  2  3  1  0  0  0  0
  2  4  1  0  0  0  0
  2  5  1  0  0  0  0
  3  7  1  0  0  0  0
  3  8  1  0  0  0  0
  3 13  1  0  0  0  0
  4  6  1  0  0  0  0
  4 11  1  0  0  0  0
  4 17  1  0  0  0  0
  5  9  1  0  0  0  0
  5 10  1  0  0  0  0
  5 18  1  0  0  0  0
  6  7  1  0  0  0  0
  6 14  1  0  0  0  0
  6 15  1  0  0  0  0
  7 19  1  0  0  0  0
  7 20  1  0  0  0  0
  8  9  1  0  0  0  0
  8 21  1  0  0  0  0
  8 22  1  0  0  0  0
  9 23  1  0  0  0  0
  9 24  1  0  0  0  0
 10 12  1  0  0  0  0
 10 16  1  0  0  0  0
 10 25  1  0  0  0  0
 11 12  1  0  0  0  0
 11 26  1  0  0  0  0
 11 27  1  0  0  0  0
 12 28  1  0  0  0  0
 12 29  1  0  0  0  0
 13 30  1  0  0  0  0
 13 31  1  0  0  0  0
 13 32  1  0  0  0  0
 14 33  1  0  0  0  0
 14 34  1  0  0  0  0
 14 35  1  0  0  0  0
 15 36  1  0  0  0  0
 15 37  1  0  0  0  0
 15 38  1  0  0  0  0
 16 40  1  0  0  0  0
 16 41  1  0  0  0  0
 16 42  1  0  0  0  0
M  END
> <PUBCHEM_COMPOUND_CID>
10775424

> <PUBCHEM_CONFORMER_RMSD>
0.6

> <PUBCHEM_CONFORMER_DIVERSEORDER>
1

> <PUBCHEM_MMFF94_PARTIAL_CHARGES>
3
1 -0.68
2 0.28
39 0.4

> <PUBCHEM_EFFECTIVE_ROTOR_COUNT>
1.4

> <PUBCHEM_PHARMACOPHORE_FEATURES>
6
1 1 acceptor
1 1 donor
3 6 14 15 hydrophobe
5 2 3 4 6 7 rings
5 2 3 5 8 9 rings
6 2 4 5 10 11 12 rings

> <PUBCHEM_HEAVY_ATOM_COUNT>
16

> <PUBCHEM_ATOM_DEF_STEREO_COUNT>
5

> <PUBCHEM_ATOM_UDEF_STEREO_COUNT>
0

> <PUBCHEM_BOND_DEF_STEREO_COUNT>
0

> <PUBCHEM_BOND_UDEF_STEREO_COUNT>
0

> <PUBCHEM_ISOTOPIC_ATOM_COUNT>
0

> <PUBCHEM_COMPONENT_COUNT>
1

> <PUBCHEM_CACTVS_TAUTO_COUNT>
1

> <PUBCHEM_CONFORMER_ID>
00A46B8000000001

> <PUBCHEM_MMFF94_ENERGY>
95.8012

> <PUBCHEM_FEATURE_SELFOVERLAP>
30.878

> <PUBCHEM_SHAPE_FINGERPRINT>
10353120 184 18343861104462548911
10863032 1 17895472660383748254
10967382 1 18266737970171426847
12423570 1 14671981953996965357
12725867 57 18190185577005017629
13024252 1 14764058047183383456
13132413 78 17904202524989445277
13140716 1 18267022743736249539
13172582 1 18342455941302361491
14181834 199 17983867678708274159
144361 1 17265502096108664188
14614273 12 18056774336262073527
14817 1 14530064118497602437
15001771 113 18266441131949057399
15219459 52 18269827627857650543
15852999 172 17192958500645934052
15881359 60 18266204809963705382
16945 1 18340203102090688242
193761 8 17834395996695086051
20511035 2 17755585940826091751
22344851 262 17913186922362999661
22344851 341 18050290559217072291
22802520 49 18043808916622552254
2334 1 18411978022993459293
23402539 116 18336001790883498807
23419403 2 17764637214945651060
23559900 14 17900255614440654326
241688 4 18411697664607681265
2748010 2 18410859862670269253
5084963 1 18114451374949981014
528886 8 18269274740970379617
53812654 25 18338522932385781258
7364860 26 17831577578909662857
81228 2 18411132571470912577

> <PUBCHEM_SHAPE_MULTIPOLES>
323.4
4.02
2.28
1.31
0.32
0.23
0.13
-1.58
-0.26
0.76
0.3
-0.57
0.25
-0.03

> <PUBCHEM_SHAPE_SELFOVERLAP>
687.188

> <PUBCHEM_SHAPE_VOLUME>
185.8

> <PUBCHEM_COORDINATE_TYPE>
2
5
10

$$$$

