159079
  -OEChem-07051213062D

 42 42  0     1  0  0  0  0  0999 V2000
    3.7320   -2.4720    0.0000 S   0  3  0  0  0  0  0  0  0  0  0  0
    5.4641    0.5280    0.0000 O   0  0  0  0  0  0  0  0  0  0  0  0
    6.3301    0.0280    0.0000 O   0  0  0  0  0  0  0  0  0  0  0  0
   10.6603   -1.4720    0.0000 O   0  0  0  0  0  0  0  0  0  0  0  0
    9.7942    0.0280    0.0000 O   0  0  0  0  0  0  0  0  0  0  0  0
    2.8660    3.0280    0.0000 O   0  0  0  0  0  0  0  0  0  0  0  0
    2.0000    1.5280    0.0000 O   0  0  0  0  0  0  0  0  0  0  0  0
    5.4641   -1.4720    0.0000 N   0  0  0  0  0  0  0  0  0  0  0  0
    3.7320    0.5280    0.0000 N   0  0  0  0  0  0  0  0  0  0  0  0
    8.9282   -2.4720    0.0000 N   0  0  0  0  0  0  0  0  0  0  0  0
    3.2320   -3.3380    0.0000 C   0  0  0  0  0  0  0  0  0  0  0  0
    4.2320   -3.3380    0.0000 C   0  0  0  0  0  0  0  0  0  0  0  0
    3.7320   -1.4720    0.0000 C   0  0  0  0  0  0  0  0  0  0  0  0
    4.5981   -0.9720    0.0000 C   0  0  1  0  0  0  0  0  0  0  0  0
    4.5981    0.0280    0.0000 C   0  0  0  0  0  0  0  0  0  0  0  0
    6.3301   -0.9720    0.0000 C   0  0  0  0  0  0  0  0  0  0  0  0
    7.1962   -1.4720    0.0000 C   0  0  0  0  0  0  0  0  0  0  0  0
    8.0622   -0.9720    0.0000 C   0  0  0  0  0  0  0  0  0  0  0  0
    8.9282   -1.4720    0.0000 C   0  0  1  0  0  0  0  0  0  0  0  0
    3.7320    1.5280    0.0000 C   0  0  0  0  0  0  0  0  0  0  0  0
    9.7942   -0.9720    0.0000 C   0  0  0  0  0  0  0  0  0  0  0  0
    2.8660    2.0280    0.0000 C   0  0  0  0  0  0  0  0  0  0  0  0
    2.6494   -3.1260    0.0000 H   0  0  0  0  0  0  0  0  0  0  0  0
    3.1244   -3.9486    0.0000 H   0  0  0  0  0  0  0  0  0  0  0  0
    4.3397   -3.9486    0.0000 H   0  0  0  0  0  0  0  0  0  0  0  0
    4.8147   -3.1260    0.0000 H   0  0  0  0  0  0  0  0  0  0  0  0
    3.5200   -0.8894    0.0000 H   0  0  0  0  0  0  0  0  0  0  0  0
    3.1215   -1.5796    0.0000 H   0  0  0  0  0  0  0  0  0  0  0  0
    4.5981   -1.5920    0.0000 H   0  0  0  0  0  0  0  0  0  0  0  0
    5.4641   -2.0920    0.0000 H   0  0  0  0  0  0  0  0  0  0  0  0
    6.7976   -1.9469    0.0000 H   0  0  0  0  0  0  0  0  0  0  0  0
    7.5947   -1.9469    0.0000 H   0  0  0  0  0  0  0  0  0  0  0  0
    8.4607   -0.4970    0.0000 H   0  0  0  0  0  0  0  0  0  0  0  0
    7.6636   -0.4970    0.0000 H   0  0  0  0  0  0  0  0  0  0  0  0
    3.1951    0.2180    0.0000 H   0  0  0  0  0  0  0  0  0  0  0  0
    9.4651   -1.7820    0.0000 H   0  0  0  0  0  0  0  0  0  0  0  0
    4.3426    1.4204    0.0000 H   0  0  0  0  0  0  0  0  0  0  0  0
    3.9441    2.1106    0.0000 H   0  0  0  0  0  0  0  0  0  0  0  0
    9.4651   -2.7820    0.0000 H   0  0  0  0  0  0  0  0  0  0  0  0
    8.3913   -2.7820    0.0000 H   0  0  0  0  0  0  0  0  0  0  0  0
   11.1972   -1.1620    0.0000 H   0  0  0  0  0  0  0  0  0  0  0  0
    2.3291    3.3380    0.0000 H   0  0  0  0  0  0  0  0  0  0  0  0
  1 11  1  0  0  0  0
  1 12  1  0  0  0  0
  1 13  1  0  0  0  0
  2 15  2  0  0  0  0
  3 16  2  0  0  0  0
  4 21  1  0  0  0  0
  4 41  1  0  0  0  0
  5 21  2  0  0  0  0
  6 22  1  0  0  0  0
  6 42  1  0  0  0  0
  7 22  2  0  0  0  0
 14  8  1  1  0  0  0
  8 16  1  0  0  0  0
  8 30  1  0  0  0  0
  9 15  1  0  0  0  0
  9 20  1  0  0  0  0
  9 35  1  0  0  0  0
 19 10  1  1  0  0  0
 10 39  1  0  0  0  0
 10 40  1  0  0  0  0
 11 12  1  0  0  0  0
 11 23  1  0  0  0  0
 11 24  1  0  0  0  0
 12 25  1  0  0  0  0
 12 26  1  0  0  0  0
 13 14  1  0  0  0  0
 13 27  1  0  0  0  0
 13 28  1  0  0  0  0
 14 15  1  0  0  0  0
 14 29  1  0  0  0  0
 16 17  1  0  0  0  0
 17 18  1  0  0  0  0
 17 31  1  0  0  0  0
 17 32  1  0  0  0  0
 18 19  1  0  0  0  0
 18 33  1  0  0  0  0
 18 34  1  0  0  0  0
 19 21  1  0  0  0  0
 19 36  1  0  0  0  0
 20 22  1  0  0  0  0
 20 37  1  0  0  0  0
 20 38  1  0  0  0  0
M  CHG  1   1   1
M  END
> <PUBCHEM_COMPOUND_CID>
159079

> <PUBCHEM_COMPOUND_CANONICALIZED>
1

> <PUBCHEM_CACTVS_COMPLEXITY>
454

> <PUBCHEM_CACTVS_HBOND_ACCEPTOR>
7

> <PUBCHEM_CACTVS_HBOND_DONOR>
5

> <PUBCHEM_CACTVS_ROTATABLE_BOND>
10

> <PUBCHEM_CACTVS_SUBSKEYS>
AAADceBzOABAAAAAAAAAAAAAEgAAAAAAAAAAAAAAAAAAAAAAAAAAHgQQCAAACCjFwASACALAAggIAAGQGAAAAAAAABAAAIGIAAACQBIggCAUQAAEFgCwAACcFwIAAAAAAAAAAAAAAAAAAAAAAAAAAAAAAA==

> <PUBCHEM_IUPAC_OPENEYE_NAME>
(2S)-2-amino-5-[[(1R)-2-(carboxymethylamino)-2-oxo-1-(thiiran-1-ium-1-ylmethyl)ethyl]amino]-5-oxo-pentanoic acid

> <PUBCHEM_IUPAC_CAS_NAME>
(2S)-2-amino-5-[[(2R)-1-(carboxymethylamino)-1-oxo-3-(1-thiiran-1-iumyl)propan-2-yl]amino]-5-oxopentanoic acid

> <PUBCHEM_IUPAC_NAME>
(2S)-2-amino-5-[[(2R)-1-(carboxymethylamino)-1-oxo-3-(thiiran-1-ium-1-yl)propan-2-yl]amino]-5-oxopentanoic acid

> <PUBCHEM_IUPAC_SYSTEMATIC_NAME>
(2S)-2-azanyl-5-[[(2R)-1-(2-hydroxy-2-oxoethylamino)-1-oxidanylidene-3-(thiiran-1-ium-1-yl)propan-2-yl]amino]-5-oxidanylidene-pentanoic acid

> <PUBCHEM_IUPAC_TRADITIONAL_NAME>
(2S)-2-amino-5-[[(1R)-2-(carboxymethylamino)-2-keto-1-(thiiran-1-ium-1-ylmethyl)ethyl]amino]-5-keto-valeric acid

> <PUBCHEM_IUPAC_INCHI>
InChI=1S/C12H19N3O6S/c13-7(12(20)21)1-2-9(16)15-8(6-22-3-4-22)11(19)14-5-10(17)18/h7-8H,1-6,13H2,(H3-,14,15,16,17,18,19,20,21)/p+1/t7-,8-/m0/s1

> <PUBCHEM_IUPAC_INCHIKEY>
PWVNIRRYQGQWMG-YUMQZZPRSA-O

> <PUBCHEM_XLOGP3_AA>
-4.3

> <PUBCHEM_EXACT_MASS>
334.107281

> <PUBCHEM_MOLECULAR_FORMULA>
C12H20N3O6S+

> <PUBCHEM_MOLECULAR_WEIGHT>
334.3687

> <PUBCHEM_OPENEYE_CAN_SMILES>
C1C[S+]1CC(C(=O)NCC(=O)O)NC(=O)CCC(C(=O)O)N

> <PUBCHEM_OPENEYE_ISO_SMILES>
C1C[S+]1C[C@@H](C(=O)NCC(=O)O)NC(=O)CC[C@@H](C(=O)O)N

> <PUBCHEM_CACTVS_TPSA>
160

> <PUBCHEM_MONOISOTOPIC_WEIGHT>
334.107281

> <PUBCHEM_TOTAL_CHARGE>
1

> <PUBCHEM_HEAVY_ATOM_COUNT>
22

> <PUBCHEM_ATOM_DEF_STEREO_COUNT>
2

> <PUBCHEM_ATOM_UDEF_STEREO_COUNT>
0

> <PUBCHEM_BOND_DEF_STEREO_COUNT>
0

> <PUBCHEM_BOND_UDEF_STEREO_COUNT>
0

> <PUBCHEM_ISOTOPIC_ATOM_COUNT>
0

> <PUBCHEM_COMPONENT_COUNT>
1

> <PUBCHEM_CACTVS_TAUTO_COUNT>
4

> <PUBCHEM_COORDINATE_TYPE>
1
5
255

> <PUBCHEM_BONDANNOTATIONS>
19  10  5
14  8  5

$$$$

