3787
  -OEChem-06251223413D

 29 29  0     1  0  0  0  0  0999 V2000
   -2.8719   -0.6156   -1.3250 O   0  0  0  0  0  0  0  0  0  0  0  0
   -4.1431   -1.8150    0.7307 O   0  0  0  0  0  0  0  0  0  0  0  0
   -3.3798   -0.6561    0.9254 N   0  0  0  0  0  0  0  0  0  0  0  0
   -0.5079    1.0090   -0.2488 C   0  0  0  0  0  0  0  0  0  0  0  0
   -1.9996    1.1438    0.1005 C   0  0  1  0  0  0  0  0  0  0  0  0
    0.1913   -0.0648    0.5942 C   0  0  0  0  0  0  0  0  0  0  0  0
    1.6673   -0.1316    0.2937 C   0  0  0  0  0  0  0  0  0  0  0  0
   -2.6264    2.2928   -0.6924 C   0  0  0  0  0  0  0  0  0  0  0  0
   -2.7796   -0.1366   -0.1968 C   0  0  0  0  0  0  0  0  0  0  0  0
    2.1213   -0.9789   -0.7058 C   0  0  0  0  0  0  0  0  0  0  0  0
    2.5469    0.6552    1.0221 C   0  0  0  0  0  0  0  0  0  0  0  0
    3.4868   -1.0408   -0.9835 C   0  0  0  0  0  0  0  0  0  0  0  0
    3.9124    0.5933    0.7443 C   0  0  0  0  0  0  0  0  0  0  0  0
    4.3824   -0.2546   -0.2586 C   0  0  0  0  0  0  0  0  0  0  0  0
   -0.3942    0.7669   -1.3139 H   0  0  0  0  0  0  0  0  0  0  0  0
   -0.0129    1.9766   -0.0937 H   0  0  0  0  0  0  0  0  0  0  0  0
   -2.0868    1.3882    1.1668 H   0  0  0  0  0  0  0  0  0  0  0  0
   -0.2581   -1.0496    0.4159 H   0  0  0  0  0  0  0  0  0  0  0  0
    0.0444    0.1412    1.6623 H   0  0  0  0  0  0  0  0  0  0  0  0
   -2.1371    3.2430   -0.4548 H   0  0  0  0  0  0  0  0  0  0  0  0
   -3.6915    2.3917   -0.4556 H   0  0  0  0  0  0  0  0  0  0  0  0
   -2.5426    2.1271   -1.7722 H   0  0  0  0  0  0  0  0  0  0  0  0
    1.4316   -1.5934   -1.2772 H   0  0  0  0  0  0  0  0  0  0  0  0
    2.1904    1.3202    1.8036 H   0  0  0  0  0  0  0  0  0  0  0  0
    3.8528   -1.7006   -1.7648 H   0  0  0  0  0  0  0  0  0  0  0  0
    4.6097    1.2058    1.3084 H   0  0  0  0  0  0  0  0  0  0  0  0
   -3.2294   -0.3613    1.8833 H   0  0  0  0  0  0  0  0  0  0  0  0
    5.4456   -0.3025   -0.4750 H   0  0  0  0  0  0  0  0  0  0  0  0
   -5.0278   -1.4237    0.6329 H   0  0  0  0  0  0  0  0  0  0  0  0
  1  9  2  0  0  0  0
  2  3  1  0  0  0  0
  2 29  1  0  0  0  0
  3  9  1  0  0  0  0
  3 27  1  0  0  0  0
  4  5  1  0  0  0  0
  4  6  1  0  0  0  0
  4 15  1  0  0  0  0
  4 16  1  0  0  0  0
  5  8  1  0  0  0  0
  5  9  1  0  0  0  0
  5 17  1  0  0  0  0
  6  7  1  0  0  0  0
  6 18  1  0  0  0  0
  6 19  1  0  0  0  0
  7 10  2  0  0  0  0
  7 11  1  0  0  0  0
  8 20  1  0  0  0  0
  8 21  1  0  0  0  0
  8 22  1  0  0  0  0
 10 12  1  0  0  0  0
 10 23  1  0  0  0  0
 11 13  2  0  0  0  0
 11 24  1  0  0  0  0
 12 14  2  0  0  0  0
 12 25  1  0  0  0  0
 13 14  1  0  0  0  0
 13 26  1  0  0  0  0
 14 28  1  0  0  0  0
M  END
> <PUBCHEM_COMPOUND_CID>
3787

> <PUBCHEM_CONFORMER_RMSD>
0.6

> <PUBCHEM_CONFORMER_DIVERSEORDER>
1
22
15
19
12
30
28
26
14
18
3
6
2
35
16
23
5
27
24
33
11
20
34
17
9
29
7
21
31
13
10
25
32
4
8

> <PUBCHEM_MMFF94_PARTIAL_CHARGES>
19
1 -0.57
10 -0.15
11 -0.15
12 -0.15
13 -0.15
14 -0.15
2 -0.44
23 0.15
24 0.15
25 0.15
26 0.15
27 0.37
28 0.15
29 0.4
3 -0.39
5 0.06
6 0.14
7 -0.14
9 0.57

> <PUBCHEM_EFFECTIVE_ROTOR_COUNT>
5

> <PUBCHEM_PHARMACOPHORE_FEATURES>
4
1 1 acceptor
1 3 donor
1 8 hydrophobe
6 7 10 11 12 13 14 rings

> <PUBCHEM_HEAVY_ATOM_COUNT>
14

> <PUBCHEM_ATOM_DEF_STEREO_COUNT>
0

> <PUBCHEM_ATOM_UDEF_STEREO_COUNT>
1

> <PUBCHEM_BOND_DEF_STEREO_COUNT>
0

> <PUBCHEM_BOND_UDEF_STEREO_COUNT>
0

> <PUBCHEM_ISOTOPIC_ATOM_COUNT>
0

> <PUBCHEM_COMPONENT_COUNT>
1

> <PUBCHEM_CACTVS_TAUTO_COUNT>
3

> <PUBCHEM_CONFORMER_ID>
00000ECB00000001

> <PUBCHEM_MMFF94_ENERGY>
30.5254

> <PUBCHEM_FEATURE_SELFOVERLAP>
20.297

> <PUBCHEM_SHAPE_FINGERPRINT>
10608611 8 18260838128384974720
10680689 15 18259988184120862220
11405975 8 18263645241657654432
11615757 297 16877949329979484280
12032990 46 18335698351749660136
12500047 106 18197503037141012509
12932764 1 18187089480936035534
13296908 3 18187368765500647700
13705890 14 18187364368018366152
14144814 61 12895068552721522036
15219456 202 18114466742380006284
17834074 16 18187082875360899358
17844478 74 18259984885543839296
18186145 218 17167865270642087276
19026448 4 18334859458811401276
19107657 162 18410855460276069235
19422 9 15936415511328343212
1986462 14 18342455984352261076
200 152 16878239614187476165
20279233 1 18115034103027489916
20645477 56 18198904897555914277
20645477 70 17459476726384525198
21061003 4 17749392542298339425
21079973 296 18270678666921484427
221490 88 18260543476743875702
22943178 12 18334580195568729276
23402539 116 18059295469855208764
23402655 69 17968379052177446988
23557571 272 18338800121064726260
23559900 14 18267025145081500710
2871803 45 18335994111751057511
3248919 1 16486967444712685208
3268164 11 18131639992929654877
5104073 3 18261958548092454778
6049 1 18333453157327086160
633830 44 15697139907182803600

> <PUBCHEM_SHAPE_MULTIPOLES>
271.39
8.61
1.61
1.08
0.77
0.29
-0.04
-1.81
0.15
-1.67
-0.16
-0.08
-0.11
1.34

> <PUBCHEM_SHAPE_SELFOVERLAP>
547.564

> <PUBCHEM_SHAPE_VOLUME>
158.9

> <PUBCHEM_COORDINATE_TYPE>
2
5
10

$$$$

