13219
  -OEChem-06261207542D

 13 13  0     0  0  0  0  0  0999 V2000
    4.5032   -0.4197    0.0000 O   0  0  0  0  0  0  0  0  0  0  0  0
    7.0064    0.5282    0.0000 O   0  5  0  0  0  0  0  0  0  0  0  0
    2.0000    0.5282    0.0000 O   0  5  0  0  0  0  0  0  0  0  0  0
    6.4712   -1.1191    0.0000 O   0  0  0  0  0  0  0  0  0  0  0  0
    2.5352   -1.1191    0.0000 O   0  0  0  0  0  0  0  0  0  0  0  0
    6.2633   -0.1410    0.0000 N   0  3  0  0  0  0  0  0  0  0  0  0
    2.7431   -0.1410    0.0000 N   0  3  0  0  0  0  0  0  0  0  0  0
    5.3122    0.1681    0.0000 C   0  0  0  0  0  0  0  0  0  0  0  0
    3.6942    0.1681    0.0000 C   0  0  0  0  0  0  0  0  0  0  0  0
    5.0032    1.1191    0.0000 C   0  0  0  0  0  0  0  0  0  0  0  0
    4.0032    1.1191    0.0000 C   0  0  0  0  0  0  0  0  0  0  0  0
    5.3676    1.6207    0.0000 H   0  0  0  0  0  0  0  0  0  0  0  0
    3.6388    1.6207    0.0000 H   0  0  0  0  0  0  0  0  0  0  0  0
  1  8  1  0  0  0  0
  1  9  1  0  0  0  0
  2  6  1  0  0  0  0
  3  7  1  0  0  0  0
  4  6  2  0  0  0  0
  5  7  2  0  0  0  0
  6  8  1  0  0  0  0
  7  9  1  0  0  0  0
  8 10  2  0  0  0  0
  9 11  2  0  0  0  0
 10 11  1  0  0  0  0
 10 12  1  0  0  0  0
 11 13  1  0  0  0  0
M  CHG  4   2  -1   3  -1   6   1   7   1
M  END
> <PUBCHEM_COMPOUND_CID>
13219

> <PUBCHEM_COMPOUND_CANONICALIZED>
1

> <PUBCHEM_CACTVS_COMPLEXITY>
162

> <PUBCHEM_CACTVS_HBOND_ACCEPTOR>
5

> <PUBCHEM_CACTVS_HBOND_DONOR>
0

> <PUBCHEM_CACTVS_ROTATABLE_BOND>
0

> <PUBCHEM_CACTVS_SUBSKEYS>
AAADcQBjOAAAAAAAAAAAAAAAAAAAASAAAAAAAAAAAAAAAAABgAAAHgAEAAAACACBkAAwhIAQRECJACFSUwCCCAAsIgAoiAEGbMoMJhAEpIsKGSDEQBEAYYAkAAAAAAAAAAAAAAAAAAAAAAAAAAAAAAAAAA==

> <PUBCHEM_IUPAC_OPENEYE_NAME>
2,5-dinitrofuran

> <PUBCHEM_IUPAC_CAS_NAME>
2,5-dinitrofuran

> <PUBCHEM_IUPAC_NAME>
2,5-dinitrofuran

> <PUBCHEM_IUPAC_SYSTEMATIC_NAME>
2,5-dinitrofuran

> <PUBCHEM_IUPAC_TRADITIONAL_NAME>
2,5-dinitrofuran

> <PUBCHEM_IUPAC_INCHI>
InChI=1S/C4H2N2O5/c7-5(8)3-1-2-4(11-3)6(9)10/h1-2H

> <PUBCHEM_IUPAC_INCHIKEY>
CGBSSZNFPUJLNZ-UHFFFAOYSA-N

> <PUBCHEM_XLOGP3_AA>
1.3

> <PUBCHEM_EXACT_MASS>
157.996371

> <PUBCHEM_MOLECULAR_FORMULA>
C4H2N2O5

> <PUBCHEM_MOLECULAR_WEIGHT>
158.06908

> <PUBCHEM_OPENEYE_CAN_SMILES>
C1=C(OC(=C1)[N+](=O)[O-])[N+](=O)[O-]

> <PUBCHEM_OPENEYE_ISO_SMILES>
C1=C(OC(=C1)[N+](=O)[O-])[N+](=O)[O-]

> <PUBCHEM_CACTVS_TPSA>
105

> <PUBCHEM_MONOISOTOPIC_WEIGHT>
157.996371

> <PUBCHEM_TOTAL_CHARGE>
0

> <PUBCHEM_HEAVY_ATOM_COUNT>
11

> <PUBCHEM_ATOM_DEF_STEREO_COUNT>
0

> <PUBCHEM_ATOM_UDEF_STEREO_COUNT>
0

> <PUBCHEM_BOND_DEF_STEREO_COUNT>
0

> <PUBCHEM_BOND_UDEF_STEREO_COUNT>
0

> <PUBCHEM_ISOTOPIC_ATOM_COUNT>
0

> <PUBCHEM_COMPONENT_COUNT>
1

> <PUBCHEM_CACTVS_TAUTO_COUNT>
1

> <PUBCHEM_COORDINATE_TYPE>
1
5
255

> <PUBCHEM_BONDANNOTATIONS>
1  8  8
1  9  8
10  11  8
8  10  8
9  11  8

$$$$

