9936860
  -OEChem-07051212552D

 68 67  0     1  0  0  0  0  0999 V2000
   17.2594    2.4535    0.0000 S   0  0  0  0  0  0  0  0  0  0  0  0
   15.5273    2.4535    0.0000 P   0  0  3  0  0  0  0  0  0  0  0  0
   10.3312    3.4535    0.0000 O   0  0  0  0  0  0  0  0  0  0  0  0
    7.7331    0.9535    0.0000 O   0  0  0  0  0  0  0  0  0  0  0  0
    4.2690    1.9535    0.0000 O   0  0  0  0  0  0  0  0  0  0  0  0
   16.0273    1.5875    0.0000 O   0  0  0  0  0  0  0  0  0  0  0  0
    5.1350    3.4535    0.0000 O   0  0  0  0  0  0  0  0  0  0  0  0
   18.1254    1.9535    0.0000 O   0  0  0  0  0  0  0  0  0  0  0  0
   17.7594    3.3195    0.0000 O   0  0  0  0  0  0  0  0  0  0  0  0
   16.7594    1.5875    0.0000 O   0  0  0  0  0  0  0  0  0  0  0  0
    6.8671    2.4535    0.0000 N   0  0  0  0  0  0  0  0  0  0  0  0
    9.4651    1.9535    0.0000 N   0  0  0  0  0  0  0  0  0  0  0  0
   14.6613    1.9535    0.0000 N   0  0  0  0  0  0  0  0  0  0  0  0
   11.1972    0.9535    0.0000 N   0  0  0  0  0  0  0  0  0  0  0  0
   16.3933    2.9535    0.0000 N   0  0  0  0  0  0  0  0  0  0  0  0
   15.0273    3.3195    0.0000 N   0  0  0  0  0  0  0  0  0  0  0  0
    4.2690   -2.0465    0.0000 N   0  0  0  0  0  0  0  0  0  0  0  0
    3.4030   -3.5465    0.0000 N   0  0  0  0  0  0  0  0  0  0  0  0
    2.5369   -2.0465    0.0000 N   0  0  0  0  0  0  0  0  0  0  0  0
   12.0632    2.4535    0.0000 C   0  0  0  0  0  0  0  0  0  0  0  0
   11.1972    1.9535    0.0000 C   0  0  1  0  0  0  0  0  0  0  0  0
   12.9292    1.9535    0.0000 C   0  0  0  0  0  0  0  0  0  0  0  0
    6.0010    0.9535    0.0000 C   0  0  0  0  0  0  0  0  0  0  0  0
    6.0010    1.9535    0.0000 C   0  0  1  0  0  0  0  0  0  0  0  0
    5.1350    0.4535    0.0000 C   0  0  0  0  0  0  0  0  0  0  0  0
    8.5991    2.4535    0.0000 C   0  0  2  0  0  0  0  0  0  0  0  0
   13.7953    2.4535    0.0000 C   0  0  0  0  0  0  0  0  0  0  0  0
   10.3312    2.4535    0.0000 C   0  0  0  0  0  0  0  0  0  0  0  0
    5.1350   -0.5465    0.0000 C   0  0  0  0  0  0  0  0  0  0  0  0
    7.7331    1.9535    0.0000 C   0  0  0  0  0  0  0  0  0  0  0  0
    8.5991    3.4535    0.0000 C   0  0  0  0  0  0  0  0  0  0  0  0
    5.1350    2.4535    0.0000 C   0  0  0  0  0  0  0  0  0  0  0  0
    4.2690   -1.0465    0.0000 C   0  0  0  0  0  0  0  0  0  0  0  0
    3.4030   -2.5465    0.0000 C   0  0  0  0  0  0  0  0  0  0  0  0
   12.4617    2.9285    0.0000 H   0  0  0  0  0  0  0  0  0  0  0  0
   11.6647    2.9285    0.0000 H   0  0  0  0  0  0  0  0  0  0  0  0
   10.6603    1.6435    0.0000 H   0  0  0  0  0  0  0  0  0  0  0  0
   12.5307    1.4786    0.0000 H   0  0  0  0  0  0  0  0  0  0  0  0
   13.3278    1.4786    0.0000 H   0  0  0  0  0  0  0  0  0  0  0  0
    6.2131    0.3709    0.0000 H   0  0  0  0  0  0  0  0  0  0  0  0
    6.6116    1.0612    0.0000 H   0  0  0  0  0  0  0  0  0  0  0  0
    6.5380    1.6435    0.0000 H   0  0  0  0  0  0  0  0  0  0  0  0
    4.9230    1.0361    0.0000 H   0  0  0  0  0  0  0  0  0  0  0  0
    4.5244    0.3459    0.0000 H   0  0  0  0  0  0  0  0  0  0  0  0
    8.5991    1.8335    0.0000 H   0  0  0  0  0  0  0  0  0  0  0  0
   14.1938    2.9285    0.0000 H   0  0  0  0  0  0  0  0  0  0  0  0
   13.3967    2.9285    0.0000 H   0  0  0  0  0  0  0  0  0  0  0  0
    5.3471   -1.1291    0.0000 H   0  0  0  0  0  0  0  0  0  0  0  0
    5.7456   -0.4388    0.0000 H   0  0  0  0  0  0  0  0  0  0  0  0
    6.8671    3.0735    0.0000 H   0  0  0  0  0  0  0  0  0  0  0  0
    9.4651    1.3335    0.0000 H   0  0  0  0  0  0  0  0  0  0  0  0
   14.6613    1.3335    0.0000 H   0  0  0  0  0  0  0  0  0  0  0  0
    9.2191    3.4535    0.0000 H   0  0  0  0  0  0  0  0  0  0  0  0
    8.5991    4.0735    0.0000 H   0  0  0  0  0  0  0  0  0  0  0  0
    7.9791    3.4535    0.0000 H   0  0  0  0  0  0  0  0  0  0  0  0
   10.6603    0.6435    0.0000 H   0  0  0  0  0  0  0  0  0  0  0  0
   11.7341    0.6435    0.0000 H   0  0  0  0  0  0  0  0  0  0  0  0
    4.0569   -0.4639    0.0000 H   0  0  0  0  0  0  0  0  0  0  0  0
    3.6584   -1.1541    0.0000 H   0  0  0  0  0  0  0  0  0  0  0  0
   16.3933    3.5735    0.0000 H   0  0  0  0  0  0  0  0  0  0  0  0
   15.3373    3.8565    0.0000 H   0  0  0  0  0  0  0  0  0  0  0  0
   14.4073    3.3195    0.0000 H   0  0  0  0  0  0  0  0  0  0  0  0
    3.7320    2.2635    0.0000 H   0  0  0  0  0  0  0  0  0  0  0  0
   18.6623    2.2635    0.0000 H   0  0  0  0  0  0  0  0  0  0  0  0
    2.8660   -3.8565    0.0000 H   0  0  0  0  0  0  0  0  0  0  0  0
    3.9399   -3.8565    0.0000 H   0  0  0  0  0  0  0  0  0  0  0  0
    2.0000   -2.3565    0.0000 H   0  0  0  0  0  0  0  0  0  0  0  0
    2.5369   -1.4265    0.0000 H   0  0  0  0  0  0  0  0  0  0  0  0
  1  8  1  0  0  0  0
  1  9  2  0  0  0  0
  1 10  2  0  0  0  0
  1 15  1  0  0  0  0
  2  6  2  0  0  0  0
  2 13  1  0  0  0  0
  2 15  1  0  0  0  0
  2 16  1  0  0  0  0
  3 28  2  0  0  0  0
  4 30  2  0  0  0  0
  5 32  1  0  0  0  0
  5 63  1  0  0  0  0
  7 32  2  0  0  0  0
  8 64  1  0  0  0  0
 24 11  1  1  0  0  0
 11 30  1  0  0  0  0
 11 50  1  0  0  0  0
 26 12  1  6  0  0  0
 12 28  1  0  0  0  0
 12 51  1  0  0  0  0
 13 27  1  0  0  0  0
 13 52  1  0  0  0  0
 21 14  1  6  0  0  0
 14 56  1  0  0  0  0
 14 57  1  0  0  0  0
 15 60  1  0  0  0  0
 16 61  1  0  0  0  0
 16 62  1  0  0  0  0
 17 33  1  0  0  0  0
 17 34  2  0  0  0  0
 18 34  1  0  0  0  0
 18 65  1  0  0  0  0
 18 66  1  0  0  0  0
 19 34  1  0  0  0  0
 19 67  1  0  0  0  0
 19 68  1  0  0  0  0
 20 21  1  0  0  0  0
 20 22  1  0  0  0  0
 20 35  1  0  0  0  0
 20 36  1  0  0  0  0
 21 28  1  0  0  0  0
 21 37  1  0  0  0  0
 22 27  1  0  0  0  0
 22 38  1  0  0  0  0
 22 39  1  0  0  0  0
 23 24  1  0  0  0  0
 23 25  1  0  0  0  0
 23 40  1  0  0  0  0
 23 41  1  0  0  0  0
 24 32  1  0  0  0  0
 24 42  1  0  0  0  0
 25 29  1  0  0  0  0
 25 43  1  0  0  0  0
 25 44  1  0  0  0  0
 26 30  1  0  0  0  0
 26 31  1  0  0  0  0
 26 45  1  0  0  0  0
 27 46  1  0  0  0  0
 27 47  1  0  0  0  0
 29 33  1  0  0  0  0
 29 48  1  0  0  0  0
 29 49  1  0  0  0  0
 31 53  1  0  0  0  0
 31 54  1  0  0  0  0
 31 55  1  0  0  0  0
 33 58  1  0  0  0  0
 33 59  1  0  0  0  0
M  END
> <PUBCHEM_COMPOUND_CID>
9936860

> <PUBCHEM_COMPOUND_CANONICALIZED>
1

> <PUBCHEM_CACTVS_COMPLEXITY>
876

> <PUBCHEM_CACTVS_HBOND_ACCEPTOR>
13

> <PUBCHEM_CACTVS_HBOND_DONOR>
10

> <PUBCHEM_CACTVS_ROTATABLE_BOND>
17

> <PUBCHEM_CACTVS_SUBSKEYS>
AAADcfBz/AJAAAAAAAAAAAAAAAAAAAAAAAAAAAAAAAAAAAAAAAAAHgAQyCAACCjBgAQDCALAAoAoQAGQPDAAAAEAAAAAAIGIAAACQBIAgCAUQAAEFgCQAAGYSQAAAAAAAAAAAAAAAAAAAAAAAAAAAAAAAA==

> <PUBCHEM_IUPAC_OPENEYE_NAME>
(2S)-2-[[(2S)-2-[[(2S)-2-amino-5-[[amino-(sulfoamino)phosphoryl]amino]pentanoyl]amino]propanoyl]amino]-6-guanidino-hexanoic acid

> <PUBCHEM_IUPAC_CAS_NAME>
(2S)-2-[[(2S)-2-[[(2S)-2-amino-5-[[amino-(sulfoamino)phosphoryl]amino]-1-oxopentyl]amino]-1-oxopropyl]amino]-6-(diaminomethylideneamino)hexanoic acid

> <PUBCHEM_IUPAC_NAME>
(2S)-2-[[(2S)-2-[[(2S)-2-amino-5-[[amino-(sulfoamino)phosphoryl]amino]pentanoyl]amino]propanoyl]amino]-6-(diaminomethylideneamino)hexanoic acid

> <PUBCHEM_IUPAC_SYSTEMATIC_NAME>
(2S)-2-[[(2S)-2-[[(2S)-2-azanyl-5-[[azanyl-(sulfoamino)phosphoryl]amino]pentanoyl]amino]propanoyl]amino]-6-[bis(azanyl)methylideneamino]hexanoic acid

> <PUBCHEM_IUPAC_TRADITIONAL_NAME>
(2S)-2-[[(2S)-2-[[(2S)-2-amino-5-[[amino-(sulfoamino)phosphoryl]amino]pentanoyl]amino]propanoyl]amino]-6-guanidino-hexanoic acid

> <PUBCHEM_IUPAC_INCHI>
InChI=1S/C15H34N9O8PS/c1-9(12(25)23-11(14(27)28)6-2-3-7-20-15(17)18)22-13(26)10(16)5-4-8-21-33(19,29)24-34(30,31)32/h9-11H,2-8,16H2,1H3,(H,22,26)(H,23,25)(H,27,28)(H4,17,18,20)(H,30,31,32)(H4,19,21,24,29)/t9-,10-,11-,33?/m0/s1

> <PUBCHEM_IUPAC_INCHIKEY>
QDAOSMKOZCCWLJ-MQLLGTBWSA-N

> <PUBCHEM_XLOGP3_AA>
-7

> <PUBCHEM_EXACT_MASS>
531.198867

> <PUBCHEM_MOLECULAR_FORMULA>
C15H34N9O8PS

> <PUBCHEM_MOLECULAR_WEIGHT>
531.524722

> <PUBCHEM_OPENEYE_CAN_SMILES>
CC(C(=O)NC(CCCCN=C(N)N)C(=O)O)NC(=O)C(CCCNP(=O)(N)NS(=O)(=O)O)N

> <PUBCHEM_OPENEYE_ISO_SMILES>
C[C@@H](C(=O)N[C@@H](CCCCN=C(N)N)C(=O)O)NC(=O)[C@H](CCCNP(=O)(N)NS(=O)(=O)O)N

> <PUBCHEM_CACTVS_TPSA>
316

> <PUBCHEM_MONOISOTOPIC_WEIGHT>
531.198867

> <PUBCHEM_TOTAL_CHARGE>
0

> <PUBCHEM_HEAVY_ATOM_COUNT>
34

> <PUBCHEM_ATOM_DEF_STEREO_COUNT>
3

> <PUBCHEM_ATOM_UDEF_STEREO_COUNT>
1

> <PUBCHEM_BOND_DEF_STEREO_COUNT>
0

> <PUBCHEM_BOND_UDEF_STEREO_COUNT>
0

> <PUBCHEM_ISOTOPIC_ATOM_COUNT>
0

> <PUBCHEM_COMPONENT_COUNT>
1

> <PUBCHEM_CACTVS_TAUTO_COUNT>
32

> <PUBCHEM_COORDINATE_TYPE>
1
5
255

> <PUBCHEM_BONDANNOTATIONS>
24  11  5
26  12  6
21  14  6
2  13  3

$$$$

