47205040
  -OEChem-06241222573D

 38 39  0     0  0  0  0  0  0999 V2000
    1.3532    2.0394   -0.5692 O   0  0  0  0  0  0  0  0  0  0  0  0
    1.7489    0.4589    1.0807 N   0  0  0  0  0  0  0  0  0  0  0  0
    4.3113   -1.3195    0.5410 N   0  0  0  0  0  0  0  0  0  0  0  0
    5.1268   -1.8409   -0.3913 N   0  0  0  0  0  0  0  0  0  0  0  0
   -4.5989   -0.5389   -0.1202 C   0  0  0  0  0  0  0  0  0  0  0  0
   -3.1275   -0.0985   -0.0473 C   0  0  0  0  0  0  0  0  0  0  0  0
   -4.7637   -1.6214   -1.2089 C   0  0  0  0  0  0  0  0  0  0  0  0
   -5.4876    0.6739   -0.4714 C   0  0  0  0  0  0  0  0  0  0  0  0
   -5.1397   -1.1336    1.2000 C   0  0  0  0  0  0  0  0  0  0  0  0
   -2.5095    0.4573   -1.1675 C   0  0  0  0  0  0  0  0  0  0  0  0
   -2.4110   -0.2538    1.1394 C   0  0  0  0  0  0  0  0  0  0  0  0
   -0.4584    0.7025    0.0856 C   0  0  0  0  0  0  0  0  0  0  0  0
   -1.1751    0.8580   -1.1010 C   0  0  0  0  0  0  0  0  0  0  0  0
   -1.0764    0.1467    1.2059 C   0  0  0  0  0  0  0  0  0  0  0  0
    0.9330    1.1200    0.1553 C   0  0  0  0  0  0  0  0  0  0  0  0
    3.1444    0.7748    1.2845 C   0  0  0  0  0  0  0  0  0  0  0  0
    4.0366    0.0036    0.3553 C   0  0  0  0  0  0  0  0  0  0  0  0
    4.7204    0.3735   -0.7771 C   0  0  0  0  0  0  0  0  0  0  0  0
    5.3733   -0.8020   -1.1937 C   0  0  0  0  0  0  0  0  0  0  0  0
   -5.0987   -0.4080    2.0209 H   0  0  0  0  0  0  0  0  0  0  0  0
   -4.5856   -2.0307    1.5001 H   0  0  0  0  0  0  0  0  0  0  0  0
   -5.2461    1.0945   -1.4537 H   0  0  0  0  0  0  0  0  0  0  0  0
   -5.3711    1.4755    0.2675 H   0  0  0  0  0  0  0  0  0  0  0  0
   -6.5473    0.3938   -0.4952 H   0  0  0  0  0  0  0  0  0  0  0  0
   -4.1217   -2.4866   -1.0054 H   0  0  0  0  0  0  0  0  0  0  0  0
   -4.5068   -1.2487   -2.2066 H   0  0  0  0  0  0  0  0  0  0  0  0
   -5.7991   -1.9786   -1.2577 H   0  0  0  0  0  0  0  0  0  0  0  0
   -6.1901   -1.4315    1.0935 H   0  0  0  0  0  0  0  0  0  0  0  0
   -3.0441    0.5886   -2.1037 H   0  0  0  0  0  0  0  0  0  0  0  0
   -2.8443   -0.6731    2.0405 H   0  0  0  0  0  0  0  0  0  0  0  0
   -0.7100    1.2849   -1.9859 H   0  0  0  0  0  0  0  0  0  0  0  0
   -0.5640    0.0363    2.1572 H   0  0  0  0  0  0  0  0  0  0  0  0
    3.2935    1.8505    1.1393 H   0  0  0  0  0  0  0  0  0  0  0  0
    3.3875    0.5375    2.3257 H   0  0  0  0  0  0  0  0  0  0  0  0
    1.3853   -0.3299    1.6051 H   0  0  0  0  0  0  0  0  0  0  0  0
    4.7427    1.3511   -1.2360 H   0  0  0  0  0  0  0  0  0  0  0  0
    3.9772   -1.9272    1.2787 H   0  0  0  0  0  0  0  0  0  0  0  0
    6.0182   -0.9448   -2.0489 H   0  0  0  0  0  0  0  0  0  0  0  0
  1 15  2  0  0  0  0
  2 15  1  0  0  0  0
  2 16  1  0  0  0  0
  2 35  1  0  0  0  0
  3  4  1  0  0  0  0
  3 17  1  0  0  0  0
  3 37  1  0  0  0  0
  4 19  2  0  0  0  0
  5  6  1  0  0  0  0
  5  7  1  0  0  0  0
  5  8  1  0  0  0  0
  5  9  1  0  0  0  0
  6 10  2  0  0  0  0
  6 11  1  0  0  0  0
  7 25  1  0  0  0  0
  7 26  1  0  0  0  0
  7 27  1  0  0  0  0
  8 22  1  0  0  0  0
  8 23  1  0  0  0  0
  8 24  1  0  0  0  0
  9 20  1  0  0  0  0
  9 21  1  0  0  0  0
  9 28  1  0  0  0  0
 10 13  1  0  0  0  0
 10 29  1  0  0  0  0
 11 14  2  0  0  0  0
 11 30  1  0  0  0  0
 12 13  2  0  0  0  0
 12 14  1  0  0  0  0
 12 15  1  0  0  0  0
 13 31  1  0  0  0  0
 14 32  1  0  0  0  0
 16 17  1  0  0  0  0
 16 33  1  0  0  0  0
 16 34  1  0  0  0  0
 17 18  2  0  0  0  0
 18 19  1  0  0  0  0
 18 36  1  0  0  0  0
 19 38  1  0  0  0  0
M  END
> <PUBCHEM_COMPOUND_CID>
47205040

> <PUBCHEM_CONFORMER_RMSD>
0.6

> <PUBCHEM_CONFORMER_DIVERSEORDER>
7
27
23
28
33
18
36
13
10
22
37
14
30
24
21
6
32
20
25
29
11
31
17
3
26
15
34
35
9
19
8
12
4
2
16
1
5

> <PUBCHEM_MMFF94_PARTIAL_CHARGES>
24
1 -0.57
10 -0.15
11 -0.15
12 0.09
13 -0.15
14 -0.15
15 0.54
16 0.48
17 -0.33
18 -0.15
19 0.14
2 -0.73
29 0.15
3 0.3
30 0.15
31 0.15
32 0.15
35 0.37
36 0.15
37 0.27
38 0.15
4 -0.71
5 0.14
6 -0.14

> <PUBCHEM_EFFECTIVE_ROTOR_COUNT>
5

> <PUBCHEM_PHARMACOPHORE_FEATURES>
7
1 1 acceptor
1 2 donor
1 3 donor
1 4 acceptor
4 5 7 8 9 hydrophobe
5 3 4 17 18 19 rings
6 6 10 11 12 13 14 rings

> <PUBCHEM_HEAVY_ATOM_COUNT>
19

> <PUBCHEM_ATOM_DEF_STEREO_COUNT>
0

> <PUBCHEM_ATOM_UDEF_STEREO_COUNT>
0

> <PUBCHEM_BOND_DEF_STEREO_COUNT>
0

> <PUBCHEM_BOND_UDEF_STEREO_COUNT>
0

> <PUBCHEM_ISOTOPIC_ATOM_COUNT>
0

> <PUBCHEM_COMPONENT_COUNT>
1

> <PUBCHEM_CACTVS_TAUTO_COUNT>
4

> <PUBCHEM_CONFORMER_ID>
02D04AB000000007

> <PUBCHEM_MMFF94_ENERGY>
45.2903

> <PUBCHEM_FEATURE_SELFOVERLAP>
35.52

> <PUBCHEM_SHAPE_MULTIPOLES>
370.2
13.96
1.48
1.36
4.11
0.29
-0.08
6.57
1.75
0.65
0.24
-0.34
0.02
0.43

> <PUBCHEM_SHAPE_SELFOVERLAP>
779.853

> <PUBCHEM_SHAPE_VOLUME>
209.5

> <PUBCHEM_COORDINATE_TYPE>
2
5
10

$$$$

