656768
  -OEChem-07051213042D

 67 70  0     0  0  0  0  0  0999 V2000
    7.1962    3.0000    0.0000 O   0  0  0  0  0  0  0  0  0  0  0  0
    2.0000   -5.0000    0.0000 O   0  0  0  0  0  0  0  0  0  0  0  0
    6.3301   -0.5000    0.0000 N   0  0  0  0  0  0  0  0  0  0  0  0
    6.3301    1.5000    0.0000 C   0  0  0  0  0  0  0  0  0  0  0  0
    5.4641    1.0000    0.0000 C   0  0  0  0  0  0  0  0  0  0  0  0
    7.1962    1.0000    0.0000 C   0  0  0  0  0  0  0  0  0  0  0  0
    5.4641    0.0000    0.0000 C   0  0  0  0  0  0  0  0  0  0  0  0
    7.1962    0.0000    0.0000 C   0  0  0  0  0  0  0  0  0  0  0  0
    6.3301    2.5000    0.0000 C   0  0  0  0  0  0  0  0  0  0  0  0
    6.3301   -1.5000    0.0000 C   0  0  0  0  0  0  0  0  0  0  0  0
    5.4641   -2.0000    0.0000 C   0  0  0  0  0  0  0  0  0  0  0  0
    5.4641   -3.0000    0.0000 C   0  0  0  0  0  0  0  0  0  0  0  0
    7.1962    4.0000    0.0000 C   0  0  0  0  0  0  0  0  0  0  0  0
    4.5981   -3.5000    0.0000 C   0  0  0  0  0  0  0  0  0  0  0  0
    8.0622    4.5000    0.0000 C   0  0  0  0  0  0  0  0  0  0  0  0
    6.3301    4.5000    0.0000 C   0  0  0  0  0  0  0  0  0  0  0  0
    3.7320   -3.0000    0.0000 C   0  0  0  0  0  0  0  0  0  0  0  0
    4.5981   -4.5000    0.0000 C   0  0  0  0  0  0  0  0  0  0  0  0
    8.9282    4.0000    0.0000 C   0  0  0  0  0  0  0  0  0  0  0  0
    6.3301    5.5000    0.0000 C   0  0  0  0  0  0  0  0  0  0  0  0
    8.0622    5.5000    0.0000 C   0  0  0  0  0  0  0  0  0  0  0  0
    5.4641    4.0000    0.0000 C   0  0  0  0  0  0  0  0  0  0  0  0
    2.8660   -3.5000    0.0000 C   0  0  0  0  0  0  0  0  0  0  0  0
    3.7320   -5.0000    0.0000 C   0  0  0  0  0  0  0  0  0  0  0  0
    9.7942    4.5000    0.0000 C   0  0  0  0  0  0  0  0  0  0  0  0
    5.4641    6.0000    0.0000 C   0  0  0  0  0  0  0  0  0  0  0  0
    8.9282    6.0000    0.0000 C   0  0  0  0  0  0  0  0  0  0  0  0
    4.5981    4.5000    0.0000 C   0  0  0  0  0  0  0  0  0  0  0  0
    2.8660   -4.5000    0.0000 C   0  0  0  0  0  0  0  0  0  0  0  0
    9.7942    5.5000    0.0000 C   0  0  0  0  0  0  0  0  0  0  0  0
    4.5981    5.5000    0.0000 C   0  0  0  0  0  0  0  0  0  0  0  0
    2.0000   -6.0000    0.0000 C   0  0  0  0  0  0  0  0  0  0  0  0
    6.8671    1.8100    0.0000 H   0  0  0  0  0  0  0  0  0  0  0  0
    7.8067    0.8923    0.0000 H   0  0  0  0  0  0  0  0  0  0  0  0
    7.4082    1.5826    0.0000 H   0  0  0  0  0  0  0  0  0  0  0  0
    5.2520    1.5826    0.0000 H   0  0  0  0  0  0  0  0  0  0  0  0
    4.8535    0.8923    0.0000 H   0  0  0  0  0  0  0  0  0  0  0  0
    4.8535    0.1077    0.0000 H   0  0  0  0  0  0  0  0  0  0  0  0
    5.2520   -0.5826    0.0000 H   0  0  0  0  0  0  0  0  0  0  0  0
    7.4082   -0.5826    0.0000 H   0  0  0  0  0  0  0  0  0  0  0  0
    7.8067    0.1077    0.0000 H   0  0  0  0  0  0  0  0  0  0  0  0
    6.1181    3.0826    0.0000 H   0  0  0  0  0  0  0  0  0  0  0  0
    5.7196    2.3923    0.0000 H   0  0  0  0  0  0  0  0  0  0  0  0
    6.5422   -2.0826    0.0000 H   0  0  0  0  0  0  0  0  0  0  0  0
    6.9407   -1.3923    0.0000 H   0  0  0  0  0  0  0  0  0  0  0  0
    5.2520   -1.4174    0.0000 H   0  0  0  0  0  0  0  0  0  0  0  0
    4.8535   -2.1077    0.0000 H   0  0  0  0  0  0  0  0  0  0  0  0
    5.6762   -3.5826    0.0000 H   0  0  0  0  0  0  0  0  0  0  0  0
    6.0747   -2.8923    0.0000 H   0  0  0  0  0  0  0  0  0  0  0  0
    6.6592    3.6900    0.0000 H   0  0  0  0  0  0  0  0  0  0  0  0
    3.7320   -2.3800    0.0000 H   0  0  0  0  0  0  0  0  0  0  0  0
    5.1350   -4.8100    0.0000 H   0  0  0  0  0  0  0  0  0  0  0  0
    8.9282    3.3800    0.0000 H   0  0  0  0  0  0  0  0  0  0  0  0
    6.8671    5.8100    0.0000 H   0  0  0  0  0  0  0  0  0  0  0  0
    5.4641    3.3800    0.0000 H   0  0  0  0  0  0  0  0  0  0  0  0
    7.5252    5.8100    0.0000 H   0  0  0  0  0  0  0  0  0  0  0  0
    2.3291   -3.1900    0.0000 H   0  0  0  0  0  0  0  0  0  0  0  0
    3.7320   -5.6200    0.0000 H   0  0  0  0  0  0  0  0  0  0  0  0
    5.4641    6.6200    0.0000 H   0  0  0  0  0  0  0  0  0  0  0  0
   10.3312    4.1900    0.0000 H   0  0  0  0  0  0  0  0  0  0  0  0
    4.0611    4.1900    0.0000 H   0  0  0  0  0  0  0  0  0  0  0  0
    8.9282    6.6200    0.0000 H   0  0  0  0  0  0  0  0  0  0  0  0
   10.3312    5.8100    0.0000 H   0  0  0  0  0  0  0  0  0  0  0  0
    4.0611    5.8100    0.0000 H   0  0  0  0  0  0  0  0  0  0  0  0
    1.3800   -6.0000    0.0000 H   0  0  0  0  0  0  0  0  0  0  0  0
    2.0000   -6.6200    0.0000 H   0  0  0  0  0  0  0  0  0  0  0  0
    2.6200   -6.0000    0.0000 H   0  0  0  0  0  0  0  0  0  0  0  0
  1  9  1  0  0  0  0
  1 13  1  0  0  0  0
  2 29  1  0  0  0  0
  2 32  1  0  0  0  0
  3  7  1  0  0  0  0
  3  8  1  0  0  0  0
  3 10  1  0  0  0  0
  4  5  1  0  0  0  0
  4  6  1  0  0  0  0
  4  9  1  0  0  0  0
  4 33  1  0  0  0  0
  5  7  1  0  0  0  0
  5 36  1  0  0  0  0
  5 37  1  0  0  0  0
  6  8  1  0  0  0  0
  6 34  1  0  0  0  0
  6 35  1  0  0  0  0
  7 38  1  0  0  0  0
  7 39  1  0  0  0  0
  8 40  1  0  0  0  0
  8 41  1  0  0  0  0
  9 42  1  0  0  0  0
  9 43  1  0  0  0  0
 10 11  1  0  0  0  0
 10 44  1  0  0  0  0
 10 45  1  0  0  0  0
 11 12  1  0  0  0  0
 11 46  1  0  0  0  0
 11 47  1  0  0  0  0
 12 14  1  0  0  0  0
 12 48  1  0  0  0  0
 12 49  1  0  0  0  0
 13 15  1  0  0  0  0
 13 16  1  0  0  0  0
 13 50  1  0  0  0  0
 14 17  2  0  0  0  0
 14 18  1  0  0  0  0
 15 19  2  0  0  0  0
 15 21  1  0  0  0  0
 16 20  2  0  0  0  0
 16 22  1  0  0  0  0
 17 23  1  0  0  0  0
 17 51  1  0  0  0  0
 18 24  2  0  0  0  0
 18 52  1  0  0  0  0
 19 25  1  0  0  0  0
 19 53  1  0  0  0  0
 20 26  1  0  0  0  0
 20 54  1  0  0  0  0
 21 27  2  0  0  0  0
 21 56  1  0  0  0  0
 22 28  2  0  0  0  0
 22 55  1  0  0  0  0
 23 29  2  0  0  0  0
 23 57  1  0  0  0  0
 24 29  1  0  0  0  0
 24 58  1  0  0  0  0
 25 30  2  0  0  0  0
 25 60  1  0  0  0  0
 26 31  2  0  0  0  0
 26 59  1  0  0  0  0
 27 30  1  0  0  0  0
 27 62  1  0  0  0  0
 28 31  1  0  0  0  0
 28 61  1  0  0  0  0
 30 63  1  0  0  0  0
 31 64  1  0  0  0  0
 32 65  1  0  0  0  0
 32 66  1  0  0  0  0
 32 67  1  0  0  0  0
M  END
> <PUBCHEM_COMPOUND_CID>
656768

> <PUBCHEM_COMPOUND_CANONICALIZED>
1

> <PUBCHEM_CACTVS_COMPLEXITY>
465

> <PUBCHEM_CACTVS_HBOND_ACCEPTOR>
3

> <PUBCHEM_CACTVS_HBOND_DONOR>
0

> <PUBCHEM_CACTVS_ROTATABLE_BOND>
10

> <PUBCHEM_CACTVS_SUBSKEYS>
AAADcfB6MAAAAAAAAAAAAAAAAAAAAAAAAAA8YMEAAAAAAAABUAAAHgAAAAAADRThmAYyBoMABACAAiBCAAACCAAgIAAIiAAOCIgMJiKEsRqGMCAkwBGIqAewwOAOIAAAAAAAAABAAAAAAAAAAAAAAAAAAA==

> <PUBCHEM_IUPAC_OPENEYE_NAME>
4-(benzhydryloxymethyl)-1-[3-(4-methoxyphenyl)propyl]piperidine

> <PUBCHEM_IUPAC_CAS_NAME>
4-[(diphenylmethyl)oxymethyl]-1-[3-(4-methoxyphenyl)propyl]piperidine

> <PUBCHEM_IUPAC_NAME>
4-(benzhydryloxymethyl)-1-[3-(4-methoxyphenyl)propyl]piperidine

> <PUBCHEM_IUPAC_SYSTEMATIC_NAME>
4-[(diphenylmethyl)oxymethyl]-1-[3-(4-methoxyphenyl)propyl]piperidine

> <PUBCHEM_IUPAC_TRADITIONAL_NAME>
4-(benzhydryloxymethyl)-1-[3-(4-methoxyphenyl)propyl]piperidine

> <PUBCHEM_IUPAC_INCHI>
InChI=1S/C29H35NO2/c1-31-28-16-14-24(15-17-28)9-8-20-30-21-18-25(19-22-30)23-32-29(26-10-4-2-5-11-26)27-12-6-3-7-13-27/h2-7,10-17,25,29H,8-9,18-23H2,1H3

> <PUBCHEM_IUPAC_INCHIKEY>
WRTXEGOLODUQIE-UHFFFAOYSA-N

> <PUBCHEM_XLOGP3_AA>
6.3

> <PUBCHEM_EXACT_MASS>
429.266779

> <PUBCHEM_MOLECULAR_FORMULA>
C29H35NO2

> <PUBCHEM_MOLECULAR_WEIGHT>
429.5937

> <PUBCHEM_OPENEYE_CAN_SMILES>
COC1=CC=C(C=C1)CCCN2CCC(CC2)COC(C3=CC=CC=C3)C4=CC=CC=C4

> <PUBCHEM_OPENEYE_ISO_SMILES>
COC1=CC=C(C=C1)CCCN2CCC(CC2)COC(C3=CC=CC=C3)C4=CC=CC=C4

> <PUBCHEM_CACTVS_TPSA>
21.7

> <PUBCHEM_MONOISOTOPIC_WEIGHT>
429.266779

> <PUBCHEM_TOTAL_CHARGE>
0

> <PUBCHEM_HEAVY_ATOM_COUNT>
32

> <PUBCHEM_ATOM_DEF_STEREO_COUNT>
0

> <PUBCHEM_ATOM_UDEF_STEREO_COUNT>
0

> <PUBCHEM_BOND_DEF_STEREO_COUNT>
0

> <PUBCHEM_BOND_UDEF_STEREO_COUNT>
0

> <PUBCHEM_ISOTOPIC_ATOM_COUNT>
0

> <PUBCHEM_COMPONENT_COUNT>
1

> <PUBCHEM_CACTVS_TAUTO_COUNT>
1

> <PUBCHEM_COORDINATE_TYPE>
1
5
255

> <PUBCHEM_BONDANNOTATIONS>
14  17  8
14  18  8
15  19  8
15  21  8
16  20  8
16  22  8
17  23  8
18  24  8
19  25  8
20  26  8
21  27  8
22  28  8
23  29  8
24  29  8
25  30  8
26  31  8
27  30  8
28  31  8

$$$$

