25244578
  -OEChem-07051213102D

117116  0     1  0  0  0  0  0999 V2000
   21.9186   -7.4400    0.0000 P   0  0  3  0  0  0  0  0  0  0  0  0
   23.6506   -7.4400    0.0000 P   0  0  0  0  0  0  0  0  0  0  0  0
   21.0526   -7.9400    0.0000 O   0  0  0  0  0  0  0  0  0  0  0  0
   22.7846   -6.9400    0.0000 O   0  0  0  0  0  0  0  0  0  0  0  0
   21.4186   -6.5740    0.0000 O   0  0  0  0  0  0  0  0  0  0  0  0
   22.4186   -8.3060    0.0000 O   0  0  0  0  0  0  0  0  0  0  0  0
   24.5167   -7.9400    0.0000 O   0  0  0  0  0  0  0  0  0  0  0  0
   24.1506   -6.5740    0.0000 O   0  0  0  0  0  0  0  0  0  0  0  0
   23.1506   -8.3060    0.0000 O   0  0  0  0  0  0  0  0  0  0  0  0
   10.6603   -1.9400    0.0000 C   0  0  0  0  0  0  0  0  0  0  0  0
   13.2583   -3.4400    0.0000 C   0  0  0  0  0  0  0  0  0  0  0  0
    9.7942   -1.4400    0.0000 C   0  0  0  0  0  0  0  0  0  0  0  0
    8.0622   -0.4400    0.0000 C   0  0  0  0  0  0  0  0  0  0  0  0
   12.3923   -2.9400    0.0000 C   0  0  0  0  0  0  0  0  0  0  0  0
   11.5263   -1.4400    0.0000 C   0  0  0  0  0  0  0  0  0  0  0  0
    7.1962    0.0600    0.0000 C   0  0  0  0  0  0  0  0  0  0  0  0
    8.0622   -1.4400    0.0000 C   0  0  0  0  0  0  0  0  0  0  0  0
   13.2583   -4.4400    0.0000 C   0  0  0  0  0  0  0  0  0  0  0  0
   14.9904   -4.4400    0.0000 C   0  0  0  0  0  0  0  0  0  0  0  0
   15.8564   -4.9400    0.0000 C   0  0  0  0  0  0  0  0  0  0  0  0
    6.3301    2.5600    0.0000 C   0  0  0  0  0  0  0  0  0  0  0  0
   12.3923   -1.9400    0.0000 C   0  0  0  0  0  0  0  0  0  0  0  0
    8.9282   -1.9400    0.0000 C   0  0  0  0  0  0  0  0  0  0  0  0
    6.3301    1.5600    0.0000 C   0  0  0  0  0  0  0  0  0  0  0  0
    5.4641    3.0600    0.0000 C   0  0  0  0  0  0  0  0  0  0  0  0
   14.1244   -4.9400    0.0000 C   0  0  0  0  0  0  0  0  0  0  0  0
    7.1962    1.0600    0.0000 C   0  0  0  0  0  0  0  0  0  0  0  0
   16.7224   -4.4400    0.0000 C   0  0  0  0  0  0  0  0  0  0  0  0
   17.5885   -5.9400    0.0000 C   0  0  0  0  0  0  0  0  0  0  0  0
    5.4641    4.0600    0.0000 C   0  0  0  0  0  0  0  0  0  0  0  0
   11.5263   -0.4400    0.0000 C   0  0  0  0  0  0  0  0  0  0  0  0
    4.5981    4.5600    0.0000 C   0  0  0  0  0  0  0  0  0  0  0  0
   17.5885   -4.9400    0.0000 C   0  0  0  0  0  0  0  0  0  0  0  0
    7.1962   -1.9400    0.0000 C   0  0  0  0  0  0  0  0  0  0  0  0
   12.3923   -4.9400    0.0000 C   0  0  0  0  0  0  0  0  0  0  0  0
    4.5981    5.5600    0.0000 C   0  0  0  0  0  0  0  0  0  0  0  0
   18.4545   -6.4400    0.0000 C   0  0  0  0  0  0  0  0  0  0  0  0
    5.4641    1.0600    0.0000 C   0  0  0  0  0  0  0  0  0  0  0  0
   16.7224   -3.4400    0.0000 C   0  0  0  0  0  0  0  0  0  0  0  0
    3.7320    6.0600    0.0000 C   0  0  0  0  0  0  0  0  0  0  0  0
   18.4545   -7.4400    0.0000 C   0  0  0  0  0  0  0  0  0  0  0  0
    3.7320    4.0600    0.0000 C   0  0  0  0  0  0  0  0  0  0  0  0
    3.7320    7.0600    0.0000 C   0  0  0  0  0  0  0  0  0  0  0  0
   17.5885   -7.9400    0.0000 C   0  0  0  0  0  0  0  0  0  0  0  0
   19.3205   -7.9400    0.0000 C   0  0  0  0  0  0  0  0  0  0  0  0
    2.8660    7.5600    0.0000 C   0  0  0  0  0  0  0  0  0  0  0  0
   20.1865   -7.4400    0.0000 C   0  0  0  0  0  0  0  0  0  0  0  0
    2.8660    8.5600    0.0000 C   0  0  0  0  0  0  0  0  0  0  0  0
    2.0000    7.0600    0.0000 C   0  0  0  0  0  0  0  0  0  0  0  0
   10.2617   -2.4150    0.0000 H   0  0  0  0  0  0  0  0  0  0  0  0
   11.0588   -2.4150    0.0000 H   0  0  0  0  0  0  0  0  0  0  0  0
   13.8689   -3.5477    0.0000 H   0  0  0  0  0  0  0  0  0  0  0  0
   13.4704   -2.8574    0.0000 H   0  0  0  0  0  0  0  0  0  0  0  0
   10.1928   -0.9651    0.0000 H   0  0  0  0  0  0  0  0  0  0  0  0
    9.3957   -0.9651    0.0000 H   0  0  0  0  0  0  0  0  0  0  0  0
    8.6728   -0.5477    0.0000 H   0  0  0  0  0  0  0  0  0  0  0  0
    8.2742    0.1426    0.0000 H   0  0  0  0  0  0  0  0  0  0  0  0
   11.7817   -2.8323    0.0000 H   0  0  0  0  0  0  0  0  0  0  0  0
   12.1803   -3.5226    0.0000 H   0  0  0  0  0  0  0  0  0  0  0  0
    6.5856    0.1677    0.0000 H   0  0  0  0  0  0  0  0  0  0  0  0
    6.9841   -0.5226    0.0000 H   0  0  0  0  0  0  0  0  0  0  0  0
   15.3889   -3.9650    0.0000 H   0  0  0  0  0  0  0  0  0  0  0  0
   14.5919   -3.9650    0.0000 H   0  0  0  0  0  0  0  0  0  0  0  0
   15.4579   -5.4150    0.0000 H   0  0  0  0  0  0  0  0  0  0  0  0
   16.2549   -5.4150    0.0000 H   0  0  0  0  0  0  0  0  0  0  0  0
    6.9407    2.4523    0.0000 H   0  0  0  0  0  0  0  0  0  0  0  0
    6.5422    3.1426    0.0000 H   0  0  0  0  0  0  0  0  0  0  0  0
   12.9292   -1.6300    0.0000 H   0  0  0  0  0  0  0  0  0  0  0  0
    8.9282   -2.5600    0.0000 H   0  0  0  0  0  0  0  0  0  0  0  0
    4.8535    3.1677    0.0000 H   0  0  0  0  0  0  0  0  0  0  0  0
    5.2520    2.4774    0.0000 H   0  0  0  0  0  0  0  0  0  0  0  0
   14.1244   -5.5600    0.0000 H   0  0  0  0  0  0  0  0  0  0  0  0
    7.7331    1.3700    0.0000 H   0  0  0  0  0  0  0  0  0  0  0  0
   16.9779   -5.8323    0.0000 H   0  0  0  0  0  0  0  0  0  0  0  0
   17.3764   -6.5226    0.0000 H   0  0  0  0  0  0  0  0  0  0  0  0
    6.0010    4.3700    0.0000 H   0  0  0  0  0  0  0  0  0  0  0  0
   12.1463   -0.4400    0.0000 H   0  0  0  0  0  0  0  0  0  0  0  0
   11.5263    0.1800    0.0000 H   0  0  0  0  0  0  0  0  0  0  0  0
   10.9063   -0.4400    0.0000 H   0  0  0  0  0  0  0  0  0  0  0  0
   18.1254   -4.6300    0.0000 H   0  0  0  0  0  0  0  0  0  0  0  0
    6.8862   -1.4031    0.0000 H   0  0  0  0  0  0  0  0  0  0  0  0
    6.6592   -2.2500    0.0000 H   0  0  0  0  0  0  0  0  0  0  0  0
    7.5062   -2.4769    0.0000 H   0  0  0  0  0  0  0  0  0  0  0  0
    5.2087    5.4523    0.0000 H   0  0  0  0  0  0  0  0  0  0  0  0
    4.8101    6.1426    0.0000 H   0  0  0  0  0  0  0  0  0  0  0  0
   12.0823   -4.4031    0.0000 H   0  0  0  0  0  0  0  0  0  0  0  0
   11.8554   -5.2500    0.0000 H   0  0  0  0  0  0  0  0  0  0  0  0
   12.7023   -5.4769    0.0000 H   0  0  0  0  0  0  0  0  0  0  0  0
   19.0651   -6.5477    0.0000 H   0  0  0  0  0  0  0  0  0  0  0  0
   18.6665   -5.8574    0.0000 H   0  0  0  0  0  0  0  0  0  0  0  0
    5.1541    1.5969    0.0000 H   0  0  0  0  0  0  0  0  0  0  0  0
    4.9272    0.7500    0.0000 H   0  0  0  0  0  0  0  0  0  0  0  0
    5.7741    0.5231    0.0000 H   0  0  0  0  0  0  0  0  0  0  0  0
   17.3424   -3.4400    0.0000 H   0  0  0  0  0  0  0  0  0  0  0  0
   16.7224   -2.8200    0.0000 H   0  0  0  0  0  0  0  0  0  0  0  0
   16.1024   -3.4400    0.0000 H   0  0  0  0  0  0  0  0  0  0  0  0
    3.1215    6.1677    0.0000 H   0  0  0  0  0  0  0  0  0  0  0  0
    3.5200    5.4774    0.0000 H   0  0  0  0  0  0  0  0  0  0  0  0
    3.4220    4.5969    0.0000 H   0  0  0  0  0  0  0  0  0  0  0  0
    3.1951    3.7500    0.0000 H   0  0  0  0  0  0  0  0  0  0  0  0
    4.0420    3.5231    0.0000 H   0  0  0  0  0  0  0  0  0  0  0  0
    4.2690    7.3700    0.0000 H   0  0  0  0  0  0  0  0  0  0  0  0
   17.2785   -7.4031    0.0000 H   0  0  0  0  0  0  0  0  0  0  0  0
   17.0515   -8.2500    0.0000 H   0  0  0  0  0  0  0  0  0  0  0  0
   17.8985   -8.4769    0.0000 H   0  0  0  0  0  0  0  0  0  0  0  0
   19.3205   -8.5600    0.0000 H   0  0  0  0  0  0  0  0  0  0  0  0
   20.5851   -6.9650    0.0000 H   0  0  0  0  0  0  0  0  0  0  0  0
   19.7880   -6.9650    0.0000 H   0  0  0  0  0  0  0  0  0  0  0  0
    1.6900    7.5969    0.0000 H   0  0  0  0  0  0  0  0  0  0  0  0
    1.4631    6.7500    0.0000 H   0  0  0  0  0  0  0  0  0  0  0  0
    2.3100    6.5231    0.0000 H   0  0  0  0  0  0  0  0  0  0  0  0
    3.4860    8.5600    0.0000 H   0  0  0  0  0  0  0  0  0  0  0  0
    2.8660    9.1800    0.0000 H   0  0  0  0  0  0  0  0  0  0  0  0
    2.2460    8.5600    0.0000 H   0  0  0  0  0  0  0  0  0  0  0  0
   21.7286   -6.0370    0.0000 H   0  0  0  0  0  0  0  0  0  0  0  0
   25.0536   -7.6300    0.0000 H   0  0  0  0  0  0  0  0  0  0  0  0
   23.8406   -6.0370    0.0000 H   0  0  0  0  0  0  0  0  0  0  0  0
  1  3  1  0  0  0  0
  1  4  1  0  0  0  0
  1  5  1  0  0  0  0
  1  6  2  0  0  0  0
  2  4  1  0  0  0  0
  2  7  1  0  0  0  0
  2  8  1  0  0  0  0
  2  9  2  0  0  0  0
  3 47  1  0  0  0  0
  5115  1  0  0  0  0
  7116  1  0  0  0  0
  8117  1  0  0  0  0
 10 12  1  0  0  0  0
 10 15  1  0  0  0  0
 10 50  1  0  0  0  0
 10 51  1  0  0  0  0
 11 14  1  0  0  0  0
 11 18  1  0  0  0  0
 11 52  1  0  0  0  0
 11 53  1  0  0  0  0
 12 23  1  0  0  0  0
 12 54  1  0  0  0  0
 12 55  1  0  0  0  0
 13 16  1  0  0  0  0
 13 17  1  0  0  0  0
 13 56  1  0  0  0  0
 13 57  1  0  0  0  0
 14 22  1  0  0  0  0
 14 58  1  0  0  0  0
 14 59  1  0  0  0  0
 15 22  2  0  0  0  0
 15 31  1  0  0  0  0
 16 27  1  0  0  0  0
 16 60  1  0  0  0  0
 16 61  1  0  0  0  0
 17 23  2  0  0  0  0
 17 34  1  0  0  0  0
 18 26  2  0  0  0  0
 18 35  1  0  0  0  0
 19 20  1  0  0  0  0
 19 26  1  0  0  0  0
 19 62  1  0  0  0  0
 19 63  1  0  0  0  0
 20 28  1  0  0  0  0
 20 64  1  0  0  0  0
 20 65  1  0  0  0  0
 21 24  1  0  0  0  0
 21 25  1  0  0  0  0
 21 66  1  0  0  0  0
 21 67  1  0  0  0  0
 22 68  1  0  0  0  0
 23 69  1  0  0  0  0
 24 27  2  0  0  0  0
 24 38  1  0  0  0  0
 25 30  1  0  0  0  0
 25 70  1  0  0  0  0
 25 71  1  0  0  0  0
 26 72  1  0  0  0  0
 27 73  1  0  0  0  0
 28 33  2  0  0  0  0
 28 39  1  0  0  0  0
 29 33  1  0  0  0  0
 29 37  1  0  0  0  0
 29 74  1  0  0  0  0
 29 75  1  0  0  0  0
 30 32  2  0  0  0  0
 30 76  1  0  0  0  0
 31 77  1  0  0  0  0
 31 78  1  0  0  0  0
 31 79  1  0  0  0  0
 32 36  1  0  0  0  0
 32 42  1  0  0  0  0
 33 80  1  0  0  0  0
 34 81  1  0  0  0  0
 34 82  1  0  0  0  0
 34 83  1  0  0  0  0
 35 86  1  0  0  0  0
 35 87  1  0  0  0  0
 35 88  1  0  0  0  0
 36 40  1  0  0  0  0
 36 84  1  0  0  0  0
 36 85  1  0  0  0  0
 37 41  1  0  0  0  0
 37 89  1  0  0  0  0
 37 90  1  0  0  0  0
 38 91  1  0  0  0  0
 38 92  1  0  0  0  0
 38 93  1  0  0  0  0
 39 94  1  0  0  0  0
 39 95  1  0  0  0  0
 39 96  1  0  0  0  0
 40 43  1  0  0  0  0
 40 97  1  0  0  0  0
 40 98  1  0  0  0  0
 41 44  1  0  0  0  0
 41 45  2  0  0  0  0
 42 99  1  0  0  0  0
 42100  1  0  0  0  0
 42101  1  0  0  0  0
 43 46  2  0  0  0  0
 43102  1  0  0  0  0
 44103  1  0  0  0  0
 44104  1  0  0  0  0
 44105  1  0  0  0  0
 45 47  1  0  0  0  0
 45106  1  0  0  0  0
 46 48  1  0  0  0  0
 46 49  1  0  0  0  0
 47107  1  0  0  0  0
 47108  1  0  0  0  0
 48112  1  0  0  0  0
 48113  1  0  0  0  0
 48114  1  0  0  0  0
 49109  1  0  0  0  0
 49110  1  0  0  0  0
 49111  1  0  0  0  0
M  END
> <PUBCHEM_COMPOUND_CID>
25244578

> <PUBCHEM_COMPOUND_CANONICALIZED>
1

> <PUBCHEM_CACTVS_COMPLEXITY>
1320

> <PUBCHEM_CACTVS_HBOND_ACCEPTOR>
7

> <PUBCHEM_CACTVS_HBOND_DONOR>
3

> <PUBCHEM_CACTVS_ROTATABLE_BOND>
26

> <PUBCHEM_CACTVS_SUBSKEYS>
AAADcfB8OAMAAAAAAAAAAAAAAAAAAAAAAAAAAAAAAAAAAAAAAAAAGgAACCAADACggAICAAAAARCAQiBCAIAAAAAgAAAACAAAAAgABAIAAQAAEAAAgAAIAAIAAAAAAAAAAAAAAAAAAAAAAAAAAAAAAAAAAA==

> <PUBCHEM_IUPAC_OPENEYE_NAME>
[(2Z,6Z,10Z,14Z,18Z,22E,26E)-3,7,11,15,19,23,27,31-octamethyldotriaconta-2,6,10,14,18,22,26,30-octaenyl] phosphono hydrogen phosphate

> <PUBCHEM_IUPAC_CAS_NAME>
[(2Z,6Z,10Z,14Z,18Z,22E,26E)-3,7,11,15,19,23,27,31-octamethyldotriaconta-2,6,10,14,18,22,26,30-octaenyl] phosphono hydrogen phosphate

> <PUBCHEM_IUPAC_NAME>
[(2Z,6Z,10Z,14Z,18Z,22E,26E)-3,7,11,15,19,23,27,31-octamethyldotriaconta-2,6,10,14,18,22,26,30-octaenyl] phosphono hydrogen phosphate

> <PUBCHEM_IUPAC_SYSTEMATIC_NAME>
[(2Z,6Z,10Z,14Z,18Z,22E,26E)-3,7,11,15,19,23,27,31-octamethyldotriaconta-2,6,10,14,18,22,26,30-octaenyl] phosphono hydrogen phosphate

> <PUBCHEM_IUPAC_TRADITIONAL_NAME>
[(2Z,6Z,10Z,14Z,18Z,22E,26E)-3,7,11,15,19,23,27,31-octamethyldotriaconta-2,6,10,14,18,22,26,30-octaenyl] phosphono hydrogen phosphate

> <PUBCHEM_IUPAC_INCHI>
InChI=1S/C40H68O7P2/c1-33(2)17-10-18-34(3)19-11-20-35(4)21-12-22-36(5)23-13-24-37(6)25-14-26-38(7)27-15-28-39(8)29-16-30-40(9)31-32-46-49(44,45)47-48(41,42)43/h17,19,21,23,25,27,29,31H,10-16,18,20,22,24,26,28,30,32H2,1-9H3,(H,44,45)(H2,41,42,43)/b34-19+,35-21+,36-23-,37-25-,38-27-,39-29-,40-31-

> <PUBCHEM_IUPAC_INCHIKEY>
IKKLDISSULFFQO-MXWMMQQISA-N

> <PUBCHEM_XLOGP3_AA>
11.8

> <PUBCHEM_EXACT_MASS>
722.444028

> <PUBCHEM_MOLECULAR_FORMULA>
C40H68O7P2

> <PUBCHEM_MOLECULAR_WEIGHT>
722.911244

> <PUBCHEM_OPENEYE_CAN_SMILES>
CC(=CCCC(=CCCC(=CCCC(=CCCC(=CCCC(=CCCC(=CCCC(=CCOP(=O)(O)OP(=O)(O)O)C)C)C)C)C)C)C)C

> <PUBCHEM_OPENEYE_ISO_SMILES>
CC(=CCC/C(=C/CC/C(=C/CC/C(=C\CC/C(=C\CC/C(=C\CC/C(=C\CC/C(=C\COP(=O)(O)OP(=O)(O)O)/C)/C)/C)/C)/C)/C)/C)C

> <PUBCHEM_CACTVS_TPSA>
113

> <PUBCHEM_MONOISOTOPIC_WEIGHT>
722.444028

> <PUBCHEM_TOTAL_CHARGE>
0

> <PUBCHEM_HEAVY_ATOM_COUNT>
49

> <PUBCHEM_ATOM_DEF_STEREO_COUNT>
0

> <PUBCHEM_ATOM_UDEF_STEREO_COUNT>
0

> <PUBCHEM_BOND_DEF_STEREO_COUNT>
7

> <PUBCHEM_BOND_UDEF_STEREO_COUNT>
0

> <PUBCHEM_ISOTOPIC_ATOM_COUNT>
0

> <PUBCHEM_COMPONENT_COUNT>
1

> <PUBCHEM_CACTVS_TAUTO_COUNT>
1

> <PUBCHEM_COORDINATE_TYPE>
1
5
255

$$$$

