17395599
  -OEChem-06241222513D

 63 67  0     1  0  0  0  0  0999 V2000
   -3.4018   -1.1938   -0.3021 O   0  0  0  0  0  0  0  0  0  0  0  0
    2.4100   -0.5436    0.1334 N   0  0  0  0  0  0  0  0  0  0  0  0
   -0.1315   -1.8246    0.6424 N   0  0  0  0  0  0  0  0  0  0  0  0
   -2.9867   -1.3850    1.8878 N   0  0  0  0  0  0  0  0  0  0  0  0
   -4.1479   -0.6506    1.7357 N   0  0  0  0  0  0  0  0  0  0  0  0
    1.2425    0.2279    0.5774 C   0  0  0  0  0  0  0  0  0  0  0  0
    2.3377   -1.9200    0.6392 C   0  0  0  0  0  0  0  0  0  0  0  0
   -0.0593   -0.4490    0.1346 C   0  0  0  0  0  0  0  0  0  0  0  0
    1.0354   -2.5964    0.1976 C   0  0  0  0  0  0  0  0  0  0  0  0
    3.6507    0.1013    0.5588 C   0  0  0  0  0  0  0  0  0  0  0  0
   -1.3727   -2.4697    0.2191 C   0  0  1  0  0  0  0  0  0  0  0  0
    3.5677    1.6191    0.4926 C   0  0  0  0  0  0  0  0  0  0  0  0
    4.8658   -0.4325   -0.1853 C   0  0  0  0  0  0  0  0  0  0  0  0
   -1.4082   -3.9081    0.7383 C   0  0  0  0  0  0  0  0  0  0  0  0
   -2.5867   -1.6806    0.6731 C   0  0  0  0  0  0  0  0  0  0  0  0
    3.9342    2.2873   -0.6756 C   0  0  0  0  0  0  0  0  0  0  0  0
    6.1134   -0.4494    0.4383 C   0  0  0  0  0  0  0  0  0  0  0  0
    3.1252    2.3425    1.6001 C   0  0  0  0  0  0  0  0  0  0  0  0
    4.7324   -0.9047   -1.4909 C   0  0  0  0  0  0  0  0  0  0  0  0
    3.8582    3.6788   -0.7364 C   0  0  0  0  0  0  0  0  0  0  0  0
    7.2274   -0.9387   -0.2437 C   0  0  0  0  0  0  0  0  0  0  0  0
    3.0492    3.7339    1.5393 C   0  0  0  0  0  0  0  0  0  0  0  0
    5.8465   -1.3939   -2.1729 C   0  0  0  0  0  0  0  0  0  0  0  0
   -4.3516   -0.5638    0.4420 C   0  0  0  0  0  0  0  0  0  0  0  0
    3.4157    4.4021    0.3711 C   0  0  0  0  0  0  0  0  0  0  0  0
    7.0940   -1.4110   -1.5493 C   0  0  0  0  0  0  0  0  0  0  0  0
   -5.4016    0.0789   -0.2935 C   0  0  0  0  0  0  0  0  0  0  0  0
   -6.4188    0.7505    0.3845 C   0  0  0  0  0  0  0  0  0  0  0  0
   -5.4050    0.0329   -1.6877 C   0  0  0  0  0  0  0  0  0  0  0  0
   -7.4393    1.3763   -0.3315 C   0  0  0  0  0  0  0  0  0  0  0  0
   -6.4254    0.6585   -2.4038 C   0  0  0  0  0  0  0  0  0  0  0  0
   -7.4426    1.3302   -1.7256 C   0  0  0  0  0  0  0  0  0  0  0  0
   -8.5265    2.0954    0.3931 C   0  0  0  0  0  0  0  0  0  0  0  0
    1.2219    0.3371    1.6698 H   0  0  0  0  0  0  0  0  0  0  0  0
    1.2019    1.2189    0.1131 H   0  0  0  0  0  0  0  0  0  0  0  0
    2.3982   -1.9378    1.7365 H   0  0  0  0  0  0  0  0  0  0  0  0
    3.1698   -2.5257    0.2629 H   0  0  0  0  0  0  0  0  0  0  0  0
   -0.1284   -0.4318   -0.9620 H   0  0  0  0  0  0  0  0  0  0  0  0
   -0.8791    0.1658    0.5234 H   0  0  0  0  0  0  0  0  0  0  0  0
    1.0353   -2.7237   -0.8934 H   0  0  0  0  0  0  0  0  0  0  0  0
    1.0586   -3.5925    0.6509 H   0  0  0  0  0  0  0  0  0  0  0  0
    3.8154   -0.1426    1.6206 H   0  0  0  0  0  0  0  0  0  0  0  0
   -1.4123   -2.5201   -0.8790 H   0  0  0  0  0  0  0  0  0  0  0  0
   -2.4138   -4.3301    0.6166 H   0  0  0  0  0  0  0  0  0  0  0  0
   -0.7332   -4.5729    0.1899 H   0  0  0  0  0  0  0  0  0  0  0  0
   -1.1723   -3.9631    1.8078 H   0  0  0  0  0  0  0  0  0  0  0  0
    4.2624    1.7650   -1.5676 H   0  0  0  0  0  0  0  0  0  0  0  0
    6.2317   -0.0832    1.4547 H   0  0  0  0  0  0  0  0  0  0  0  0
    2.8500    1.8412    2.5241 H   0  0  0  0  0  0  0  0  0  0  0  0
    3.7793   -0.8912   -2.0124 H   0  0  0  0  0  0  0  0  0  0  0  0
    4.1386    4.1992   -1.6475 H   0  0  0  0  0  0  0  0  0  0  0  0
    8.1989   -0.9514    0.2416 H   0  0  0  0  0  0  0  0  0  0  0  0
    2.7076    4.2974    2.4027 H   0  0  0  0  0  0  0  0  0  0  0  0
    5.7436   -1.7581   -3.1910 H   0  0  0  0  0  0  0  0  0  0  0  0
    3.3560    5.4855    0.3236 H   0  0  0  0  0  0  0  0  0  0  0  0
    7.9616   -1.7910   -2.0807 H   0  0  0  0  0  0  0  0  0  0  0  0
   -6.4267    0.7911    1.4718 H   0  0  0  0  0  0  0  0  0  0  0  0
   -4.6302   -0.4803   -2.2515 H   0  0  0  0  0  0  0  0  0  0  0  0
   -6.4285    0.6226   -3.4894 H   0  0  0  0  0  0  0  0  0  0  0  0
   -8.2328    1.8122   -2.2952 H   0  0  0  0  0  0  0  0  0  0  0  0
   -8.9587    2.8898   -0.2249 H   0  0  0  0  0  0  0  0  0  0  0  0
   -8.1447    2.5701    1.3033 H   0  0  0  0  0  0  0  0  0  0  0  0
   -9.3217    1.3953    0.6676 H   0  0  0  0  0  0  0  0  0  0  0  0
  1 15  1  0  0  0  0
  1 24  1  0  0  0  0
  2  6  1  0  0  0  0
  2  7  1  0  0  0  0
  2 10  1  0  0  0  0
  3  8  1  0  0  0  0
  3  9  1  0  0  0  0
  3 11  1  0  0  0  0
  4  5  1  0  0  0  0
  4 15  2  0  0  0  0
  5 24  2  0  0  0  0
  6  8  1  0  0  0  0
  6 34  1  0  0  0  0
  6 35  1  0  0  0  0
  7  9  1  0  0  0  0
  7 36  1  0  0  0  0
  7 37  1  0  0  0  0
  8 38  1  0  0  0  0
  8 39  1  0  0  0  0
  9 40  1  0  0  0  0
  9 41  1  0  0  0  0
 10 12  1  0  0  0  0
 10 13  1  0  0  0  0
 10 42  1  0  0  0  0
 11 14  1  0  0  0  0
 11 15  1  0  0  0  0
 11 43  1  0  0  0  0
 12 16  2  0  0  0  0
 12 18  1  0  0  0  0
 13 17  2  0  0  0  0
 13 19  1  0  0  0  0
 14 44  1  0  0  0  0
 14 45  1  0  0  0  0
 14 46  1  0  0  0  0
 16 20  1  0  0  0  0
 16 47  1  0  0  0  0
 17 21  1  0  0  0  0
 17 48  1  0  0  0  0
 18 22  2  0  0  0  0
 18 49  1  0  0  0  0
 19 23  2  0  0  0  0
 19 50  1  0  0  0  0
 20 25  2  0  0  0  0
 20 51  1  0  0  0  0
 21 26  2  0  0  0  0
 21 52  1  0  0  0  0
 22 25  1  0  0  0  0
 22 53  1  0  0  0  0
 23 26  1  0  0  0  0
 23 54  1  0  0  0  0
 24 27  1  0  0  0  0
 25 55  1  0  0  0  0
 26 56  1  0  0  0  0
 27 28  1  0  0  0  0
 27 29  2  0  0  0  0
 28 30  2  0  0  0  0
 28 57  1  0  0  0  0
 29 31  1  0  0  0  0
 29 58  1  0  0  0  0
 30 32  1  0  0  0  0
 30 33  1  0  0  0  0
 31 32  2  0  0  0  0
 31 59  1  0  0  0  0
 32 60  1  0  0  0  0
 33 61  1  0  0  0  0
 33 62  1  0  0  0  0
 33 63  1  0  0  0  0
M  END
> <PUBCHEM_COMPOUND_CID>
17395599

> <PUBCHEM_CONFORMER_RMSD>
1

> <PUBCHEM_CONFORMER_DIVERSEORDER>
2
157
32
31
100
151
135
33
158
143
197
80
194
193
66
103
190
132
117
43
70
119
159
112
74
81
124
196
122
63
69
92
54
111
93
183
169
28
144
102
166
177
46
174
171
156
179
85
96
139
168
57
189
114
118
129
10
44
94
106
62
45
78
201
186
138
99
178
192
198
116
133
127
105
149
91
39
191
52
110
165
75
22
137
64
88
200
188
5
123
199
160
163
12
68
115
101
154
97
134
184
30
48
95
1
153
42
185
161
155
84
36
187
27
164
104
113
180
7
172
50
142
162
175
40
72
145
136
83
128
120
82
41
152
59
150
58
25
35
37
87
61
131
195
181
182
8
76
86
167
141
17
202
148
47
20
147
126
56
77
90
34
89
26
79
14
18
121
53
9
130
6
109
108
73
146
140
71
21
173
19
13
60
65
55
15
176
49
38
16
170
125
67
51
24
23
4
3
107
11
98
29

> <PUBCHEM_MMFF94_PARTIAL_CHARGES>
46
1 -0.28
10 0.56
11 0.45
12 -0.14
13 -0.14
15 0.3
16 -0.15
17 -0.15
18 -0.15
19 -0.15
2 -0.81
20 -0.15
21 -0.15
22 -0.15
23 -0.15
24 0.43
25 -0.15
26 -0.15
27 0.05
28 -0.15
29 -0.15
3 -0.81
30 -0.14
31 -0.15
32 -0.15
33 0.14
4 -0.34
47 0.15
48 0.15
49 0.15
5 -0.34
50 0.15
51 0.15
52 0.15
53 0.15
54 0.15
55 0.15
56 0.15
57 0.15
58 0.15
59 0.15
6 0.27
60 0.15
7 0.27
8 0.27
9 0.27

> <PUBCHEM_EFFECTIVE_ROTOR_COUNT>
7.2

> <PUBCHEM_PHARMACOPHORE_FEATURES>
7
1 2 cation
1 3 cation
5 1 4 5 15 24 rings
6 12 16 18 20 22 25 rings
6 13 17 19 21 23 26 rings
6 2 3 6 7 8 9 rings
6 27 28 29 30 31 32 rings

> <PUBCHEM_HEAVY_ATOM_COUNT>
33

> <PUBCHEM_ATOM_DEF_STEREO_COUNT>
0

> <PUBCHEM_ATOM_UDEF_STEREO_COUNT>
1

> <PUBCHEM_BOND_DEF_STEREO_COUNT>
0

> <PUBCHEM_BOND_UDEF_STEREO_COUNT>
0

> <PUBCHEM_ISOTOPIC_ATOM_COUNT>
0

> <PUBCHEM_COMPONENT_COUNT>
1

> <PUBCHEM_CACTVS_TAUTO_COUNT>
1

> <PUBCHEM_CONFORMER_ID>
01096F8F00000002

> <PUBCHEM_MMFF94_ENERGY>
90.7975

> <PUBCHEM_FEATURE_SELFOVERLAP>
35.523

> <PUBCHEM_SHAPE_FINGERPRINT>
10 15 16271920546053809935
10763959 59 18412544306031133582
10811444 77 18259984855684641068
10985338 8 17693664714964075416
11115154 58 17458903842103286992
11386260 185 18333735697667020732
12422481 6 17131285579638017621
12664476 115 17988925591769554373
13540713 4 18193833743748926602
13878862 14 18336561425333443516
13944108 23 18269554012650018580
14028597 1 13254795767591317774
14040222 275 18334283276011559492
15064981 113 17168133568374778525
15064981 194 18261381214626121155
15183329 4 17822573905580985719
15198563 99 18118946213757393036
15347590 135 11023825050906710574
15357212 105 16986851472533096092
15530120 55 17532952501713281725
16988056 13 18335983087097834312
16994733 274 16271631284274888804
18335252 114 18336270123434214134
18365409 1 17317866290465067384
20691028 202 18412546479865399193
20715895 44 18410300176886777104
21033648 29 18059298664551150330
21133410 127 17767126397475946260
21223535 225 18188765192940247313
21857420 4 18335124420293104156
21859007 373 18201453475314545516
23559900 14 18188486879233371266
23576562 1 18263642875283727070
249057 25 16660636349960054001
249057 3 18408603660794673878
2747138 104 17629469806048861259
2748736 6 18340784641464946153
2838139 119 18271537459281878543
3663271 9 12103573017413638085
376196 1 18342462513025168899
4015057 19 17968093062741644611
4144715 1 18055628426192672730
44317340 157 18041560226829120395
54076057 255 17275095120882630636
6086070 43 18409450276121743178
6371009 1 18334581264836440049
6371380 46 18341895182236227626
6695519 79 12030939128827316838

> <PUBCHEM_SHAPE_MULTIPOLES>
653.33
22.7
4.26
1.73
29.06
3.18
0.65
7.97
9.87
-4.44
-1.22
0.65
0.06
2.93

> <PUBCHEM_SHAPE_SELFOVERLAP>
1423.307

> <PUBCHEM_SHAPE_VOLUME>
355.8

> <PUBCHEM_COORDINATE_TYPE>
2
5
10

$$$$

