5281944
  -OEChem-07051213013D

 55 57  0     0  0  0  0  0  0999 V2000
   -0.3563   -0.7028    0.7486 O   0  0  0  0  0  0  0  0  0  0  0  0
    4.0062    0.6980    2.0457 O   0  0  0  0  0  0  0  0  0  0  0  0
    3.5808   -3.0637   -0.8078 O   0  0  0  0  0  0  0  0  0  0  0  0
    1.1430   -3.7717   -1.4725 O   0  0  0  0  0  0  0  0  0  0  0  0
    1.8081   -0.0106    1.3902 C   0  0  0  0  0  0  0  0  0  0  0  0
    1.1957    1.0984    2.1933 C   0  0  0  0  0  0  0  0  0  0  0  0
    1.0000   -0.8967    0.6775 C   0  0  0  0  0  0  0  0  0  0  0  0
    1.5791   -1.9250   -0.0641 C   0  0  0  0  0  0  0  0  0  0  0  0
   -0.1230    3.0039    1.1018 C   0  0  0  0  0  0  0  0  0  0  0  0
   -0.2123    4.2953    0.3159 C   0  0  0  0  0  0  0  0  0  0  0  0
    1.0235    2.3568    1.3897 C   0  0  0  0  0  0  0  0  0  0  0  0
    3.1951   -0.1572    1.3573 C   0  0  0  0  0  0  0  0  0  0  0  0
   -0.4768    4.0916   -1.1819 C   0  0  0  0  0  0  0  0  0  0  0  0
    2.9672   -2.0753   -0.0995 C   0  0  0  0  0  0  0  0  0  0  0  0
    3.7732   -1.1872    0.6139 C   0  0  0  0  0  0  0  0  0  0  0  0
    0.7034   -2.8461   -0.8045 C   0  0  0  0  0  0  0  0  0  0  0  0
   -1.1844   -1.5640    0.0449 C   0  0  0  0  0  0  0  0  0  0  0  0
   -1.4377    2.4682    1.6082 C   0  0  0  0  0  0  0  0  0  0  0  0
   -0.7479   -2.5937   -0.6978 C   0  0  0  0  0  0  0  0  0  0  0  0
    0.6626    3.4025   -1.8805 C   0  0  0  0  0  0  0  0  0  0  0  0
   -2.6235   -1.2692    0.1955 C   0  0  0  0  0  0  0  0  0  0  0  0
    0.6411    2.2411   -2.5612 C   0  0  0  0  0  0  0  0  0  0  0  0
   -3.5160   -1.5840   -0.8325 C   0  0  0  0  0  0  0  0  0  0  0  0
   -3.0996   -0.6741    1.3666 C   0  0  0  0  0  0  0  0  0  0  0  0
   -0.6437    1.4697   -2.7071 C   0  0  0  0  0  0  0  0  0  0  0  0
    1.8233    1.6077   -3.2378 C   0  0  0  0  0  0  0  0  0  0  0  0
   -4.8752   -1.3053   -0.6905 C   0  0  0  0  0  0  0  0  0  0  0  0
   -4.4590   -0.3955    1.5085 C   0  0  0  0  0  0  0  0  0  0  0  0
   -5.3468   -0.7112    0.4800 C   0  0  0  0  0  0  0  0  0  0  0  0
    1.8399    1.3387    3.0497 H   0  0  0  0  0  0  0  0  0  0  0  0
    0.2828    0.7341    2.6681 H   0  0  0  0  0  0  0  0  0  0  0  0
    0.7210    4.8607    0.4435 H   0  0  0  0  0  0  0  0  0  0  0  0
   -0.9971    4.9335    0.7407 H   0  0  0  0  0  0  0  0  0  0  0  0
    1.9495    2.7983    1.0219 H   0  0  0  0  0  0  0  0  0  0  0  0
   -0.5908    5.0806   -1.6443 H   0  0  0  0  0  0  0  0  0  0  0  0
   -1.4378    3.5903   -1.3233 H   0  0  0  0  0  0  0  0  0  0  0  0
    4.8541   -1.3037    0.5866 H   0  0  0  0  0  0  0  0  0  0  0  0
   -2.0436    3.2904    2.0065 H   0  0  0  0  0  0  0  0  0  0  0  0
   -1.3692    1.7451    2.4189 H   0  0  0  0  0  0  0  0  0  0  0  0
   -1.9939    2.0190    0.7800 H   0  0  0  0  0  0  0  0  0  0  0  0
   -1.3978   -3.2823   -1.2249 H   0  0  0  0  0  0  0  0  0  0  0  0
    1.6157    3.9268   -1.8191 H   0  0  0  0  0  0  0  0  0  0  0  0
    4.9333    0.4411    1.9024 H   0  0  0  0  0  0  0  0  0  0  0  0
   -3.1857   -2.0262   -1.7687 H   0  0  0  0  0  0  0  0  0  0  0  0
   -2.4343   -0.4364    2.1924 H   0  0  0  0  0  0  0  0  0  0  0  0
    2.9248   -3.6133   -1.2631 H   0  0  0  0  0  0  0  0  0  0  0  0
   -1.3340    1.6025   -1.8709 H   0  0  0  0  0  0  0  0  0  0  0  0
   -0.4358    0.3939   -2.7455 H   0  0  0  0  0  0  0  0  0  0  0  0
   -1.1485    1.7468   -3.6378 H   0  0  0  0  0  0  0  0  0  0  0  0
    2.0346    0.6270   -2.7993 H   0  0  0  0  0  0  0  0  0  0  0  0
    2.7237    2.2217   -3.1318 H   0  0  0  0  0  0  0  0  0  0  0  0
    1.6283    1.4807   -4.3074 H   0  0  0  0  0  0  0  0  0  0  0  0
   -5.5662   -1.5461   -1.4931 H   0  0  0  0  0  0  0  0  0  0  0  0
   -4.8269    0.0636    2.4215 H   0  0  0  0  0  0  0  0  0  0  0  0
   -6.4052   -0.4938    0.5905 H   0  0  0  0  0  0  0  0  0  0  0  0
  1  7  1  0  0  0  0
  1 17  1  0  0  0  0
  2 12  1  0  0  0  0
  2 43  1  0  0  0  0
  3 14  1  0  0  0  0
  3 46  1  0  0  0  0
  4 16  2  0  0  0  0
  5  6  1  0  0  0  0
  5  7  2  0  0  0  0
  5 12  1  0  0  0  0
  6 11  1  0  0  0  0
  6 30  1  0  0  0  0
  6 31  1  0  0  0  0
  7  8  1  0  0  0  0
  8 14  2  0  0  0  0
  8 16  1  0  0  0  0
  9 10  1  0  0  0  0
  9 11  2  0  0  0  0
  9 18  1  0  0  0  0
 10 13  1  0  0  0  0
 10 32  1  0  0  0  0
 10 33  1  0  0  0  0
 11 34  1  0  0  0  0
 12 15  2  0  0  0  0
 13 20  1  0  0  0  0
 13 35  1  0  0  0  0
 13 36  1  0  0  0  0
 14 15  1  0  0  0  0
 15 37  1  0  0  0  0
 16 19  1  0  0  0  0
 17 19  2  0  0  0  0
 17 21  1  0  0  0  0
 18 38  1  0  0  0  0
 18 39  1  0  0  0  0
 18 40  1  0  0  0  0
 19 41  1  0  0  0  0
 20 22  2  0  0  0  0
 20 42  1  0  0  0  0
 21 23  2  0  0  0  0
 21 24  1  0  0  0  0
 22 25  1  0  0  0  0
 22 26  1  0  0  0  0
 23 27  1  0  0  0  0
 23 44  1  0  0  0  0
 24 28  2  0  0  0  0
 24 45  1  0  0  0  0
 25 47  1  0  0  0  0
 25 48  1  0  0  0  0
 25 49  1  0  0  0  0
 26 50  1  0  0  0  0
 26 51  1  0  0  0  0
 26 52  1  0  0  0  0
 27 29  2  0  0  0  0
 27 53  1  0  0  0  0
 28 29  1  0  0  0  0
 28 54  1  0  0  0  0
 29 55  1  0  0  0  0
M  END
> <PUBCHEM_COMPOUND_CID>
5281944

> <PUBCHEM_CONFORMER_RMSD>
0.8

> <PUBCHEM_CONFORMER_DIVERSEORDER>
1
176
179
199
156
62
113
224
211
157
201
210
248
142
256
68
50
185
91
57
31
20
55
86
106
56
221
251
191
259
137
193
52
111
219
238
222
262
198
180
200
250
209
63
6
232
47
96
103
110
66
159
42
202
234
188
100
116
132
2
167
83
93
241
123
78
190
67
255
128
257
206
237
73
192
207
120
28
158
226
17
174
177
143
154
49
216
260
231
151
88
115
64
125
246
244
196
76
99
166
53
117
124
21
242
175
187
46
84
40
148
225
229
170
235
131
75
36
24
80
164
51
171
253
4
173
22
87
133
44
145
184
79
215
102
228
71
39
70
194
252
197
220
150
60
204
104
134
107
129
240
29
178
126
97
203
181
108
15
153
243
95
249
146
119
189
233
82
169
139
160
182
223
109
72
101
239
135
94
61
195
65
165
122
74
12
118
186
149
258
30
16
230
130
183
26
69
90
141
54
98
27
140
227
114
34
7
85
212
13
163
58
161
43
218
89
205
10
92
9
48
18
35
59
144
112
138
33
23
261
172
38
105
236
152
147
77
37
245
213
121
168
214
208
155
19
127
162
41
11
254
32
3
45
14
5
136
217
8
247
25
81

> <PUBCHEM_MMFF94_PARTIAL_CHARGES>
40
1 -0.16
10 0.14
11 -0.29
12 0.08
13 0.14
14 0.08
15 -0.15
16 0.47
17 0.05
18 0.14
19 -0.14
2 -0.53
20 -0.29
21 0.03
22 -0.28
23 -0.15
24 -0.15
25 0.14
26 0.14
27 -0.15
28 -0.15
29 -0.15
3 -0.53
34 0.15
37 0.15
4 -0.57
41 0.15
42 0.15
43 0.45
44 0.15
45 0.15
46 0.45
5 -0.14
53 0.15
54 0.15
55 0.15
6 0.28
7 0.08
8 0.09
9 -0.28

> <PUBCHEM_EFFECTIVE_ROTOR_COUNT>
6

> <PUBCHEM_PHARMACOPHORE_FEATURES>
10
1 1 acceptor
1 18 hydrophobe
1 2 donor
1 3 donor
1 4 acceptor
3 22 25 26 hydrophobe
4 9 10 13 20 hydrophobe
6 1 7 8 16 17 19 rings
6 21 23 24 27 28 29 rings
6 5 7 8 12 14 15 rings

> <PUBCHEM_HEAVY_ATOM_COUNT>
29

> <PUBCHEM_ATOM_DEF_STEREO_COUNT>
0

> <PUBCHEM_ATOM_UDEF_STEREO_COUNT>
0

> <PUBCHEM_BOND_DEF_STEREO_COUNT>
1

> <PUBCHEM_BOND_UDEF_STEREO_COUNT>
0

> <PUBCHEM_ISOTOPIC_ATOM_COUNT>
0

> <PUBCHEM_COMPONENT_COUNT>
1

> <PUBCHEM_CACTVS_TAUTO_COUNT>
12

> <PUBCHEM_CONFORMER_ID>
0050989800000001

> <PUBCHEM_MMFF94_ENERGY>
71.4397

> <PUBCHEM_FEATURE_SELFOVERLAP>
50.777

> <PUBCHEM_SHAPE_FINGERPRINT>
10688039 33 18340485685301064323
11244481 83 16987433093115144577
11513181 2 17894344466964357015
11640471 11 16185825146912648109
12156800 1 17680677587799106684
12422481 6 17484275996533555992
12539773 59 14679352323992997325
133893 2 16910904807099040254
13965767 371 17826831098881782690
14790565 3 18044378219112407184
14955137 171 18196921185247381682
15274700 242 17332745727962672764
17357779 13 18265634206721304049
17980427 26 15649059217273025490
1813 80 18201999941061860163
20600515 1 17917994975115805419
20739085 24 18262222379048490931
21641784 216 18196347403613072694
35225 105 17828766479622399149
4409770 3 17833598696520315552
469060 322 17702944880347342056
474 4 18115598041298650019
513532 50 17605545549308111677
81228 2 17841986981965380999
9925002 15 17979885496690535933

> <PUBCHEM_SHAPE_MULTIPOLES>
573.33
6.88
5.27
2.64
8.49
3.5
1.38
-4.72
-2.09
-2.74
2.23
-1.39
2.05
-0.47

> <PUBCHEM_SHAPE_SELFOVERLAP>
1228.832

> <PUBCHEM_SHAPE_VOLUME>
316.1

> <PUBCHEM_COORDINATE_TYPE>
2
5
10

$$$$

