441321
  -OEChem-07051212543D

 25 27  0     0  0  0  0  0  0999 V2000
    2.6641   -2.0172    0.0000 O   0  0  0  0  0  0  0  0  0  0  0  0
    4.2591    0.2661    0.0005 O   0  0  0  0  0  0  0  0  0  0  0  0
   -0.3318   -1.6975   -0.0001 C   0  0  0  0  0  0  0  0  0  0  0  0
    0.7320   -0.6197   -0.0002 C   0  0  0  0  0  0  0  0  0  0  0  0
    0.1375    0.6622   -0.0002 C   0  0  0  0  0  0  0  0  0  0  0  0
   -1.6038   -0.8756   -0.0001 C   0  0  0  0  0  0  0  0  0  0  0  0
   -1.3010    0.5046   -0.0002 C   0  0  0  0  0  0  0  0  0  0  0  0
    2.1067   -0.7792    0.0000 C   0  0  0  0  0  0  0  0  0  0  0  0
    0.9237    1.8023   -0.0001 C   0  0  0  0  0  0  0  0  0  0  0  0
   -2.9113   -1.3291    0.0000 C   0  0  0  0  0  0  0  0  0  0  0  0
   -2.3154    1.4474    0.0000 C   0  0  0  0  0  0  0  0  0  0  0  0
    2.8989    0.3702    0.0000 C   0  0  0  0  0  0  0  0  0  0  0  0
    2.3134    1.6481   -0.0001 C   0  0  0  0  0  0  0  0  0  0  0  0
   -3.9336   -0.3785    0.0002 C   0  0  0  0  0  0  0  0  0  0  0  0
   -3.6387    0.9959    0.0003 C   0  0  0  0  0  0  0  0  0  0  0  0
   -0.2685   -2.3077    0.9057 H   0  0  0  0  0  0  0  0  0  0  0  0
   -0.2685   -2.3079   -0.9057 H   0  0  0  0  0  0  0  0  0  0  0  0
    0.4863    2.7950    0.0000 H   0  0  0  0  0  0  0  0  0  0  0  0
   -3.1402   -2.3889    0.0000 H   0  0  0  0  0  0  0  0  0  0  0  0
   -2.1036    2.5114    0.0001 H   0  0  0  0  0  0  0  0  0  0  0  0
    2.9393    2.5375    0.0000 H   0  0  0  0  0  0  0  0  0  0  0  0
   -4.9708   -0.7031    0.0003 H   0  0  0  0  0  0  0  0  0  0  0  0
   -4.4522    1.7168    0.0005 H   0  0  0  0  0  0  0  0  0  0  0  0
    1.9634   -2.6903    0.0000 H   0  0  0  0  0  0  0  0  0  0  0  0
    4.6453    1.1587    0.0006 H   0  0  0  0  0  0  0  0  0  0  0  0
  1  8  1  0  0  0  0
  1 24  1  0  0  0  0
  2 12  1  0  0  0  0
  2 25  1  0  0  0  0
  3  4  1  0  0  0  0
  3  6  1  0  0  0  0
  3 16  1  0  0  0  0
  3 17  1  0  0  0  0
  4  5  2  0  0  0  0
  4  8  1  0  0  0  0
  5  7  1  0  0  0  0
  5  9  1  0  0  0  0
  6  7  1  0  0  0  0
  6 10  2  0  0  0  0
  7 11  2  0  0  0  0
  8 12  2  0  0  0  0
  9 13  2  0  0  0  0
  9 18  1  0  0  0  0
 10 14  1  0  0  0  0
 10 19  1  0  0  0  0
 11 15  1  0  0  0  0
 11 20  1  0  0  0  0
 12 13  1  0  0  0  0
 13 21  1  0  0  0  0
 14 15  2  0  0  0  0
 14 22  1  0  0  0  0
 15 23  1  0  0  0  0
M  END
> <PUBCHEM_COMPOUND_CID>
441321

> <PUBCHEM_CONFORMER_RMSD>
0.4

> <PUBCHEM_CONFORMER_DIVERSEORDER>
1

> <PUBCHEM_MMFF94_PARTIAL_CHARGES>
21
1 -0.53
10 -0.15
11 -0.15
12 0.08
13 -0.15
14 -0.15
15 -0.15
18 0.15
19 0.15
2 -0.53
20 0.15
21 0.15
22 0.15
23 0.15
24 0.45
25 0.45
3 0.29
4 -0.14
6 -0.14
8 0.08
9 -0.15

> <PUBCHEM_EFFECTIVE_ROTOR_COUNT>
0.2

> <PUBCHEM_PHARMACOPHORE_FEATURES>
5
1 1 donor
1 2 donor
5 3 4 5 6 7 rings
6 4 5 8 9 12 13 rings
6 6 7 10 11 14 15 rings

> <PUBCHEM_HEAVY_ATOM_COUNT>
15

> <PUBCHEM_ATOM_DEF_STEREO_COUNT>
0

> <PUBCHEM_ATOM_UDEF_STEREO_COUNT>
0

> <PUBCHEM_BOND_DEF_STEREO_COUNT>
0

> <PUBCHEM_BOND_UDEF_STEREO_COUNT>
0

> <PUBCHEM_ISOTOPIC_ATOM_COUNT>
0

> <PUBCHEM_COMPONENT_COUNT>
1

> <PUBCHEM_CACTVS_TAUTO_COUNT>
19

> <PUBCHEM_CONFORMER_ID>
0006BBE900000001

> <PUBCHEM_MMFF94_ENERGY>
49.4714

> <PUBCHEM_FEATURE_SELFOVERLAP>
25.54

> <PUBCHEM_SHAPE_FINGERPRINT>
10411042 1 15672385807970819913
10608611 8 18411141320514849749
10967382 1 18410855455954572263
10980938 120 18411418418930078058
11132069 177 18410016537077639793
11471102 20 18410860974887288527
12032990 46 18410005567720700694
12251169 10 18410572877350608129
13140716 1 17906453225291236803
13221675 6 18410573967992797934
13380535 76 18411138013152551058
13571099 22 18334012834446407719
14144814 61 18410575093421857697
14325111 11 18410855460407925025
14790565 3 15594959281179180484
15196674 1 18410575110432889191
15219456 202 18410291436680953311
15309172 13 18335411353466326763
15442244 35 18265614470977197016
15536298 74 18334295396424507502
15775835 57 18413385449416405773
16945 1 18266740186174110983
17802600 8 18410580556704881477
18186145 218 18334851762003127597
18522853 276 18407761421522977761
200 152 18041287590974096445
20201158 50 18410855447301444650
20510252 161 18260545653981045673
20645477 70 18336269045529597127
21267235 1 18410565171936900335
21501502 16 18410292501901297549
221490 88 18340760455823412538
2334 1 18410856572561634215
23402539 116 18261402134567690877
23402655 69 18335711580592109301
23463225 33 18411982485316435988
23559900 14 18335422430556274110
238 59 16045101437187317093
2748010 2 18410856602610581223
3312278 4 18408600353231954289
335352 9 18050568735737585693
5104073 3 18410575088979152715
528886 8 18410016541388366448
53812653 166 18335424551832177688
69090 78 18334018268023298343
7364860 26 18334576837067697658
8809292 202 18200590285392612147
9709674 26 18410569557077722423

> <PUBCHEM_SHAPE_MULTIPOLES>
296.95
6.45
1.94
0.6
0.25
0.1
0
-0.21
0
-0.3
0
0.04
-0.01
0

> <PUBCHEM_SHAPE_SELFOVERLAP>
672.092

> <PUBCHEM_SHAPE_VOLUME>
157.8

> <PUBCHEM_COORDINATE_TYPE>
2
5
10

$$$$

