442391
  -OEChem-07051212582D

 41 43  0     1  0  0  0  0  0999 V2000
    4.1507    0.2412    0.0000 O   0  0  0  0  0  0  0  0  0  0  0  0
    3.9281    1.2162    0.0000 O   0  0  0  0  0  0  0  0  0  0  0  0
    5.4847   -0.6675    0.0000 O   0  0  0  0  0  0  0  0  0  0  0  0
    5.7330    2.6885    0.0000 O   0  0  0  0  0  0  0  0  0  0  0  0
    2.9010   -0.0440    0.0000 C   0  0  2  0  0  0  0  0  0  0  0  0
    3.8019   -0.4779    0.0000 C   0  0  1  0  0  0  0  0  0  0  0  0
    3.6659   -1.4626    0.0000 C   0  0  2  0  0  0  0  0  0  0  0  0
    2.2159   -0.7643    0.0000 C   0  0  0  0  0  0  0  0  0  0  0  0
    2.6877   -1.6393    0.0000 C   0  0  0  0  0  0  0  0  0  0  0  0
    2.6785    0.9309    0.0000 C   0  0  0  0  0  0  0  0  0  0  0  0
    4.7029   -0.0440    0.0000 C   0  0  2  0  0  0  0  0  0  0  0  0
    4.3875   -2.1549    0.0000 C   0  0  0  0  0  0  0  0  0  0  0  0
    3.3019    1.7128    0.0000 C   0  0  1  0  0  0  0  0  0  0  0  0
    2.0000    0.3899    0.0000 C   0  0  0  0  0  0  0  0  0  0  0  0
    4.9254    0.9309    0.0000 C   0  0  0  0  0  0  0  0  0  0  0  0
    4.3019    1.7128    0.0000 C   0  0  0  0  0  0  0  0  0  0  0  0
    4.1488   -3.1260    0.0000 C   0  0  0  0  0  0  0  0  0  0  0  0
    5.3479   -1.8762    0.0000 C   0  0  0  0  0  0  0  0  0  0  0  0
    4.7358    2.6137    0.0000 C   0  0  0  0  0  0  0  0  0  0  0  0
    3.4869   -2.0562    0.0000 H   0  0  0  0  0  0  0  0  0  0  0  0
    1.8140   -0.2921    0.0000 H   0  0  0  0  0  0  0  0  0  0  0  0
    1.7041   -1.1143    0.0000 H   0  0  0  0  0  0  0  0  0  0  0  0
    2.1141   -1.8746    0.0000 H   0  0  0  0  0  0  0  0  0  0  0  0
    2.8614   -2.2344    0.0000 H   0  0  0  0  0  0  0  0  0  0  0  0
    2.2919    1.4157    0.0000 H   0  0  0  0  0  0  0  0  0  0  0  0
    2.1198    0.6619    0.0000 H   0  0  0  0  0  0  0  0  0  0  0  0
    5.2881    0.1608    0.0000 H   0  0  0  0  0  0  0  0  0  0  0  0
    4.5356   -1.5528    0.0000 H   0  0  0  0  0  0  0  0  0  0  0  0
    3.1128    2.5415    0.0000 H   0  0  0  0  0  0  0  0  0  0  0  0
    2.2690    0.9485    0.0000 H   0  0  0  0  0  0  0  0  0  0  0  0
    1.4414    0.6589    0.0000 H   0  0  0  0  0  0  0  0  0  0  0  0
    1.7310   -0.1687    0.0000 H   0  0  0  0  0  0  0  0  0  0  0  0
    5.5299    1.0689    0.0000 H   0  0  0  0  0  0  0  0  0  0  0  0
    3.5467   -2.9780    0.0000 H   0  0  0  0  0  0  0  0  0  0  0  0
    4.0008   -3.7281    0.0000 H   0  0  0  0  0  0  0  0  0  0  0  0
    4.7508   -3.2740    0.0000 H   0  0  0  0  0  0  0  0  0  0  0  0
    5.5207   -2.4716    0.0000 H   0  0  0  0  0  0  0  0  0  0  0  0
    5.9433   -1.7033    0.0000 H   0  0  0  0  0  0  0  0  0  0  0  0
    5.1751   -1.2807    0.0000 H   0  0  0  0  0  0  0  0  0  0  0  0
    6.0619   -0.4410    0.0000 H   0  0  0  0  0  0  0  0  0  0  0  0
    4.3866    3.1260    0.0000 H   0  0  0  0  0  0  0  0  0  0  0  0
  1  2  1  0  0  0  0
  6  1  1  6  0  0  0
  2 13  1  0  0  0  0
 11  3  1  6  0  0  0
  3 40  1  0  0  0  0
  4 19  2  0  0  0  0
  5  6  1  0  0  0  0
  5  8  1  0  0  0  0
  5 10  1  0  0  0  0
  5 14  1  1  0  0  0
  6  7  1  0  0  0  0
  6 11  1  0  0  0  0
  7  9  1  0  0  0  0
  7 12  1  1  0  0  0
  7 20  1  0  0  0  0
  8  9  1  0  0  0  0
  8 21  1  0  0  0  0
  8 22  1  0  0  0  0
  9 23  1  0  0  0  0
  9 24  1  0  0  0  0
 10 13  1  0  0  0  0
 10 25  1  0  0  0  0
 10 26  1  0  0  0  0
 11 15  1  0  0  0  0
 11 27  1  0  0  0  0
 12 17  1  0  0  0  0
 12 18  1  0  0  0  0
 12 28  1  0  0  0  0
 13 16  1  0  0  0  0
 13 29  1  6  0  0  0
 14 30  1  0  0  0  0
 14 31  1  0  0  0  0
 14 32  1  0  0  0  0
 15 16  2  0  0  0  0
 15 33  1  0  0  0  0
 16 19  1  0  0  0  0
 17 34  1  0  0  0  0
 17 35  1  0  0  0  0
 17 36  1  0  0  0  0
 18 37  1  0  0  0  0
 18 38  1  0  0  0  0
 18 39  1  0  0  0  0
 19 41  1  0  0  0  0
M  END
> <PUBCHEM_COMPOUND_CID>
442391

> <PUBCHEM_COMPOUND_CANONICALIZED>
1

> <PUBCHEM_CACTVS_COMPLEXITY>
430

> <PUBCHEM_CACTVS_HBOND_ACCEPTOR>
4

> <PUBCHEM_CACTVS_HBOND_DONOR>
1

> <PUBCHEM_CACTVS_ROTATABLE_BOND>
2

> <PUBCHEM_CACTVS_SUBSKEYS>
AAADceBwOAAAAAAAAAAAAAAAAAAAAYAAAAAkAAAABAgAAEiAAAAAGgAADAAAD1SggAICAAAAAgCIAihSgAAAAAAgAAAACAEAAEgBFBYAAQAAUAAE4AAJEYPI6PSPgAAAAAAAAAAAAAAAAAAAAQAADAAAAA==

> <PUBCHEM_IUPAC_INCHI>
InChI=1S/C15H22O4/c1-9(2)11-4-5-14(3)7-12-10(8-16)6-13(17)15(11,14)19-18-12/h6,8-9,11-13,17H,4-5,7H2,1-3H3/t11-,12+,13+,14-,15+/m1/s1

> <PUBCHEM_IUPAC_INCHIKEY>
NTVXLOKDTRVPSZ-FQKPHLNHSA-N

> <PUBCHEM_XLOGP3_AA>
1.7

> <PUBCHEM_EXACT_MASS>
266.151809

> <PUBCHEM_MOLECULAR_FORMULA>
C15H22O4

> <PUBCHEM_MOLECULAR_WEIGHT>
266.33278

> <PUBCHEM_OPENEYE_CAN_SMILES>
CC(C)C1CCC2(C13C(C=C(C(C2)OO3)C=O)O)C

> <PUBCHEM_OPENEYE_ISO_SMILES>
CC(C)[C@H]1CC[C@]2([C@@]13[C@H](C=C([C@H](C2)OO3)C=O)O)C

> <PUBCHEM_CACTVS_TPSA>
55.8

> <PUBCHEM_MONOISOTOPIC_WEIGHT>
266.151809

> <PUBCHEM_TOTAL_CHARGE>
0

> <PUBCHEM_HEAVY_ATOM_COUNT>
19

> <PUBCHEM_ATOM_DEF_STEREO_COUNT>
5

> <PUBCHEM_ATOM_UDEF_STEREO_COUNT>
0

> <PUBCHEM_BOND_DEF_STEREO_COUNT>
0

> <PUBCHEM_BOND_UDEF_STEREO_COUNT>
0

> <PUBCHEM_ISOTOPIC_ATOM_COUNT>
0

> <PUBCHEM_COMPONENT_COUNT>
1

> <PUBCHEM_CACTVS_TAUTO_COUNT>
1

> <PUBCHEM_COORDINATE_TYPE>
1
5
255

> <PUBCHEM_BONDANNOTATIONS>
6  1  6
13  29  6
11  3  6
5  14  5
7  12  5

$$$$

