13013
  -OEChem-06261207393D

 20 20  0     0  0  0  0  0  0999 V2000
   -0.4579   -0.4377   -0.0508 O   0  0  0  0  0  0  0  0  0  0  0  0
    0.7342    1.5213    0.0726 O   0  0  0  0  0  0  0  0  0  0  0  0
    1.7865   -0.5476   -0.0922 N   0  0  0  0  0  0  0  0  0  0  0  0
    3.0257   -0.1457   -0.6893 C   0  0  0  0  0  0  0  0  0  0  0  0
    2.9289   -0.4049    0.7613 C   0  0  0  0  0  0  0  0  0  0  0  0
    0.6939    0.2977   -0.0147 C   0  0  0  0  0  0  0  0  0  0  0  0
   -1.6777    0.3091    0.0206 C   0  0  0  0  0  0  0  0  0  0  0  0
   -2.8503   -0.6583   -0.0319 C   0  0  0  0  0  0  0  0  0  0  0  0
   -4.1832    0.0662    0.0244 C   0  0  0  0  0  0  0  0  0  0  0  0
    3.0665    0.8750   -1.0411 H   0  0  0  0  0  0  0  0  0  0  0  0
    3.4551   -0.9011   -1.3308 H   0  0  0  0  0  0  0  0  0  0  0  0
    3.2890   -1.3446    1.1532 H   0  0  0  0  0  0  0  0  0  0  0  0
    2.8937    0.4306    1.4455 H   0  0  0  0  0  0  0  0  0  0  0  0
   -1.7247    1.0046   -0.8255 H   0  0  0  0  0  0  0  0  0  0  0  0
   -1.6994    0.8773    0.9578 H   0  0  0  0  0  0  0  0  0  0  0  0
   -2.7914   -1.2583   -0.9479 H   0  0  0  0  0  0  0  0  0  0  0  0
   -2.7772   -1.3700    0.7991 H   0  0  0  0  0  0  0  0  0  0  0  0
   -4.2921    0.7538   -0.8203 H   0  0  0  0  0  0  0  0  0  0  0  0
   -5.0077   -0.6526   -0.0146 H   0  0  0  0  0  0  0  0  0  0  0  0
   -4.2780    0.6417    0.9508 H   0  0  0  0  0  0  0  0  0  0  0  0
  1  6  1  0  0  0  0
  1  7  1  0  0  0  0
  2  6  2  0  0  0  0
  3  4  1  0  0  0  0
  3  5  1  0  0  0  0
  3  6  1  0  0  0  0
  4  5  1  0  0  0  0
  4 10  1  0  0  0  0
  4 11  1  0  0  0  0
  5 12  1  0  0  0  0
  5 13  1  0  0  0  0
  7  8  1  0  0  0  0
  7 14  1  0  0  0  0
  7 15  1  0  0  0  0
  8  9  1  0  0  0  0
  8 16  1  0  0  0  0
  8 17  1  0  0  0  0
  9 18  1  0  0  0  0
  9 19  1  0  0  0  0
  9 20  1  0  0  0  0
M  END
> <PUBCHEM_COMPOUND_CID>
13013

> <PUBCHEM_CONFORMER_RMSD>
0.6

> <PUBCHEM_CONFORMER_DIVERSEORDER>
1
27
22
31
16
20
24
33
7
14
26
23
2
15
12
18
25
13
32
8
10
11
3
4
28
9
29
6
21
17
5
30
19

> <PUBCHEM_MMFF94_PARTIAL_CHARGES>
11
1 -0.43
10 0.1
11 0.1
12 0.1
13 0.1
2 -0.57
3 -0.36
4 -0.05
5 -0.05
6 0.78
7 0.28

> <PUBCHEM_EFFECTIVE_ROTOR_COUNT>
4.6

> <PUBCHEM_PHARMACOPHORE_FEATURES>
2
1 2 acceptor
1 9 hydrophobe

> <PUBCHEM_HEAVY_ATOM_COUNT>
9

> <PUBCHEM_ATOM_DEF_STEREO_COUNT>
0

> <PUBCHEM_ATOM_UDEF_STEREO_COUNT>
0

> <PUBCHEM_BOND_DEF_STEREO_COUNT>
0

> <PUBCHEM_BOND_UDEF_STEREO_COUNT>
0

> <PUBCHEM_ISOTOPIC_ATOM_COUNT>
0

> <PUBCHEM_COMPONENT_COUNT>
1

> <PUBCHEM_CACTVS_TAUTO_COUNT>
1

> <PUBCHEM_CONFORMER_ID>
000032D500000001

> <PUBCHEM_MMFF94_ENERGY>
18.9488

> <PUBCHEM_FEATURE_SELFOVERLAP>
10.148

> <PUBCHEM_SHAPE_FINGERPRINT>
10219947 1 17385439920974366852
11062470 55 16081089277276085315
12932764 1 17560815298860354627
14325111 11 18411136896861662415
14390081 3 11167945753403958551
21293036 1 18342731906104907342
29004967 10 18335421279130252106

> <PUBCHEM_SHAPE_MULTIPOLES>
168.5
6.64
0.93
0.72
4.22
0.25
-0.01
-0.97
0.01
-0.09
-0.03
-0.37
-0.04
-0.08

> <PUBCHEM_SHAPE_SELFOVERLAP>
319.146

> <PUBCHEM_SHAPE_VOLUME>
105.8

> <PUBCHEM_COORDINATE_TYPE>
2
5
10

$$$$

