442774
  -OEChem-07051212593D

 57 60  0     1  0  0  0  0  0999 V2000
   -1.8669    0.9400   -1.1316 O   0  0  0  0  0  0  0  0  0  0  0  0
   -5.9345   -0.8389    0.7421 O   0  0  0  0  0  0  0  0  0  0  0  0
    2.5022   -0.9670   -1.3179 O   0  0  0  0  0  0  0  0  0  0  0  0
    5.6662    2.0988    0.5564 O   0  0  0  0  0  0  0  0  0  0  0  0
    0.3006    0.4086   -0.1308 C   0  0  1  0  0  0  0  0  0  0  0  0
   -0.3502    0.0348    1.2049 C   0  0  0  0  0  0  0  0  0  0  0  0
   -1.8315   -0.1713    1.0347 C   0  0  0  0  0  0  0  0  0  0  0  0
   -0.5743    1.4645   -0.8093 C   0  0  0  0  0  0  0  0  0  0  0  0
   -2.5124    0.2948   -0.1028 C   0  0  0  0  0  0  0  0  0  0  0  0
    1.7404    0.8440    0.0411 C   0  0  0  0  0  0  0  0  0  0  0  0
   -3.8965    0.0754   -0.2459 C   0  0  0  0  0  0  0  0  0  0  0  0
   -6.6971   -0.4789   -0.4273 C   0  0  0  0  0  0  0  0  0  0  0  0
   -4.5917   -0.5853    0.7722 C   0  0  0  0  0  0  0  0  0  0  0  0
   -2.5502   -0.8192    2.0457 C   0  0  0  0  0  0  0  0  0  0  0  0
    2.7797    0.1344   -0.5624 C   0  0  0  0  0  0  0  0  0  0  0  0
   -3.9213   -1.0250    1.9152 C   0  0  0  0  0  0  0  0  0  0  0  0
   -4.6343    0.5264   -1.4200 C   0  0  0  0  0  0  0  0  0  0  0  0
    2.0243    1.9705    0.8144 C   0  0  0  0  0  0  0  0  0  0  0  0
   -5.9401    0.2629   -1.4997 C   0  0  0  0  0  0  0  0  0  0  0  0
    4.1001    0.5506   -0.3928 C   0  0  0  0  0  0  0  0  0  0  0  0
   -7.8544    0.3955    0.0697 C   0  0  0  0  0  0  0  0  0  0  0  0
   -7.2503   -1.7859   -1.0074 C   0  0  0  0  0  0  0  0  0  0  0  0
    3.3446    2.3865    0.9840 C   0  0  0  0  0  0  0  0  0  0  0  0
    4.3826    1.6767    0.3805 C   0  0  0  0  0  0  0  0  0  0  0  0
    5.2140   -0.2094   -1.0386 C   0  0  0  0  0  0  0  0  0  0  0  0
    5.7570   -1.3094   -0.1618 C   0  0  0  0  0  0  0  0  0  0  0  0
    7.0173   -1.7811   -0.1068 C   0  0  0  0  0  0  0  0  0  0  0  0
    7.4919   -2.8849    0.7952 C   0  0  0  0  0  0  0  0  0  0  0  0
    8.0848   -1.2080   -1.0007 C   0  0  0  0  0  0  0  0  0  0  0  0
    0.2549   -0.4888   -0.7633 H   0  0  0  0  0  0  0  0  0  0  0  0
   -0.2102    0.8183    1.9595 H   0  0  0  0  0  0  0  0  0  0  0  0
    0.1154   -0.8803    1.5928 H   0  0  0  0  0  0  0  0  0  0  0  0
   -0.7023    2.3657   -0.1961 H   0  0  0  0  0  0  0  0  0  0  0  0
   -0.1172    1.7842   -1.7529 H   0  0  0  0  0  0  0  0  0  0  0  0
   -2.0428   -1.1721    2.9402 H   0  0  0  0  0  0  0  0  0  0  0  0
   -4.4624   -1.5335    2.7091 H   0  0  0  0  0  0  0  0  0  0  0  0
   -4.1289    1.0610   -2.2151 H   0  0  0  0  0  0  0  0  0  0  0  0
    1.2332    2.5433    1.2903 H   0  0  0  0  0  0  0  0  0  0  0  0
   -6.4878    0.5924   -2.3793 H   0  0  0  0  0  0  0  0  0  0  0  0
   -8.5400    0.6695   -0.7398 H   0  0  0  0  0  0  0  0  0  0  0  0
   -7.4777    1.3177    0.5285 H   0  0  0  0  0  0  0  0  0  0  0  0
   -8.4293   -0.1220    0.8468 H   0  0  0  0  0  0  0  0  0  0  0  0
   -6.4357   -2.4465   -1.3285 H   0  0  0  0  0  0  0  0  0  0  0  0
   -7.9075   -1.6087   -1.8659 H   0  0  0  0  0  0  0  0  0  0  0  0
   -7.8157   -2.3410   -0.2496 H   0  0  0  0  0  0  0  0  0  0  0  0
    3.5580    3.2654    1.5864 H   0  0  0  0  0  0  0  0  0  0  0  0
    4.8798   -0.6489   -1.9867 H   0  0  0  0  0  0  0  0  0  0  0  0
    5.9947    0.4916   -1.3525 H   0  0  0  0  0  0  0  0  0  0  0  0
    3.2500   -1.5848   -1.3039 H   0  0  0  0  0  0  0  0  0  0  0  0
    5.0289   -1.7889    0.4927 H   0  0  0  0  0  0  0  0  0  0  0  0
    6.2875    1.3652    0.4266 H   0  0  0  0  0  0  0  0  0  0  0  0
    6.6855   -3.2558    1.4363 H   0  0  0  0  0  0  0  0  0  0  0  0
    7.8651   -3.7282    0.2055 H   0  0  0  0  0  0  0  0  0  0  0  0
    8.2971   -2.5265    1.4444 H   0  0  0  0  0  0  0  0  0  0  0  0
    7.7002   -0.6346   -1.8471 H   0  0  0  0  0  0  0  0  0  0  0  0
    8.7535   -0.5638   -0.4206 H   0  0  0  0  0  0  0  0  0  0  0  0
    8.6844   -2.0173   -1.4331 H   0  0  0  0  0  0  0  0  0  0  0  0
  1  8  1  0  0  0  0
  1  9  1  0  0  0  0
  2 12  1  0  0  0  0
  2 13  1  0  0  0  0
  3 15  1  0  0  0  0
  3 49  1  0  0  0  0
  4 24  1  0  0  0  0
  4 51  1  0  0  0  0
  5  6  1  0  0  0  0
  5  8  1  0  0  0  0
  5 10  1  0  0  0  0
  5 30  1  0  0  0  0
  6  7  1  0  0  0  0
  6 31  1  0  0  0  0
  6 32  1  0  0  0  0
  7  9  2  0  0  0  0
  7 14  1  0  0  0  0
  8 33  1  0  0  0  0
  8 34  1  0  0  0  0
  9 11  1  0  0  0  0
 10 15  2  0  0  0  0
 10 18  1  0  0  0  0
 11 13  2  0  0  0  0
 11 17  1  0  0  0  0
 12 19  1  0  0  0  0
 12 21  1  0  0  0  0
 12 22  1  0  0  0  0
 13 16  1  0  0  0  0
 14 16  2  0  0  0  0
 14 35  1  0  0  0  0
 15 20  1  0  0  0  0
 16 36  1  0  0  0  0
 17 19  2  0  0  0  0
 17 37  1  0  0  0  0
 18 23  2  0  0  0  0
 18 38  1  0  0  0  0
 19 39  1  0  0  0  0
 20 24  2  0  0  0  0
 20 25  1  0  0  0  0
 21 40  1  0  0  0  0
 21 41  1  0  0  0  0
 21 42  1  0  0  0  0
 22 43  1  0  0  0  0
 22 44  1  0  0  0  0
 22 45  1  0  0  0  0
 23 24  1  0  0  0  0
 23 46  1  0  0  0  0
 25 26  1  0  0  0  0
 25 47  1  0  0  0  0
 25 48  1  0  0  0  0
 26 27  2  0  0  0  0
 26 50  1  0  0  0  0
 27 28  1  0  0  0  0
 27 29  1  0  0  0  0
 28 52  1  0  0  0  0
 28 53  1  0  0  0  0
 28 54  1  0  0  0  0
 29 55  1  0  0  0  0
 29 56  1  0  0  0  0
 29 57  1  0  0  0  0
M  END
> <PUBCHEM_COMPOUND_CID>
442774

> <PUBCHEM_CONFORMER_RMSD>
0.8

> <PUBCHEM_CONFORMER_DIVERSEORDER>
1
33
30
18
26
20
27
13
14
35
10
39
9
32
34
21
28
15
37
38
40
11
24
2
7
17
23
8
25
4
16
19
31
6
36
5
22
29
12
3

> <PUBCHEM_MMFF94_PARTIAL_CHARGES>
36
1 -0.36
10 -0.14
11 0.03
12 0.42
13 0.08
14 -0.15
15 0.08
16 -0.15
17 -0.18
18 -0.15
19 -0.29
2 -0.36
20 -0.14
23 -0.15
24 0.08
25 0.28
26 -0.29
27 -0.28
28 0.14
29 0.14
3 -0.53
35 0.15
36 0.15
37 0.15
38 0.15
39 0.15
4 -0.53
46 0.15
49 0.45
5 0.14
50 0.15
51 0.45
6 0.14
7 -0.14
8 0.28
9 0.08

> <PUBCHEM_EFFECTIVE_ROTOR_COUNT>
4.2

> <PUBCHEM_PHARMACOPHORE_FEATURES>
10
1 1 acceptor
1 2 acceptor
1 3 donor
1 4 donor
3 12 21 22 hydrophobe
3 27 28 29 hydrophobe
6 1 5 6 7 8 9 rings
6 10 15 18 20 23 24 rings
6 2 11 12 13 17 19 rings
6 7 9 11 13 14 16 rings

> <PUBCHEM_HEAVY_ATOM_COUNT>
29

> <PUBCHEM_ATOM_DEF_STEREO_COUNT>
1

> <PUBCHEM_ATOM_UDEF_STEREO_COUNT>
0

> <PUBCHEM_BOND_DEF_STEREO_COUNT>
0

> <PUBCHEM_BOND_UDEF_STEREO_COUNT>
0

> <PUBCHEM_ISOTOPIC_ATOM_COUNT>
0

> <PUBCHEM_COMPONENT_COUNT>
1

> <PUBCHEM_CACTVS_TAUTO_COUNT>
9

> <PUBCHEM_CONFORMER_ID>
0006C19600000001

> <PUBCHEM_MMFF94_ENERGY>
93.3419

> <PUBCHEM_FEATURE_SELFOVERLAP>
50.8

> <PUBCHEM_SHAPE_FINGERPRINT>
106641 1 5689586195873323815
10670039 82 16845577560427319045
117089 54 18049435153063931738
11719270 70 17603303760973484166
11796584 16 17632858599568888714
12166972 35 17313101900349169105
12236239 1 16732975410680227969
13008946 282 17313679148686653976
13533116 47 17458060456671193492
13673619 4 18411136957139443708
13685833 64 18334012813720573086
13782708 43 18412541029018767478
13914758 101 18113613513168078497
14251764 18 17022621966672671776
14294032 229 16342871000301806877
14849402 71 15792028727544635778
15131766 46 17607820400001077216
15183329 4 16558752334028509882
1577012 14 17095509678392720729
18681886 176 16702014241257618332
19301679 30 17604986108838570790
19377110 9 16226043409729938030
20028762 73 17530681022538871982
20105231 36 16558740222853648017
2026 5 18198908192096997962
21033650 10 16486692596802362933
21267235 1 18041276651998459228
21315764 119 16988838415210454826
21344244 78 16877944958467798800
21792934 111 15357699712490265891
22061861 79 18413107247072788918
2215653 11 18202283584764797249
23081809 10 17530953670634842520
23522609 53 18047155705859830152
23559900 14 17775000159477083684
23569943 247 18341054141598342411
23576562 1 15625651688871188631
24771293 8 7493283348546518027
25269216 80 14835821964031712219
3004659 81 16487252158216011044
34797466 226 17489584529214327396
4073 2 18194122919337871274
4149490 64 17967819284900559943
439807 62 18131348653014718042
45377200 153 16844995837483213763
5104073 3 5039407543718454766
6126387 218 17967537916901984016
6438161 24 18201727280022913258
6608658 132 14764353789872712518
9962374 69 18259994747643371558

> <PUBCHEM_SHAPE_MULTIPOLES>
573.33
23.31
2.09
1.5
4.41
0.07
-0.28
13.1
4.73
4.38
-0.46
-1.27
0.23
1.01

> <PUBCHEM_SHAPE_SELFOVERLAP>
1246.848

> <PUBCHEM_SHAPE_VOLUME>
313.4

> <PUBCHEM_COORDINATE_TYPE>
2
5
10

$$$$

