17395708
  -OEChem-06241222513D

 45 46  0     1  0  0  0  0  0999 V2000
   -4.1458   -0.2198   -0.7435 S   0  0  0  0  0  0  0  0  0  0  0  0
   -2.1775   -2.6217   -1.2414 O   0  0  0  0  0  0  0  0  0  0  0  0
    0.5797   -2.7758   -0.7431 O   0  0  0  0  0  0  0  0  0  0  0  0
   -2.4851    3.3048   -0.2659 N   0  0  0  0  0  0  0  0  0  0  0  0
   -1.8397    1.1211   -0.0474 N   0  0  0  0  0  0  0  0  0  0  0  0
   -3.4843    2.4623   -0.5688 N   0  0  0  0  0  0  0  0  0  0  0  0
   -1.0272   -1.7061    0.5671 N   0  0  0  0  0  0  0  0  0  0  0  0
    1.1854   -1.6817    1.2114 N   0  0  0  0  0  0  0  0  0  0  0  0
   -0.1819    2.9424    0.4531 C   0  0  0  0  0  0  0  0  0  0  0  0
   -1.5129    2.4438    0.0426 C   0  0  0  0  0  0  0  0  0  0  0  0
    0.1978    2.5391    1.8966 C   0  0  0  0  0  0  0  0  0  0  0  0
    0.9485    2.5177   -0.5126 C   0  0  0  0  0  0  0  0  0  0  0  0
   -3.4304   -1.4105    0.4364 C   0  0  2  0  0  0  0  0  0  0  0  0
   -3.0926    1.1665   -0.4367 C   0  0  0  0  0  0  0  0  0  0  0  0
   -2.1672   -1.9811   -0.1923 C   0  0  0  0  0  0  0  0  0  0  0  0
   -4.4477   -2.5022    0.7422 C   0  0  0  0  0  0  0  0  0  0  0  0
    2.5967   -1.9707    1.1237 C   0  0  0  0  0  0  0  0  0  0  0  0
    3.3424   -0.9069    0.3710 C   0  0  0  0  0  0  0  0  0  0  0  0
    0.2753   -2.1170    0.2501 C   0  0  0  0  0  0  0  0  0  0  0  0
    3.5015   -1.0119   -1.0109 C   0  0  0  0  0  0  0  0  0  0  0  0
    3.8757    0.1866    1.0532 C   0  0  0  0  0  0  0  0  0  0  0  0
    4.1940   -0.0236   -1.7103 C   0  0  0  0  0  0  0  0  0  0  0  0
    4.5681    1.1750    0.3536 C   0  0  0  0  0  0  0  0  0  0  0  0
    4.7272    1.0697   -1.0282 C   0  0  0  0  0  0  0  0  0  0  0  0
   -0.1992    4.0416    0.4378 H   0  0  0  0  0  0  0  0  0  0  0  0
    1.1587    2.9786    2.1840 H   0  0  0  0  0  0  0  0  0  0  0  0
   -0.5617    2.8845    2.6064 H   0  0  0  0  0  0  0  0  0  0  0  0
    0.2759    1.4505    1.9937 H   0  0  0  0  0  0  0  0  0  0  0  0
    0.7276    2.8464   -1.5339 H   0  0  0  0  0  0  0  0  0  0  0  0
    1.9033    2.9604   -0.2117 H   0  0  0  0  0  0  0  0  0  0  0  0
    1.0617    1.4282   -0.5299 H   0  0  0  0  0  0  0  0  0  0  0  0
   -3.2061   -0.8897    1.3738 H   0  0  0  0  0  0  0  0  0  0  0  0
   -2.5834    4.3156   -0.3044 H   0  0  0  0  0  0  0  0  0  0  0  0
   -4.7353   -3.0599   -0.1566 H   0  0  0  0  0  0  0  0  0  0  0  0
   -5.3536   -2.0900    1.1998 H   0  0  0  0  0  0  0  0  0  0  0  0
   -4.0219   -3.2281    1.4443 H   0  0  0  0  0  0  0  0  0  0  0  0
    2.9786   -2.0550    2.1475 H   0  0  0  0  0  0  0  0  0  0  0  0
    2.7439   -2.9484    0.6496 H   0  0  0  0  0  0  0  0  0  0  0  0
   -1.1348   -1.1642    1.4199 H   0  0  0  0  0  0  0  0  0  0  0  0
    0.8514   -1.1201    1.9886 H   0  0  0  0  0  0  0  0  0  0  0  0
    3.0950   -1.8595   -1.5557 H   0  0  0  0  0  0  0  0  0  0  0  0
    3.7556    0.2818    2.1291 H   0  0  0  0  0  0  0  0  0  0  0  0
    4.3182   -0.1056   -2.7862 H   0  0  0  0  0  0  0  0  0  0  0  0
    4.9817    2.0274    0.8843 H   0  0  0  0  0  0  0  0  0  0  0  0
    5.2654    1.8398   -1.5729 H   0  0  0  0  0  0  0  0  0  0  0  0
  1 13  1  0  0  0  0
  1 14  1  0  0  0  0
  2 15  2  0  0  0  0
  3 19  2  0  0  0  0
  4  6  1  0  0  0  0
  4 10  1  0  0  0  0
  4 33  1  0  0  0  0
  5 10  2  0  0  0  0
  5 14  1  0  0  0  0
  6 14  2  0  0  0  0
  7 15  1  0  0  0  0
  7 19  1  0  0  0  0
  7 39  1  0  0  0  0
  8 17  1  0  0  0  0
  8 19  1  0  0  0  0
  8 40  1  0  0  0  0
  9 10  1  0  0  0  0
  9 11  1  0  0  0  0
  9 12  1  0  0  0  0
  9 25  1  0  0  0  0
 11 26  1  0  0  0  0
 11 27  1  0  0  0  0
 11 28  1  0  0  0  0
 12 29  1  0  0  0  0
 12 30  1  0  0  0  0
 12 31  1  0  0  0  0
 13 15  1  0  0  0  0
 13 16  1  0  0  0  0
 13 32  1  0  0  0  0
 16 34  1  0  0  0  0
 16 35  1  0  0  0  0
 16 36  1  0  0  0  0
 17 18  1  0  0  0  0
 17 37  1  0  0  0  0
 17 38  1  0  0  0  0
 18 20  2  0  0  0  0
 18 21  1  0  0  0  0
 20 22  1  0  0  0  0
 20 41  1  0  0  0  0
 21 23  2  0  0  0  0
 21 42  1  0  0  0  0
 22 24  2  0  0  0  0
 22 43  1  0  0  0  0
 23 24  1  0  0  0  0
 23 44  1  0  0  0  0
 24 45  1  0  0  0  0
M  END
> <PUBCHEM_COMPOUND_CID>
17395708

> <PUBCHEM_CONFORMER_RMSD>
1.2

> <PUBCHEM_CONFORMER_DIVERSEORDER>
1
26
20
61
49
73
69
21
43
96
12
78
76
80
47
8
13
29
56
52
62
23
68
75
34
86
38
40
98
9
44
60
84
46
93
99
31
39
27
90
24
36
77
15
22
83
55
41
33
65
58
4
91
71
101
50
3
10
100
72
5
102
6
7
54
88
97
57
92
48
63
59
37
2
30
94
17
66
16
19
28
14
89
35
53
70
11
87
82
51
42
81
64
18
32
95
25
67
45
85
79
74

> <PUBCHEM_MMFF94_PARTIAL_CHARGES>
29
1 -0.28
10 0.01
13 0.29
14 0.57
15 0.57
17 0.44
18 -0.14
19 0.69
2 -0.57
20 -0.15
21 -0.15
22 -0.15
23 -0.15
24 -0.15
3 -0.57
33 0.27
39 0.37
4 0.3
40 0.37
41 0.15
42 0.15
43 0.15
44 0.15
45 0.15
5 -0.57
6 -0.71
7 -0.49
8 -0.73
9 0.18

> <PUBCHEM_EFFECTIVE_ROTOR_COUNT>
9

> <PUBCHEM_PHARMACOPHORE_FEATURES>
11
1 16 hydrophobe
1 2 acceptor
1 3 acceptor
1 4 donor
1 7 donor
1 8 donor
3 4 5 10 cation
3 5 6 14 cation
3 9 11 12 hydrophobe
5 4 5 6 10 14 rings
6 18 20 21 22 23 24 rings

> <PUBCHEM_HEAVY_ATOM_COUNT>
24

> <PUBCHEM_ATOM_DEF_STEREO_COUNT>
0

> <PUBCHEM_ATOM_UDEF_STEREO_COUNT>
1

> <PUBCHEM_BOND_DEF_STEREO_COUNT>
0

> <PUBCHEM_BOND_UDEF_STEREO_COUNT>
0

> <PUBCHEM_ISOTOPIC_ATOM_COUNT>
0

> <PUBCHEM_COMPONENT_COUNT>
1

> <PUBCHEM_CACTVS_TAUTO_COUNT>
25

> <PUBCHEM_CONFORMER_ID>
01096FFC00000001

> <PUBCHEM_MMFF94_ENERGY>
48.4861

> <PUBCHEM_FEATURE_SELFOVERLAP>
58.62

> <PUBCHEM_SHAPE_FINGERPRINT>
10498660 4 18411136952585506458
10616163 171 18411702127157939760
10670039 82 18342166770419490054
10708813 3 18130498712877086644
10759866 29 18201718500729847850
10871710 139 18341324522388800279
10906281 52 18337105800417836341
11112241 14 16735263416641276344
11513181 2 18115592684915263334
12054548 360 18408893922931483731
12788726 201 18340480076342664360
13122387 1 18410294743774259104
13402501 40 18190748531443557624
13617811 41 18199764681606140869
14081887 123 18335149691305686424
14117953 113 17333099022986335380
14251757 17 18260832592113971744
14363568 33 17908128890055829617
14787075 74 17845089580488749291
14790565 3 17832706052003939785
14840074 17 18340186567036590529
14931854 50 18413110558545432956
15297060 5 18115586096767174872
15848702 105 18272368668291685802
17492 54 18341904034189971125
19930381 70 16682322808032134743
20101258 96 17907570329100789155
20715895 44 17408543078657825805
21141583 151 18260547840182533768
23352939 185 18261669282140326235
23557571 272 18334294258601098082
23559900 14 17975140051839476190
3014063 31 18339362942094898617
3052486 1 18343032068880254272
463206 1 17906448831581858151
469060 322 18058428964018167129
5047190 48 16967466885278905664
6287921 2 17540530653336101141
7097593 13 17411356702890384466

> <PUBCHEM_SHAPE_MULTIPOLES>
461.11
9.41
4.27
1.33
3.53
1.6
0.09
-1.36
-1.86
-3.12
0.4
0.92
0
0.23

> <PUBCHEM_SHAPE_SELFOVERLAP>
940.38

> <PUBCHEM_SHAPE_VOLUME>
269

> <PUBCHEM_COORDINATE_TYPE>
2
5
10

$$$$

