440770
  -OEChem-07051212503D

 17 16  0     1  0  0  0  0  0999 V2000
    1.7275    1.6508    0.6150 O   0  0  0  0  0  0  0  0  0  0  0  0
    2.2747    0.3647   -1.1707 O   0  0  0  0  0  0  0  0  0  0  0  0
    1.2370   -1.8680   -0.1013 N   0  0  0  0  0  0  0  0  0  0  0  0
   -3.7469    0.4014   -0.0788 N   0  0  0  0  0  0  0  0  0  0  0  0
    1.0529   -0.6425    0.6818 C   0  0  2  0  0  0  0  0  0  0  0  0
   -0.4496   -0.3699    0.8465 C   0  0  0  0  0  0  0  0  0  0  0  0
   -1.2098   -0.1677   -0.4684 C   0  0  0  0  0  0  0  0  0  0  0  0
    1.7411    0.4805   -0.0744 C   0  0  0  0  0  0  0  0  0  0  0  0
   -2.6270    0.1507   -0.2497 C   0  0  0  0  0  0  0  0  0  0  0  0
    1.5381   -0.7615    1.6564 H   0  0  0  0  0  0  0  0  0  0  0  0
   -0.9090   -1.1953    1.4075 H   0  0  0  0  0  0  0  0  0  0  0  0
   -0.5802    0.5240    1.4715 H   0  0  0  0  0  0  0  0  0  0  0  0
   -0.7576    0.6464   -1.0460 H   0  0  0  0  0  0  0  0  0  0  0  0
   -1.1442   -1.0706   -1.0861 H   0  0  0  0  0  0  0  0  0  0  0  0
    0.7841   -2.6475    0.3744 H   0  0  0  0  0  0  0  0  0  0  0  0
    2.2290   -2.0997   -0.1429 H   0  0  0  0  0  0  0  0  0  0  0  0
    2.1822    2.3688    0.1252 H   0  0  0  0  0  0  0  0  0  0  0  0
  1  8  1  0  0  0  0
  1 17  1  0  0  0  0
  2  8  2  0  0  0  0
  3  5  1  0  0  0  0
  3 15  1  0  0  0  0
  3 16  1  0  0  0  0
  4  9  3  0  0  0  0
  5  6  1  0  0  0  0
  5  8  1  0  0  0  0
  5 10  1  0  0  0  0
  6  7  1  0  0  0  0
  6 11  1  0  0  0  0
  6 12  1  0  0  0  0
  7  9  1  0  0  0  0
  7 13  1  0  0  0  0
  7 14  1  0  0  0  0
M  END
> <PUBCHEM_COMPOUND_CID>
440770

> <PUBCHEM_CONFORMER_RMSD>
0.6

> <PUBCHEM_CONFORMER_DIVERSEORDER>
1
22
3
7
14
16
20
10
17
8
4
19
15
18
6
2
12
21
5
11
9
13

> <PUBCHEM_MMFF94_PARTIAL_CHARGES>
11
1 -0.65
15 0.36
16 0.36
17 0.5
2 -0.57
3 -0.99
4 -0.56
5 0.33
7 0.2
8 0.66
9 0.36

> <PUBCHEM_EFFECTIVE_ROTOR_COUNT>
3

> <PUBCHEM_PHARMACOPHORE_FEATURES>
6
1 1 acceptor
1 2 acceptor
1 3 cation
1 3 donor
1 4 acceptor
3 1 2 8 anion

> <PUBCHEM_HEAVY_ATOM_COUNT>
9

> <PUBCHEM_ATOM_DEF_STEREO_COUNT>
0

> <PUBCHEM_ATOM_UDEF_STEREO_COUNT>
1

> <PUBCHEM_BOND_DEF_STEREO_COUNT>
0

> <PUBCHEM_BOND_UDEF_STEREO_COUNT>
0

> <PUBCHEM_ISOTOPIC_ATOM_COUNT>
0

> <PUBCHEM_COMPONENT_COUNT>
1

> <PUBCHEM_CACTVS_TAUTO_COUNT>
1

> <PUBCHEM_CONFORMER_ID>
0006B9C200000001

> <PUBCHEM_MMFF94_ENERGY>
4.485

> <PUBCHEM_FEATURE_SELFOVERLAP>
30.505

> <PUBCHEM_SHAPE_FINGERPRINT>
10857977 72 16487252167101298809
11031198 65 18342446045729307967
12897270 3 18335701624456710821
12932764 1 18335424573612813317
14390081 3 18412268311554161297
21040471 1 18129662976575876282
230 275 17561094621705041661
23235685 24 17775284932730026460
3248919 1 18340218470106237067
5084963 1 17632021939153637049

> <PUBCHEM_SHAPE_MULTIPOLES>
163.52
4.39
1.29
0.91
4.37
0.21
-0.03
-1.17
-0.64
-0.92
0.1
-0.33
-0.05
0.07

> <PUBCHEM_SHAPE_SELFOVERLAP>
306.819

> <PUBCHEM_SHAPE_VOLUME>
99.4

> <PUBCHEM_COORDINATE_TYPE>
2
5
10

$$$$

