439612
  -OEChem-07051212463D

 48 49  0     1  0  0  0  0  0999 V2000
   -2.3044   -0.8292   -0.1655 O   0  0  0  0  0  0  0  0  0  0  0  0
   -0.7542    0.7456   -0.9146 O   0  0  0  0  0  0  0  0  0  0  0  0
    0.9441    1.5976    0.4278 O   0  0  0  0  0  0  0  0  0  0  0  0
   -2.5149    2.8184   -0.1324 O   0  0  0  0  0  0  0  0  0  0  0  0
   -5.3294    1.9486   -0.1836 O   0  0  0  0  0  0  0  0  0  0  0  0
   -5.6529   -0.5198    1.2855 O   0  0  0  0  0  0  0  0  0  0  0  0
   -2.5313   -3.3512    0.9042 O   0  0  0  0  0  0  0  0  0  0  0  0
    4.6694    1.6886    1.7493 O   0  0  0  0  0  0  0  0  0  0  0  0
    5.5659    0.8298   -0.1715 O   0  0  0  0  0  0  0  0  0  0  0  0
    4.6491   -2.0288    1.7248 O   0  0  0  0  0  0  0  0  0  0  0  0
   -2.9686    1.4938   -0.4103 C   0  0  2  0  0  0  0  0  0  0  0  0
   -4.2434    1.2164    0.3866 C   0  0  2  0  0  0  0  0  0  0  0  0
   -1.8543    0.5172   -0.0344 C   0  0  1  0  0  0  0  0  0  0  0  0
   -4.6049   -0.2686    0.3529 C   0  0  1  0  0  0  0  0  0  0  0  0
   -3.3922   -1.1311    0.7102 C   0  0  1  0  0  0  0  0  0  0  0  0
    1.4876   -0.0235   -1.3689 C   0  0  1  0  0  0  0  0  0  0  0  0
    0.4897    0.4354   -0.2830 C   0  0  2  0  0  0  0  0  0  0  0  0
    2.8819   -0.2939   -0.7479 C   0  0  1  0  0  0  0  0  0  0  0  0
   -3.6963   -2.6192    0.5697 C   0  0  0  0  0  0  0  0  0  0  0  0
    3.2155    0.8364    0.1832 C   0  0  0  0  0  0  0  0  0  0  0  0
    2.9835   -1.6281    0.0050 C   0  0  0  0  0  0  0  0  0  0  0  0
    0.9732   -1.1885   -2.1625 C   0  0  0  0  0  0  0  0  0  0  0  0
    2.2884    1.6667    0.6730 C   0  0  0  0  0  0  0  0  0  0  0  0
    4.6118    1.1024    0.5349 C   0  0  0  0  0  0  0  0  0  0  0  0
    4.3646   -1.8678    0.5428 C   0  0  0  0  0  0  0  0  0  0  0  0
    0.7221   -1.1473   -3.4753 C   0  0  0  0  0  0  0  0  0  0  0  0
   -3.1754    1.4488   -1.4861 H   0  0  0  0  0  0  0  0  0  0  0  0
   -4.1465    1.5625    1.4230 H   0  0  0  0  0  0  0  0  0  0  0  0
   -1.5440    0.7048    1.0037 H   0  0  0  0  0  0  0  0  0  0  0  0
   -4.9801   -0.5196   -0.6479 H   0  0  0  0  0  0  0  0  0  0  0  0
   -3.0709   -0.9469    1.7445 H   0  0  0  0  0  0  0  0  0  0  0  0
    1.6089    0.8280   -2.0579 H   0  0  0  0  0  0  0  0  0  0  0  0
    0.3492   -0.3778    0.4434 H   0  0  0  0  0  0  0  0  0  0  0  0
    3.6119   -0.3042   -1.5698 H   0  0  0  0  0  0  0  0  0  0  0  0
   -3.9700   -2.8775   -0.4587 H   0  0  0  0  0  0  0  0  0  0  0  0
   -4.4983   -2.9393    1.2399 H   0  0  0  0  0  0  0  0  0  0  0  0
    2.2783   -1.6737    0.8428 H   0  0  0  0  0  0  0  0  0  0  0  0
    2.7711   -2.4755   -0.6548 H   0  0  0  0  0  0  0  0  0  0  0  0
    0.7429   -2.1087   -1.6315 H   0  0  0  0  0  0  0  0  0  0  0  0
    2.4791    2.5294    1.2979 H   0  0  0  0  0  0  0  0  0  0  0  0
   -2.3314    2.8806    0.8205 H   0  0  0  0  0  0  0  0  0  0  0  0
   -5.0782    2.8881   -0.1813 H   0  0  0  0  0  0  0  0  0  0  0  0
   -6.0305   -1.3916    1.0814 H   0  0  0  0  0  0  0  0  0  0  0  0
    5.1584   -1.9260   -0.2232 H   0  0  0  0  0  0  0  0  0  0  0  0
   -1.8198   -3.0607    0.3081 H   0  0  0  0  0  0  0  0  0  0  0  0
    0.3263   -2.0184   -3.9859 H   0  0  0  0  0  0  0  0  0  0  0  0
    0.9041   -0.2535   -4.0616 H   0  0  0  0  0  0  0  0  0  0  0  0
    5.5917    1.8827    2.0214 H   0  0  0  0  0  0  0  0  0  0  0  0
  1 13  1  0  0  0  0
  1 15  1  0  0  0  0
  2 13  1  0  0  0  0
  2 17  1  0  0  0  0
  3 17  1  0  0  0  0
  3 23  1  0  0  0  0
  4 11  1  0  0  0  0
  4 41  1  0  0  0  0
  5 12  1  0  0  0  0
  5 42  1  0  0  0  0
  6 14  1  0  0  0  0
  6 43  1  0  0  0  0
  7 19  1  0  0  0  0
  7 45  1  0  0  0  0
  8 24  1  0  0  0  0
  8 48  1  0  0  0  0
  9 24  2  0  0  0  0
 10 25  2  0  0  0  0
 11 12  1  0  0  0  0
 11 13  1  0  0  0  0
 11 27  1  0  0  0  0
 12 14  1  0  0  0  0
 12 28  1  0  0  0  0
 13 29  1  0  0  0  0
 14 15  1  0  0  0  0
 14 30  1  0  0  0  0
 15 19  1  0  0  0  0
 15 31  1  0  0  0  0
 16 17  1  0  0  0  0
 16 18  1  0  0  0  0
 16 22  1  0  0  0  0
 16 32  1  0  0  0  0
 17 33  1  0  0  0  0
 18 20  1  0  0  0  0
 18 21  1  0  0  0  0
 18 34  1  0  0  0  0
 19 35  1  0  0  0  0
 19 36  1  0  0  0  0
 20 23  2  0  0  0  0
 20 24  1  0  0  0  0
 21 25  1  0  0  0  0
 21 37  1  0  0  0  0
 21 38  1  0  0  0  0
 22 26  2  0  0  0  0
 22 39  1  0  0  0  0
 23 40  1  0  0  0  0
 25 44  1  0  0  0  0
 26 46  1  0  0  0  0
 26 47  1  0  0  0  0
M  END
> <PUBCHEM_COMPOUND_CID>
439612

> <PUBCHEM_CONFORMER_RMSD>
1

> <PUBCHEM_CONFORMER_DIVERSEORDER>
2
12
10
61
27
5
44
49
11
26
30
53
46
21
43
62
54
39
22
48
41
58
52
13
9
47
20
28
1
8
34
45
59
3
42
56
16
40
23
55
6
17
57
15
60
38
4
35
51
24
25
37
32
36
19
33
50
14
29
18
31
7

> <PUBCHEM_MMFF94_PARTIAL_CHARGES>
36
1 -0.56
10 -0.57
11 0.28
12 0.28
13 0.56
14 0.28
15 0.28
16 0.14
17 0.56
18 0.14
19 0.28
2 -0.56
20 -0.12
21 0.06
22 -0.29
23 -0.07
24 0.71
25 0.45
26 -0.3
3 -0.36
39 0.15
4 -0.68
40 0.15
41 0.4
42 0.4
43 0.4
44 0.06
45 0.4
46 0.15
47 0.15
48 0.5
5 -0.68
6 -0.68
7 -0.68
8 -0.65
9 -0.57

> <PUBCHEM_EFFECTIVE_ROTOR_COUNT>
9

> <PUBCHEM_PHARMACOPHORE_FEATURES>
18
1 1 acceptor
1 10 acceptor
1 2 acceptor
1 26 hydrophobe
1 3 acceptor
1 4 acceptor
1 4 donor
1 5 acceptor
1 5 donor
1 6 acceptor
1 6 donor
1 7 acceptor
1 7 donor
1 8 acceptor
1 9 acceptor
3 8 9 24 anion
6 1 11 12 13 14 15 rings
6 3 16 17 18 20 23 rings

> <PUBCHEM_HEAVY_ATOM_COUNT>
26

> <PUBCHEM_ATOM_DEF_STEREO_COUNT>
8

> <PUBCHEM_ATOM_UDEF_STEREO_COUNT>
0

> <PUBCHEM_BOND_DEF_STEREO_COUNT>
0

> <PUBCHEM_BOND_UDEF_STEREO_COUNT>
0

> <PUBCHEM_ISOTOPIC_ATOM_COUNT>
0

> <PUBCHEM_COMPONENT_COUNT>
1

> <PUBCHEM_CACTVS_TAUTO_COUNT>
2

> <PUBCHEM_CONFORMER_ID>
0006B53C00000002

> <PUBCHEM_MMFF94_ENERGY>
67.3436

> <PUBCHEM_FEATURE_SELFOVERLAP>
91.5

> <PUBCHEM_SHAPE_FINGERPRINT>
10366900 7 17603587439257737937
10906281 52 17968646228970925337
1100329 8 16751833461015029609
11045977 3 18408322211476977774
12107183 9 17838341031377794256
12236239 1 16774078453592515157
12633257 1 18261945323709016107
12892183 10 18411424986151279988
13402501 40 18260826003829259673
13583140 156 18341069444645347868
14341114 176 18411414020857407640
15375358 24 18113894996523350237
1813 80 16128655271201167918
18222031 100 15769771381607523502
204376 136 17022903432352495236
20691752 17 16415487068889617170
20775530 9 16340355369216035346
21033648 29 17313679173923375704
21065198 57 18412263926081543201
21859007 373 17557998509058266549
22122407 14 16226312734755612617
23557571 272 18337092515324666053
23559900 14 18192970794344863311
4340502 62 18272932718110052088
5104073 3 18336827584350976929
5924683 9 18335987454947536695
633830 44 14273466872492368648
9709674 26 18260537944736120055

> <PUBCHEM_SHAPE_MULTIPOLES>
476.37
11.98
2.78
1.8
2.17
0.81
-1.57
-0.96
5.68
1.13
0.73
-1.17
1.11
1.21

> <PUBCHEM_SHAPE_SELFOVERLAP>
985.326

> <PUBCHEM_SHAPE_VOLUME>
265.4

> <PUBCHEM_COORDINATE_TYPE>
2
5
10

$$$$

