443718
  -OEChem-07051213033D

 49 52  0     0  0  0  0  0  0999 V2000
   -4.4579   -1.6214    0.1158 O   0  0  0  0  0  0  0  0  0  0  0  0
   -2.2112   -2.4891    0.6401 O   0  0  0  0  0  0  0  0  0  0  0  0
   -6.0046    0.5338   -0.4501 O   0  0  0  0  0  0  0  0  0  0  0  0
    5.0305   -1.8392   -0.2620 O   0  0  0  0  0  0  0  0  0  0  0  0
    6.0581    0.7407   -0.1798 O   0  0  0  0  0  0  0  0  0  0  0  0
   -0.2385   -1.2579    0.5404 N   0  0  0  0  0  0  0  0  0  0  0  0
    0.4382   -0.0208    0.2076 C   0  0  0  0  0  0  0  0  0  0  0  0
   -0.3782    1.1316    0.0496 C   0  0  0  0  0  0  0  0  0  0  0  0
   -1.8475    1.0068   -0.0569 C   0  0  0  0  0  0  0  0  0  0  0  0
    1.8811    0.0978    0.0809 C   0  0  0  0  0  0  0  0  0  0  0  0
   -2.4514   -0.2443    0.0985 C   0  0  0  0  0  0  0  0  0  0  0  0
    2.4513    1.3972    0.0286 C   0  0  0  0  0  0  0  0  0  0  0  0
   -1.6308   -1.4212    0.4394 C   0  0  0  0  0  0  0  0  0  0  0  0
    0.2497    2.3868   -0.0099 C   0  0  0  0  0  0  0  0  0  0  0  0
    1.6316    2.5188    0.0167 C   0  0  0  0  0  0  0  0  0  0  0  0
   -3.8429   -0.4102   -0.0295 C   0  0  0  0  0  0  0  0  0  0  0  0
    2.8211   -0.9628   -0.0607 C   0  0  0  0  0  0  0  0  0  0  0  0
   -2.7018    2.0890   -0.3586 C   0  0  0  0  0  0  0  0  0  0  0  0
    0.4754   -2.3753    1.1451 C   0  0  0  0  0  0  0  0  0  0  0  0
    3.8426    1.5940   -0.0381 C   0  0  0  0  0  0  0  0  0  0  0  0
   -4.6571    0.6776   -0.3214 C   0  0  0  0  0  0  0  0  0  0  0  0
    4.2045   -0.7627   -0.1403 C   0  0  0  0  0  0  0  0  0  0  0  0
   -4.0856    1.9295   -0.4861 C   0  0  0  0  0  0  0  0  0  0  0  0
    4.7181    0.5196   -0.1096 C   0  0  0  0  0  0  0  0  0  0  0  0
   -4.6073   -2.4132   -1.0590 C   0  0  0  0  0  0  0  0  0  0  0  0
   -6.7900    0.6916    0.7305 C   0  0  0  0  0  0  0  0  0  0  0  0
    5.3271   -2.2823   -1.5848 C   0  0  0  0  0  0  0  0  0  0  0  0
    6.7756    0.7855    1.0533 C   0  0  0  0  0  0  0  0  0  0  0  0
   -0.3191    3.3101   -0.0707 H   0  0  0  0  0  0  0  0  0  0  0  0
    2.0545    3.5212   -0.0229 H   0  0  0  0  0  0  0  0  0  0  0  0
    2.4899   -1.9898   -0.1603 H   0  0  0  0  0  0  0  0  0  0  0  0
   -2.3179    3.0928   -0.5173 H   0  0  0  0  0  0  0  0  0  0  0  0
   -0.1919   -2.9447    1.8022 H   0  0  0  0  0  0  0  0  0  0  0  0
    1.2958   -2.0306    1.7794 H   0  0  0  0  0  0  0  0  0  0  0  0
    0.8052   -3.0601    0.3594 H   0  0  0  0  0  0  0  0  0  0  0  0
    4.2529    2.6033   -0.0537 H   0  0  0  0  0  0  0  0  0  0  0  0
   -4.7041    2.7918   -0.7206 H   0  0  0  0  0  0  0  0  0  0  0  0
   -3.6790   -2.4568   -1.6381 H   0  0  0  0  0  0  0  0  0  0  0  0
   -5.4111   -2.0095   -1.6823 H   0  0  0  0  0  0  0  0  0  0  0  0
   -4.8787   -3.4282   -0.7563 H   0  0  0  0  0  0  0  0  0  0  0  0
   -6.6771    1.7032    1.1331 H   0  0  0  0  0  0  0  0  0  0  0  0
   -6.5048   -0.0476    1.4857 H   0  0  0  0  0  0  0  0  0  0  0  0
   -7.8396    0.5350    0.4669 H   0  0  0  0  0  0  0  0  0  0  0  0
    4.4128   -2.5960   -2.0985 H   0  0  0  0  0  0  0  0  0  0  0  0
    6.0012   -3.1404   -1.5153 H   0  0  0  0  0  0  0  0  0  0  0  0
    5.8255   -1.4910   -2.1536 H   0  0  0  0  0  0  0  0  0  0  0  0
    7.8298    0.9695    0.8297 H   0  0  0  0  0  0  0  0  0  0  0  0
    6.6909   -0.1690    1.5823 H   0  0  0  0  0  0  0  0  0  0  0  0
    6.4031    1.5994    1.6834 H   0  0  0  0  0  0  0  0  0  0  0  0
  1 16  1  0  0  0  0
  1 25  1  0  0  0  0
  2 13  2  0  0  0  0
  3 21  1  0  0  0  0
  3 26  1  0  0  0  0
  4 22  1  0  0  0  0
  4 27  1  0  0  0  0
  5 24  1  0  0  0  0
  5 28  1  0  0  0  0
  6  7  1  0  0  0  0
  6 13  1  0  0  0  0
  6 19  1  0  0  0  0
  7  8  2  0  0  0  0
  7 10  1  0  0  0  0
  8  9  1  0  0  0  0
  8 14  1  0  0  0  0
  9 11  2  0  0  0  0
  9 18  1  0  0  0  0
 10 12  1  0  0  0  0
 10 17  2  0  0  0  0
 11 13  1  0  0  0  0
 11 16  1  0  0  0  0
 12 15  1  0  0  0  0
 12 20  2  0  0  0  0
 14 15  2  0  0  0  0
 14 29  1  0  0  0  0
 15 30  1  0  0  0  0
 16 21  2  0  0  0  0
 17 22  1  0  0  0  0
 17 31  1  0  0  0  0
 18 23  2  0  0  0  0
 18 32  1  0  0  0  0
 19 33  1  0  0  0  0
 19 34  1  0  0  0  0
 19 35  1  0  0  0  0
 20 24  1  0  0  0  0
 20 36  1  0  0  0  0
 21 23  1  0  0  0  0
 22 24  2  0  0  0  0
 23 37  1  0  0  0  0
 25 38  1  0  0  0  0
 25 39  1  0  0  0  0
 25 40  1  0  0  0  0
 26 41  1  0  0  0  0
 26 42  1  0  0  0  0
 26 43  1  0  0  0  0
 27 44  1  0  0  0  0
 27 45  1  0  0  0  0
 27 46  1  0  0  0  0
 28 47  1  0  0  0  0
 28 48  1  0  0  0  0
 28 49  1  0  0  0  0
M  END
> <PUBCHEM_COMPOUND_CID>
443718

> <PUBCHEM_CONFORMER_RMSD>
0.8

> <PUBCHEM_CONFORMER_DIVERSEORDER>
2
3
1

> <PUBCHEM_MMFF94_PARTIAL_CHARGES>
30
1 -0.36
11 0.09
13 0.54
14 -0.15
15 -0.15
16 0.08
17 -0.15
18 -0.15
19 0.3
2 -0.57
20 -0.15
21 0.08
22 0.08
23 -0.15
24 0.08
25 0.28
26 0.28
27 0.28
28 0.28
29 0.15
3 -0.36
30 0.15
31 0.15
32 0.15
36 0.15
37 0.15
4 -0.36
5 -0.36
6 -0.48
7 0.12

> <PUBCHEM_EFFECTIVE_ROTOR_COUNT>
4

> <PUBCHEM_PHARMACOPHORE_FEATURES>
9
1 1 acceptor
1 2 acceptor
1 3 acceptor
1 4 acceptor
1 5 acceptor
6 10 12 17 20 22 24 rings
6 6 7 8 9 11 13 rings
6 7 8 10 12 14 15 rings
6 9 11 16 18 21 23 rings

> <PUBCHEM_HEAVY_ATOM_COUNT>
28

> <PUBCHEM_ATOM_DEF_STEREO_COUNT>
0

> <PUBCHEM_ATOM_UDEF_STEREO_COUNT>
0

> <PUBCHEM_BOND_DEF_STEREO_COUNT>
0

> <PUBCHEM_BOND_UDEF_STEREO_COUNT>
0

> <PUBCHEM_ISOTOPIC_ATOM_COUNT>
0

> <PUBCHEM_COMPONENT_COUNT>
1

> <PUBCHEM_CACTVS_TAUTO_COUNT>
1

> <PUBCHEM_CONFORMER_ID>
0006C54600000002

> <PUBCHEM_MMFF94_ENERGY>
152.5786

> <PUBCHEM_FEATURE_SELFOVERLAP>
45.769

> <PUBCHEM_SHAPE_FINGERPRINT>
10411042 1 17765993896837183843
10906281 52 18339624673729409256
11578080 2 17024891259349967296
12236239 1 17894630387728370249
12516196 113 18186804681697303640
12838862 33 18270137776585019125
13140716 1 18198336265655639977
13402501 40 18411981368751624132
13533116 47 17822010956249367794
14341114 176 18409444808533098165
14790565 3 18341889744649660937
15183329 4 18411982468147122812
15196674 1 18411700975985294176
15420108 30 17395839329852892689
18608769 82 18201433637261337355
19591789 44 18413673508704477899
200 152 17894912923050124600
21033648 29 17822307734099602808
21130935 74 18113335327640619343
21133410 171 17111345820310561242
21236236 1 18410857625366795875
21267235 1 18339071691767159085
21279426 13 18267022936819724300
21781051 124 17702077254568334347
221357 26 18410293644141390141
22393880 68 18342747355002200165
23402539 116 18410862027164916573
23559900 14 18336552629002849633
3004659 81 18273210937575535262
3178227 256 18272639161243093457
335352 9 18412546496812789853
350125 39 18342455920102221181
3545911 37 18411138034717168752
3680242 22 18200879594748016432
3886686 26 6983590272520307828
404807 14 16523536286445900159
4073 2 18272366426250140050
4093350 32 17530962527147361974
4214541 1 18411982442514839373
5104073 3 18335140946862892688
6138700 20 18340204219194064086
9709674 26 18339920407406653463

> <PUBCHEM_SHAPE_MULTIPOLES>
541.9
14.93
2.86
0.9
2.57
0.63
0.06
0.73
0.88
-0.15
0.25
0.35
0.4
0.84

> <PUBCHEM_SHAPE_SELFOVERLAP>
1200.851

> <PUBCHEM_SHAPE_VOLUME>
291.7

> <PUBCHEM_COORDINATE_TYPE>
2
5
10

$$$$

