3034287
  -OEChem-07051213123D

 33 33  0     1  0  0  0  0  0999 V2000
    4.8712    1.4606   -0.7000 Cl  0  0  0  0  0  0  0  0  0  0  0  0
   -2.5921    2.9007    1.0669 O   0  5  0  0  0  0  0  0  0  0  0  0
   -3.1022    1.9983   -0.8764 O   0  0  0  0  0  0  0  0  0  0  0  0
   -0.9753   -1.3469    0.3234 N   0  0  3  0  0  0  0  0  0  0  0  0
   -1.4466    0.1857   -1.5612 N   0  0  0  0  0  0  0  0  0  0  0  0
    2.5970    1.3041    0.5331 N   0  0  0  0  0  0  0  0  0  0  0  0
   -2.6231    1.9545    0.2663 N   0  3  0  0  0  0  0  0  0  0  0  0
    0.0861   -1.3899    1.3319 C   0  0  0  0  0  0  0  0  0  0  0  0
   -1.5232   -2.6540   -0.0317 C   0  0  0  0  0  0  0  0  0  0  0  0
   -1.4985   -0.1286   -0.1966 C   0  0  0  0  0  0  0  0  0  0  0  0
    1.3132   -0.7161    0.7976 C   0  0  0  0  0  0  0  0  0  0  0  0
   -2.9765   -2.7439    0.3927 C   0  0  0  0  0  0  0  0  0  0  0  0
    2.2693   -1.4385    0.1035 C   0  0  0  0  0  0  0  0  0  0  0  0
    1.5132    0.6359    0.9879 C   0  0  0  0  0  0  0  0  0  0  0  0
   -2.0653    0.7205    0.6929 C   0  0  0  0  0  0  0  0  0  0  0  0
    3.3980   -0.7862   -0.3801 C   0  0  0  0  0  0  0  0  0  0  0  0
   -0.7585   -0.5299   -2.6091 C   0  0  0  0  0  0  0  0  0  0  0  0
    3.5134    0.5737   -0.1409 C   0  0  0  0  0  0  0  0  0  0  0  0
    0.3416   -2.4130    1.6354 H   0  0  0  0  0  0  0  0  0  0  0  0
   -0.2484   -0.8979    2.2540 H   0  0  0  0  0  0  0  0  0  0  0  0
   -1.4456   -2.8165   -1.1110 H   0  0  0  0  0  0  0  0  0  0  0  0
   -0.9677   -3.4761    0.4339 H   0  0  0  0  0  0  0  0  0  0  0  0
   -3.0868   -2.5583    1.4664 H   0  0  0  0  0  0  0  0  0  0  0  0
   -3.6011   -2.0207   -0.1418 H   0  0  0  0  0  0  0  0  0  0  0  0
   -3.3707   -3.7425    0.1788 H   0  0  0  0  0  0  0  0  0  0  0  0
   -1.8525    1.0717   -1.8406 H   0  0  0  0  0  0  0  0  0  0  0  0
    2.1493   -2.5039   -0.0704 H   0  0  0  0  0  0  0  0  0  0  0  0
    0.8039    1.2497    1.5332 H   0  0  0  0  0  0  0  0  0  0  0  0
   -2.1235    0.5858    1.7646 H   0  0  0  0  0  0  0  0  0  0  0  0
    4.1561   -1.3371   -0.9267 H   0  0  0  0  0  0  0  0  0  0  0  0
   -0.6627    0.1108   -3.4912 H   0  0  0  0  0  0  0  0  0  0  0  0
   -1.3215   -1.4195   -2.9036 H   0  0  0  0  0  0  0  0  0  0  0  0
    0.2476   -0.8239   -2.2973 H   0  0  0  0  0  0  0  0  0  0  0  0
  1 18  1  0  0  0  0
  2  7  1  0  0  0  0
  3  7  2  0  0  0  0
  4  8  1  0  0  0  0
  4  9  1  0  0  0  0
  4 10  1  0  0  0  0
  5 10  1  0  0  0  0
  5 17  1  0  0  0  0
  5 26  1  0  0  0  0
  6 14  1  0  0  0  0
  6 18  2  0  0  0  0
  7 15  1  0  0  0  0
  8 11  1  0  0  0  0
  8 19  1  0  0  0  0
  8 20  1  0  0  0  0
  9 12  1  0  0  0  0
  9 21  1  0  0  0  0
  9 22  1  0  0  0  0
 10 15  2  0  0  0  0
 11 13  1  0  0  0  0
 11 14  2  0  0  0  0
 12 23  1  0  0  0  0
 12 24  1  0  0  0  0
 12 25  1  0  0  0  0
 13 16  2  0  0  0  0
 13 27  1  0  0  0  0
 14 28  1  0  0  0  0
 15 29  1  0  0  0  0
 16 18  1  0  0  0  0
 16 30  1  0  0  0  0
 17 31  1  0  0  0  0
 17 32  1  0  0  0  0
 17 33  1  0  0  0  0
M  CHG  2   2  -1   7   1
M  END
> <PUBCHEM_COMPOUND_CID>
3034287

> <PUBCHEM_CONFORMER_RMSD>
0.8

> <PUBCHEM_CONFORMER_DIVERSEORDER>
3
36
25
11
44
12
8
41
23
13
16
42
38
28
21
30
34
27
15
39
33
4
37
29
17
10
26
18
40
35
22
6
32
19
20
1
9
14
31
24
5
7
43
2

> <PUBCHEM_MMFF94_PARTIAL_CHARGES>
22
1 -0.18
10 0.2
11 -0.14
13 -0.15
14 0.16
15 0.05
16 -0.15
17 0.37
18 0.49
2 -0.52
26 0.4
27 0.15
28 0.15
29 0.15
3 -0.52
30 0.15
4 -0.84
5 -0.87
6 -0.62
7 0.84
8 0.51
9 0.37

> <PUBCHEM_EFFECTIVE_ROTOR_COUNT>
6

> <PUBCHEM_PHARMACOPHORE_FEATURES>
8
1 2 acceptor
1 2 anion
1 3 acceptor
1 4 cation
1 5 cation
1 5 donor
1 6 acceptor
6 6 11 13 14 16 18 rings

> <PUBCHEM_HEAVY_ATOM_COUNT>
18

> <PUBCHEM_ATOM_DEF_STEREO_COUNT>
0

> <PUBCHEM_ATOM_UDEF_STEREO_COUNT>
0

> <PUBCHEM_BOND_DEF_STEREO_COUNT>
1

> <PUBCHEM_BOND_UDEF_STEREO_COUNT>
0

> <PUBCHEM_ISOTOPIC_ATOM_COUNT>
0

> <PUBCHEM_COMPONENT_COUNT>
1

> <PUBCHEM_CACTVS_TAUTO_COUNT>
2

> <PUBCHEM_CONFORMER_ID>
002E4CAF00000003

> <PUBCHEM_MMFF94_ENERGY>
61.0757

> <PUBCHEM_FEATURE_SELFOVERLAP>
40.696

> <PUBCHEM_SHAPE_FINGERPRINT>
12173636 292 18409169913108564454
128993 33 17987803045752011340
14142880 1 17917718967653515973
14614273 12 17632033965094234038
16945 1 18264217932270050322
17134986 127 18126290984724362431
1741750 31 18409451422697968018
18981168 100 18336564749458178802
19868273 293 17676780858528875540
20510252 161 18269838622968777139
20645476 183 18264491869679331179
20671657 1 18127696147842605714
21501502 16 18343869905219933738
21524375 3 18127695039767222211
22802520 49 18186805755486106992
23227448 37 18411976936240256469
23402539 116 17485938441034844378
23419403 2 16758081435787281919
23557571 272 18268987579626060014
23559900 14 18261953076906025258
25 1 18266455606220901658
298252 57 17242467241728821271
633830 44 17972877248577801237
74978 22 18339369659676989914
81228 2 17917146087725559635
8272917 22 17689721187571522377
9999458 23 17907569582202714583

> <PUBCHEM_SHAPE_MULTIPOLES>
340.64
6.72
2.85
1.5
6.74
0.53
-1
2.24
-0.76
-3.3
0.6
-0.54
0.08
-0.22

> <PUBCHEM_SHAPE_SELFOVERLAP>
682.134

> <PUBCHEM_SHAPE_VOLUME>
202.5

> <PUBCHEM_COORDINATE_TYPE>
2
5
10

$$$$

