583278
  -OEChem-06241222453D

 29 30  0     0  0  0  0  0  0999 V2000
   -1.8251   -0.0914    1.7416 S   0  0  0  0  0  0  0  0  0  0  0  0
   -3.0692   -1.3022   -0.7356 S   0  0  0  0  0  0  0  0  0  0  0  0
    3.3033   -0.6964    0.5301 O   0  0  0  0  0  0  0  0  0  0  0  0
    2.0843    0.6406   -0.9664 O   0  0  0  0  0  0  0  0  0  0  0  0
   -0.3237   -0.9057   -0.4612 C   0  0  0  0  0  0  0  0  0  0  0  0
    0.9089   -0.9361    0.4374 C   0  0  0  0  0  0  0  0  0  0  0  0
   -1.5924   -1.2137    0.3265 C   0  0  0  0  0  0  0  0  0  0  0  0
    2.1731   -0.6512   -0.3504 C   0  0  0  0  0  0  0  0  0  0  0  0
   -3.3947    1.3815   -0.0366 C   0  0  0  0  0  0  0  0  0  0  0  0
   -2.1758    1.4672    0.8748 C   0  0  0  0  0  0  0  0  0  0  0  0
   -3.2311    0.4407   -1.2249 C   0  0  0  0  0  0  0  0  0  0  0  0
    4.0881    0.4318    0.1488 C   0  0  0  0  0  0  0  0  0  0  0  0
    3.0544    1.4349   -0.2842 C   0  0  0  0  0  0  0  0  0  0  0  0
   -0.3907    0.0653   -0.9630 H   0  0  0  0  0  0  0  0  0  0  0  0
   -0.1972   -1.6548   -1.2543 H   0  0  0  0  0  0  0  0  0  0  0  0
    0.9994   -1.9085    0.9371 H   0  0  0  0  0  0  0  0  0  0  0  0
    0.8420   -0.1845    1.2315 H   0  0  0  0  0  0  0  0  0  0  0  0
   -1.4871   -2.2148    0.7589 H   0  0  0  0  0  0  0  0  0  0  0  0
    2.3186   -1.3974   -1.1395 H   0  0  0  0  0  0  0  0  0  0  0  0
   -4.2868    1.1115    0.5437 H   0  0  0  0  0  0  0  0  0  0  0  0
   -3.5886    2.3873   -0.4309 H   0  0  0  0  0  0  0  0  0  0  0  0
   -1.2892    1.7873    0.3186 H   0  0  0  0  0  0  0  0  0  0  0  0
   -2.3571    2.2282    1.6414 H   0  0  0  0  0  0  0  0  0  0  0  0
   -4.1201    0.5141   -1.8605 H   0  0  0  0  0  0  0  0  0  0  0  0
   -2.3786    0.7331   -1.8456 H   0  0  0  0  0  0  0  0  0  0  0  0
    4.7345    0.1327   -0.6835 H   0  0  0  0  0  0  0  0  0  0  0  0
    4.7048    0.7757    0.9826 H   0  0  0  0  0  0  0  0  0  0  0  0
    2.5634    1.9034    0.5757 H   0  0  0  0  0  0  0  0  0  0  0  0
    3.4511    2.2119   -0.9422 H   0  0  0  0  0  0  0  0  0  0  0  0
  1  7  1  0  0  0  0
  1 10  1  0  0  0  0
  2  7  1  0  0  0  0
  2 11  1  0  0  0  0
  3  8  1  0  0  0  0
  3 12  1  0  0  0  0
  4  8  1  0  0  0  0
  4 13  1  0  0  0  0
  5  6  1  0  0  0  0
  5  7  1  0  0  0  0
  5 14  1  0  0  0  0
  5 15  1  0  0  0  0
  6  8  1  0  0  0  0
  6 16  1  0  0  0  0
  6 17  1  0  0  0  0
  7 18  1  0  0  0  0
  8 19  1  0  0  0  0
  9 10  1  0  0  0  0
  9 11  1  0  0  0  0
  9 20  1  0  0  0  0
  9 21  1  0  0  0  0
 10 22  1  0  0  0  0
 10 23  1  0  0  0  0
 11 24  1  0  0  0  0
 11 25  1  0  0  0  0
 12 13  1  0  0  0  0
 12 26  1  0  0  0  0
 12 27  1  0  0  0  0
 13 28  1  0  0  0  0
 13 29  1  0  0  0  0
M  END
> <PUBCHEM_COMPOUND_CID>
583278

> <PUBCHEM_CONFORMER_RMSD>
0.6

> <PUBCHEM_CONFORMER_DIVERSEORDER>
1
38
20
40
9
14
39
37
10
41
33
21
23
7
35
36
8
30
5
32
15
17
34
16
2
6
13
3
28
22
4
26
12
27
19
18
11
25
24
31
29

> <PUBCHEM_MMFF94_PARTIAL_CHARGES>
10
1 -0.46
10 0.23
11 0.23
12 0.28
13 0.28
2 -0.46
3 -0.56
4 -0.56
7 0.46
8 0.56

> <PUBCHEM_EFFECTIVE_ROTOR_COUNT>
5.2

> <PUBCHEM_PHARMACOPHORE_FEATURES>
4
1 3 acceptor
1 4 acceptor
5 3 4 8 12 13 rings
6 1 2 7 9 10 11 rings

> <PUBCHEM_HEAVY_ATOM_COUNT>
13

> <PUBCHEM_ATOM_DEF_STEREO_COUNT>
0

> <PUBCHEM_ATOM_UDEF_STEREO_COUNT>
0

> <PUBCHEM_BOND_DEF_STEREO_COUNT>
0

> <PUBCHEM_BOND_UDEF_STEREO_COUNT>
0

> <PUBCHEM_ISOTOPIC_ATOM_COUNT>
0

> <PUBCHEM_COMPONENT_COUNT>
1

> <PUBCHEM_CACTVS_TAUTO_COUNT>
1

> <PUBCHEM_CONFORMER_ID>
0008E66E00000001

> <PUBCHEM_MMFF94_ENERGY>
21.7526

> <PUBCHEM_FEATURE_SELFOVERLAP>
20.338

> <PUBCHEM_SHAPE_FINGERPRINT>
12162725 195 18411138021847720966
122479 349 18200587120376176681
124424 183 17203897365979656718
12932764 1 18341033160571681314
13296908 3 8070031038718856786
14123260 362 18339911662858643796
14144814 61 18343301461691824834
14577589 140 9871478620850904495
15239191 94 8790887384591144844
15775835 57 18410008866371661005
17802600 8 18261678073521551848
18186145 218 18342172297578299238
19107657 47 17775573052121292624
20279233 1 15841276969384939754
20281407 28 9079106744220184079
20281475 54 9295292729242757864
20300324 65 17968103001527828725
20645464 45 16128655275643834443
20653085 51 18266171910994200463
20711983 171 18260263062022408108
20871999 31 13912602809918200537
22485316 2 9007063460955374766
2306618 200 18410291406816635921
23402539 116 17822301162393483526
23419403 2 16984608388162387603
23557571 272 17386001732787938911
305870 269 18272367607276904282
3248919 1 17822284704152878822
528716 315 16732984232447906913
8030462 33 16660358224910315806

> <PUBCHEM_SHAPE_MULTIPOLES>
263.49
7.37
1.61
1.25
4.64
0.26
0.28
1.75
-1.11
-0.8
-0.03
-0.84
0.08
-0.48

> <PUBCHEM_SHAPE_SELFOVERLAP>
495.162

> <PUBCHEM_SHAPE_VOLUME>
163.8

> <PUBCHEM_COORDINATE_TYPE>
2
5
10

$$$$

