8226
  -OEChem-06261202403D

 50 53  0     1  0  0  0  0  0999 V2000
   -2.4860    0.4702   -1.4665 O   0  0  0  0  0  0  0  0  0  0  0  0
   -6.0892   -0.2907    1.8259 O   0  0  0  0  0  0  0  0  0  0  0  0
    0.2253   -2.4600   -0.0025 N   0  0  1  0  0  0  0  0  0  0  0  0
    5.6035    0.1905    0.2103 N   0  0  0  0  0  0  0  0  0  0  0  0
   -3.5821    0.2779    0.5782 N   0  0  0  0  0  0  0  0  0  0  0  0
    1.3419   -1.5309   -0.3351 C   0  0  1  0  0  0  0  0  0  0  0  0
    1.0214   -0.0448    0.0074 C   0  0  0  0  0  0  0  0  0  0  0  0
    2.6667   -2.0468    0.3403 C   0  0  0  0  0  0  0  0  0  0  0  0
   -1.3726   -0.6147    0.3447 C   0  0  1  0  0  0  0  0  0  0  0  0
   -1.0672   -1.9016   -0.4257 C   0  0  0  0  0  0  0  0  0  0  0  0
    3.7412   -1.0220    0.2594 C   0  0  0  0  0  0  0  0  0  0  0  0
    2.1389    0.9249   -0.0326 C   0  0  0  0  0  0  0  0  0  0  0  0
    3.4030    0.3365    0.0909 C   0  0  0  0  0  0  0  0  0  0  0  0
   -0.2200    0.3415    0.3497 C   0  0  0  0  0  0  0  0  0  0  0  0
    4.5669    1.0868    0.0650 C   0  0  0  0  0  0  0  0  0  0  0  0
    0.4039   -3.7830   -0.6097 C   0  0  0  0  0  0  0  0  0  0  0  0
   -2.5260    0.0946   -0.2977 C   0  0  0  0  0  0  0  0  0  0  0  0
    5.1126   -1.0917    0.3315 C   0  0  0  0  0  0  0  0  0  0  0  0
    2.0928    2.3160   -0.1850 C   0  0  0  0  0  0  0  0  0  0  0  0
    4.5386    2.4740   -0.0850 C   0  0  0  0  0  0  0  0  0  0  0  0
    3.2742    3.0711   -0.2093 C   0  0  0  0  0  0  0  0  0  0  0  0
   -4.8047    0.9553    0.2115 C   0  0  1  0  0  0  0  0  0  0  0  0
   -5.4960    0.2479   -0.9617 C   0  0  0  0  0  0  0  0  0  0  0  0
   -5.7341    1.0274    1.4234 C   0  0  0  0  0  0  0  0  0  0  0  0
   -6.7531    0.9716   -1.4274 C   0  0  0  0  0  0  0  0  0  0  0  0
    1.4988   -1.5466   -1.4257 H   0  0  0  0  0  0  0  0  0  0  0  0
    3.0142   -2.9637   -0.1486 H   0  0  0  0  0  0  0  0  0  0  0  0
    2.4827   -2.2785    1.3975 H   0  0  0  0  0  0  0  0  0  0  0  0
   -1.5987   -0.8666    1.3886 H   0  0  0  0  0  0  0  0  0  0  0  0
   -1.8752   -2.6158   -0.2175 H   0  0  0  0  0  0  0  0  0  0  0  0
   -1.0753   -1.7344   -1.5122 H   0  0  0  0  0  0  0  0  0  0  0  0
   -0.4255    1.3667    0.6473 H   0  0  0  0  0  0  0  0  0  0  0  0
   -0.4487   -4.4317   -0.3765 H   0  0  0  0  0  0  0  0  0  0  0  0
    1.2815   -4.2954   -0.2051 H   0  0  0  0  0  0  0  0  0  0  0  0
    0.5010   -3.7270   -1.6998 H   0  0  0  0  0  0  0  0  0  0  0  0
    5.7877   -1.9259    0.4605 H   0  0  0  0  0  0  0  0  0  0  0  0
    1.1435    2.8331   -0.2977 H   0  0  0  0  0  0  0  0  0  0  0  0
    6.5834    0.4368    0.2303 H   0  0  0  0  0  0  0  0  0  0  0  0
    5.4463    3.0665   -0.1061 H   0  0  0  0  0  0  0  0  0  0  0  0
   -3.4699   -0.0111    1.5453 H   0  0  0  0  0  0  0  0  0  0  0  0
    3.2103    4.1503   -0.3310 H   0  0  0  0  0  0  0  0  0  0  0  0
   -4.5271    1.9722   -0.0919 H   0  0  0  0  0  0  0  0  0  0  0  0
   -4.8260    0.1868   -1.8250 H   0  0  0  0  0  0  0  0  0  0  0  0
   -5.7442   -0.7892   -0.7042 H   0  0  0  0  0  0  0  0  0  0  0  0
   -5.2359    1.5142    2.2694 H   0  0  0  0  0  0  0  0  0  0  0  0
   -6.6485    1.5901    1.2183 H   0  0  0  0  0  0  0  0  0  0  0  0
   -6.5517    2.0293   -1.6241 H   0  0  0  0  0  0  0  0  0  0  0  0
   -7.5608    0.8974   -0.6940 H   0  0  0  0  0  0  0  0  0  0  0  0
   -7.1188    0.5205   -2.3560 H   0  0  0  0  0  0  0  0  0  0  0  0
   -5.2727   -0.7657    2.0535 H   0  0  0  0  0  0  0  0  0  0  0  0
  1 17  2  0  0  0  0
  2 24  1  0  0  0  0
  2 50  1  0  0  0  0
  3  6  1  0  0  0  0
  3 10  1  0  0  0  0
  3 16  1  0  0  0  0
  4 15  1  0  0  0  0
  4 18  1  0  0  0  0
  4 38  1  0  0  0  0
  5 17  1  0  0  0  0
  5 22  1  0  0  0  0
  5 40  1  0  0  0  0
  6  7  1  0  0  0  0
  6  8  1  0  0  0  0
  6 26  1  0  0  0  0
  7 12  1  0  0  0  0
  7 14  2  0  0  0  0
  8 11  1  0  0  0  0
  8 27  1  0  0  0  0
  8 28  1  0  0  0  0
  9 10  1  0  0  0  0
  9 14  1  0  0  0  0
  9 17  1  0  0  0  0
  9 29  1  0  0  0  0
 10 30  1  0  0  0  0
 10 31  1  0  0  0  0
 11 13  1  0  0  0  0
 11 18  2  0  0  0  0
 12 13  2  0  0  0  0
 12 19  1  0  0  0  0
 13 15  1  0  0  0  0
 14 32  1  0  0  0  0
 15 20  2  0  0  0  0
 16 33  1  0  0  0  0
 16 34  1  0  0  0  0
 16 35  1  0  0  0  0
 18 36  1  0  0  0  0
 19 21  2  0  0  0  0
 19 37  1  0  0  0  0
 20 21  1  0  0  0  0
 20 39  1  0  0  0  0
 21 41  1  0  0  0  0
 22 23  1  0  0  0  0
 22 24  1  0  0  0  0
 22 42  1  0  0  0  0
 23 25  1  0  0  0  0
 23 43  1  0  0  0  0
 23 44  1  0  0  0  0
 24 45  1  0  0  0  0
 24 46  1  0  0  0  0
 25 47  1  0  0  0  0
 25 48  1  0  0  0  0
 25 49  1  0  0  0  0
M  END
> <PUBCHEM_COMPOUND_CID>
8226

> <PUBCHEM_CONFORMER_RMSD>
0.8

> <PUBCHEM_CONFORMER_DIVERSEORDER>
5
19
24
7
30
9
25
8
18
15
32
13
14
3
20
17
1
27
11
10
28
6
22
23
21
12
26
29
16
2
4
31

> <PUBCHEM_MMFF94_PARTIAL_CHARGES>
30
1 -0.57
10 0.27
11 -0.18
12 0.03
14 -0.29
15 -0.15
16 0.27
17 0.57
18 -0.3
19 -0.15
2 -0.68
20 -0.15
21 -0.15
22 0.3
24 0.28
3 -0.81
32 0.15
36 0.15
37 0.15
38 0.27
39 0.15
4 0.03
40 0.37
41 0.15
5 -0.73
50 0.4
6 0.41
7 -0.17
8 0.18
9 0.2

> <PUBCHEM_EFFECTIVE_ROTOR_COUNT>
5.8

> <PUBCHEM_PHARMACOPHORE_FEATURES>
12
1 1 acceptor
1 2 acceptor
1 2 donor
1 25 hydrophobe
1 3 cation
1 4 cation
1 4 donor
1 5 donor
5 4 11 13 15 18 rings
6 12 13 15 19 20 21 rings
6 3 6 7 9 10 14 rings
6 6 7 8 11 12 13 rings

> <PUBCHEM_HEAVY_ATOM_COUNT>
25

> <PUBCHEM_ATOM_DEF_STEREO_COUNT>
3

> <PUBCHEM_ATOM_UDEF_STEREO_COUNT>
0

> <PUBCHEM_BOND_DEF_STEREO_COUNT>
0

> <PUBCHEM_BOND_UDEF_STEREO_COUNT>
0

> <PUBCHEM_ISOTOPIC_ATOM_COUNT>
0

> <PUBCHEM_COMPONENT_COUNT>
1

> <PUBCHEM_CACTVS_TAUTO_COUNT>
2

> <PUBCHEM_CONFORMER_ID>
0000202200000005

> <PUBCHEM_MMFF94_ENERGY>
56.4471

> <PUBCHEM_FEATURE_SELFOVERLAP>
61.141

> <PUBCHEM_SHAPE_FINGERPRINT>
10090160 65 18335421300679130059
10411042 1 17834399299757798766
10693767 8 17896600772795731814
10763959 59 17988929976456702557
1100329 8 18410015408239914266
11045977 3 17917706911896665467
11796584 16 5400798349967151717
12236239 1 17603870026287807185
12730499 353 18343578547027381827
12788726 201 17604131684428664800
12838862 33 18338252500667073312
13140716 1 18268154167550789666
13402501 40 18130514118851151621
13540713 5 18125456211477508938
13583140 156 17274561882790217419
13785724 45 17832419079015331658
13878862 14 18270704003002492956
14251764 75 18194954141644829180
14464042 87 17894625984954590088
14790565 3 18335981987036839831
15081414 286 18263921197669915854
15183329 4 18334013895388141773
15196674 1 18338800009769706854
15475509 35 16630252501873535538
15475509 8 17970607779679655956
16728300 4 17270069420883971618
20028762 73 18186806915164538166
20157964 124 18411141355217070445
20612939 158 18409452492187275813
21033648 144 18271254824083762613
21033648 29 17346332496062200797
21033650 10 16371821046649893432
21054139 6 18114476586819979039
21197605 99 18268418045741391227
21236236 1 18337110047803511871
21267235 1 18340199804505442250
21307412 95 17824234134871044222
21623969 137 18340476825295164139
21792961 116 17916308411011871766
23558518 356 17839745868352386938
23559900 14 18187365403480329674
23569917 315 18260547822639804983
23845131 108 18201723929352940571
3178227 256 18342168999328259482
335352 9 18410294714479563246
34797466 226 14635163278448792923
350125 39 18265614282199570163
38695281 34 18334017219972540359
474 4 18408042922432989851
5104073 3 18269561546460350378
7832392 63 18266182738981137662
8272917 22 18334571386538181230
9999458 23 18202283602614787270

> <PUBCHEM_SHAPE_MULTIPOLES>
487.81
14.46
3.05
1.05
19.13
1.19
0.1
-6.94
1.06
-3.47
-0.5
2.07
-0.1
-0.2

> <PUBCHEM_SHAPE_SELFOVERLAP>
1059.818

> <PUBCHEM_SHAPE_VOLUME>
266.7

> <PUBCHEM_COORDINATE_TYPE>
2
5
10

$$$$

