13049
  -OEChem-06261207413D

 29 29  0     1  0  0  0  0  0999 V2000
   -1.4386   -1.8585   -0.4757 O   0  0  0  0  0  0  0  0  0  0  0  0
   -3.4921   -0.1222    0.4816 N   0  0  0  0  0  0  0  0  0  0  0  0
    4.3761    0.3403    0.2257 N   0  0  0  0  0  0  0  0  0  0  0  0
   -2.0726    0.1763    0.7093 C   0  0  1  0  0  0  0  0  0  0  0  0
   -1.2236   -0.4455   -0.4224 C   0  0  1  0  0  0  0  0  0  0  0  0
    0.2658   -0.2366   -0.2502 C   0  0  0  0  0  0  0  0  0  0  0  0
   -1.9173    1.6960    0.7931 C   0  0  0  0  0  0  0  0  0  0  0  0
    0.9808    0.3889   -1.2565 C   0  0  0  0  0  0  0  0  0  0  0  0
    0.8791   -0.6757    0.9098 C   0  0  0  0  0  0  0  0  0  0  0  0
   -3.9510    0.4945   -0.7507 C   0  0  0  0  0  0  0  0  0  0  0  0
    2.3533    0.5810   -1.0977 C   0  0  0  0  0  0  0  0  0  0  0  0
    2.2515   -0.4834    1.0688 C   0  0  0  0  0  0  0  0  0  0  0  0
    2.9886    0.1448    0.0649 C   0  0  0  0  0  0  0  0  0  0  0  0
   -1.8167   -0.2615    1.6809 H   0  0  0  0  0  0  0  0  0  0  0  0
   -1.4992   -0.0478   -1.4033 H   0  0  0  0  0  0  0  0  0  0  0  0
   -0.9552    1.9450    1.2562 H   0  0  0  0  0  0  0  0  0  0  0  0
   -1.9248    2.1861   -0.1862 H   0  0  0  0  0  0  0  0  0  0  0  0
   -2.6904    2.1501    1.4239 H   0  0  0  0  0  0  0  0  0  0  0  0
   -3.6242   -1.1314    0.4226 H   0  0  0  0  0  0  0  0  0  0  0  0
    0.4989    0.7343   -2.1664 H   0  0  0  0  0  0  0  0  0  0  0  0
    0.3234   -1.1757    1.6972 H   0  0  0  0  0  0  0  0  0  0  0  0
   -1.6818   -2.1700    0.4123 H   0  0  0  0  0  0  0  0  0  0  0  0
   -3.4978    0.0856   -1.6566 H   0  0  0  0  0  0  0  0  0  0  0  0
   -3.8913    1.5858   -0.7593 H   0  0  0  0  0  0  0  0  0  0  0  0
   -5.0215    0.2736   -0.8442 H   0  0  0  0  0  0  0  0  0  0  0  0
    2.9166    1.0724   -1.8870 H   0  0  0  0  0  0  0  0  0  0  0  0
    2.7355   -0.8294    1.9785 H   0  0  0  0  0  0  0  0  0  0  0  0
    4.8379    0.0226    1.0674 H   0  0  0  0  0  0  0  0  0  0  0  0
    4.9112    0.7939   -0.5028 H   0  0  0  0  0  0  0  0  0  0  0  0
  1  5  1  0  0  0  0
  1 22  1  0  0  0  0
  2  4  1  0  0  0  0
  2 10  1  0  0  0  0
  2 19  1  0  0  0  0
  3 13  1  0  0  0  0
  3 28  1  0  0  0  0
  3 29  1  0  0  0  0
  4  5  1  0  0  0  0
  4  7  1  0  0  0  0
  4 14  1  0  0  0  0
  5  6  1  0  0  0  0
  5 15  1  0  0  0  0
  6  8  2  0  0  0  0
  6  9  1  0  0  0  0
  7 16  1  0  0  0  0
  7 17  1  0  0  0  0
  7 18  1  0  0  0  0
  8 11  1  0  0  0  0
  8 20  1  0  0  0  0
  9 12  2  0  0  0  0
  9 21  1  0  0  0  0
 10 23  1  0  0  0  0
 10 24  1  0  0  0  0
 10 25  1  0  0  0  0
 11 13  2  0  0  0  0
 11 26  1  0  0  0  0
 12 13  1  0  0  0  0
 12 27  1  0  0  0  0
M  END
> <PUBCHEM_COMPOUND_CID>
13049

> <PUBCHEM_CONFORMER_RMSD>
0.6

> <PUBCHEM_CONFORMER_DIVERSEORDER>
2
15
17
7
1
5
9
12
16
14
13
3
6
10
11
4
8

> <PUBCHEM_MMFF94_PARTIAL_CHARGES>
20
1 -0.68
10 0.27
11 -0.15
12 -0.15
13 0.1
19 0.36
2 -0.9
20 0.15
21 0.15
22 0.4
26 0.15
27 0.15
28 0.4
29 0.4
3 -0.9
4 0.27
5 0.42
6 -0.14
8 -0.15
9 -0.15

> <PUBCHEM_EFFECTIVE_ROTOR_COUNT>
3

> <PUBCHEM_PHARMACOPHORE_FEATURES>
7
1 1 acceptor
1 1 donor
1 2 cation
1 2 donor
1 3 cation
1 3 donor
6 6 8 9 11 12 13 rings

> <PUBCHEM_HEAVY_ATOM_COUNT>
13

> <PUBCHEM_ATOM_DEF_STEREO_COUNT>
0

> <PUBCHEM_ATOM_UDEF_STEREO_COUNT>
2

> <PUBCHEM_BOND_DEF_STEREO_COUNT>
0

> <PUBCHEM_BOND_UDEF_STEREO_COUNT>
0

> <PUBCHEM_ISOTOPIC_ATOM_COUNT>
0

> <PUBCHEM_COMPONENT_COUNT>
1

> <PUBCHEM_CACTVS_TAUTO_COUNT>
1

> <PUBCHEM_CONFORMER_ID>
000032F900000002

> <PUBCHEM_MMFF94_ENERGY>
44.4109

> <PUBCHEM_FEATURE_SELFOVERLAP>
35.523

> <PUBCHEM_SHAPE_FINGERPRINT>
10219947 1 17060335228041961960
11031198 65 15285352920887194408
11062470 55 16487256586190116745
11471102 20 16845578616757164622
11471102 22 16415473865848620072
12138202 97 17312827069259025479
12251169 10 16845286133758116907
124424 183 17240201045453921462
13538477 17 18412267198809549995
13581323 91 18333450941060345830
13839132 238 17677885919180759273
14993402 34 18411703192420553701
15310529 11 5184348473890796857
15775835 57 18273214192258762941
16945 1 18260535715073002093
17844478 74 16370719340319903737
18186145 218 16588290752452667493
18534176 82 17604147034482959191
190213 19 18272647956750169314
200 152 17846785074836882339
20201158 50 16081083783722808878
20279233 1 16588019087492516982
20344682 1 16660364774930634205
20645477 70 16773247291310416698
21293036 1 14562530674104945060
23402539 116 17895202116310036581
23557571 272 17677892323092847270
305870 269 18191579963649050451
77492 1 18273214179421301295

> <PUBCHEM_SHAPE_MULTIPOLES>
251.7
6.46
1.2
1.16
0.14
0.02
-0.12
0.87
-0.82
-0.21
0.1
0.63
0.02
-0.45

> <PUBCHEM_SHAPE_SELFOVERLAP>
511.748

> <PUBCHEM_SHAPE_VOLUME>
147.7

> <PUBCHEM_COORDINATE_TYPE>
2
5
10

$$$$

