17395815
  -OEChem-06241222522D

 44 47  0     0  0  0  0  0  0999 V2000
    6.2619   -2.5994    0.0000 O   0  0  0  0  0  0  0  0  0  0  0  0
    5.2531    2.7518    0.0000 O   0  0  0  0  0  0  0  0  0  0  0  0
    4.6783   -1.7946    0.0000 N   0  0  0  0  0  0  0  0  0  0  0  0
    5.6103    1.0569    0.0000 N   0  0  0  0  0  0  0  0  0  0  0  0
    4.6783   -3.4041    0.0000 N   0  0  0  0  0  0  0  0  0  0  0  0
    7.3077    3.1265    0.0000 N   0  0  0  0  0  0  0  0  0  0  0  0
    4.9889   -0.8441    0.0000 C   0  0  0  0  0  0  0  0  0  0  0  0
    4.3211   -0.0998    0.0000 C   0  0  0  0  0  0  0  0  0  0  0  0
    5.9674   -0.6379    0.0000 C   0  0  0  0  0  0  0  0  0  0  0  0
    4.6318    0.8507    0.0000 C   0  0  0  0  0  0  0  0  0  0  0  0
    6.2781    0.3126    0.0000 C   0  0  0  0  0  0  0  0  0  0  0  0
    3.7320   -2.0994    0.0000 C   0  0  0  0  0  0  0  0  0  0  0  0
    5.2619   -2.5994    0.0000 C   0  0  0  0  0  0  0  0  0  0  0  0
    5.9209    2.0075    0.0000 C   0  0  0  0  0  0  0  0  0  0  0  0
    3.7320   -3.0994    0.0000 C   0  0  0  0  0  0  0  0  0  0  0  0
    2.8660   -1.5994    0.0000 C   0  0  0  0  0  0  0  0  0  0  0  0
    6.8994    2.2137    0.0000 C   0  0  0  0  0  0  0  0  0  0  0  0
    2.8660   -3.5994    0.0000 C   0  0  0  0  0  0  0  0  0  0  0  0
    2.0000   -2.0994    0.0000 C   0  0  0  0  0  0  0  0  0  0  0  0
    2.0000   -3.0994    0.0000 C   0  0  0  0  0  0  0  0  0  0  0  0
    7.6414    1.5433    0.0000 C   0  0  0  0  0  0  0  0  0  0  0  0
    8.3021    3.0203    0.0000 C   0  0  0  0  0  0  0  0  0  0  0  0
    8.5083    2.0418    0.0000 C   0  0  0  0  0  0  0  0  0  0  0  0
    6.8092    3.9934    0.0000 C   0  0  0  0  0  0  0  0  0  0  0  0
    5.4030   -1.3056    0.0000 H   0  0  0  0  0  0  0  0  0  0  0  0
    5.9880   -1.2575    0.0000 H   0  0  0  0  0  0  0  0  0  0  0  0
    6.5812   -0.7252    0.0000 H   0  0  0  0  0  0  0  0  0  0  0  0
    3.7742    0.1922    0.0000 H   0  0  0  0  0  0  0  0  0  0  0  0
    3.9385   -0.5877    0.0000 H   0  0  0  0  0  0  0  0  0  0  0  0
    6.8250    0.0206    0.0000 H   0  0  0  0  0  0  0  0  0  0  0  0
    6.6607    0.8005    0.0000 H   0  0  0  0  0  0  0  0  0  0  0  0
    4.6112    1.4704    0.0000 H   0  0  0  0  0  0  0  0  0  0  0  0
    4.0179    0.9381    0.0000 H   0  0  0  0  0  0  0  0  0  0  0  0
    4.8709   -3.9934    0.0000 H   0  0  0  0  0  0  0  0  0  0  0  0
    2.8660   -0.9794    0.0000 H   0  0  0  0  0  0  0  0  0  0  0  0
    2.8660   -4.2194    0.0000 H   0  0  0  0  0  0  0  0  0  0  0  0
    1.4631   -1.7894    0.0000 H   0  0  0  0  0  0  0  0  0  0  0  0
    1.4631   -3.4094    0.0000 H   0  0  0  0  0  0  0  0  0  0  0  0
    7.5755    0.9268    0.0000 H   0  0  0  0  0  0  0  0  0  0  0  0
    8.7177    3.4803    0.0000 H   0  0  0  0  0  0  0  0  0  0  0  0
    9.0743    1.7886    0.0000 H   0  0  0  0  0  0  0  0  0  0  0  0
    7.3467    4.3025    0.0000 H   0  0  0  0  0  0  0  0  0  0  0  0
    6.5002    4.5309    0.0000 H   0  0  0  0  0  0  0  0  0  0  0  0
    6.2718    3.6843    0.0000 H   0  0  0  0  0  0  0  0  0  0  0  0
  1 13  2  0  0  0  0
  2 14  2  0  0  0  0
  3  7  1  0  0  0  0
  3 12  1  0  0  0  0
  3 13  1  0  0  0  0
  4 10  1  0  0  0  0
  4 11  1  0  0  0  0
  4 14  1  0  0  0  0
  5 13  1  0  0  0  0
  5 15  1  0  0  0  0
  5 34  1  0  0  0  0
  6 17  1  0  0  0  0
  6 22  1  0  0  0  0
  6 24  1  0  0  0  0
  7  8  1  0  0  0  0
  7  9  1  0  0  0  0
  7 25  1  0  0  0  0
  8 10  1  0  0  0  0
  8 28  1  0  0  0  0
  8 29  1  0  0  0  0
  9 11  1  0  0  0  0
  9 26  1  0  0  0  0
  9 27  1  0  0  0  0
 10 32  1  0  0  0  0
 10 33  1  0  0  0  0
 11 30  1  0  0  0  0
 11 31  1  0  0  0  0
 12 15  1  0  0  0  0
 12 16  2  0  0  0  0
 14 17  1  0  0  0  0
 15 18  2  0  0  0  0
 16 19  1  0  0  0  0
 16 35  1  0  0  0  0
 17 21  2  0  0  0  0
 18 20  1  0  0  0  0
 18 36  1  0  0  0  0
 19 20  2  0  0  0  0
 19 37  1  0  0  0  0
 20 38  1  0  0  0  0
 21 23  1  0  0  0  0
 21 39  1  0  0  0  0
 22 23  2  0  0  0  0
 22 40  1  0  0  0  0
 23 41  1  0  0  0  0
 24 42  1  0  0  0  0
 24 43  1  0  0  0  0
 24 44  1  0  0  0  0
M  END
> <PUBCHEM_COMPOUND_CID>
17395815

> <PUBCHEM_COMPOUND_CANONICALIZED>
1

> <PUBCHEM_CACTVS_COMPLEXITY>
503

> <PUBCHEM_CACTVS_HBOND_ACCEPTOR>
2

> <PUBCHEM_CACTVS_HBOND_DONOR>
1

> <PUBCHEM_CACTVS_ROTATABLE_BOND>
2

> <PUBCHEM_CACTVS_SUBSKEYS>
AAADceB7sAAAAAAAAAAAAAAAAAAAAWLAAAA8QAAAAAAAAFgBwAAAHgAQAAAACCjBlgQ/wJPMEACoATV3VACCgCA3AiAI2CG4dNiIYPLA1bGUIQholgLIyacYAQAAAAAAAAAAACAAAAAAAAAAQAAAAAAAAA==

> <PUBCHEM_IUPAC_OPENEYE_NAME>
3-[1-(1-methylpyrrole-2-carbonyl)-4-piperidyl]-1H-benzimidazol-2-one

> <PUBCHEM_IUPAC_CAS_NAME>
3-[1-[(1-methyl-2-pyrrolyl)-oxomethyl]-4-piperidinyl]-1H-benzimidazol-2-one

> <PUBCHEM_IUPAC_NAME>
3-[1-(1-methylpyrrole-2-carbonyl)piperidin-4-yl]-1H-benzimidazol-2-one

> <PUBCHEM_IUPAC_SYSTEMATIC_NAME>
3-[1-(1-methylpyrrol-2-yl)carbonylpiperidin-4-yl]-1H-benzimidazol-2-one

> <PUBCHEM_IUPAC_TRADITIONAL_NAME>
3-[1-(1-methylpyrrole-2-carbonyl)-4-piperidyl]-1H-benzimidazol-2-one

> <PUBCHEM_IUPAC_INCHI>
InChI=1S/C18H20N4O2/c1-20-10-4-7-16(20)17(23)21-11-8-13(9-12-21)22-15-6-3-2-5-14(15)19-18(22)24/h2-7,10,13H,8-9,11-12H2,1H3,(H,19,24)

> <PUBCHEM_IUPAC_INCHIKEY>
USRGTCZZWPNLTE-UHFFFAOYSA-N

> <PUBCHEM_XLOGP3_AA>
1.5

> <PUBCHEM_EXACT_MASS>
324.158626

> <PUBCHEM_MOLECULAR_FORMULA>
C18H20N4O2

> <PUBCHEM_MOLECULAR_WEIGHT>
324.377

> <PUBCHEM_OPENEYE_CAN_SMILES>
CN1C=CC=C1C(=O)N2CCC(CC2)N3C4=CC=CC=C4NC3=O

> <PUBCHEM_OPENEYE_ISO_SMILES>
CN1C=CC=C1C(=O)N2CCC(CC2)N3C4=CC=CC=C4NC3=O

> <PUBCHEM_CACTVS_TPSA>
57.6

> <PUBCHEM_MONOISOTOPIC_WEIGHT>
324.158626

> <PUBCHEM_TOTAL_CHARGE>
0

> <PUBCHEM_HEAVY_ATOM_COUNT>
24

> <PUBCHEM_ATOM_DEF_STEREO_COUNT>
0

> <PUBCHEM_ATOM_UDEF_STEREO_COUNT>
0

> <PUBCHEM_BOND_DEF_STEREO_COUNT>
0

> <PUBCHEM_BOND_UDEF_STEREO_COUNT>
0

> <PUBCHEM_ISOTOPIC_ATOM_COUNT>
0

> <PUBCHEM_COMPONENT_COUNT>
1

> <PUBCHEM_CACTVS_TAUTO_COUNT>
2

> <PUBCHEM_COORDINATE_TYPE>
1
5
255

> <PUBCHEM_BONDANNOTATIONS>
12  15  8
12  16  8
15  18  8
16  19  8
17  21  8
18  20  8
19  20  8
21  23  8
22  23  8
3  12  8
3  13  8
5  13  8
5  15  8
6  17  8
6  22  8

$$$$

