5281435
  -OEChem-07051212572D

 53 54  0     1  0  0  0  0  0999 V2000
   10.2022    0.9466    0.0000 O   0  0  0  0  0  0  0  0  0  0  0  0
    6.8671    0.7796    0.0000 O   0  0  0  0  0  0  0  0  0  0  0  0
   10.2970    2.7204    0.0000 O   0  0  0  0  0  0  0  0  0  0  0  0
   12.0632   -1.2204    0.0000 O   0  0  0  0  0  0  0  0  0  0  0  0
    6.0010   -0.7204    0.0000 O   0  0  0  0  0  0  0  0  0  0  0  0
    4.2690   -0.7204    0.0000 O   0  0  0  0  0  0  0  0  0  0  0  0
    2.5369    0.2796    0.0000 O   0  0  0  0  0  0  0  0  0  0  0  0
    8.5991    0.7796    0.0000 C   0  0  2  0  0  0  0  0  0  0  0  0
    7.7331    0.2796    0.0000 C   0  0  2  0  0  0  0  0  0  0  0  0
    9.4651    0.2796    0.0000 C   0  0  1  0  0  0  0  0  0  0  0  0
    7.7331   -0.7204    0.0000 C   0  0  0  0  0  0  0  0  0  0  0  0
    8.8083    1.7514    0.0000 C   0  0  0  0  0  0  0  0  0  0  0  0
    9.4651   -0.7204    0.0000 C   0  0  0  0  0  0  0  0  0  0  0  0
    8.5991   -1.2204    0.0000 C   0  0  0  0  0  0  0  0  0  0  0  0
    9.7970    1.8544    0.0000 C   0  0  0  0  0  0  0  0  0  0  0  0
   10.3312   -1.2204    0.0000 C   0  0  0  0  0  0  0  0  0  0  0  0
   10.3312   -2.2204    0.0000 C   0  0  0  0  0  0  0  0  0  0  0  0
    9.4651   -2.7204    0.0000 C   0  0  0  0  0  0  0  0  0  0  0  0
    8.5991   -2.2204    0.0000 C   0  0  0  0  0  0  0  0  0  0  0  0
    8.1405    2.4957    0.0000 C   0  0  0  0  0  0  0  0  0  0  0  0
    9.7865   -0.2241    0.0000 C   0  0  0  0  0  0  0  0  0  0  0  0
   11.1972   -0.7204    0.0000 C   0  0  0  0  0  0  0  0  0  0  0  0
    6.0010    0.2796    0.0000 C   0  0  0  0  0  0  0  0  0  0  0  0
    5.1350    0.7796    0.0000 C   0  0  0  0  0  0  0  0  0  0  0  0
    4.2690    0.2796    0.0000 C   0  0  2  0  0  0  0  0  0  0  0  0
    3.4030    0.7796    0.0000 C   0  0  0  0  0  0  0  0  0  0  0  0
    5.1350    1.7796    0.0000 C   0  0  0  0  0  0  0  0  0  0  0  0
    7.9121    1.2801    0.0000 H   0  0  0  0  0  0  0  0  0  0  0  0
    7.7331    0.8996    0.0000 H   0  0  0  0  0  0  0  0  0  0  0  0
   10.2421   -0.0652    0.0000 H   0  0  0  0  0  0  0  0  0  0  0  0
    7.1225   -0.6128    0.0000 H   0  0  0  0  0  0  0  0  0  0  0  0
    7.5210   -1.3031    0.0000 H   0  0  0  0  0  0  0  0  0  0  0  0
    9.2531   -1.3031    0.0000 H   0  0  0  0  0  0  0  0  0  0  0  0
   10.5432   -2.8031    0.0000 H   0  0  0  0  0  0  0  0  0  0  0  0
   10.9417   -2.1128    0.0000 H   0  0  0  0  0  0  0  0  0  0  0  0
    9.0666   -3.1954    0.0000 H   0  0  0  0  0  0  0  0  0  0  0  0
    9.8637   -3.1954    0.0000 H   0  0  0  0  0  0  0  0  0  0  0  0
    8.0622   -2.5304    0.0000 H   0  0  0  0  0  0  0  0  0  0  0  0
    8.3331    3.0850    0.0000 H   0  0  0  0  0  0  0  0  0  0  0  0
    7.5338    2.3678    0.0000 H   0  0  0  0  0  0  0  0  0  0  0  0
   10.1850   -0.6991    0.0000 H   0  0  0  0  0  0  0  0  0  0  0  0
   10.2614    0.1744    0.0000 H   0  0  0  0  0  0  0  0  0  0  0  0
    9.3880    0.2508    0.0000 H   0  0  0  0  0  0  0  0  0  0  0  0
   11.5957   -0.2455    0.0000 H   0  0  0  0  0  0  0  0  0  0  0  0
   10.7987   -0.2455    0.0000 H   0  0  0  0  0  0  0  0  0  0  0  0
    4.8059   -0.0304    0.0000 H   0  0  0  0  0  0  0  0  0  0  0  0
   12.6002   -0.9104    0.0000 H   0  0  0  0  0  0  0  0  0  0  0  0
    3.8015    1.2545    0.0000 H   0  0  0  0  0  0  0  0  0  0  0  0
    3.0044    1.2545    0.0000 H   0  0  0  0  0  0  0  0  0  0  0  0
    5.6720    2.0896    0.0000 H   0  0  0  0  0  0  0  0  0  0  0  0
    4.5981    2.0896    0.0000 H   0  0  0  0  0  0  0  0  0  0  0  0
    3.7320   -1.0304    0.0000 H   0  0  0  0  0  0  0  0  0  0  0  0
    2.0000    0.5896    0.0000 H   0  0  0  0  0  0  0  0  0  0  0  0
  1 10  1  0  0  0  0
  1 15  1  0  0  0  0
  9  2  1  6  0  0  0
  2 23  1  0  0  0  0
  3 15  2  0  0  0  0
  4 22  1  0  0  0  0
  4 47  1  0  0  0  0
  5 23  2  0  0  0  0
 25  6  1  1  0  0  0
  6 52  1  0  0  0  0
  7 26  1  0  0  0  0
  7 53  1  0  0  0  0
  8  9  1  0  0  0  0
  8 10  1  0  0  0  0
  8 12  1  0  0  0  0
  8 28  1  6  0  0  0
  9 11  1  0  0  0  0
  9 29  1  0  0  0  0
 10 13  1  0  0  0  0
 10 30  1  1  0  0  0
 11 14  1  0  0  0  0
 11 31  1  0  0  0  0
 11 32  1  0  0  0  0
 12 15  1  0  0  0  0
 12 20  2  0  0  0  0
 13 16  2  0  0  0  0
 13 33  1  0  0  0  0
 14 19  2  0  0  0  0
 14 21  1  0  0  0  0
 16 17  1  0  0  0  0
 16 22  1  0  0  0  0
 17 18  1  0  0  0  0
 17 34  1  0  0  0  0
 17 35  1  0  0  0  0
 18 19  1  0  0  0  0
 18 36  1  0  0  0  0
 18 37  1  0  0  0  0
 19 38  1  0  0  0  0
 20 39  1  0  0  0  0
 20 40  1  0  0  0  0
 21 41  1  0  0  0  0
 21 42  1  0  0  0  0
 21 43  1  0  0  0  0
 22 44  1  0  0  0  0
 22 45  1  0  0  0  0
 23 24  1  0  0  0  0
 24 25  1  0  0  0  0
 24 27  2  0  0  0  0
 25 26  1  0  0  0  0
 25 46  1  0  0  0  0
 26 48  1  0  0  0  0
 26 49  1  0  0  0  0
 27 50  1  0  0  0  0
 27 51  1  0  0  0  0
M  END
> <PUBCHEM_COMPOUND_CID>
5281435

> <PUBCHEM_COMPOUND_CANONICALIZED>
1

> <PUBCHEM_CACTVS_COMPLEXITY>
688

> <PUBCHEM_CACTVS_HBOND_ACCEPTOR>
7

> <PUBCHEM_CACTVS_HBOND_DONOR>
3

> <PUBCHEM_CACTVS_ROTATABLE_BOND>
6

> <PUBCHEM_CACTVS_SUBSKEYS>
AAADceB4OAAAAAAAAAAAAAAAAAAAASAAAAAAAAAAAAAAAACAAAAAGgAACAAADRSggAICCAAABgCIAiDSCAAAAAAgAAAACAEAAEgBFBYAIQACUAAF4AAJMIPKyCCOAAAAAAAAAAAAAAAAAAAAAAAAAAAAAA==

> <PUBCHEM_IUPAC_OPENEYE_NAME>
[(3aR,4S,6E,10Z,11aR)-10-(hydroxymethyl)-6-methyl-3-methylene-2-oxo-3a,4,5,8,9,11a-hexahydrocyclodeca[b]furan-4-yl] (3R)-3,4-dihydroxy-2-methylene-butanoate

> <PUBCHEM_IUPAC_CAS_NAME>
(3R)-3,4-dihydroxy-2-methylenebutanoic acid [(3aR,4S,6E,10Z,11aR)-10-(hydroxymethyl)-6-methyl-3-methylene-2-oxo-3a,4,5,8,9,11a-hexahydrocyclodeca[b]furan-4-yl] ester

> <PUBCHEM_IUPAC_NAME>
[(3aR,4S,6E,10Z,11aR)-10-(hydroxymethyl)-6-methyl-3-methylidene-2-oxo-3a,4,5,8,9,11a-hexahydrocyclodeca[b]furan-4-yl] (3R)-3,4-dihydroxy-2-methylidenebutanoate

> <PUBCHEM_IUPAC_SYSTEMATIC_NAME>
[(3aR,4S,6E,10Z,11aR)-10-(hydroxymethyl)-6-methyl-3-methylidene-2-oxidanylidene-3a,4,5,8,9,11a-hexahydrocyclodeca[b]furan-4-yl] (3R)-2-methylidene-3,4-bis(oxidanyl)butanoate

> <PUBCHEM_IUPAC_TRADITIONAL_NAME>
2-[(1R)-1,2-dihydroxyethyl]acrylic acid [(3aR,4S,6E,10Z,11aR)-2-keto-6-methyl-3-methylene-10-methylol-3a,4,5,8,9,11a-hexahydrocyclodeca[b]furan-4-yl] ester

> <PUBCHEM_IUPAC_INCHI>
InChI=1S/C20H26O7/c1-11-5-4-6-14(9-21)8-17-18(13(3)20(25)27-17)16(7-11)26-19(24)12(2)15(23)10-22/h5,8,15-18,21-23H,2-4,6-7,9-10H2,1H3/b11-5+,14-8-/t15-,16-,17+,18+/m0/s1

> <PUBCHEM_IUPAC_INCHIKEY>
ZTDFZLVUIVPZDU-QGNHJMHWSA-N

> <PUBCHEM_XLOGP3_AA>
0.2

> <PUBCHEM_EXACT_MASS>
378.167853

> <PUBCHEM_MOLECULAR_FORMULA>
C20H26O7

> <PUBCHEM_MOLECULAR_WEIGHT>
378.41624

> <PUBCHEM_OPENEYE_CAN_SMILES>
CC1=CCCC(=CC2C(C(C1)OC(=O)C(=C)C(CO)O)C(=C)C(=O)O2)CO

> <PUBCHEM_OPENEYE_ISO_SMILES>
C/C/1=C\CC/C(=C/[C@@H]2[C@@H]([C@H](C1)OC(=O)C(=C)[C@H](CO)O)C(=C)C(=O)O2)/CO

> <PUBCHEM_CACTVS_TPSA>
113

> <PUBCHEM_MONOISOTOPIC_WEIGHT>
378.167853

> <PUBCHEM_TOTAL_CHARGE>
0

> <PUBCHEM_HEAVY_ATOM_COUNT>
27

> <PUBCHEM_ATOM_DEF_STEREO_COUNT>
4

> <PUBCHEM_ATOM_UDEF_STEREO_COUNT>
0

> <PUBCHEM_BOND_DEF_STEREO_COUNT>
2

> <PUBCHEM_BOND_UDEF_STEREO_COUNT>
0

> <PUBCHEM_ISOTOPIC_ATOM_COUNT>
0

> <PUBCHEM_COMPONENT_COUNT>
1

> <PUBCHEM_CACTVS_TAUTO_COUNT>
1

> <PUBCHEM_COORDINATE_TYPE>
1
5
255

> <PUBCHEM_BONDANNOTATIONS>
10  30  5
9  2  6
25  6  5
8  28  6

$$$$

