442921
  -OEChem-07051213003D

 39 41  0     1  0  0  0  0  0999 V2000
    2.0216    1.0795   -0.1839 O   0  0  0  0  0  0  0  0  0  0  0  0
    0.0406   -3.0903    0.1611 O   0  0  0  0  0  0  0  0  0  0  0  0
   -3.1495    2.0297   -0.2723 O   0  0  0  0  0  0  0  0  0  0  0  0
   -0.4053    0.9673   -0.1782 N   0  0  0  0  0  0  0  0  0  0  0  0
    3.0389    0.0687   -0.3903 C   0  0  2  0  0  0  0  0  0  0  0  0
    2.4568   -1.2864    0.0283 C   0  0  0  0  0  0  0  0  0  0  0  0
    4.2833    0.4436    0.3969 C   0  0  0  0  0  0  0  0  0  0  0  0
    1.0235   -0.9635   -0.0221 C   0  0  0  0  0  0  0  0  0  0  0  0
    0.8320    0.3475   -0.1337 C   0  0  0  0  0  0  0  0  0  0  0  0
   -0.1139   -1.8818    0.0548 C   0  0  0  0  0  0  0  0  0  0  0  0
   -1.5756    0.1642   -0.1162 C   0  0  0  0  0  0  0  0  0  0  0  0
    5.3740   -0.6155    0.2279 C   0  0  0  0  0  0  0  0  0  0  0  0
    4.8056    1.8162   -0.0314 C   0  0  0  0  0  0  0  0  0  0  0  0
   -1.4599   -1.2463   -0.0021 C   0  0  0  0  0  0  0  0  0  0  0  0
   -0.5588    2.4152   -0.2924 C   0  0  0  0  0  0  0  0  0  0  0  0
   -2.8763    0.6968   -0.1628 C   0  0  0  0  0  0  0  0  0  0  0  0
   -2.5902   -2.0715    0.0614 C   0  0  0  0  0  0  0  0  0  0  0  0
   -4.0039   -0.1287   -0.0994 C   0  0  0  0  0  0  0  0  0  0  0  0
   -3.8612   -1.5080    0.0122 C   0  0  0  0  0  0  0  0  0  0  0  0
   -3.2816    2.7634    0.9421 C   0  0  0  0  0  0  0  0  0  0  0  0
    3.2611    0.0568   -1.4673 H   0  0  0  0  0  0  0  0  0  0  0  0
    2.7365   -1.5789    1.0461 H   0  0  0  0  0  0  0  0  0  0  0  0
    2.7479   -2.0792   -0.6668 H   0  0  0  0  0  0  0  0  0  0  0  0
    4.0297    0.5173    1.4626 H   0  0  0  0  0  0  0  0  0  0  0  0
    5.6330   -0.7534   -0.8276 H   0  0  0  0  0  0  0  0  0  0  0  0
    6.2848   -0.3183    0.7594 H   0  0  0  0  0  0  0  0  0  0  0  0
    5.0679   -1.5849    0.6326 H   0  0  0  0  0  0  0  0  0  0  0  0
    5.0563    1.8309   -1.0977 H   0  0  0  0  0  0  0  0  0  0  0  0
    5.7088    2.0789    0.5299 H   0  0  0  0  0  0  0  0  0  0  0  0
    4.0659    2.6016    0.1548 H   0  0  0  0  0  0  0  0  0  0  0  0
   -1.1918    2.7172   -1.1316 H   0  0  0  0  0  0  0  0  0  0  0  0
    0.4080    2.8788   -0.5299 H   0  0  0  0  0  0  0  0  0  0  0  0
   -0.8406    2.8663    0.6592 H   0  0  0  0  0  0  0  0  0  0  0  0
   -2.4981   -3.1506    0.1489 H   0  0  0  0  0  0  0  0  0  0  0  0
   -5.0025    0.2998   -0.1385 H   0  0  0  0  0  0  0  0  0  0  0  0
   -4.7404   -2.1435    0.0607 H   0  0  0  0  0  0  0  0  0  0  0  0
   -2.6825    2.3430    1.7573 H   0  0  0  0  0  0  0  0  0  0  0  0
   -4.3341    2.7587    1.2436 H   0  0  0  0  0  0  0  0  0  0  0  0
   -2.9854    3.8009    0.7636 H   0  0  0  0  0  0  0  0  0  0  0  0
  1  5  1  0  0  0  0
  1  9  1  0  0  0  0
  2 10  2  0  0  0  0
  3 16  1  0  0  0  0
  3 20  1  0  0  0  0
  4  9  1  0  0  0  0
  4 11  1  0  0  0  0
  4 15  1  0  0  0  0
  5  6  1  0  0  0  0
  5  7  1  0  0  0  0
  5 21  1  0  0  0  0
  6  8  1  0  0  0  0
  6 22  1  0  0  0  0
  6 23  1  0  0  0  0
  7 12  1  0  0  0  0
  7 13  1  0  0  0  0
  7 24  1  0  0  0  0
  8  9  2  0  0  0  0
  8 10  1  0  0  0  0
 10 14  1  0  0  0  0
 11 14  2  0  0  0  0
 11 16  1  0  0  0  0
 12 25  1  0  0  0  0
 12 26  1  0  0  0  0
 12 27  1  0  0  0  0
 13 28  1  0  0  0  0
 13 29  1  0  0  0  0
 13 30  1  0  0  0  0
 14 17  1  0  0  0  0
 15 31  1  0  0  0  0
 15 32  1  0  0  0  0
 15 33  1  0  0  0  0
 16 18  2  0  0  0  0
 17 19  2  0  0  0  0
 17 34  1  0  0  0  0
 18 19  1  0  0  0  0
 18 35  1  0  0  0  0
 19 36  1  0  0  0  0
 20 37  1  0  0  0  0
 20 38  1  0  0  0  0
 20 39  1  0  0  0  0
M  END
> <PUBCHEM_COMPOUND_CID>
442921

> <PUBCHEM_CONFORMER_RMSD>
0.6

> <PUBCHEM_CONFORMER_DIVERSEORDER>
2
1
3

> <PUBCHEM_MMFF94_PARTIAL_CHARGES>
20
1 -0.36
10 0.47
11 0.1
14 0.09
15 0.37
16 0.08
17 -0.15
18 -0.15
19 -0.15
2 -0.57
20 0.28
3 -0.36
34 0.15
35 0.15
36 0.15
4 -0.57
5 0.28
6 0.14
8 -0.12
9 0.18

> <PUBCHEM_EFFECTIVE_ROTOR_COUNT>
2.6

> <PUBCHEM_PHARMACOPHORE_FEATURES>
8
1 1 acceptor
1 2 acceptor
1 3 acceptor
1 4 cation
3 7 12 13 hydrophobe
5 1 5 6 8 9 rings
6 11 14 16 17 18 19 rings
6 4 8 9 10 11 14 rings

> <PUBCHEM_HEAVY_ATOM_COUNT>
20

> <PUBCHEM_ATOM_DEF_STEREO_COUNT>
1

> <PUBCHEM_ATOM_UDEF_STEREO_COUNT>
0

> <PUBCHEM_BOND_DEF_STEREO_COUNT>
0

> <PUBCHEM_BOND_UDEF_STEREO_COUNT>
0

> <PUBCHEM_ISOTOPIC_ATOM_COUNT>
0

> <PUBCHEM_COMPONENT_COUNT>
1

> <PUBCHEM_CACTVS_TAUTO_COUNT>
1

> <PUBCHEM_CONFORMER_ID>
0006C22900000002

> <PUBCHEM_MMFF94_ENERGY>
80.1923

> <PUBCHEM_FEATURE_SELFOVERLAP>
40.707

> <PUBCHEM_SHAPE_FINGERPRINT>
10319926 262 18263945297480370816
10411042 1 17474106501792764334
10493431 412 18264198292081243249
10616163 171 18410574006674137231
10646746 165 18408604773217434372
10967382 1 18123469651088921757
1100329 8 18195524784237358547
11132069 177 18412825802160836453
11578080 2 14059764705490719225
12107183 9 17980488085392615082
12236239 1 17704076175001919166
12390115 104 18261937622563882216
12403259 226 18190748531110988177
12403260 363 18410299073064188372
12403814 3 17489874821167734685
13140716 1 18052250993192536187
13862211 1 18339930315891437294
14178342 30 18340196492547723193
14790565 3 18337946895820671953
15042514 8 18196369217478590843
15196674 1 18411700972117549366
15442244 35 18268432519422059898
15475509 35 16267963549375487833
15536298 74 18335982060151978502
16945 1 18267578010119590047
19591789 44 18411421691779521130
200 152 18261400992607654023
20510252 161 18334290950843167177
21029758 11 18263649467916016381
21236236 1 18409167718390734632
21267235 1 18341043047491633002
21279426 13 18263640844049233670
21501502 16 18267307714995530859
2334 1 18411980243644343815
23366157 5 17914892278094338154
23402539 116 18335710394527072831
23557571 272 18260818298604943100
23559900 14 18189333636452083454
2748010 2 18411132550228437863
283562 15 18410577254276022659
335352 9 18412265046935716764
34934 24 18340212976874649015
350125 39 18410852119134696697
4214541 1 18410856577194426004
43471831 8 18343023332247237802
5104073 3 18412266138485255248
633830 44 18189054355554535564
7097593 13 17555470774337877954
7364860 26 17976259354713280558
9709674 26 18408598171784635638

> <PUBCHEM_SHAPE_MULTIPOLES>
389
9.02
2.9
0.68
8.4
0.36
0.04
1.95
0.7
-2
0.31
-0.08
0.14
-0.35

> <PUBCHEM_SHAPE_SELFOVERLAP>
844.193

> <PUBCHEM_SHAPE_VOLUME>
213.6

> <PUBCHEM_COORDINATE_TYPE>
2
5
10

$$$$

