3575
  -OEChem-06251223313D

 37 39  0     1  0  0  0  0  0999 V2000
   -1.3992    1.4274   -0.6346 O   0  0  0  0  0  0  0  0  0  0  0  0
   -3.4023    1.6394    0.4826 O   0  0  0  0  0  0  0  0  0  0  0  0
    1.3080   -1.0255    0.4760 C   0  0  1  0  0  0  0  0  0  0  0  0
    0.5711    0.3426    0.3207 C   0  0  2  0  0  0  0  0  0  0  0  0
   -0.4522    0.3532   -0.8506 C   0  0  1  0  0  0  0  0  0  0  0  0
   -1.3379   -0.8797   -0.9841 C   0  0  1  0  0  0  0  0  0  0  0  0
    0.2971   -2.1964    0.4413 C   0  0  0  0  0  0  0  0  0  0  0  0
   -0.6051   -2.1978   -0.7849 C   0  0  0  0  0  0  0  0  0  0  0  0
    2.3556   -1.1709   -0.6556 C   0  0  0  0  0  0  0  0  0  0  0  0
    1.5568    1.4996    0.1369 C   0  0  0  0  0  0  0  0  0  0  0  0
    2.0163   -1.1011    1.8538 C   0  0  0  0  0  0  0  0  0  0  0  0
    3.3800   -0.0340   -0.6727 C   0  0  0  0  0  0  0  0  0  0  0  0
   -2.4345   -0.5153   -0.0400 C   0  0  0  0  0  0  0  0  0  0  0  0
    2.8093    1.3043   -0.3142 C   0  0  0  0  0  0  0  0  0  0  0  0
   -2.5136    0.9603    0.0026 C   0  0  0  0  0  0  0  0  0  0  0  0
    1.0884    2.8756    0.5223 C   0  0  0  0  0  0  0  0  0  0  0  0
   -3.2379   -1.2818    0.7006 C   0  0  0  0  0  0  0  0  0  0  0  0
    0.0307    0.5303    1.2601 H   0  0  0  0  0  0  0  0  0  0  0  0
    0.0543    0.5432   -1.8054 H   0  0  0  0  0  0  0  0  0  0  0  0
   -1.7864   -0.8861   -1.9880 H   0  0  0  0  0  0  0  0  0  0  0  0
   -0.3334   -2.1629    1.3395 H   0  0  0  0  0  0  0  0  0  0  0  0
    0.8335   -3.1533    0.4839 H   0  0  0  0  0  0  0  0  0  0  0  0
   -0.0039   -2.4085   -1.6774 H   0  0  0  0  0  0  0  0  0  0  0  0
   -1.3188   -3.0269   -0.7102 H   0  0  0  0  0  0  0  0  0  0  0  0
    1.8576   -1.1859   -1.6327 H   0  0  0  0  0  0  0  0  0  0  0  0
    2.8835   -2.1293   -0.5718 H   0  0  0  0  0  0  0  0  0  0  0  0
    2.7393   -0.2952    2.0090 H   0  0  0  0  0  0  0  0  0  0  0  0
    1.2887   -1.0383    2.6714 H   0  0  0  0  0  0  0  0  0  0  0  0
    2.5546   -2.0497    1.9628 H   0  0  0  0  0  0  0  0  0  0  0  0
    3.8370    0.0211   -1.6676 H   0  0  0  0  0  0  0  0  0  0  0  0
    4.1908   -0.2606    0.0301 H   0  0  0  0  0  0  0  0  0  0  0  0
    3.4838    2.1513   -0.4128 H   0  0  0  0  0  0  0  0  0  0  0  0
    0.3359    3.2432   -0.1805 H   0  0  0  0  0  0  0  0  0  0  0  0
    1.9094    3.6008    0.5310 H   0  0  0  0  0  0  0  0  0  0  0  0
    0.6555    2.8639    1.5277 H   0  0  0  0  0  0  0  0  0  0  0  0
   -3.1677   -2.3633    0.6692 H   0  0  0  0  0  0  0  0  0  0  0  0
   -3.9885   -0.8536    1.3566 H   0  0  0  0  0  0  0  0  0  0  0  0
  1  5  1  0  0  0  0
  1 15  1  0  0  0  0
  2 15  2  0  0  0  0
  3  4  1  0  0  0  0
  3  7  1  0  0  0  0
  3  9  1  0  0  0  0
  3 11  1  0  0  0  0
  4  5  1  0  0  0  0
  4 10  1  0  0  0  0
  4 18  1  0  0  0  0
  5  6  1  0  0  0  0
  5 19  1  0  0  0  0
  6  8  1  0  0  0  0
  6 13  1  0  0  0  0
  6 20  1  0  0  0  0
  7  8  1  0  0  0  0
  7 21  1  0  0  0  0
  7 22  1  0  0  0  0
  8 23  1  0  0  0  0
  8 24  1  0  0  0  0
  9 12  1  0  0  0  0
  9 25  1  0  0  0  0
  9 26  1  0  0  0  0
 10 14  2  0  0  0  0
 10 16  1  0  0  0  0
 11 27  1  0  0  0  0
 11 28  1  0  0  0  0
 11 29  1  0  0  0  0
 12 14  1  0  0  0  0
 12 30  1  0  0  0  0
 12 31  1  0  0  0  0
 13 15  1  0  0  0  0
 13 17  2  0  0  0  0
 14 32  1  0  0  0  0
 16 33  1  0  0  0  0
 16 34  1  0  0  0  0
 16 35  1  0  0  0  0
 17 36  1  0  0  0  0
 17 37  1  0  0  0  0
M  END
> <PUBCHEM_COMPOUND_CID>
3575

> <PUBCHEM_CONFORMER_RMSD>
0.6

> <PUBCHEM_CONFORMER_DIVERSEORDER>
3
9
6
12
2
14
8
15
5
1
17
7
10
4
13
16
11

> <PUBCHEM_MMFF94_PARTIAL_CHARGES>
15
1 -0.43
10 -0.28
12 0.14
13 -0.12
14 -0.29
15 0.71
16 0.14
17 -0.3
2 -0.57
32 0.15
36 0.15
37 0.15
4 0.14
5 0.28
6 0.14

> <PUBCHEM_EFFECTIVE_ROTOR_COUNT>
1

> <PUBCHEM_PHARMACOPHORE_FEATURES>
4
1 2 acceptor
5 1 5 6 13 15 rings
6 3 4 5 6 7 8 rings
6 3 4 9 10 12 14 rings

> <PUBCHEM_HEAVY_ATOM_COUNT>
17

> <PUBCHEM_ATOM_DEF_STEREO_COUNT>
0

> <PUBCHEM_ATOM_UDEF_STEREO_COUNT>
4

> <PUBCHEM_BOND_DEF_STEREO_COUNT>
0

> <PUBCHEM_BOND_UDEF_STEREO_COUNT>
0

> <PUBCHEM_ISOTOPIC_ATOM_COUNT>
0

> <PUBCHEM_COMPONENT_COUNT>
1

> <PUBCHEM_CACTVS_TAUTO_COUNT>
1

> <PUBCHEM_CONFORMER_ID>
00000DF700000003

> <PUBCHEM_MMFF94_ENERGY>
38.2

> <PUBCHEM_FEATURE_SELFOVERLAP>
20.523

> <PUBCHEM_SHAPE_FINGERPRINT>
104564 63 17612027483575038952
10863032 1 18410283739867417790
10967382 1 18265330792692942901
10980938 120 18340205292539976336
12382932 28 18265911330484551130
12491281 212 18338226051540701910
12633257 1 18198901594946902275
12654903 92 18113617893670411486
12696612 119 18340499905937488744
12808571 1 18408036308062034799
13140716 1 18338805627159545560
13172582 1 18265066875695499578
13221675 6 18337953381036029510
14223421 5 18267583512004058923
14386348 128 18413106160435825540
14787075 74 17410483291457566475
15375462 189 18059012912003336394
15490181 7 18196950888950946300
15775835 57 18342170085464257620
16945 1 18263369079355093646
17844478 74 18272079444882794867
18981168 100 17749965348853259633
19422 9 18343858926861304398
20511035 2 17470470871736334422
21501502 16 18271811254382368635
22802520 49 17976530625016163070
2334 1 18410862040028790789
23419403 2 15386727519237571534
23558518 356 18052822438016385605
238 59 17766598932900215565
25 1 18412257363534635998
2748010 2 18410020956635995244
528886 8 18261955249325513982
5939293 188 18335706078122051672
7364860 26 18115872906046086184
74978 22 18334022665737383197
7832392 63 18333169461946917116

> <PUBCHEM_SHAPE_MULTIPOLES>
338.11
4.83
2.59
1.12
1.31
0.69
-0.26
0.71
-0.2
-0.14
-0.29
-0.32
-0.37
-0.15

> <PUBCHEM_SHAPE_SELFOVERLAP>
723.694

> <PUBCHEM_SHAPE_VOLUME>
186.3

> <PUBCHEM_COORDINATE_TYPE>
2
5
10

$$$$

