9733
  -OEChem-06261204003D

 21 20  0     0  0  0  0  0  0999 V2000
    3.5335   -0.1412   -0.4712 F   0  0  0  0  0  0  0  0  0  0  0  0
    1.3206    1.3279   -0.3842 O   0  0  0  0  0  0  0  0  0  0  0  0
    0.1810   -0.3587    0.7420 N   0  0  0  0  0  0  0  0  0  0  0  0
   -2.0297    0.0446   -0.3354 C   0  0  0  0  0  0  0  0  0  0  0  0
   -1.1033    0.3237    0.8606 C   0  0  0  0  0  0  0  0  0  0  0  0
   -2.2609   -1.4631   -0.4688 C   0  0  0  0  0  0  0  0  0  0  0  0
   -3.3763    0.7628   -0.2156 C   0  0  0  0  0  0  0  0  0  0  0  0
    1.2729    0.2129    0.1281 C   0  0  0  0  0  0  0  0  0  0  0  0
    2.4621   -0.7089    0.1445 C   0  0  0  0  0  0  0  0  0  0  0  0
   -1.5375    0.3933   -1.2523 H   0  0  0  0  0  0  0  0  0  0  0  0
   -0.9214    1.4007    0.9496 H   0  0  0  0  0  0  0  0  0  0  0  0
   -1.5611   -0.0192    1.7951 H   0  0  0  0  0  0  0  0  0  0  0  0
   -2.6979   -1.8816    0.4444 H   0  0  0  0  0  0  0  0  0  0  0  0
   -2.9461   -1.6764   -1.2967 H   0  0  0  0  0  0  0  0  0  0  0  0
   -1.3287   -1.9977   -0.6777 H   0  0  0  0  0  0  0  0  0  0  0  0
   -3.9221    0.4349    0.6754 H   0  0  0  0  0  0  0  0  0  0  0  0
   -4.0034    0.5669   -1.0916 H   0  0  0  0  0  0  0  0  0  0  0  0
   -3.2286    1.8454   -0.1430 H   0  0  0  0  0  0  0  0  0  0  0  0
    0.2576   -1.2935    1.1325 H   0  0  0  0  0  0  0  0  0  0  0  0
    2.2224   -1.6371   -0.3819 H   0  0  0  0  0  0  0  0  0  0  0  0
    2.7454   -0.9343    1.1765 H   0  0  0  0  0  0  0  0  0  0  0  0
  1  9  1  0  0  0  0
  2  8  2  0  0  0  0
  3  5  1  0  0  0  0
  3  8  1  0  0  0  0
  3 19  1  0  0  0  0
  4  5  1  0  0  0  0
  4  6  1  0  0  0  0
  4  7  1  0  0  0  0
  4 10  1  0  0  0  0
  5 11  1  0  0  0  0
  5 12  1  0  0  0  0
  6 13  1  0  0  0  0
  6 14  1  0  0  0  0
  6 15  1  0  0  0  0
  7 16  1  0  0  0  0
  7 17  1  0  0  0  0
  7 18  1  0  0  0  0
  8  9  1  0  0  0  0
  9 20  1  0  0  0  0
  9 21  1  0  0  0  0
M  END
> <PUBCHEM_COMPOUND_CID>
9733

> <PUBCHEM_CONFORMER_RMSD>
0.6

> <PUBCHEM_CONFORMER_DIVERSEORDER>
1
4
6
5
2
3
7

> <PUBCHEM_MMFF94_PARTIAL_CHARGES>
7
1 -0.34
19 0.37
2 -0.57
3 -0.73
5 0.3
8 0.57
9 0.4

> <PUBCHEM_EFFECTIVE_ROTOR_COUNT>
4

> <PUBCHEM_PHARMACOPHORE_FEATURES>
3
1 2 acceptor
1 3 donor
3 4 6 7 hydrophobe

> <PUBCHEM_HEAVY_ATOM_COUNT>
9

> <PUBCHEM_ATOM_DEF_STEREO_COUNT>
0

> <PUBCHEM_ATOM_UDEF_STEREO_COUNT>
0

> <PUBCHEM_BOND_DEF_STEREO_COUNT>
0

> <PUBCHEM_BOND_UDEF_STEREO_COUNT>
0

> <PUBCHEM_ISOTOPIC_ATOM_COUNT>
0

> <PUBCHEM_COMPONENT_COUNT>
1

> <PUBCHEM_CACTVS_TAUTO_COUNT>
2

> <PUBCHEM_CONFORMER_ID>
0000260500000001

> <PUBCHEM_MMFF94_ENERGY>
4.4531

> <PUBCHEM_FEATURE_SELFOVERLAP>
15.223

> <PUBCHEM_SHAPE_FINGERPRINT>
10857977 72 11312048847057442327
11062470 55 16587747555154002409
12897270 3 18271815575066720831
12932764 1 17917443024594669321
14128692 85 18261111820622059786
14325111 11 18411420583335054410
14390081 3 16917353631937959741
15310529 11 18189336758291544077
20201158 50 17240482528624921703
20211469 26 6338952243925201045
20653085 51 18201997712037234329
21293036 1 17989483017882946442
23552423 10 18340211786736282259
29004967 10 4751160734863437210
3248919 1 16733255785791720505
9939556 21 18410576158663456885

> <PUBCHEM_SHAPE_MULTIPOLES>
167.09
5.33
1.17
0.8
1.13
0.19
-0.09
0.15
1.06
-0.46
0.16
-0.06
-0.02
-0.2

> <PUBCHEM_SHAPE_SELFOVERLAP>
305.117

> <PUBCHEM_SHAPE_VOLUME>
107

> <PUBCHEM_COORDINATE_TYPE>
2
5
10

$$$$

