442813
  -OEChem-07051212593D

 53 56  0     1  0  0  0  0  0999 V2000
    4.4685    0.7772   -0.6381 O   0  0  0  0  0  0  0  0  0  0  0  0
    3.0043   -1.0211   -0.8943 O   0  0  0  0  0  0  0  0  0  0  0  0
    7.5087   -1.7033    0.5747 O   0  0  0  0  0  0  0  0  0  0  0  0
    7.6800    1.1367    1.0856 O   0  0  0  0  0  0  0  0  0  0  0  0
    4.7085   -2.6092    0.7124 O   0  0  0  0  0  0  0  0  0  0  0  0
    4.5781    3.5216   -0.5259 O   0  0  0  0  0  0  0  0  0  0  0  0
   -1.6313   -2.0563   -0.8789 O   0  0  0  0  0  0  0  0  0  0  0  0
   -2.5676    1.5837    0.7090 O   0  0  0  0  0  0  0  0  0  0  0  0
   -8.8200    0.5184    0.6521 O   0  0  0  0  0  0  0  0  0  0  0  0
    6.3704   -0.8601    0.7587 C   0  0  1  0  0  0  0  0  0  0  0  0
    6.7200    0.5292    0.2250 C   0  0  1  0  0  0  0  0  0  0  0  0
    5.1727   -1.4529    0.0161 C   0  0  2  0  0  0  0  0  0  0  0  0
    5.4727    1.4135    0.1543 C   0  0  1  0  0  0  0  0  0  0  0  0
    4.0210   -0.4515   -0.0704 C   0  0  1  0  0  0  0  0  0  0  0  0
    5.7746    2.7655   -0.4844 C   0  0  0  0  0  0  0  0  0  0  0  0
    1.7206   -0.6494   -0.6245 C   0  0  0  0  0  0  0  0  0  0  0  0
    0.6713   -1.5316   -0.8819 C   0  0  0  0  0  0  0  0  0  0  0  0
    1.4585    0.6136   -0.0924 C   0  0  0  0  0  0  0  0  0  0  0  0
   -0.6413   -1.1475   -0.6059 C   0  0  0  0  0  0  0  0  0  0  0  0
   -0.9031    0.1144   -0.0739 C   0  0  0  0  0  0  0  0  0  0  0  0
    0.1465    0.9998    0.1851 C   0  0  0  0  0  0  0  0  0  0  0  0
   -2.2977    0.4970    0.2141 C   0  0  0  0  0  0  0  0  0  0  0  0
   -3.3425   -0.5113   -0.1157 C   0  0  0  0  0  0  0  0  0  0  0  0
   -2.9284   -1.6807   -0.6261 C   0  0  0  0  0  0  0  0  0  0  0  0
   -4.7757   -0.2424    0.0857 C   0  0  0  0  0  0  0  0  0  0  0  0
   -5.3889   -0.5755    1.2952 C   0  0  0  0  0  0  0  0  0  0  0  0
   -5.5271    0.3475   -0.9331 C   0  0  0  0  0  0  0  0  0  0  0  0
   -6.7470   -0.3202    1.4853 C   0  0  0  0  0  0  0  0  0  0  0  0
   -6.8852    0.6030   -0.7432 C   0  0  0  0  0  0  0  0  0  0  0  0
   -7.4952    0.2691    0.4661 C   0  0  0  0  0  0  0  0  0  0  0  0
   -9.5256    1.1228   -0.4308 C   0  0  0  0  0  0  0  0  0  0  0  0
    6.1773   -0.8295    1.8381 H   0  0  0  0  0  0  0  0  0  0  0  0
    7.1788    0.4232   -0.7667 H   0  0  0  0  0  0  0  0  0  0  0  0
    5.4788   -1.7818   -0.9848 H   0  0  0  0  0  0  0  0  0  0  0  0
    5.0639    1.5962    1.1575 H   0  0  0  0  0  0  0  0  0  0  0  0
    3.6390   -0.2867    0.9486 H   0  0  0  0  0  0  0  0  0  0  0  0
    6.1349    2.6525   -1.5122 H   0  0  0  0  0  0  0  0  0  0  0  0
    6.5119    3.3343    0.0882 H   0  0  0  0  0  0  0  0  0  0  0  0
    8.2542   -1.2928    1.0455 H   0  0  0  0  0  0  0  0  0  0  0  0
    8.0668    1.8928    0.6133 H   0  0  0  0  0  0  0  0  0  0  0  0
    3.9411   -2.9544    0.2247 H   0  0  0  0  0  0  0  0  0  0  0  0
    3.9259    3.0126   -1.0371 H   0  0  0  0  0  0  0  0  0  0  0  0
    0.8783   -2.5151   -1.2962 H   0  0  0  0  0  0  0  0  0  0  0  0
    2.2329    1.3457    0.1070 H   0  0  0  0  0  0  0  0  0  0  0  0
   -0.0373    1.9888    0.5953 H   0  0  0  0  0  0  0  0  0  0  0  0
   -3.5974   -2.4850   -0.9068 H   0  0  0  0  0  0  0  0  0  0  0  0
   -4.8191   -1.0344    2.0998 H   0  0  0  0  0  0  0  0  0  0  0  0
   -5.0650    0.6141   -1.8808 H   0  0  0  0  0  0  0  0  0  0  0  0
   -7.2165   -0.5822    2.4294 H   0  0  0  0  0  0  0  0  0  0  0  0
   -7.4065    1.0628   -1.5757 H   0  0  0  0  0  0  0  0  0  0  0  0
   -9.5398    0.4746   -1.3135 H   0  0  0  0  0  0  0  0  0  0  0  0
   -9.1377    2.1221   -0.6559 H   0  0  0  0  0  0  0  0  0  0  0  0
  -10.5649    1.2483   -0.1096 H   0  0  0  0  0  0  0  0  0  0  0  0
  1 13  1  0  0  0  0
  1 14  1  0  0  0  0
  2 14  1  0  0  0  0
  2 16  1  0  0  0  0
  3 10  1  0  0  0  0
  3 39  1  0  0  0  0
  4 11  1  0  0  0  0
  4 40  1  0  0  0  0
  5 12  1  0  0  0  0
  5 41  1  0  0  0  0
  6 15  1  0  0  0  0
  6 42  1  0  0  0  0
  7 19  1  0  0  0  0
  7 24  1  0  0  0  0
  8 22  2  0  0  0  0
  9 30  1  0  0  0  0
  9 31  1  0  0  0  0
 10 11  1  0  0  0  0
 10 12  1  0  0  0  0
 10 32  1  0  0  0  0
 11 13  1  0  0  0  0
 11 33  1  0  0  0  0
 12 14  1  0  0  0  0
 12 34  1  0  0  0  0
 13 15  1  0  0  0  0
 13 35  1  0  0  0  0
 14 36  1  0  0  0  0
 15 37  1  0  0  0  0
 15 38  1  0  0  0  0
 16 17  2  0  0  0  0
 16 18  1  0  0  0  0
 17 19  1  0  0  0  0
 17 43  1  0  0  0  0
 18 21  2  0  0  0  0
 18 44  1  0  0  0  0
 19 20  2  0  0  0  0
 20 21  1  0  0  0  0
 20 22  1  0  0  0  0
 21 45  1  0  0  0  0
 22 23  1  0  0  0  0
 23 24  2  0  0  0  0
 23 25  1  0  0  0  0
 24 46  1  0  0  0  0
 25 26  2  0  0  0  0
 25 27  1  0  0  0  0
 26 28  1  0  0  0  0
 26 47  1  0  0  0  0
 27 29  2  0  0  0  0
 27 48  1  0  0  0  0
 28 30  2  0  0  0  0
 28 49  1  0  0  0  0
 29 30  1  0  0  0  0
 29 50  1  0  0  0  0
 31 51  1  0  0  0  0
 31 52  1  0  0  0  0
 31 53  1  0  0  0  0
M  END
> <PUBCHEM_COMPOUND_CID>
442813

> <PUBCHEM_CONFORMER_RMSD>
0.8

> <PUBCHEM_CONFORMER_DIVERSEORDER>
3
37
123
49
55
8
27
77
70
20
76
113
81
10
96
41
42
97
59
29
28
122
44
57
104
106
69
52
103
99
94
21
120
53
117
73
108
32
6
88
95
74
24
82
131
38
89
98
92
101
132
71
22
79
51
47
9
61
16
109
5
119
7
121
84
62
83
58
93
34
67
46
129
125
19
90
91
31
17
4
64
75
30
56
118
72
18
124
15
66
112
115
45
127
1
26
85
126
86
12
116
11
2
43
65
13
25
35
102
111
54
60
50
87
100
105
80
14
114
36
63
130
128
23
40
48
107
110
68
78
33
39

> <PUBCHEM_MMFF94_PARTIAL_CHARGES>
43
1 -0.56
10 0.28
11 0.28
12 0.28
13 0.28
14 0.56
15 0.28
16 0.08
17 -0.15
18 -0.15
19 0.08
2 -0.36
20 0.09
21 -0.15
22 0.47
23 -0.01
24 -0.07
25 0.03
26 -0.15
27 -0.15
28 -0.15
29 -0.15
3 -0.68
30 0.08
31 0.28
39 0.4
4 -0.68
40 0.4
41 0.4
42 0.4
43 0.15
44 0.15
45 0.15
46 0.15
47 0.15
48 0.15
49 0.15
5 -0.68
50 0.15
6 -0.68
7 -0.16
8 -0.57
9 -0.36

> <PUBCHEM_EFFECTIVE_ROTOR_COUNT>
6.2

> <PUBCHEM_PHARMACOPHORE_FEATURES>
17
1 1 acceptor
1 2 acceptor
1 3 acceptor
1 3 donor
1 4 acceptor
1 4 donor
1 5 acceptor
1 5 donor
1 6 acceptor
1 6 donor
1 7 acceptor
1 8 acceptor
1 9 acceptor
6 1 10 11 12 13 14 rings
6 16 17 18 19 20 21 rings
6 25 26 27 28 29 30 rings
6 7 19 20 22 23 24 rings

> <PUBCHEM_HEAVY_ATOM_COUNT>
31

> <PUBCHEM_ATOM_DEF_STEREO_COUNT>
5

> <PUBCHEM_ATOM_UDEF_STEREO_COUNT>
0

> <PUBCHEM_BOND_DEF_STEREO_COUNT>
0

> <PUBCHEM_BOND_UDEF_STEREO_COUNT>
0

> <PUBCHEM_ISOTOPIC_ATOM_COUNT>
0

> <PUBCHEM_COMPONENT_COUNT>
1

> <PUBCHEM_CACTVS_TAUTO_COUNT>
1

> <PUBCHEM_CONFORMER_ID>
0006C1BD00000003

> <PUBCHEM_MMFF94_ENERGY>
111.7608

> <PUBCHEM_FEATURE_SELFOVERLAP>
86.354

> <PUBCHEM_SHAPE_FINGERPRINT>
10 15 18342174457719878847
10906281 52 17822275873963843135
11315181 36 16950282902438316747
11374522 174 17484227566915266124
11524674 6 16343698820835351803
12166972 35 8430315740386286483
125118 31 18413385449538270949
12838862 33 18187940490620789953
13533116 47 18131353042360706818
13782708 43 14692565477583918201
14251764 18 18187366506769986263
15131766 46 17271707400634435556
15183329 4 17821723914631330497
15348495 7 18059571330819215730
15419008 47 17561090210864008636
15419008 91 17275118201551732317
15510794 2 18059852853958269707
1577012 14 18336266730847666580
15840311 113 18412824677196026852
15849732 13 17989487424614591383
16120349 18 18411422795681282765
19841028 212 16988003928628996626
20157964 124 18411136940122623798
20281389 69 18342738524813190293
21150785 3 6266896861895767795
21267235 1 18411134784460777174
21792934 111 18410862078757713376
22224240 67 17603308167346263295
22956985 138 13468757479636165984
23559900 14 17968669202534402409
23576562 1 15720252564658408729
24771293 8 17603860131458910009
255183 451 17751627987615527646
335352 9 18186804665023401605
397830 11 17702935912334081577
4073 2 18058726888540617506
4325135 7 17894348886522880973
4340502 62 17560801026473462602
504843 32 17895195451043806711
5758199 1 17240761796415930631
6086070 43 17023746689193888995

> <PUBCHEM_SHAPE_MULTIPOLES>
585.14
26.66
2.24
1.02
18.76
0.87
-0.13
7.32
-5.34
-4.67
0.3
0.73
-0.12
-0.46

> <PUBCHEM_SHAPE_SELFOVERLAP>
1275.271

> <PUBCHEM_SHAPE_VOLUME>
315.6

> <PUBCHEM_COORDINATE_TYPE>
2
5
10

$$$$

