17396627
  -OEChem-06241222573D

 39 40  0     0  0  0  0  0  0999 V2000
   -4.4330    1.1389   -1.4203 F   0  0  0  0  0  0  0  0  0  0  0  0
   -3.2379    2.1080    0.1083 F   0  0  0  0  0  0  0  0  0  0  0  0
   -2.2927    1.3878   -1.7129 F   0  0  0  0  0  0  0  0  0  0  0  0
    2.8835   -0.7296   -0.9845 O   0  0  0  0  0  0  0  0  0  0  0  0
   -1.0540    1.5871    1.2730 O   0  0  0  0  0  0  0  0  0  0  0  0
    0.4880    0.2049    0.1698 N   0  0  0  0  0  0  0  0  0  0  0  0
    1.6696    0.9862    0.1735 C   0  0  0  0  0  0  0  0  0  0  0  0
   -1.7934   -0.5015    0.5646 C   0  0  0  0  0  0  0  0  0  0  0  0
    2.8438    0.5029   -0.4039 C   0  0  0  0  0  0  0  0  0  0  0  0
   -2.9743   -0.2566   -0.1366 C   0  0  0  0  0  0  0  0  0  0  0  0
    3.8056   -1.6718   -0.4413 C   0  0  0  0  0  0  0  0  0  0  0  0
   -0.7694    0.5258    0.6974 C   0  0  0  0  0  0  0  0  0  0  0  0
    3.2579   -3.0746   -0.6538 C   0  0  0  0  0  0  0  0  0  0  0  0
    1.6510    2.2507    0.7623 C   0  0  0  0  0  0  0  0  0  0  0  0
   -1.5779   -1.7473    1.1539 C   0  0  0  0  0  0  0  0  0  0  0  0
    3.9995    1.2842   -0.3925 C   0  0  0  0  0  0  0  0  0  0  0  0
   -3.9393   -1.2577   -0.2485 C   0  0  0  0  0  0  0  0  0  0  0  0
   -3.2316    1.0688   -0.7765 C   0  0  0  0  0  0  0  0  0  0  0  0
    2.8067    3.0318    0.7737 C   0  0  0  0  0  0  0  0  0  0  0  0
   -2.5430   -2.7482    1.0419 C   0  0  0  0  0  0  0  0  0  0  0  0
    3.9808    2.5485    0.1964 C   0  0  0  0  0  0  0  0  0  0  0  0
   -3.7236   -2.5035    0.3409 C   0  0  0  0  0  0  0  0  0  0  0  0
    4.1837   -4.1348   -0.0848 C   0  0  0  0  0  0  0  0  0  0  0  0
    3.9555   -1.4943    0.6316 H   0  0  0  0  0  0  0  0  0  0  0  0
    4.7681   -1.5599   -0.9535 H   0  0  0  0  0  0  0  0  0  0  0  0
    0.5846   -0.7035   -0.2799 H   0  0  0  0  0  0  0  0  0  0  0  0
    2.2682   -3.1568   -0.1884 H   0  0  0  0  0  0  0  0  0  0  0  0
    3.1024   -3.2508   -1.7248 H   0  0  0  0  0  0  0  0  0  0  0  0
    0.7860    2.6981    1.2292 H   0  0  0  0  0  0  0  0  0  0  0  0
   -0.6656   -1.9535    1.7080 H   0  0  0  0  0  0  0  0  0  0  0  0
    4.9196    0.9258   -0.8459 H   0  0  0  0  0  0  0  0  0  0  0  0
   -4.8662   -1.0891   -0.7896 H   0  0  0  0  0  0  0  0  0  0  0  0
   -2.3757   -3.7178    1.5017 H   0  0  0  0  0  0  0  0  0  0  0  0
    2.7936    4.0168    1.2314 H   0  0  0  0  0  0  0  0  0  0  0  0
    4.8800    3.1577    0.2036 H   0  0  0  0  0  0  0  0  0  0  0  0
   -4.4750   -3.2829    0.2542 H   0  0  0  0  0  0  0  0  0  0  0  0
    5.1678   -4.0933   -0.5622 H   0  0  0  0  0  0  0  0  0  0  0  0
    4.3185   -4.0005    0.9932 H   0  0  0  0  0  0  0  0  0  0  0  0
    3.7664   -5.1325   -0.2529 H   0  0  0  0  0  0  0  0  0  0  0  0
  1 18  1  0  0  0  0
  2 18  1  0  0  0  0
  3 18  1  0  0  0  0
  4  9  1  0  0  0  0
  4 11  1  0  0  0  0
  5 12  2  0  0  0  0
  6  7  1  0  0  0  0
  6 12  1  0  0  0  0
  6 26  1  0  0  0  0
  7  9  1  0  0  0  0
  7 14  2  0  0  0  0
  8 10  1  0  0  0  0
  8 12  1  0  0  0  0
  8 15  2  0  0  0  0
  9 16  2  0  0  0  0
 10 17  2  0  0  0  0
 10 18  1  0  0  0  0
 11 13  1  0  0  0  0
 11 24  1  0  0  0  0
 11 25  1  0  0  0  0
 13 23  1  0  0  0  0
 13 27  1  0  0  0  0
 13 28  1  0  0  0  0
 14 19  1  0  0  0  0
 14 29  1  0  0  0  0
 15 20  1  0  0  0  0
 15 30  1  0  0  0  0
 16 21  1  0  0  0  0
 16 31  1  0  0  0  0
 17 22  1  0  0  0  0
 17 32  1  0  0  0  0
 19 21  2  0  0  0  0
 19 34  1  0  0  0  0
 20 22  2  0  0  0  0
 20 33  1  0  0  0  0
 21 35  1  0  0  0  0
 22 36  1  0  0  0  0
 23 37  1  0  0  0  0
 23 38  1  0  0  0  0
 23 39  1  0  0  0  0
M  END
> <PUBCHEM_COMPOUND_CID>
17396627

> <PUBCHEM_CONFORMER_RMSD>
0.8

> <PUBCHEM_CONFORMER_DIVERSEORDER>
1
51
45
42
48
40
29
38
36
16
30
32
50
39
34
49
33
6
53
13
47
28
7
46
10
25
35
31
24
43
19
20
44
27
17
21
41
3
9
26
52
8
11
37
22
2
14
5
23
18
12
15
4

> <PUBCHEM_MMFF94_PARTIAL_CHARGES>
30
1 -0.34
10 -0.14
11 0.28
12 0.54
14 -0.15
15 -0.15
16 -0.15
17 -0.15
18 1.16
19 -0.15
2 -0.34
20 -0.15
21 -0.15
22 -0.15
26 0.37
29 0.15
3 -0.34
30 0.15
31 0.15
32 0.15
33 0.15
34 0.15
35 0.15
36 0.15
4 -0.36
5 -0.57
6 -0.55
7 0.12
8 0.09
9 0.08

> <PUBCHEM_EFFECTIVE_ROTOR_COUNT>
7

> <PUBCHEM_PHARMACOPHORE_FEATURES>
6
1 23 hydrophobe
1 4 acceptor
1 5 acceptor
1 6 donor
6 7 9 14 16 19 21 rings
6 8 10 15 17 20 22 rings

> <PUBCHEM_HEAVY_ATOM_COUNT>
23

> <PUBCHEM_ATOM_DEF_STEREO_COUNT>
0

> <PUBCHEM_ATOM_UDEF_STEREO_COUNT>
0

> <PUBCHEM_BOND_DEF_STEREO_COUNT>
0

> <PUBCHEM_BOND_UDEF_STEREO_COUNT>
0

> <PUBCHEM_ISOTOPIC_ATOM_COUNT>
0

> <PUBCHEM_COMPONENT_COUNT>
1

> <PUBCHEM_CACTVS_TAUTO_COUNT>
2

> <PUBCHEM_CONFORMER_ID>
0109739300000001

> <PUBCHEM_MMFF94_ENERGY>
66.8271

> <PUBCHEM_FEATURE_SELFOVERLAP>
30.446

> <PUBCHEM_SHAPE_FINGERPRINT>
10764073 3 17479970558407092651
1100329 8 18048869990093297816
11405975 8 18408881862652870849
12553582 1 17975110348378251054
13533116 47 18408040710851860607
13544592 145 18271527610141114693
13583140 156 18335139752355491068
14251757 17 18412263934549872947
14659021 117 17183335657097057998
14866123 147 17183057480374837098
15927050 60 15813963305513130030
15961568 22 17270606746445787700
17492 89 18409165510836255338
19433438 38 18268430144347141864
200 152 17532082809047278881
20567600 70 18341053021218396226
20645477 56 18201157672442934213
20645477 70 17968086496015983204
20681677 76 18408882919299306126
20693207 138 18411971455967053462
21133410 32 16482135010301927178
21285901 2 18057895632433895583
221490 88 18410003321911786234
22393880 68 18336816516705454078
22440779 20 16981466167654248115
23557571 272 18057608668304234029
23559900 14 18409735058275479856
23598288 3 16951663909594727841
312425 83 17560790061511270014
3729539 64 17839744004115151287
4280585 95 18196937897577501786
469060 322 17615432275806716039
613672 6 18120095245767592054
621550 34 18121497947282673617
6433294 58 18337668620816129802
7399639 24 18049446941571791856
9709674 26 18411980239112220538

> <PUBCHEM_SHAPE_MULTIPOLES>
434.79
9.45
4.36
1.12
0.29
3.53
-0.12
2.09
-1.82
-4.79
0.38
0.67
-0.21
2.05

> <PUBCHEM_SHAPE_SELFOVERLAP>
926.662

> <PUBCHEM_SHAPE_VOLUME>
242.2

> <PUBCHEM_COORDINATE_TYPE>
2
5
10

$$$$

