5337442
  -OEChem-07051213012D

 40 43  0     0  0  0  0  0  0999 V2000
    2.9380   -1.5352    0.0000 O   0  0  0  0  0  0  0  0  0  0  0  0
    4.9836    2.8307    0.0000 O   0  0  0  0  0  0  0  0  0  0  0  0
    5.4791    0.0526    0.0000 N   0  0  0  0  0  0  0  0  0  0  0  0
    5.1701    1.0036    0.0000 N   0  0  0  0  0  0  0  0  0  0  0  0
    3.8611    0.0526    0.0000 N   0  0  0  0  0  0  0  0  0  0  0  0
    4.6701   -0.5352    0.0000 C   0  0  0  0  0  0  0  0  0  0  0  0
    4.1701    1.0036    0.0000 C   0  0  0  0  0  0  0  0  0  0  0  0
    6.4302   -0.2564    0.0000 C   0  0  0  0  0  0  0  0  0  0  0  0
    4.6701   -1.5352    0.0000 C   0  0  0  0  0  0  0  0  0  0  0  0
    3.5823    1.8126    0.0000 C   0  0  0  0  0  0  0  0  0  0  0  0
    6.6381   -1.2346    0.0000 C   0  0  0  0  0  0  0  0  0  0  0  0
    7.1733    0.4127    0.0000 C   0  0  0  0  0  0  0  0  0  0  0  0
    3.8041   -2.0352    0.0000 C   0  0  0  0  0  0  0  0  0  0  0  0
    5.5361   -2.0352    0.0000 C   0  0  0  0  0  0  0  0  0  0  0  0
    3.9890    2.7262    0.0000 C   0  0  0  0  0  0  0  0  0  0  0  0
    2.5878    1.7081    0.0000 C   0  0  0  0  0  0  0  0  0  0  0  0
    7.5891   -1.5436    0.0000 C   0  0  0  0  0  0  0  0  0  0  0  0
    8.1244    0.1037    0.0000 C   0  0  0  0  0  0  0  0  0  0  0  0
    3.8041   -3.0352    0.0000 C   0  0  0  0  0  0  0  0  0  0  0  0
    5.5361   -3.0352    0.0000 C   0  0  0  0  0  0  0  0  0  0  0  0
    3.4013    3.5352    0.0000 C   0  0  0  0  0  0  0  0  0  0  0  0
    2.0000    2.5171    0.0000 C   0  0  0  0  0  0  0  0  0  0  0  0
    8.3323   -0.8745    0.0000 C   0  0  0  0  0  0  0  0  0  0  0  0
    4.6701   -3.5352    0.0000 C   0  0  0  0  0  0  0  0  0  0  0  0
    2.4067    3.4307    0.0000 C   0  0  0  0  0  0  0  0  0  0  0  0
    5.5345    1.5052    0.0000 H   0  0  0  0  0  0  0  0  0  0  0  0
    3.2714   -0.1390    0.0000 H   0  0  0  0  0  0  0  0  0  0  0  0
    6.1773   -1.6494    0.0000 H   0  0  0  0  0  0  0  0  0  0  0  0
    7.0444    1.0191    0.0000 H   0  0  0  0  0  0  0  0  0  0  0  0
    6.0730   -1.7252    0.0000 H   0  0  0  0  0  0  0  0  0  0  0  0
    2.3356    1.1417    0.0000 H   0  0  0  0  0  0  0  0  0  0  0  0
    7.7180   -2.1501    0.0000 H   0  0  0  0  0  0  0  0  0  0  0  0
    8.5851    0.5185    0.0000 H   0  0  0  0  0  0  0  0  0  0  0  0
    3.2671   -3.3452    0.0000 H   0  0  0  0  0  0  0  0  0  0  0  0
    6.0730   -3.3452    0.0000 H   0  0  0  0  0  0  0  0  0  0  0  0
    3.6534    4.1016    0.0000 H   0  0  0  0  0  0  0  0  0  0  0  0
    1.3834    2.4523    0.0000 H   0  0  0  0  0  0  0  0  0  0  0  0
    8.9219   -1.0661    0.0000 H   0  0  0  0  0  0  0  0  0  0  0  0
    4.6701   -4.1552    0.0000 H   0  0  0  0  0  0  0  0  0  0  0  0
    2.0423    3.9323    0.0000 H   0  0  0  0  0  0  0  0  0  0  0  0
  1 13  2  0  0  0  0
  2 15  2  0  0  0  0
  3  4  1  0  0  0  0
  3  6  1  0  0  0  0
  3  8  1  0  0  0  0
  4  7  1  0  0  0  0
  4 26  1  0  0  0  0
  5  6  1  0  0  0  0
  5  7  1  0  0  0  0
  5 27  1  0  0  0  0
  6  9  2  0  0  0  0
  7 10  2  0  0  0  0
  8 11  2  0  0  0  0
  8 12  1  0  0  0  0
  9 13  1  0  0  0  0
  9 14  1  0  0  0  0
 10 15  1  0  0  0  0
 10 16  1  0  0  0  0
 11 17  1  0  0  0  0
 11 28  1  0  0  0  0
 12 18  2  0  0  0  0
 12 29  1  0  0  0  0
 13 19  1  0  0  0  0
 14 20  2  0  0  0  0
 14 30  1  0  0  0  0
 15 21  1  0  0  0  0
 16 22  2  0  0  0  0
 16 31  1  0  0  0  0
 17 23  2  0  0  0  0
 17 32  1  0  0  0  0
 18 23  1  0  0  0  0
 18 33  1  0  0  0  0
 19 24  2  0  0  0  0
 19 34  1  0  0  0  0
 20 24  1  0  0  0  0
 20 35  1  0  0  0  0
 21 25  2  0  0  0  0
 21 36  1  0  0  0  0
 22 25  1  0  0  0  0
 22 37  1  0  0  0  0
 23 38  1  0  0  0  0
 24 39  1  0  0  0  0
 25 40  1  0  0  0  0
M  END
> <PUBCHEM_COMPOUND_CID>
5337442

> <PUBCHEM_COMPOUND_CANONICALIZED>
1

> <PUBCHEM_CACTVS_COMPLEXITY>
790

> <PUBCHEM_CACTVS_HBOND_ACCEPTOR>
5

> <PUBCHEM_CACTVS_HBOND_DONOR>
2

> <PUBCHEM_CACTVS_ROTATABLE_BOND>
1

> <PUBCHEM_CACTVS_SUBSKEYS>
AAADccB7MAAAAAAAAAAAAAAAAAAAAWAAAAAwQIAAAAAAAAABAAAAHgAYAAAADAyBkAAxwILiAACIAqRSQACCBAAhAgAcqAEAZMiIICLAkZGEIAh4gAJIyecQAAAAAAAAAAAAAAAAAAAAAAAAAAAAAAAAAA==

> <PUBCHEM_IUPAC_OPENEYE_NAME>
(6Z)-6-[(5E)-5-(6-oxocyclohexa-2,4-dien-1-ylidene)-1-phenyl-1,2,4-triazolidin-3-ylidene]cyclohexa-2,4-dien-1-one

> <PUBCHEM_IUPAC_CAS_NAME>
(6Z)-6-[(5E)-5-(6-oxo-1-cyclohexa-2,4-dienylidene)-1-phenyl-1,2,4-triazolidin-3-ylidene]-1-cyclohexa-2,4-dienone

> <PUBCHEM_IUPAC_NAME>
(6Z)-6-[(5E)-5-(6-oxocyclohexa-2,4-dien-1-ylidene)-1-phenyl-1,2,4-triazolidin-3-ylidene]cyclohexa-2,4-dien-1-one

> <PUBCHEM_IUPAC_SYSTEMATIC_NAME>
(6Z)-6-[(5E)-5-(6-oxidanylidenecyclohexa-2,4-dien-1-ylidene)-1-phenyl-1,2,4-triazolidin-3-ylidene]cyclohexa-2,4-dien-1-one

> <PUBCHEM_IUPAC_TRADITIONAL_NAME>
(6Z)-6-[(5E)-5-(6-ketocyclohexa-2,4-dien-1-ylidene)-1-phenyl-1,2,4-triazolidin-3-ylidene]cyclohexa-2,4-dien-1-one

> <PUBCHEM_IUPAC_INCHI>
InChI=1S/C20H15N3O2/c24-17-12-6-4-10-15(17)19-21-20(16-11-5-7-13-18(16)25)23(22-19)14-8-2-1-3-9-14/h1-13,21-22H/b19-15-,20-16+

> <PUBCHEM_IUPAC_INCHIKEY>
KCUBJFVAQBQSJE-VBGLAJCLSA-N

> <PUBCHEM_XLOGP3_AA>
4.3

> <PUBCHEM_EXACT_MASS>
329.116427

> <PUBCHEM_MOLECULAR_FORMULA>
C20H15N3O2

> <PUBCHEM_MOLECULAR_WEIGHT>
329.352

> <PUBCHEM_OPENEYE_CAN_SMILES>
C1=CC=C(C=C1)N2C(=C3C=CC=CC3=O)NC(=C4C=CC=CC4=O)N2

> <PUBCHEM_OPENEYE_ISO_SMILES>
C1=CC=C(C=C1)N2/C(=C/3\C=CC=CC3=O)/N/C(=C/4\C=CC=CC4=O)/N2

> <PUBCHEM_CACTVS_TPSA>
61.4

> <PUBCHEM_MONOISOTOPIC_WEIGHT>
329.116427

> <PUBCHEM_TOTAL_CHARGE>
0

> <PUBCHEM_HEAVY_ATOM_COUNT>
25

> <PUBCHEM_ATOM_DEF_STEREO_COUNT>
0

> <PUBCHEM_ATOM_UDEF_STEREO_COUNT>
0

> <PUBCHEM_BOND_DEF_STEREO_COUNT>
2

> <PUBCHEM_BOND_UDEF_STEREO_COUNT>
0

> <PUBCHEM_ISOTOPIC_ATOM_COUNT>
0

> <PUBCHEM_COMPONENT_COUNT>
1

> <PUBCHEM_CACTVS_TAUTO_COUNT>
23

> <PUBCHEM_COORDINATE_TYPE>
1
5
255

> <PUBCHEM_BONDANNOTATIONS>
11  17  8
12  18  8
17  23  8
18  23  8
8  11  8
8  12  8

$$$$

