56928063
  -OEChem-07051212483D

 78 81  0     1  0  0  0  0  0999 V2000
    4.3102    3.8905    0.2404 P   0  0  0  0  0  0  0  0  0  0  0  0
    0.5203   -1.3347    0.0646 O   0  0  0  0  0  0  0  0  0  0  0  0
    1.1723   -3.3259   -0.9359 O   0  0  0  0  0  0  0  0  0  0  0  0
    2.6713   -1.5292   -0.9475 O   0  0  0  0  0  0  0  0  0  0  0  0
   -2.4938   -1.7712   -0.3619 O   0  0  0  0  0  0  0  0  0  0  0  0
   -1.5907    0.3929   -0.4911 O   0  0  0  0  0  0  0  0  0  0  0  0
   -0.9853   -3.9687    0.5711 O   0  0  0  0  0  0  0  0  0  0  0  0
    1.2606   -3.2501    1.9788 O   0  0  0  0  0  0  0  0  0  0  0  0
    3.6193   -2.0635    3.0438 O   0  0  0  0  0  0  0  0  0  0  0  0
    5.0267   -1.6968    0.7051 O   0  0  0  0  0  0  0  0  0  0  0  0
   -3.3701   -0.0687    1.6801 O   0  0  0  0  0  0  0  0  0  0  0  0
   -2.7787    1.9521   -2.6284 O   0  0  0  0  0  0  0  0  0  0  0  0
   -4.9406   -3.3868   -0.8282 O   0  0  0  0  0  0  0  0  0  0  0  0
    3.8469    2.4740   -0.3861 O   0  0  0  0  0  0  0  0  0  0  0  0
    5.2217    3.4429    1.4989 O   0  0  0  0  0  0  0  0  0  0  0  0
    5.3931    4.4468   -0.8241 O   0  0  0  0  0  0  0  0  0  0  0  0
    3.1923    4.8353    0.5717 O   0  0  0  0  0  0  0  0  0  0  0  0
   -4.7443    2.3001    2.6438 N   0  0  0  0  0  0  0  0  0  0  0  0
   -4.1056    4.3599   -1.7386 N   0  0  0  0  0  0  0  0  0  0  0  0
    3.4785    0.6160   -2.5244 N   0  0  0  0  0  0  0  0  0  0  0  0
   -0.2061   -1.4432   -1.1641 C   0  0  1  0  0  0  0  0  0  0  0  0
   -0.1072   -2.9290   -1.4572 C   0  0  2  0  0  0  0  0  0  0  0  0
    1.6538   -2.1963   -0.1727 C   0  0  1  0  0  0  0  0  0  0  0  0
   -1.6278   -0.9009   -1.0846 C   0  0  1  0  0  0  0  0  0  0  0  0
   -1.2245   -3.7693   -0.8198 C   0  0  2  0  0  0  0  0  0  0  0  0
    2.2704   -2.6875    1.1467 C   0  0  1  0  0  0  0  0  0  0  0  0
   -2.5768   -3.0687   -0.9692 C   0  0  1  0  0  0  0  0  0  0  0  0
   -2.8950    0.9783   -0.4310 C   0  0  1  0  0  0  0  0  0  0  0  0
    2.9481   -1.5408    1.8997 C   0  0  2  0  0  0  0  0  0  0  0  0
    3.2471   -0.3872   -0.2996 C   0  0  1  0  0  0  0  0  0  0  0  0
    3.9436   -0.8114    0.9973 C   0  0  2  0  0  0  0  0  0  0  0  0
   -3.2308    1.2065    1.0468 C   0  0  1  0  0  0  0  0  0  0  0  0
   -2.8947    2.2799   -1.2411 C   0  0  2  0  0  0  0  0  0  0  0  0
   -4.5264    2.0089    1.2247 C   0  0  2  0  0  0  0  0  0  0  0  0
   -4.1933    3.0731   -1.0427 C   0  0  1  0  0  0  0  0  0  0  0  0
   -4.4752    3.3235    0.4415 C   0  0  0  0  0  0  0  0  0  0  0  0
    4.1959    0.2659   -1.2978 C   0  0  2  0  0  0  0  0  0  0  0  0
   -3.7091   -3.8234   -0.2816 C   0  0  0  0  0  0  0  0  0  0  0  0
    4.8511    1.5258   -0.7258 C   0  0  0  0  0  0  0  0  0  0  0  0
   -6.1473    2.5809    2.8985 C   0  0  0  0  0  0  0  0  0  0  0  0
    0.3510   -0.8533   -1.9045 H   0  0  0  0  0  0  0  0  0  0  0  0
   -0.1214   -3.0924   -2.5411 H   0  0  0  0  0  0  0  0  0  0  0  0
   -2.0166   -0.7990   -2.1072 H   0  0  0  0  0  0  0  0  0  0  0  0
   -1.2411   -4.7638   -1.2781 H   0  0  0  0  0  0  0  0  0  0  0  0
    2.9960   -3.4876    0.9560 H   0  0  0  0  0  0  0  0  0  0  0  0
   -2.8225   -2.9446   -2.0325 H   0  0  0  0  0  0  0  0  0  0  0  0
   -3.6431    0.3016   -0.8687 H   0  0  0  0  0  0  0  0  0  0  0  0
    2.1867   -0.8428    2.2693 H   0  0  0  0  0  0  0  0  0  0  0  0
    2.4354    0.3131   -0.0600 H   0  0  0  0  0  0  0  0  0  0  0  0
    4.3617    0.0390    1.5435 H   0  0  0  0  0  0  0  0  0  0  0  0
   -2.3902    1.7108    1.5404 H   0  0  0  0  0  0  0  0  0  0  0  0
   -2.0163    2.8828   -0.9797 H   0  0  0  0  0  0  0  0  0  0  0  0
   -5.3517    1.3874    0.8490 H   0  0  0  0  0  0  0  0  0  0  0  0
   -5.0321    2.5181   -1.4825 H   0  0  0  0  0  0  0  0  0  0  0  0
   -3.6964    3.9758    0.8621 H   0  0  0  0  0  0  0  0  0  0  0  0
   -5.4231    3.8676    0.5315 H   0  0  0  0  0  0  0  0  0  0  0  0
    4.9817   -0.4445   -1.5824 H   0  0  0  0  0  0  0  0  0  0  0  0
   -3.6307   -4.8996   -0.4649 H   0  0  0  0  0  0  0  0  0  0  0  0
   -3.7268   -3.6352    0.7969 H   0  0  0  0  0  0  0  0  0  0  0  0
   -1.0152   -3.0986    1.0048 H   0  0  0  0  0  0  0  0  0  0  0  0
    0.9047   -4.0264    1.5137 H   0  0  0  0  0  0  0  0  0  0  0  0
   -4.4739    1.4875    3.1983 H   0  0  0  0  0  0  0  0  0  0  0  0
    5.4644    1.2960    0.1497 H   0  0  0  0  0  0  0  0  0  0  0  0
    5.5165    1.9680   -1.4765 H   0  0  0  0  0  0  0  0  0  0  0  0
    4.0461   -1.3173    3.4984 H   0  0  0  0  0  0  0  0  0  0  0  0
    4.7150   -2.3613    0.0679 H   0  0  0  0  0  0  0  0  0  0  0  0
   -4.9924    4.8554   -1.6569 H   0  0  0  0  0  0  0  0  0  0  0  0
   -3.9552    4.1992   -2.7338 H   0  0  0  0  0  0  0  0  0  0  0  0
   -4.1054   -0.5381    1.2504 H   0  0  0  0  0  0  0  0  0  0  0  0
   -3.5473    1.4102   -2.8757 H   0  0  0  0  0  0  0  0  0  0  0  0
    3.0715   -0.2239   -2.9341 H   0  0  0  0  0  0  0  0  0  0  0  0
    4.1326    0.9857   -3.2131 H   0  0  0  0  0  0  0  0  0  0  0  0
   -6.4903    3.4918    2.4003 H   0  0  0  0  0  0  0  0  0  0  0  0
   -6.2887    2.7395    3.9728 H   0  0  0  0  0  0  0  0  0  0  0  0
   -6.7920    1.7453    2.6059 H   0  0  0  0  0  0  0  0  0  0  0  0
   -5.6462   -3.8824   -0.3788 H   0  0  0  0  0  0  0  0  0  0  0  0
    5.7764    5.3394   -0.6885 H   0  0  0  0  0  0  0  0  0  0  0  0
    5.5563    4.1320    2.1115 H   0  0  0  0  0  0  0  0  0  0  0  0
  1 14  1  0  0  0  0
  1 15  1  0  0  0  0
  1 16  1  0  0  0  0
  1 17  2  0  0  0  0
  2 21  1  0  0  0  0
  2 23  1  0  0  0  0
  3 22  1  0  0  0  0
  3 23  1  0  0  0  0
  4 23  1  0  0  0  0
  4 30  1  0  0  0  0
  5 24  1  0  0  0  0
  5 27  1  0  0  0  0
  6 24  1  0  0  0  0
  6 28  1  0  0  0  0
  7 25  1  0  0  0  0
  7 60  1  0  0  0  0
  8 26  1  0  0  0  0
  8 61  1  0  0  0  0
  9 29  1  0  0  0  0
  9 65  1  0  0  0  0
 10 31  1  0  0  0  0
 10 66  1  0  0  0  0
 11 32  1  0  0  0  0
 11 69  1  0  0  0  0
 12 33  1  0  0  0  0
 12 70  1  0  0  0  0
 13 38  1  0  0  0  0
 13 76  1  0  0  0  0
 14 39  1  0  0  0  0
 15 78  1  0  0  0  0
 16 77  1  0  0  0  0
 18 34  1  0  0  0  0
 18 40  1  0  0  0  0
 18 62  1  0  0  0  0
 19 35  1  0  0  0  0
 19 67  1  0  0  0  0
 19 68  1  0  0  0  0
 20 37  1  0  0  0  0
 20 71  1  0  0  0  0
 20 72  1  0  0  0  0
 21 22  1  0  0  0  0
 21 24  1  0  0  0  0
 21 41  1  0  0  0  0
 22 25  1  0  0  0  0
 22 42  1  0  0  0  0
 23 26  1  0  0  0  0
 24 43  1  0  0  0  0
 25 27  1  0  0  0  0
 25 44  1  0  0  0  0
 26 29  1  0  0  0  0
 26 45  1  0  0  0  0
 27 38  1  0  0  0  0
 27 46  1  0  0  0  0
 28 32  1  0  0  0  0
 28 33  1  0  0  0  0
 28 47  1  0  0  0  0
 29 31  1  0  0  0  0
 29 48  1  0  0  0  0
 30 31  1  0  0  0  0
 30 37  1  0  0  0  0
 30 49  1  0  0  0  0
 31 50  1  0  0  0  0
 32 34  1  0  0  0  0
 32 51  1  0  0  0  0
 33 35  1  0  0  0  0
 33 52  1  0  0  0  0
 34 36  1  0  0  0  0
 34 53  1  0  0  0  0
 35 36  1  0  0  0  0
 35 54  1  0  0  0  0
 36 55  1  0  0  0  0
 36 56  1  0  0  0  0
 37 39  1  0  0  0  0
 37 57  1  0  0  0  0
 38 58  1  0  0  0  0
 38 59  1  0  0  0  0
 39 63  1  0  0  0  0
 39 64  1  0  0  0  0
 40 73  1  0  0  0  0
 40 74  1  0  0  0  0
 40 75  1  0  0  0  0
M  END
> <PUBCHEM_COMPOUND_CID>
56928063

> <PUBCHEM_CONFORMER_RMSD>
1.2

> <PUBCHEM_CONFORMER_DIVERSEORDER>
1
17
15
24
27
31
23
7
36
18
12
14
29
19
9
21
30
3
37
32
26
25
16
10
33
35
8
34
13
28
6
2
22
5
11
4
20

> <PUBCHEM_MMFF94_PARTIAL_CHARGES>
53
1 1.51
10 -0.68
11 -0.68
12 -0.68
13 -0.68
14 -0.55
15 -0.77
16 -0.77
17 -0.7
18 -0.9
19 -0.99
2 -0.56
20 -0.99
21 0.28
22 0.28
23 0.84
24 0.56
25 0.28
26 0.28
27 0.28
28 0.28
29 0.28
3 -0.56
30 0.28
31 0.28
32 0.28
33 0.28
34 0.27
35 0.27
37 0.27
38 0.28
39 0.28
4 -0.56
40 0.27
5 -0.56
6 -0.56
60 0.4
61 0.4
62 0.36
65 0.4
66 0.4
67 0.36
68 0.36
69 0.4
7 -0.68
70 0.4
71 0.36
72 0.36
76 0.4
77 0.5
78 0.5
8 -0.68
9 -0.68

> <PUBCHEM_EFFECTIVE_ROTOR_COUNT>
11.4

> <PUBCHEM_PHARMACOPHORE_FEATURES>
33
1 10 acceptor
1 10 donor
1 11 acceptor
1 11 donor
1 12 acceptor
1 12 donor
1 13 acceptor
1 13 donor
1 15 acceptor
1 16 acceptor
1 17 acceptor
1 18 cation
1 18 donor
1 19 cation
1 19 donor
1 2 acceptor
1 20 cation
1 20 donor
1 3 acceptor
1 4 acceptor
1 5 acceptor
1 6 acceptor
1 7 acceptor
1 7 donor
1 8 acceptor
1 8 donor
1 9 acceptor
1 9 donor
4 1 15 16 17 anion
5 2 3 21 22 23 rings
6 28 32 33 34 35 36 rings
6 4 23 26 29 30 31 rings
6 5 21 22 24 25 27 rings

> <PUBCHEM_HEAVY_ATOM_COUNT>
40

> <PUBCHEM_ATOM_DEF_STEREO_COUNT>
15

> <PUBCHEM_ATOM_UDEF_STEREO_COUNT>
1

> <PUBCHEM_BOND_DEF_STEREO_COUNT>
0

> <PUBCHEM_BOND_UDEF_STEREO_COUNT>
0

> <PUBCHEM_ISOTOPIC_ATOM_COUNT>
0

> <PUBCHEM_COMPONENT_COUNT>
1

> <PUBCHEM_CACTVS_TAUTO_COUNT>
1

> <PUBCHEM_CONFORMER_ID>
0364A73F00000001

> <PUBCHEM_MMFF94_ENERGY>
70.7118

> <PUBCHEM_FEATURE_SELFOVERLAP>
167.928

> <PUBCHEM_SHAPE_FINGERPRINT>
10006869 2 18195262030601637591
11505856 67 18113618942022467421
11582403 64 16123342603394916223
12788726 201 18339366245236661263
13383661 66 12924906446209437365
13583140 156 17130991043475881311
13726171 33 18187634761758433960
13965767 371 18201442531922193342
14950920 106 17131828823832780083
150020 26 17773313646089968500
15347590 135 17698728004062770795
16067690 210 17260493374569693096
19304152 47 17845365562244687540
19309040 13 17531235158760725516
20764821 26 18339940246309708052
21458453 9 18197472135589686425
21987483 16 18201428170121534411
22122407 14 18121501525387141861
23559900 14 16692989738023156335
469060 322 17559402344371263957
4756261 7 18192690278132368139
5109719 28 17979067516755487573
5252454 2 18343292661557407388

> <PUBCHEM_SHAPE_MULTIPOLES>
718.18
12.71
7.29
2.36
0.65
2.52
-1.06
14.15
-4
0.24
0.43
1.12
0.65
-2.48

> <PUBCHEM_SHAPE_SELFOVERLAP>
1485.184

> <PUBCHEM_SHAPE_VOLUME>
411.4

> <PUBCHEM_COORDINATE_TYPE>
2
5
10

$$$$

