6095
  -OEChem-06261201063D

 51 54  0     0  0  0  0  0  0999 V2000
    8.7400   -0.4722   -0.7046 O   0  0  0  0  0  0  0  0  0  0  0  0
    2.5893    2.0382   -0.3158 O   0  0  0  0  0  0  0  0  0  0  0  0
    6.0599   -0.8988    0.1541 N   0  0  0  0  0  0  0  0  0  0  0  0
    2.5466    0.0776    0.9188 N   0  0  0  0  0  0  0  0  0  0  0  0
   -0.0401   -0.1222    0.1694 N   0  0  0  0  0  0  0  0  0  0  0  0
   -1.5856    2.1653   -0.0194 N   0  0  0  0  0  0  0  0  0  0  0  0
   -3.5106    0.8792   -0.0589 N   0  0  0  0  0  0  0  0  0  0  0  0
   -3.3980   -1.5131    0.0607 N   0  0  0  0  0  0  0  0  0  0  0  0
    0.3852    3.4912    0.0199 N   0  0  0  0  0  0  0  0  0  0  0  0
   -1.2943   -2.5766    0.2209 N   0  0  0  0  0  0  0  0  0  0  0  0
    6.6560    0.4444    0.1345 C   0  0  0  0  0  0  0  0  0  0  0  0
    6.6786   -1.7393   -0.8803 C   0  0  0  0  0  0  0  0  0  0  0  0
    4.6124   -0.8268   -0.0329 C   0  0  0  0  0  0  0  0  0  0  0  0
    8.1675    0.3432    0.3186 C   0  0  0  0  0  0  0  0  0  0  0  0
    8.1893   -1.7895   -0.6712 C   0  0  0  0  0  0  0  0  0  0  0  0
    3.9885   -0.0278    1.1040 C   0  0  0  0  0  0  0  0  0  0  0  0
    1.9747    1.1170    0.2153 C   0  0  0  0  0  0  0  0  0  0  0  0
    0.4912    1.0952    0.1392 C   0  0  0  0  0  0  0  0  0  0  0  0
   -0.2417    2.2260    0.0474 C   0  0  0  0  0  0  0  0  0  0  0  0
   -1.3839   -0.1811    0.1024 C   0  0  0  0  0  0  0  0  0  0  0  0
   -2.1763    0.9647    0.0068 C   0  0  0  0  0  0  0  0  0  0  0  0
   -2.0603   -1.3858    0.1244 C   0  0  0  0  0  0  0  0  0  0  0  0
   -4.0554   -0.3516   -0.0289 C   0  0  0  0  0  0  0  0  0  0  0  0
   -5.4910   -0.4232   -0.1005 C   0  0  0  0  0  0  0  0  0  0  0  0
   -6.2123    0.5570   -0.7902 C   0  0  0  0  0  0  0  0  0  0  0  0
   -6.1766   -1.4736    0.5185 C   0  0  0  0  0  0  0  0  0  0  0  0
   -7.6036    0.4877   -0.8600 C   0  0  0  0  0  0  0  0  0  0  0  0
   -7.5681   -1.5429    0.4485 C   0  0  0  0  0  0  0  0  0  0  0  0
   -8.2815   -0.5622   -0.2407 C   0  0  0  0  0  0  0  0  0  0  0  0
    6.3045    1.0745    0.9544 H   0  0  0  0  0  0  0  0  0  0  0  0
    6.4341    0.9501   -0.8141 H   0  0  0  0  0  0  0  0  0  0  0  0
    6.4618   -1.3360   -1.8781 H   0  0  0  0  0  0  0  0  0  0  0  0
    6.2793   -2.7588   -0.8316 H   0  0  0  0  0  0  0  0  0  0  0  0
    4.3568   -0.3772   -1.0017 H   0  0  0  0  0  0  0  0  0  0  0  0
    4.1829   -1.8370   -0.0290 H   0  0  0  0  0  0  0  0  0  0  0  0
    8.6204    1.3371    0.2425 H   0  0  0  0  0  0  0  0  0  0  0  0
    8.4298   -0.0661    1.3020 H   0  0  0  0  0  0  0  0  0  0  0  0
    8.4507   -2.2717    0.2787 H   0  0  0  0  0  0  0  0  0  0  0  0
    8.6577   -2.3662   -1.4751 H   0  0  0  0  0  0  0  0  0  0  0  0
    4.1525   -0.5226    2.0676 H   0  0  0  0  0  0  0  0  0  0  0  0
    4.3556    0.9976    1.1763 H   0  0  0  0  0  0  0  0  0  0  0  0
    1.9563   -0.6423    1.3256 H   0  0  0  0  0  0  0  0  0  0  0  0
   -0.2219    4.2984   -0.0544 H   0  0  0  0  0  0  0  0  0  0  0  0
    1.2644    3.6089    0.5077 H   0  0  0  0  0  0  0  0  0  0  0  0
   -5.7136    1.3831   -1.2920 H   0  0  0  0  0  0  0  0  0  0  0  0
   -5.6509   -2.2486    1.0714 H   0  0  0  0  0  0  0  0  0  0  0  0
   -0.6908   -2.7369   -0.5811 H   0  0  0  0  0  0  0  0  0  0  0  0
   -0.7774   -2.6570    1.0924 H   0  0  0  0  0  0  0  0  0  0  0  0
   -8.1594    1.2499   -1.3984 H   0  0  0  0  0  0  0  0  0  0  0  0
   -8.0965   -2.3592    0.9323 H   0  0  0  0  0  0  0  0  0  0  0  0
   -9.3649   -0.6163   -0.2951 H   0  0  0  0  0  0  0  0  0  0  0  0
  1 14  1  0  0  0  0
  1 15  1  0  0  0  0
  2 17  2  0  0  0  0
  3 11  1  0  0  0  0
  3 12  1  0  0  0  0
  3 13  1  0  0  0  0
  4 16  1  0  0  0  0
  4 17  1  0  0  0  0
  4 42  1  0  0  0  0
  5 18  2  0  0  0  0
  5 20  1  0  0  0  0
  6 19  2  0  0  0  0
  6 21  1  0  0  0  0
  7 21  2  0  0  0  0
  7 23  1  0  0  0  0
  8 22  1  0  0  0  0
  8 23  2  0  0  0  0
  9 19  1  0  0  0  0
  9 43  1  0  0  0  0
  9 44  1  0  0  0  0
 10 22  1  0  0  0  0
 10 47  1  0  0  0  0
 10 48  1  0  0  0  0
 11 14  1  0  0  0  0
 11 30  1  0  0  0  0
 11 31  1  0  0  0  0
 12 15  1  0  0  0  0
 12 32  1  0  0  0  0
 12 33  1  0  0  0  0
 13 16  1  0  0  0  0
 13 34  1  0  0  0  0
 13 35  1  0  0  0  0
 14 36  1  0  0  0  0
 14 37  1  0  0  0  0
 15 38  1  0  0  0  0
 15 39  1  0  0  0  0
 16 40  1  0  0  0  0
 16 41  1  0  0  0  0
 17 18  1  0  0  0  0
 18 19  1  0  0  0  0
 20 21  1  0  0  0  0
 20 22  2  0  0  0  0
 23 24  1  0  0  0  0
 24 25  2  0  0  0  0
 24 26  1  0  0  0  0
 25 27  1  0  0  0  0
 25 45  1  0  0  0  0
 26 28  2  0  0  0  0
 26 46  1  0  0  0  0
 27 29  2  0  0  0  0
 27 49  1  0  0  0  0
 28 29  1  0  0  0  0
 28 50  1  0  0  0  0
 29 51  1  0  0  0  0
M  END
> <PUBCHEM_COMPOUND_CID>
6095

> <PUBCHEM_CONFORMER_RMSD>
0.8

> <PUBCHEM_CONFORMER_DIVERSEORDER>
1
44
35
11
29
46
23
14
24
49
5
30
33
52
39
22
9
8
25
7
34
16
15
42
10
12
40
27
18
21
2
4
43
32
20
6
45
28
51
31
26
17
3
41
37
38
47
19
36
13
48
50

> <PUBCHEM_MMFF94_PARTIAL_CHARGES>
38
1 -0.56
10 -0.9
11 0.27
12 0.27
13 0.27
14 0.28
15 0.28
16 0.3
17 0.54
18 0.4
19 0.41
2 -0.57
20 0.31
21 0.62
22 0.41
23 0.62
25 -0.15
26 -0.15
27 -0.15
28 -0.15
29 -0.15
3 -0.81
4 -0.73
42 0.37
43 0.4
44 0.4
45 0.15
46 0.15
47 0.4
48 0.4
49 0.15
5 -0.62
50 0.15
51 0.15
6 -0.62
7 -0.62
8 -0.62
9 -0.9

> <PUBCHEM_EFFECTIVE_ROTOR_COUNT>
7.2

> <PUBCHEM_PHARMACOPHORE_FEATURES>
15
1 1 acceptor
1 10 cation
1 10 donor
1 2 acceptor
1 3 cation
1 4 donor
1 5 acceptor
1 9 donor
3 6 7 21 cation
3 6 9 19 cation
3 7 8 23 cation
6 1 3 11 12 14 15 rings
6 24 25 26 27 28 29 rings
6 5 6 18 19 20 21 rings
6 7 8 20 21 22 23 rings

> <PUBCHEM_HEAVY_ATOM_COUNT>
29

> <PUBCHEM_ATOM_DEF_STEREO_COUNT>
0

> <PUBCHEM_ATOM_UDEF_STEREO_COUNT>
0

> <PUBCHEM_BOND_DEF_STEREO_COUNT>
0

> <PUBCHEM_BOND_UDEF_STEREO_COUNT>
0

> <PUBCHEM_ISOTOPIC_ATOM_COUNT>
0

> <PUBCHEM_COMPONENT_COUNT>
1

> <PUBCHEM_CACTVS_TAUTO_COUNT>
43

> <PUBCHEM_CONFORMER_ID>
000017CF00000001

> <PUBCHEM_MMFF94_ENERGY>
100.1922

> <PUBCHEM_FEATURE_SELFOVERLAP>
76.343

> <PUBCHEM_SHAPE_FINGERPRINT>
10050765 1 18052820243641265547
10076449 9 18060418019503139005
10299344 5 17676487250812904978
11408170 108 17312817208721340487
11524674 6 16443068296402259294
11578080 2 16413255142501494807
12592606 108 18335704906155051743
12645989 146 18338242557975655783
12838862 33 18339660978824205362
13617811 41 18272366486796511036
13673619 4 17967816068017301120
13685833 64 18335138691815053594
13885169 127 18335983155331709145
14117953 113 18334012795844690615
14216079 64 18333731338538556382
14251764 18 17749385966597537194
15198563 99 18271247243414738516
15301273 46 18113903766614603016
15849732 13 18409732845998063975
16087824 20 18341053034235290237
16728433 281 16270266945090372701
18006028 8 18260550021614703680
18335252 98 18260547836720918542
19301679 30 15069169208951833606
19315958 150 18042129765394464104
20105231 36 18201715146287063411
21150785 3 16630526241128776831
21267235 1 18412261727316419257
21304303 172 18187922923799264449
23559900 14 18336272219225585736
23569917 315 18189053115143547735
246663 6 18040433300303729222
249057 3 16343697707905980191
3004659 81 18131355193474443256
335352 9 18412549791047294647
3383291 50 18411981338777271459
4017518 198 17676204663034328494
4325135 7 18343300367340139460
4340502 62 14418131807697525317
437815 12 18333732411752788457
439807 62 18409448112133218474
444769 64 18186242814724507247
5283156 175 17988929994395661570
5470011 282 17775562040474310790
5937810 71 12750974251726463207
6138700 20 18412263939509549555
636775 8 18271798012782391450
9663363 56 18411144632198041424
9962374 69 18114473257571003606

> <PUBCHEM_SHAPE_MULTIPOLES>
545.22
26.82
2.36
0.8
19.78
1.03
-0.01
-13.06
-4.57
0.36
-0.08
0.23
-0.09
1.46

> <PUBCHEM_SHAPE_SELFOVERLAP>
1188.661

> <PUBCHEM_SHAPE_VOLUME>
293.1

> <PUBCHEM_COORDINATE_TYPE>
2
5
10

$$$$

