3033895
  -OEChem-07051213083D

 58 60  0     0  0  0  0  0  0999 V2000
   -3.1545    1.5243    0.9952 O   0  0  0  0  0  0  0  0  0  0  0  0
   -6.6372    1.5435   -1.2373 O   0  5  0  0  0  0  0  0  0  0  0  0
   -6.4889    0.5324   -0.3230 N   0  3  0  0  0  0  0  0  0  0  0  0
   -5.4522    0.9278    0.6891 C   0  0  0  0  0  0  0  0  0  0  0  0
   -4.1148    1.1498    0.0157 C   0  0  0  0  0  0  0  0  0  0  0  0
    2.1867    0.1998   -0.0696 C   0  0  0  0  0  0  0  0  0  0  0  0
    2.5644   -1.1113   -0.2409 C   0  0  0  0  0  0  0  0  0  0  0  0
   -6.0523   -0.7172   -1.0327 C   0  0  0  0  0  0  0  0  0  0  0  0
   -7.8015    0.2905    0.3657 C   0  0  0  0  0  0  0  0  0  0  0  0
    0.8007    0.5439    0.2061 C   0  0  0  0  0  0  0  0  0  0  0  0
    3.9781   -1.5583   -0.5829 C   0  0  0  0  0  0  0  0  0  0  0  0
    3.2321    1.2715   -0.1683 C   0  0  0  0  0  0  0  0  0  0  0  0
    1.5987   -2.2359   -0.1605 C   0  0  0  0  0  0  0  0  0  0  0  0
   -1.8486    1.2007    0.7351 C   0  0  0  0  0  0  0  0  0  0  0  0
    0.3485    0.6110    1.5241 C   0  0  0  0  0  0  0  0  0  0  0  0
   -0.0762    0.8063   -0.8463 C   0  0  0  0  0  0  0  0  0  0  0  0
   -0.9807    0.9406    1.7895 C   0  0  0  0  0  0  0  0  0  0  0  0
   -1.4053    1.1360   -0.5809 C   0  0  0  0  0  0  0  0  0  0  0  0
    4.8268   -1.8230    0.6551 C   0  0  0  0  0  0  0  0  0  0  0  0
    3.8976    1.6396    0.9744 C   0  0  0  0  0  0  0  0  0  0  0  0
    3.4745    1.8345   -1.3964 C   0  0  0  0  0  0  0  0  0  0  0  0
    0.9553   -2.6467   -1.3104 C   0  0  0  0  0  0  0  0  0  0  0  0
    1.3733   -2.8364    1.0617 C   0  0  0  0  0  0  0  0  0  0  0  0
    4.8693    2.6362    0.8829 C   0  0  0  0  0  0  0  0  0  0  0  0
    4.4463    2.8309   -1.4878 C   0  0  0  0  0  0  0  0  0  0  0  0
    0.0477   -3.7031   -1.2350 C   0  0  0  0  0  0  0  0  0  0  0  0
    0.4657   -3.8929    1.1370 C   0  0  0  0  0  0  0  0  0  0  0  0
    5.1437    3.2317   -0.3481 C   0  0  0  0  0  0  0  0  0  0  0  0
   -0.1971   -4.3262   -0.0114 C   0  0  0  0  0  0  0  0  0  0  0  0
   -5.3992    0.1344    1.4436 H   0  0  0  0  0  0  0  0  0  0  0  0
   -5.8070    1.8443    1.1751 H   0  0  0  0  0  0  0  0  0  0  0  0
   -3.7936    0.2220   -0.4675 H   0  0  0  0  0  0  0  0  0  0  0  0
   -4.1813    1.9445   -0.7360 H   0  0  0  0  0  0  0  0  0  0  0  0
   -6.9169   -1.0914   -1.5898 H   0  0  0  0  0  0  0  0  0  0  0  0
   -5.7318   -1.4491   -0.2871 H   0  0  0  0  0  0  0  0  0  0  0  0
   -5.2638   -0.4698   -1.7469 H   0  0  0  0  0  0  0  0  0  0  0  0
   -8.5404    0.0473   -0.4028 H   0  0  0  0  0  0  0  0  0  0  0  0
   -7.6690   -0.5363    1.0679 H   0  0  0  0  0  0  0  0  0  0  0  0
   -8.0787    1.2135    0.8822 H   0  0  0  0  0  0  0  0  0  0  0  0
    3.9504   -2.4688   -1.1959 H   0  0  0  0  0  0  0  0  0  0  0  0
    4.4849   -0.8184   -1.2116 H   0  0  0  0  0  0  0  0  0  0  0  0
    1.0182    0.4087    2.3566 H   0  0  0  0  0  0  0  0  0  0  0  0
    0.2614    0.7637   -1.8791 H   0  0  0  0  0  0  0  0  0  0  0  0
   -1.3291    0.9911    2.8170 H   0  0  0  0  0  0  0  0  0  0  0  0
   -2.0460    1.3605   -1.4279 H   0  0  0  0  0  0  0  0  0  0  0  0
    4.9068   -0.9456    1.3007 H   0  0  0  0  0  0  0  0  0  0  0  0
    5.8405   -2.1093    0.3559 H   0  0  0  0  0  0  0  0  0  0  0  0
    4.4151   -2.6442    1.2505 H   0  0  0  0  0  0  0  0  0  0  0  0
    3.6881    1.1848    1.9379 H   0  0  0  0  0  0  0  0  0  0  0  0
    2.9376    1.5277   -2.2889 H   0  0  0  0  0  0  0  0  0  0  0  0
    1.1391   -2.1689   -2.2688 H   0  0  0  0  0  0  0  0  0  0  0  0
    1.8817   -2.5060    1.9632 H   0  0  0  0  0  0  0  0  0  0  0  0
    5.4117    2.9488    1.7703 H   0  0  0  0  0  0  0  0  0  0  0  0
    4.6604    3.2944   -2.4463 H   0  0  0  0  0  0  0  0  0  0  0  0
   -0.4687   -4.0404   -2.1291 H   0  0  0  0  0  0  0  0  0  0  0  0
    0.2742   -4.3775    2.0899 H   0  0  0  0  0  0  0  0  0  0  0  0
    5.9004    4.0076   -0.4193 H   0  0  0  0  0  0  0  0  0  0  0  0
   -0.9041   -5.1485    0.0474 H   0  0  0  0  0  0  0  0  0  0  0  0
  1  5  1  0  0  0  0
  1 14  1  0  0  0  0
  2  3  1  0  0  0  0
  3  4  1  0  0  0  0
  3  8  1  0  0  0  0
  3  9  1  0  0  0  0
  4  5  1  0  0  0  0
  4 30  1  0  0  0  0
  4 31  1  0  0  0  0
  5 32  1  0  0  0  0
  5 33  1  0  0  0  0
  6  7  2  0  0  0  0
  6 10  1  0  0  0  0
  6 12  1  0  0  0  0
  7 11  1  0  0  0  0
  7 13  1  0  0  0  0
  8 34  1  0  0  0  0
  8 35  1  0  0  0  0
  8 36  1  0  0  0  0
  9 37  1  0  0  0  0
  9 38  1  0  0  0  0
  9 39  1  0  0  0  0
 10 15  2  0  0  0  0
 10 16  1  0  0  0  0
 11 19  1  0  0  0  0
 11 40  1  0  0  0  0
 11 41  1  0  0  0  0
 12 20  2  0  0  0  0
 12 21  1  0  0  0  0
 13 22  2  0  0  0  0
 13 23  1  0  0  0  0
 14 17  2  0  0  0  0
 14 18  1  0  0  0  0
 15 17  1  0  0  0  0
 15 42  1  0  0  0  0
 16 18  2  0  0  0  0
 16 43  1  0  0  0  0
 17 44  1  0  0  0  0
 18 45  1  0  0  0  0
 19 46  1  0  0  0  0
 19 47  1  0  0  0  0
 19 48  1  0  0  0  0
 20 24  1  0  0  0  0
 20 49  1  0  0  0  0
 21 25  2  0  0  0  0
 21 50  1  0  0  0  0
 22 26  1  0  0  0  0
 22 51  1  0  0  0  0
 23 27  2  0  0  0  0
 23 52  1  0  0  0  0
 24 28  2  0  0  0  0
 24 53  1  0  0  0  0
 25 28  1  0  0  0  0
 25 54  1  0  0  0  0
 26 29  2  0  0  0  0
 26 55  1  0  0  0  0
 27 29  1  0  0  0  0
 27 56  1  0  0  0  0
 28 57  1  0  0  0  0
 29 58  1  0  0  0  0
M  CHG  2   2  -1   3   1
M  END
> <PUBCHEM_COMPOUND_CID>
3033895

> <PUBCHEM_CONFORMER_RMSD>
1

> <PUBCHEM_CONFORMER_DIVERSEORDER>
1
5
6
14
3
4
10
7
13
8
9
11
12
2

> <PUBCHEM_MMFF94_PARTIAL_CHARGES>
42
1 -0.36
10 0.03
11 0.14
12 0.03
13 0.03
14 0.08
15 -0.15
16 -0.15
17 -0.15
18 -0.15
2 -0.75
20 -0.15
21 -0.15
22 -0.15
23 -0.15
24 -0.15
25 -0.15
26 -0.15
27 -0.15
28 -0.15
29 -0.15
3 -0.02
4 0.26
42 0.15
43 0.15
44 0.15
45 0.15
49 0.15
5 0.28
50 0.15
51 0.15
52 0.15
53 0.15
54 0.15
55 0.15
56 0.15
57 0.15
58 0.15
6 -0.06
7 -0.17
8 0.26
9 0.26

> <PUBCHEM_EFFECTIVE_ROTOR_COUNT>
8

> <PUBCHEM_PHARMACOPHORE_FEATURES>
6
1 1 acceptor
1 19 hydrophobe
1 2 anion
6 10 14 15 16 17 18 rings
6 12 20 21 24 25 28 rings
6 13 22 23 26 27 29 rings

> <PUBCHEM_HEAVY_ATOM_COUNT>
29

> <PUBCHEM_ATOM_DEF_STEREO_COUNT>
0

> <PUBCHEM_ATOM_UDEF_STEREO_COUNT>
0

> <PUBCHEM_BOND_DEF_STEREO_COUNT>
1

> <PUBCHEM_BOND_UDEF_STEREO_COUNT>
0

> <PUBCHEM_ISOTOPIC_ATOM_COUNT>
0

> <PUBCHEM_COMPONENT_COUNT>
1

> <PUBCHEM_CACTVS_TAUTO_COUNT>
1

> <PUBCHEM_CONFORMER_ID>
002E4B2700000001

> <PUBCHEM_MMFF94_ENERGY>
112.2633

> <PUBCHEM_FEATURE_SELFOVERLAP>
30.446

> <PUBCHEM_SHAPE_FINGERPRINT>
10090160 65 18410294709488620593
10165383 225 18339357466893259540
104564 63 17832980556295500034
10930396 42 18196951079370418418
1100329 8 18410011057712492890
11135609 127 18339652221529021877
11421498 54 17459187558905311043
11991303 11 18198616640735692054
12597179 24 18272083860209415515
12788726 201 17403163808750860172
12977781 61 17488723649847695451
13140716 1 18411133658619994738
13150687 139 18335971000964301324
1361 2 18341609296043319285
13692114 37 18187936032334473878
14068700 686 18413103992179396197
15250474 111 18188213229871280547
15324884 4 17771307999552000080
15537594 2 17894916214007767589
16993438 75 18198618823096933211
17138139 8 17823996553948115735
18365409 1 18121495753013562295
18681886 176 18261958573957606314
19319366 153 18261683635636290055
20028762 73 18187930646134540822
21049683 118 18119834446683544448
21197605 99 18410288078476230363
21521721 280 18334851685068412529
22149856 69 18199166504783995569
23516275 137 17096900578525980191
23522609 53 17750490980749359529
23559900 14 18120660390184882017
239999 70 18187925152675709743
27425 322 17345754071035448824
283562 15 17690279310303073114
3178227 256 18341336699064618346
4073 2 18413101759291449809
4340502 62 18335144176082264472
484989 97 18335972091417099802
7399639 24 18200886161458262421

> <PUBCHEM_SHAPE_MULTIPOLES>
580.09
14.26
4.83
1.43
30.01
5.39
0.05
-11.84
-2.06
-4.97
-0.34
-0.2
-0.1
-0.79

> <PUBCHEM_SHAPE_SELFOVERLAP>
1238.69

> <PUBCHEM_SHAPE_VOLUME>
324

> <PUBCHEM_COORDINATE_TYPE>
2
5
10

$$$$

