9576097
  -OEChem-07051213133D

 38 38  0     0  0  0  0  0  0999 V2000
   -1.7096   -2.5647    0.6405 S   0  0  0  0  0  0  0  0  0  0  0  0
    0.7346    1.8213    0.4860 O   0  0  0  0  0  0  0  0  0  0  0  0
   -0.3912   -0.2198    0.5526 N   0  0  0  0  0  0  0  0  0  0  0  0
    1.9701   -1.4265   -0.1484 N   0  0  0  0  0  0  0  0  0  0  0  0
   -1.5746    0.3465    0.9005 N   0  0  0  0  0  0  0  0  0  0  0  0
    0.8176   -2.1852    0.0579 N   0  0  0  0  0  0  0  0  0  0  0  0
    3.1785    0.6730   -0.2329 C   0  0  0  0  0  0  0  0  0  0  0  0
    1.9321   -0.1410   -0.0086 C   0  0  0  0  0  0  0  0  0  0  0  0
    3.5236    1.4279    1.0574 C   0  0  0  0  0  0  0  0  0  0  0  0
    2.9398    1.6767   -1.3700 C   0  0  0  0  0  0  0  0  0  0  0  0
    4.3393   -0.2575   -0.6125 C   0  0  0  0  0  0  0  0  0  0  0  0
    0.6880    0.6064    0.3722 C   0  0  0  0  0  0  0  0  0  0  0  0
   -3.6544    1.3198    0.0935 C   0  0  0  0  0  0  0  0  0  0  0  0
   -0.2769   -1.5817    0.3871 C   0  0  0  0  0  0  0  0  0  0  0  0
   -2.3029    0.6775   -0.1137 C   0  0  0  0  0  0  0  0  0  0  0  0
   -3.6533    2.7023   -0.5462 C   0  0  0  0  0  0  0  0  0  0  0  0
   -4.7292    0.4285   -0.5153 C   0  0  0  0  0  0  0  0  0  0  0  0
   -1.8316   -3.3034   -1.0001 C   0  0  0  0  0  0  0  0  0  0  0  0
    3.4875    0.7610    1.9269 H   0  0  0  0  0  0  0  0  0  0  0  0
    4.5388    1.8395    1.0025 H   0  0  0  0  0  0  0  0  0  0  0  0
    2.8656    2.2756    1.2656 H   0  0  0  0  0  0  0  0  0  0  0  0
    3.8865    2.1270   -1.6919 H   0  0  0  0  0  0  0  0  0  0  0  0
    2.2856    2.5085   -1.0966 H   0  0  0  0  0  0  0  0  0  0  0  0
    2.4966    1.1836   -2.2431 H   0  0  0  0  0  0  0  0  0  0  0  0
    4.1295   -0.8121   -1.5349 H   0  0  0  0  0  0  0  0  0  0  0  0
    4.5492   -0.9871    0.1787 H   0  0  0  0  0  0  0  0  0  0  0  0
    5.2612    0.3119   -0.7798 H   0  0  0  0  0  0  0  0  0  0  0  0
   -3.8374    1.4210    1.1697 H   0  0  0  0  0  0  0  0  0  0  0  0
   -1.9775    0.5110   -1.1581 H   0  0  0  0  0  0  0  0  0  0  0  0
   -4.6145    3.2038   -0.3940 H   0  0  0  0  0  0  0  0  0  0  0  0
   -2.8692    3.3308   -0.1098 H   0  0  0  0  0  0  0  0  0  0  0  0
   -3.4647    2.6449   -1.6241 H   0  0  0  0  0  0  0  0  0  0  0  0
   -4.5728    0.2897   -1.5910 H   0  0  0  0  0  0  0  0  0  0  0  0
   -4.7178   -0.5644   -0.0524 H   0  0  0  0  0  0  0  0  0  0  0  0
   -5.7244    0.8602   -0.3676 H   0  0  0  0  0  0  0  0  0  0  0  0
   -1.8825   -2.5252   -1.7667 H   0  0  0  0  0  0  0  0  0  0  0  0
   -2.7409   -3.9075   -1.0577 H   0  0  0  0  0  0  0  0  0  0  0  0
   -0.9733   -3.9509   -1.1986 H   0  0  0  0  0  0  0  0  0  0  0  0
  1 14  1  0  0  0  0
  1 18  1  0  0  0  0
  2 12  2  0  0  0  0
  3  5  1  0  0  0  0
  3 12  1  0  0  0  0
  3 14  1  0  0  0  0
  4  6  1  0  0  0  0
  4  8  2  0  0  0  0
  5 15  2  0  0  0  0
  6 14  2  0  0  0  0
  7  8  1  0  0  0  0
  7  9  1  0  0  0  0
  7 10  1  0  0  0  0
  7 11  1  0  0  0  0
  8 12  1  0  0  0  0
  9 19  1  0  0  0  0
  9 20  1  0  0  0  0
  9 21  1  0  0  0  0
 10 22  1  0  0  0  0
 10 23  1  0  0  0  0
 10 24  1  0  0  0  0
 11 25  1  0  0  0  0
 11 26  1  0  0  0  0
 11 27  1  0  0  0  0
 13 15  1  0  0  0  0
 13 16  1  0  0  0  0
 13 17  1  0  0  0  0
 13 28  1  0  0  0  0
 15 29  1  0  0  0  0
 16 30  1  0  0  0  0
 16 31  1  0  0  0  0
 16 32  1  0  0  0  0
 17 33  1  0  0  0  0
 17 34  1  0  0  0  0
 17 35  1  0  0  0  0
 18 36  1  0  0  0  0
 18 37  1  0  0  0  0
 18 38  1  0  0  0  0
M  END
> <PUBCHEM_COMPOUND_CID>
9576097

> <PUBCHEM_CONFORMER_RMSD>
0.6

> <PUBCHEM_CONFORMER_DIVERSEORDER>
1
18
14
9
3
11
17
12
23
4
7
10
6
16
13
5
2
20
24
22
15
21
8
19

> <PUBCHEM_MMFF94_PARTIAL_CHARGES>
14
1 -0.37
12 0.63
13 0.06
14 0.65
15 0.33
18 0.23
2 -0.57
29 0.06
3 -0.06
4 -0.45
5 -0.51
6 -0.45
7 0.06
8 0.39

> <PUBCHEM_EFFECTIVE_ROTOR_COUNT>
4

> <PUBCHEM_PHARMACOPHORE_FEATURES>
7
1 18 hydrophobe
1 2 acceptor
1 4 acceptor
1 5 acceptor
3 13 16 17 hydrophobe
4 7 9 10 11 hydrophobe
6 3 4 6 8 12 14 rings

> <PUBCHEM_HEAVY_ATOM_COUNT>
18

> <PUBCHEM_ATOM_DEF_STEREO_COUNT>
0

> <PUBCHEM_ATOM_UDEF_STEREO_COUNT>
0

> <PUBCHEM_BOND_DEF_STEREO_COUNT>
1

> <PUBCHEM_BOND_UDEF_STEREO_COUNT>
0

> <PUBCHEM_ISOTOPIC_ATOM_COUNT>
0

> <PUBCHEM_COMPONENT_COUNT>
1

> <PUBCHEM_CACTVS_TAUTO_COUNT>
1

> <PUBCHEM_CONFORMER_ID>
00921EA100000001

> <PUBCHEM_MMFF94_ENERGY>
62.1372

> <PUBCHEM_FEATURE_SELFOVERLAP>
35.525

> <PUBCHEM_SHAPE_FINGERPRINT>
11206711 2 18120928413139294598
11578080 2 16735528352094458307
12173636 292 18410018749550222045
12500047 106 18410292510544064072
12730499 353 18198056092307539233
13380535 76 18411418423045911771
14115302 16 18411128135207772876
14415576 193 18197497539888796085
14897335 6 18411420617700243043
16752209 62 18266181621657118810
16945 1 17833824976688000274
18186145 218 18264198278700163537
20602899 9 16732979825759344391
20645477 56 18338516339642929440
20645477 70 18122349249077808733
21069387 34 16661473160308763390
21524375 3 18343021120617953603
22182313 1 18263903532164095806
22620623 9 17969776376552789087
2334 1 18265042553623074834
23402539 116 18335990856055064220
23402655 69 18264211481767423581
23419403 2 16662906704111722219
23493267 7 17703213088301938008
23526113 38 17604152523598896064
23557571 272 18117274762107414008
23558518 356 17841433626736816592
23559900 14 18259981566557473320
238 59 17696789848888954797
25 1 18339643459436223121
2748010 2 18263346045756935770
298252 57 18341894116899345507
3060560 45 18195529430938428887
474 4 18130218376156580917
4990 188 17968092061972053220
69090 78 18412265042904551611
7164475 11 18122906430283847534
81228 2 17907303152549300163
8272917 22 17975974586103061925
84936 182 18117566347089422041

> <PUBCHEM_SHAPE_MULTIPOLES>
348.49
7.76
3.21
1
0.83
1.83
-0.09
-4.53
-1.55
2.74
-0.55
-0.33
-0.05
0.14

> <PUBCHEM_SHAPE_SELFOVERLAP>
689.593

> <PUBCHEM_SHAPE_VOLUME>
211.7

> <PUBCHEM_COORDINATE_TYPE>
2
5
10

$$$$

