14027
  -OEChem-06241222412D

 56 55  0     0  0  0  0  0  0999 V2000
    3.7320   -0.2500    0.0000 N   0  3  0  0  0  0  0  0  0  0  0  0
    8.0622    0.2500    0.0000 N   0  3  0  0  0  0  0  0  0  0  0  0
    4.5981    0.2500    0.0000 C   0  0  0  0  0  0  0  0  0  0  0  0
    7.1962   -0.2500    0.0000 C   0  0  0  0  0  0  0  0  0  0  0  0
    5.4641   -0.2500    0.0000 C   0  0  0  0  0  0  0  0  0  0  0  0
    6.3301    0.2500    0.0000 C   0  0  0  0  0  0  0  0  0  0  0  0
    2.8660   -0.7500    0.0000 C   0  0  0  0  0  0  0  0  0  0  0  0
    3.2320    0.6160    0.0000 C   0  0  0  0  0  0  0  0  0  0  0  0
    4.2320   -1.1160    0.0000 C   0  0  0  0  0  0  0  0  0  0  0  0
    8.9282    0.7500    0.0000 C   0  0  0  0  0  0  0  0  0  0  0  0
    8.5622   -0.6160    0.0000 C   0  0  0  0  0  0  0  0  0  0  0  0
    7.5622    1.1160    0.0000 C   0  0  0  0  0  0  0  0  0  0  0  0
    2.0000   -0.2500    0.0000 C   0  0  0  0  0  0  0  0  0  0  0  0
    3.7320    1.4820    0.0000 C   0  0  0  0  0  0  0  0  0  0  0  0
    3.7320   -1.9820    0.0000 C   0  0  0  0  0  0  0  0  0  0  0  0
    9.7942    0.2500    0.0000 C   0  0  0  0  0  0  0  0  0  0  0  0
    8.0622   -1.4820    0.0000 C   0  0  0  0  0  0  0  0  0  0  0  0
    8.0622    1.9820    0.0000 C   0  0  0  0  0  0  0  0  0  0  0  0
    4.9966    0.7249    0.0000 H   0  0  0  0  0  0  0  0  0  0  0  0
    4.1996    0.7249    0.0000 H   0  0  0  0  0  0  0  0  0  0  0  0
    6.7976   -0.7249    0.0000 H   0  0  0  0  0  0  0  0  0  0  0  0
    7.5947   -0.7249    0.0000 H   0  0  0  0  0  0  0  0  0  0  0  0
    6.7287    0.7249    0.0000 H   0  0  0  0  0  0  0  0  0  0  0  0
    5.9316    0.7249    0.0000 H   0  0  0  0  0  0  0  0  0  0  0  0
    5.0656   -0.7249    0.0000 H   0  0  0  0  0  0  0  0  0  0  0  0
    5.8626   -0.7249    0.0000 H   0  0  0  0  0  0  0  0  0  0  0  0
    7.0872    1.5146    0.0000 H   0  0  0  0  0  0  0  0  0  0  0  0
    7.0872    0.7175    0.0000 H   0  0  0  0  0  0  0  0  0  0  0  0
    9.0371   -1.0146    0.0000 H   0  0  0  0  0  0  0  0  0  0  0  0
    9.0371   -0.2175    0.0000 H   0  0  0  0  0  0  0  0  0  0  0  0
    9.3267    1.2250    0.0000 H   0  0  0  0  0  0  0  0  0  0  0  0
    8.5297    1.2250    0.0000 H   0  0  0  0  0  0  0  0  0  0  0  0
    4.7070   -1.5146    0.0000 H   0  0  0  0  0  0  0  0  0  0  0  0
    4.7070   -0.7175    0.0000 H   0  0  0  0  0  0  0  0  0  0  0  0
    2.7571    1.0146    0.0000 H   0  0  0  0  0  0  0  0  0  0  0  0
    2.7571    0.2175    0.0000 H   0  0  0  0  0  0  0  0  0  0  0  0
    2.4675   -1.2250    0.0000 H   0  0  0  0  0  0  0  0  0  0  0  0
    3.2646   -1.2250    0.0000 H   0  0  0  0  0  0  0  0  0  0  0  0
    3.1951   -1.6720    0.0000 H   0  0  0  0  0  0  0  0  0  0  0  0
    3.4220   -2.5190    0.0000 H   0  0  0  0  0  0  0  0  0  0  0  0
    4.2690   -2.2920    0.0000 H   0  0  0  0  0  0  0  0  0  0  0  0
    4.2690    1.1720    0.0000 H   0  0  0  0  0  0  0  0  0  0  0  0
    4.0420    2.0190    0.0000 H   0  0  0  0  0  0  0  0  0  0  0  0
    3.1951    1.7920    0.0000 H   0  0  0  0  0  0  0  0  0  0  0  0
    2.3100    0.2869    0.0000 H   0  0  0  0  0  0  0  0  0  0  0  0
    1.4631    0.0600    0.0000 H   0  0  0  0  0  0  0  0  0  0  0  0
    1.6900   -0.7869    0.0000 H   0  0  0  0  0  0  0  0  0  0  0  0
    9.4842   -0.2869    0.0000 H   0  0  0  0  0  0  0  0  0  0  0  0
   10.3312   -0.0600    0.0000 H   0  0  0  0  0  0  0  0  0  0  0  0
   10.1042    0.7869    0.0000 H   0  0  0  0  0  0  0  0  0  0  0  0
    7.5252   -1.1720    0.0000 H   0  0  0  0  0  0  0  0  0  0  0  0
    7.7522   -2.0190    0.0000 H   0  0  0  0  0  0  0  0  0  0  0  0
    8.5991   -1.7920    0.0000 H   0  0  0  0  0  0  0  0  0  0  0  0
    8.5991    1.6720    0.0000 H   0  0  0  0  0  0  0  0  0  0  0  0
    8.3722    2.5190    0.0000 H   0  0  0  0  0  0  0  0  0  0  0  0
    7.5252    2.2920    0.0000 H   0  0  0  0  0  0  0  0  0  0  0  0
  1  3  1  0  0  0  0
  1  7  1  0  0  0  0
  1  8  1  0  0  0  0
  1  9  1  0  0  0  0
  2  4  1  0  0  0  0
  2 10  1  0  0  0  0
  2 11  1  0  0  0  0
  2 12  1  0  0  0  0
  3  5  1  0  0  0  0
  3 19  1  0  0  0  0
  3 20  1  0  0  0  0
  4  6  1  0  0  0  0
  4 21  1  0  0  0  0
  4 22  1  0  0  0  0
  5  6  1  0  0  0  0
  5 25  1  0  0  0  0
  5 26  1  0  0  0  0
  6 23  1  0  0  0  0
  6 24  1  0  0  0  0
  7 13  1  0  0  0  0
  7 37  1  0  0  0  0
  7 38  1  0  0  0  0
  8 14  1  0  0  0  0
  8 35  1  0  0  0  0
  8 36  1  0  0  0  0
  9 15  1  0  0  0  0
  9 33  1  0  0  0  0
  9 34  1  0  0  0  0
 10 16  1  0  0  0  0
 10 31  1  0  0  0  0
 10 32  1  0  0  0  0
 11 17  1  0  0  0  0
 11 29  1  0  0  0  0
 11 30  1  0  0  0  0
 12 18  1  0  0  0  0
 12 27  1  0  0  0  0
 12 28  1  0  0  0  0
 13 45  1  0  0  0  0
 13 46  1  0  0  0  0
 13 47  1  0  0  0  0
 14 42  1  0  0  0  0
 14 43  1  0  0  0  0
 14 44  1  0  0  0  0
 15 39  1  0  0  0  0
 15 40  1  0  0  0  0
 15 41  1  0  0  0  0
 16 48  1  0  0  0  0
 16 49  1  0  0  0  0
 16 50  1  0  0  0  0
 17 51  1  0  0  0  0
 17 52  1  0  0  0  0
 17 53  1  0  0  0  0
 18 54  1  0  0  0  0
 18 55  1  0  0  0  0
 18 56  1  0  0  0  0
M  CHG  2   1   1   2   1
M  END
> <PUBCHEM_COMPOUND_CID>
14027

> <PUBCHEM_COMPOUND_CANONICALIZED>
1

> <PUBCHEM_CACTVS_COMPLEXITY>
155

> <PUBCHEM_CACTVS_HBOND_ACCEPTOR>
0

> <PUBCHEM_CACTVS_HBOND_DONOR>
0

> <PUBCHEM_CACTVS_ROTATABLE_BOND>
11

> <PUBCHEM_CACTVS_SUBSKEYS>
AAADcfB7AAAAAAAAAAAAAAAAAAAAAAAAAAAAAAAAAAAAAAAAAAAAHAAAAAAACADBAAQCAAMAAAAAAAAAAAAAAAAAAAAAAAAIAAAAAAAAgAAEAAAAAACAAAAAAAAAAAAAAAAAAAAAAAAAAAAAAAAAAAAAAA==

> <PUBCHEM_IUPAC_OPENEYE_NAME>
triethyl-[4-(triethylammonio)butyl]ammonium

> <PUBCHEM_IUPAC_CAS_NAME>
triethyl-[4-(triethylammonio)butyl]ammonium

> <PUBCHEM_IUPAC_NAME>
triethyl-[4-(triethylazaniumyl)butyl]azanium

> <PUBCHEM_IUPAC_SYSTEMATIC_NAME>
triethyl-[4-(triethylazaniumyl)butyl]azanium

> <PUBCHEM_IUPAC_TRADITIONAL_NAME>
triethyl-[4-(triethylammonio)butyl]ammonium

> <PUBCHEM_IUPAC_INCHI>
InChI=1S/C16H38N2/c1-7-17(8-2,9-3)15-13-14-16-18(10-4,11-5)12-6/h7-16H2,1-6H3/q+2

> <PUBCHEM_IUPAC_INCHIKEY>
YUDFVGXOXFMORI-UHFFFAOYSA-N

> <PUBCHEM_XLOGP3_AA>
3.2

> <PUBCHEM_EXACT_MASS>
258.303499

> <PUBCHEM_MOLECULAR_FORMULA>
C16H38N2+2

> <PUBCHEM_MOLECULAR_WEIGHT>
258.48632

> <PUBCHEM_OPENEYE_CAN_SMILES>
CC[N+](CC)(CC)CCCC[N+](CC)(CC)CC

> <PUBCHEM_OPENEYE_ISO_SMILES>
CC[N+](CC)(CC)CCCC[N+](CC)(CC)CC

> <PUBCHEM_CACTVS_TPSA>
0

> <PUBCHEM_MONOISOTOPIC_WEIGHT>
258.303499

> <PUBCHEM_TOTAL_CHARGE>
2

> <PUBCHEM_HEAVY_ATOM_COUNT>
18

> <PUBCHEM_ATOM_DEF_STEREO_COUNT>
0

> <PUBCHEM_ATOM_UDEF_STEREO_COUNT>
0

> <PUBCHEM_BOND_DEF_STEREO_COUNT>
0

> <PUBCHEM_BOND_UDEF_STEREO_COUNT>
0

> <PUBCHEM_ISOTOPIC_ATOM_COUNT>
0

> <PUBCHEM_COMPONENT_COUNT>
1

> <PUBCHEM_CACTVS_TAUTO_COUNT>
1

> <PUBCHEM_COORDINATE_TYPE>
1
5
255

$$$$

