10384
  -OEChem-06261204313D

 39 39  0     0  0  0  0  0  0999 V2000
    5.4593   -1.2669    0.1454 O   0  0  0  0  0  0  0  0  0  0  0  0
   -1.9304   -1.5560    0.5195 O   0  0  0  0  0  0  0  0  0  0  0  0
    5.9011    1.4299   -0.3616 O   0  0  0  0  0  0  0  0  0  0  0  0
   -2.7179    0.5858    0.9682 N   0  0  0  0  0  0  0  0  0  0  0  0
   -8.5945   -0.2321   -1.0488 N   0  0  0  0  0  0  0  0  0  0  0  0
   -4.8935    0.3243   -0.1617 C   0  0  0  0  0  0  0  0  0  0  0  0
   -6.3773   -0.0113    0.0331 C   0  0  0  0  0  0  0  0  0  0  0  0
   -4.1051    0.2535    1.1431 C   0  0  0  0  0  0  0  0  0  0  0  0
   -7.1924    0.1090   -1.2564 C   0  0  0  0  0  0  0  0  0  0  0  0
   -1.7389   -0.3536    0.6688 C   0  0  0  0  0  0  0  0  0  0  0  0
    2.0478    0.0040    0.0841 C   0  0  0  0  0  0  0  0  0  0  0  0
   -0.3884    0.2649    0.5422 C   0  0  0  0  0  0  0  0  0  0  0  0
    0.6720   -0.4996    0.2428 C   0  0  0  0  0  0  0  0  0  0  0  0
    3.1102   -0.8788    0.1910 C   0  0  0  0  0  0  0  0  0  0  0  0
    4.4124   -0.4015    0.0417 C   0  0  0  0  0  0  0  0  0  0  0  0
    2.2518    1.3510   -0.1678 C   0  0  0  0  0  0  0  0  0  0  0  0
    4.6341    0.9521   -0.2124 C   0  0  0  0  0  0  0  0  0  0  0  0
    3.5539    1.8283   -0.3170 C   0  0  0  0  0  0  0  0  0  0  0  0
    5.8957   -1.9030   -1.0542 C   0  0  0  0  0  0  0  0  0  0  0  0
   -4.7993    1.3310   -0.5880 H   0  0  0  0  0  0  0  0  0  0  0  0
   -4.4567   -0.3653   -0.8948 H   0  0  0  0  0  0  0  0  0  0  0  0
   -6.4627   -1.0320    0.4272 H   0  0  0  0  0  0  0  0  0  0  0  0
   -6.8007    0.6585    0.7924 H   0  0  0  0  0  0  0  0  0  0  0  0
   -4.5152    0.9608    1.8719 H   0  0  0  0  0  0  0  0  0  0  0  0
   -4.1784   -0.7519    1.5726 H   0  0  0  0  0  0  0  0  0  0  0  0
   -7.1305    1.1339   -1.6380 H   0  0  0  0  0  0  0  0  0  0  0  0
   -6.7729   -0.5524   -2.0226 H   0  0  0  0  0  0  0  0  0  0  0  0
   -2.4608    1.5639    1.0640 H   0  0  0  0  0  0  0  0  0  0  0  0
   -9.0868   -0.1975   -1.9404 H   0  0  0  0  0  0  0  0  0  0  0  0
   -8.6680   -1.1934   -0.7183 H   0  0  0  0  0  0  0  0  0  0  0  0
   -0.3168    1.3320    0.7175 H   0  0  0  0  0  0  0  0  0  0  0  0
    0.5516   -1.5712    0.1011 H   0  0  0  0  0  0  0  0  0  0  0  0
    2.9460   -1.9349    0.3909 H   0  0  0  0  0  0  0  0  0  0  0  0
    1.4418    2.0646   -0.2795 H   0  0  0  0  0  0  0  0  0  0  0  0
    3.7128    2.8841   -0.5197 H   0  0  0  0  0  0  0  0  0  0  0  0
    5.8607    2.3866   -0.5324 H   0  0  0  0  0  0  0  0  0  0  0  0
    6.2272   -1.1600   -1.7863 H   0  0  0  0  0  0  0  0  0  0  0  0
    5.0929   -2.5153   -1.4772 H   0  0  0  0  0  0  0  0  0  0  0  0
    6.7398   -2.5536   -0.8094 H   0  0  0  0  0  0  0  0  0  0  0  0
  1 15  1  0  0  0  0
  1 19  1  0  0  0  0
  2 10  2  0  0  0  0
  3 17  1  0  0  0  0
  3 36  1  0  0  0  0
  4  8  1  0  0  0  0
  4 10  1  0  0  0  0
  4 28  1  0  0  0  0
  5  9  1  0  0  0  0
  5 29  1  0  0  0  0
  5 30  1  0  0  0  0
  6  7  1  0  0  0  0
  6  8  1  0  0  0  0
  6 20  1  0  0  0  0
  6 21  1  0  0  0  0
  7  9  1  0  0  0  0
  7 22  1  0  0  0  0
  7 23  1  0  0  0  0
  8 24  1  0  0  0  0
  8 25  1  0  0  0  0
  9 26  1  0  0  0  0
  9 27  1  0  0  0  0
 10 12  1  0  0  0  0
 11 13  1  0  0  0  0
 11 14  2  0  0  0  0
 11 16  1  0  0  0  0
 12 13  2  0  0  0  0
 12 31  1  0  0  0  0
 13 32  1  0  0  0  0
 14 15  1  0  0  0  0
 14 33  1  0  0  0  0
 15 17  2  0  0  0  0
 16 18  2  0  0  0  0
 16 34  1  0  0  0  0
 17 18  1  0  0  0  0
 18 35  1  0  0  0  0
 19 37  1  0  0  0  0
 19 38  1  0  0  0  0
 19 39  1  0  0  0  0
M  END
> <PUBCHEM_COMPOUND_CID>
10384

> <PUBCHEM_CONFORMER_RMSD>
0.8

> <PUBCHEM_CONFORMER_DIVERSEORDER>
4
106
42
1
92
46
72
99
7
80
33
89
20
93
23
97
5
32
118
127
35
44
2
40
18
104
13
31
116
39
122
43
90
119
51
15
128
83
100
6
120
34
124
81
101
109
60
102
8
107
11
78
86
48
19
117
96
111
115
94
10
84
71
58
121
76
41
91
27
103
21
113
77
68
29
25
16
129
53
38
79
105
47
3
30
54
67
110
26
57
24
88
130
49
17
112
14
36
22
98
125
123
65
75
28
45
87
62
95
55
132
59
69
9
64
12
114
70
61
82
85
73
108
50
37
52
131
56
66
74
63
126

> <PUBCHEM_MMFF94_PARTIAL_CHARGES>
26
1 -0.36
10 0.62
11 0.03
12 -0.14
13 -0.18
14 -0.15
15 0.08
16 -0.15
17 0.08
18 -0.15
19 0.28
2 -0.57
28 0.37
29 0.36
3 -0.53
30 0.36
31 0.15
32 0.15
33 0.15
34 0.15
35 0.15
36 0.45
4 -0.73
5 -0.99
8 0.3
9 0.27

> <PUBCHEM_EFFECTIVE_ROTOR_COUNT>
8

> <PUBCHEM_PHARMACOPHORE_FEATURES>
7
1 1 acceptor
1 2 acceptor
1 3 donor
1 4 donor
1 5 cation
1 5 donor
6 11 14 15 16 17 18 rings

> <PUBCHEM_HEAVY_ATOM_COUNT>
19

> <PUBCHEM_ATOM_DEF_STEREO_COUNT>
0

> <PUBCHEM_ATOM_UDEF_STEREO_COUNT>
0

> <PUBCHEM_BOND_DEF_STEREO_COUNT>
0

> <PUBCHEM_BOND_UDEF_STEREO_COUNT>
1

> <PUBCHEM_ISOTOPIC_ATOM_COUNT>
0

> <PUBCHEM_COMPONENT_COUNT>
1

> <PUBCHEM_CACTVS_TAUTO_COUNT>
6

> <PUBCHEM_CONFORMER_ID>
0000289000000004

> <PUBCHEM_MMFF94_ENERGY>
41.8469

> <PUBCHEM_FEATURE_SELFOVERLAP>
35.52

> <PUBCHEM_SHAPE_FINGERPRINT>
10066227 49 18187363281165697015
106641 1 15502386629786480818
12166972 35 18113335310408120265
12236239 1 17967811669548530185
13533116 47 18113334241298457442
13668630 136 18186802504428297255
13885169 127 5473148423732409891
14123256 10 18040999523496957773
14251757 52 15051724279465324814
15183329 4 18343303699665022971
15716309 27 8142085369235773921
16120349 18 18260551105106933936
17834072 8 18131910476858285826
20157964 124 18413670205605582369
20281389 69 14979964674790600693
20645477 70 18409160048360028190
21150785 3 16805322158795854368
21521239 73 18260830418660273951
221357 26 18343303686337587588
2215653 11 18271800246391894338
23035841 295 16950003621994611655
23081809 10 17749380486235183025
23402539 116 17968093166206039681
23559900 14 18263084336267058265
29717793 49 18187359956612251566
300161 21 18340205198583322632
3014965 18 17988084494848291594
335352 9 18412539934372027134
34797466 226 14779547851158242200
4325135 7 18113620093252771397
4463277 17 9727634995009503251
5283156 175 17748827441030175263

> <PUBCHEM_SHAPE_MULTIPOLES>
363.44
20.67
1.49
0.98
32.68
0.02
-0.08
1.93
-8.27
-3.07
-0.23
1.13
0.08
0.05

> <PUBCHEM_SHAPE_SELFOVERLAP>
732.736

> <PUBCHEM_SHAPE_VOLUME>
212.9

> <PUBCHEM_COORDINATE_TYPE>
2
5
10

$$$$

