11471955
  -OEChem-07051213103D

 36 38  0     1  0  0  0  0  0999 V2000
   -2.9640   -2.7484   -0.1063 Br  0  0  0  0  0  0  0  0  0  0  0  0
   -0.4554    2.7522    0.0771 O   0  0  0  0  0  0  0  0  0  0  0  0
    1.9659   -0.8918    0.2783 C   0  0  2  0  0  0  0  0  0  0  0  0
    3.2404   -0.7961   -0.4947 C   0  0  1  0  0  0  0  0  0  0  0  0
    2.1418   -1.6996   -0.9851 C   0  0  0  0  0  0  0  0  0  0  0  0
    1.2860    0.4758    0.2901 C   0  0  2  0  0  0  0  0  0  0  0  0
    3.3951    0.6102   -0.9852 C   0  0  0  0  0  0  0  0  0  0  0  0
    1.9873    1.2163   -0.8936 C   0  0  0  0  0  0  0  0  0  0  0  0
    1.9497   -1.6737    1.5507 C   0  0  0  0  0  0  0  0  0  0  0  0
    1.5986    1.1960    1.6160 C   0  0  0  0  0  0  0  0  0  0  0  0
   -0.2296    0.3668    0.1344 C   0  0  0  0  0  0  0  0  0  0  0  0
   -1.0183    1.5122    0.0359 C   0  0  0  0  0  0  0  0  0  0  0  0
   -0.8208   -0.8951    0.0911 C   0  0  0  0  0  0  0  0  0  0  0  0
   -2.4009    1.3957   -0.1059 C   0  0  0  0  0  0  0  0  0  0  0  0
   -2.2037   -1.0118   -0.0508 C   0  0  0  0  0  0  0  0  0  0  0  0
   -2.9936    0.1337   -0.1492 C   0  0  0  0  0  0  0  0  0  0  0  0
   -4.4785    0.0576   -0.3028 C   0  0  0  0  0  0  0  0  0  0  0  0
    4.1487   -1.2373   -0.1119 H   0  0  0  0  0  0  0  0  0  0  0  0
    1.5975   -1.4137   -1.8773 H   0  0  0  0  0  0  0  0  0  0  0  0
    2.3091   -2.7683   -0.9138 H   0  0  0  0  0  0  0  0  0  0  0  0
    3.7818    0.6455   -2.0079 H   0  0  0  0  0  0  0  0  0  0  0  0
    4.0877    1.1542   -0.3335 H   0  0  0  0  0  0  0  0  0  0  0  0
    2.0930    2.2985   -0.7845 H   0  0  0  0  0  0  0  0  0  0  0  0
    1.4526    1.0297   -1.8343 H   0  0  0  0  0  0  0  0  0  0  0  0
    2.1832   -2.7319    1.3873 H   0  0  0  0  0  0  0  0  0  0  0  0
    2.7038   -1.2907    2.2475 H   0  0  0  0  0  0  0  0  0  0  0  0
    0.9834   -1.6372    2.0622 H   0  0  0  0  0  0  0  0  0  0  0  0
    2.6681    1.1375    1.8537 H   0  0  0  0  0  0  0  0  0  0  0  0
    1.3523    2.2605    1.6205 H   0  0  0  0  0  0  0  0  0  0  0  0
    1.0585    0.7476    2.4589 H   0  0  0  0  0  0  0  0  0  0  0  0
   -0.2575   -1.8176    0.1509 H   0  0  0  0  0  0  0  0  0  0  0  0
   -3.0059    2.2961   -0.1817 H   0  0  0  0  0  0  0  0  0  0  0  0
    0.4875    2.7480   -0.1001 H   0  0  0  0  0  0  0  0  0  0  0  0
   -4.7455   -0.4710   -1.2237 H   0  0  0  0  0  0  0  0  0  0  0  0
   -4.9311   -0.4477    0.5568 H   0  0  0  0  0  0  0  0  0  0  0  0
   -4.9332    1.0529   -0.3631 H   0  0  0  0  0  0  0  0  0  0  0  0
  1 15  1  0  0  0  0
  2 12  1  0  0  0  0
  2 33  1  0  0  0  0
  3  4  1  0  0  0  0
  3  5  1  0  0  0  0
  3  6  1  0  0  0  0
  3  9  1  0  0  0  0
  4  5  1  0  0  0  0
  4  7  1  0  0  0  0
  4 18  1  0  0  0  0
  5 19  1  0  0  0  0
  5 20  1  0  0  0  0
  6  8  1  0  0  0  0
  6 10  1  0  0  0  0
  6 11  1  0  0  0  0
  7  8  1  0  0  0  0
  7 21  1  0  0  0  0
  7 22  1  0  0  0  0
  8 23  1  0  0  0  0
  8 24  1  0  0  0  0
  9 25  1  0  0  0  0
  9 26  1  0  0  0  0
  9 27  1  0  0  0  0
 10 28  1  0  0  0  0
 10 29  1  0  0  0  0
 10 30  1  0  0  0  0
 11 12  2  0  0  0  0
 11 13  1  0  0  0  0
 12 14  1  0  0  0  0
 13 15  2  0  0  0  0
 13 31  1  0  0  0  0
 14 16  2  0  0  0  0
 14 32  1  0  0  0  0
 15 16  1  0  0  0  0
 16 17  1  0  0  0  0
 17 34  1  0  0  0  0
 17 35  1  0  0  0  0
 17 36  1  0  0  0  0
M  END
> <PUBCHEM_COMPOUND_CID>
11471955

> <PUBCHEM_CONFORMER_RMSD>
0.6

> <PUBCHEM_CONFORMER_DIVERSEORDER>
1
2

> <PUBCHEM_MMFF94_PARTIAL_CHARGES>
21
1 -0.11
11 -0.14
12 0.08
13 -0.15
14 -0.15
15 0.11
16 -0.14
17 0.14
18 0.1
19 0.1
2 -0.53
20 0.1
3 -0.19
31 0.15
32 0.15
33 0.45
4 -0.19
5 -0.2
6 0.24
7 0.09
9 0.09

> <PUBCHEM_EFFECTIVE_ROTOR_COUNT>
1.8

> <PUBCHEM_PHARMACOPHORE_FEATURES>
4
1 1 hydrophobe
1 2 donor
6 11 12 13 14 15 16 rings
6 3 4 5 6 7 8 rings

> <PUBCHEM_HEAVY_ATOM_COUNT>
17

> <PUBCHEM_ATOM_DEF_STEREO_COUNT>
3

> <PUBCHEM_ATOM_UDEF_STEREO_COUNT>
0

> <PUBCHEM_BOND_DEF_STEREO_COUNT>
0

> <PUBCHEM_BOND_UDEF_STEREO_COUNT>
0

> <PUBCHEM_ISOTOPIC_ATOM_COUNT>
0

> <PUBCHEM_COMPONENT_COUNT>
1

> <PUBCHEM_CACTVS_TAUTO_COUNT>
6

> <PUBCHEM_CONFORMER_ID>
00AF0C5300000001

> <PUBCHEM_MMFF94_ENERGY>
70.6024

> <PUBCHEM_FEATURE_SELFOVERLAP>
20.297

> <PUBCHEM_SHAPE_FINGERPRINT>
10616163 171 18337103484634496023
10967382 1 18410572911657787423
11578080 2 17487090883612658436
12400797 292 18271514338998300444
12423570 1 11807084247969577688
12553582 1 18409733933041488431
13140716 1 18409737248561380811
13221675 6 18411415124642760643
13296908 3 18262520278069649159
13538477 17 18271812332171382871
14115302 16 18413101783874447198
14178342 30 18193010231040484355
15848700 24 18187376432370692669
16752209 62 18265905842075639129
16945 1 18267020746417720202
18186145 218 18131354145903031511
19591789 44 15890798629460181111
19868273 325 18410292506164772333
20510252 161 18188490319064377273
20559304 39 18200038476689793218
20645476 183 17989486342472847015
20645477 70 18411701002156323727
20871999 31 18342174410992450391
21197605 99 13876283230597956226
21267235 1 18340193172147678295
21501502 16 18264764527072332724
21634736 98 18342448240790055166
22721475 48 18187641444257625207
22802520 49 18333447634062031155
2334 1 18338802187165327083
23402539 116 18272371919708470782
23557571 272 18187088407531906408
23559900 14 18189619509480352358
23598291 2 17628068211647305938
2748010 2 18263372399464981591
2871803 45 18197499524010946439
3312278 4 18341044138471049643
34934 24 18410296873993486101
353137 74 18272363191928964020
474 4 17202749407253028148
495365 180 17531546312097769689
7364860 26 18262238807187809584
74978 22 18408604738783823577
81228 2 18336265751289635641
8809292 202 18410570686796416067
9709674 26 18261948651960699438

> <PUBCHEM_SHAPE_MULTIPOLES>
349.92
6.23
2.49
1.11
3.33
0.31
0.3
1.48
-1.3
0.94
0.1
-0.96
0.1
-0.08

> <PUBCHEM_SHAPE_SELFOVERLAP>
744.379

> <PUBCHEM_SHAPE_VOLUME>
204.1

> <PUBCHEM_COORDINATE_TYPE>
2
5
10

$$$$

