3338
  -OEChem-06251223213D

 28 28  0     1  0  0  0  0  0999 V2000
    0.4881    1.5708    1.1846 O   0  0  0  0  0  0  0  0  0  0  0  0
    1.4123   -0.2832   -0.0534 C   0  0  0  0  0  0  0  0  0  0  0  0
    0.3335    0.8103   -0.0153 C   0  0  1  0  0  0  0  0  0  0  0  0
    2.8357    0.2780   -0.1072 C   0  0  0  0  0  0  0  0  0  0  0  0
    3.8677   -0.8423   -0.2409 C   0  0  0  0  0  0  0  0  0  0  0  0
   -1.0804    0.2786   -0.0508 C   0  0  0  0  0  0  0  0  0  0  0  0
    5.2854   -0.2935   -0.2653 C   0  0  0  0  0  0  0  0  0  0  0  0
   -2.0783    1.0443   -0.6313 C   0  0  0  0  0  0  0  0  0  0  0  0
   -1.3513   -0.9646    0.4972 C   0  0  0  0  0  0  0  0  0  0  0  0
   -3.3835    0.5534   -0.6644 C   0  0  0  0  0  0  0  0  0  0  0  0
   -2.6566   -1.4554    0.4639 C   0  0  0  0  0  0  0  0  0  0  0  0
   -3.6726   -0.6964   -0.1170 C   0  0  0  0  0  0  0  0  0  0  0  0
    1.3662   -0.9063    0.8478 H   0  0  0  0  0  0  0  0  0  0  0  0
    1.2465   -0.9355   -0.9202 H   0  0  0  0  0  0  0  0  0  0  0  0
    0.4913    1.4900   -0.8614 H   0  0  0  0  0  0  0  0  0  0  0  0
    2.9284    0.9620   -0.9595 H   0  0  0  0  0  0  0  0  0  0  0  0
    3.0404    0.8608    0.7988 H   0  0  0  0  0  0  0  0  0  0  0  0
    3.6852   -1.4095   -1.1610 H   0  0  0  0  0  0  0  0  0  0  0  0
    3.7691   -1.5422    0.5970 H   0  0  0  0  0  0  0  0  0  0  0  0
    5.5113    0.2509    0.6572 H   0  0  0  0  0  0  0  0  0  0  0  0
    6.0066   -1.1109   -0.3626 H   0  0  0  0  0  0  0  0  0  0  0  0
    5.4277    0.3877   -1.1103 H   0  0  0  0  0  0  0  0  0  0  0  0
   -1.8635    2.0195   -1.0584 H   0  0  0  0  0  0  0  0  0  0  0  0
   -0.5990   -1.5804    0.9757 H   0  0  0  0  0  0  0  0  0  0  0  0
    0.3397    0.9773    1.9408 H   0  0  0  0  0  0  0  0  0  0  0  0
   -4.1748    1.1446   -1.1159 H   0  0  0  0  0  0  0  0  0  0  0  0
   -2.8834   -2.4266    0.8941 H   0  0  0  0  0  0  0  0  0  0  0  0
   -4.6891   -1.0780   -0.1416 H   0  0  0  0  0  0  0  0  0  0  0  0
  1  3  1  0  0  0  0
  1 25  1  0  0  0  0
  2  3  1  0  0  0  0
  2  4  1  0  0  0  0
  2 13  1  0  0  0  0
  2 14  1  0  0  0  0
  3  6  1  0  0  0  0
  3 15  1  0  0  0  0
  4  5  1  0  0  0  0
  4 16  1  0  0  0  0
  4 17  1  0  0  0  0
  5  7  1  0  0  0  0
  5 18  1  0  0  0  0
  5 19  1  0  0  0  0
  6  8  2  0  0  0  0
  6  9  1  0  0  0  0
  7 20  1  0  0  0  0
  7 21  1  0  0  0  0
  7 22  1  0  0  0  0
  8 10  1  0  0  0  0
  8 23  1  0  0  0  0
  9 11  2  0  0  0  0
  9 24  1  0  0  0  0
 10 12  2  0  0  0  0
 10 26  1  0  0  0  0
 11 12  1  0  0  0  0
 11 27  1  0  0  0  0
 12 28  1  0  0  0  0
M  END
> <PUBCHEM_COMPOUND_CID>
3338

> <PUBCHEM_CONFORMER_RMSD>
0.6

> <PUBCHEM_CONFORMER_DIVERSEORDER>
1
20
22
23
13
14
8
12
11
16
9
21
3
17
7
15
2
18
5
4
19
6
10

> <PUBCHEM_MMFF94_PARTIAL_CHARGES>
14
1 -0.68
10 -0.15
11 -0.15
12 -0.15
23 0.15
24 0.15
25 0.4
26 0.15
27 0.15
28 0.15
3 0.42
6 -0.14
8 -0.15
9 -0.15

> <PUBCHEM_EFFECTIVE_ROTOR_COUNT>
4

> <PUBCHEM_PHARMACOPHORE_FEATURES>
4
1 1 acceptor
1 1 donor
1 7 hydrophobe
6 6 8 9 10 11 12 rings

> <PUBCHEM_HEAVY_ATOM_COUNT>
12

> <PUBCHEM_ATOM_DEF_STEREO_COUNT>
0

> <PUBCHEM_ATOM_UDEF_STEREO_COUNT>
1

> <PUBCHEM_BOND_DEF_STEREO_COUNT>
0

> <PUBCHEM_BOND_UDEF_STEREO_COUNT>
0

> <PUBCHEM_ISOTOPIC_ATOM_COUNT>
0

> <PUBCHEM_COMPONENT_COUNT>
1

> <PUBCHEM_CACTVS_TAUTO_COUNT>
1

> <PUBCHEM_CONFORMER_ID>
00000D0A00000001

> <PUBCHEM_MMFF94_ENERGY>
23.1601

> <PUBCHEM_FEATURE_SELFOVERLAP>
20.297

> <PUBCHEM_SHAPE_FINGERPRINT>
10465860 250 18335144206547851912
11543360 7 17632568323908717420
12032990 46 18334573534069074454
12186901 62 17632303388866920495
12251169 10 6483351131649481626
124424 183 18333734615265943029
12932764 1 16630540513257784597
14252887 29 17240474823996905126
14911166 2 18343029899773823317
14943859 89 12895349989043409992
14993402 34 16845579699268297415
15219456 202 18264777570851256489
17870717 6 18340474664652502654
18186145 218 14692287309816350196
1986462 14 18202001036046399078
200 152 17821732744814818879
20201158 50 18408321107343504038
20279233 1 18333445456798695710
20281407 28 18410854339289507690
20645476 183 16558755594199065675
20645477 56 18059295473733769725
20671657 53 18408315597417479828
20711985 327 16225766298561345672
20871999 31 17846506932664934653
21061003 4 17894629240507735777
21119208 17 17418093221860174630
22485316 2 18408888438590776638
23402539 116 18201164324877518029
23403322 49 18408884070461512518
23559900 14 18411987979423587528
3312278 4 18411417349467436186
573450 72 17774454870613481672

> <PUBCHEM_SHAPE_MULTIPOLES>
241.09
8.51
1.33
0.81
9.82
0.04
-0.1
2.02
1.63
-0.74
-0.18
-0.1
-0.16
0.5

> <PUBCHEM_SHAPE_SELFOVERLAP>
480.483

> <PUBCHEM_SHAPE_VOLUME>
143.5

> <PUBCHEM_COORDINATE_TYPE>
2
5
10

$$$$

