12360
  -OEChem-06261206513D

  3  2  0     0  0  0  0  0  0999 V2000
   -1.3342    0.0000    0.0000 O   0  5  0  0  0  0  0  0  0  0  0  0
    0.0820    0.0001    0.0000 N   0  3  0  0  0  0  0  0  0  0  0  0
    1.2521    0.0000    0.0000 C   0  5  0  0  0  0  0  0  0  0  0  0
  1  2  1  0  0  0  0
  2  3  3  0  0  0  0
M  CHG  3   1  -1   2   1   3  -1
M  END
> <PUBCHEM_COMPOUND_CID>
12360

> <PUBCHEM_CONFORMER_RMSD>
0.4

> <PUBCHEM_CONFORMER_DIVERSEORDER>
1

> <PUBCHEM_MMFF94_PARTIAL_CHARGES>
3
1 -0.47
2 0.84
3 -0.37

> <PUBCHEM_EFFECTIVE_ROTOR_COUNT>
0

> <PUBCHEM_PHARMACOPHORE_FEATURES>
1
1 1 anion

> <PUBCHEM_HEAVY_ATOM_COUNT>
3

> <PUBCHEM_ATOM_DEF_STEREO_COUNT>
0

> <PUBCHEM_ATOM_UDEF_STEREO_COUNT>
0

> <PUBCHEM_BOND_DEF_STEREO_COUNT>
0

> <PUBCHEM_BOND_UDEF_STEREO_COUNT>
0

> <PUBCHEM_ISOTOPIC_ATOM_COUNT>
0

> <PUBCHEM_COMPONENT_COUNT>
1

> <PUBCHEM_CACTVS_TAUTO_COUNT>
1

> <PUBCHEM_CONFORMER_ID>
0000304800000001

> <PUBCHEM_MMFF94_ENERGY>
0

> <PUBCHEM_FEATURE_SELFOVERLAP>
5.074

> <PUBCHEM_SHAPE_FINGERPRINT>
139733 1 18410856516874849860
21015797 1 18122345666442042020

> <PUBCHEM_SHAPE_MULTIPOLES>
50.89
1.68
0.55
0.55
0.22
0
0
0
0
-0.05
0
-0.05
0
0

> <PUBCHEM_SHAPE_SELFOVERLAP>
79.389

> <PUBCHEM_SHAPE_VOLUME>
36.4

> <PUBCHEM_COORDINATE_TYPE>
2
5
10

$$$$

