9138
  -OEChem-06261203262D

 44 50  0     0  0  0  0  0  0999 V2000
    5.7364   -1.9023    0.0000 C   0  0  0  0  0  0  0  0  0  0  0  0
    4.8703   -1.4023    0.0000 C   0  0  0  0  0  0  0  0  0  0  0  0
    4.8703   -0.4023    0.0000 C   0  0  0  0  0  0  0  0  0  0  0  0
    5.7524   -2.9438    0.0000 C   0  0  0  0  0  0  0  0  0  0  0  0
    6.6024   -1.4023    0.0000 C   0  0  0  0  0  0  0  0  0  0  0  0
    5.7364    0.0977    0.0000 C   0  0  0  0  0  0  0  0  0  0  0  0
    6.6024   -0.4023    0.0000 C   0  0  0  0  0  0  0  0  0  0  0  0
    4.8544   -3.4716    0.0000 C   0  0  0  0  0  0  0  0  0  0  0  0
    6.6295   -3.4066    0.0000 C   0  0  0  0  0  0  0  0  0  0  0  0
    3.9523    1.1461    0.0000 C   0  0  0  0  0  0  0  0  0  0  0  0
    3.9603    0.1045    0.0000 C   0  0  0  0  0  0  0  0  0  0  0  0
    4.8544    1.6669    0.0000 C   0  0  0  0  0  0  0  0  0  0  0  0
    3.9603   -1.9092    0.0000 C   0  0  0  0  0  0  0  0  0  0  0  0
    5.7524    1.1392    0.0000 C   0  0  0  0  0  0  0  0  0  0  0  0
    7.4618   -1.8971    0.0000 C   0  0  0  0  0  0  0  0  0  0  0  0
    3.9523   -2.9508    0.0000 C   0  0  0  0  0  0  0  0  0  0  0  0
    7.4753   -2.8887    0.0000 C   0  0  0  0  0  0  0  0  0  0  0  0
    3.0044    1.6741    0.0000 C   0  0  0  0  0  0  0  0  0  0  0  0
    4.8711    2.7518    0.0000 C   0  0  0  0  0  0  0  0  0  0  0  0
    4.8805   -4.5131    0.0000 C   0  0  0  0  0  0  0  0  0  0  0  0
    6.6797   -4.4472    0.0000 C   0  0  0  0  0  0  0  0  0  0  0  0
    2.9961    2.7590    0.0000 C   0  0  0  0  0  0  0  0  0  0  0  0
    3.9357    3.3015    0.0000 C   0  0  0  0  0  0  0  0  0  0  0  0
    5.7993   -5.0042    0.0000 C   0  0  0  0  0  0  0  0  0  0  0  0
    2.0087    3.3090    0.0000 C   0  0  0  0  0  0  0  0  0  0  0  0
    3.9531    4.4316    0.0000 C   0  0  0  0  0  0  0  0  0  0  0  0
    2.0000    4.4391    0.0000 C   0  0  0  0  0  0  0  0  0  0  0  0
    2.9787    5.0042    0.0000 C   0  0  0  0  0  0  0  0  0  0  0  0
    7.1393   -0.0923    0.0000 H   0  0  0  0  0  0  0  0  0  0  0  0
    3.4270   -0.2117    0.0000 H   0  0  0  0  0  0  0  0  0  0  0  0
    3.4270   -1.5930    0.0000 H   0  0  0  0  0  0  0  0  0  0  0  0
    6.2929    1.4430    0.0000 H   0  0  0  0  0  0  0  0  0  0  0  0
    7.9965   -1.5831    0.0000 H   0  0  0  0  0  0  0  0  0  0  0  0
    3.4142   -3.2587    0.0000 H   0  0  0  0  0  0  0  0  0  0  0  0
    8.0182   -3.1881    0.0000 H   0  0  0  0  0  0  0  0  0  0  0  0
    2.4711    1.3579    0.0000 H   0  0  0  0  0  0  0  0  0  0  0  0
    5.4116    3.0556    0.0000 H   0  0  0  0  0  0  0  0  0  0  0  0
    4.3527   -4.8385    0.0000 H   0  0  0  0  0  0  0  0  0  0  0  0
    7.2298   -4.7331    0.0000 H   0  0  0  0  0  0  0  0  0  0  0  0
    5.8220   -5.6238    0.0000 H   0  0  0  0  0  0  0  0  0  0  0  0
    1.4754    2.9928    0.0000 H   0  0  0  0  0  0  0  0  0  0  0  0
    4.4936    4.7353    0.0000 H   0  0  0  0  0  0  0  0  0  0  0  0
    1.4619    4.7470    0.0000 H   0  0  0  0  0  0  0  0  0  0  0  0
    2.9811    5.6242    0.0000 H   0  0  0  0  0  0  0  0  0  0  0  0
  1  2  2  0  0  0  0
  1  4  1  0  0  0  0
  1  5  1  0  0  0  0
  2  3  1  0  0  0  0
  2 13  1  0  0  0  0
  3  6  1  0  0  0  0
  3 11  2  0  0  0  0
  4  8  1  0  0  0  0
  4  9  2  0  0  0  0
  5  7  2  0  0  0  0
  5 15  1  0  0  0  0
  6  7  1  0  0  0  0
  6 14  2  0  0  0  0
  7 29  1  0  0  0  0
  8 16  1  0  0  0  0
  8 20  2  0  0  0  0
  9 17  1  0  0  0  0
  9 21  1  0  0  0  0
 10 11  1  0  0  0  0
 10 12  1  0  0  0  0
 10 18  2  0  0  0  0
 11 30  1  0  0  0  0
 12 14  1  0  0  0  0
 12 19  2  0  0  0  0
 13 16  2  0  0  0  0
 13 31  1  0  0  0  0
 14 32  1  0  0  0  0
 15 17  2  0  0  0  0
 15 33  1  0  0  0  0
 16 34  1  0  0  0  0
 17 35  1  0  0  0  0
 18 22  1  0  0  0  0
 18 36  1  0  0  0  0
 19 23  1  0  0  0  0
 19 37  1  0  0  0  0
 20 24  1  0  0  0  0
 20 38  1  0  0  0  0
 21 24  2  0  0  0  0
 21 39  1  0  0  0  0
 22 23  1  0  0  0  0
 22 25  2  0  0  0  0
 23 26  2  0  0  0  0
 24 40  1  0  0  0  0
 25 27  1  0  0  0  0
 25 41  1  0  0  0  0
 26 28  1  0  0  0  0
 26 42  1  0  0  0  0
 27 28  2  0  0  0  0
 27 43  1  0  0  0  0
 28 44  1  0  0  0  0
M  END
> <PUBCHEM_COMPOUND_CID>
9138

> <PUBCHEM_COMPOUND_CANONICALIZED>
1

> <PUBCHEM_CACTVS_COMPLEXITY>
593

> <PUBCHEM_CACTVS_HBOND_ACCEPTOR>
0

> <PUBCHEM_CACTVS_HBOND_DONOR>
0

> <PUBCHEM_CACTVS_ROTATABLE_BOND>
0

> <PUBCHEM_CACTVS_SUBSKEYS>
AAADceB4AAAAAAAAAAAAAAAAAAAAAAAAAAAwYMGDAAAAAADBVAAAGAAAAAAADACAGAAwAMAAAACAAiBCAAACAAAgAAAIiAAAAIgIICKAERCAIAAggAAIiAcAgMAOwAACAAAQAACAAAQAACAAAAAAAAAAAA==

> <PUBCHEM_IUPAC_INCHI>
InChI=1S/C28H16/c1-2-5-20-13-23-16-26-24(15-22(23)12-19(20)4-1)14-21-9-8-17-6-3-7-18-10-11-25(26)28(21)27(17)18/h1-16H

> <PUBCHEM_IUPAC_INCHIKEY>
VOOIVKLLIFRUDQ-UHFFFAOYSA-N

> <PUBCHEM_XLOGP3_AA>
8.3

> <PUBCHEM_EXACT_MASS>
352.125201

> <PUBCHEM_MOLECULAR_FORMULA>
C28H16

> <PUBCHEM_MOLECULAR_WEIGHT>
352.42664

> <PUBCHEM_OPENEYE_CAN_SMILES>
C1=CC=C2C=C3C=C4C5=C6C(=CC4=CC3=CC2=C1)C=CC7=C6C(=CC=C7)C=C5

> <PUBCHEM_OPENEYE_ISO_SMILES>
C1=CC=C2C=C3C=C4C5=C6C(=CC4=CC3=CC2=C1)C=CC7=C6C(=CC=C7)C=C5

> <PUBCHEM_CACTVS_TPSA>
0

> <PUBCHEM_MONOISOTOPIC_WEIGHT>
352.125201

> <PUBCHEM_TOTAL_CHARGE>
0

> <PUBCHEM_HEAVY_ATOM_COUNT>
28

> <PUBCHEM_ATOM_DEF_STEREO_COUNT>
0

> <PUBCHEM_ATOM_UDEF_STEREO_COUNT>
0

> <PUBCHEM_BOND_DEF_STEREO_COUNT>
0

> <PUBCHEM_BOND_UDEF_STEREO_COUNT>
0

> <PUBCHEM_ISOTOPIC_ATOM_COUNT>
0

> <PUBCHEM_COMPONENT_COUNT>
1

> <PUBCHEM_CACTVS_TAUTO_COUNT>
1

> <PUBCHEM_COORDINATE_TYPE>
1
5
255

> <PUBCHEM_BONDANNOTATIONS>
1  2  8
1  4  8
1  5  8
10  11  8
10  12  8
10  18  8
12  14  8
12  19  8
13  16  8
15  17  8
18  22  8
19  23  8
2  13  8
2  3  8
20  24  8
21  24  8
22  23  8
22  25  8
23  26  8
25  27  8
26  28  8
27  28  8
3  11  8
3  6  8
4  8  8
4  9  8
5  15  8
5  7  8
6  14  8
6  7  8
8  16  8
8  20  8
9  17  8
9  21  8

$$$$

