442706
  -OEChem-07051212593D

 45 46  0     1  0  0  0  0  0999 V2000
   -0.4166    0.3743    0.4828 O   0  0  0  0  0  0  0  0  0  0  0  0
   -3.9405    0.4182    0.6662 O   0  0  0  0  0  0  0  0  0  0  0  0
   -3.4968    0.7649   -2.1703 O   0  0  0  0  0  0  0  0  0  0  0  0
   -1.8371    0.1261    2.2740 O   0  0  0  0  0  0  0  0  0  0  0  0
    3.7567    0.2982   -0.8683 N   0  0  2  0  0  0  0  0  0  0  0  0
    2.4435   -0.2352   -0.3942 C   0  0  1  0  0  0  0  0  0  0  0  0
    2.7201   -1.6465    0.1232 C   0  0  0  0  0  0  0  0  0  0  0  0
    4.7903   -0.6258   -0.3788 C   0  0  0  0  0  0  0  0  0  0  0  0
    4.0976   -1.9729   -0.4235 C   0  0  0  0  0  0  0  0  0  0  0  0
    1.9431    0.7438    0.6217 C   0  0  0  0  0  0  0  0  0  0  0  0
    3.8902    1.6497   -0.2817 C   0  0  0  0  0  0  0  0  0  0  0  0
    2.7591    1.8001    0.6802 C   0  0  0  0  0  0  0  0  0  0  0  0
    0.6848    0.5353    1.3821 C   0  0  0  0  0  0  0  0  0  0  0  0
   -2.7283    0.0242    0.0028 C   0  0  1  0  0  0  0  0  0  0  0  0
   -2.9233   -1.4634   -0.4186 C   0  0  0  0  0  0  0  0  0  0  0  0
   -2.4943    1.0047   -1.1749 C   0  0  2  0  0  0  0  0  0  0  0  0
   -1.6333    0.1747    1.0663 C   0  0  0  0  0  0  0  0  0  0  0  0
   -3.3527   -2.4018    0.7129 C   0  0  0  0  0  0  0  0  0  0  0  0
   -1.6839   -2.0472   -1.1171 C   0  0  0  0  0  0  0  0  0  0  0  0
   -2.5787    2.4785   -0.7846 C   0  0  0  0  0  0  0  0  0  0  0  0
    1.7576   -0.2719   -1.2492 H   0  0  0  0  0  0  0  0  0  0  0  0
    1.9721   -2.3663   -0.2242 H   0  0  0  0  0  0  0  0  0  0  0  0
    2.7418   -1.6826    1.2193 H   0  0  0  0  0  0  0  0  0  0  0  0
    5.0903   -0.4076    0.6545 H   0  0  0  0  0  0  0  0  0  0  0  0
    5.6805   -0.6013   -1.0141 H   0  0  0  0  0  0  0  0  0  0  0  0
    4.6120   -2.7302    0.1749 H   0  0  0  0  0  0  0  0  0  0  0  0
    4.0230   -2.3382   -1.4550 H   0  0  0  0  0  0  0  0  0  0  0  0
    3.7955    2.3975   -1.0766 H   0  0  0  0  0  0  0  0  0  0  0  0
    4.8545    1.8081    0.2134 H   0  0  0  0  0  0  0  0  0  0  0  0
    2.6148    2.6637    1.3128 H   0  0  0  0  0  0  0  0  0  0  0  0
    0.4870    1.3938    2.0354 H   0  0  0  0  0  0  0  0  0  0  0  0
    0.7761   -0.3606    2.0069 H   0  0  0  0  0  0  0  0  0  0  0  0
   -3.7479   -1.4979   -1.1437 H   0  0  0  0  0  0  0  0  0  0  0  0
   -1.5263    0.8189   -1.6526 H   0  0  0  0  0  0  0  0  0  0  0  0
   -3.4697   -3.4257    0.3398 H   0  0  0  0  0  0  0  0  0  0  0  0
   -4.3174   -2.1099    1.1383 H   0  0  0  0  0  0  0  0  0  0  0  0
   -2.6126   -2.4287    1.5187 H   0  0  0  0  0  0  0  0  0  0  0  0
   -1.3866   -1.4461   -1.9809 H   0  0  0  0  0  0  0  0  0  0  0  0
   -1.8942   -3.0575   -1.4858 H   0  0  0  0  0  0  0  0  0  0  0  0
   -0.8316   -2.1188   -0.4341 H   0  0  0  0  0  0  0  0  0  0  0  0
   -2.3925    3.1111   -1.6599 H   0  0  0  0  0  0  0  0  0  0  0  0
   -1.8471    2.7409   -0.0155 H   0  0  0  0  0  0  0  0  0  0  0  0
   -3.5796    2.7414   -0.4259 H   0  0  0  0  0  0  0  0  0  0  0  0
   -4.0095   -0.0607    1.5087 H   0  0  0  0  0  0  0  0  0  0  0  0
   -3.3099    1.3526   -2.9223 H   0  0  0  0  0  0  0  0  0  0  0  0
  1 13  1  0  0  0  0
  1 17  1  0  0  0  0
  2 14  1  0  0  0  0
  2 44  1  0  0  0  0
  3 16  1  0  0  0  0
  3 45  1  0  0  0  0
  4 17  2  0  0  0  0
  5  6  1  0  0  0  0
  5  8  1  0  0  0  0
  5 11  1  0  0  0  0
  6  7  1  0  0  0  0
  6 10  1  0  0  0  0
  6 21  1  0  0  0  0
  7  9  1  0  0  0  0
  7 22  1  0  0  0  0
  7 23  1  0  0  0  0
  8  9  1  0  0  0  0
  8 24  1  0  0  0  0
  8 25  1  0  0  0  0
  9 26  1  0  0  0  0
  9 27  1  0  0  0  0
 10 12  2  0  0  0  0
 10 13  1  0  0  0  0
 11 12  1  0  0  0  0
 11 28  1  0  0  0  0
 11 29  1  0  0  0  0
 12 30  1  0  0  0  0
 13 31  1  0  0  0  0
 13 32  1  0  0  0  0
 14 15  1  0  0  0  0
 14 16  1  0  0  0  0
 14 17  1  0  0  0  0
 15 18  1  0  0  0  0
 15 19  1  0  0  0  0
 15 33  1  0  0  0  0
 16 20  1  0  0  0  0
 16 34  1  0  0  0  0
 18 35  1  0  0  0  0
 18 36  1  0  0  0  0
 18 37  1  0  0  0  0
 19 38  1  0  0  0  0
 19 39  1  0  0  0  0
 19 40  1  0  0  0  0
 20 41  1  0  0  0  0
 20 42  1  0  0  0  0
 20 43  1  0  0  0  0
M  END
> <PUBCHEM_COMPOUND_CID>
442706

> <PUBCHEM_CONFORMER_RMSD>
0.8

> <PUBCHEM_CONFORMER_DIVERSEORDER>
1
142
3
276
266
246
273
152
205
257
271
147
176
154
236
259
53
156
274
161
285
146
211
10
242
269
148
139
219
312
111
256
8
116
322
316
42
113
74
239
323
247
120
128
106
24
100
199
304
287
222
275
244
186
291
201
306
254
65
320
210
260
240
117
67
297
249
278
162
173
282
38
115
40
11
51
155
165
218
301
225
70
229
203
138
251
311
293
45
212
315
4
89
82
198
307
250
98
131
193
296
64
50
202
180
178
78
126
189
220
27
252
174
71
90
122
94
21
295
58
87
283
141
172
179
123
108
326
13
127
129
313
93
99
46
314
303
209
55
86
184
35
216
36
6
241
215
300
224
208
265
28
43
157
81
105
181
232
192
85
68
91
151
318
204
324
9
268
258
60
267
7
292
237
234
325
288
160
277
137
310
217
185
66
92
317
171
61
14
49
134
125
5
228
223
112
235
109
76
213
182
77
63
284
135
144
263
47
289
101
84
214
88
26
29
102
69
280
238
253
114
163
18
245
12
305
243
159
187
299
32
16
191
255
15
107
110
104
227
119
164
197
25
56
194
130
158
103
48
17
168
206
44
59
30
321
96
272
19
52
290
39
54
118
233
2
226
150
166
262
200
207
23
57
145
83
195
80
183
37
281
72
279
175
231
264
230
140
41
169
121
31
170
62
149
34
73
75
79
124
136
20
143
177
308
153
132
294
319
309
95
22
248
167
190
97
33
133
261
298
188
196
270
302
221
286

> <PUBCHEM_MMFF94_PARTIAL_CHARGES>
17
1 -0.43
10 -0.28
11 0.41
12 -0.29
13 0.42
14 0.34
16 0.28
17 0.66
2 -0.68
3 -0.68
30 0.15
4 -0.57
44 0.4
45 0.4
5 -0.81
6 0.41
8 0.27

> <PUBCHEM_EFFECTIVE_ROTOR_COUNT>
6.8

> <PUBCHEM_PHARMACOPHORE_FEATURES>
9
1 2 acceptor
1 2 donor
1 3 acceptor
1 3 donor
1 4 acceptor
1 5 cation
3 15 18 19 hydrophobe
5 5 6 10 11 12 rings
5 5 6 7 8 9 rings

> <PUBCHEM_HEAVY_ATOM_COUNT>
20

> <PUBCHEM_ATOM_DEF_STEREO_COUNT>
3

> <PUBCHEM_ATOM_UDEF_STEREO_COUNT>
0

> <PUBCHEM_BOND_DEF_STEREO_COUNT>
0

> <PUBCHEM_BOND_UDEF_STEREO_COUNT>
0

> <PUBCHEM_ISOTOPIC_ATOM_COUNT>
0

> <PUBCHEM_COMPONENT_COUNT>
1

> <PUBCHEM_CACTVS_TAUTO_COUNT>
1

> <PUBCHEM_CONFORMER_ID>
0006C15200000001

> <PUBCHEM_MMFF94_ENERGY>
36.471

> <PUBCHEM_FEATURE_SELFOVERLAP>
46.045

> <PUBCHEM_SHAPE_FINGERPRINT>
10498660 4 16773804739458211141
10759866 29 18261948540950718334
11578080 2 17169291401611673200
11759241 127 17984988094116375284
12173636 292 18259702307267072257
12363563 72 15936422138404969080
12553582 1 16515678910202132128
12596599 1 16056583349083878942
12633257 1 17313935329988878039
12707595 3 17240484680556329368
12916754 54 18410289177317152619
13224815 77 18271810094688321248
13296908 3 18334014951949687306
14251751 93 18343586273615771722
14863182 85 15665373465889861999
15163728 17 16840533125949730421
15788980 27 18060702810342080962
16752209 62 16370998654822517601
17349148 13 17313391170659424734
18186145 218 18411983563632802384
19433438 38 18342177735186036194
19862831 5 18113621204916071208
200 152 17603870004791871760
20645477 70 18408316709877092134
21475661 188 12243787249845584407
21634736 98 18114175286252753582
21709351 56 18343581816262326924
21713013 43 18411415081561297022
21864079 5 16056880251567332036
221490 88 18409442553991655442
22393880 68 18342457062927336982
22646028 28 17749105617065898650
23402539 116 17203331130882708396
23557571 272 18059020471114388321
23559900 14 18409173207955129024
23598288 3 16588287385514942697
2871803 45 18339647719880659659
3268164 11 17275110496427472495
4028521 119 17703518786799375893
4921388 177 17703783666027918067
5161694 15 18130789009674125870
5281201 14 18131625703805731964
6287921 2 17980197487504888988
633830 44 16988558013848571252
7399639 24 18048326547881919456

> <PUBCHEM_SHAPE_MULTIPOLES>
383.13
9.11
2.41
1.48
4.88
0.44
-0.12
1.27
1.93
-0.45
0.39
-1.33
-0.27
0.93

> <PUBCHEM_SHAPE_SELFOVERLAP>
783.814

> <PUBCHEM_SHAPE_VOLUME>
224.2

> <PUBCHEM_COORDINATE_TYPE>
2
5
10

$$$$

