442929
  -OEChem-07051213002D

 26 28  0     1  0  0  0  0  0999 V2000
    6.7889   -1.3310    0.0000 O   0  0  0  0  0  0  0  0  0  0  0  0
    5.5321    0.9242    0.0000 N   0  0  0  0  0  0  0  0  0  0  0  0
    4.6660   -0.5758    0.0000 N   0  0  0  0  0  0  0  0  0  0  0  0
    6.4783    1.2290    0.0000 C   0  0  0  0  0  0  0  0  0  0  0  0
    7.0619    0.4242    0.0000 C   0  0  0  0  0  0  0  0  0  0  0  0
    6.4783   -0.3805    0.0000 C   0  0  2  0  0  0  0  0  0  0  0  0
    5.5321   -0.0758    0.0000 C   0  0  0  0  0  0  0  0  0  0  0  0
    4.6660    1.4242    0.0000 C   0  0  0  0  0  0  0  0  0  0  0  0
    3.8000    0.9242    0.0000 C   0  0  0  0  0  0  0  0  0  0  0  0
    3.8000   -0.0758    0.0000 C   0  0  0  0  0  0  0  0  0  0  0  0
    2.9061    1.4589    0.0000 C   0  0  0  0  0  0  0  0  0  0  0  0
    2.9061   -0.6104    0.0000 C   0  0  0  0  0  0  0  0  0  0  0  0
    2.0000    0.9450    0.0000 C   0  0  0  0  0  0  0  0  0  0  0  0
    2.0000   -0.0966    0.0000 C   0  0  0  0  0  0  0  0  0  0  0  0
    7.0157    1.5382    0.0000 H   0  0  0  0  0  0  0  0  0  0  0  0
    6.2272    1.7959    0.0000 H   0  0  0  0  0  0  0  0  0  0  0  0
    7.5228    0.0095    0.0000 H   0  0  0  0  0  0  0  0  0  0  0  0
    7.5228    0.8390    0.0000 H   0  0  0  0  0  0  0  0  0  0  0  0
    7.0908   -0.4767    0.0000 H   0  0  0  0  0  0  0  0  0  0  0  0
    5.0646    1.8992    0.0000 H   0  0  0  0  0  0  0  0  0  0  0  0
    4.2675    1.8992    0.0000 H   0  0  0  0  0  0  0  0  0  0  0  0
    2.9132    2.0788    0.0000 H   0  0  0  0  0  0  0  0  0  0  0  0
    7.3956   -1.4589    0.0000 H   0  0  0  0  0  0  0  0  0  0  0  0
    2.9132   -1.2304    0.0000 H   0  0  0  0  0  0  0  0  0  0  0  0
    1.4643    1.2571    0.0000 H   0  0  0  0  0  0  0  0  0  0  0  0
    1.4643   -0.4087    0.0000 H   0  0  0  0  0  0  0  0  0  0  0  0
  6  1  1  1  0  0  0
  1 23  1  0  0  0  0
  2  4  1  0  0  0  0
  2  7  1  0  0  0  0
  2  8  1  0  0  0  0
  3  7  2  0  0  0  0
  3 10  1  0  0  0  0
  4  5  1  0  0  0  0
  4 15  1  0  0  0  0
  4 16  1  0  0  0  0
  5  6  1  0  0  0  0
  5 17  1  0  0  0  0
  5 18  1  0  0  0  0
  6  7  1  0  0  0  0
  6 19  1  0  0  0  0
  8  9  1  0  0  0  0
  8 20  1  0  0  0  0
  8 21  1  0  0  0  0
  9 10  1  0  0  0  0
  9 11  2  0  0  0  0
 10 12  2  0  0  0  0
 11 13  1  0  0  0  0
 11 22  1  0  0  0  0
 12 14  1  0  0  0  0
 12 24  1  0  0  0  0
 13 14  2  0  0  0  0
 13 25  1  0  0  0  0
 14 26  1  0  0  0  0
M  END
> <PUBCHEM_COMPOUND_CID>
442929

> <PUBCHEM_COMPOUND_CANONICALIZED>
1

> <PUBCHEM_CACTVS_COMPLEXITY>
264

> <PUBCHEM_CACTVS_HBOND_ACCEPTOR>
2

> <PUBCHEM_CACTVS_HBOND_DONOR>
1

> <PUBCHEM_CACTVS_ROTATABLE_BOND>
0

> <PUBCHEM_CACTVS_SUBSKEYS>
AAADccBzIAAAAAAAAAAAAAAAAAAAAWAAAAAwQAAAAAAAAECBAAAAHgAACAAADBzhmAYxwIMAAgCgAiZiZASCAAEgAgAJiAA4ZIgKMCKA2ZGEYAhigACYyAcQgAAOAAAAAAACAAAAAAAAAAQAAAAAAAAAAA==

> <PUBCHEM_IUPAC_OPENEYE_NAME>
(3R)-1,2,3,9-tetrahydropyrrolo[2,1-b]quinazolin-3-ol

> <PUBCHEM_IUPAC_CAS_NAME>
(3R)-1,2,3,9-tetrahydropyrrolo[2,1-b]quinazolin-3-ol

> <PUBCHEM_IUPAC_NAME>
(3R)-1,2,3,9-tetrahydropyrrolo[2,1-b]quinazolin-3-ol

> <PUBCHEM_IUPAC_SYSTEMATIC_NAME>
(3R)-1,2,3,9-tetrahydropyrrolo[2,1-b]quinazolin-3-ol

> <PUBCHEM_IUPAC_TRADITIONAL_NAME>
(3R)-1,2,3,9-tetrahydropyrrolo[2,1-b]quinazolin-3-ol

> <PUBCHEM_IUPAC_INCHI>
InChI=1S/C11H12N2O/c14-10-5-6-13-7-8-3-1-2-4-9(8)12-11(10)13/h1-4,10,14H,5-7H2/t10-/m1/s1

> <PUBCHEM_IUPAC_INCHIKEY>
YIICVSCAKJMMDJ-SNVBAGLBSA-N

> <PUBCHEM_XLOGP3_AA>
0.4

> <PUBCHEM_EXACT_MASS>
188.094963

> <PUBCHEM_MOLECULAR_FORMULA>
C11H12N2O

> <PUBCHEM_MOLECULAR_WEIGHT>
188.22578

> <PUBCHEM_OPENEYE_CAN_SMILES>
C1CN2CC3=CC=CC=C3N=C2C1O

> <PUBCHEM_OPENEYE_ISO_SMILES>
C1CN2CC3=CC=CC=C3N=C2[C@@H]1O

> <PUBCHEM_CACTVS_TPSA>
35.8

> <PUBCHEM_MONOISOTOPIC_WEIGHT>
188.094963

> <PUBCHEM_TOTAL_CHARGE>
0

> <PUBCHEM_HEAVY_ATOM_COUNT>
14

> <PUBCHEM_ATOM_DEF_STEREO_COUNT>
1

> <PUBCHEM_ATOM_UDEF_STEREO_COUNT>
0

> <PUBCHEM_BOND_DEF_STEREO_COUNT>
0

> <PUBCHEM_BOND_UDEF_STEREO_COUNT>
0

> <PUBCHEM_ISOTOPIC_ATOM_COUNT>
0

> <PUBCHEM_COMPONENT_COUNT>
1

> <PUBCHEM_CACTVS_TAUTO_COUNT>
4

> <PUBCHEM_COORDINATE_TYPE>
1
5
255

> <PUBCHEM_BONDANNOTATIONS>
6  1  5
10  12  8
11  13  8
12  14  8
13  14  8
9  10  8
9  11  8

$$$$

