24892745
  -OEChem-07051212492D

 69 72  0     1  0  0  0  0  0999 V2000
    3.0990   -0.2603    0.0000 O   0  0  0  0  0  0  0  0  0  0  0  0
    5.1124    2.0451    0.0000 O   0  0  0  0  0  0  0  0  0  0  0  0
    8.9753   -1.1230    0.0000 O   0  0  0  0  0  0  0  0  0  0  0  0
    3.5808    3.7664    0.0000 O   0  0  0  0  0  0  0  0  0  0  0  0
    2.4218    2.4792    0.0000 O   0  0  0  0  0  0  0  0  0  0  0  0
    2.9016   -2.0862    0.0000 O   0  0  0  0  0  0  0  0  0  0  0  0
    9.8394    0.4220    0.0000 O   0  0  0  0  0  0  0  0  0  0  0  0
    4.3029   -3.1043    0.0000 O   0  0  0  0  0  0  0  0  0  0  0  0
    8.5398   -4.1813    0.0000 O   0  0  0  0  0  0  0  0  0  0  0  0
    4.5772    0.3978    0.0000 C   0  0  1  0  0  0  0  0  0  0  0  0
    3.9081    1.1410    0.0000 C   0  0  2  0  0  0  0  0  0  0  0  0
    5.4432   -0.1022    0.0000 C   0  0  1  0  0  0  0  0  0  0  0  0
    4.0772   -0.4682    0.0000 C   0  0  2  0  0  0  0  0  0  0  0  0
    2.9945    0.7342    0.0000 C   0  0  0  0  0  0  0  0  0  0  0  0
    5.4432   -1.1022    0.0000 C   0  0  0  0  0  0  0  0  0  0  0  0
    7.1753   -1.1022    0.0000 C   0  0  2  0  0  0  0  0  0  0  0  0
    6.3092    0.3978    0.0000 C   0  0  0  0  0  0  0  0  0  0  0  0
    5.3203    1.0670    0.0000 C   0  0  0  0  0  0  0  0  0  0  0  0
    6.3092   -1.6022    0.0000 C   0  0  0  0  0  0  0  0  0  0  0  0
    7.1753   -0.1022    0.0000 C   0  0  0  0  0  0  0  0  0  0  0  0
    4.1160    2.1191    0.0000 C   0  0  0  0  0  0  0  0  0  0  0  0
    4.4839   -1.3817    0.0000 C   0  0  0  0  0  0  0  0  0  0  0  0
    2.0000    0.6297    0.0000 C   0  0  0  0  0  0  0  0  0  0  0  0
    2.5878    1.6478    0.0000 C   0  0  0  0  0  0  0  0  0  0  0  0
    8.0692   -1.6368    0.0000 C   0  0  2  0  0  0  0  0  0  0  0  0
    7.1753   -2.1022    0.0000 C   0  0  0  0  0  0  0  0  0  0  0  0
    8.0692    0.4325    0.0000 C   0  0  0  0  0  0  0  0  0  0  0  0
    6.3092    1.3978    0.0000 C   0  0  0  0  0  0  0  0  0  0  0  0
    3.3728    2.7883    0.0000 C   0  0  0  0  0  0  0  0  0  0  0  0
    8.0576   -2.6368    0.0000 C   0  0  0  0  0  0  0  0  0  0  0  0
    8.9753   -0.0813    0.0000 C   0  0  0  0  0  0  0  0  0  0  0  0
    3.8962   -2.1908    0.0000 C   0  0  0  0  0  0  0  0  0  0  0  0
    7.2419   -3.2151    0.0000 C   0  0  0  0  0  0  0  0  0  0  0  0
    8.8598   -3.2338    0.0000 C   0  0  0  0  0  0  0  0  0  0  0  0
    7.5399   -4.1697    0.0000 C   0  0  0  0  0  0  0  0  0  0  0  0
    4.5069    1.3014    0.0000 H   0  0  0  0  0  0  0  0  0  0  0  0
    5.4432    0.7478    0.0000 H   0  0  0  0  0  0  0  0  0  0  0  0
    3.6870   -0.9500    0.0000 H   0  0  0  0  0  0  0  0  0  0  0  0
    4.8326   -0.9945    0.0000 H   0  0  0  0  0  0  0  0  0  0  0  0
    5.2312   -1.6848    0.0000 H   0  0  0  0  0  0  0  0  0  0  0  0
    5.6489    0.5412    0.0000 H   0  0  0  0  0  0  0  0  0  0  0  0
    5.8952    1.2992    0.0000 H   0  0  0  0  0  0  0  0  0  0  0  0
    5.9107   -2.0771    0.0000 H   0  0  0  0  0  0  0  0  0  0  0  0
    6.7078   -2.0771    0.0000 H   0  0  0  0  0  0  0  0  0  0  0  0
    4.6908    1.8869    0.0000 H   0  0  0  0  0  0  0  0  0  0  0  0
    4.4445    2.6449    0.0000 H   0  0  0  0  0  0  0  0  0  0  0  0
    4.9146   -1.8277    0.0000 H   0  0  0  0  0  0  0  0  0  0  0  0
    4.9979   -1.0350    0.0000 H   0  0  0  0  0  0  0  0  0  0  0  0
    3.1542    1.9000    0.0000 H   0  0  0  0  0  0  0  0  0  0  0  0
    2.3356    2.2142    0.0000 H   0  0  0  0  0  0  0  0  0  0  0  0
    2.0214    1.3956    0.0000 H   0  0  0  0  0  0  0  0  0  0  0  0
    1.9352    1.2463    0.0000 H   0  0  0  0  0  0  0  0  0  0  0  0
    1.3834    0.5649    0.0000 H   0  0  0  0  0  0  0  0  0  0  0  0
    2.0648    0.0131    0.0000 H   0  0  0  0  0  0  0  0  0  0  0  0
    8.6031   -1.9520    0.0000 H   0  0  0  0  0  0  0  0  0  0  0  0
    6.5553   -2.1022    0.0000 H   0  0  0  0  0  0  0  0  0  0  0  0
    7.1753   -2.7222    0.0000 H   0  0  0  0  0  0  0  0  0  0  0  0
    7.7953   -2.1022    0.0000 H   0  0  0  0  0  0  0  0  0  0  0  0
    8.4628    0.9115    0.0000 H   0  0  0  0  0  0  0  0  0  0  0  0
    7.6646    0.9023    0.0000 H   0  0  0  0  0  0  0  0  0  0  0  0
    6.9292    1.3978    0.0000 H   0  0  0  0  0  0  0  0  0  0  0  0
    6.3092    2.0178    0.0000 H   0  0  0  0  0  0  0  0  0  0  0  0
    5.6892    1.3978    0.0000 H   0  0  0  0  0  0  0  0  0  0  0  0
    5.5732    2.4600    0.0000 H   0  0  0  0  0  0  0  0  0  0  0  0
    6.6545   -3.0168    0.0000 H   0  0  0  0  0  0  0  0  0  0  0  0
    9.4517   -3.0491    0.0000 H   0  0  0  0  0  0  0  0  0  0  0  0
    3.1200    4.1813    0.0000 H   0  0  0  0  0  0  0  0  0  0  0  0
    2.5372   -2.5878    0.0000 H   0  0  0  0  0  0  0  0  0  0  0  0
    7.1697   -4.6670    0.0000 H   0  0  0  0  0  0  0  0  0  0  0  0
  1 13  1  0  0  0  0
  1 14  1  0  0  0  0
  2 18  1  0  0  0  0
  2 64  1  0  0  0  0
  3 25  1  0  0  0  0
  3 31  1  0  0  0  0
  4 29  1  0  0  0  0
  4 67  1  0  0  0  0
  5 29  2  0  0  0  0
  6 32  1  0  0  0  0
  6 68  1  0  0  0  0
  7 31  2  0  0  0  0
  8 32  2  0  0  0  0
  9 34  1  0  0  0  0
  9 35  1  0  0  0  0
 10 11  1  0  0  0  0
 10 12  1  0  0  0  0
 10 13  1  0  0  0  0
 10 18  1  6  0  0  0
 11 14  1  0  0  0  0
 11 21  1  6  0  0  0
 11 36  1  0  0  0  0
 12 15  1  0  0  0  0
 12 17  1  0  0  0  0
 12 37  1  1  0  0  0
 13 22  1  6  0  0  0
 13 38  1  0  0  0  0
 14 23  1  0  0  0  0
 14 24  1  0  0  0  0
 15 19  1  0  0  0  0
 15 39  1  0  0  0  0
 15 40  1  0  0  0  0
 16 19  1  0  0  0  0
 16 20  1  0  0  0  0
 16 25  1  0  0  0  0
 16 26  1  1  0  0  0
 17 20  2  0  0  0  0
 17 28  1  0  0  0  0
 18 41  1  0  0  0  0
 18 42  1  0  0  0  0
 19 43  1  0  0  0  0
 19 44  1  0  0  0  0
 20 27  1  0  0  0  0
 21 29  1  0  0  0  0
 21 45  1  0  0  0  0
 21 46  1  0  0  0  0
 22 32  1  0  0  0  0
 22 47  1  0  0  0  0
 22 48  1  0  0  0  0
 23 52  1  0  0  0  0
 23 53  1  0  0  0  0
 23 54  1  0  0  0  0
 24 49  1  0  0  0  0
 24 50  1  0  0  0  0
 24 51  1  0  0  0  0
 25 30  1  1  0  0  0
 25 55  1  0  0  0  0
 26 56  1  0  0  0  0
 26 57  1  0  0  0  0
 26 58  1  0  0  0  0
 27 31  1  0  0  0  0
 27 59  1  0  0  0  0
 27 60  1  0  0  0  0
 28 61  1  0  0  0  0
 28 62  1  0  0  0  0
 28 63  1  0  0  0  0
 30 33  1  0  0  0  0
 30 34  2  0  0  0  0
 33 35  2  0  0  0  0
 33 65  1  0  0  0  0
 34 66  1  0  0  0  0
 35 69  1  0  0  0  0
M  END
> <PUBCHEM_COMPOUND_CID>
24892745

> <PUBCHEM_COMPOUND_CANONICALIZED>
1

> <PUBCHEM_CACTVS_COMPLEXITY>
924

> <PUBCHEM_CACTVS_HBOND_ACCEPTOR>
9

> <PUBCHEM_CACTVS_HBOND_DONOR>
3

> <PUBCHEM_CACTVS_ROTATABLE_BOND>
7

> <PUBCHEM_CACTVS_SUBSKEYS>
AAADcfB4PAAAAAAAAAAAAAAAAAAAASJAAAAkQAAAAAAAAACBgAAAGgAACAAAD1SgmAIyDIAABkCIAijSiAACCAAkIAAIiAEGCMgMNxYENQqCWSCl4BEIKYPK7PzPgAAAAAAAAAAAAAAAAAAAAAAAAAAAAA==

> <PUBCHEM_IUPAC_OPENEYE_NAME>
2-[(3R,4R,5S)-4-[(1R,6S,8aR)-1-(3-furyl)-5,8a-dimethyl-3-oxo-4,6,7,8-tetrahydro-1H-isochromen-6-yl]-5-(carboxymethyl)-4-(hydroxymethyl)-2,2-dimethyl-tetrahydrofuran-3-yl]acetic acid

> <PUBCHEM_IUPAC_CAS_NAME>
2-[(3R,4R,5S)-4-[(1R,6S,8aR)-1-(3-furanyl)-5,8a-dimethyl-3-oxo-4,6,7,8-tetrahydro-1H-2-benzopyran-6-yl]-5-(carboxymethyl)-4-(hydroxymethyl)-2,2-dimethyl-3-oxolanyl]acetic acid

> <PUBCHEM_IUPAC_NAME>
2-[(3R,4R,5S)-4-[(1R,6S,8aR)-1-(furan-3-yl)-5,8a-dimethyl-3-oxo-4,6,7,8-tetrahydro-1H-isochromen-6-yl]-5-(carboxymethyl)-4-(hydroxymethyl)-2,2-dimethyloxolan-3-yl]acetic acid

> <PUBCHEM_IUPAC_SYSTEMATIC_NAME>
2-[(3R,4R,5S)-4-[(1R,6S,8aR)-1-(furan-3-yl)-5,8a-dimethyl-3-oxidanylidene-4,6,7,8-tetrahydro-1H-isochromen-6-yl]-4-(hydroxymethyl)-5-(2-hydroxy-2-oxoethyl)-2,2-dimethyl-oxolan-3-yl]ethanoic acid

> <PUBCHEM_IUPAC_TRADITIONAL_NAME>
2-[(3R,4R,5S)-4-[(1R,6S,8aR)-1-(3-furyl)-3-keto-5,8a-dimethyl-4,6,7,8-tetrahydro-1H-isochromen-6-yl]-5-(carboxymethyl)-2,2-dimethyl-4-methylol-tetrahydrofuran-3-yl]acetic acid

> <PUBCHEM_IUPAC_INCHI>
InChI=1S/C26H34O9/c1-14-16(5-7-25(4)17(14)9-22(32)34-23(25)15-6-8-33-12-15)26(13-27)18(10-20(28)29)24(2,3)35-19(26)11-21(30)31/h6,8,12,16,18-19,23,27H,5,7,9-11,13H2,1-4H3,(H,28,29)(H,30,31)/t16-,18-,19-,23-,25+,26+/m0/s1

> <PUBCHEM_IUPAC_INCHIKEY>
BQKCYOXFBVKBDA-DYNITIQCSA-N

> <PUBCHEM_XLOGP3_AA>
1

> <PUBCHEM_EXACT_MASS>
490.220283

> <PUBCHEM_MOLECULAR_FORMULA>
C26H34O9

> <PUBCHEM_MOLECULAR_WEIGHT>
490.54276

> <PUBCHEM_OPENEYE_CAN_SMILES>
CC1=C2CC(=O)OC(C2(CCC1C3(C(C(OC3CC(=O)O)(C)C)CC(=O)O)CO)C)C4=COC=C4

> <PUBCHEM_OPENEYE_ISO_SMILES>
CC1=C2CC(=O)O[C@H]([C@@]2(CC[C@@H]1[C@@]3([C@H](C(O[C@H]3CC(=O)O)(C)C)CC(=O)O)CO)C)C4=COC=C4

> <PUBCHEM_CACTVS_TPSA>
144

> <PUBCHEM_MONOISOTOPIC_WEIGHT>
490.220283

> <PUBCHEM_TOTAL_CHARGE>
0

> <PUBCHEM_HEAVY_ATOM_COUNT>
35

> <PUBCHEM_ATOM_DEF_STEREO_COUNT>
6

> <PUBCHEM_ATOM_UDEF_STEREO_COUNT>
0

> <PUBCHEM_BOND_DEF_STEREO_COUNT>
0

> <PUBCHEM_BOND_UDEF_STEREO_COUNT>
0

> <PUBCHEM_ISOTOPIC_ATOM_COUNT>
0

> <PUBCHEM_COMPONENT_COUNT>
1

> <PUBCHEM_CACTVS_TAUTO_COUNT>
2

> <PUBCHEM_COORDINATE_TYPE>
1
5
255

> <PUBCHEM_BONDANNOTATIONS>
10  18  6
11  21  6
12  37  5
13  22  6
16  26  5
25  30  5
30  33  8
30  34  8
33  35  8
9  34  8
9  35  8

$$$$

