3979
  -OEChem-06251223482D

 71 73  0     1  0  0  0  0  0999 V2000
    6.3770    5.3510    0.0000 O   0  0  0  0  0  0  0  0  0  0  0  0
    2.5369    3.7685    0.0000 O   0  0  0  0  0  0  0  0  0  0  0  0
    6.9747    2.7837    0.0000 N   0  0  3  0  0  0  0  0  0  0  0  0
    4.3572    0.3306    0.0000 N   0  0  0  0  0  0  0  0  0  0  0  0
    5.0350    4.4113    0.0000 N   0  0  0  0  0  0  0  0  0  0  0  0
    5.9537   -1.1071    0.0000 C   0  0  3  0  0  0  0  0  0  0  0  0
    5.5350    1.5756    0.0000 C   0  0  0  0  0  0  0  0  0  0  0  0
    6.1311   -0.1230    0.0000 C   0  0  0  0  0  0  0  0  0  0  0  0
    6.8011    3.7685    0.0000 C   0  0  3  0  0  0  0  0  0  0  0  0
    5.3384    0.5527    0.0000 C   0  0  0  0  0  0  0  0  0  0  0  0
    6.4747    1.9176    0.0000 C   0  0  0  0  0  0  0  0  0  0  0  0
    4.5953    1.9176    0.0000 C   0  0  0  0  0  0  0  0  0  0  0  0
    4.0953    2.7837    0.0000 C   0  0  0  0  0  0  0  0  0  0  0  0
    4.2690    3.7685    0.0000 C   0  0  3  0  0  0  0  0  0  0  0  0
    7.6671    4.2685    0.0000 C   0  0  0  0  0  0  0  0  0  0  0  0
    5.7762   -2.0912    0.0000 C   0  0  0  0  0  0  0  0  0  0  0  0
    7.1099    0.2333    0.0000 C   0  0  0  0  0  0  0  0  0  0  0  0
    7.2829    1.2605    0.0000 C   0  0  0  0  0  0  0  0  0  0  0  0
    6.0350    4.4113    0.0000 C   0  0  0  0  0  0  0  0  0  0  0  0
    3.8762    1.2142    0.0000 C   0  0  0  0  0  0  0  0  0  0  0  0
    4.9695   -0.9296    0.0000 C   0  0  0  0  0  0  0  0  0  0  0  0
    6.9378   -1.2845    0.0000 C   0  0  0  0  0  0  0  0  0  0  0  0
    6.5398   -2.7370    0.0000 C   0  0  0  0  0  0  0  0  0  0  0  0
    7.9595    2.6100    0.0000 C   0  0  0  0  0  0  0  0  0  0  0  0
    3.4030    4.2685    0.0000 C   0  0  0  0  0  0  0  0  0  0  0  0
    7.6671    5.2685    0.0000 C   0  0  0  0  0  0  0  0  0  0  0  0
    8.5331    3.7685    0.0000 C   0  0  0  0  0  0  0  0  0  0  0  0
    6.3623   -3.7211    0.0000 C   0  0  0  0  0  0  0  0  0  0  0  0
    7.2762   -2.2255    0.0000 C   0  0  0  0  0  0  0  0  0  0  0  0
    7.1259   -4.3668    0.0000 C   0  0  0  0  0  0  0  0  0  0  0  0
    6.9485   -5.3510    0.0000 C   0  0  0  0  0  0  0  0  0  0  0  0
    8.0669   -4.0284    0.0000 C   0  0  0  0  0  0  0  0  0  0  0  0
    7.3630    3.5064    0.0000 H   0  0  0  0  0  0  0  0  0  0  0  0
    3.5413    3.0619    0.0000 H   0  0  0  0  0  0  0  0  0  0  0  0
    3.6699    2.3327    0.0000 H   0  0  0  0  0  0  0  0  0  0  0  0
    4.2150    4.3861    0.0000 H   0  0  0  0  0  0  0  0  0  0  0  0
    7.6671    3.6485    0.0000 H   0  0  0  0  0  0  0  0  0  0  0  0
    5.1944   -1.8769    0.0000 H   0  0  0  0  0  0  0  0  0  0  0  0
    5.4642   -2.6270    0.0000 H   0  0  0  0  0  0  0  0  0  0  0  0
    7.5864   -0.1634    0.0000 H   0  0  0  0  0  0  0  0  0  0  0  0
    4.1017   -0.2343    0.0000 H   0  0  0  0  0  0  0  0  0  0  0  0
    7.8630    1.4792    0.0000 H   0  0  0  0  0  0  0  0  0  0  0  0
    3.2631    1.3062    0.0000 H   0  0  0  0  0  0  0  0  0  0  0  0
    5.0796   -0.3195    0.0000 H   0  0  0  0  0  0  0  0  0  0  0  0
    4.3594   -0.8196    0.0000 H   0  0  0  0  0  0  0  0  0  0  0  0
    4.8595   -1.5398    0.0000 H   0  0  0  0  0  0  0  0  0  0  0  0
    4.8230    4.9939    0.0000 H   0  0  0  0  0  0  0  0  0  0  0  0
    7.3382   -0.8111    0.0000 H   0  0  0  0  0  0  0  0  0  0  0  0
    7.1216   -2.9512    0.0000 H   0  0  0  0  0  0  0  0  0  0  0  0
    6.8518   -2.2012    0.0000 H   0  0  0  0  0  0  0  0  0  0  0  0
    7.8519    1.9994    0.0000 H   0  0  0  0  0  0  0  0  0  0  0  0
    8.5701    2.5024    0.0000 H   0  0  0  0  0  0  0  0  0  0  0  0
    8.0672    3.2206    0.0000 H   0  0  0  0  0  0  0  0  0  0  0  0
    3.8015    4.7434    0.0000 H   0  0  0  0  0  0  0  0  0  0  0  0
    3.0044    4.7434    0.0000 H   0  0  0  0  0  0  0  0  0  0  0  0
    8.2231    3.2315    0.0000 H   0  0  0  0  0  0  0  0  0  0  0  0
    9.0701    3.4585    0.0000 H   0  0  0  0  0  0  0  0  0  0  0  0
    8.8431    4.3054    0.0000 H   0  0  0  0  0  0  0  0  0  0  0  0
    8.2871    5.2685    0.0000 H   0  0  0  0  0  0  0  0  0  0  0  0
    7.6671    5.8885    0.0000 H   0  0  0  0  0  0  0  0  0  0  0  0
    7.0471    5.2685    0.0000 H   0  0  0  0  0  0  0  0  0  0  0  0
    5.7789   -3.9309    0.0000 H   0  0  0  0  0  0  0  0  0  0  0  0
    6.8758   -2.6989    0.0000 H   0  0  0  0  0  0  0  0  0  0  0  0
    7.8864   -2.3356    0.0000 H   0  0  0  0  0  0  0  0  0  0  0  0
    2.0000    4.0785    0.0000 H   0  0  0  0  0  0  0  0  0  0  0  0
    8.2767   -4.6118    0.0000 H   0  0  0  0  0  0  0  0  0  0  0  0
    8.6503   -3.8186    0.0000 H   0  0  0  0  0  0  0  0  0  0  0  0
    7.8571   -3.4450    0.0000 H   0  0  0  0  0  0  0  0  0  0  0  0
    6.3383   -5.2409    0.0000 H   0  0  0  0  0  0  0  0  0  0  0  0
    6.8384   -5.9611    0.0000 H   0  0  0  0  0  0  0  0  0  0  0  0
    7.5586   -5.4610    0.0000 H   0  0  0  0  0  0  0  0  0  0  0  0
  1 19  2  0  0  0  0
  2 25  1  0  0  0  0
  2 65  1  0  0  0  0
  3  9  1  0  0  0  0
  3 11  1  0  0  0  0
  3 24  1  0  0  0  0
  4 10  1  0  0  0  0
  4 20  1  0  0  0  0
  4 41  1  0  0  0  0
  5 14  1  0  0  0  0
  5 19  1  0  0  0  0
  5 47  1  0  0  0  0
  6  8  1  0  0  0  0
  6 16  1  0  0  0  0
  6 21  1  0  0  0  0
  6 22  1  0  0  0  0
  7 10  1  0  0  0  0
  7 11  2  0  0  0  0
  7 12  1  0  0  0  0
  8 10  2  0  0  0  0
  8 17  1  0  0  0  0
  9 15  1  0  0  0  0
  9 19  1  0  0  0  0
  9 33  1  0  0  0  0
 11 18  1  0  0  0  0
 12 13  1  0  0  0  0
 12 20  2  0  0  0  0
 13 14  1  0  0  0  0
 13 34  1  0  0  0  0
 13 35  1  0  0  0  0
 14 25  1  0  0  0  0
 14 36  1  0  0  0  0
 15 26  1  0  0  0  0
 15 27  1  0  0  0  0
 15 37  1  0  0  0  0
 16 23  1  0  0  0  0
 16 38  1  0  0  0  0
 16 39  1  0  0  0  0
 17 18  2  0  0  0  0
 17 40  1  0  0  0  0
 18 42  1  0  0  0  0
 20 43  1  0  0  0  0
 21 44  1  0  0  0  0
 21 45  1  0  0  0  0
 21 46  1  0  0  0  0
 22 29  2  0  0  0  0
 22 48  1  0  0  0  0
 23 28  1  0  0  0  0
 23 49  1  0  0  0  0
 23 50  1  0  0  0  0
 24 51  1  0  0  0  0
 24 52  1  0  0  0  0
 24 53  1  0  0  0  0
 25 54  1  0  0  0  0
 25 55  1  0  0  0  0
 26 59  1  0  0  0  0
 26 60  1  0  0  0  0
 26 61  1  0  0  0  0
 27 56  1  0  0  0  0
 27 57  1  0  0  0  0
 27 58  1  0  0  0  0
 28 30  2  0  0  0  0
 28 62  1  0  0  0  0
 29 63  1  0  0  0  0
 29 64  1  0  0  0  0
 30 31  1  0  0  0  0
 30 32  1  0  0  0  0
 31 69  1  0  0  0  0
 31 70  1  0  0  0  0
 31 71  1  0  0  0  0
 32 66  1  0  0  0  0
 32 67  1  0  0  0  0
 32 68  1  0  0  0  0
M  END
> <PUBCHEM_COMPOUND_CID>
3979

> <PUBCHEM_COMPOUND_CANONICALIZED>
1

> <PUBCHEM_CACTVS_COMPLEXITY>
701

> <PUBCHEM_CACTVS_HBOND_ACCEPTOR>
3

> <PUBCHEM_CACTVS_HBOND_DONOR>
3

> <PUBCHEM_CACTVS_ROTATABLE_BOND>
7

> <PUBCHEM_CACTVS_SUBSKEYS>
AAADcfB7MAAAAAAAAAAAAAAAAAAAAWAAAAAwAAAAAAAAAFgB8AAAHgAQCAAADyjhngY+wPPJkgCoAzV3VACCgCAxAiAI2aGoZJgKcPLA0fGUZAhklgDYyAeQ0PIPiAACAAQCAAAQAAQACAQAAAAAAAAAAA==

> <PUBCHEM_IUPAC_INCHI>
InChI=1S/C27H39N3O2/c1-8-27(6,13-9-10-17(2)3)21-11-12-22-23-19(15-28-24(21)23)14-20(16-31)29-26(32)25(18(4)5)30(22)7/h8,10-12,15,18,20,25,28,31H,1,9,13-14,16H2,2-7H3,(H,29,32)

> <PUBCHEM_IUPAC_INCHIKEY>
KISDGNGREAJPQR-UHFFFAOYSA-N

> <PUBCHEM_XLOGP3_AA>
6.2

> <PUBCHEM_EXACT_MASS>
437.304228

> <PUBCHEM_MOLECULAR_FORMULA>
C27H39N3O2

> <PUBCHEM_MOLECULAR_WEIGHT>
437.61746

> <PUBCHEM_OPENEYE_CAN_SMILES>
CC(C)C1C(=O)NC(CC2=CNC3=C(C=CC(=C23)N1C)C(C)(CCC=C(C)C)C=C)CO

> <PUBCHEM_OPENEYE_ISO_SMILES>
CC(C)C1C(=O)NC(CC2=CNC3=C(C=CC(=C23)N1C)C(C)(CCC=C(C)C)C=C)CO

> <PUBCHEM_CACTVS_TPSA>
68.4

> <PUBCHEM_MONOISOTOPIC_WEIGHT>
437.304228

> <PUBCHEM_TOTAL_CHARGE>
0

> <PUBCHEM_HEAVY_ATOM_COUNT>
32

> <PUBCHEM_ATOM_DEF_STEREO_COUNT>
0

> <PUBCHEM_ATOM_UDEF_STEREO_COUNT>
3

> <PUBCHEM_BOND_DEF_STEREO_COUNT>
0

> <PUBCHEM_BOND_UDEF_STEREO_COUNT>
0

> <PUBCHEM_ISOTOPIC_ATOM_COUNT>
0

> <PUBCHEM_COMPONENT_COUNT>
1

> <PUBCHEM_CACTVS_TAUTO_COUNT>
3

> <PUBCHEM_COORDINATE_TYPE>
1
5
255

> <PUBCHEM_BONDANNOTATIONS>
11  18  8
12  20  8
14  25  3
17  18  8
4  10  8
4  20  8
6  21  3
7  10  8
7  11  8
7  12  8
8  10  8
8  17  8
9  15  3

$$$$

