91758
  -OEChem-07051213112D

 34 34  0     1  0  0  0  0  0999 V2000
    3.7601    0.7694    0.0000 S   0  0  0  0  0  0  0  0  0  0  0  0
    3.2601   -2.7694    0.0000 S   0  0  0  0  0  0  0  0  0  0  0  0
    3.7601   -0.2306    0.0000 P   0  0  3  0  0  0  0  0  0  0  0  0
    4.7601   -0.2306    0.0000 O   0  0  0  0  0  0  0  0  0  0  0  0
    2.7601   -0.2306    0.0000 O   0  0  0  0  0  0  0  0  0  0  0  0
    2.0000   -1.5094    0.0000 O   0  0  0  0  0  0  0  0  0  0  0  0
    3.7601   -1.2306    0.0000 N   0  0  0  0  0  0  0  0  0  0  0  0
    4.5691   -1.8184    0.0000 C   0  0  0  0  0  0  0  0  0  0  0  0
    2.8940    1.2694    0.0000 C   0  0  3  0  0  0  0  0  0  0  0  0
    4.2601   -2.7694    0.0000 C   0  0  0  0  0  0  0  0  0  0  0  0
    2.8940    2.2694    0.0000 C   0  0  0  0  0  0  0  0  0  0  0  0
    2.9511   -1.8184    0.0000 C   0  0  0  0  0  0  0  0  0  0  0  0
    2.0280    0.7694    0.0000 C   0  0  0  0  0  0  0  0  0  0  0  0
    3.7601    2.7694    0.0000 C   0  0  0  0  0  0  0  0  0  0  0  0
    5.2601    0.6354    0.0000 C   0  0  0  0  0  0  0  0  0  0  0  0
    6.2601    0.6354    0.0000 C   0  0  0  0  0  0  0  0  0  0  0  0
    5.1355   -2.0705    0.0000 H   0  0  0  0  0  0  0  0  0  0  0  0
    4.8791   -1.2814    0.0000 H   0  0  0  0  0  0  0  0  0  0  0  0
    2.8940    0.4194    0.0000 H   0  0  0  0  0  0  0  0  0  0  0  0
    4.1953   -3.3860    0.0000 H   0  0  0  0  0  0  0  0  0  0  0  0
    4.8665   -2.8983    0.0000 H   0  0  0  0  0  0  0  0  0  0  0  0
    2.6820    2.8520    0.0000 H   0  0  0  0  0  0  0  0  0  0  0  0
    2.2835    2.1618    0.0000 H   0  0  0  0  0  0  0  0  0  0  0  0
    1.7180    1.3064    0.0000 H   0  0  0  0  0  0  0  0  0  0  0  0
    1.4911    0.4594    0.0000 H   0  0  0  0  0  0  0  0  0  0  0  0
    2.3380    0.2325    0.0000 H   0  0  0  0  0  0  0  0  0  0  0  0
    4.0701    2.2325    0.0000 H   0  0  0  0  0  0  0  0  0  0  0  0
    4.2970    3.0794    0.0000 H   0  0  0  0  0  0  0  0  0  0  0  0
    3.4501    3.3064    0.0000 H   0  0  0  0  0  0  0  0  0  0  0  0
    5.3677    1.2460    0.0000 H   0  0  0  0  0  0  0  0  0  0  0  0
    4.6775    0.8475    0.0000 H   0  0  0  0  0  0  0  0  0  0  0  0
    6.2601    0.0154    0.0000 H   0  0  0  0  0  0  0  0  0  0  0  0
    6.8801    0.6354    0.0000 H   0  0  0  0  0  0  0  0  0  0  0  0
    6.2601    1.2554    0.0000 H   0  0  0  0  0  0  0  0  0  0  0  0
  1  3  1  0  0  0  0
  1  9  1  0  0  0  0
  2 10  1  0  0  0  0
  2 12  1  0  0  0  0
  3  4  1  0  0  0  0
  3  5  2  0  0  0  0
  3  7  1  0  0  0  0
  4 15  1  0  0  0  0
  6 12  2  0  0  0  0
  7  8  1  0  0  0  0
  7 12  1  0  0  0  0
  8 10  1  0  0  0  0
  8 17  1  0  0  0  0
  8 18  1  0  0  0  0
  9 11  1  0  0  0  0
  9 13  1  0  0  0  0
  9 19  1  0  0  0  0
 10 20  1  0  0  0  0
 10 21  1  0  0  0  0
 11 14  1  0  0  0  0
 11 22  1  0  0  0  0
 11 23  1  0  0  0  0
 13 24  1  0  0  0  0
 13 25  1  0  0  0  0
 13 26  1  0  0  0  0
 14 27  1  0  0  0  0
 14 28  1  0  0  0  0
 14 29  1  0  0  0  0
 15 16  1  0  0  0  0
 15 30  1  0  0  0  0
 15 31  1  0  0  0  0
 16 32  1  0  0  0  0
 16 33  1  0  0  0  0
 16 34  1  0  0  0  0
M  END
> <PUBCHEM_COMPOUND_CID>
91758

> <PUBCHEM_COMPOUND_CANONICALIZED>
1

> <PUBCHEM_CACTVS_COMPLEXITY>
301

> <PUBCHEM_CACTVS_HBOND_ACCEPTOR>
5

> <PUBCHEM_CACTVS_HBOND_DONOR>
0

> <PUBCHEM_CACTVS_ROTATABLE_BOND>
6

> <PUBCHEM_CACTVS_SUBSKEYS>
AAADceByMAJgAAAAAAAAAAAAAAAAAWAAAAAAAAAAAAAAAAAAAAAAHgQAgCAACADlwAaCAAIAARgIQAAAEIAAAABAABAAAAAIAAAAAAAAAAAAAAAABgAAAAAAAAAAAAAAAAAAAAAAAAAAAAAAAAAAAAAAAA==

> <PUBCHEM_IUPAC_OPENEYE_NAME>
3-[ethoxy(sec-butylsulfanyl)phosphoryl]thiazolidin-2-one

> <PUBCHEM_IUPAC_CAS_NAME>
3-[(butan-2-ylthio)-ethoxyphosphoryl]-2-thiazolidinone

> <PUBCHEM_IUPAC_NAME>
3-[butan-2-ylsulfanyl(ethoxy)phosphoryl]-1,3-thiazolidin-2-one

> <PUBCHEM_IUPAC_SYSTEMATIC_NAME>
3-[butan-2-ylsulfanyl(ethoxy)phosphoryl]-1,3-thiazolidin-2-one

> <PUBCHEM_IUPAC_TRADITIONAL_NAME>
3-[ethoxy-(sec-butylthio)phosphoryl]thiazolidin-2-one

> <PUBCHEM_IUPAC_INCHI>
InChI=1S/C9H18NO3PS2/c1-4-8(3)16-14(12,13-5-2)10-6-7-15-9(10)11/h8H,4-7H2,1-3H3

> <PUBCHEM_IUPAC_INCHIKEY>
DUFVKSUJRWYZQP-UHFFFAOYSA-N

> <PUBCHEM_XLOGP3_AA>
2

> <PUBCHEM_EXACT_MASS>
283.046572

> <PUBCHEM_MOLECULAR_FORMULA>
C9H18NO3PS2

> <PUBCHEM_MOLECULAR_WEIGHT>
283.347882

> <PUBCHEM_OPENEYE_CAN_SMILES>
CCC(C)SP(=O)(N1CCSC1=O)OCC

> <PUBCHEM_OPENEYE_ISO_SMILES>
CCC(C)SP(=O)(N1CCSC1=O)OCC

> <PUBCHEM_CACTVS_TPSA>
97.2

> <PUBCHEM_MONOISOTOPIC_WEIGHT>
283.046572

> <PUBCHEM_TOTAL_CHARGE>
0

> <PUBCHEM_HEAVY_ATOM_COUNT>
16

> <PUBCHEM_ATOM_DEF_STEREO_COUNT>
0

> <PUBCHEM_ATOM_UDEF_STEREO_COUNT>
2

> <PUBCHEM_BOND_DEF_STEREO_COUNT>
0

> <PUBCHEM_BOND_UDEF_STEREO_COUNT>
0

> <PUBCHEM_ISOTOPIC_ATOM_COUNT>
0

> <PUBCHEM_COMPONENT_COUNT>
1

> <PUBCHEM_CACTVS_TAUTO_COUNT>
1

> <PUBCHEM_COORDINATE_TYPE>
1
5
255

> <PUBCHEM_BONDANNOTATIONS>
3  1  3
9  19  3

$$$$

