56928150
  -OEChem-07051213152D

118125  0     1  0  0  0  0  0999 V2000
    4.3192   -3.1466    0.0000 O   0  0  0  0  0  0  0  0  0  0  0  0
    7.1319   -2.3770    0.0000 O   0  0  0  0  0  0  0  0  0  0  0  0
    8.6974    0.7682    0.0000 O   0  0  0  0  0  0  0  0  0  0  0  0
    6.0259    0.1948    0.0000 O   0  0  0  0  0  0  0  0  0  0  0  0
    8.6620    3.5003    0.0000 O   0  0  0  0  0  0  0  0  0  0  0  0
    5.5192   -5.9370    0.0000 O   0  0  0  0  0  0  0  0  0  0  0  0
   11.4154    2.9943    0.0000 O   0  0  0  0  0  0  0  0  0  0  0  0
    2.5163   -4.4780    0.0000 O   0  0  0  0  0  0  0  0  0  0  0  0
   11.3869    5.8853    0.0000 O   0  0  0  0  0  0  0  0  0  0  0  0
   14.2806    6.1027    0.0000 O   0  0  0  0  0  0  0  0  0  0  0  0
    3.0607   -9.7344    0.0000 O   0  0  0  0  0  0  0  0  0  0  0  0
    5.2627   -2.5244    0.0000 C   0  0  1  0  0  0  0  0  0  0  0  0
    6.2402   -2.9951    0.0000 C   0  0  2  0  0  0  0  0  0  0  0  0
    6.0957   -0.8445    0.0000 C   0  0  2  0  0  0  0  0  0  0  0  0
    7.0342   -1.2965    0.0000 C   0  0  1  0  0  0  0  0  0  0  0  0
    8.9199    1.7431    0.0000 C   0  0  1  0  0  0  0  0  0  0  0  0
    5.1899   -1.4418    0.0000 C   0  0  0  0  0  0  0  0  0  0  0  0
    4.3949   -4.2742    0.0000 C   0  0  2  0  0  0  0  0  0  0  0  0
    7.7964    0.3343    0.0000 C   0  0  2  0  0  0  0  0  0  0  0  0
    6.8954    0.7682    0.0000 C   0  0  1  0  0  0  0  0  0  0  0  0
    5.4132   -4.7645    0.0000 C   0  0  1  0  0  0  0  0  0  0  0  0
    8.2964    2.5250    0.0000 C   0  0  2  0  0  0  0  0  0  0  0  0
    7.8903   -0.7031    0.0000 C   0  0  0  0  0  0  0  0  0  0  0  0
    6.3420   -4.1207    0.0000 C   0  0  0  0  0  0  0  0  0  0  0  0
   10.3402    2.8491    0.0000 C   0  0  1  0  0  0  0  0  0  0  0  0
    9.9522    1.8825    0.0000 C   0  0  0  0  0  0  0  0  0  0  0  0
    9.6907    3.6635    0.0000 C   0  0  1  0  0  0  0  0  0  0  0  0
    6.6729    1.7431    0.0000 C   0  0  0  0  0  0  0  0  0  0  0  0
    7.2964    2.5250    0.0000 C   0  0  0  0  0  0  0  0  0  0  0  0
    3.4122   -4.9222    0.0000 C   0  0  2  0  0  0  0  0  0  0  0  0
    4.3617   -2.0905    0.0000 C   0  0  0  0  0  0  0  0  0  0  0  0
   10.0715    4.6795    0.0000 C   0  0  0  0  0  0  0  0  0  0  0  0
    3.4911   -6.0968    0.0000 C   0  0  0  0  0  0  0  0  0  0  0  0
    9.5434    0.9613    0.0000 C   0  0  0  0  0  0  0  0  0  0  0  0
    4.5517   -6.6076    0.0000 C   0  0  2  0  0  0  0  0  0  0  0  0
    3.4940   -3.8403    0.0000 C   0  0  0  0  0  0  0  0  0  0  0  0
   11.1431    4.8495    0.0000 C   0  0  1  0  0  0  0  0  0  0  0  0
   11.8196    4.0012    0.0000 C   0  0  1  0  0  0  0  0  0  0  0  0
   10.9637    2.0673    0.0000 C   0  0  0  0  0  0  0  0  0  0  0  0
    4.6303   -7.6045    0.0000 C   0  0  0  0  0  0  0  0  0  0  0  0
   12.8837    4.0084    0.0000 C   0  0  0  0  0  0  0  0  0  0  0  0
   12.3475    6.3432    0.0000 C   0  0  3  0  0  0  0  0  0  0  0  0
    3.8062   -8.1710    0.0000 C   0  0  0  0  0  0  0  0  0  0  0  0
   13.3057    5.8802    0.0000 C   0  0  2  0  0  0  0  0  0  0  0  0
   13.5439    4.8430    0.0000 C   0  0  0  0  0  0  0  0  0  0  0  0
    3.8848   -9.1679    0.0000 C   0  0  0  0  0  0  0  0  0  0  0  0
   13.7395    6.7811    0.0000 C   0  0  0  0  0  0  0  0  0  0  0  0
   12.3502    7.3432    0.0000 C   0  0  0  0  0  0  0  0  0  0  0  0
   11.4855    7.8455    0.0000 C   0  0  0  0  0  0  0  0  0  0  0  0
   10.6182    7.3478    0.0000 C   0  0  0  0  0  0  0  0  0  0  0  0
    9.7535    7.8502    0.0000 C   0  0  0  0  0  0  0  0  0  0  0  0
    9.7562    8.8502    0.0000 C   0  0  0  0  0  0  0  0  0  0  0  0
    8.8915    9.3525    0.0000 C   0  0  0  0  0  0  0  0  0  0  0  0
    8.8942   10.3525    0.0000 C   0  0  0  0  0  0  0  0  0  0  0  0
    7.0102   -3.3551    0.0000 H   0  0  0  0  0  0  0  0  0  0  0  0
    5.3342   -0.4669    0.0000 H   0  0  0  0  0  0  0  0  0  0  0  0
    7.8042   -1.6564    0.0000 H   0  0  0  0  0  0  0  0  0  0  0  0
    4.9422   -0.8735    0.0000 H   0  0  0  0  0  0  0  0  0  0  0  0
    4.5876   -1.5886    0.0000 H   0  0  0  0  0  0  0  0  0  0  0  0
    8.5358   -0.0850    0.0000 H   0  0  0  0  0  0  0  0  0  0  0  0
    6.1066    1.0848    0.0000 H   0  0  0  0  0  0  0  0  0  0  0  0
    6.1832   -5.1245    0.0000 H   0  0  0  0  0  0  0  0  0  0  0  0
    7.8122    3.2236    0.0000 H   0  0  0  0  0  0  0  0  0  0  0  0
    8.1511   -1.2656    0.0000 H   0  0  0  0  0  0  0  0  0  0  0  0
    8.4891   -0.5424    0.0000 H   0  0  0  0  0  0  0  0  0  0  0  0
    6.6028   -4.6832    0.0000 H   0  0  0  0  0  0  0  0  0  0  0  0
    6.9408   -3.9600    0.0000 H   0  0  0  0  0  0  0  0  0  0  0  0
    9.9288    1.2629    0.0000 H   0  0  0  0  0  0  0  0  0  0  0  0
   10.5586    1.7534    0.0000 H   0  0  0  0  0  0  0  0  0  0  0  0
    9.1531    4.3219    0.0000 H   0  0  0  0  0  0  0  0  0  0  0  0
    6.2864    2.2279    0.0000 H   0  0  0  0  0  0  0  0  0  0  0  0
    6.1143    1.4741    0.0000 H   0  0  0  0  0  0  0  0  0  0  0  0
    7.4344    3.1294    0.0000 H   0  0  0  0  0  0  0  0  0  0  0  0
    6.7378    2.7940    0.0000 H   0  0  0  0  0  0  0  0  0  0  0  0
    3.3742   -4.3034    0.0000 H   0  0  0  0  0  0  0  0  0  0  0  0
    4.6307   -1.5319    0.0000 H   0  0  0  0  0  0  0  0  0  0  0  0
    3.8031   -1.8215    0.0000 H   0  0  0  0  0  0  0  0  0  0  0  0
    4.0927   -2.6491    0.0000 H   0  0  0  0  0  0  0  0  0  0  0  0
   10.0806    5.2994    0.0000 H   0  0  0  0  0  0  0  0  0  0  0  0
    9.4623    4.7945    0.0000 H   0  0  0  0  0  0  0  0  0  0  0  0
    2.8745   -6.0319    0.0000 H   0  0  0  0  0  0  0  0  0  0  0  0
    3.3216   -6.6932    0.0000 H   0  0  0  0  0  0  0  0  0  0  0  0
    9.0587    0.5747    0.0000 H   0  0  0  0  0  0  0  0  0  0  0  0
    9.9300    0.4766    0.0000 H   0  0  0  0  0  0  0  0  0  0  0  0
   10.0281    1.3479    0.0000 H   0  0  0  0  0  0  0  0  0  0  0  0
    5.1119   -6.8734    0.0000 H   0  0  0  0  0  0  0  0  0  0  0  0
    3.7630   -3.2817    0.0000 H   0  0  0  0  0  0  0  0  0  0  0  0
    2.9354   -3.5713    0.0000 H   0  0  0  0  0  0  0  0  0  0  0  0
    3.2250   -4.3989    0.0000 H   0  0  0  0  0  0  0  0  0  0  0  0
   10.5647    5.4723    0.0000 H   0  0  0  0  0  0  0  0  0  0  0  0
   12.2981    3.2987    0.0000 H   0  0  0  0  0  0  0  0  0  0  0  0
   10.4789    1.6807    0.0000 H   0  0  0  0  0  0  0  0  0  0  0  0
   11.3502    1.5826    0.0000 H   0  0  0  0  0  0  0  0  0  0  0  0
   11.4484    2.4539    0.0000 H   0  0  0  0  0  0  0  0  0  0  0  0
    4.8875   -8.1686    0.0000 H   0  0  0  0  0  0  0  0  0  0  0  0
    5.2305   -7.4492    0.0000 H   0  0  0  0  0  0  0  0  0  0  0  0
    2.0000   -4.8213    0.0000 H   0  0  0  0  0  0  0  0  0  0  0  0
   13.1557    3.4512    0.0000 H   0  0  0  0  0  0  0  0  0  0  0  0
   11.8237    6.6748    0.0000 H   0  0  0  0  0  0  0  0  0  0  0  0
    3.5491   -7.6068    0.0000 H   0  0  0  0  0  0  0  0  0  0  0  0
    3.2060   -8.3263    0.0000 H   0  0  0  0  0  0  0  0  0  0  0  0
   14.1487    4.7067    0.0000 H   0  0  0  0  0  0  0  0  0  0  0  0
    4.1420   -9.7320    0.0000 H   0  0  0  0  0  0  0  0  0  0  0  0
    4.4850   -9.0126    0.0000 H   0  0  0  0  0  0  0  0  0  0  0  0
   14.2981    6.5121    0.0000 H   0  0  0  0  0  0  0  0  0  0  0  0
   14.0086    7.3397    0.0000 H   0  0  0  0  0  0  0  0  0  0  0  0
   13.1809    7.0502    0.0000 H   0  0  0  0  0  0  0  0  0  0  0  0
   12.8880    7.6517    0.0000 H   0  0  0  0  0  0  0  0  0  0  0  0
   14.7023    5.6482    0.0000 H   0  0  0  0  0  0  0  0  0  0  0  0
   11.4872    8.4655    0.0000 H   0  0  0  0  0  0  0  0  0  0  0  0
    3.1095  -10.3525    0.0000 H   0  0  0  0  0  0  0  0  0  0  0  0
   10.6165    6.7278    0.0000 H   0  0  0  0  0  0  0  0  0  0  0  0
    9.2157    7.5416    0.0000 H   0  0  0  0  0  0  0  0  0  0  0  0
   10.3665    8.7409    0.0000 H   0  0  0  0  0  0  0  0  0  0  0  0
    9.9698    9.4322    0.0000 H   0  0  0  0  0  0  0  0  0  0  0  0
    8.3537    9.0439    0.0000 H   0  0  0  0  0  0  0  0  0  0  0  0
    9.4320   10.6610    0.0000 H   0  0  0  0  0  0  0  0  0  0  0  0
    8.3581   10.6639    0.0000 H   0  0  0  0  0  0  0  0  0  0  0  0
  1 12  1  0  0  0  0
  1 18  1  0  0  0  0
  2 13  1  0  0  0  0
  2 15  1  0  0  0  0
  3 16  1  0  0  0  0
  3 19  1  0  0  0  0
  4 14  1  0  0  0  0
  4 20  1  0  0  0  0
  5 22  1  0  0  0  0
  5 27  1  0  0  0  0
  6 21  1  0  0  0  0
  6 35  1  0  0  0  0
  7 25  1  0  0  0  0
  7 38  1  0  0  0  0
 30  8  1  6  0  0  0
  8 97  1  0  0  0  0
  9 37  1  0  0  0  0
  9 42  1  0  0  0  0
 44 10  1  1  0  0  0
 10109  1  0  0  0  0
 11 46  1  0  0  0  0
 11111  1  0  0  0  0
 12 13  1  0  0  0  0
 12 17  1  0  0  0  0
 12 31  1  1  0  0  0
 13 24  1  0  0  0  0
 13 55  1  6  0  0  0
 14 15  1  0  0  0  0
 14 17  1  0  0  0  0
 14 56  1  1  0  0  0
 15 23  1  0  0  0  0
 15 57  1  6  0  0  0
 16 22  1  0  0  0  0
 16 26  1  0  0  0  0
 16 34  1  6  0  0  0
 17 58  1  0  0  0  0
 17 59  1  0  0  0  0
 18 21  1  0  0  0  0
 18 30  1  0  0  0  0
 18 36  1  1  0  0  0
 19 20  1  0  0  0  0
 19 23  1  0  0  0  0
 19 60  1  6  0  0  0
 20 28  1  0  0  0  0
 20 61  1  1  0  0  0
 21 24  1  0  0  0  0
 21 62  1  6  0  0  0
 22 29  1  0  0  0  0
 22 63  1  1  0  0  0
 23 64  1  0  0  0  0
 23 65  1  0  0  0  0
 24 66  1  0  0  0  0
 24 67  1  0  0  0  0
 25 26  1  0  0  0  0
 25 27  1  0  0  0  0
 25 39  1  6  0  0  0
 26 68  1  0  0  0  0
 26 69  1  0  0  0  0
 27 32  1  0  0  0  0
 27 70  1  1  0  0  0
 28 29  1  0  0  0  0
 28 71  1  0  0  0  0
 28 72  1  0  0  0  0
 29 73  1  0  0  0  0
 29 74  1  0  0  0  0
 30 33  1  0  0  0  0
 30 75  1  0  0  0  0
 31 76  1  0  0  0  0
 31 77  1  0  0  0  0
 31 78  1  0  0  0  0
 32 37  1  0  0  0  0
 32 79  1  0  0  0  0
 32 80  1  0  0  0  0
 33 35  1  0  0  0  0
 33 81  1  0  0  0  0
 33 82  1  0  0  0  0
 34 83  1  0  0  0  0
 34 84  1  0  0  0  0
 34 85  1  0  0  0  0
 35 40  1  1  0  0  0
 35 86  1  0  0  0  0
 36 87  1  0  0  0  0
 36 88  1  0  0  0  0
 36 89  1  0  0  0  0
 37 38  1  0  0  0  0
 37 90  1  1  0  0  0
 38 41  1  0  0  0  0
 38 91  1  6  0  0  0
 39 92  1  0  0  0  0
 39 93  1  0  0  0  0
 39 94  1  0  0  0  0
 40 43  1  0  0  0  0
 40 95  1  0  0  0  0
 40 96  1  0  0  0  0
 41 45  2  0  0  0  0
 41 98  1  0  0  0  0
 42 44  1  0  0  0  0
 42 48  1  0  0  0  0
 42 99  1  0  0  0  0
 43 46  1  0  0  0  0
 43100  1  0  0  0  0
 43101  1  0  0  0  0
 44 45  1  0  0  0  0
 44 47  1  0  0  0  0
 45102  1  0  0  0  0
 46103  1  0  0  0  0
 46104  1  0  0  0  0
 47105  1  0  0  0  0
 47106  1  0  0  0  0
 47107  1  0  0  0  0
 48 49  2  0  0  0  0
 48108  1  0  0  0  0
 49 50  1  0  0  0  0
 49110  1  0  0  0  0
 50 51  2  0  0  0  0
 50112  1  0  0  0  0
 51 52  1  0  0  0  0
 51113  1  0  0  0  0
 52 53  1  0  0  0  0
 52114  1  0  0  0  0
 52115  1  0  0  0  0
 53 54  2  0  0  0  0
 53116  1  0  0  0  0
 54117  1  0  0  0  0
 54118  1  0  0  0  0
M  END
> <PUBCHEM_COMPOUND_CID>
56928150

> <PUBCHEM_COMPOUND_CANONICALIZED>
1

> <PUBCHEM_CACTVS_COMPLEXITY>
1470

> <PUBCHEM_CACTVS_HBOND_ACCEPTOR>
11

> <PUBCHEM_CACTVS_HBOND_DONOR>
3

> <PUBCHEM_CACTVS_ROTATABLE_BOND>
7

> <PUBCHEM_CACTVS_SUBSKEYS>
AAADcfB8PAAAAAAAAAAAAAAAAAAAAAAAAAAkSJEiRIgAAACQAAAAGgAACAAADFSggAICAAAABgCAACBCAAAAAAAgAAAICAAAAAgJFAIAIQACUAAFwAALsAPA4PwOAAAAAAAAAAAAAAAAAAAAAAAAAAAAAA==

> <PUBCHEM_IUPAC_INCHI>
InChI=1S/C43H64O11/c1-7-8-9-10-11-14-34-39(2,46)18-17-28-30(49-34)22-36-42(5,52-28)25-41(4)35(51-36)16-15-27-31(53-41)21-29-32(48-27)24-40(3)37(50-29)23-38-43(6,54-40)33(45)20-26(47-38)13-12-19-44/h7,9-11,14,17-18,26-38,44-46H,1,8,12-13,15-16,19-25H2,2-6H3/b10-9-,14-11-/t26-,27+,28+,29+,30-,31-,32-,33-,34?,35-,36+,37-,38+,39-,40+,41+,42-,43-/m0/s1

> <PUBCHEM_IUPAC_INCHIKEY>
GKLILONDTZZKRF-DOZYUNSMSA-N

> <PUBCHEM_XLOGP3_AA>
3.5

> <PUBCHEM_EXACT_MASS>
756.444863

> <PUBCHEM_MOLECULAR_FORMULA>
C43H64O11

> <PUBCHEM_MOLECULAR_WEIGHT>
756.96166

> <PUBCHEM_OPENEYE_CAN_SMILES>
CC12CC3C(CC4C(O3)CCC5C(O4)(CC6(C(O5)CC7C(O6)C=CC(C(O7)C=CC=CCC=C)(C)O)C)C)OC1CC8C(O2)(C(CC(O8)CCCO)O)C

> <PUBCHEM_OPENEYE_ISO_SMILES>
C[C@@]12C[C@H]3[C@@H](C[C@H]4[C@H](O3)CC[C@H]5[C@](O4)(C[C@]6([C@H](O5)C[C@H]7[C@H](O6)C=C[C@](C(O7)/C=C\C=C/CC=C)(C)O)C)C)O[C@H]1C[C@@H]8[C@@](O2)([C@H](C[C@@H](O8)CCCO)O)C

> <PUBCHEM_CACTVS_TPSA>
135

> <PUBCHEM_MONOISOTOPIC_WEIGHT>
756.444863

> <PUBCHEM_TOTAL_CHARGE>
0

> <PUBCHEM_HEAVY_ATOM_COUNT>
54

> <PUBCHEM_ATOM_DEF_STEREO_COUNT>
17

> <PUBCHEM_ATOM_UDEF_STEREO_COUNT>
1

> <PUBCHEM_BOND_DEF_STEREO_COUNT>
2

> <PUBCHEM_BOND_UDEF_STEREO_COUNT>
0

> <PUBCHEM_ISOTOPIC_ATOM_COUNT>
0

> <PUBCHEM_COMPONENT_COUNT>
1

> <PUBCHEM_CACTVS_TAUTO_COUNT>
1

> <PUBCHEM_COORDINATE_TYPE>
1
5
255

> <PUBCHEM_BONDANNOTATIONS>
44  10  5
12  31  5
13  55  6
14  56  5
15  57  6
16  34  6
18  36  5
19  60  6
20  61  5
21  62  6
22  63  5
25  39  6
27  70  5
35  40  5
37  90  5
38  91  6
42  48  3
30  8  6

$$$$

