5281158
  -OEChem-07051212553D

 27 29  0     0  0  0  0  0  0999 V2000
   -0.5368    1.4054    0.0004 O   0  0  0  0  0  0  0  0  0  0  0  0
    4.7136   -2.1142    0.0003 O   0  0  0  0  0  0  0  0  0  0  0  0
    1.0181    3.0506   -0.0024 O   0  0  0  0  0  0  0  0  0  0  0  0
    0.0719   -0.8803    0.0012 N   0  0  0  0  0  0  0  0  0  0  0  0
    1.7964    0.8277   -0.0005 C   0  0  0  0  0  0  0  0  0  0  0  0
    1.4169   -0.5109    0.0005 C   0  0  0  0  0  0  0  0  0  0  0  0
   -0.8012    0.0732    0.0027 C   0  0  0  0  0  0  0  0  0  0  0  0
   -2.2639   -0.1749    0.0010 C   0  0  0  0  0  0  0  0  0  0  0  0
    2.4069   -1.4989    0.0009 C   0  0  0  0  0  0  0  0  0  0  0  0
    3.1470    1.1902   -0.0009 C   0  0  0  0  0  0  0  0  0  0  0  0
    0.7459    1.8573   -0.0011 C   0  0  0  0  0  0  0  0  0  0  0  0
    3.7572   -1.1458    0.0004 C   0  0  0  0  0  0  0  0  0  0  0  0
    4.1266    0.1980   -0.0005 C   0  0  0  0  0  0  0  0  0  0  0  0
   -2.7551   -1.4833   -0.0023 C   0  0  0  0  0  0  0  0  0  0  0  0
   -3.1590    0.8986    0.0030 C   0  0  0  0  0  0  0  0  0  0  0  0
   -4.1304   -1.7164   -0.0035 C   0  0  0  0  0  0  0  0  0  0  0  0
   -4.5342    0.6656    0.0021 C   0  0  0  0  0  0  0  0  0  0  0  0
   -5.0199   -0.6420   -0.0012 C   0  0  0  0  0  0  0  0  0  0  0  0
    2.1180   -2.5477    0.0016 H   0  0  0  0  0  0  0  0  0  0  0  0
    3.4520    2.2329   -0.0017 H   0  0  0  0  0  0  0  0  0  0  0  0
    5.1763    0.4788   -0.0010 H   0  0  0  0  0  0  0  0  0  0  0  0
   -2.0843   -2.3384   -0.0039 H   0  0  0  0  0  0  0  0  0  0  0  0
   -2.8251    1.9324    0.0058 H   0  0  0  0  0  0  0  0  0  0  0  0
   -4.5090   -2.7344   -0.0061 H   0  0  0  0  0  0  0  0  0  0  0  0
   -5.2274    1.5017    0.0038 H   0  0  0  0  0  0  0  0  0  0  0  0
   -6.0907   -0.8235   -0.0020 H   0  0  0  0  0  0  0  0  0  0  0  0
    4.2807   -2.9852    0.0007 H   0  0  0  0  0  0  0  0  0  0  0  0
  1  7  1  0  0  0  0
  1 11  1  0  0  0  0
  2 12  1  0  0  0  0
  2 27  1  0  0  0  0
  3 11  2  0  0  0  0
  4  6  1  0  0  0  0
  4  7  2  0  0  0  0
  5  6  2  0  0  0  0
  5 10  1  0  0  0  0
  5 11  1  0  0  0  0
  6  9  1  0  0  0  0
  7  8  1  0  0  0  0
  8 14  2  0  0  0  0
  8 15  1  0  0  0  0
  9 12  2  0  0  0  0
  9 19  1  0  0  0  0
 10 13  2  0  0  0  0
 10 20  1  0  0  0  0
 12 13  1  0  0  0  0
 13 21  1  0  0  0  0
 14 16  1  0  0  0  0
 14 22  1  0  0  0  0
 15 17  2  0  0  0  0
 15 23  1  0  0  0  0
 16 18  2  0  0  0  0
 16 24  1  0  0  0  0
 17 18  1  0  0  0  0
 17 25  1  0  0  0  0
 18 26  1  0  0  0  0
M  END
> <PUBCHEM_COMPOUND_CID>
5281158

> <PUBCHEM_CONFORMER_RMSD>
0.6

> <PUBCHEM_CONFORMER_DIVERSEORDER>
1
2

> <PUBCHEM_MMFF94_PARTIAL_CHARGES>
27
1 -0.3
10 -0.15
11 0.63
12 0.08
13 -0.15
14 -0.15
15 -0.15
16 -0.15
17 -0.15
18 -0.15
19 0.15
2 -0.53
20 0.15
21 0.15
22 0.15
23 0.15
24 0.15
25 0.15
26 0.15
27 0.45
3 -0.57
4 -0.63
5 0.09
6 0.18
7 0.51
8 0.09
9 -0.15

> <PUBCHEM_EFFECTIVE_ROTOR_COUNT>
1

> <PUBCHEM_PHARMACOPHORE_FEATURES>
5
1 2 donor
1 3 acceptor
6 1 4 5 6 7 11 rings
6 5 6 9 10 12 13 rings
6 8 14 15 16 17 18 rings

> <PUBCHEM_HEAVY_ATOM_COUNT>
18

> <PUBCHEM_ATOM_DEF_STEREO_COUNT>
0

> <PUBCHEM_ATOM_UDEF_STEREO_COUNT>
0

> <PUBCHEM_BOND_DEF_STEREO_COUNT>
0

> <PUBCHEM_BOND_UDEF_STEREO_COUNT>
0

> <PUBCHEM_ISOTOPIC_ATOM_COUNT>
0

> <PUBCHEM_COMPONENT_COUNT>
1

> <PUBCHEM_CACTVS_TAUTO_COUNT>
4

> <PUBCHEM_CONFORMER_ID>
0050958600000001

> <PUBCHEM_MMFF94_ENERGY>
57.2723

> <PUBCHEM_FEATURE_SELFOVERLAP>
25.402

> <PUBCHEM_SHAPE_FINGERPRINT>
10616163 171 18191302672303328431
10967382 1 18410575058914393634
11471102 20 18411703157839288612
116883 192 18191581054887105548
11806522 49 18412263904479683805
12032990 46 18410574011206124038
12403259 226 18411986823824690461
13134695 92 17894921702016571009
13167823 11 18410576171585691111
13675066 3 18186807962972696281
138480 1 18338797793329939329
13862211 1 18411142471466033698
14115302 16 17703779306356238455
14252887 29 18040427811340923238
14341114 176 18410567367176638339
14790565 3 17835517129415752660
14866123 147 17615121522006247619
15042514 8 17978231891879944498
15196674 1 18410856559734793575
15352361 1 18410575114807244110
15442244 35 18409164428741321529
15536298 74 18335139760876885832
17492 89 18266178323270259699
17804303 29 18412541011996894005
1813 80 17418094316792122324
18186145 218 17704079481884221915
19141452 34 18408603660995173071
200 152 18113902637465432775
20281475 54 18411979165328107596
20645477 70 18408885143965959854
21065198 57 18339079294402527049
21250096 35 18335140899032578832
21267235 1 18410284835084416034
21421861 104 17771065187491392034
21452121 103 18261967258449914384
221490 88 18197773310943137987
23402539 116 18335146435224590807
23557571 272 18115583910823999796
23559900 14 18409453569938983721
2871803 45 18273219715560448738
3004659 81 18130505323185253886
335352 9 18338516451902663133
34934 24 18336832987894315310
4214541 1 18410856585963552749
4921388 177 16271635690637287547
5104073 3 18408884027548412867
633830 44 17275105007480457925
7364860 26 18264209106217953224
77779 3 18411136918273273327
8809292 202 18272366456278241027
8863177 126 17915724411039007963
9709674 26 18269552733077130291
9971528 1 18410016520066731520
9981440 41 17330279372698928737

> <PUBCHEM_SHAPE_MULTIPOLES>
347.84
9.8
2.26
0.6
3.86
0.71
0
-3.95
0
-1.18
0
0.03
-0.01
0

> <PUBCHEM_SHAPE_SELFOVERLAP>
777.888

> <PUBCHEM_SHAPE_VOLUME>
181.6

> <PUBCHEM_COORDINATE_TYPE>
2
5
10

$$$$

