13173
  -OEChem-06261207512D

 25 24  0     1  0  0  0  0  0999 V2000
    8.0622    0.0950    0.0000 O   0  0  0  0  0  0  0  0  0  0  0  0
    7.1962   -1.4050    0.0000 O   0  0  0  0  0  0  0  0  0  0  0  0
    4.5981    1.0950    0.0000 O   0  0  0  0  0  0  0  0  0  0  0  0
    5.4641   -0.4050    0.0000 N   0  0  0  0  0  0  0  0  0  0  0  0
    2.8660    0.0950    0.0000 N   0  3  0  0  0  0  0  0  0  0  0  0
    2.0000    0.5950    0.0000 N   0  0  0  0  0  0  0  0  0  0  0  0
    6.3301    0.0950    0.0000 C   0  0  3  0  0  0  0  0  0  0  0  0
    6.3301    1.0950    0.0000 C   0  0  0  0  0  0  0  0  0  0  0  0
    7.1962   -0.4050    0.0000 C   0  0  0  0  0  0  0  0  0  0  0  0
    8.9282   -0.4050    0.0000 C   0  0  0  0  0  0  0  0  0  0  0  0
    4.5981    0.0950    0.0000 C   0  0  0  0  0  0  0  0  0  0  0  0
    9.7942    0.0950    0.0000 C   0  0  0  0  0  0  0  0  0  0  0  0
    3.7321   -0.4050    0.0000 C   0  0  0  0  0  0  0  0  0  0  0  0
    5.6373    0.4950    0.0000 H   0  0  0  0  0  0  0  0  0  0  0  0
    6.9501    1.0950    0.0000 H   0  0  0  0  0  0  0  0  0  0  0  0
    6.3301    1.7150    0.0000 H   0  0  0  0  0  0  0  0  0  0  0  0
    5.7101    1.0950    0.0000 H   0  0  0  0  0  0  0  0  0  0  0  0
    5.4641   -1.0250    0.0000 H   0  0  0  0  0  0  0  0  0  0  0  0
    8.5297   -0.8799    0.0000 H   0  0  0  0  0  0  0  0  0  0  0  0
    9.3267   -0.8799    0.0000 H   0  0  0  0  0  0  0  0  0  0  0  0
   10.1042   -0.4419    0.0000 H   0  0  0  0  0  0  0  0  0  0  0  0
   10.3312    0.4050    0.0000 H   0  0  0  0  0  0  0  0  0  0  0  0
    9.4842    0.6319    0.0000 H   0  0  0  0  0  0  0  0  0  0  0  0
    3.7321   -1.0250    0.0000 H   0  0  0  0  0  0  0  0  0  0  0  0
    4.0611    1.4050    0.0000 H   0  0  0  0  0  0  0  0  0  0  0  0
  1  9  1  0  0  0  0
  1 10  1  0  0  0  0
  2  9  2  0  0  0  0
  3 11  1  0  0  0  0
  3 25  1  0  0  0  0
  4  7  1  0  0  0  0
  4 11  1  0  0  0  0
  4 18  1  0  0  0  0
  5  6  3  0  0  0  0
  5 13  1  0  0  0  0
  7  8  1  0  0  0  0
  7  9  1  0  0  0  0
  7 14  1  0  0  0  0
  8 15  1  0  0  0  0
  8 16  1  0  0  0  0
  8 17  1  0  0  0  0
 10 12  1  0  0  0  0
 10 19  1  0  0  0  0
 10 20  1  0  0  0  0
 11 13  2  3  0  0  0
 12 21  1  0  0  0  0
 12 22  1  0  0  0  0
 12 23  1  0  0  0  0
 13 24  1  0  0  0  0
M  CHG  1   5   1
M  END
> <PUBCHEM_COMPOUND_CID>
13173

> <PUBCHEM_COMPOUND_CANONICALIZED>
1

> <PUBCHEM_CACTVS_COMPLEXITY>
253

> <PUBCHEM_CACTVS_HBOND_ACCEPTOR>
5

> <PUBCHEM_CACTVS_HBOND_DONOR>
2

> <PUBCHEM_CACTVS_ROTATABLE_BOND>
5

> <PUBCHEM_CACTVS_SUBSKEYS>
AAADccBjMAAAAAAAAAAAAAAAAAAAAAAAAAAAAAAAAAAAAAAAAAAAHgAYCAAACCjhgAYCCALABgCIAACWSAAAAAAAAgAAAIGIAAECAAAAACADAAAAEAAQAAAAAAAAAAAAAAAAAAAAAAAAAAAAAAAAAAAAAA==

> <PUBCHEM_IUPAC_OPENEYE_NAME>
2-[(2-ethoxy-1-methyl-2-oxo-ethyl)amino]-2-hydroxy-ethenediazonium

> <PUBCHEM_IUPAC_CAS_NAME>
2-[(1-ethoxy-1-oxopropan-2-yl)amino]-2-hydroxyethenediazonium

> <PUBCHEM_IUPAC_NAME>
2-[(1-ethoxy-1-oxopropan-2-yl)amino]-2-hydroxyethenediazonium

> <PUBCHEM_IUPAC_SYSTEMATIC_NAME>
2-[(1-ethoxy-1-oxidanylidene-propan-2-yl)amino]-2-oxidanyl-ethenediazonium

> <PUBCHEM_IUPAC_TRADITIONAL_NAME>
2-[(2-ethoxy-2-keto-1-methyl-ethyl)amino]-2-hydroxy-ethenediazonium

> <PUBCHEM_IUPAC_INCHI>
InChI=1S/C7H11N3O3/c1-3-13-7(12)5(2)10-6(11)4-9-8/h4-5,10H,3H2,1-2H3/p+1

> <PUBCHEM_IUPAC_INCHIKEY>
KSSIVZJLHJBIHN-UHFFFAOYSA-O

> <PUBCHEM_XLOGP3_AA>
1.7

> <PUBCHEM_EXACT_MASS>
186.087866

> <PUBCHEM_MOLECULAR_FORMULA>
C7H12N3O3+

> <PUBCHEM_MOLECULAR_WEIGHT>
186.18848

> <PUBCHEM_OPENEYE_CAN_SMILES>
CCOC(=O)C(C)NC(=C[N+]#N)O

> <PUBCHEM_OPENEYE_ISO_SMILES>
CCOC(=O)C(C)NC(=C[N+]#N)O

> <PUBCHEM_CACTVS_TPSA>
86.7

> <PUBCHEM_MONOISOTOPIC_WEIGHT>
186.087866

> <PUBCHEM_TOTAL_CHARGE>
1

> <PUBCHEM_HEAVY_ATOM_COUNT>
13

> <PUBCHEM_ATOM_DEF_STEREO_COUNT>
0

> <PUBCHEM_ATOM_UDEF_STEREO_COUNT>
1

> <PUBCHEM_BOND_DEF_STEREO_COUNT>
0

> <PUBCHEM_BOND_UDEF_STEREO_COUNT>
1

> <PUBCHEM_ISOTOPIC_ATOM_COUNT>
0

> <PUBCHEM_COMPONENT_COUNT>
1

> <PUBCHEM_CACTVS_TAUTO_COUNT>
1

> <PUBCHEM_COORDINATE_TYPE>
1
5
255

> <PUBCHEM_BONDANNOTATIONS>
11  13  1
7  8  3

$$$$

