441730
  -OEChem-07051212552D

100108  0     1  0  0  0  0  0999 V2000
    8.4203    1.0200    0.0000 O   0  0  0  0  0  0  0  0  0  0  0  0
    9.1113    2.4548    0.0000 O   0  0  0  0  0  0  0  0  0  0  0  0
    6.6712    0.5821    0.0000 O   0  0  0  0  0  0  0  0  0  0  0  0
    5.4641    4.3994    0.0000 O   0  0  0  0  0  0  0  0  0  0  0  0
    9.1805    4.1478    0.0000 O   0  0  0  0  0  0  0  0  0  0  0  0
    9.5818    4.8573    0.0000 O   0  0  0  0  0  0  0  0  0  0  0  0
    4.5981    0.1642    0.0000 O   0  0  0  0  0  0  0  0  0  0  0  0
    5.4641   -1.3358    0.0000 O   0  0  0  0  0  0  0  0  0  0  0  0
    2.5155   -4.1394    0.0000 O   0  0  0  0  0  0  0  0  0  0  0  0
    5.8233   -2.9354    0.0000 O   0  0  0  0  0  0  0  0  0  0  0  0
    4.2688    2.5703    0.0000 N   0  0  3  0  0  0  0  0  0  0  0  0
    4.0741   -3.2755    0.0000 N   0  0  0  0  0  0  0  0  0  0  0  0
    6.2154    2.9656    0.0000 C   0  0  1  0  0  0  0  0  0  0  0  0
    7.7396    1.7501    0.0000 C   0  0  2  0  0  0  0  0  0  0  0  0
    5.2135    2.8595    0.0000 C   0  0  3  0  0  0  0  0  0  0  0  0
    6.2154    2.0980    0.0000 C   0  0  2  0  0  0  0  0  0  0  0  0
    6.8937    3.5065    0.0000 C   0  0  1  0  0  0  0  0  0  0  0  0
    8.1160    2.5318    0.0000 C   0  0  1  0  0  0  0  0  0  0  0  0
    7.7396    3.3134    0.0000 C   0  0  1  0  0  0  0  0  0  0  0  0
    6.8937    1.5571    0.0000 C   0  0  2  0  0  0  0  0  0  0  0  0
    5.4641    1.6642    0.0000 C   0  0  2  0  0  0  0  0  0  0  0  0
    5.4641    3.3994    0.0000 C   0  0  2  0  0  0  0  0  0  0  0  0
    6.8160    4.3706    0.0000 C   0  0  0  0  0  0  0  0  0  0  0  0
    7.6137    4.7116    0.0000 C   0  0  1  0  0  0  0  0  0  0  0  0
    8.1846    4.0582    0.0000 C   0  0  2  0  0  0  0  0  0  0  0  0
    8.7609    2.8017    0.0000 C   0  0  0  0  0  0  0  0  0  0  0  0
    4.2688    1.8184    0.0000 C   0  0  0  0  0  0  0  0  0  0  0  0
    8.7609    4.2862    0.0000 C   0  0  2  0  0  0  0  0  0  0  0  0
    4.7128    2.0980    0.0000 C   0  0  0  0  0  0  0  0  0  0  0  0
    4.7128    2.9656    0.0000 C   0  0  0  0  0  0  0  0  0  0  0  0
    5.4641    0.6642    0.0000 C   0  0  0  0  0  0  0  0  0  0  0  0
    9.3083    1.4762    0.0000 C   0  0  0  0  0  0  0  0  0  0  0  0
    3.4648    3.1650    0.0000 C   0  0  0  0  0  0  0  0  0  0  0  0
    7.4043   -0.0980    0.0000 C   0  0  0  0  0  0  0  0  0  0  0  0
    2.5478    2.7661    0.0000 C   0  0  0  0  0  0  0  0  0  0  0  0
    4.5981    4.8994    0.0000 C   0  0  0  0  0  0  0  0  0  0  0  0
    9.7561    3.3301    0.0000 C   0  0  0  0  0  0  0  0  0  0  0  0
    9.4976    5.8538    0.0000 C   0  0  0  0  0  0  0  0  0  0  0  0
    4.5981   -0.8358    0.0000 C   0  0  0  0  0  0  0  0  0  0  0  0
    3.7320   -1.3358    0.0000 C   0  0  0  0  0  0  0  0  0  0  0  0
    3.7320   -2.3358    0.0000 C   0  0  0  0  0  0  0  0  0  0  0  0
    2.8660   -0.8358    0.0000 C   0  0  0  0  0  0  0  0  0  0  0  0
    2.8660   -2.8358    0.0000 C   0  0  0  0  0  0  0  0  0  0  0  0
    2.0000   -1.3358    0.0000 C   0  0  0  0  0  0  0  0  0  0  0  0
    2.0000   -2.3358    0.0000 C   0  0  0  0  0  0  0  0  0  0  0  0
    3.5149   -4.1045    0.0000 C   0  0  0  0  0  0  0  0  0  0  0  0
    5.0353   -3.5511    0.0000 C   0  0  0  0  0  0  0  0  0  0  0  0
    4.1305   -4.8925    0.0000 C   0  0  3  0  0  0  0  0  0  0  0  0
    5.0702   -4.5505    0.0000 C   0  0  0  0  0  0  0  0  0  0  0  0
    3.8549   -5.8538    0.0000 C   0  0  0  0  0  0  0  0  0  0  0  0
    5.0895    3.4670    0.0000 H   0  0  0  0  0  0  0  0  0  0  0  0
    6.1519    1.2504    0.0000 H   0  0  0  0  0  0  0  0  0  0  0  0
    6.1121    3.8406    0.0000 H   0  0  0  0  0  0  0  0  0  0  0  0
    8.5887    3.2753    0.0000 H   0  0  0  0  0  0  0  0  0  0  0  0
    6.3085    1.3523    0.0000 H   0  0  0  0  0  0  0  0  0  0  0  0
    6.0010    3.7094    0.0000 H   0  0  0  0  0  0  0  0  0  0  0  0
    6.6332    4.9630    0.0000 H   0  0  0  0  0  0  0  0  0  0  0  0
    6.2077    4.2508    0.0000 H   0  0  0  0  0  0  0  0  0  0  0  0
    7.5930    5.5613    0.0000 H   0  0  0  0  0  0  0  0  0  0  0  0
    8.4154    4.6336    0.0000 H   0  0  0  0  0  0  0  0  0  0  0  0
    8.9228    2.2032    0.0000 H   0  0  0  0  0  0  0  0  0  0  0  0
    9.3755    2.8834    0.0000 H   0  0  0  0  0  0  0  0  0  0  0  0
    3.6493    1.8450    0.0000 H   0  0  0  0  0  0  0  0  0  0  0  0
    4.2158    1.2007    0.0000 H   0  0  0  0  0  0  0  0  0  0  0  0
    8.6827    4.9013    0.0000 H   0  0  0  0  0  0  0  0  0  0  0  0
    4.1022    2.2057    0.0000 H   0  0  0  0  0  0  0  0  0  0  0  0
    4.5007    1.5154    0.0000 H   0  0  0  0  0  0  0  0  0  0  0  0
    4.5007    3.5482    0.0000 H   0  0  0  0  0  0  0  0  0  0  0  0
    4.1022    2.8579    0.0000 H   0  0  0  0  0  0  0  0  0  0  0  0
    5.6762    0.0816    0.0000 H   0  0  0  0  0  0  0  0  0  0  0  0
    6.0747    0.7719    0.0000 H   0  0  0  0  0  0  0  0  0  0  0  0
    9.5397    0.9010    0.0000 H   0  0  0  0  0  0  0  0  0  0  0  0
    9.9023    1.6538    0.0000 H   0  0  0  0  0  0  0  0  0  0  0  0
    3.9145    3.5919    0.0000 H   0  0  0  0  0  0  0  0  0  0  0  0
    3.1225    3.6820    0.0000 H   0  0  0  0  0  0  0  0  0  0  0  0
    6.9826   -0.5525    0.0000 H   0  0  0  0  0  0  0  0  0  0  0  0
    7.8588   -0.5197    0.0000 H   0  0  0  0  0  0  0  0  0  0  0  0
    7.8260    0.3565    0.0000 H   0  0  0  0  0  0  0  0  0  0  0  0
    2.3005    3.3346    0.0000 H   0  0  0  0  0  0  0  0  0  0  0  0
    1.9793    2.5188    0.0000 H   0  0  0  0  0  0  0  0  0  0  0  0
    2.7951    2.1976    0.0000 H   0  0  0  0  0  0  0  0  0  0  0  0
    4.9081    5.4363    0.0000 H   0  0  0  0  0  0  0  0  0  0  0  0
    4.0611    5.2094    0.0000 H   0  0  0  0  0  0  0  0  0  0  0  0
    4.2881    4.3624    0.0000 H   0  0  0  0  0  0  0  0  0  0  0  0
    9.2492    2.9732    0.0000 H   0  0  0  0  0  0  0  0  0  0  0  0
   10.1130    2.8232    0.0000 H   0  0  0  0  0  0  0  0  0  0  0  0
   10.2631    3.6870    0.0000 H   0  0  0  0  0  0  0  0  0  0  0  0
   10.1154    5.9060    0.0000 H   0  0  0  0  0  0  0  0  0  0  0  0
    9.4454    6.4716    0.0000 H   0  0  0  0  0  0  0  0  0  0  0  0
    8.8798    5.8016    0.0000 H   0  0  0  0  0  0  0  0  0  0  0  0
    2.8660   -0.2158    0.0000 H   0  0  0  0  0  0  0  0  0  0  0  0
    2.8660   -3.4558    0.0000 H   0  0  0  0  0  0  0  0  0  0  0  0
    1.4631   -1.0258    0.0000 H   0  0  0  0  0  0  0  0  0  0  0  0
    1.4631   -2.6458    0.0000 H   0  0  0  0  0  0  0  0  0  0  0  0
    4.5840   -5.3154    0.0000 H   0  0  0  0  0  0  0  0  0  0  0  0
    5.2202   -5.1521    0.0000 H   0  0  0  0  0  0  0  0  0  0  0  0
    5.6842   -4.4642    0.0000 H   0  0  0  0  0  0  0  0  0  0  0  0
    3.2589   -5.6829    0.0000 H   0  0  0  0  0  0  0  0  0  0  0  0
    3.6840   -6.4498    0.0000 H   0  0  0  0  0  0  0  0  0  0  0  0
    4.4509   -6.0247    0.0000 H   0  0  0  0  0  0  0  0  0  0  0  0
 14  1  1  6  0  0  0
  1 32  1  0  0  0  0
 18  2  1  1  0  0  0
  2 32  1  0  0  0  0
 20  3  1  1  0  0  0
  3 34  1  0  0  0  0
 22  4  1  6  0  0  0
  4 36  1  0  0  0  0
 25  5  1  6  0  0  0
  5 37  1  0  0  0  0
 28  6  1  1  0  0  0
  6 38  1  0  0  0  0
  7 31  1  0  0  0  0
  7 39  1  0  0  0  0
  8 39  2  0  0  0  0
  9 46  2  0  0  0  0
 10 47  2  0  0  0  0
 11 15  1  0  0  0  0
 11 27  1  0  0  0  0
 11 33  1  0  0  0  0
 12 41  1  0  0  0  0
 12 46  1  0  0  0  0
 12 47  1  0  0  0  0
 13 15  1  0  0  0  0
 13 16  1  0  0  0  0
 13 17  1  0  0  0  0
 13 22  1  1  0  0  0
 14 15  1  0  0  0  0
 14 18  1  0  0  0  0
 14 20  1  0  0  0  0
 15 51  1  0  0  0  0
 16 20  1  0  0  0  0
 16 21  1  0  0  0  0
 16 52  1  1  0  0  0
 17 19  1  0  0  0  0
 17 23  1  0  0  0  0
 17 53  1  1  0  0  0
 18 19  1  0  0  0  0
 18 26  1  0  0  0  0
 19 25  1  0  0  0  0
 19 54  1  1  0  0  0
 20 55  1  0  0  0  0
 21 27  1  0  0  0  0
 21 29  1  0  0  0  0
 21 31  1  1  0  0  0
 22 30  1  0  0  0  0
 22 56  1  0  0  0  0
 23 24  1  0  0  0  0
 23 57  1  0  0  0  0
 23 58  1  0  0  0  0
 24 25  1  0  0  0  0
 24 28  1  0  0  0  0
 24 59  1  1  0  0  0
 25 60  1  0  0  0  0
 26 28  1  0  0  0  0
 26 61  1  0  0  0  0
 26 62  1  0  0  0  0
 27 63  1  0  0  0  0
 27 64  1  0  0  0  0
 28 65  1  0  0  0  0
 29 30  1  0  0  0  0
 29 66  1  0  0  0  0
 29 67  1  0  0  0  0
 30 68  1  0  0  0  0
 30 69  1  0  0  0  0
 31 70  1  0  0  0  0
 31 71  1  0  0  0  0
 32 72  1  0  0  0  0
 32 73  1  0  0  0  0
 33 35  1  0  0  0  0
 33 74  1  0  0  0  0
 33 75  1  0  0  0  0
 34 76  1  0  0  0  0
 34 77  1  0  0  0  0
 34 78  1  0  0  0  0
 35 79  1  0  0  0  0
 35 80  1  0  0  0  0
 35 81  1  0  0  0  0
 36 82  1  0  0  0  0
 36 83  1  0  0  0  0
 36 84  1  0  0  0  0
 37 85  1  0  0  0  0
 37 86  1  0  0  0  0
 37 87  1  0  0  0  0
 38 88  1  0  0  0  0
 38 89  1  0  0  0  0
 38 90  1  0  0  0  0
 39 40  1  0  0  0  0
 40 41  1  0  0  0  0
 40 42  2  0  0  0  0
 41 43  2  0  0  0  0
 42 44  1  0  0  0  0
 42 91  1  0  0  0  0
 43 45  1  0  0  0  0
 43 92  1  0  0  0  0
 44 45  2  0  0  0  0
 44 93  1  0  0  0  0
 45 94  1  0  0  0  0
 46 48  1  0  0  0  0
 47 49  1  0  0  0  0
 48 49  1  0  0  0  0
 48 50  1  0  0  0  0
 48 95  1  0  0  0  0
 49 96  1  0  0  0  0
 49 97  1  0  0  0  0
 50 98  1  0  0  0  0
 50 99  1  0  0  0  0
 50100  1  0  0  0  0
M  END
> <PUBCHEM_COMPOUND_CID>
441730

> <PUBCHEM_COMPOUND_CANONICALIZED>
1

> <PUBCHEM_CACTVS_COMPLEXITY>
1430

> <PUBCHEM_CACTVS_HBOND_ACCEPTOR>
11

> <PUBCHEM_CACTVS_HBOND_DONOR>
0

> <PUBCHEM_CACTVS_ROTATABLE_BOND>
10

> <PUBCHEM_CACTVS_SUBSKEYS>
AAADcfB/PAAAAAAAAAAAAAAAAAAAAeJEAAA8YMGCB4gWAGiRAAAAHgAAAAAAD3zhmAcyyIMABACIAiXSWACCAAAlAgAIiAEIbMgbJjrAtZmnMYhnxCHe6cf9+P+PgAAAAAACAADQAAaUADSgAaEADSgAAA==

> <PUBCHEM_IUPAC_INCHI>
InChI=1S/C38H50N2O10/c1-7-39-17-35(18-48-33(43)21-10-8-9-11-24(21)40-27(41)14-20(2)32(40)42)13-12-26(45-4)37-23-15-22-25(44-3)16-36(28(23)29(22)46-5)38(34(37)39,50-19-49-36)31(47-6)30(35)37/h8-11,20,22-23,25-26,28-31,34H,7,12-19H2,1-6H3/t20?,22-,23-,25+,26+,28-,29+,30-,31+,34?,35+,36-,37+,38-/m1/s1

> <PUBCHEM_IUPAC_INCHIKEY>
KOWWOODYPWDWOJ-LVBPXUMQSA-N

> <PUBCHEM_XLOGP3_AA>
1.9

> <PUBCHEM_EXACT_MASS>
694.346546

> <PUBCHEM_MOLECULAR_FORMULA>
C38H50N2O10

> <PUBCHEM_MOLECULAR_WEIGHT>
694.811

> <PUBCHEM_OPENEYE_CAN_SMILES>
CCN1CC2(CCC(C34C2C(C5(C31)C6(CC(C7CC4C6C7OC)OC)OCO5)OC)OC)COC(=O)C8=CC=CC=C8N9C(=O)CC(C9=O)C

> <PUBCHEM_OPENEYE_ISO_SMILES>
CCN1C[C@@]2(CC[C@@H]([C@@]34[C@@H]2[C@@H]([C@@]5(C31)[C@]6(C[C@@H]([C@H]7C[C@@H]4[C@@H]6[C@H]7OC)OC)OCO5)OC)OC)COC(=O)C8=CC=CC=C8N9C(=O)CC(C9=O)C

> <PUBCHEM_CACTVS_TPSA>
122

> <PUBCHEM_MONOISOTOPIC_WEIGHT>
694.346546

> <PUBCHEM_TOTAL_CHARGE>
0

> <PUBCHEM_HEAVY_ATOM_COUNT>
50

> <PUBCHEM_ATOM_DEF_STEREO_COUNT>
12

> <PUBCHEM_ATOM_UDEF_STEREO_COUNT>
2

> <PUBCHEM_BOND_DEF_STEREO_COUNT>
0

> <PUBCHEM_BOND_UDEF_STEREO_COUNT>
0

> <PUBCHEM_ISOTOPIC_ATOM_COUNT>
0

> <PUBCHEM_COMPONENT_COUNT>
1

> <PUBCHEM_CACTVS_TAUTO_COUNT>
4

> <PUBCHEM_COORDINATE_TYPE>
1
5
255

> <PUBCHEM_BONDANNOTATIONS>
14  1  6
15  11  3
13  22  5
16  52  5
17  53  5
19  54  5
18  2  5
21  31  5
24  59  5
20  3  5
22  4  6
40  41  8
40  42  8
41  43  8
42  44  8
43  45  8
44  45  8
48  50  3
25  5  6
28  6  5

$$$$

