442501
  -OEChem-07051212583D

 29 29  0     1  0  0  0  0  0999 V2000
   -2.1330    0.1168    1.3756 O   0  0  0  0  0  0  0  0  0  0  0  0
   -0.5026   -0.0263   -0.3654 C   0  0  2  0  0  0  0  0  0  0  0  0
   -1.9932   -0.0026   -0.0356 C   0  0  0  0  0  0  0  0  0  0  0  0
    0.1855   -1.2392    0.2687 C   0  0  0  0  0  0  0  0  0  0  0  0
    0.1788    1.2722    0.0956 C   0  0  0  0  0  0  0  0  0  0  0  0
    1.6695   -1.2937   -0.1072 C   0  0  0  0  0  0  0  0  0  0  0  0
    2.3630    0.0437   -0.0358 C   0  0  0  0  0  0  0  0  0  0  0  0
    1.6775    1.1951    0.0706 C   0  0  0  0  0  0  0  0  0  0  0  0
   -2.6575   -1.2926   -0.4964 C   0  0  0  0  0  0  0  0  0  0  0  0
   -2.6497    1.2111   -0.6776 C   0  0  0  0  0  0  0  0  0  0  0  0
    3.8616    0.0153   -0.0924 C   0  0  0  0  0  0  0  0  0  0  0  0
   -0.3810   -0.1051   -1.4562 H   0  0  0  0  0  0  0  0  0  0  0  0
   -0.2618   -2.1839   -0.0551 H   0  0  0  0  0  0  0  0  0  0  0  0
    0.0968   -1.2008    1.3621 H   0  0  0  0  0  0  0  0  0  0  0  0
   -0.1203    1.5521    1.1123 H   0  0  0  0  0  0  0  0  0  0  0  0
   -0.1133    2.0954   -0.5670 H   0  0  0  0  0  0  0  0  0  0  0  0
    1.7717   -1.6812   -1.1287 H   0  0  0  0  0  0  0  0  0  0  0  0
    2.1689   -2.0078    0.5586 H   0  0  0  0  0  0  0  0  0  0  0  0
    2.2128    2.1385    0.1399 H   0  0  0  0  0  0  0  0  0  0  0  0
   -2.4295   -1.5218   -1.5424 H   0  0  0  0  0  0  0  0  0  0  0  0
   -3.7480   -1.2133   -0.4057 H   0  0  0  0  0  0  0  0  0  0  0  0
   -2.3875   -2.1485    0.1305 H   0  0  0  0  0  0  0  0  0  0  0  0
   -2.3291    2.1518   -0.2177 H   0  0  0  0  0  0  0  0  0  0  0  0
   -2.4602    1.2565   -1.7552 H   0  0  0  0  0  0  0  0  0  0  0  0
   -3.7365    1.1808   -0.5324 H   0  0  0  0  0  0  0  0  0  0  0  0
   -3.0828    0.1193    1.5844 H   0  0  0  0  0  0  0  0  0  0  0  0
    4.2630   -0.5555    0.7511 H   0  0  0  0  0  0  0  0  0  0  0  0
    4.2959    1.0198   -0.0522 H   0  0  0  0  0  0  0  0  0  0  0  0
    4.1965   -0.4555   -1.0222 H   0  0  0  0  0  0  0  0  0  0  0  0
  1  3  1  0  0  0  0
  1 26  1  0  0  0  0
  2  3  1  0  0  0  0
  2  4  1  0  0  0  0
  2  5  1  0  0  0  0
  2 12  1  0  0  0  0
  3  9  1  0  0  0  0
  3 10  1  0  0  0  0
  4  6  1  0  0  0  0
  4 13  1  0  0  0  0
  4 14  1  0  0  0  0
  5  8  1  0  0  0  0
  5 15  1  0  0  0  0
  5 16  1  0  0  0  0
  6  7  1  0  0  0  0
  6 17  1  0  0  0  0
  6 18  1  0  0  0  0
  7  8  2  0  0  0  0
  7 11  1  0  0  0  0
  8 19  1  0  0  0  0
  9 20  1  0  0  0  0
  9 21  1  0  0  0  0
  9 22  1  0  0  0  0
 10 23  1  0  0  0  0
 10 24  1  0  0  0  0
 10 25  1  0  0  0  0
 11 27  1  0  0  0  0
 11 28  1  0  0  0  0
 11 29  1  0  0  0  0
M  END
> <PUBCHEM_COMPOUND_CID>
442501

> <PUBCHEM_CONFORMER_RMSD>
0.4

> <PUBCHEM_CONFORMER_DIVERSEORDER>
1
4
2
3

> <PUBCHEM_MMFF94_PARTIAL_CHARGES>
9
1 -0.68
11 0.14
19 0.15
26 0.4
3 0.28
5 0.14
6 0.14
7 -0.28
8 -0.29

> <PUBCHEM_EFFECTIVE_ROTOR_COUNT>
1.8

> <PUBCHEM_PHARMACOPHORE_FEATURES>
4
1 1 acceptor
1 1 donor
3 3 9 10 hydrophobe
6 2 4 5 6 7 8 rings

> <PUBCHEM_HEAVY_ATOM_COUNT>
11

> <PUBCHEM_ATOM_DEF_STEREO_COUNT>
1

> <PUBCHEM_ATOM_UDEF_STEREO_COUNT>
0

> <PUBCHEM_BOND_DEF_STEREO_COUNT>
0

> <PUBCHEM_BOND_UDEF_STEREO_COUNT>
0

> <PUBCHEM_ISOTOPIC_ATOM_COUNT>
0

> <PUBCHEM_COMPONENT_COUNT>
1

> <PUBCHEM_CACTVS_TAUTO_COUNT>
1

> <PUBCHEM_CONFORMER_ID>
0006C08500000001

> <PUBCHEM_MMFF94_ENERGY>
19.2327

> <PUBCHEM_FEATURE_SELFOVERLAP>
20.297

> <PUBCHEM_SHAPE_FINGERPRINT>
12032990 46 18408879629612865598
124424 183 17845947315474278816
12897270 3 18409736157312191511
12932764 1 18411417314875478634
14128692 85 18115594733793523439
14325111 11 18411703166756296796
15775835 57 18411136952390269327
16945 1 18334292106315956992
17844478 74 18059841862203295313
18186145 218 18186514389537596224
200 152 17894921689584804207
20201158 50 18341334469585883198
23235685 24 18412549812274133052
23402539 116 16343715313551985191
23402655 69 18193857027146433533
23552423 10 18342740701918374111
2748010 2 18050565145266167190
29004967 10 18272363191839137488
3248919 1 17313385664221109846
369184 2 18409449189314947683
5084963 1 18262802856599565425
528886 8 18409738386379125528

> <PUBCHEM_SHAPE_MULTIPOLES>
220.51
5.06
1.49
0.82
1.87
0.06
-0.14
-0.01
0.44
-0.28
0.1
-0.41
-0.02
0.05

> <PUBCHEM_SHAPE_SELFOVERLAP>
436.048

> <PUBCHEM_SHAPE_VOLUME>
132

> <PUBCHEM_COORDINATE_TYPE>
2
5
10

$$$$

