47205041
  -OEChem-06241222572D

 31 33  0     0  0  0  0  0  0999 V2000
    6.1808   -1.5173    0.0000 O   0  0  0  0  0  0  0  0  0  0  0  0
    5.3147   -0.0173    0.0000 N   0  0  0  0  0  0  0  0  0  0  0  0
    7.9128   -0.5173    0.0000 N   0  0  0  0  0  0  0  0  0  0  0  0
    2.6691   -0.4241    0.0000 N   0  0  0  0  0  0  0  0  0  0  0  0
    2.0000    0.3191    0.0000 N   0  0  0  0  0  0  0  0  0  0  0  0
    4.4487   -0.5173    0.0000 C   0  0  0  0  0  0  0  0  0  0  0  0
    8.7788    0.9827    0.0000 C   0  0  0  0  0  0  0  0  0  0  0  0
    8.7788   -0.0173    0.0000 C   0  0  0  0  0  0  0  0  0  0  0  0
    7.0468   -0.0173    0.0000 C   0  0  0  0  0  0  0  0  0  0  0  0
    3.5827   -0.0173    0.0000 C   0  0  0  0  0  0  0  0  0  0  0  0
    7.9128    1.4827    0.0000 C   0  0  0  0  0  0  0  0  0  0  0  0
    6.1808   -0.5173    0.0000 C   0  0  0  0  0  0  0  0  0  0  0  0
    7.0468    0.9827    0.0000 C   0  0  0  0  0  0  0  0  0  0  0  0
    9.6728    1.5173    0.0000 C   0  0  0  0  0  0  0  0  0  0  0  0
    9.6728   -0.5520    0.0000 C   0  0  0  0  0  0  0  0  0  0  0  0
    3.4782    0.9772    0.0000 C   0  0  0  0  0  0  0  0  0  0  0  0
   10.5788    1.0035    0.0000 C   0  0  0  0  0  0  0  0  0  0  0  0
   10.5788   -0.0381    0.0000 C   0  0  0  0  0  0  0  0  0  0  0  0
    2.5000    1.1851    0.0000 C   0  0  0  0  0  0  0  0  0  0  0  0
    4.0502   -0.9923    0.0000 H   0  0  0  0  0  0  0  0  0  0  0  0
    4.8472   -0.9923    0.0000 H   0  0  0  0  0  0  0  0  0  0  0  0
    5.3147    0.6027    0.0000 H   0  0  0  0  0  0  0  0  0  0  0  0
    7.9128    2.1027    0.0000 H   0  0  0  0  0  0  0  0  0  0  0  0
    6.5098    1.2927    0.0000 H   0  0  0  0  0  0  0  0  0  0  0  0
    9.6656    2.1373    0.0000 H   0  0  0  0  0  0  0  0  0  0  0  0
    9.6656   -1.1720    0.0000 H   0  0  0  0  0  0  0  0  0  0  0  0
    3.9389    1.3920    0.0000 H   0  0  0  0  0  0  0  0  0  0  0  0
    2.5402   -1.0305    0.0000 H   0  0  0  0  0  0  0  0  0  0  0  0
   11.1146    1.3156    0.0000 H   0  0  0  0  0  0  0  0  0  0  0  0
   11.1146   -0.3502    0.0000 H   0  0  0  0  0  0  0  0  0  0  0  0
    2.2478    1.7515    0.0000 H   0  0  0  0  0  0  0  0  0  0  0  0
  1 12  2  0  0  0  0
  2  6  1  0  0  0  0
  2 12  1  0  0  0  0
  2 22  1  0  0  0  0
  3  8  1  0  0  0  0
  3  9  2  0  0  0  0
  4  5  1  0  0  0  0
  4 10  1  0  0  0  0
  4 28  1  0  0  0  0
  5 19  2  0  0  0  0
  6 10  1  0  0  0  0
  6 20  1  0  0  0  0
  6 21  1  0  0  0  0
  7  8  1  0  0  0  0
  7 11  1  0  0  0  0
  7 14  2  0  0  0  0
  8 15  2  0  0  0  0
  9 12  1  0  0  0  0
  9 13  1  0  0  0  0
 10 16  2  0  0  0  0
 11 13  2  0  0  0  0
 11 23  1  0  0  0  0
 13 24  1  0  0  0  0
 14 17  1  0  0  0  0
 14 25  1  0  0  0  0
 15 18  1  0  0  0  0
 15 26  1  0  0  0  0
 16 19  1  0  0  0  0
 16 27  1  0  0  0  0
 17 18  2  0  0  0  0
 17 29  1  0  0  0  0
 18 30  1  0  0  0  0
 19 31  1  0  0  0  0
M  END
> <PUBCHEM_COMPOUND_CID>
47205041

> <PUBCHEM_COMPOUND_CANONICALIZED>
1

> <PUBCHEM_CACTVS_COMPLEXITY>
323

> <PUBCHEM_CACTVS_HBOND_ACCEPTOR>
3

> <PUBCHEM_CACTVS_HBOND_DONOR>
2

> <PUBCHEM_CACTVS_ROTATABLE_BOND>
3

> <PUBCHEM_CACTVS_SUBSKEYS>
AAADccBzoAAAAAAAAAAAAAAAAAAAAWAAAAA8QAAAAAAAAACx/AAAHgAYAAAADAjBngQ8wPLrEACqAzV3VACShCAngiAYuaG4ZNgIYPLA1fGUpQhgngDIyYcYiICOAAAAAAACAAAAAAAAAAQAAAAAAAAAAA==

> <PUBCHEM_IUPAC_OPENEYE_NAME>
N-(1H-pyrazol-5-ylmethyl)quinoline-2-carboxamide

> <PUBCHEM_IUPAC_CAS_NAME>
N-(1H-pyrazol-5-ylmethyl)-2-quinolinecarboxamide

> <PUBCHEM_IUPAC_NAME>
N-(1H-pyrazol-5-ylmethyl)quinoline-2-carboxamide

> <PUBCHEM_IUPAC_SYSTEMATIC_NAME>
N-(1H-pyrazol-5-ylmethyl)quinoline-2-carboxamide

> <PUBCHEM_IUPAC_TRADITIONAL_NAME>
N-(1H-pyrazol-5-ylmethyl)quinaldamide

> <PUBCHEM_IUPAC_INCHI>
InChI=1S/C14H12N4O/c19-14(15-9-11-7-8-16-18-11)13-6-5-10-3-1-2-4-12(10)17-13/h1-8H,9H2,(H,15,19)(H,16,18)

> <PUBCHEM_IUPAC_INCHIKEY>
XKFCPMFHSTZKAB-UHFFFAOYSA-N

> <PUBCHEM_XLOGP3_AA>
1.6

> <PUBCHEM_EXACT_MASS>
252.101111

> <PUBCHEM_MOLECULAR_FORMULA>
C14H12N4O

> <PUBCHEM_MOLECULAR_WEIGHT>
252.27128

> <PUBCHEM_OPENEYE_CAN_SMILES>
C1=CC=C2C(=C1)C=CC(=N2)C(=O)NCC3=CC=NN3

> <PUBCHEM_OPENEYE_ISO_SMILES>
C1=CC=C2C(=C1)C=CC(=N2)C(=O)NCC3=CC=NN3

> <PUBCHEM_CACTVS_TPSA>
70.7

> <PUBCHEM_MONOISOTOPIC_WEIGHT>
252.101111

> <PUBCHEM_TOTAL_CHARGE>
0

> <PUBCHEM_HEAVY_ATOM_COUNT>
19

> <PUBCHEM_ATOM_DEF_STEREO_COUNT>
0

> <PUBCHEM_ATOM_UDEF_STEREO_COUNT>
0

> <PUBCHEM_BOND_DEF_STEREO_COUNT>
0

> <PUBCHEM_BOND_UDEF_STEREO_COUNT>
0

> <PUBCHEM_ISOTOPIC_ATOM_COUNT>
0

> <PUBCHEM_COMPONENT_COUNT>
1

> <PUBCHEM_CACTVS_TAUTO_COUNT>
4

> <PUBCHEM_COORDINATE_TYPE>
1
5
255

> <PUBCHEM_BONDANNOTATIONS>
10  16  8
11  13  8
14  17  8
15  18  8
16  19  8
17  18  8
3  8  8
3  9  8
4  10  8
4  5  8
5  19  8
7  11  8
7  14  8
7  8  8
8  15  8
9  13  8

$$$$

