17395942
  -OEChem-06241222533D

 33 34  0     0  0  0  0  0  0999 V2000
   -1.6432   -2.6632    0.4240 S   0  0  0  0  0  0  0  0  0  0  0  0
   -5.9299    1.0737    0.8727 S   0  0  0  0  0  0  0  0  0  0  0  0
    5.0066   -1.4440   -0.5555 F   0  0  0  0  0  0  0  0  0  0  0  0
    5.3786    1.2251    0.0042 O   0  0  0  0  0  0  0  0  0  0  0  0
   -3.0680    1.5929   -0.8257 O   0  0  0  0  0  0  0  0  0  0  0  0
   -0.8629   -0.2646   -0.1417 N   0  0  0  0  0  0  0  0  0  0  0  0
   -3.2333   -0.6862   -0.2357 N   0  0  0  0  0  0  0  0  0  0  0  0
    1.5768   -0.4370    0.1138 C   0  0  0  0  0  0  0  0  0  0  0  0
    0.2614   -1.0115    0.1517 C   0  0  0  0  0  0  0  0  0  0  0  0
    2.6763   -1.2327   -0.2080 C   0  0  0  0  0  0  0  0  0  0  0  0
    1.7551    0.9167    0.3988 C   0  0  0  0  0  0  0  0  0  0  0  0
   -1.9240   -1.0323   -0.0303 C   0  0  0  0  0  0  0  0  0  0  0  0
    4.1324    0.6792    0.0400 C   0  0  0  0  0  0  0  0  0  0  0  0
    3.9541   -0.6746   -0.2450 C   0  0  0  0  0  0  0  0  0  0  0  0
    3.0328    1.4748    0.3619 C   0  0  0  0  0  0  0  0  0  0  0  0
    0.0385   -2.3322    0.4809 C   0  0  0  0  0  0  0  0  0  0  0  0
   -3.7236    0.5763   -0.6131 C   0  0  0  0  0  0  0  0  0  0  0  0
   -5.2329    0.6039   -0.7290 C   0  0  0  0  0  0  0  0  0  0  0  0
    5.4875    2.6153    0.3064 C   0  0  0  0  0  0  0  0  0  0  0  0
   -7.6824    1.0205    0.4296 C   0  0  0  0  0  0  0  0  0  0  0  0
    2.5763   -2.2869   -0.4526 H   0  0  0  0  0  0  0  0  0  0  0  0
    0.9135    1.5552    0.6569 H   0  0  0  0  0  0  0  0  0  0  0  0
    3.0995    2.5320    0.5950 H   0  0  0  0  0  0  0  0  0  0  0  0
    0.7376   -3.1087    0.7588 H   0  0  0  0  0  0  0  0  0  0  0  0
   -3.9026   -1.4372   -0.0887 H   0  0  0  0  0  0  0  0  0  0  0  0
   -5.6096   -0.3775   -1.0332 H   0  0  0  0  0  0  0  0  0  0  0  0
   -5.5114    1.3351   -1.4943 H   0  0  0  0  0  0  0  0  0  0  0  0
    6.5471    2.8803    0.2305 H   0  0  0  0  0  0  0  0  0  0  0  0
    5.1777    2.8290    1.3350 H   0  0  0  0  0  0  0  0  0  0  0  0
    4.9514    3.2294   -0.4250 H   0  0  0  0  0  0  0  0  0  0  0  0
   -8.2831    1.2871    1.3031 H   0  0  0  0  0  0  0  0  0  0  0  0
   -7.9635    0.0141    0.1085 H   0  0  0  0  0  0  0  0  0  0  0  0
   -7.8948    1.7353   -0.3697 H   0  0  0  0  0  0  0  0  0  0  0  0
  1 12  1  0  0  0  0
  1 16  1  0  0  0  0
  2 18  1  0  0  0  0
  2 20  1  0  0  0  0
  3 14  1  0  0  0  0
  4 13  1  0  0  0  0
  4 19  1  0  0  0  0
  5 17  2  0  0  0  0
  6  9  1  0  0  0  0
  6 12  2  0  0  0  0
  7 12  1  0  0  0  0
  7 17  1  0  0  0  0
  7 25  1  0  0  0  0
  8  9  1  0  0  0  0
  8 10  2  0  0  0  0
  8 11  1  0  0  0  0
  9 16  2  0  0  0  0
 10 14  1  0  0  0  0
 10 21  1  0  0  0  0
 11 15  2  0  0  0  0
 11 22  1  0  0  0  0
 13 14  2  0  0  0  0
 13 15  1  0  0  0  0
 15 23  1  0  0  0  0
 16 24  1  0  0  0  0
 17 18  1  0  0  0  0
 18 26  1  0  0  0  0
 18 27  1  0  0  0  0
 19 28  1  0  0  0  0
 19 29  1  0  0  0  0
 19 30  1  0  0  0  0
 20 31  1  0  0  0  0
 20 32  1  0  0  0  0
 20 33  1  0  0  0  0
M  END
> <PUBCHEM_COMPOUND_CID>
17395942

> <PUBCHEM_CONFORMER_RMSD>
0.8

> <PUBCHEM_CONFORMER_DIVERSEORDER>
1
24
47
30
49
39
28
23
10
35
33
42
29
3
37
16
40
25
12
45
20
41
27
43
19
21
26
46
50
36
18
38
22
6
48
9
15
7
44
8
31
13
11
4
32
5
2
17
34
14

> <PUBCHEM_MMFF94_PARTIAL_CHARGES>
25
1 -0.08
10 -0.15
11 -0.15
12 0.44
13 0.08
14 0.19
15 -0.15
16 -0.11
17 0.57
18 0.29
19 0.28
2 -0.46
20 0.23
21 0.15
22 0.15
23 0.15
24 0.15
25 0.37
3 -0.19
4 -0.36
5 -0.57
6 -0.57
7 -0.49
8 0.05
9 0.17

> <PUBCHEM_EFFECTIVE_ROTOR_COUNT>
6

> <PUBCHEM_PHARMACOPHORE_FEATURES>
6
1 20 hydrophobe
1 4 acceptor
1 5 acceptor
1 7 donor
5 1 6 9 12 16 rings
6 8 10 11 13 14 15 rings

> <PUBCHEM_HEAVY_ATOM_COUNT>
20

> <PUBCHEM_ATOM_DEF_STEREO_COUNT>
0

> <PUBCHEM_ATOM_UDEF_STEREO_COUNT>
0

> <PUBCHEM_BOND_DEF_STEREO_COUNT>
0

> <PUBCHEM_BOND_UDEF_STEREO_COUNT>
0

> <PUBCHEM_ISOTOPIC_ATOM_COUNT>
0

> <PUBCHEM_COMPONENT_COUNT>
1

> <PUBCHEM_CACTVS_TAUTO_COUNT>
3

> <PUBCHEM_CONFORMER_ID>
010970E600000001

> <PUBCHEM_MMFF94_ENERGY>
49.9965

> <PUBCHEM_FEATURE_SELFOVERLAP>
30.446

> <PUBCHEM_SHAPE_FINGERPRINT>
10 15 17846778485966965657
10354089 29 17418091031268565493
10411042 1 17833267906688076374
10447042 23 9007053543844187945
10608611 8 18266744584690185530
11578080 2 16951993655703389106
11796584 16 4822918132589466765
12236239 1 17894631478892506969
12403259 415 18201443626970080941
12730499 353 18341326786174669115
12916748 109 18343301495882875109
13167372 99 18115022025970077753
13955234 65 18200599236110251842
15183329 4 15647048283657215065
15196674 1 18410857629366506998
15475509 35 15984269676242563122
15778101 99 18340202982243015088
18222031 100 5256408314349692554
20281389 69 18272090517530244397
20645477 56 18271529710369553165
20645477 70 17894623756568072878
21033648 29 18337115549033619792
21236236 1 18338516344866532219
21421861 104 17774179980301794642
221357 26 18260832643511251645
22224240 67 18201717367406945651
23402655 69 18186804651721787654
23559900 14 18408323285888987554
2838139 119 18411147951859738293
2916195 48 18413392020911514957
293599 30 18412826871607706019
29717793 49 17167856491834410172
335352 9 18410008867020735206
3545911 37 18413107264263266172
4340502 62 16630527353551641899
465052 167 10519981582403150201
495365 180 17822022977968506418
5104073 3 18272376326171168602
633830 44 18409738360667864038
9996256 80 18408605838638816887

> <PUBCHEM_SHAPE_MULTIPOLES>
390.32
15.65
2.51
0.8
14.78
0.59
0.02
-11.46
0.8
-1.44
0.36
0.57
-0.08
0.5

> <PUBCHEM_SHAPE_SELFOVERLAP>
797.951

> <PUBCHEM_SHAPE_VOLUME>
230.2

> <PUBCHEM_COORDINATE_TYPE>
2
5
10

$$$$

