11308
  -OEChem-06261205312D

 27 27  0     0  0  0  0  0  0999 V2000
    5.1350    1.7500    0.0000 O   0  0  0  0  0  0  0  0  0  0  0  0
    6.8671    0.7500    0.0000 O   0  0  0  0  0  0  0  0  0  0  0  0
    6.8671   -1.2500    0.0000 O   0  0  0  0  0  0  0  0  0  0  0  0
    2.5369    0.2500    0.0000 O   0  0  0  0  0  0  0  0  0  0  0  0
    3.4030    1.7500    0.0000 O   0  0  0  0  0  0  0  0  0  0  0  0
    5.1350    0.7500    0.0000 C   0  0  0  0  0  0  0  0  0  0  0  0
    6.0010    0.2500    0.0000 C   0  0  0  0  0  0  0  0  0  0  0  0
    4.2690    0.2500    0.0000 C   0  0  0  0  0  0  0  0  0  0  0  0
    6.0010   -0.7500    0.0000 C   0  0  0  0  0  0  0  0  0  0  0  0
    4.2690   -0.7500    0.0000 C   0  0  0  0  0  0  0  0  0  0  0  0
    5.1350   -1.2500    0.0000 C   0  0  0  0  0  0  0  0  0  0  0  0
    3.4030    0.7500    0.0000 C   0  0  0  0  0  0  0  0  0  0  0  0
    6.0010    2.2500    0.0000 C   0  0  0  0  0  0  0  0  0  0  0  0
    7.7331    0.2500    0.0000 C   0  0  0  0  0  0  0  0  0  0  0  0
    6.8671   -2.2500    0.0000 C   0  0  0  0  0  0  0  0  0  0  0  0
    3.7320   -1.0600    0.0000 H   0  0  0  0  0  0  0  0  0  0  0  0
    5.1350   -1.8700    0.0000 H   0  0  0  0  0  0  0  0  0  0  0  0
    6.3110    1.7131    0.0000 H   0  0  0  0  0  0  0  0  0  0  0  0
    6.5380    2.5600    0.0000 H   0  0  0  0  0  0  0  0  0  0  0  0
    5.6910    2.7869    0.0000 H   0  0  0  0  0  0  0  0  0  0  0  0
    7.4231   -0.2869    0.0000 H   0  0  0  0  0  0  0  0  0  0  0  0
    8.2700   -0.0600    0.0000 H   0  0  0  0  0  0  0  0  0  0  0  0
    8.0431    0.7869    0.0000 H   0  0  0  0  0  0  0  0  0  0  0  0
    6.2471   -2.2500    0.0000 H   0  0  0  0  0  0  0  0  0  0  0  0
    6.8671   -2.8700    0.0000 H   0  0  0  0  0  0  0  0  0  0  0  0
    7.4871   -2.2500    0.0000 H   0  0  0  0  0  0  0  0  0  0  0  0
    2.0000    0.5600    0.0000 H   0  0  0  0  0  0  0  0  0  0  0  0
  1  6  1  0  0  0  0
  1 13  1  0  0  0  0
  2  7  1  0  0  0  0
  2 14  1  0  0  0  0
  3  9  1  0  0  0  0
  3 15  1  0  0  0  0
  4 12  1  0  0  0  0
  4 27  1  0  0  0  0
  5 12  2  0  0  0  0
  6  7  1  0  0  0  0
  6  8  2  0  0  0  0
  7  9  2  0  0  0  0
  8 10  1  0  0  0  0
  8 12  1  0  0  0  0
  9 11  1  0  0  0  0
 10 11  2  0  0  0  0
 10 16  1  0  0  0  0
 11 17  1  0  0  0  0
 13 18  1  0  0  0  0
 13 19  1  0  0  0  0
 13 20  1  0  0  0  0
 14 21  1  0  0  0  0
 14 22  1  0  0  0  0
 14 23  1  0  0  0  0
 15 24  1  0  0  0  0
 15 25  1  0  0  0  0
 15 26  1  0  0  0  0
M  END
> <PUBCHEM_COMPOUND_CID>
11308

> <PUBCHEM_COMPOUND_CANONICALIZED>
1

> <PUBCHEM_CACTVS_COMPLEXITY>
218

> <PUBCHEM_CACTVS_HBOND_ACCEPTOR>
5

> <PUBCHEM_CACTVS_HBOND_DONOR>
1

> <PUBCHEM_CACTVS_ROTATABLE_BOND>
4

> <PUBCHEM_CACTVS_SUBSKEYS>
AAADccBwOAAAAAAAAAAAAAAAAAAAAAAAAAAwAAAAAAAAAAABAAAAGgAACAAADASAmAIyDoAABgCIAiDSCAACCAAkIAAIiAEGiMgNJzaENBqAcWIl4BUKuYfK7DzOIAABCAAIQABAAAIQABCAAAAAAAAAAA==

> <PUBCHEM_IUPAC_OPENEYE_NAME>
2,3,4-trimethoxybenzoic acid

> <PUBCHEM_IUPAC_CAS_NAME>
2,3,4-trimethoxybenzoic acid

> <PUBCHEM_IUPAC_NAME>
2,3,4-trimethoxybenzoic acid

> <PUBCHEM_IUPAC_SYSTEMATIC_NAME>
2,3,4-trimethoxybenzoic acid

> <PUBCHEM_IUPAC_TRADITIONAL_NAME>
2,3,4-trimethoxybenzoic acid

> <PUBCHEM_IUPAC_INCHI>
InChI=1S/C10H12O5/c1-13-7-5-4-6(10(11)12)8(14-2)9(7)15-3/h4-5H,1-3H3,(H,11,12)

> <PUBCHEM_IUPAC_INCHIKEY>
HZNQSWJZTWOTKM-UHFFFAOYSA-N

> <PUBCHEM_XLOGP3>
1.7

> <PUBCHEM_EXACT_MASS>
212.068473

> <PUBCHEM_MOLECULAR_FORMULA>
C10H12O5

> <PUBCHEM_MOLECULAR_WEIGHT>
212.19928

> <PUBCHEM_OPENEYE_CAN_SMILES>
COC1=C(C(=C(C=C1)C(=O)O)OC)OC

> <PUBCHEM_OPENEYE_ISO_SMILES>
COC1=C(C(=C(C=C1)C(=O)O)OC)OC

> <PUBCHEM_CACTVS_TPSA>
65

> <PUBCHEM_MONOISOTOPIC_WEIGHT>
212.068473

> <PUBCHEM_TOTAL_CHARGE>
0

> <PUBCHEM_HEAVY_ATOM_COUNT>
15

> <PUBCHEM_ATOM_DEF_STEREO_COUNT>
0

> <PUBCHEM_ATOM_UDEF_STEREO_COUNT>
0

> <PUBCHEM_BOND_DEF_STEREO_COUNT>
0

> <PUBCHEM_BOND_UDEF_STEREO_COUNT>
0

> <PUBCHEM_ISOTOPIC_ATOM_COUNT>
0

> <PUBCHEM_COMPONENT_COUNT>
1

> <PUBCHEM_CACTVS_TAUTO_COUNT>
1

> <PUBCHEM_COORDINATE_TYPE>
1
5
255

> <PUBCHEM_BONDANNOTATIONS>
10  11  8
6  7  8
6  8  8
7  9  8
8  10  8
9  11  8

$$$$

