147279
  -OEChem-07051213032D

 44 48  0     0  0  0  0  0  0999 V2000
    2.6079    0.6952    0.0000 O   0  0  0  0  0  0  0  0  0  0  0  0
    2.6079    2.3716    0.0000 O   0  0  0  0  0  0  0  0  0  0  0  0
    8.9752   -2.0647    0.0000 O   0  0  0  0  0  0  0  0  0  0  0  0
    7.1377   -2.0358    0.0000 O   0  0  0  0  0  0  0  0  0  0  0  0
   10.7866   -1.0189    0.0000 O   0  0  0  0  0  0  0  0  0  0  0  0
    6.2435   -0.5081    0.0000 N   0  0  0  0  0  0  0  0  0  0  0  0
    6.2596    0.5334    0.0000 C   0  0  0  0  0  0  0  0  0  0  0  0
    7.1256    1.0334    0.0000 C   0  0  0  0  0  0  0  0  0  0  0  0
    5.3935    1.0334    0.0000 C   0  0  0  0  0  0  0  0  0  0  0  0
    8.0356    0.5266    0.0000 C   0  0  0  0  0  0  0  0  0  0  0  0
    8.0436   -0.5150    0.0000 C   0  0  0  0  0  0  0  0  0  0  0  0
    5.3935    2.0334    0.0000 C   0  0  0  0  0  0  0  0  0  0  0  0
    7.1415   -1.0358    0.0000 C   0  0  0  0  0  0  0  0  0  0  0  0
    7.1256    2.0334    0.0000 C   0  0  0  0  0  0  0  0  0  0  0  0
    4.4996    0.4988    0.0000 C   0  0  0  0  0  0  0  0  0  0  0  0
    6.2596    2.5334    0.0000 C   0  0  0  0  0  0  0  0  0  0  0  0
    4.4996    2.5681    0.0000 C   0  0  0  0  0  0  0  0  0  0  0  0
    3.5935    1.0126    0.0000 C   0  0  0  0  0  0  0  0  0  0  0  0
    8.9790   -1.0648    0.0000 C   0  0  0  0  0  0  0  0  0  0  0  0
    8.9624    1.0906    0.0000 C   0  0  0  0  0  0  0  0  0  0  0  0
    3.5935    2.0542    0.0000 C   0  0  0  0  0  0  0  0  0  0  0  0
    5.3717   -0.9980    0.0000 C   0  0  0  0  0  0  0  0  0  0  0  0
    9.9187   -0.5223    0.0000 C   0  0  0  0  0  0  0  0  0  0  0  0
    9.9103    0.5627    0.0000 C   0  0  0  0  0  0  0  0  0  0  0  0
    2.0000    1.5334    0.0000 C   0  0  0  0  0  0  0  0  0  0  0  0
    9.8393   -2.5681    0.0000 C   0  0  0  0  0  0  0  0  0  0  0  0
   11.6507   -0.5156    0.0000 C   0  0  0  0  0  0  0  0  0  0  0  0
    7.6625    2.3434    0.0000 H   0  0  0  0  0  0  0  0  0  0  0  0
    4.5068   -0.1212    0.0000 H   0  0  0  0  0  0  0  0  0  0  0  0
    6.2596    3.1534    0.0000 H   0  0  0  0  0  0  0  0  0  0  0  0
    4.5068    3.1880    0.0000 H   0  0  0  0  0  0  0  0  0  0  0  0
    8.9505    1.7105    0.0000 H   0  0  0  0  0  0  0  0  0  0  0  0
    5.0680   -0.4576    0.0000 H   0  0  0  0  0  0  0  0  0  0  0  0
    4.8313   -1.3018    0.0000 H   0  0  0  0  0  0  0  0  0  0  0  0
    5.6755   -1.5385    0.0000 H   0  0  0  0  0  0  0  0  0  0  0  0
   10.4436    0.8789    0.0000 H   0  0  0  0  0  0  0  0  0  0  0  0
    1.5391    1.9482    0.0000 H   0  0  0  0  0  0  0  0  0  0  0  0
    1.5391    1.1187    0.0000 H   0  0  0  0  0  0  0  0  0  0  0  0
    9.5272   -3.1038    0.0000 H   0  0  0  0  0  0  0  0  0  0  0  0
   10.3750   -2.8802    0.0000 H   0  0  0  0  0  0  0  0  0  0  0  0
   10.1513   -2.0323    0.0000 H   0  0  0  0  0  0  0  0  0  0  0  0
   11.9628   -1.0513    0.0000 H   0  0  0  0  0  0  0  0  0  0  0  0
   12.1864   -0.2035    0.0000 H   0  0  0  0  0  0  0  0  0  0  0  0
   11.3386    0.0202    0.0000 H   0  0  0  0  0  0  0  0  0  0  0  0
  1 18  1  0  0  0  0
  1 25  1  0  0  0  0
  2 21  1  0  0  0  0
  2 25  1  0  0  0  0
  3 19  1  0  0  0  0
  3 26  1  0  0  0  0
  4 13  2  0  0  0  0
  5 23  1  0  0  0  0
  5 27  1  0  0  0  0
  6  7  1  0  0  0  0
  6 13  1  0  0  0  0
  6 22  1  0  0  0  0
  7  8  2  0  0  0  0
  7  9  1  0  0  0  0
  8 10  1  0  0  0  0
  8 14  1  0  0  0  0
  9 12  1  0  0  0  0
  9 15  2  0  0  0  0
 10 11  2  0  0  0  0
 10 20  1  0  0  0  0
 11 13  1  0  0  0  0
 11 19  1  0  0  0  0
 12 16  1  0  0  0  0
 12 17  2  0  0  0  0
 14 16  2  0  0  0  0
 14 28  1  0  0  0  0
 15 18  1  0  0  0  0
 15 29  1  0  0  0  0
 16 30  1  0  0  0  0
 17 21  1  0  0  0  0
 17 31  1  0  0  0  0
 18 21  2  0  0  0  0
 19 23  2  0  0  0  0
 20 24  2  0  0  0  0
 20 32  1  0  0  0  0
 22 33  1  0  0  0  0
 22 34  1  0  0  0  0
 22 35  1  0  0  0  0
 23 24  1  0  0  0  0
 24 36  1  0  0  0  0
 25 37  1  0  0  0  0
 25 38  1  0  0  0  0
 26 39  1  0  0  0  0
 26 40  1  0  0  0  0
 26 41  1  0  0  0  0
 27 42  1  0  0  0  0
 27 43  1  0  0  0  0
 27 44  1  0  0  0  0
M  END
> <PUBCHEM_COMPOUND_CID>
147279

> <PUBCHEM_COMPOUND_CANONICALIZED>
1

> <PUBCHEM_CACTVS_COMPLEXITY>
585

> <PUBCHEM_CACTVS_HBOND_ACCEPTOR>
5

> <PUBCHEM_CACTVS_HBOND_DONOR>
0

> <PUBCHEM_CACTVS_ROTATABLE_BOND>
2

> <PUBCHEM_CACTVS_SUBSKEYS>
AAADceB6OAAAAAAAAAAAAAAAAAAAASAAAAA8YMEAAAAAAEjxVAAAHgAAAAAADAyBmAcyzsMABACIAiVSUACCCAAlIAAIiAEOzMgdJjbEtZukMWpm5hHO6Qe62fOe4AADQAAaQADAAAaAADSAAAAAAAAAAA==

> <PUBCHEM_IUPAC_OPENEYE_NAME>
1,2-dimethoxy-12-methyl-[1,3]benzodioxolo[5,6-c]phenanthridin-13-one

> <PUBCHEM_IUPAC_CAS_NAME>
1,2-dimethoxy-12-methyl-[1,3]benzodioxolo[5,6-c]phenanthridin-13-one

> <PUBCHEM_IUPAC_NAME>
1,2-dimethoxy-12-methyl-[1,3]benzodioxolo[5,6-c]phenanthridin-13-one

> <PUBCHEM_IUPAC_SYSTEMATIC_NAME>
1,2-dimethoxy-12-methyl-[1,3]benzodioxolo[5,6-c]phenanthridin-13-one

> <PUBCHEM_IUPAC_TRADITIONAL_NAME>
1,2-dimethoxy-12-methyl-[1,3]benzodioxolo[5,6-c]phenanthridin-13-one

> <PUBCHEM_IUPAC_INCHI>
InChI=1S/C21H17NO5/c1-22-19-13(5-4-11-8-16-17(9-14(11)19)27-10-26-16)12-6-7-15(24-2)20(25-3)18(12)21(22)23/h4-9H,10H2,1-3H3

> <PUBCHEM_IUPAC_INCHIKEY>
IHTXRYTWDARUKX-UHFFFAOYSA-N

> <PUBCHEM_XLOGP3_AA>
3.6

> <PUBCHEM_EXACT_MASS>
363.110673

> <PUBCHEM_MOLECULAR_FORMULA>
C21H17NO5

> <PUBCHEM_MOLECULAR_WEIGHT>
363.36338

> <PUBCHEM_OPENEYE_CAN_SMILES>
CN1C2=C(C=CC3=CC4=C(C=C32)OCO4)C5=C(C1=O)C(=C(C=C5)OC)OC

> <PUBCHEM_OPENEYE_ISO_SMILES>
CN1C2=C(C=CC3=CC4=C(C=C32)OCO4)C5=C(C1=O)C(=C(C=C5)OC)OC

> <PUBCHEM_CACTVS_TPSA>
57.2

> <PUBCHEM_MONOISOTOPIC_WEIGHT>
363.110673

> <PUBCHEM_TOTAL_CHARGE>
0

> <PUBCHEM_HEAVY_ATOM_COUNT>
27

> <PUBCHEM_ATOM_DEF_STEREO_COUNT>
0

> <PUBCHEM_ATOM_UDEF_STEREO_COUNT>
0

> <PUBCHEM_BOND_DEF_STEREO_COUNT>
0

> <PUBCHEM_BOND_UDEF_STEREO_COUNT>
0

> <PUBCHEM_ISOTOPIC_ATOM_COUNT>
0

> <PUBCHEM_COMPONENT_COUNT>
1

> <PUBCHEM_CACTVS_TAUTO_COUNT>
1

> <PUBCHEM_COORDINATE_TYPE>
1
5
255

> <PUBCHEM_BONDANNOTATIONS>
10  11  8
10  20  8
11  13  8
11  19  8
12  16  8
12  17  8
14  16  8
15  18  8
17  21  8
18  21  8
19  23  8
20  24  8
23  24  8
6  13  8
6  7  8
7  8  8
7  9  8
8  10  8
8  14  8
9  12  8
9  15  8

$$$$

