10938
  -OEChem-06261205083D

 24 24  0     0  0  0  0  0  0999 V2000
    1.0628    0.9524    0.2781 O   0  0  0  0  0  0  0  0  0  0  0  0
   -1.7310   -0.0040   -0.0588 N   0  3  0  0  0  0  0  0  0  0  0  0
   -0.6836   -0.5841    0.8807 C   0  0  0  0  0  0  0  0  0  0  0  0
   -1.5887   -0.6419   -1.4333 C   0  0  0  0  0  0  0  0  0  0  0  0
   -3.1205   -0.2904    0.4920 C   0  0  0  0  0  0  0  0  0  0  0  0
   -1.5314    1.5003   -0.1746 C   0  0  0  0  0  0  0  0  0  0  0  0
    0.7164   -0.3422    0.4051 C   0  0  0  0  0  0  0  0  0  0  0  0
    1.7238   -1.1856    0.0701 C   0  0  0  0  0  0  0  0  0  0  0  0
    2.8022   -0.3478   -0.3015 C   0  0  0  0  0  0  0  0  0  0  0  0
    2.3500    0.9432   -0.1577 C   0  0  0  0  0  0  0  0  0  0  0  0
   -0.8797   -1.6598    0.9659 H   0  0  0  0  0  0  0  0  0  0  0  0
   -0.8313   -0.1283    1.8672 H   0  0  0  0  0  0  0  0  0  0  0  0
   -1.6777   -1.7269   -1.3242 H   0  0  0  0  0  0  0  0  0  0  0  0
   -2.3940   -0.2605   -2.0690 H   0  0  0  0  0  0  0  0  0  0  0  0
   -0.6229   -0.3741   -1.8701 H   0  0  0  0  0  0  0  0  0  0  0  0
   -3.2103    0.1932    1.4693 H   0  0  0  0  0  0  0  0  0  0  0  0
   -3.8629    0.1121   -0.2035 H   0  0  0  0  0  0  0  0  0  0  0  0
   -3.2387   -1.3739    0.5875 H   0  0  0  0  0  0  0  0  0  0  0  0
   -1.3446    1.9191    0.8185 H   0  0  0  0  0  0  0  0  0  0  0  0
   -0.7333    1.7265   -0.8853 H   0  0  0  0  0  0  0  0  0  0  0  0
   -2.4560    1.9288   -0.5769 H   0  0  0  0  0  0  0  0  0  0  0  0
    1.7044   -2.2657    0.0840 H   0  0  0  0  0  0  0  0  0  0  0  0
    3.7859   -0.6473   -0.6329 H   0  0  0  0  0  0  0  0  0  0  0  0
    2.7963    1.9140   -0.3167 H   0  0  0  0  0  0  0  0  0  0  0  0
  1  7  1  0  0  0  0
  1 10  1  0  0  0  0
  2  3  1  0  0  0  0
  2  4  1  0  0  0  0
  2  5  1  0  0  0  0
  2  6  1  0  0  0  0
  3  7  1  0  0  0  0
  3 11  1  0  0  0  0
  3 12  1  0  0  0  0
  4 13  1  0  0  0  0
  4 14  1  0  0  0  0
  4 15  1  0  0  0  0
  5 16  1  0  0  0  0
  5 17  1  0  0  0  0
  5 18  1  0  0  0  0
  6 19  1  0  0  0  0
  6 20  1  0  0  0  0
  6 21  1  0  0  0  0
  7  8  2  0  0  0  0
  8  9  1  0  0  0  0
  8 22  1  0  0  0  0
  9 10  2  0  0  0  0
  9 23  1  0  0  0  0
 10 24  1  0  0  0  0
M  CHG  1   2   1
M  END
> <PUBCHEM_COMPOUND_CID>
10938

> <PUBCHEM_CONFORMER_RMSD>
0.4

> <PUBCHEM_CONFORMER_DIVERSEORDER>
1
2
3
4

> <PUBCHEM_MMFF94_PARTIAL_CHARGES>
13
1 -0.28
10 -0.01
2 -1.01
22 0.15
23 0.15
24 0.15
3 0.68
4 0.5
5 0.5
6 0.5
7 -0.04
8 -0.15
9 -0.15

> <PUBCHEM_EFFECTIVE_ROTOR_COUNT>
2

> <PUBCHEM_PHARMACOPHORE_FEATURES>
3
1 1 acceptor
1 2 cation
5 1 7 8 9 10 rings

> <PUBCHEM_HEAVY_ATOM_COUNT>
10

> <PUBCHEM_ATOM_DEF_STEREO_COUNT>
0

> <PUBCHEM_ATOM_UDEF_STEREO_COUNT>
0

> <PUBCHEM_BOND_DEF_STEREO_COUNT>
0

> <PUBCHEM_BOND_UDEF_STEREO_COUNT>
0

> <PUBCHEM_ISOTOPIC_ATOM_COUNT>
0

> <PUBCHEM_COMPONENT_COUNT>
1

> <PUBCHEM_CACTVS_TAUTO_COUNT>
1

> <PUBCHEM_CONFORMER_ID>
00002ABA00000001

> <PUBCHEM_MMFF94_ENERGY>
24.1622

> <PUBCHEM_FEATURE_SELFOVERLAP>
15.223

> <PUBCHEM_SHAPE_FINGERPRINT>
10857977 72 16271920476790871323
11062470 55 6122503484271552259
12897270 3 18412267215915332319
12932764 1 17967820448361313408
14325111 11 18343862229574922121
15310529 11 18408885156839974191
15775835 57 18113896022651392076
16945 1 18412269419339082642
17844478 74 18130776863496160801
19973954 147 18343580776120786980
21040471 1 18271805692520974698
23235685 24 18131351873459253740
23235687 12 17749109971772346860
23552423 10 18200311159762901786
29004967 10 18409445903712556162
369184 2 18272371975136876531
5084963 1 18410571807624228729

> <PUBCHEM_SHAPE_MULTIPOLES>
194.94
4.3
1.26
0.96
0.21
0.31
0.24
-0.08
0.14
-0.1
0.03
0.43
-0.19
-0.02

> <PUBCHEM_SHAPE_SELFOVERLAP>
388.373

> <PUBCHEM_SHAPE_VOLUME>
119.8

> <PUBCHEM_COORDINATE_TYPE>
2
5
10

$$$$

