7068
  -OEChem-06261201432D

 72 77  0     0  0  0  0  0  0999 V2000
   13.3263   -1.0000    0.0000 O   0  0  0  0  0  0  0  0  0  0  0  0
    8.9962   -3.5000    0.0000 O   0  0  0  0  0  0  0  0  0  0  0  0
   13.3263    4.0000    0.0000 O   0  0  0  0  0  0  0  0  0  0  0  0
    6.3981   -4.0000    0.0000 O   0  0  0  0  0  0  0  0  0  0  0  0
   12.4603    2.5000    0.0000 O   0  0  0  0  0  0  0  0  0  0  0  0
    6.3981   -1.0000    0.0000 O   0  0  0  0  0  0  0  0  0  0  0  0
   13.3263    1.0000    0.0000 N   0  0  0  0  0  0  0  0  0  0  0  0
    7.2641   -2.5000    0.0000 N   0  0  0  0  0  0  0  0  0  0  0  0
   10.7282   -0.5000    0.0000 C   0  0  0  0  0  0  0  0  0  0  0  0
    9.8622   -1.0000    0.0000 C   0  0  0  0  0  0  0  0  0  0  0  0
   12.4603    0.5000    0.0000 C   0  0  0  0  0  0  0  0  0  0  0  0
    8.1301   -2.0000    0.0000 C   0  0  0  0  0  0  0  0  0  0  0  0
   11.5942   -1.0000    0.0000 C   0  0  0  0  0  0  0  0  0  0  0  0
    9.8622   -2.0000    0.0000 C   0  0  0  0  0  0  0  0  0  0  0  0
   12.4603   -0.5000    0.0000 C   0  0  0  0  0  0  0  0  0  0  0  0
    8.9962   -2.5000    0.0000 C   0  0  0  0  0  0  0  0  0  0  0  0
   14.1923    2.5000    0.0000 C   0  0  0  0  0  0  0  0  0  0  0  0
    5.5321   -2.5000    0.0000 C   0  0  0  0  0  0  0  0  0  0  0  0
   15.9244    2.5000    0.0000 C   0  0  0  0  0  0  0  0  0  0  0  0
    3.8000   -2.5000    0.0000 C   0  0  0  0  0  0  0  0  0  0  0  0
   10.7282    0.5000    0.0000 C   0  0  0  0  0  0  0  0  0  0  0  0
    8.9962   -0.5000    0.0000 C   0  0  0  0  0  0  0  0  0  0  0  0
    3.8000   -3.5000    0.0000 C   0  0  0  0  0  0  0  0  0  0  0  0
   15.9244    3.5000    0.0000 C   0  0  0  0  0  0  0  0  0  0  0  0
    8.1301   -1.0000    0.0000 C   0  0  0  0  0  0  0  0  0  0  0  0
   11.5942    1.0000    0.0000 C   0  0  0  0  0  0  0  0  0  0  0  0
   15.0583    2.0000    0.0000 C   0  0  0  0  0  0  0  0  0  0  0  0
    4.6660   -2.0000    0.0000 C   0  0  0  0  0  0  0  0  0  0  0  0
   14.1923    3.5000    0.0000 C   0  0  0  0  0  0  0  0  0  0  0  0
    5.5321   -3.5000    0.0000 C   0  0  0  0  0  0  0  0  0  0  0  0
   13.3263    2.0000    0.0000 C   0  0  0  0  0  0  0  0  0  0  0  0
    6.3981   -2.0000    0.0000 C   0  0  0  0  0  0  0  0  0  0  0  0
   15.0583    4.0000    0.0000 C   0  0  0  0  0  0  0  0  0  0  0  0
    4.6660   -4.0000    0.0000 C   0  0  0  0  0  0  0  0  0  0  0  0
   16.8183    1.9653    0.0000 C   0  0  0  0  0  0  0  0  0  0  0  0
    2.9061   -1.9653    0.0000 C   0  0  0  0  0  0  0  0  0  0  0  0
   16.8183    4.0347    0.0000 C   0  0  0  0  0  0  0  0  0  0  0  0
    2.9061   -4.0347    0.0000 C   0  0  0  0  0  0  0  0  0  0  0  0
    2.0000   -2.4792    0.0000 C   0  0  0  0  0  0  0  0  0  0  0  0
   17.7244    2.4792    0.0000 C   0  0  0  0  0  0  0  0  0  0  0  0
   17.7244    3.5208    0.0000 C   0  0  0  0  0  0  0  0  0  0  0  0
    2.0000   -3.5208    0.0000 C   0  0  0  0  0  0  0  0  0  0  0  0
   13.3263   -2.0000    0.0000 C   0  0  0  0  0  0  0  0  0  0  0  0
    9.8622   -4.0000    0.0000 C   0  0  0  0  0  0  0  0  0  0  0  0
   11.5942   -1.6200    0.0000 H   0  0  0  0  0  0  0  0  0  0  0  0
   10.3991   -2.3100    0.0000 H   0  0  0  0  0  0  0  0  0  0  0  0
   10.1913    0.8100    0.0000 H   0  0  0  0  0  0  0  0  0  0  0  0
    8.9962    0.1200    0.0000 H   0  0  0  0  0  0  0  0  0  0  0  0
   11.5942    1.6200    0.0000 H   0  0  0  0  0  0  0  0  0  0  0  0
    7.5932   -0.6900    0.0000 H   0  0  0  0  0  0  0  0  0  0  0  0
   15.0583    1.3800    0.0000 H   0  0  0  0  0  0  0  0  0  0  0  0
    4.6660   -1.3800    0.0000 H   0  0  0  0  0  0  0  0  0  0  0  0
   13.8632    0.6900    0.0000 H   0  0  0  0  0  0  0  0  0  0  0  0
    7.2641   -3.1200    0.0000 H   0  0  0  0  0  0  0  0  0  0  0  0
   15.0583    4.6200    0.0000 H   0  0  0  0  0  0  0  0  0  0  0  0
    4.6660   -4.6200    0.0000 H   0  0  0  0  0  0  0  0  0  0  0  0
   16.8111    1.3454    0.0000 H   0  0  0  0  0  0  0  0  0  0  0  0
    2.9132   -1.3454    0.0000 H   0  0  0  0  0  0  0  0  0  0  0  0
   16.8111    4.6546    0.0000 H   0  0  0  0  0  0  0  0  0  0  0  0
    2.9132   -4.6546    0.0000 H   0  0  0  0  0  0  0  0  0  0  0  0
   18.2601    2.1671    0.0000 H   0  0  0  0  0  0  0  0  0  0  0  0
    1.4643   -2.1671    0.0000 H   0  0  0  0  0  0  0  0  0  0  0  0
   18.2601    3.8329    0.0000 H   0  0  0  0  0  0  0  0  0  0  0  0
    1.4643   -3.8329    0.0000 H   0  0  0  0  0  0  0  0  0  0  0  0
   13.3263    4.6200    0.0000 H   0  0  0  0  0  0  0  0  0  0  0  0
    6.3981   -4.6200    0.0000 H   0  0  0  0  0  0  0  0  0  0  0  0
    9.5522   -4.5369    0.0000 H   0  0  0  0  0  0  0  0  0  0  0  0
   10.3991   -4.3100    0.0000 H   0  0  0  0  0  0  0  0  0  0  0  0
   10.1722   -3.4631    0.0000 H   0  0  0  0  0  0  0  0  0  0  0  0
   12.7063   -2.0000    0.0000 H   0  0  0  0  0  0  0  0  0  0  0  0
   13.3263   -2.6200    0.0000 H   0  0  0  0  0  0  0  0  0  0  0  0
   13.9463   -2.0000    0.0000 H   0  0  0  0  0  0  0  0  0  0  0  0
  1 15  1  0  0  0  0
  1 43  1  0  0  0  0
  2 16  1  0  0  0  0
  2 44  1  0  0  0  0
  3 29  1  0  0  0  0
  3 65  1  0  0  0  0
  4 30  1  0  0  0  0
  4 66  1  0  0  0  0
  5 31  2  0  0  0  0
  6 32  2  0  0  0  0
  7 11  1  0  0  0  0
  7 31  1  0  0  0  0
  7 53  1  0  0  0  0
  8 12  1  0  0  0  0
  8 32  1  0  0  0  0
  8 54  1  0  0  0  0
  9 10  1  0  0  0  0
  9 13  2  0  0  0  0
  9 21  1  0  0  0  0
 10 14  2  0  0  0  0
 10 22  1  0  0  0  0
 11 15  2  0  0  0  0
 11 26  1  0  0  0  0
 12 16  2  0  0  0  0
 12 25  1  0  0  0  0
 13 15  1  0  0  0  0
 13 45  1  0  0  0  0
 14 16  1  0  0  0  0
 14 46  1  0  0  0  0
 17 27  2  0  0  0  0
 17 29  1  0  0  0  0
 17 31  1  0  0  0  0
 18 28  2  0  0  0  0
 18 30  1  0  0  0  0
 18 32  1  0  0  0  0
 19 24  1  0  0  0  0
 19 27  1  0  0  0  0
 19 35  2  0  0  0  0
 20 23  1  0  0  0  0
 20 28  1  0  0  0  0
 20 36  2  0  0  0  0
 21 26  2  0  0  0  0
 21 47  1  0  0  0  0
 22 25  2  0  0  0  0
 22 48  1  0  0  0  0
 23 34  1  0  0  0  0
 23 38  2  0  0  0  0
 24 33  1  0  0  0  0
 24 37  2  0  0  0  0
 25 50  1  0  0  0  0
 26 49  1  0  0  0  0
 27 51  1  0  0  0  0
 28 52  1  0  0  0  0
 29 33  2  0  0  0  0
 30 34  2  0  0  0  0
 33 55  1  0  0  0  0
 34 56  1  0  0  0  0
 35 40  1  0  0  0  0
 35 57  1  0  0  0  0
 36 39  1  0  0  0  0
 36 58  1  0  0  0  0
 37 41  1  0  0  0  0
 37 59  1  0  0  0  0
 38 42  1  0  0  0  0
 38 60  1  0  0  0  0
 39 42  2  0  0  0  0
 39 62  1  0  0  0  0
 40 41  2  0  0  0  0
 40 61  1  0  0  0  0
 41 63  1  0  0  0  0
 42 64  1  0  0  0  0
 43 70  1  0  0  0  0
 43 71  1  0  0  0  0
 43 72  1  0  0  0  0
 44 67  1  0  0  0  0
 44 68  1  0  0  0  0
 44 69  1  0  0  0  0
M  END
> <PUBCHEM_COMPOUND_CID>
7068

> <PUBCHEM_COMPOUND_CANONICALIZED>
1

> <PUBCHEM_CACTVS_COMPLEXITY>
902

> <PUBCHEM_CACTVS_HBOND_ACCEPTOR>
6

> <PUBCHEM_CACTVS_HBOND_DONOR>
4

> <PUBCHEM_CACTVS_ROTATABLE_BOND>
7

> <PUBCHEM_CACTVS_SUBSKEYS>
AAADceB/OAAAAAAAAAAAAAAAAAAAAAAAAAAwYMGDAAAAAADBVAAAHgAQCAAADAyBmAIyxsLABgCIAiVSUACCCAAlIgAIiAEHbMgOJjbGtZuFcWhm9BHY+YeYyPCO6AADAAAYEADQAAYAADAgAAAAAAAAAA==

> <PUBCHEM_IUPAC_OPENEYE_NAME>
3-hydroxy-N-[4-[4-[(3-hydroxynaphthalene-2-carbonyl)amino]-3-methoxy-phenyl]-2-methoxy-phenyl]naphthalene-2-carboxamide

> <PUBCHEM_IUPAC_CAS_NAME>
3-hydroxy-N-[4-[4-[[(3-hydroxy-2-naphthalenyl)-oxomethyl]amino]-3-methoxyphenyl]-2-methoxyphenyl]-2-naphthalenecarboxamide

> <PUBCHEM_IUPAC_NAME>
3-hydroxy-N-[4-[4-[(3-hydroxynaphthalene-2-carbonyl)amino]-3-methoxyphenyl]-2-methoxyphenyl]naphthalene-2-carboxamide

> <PUBCHEM_IUPAC_SYSTEMATIC_NAME>
N-[2-methoxy-4-[3-methoxy-4-[(3-oxidanylnaphthalen-2-yl)carbonylamino]phenyl]phenyl]-3-oxidanyl-naphthalene-2-carboxamide

> <PUBCHEM_IUPAC_TRADITIONAL_NAME>
3-hydroxy-N-[4-[4-[(3-hydroxy-2-naphthoyl)amino]-3-methoxy-phenyl]-2-methoxy-phenyl]-2-naphthamide

> <PUBCHEM_IUPAC_INCHI>
InChI=1S/C36H28N2O6/c1-43-33-19-25(11-13-29(33)37-35(41)27-15-21-7-3-5-9-23(21)17-31(27)39)26-12-14-30(34(20-26)44-2)38-36(42)28-16-22-8-4-6-10-24(22)18-32(28)40/h3-20,39-40H,1-2H3,(H,37,41)(H,38,42)

> <PUBCHEM_IUPAC_INCHIKEY>
AXUHYNGMYQMRRI-UHFFFAOYSA-N

> <PUBCHEM_XLOGP3_AA>
8.1

> <PUBCHEM_EXACT_MASS>
584.194737

> <PUBCHEM_MOLECULAR_FORMULA>
C36H28N2O6

> <PUBCHEM_MOLECULAR_WEIGHT>
584.61732

> <PUBCHEM_OPENEYE_CAN_SMILES>
COC1=C(C=CC(=C1)C2=CC(=C(C=C2)NC(=O)C3=CC4=CC=CC=C4C=C3O)OC)NC(=O)C5=CC6=CC=CC=C6C=C5O

> <PUBCHEM_OPENEYE_ISO_SMILES>
COC1=C(C=CC(=C1)C2=CC(=C(C=C2)NC(=O)C3=CC4=CC=CC=C4C=C3O)OC)NC(=O)C5=CC6=CC=CC=C6C=C5O

> <PUBCHEM_CACTVS_TPSA>
117

> <PUBCHEM_MONOISOTOPIC_WEIGHT>
584.194737

> <PUBCHEM_TOTAL_CHARGE>
0

> <PUBCHEM_HEAVY_ATOM_COUNT>
44

> <PUBCHEM_ATOM_DEF_STEREO_COUNT>
0

> <PUBCHEM_ATOM_UDEF_STEREO_COUNT>
0

> <PUBCHEM_BOND_DEF_STEREO_COUNT>
0

> <PUBCHEM_BOND_UDEF_STEREO_COUNT>
0

> <PUBCHEM_ISOTOPIC_ATOM_COUNT>
0

> <PUBCHEM_COMPONENT_COUNT>
1

> <PUBCHEM_CACTVS_TAUTO_COUNT>
30

> <PUBCHEM_COORDINATE_TYPE>
1
5
255

> <PUBCHEM_BONDANNOTATIONS>
10  14  8
10  22  8
11  15  8
11  26  8
12  16  8
12  25  8
13  15  8
14  16  8
17  27  8
17  29  8
18  28  8
18  30  8
19  24  8
19  27  8
19  35  8
20  23  8
20  28  8
20  36  8
21  26  8
22  25  8
23  34  8
23  38  8
24  33  8
24  37  8
29  33  8
30  34  8
35  40  8
36  39  8
37  41  8
38  42  8
39  42  8
40  41  8
9  13  8
9  21  8

$$$$

