6275869
  -OEChem-07051212503D

 22 21  0     0  0  0  0  0  0999 V2000
    1.3188    3.1208    0.4367 O   0  0  0  0  0  0  0  0  0  0  0  0
    0.8174    1.8533   -1.3847 O   0  0  0  0  0  0  0  0  0  0  0  0
    3.2694   -2.4599    0.1271 O   0  0  0  0  0  0  0  0  0  0  0  0
    3.3837   -0.1895   -0.0197 O   0  0  0  0  0  0  0  0  0  0  0  0
   -4.3633    0.5104    0.3458 O   0  0  0  0  0  0  0  0  0  0  0  0
   -3.7781   -1.5224   -0.5080 O   0  0  0  0  0  0  0  0  0  0  0  0
    0.3571   -0.4308    0.2122 C   0  0  0  0  0  0  0  0  0  0  0  0
    0.7049    0.8910    0.8618 C   0  0  0  0  0  0  0  0  0  0  0  0
   -1.0600   -0.7480   -0.0069 C   0  0  0  0  0  0  0  0  0  0  0  0
    1.2691   -1.3584   -0.1473 C   0  0  0  0  0  0  0  0  0  0  0  0
    0.9350    1.9695   -0.1740 C   0  0  0  0  0  0  0  0  0  0  0  0
   -2.1126    0.0327    0.2799 C   0  0  0  0  0  0  0  0  0  0  0  0
    2.7365   -1.2216   -0.0053 C   0  0  0  0  0  0  0  0  0  0  0  0
   -3.4781   -0.4471   -0.0176 C   0  0  0  0  0  0  0  0  0  0  0  0
   -0.0638    1.2208    1.5672 H   0  0  0  0  0  0  0  0  0  0  0  0
    1.6215    0.7908    1.4544 H   0  0  0  0  0  0  0  0  0  0  0  0
   -1.2501   -1.7251   -0.4503 H   0  0  0  0  0  0  0  0  0  0  0  0
    0.9437   -2.3076   -0.5702 H   0  0  0  0  0  0  0  0  0  0  0  0
   -2.0182    1.0223    0.7103 H   0  0  0  0  0  0  0  0  0  0  0  0
    1.4834    3.8400   -0.2098 H   0  0  0  0  0  0  0  0  0  0  0  0
    4.2458   -2.4315    0.2180 H   0  0  0  0  0  0  0  0  0  0  0  0
   -5.2896    0.2406    0.1685 H   0  0  0  0  0  0  0  0  0  0  0  0
  1 11  1  0  0  0  0
  1 20  1  0  0  0  0
  2 11  2  0  0  0  0
  3 13  1  0  0  0  0
  3 21  1  0  0  0  0
  4 13  2  0  0  0  0
  5 14  1  0  0  0  0
  5 22  1  0  0  0  0
  6 14  2  0  0  0  0
  7  8  1  0  0  0  0
  7  9  1  0  0  0  0
  7 10  2  0  0  0  0
  8 11  1  0  0  0  0
  8 15  1  0  0  0  0
  8 16  1  0  0  0  0
  9 12  2  0  0  0  0
  9 17  1  0  0  0  0
 10 13  1  0  0  0  0
 10 18  1  0  0  0  0
 12 14  1  0  0  0  0
 12 19  1  0  0  0  0
M  END
> <PUBCHEM_COMPOUND_CID>
6275869

> <PUBCHEM_CONFORMER_RMSD>
0.6

> <PUBCHEM_CONFORMER_DIVERSEORDER>
1
38
24
20
31
27
6
39
45
40
46
41
19
36
22
26
13
42
8
34
25
37
44
17
43
35
11
5
18
4
33
14
15
32
30
16
2
21
29
12
9
3
28
10
23
7

> <PUBCHEM_MMFF94_PARTIAL_CHARGES>
20
1 -0.65
10 -0.14
11 0.66
12 -0.14
13 0.71
14 0.71
17 0.15
18 0.15
19 0.15
2 -0.57
20 0.5
21 0.5
22 0.5
3 -0.65
4 -0.57
5 -0.65
6 -0.57
7 -0.14
8 0.2
9 -0.15

> <PUBCHEM_EFFECTIVE_ROTOR_COUNT>
5

> <PUBCHEM_PHARMACOPHORE_FEATURES>
9
1 1 acceptor
1 2 acceptor
1 3 acceptor
1 4 acceptor
1 5 acceptor
1 6 acceptor
3 1 2 11 anion
3 3 4 13 anion
3 5 6 14 anion

> <PUBCHEM_HEAVY_ATOM_COUNT>
14

> <PUBCHEM_ATOM_DEF_STEREO_COUNT>
0

> <PUBCHEM_ATOM_UDEF_STEREO_COUNT>
0

> <PUBCHEM_BOND_DEF_STEREO_COUNT>
2

> <PUBCHEM_BOND_UDEF_STEREO_COUNT>
0

> <PUBCHEM_ISOTOPIC_ATOM_COUNT>
0

> <PUBCHEM_COMPONENT_COUNT>
1

> <PUBCHEM_CACTVS_TAUTO_COUNT>
1

> <PUBCHEM_CONFORMER_ID>
005FC31D00000001

> <PUBCHEM_MMFF94_ENERGY>
25.5574

> <PUBCHEM_FEATURE_SELFOVERLAP>
45.839

> <PUBCHEM_SHAPE_FINGERPRINT>
1 1 18122344584184383396
10219947 1 18334574676340860866
14181834 199 18337383847061176508
14251717 144 18411140190837990382
14648413 74 18198338459735003771
15442244 35 18336262439848439409
15477762 27 18410013208604897663
17041 49 18335131038215019641
17041 50 18342186604335732989
18186145 218 17846509097740070491
18410436 195 18335421304736752984
20339313 130 18411412929851117051
20606313 2 18411981351635064870
20645477 70 18339933602237640671
20671657 1 18265049137454160893
20708731 107 18342172211467683975
20711985 327 18335133232547779382
212916 134 17538018961068507696
21524375 3 17610900084629924265
221490 88 18268424634052197027
2255824 54 18338798918457831439
22959321 4 18338234852382683819
23402539 116 18337117881375434414
23419403 2 18126876926076004828
23557571 272 18192706972185093438
305870 269 18049725118098177408
3071541 12 18337951164901703896
3071541 158 18342176674018020693
3250762 1 17840853097567019330
7364860 26 18264209119028722761
81228 2 17908687776801143250

> <PUBCHEM_SHAPE_MULTIPOLES>
252.9
6.24
2.57
0.79
5.6
1.52
0.1
-3.08
0
-2.25
0.11
-0.06
0.27
-0.28

> <PUBCHEM_SHAPE_SELFOVERLAP>
503.565

> <PUBCHEM_SHAPE_VOLUME>
147.7

> <PUBCHEM_COORDINATE_TYPE>
2
5
10

$$$$

