229456
  -OEChem-07051213073D

 69 73  0     1  0  0  0  0  0999 V2000
   -3.0310   -0.6366   -0.3002 O   0  0  0  0  0  0  0  0  0  0  0  0
    7.8888   -0.2587   -0.7525 O   0  0  0  0  0  0  0  0  0  0  0  0
   -4.4312    0.5887   -1.6696 O   0  0  0  0  0  0  0  0  0  0  0  0
    1.6419    0.9096    0.2530 C   0  0  2  0  0  0  0  0  0  0  0  0
    2.3815   -0.3643   -0.2712 C   0  0  1  0  0  0  0  0  0  0  0  0
    0.2461    0.9586   -0.3774 C   0  0  1  0  0  0  0  0  0  0  0  0
   -0.6069   -0.2768   -0.0300 C   0  0  2  0  0  0  0  0  0  0  0  0
    3.8493   -0.4664    0.2915 C   0  0  2  0  0  0  0  0  0  0  0  0
    4.5911    0.8585   -0.0821 C   0  0  1  0  0  0  0  0  0  0  0  0
    1.5313   -1.6498   -0.0837 C   0  0  0  0  0  0  0  0  0  0  0  0
    0.0901   -1.5146   -0.6089 C   0  0  0  0  0  0  0  0  0  0  0  0
    2.4413    2.1821   -0.0578 C   0  0  0  0  0  0  0  0  0  0  0  0
   -1.9168    0.1159   -0.7398 C   0  0  2  0  0  0  0  0  0  0  0  0
   -0.6762    2.1311   -0.0531 C   0  0  0  0  0  0  0  0  0  0  0  0
    3.8765    2.1039    0.4545 C   0  0  0  0  0  0  0  0  0  0  0  0
   -2.0789    1.6153   -0.4222 C   0  0  0  0  0  0  0  0  0  0  0  0
    4.6145   -1.6315   -0.3998 C   0  0  0  0  0  0  0  0  0  0  0  0
   -0.8568   -0.4855    1.4854 C   0  0  0  0  0  0  0  0  0  0  0  0
    3.8390   -0.7170    1.8201 C   0  0  0  0  0  0  0  0  0  0  0  0
    6.0667    0.8589    0.3269 C   0  0  0  0  0  0  0  0  0  0  0  0
    6.1011   -1.6891   -0.0552 C   0  0  0  0  0  0  0  0  0  0  0  0
    6.7698   -0.3490   -0.2477 C   0  0  0  0  0  0  0  0  0  0  0  0
   -4.2412   -0.2968   -0.8470 C   0  0  0  0  0  0  0  0  0  0  0  0
   -5.3249   -1.1746   -0.2913 C   0  0  0  0  0  0  0  0  0  0  0  0
   -5.3834   -1.0762    1.2346 C   0  0  0  0  0  0  0  0  0  0  0  0
   -6.6626   -0.8456   -0.9573 C   0  0  0  0  0  0  0  0  0  0  0  0
   -6.0378    0.2107    1.7364 C   0  0  0  0  0  0  0  0  0  0  0  0
   -7.2876    0.4482   -0.4380 C   0  0  0  0  0  0  0  0  0  0  0  0
   -7.3936    0.4511    1.0826 C   0  0  0  0  0  0  0  0  0  0  0  0
    1.5355    0.8522    1.3412 H   0  0  0  0  0  0  0  0  0  0  0  0
    2.4770   -0.2380   -1.3617 H   0  0  0  0  0  0  0  0  0  0  0  0
    0.3937    0.9832   -1.4704 H   0  0  0  0  0  0  0  0  0  0  0  0
    4.5771    0.9360   -1.1809 H   0  0  0  0  0  0  0  0  0  0  0  0
    1.4994   -1.9365    0.9716 H   0  0  0  0  0  0  0  0  0  0  0  0
    1.9983   -2.4860   -0.6157 H   0  0  0  0  0  0  0  0  0  0  0  0
    0.1242   -1.4497   -1.7042 H   0  0  0  0  0  0  0  0  0  0  0  0
   -0.4758   -2.4236   -0.3720 H   0  0  0  0  0  0  0  0  0  0  0  0
    1.9528    3.0538    0.3931 H   0  0  0  0  0  0  0  0  0  0  0  0
    2.4569    2.3557   -1.1415 H   0  0  0  0  0  0  0  0  0  0  0  0
   -1.8048   -0.0208   -1.8247 H   0  0  0  0  0  0  0  0  0  0  0  0
   -0.4174    3.0273   -0.6262 H   0  0  0  0  0  0  0  0  0  0  0  0
   -0.6334    2.3931    1.0100 H   0  0  0  0  0  0  0  0  0  0  0  0
    4.4124    3.0064    0.1352 H   0  0  0  0  0  0  0  0  0  0  0  0
    3.8824    2.1124    1.5506 H   0  0  0  0  0  0  0  0  0  0  0  0
   -2.7819    1.7993    0.3983 H   0  0  0  0  0  0  0  0  0  0  0  0
   -2.4539    2.1563   -1.2982 H   0  0  0  0  0  0  0  0  0  0  0  0
    4.5154   -1.5284   -1.4888 H   0  0  0  0  0  0  0  0  0  0  0  0
    4.1692   -2.5977   -0.1362 H   0  0  0  0  0  0  0  0  0  0  0  0
   -1.4574   -1.3867    1.6559 H   0  0  0  0  0  0  0  0  0  0  0  0
    0.0681   -0.6092    2.0547 H   0  0  0  0  0  0  0  0  0  0  0  0
   -1.3991    0.3506    1.9385 H   0  0  0  0  0  0  0  0  0  0  0  0
    3.4107   -1.6961    2.0587 H   0  0  0  0  0  0  0  0  0  0  0  0
    4.8442   -0.7090    2.2507 H   0  0  0  0  0  0  0  0  0  0  0  0
    3.2615    0.0336    2.3654 H   0  0  0  0  0  0  0  0  0  0  0  0
    6.1985    0.8591    1.4132 H   0  0  0  0  0  0  0  0  0  0  0  0
    6.5582    1.7574   -0.0646 H   0  0  0  0  0  0  0  0  0  0  0  0
    6.5936   -2.4234   -0.7023 H   0  0  0  0  0  0  0  0  0  0  0  0
    6.2588   -2.0049    0.9809 H   0  0  0  0  0  0  0  0  0  0  0  0
   -5.0554   -2.2007   -0.5750 H   0  0  0  0  0  0  0  0  0  0  0  0
   -4.3901   -1.1739    1.6872 H   0  0  0  0  0  0  0  0  0  0  0  0
   -5.9714   -1.9249    1.6087 H   0  0  0  0  0  0  0  0  0  0  0  0
   -7.3604   -1.6694   -0.7570 H   0  0  0  0  0  0  0  0  0  0  0  0
   -6.5597   -0.7908   -2.0478 H   0  0  0  0  0  0  0  0  0  0  0  0
   -5.3767    1.0611    1.5285 H   0  0  0  0  0  0  0  0  0  0  0  0
   -6.1574    0.1611    2.8247 H   0  0  0  0  0  0  0  0  0  0  0  0
   -8.2875    0.5660   -0.8719 H   0  0  0  0  0  0  0  0  0  0  0  0
   -6.7033    1.3155   -0.7647 H   0  0  0  0  0  0  0  0  0  0  0  0
   -8.0976   -0.3268    1.4027 H   0  0  0  0  0  0  0  0  0  0  0  0
   -7.8014    1.4099    1.4218 H   0  0  0  0  0  0  0  0  0  0  0  0
  1 13  1  0  0  0  0
  1 23  1  0  0  0  0
  2 22  2  0  0  0  0
  3 23  2  0  0  0  0
  4  5  1  0  0  0  0
  4  6  1  0  0  0  0
  4 12  1  0  0  0  0
  4 30  1  0  0  0  0
  5  8  1  0  0  0  0
  5 10  1  0  0  0  0
  5 31  1  0  0  0  0
  6  7  1  0  0  0  0
  6 14  1  0  0  0  0
  6 32  1  0  0  0  0
  7 11  1  0  0  0  0
  7 13  1  0  0  0  0
  7 18  1  0  0  0  0
  8  9  1  0  0  0  0
  8 17  1  0  0  0  0
  8 19  1  0  0  0  0
  9 15  1  0  0  0  0
  9 20  1  0  0  0  0
  9 33  1  0  0  0  0
 10 11  1  0  0  0  0
 10 34  1  0  0  0  0
 10 35  1  0  0  0  0
 11 36  1  0  0  0  0
 11 37  1  0  0  0  0
 12 15  1  0  0  0  0
 12 38  1  0  0  0  0
 12 39  1  0  0  0  0
 13 16  1  0  0  0  0
 13 40  1  0  0  0  0
 14 16  1  0  0  0  0
 14 41  1  0  0  0  0
 14 42  1  0  0  0  0
 15 43  1  0  0  0  0
 15 44  1  0  0  0  0
 16 45  1  0  0  0  0
 16 46  1  0  0  0  0
 17 21  1  0  0  0  0
 17 47  1  0  0  0  0
 17 48  1  0  0  0  0
 18 49  1  0  0  0  0
 18 50  1  0  0  0  0
 18 51  1  0  0  0  0
 19 52  1  0  0  0  0
 19 53  1  0  0  0  0
 19 54  1  0  0  0  0
 20 22  1  0  0  0  0
 20 55  1  0  0  0  0
 20 56  1  0  0  0  0
 21 22  1  0  0  0  0
 21 57  1  0  0  0  0
 21 58  1  0  0  0  0
 23 24  1  0  0  0  0
 24 25  1  0  0  0  0
 24 26  1  0  0  0  0
 24 59  1  0  0  0  0
 25 27  1  0  0  0  0
 25 60  1  0  0  0  0
 25 61  1  0  0  0  0
 26 28  1  0  0  0  0
 26 62  1  0  0  0  0
 26 63  1  0  0  0  0
 27 29  1  0  0  0  0
 27 64  1  0  0  0  0
 27 65  1  0  0  0  0
 28 29  1  0  0  0  0
 28 66  1  0  0  0  0
 28 67  1  0  0  0  0
 29 68  1  0  0  0  0
 29 69  1  0  0  0  0
M  END
> <PUBCHEM_COMPOUND_CID>
229456

> <PUBCHEM_CONFORMER_RMSD>
0.8

> <PUBCHEM_CONFORMER_DIVERSEORDER>
1
13
10
6
11
8
12
4
7
5
3
14
2
9

> <PUBCHEM_MMFF94_PARTIAL_CHARGES>
9
1 -0.43
13 0.28
2 -0.57
20 0.06
21 0.06
22 0.45
23 0.66
24 0.06
3 -0.57

> <PUBCHEM_EFFECTIVE_ROTOR_COUNT>
6.2

> <PUBCHEM_PHARMACOPHORE_FEATURES>
7
1 2 acceptor
1 3 acceptor
5 6 7 13 14 16 rings
6 24 25 26 27 28 29 rings
6 4 5 6 7 10 11 rings
6 4 5 8 9 12 15 rings
6 8 9 17 20 21 22 rings

> <PUBCHEM_HEAVY_ATOM_COUNT>
29

> <PUBCHEM_ATOM_DEF_STEREO_COUNT>
7

> <PUBCHEM_ATOM_UDEF_STEREO_COUNT>
0

> <PUBCHEM_BOND_DEF_STEREO_COUNT>
0

> <PUBCHEM_BOND_UDEF_STEREO_COUNT>
0

> <PUBCHEM_ISOTOPIC_ATOM_COUNT>
0

> <PUBCHEM_COMPONENT_COUNT>
1

> <PUBCHEM_CACTVS_TAUTO_COUNT>
3

> <PUBCHEM_CONFORMER_ID>
0003805000000001

> <PUBCHEM_MMFF94_ENERGY>
80.6114

> <PUBCHEM_FEATURE_SELFOVERLAP>
35.612

> <PUBCHEM_SHAPE_FINGERPRINT>
10076449 9 18342734122788320420
10299344 5 18040715865959637495
11089746 13 16805044008735461857
11315181 36 14476961186706678327
11963148 33 18342466915008360131
12166972 35 17894914014605126432
12236239 1 17676206858099322719
12516196 113 18259989253910675193
12616971 3 18041003912346886269
13533116 47 18186522094782492592
13685833 64 18408886248394592214
13782708 43 17703798028113537059
14170010 4 18410858742243039148
14251764 18 17967812738705340301
14849402 71 18114743711694132624
14856354 85 16950285079522311317
14933364 13 18343866623526854645
15131766 46 14419856864675186986
15142383 8 14056719067509452042
15183329 4 18408605863722441747
15361156 5 18059005077978044791
15419008 47 17703794716994757669
15461852 350 15791738495145529517
18335252 98 16056875840714695899
18608769 82 17632008672084387618
20028762 73 18187086160990412342
20105231 36 18271516559312321858
21130935 74 18187367592858992535
21150785 3 13830127286982084035
21267235 1 18409445899839588500
21521721 280 18335984186387234258
21781051 124 17916566670767363498
21792934 111 18262249892403338440
21792961 116 18059302061912583542
221357 26 18410295822349120604
23522609 53 18116408402527003353
23559900 14 17917994932044799768
255183 451 17825096263477392206
2838139 119 8935001464882137763
3004659 81 18272939310278540692
3178227 256 18413385441122032970
335352 9 18408887312887222534
34797466 226 16630518540817106238
350125 39 18334858329024181216
397830 11 17488453067034510457
4073 2 18129660786000475123
4258327 124 16127789900243216582
4325135 7 18040715874528291207
4340502 62 16845579699305188498
46194498 28 17632861902414992508
5028188 123 17386003928122986636
5104073 3 18338244872256562552

> <PUBCHEM_SHAPE_MULTIPOLES>
579.2
20.58
1.88
1.23
9.54
0.53
-0.39
-3.27
-0.6
-1.58
0.07
1.39
-0.13
0.14

> <PUBCHEM_SHAPE_SELFOVERLAP>
1230.72

> <PUBCHEM_SHAPE_VOLUME>
317.4

> <PUBCHEM_COORDINATE_TYPE>
2
5
10

$$$$

