5393
  -OEChem-06261200402D

 60 62  0     1  0  0  0  0  0999 V2000
    7.4325    0.2470    0.0000 S   0  0  0  0  0  0  0  0  0  0  0  0
    9.4240    0.6073    0.0000 S   0  0  0  0  0  0  0  0  0  0  0  0
    5.2497   -2.1332    0.0000 O   0  0  0  0  0  0  0  0  0  0  0  0
    3.2697    1.8214    0.0000 O   0  0  0  0  0  0  0  0  0  0  0  0
    2.8843    0.1328    0.0000 O   0  0  0  0  0  0  0  0  0  0  0  0
    7.7986   -4.4436    0.0000 O   0  0  0  0  0  0  0  0  0  0  0  0
    8.6646   -2.9436    0.0000 O   0  0  0  0  0  0  0  0  0  0  0  0
    6.9325   -1.9436    0.0000 N   0  0  0  0  0  0  0  0  0  0  0  0
    4.8341   -0.3123    0.0000 N   0  0  0  0  0  0  0  0  0  0  0  0
    5.8090   -0.5348    0.0000 C   0  0  3  0  0  0  0  0  0  0  0  0
    8.0560   -0.5348    0.0000 C   0  0  3  0  0  0  0  0  0  0  0  0
    6.4325    0.2470    0.0000 C   0  0  0  0  0  0  0  0  0  0  0  0
    7.8335   -1.5097    0.0000 C   0  0  0  0  0  0  0  0  0  0  0  0
    4.5394    0.6433    0.0000 C   0  0  3  0  0  0  0  0  0  0  0  0
    6.0316   -1.5097    0.0000 C   0  0  0  0  0  0  0  0  0  0  0  0
    5.2195    1.3764    0.0000 C   0  0  0  0  0  0  0  0  0  0  0  0
    6.9325   -2.9436    0.0000 C   0  0  0  0  0  0  0  0  0  0  0  0
    9.0310   -0.3123    0.0000 C   0  0  0  0  0  0  0  0  0  0  0  0
    4.9248    2.3319    0.0000 C   0  0  0  0  0  0  0  0  0  0  0  0
    3.5644    0.8658    0.0000 C   0  0  0  0  0  0  0  0  0  0  0  0
    5.6050    3.0650    0.0000 C   0  0  0  0  0  0  0  0  0  0  0  0
    9.7840   -0.9702    0.0000 C   0  0  0  0  0  0  0  0  0  0  0  0
    7.7986   -3.4436    0.0000 C   0  0  0  0  0  0  0  0  0  0  0  0
   10.6425   -0.4573    0.0000 C   0  0  0  0  0  0  0  0  0  0  0  0
   10.4200    0.5176    0.0000 C   0  0  0  0  0  0  0  0  0  0  0  0
    6.5799    2.8425    0.0000 C   0  0  0  0  0  0  0  0  0  0  0  0
    5.3102    4.0206    0.0000 C   0  0  0  0  0  0  0  0  0  0  0  0
    2.2948    2.0439    0.0000 C   0  0  0  0  0  0  0  0  0  0  0  0
    7.2601    3.5755    0.0000 C   0  0  0  0  0  0  0  0  0  0  0  0
    5.9904    4.7536    0.0000 C   0  0  0  0  0  0  0  0  0  0  0  0
    6.9653    4.5311    0.0000 C   0  0  0  0  0  0  0  0  0  0  0  0
    2.0000    2.9995    0.0000 C   0  0  0  0  0  0  0  0  0  0  0  0
    5.5283    0.2675    0.0000 H   0  0  0  0  0  0  0  0  0  0  0  0
    8.3368    0.2675    0.0000 H   0  0  0  0  0  0  0  0  0  0  0  0
    6.5705    0.8515    0.0000 H   0  0  0  0  0  0  0  0  0  0  0  0
    5.8739    0.5160    0.0000 H   0  0  0  0  0  0  0  0  0  0  0  0
    7.9715   -2.1142    0.0000 H   0  0  0  0  0  0  0  0  0  0  0  0
    8.4535   -1.5097    0.0000 H   0  0  0  0  0  0  0  0  0  0  0  0
    5.3681    0.4542    0.0000 H   0  0  0  0  0  0  0  0  0  0  0  0
    4.4124   -0.7668    0.0000 H   0  0  0  0  0  0  0  0  0  0  0  0
    5.5939    0.8821    0.0000 H   0  0  0  0  0  0  0  0  0  0  0  0
    5.7713    1.6592    0.0000 H   0  0  0  0  0  0  0  0  0  0  0  0
    6.3220   -2.8359    0.0000 H   0  0  0  0  0  0  0  0  0  0  0  0
    6.7205   -3.5262    0.0000 H   0  0  0  0  0  0  0  0  0  0  0  0
    4.5504    2.8262    0.0000 H   0  0  0  0  0  0  0  0  0  0  0  0
    4.3731    2.0491    0.0000 H   0  0  0  0  0  0  0  0  0  0  0  0
    9.7284   -1.5877    0.0000 H   0  0  0  0  0  0  0  0  0  0  0  0
   11.2126   -0.7010    0.0000 H   0  0  0  0  0  0  0  0  0  0  0  0
   10.8279    0.9845    0.0000 H   0  0  0  0  0  0  0  0  0  0  0  0
    6.7626    2.2500    0.0000 H   0  0  0  0  0  0  0  0  0  0  0  0
    4.7058    4.1585    0.0000 H   0  0  0  0  0  0  0  0  0  0  0  0
    1.6796    1.9668    0.0000 H   0  0  0  0  0  0  0  0  0  0  0  0
    2.2638    1.4247    0.0000 H   0  0  0  0  0  0  0  0  0  0  0  0
    7.8645    3.4376    0.0000 H   0  0  0  0  0  0  0  0  0  0  0  0
    5.8076    5.3461    0.0000 H   0  0  0  0  0  0  0  0  0  0  0  0
    7.3870    4.9856    0.0000 H   0  0  0  0  0  0  0  0  0  0  0  0
    8.3355   -4.7536    0.0000 H   0  0  0  0  0  0  0  0  0  0  0  0
    2.5925    3.1822    0.0000 H   0  0  0  0  0  0  0  0  0  0  0  0
    1.8172    3.5919    0.0000 H   0  0  0  0  0  0  0  0  0  0  0  0
    1.4075    2.8167    0.0000 H   0  0  0  0  0  0  0  0  0  0  0  0
  1 11  1  0  0  0  0
  1 12  1  0  0  0  0
  2 18  1  0  0  0  0
  2 25  1  0  0  0  0
  3 15  2  0  0  0  0
  4 20  1  0  0  0  0
  4 28  1  0  0  0  0
  5 20  2  0  0  0  0
  6 23  1  0  0  0  0
  6 57  1  0  0  0  0
  7 23  2  0  0  0  0
  8 13  1  0  0  0  0
  8 15  1  0  0  0  0
  8 17  1  0  0  0  0
  9 10  1  0  0  0  0
  9 14  1  0  0  0  0
  9 40  1  0  0  0  0
 10 12  1  0  0  0  0
 10 15  1  0  0  0  0
 10 33  1  0  0  0  0
 11 13  1  0  0  0  0
 11 18  1  0  0  0  0
 11 34  1  0  0  0  0
 12 35  1  0  0  0  0
 12 36  1  0  0  0  0
 13 37  1  0  0  0  0
 13 38  1  0  0  0  0
 14 16  1  0  0  0  0
 14 20  1  0  0  0  0
 14 39  1  0  0  0  0
 16 19  1  0  0  0  0
 16 41  1  0  0  0  0
 16 42  1  0  0  0  0
 17 23  1  0  0  0  0
 17 43  1  0  0  0  0
 17 44  1  0  0  0  0
 18 22  2  0  0  0  0
 19 21  1  0  0  0  0
 19 45  1  0  0  0  0
 19 46  1  0  0  0  0
 21 26  2  0  0  0  0
 21 27  1  0  0  0  0
 22 24  1  0  0  0  0
 22 47  1  0  0  0  0
 24 25  2  0  0  0  0
 24 48  1  0  0  0  0
 25 49  1  0  0  0  0
 26 29  1  0  0  0  0
 26 50  1  0  0  0  0
 27 30  2  0  0  0  0
 27 51  1  0  0  0  0
 28 32  1  0  0  0  0
 28 52  1  0  0  0  0
 28 53  1  0  0  0  0
 29 31  2  0  0  0  0
 29 54  1  0  0  0  0
 30 31  1  0  0  0  0
 30 55  1  0  0  0  0
 31 56  1  0  0  0  0
 32 58  1  0  0  0  0
 32 59  1  0  0  0  0
 32 60  1  0  0  0  0
M  END
> <PUBCHEM_COMPOUND_CID>
5393

> <PUBCHEM_COMPOUND_CANONICALIZED>
1

> <PUBCHEM_CACTVS_COMPLEXITY>
644

> <PUBCHEM_CACTVS_HBOND_ACCEPTOR>
8

> <PUBCHEM_CACTVS_HBOND_DONOR>
2

> <PUBCHEM_CACTVS_ROTATABLE_BOND>
11

> <PUBCHEM_CACTVS_SUBSKEYS>
AAADceB7OABgAAAAAAAAAAAAAAAAASAAAAAwAAAABYAAAAABwAAAHgQQCAAADCjl2AayCYPABgiMAiHSGAADAIAgCBBIiJmIAIgKYDKgkTGXIAAklgC4iAeYyLCOAAAAAAAAAAAAAAAAAAAAAAAAAAAAAA==

> <PUBCHEM_IUPAC_OPENEYE_NAME>
2-[6-[(1-ethoxycarbonyl-3-phenyl-propyl)amino]-5-oxo-2-(2-thienyl)-1,4-thiazepan-4-yl]acetic acid

> <PUBCHEM_IUPAC_CAS_NAME>
2-[6-[(1-ethoxy-1-oxo-4-phenylbutan-2-yl)amino]-5-oxo-2-thiophen-2-yl-1,4-thiazepan-4-yl]acetic acid

> <PUBCHEM_IUPAC_NAME>
2-[6-[(1-ethoxy-1-oxo-4-phenylbutan-2-yl)amino]-5-oxo-2-thiophen-2-yl-1,4-thiazepan-4-yl]acetic acid

> <PUBCHEM_IUPAC_SYSTEMATIC_NAME>
2-[6-[(1-ethoxy-1-oxidanylidene-4-phenyl-butan-2-yl)amino]-5-oxidanylidene-2-thiophen-2-yl-1,4-thiazepan-4-yl]ethanoic acid

> <PUBCHEM_IUPAC_TRADITIONAL_NAME>
2-[6-[(1-carbethoxy-3-phenyl-propyl)amino]-5-keto-2-(2-thienyl)-1,4-thiazepan-4-yl]acetic acid

> <PUBCHEM_IUPAC_INCHI>
InChI=1S/C23H28N2O5S2/c1-2-30-23(29)17(11-10-16-7-4-3-5-8-16)24-18-15-32-20(19-9-6-12-31-19)13-25(22(18)28)14-21(26)27/h3-9,12,17-18,20,24H,2,10-11,13-15H2,1H3,(H,26,27)

> <PUBCHEM_IUPAC_INCHIKEY>
FIQOFIRCTOWDOW-UHFFFAOYSA-N

> <PUBCHEM_XLOGP3_AA>
1

> <PUBCHEM_EXACT_MASS>
476.143964

> <PUBCHEM_MOLECULAR_FORMULA>
C23H28N2O5S2

> <PUBCHEM_MOLECULAR_WEIGHT>
476.60882

> <PUBCHEM_OPENEYE_CAN_SMILES>
CCOC(=O)C(CCC1=CC=CC=C1)NC2CSC(CN(C2=O)CC(=O)O)C3=CC=CS3

> <PUBCHEM_OPENEYE_ISO_SMILES>
CCOC(=O)C(CCC1=CC=CC=C1)NC2CSC(CN(C2=O)CC(=O)O)C3=CC=CS3

> <PUBCHEM_CACTVS_TPSA>
150

> <PUBCHEM_MONOISOTOPIC_WEIGHT>
476.143964

> <PUBCHEM_TOTAL_CHARGE>
0

> <PUBCHEM_HEAVY_ATOM_COUNT>
32

> <PUBCHEM_ATOM_DEF_STEREO_COUNT>
0

> <PUBCHEM_ATOM_UDEF_STEREO_COUNT>
3

> <PUBCHEM_BOND_DEF_STEREO_COUNT>
0

> <PUBCHEM_BOND_UDEF_STEREO_COUNT>
0

> <PUBCHEM_ISOTOPIC_ATOM_COUNT>
0

> <PUBCHEM_COMPONENT_COUNT>
1

> <PUBCHEM_CACTVS_TAUTO_COUNT>
2

> <PUBCHEM_COORDINATE_TYPE>
1
5
255

> <PUBCHEM_BONDANNOTATIONS>
10  33  3
11  34  3
14  39  3
18  22  8
2  18  8
2  25  8
21  26  8
21  27  8
22  24  8
24  25  8
26  29  8
27  30  8
29  31  8
30  31  8

$$$$

