53262311
  -OEChem-07051213152D

 55 56  0     1  0  0  0  0  0999 V2000
    5.9081    0.5000    0.0000 P   0  0  3  0  0  0  0  0  0  0  0  0
    3.3100   -4.0000    0.0000 P   0  0  0  0  0  0  0  0  0  0  0  0
    5.0420    0.0000    0.0000 O   0  0  0  0  0  0  0  0  0  0  0  0
    6.7741    1.0000    0.0000 O   0  0  0  0  0  0  0  0  0  0  0  0
    3.3100   -3.0000    0.0000 O   0  0  0  0  0  0  0  0  0  0  0  0
    3.3100   -1.0000    0.0000 O   0  0  0  0  0  0  0  0  0  0  0  0
    6.7741   -1.0000    0.0000 O   0  0  0  0  0  0  0  0  0  0  0  0
    5.0420   -4.0000    0.0000 O   0  0  0  0  0  0  0  0  0  0  0  0
    6.7741   -3.0000    0.0000 O   0  0  0  0  0  0  0  0  0  0  0  0
    5.0420    2.0000    0.0000 O   0  0  0  0  0  0  0  0  0  0  0  0
    8.5062    2.0000    0.0000 O   0  0  0  0  0  0  0  0  0  0  0  0
    5.0420    4.0000    0.0000 O   0  0  0  0  0  0  0  0  0  0  0  0
    8.5062    4.0000    0.0000 O   0  0  0  0  0  0  0  0  0  0  0  0
    6.7741    5.0000    0.0000 O   0  0  0  0  0  0  0  0  0  0  0  0
    5.4081    1.3660    0.0000 O   0  0  0  0  0  0  0  0  0  0  0  0
    6.4081   -0.3660    0.0000 O   0  0  0  0  0  0  0  0  0  0  0  0
    3.3100   -5.0000    0.0000 O   0  0  0  0  0  0  0  0  0  0  0  0
    2.3100   -4.0000    0.0000 O   0  0  0  0  0  0  0  0  0  0  0  0
    4.3100   -4.0000    0.0000 O   0  0  0  0  0  0  0  0  0  0  0  0
    5.0420   -1.0000    0.0000 C   0  0  2  0  0  0  0  0  0  0  0  0
    4.1760   -1.5000    0.0000 C   0  0  1  0  0  0  0  0  0  0  0  0
    4.1760   -2.5000    0.0000 C   0  0  1  0  0  0  0  0  0  0  0  0
    5.9081   -1.5000    0.0000 C   0  0  1  0  0  0  0  0  0  0  0  0
    5.0420   -3.0000    0.0000 C   0  0  2  0  0  0  0  0  0  0  0  0
    5.9081   -2.5000    0.0000 C   0  0  2  0  0  0  0  0  0  0  0  0
    6.7741    2.0000    0.0000 C   0  0  0  0  0  0  0  0  0  0  0  0
    5.9081    2.5000    0.0000 C   0  0  2  0  0  0  0  0  0  0  0  0
    7.6401    2.5000    0.0000 C   0  0  2  0  0  0  0  0  0  0  0  0
    5.9081    3.5000    0.0000 C   0  0  2  0  0  0  0  0  0  0  0  0
    7.6401    3.5000    0.0000 C   0  0  1  0  0  0  0  0  0  0  0  0
    6.7741    4.0000    0.0000 C   0  0  0  0  0  0  0  0  0  0  0  0
    5.5790   -0.6900    0.0000 H   0  0  0  0  0  0  0  0  0  0  0  0
    4.1760   -0.8800    0.0000 H   0  0  0  0  0  0  0  0  0  0  0  0
    4.1760   -3.1200    0.0000 H   0  0  0  0  0  0  0  0  0  0  0  0
    5.9081   -0.8800    0.0000 H   0  0  0  0  0  0  0  0  0  0  0  0
    5.5790   -3.3100    0.0000 H   0  0  0  0  0  0  0  0  0  0  0  0
    5.9081   -3.1200    0.0000 H   0  0  0  0  0  0  0  0  0  0  0  0
    7.3110    1.6900    0.0000 H   0  0  0  0  0  0  0  0  0  0  0  0
    5.9081    1.8800    0.0000 H   0  0  0  0  0  0  0  0  0  0  0  0
    8.1771    2.8100    0.0000 H   0  0  0  0  0  0  0  0  0  0  0  0
    5.9081    4.1200    0.0000 H   0  0  0  0  0  0  0  0  0  0  0  0
    8.1771    3.1900    0.0000 H   0  0  0  0  0  0  0  0  0  0  0  0
    7.3110    4.3100    0.0000 H   0  0  0  0  0  0  0  0  0  0  0  0
    2.7731   -1.3100    0.0000 H   0  0  0  0  0  0  0  0  0  0  0  0
    7.3110   -1.3100    0.0000 H   0  0  0  0  0  0  0  0  0  0  0  0
    5.5790   -4.3100    0.0000 H   0  0  0  0  0  0  0  0  0  0  0  0
    6.7741   -3.6200    0.0000 H   0  0  0  0  0  0  0  0  0  0  0  0
    4.5051    2.3100    0.0000 H   0  0  0  0  0  0  0  0  0  0  0  0
    9.0431    2.3100    0.0000 H   0  0  0  0  0  0  0  0  0  0  0  0
    5.0420    4.6200    0.0000 H   0  0  0  0  0  0  0  0  0  0  0  0
    8.5062    4.6200    0.0000 H   0  0  0  0  0  0  0  0  0  0  0  0
    7.3110    5.3100    0.0000 H   0  0  0  0  0  0  0  0  0  0  0  0
    4.7881    1.3660    0.0000 H   0  0  0  0  0  0  0  0  0  0  0  0
    2.7731   -5.3100    0.0000 H   0  0  0  0  0  0  0  0  0  0  0  0
    2.0000   -3.4631    0.0000 H   0  0  0  0  0  0  0  0  0  0  0  0
  1  3  1  0  0  0  0
  1  4  1  0  0  0  0
  1 15  1  0  0  0  0
  1 16  2  0  0  0  0
  2  5  1  0  0  0  0
  2 17  1  0  0  0  0
  2 18  1  0  0  0  0
  2 19  2  0  0  0  0
 20  3  1  1  0  0  0
  4 26  1  0  0  0  0
 22  5  1  1  0  0  0
 21  6  1  1  0  0  0
  6 44  1  0  0  0  0
 23  7  1  6  0  0  0
  7 45  1  0  0  0  0
 24  8  1  6  0  0  0
  8 46  1  0  0  0  0
 25  9  1  1  0  0  0
  9 47  1  0  0  0  0
 27 10  1  1  0  0  0
 10 48  1  0  0  0  0
 28 11  1  6  0  0  0
 11 49  1  0  0  0  0
 29 12  1  1  0  0  0
 12 50  1  0  0  0  0
 30 13  1  1  0  0  0
 13 51  1  0  0  0  0
 14 31  1  0  0  0  0
 14 52  1  0  0  0  0
 15 53  1  0  0  0  0
 17 54  1  0  0  0  0
 18 55  1  0  0  0  0
 20 21  1  0  0  0  0
 20 23  1  0  0  0  0
 20 32  1  0  0  0  0
 21 22  1  0  0  0  0
 21 33  1  0  0  0  0
 22 24  1  0  0  0  0
 22 34  1  0  0  0  0
 23 25  1  0  0  0  0
 23 35  1  0  0  0  0
 24 25  1  0  0  0  0
 24 36  1  0  0  0  0
 25 37  1  0  0  0  0
 26 27  1  0  0  0  0
 26 28  1  0  0  0  0
 26 38  1  0  0  0  0
 27 29  1  0  0  0  0
 27 39  1  0  0  0  0
 28 30  1  0  0  0  0
 28 40  1  0  0  0  0
 29 31  1  0  0  0  0
 29 41  1  0  0  0  0
 30 31  1  0  0  0  0
 30 42  1  0  0  0  0
 31 43  1  0  0  0  0
M  END
> <PUBCHEM_COMPOUND_CID>
53262311

> <PUBCHEM_COMPOUND_CANONICALIZED>
1

> <PUBCHEM_CACTVS_COMPLEXITY>
699

> <PUBCHEM_CACTVS_HBOND_ACCEPTOR>
17

> <PUBCHEM_CACTVS_HBOND_DONOR>
12

> <PUBCHEM_CACTVS_ROTATABLE_BOND>
6

> <PUBCHEM_CACTVS_SUBSKEYS>
AAADceBwPgMAAAAAAAAAAAAAAAAAAAAAAAAwYAAAAAAAAAAAAAAAGgAACCAACBSggAIAAAAAAxAAQAAAAIAAAAAAAAAAAAAAAAABEAIAAAAAQAAFAAABAAHAYAQAAAAAAAAAAAACAAAQAACAAAAAAAAAAA==

> <PUBCHEM_IUPAC_OPENEYE_NAME>
[(2S,3S,5R,6S)-2,3,4,5,6-pentahydroxycyclohexyl] [(1S,2R,3S,4S,5R,6R)-2,3,4,6-tetrahydroxy-5-phosphonooxy-cyclohexyl] hydrogen phosphate

> <PUBCHEM_IUPAC_CAS_NAME>
[(2S,3S,5R,6S)-2,3,4,5,6-pentahydroxycyclohexyl] [(1S,2R,3S,4S,5R,6R)-2,3,4,6-tetrahydroxy-5-phosphonooxycyclohexyl] hydrogen phosphate

> <PUBCHEM_IUPAC_NAME>
[(2S,3S,5R,6S)-2,3,4,5,6-pentahydroxycyclohexyl] [(1S,2R,3S,4S,5R,6R)-2,3,4,6-tetrahydroxy-5-phosphonooxycyclohexyl] hydrogen phosphate

> <PUBCHEM_IUPAC_SYSTEMATIC_NAME>
[(2S,3S,5R,6S)-2,3,4,5,6-pentakis(oxidanyl)cyclohexyl] [(1S,2R,3S,4S,5R,6R)-2,3,4,6-tetrakis(oxidanyl)-5-phosphonooxy-cyclohexyl] hydrogen phosphate

> <PUBCHEM_IUPAC_TRADITIONAL_NAME>
[(2S,3S,5R,6S)-2,3,4,5,6-pentahydroxycyclohexyl] [(1S,2R,3S,4S,5R,6R)-2,3,4,6-tetrahydroxy-5-phosphonooxy-cyclohexyl] hydrogen phosphate

> <PUBCHEM_IUPAC_INCHI>
InChI=1S/C12H24O17P2/c13-1-2(14)5(17)10(6(18)3(1)15)28-31(25,26)29-12-8(20)4(16)7(19)11(9(12)21)27-30(22,23)24/h1-21H,(H,25,26)(H2,22,23,24)/t1?,2-,3+,4-,5-,6-,7-,8+,9+,10?,11+,12-/m0/s1

> <PUBCHEM_IUPAC_INCHIKEY>
ZFRNHZNPYSOZBU-VGKACDALSA-N

> <PUBCHEM_XLOGP3_AA>
-8.6

> <PUBCHEM_EXACT_MASS>
502.048873

> <PUBCHEM_MOLECULAR_FORMULA>
C12H24O17P2

> <PUBCHEM_MOLECULAR_WEIGHT>
502.256284

> <PUBCHEM_OPENEYE_CAN_SMILES>
C1(C(C(C(C(C1O)O)OP(=O)(O)OC2C(C(C(C(C2O)OP(=O)(O)O)O)O)O)O)O)O

> <PUBCHEM_OPENEYE_ISO_SMILES>
[C@@H]1([C@@H]([C@H]([C@H]([C@H]([C@@H]1O)OP(=O)(O)OC2[C@H]([C@H](C([C@H]([C@@H]2O)O)O)O)O)O)OP(=O)(O)O)O)O

> <PUBCHEM_CACTVS_TPSA>
305

> <PUBCHEM_MONOISOTOPIC_WEIGHT>
502.048873

> <PUBCHEM_TOTAL_CHARGE>
0

> <PUBCHEM_HEAVY_ATOM_COUNT>
31

> <PUBCHEM_ATOM_DEF_STEREO_COUNT>
10

> <PUBCHEM_ATOM_UDEF_STEREO_COUNT>
0

> <PUBCHEM_BOND_DEF_STEREO_COUNT>
0

> <PUBCHEM_BOND_UDEF_STEREO_COUNT>
0

> <PUBCHEM_ISOTOPIC_ATOM_COUNT>
0

> <PUBCHEM_COMPONENT_COUNT>
1

> <PUBCHEM_CACTVS_TAUTO_COUNT>
1

> <PUBCHEM_COORDINATE_TYPE>
1
5
255

> <PUBCHEM_BONDANNOTATIONS>
27  10  5
28  11  6
29  12  5
30  13  5
20  3  5
22  5  5
21  6  5
23  7  6
24  8  6
25  9  5

$$$$

