11822857
  -OEChem-07051213153D

 46 46  0     0  0  0  0  0  0999 V2000
   -2.0251   -0.8859    0.9552 O   0  0  0  0  0  0  0  0  0  0  0  0
   -4.3541    1.0173   -1.8979 O   0  0  0  0  0  0  0  0  0  0  0  0
   -4.1664    2.9806    1.1050 O   0  0  0  0  0  0  0  0  0  0  0  0
   -3.0400    0.2385    2.6345 O   0  0  0  0  0  0  0  0  0  0  0  0
    2.2932   -3.3963    0.3278 C   0  0  0  0  0  0  0  0  0  0  0  0
    2.8440   -2.1006   -0.2817 C   0  0  0  0  0  0  0  0  0  0  0  0
    0.8994   -3.7583   -0.1966 C   0  0  0  0  0  0  0  0  0  0  0  0
    4.2410   -1.7421    0.2367 C   0  0  0  0  0  0  0  0  0  0  0  0
   -0.1435   -2.7343    0.1498 C   0  0  0  0  0  0  0  0  0  0  0  0
    4.7951   -0.4904   -0.3820 C   0  0  0  0  0  0  0  0  0  0  0  0
   -0.9060   -2.1145   -0.7616 C   0  0  0  0  0  0  0  0  0  0  0  0
   -1.9047   -1.1401   -0.4268 C   0  0  0  0  0  0  0  0  0  0  0  0
   -3.7916    0.7235    0.4337 C   0  0  0  0  0  0  0  0  0  0  0  0
   -2.6687   -0.5123   -1.3266 C   0  0  0  0  0  0  0  0  0  0  0  0
   -3.6382    0.4471   -0.8710 C   0  0  0  0  0  0  0  0  0  0  0  0
    5.0723    0.6218    0.3148 C   0  0  0  0  0  0  0  0  0  0  0  0
   -2.9367    0.0190    1.4312 C   0  0  0  0  0  0  0  0  0  0  0  0
   -4.7690    1.7040    1.0179 C   0  0  0  0  0  0  0  0  0  0  0  0
    5.6029    1.8221   -0.2904 C   0  0  0  0  0  0  0  0  0  0  0  0
   -3.7137    2.1873   -2.3727 C   0  0  0  0  0  0  0  0  0  0  0  0
    5.8798    2.9338    0.4066 C   0  0  0  0  0  0  0  0  0  0  0  0
    6.4300    4.1799   -0.2058 C   0  0  0  0  0  0  0  0  0  0  0  0
    2.9789   -4.2217    0.1005 H   0  0  0  0  0  0  0  0  0  0  0  0
    2.2632   -3.3016    1.4205 H   0  0  0  0  0  0  0  0  0  0  0  0
    2.1661   -1.2667   -0.0622 H   0  0  0  0  0  0  0  0  0  0  0  0
    2.8751   -2.2031   -1.3741 H   0  0  0  0  0  0  0  0  0  0  0  0
    0.9496   -3.9159   -1.2810 H   0  0  0  0  0  0  0  0  0  0  0  0
    0.5968   -4.7154    0.2452 H   0  0  0  0  0  0  0  0  0  0  0  0
    4.9324   -2.5649    0.0175 H   0  0  0  0  0  0  0  0  0  0  0  0
    4.2061   -1.6484    1.3294 H   0  0  0  0  0  0  0  0  0  0  0  0
   -0.2582   -2.5297    1.2115 H   0  0  0  0  0  0  0  0  0  0  0  0
    4.9730   -0.5184   -1.4548 H   0  0  0  0  0  0  0  0  0  0  0  0
   -0.7716   -2.3469   -1.8152 H   0  0  0  0  0  0  0  0  0  0  0  0
   -2.5796   -0.7092   -2.3902 H   0  0  0  0  0  0  0  0  0  0  0  0
    4.8926    0.6410    1.3868 H   0  0  0  0  0  0  0  0  0  0  0  0
   -5.6498    1.7960    0.3733 H   0  0  0  0  0  0  0  0  0  0  0  0
   -5.1372    1.4040    2.0042 H   0  0  0  0  0  0  0  0  0  0  0  0
    5.7803    1.8039   -1.3628 H   0  0  0  0  0  0  0  0  0  0  0  0
   -3.6268    2.9470   -1.5892 H   0  0  0  0  0  0  0  0  0  0  0  0
   -2.7251    1.9633   -2.7886 H   0  0  0  0  0  0  0  0  0  0  0  0
   -4.3268    2.6058   -3.1767 H   0  0  0  0  0  0  0  0  0  0  0  0
    5.7060    2.9617    1.4797 H   0  0  0  0  0  0  0  0  0  0  0  0
   -3.4222    2.9161    1.7279 H   0  0  0  0  0  0  0  0  0  0  0  0
    5.7439    5.0145   -0.0318 H   0  0  0  0  0  0  0  0  0  0  0  0
    7.3934    4.4254    0.2515 H   0  0  0  0  0  0  0  0  0  0  0  0
    6.5801    4.0812   -1.2855 H   0  0  0  0  0  0  0  0  0  0  0  0
  1 12  1  0  0  0  0
  1 17  1  0  0  0  0
  2 15  1  0  0  0  0
  2 20  1  0  0  0  0
  3 18  1  0  0  0  0
  3 43  1  0  0  0  0
  4 17  2  0  0  0  0
  5  6  1  0  0  0  0
  5  7  1  0  0  0  0
  5 23  1  0  0  0  0
  5 24  1  0  0  0  0
  6  8  1  0  0  0  0
  6 25  1  0  0  0  0
  6 26  1  0  0  0  0
  7  9  1  0  0  0  0
  7 27  1  0  0  0  0
  7 28  1  0  0  0  0
  8 10  1  0  0  0  0
  8 29  1  0  0  0  0
  8 30  1  0  0  0  0
  9 11  2  0  0  0  0
  9 31  1  0  0  0  0
 10 16  2  0  0  0  0
 10 32  1  0  0  0  0
 11 12  1  0  0  0  0
 11 33  1  0  0  0  0
 12 14  2  0  0  0  0
 13 15  2  0  0  0  0
 13 17  1  0  0  0  0
 13 18  1  0  0  0  0
 14 15  1  0  0  0  0
 14 34  1  0  0  0  0
 16 19  1  0  0  0  0
 16 35  1  0  0  0  0
 18 36  1  0  0  0  0
 18 37  1  0  0  0  0
 19 21  2  0  0  0  0
 19 38  1  0  0  0  0
 20 39  1  0  0  0  0
 20 40  1  0  0  0  0
 20 41  1  0  0  0  0
 21 22  1  0  0  0  0
 21 42  1  0  0  0  0
 22 44  1  0  0  0  0
 22 45  1  0  0  0  0
 22 46  1  0  0  0  0
M  END
> <PUBCHEM_COMPOUND_CID>
11822857

> <PUBCHEM_CONFORMER_RMSD>
0.8

> <PUBCHEM_CONFORMER_DIVERSEORDER>
2
139
197
123
203
45
268
39
160
168
186
278
267
58
115
60
28
269
94
264
91
71
223
257
119
274
237
80
112
101
249
256
206
200
273
74
104
179
251
31
117
93
215
167
208
216
37
219
262
5
220
242
180
240
55
245
260
124
135
111
271
234
152
182
16
171
114
75
196
150
238
30
129
185
82
7
88
221
147
157
92
36
189
236
44
24
282
272
61
229
79
98
259
258
155
209
202
284
132
246
27
156
67
277
279
142
151
43
173
10
131
53
29
83
87
194
232
233
52
149
212
205
12
283
141
49
78
103
154
275
47
235
170
69
227
107
51
99
254
40
138
199
243
207
66
178
172
162
73
255
97
13
25
118
204
192
276
23
38
1
121
144
161
175
263
56
239
176
148
122
247
270
65
102
100
211
250
106
11
266
70
20
217
198
241
77
195
146
225
190
253
15
14
201
116
222
76
163
85
110
183
181
166
244
113
22
184
50
261
33
62
153
140
4
281
18
41
32
109
136
187
46
130
134
54
96
188
218
26
3
127
57
193
174
252
280
125
169
89
177
81
126
248
213
128
95
84
90
143
63
191
64
159
8
48
19
133
21
158
6
210
42
86
137
34
108
17
72
230
145
231
265
68
9
164
105
59
214
224
165
226
35
120
228

> <PUBCHEM_MMFF94_PARTIAL_CHARGES>
28
1 -0.23
10 -0.29
11 -0.15
12 0.08
13 -0.12
14 -0.15
15 0.08
16 -0.15
17 0.71
18 0.42
19 -0.15
2 -0.36
20 0.28
21 -0.29
22 0.14
3 -0.68
31 0.15
32 0.15
33 0.15
34 0.15
35 0.15
38 0.15
4 -0.57
42 0.15
43 0.4
7 0.14
8 0.14
9 -0.29

> <PUBCHEM_EFFECTIVE_ROTOR_COUNT>
9

> <PUBCHEM_PHARMACOPHORE_FEATURES>
8
1 2 acceptor
1 22 hydrophobe
1 3 acceptor
1 3 donor
1 4 acceptor
3 5 7 9 hydrophobe
3 6 8 10 hydrophobe
6 1 12 13 14 15 17 rings

> <PUBCHEM_HEAVY_ATOM_COUNT>
22

> <PUBCHEM_ATOM_DEF_STEREO_COUNT>
0

> <PUBCHEM_ATOM_UDEF_STEREO_COUNT>
0

> <PUBCHEM_BOND_DEF_STEREO_COUNT>
3

> <PUBCHEM_BOND_UDEF_STEREO_COUNT>
0

> <PUBCHEM_ISOTOPIC_ATOM_COUNT>
0

> <PUBCHEM_COMPONENT_COUNT>
1

> <PUBCHEM_CACTVS_TAUTO_COUNT>
1

> <PUBCHEM_CONFORMER_ID>
00B4670900000002

> <PUBCHEM_MMFF94_ENERGY>
39.8948

> <PUBCHEM_FEATURE_SELFOVERLAP>
40.594

> <PUBCHEM_SHAPE_FINGERPRINT>
10928967 22 10447924001656072456
10937287 8 18409168775681293838
11112241 14 18343585152861110797
12107183 9 18198645280638217450
133061 13 17630351794330174804
14251764 75 18409444774352506472
14429114 114 18335140895123383256
14848178 96 18335143073056482298
14950920 106 15123230958417251844
15142526 21 18342733044261523266
1768 210 18190758448427942668
20238998 120 17328302446534720826
21049683 271 17904215737195909863
21388113 180 18342464750818615892
21401589 2 18271523083741924818
22122407 14 18120640585990265433
245318 6 18270946986898612340
2748736 6 18335994073618630192
283562 15 18124038931582823986
474 4 18263364848712820770
6034566 193 18338231570673852106
7288768 16 18201716194359076458
7970288 3 8395686063544746144
88748 71 9007059088900310814

> <PUBCHEM_SHAPE_MULTIPOLES>
429.27
15.34
5.04
1.66
19.45
0.15
0.03
19.3
0.14
6.84
-0.18
-3.39
0.97
0.02

> <PUBCHEM_SHAPE_SELFOVERLAP>
856.476

> <PUBCHEM_SHAPE_VOLUME>
252.1

> <PUBCHEM_COORDINATE_TYPE>
2
5
10

$$$$

