54697782
  -OEChem-07051212593D

 39 39  0     1  0  0  0  0  0999 V2000
   -1.7860    0.9141    1.8719 O   0  0  0  0  0  0  0  0  0  0  0  0
    2.3493   -2.0029    0.4489 O   0  0  0  0  0  0  0  0  0  0  0  0
   -0.1949   -1.4874    1.1424 O   0  0  0  0  0  0  0  0  0  0  0  0
    3.9578    0.0459   -0.6921 O   0  0  0  0  0  0  0  0  0  0  0  0
    0.3401    2.9424   -0.5346 O   0  0  0  0  0  0  0  0  0  0  0  0
    2.1203    1.4854   -0.5726 N   0  0  0  0  0  0  0  0  0  0  0  0
   -2.3994    1.3855   -0.4277 C   0  0  2  0  0  0  0  0  0  0  0  0
   -3.5477    0.3713   -0.5626 C   0  0  0  0  0  0  0  0  0  0  0  0
   -1.4420    0.9998    0.6955 C   0  0  0  0  0  0  0  0  0  0  0  0
   -0.0331    0.7549    0.3257 C   0  0  0  0  0  0  0  0  0  0  0  0
   -2.9464    2.7819   -0.1372 C   0  0  0  0  0  0  0  0  0  0  0  0
    0.5131   -0.4526    0.5643 C   0  0  0  0  0  0  0  0  0  0  0  0
   -3.0494   -1.0145   -0.8673 C   0  0  0  0  0  0  0  0  0  0  0  0
    0.8078    1.8307   -0.2980 C   0  0  0  0  0  0  0  0  0  0  0  0
    1.8918   -0.7306    0.1957 C   0  0  0  0  0  0  0  0  0  0  0  0
    2.6449    0.2398   -0.3394 C   0  0  0  0  0  0  0  0  0  0  0  0
   -3.3305   -2.0905   -0.1183 C   0  0  0  0  0  0  0  0  0  0  0  0
   -2.8392   -3.4665   -0.4230 C   0  0  0  0  0  0  0  0  0  0  0  0
    2.1194   -2.8533   -0.6595 C   0  0  0  0  0  0  0  0  0  0  0  0
    4.8241    0.3465    0.3878 C   0  0  0  0  0  0  0  0  0  0  0  0
   -1.8479    1.4210   -1.3757 H   0  0  0  0  0  0  0  0  0  0  0  0
   -4.1502    0.3655    0.3548 H   0  0  0  0  0  0  0  0  0  0  0  0
   -4.2139    0.6823   -1.3767 H   0  0  0  0  0  0  0  0  0  0  0  0
   -3.5436    2.7938    0.7816 H   0  0  0  0  0  0  0  0  0  0  0  0
   -2.1404    3.5110   -0.0097 H   0  0  0  0  0  0  0  0  0  0  0  0
   -3.5844    3.1254   -0.9582 H   0  0  0  0  0  0  0  0  0  0  0  0
   -2.4390   -1.1299   -1.7598 H   0  0  0  0  0  0  0  0  0  0  0  0
    2.7344    2.1798   -0.9872 H   0  0  0  0  0  0  0  0  0  0  0  0
   -3.9459   -1.9799    0.7706 H   0  0  0  0  0  0  0  0  0  0  0  0
   -1.0790   -1.1794    1.3977 H   0  0  0  0  0  0  0  0  0  0  0  0
   -3.6877   -4.1415   -0.5703 H   0  0  0  0  0  0  0  0  0  0  0  0
   -2.2185   -3.4955   -1.3241 H   0  0  0  0  0  0  0  0  0  0  0  0
   -2.2418   -3.8419    0.4134 H   0  0  0  0  0  0  0  0  0  0  0  0
    1.0512   -2.9444   -0.8857 H   0  0  0  0  0  0  0  0  0  0  0  0
    2.6615   -2.5059   -1.5461 H   0  0  0  0  0  0  0  0  0  0  0  0
    2.4944   -3.8495   -0.4063 H   0  0  0  0  0  0  0  0  0  0  0  0
    5.8535    0.1891    0.0521 H   0  0  0  0  0  0  0  0  0  0  0  0
    4.6426   -0.3160    1.2412 H   0  0  0  0  0  0  0  0  0  0  0  0
    4.7256    1.3933    0.6962 H   0  0  0  0  0  0  0  0  0  0  0  0
  1  9  2  0  0  0  0
  2 15  1  0  0  0  0
  2 19  1  0  0  0  0
  3 12  1  0  0  0  0
  3 30  1  0  0  0  0
  4 16  1  0  0  0  0
  4 20  1  0  0  0  0
  5 14  2  0  0  0  0
  6 14  1  0  0  0  0
  6 16  1  0  0  0  0
  6 28  1  0  0  0  0
  7  8  1  0  0  0  0
  7  9  1  0  0  0  0
  7 11  1  0  0  0  0
  7 21  1  0  0  0  0
  8 13  1  0  0  0  0
  8 22  1  0  0  0  0
  8 23  1  0  0  0  0
  9 10  1  0  0  0  0
 10 12  2  0  0  0  0
 10 14  1  0  0  0  0
 11 24  1  0  0  0  0
 11 25  1  0  0  0  0
 11 26  1  0  0  0  0
 12 15  1  0  0  0  0
 13 17  2  0  0  0  0
 13 27  1  0  0  0  0
 15 16  2  0  0  0  0
 17 18  1  0  0  0  0
 17 29  1  0  0  0  0
 18 31  1  0  0  0  0
 18 32  1  0  0  0  0
 18 33  1  0  0  0  0
 19 34  1  0  0  0  0
 19 35  1  0  0  0  0
 19 36  1  0  0  0  0
 20 37  1  0  0  0  0
 20 38  1  0  0  0  0
 20 39  1  0  0  0  0
M  END
> <PUBCHEM_COMPOUND_CID>
54697782

> <PUBCHEM_CONFORMER_RMSD>
0.8

> <PUBCHEM_CONFORMER_DIVERSEORDER>
1
5
86
88
47
26
48
73
78
80
61
54
35
77
79
46
60
40
30
42
84
72
76
66
58
63
69
71
22
29
45
4
49
56
27
59
55
9
18
15
68
3
51
83
6
19
33
62
25
52
57
43
87
31
70
32
81
12
65
16
39
75
37
82
85
38
13
11
10
44
8
23
36
28
34
50
64
67
41
17
24
74
21
7
53
20
14
2

> <PUBCHEM_MMFF94_PARTIAL_CHARGES>
23
1 -0.57
10 0.03
12 0.08
13 -0.29
14 0.62
15 0.08
16 0.19
17 -0.29
18 0.14
19 0.28
2 -0.36
20 0.28
27 0.15
28 0.37
29 0.15
3 -0.53
30 0.45
4 -0.36
5 -0.57
6 -0.54
7 0.06
8 0.14
9 0.49

> <PUBCHEM_EFFECTIVE_ROTOR_COUNT>
6

> <PUBCHEM_PHARMACOPHORE_FEATURES>
10
1 1 acceptor
1 10 anion
1 11 hydrophobe
1 18 hydrophobe
1 2 acceptor
1 3 donor
1 4 acceptor
1 5 acceptor
1 6 donor
6 6 10 12 14 15 16 rings

> <PUBCHEM_HEAVY_ATOM_COUNT>
20

> <PUBCHEM_ATOM_DEF_STEREO_COUNT>
1

> <PUBCHEM_ATOM_UDEF_STEREO_COUNT>
0

> <PUBCHEM_BOND_DEF_STEREO_COUNT>
1

> <PUBCHEM_BOND_UDEF_STEREO_COUNT>
0

> <PUBCHEM_ISOTOPIC_ATOM_COUNT>
0

> <PUBCHEM_COMPONENT_COUNT>
1

> <PUBCHEM_CACTVS_TAUTO_COUNT>
22

> <PUBCHEM_CONFORMER_ID>
03429F3600000001

> <PUBCHEM_MMFF94_ENERGY>
54.0476

> <PUBCHEM_FEATURE_SELFOVERLAP>
50.746

> <PUBCHEM_SHAPE_FINGERPRINT>
10062212 137 18201726179730394624
10616163 171 18408604738636618023
121448 382 18272091565180485794
12173636 292 18193565699335455901
12400797 292 18268151963726157847
12553582 1 18337682897482301775
12839892 36 18265635293717867194
13140716 1 17979911610022896891
14178342 30 18337967747812437200
14787075 74 17606695612626985408
14790565 3 17904761429469484217
16945 1 18341043025932147321
17349148 13 18130793330632752426
21634736 98 18268153045968356295
221490 88 18125720084760212867
22907989 373 17483644863794105334
2334 1 18340764926757585331
23379529 103 17972586706735679918
23402539 116 18271531978803388380
23557571 272 18186519934029125976
23559900 14 18335432222628379392
2748010 2 18056456564648665240
2871803 45 18125734383228977271
34934 24 18269278022315130024
90525 40 18262800795516468989
9709674 26 18335701684438917478

> <PUBCHEM_SHAPE_MULTIPOLES>
377.26
7
3.54
1
3.34
1.43
-0.27
1.38
1.03
-2.39
0.6
-0.22
-0.05
-0.31

> <PUBCHEM_SHAPE_SELFOVERLAP>
771.546

> <PUBCHEM_SHAPE_VOLUME>
217.7

> <PUBCHEM_COORDINATE_TYPE>
2
5
10

$$$$

