5462475
  -OEChem-07051213013D

 36 36  0     1  0  0  0  0  0999 V2000
   -2.7214   -1.0730    0.0627 P   0  0  0  0  0  0  0  0  0  0  0  0
   -1.3275   -0.7106   -0.6629 O   0  0  0  0  0  0  0  0  0  0  0  0
    0.1663    1.4195   -2.3688 O   0  0  0  0  0  0  0  0  0  0  0  0
   -1.6838    2.1657   -0.2029 O   0  0  0  0  0  0  0  0  0  0  0  0
    0.4533    0.5598    2.2586 O   0  0  0  0  0  0  0  0  0  0  0  0
   -2.4470   -2.5214    0.7274 O   0  0  0  0  0  0  0  0  0  0  0  0
   -3.6883   -1.4147   -1.1876 O   0  0  0  0  0  0  0  0  0  0  0  0
   -3.2449   -0.0252    1.0010 O   0  0  0  0  0  0  0  0  0  0  0  0
    1.8920    2.5967    0.6640 N   0  0  0  0  0  0  0  0  0  0  0  0
    2.2559   -0.4154    0.0203 N   0  0  0  0  0  0  0  0  0  0  0  0
    3.8551   -1.9597    0.6456 N   0  0  0  0  0  0  0  0  0  0  0  0
    2.1787   -2.7033   -0.7077 N   0  0  0  0  0  0  0  0  0  0  0  0
    0.7338    2.3794   -0.2068 C   0  0  1  0  0  0  0  0  0  0  0  0
   -0.1852   -0.4692    0.1587 C   0  0  1  0  0  0  0  0  0  0  0  0
    1.0230   -0.1448   -0.7333 C   0  0  1  0  0  0  0  0  0  0  0  0
    1.0598    1.2993   -1.2582 C   0  0  1  0  0  0  0  0  0  0  0  0
   -0.5232    2.0308    0.6183 C   0  0  2  0  0  0  0  0  0  0  0  0
   -0.5033    0.6114    1.2038 C   0  0  2  0  0  0  0  0  0  0  0  0
    2.7065   -1.6254   -0.0324 C   0  0  0  0  0  0  0  0  0  0  0  0
    0.5333    3.3208   -0.7350 H   0  0  0  0  0  0  0  0  0  0  0  0
    0.0154   -1.4078    0.6903 H   0  0  0  0  0  0  0  0  0  0  0  0
    0.9649   -0.7657   -1.6364 H   0  0  0  0  0  0  0  0  0  0  0  0
    2.0563    1.4928   -1.6778 H   0  0  0  0  0  0  0  0  0  0  0  0
   -0.6301    2.7594    1.4314 H   0  0  0  0  0  0  0  0  0  0  0  0
   -1.4172    0.4361    1.7459 H   0  0  0  0  0  0  0  0  0  0  0  0
    1.6918    3.3520    1.3183 H   0  0  0  0  0  0  0  0  0  0  0  0
    2.6885    2.9024    0.1066 H   0  0  0  0  0  0  0  0  0  0  0  0
    0.2598    2.3188   -2.7265 H   0  0  0  0  0  0  0  0  0  0  0  0
    1.3353    0.7012    1.8753 H   0  0  0  0  0  0  0  0  0  0  0  0
   -1.6014    1.5501   -0.9505 H   0  0  0  0  0  0  0  0  0  0  0  0
   -3.1463   -2.9294    1.2812 H   0  0  0  0  0  0  0  0  0  0  0  0
   -4.6402   -1.5814   -1.0195 H   0  0  0  0  0  0  0  0  0  0  0  0
    4.3602   -1.2701    1.1915 H   0  0  0  0  0  0  0  0  0  0  0  0
    4.2301   -2.9017    0.6221 H   0  0  0  0  0  0  0  0  0  0  0  0
    2.6384   -3.6071   -0.6739 H   0  0  0  0  0  0  0  0  0  0  0  0
    1.3100   -2.6653   -1.2268 H   0  0  0  0  0  0  0  0  0  0  0  0
  1  2  1  0  0  0  0
  1  6  1  0  0  0  0
  1  7  1  0  0  0  0
  1  8  2  0  0  0  0
  2 14  1  0  0  0  0
  3 16  1  0  0  0  0
  3 28  1  0  0  0  0
  4 17  1  0  0  0  0
  4 30  1  0  0  0  0
  5 18  1  0  0  0  0
  5 29  1  0  0  0  0
  6 31  1  0  0  0  0
  7 32  1  0  0  0  0
  9 13  1  0  0  0  0
  9 26  1  0  0  0  0
  9 27  1  0  0  0  0
 10 15  1  0  0  0  0
 10 19  2  0  0  0  0
 11 19  1  0  0  0  0
 11 33  1  0  0  0  0
 11 34  1  0  0  0  0
 12 19  1  0  0  0  0
 12 35  1  0  0  0  0
 12 36  1  0  0  0  0
 13 16  1  0  0  0  0
 13 17  1  0  0  0  0
 13 20  1  0  0  0  0
 14 15  1  0  0  0  0
 14 18  1  0  0  0  0
 14 21  1  0  0  0  0
 15 16  1  0  0  0  0
 15 22  1  0  0  0  0
 16 23  1  0  0  0  0
 17 18  1  0  0  0  0
 17 24  1  0  0  0  0
 18 25  1  0  0  0  0
M  END
> <PUBCHEM_COMPOUND_CID>
5462475

> <PUBCHEM_CONFORMER_RMSD>
0.6

> <PUBCHEM_CONFORMER_DIVERSEORDER>
3
6
12
2
9
5
7
8
11
4
1
13
10

> <PUBCHEM_MMFF94_PARTIAL_CHARGES>
30
1 1.51
10 -0.7
11 -0.85
12 -0.85
13 0.27
14 0.28
15 0.25
16 0.28
17 0.28
18 0.28
19 0.55
2 -0.55
26 0.36
27 0.36
28 0.4
29 0.4
3 -0.68
30 0.4
31 0.5
32 0.5
33 0.4
34 0.4
35 0.4
36 0.4
4 -0.68
5 -0.68
6 -0.77
7 -0.77
8 -0.7
9 -0.99

> <PUBCHEM_EFFECTIVE_ROTOR_COUNT>
4.2

> <PUBCHEM_PHARMACOPHORE_FEATURES>
16
1 11 donor
1 12 donor
1 3 acceptor
1 3 donor
1 4 acceptor
1 4 donor
1 5 acceptor
1 5 donor
1 6 acceptor
1 7 acceptor
1 8 acceptor
1 9 cation
1 9 donor
4 1 6 7 8 anion
4 10 11 12 19 cation
6 13 14 15 16 17 18 rings

> <PUBCHEM_HEAVY_ATOM_COUNT>
19

> <PUBCHEM_ATOM_DEF_STEREO_COUNT>
6

> <PUBCHEM_ATOM_UDEF_STEREO_COUNT>
0

> <PUBCHEM_BOND_DEF_STEREO_COUNT>
0

> <PUBCHEM_BOND_UDEF_STEREO_COUNT>
0

> <PUBCHEM_ISOTOPIC_ATOM_COUNT>
0

> <PUBCHEM_COMPONENT_COUNT>
1

> <PUBCHEM_CACTVS_TAUTO_COUNT>
2

> <PUBCHEM_CONFORMER_ID>
005359CB00000003

> <PUBCHEM_MMFF94_ENERGY>
24.9288

> <PUBCHEM_FEATURE_SELFOVERLAP>
81.289

> <PUBCHEM_SHAPE_FINGERPRINT>
11322862 65 17472971178410552966
12423570 1 8453794939202445932
12553582 1 18337658793545678910
13024252 1 14761778806934595740
14181834 199 18337954472057956342
14817 1 12126171549960134668
15534591 1 9871448912330015978
16945 1 18340485547846318636
21452121 199 18339654325608770563
21452121 71 18338785767552456980
21501502 16 18261107448604133825
22112679 90 17972564875395145452
22344851 341 17898832578934720977
23388829 49 18337658780960840308
23419403 2 17899452840984461584
23526113 38 17059760127367701690
23557571 272 18191577765380396670
23559900 14 17901113237430441298
305870 269 18048878489865341533
3060560 45 17545611054418615815
6338986 31 18408884070171336215
7364860 26 18265614281956652227
81228 2 18122898987068600138

> <PUBCHEM_SHAPE_MULTIPOLES>
333.85
4.62
3.1
1.5
1.15
0.16
0.13
-4.14
-0.2
-1.12
0.04
0.08
0.48
-0.2

> <PUBCHEM_SHAPE_SELFOVERLAP>
662.765

> <PUBCHEM_SHAPE_VOLUME>
198.5

> <PUBCHEM_COORDINATE_TYPE>
2
5
10

$$$$

