6857524
  -OEChem-07051213153D

 45 48  0     1  0  0  0  0  0999 V2000
    0.6216   -0.6710    0.4191 C   0  0  2  0  0  0  0  0  0  0  0  0
   -0.3425    0.5247    0.1616 C   0  0  1  0  0  0  0  0  0  0  0  0
    1.9494   -0.4164   -0.3000 C   0  0  1  0  0  0  0  0  0  0  0  0
   -1.6921    0.2891    0.9005 C   0  0  2  0  0  0  0  0  0  0  0  0
    2.5897    0.8720    0.2104 C   0  0  2  0  0  0  0  0  0  0  0  0
   -2.3326   -1.0635    0.5001 C   0  0  2  0  0  0  0  0  0  0  0  0
    0.3234    1.8681    0.5507 C   0  0  0  0  0  0  0  0  0  0  0  0
   -0.0110   -1.9969   -0.0152 C   0  0  0  0  0  0  0  0  0  0  0  0
    1.7032    2.0659   -0.0918 C   0  0  0  0  0  0  0  0  0  0  0  0
   -1.3494   -2.2268    0.6786 C   0  0  0  0  0  0  0  0  0  0  0  0
    3.0741   -1.4249   -0.0941 C   0  0  0  0  0  0  0  0  0  0  0  0
    3.9542    0.8440   -0.4620 C   0  0  0  0  0  0  0  0  0  0  0  0
   -2.7273    1.4137    0.7093 C   0  0  0  0  0  0  0  0  0  0  0  0
    4.3508   -0.6388   -0.4298 C   0  0  0  0  0  0  0  0  0  0  0  0
   -2.9150   -1.0269   -0.9252 C   0  0  0  0  0  0  0  0  0  0  0  0
   -3.2948    1.4639   -0.7061 C   0  0  0  0  0  0  0  0  0  0  0  0
   -3.9017    0.1238   -1.1062 C   0  0  0  0  0  0  0  0  0  0  0  0
    0.8154   -0.7296    1.5001 H   0  0  0  0  0  0  0  0  0  0  0  0
   -0.5335    0.5710   -0.9188 H   0  0  0  0  0  0  0  0  0  0  0  0
    1.7580   -0.3329   -1.3808 H   0  0  0  0  0  0  0  0  0  0  0  0
   -1.4677    0.2444    1.9761 H   0  0  0  0  0  0  0  0  0  0  0  0
    2.7380    0.8104    1.2988 H   0  0  0  0  0  0  0  0  0  0  0  0
   -3.1737   -1.2498    1.1834 H   0  0  0  0  0  0  0  0  0  0  0  0
    0.4241    1.9222    1.6421 H   0  0  0  0  0  0  0  0  0  0  0  0
   -0.3076    2.7089    0.2446 H   0  0  0  0  0  0  0  0  0  0  0  0
    0.6568   -2.8310    0.2302 H   0  0  0  0  0  0  0  0  0  0  0  0
   -0.1441   -2.0145   -1.1034 H   0  0  0  0  0  0  0  0  0  0  0  0
    1.5853    2.1921   -1.1751 H   0  0  0  0  0  0  0  0  0  0  0  0
    2.1615    2.9851    0.2902 H   0  0  0  0  0  0  0  0  0  0  0  0
   -1.7961   -3.1596    0.3144 H   0  0  0  0  0  0  0  0  0  0  0  0
   -1.1671   -2.3704    1.7516 H   0  0  0  0  0  0  0  0  0  0  0  0
    2.9644   -2.3075   -0.7318 H   0  0  0  0  0  0  0  0  0  0  0  0
    3.1104   -1.7653    0.9477 H   0  0  0  0  0  0  0  0  0  0  0  0
    4.6847    1.4741    0.0546 H   0  0  0  0  0  0  0  0  0  0  0  0
    3.8892    1.1888   -1.5009 H   0  0  0  0  0  0  0  0  0  0  0  0
   -2.3123    2.3891    0.9799 H   0  0  0  0  0  0  0  0  0  0  0  0
   -3.5566    1.2445    1.4097 H   0  0  0  0  0  0  0  0  0  0  0  0
    4.7600   -0.9440   -1.3989 H   0  0  0  0  0  0  0  0  0  0  0  0
    5.1209   -0.8257    0.3264 H   0  0  0  0  0  0  0  0  0  0  0  0
   -3.4284   -1.9724   -1.1381 H   0  0  0  0  0  0  0  0  0  0  0  0
   -2.1189   -0.9320   -1.6719 H   0  0  0  0  0  0  0  0  0  0  0  0
   -2.5095    1.7440   -1.4175 H   0  0  0  0  0  0  0  0  0  0  0  0
   -4.0638    2.2428   -0.7640 H   0  0  0  0  0  0  0  0  0  0  0  0
   -4.7945   -0.0664   -0.4975 H   0  0  0  0  0  0  0  0  0  0  0  0
   -4.2331    0.1652   -2.1499 H   0  0  0  0  0  0  0  0  0  0  0  0
  1  2  1  0  0  0  0
  1  3  1  0  0  0  0
  1  8  1  0  0  0  0
  1 18  1  0  0  0  0
  2  4  1  0  0  0  0
  2  7  1  0  0  0  0
  2 19  1  0  0  0  0
  3  5  1  0  0  0  0
  3 11  1  0  0  0  0
  3 20  1  0  0  0  0
  4  6  1  0  0  0  0
  4 13  1  0  0  0  0
  4 21  1  0  0  0  0
  5  9  1  0  0  0  0
  5 12  1  0  0  0  0
  5 22  1  0  0  0  0
  6 10  1  0  0  0  0
  6 15  1  0  0  0  0
  6 23  1  0  0  0  0
  7  9  1  0  0  0  0
  7 24  1  0  0  0  0
  7 25  1  0  0  0  0
  8 10  1  0  0  0  0
  8 26  1  0  0  0  0
  8 27  1  0  0  0  0
  9 28  1  0  0  0  0
  9 29  1  0  0  0  0
 10 30  1  0  0  0  0
 10 31  1  0  0  0  0
 11 14  1  0  0  0  0
 11 32  1  0  0  0  0
 11 33  1  0  0  0  0
 12 14  1  0  0  0  0
 12 34  1  0  0  0  0
 12 35  1  0  0  0  0
 13 16  1  0  0  0  0
 13 36  1  0  0  0  0
 13 37  1  0  0  0  0
 14 38  1  0  0  0  0
 14 39  1  0  0  0  0
 15 17  1  0  0  0  0
 15 40  1  0  0  0  0
 15 41  1  0  0  0  0
 16 17  1  0  0  0  0
 16 42  1  0  0  0  0
 16 43  1  0  0  0  0
 17 44  1  0  0  0  0
 17 45  1  0  0  0  0
M  END
> <PUBCHEM_COMPOUND_CID>
6857524

> <PUBCHEM_CONFORMER_RMSD>
0.6

> <PUBCHEM_CONFORMER_DIVERSEORDER>
1
2

> <PUBCHEM_MMFF94_PARTIAL_CHARGES>
0

> <PUBCHEM_EFFECTIVE_ROTOR_COUNT>
2.2

> <PUBCHEM_PHARMACOPHORE_FEATURES>
4
5 3 5 11 12 14 rings
6 1 2 3 5 7 9 rings
6 1 2 4 6 8 10 rings
6 4 6 13 15 16 17 rings

> <PUBCHEM_HEAVY_ATOM_COUNT>
17

> <PUBCHEM_ATOM_DEF_STEREO_COUNT>
6

> <PUBCHEM_ATOM_UDEF_STEREO_COUNT>
0

> <PUBCHEM_BOND_DEF_STEREO_COUNT>
0

> <PUBCHEM_BOND_UDEF_STEREO_COUNT>
0

> <PUBCHEM_ISOTOPIC_ATOM_COUNT>
0

> <PUBCHEM_COMPONENT_COUNT>
1

> <PUBCHEM_CACTVS_TAUTO_COUNT>
1

> <PUBCHEM_CONFORMER_ID>
0068A33400000001

> <PUBCHEM_MMFF94_ENERGY>
36.0102

> <PUBCHEM_FEATURE_SELFOVERLAP>
20.43

> <PUBCHEM_SHAPE_FINGERPRINT>
10062212 137 18261680362638965115
10608611 8 18339643317776272344
10967382 1 18266734860694245458
11132069 177 18335986453945298120
116883 192 17972873945937594974
124424 183 18343582953996091314
12500047 106 18272654523876653102
12553582 1 18337095848414310424
12730499 353 18058454382346988741
13140716 1 18409160030494149472
13464514 151 18126009501500790589
13571099 22 18408041814468421676
13583140 156 16773795883193396528
14144814 61 18410288099602108338
14250199 8 18336265630766586061
14251745 187 18410301301983630880
14289901 80 14345790552607465738
14911166 2 18411702105556398916
14993402 34 18410293627077266566
15196674 1 18410007737074583672
15375358 24 18408045087539371904
15442244 35 18410007780129771282
15536298 74 18259705579963437096
15775835 57 18131634508145647663
16945 1 18192990418050301552
17834072 14 18335147466533563648
18186145 218 18411417340687545484
18219364 16 18271233997934991625
19862831 5 18411984667212654414
200 152 17748830712982878126
20645477 70 18260264157661302366
21029758 11 18260552216612017448
21267235 1 18337095818223172482
21501502 16 18337382738912245024
21524375 3 18343585170162578539
21634736 98 18188500076913374253
21637258 2 15792025416029956655
221490 88 18266456507990064266
22802520 49 18194967340252532777
2334 1 18409725123615080680
23402539 116 18262522606221297230
23402655 69 18335422404095478004
23493267 7 17632574959137382800
23559900 14 18408038529583279250
238 59 17696516044591953077
25 1 18270405009191148215
2748010 2 18265608784498532432
335352 9 18267017443925505966
34934 24 18412549812522014090
350125 39 18269261392565406233
4028521 119 18272097114605091325
4175511 318 17632295687515798527
5104073 3 18411133624323365720
69090 78 18409730668386295523
74978 22 18341612577355622184
8809292 202 18341326699916315315
93112 12 18412263904553608356
9709674 26 18337108947727043950

> <PUBCHEM_SHAPE_MULTIPOLES>
349.85
7.1
2.26
0.95
2.53
0.12
0.05
-0.5
2.15
-0.2
-0.24
-0.63
-0.01
0.11

> <PUBCHEM_SHAPE_SELFOVERLAP>
738.219

> <PUBCHEM_SHAPE_VOLUME>
189.8

> <PUBCHEM_COORDINATE_TYPE>
2
5
10

$$$$

