582783
  -OEChem-06241222443D

 13 12  0     1  0  0  0  0  0999 V2000
    1.9666   -0.0367   -1.8792 Cl  0  0  0  0  0  0  0  0  0  0  0  0
    2.8787   -0.7030    0.9702 Cl  0  0  0  0  0  0  0  0  0  0  0  0
    1.4206    2.0871    0.4531 S   0  0  0  0  0  0  0  0  0  0  0  0
   -2.2667    0.3929   -1.6721 S   0  0  0  0  0  0  0  0  0  0  0  0
    1.3263    0.1876    0.0236 P   0  0  0  0  0  0  0  0  0  0  0  0
   -1.4844    0.0888    0.0815 P   0  0  0  0  0  0  0  0  0  0  0  0
   -2.5275   -0.6802    0.9820 F   0  0  0  0  0  0  0  0  0  0  0  0
   -1.2525    1.5001    0.7545 F   0  0  0  0  0  0  0  0  0  0  0  0
   -0.0464   -0.7089    0.3230 N   0  0  1  0  0  0  0  0  0  0  0  0
   -0.0147   -2.1277   -0.0365 C   0  0  0  0  0  0  0  0  0  0  0  0
    0.8666   -2.6267    0.3740 H   0  0  0  0  0  0  0  0  0  0  0  0
   -0.0181   -2.2581   -1.1225 H   0  0  0  0  0  0  0  0  0  0  0  0
   -0.8911   -2.6402    0.3728 H   0  0  0  0  0  0  0  0  0  0  0  0
  1  5  1  0  0  0  0
  2  5  1  0  0  0  0
  3  5  2  0  0  0  0
  4  6  2  0  0  0  0
  5  9  1  0  0  0  0
  6  7  1  0  0  0  0
  6  8  1  0  0  0  0
  6  9  1  0  0  0  0
  9 10  1  0  0  0  0
 10 11  1  0  0  0  0
 10 12  1  0  0  0  0
 10 13  1  0  0  0  0
M  END
> <PUBCHEM_COMPOUND_CID>
582783

> <PUBCHEM_CONFORMER_RMSD>
0.4

> <PUBCHEM_CONFORMER_DIVERSEORDER>
2
15
11
1
9
14
10
5
17
12
13
16
8
6
4
3
7

> <PUBCHEM_MMFF94_PARTIAL_CHARGES>
10
1 -0.32
10 0.27
2 -0.32
3 -0.68
4 -0.68
5 1.58
6 1.6
7 -0.33
8 -0.33
9 -0.81

> <PUBCHEM_EFFECTIVE_ROTOR_COUNT>
2

> <PUBCHEM_PHARMACOPHORE_FEATURES>
0

> <PUBCHEM_HEAVY_ATOM_COUNT>
10

> <PUBCHEM_ATOM_DEF_STEREO_COUNT>
0

> <PUBCHEM_ATOM_UDEF_STEREO_COUNT>
0

> <PUBCHEM_BOND_DEF_STEREO_COUNT>
0

> <PUBCHEM_BOND_UDEF_STEREO_COUNT>
0

> <PUBCHEM_ISOTOPIC_ATOM_COUNT>
0

> <PUBCHEM_COMPONENT_COUNT>
1

> <PUBCHEM_CACTVS_TAUTO_COUNT>
1

> <PUBCHEM_CONFORMER_ID>
0008E47F00000002

> <PUBCHEM_MMFF94_ENERGY>
8.5499

> <PUBCHEM_FEATURE_SELFOVERLAP>
0

> <PUBCHEM_SHAPE_FINGERPRINT>
12932764 1 18200591393388490766
15310529 11 17274815818584143758
15775835 57 18131064901008780948
16945 1 18259987071755974582
20711978 78 17461981198929165164
23235687 12 16660364796273231516
24536 1 17750223717122123702
5084963 1 17704069590300089850

> <PUBCHEM_SHAPE_MULTIPOLES>
205.4
3.79
1.89
1.56
0.29
0.13
0.9
-0.03
0.07
-0.47
-0.44
-0.01
0.11
0.18

> <PUBCHEM_SHAPE_SELFOVERLAP>
321.039

> <PUBCHEM_SHAPE_VOLUME>
150.2

> <PUBCHEM_COORDINATE_TYPE>
2
5
10

$$$$

