17396142
  -OEChem-06241222542D

 43 45  0     1  0  0  0  0  0999 V2000
    5.2215    2.3137    0.0000 S   0  0  0  0  0  0  0  0  0  0  0  0
    3.8366    1.1922    0.0000 S   0  0  0  0  0  0  0  0  0  0  0  0
    6.0349    4.1408    0.0000 O   0  0  0  0  0  0  0  0  0  0  0  0
    7.6172    3.4363    0.0000 N   0  0  0  0  0  0  0  0  0  0  0  0
    2.8660   -0.3023    0.0000 N   0  0  0  0  0  0  0  0  0  0  0  0
    5.3147    0.5341    0.0000 N   0  0  0  0  0  0  0  0  0  0  0  0
    4.6456   -0.2090    0.0000 N   0  0  0  0  0  0  0  0  0  0  0  0
    9.1999    3.0999    0.0000 C   0  0  0  0  0  0  0  0  0  0  0  0
    9.0954    4.0944    0.0000 C   0  0  0  0  0  0  0  0  0  0  0  0
    8.2864    2.6931    0.0000 C   0  0  0  0  0  0  0  0  0  0  0  0
    8.1172    4.3023    0.0000 C   0  0  0  0  0  0  0  0  0  0  0  0
    6.6227    3.3318    0.0000 C   0  0  0  0  0  0  0  0  0  0  0  0
    6.2160    2.4182    0.0000 C   0  0  3  0  0  0  0  0  0  0  0  0
    6.8038    1.6092    0.0000 C   0  0  0  0  0  0  0  0  0  0  0  0
    4.8147    1.4001    0.0000 C   0  0  0  0  0  0  0  0  0  0  0  0
    3.7320    0.1977    0.0000 C   0  0  0  0  0  0  0  0  0  0  0  0
    2.8660   -1.3023    0.0000 C   0  0  0  0  0  0  0  0  0  0  0  0
    2.8660   -3.3023    0.0000 C   0  0  0  0  0  0  0  0  0  0  0  0
    2.0000   -1.8023    0.0000 C   0  0  0  0  0  0  0  0  0  0  0  0
    3.7320   -1.8023    0.0000 C   0  0  0  0  0  0  0  0  0  0  0  0
    2.0000   -2.8023    0.0000 C   0  0  0  0  0  0  0  0  0  0  0  0
    3.7320   -2.8023    0.0000 C   0  0  0  0  0  0  0  0  0  0  0  0
    2.8660   -4.3023    0.0000 C   0  0  0  0  0  0  0  0  0  0  0  0
    9.7154    4.0944    0.0000 H   0  0  0  0  0  0  0  0  0  0  0  0
    9.1602    4.7110    0.0000 H   0  0  0  0  0  0  0  0  0  0  0  0
    9.3915    2.5102    0.0000 H   0  0  0  0  0  0  0  0  0  0  0  0
    9.8064    3.2288    0.0000 H   0  0  0  0  0  0  0  0  0  0  0  0
    8.3088    4.8920    0.0000 H   0  0  0  0  0  0  0  0  0  0  0  0
    7.5508    4.5545    0.0000 H   0  0  0  0  0  0  0  0  0  0  0  0
    7.7848    2.3287    0.0000 H   0  0  0  0  0  0  0  0  0  0  0  0
    8.5964    2.1562    0.0000 H   0  0  0  0  0  0  0  0  0  0  0  0
    5.9638    1.8518    0.0000 H   0  0  0  0  0  0  0  0  0  0  0  0
    6.3022    1.2448    0.0000 H   0  0  0  0  0  0  0  0  0  0  0  0
    7.1682    1.1076    0.0000 H   0  0  0  0  0  0  0  0  0  0  0  0
    7.3054    1.9736    0.0000 H   0  0  0  0  0  0  0  0  0  0  0  0
    2.3291    0.0077    0.0000 H   0  0  0  0  0  0  0  0  0  0  0  0
    1.4631   -1.4923    0.0000 H   0  0  0  0  0  0  0  0  0  0  0  0
    4.2690   -1.4923    0.0000 H   0  0  0  0  0  0  0  0  0  0  0  0
    1.4631   -3.1123    0.0000 H   0  0  0  0  0  0  0  0  0  0  0  0
    4.2690   -3.1123    0.0000 H   0  0  0  0  0  0  0  0  0  0  0  0
    2.2460   -4.3023    0.0000 H   0  0  0  0  0  0  0  0  0  0  0  0
    2.8660   -4.9223    0.0000 H   0  0  0  0  0  0  0  0  0  0  0  0
    3.4860   -4.3023    0.0000 H   0  0  0  0  0  0  0  0  0  0  0  0
  1 13  1  0  0  0  0
  1 15  1  0  0  0  0
  2 15  1  0  0  0  0
  2 16  1  0  0  0  0
  3 12  2  0  0  0  0
  4 10  1  0  0  0  0
  4 11  1  0  0  0  0
  4 12  1  0  0  0  0
  5 16  1  0  0  0  0
  5 17  1  0  0  0  0
  5 36  1  0  0  0  0
  6  7  1  0  0  0  0
  6 15  2  0  0  0  0
  7 16  2  0  0  0  0
  8  9  1  0  0  0  0
  8 10  1  0  0  0  0
  8 26  1  0  0  0  0
  8 27  1  0  0  0  0
  9 11  1  0  0  0  0
  9 24  1  0  0  0  0
  9 25  1  0  0  0  0
 10 30  1  0  0  0  0
 10 31  1  0  0  0  0
 11 28  1  0  0  0  0
 11 29  1  0  0  0  0
 12 13  1  0  0  0  0
 13 14  1  0  0  0  0
 13 32  1  0  0  0  0
 14 33  1  0  0  0  0
 14 34  1  0  0  0  0
 14 35  1  0  0  0  0
 17 19  2  0  0  0  0
 17 20  1  0  0  0  0
 18 21  2  0  0  0  0
 18 22  1  0  0  0  0
 18 23  1  0  0  0  0
 19 21  1  0  0  0  0
 19 37  1  0  0  0  0
 20 22  2  0  0  0  0
 20 38  1  0  0  0  0
 21 39  1  0  0  0  0
 22 40  1  0  0  0  0
 23 41  1  0  0  0  0
 23 42  1  0  0  0  0
 23 43  1  0  0  0  0
M  END
> <PUBCHEM_COMPOUND_CID>
17396142

> <PUBCHEM_COMPOUND_CANONICALIZED>
1

> <PUBCHEM_CACTVS_COMPLEXITY>
398

> <PUBCHEM_CACTVS_HBOND_ACCEPTOR>
6

> <PUBCHEM_CACTVS_HBOND_DONOR>
1

> <PUBCHEM_CACTVS_ROTATABLE_BOND>
5

> <PUBCHEM_CACTVS_SUBSKEYS>
AAADceB7oABgAAAAAAAAAAAAAAAAAWLAAAAwAAAAAAAAAAABwAAAHgQYAAAADAjF2ASz0IPAAAiuAiVScACSAQJhAhkNiAEIZIiIICLAmZGEIAhwlgLIyCcQgAAOCAAAAAAAAAAQAAAAAAAAAAAAAAAAAA==

> <PUBCHEM_IUPAC_OPENEYE_NAME>
2-[[5-(4-methylanilino)-1,3,4-thiadiazol-2-yl]sulfanyl]-1-pyrrolidin-1-yl-propan-1-one

> <PUBCHEM_IUPAC_CAS_NAME>
2-[[5-(4-methylanilino)-1,3,4-thiadiazol-2-yl]thio]-1-(1-pyrrolidinyl)-1-propanone

> <PUBCHEM_IUPAC_NAME>
2-[[5-(4-methylanilino)-1,3,4-thiadiazol-2-yl]sulfanyl]-1-pyrrolidin-1-ylpropan-1-one

> <PUBCHEM_IUPAC_SYSTEMATIC_NAME>
2-[[5-[(4-methylphenyl)amino]-1,3,4-thiadiazol-2-yl]sulfanyl]-1-pyrrolidin-1-yl-propan-1-one

> <PUBCHEM_IUPAC_TRADITIONAL_NAME>
2-[[5-(p-toluidino)-1,3,4-thiadiazol-2-yl]thio]-1-pyrrolidino-propan-1-one

> <PUBCHEM_IUPAC_INCHI>
InChI=1S/C16H20N4OS2/c1-11-5-7-13(8-6-11)17-15-18-19-16(23-15)22-12(2)14(21)20-9-3-4-10-20/h5-8,12H,3-4,9-10H2,1-2H3,(H,17,18)

> <PUBCHEM_IUPAC_INCHIKEY>
OZGKZXFSZFODDQ-UHFFFAOYSA-N

> <PUBCHEM_XLOGP3_AA>
3.9

> <PUBCHEM_EXACT_MASS>
348.107853

> <PUBCHEM_MOLECULAR_FORMULA>
C16H20N4OS2

> <PUBCHEM_MOLECULAR_WEIGHT>
348.4862

> <PUBCHEM_OPENEYE_CAN_SMILES>
CC1=CC=C(C=C1)NC2=NN=C(S2)SC(C)C(=O)N3CCCC3

> <PUBCHEM_OPENEYE_ISO_SMILES>
CC1=CC=C(C=C1)NC2=NN=C(S2)SC(C)C(=O)N3CCCC3

> <PUBCHEM_CACTVS_TPSA>
112

> <PUBCHEM_MONOISOTOPIC_WEIGHT>
348.107853

> <PUBCHEM_TOTAL_CHARGE>
0

> <PUBCHEM_HEAVY_ATOM_COUNT>
23

> <PUBCHEM_ATOM_DEF_STEREO_COUNT>
0

> <PUBCHEM_ATOM_UDEF_STEREO_COUNT>
1

> <PUBCHEM_BOND_DEF_STEREO_COUNT>
0

> <PUBCHEM_BOND_UDEF_STEREO_COUNT>
0

> <PUBCHEM_ISOTOPIC_ATOM_COUNT>
0

> <PUBCHEM_COMPONENT_COUNT>
1

> <PUBCHEM_CACTVS_TAUTO_COUNT>
2

> <PUBCHEM_COORDINATE_TYPE>
1
5
255

> <PUBCHEM_BONDANNOTATIONS>
13  14  3
17  19  8
17  20  8
18  21  8
18  22  8
19  21  8
2  15  8
2  16  8
20  22  8
6  15  8
6  7  8
7  16  8

$$$$

