690730
  -OEChem-07051213072D

 18 19  0     0  0  0  0  0  0999 V2000
    2.0000    1.0094    0.0000 S   0  0  0  0  0  0  0  0  0  0  0  0
    3.7601    0.7306    0.0000 N   0  0  0  0  0  0  0  0  0  0  0  0
    4.5691    1.3184    0.0000 N   0  0  0  0  0  0  0  0  0  0  0  0
    3.2601    2.2694    0.0000 N   0  0  0  0  0  0  0  0  0  0  0  0
    4.2601    2.2694    0.0000 N   0  0  0  0  0  0  0  0  0  0  0  0
    3.7601   -0.2694    0.0000 C   0  0  0  0  0  0  0  0  0  0  0  0
    2.8940   -0.7694    0.0000 C   0  0  0  0  0  0  0  0  0  0  0  0
    4.6261   -0.7694    0.0000 C   0  0  0  0  0  0  0  0  0  0  0  0
    2.9511    1.3184    0.0000 C   0  0  0  0  0  0  0  0  0  0  0  0
    2.8940   -1.7694    0.0000 C   0  0  0  0  0  0  0  0  0  0  0  0
    4.6261   -1.7694    0.0000 C   0  0  0  0  0  0  0  0  0  0  0  0
    3.7601   -2.2694    0.0000 C   0  0  0  0  0  0  0  0  0  0  0  0
    2.3571   -0.4594    0.0000 H   0  0  0  0  0  0  0  0  0  0  0  0
    5.1630   -0.4594    0.0000 H   0  0  0  0  0  0  0  0  0  0  0  0
    5.1588    1.1268    0.0000 H   0  0  0  0  0  0  0  0  0  0  0  0
    2.3571   -2.0794    0.0000 H   0  0  0  0  0  0  0  0  0  0  0  0
    5.1630   -2.0794    0.0000 H   0  0  0  0  0  0  0  0  0  0  0  0
    3.7601   -2.8894    0.0000 H   0  0  0  0  0  0  0  0  0  0  0  0
  1  9  2  0  0  0  0
  2  3  1  0  0  0  0
  2  6  1  0  0  0  0
  2  9  1  0  0  0  0
  3  5  1  0  0  0  0
  3 15  1  0  0  0  0
  4  5  2  0  0  0  0
  4  9  1  0  0  0  0
  6  7  2  0  0  0  0
  6  8  1  0  0  0  0
  7 10  1  0  0  0  0
  7 13  1  0  0  0  0
  8 11  2  0  0  0  0
  8 14  1  0  0  0  0
 10 12  2  0  0  0  0
 10 16  1  0  0  0  0
 11 12  1  0  0  0  0
 11 17  1  0  0  0  0
 12 18  1  0  0  0  0
M  END
> <PUBCHEM_COMPOUND_CID>
690730

> <PUBCHEM_COMPOUND_CANONICALIZED>
1

> <PUBCHEM_CACTVS_COMPLEXITY>
210

> <PUBCHEM_CACTVS_HBOND_ACCEPTOR>
3

> <PUBCHEM_CACTVS_HBOND_DONOR>
1

> <PUBCHEM_CACTVS_ROTATABLE_BOND>
1

> <PUBCHEM_CACTVS_SUBSKEYS>
AAADcYBjgABAAAAAAAAAAAAAAAAAAQAAAAAwAAAAAAAAAAABAAAAHAQYAAAACAiBEAAxwIICAACGACRCQACCBAAhAggcqAAAZIiIICLAkZGEIAhggAJIyCcQAAAAAAAAAAAAAAAAAAAAAAAAAAAAAAAAAA==

> <PUBCHEM_IUPAC_OPENEYE_NAME>
1-phenyl-2H-tetrazole-5-thione

> <PUBCHEM_IUPAC_CAS_NAME>
1-phenyl-2H-tetrazole-5-thione

> <PUBCHEM_IUPAC_NAME>
1-phenyl-2H-tetrazole-5-thione

> <PUBCHEM_IUPAC_SYSTEMATIC_NAME>
1-phenyl-2H-1,2,3,4-tetrazole-5-thione

> <PUBCHEM_IUPAC_TRADITIONAL_NAME>
1-phenyl-2H-tetrazole-5-thione

> <PUBCHEM_IUPAC_INCHI>
InChI=1S/C7H6N4S/c12-7-8-9-10-11(7)6-4-2-1-3-5-6/h1-5H,(H,8,10,12)

> <PUBCHEM_IUPAC_INCHIKEY>
GGZHVNZHFYCSEV-UHFFFAOYSA-N

> <PUBCHEM_XLOGP3_AA>
2.8

> <PUBCHEM_EXACT_MASS>
178.031317

> <PUBCHEM_MOLECULAR_FORMULA>
C7H6N4S

> <PUBCHEM_MOLECULAR_WEIGHT>
178.21434

> <PUBCHEM_OPENEYE_CAN_SMILES>
C1=CC=C(C=C1)N2C(=S)N=NN2

> <PUBCHEM_OPENEYE_ISO_SMILES>
C1=CC=C(C=C1)N2C(=S)N=NN2

> <PUBCHEM_CACTVS_TPSA>
72.1

> <PUBCHEM_MONOISOTOPIC_WEIGHT>
178.031317

> <PUBCHEM_TOTAL_CHARGE>
0

> <PUBCHEM_HEAVY_ATOM_COUNT>
12

> <PUBCHEM_ATOM_DEF_STEREO_COUNT>
0

> <PUBCHEM_ATOM_UDEF_STEREO_COUNT>
0

> <PUBCHEM_BOND_DEF_STEREO_COUNT>
0

> <PUBCHEM_BOND_UDEF_STEREO_COUNT>
0

> <PUBCHEM_ISOTOPIC_ATOM_COUNT>
0

> <PUBCHEM_COMPONENT_COUNT>
1

> <PUBCHEM_CACTVS_TAUTO_COUNT>
3

> <PUBCHEM_COORDINATE_TYPE>
1
5
255

> <PUBCHEM_BONDANNOTATIONS>
10  12  8
11  12  8
2  3  8
2  9  8
3  5  8
4  5  8
4  9  8
6  7  8
6  8  8
7  10  8
8  11  8

$$$$

