56206
  -OEChem-07051213013D

 48 51  0     0  0  0  0  0  0999 V2000
   -2.3580   -3.3723    0.1414 F   0  0  0  0  0  0  0  0  0  0  0  0
    0.9917    5.9649    0.1871 F   0  0  0  0  0  0  0  0  0  0  0  0
    2.6589   -3.5438    0.1428 O   0  0  0  0  0  0  0  0  0  0  0  0
    5.0392   -2.8226   -0.7219 O   0  0  0  0  0  0  0  0  0  0  0  0
    5.7347   -0.8927    0.2889 O   0  0  0  0  0  0  0  0  0  0  0  0
   -3.0389   -0.6906   -0.0461 N   0  0  0  0  0  0  0  0  0  0  0  0
   -5.7182    0.2931    0.0677 N   0  0  0  0  0  0  0  0  0  0  0  0
    1.7401    0.4505   -0.0485 N   0  0  0  0  0  0  0  0  0  0  0  0
   -3.9017   -1.0345    1.0911 C   0  0  0  0  0  0  0  0  0  0  0  0
   -3.4054    0.5275   -0.7748 C   0  0  0  0  0  0  0  0  0  0  0  0
   -5.3747   -0.9974    0.6779 C   0  0  0  0  0  0  0  0  0  0  0  0
   -4.8950    0.5152   -1.1272 C   0  0  0  0  0  0  0  0  0  0  0  0
   -1.7006   -1.0974   -0.0027 C   0  0  0  0  0  0  0  0  0  0  0  0
   -0.6830   -0.1400   -0.0537 C   0  0  0  0  0  0  0  0  0  0  0  0
    0.6733   -0.5116    0.0021 C   0  0  0  0  0  0  0  0  0  0  0  0
   -7.1397    0.3371   -0.2730 C   0  0  0  0  0  0  0  0  0  0  0  0
   -1.3876   -2.4488    0.0912 C   0  0  0  0  0  0  0  0  0  0  0  0
    0.9656   -1.8917    0.0679 C   0  0  0  0  0  0  0  0  0  0  0  0
   -0.0556   -2.8505    0.1209 C   0  0  0  0  0  0  0  0  0  0  0  0
    2.3748   -2.3556    0.0571 C   0  0  0  0  0  0  0  0  0  0  0  0
    3.0440   -0.0366   -0.1127 C   0  0  0  0  0  0  0  0  0  0  0  0
    3.4239   -1.3189   -0.0712 C   0  0  0  0  0  0  0  0  0  0  0  0
    1.5480    1.8696    0.0122 C   0  0  0  0  0  0  0  0  0  0  0  0
    1.5457    2.5283    1.2457 C   0  0  0  0  0  0  0  0  0  0  0  0
    1.3607    2.6061   -1.1619 C   0  0  0  0  0  0  0  0  0  0  0  0
    4.8548   -1.6225   -0.1323 C   0  0  0  0  0  0  0  0  0  0  0  0
    1.3580    3.9092    1.3048 C   0  0  0  0  0  0  0  0  0  0  0  0
    1.1732    3.9871   -1.1030 C   0  0  0  0  0  0  0  0  0  0  0  0
    1.1719    4.6388    0.1304 C   0  0  0  0  0  0  0  0  0  0  0  0
   -3.6845   -2.0304    1.4917 H   0  0  0  0  0  0  0  0  0  0  0  0
   -3.7225   -0.3189    1.9043 H   0  0  0  0  0  0  0  0  0  0  0  0
   -3.1824    1.4113   -0.1632 H   0  0  0  0  0  0  0  0  0  0  0  0
   -2.8363    0.6076   -1.7096 H   0  0  0  0  0  0  0  0  0  0  0  0
   -5.5819   -1.8230   -0.0164 H   0  0  0  0  0  0  0  0  0  0  0  0
   -5.9859   -1.1624    1.5735 H   0  0  0  0  0  0  0  0  0  0  0  0
   -5.1474    1.4803   -1.5831 H   0  0  0  0  0  0  0  0  0  0  0  0
   -5.0872   -0.2615   -1.8800 H   0  0  0  0  0  0  0  0  0  0  0  0
   -0.9359    0.9152   -0.1097 H   0  0  0  0  0  0  0  0  0  0  0  0
   -7.4181   -0.4380   -0.9962 H   0  0  0  0  0  0  0  0  0  0  0  0
   -7.4033    1.3133   -0.6952 H   0  0  0  0  0  0  0  0  0  0  0  0
   -7.7541    0.2077    0.6249 H   0  0  0  0  0  0  0  0  0  0  0  0
    0.1682   -3.9122    0.1774 H   0  0  0  0  0  0  0  0  0  0  0  0
    3.7822    0.7578   -0.1935 H   0  0  0  0  0  0  0  0  0  0  0  0
    1.6887    1.9711    2.1683 H   0  0  0  0  0  0  0  0  0  0  0  0
    1.3590    2.1097   -2.1292 H   0  0  0  0  0  0  0  0  0  0  0  0
    1.3565    4.4168    2.2649 H   0  0  0  0  0  0  0  0  0  0  0  0
    1.0279    4.5552   -2.0170 H   0  0  0  0  0  0  0  0  0  0  0  0
    5.9887   -3.0620   -0.7816 H   0  0  0  0  0  0  0  0  0  0  0  0
  1 17  1  0  0  0  0
  2 29  1  0  0  0  0
  3 20  2  0  0  0  0
  4 26  1  0  0  0  0
  4 48  1  0  0  0  0
  5 26  2  0  0  0  0
  6  9  1  0  0  0  0
  6 10  1  0  0  0  0
  6 13  1  0  0  0  0
  7 11  1  0  0  0  0
  7 12  1  0  0  0  0
  7 16  1  0  0  0  0
  8 15  1  0  0  0  0
  8 21  1  0  0  0  0
  8 23  1  0  0  0  0
  9 11  1  0  0  0  0
  9 30  1  0  0  0  0
  9 31  1  0  0  0  0
 10 12  1  0  0  0  0
 10 32  1  0  0  0  0
 10 33  1  0  0  0  0
 11 34  1  0  0  0  0
 11 35  1  0  0  0  0
 12 36  1  0  0  0  0
 12 37  1  0  0  0  0
 13 14  1  0  0  0  0
 13 17  2  0  0  0  0
 14 15  2  0  0  0  0
 14 38  1  0  0  0  0
 15 18  1  0  0  0  0
 16 39  1  0  0  0  0
 16 40  1  0  0  0  0
 16 41  1  0  0  0  0
 17 19  1  0  0  0  0
 18 19  2  0  0  0  0
 18 20  1  0  0  0  0
 19 42  1  0  0  0  0
 20 22  1  0  0  0  0
 21 22  2  0  0  0  0
 21 43  1  0  0  0  0
 22 26  1  0  0  0  0
 23 24  2  0  0  0  0
 23 25  1  0  0  0  0
 24 27  1  0  0  0  0
 24 44  1  0  0  0  0
 25 28  2  0  0  0  0
 25 45  1  0  0  0  0
 27 29  2  0  0  0  0
 27 46  1  0  0  0  0
 28 29  1  0  0  0  0
 28 47  1  0  0  0  0
M  END
> <PUBCHEM_COMPOUND_CID>
56206

> <PUBCHEM_CONFORMER_RMSD>
0.8

> <PUBCHEM_CONFORMER_DIVERSEORDER>
1
7
6
2
4
3
5

> <PUBCHEM_MMFF94_PARTIAL_CHARGES>
37
1 -0.19
10 0.37
11 0.27
12 0.27
13 0.1
14 -0.15
15 0.1
16 0.27
17 0.19
18 0.09
19 -0.15
2 -0.19
20 0.47
21 -0.05
22 0.03
23 0.1
24 -0.15
25 -0.15
26 0.71
27 -0.15
28 -0.15
29 0.19
3 -0.57
38 0.15
4 -0.65
42 0.15
43 0.15
44 0.15
45 0.15
46 0.15
47 0.15
48 0.5
5 -0.57
6 -0.84
7 -0.81
8 -0.3
9 0.37

> <PUBCHEM_EFFECTIVE_ROTOR_COUNT>
4.2

> <PUBCHEM_PHARMACOPHORE_FEATURES>
12
1 22 anion
1 3 acceptor
1 4 acceptor
1 5 acceptor
1 6 cation
1 7 cation
1 8 cation
3 4 5 26 anion
6 13 14 15 17 18 19 rings
6 23 24 25 27 28 29 rings
6 6 7 9 10 11 12 rings
6 8 15 18 20 21 22 rings

> <PUBCHEM_HEAVY_ATOM_COUNT>
29

> <PUBCHEM_ATOM_DEF_STEREO_COUNT>
0

> <PUBCHEM_ATOM_UDEF_STEREO_COUNT>
0

> <PUBCHEM_BOND_DEF_STEREO_COUNT>
0

> <PUBCHEM_BOND_UDEF_STEREO_COUNT>
0

> <PUBCHEM_ISOTOPIC_ATOM_COUNT>
0

> <PUBCHEM_COMPONENT_COUNT>
1

> <PUBCHEM_CACTVS_TAUTO_COUNT>
1

> <PUBCHEM_CONFORMER_ID>
0000DB8E00000001

> <PUBCHEM_MMFF94_ENERGY>
104.1652

> <PUBCHEM_FEATURE_SELFOVERLAP>
61.316

> <PUBCHEM_SHAPE_FINGERPRINT>
10074138 170 15679741488683835251
102385 1 17978229357449183674
10411042 1 18194683897896639379
10937287 8 17834394523621712213
1100329 8 18410572846990860355
11456790 92 18129094692943123521
11646440 116 18410009978863188554
12107183 9 17691425014057458704
12166972 35 18260268551528689355
12173636 292 17257653313873982388
12236239 1 17531249504225566243
12293681 160 18126256737483274276
12516196 113 18409731806705921630
12788726 201 18198906014579597570
13004483 165 18339088206607898658
13140716 1 18194966236166564363
13402501 40 18272374217426381455
13583140 156 18201992223438880419
13590594 115 18337949099302133097
138480 1 18410854339310892368
13878862 14 18269856258901092885
13965767 371 17842014186288909629
14028597 1 17702956984166706154
14068700 675 18041003972466223177
14170010 4 18408327687475786787
14466204 15 18339644567817308673
14849402 71 18410004408649528985
14866123 147 17042045135276600411
14955137 171 18410566305766321822
15081414 286 18408598141777392928
15131766 46 15504382170898775154
151778 21 18196647394094069145
15198563 99 18192701474743337396
15230672 131 17692811490189415924
15420108 30 17827943736567800872
15439362 3 18265900159301884209
16087824 20 18266737072845522021
16988056 13 18411710884839616365
17138139 8 16823667780841336380
17980427 23 17677040339236565577
18335252 114 18337963380674638101
18681886 176 18335427871926813307
18785283 64 18268710511011079313
20286276 3 18122903136107663419
20642791 105 17837786873870838642
20642791 178 17912641311915388444
20642791 239 17984673690189635956
21033648 29 17916883382356949069
21049683 271 18271798021503935452
21133410 127 17772198514162659429
21133410 62 17337037457529097605
21285901 2 17824255119595903358
21641784 216 18126827512672196796
21709351 56 18410300203289875847
21860390 5 18260541225669115391
23558518 356 17980493256106529698
23559900 14 18411986832477597419
23576562 1 18337108956623005975
24771293 8 18115889437849592410
24771750 20 18052523388423669764
283562 15 18124593347878294018
3178227 256 18341600534821595883
335352 9 18411418418735503742
340366 18 18186800257807285783
350125 39 18051688837327996898
5252454 2 17832122945515134833
5265222 85 17335039180580366764
6443956 14 18410573959925193704
653340 110 17977109281907761248
7808743 9 16898487915119021177
9981440 41 17401209971681295264

> <PUBCHEM_SHAPE_MULTIPOLES>
549.71
11.21
6.1
0.96
15.6
8.61
-0.04
-5.27
0.69
-6.8
-0.39
0.18
0.65
0.97

> <PUBCHEM_SHAPE_SELFOVERLAP>
1205.874

> <PUBCHEM_SHAPE_VOLUME>
297

> <PUBCHEM_COORDINATE_TYPE>
2
5
10

$$$$

