5280799
  -OEChem-07051212502D

 17 17  0     0  0  0  0  0  0999 V2000
    2.0000   -0.4314    0.0000 S   0  0  0  0  0  0  0  0  0  0  0  0
    7.9575    0.5978    0.0000 O   0  0  0  0  0  0  0  0  0  0  0  0
    7.4223   -1.0495    0.0000 O   0  0  0  0  0  0  0  0  0  0  0  0
    3.7601   -0.7102    0.0000 N   0  0  0  0  0  0  0  0  0  0  0  0
    3.2601    0.8286    0.0000 N   0  0  0  0  0  0  0  0  0  0  0  0
    4.5691   -0.1224    0.0000 C   0  0  0  0  0  0  0  0  0  0  0  0
    4.2601    0.8286    0.0000 C   0  0  0  0  0  0  0  0  0  0  0  0
    2.9511   -0.1224    0.0000 C   0  0  0  0  0  0  0  0  0  0  0  0
    5.5202   -0.4314    0.0000 C   0  0  0  0  0  0  0  0  0  0  0  0
    6.2633    0.2377    0.0000 C   0  0  0  0  0  0  0  0  0  0  0  0
    7.2144   -0.0713    0.0000 C   0  0  0  0  0  0  0  0  0  0  0  0
    3.7601   -1.3302    0.0000 H   0  0  0  0  0  0  0  0  0  0  0  0
    4.6245    1.3302    0.0000 H   0  0  0  0  0  0  0  0  0  0  0  0
    2.8956    1.3302    0.0000 H   0  0  0  0  0  0  0  0  0  0  0  0
    5.6490   -1.0379    0.0000 H   0  0  0  0  0  0  0  0  0  0  0  0
    6.1344    0.8441    0.0000 H   0  0  0  0  0  0  0  0  0  0  0  0
    8.5472    0.4062    0.0000 H   0  0  0  0  0  0  0  0  0  0  0  0
  1  8  2  0  0  0  0
  2 11  1  0  0  0  0
  2 17  1  0  0  0  0
  3 11  2  0  0  0  0
  4  6  1  0  0  0  0
  4  8  1  0  0  0  0
  4 12  1  0  0  0  0
  5  7  1  0  0  0  0
  5  8  1  0  0  0  0
  5 14  1  0  0  0  0
  6  7  2  0  0  0  0
  6  9  1  0  0  0  0
  7 13  1  0  0  0  0
  9 10  2  0  0  0  0
  9 15  1  0  0  0  0
 10 11  1  0  0  0  0
 10 16  1  0  0  0  0
M  END
> <PUBCHEM_COMPOUND_CID>
5280799

> <PUBCHEM_COMPOUND_CANONICALIZED>
1

> <PUBCHEM_CACTVS_COMPLEXITY>
257

> <PUBCHEM_CACTVS_HBOND_ACCEPTOR>
3

> <PUBCHEM_CACTVS_HBOND_DONOR>
3

> <PUBCHEM_CACTVS_ROTATABLE_BOND>
2

> <PUBCHEM_CACTVS_SUBSKEYS>
AAADcYBjMABAAAAAAAAAAAAAAAAAAQAAAAAAAAAAAAAAAAAAAAAAHgQQCAAACAjBgAQBCALAAgCMACTWSACAAAAAAgkICIAIAECIBAAAAQAAEAAIEAIAkYAAAAAAAAAAAAAAAAAAAAAAAAAAAAAAAAAAAA==

> <PUBCHEM_IUPAC_OPENEYE_NAME>
(E)-3-(2-thioxo-1,3-dihydroimidazol-4-yl)prop-2-enoic acid

> <PUBCHEM_IUPAC_CAS_NAME>
(E)-3-(2-sulfanylidene-1,3-dihydroimidazol-4-yl)-2-propenoic acid

> <PUBCHEM_IUPAC_NAME>
(E)-3-(2-sulfanylidene-1,3-dihydroimidazol-4-yl)prop-2-enoic acid

> <PUBCHEM_IUPAC_SYSTEMATIC_NAME>
(E)-3-(2-sulfanylidene-1,3-dihydroimidazol-4-yl)prop-2-enoic acid

> <PUBCHEM_IUPAC_TRADITIONAL_NAME>
(E)-3-(2-thioxo-4-imidazolin-4-yl)acrylic acid

> <PUBCHEM_IUPAC_INCHI>
InChI=1S/C6H6N2O2S/c9-5(10)2-1-4-3-7-6(11)8-4/h1-3H,(H,9,10)(H2,7,8,11)/b2-1+

> <PUBCHEM_IUPAC_INCHIKEY>
ZBKFFCZXHBPGFK-OWOJBTEDSA-N

> <PUBCHEM_XLOGP3_AA>
-0.3

> <PUBCHEM_EXACT_MASS>
170.014998

> <PUBCHEM_MOLECULAR_FORMULA>
C6H6N2O2S

> <PUBCHEM_MOLECULAR_WEIGHT>
170.18904

> <PUBCHEM_OPENEYE_CAN_SMILES>
C1=C(NC(=S)N1)C=CC(=O)O

> <PUBCHEM_OPENEYE_ISO_SMILES>
C1=C(NC(=S)N1)/C=C/C(=O)O

> <PUBCHEM_CACTVS_TPSA>
93.4

> <PUBCHEM_MONOISOTOPIC_WEIGHT>
170.014998

> <PUBCHEM_TOTAL_CHARGE>
0

> <PUBCHEM_HEAVY_ATOM_COUNT>
11

> <PUBCHEM_ATOM_DEF_STEREO_COUNT>
0

> <PUBCHEM_ATOM_UDEF_STEREO_COUNT>
0

> <PUBCHEM_BOND_DEF_STEREO_COUNT>
1

> <PUBCHEM_BOND_UDEF_STEREO_COUNT>
0

> <PUBCHEM_ISOTOPIC_ATOM_COUNT>
0

> <PUBCHEM_COMPONENT_COUNT>
1

> <PUBCHEM_CACTVS_TAUTO_COUNT>
9

> <PUBCHEM_COORDINATE_TYPE>
1
5
255

> <PUBCHEM_BONDANNOTATIONS>
4  6  8
4  8  8
5  7  8
5  8  8
6  7  8

$$$$

