3772977
  -OEChem-07051213013D

 20 20  0     0  0  0  0  0  0999 V2000
    1.1854   -2.8223    0.0279 O   0  5  0  0  0  0  0  0  0  0  0  0
    2.8657   -1.4108   -0.0243 O   0  0  0  0  0  0  0  0  0  0  0  0
   -3.7675    0.9015    0.0055 O   0  5  0  0  0  0  0  0  0  0  0  0
   -3.3439   -1.2520    0.0502 O   0  0  0  0  0  0  0  0  0  0  0  0
    2.5512    1.0562   -0.0753 N   0  0  0  0  0  0  0  0  0  0  0  0
    1.6364   -1.6535   -0.0031 N   0  3  0  0  0  0  0  0  0  0  0  0
   -2.9590   -0.0581    0.0181 N   0  3  0  0  0  0  0  0  0  0  0  0
    3.0176    2.3249    0.1702 N   0  0  0  0  0  0  0  0  0  0  0  0
    1.1706    0.7558   -0.0514 C   0  0  0  0  0  0  0  0  0  0  0  0
    0.7208   -0.5640   -0.0151 C   0  0  0  0  0  0  0  0  0  0  0  0
   -1.5659    0.2155   -0.0051 C   0  0  0  0  0  0  0  0  0  0  0  0
   -0.6473   -0.8342    0.0081 C   0  0  0  0  0  0  0  0  0  0  0  0
    0.2521    1.8056   -0.0644 C   0  0  0  0  0  0  0  0  0  0  0  0
   -1.1161    1.5354   -0.0414 C   0  0  0  0  0  0  0  0  0  0  0  0
   -1.0027   -1.8617    0.0361 H   0  0  0  0  0  0  0  0  0  0  0  0
    0.5610    2.8467   -0.1006 H   0  0  0  0  0  0  0  0  0  0  0  0
   -1.8028    2.3780   -0.0544 H   0  0  0  0  0  0  0  0  0  0  0  0
    3.2264    0.3058   -0.0345 H   0  0  0  0  0  0  0  0  0  0  0  0
    3.9182    2.4359   -0.2933 H   0  0  0  0  0  0  0  0  0  0  0  0
    3.2018    2.4172    1.1684 H   0  0  0  0  0  0  0  0  0  0  0  0
  1  6  1  0  0  0  0
  2  6  2  0  0  0  0
  3  7  1  0  0  0  0
  4  7  2  0  0  0  0
  5  8  1  0  0  0  0
  5  9  1  0  0  0  0
  5 18  1  0  0  0  0
  6 10  1  0  0  0  0
  7 11  1  0  0  0  0
  8 19  1  0  0  0  0
  8 20  1  0  0  0  0
  9 10  2  0  0  0  0
  9 13  1  0  0  0  0
 10 12  1  0  0  0  0
 11 12  2  0  0  0  0
 11 14  1  0  0  0  0
 12 15  1  0  0  0  0
 13 14  2  0  0  0  0
 13 16  1  0  0  0  0
 14 17  1  0  0  0  0
M  CHG  4   1  -1   3  -1   6   1   7   1
M  END
> <PUBCHEM_COMPOUND_CID>
3772977

> <PUBCHEM_CONFORMER_RMSD>
0.6

> <PUBCHEM_CONFORMER_DIVERSEORDER>
1

> <PUBCHEM_MMFF94_PARTIAL_CHARGES>
20
1 -0.52
10 0.13
11 0.13
12 -0.15
13 -0.15
14 -0.15
15 0.15
16 0.15
17 0.15
18 0.4
19 0.36
2 -0.52
20 0.36
3 -0.52
4 -0.52
5 -0.51
6 0.91
7 0.91
8 -0.71
9 0.1

> <PUBCHEM_EFFECTIVE_ROTOR_COUNT>
3

> <PUBCHEM_PHARMACOPHORE_FEATURES>
9
1 1 acceptor
1 1 anion
1 2 acceptor
1 3 acceptor
1 3 anion
1 4 acceptor
1 5 donor
1 8 donor
6 9 10 11 12 13 14 rings

> <PUBCHEM_HEAVY_ATOM_COUNT>
14

> <PUBCHEM_ATOM_DEF_STEREO_COUNT>
0

> <PUBCHEM_ATOM_UDEF_STEREO_COUNT>
0

> <PUBCHEM_BOND_DEF_STEREO_COUNT>
0

> <PUBCHEM_BOND_UDEF_STEREO_COUNT>
0

> <PUBCHEM_ISOTOPIC_ATOM_COUNT>
0

> <PUBCHEM_COMPONENT_COUNT>
1

> <PUBCHEM_CACTVS_TAUTO_COUNT>
1

> <PUBCHEM_CONFORMER_ID>
0039923100000001

> <PUBCHEM_MMFF94_ENERGY>
57.0709

> <PUBCHEM_FEATURE_SELFOVERLAP>
47.369

> <PUBCHEM_SHAPE_FINGERPRINT>
10608611 8 18341618148123838669
10967382 1 18266740190474327053
10980938 120 18410572860028366097
11471102 20 18411423933678752693
13380535 76 18270121184471824338
14251717 144 18410018701894222271
14325111 11 18410573946713328621
15219456 202 18342744035166683517
15442244 35 18120371214416218473
15536298 74 18333449850481459580
161256 15 18341332300659216252
16945 1 18194683889205756948
19021347 11 18338798905477594279
193761 8 18194683893601425236
20201158 50 18341332309338892971
20645476 183 17628061309809032412
20645477 70 18335143111589842959
20871998 22 18046622579757697014
21501502 16 18337950215756122953
21650355 55 17334517371785779450
2334 1 18338797793107704695
23402655 69 18335997419630171733
23463225 33 18341900675346190928
23552423 10 18341609373199255989
23559900 14 17111294568792560382
2748010 2 18268136579000602102
528862 383 18341902865679064226
528886 8 18266182733837039360
53812653 166 18189899712297683984
7364860 26 18335701680317678916

> <PUBCHEM_SHAPE_MULTIPOLES>
244.71
4.9
2.5
0.56
2.65
0.62
0
-0.45
0.11
-1.81
0.04
0
-0.03
0.08

> <PUBCHEM_SHAPE_SELFOVERLAP>
516.842

> <PUBCHEM_SHAPE_VOLUME>
137.4

> <PUBCHEM_COORDINATE_TYPE>
2
5
10

$$$$

