100275
  -OEChem-07051212553D

 44 44  0     1  0  0  0  0  0999 V2000
    0.8529   -1.1512    0.2006 O   0  0  0  0  0  0  0  0  0  0  0  0
    0.5093   -4.7815   -0.1415 O   0  0  0  0  0  0  0  0  0  0  0  0
    3.3232   -4.4251    0.4155 O   0  0  0  0  0  0  0  0  0  0  0  0
    2.6681    0.2947   -0.0404 O   0  0  0  0  0  0  0  0  0  0  0  0
    4.2965   -1.9050   -0.7602 O   0  0  0  0  0  0  0  0  0  0  0  0
   -1.8841   -1.2943   -0.0094 O   0  0  0  0  0  0  0  0  0  0  0  0
    0.8248    1.3759   -0.9091 O   0  0  0  0  0  0  0  0  0  0  0  0
   -3.7085   -1.9327    1.2500 O   0  0  0  0  0  0  0  0  0  0  0  0
    2.4131    5.4635    1.4668 O   0  5  0  0  0  0  0  0  0  0  0  0
    3.5580    5.5313   -0.4144 O   0  0  0  0  0  0  0  0  0  0  0  0
   -5.6481    2.5650    0.3089 O   0  5  0  0  0  0  0  0  0  0  0  0
   -6.2479    1.4068   -1.4669 O   0  0  0  0  0  0  0  0  0  0  0  0
    2.6742    5.0599    0.3210 N   0  3  0  0  0  0  0  0  0  0  0  0
   -5.7569    1.5045   -0.3295 N   0  3  0  0  0  0  0  0  0  0  0  0
    1.0940   -3.5609    0.3051 C   0  0  1  0  0  0  0  0  0  0  0  0
    2.5157   -3.4501   -0.2460 C   0  0  1  0  0  0  0  0  0  0  0  0
    0.2351   -2.3857   -0.1677 C   0  0  1  0  0  0  0  0  0  0  0  0
    3.0969   -2.0574   -0.0019 C   0  0  2  0  0  0  0  0  0  0  0  0
    2.1181   -0.9637   -0.4292 C   0  0  1  0  0  0  0  0  0  0  0  0
   -1.1535   -2.4112    0.4632 C   0  0  0  0  0  0  0  0  0  0  0  0
    1.9097    1.3923   -0.3445 C   0  0  0  0  0  0  0  0  0  0  0  0
    2.6400    2.6381    0.1138 C   0  0  0  0  0  0  0  0  0  0  0  0
   -3.1663   -1.1666    0.4655 C   0  0  0  0  0  0  0  0  0  0  0  0
   -3.8108    0.0590   -0.1491 C   0  0  0  0  0  0  0  0  0  0  0  0
    1.8927    3.9226   -0.1989 C   0  0  0  0  0  0  0  0  0  0  0  0
   -5.2464    0.2718    0.2984 C   0  0  0  0  0  0  0  0  0  0  0  0
    1.1301   -3.5963    1.4009 H   0  0  0  0  0  0  0  0  0  0  0  0
    2.5438   -3.6981   -1.3143 H   0  0  0  0  0  0  0  0  0  0  0  0
    0.1120   -2.4012   -1.2592 H   0  0  0  0  0  0  0  0  0  0  0  0
    3.3717   -1.9400    1.0531 H   0  0  0  0  0  0  0  0  0  0  0  0
    1.9986   -0.9582   -1.5215 H   0  0  0  0  0  0  0  0  0  0  0  0
   -1.6811   -3.3345    0.1987 H   0  0  0  0  0  0  0  0  0  0  0  0
   -1.0701   -2.3391    1.5546 H   0  0  0  0  0  0  0  0  0  0  0  0
    0.4664   -4.7562   -1.1127 H   0  0  0  0  0  0  0  0  0  0  0  0
    2.9207   -5.2954    0.2527 H   0  0  0  0  0  0  0  0  0  0  0  0
    4.0738   -2.0081   -1.7011 H   0  0  0  0  0  0  0  0  0  0  0  0
    3.6219    2.6490   -0.3751 H   0  0  0  0  0  0  0  0  0  0  0  0
    2.7977    2.5507    1.1960 H   0  0  0  0  0  0  0  0  0  0  0  0
   -3.7721   -0.0547   -1.2394 H   0  0  0  0  0  0  0  0  0  0  0  0
   -3.1996    0.9276    0.1259 H   0  0  0  0  0  0  0  0  0  0  0  0
    0.9054    3.9486    0.2742 H   0  0  0  0  0  0  0  0  0  0  0  0
    1.7624    4.0701   -1.2761 H   0  0  0  0  0  0  0  0  0  0  0  0
   -5.3246    0.3903    1.3843 H   0  0  0  0  0  0  0  0  0  0  0  0
   -5.8982   -0.5539   -0.0057 H   0  0  0  0  0  0  0  0  0  0  0  0
  1 17  1  0  0  0  0
  1 19  1  0  0  0  0
  2 15  1  0  0  0  0
  2 34  1  0  0  0  0
  3 16  1  0  0  0  0
  3 35  1  0  0  0  0
  4 19  1  0  0  0  0
  4 21  1  0  0  0  0
  5 18  1  0  0  0  0
  5 36  1  0  0  0  0
  6 20  1  0  0  0  0
  6 23  1  0  0  0  0
  7 21  2  0  0  0  0
  8 23  2  0  0  0  0
  9 13  1  0  0  0  0
 10 13  2  0  0  0  0
 11 14  1  0  0  0  0
 12 14  2  0  0  0  0
 13 25  1  0  0  0  0
 14 26  1  0  0  0  0
 15 16  1  0  0  0  0
 15 17  1  0  0  0  0
 15 27  1  0  0  0  0
 16 18  1  0  0  0  0
 16 28  1  0  0  0  0
 17 20  1  0  0  0  0
 17 29  1  0  0  0  0
 18 19  1  0  0  0  0
 18 30  1  0  0  0  0
 19 31  1  0  0  0  0
 20 32  1  0  0  0  0
 20 33  1  0  0  0  0
 21 22  1  0  0  0  0
 22 25  1  0  0  0  0
 22 37  1  0  0  0  0
 22 38  1  0  0  0  0
 23 24  1  0  0  0  0
 24 26  1  0  0  0  0
 24 39  1  0  0  0  0
 24 40  1  0  0  0  0
 25 41  1  0  0  0  0
 25 42  1  0  0  0  0
 26 43  1  0  0  0  0
 26 44  1  0  0  0  0
M  CHG  4   9  -1  11  -1  13   1  14   1
M  END
> <PUBCHEM_COMPOUND_CID>
100275

> <PUBCHEM_CONFORMER_RMSD>
1

> <PUBCHEM_CONFORMER_DIVERSEORDER>
1
51
134
61
99
127
62
135
27
101
136
111
76
15
79
98
45
132
109
90
71
86
119
48
115
116
83
29
43
93
124
32
103
72
113
42
84
5
47
97
121
13
66
106
28
131
96
34
133
8
65
69
87
44
102
125
73
41
114
107
60
33
88
130
95
9
52
17
118
64
120
56
89
117
57
49
68
14
85
18
75
129
77
53
37
23
137
94
46
122
10
104
35
55
81
30
108
54
110
74
3
100
63
59
91
92
22
39
58
26
112
2
40
50
19
80
31
24
123
70
126
38
105
128
11
25
20
4
82
6
36
78
16
21
67
7
12

> <PUBCHEM_MMFF94_PARTIAL_CHARGES>
29
1 -0.56
10 -0.52
11 -0.52
12 -0.52
13 0.8
14 0.8
15 0.28
16 0.28
17 0.28
18 0.28
19 0.56
2 -0.68
20 0.28
21 0.66
22 0.06
23 0.66
24 0.06
25 0.24
26 0.24
3 -0.68
34 0.4
35 0.4
36 0.4
4 -0.43
5 -0.68
6 -0.43
7 -0.57
8 -0.57
9 -0.52

> <PUBCHEM_EFFECTIVE_ROTOR_COUNT>
12.2

> <PUBCHEM_PHARMACOPHORE_FEATURES>
16
1 1 acceptor
1 10 acceptor
1 11 acceptor
1 11 anion
1 12 acceptor
1 2 acceptor
1 2 donor
1 3 acceptor
1 3 donor
1 5 acceptor
1 5 donor
1 7 acceptor
1 8 acceptor
1 9 acceptor
1 9 anion
6 1 15 16 17 18 19 rings

> <PUBCHEM_HEAVY_ATOM_COUNT>
26

> <PUBCHEM_ATOM_DEF_STEREO_COUNT>
5

> <PUBCHEM_ATOM_UDEF_STEREO_COUNT>
0

> <PUBCHEM_BOND_DEF_STEREO_COUNT>
0

> <PUBCHEM_BOND_UDEF_STEREO_COUNT>
0

> <PUBCHEM_ISOTOPIC_ATOM_COUNT>
0

> <PUBCHEM_COMPONENT_COUNT>
1

> <PUBCHEM_CACTVS_TAUTO_COUNT>
4

> <PUBCHEM_CONFORMER_ID>
000187B300000001

> <PUBCHEM_MMFF94_ENERGY>
46.1181

> <PUBCHEM_FEATURE_SELFOVERLAP>
81.362

> <PUBCHEM_SHAPE_FINGERPRINT>
10937287 8 18194404385877699437
11059845 2 17759832263856047416
12107183 9 18052272696042507184
12293681 160 18053911105817188518
12788726 201 17695623348340518034
13590594 115 17978502371439781913
138480 1 18339077210784277722
14790565 3 18052812555940222556
15081414 286 18264757925697283171
15322535 138 18050291358234008761
15326921 28 17687196291941100896
16087824 20 17906449188486747485
16988056 13 18338523048455698820
1768 85 18339630193094668553
18335252 114 17980490280690797197
20567600 299 18411415133317071943
20621476 13 18410855447633922961
21133410 127 18059013857350927173
21344244 78 17482573170781178787
21860390 5 18262512731865040295
22289505 5 18127127700373555295
23559900 14 18339645637438589411
5939293 188 18411136969797686742
6443956 14 18340199820862508702
653340 110 17329716934004286282
7399639 24 17982153536355888035
7808743 9 17617656553512555872
9981440 41 17979920406342454313

> <PUBCHEM_SHAPE_MULTIPOLES>
454.67
10.68
8.55
0.87
22.14
8.82
-0.03
7.29
1.28
-12.99
-1.48
0.37
0.38
1.37

> <PUBCHEM_SHAPE_SELFOVERLAP>
913.841

> <PUBCHEM_SHAPE_VOLUME>
262.5

> <PUBCHEM_COORDINATE_TYPE>
2
5
10

$$$$

