236416
  -OEChem-07051213072D

 62 65  0     1  0  0  0  0  0999 V2000
    8.6500    1.9808    0.0000 O   0  0  0  0  0  0  0  0  0  0  0  0
    2.0000   -2.3268    0.0000 O   0  0  0  0  0  0  0  0  0  0  0  0
   10.2963    1.4427    0.0000 O   0  0  0  0  0  0  0  0  0  0  0  0
    6.5271   -0.7745    0.0000 C   0  0  2  0  0  0  0  0  0  0  0  0
    5.6610   -0.2745    0.0000 C   0  0  1  0  0  0  0  0  0  0  0  0
    7.3931   -0.2745    0.0000 C   0  0  1  0  0  0  0  0  0  0  0  0
    4.7510   -0.7813    0.0000 C   0  0  2  0  0  0  0  0  0  0  0  0
    7.3931    0.7255    0.0000 C   0  0  2  0  0  0  0  0  0  0  0  0
    4.7430   -1.8229    0.0000 C   0  0  1  0  0  0  0  0  0  0  0  0
    5.6610    0.7255    0.0000 C   0  0  0  0  0  0  0  0  0  0  0  0
    6.5431   -1.8160    0.0000 C   0  0  0  0  0  0  0  0  0  0  0  0
    6.5271    1.2255    0.0000 C   0  0  0  0  0  0  0  0  0  0  0  0
    5.6451   -2.3437    0.0000 C   0  0  1  0  0  0  0  0  0  0  0  0
    8.3393   -0.5792    0.0000 C   0  0  0  0  0  0  0  0  0  0  0  0
    8.3393    1.0303    0.0000 C   0  0  2  0  0  0  0  0  0  0  0  0
    3.8242   -0.2172    0.0000 C   0  0  0  0  0  0  0  0  0  0  0  0
    8.9229    0.2255    0.0000 C   0  0  0  0  0  0  0  0  0  0  0  0
    3.8076   -2.3726    0.0000 C   0  0  0  0  0  0  0  0  0  0  0  0
    4.7587    0.2186    0.0000 C   0  0  0  0  0  0  0  0  0  0  0  0
    7.3931    1.7255    0.0000 C   0  0  0  0  0  0  0  0  0  0  0  0
    2.8763   -0.7452    0.0000 C   0  0  0  0  0  0  0  0  0  0  0  0
    5.6489   -3.3437    0.0000 C   0  0  0  0  0  0  0  0  0  0  0  0
    2.8680   -1.8302    0.0000 C   0  0  0  0  0  0  0  0  0  0  0  0
    9.6285    2.1870    0.0000 C   0  0  0  0  0  0  0  0  0  0  0  0
    9.9391    3.1375    0.0000 C   0  0  0  0  0  0  0  0  0  0  0  0
   10.9176    3.3437    0.0000 C   0  0  0  0  0  0  0  0  0  0  0  0
    7.2664   -1.1938    0.0000 H   0  0  0  0  0  0  0  0  0  0  0  0
    6.3972    0.1505    0.0000 H   0  0  0  0  0  0  0  0  0  0  0  0
    7.4830   -1.1197    0.0000 H   0  0  0  0  0  0  0  0  0  0  0  0
    4.7463   -2.6729    0.0000 H   0  0  0  0  0  0  0  0  0  0  0  0
    5.4490    1.3081    0.0000 H   0  0  0  0  0  0  0  0  0  0  0  0
    5.0504    0.6179    0.0000 H   0  0  0  0  0  0  0  0  0  0  0  0
    6.7612   -2.3964    0.0000 H   0  0  0  0  0  0  0  0  0  0  0  0
    7.1523   -1.7005    0.0000 H   0  0  0  0  0  0  0  0  0  0  0  0
    6.9256    1.7005    0.0000 H   0  0  0  0  0  0  0  0  0  0  0  0
    6.1285    1.7005    0.0000 H   0  0  0  0  0  0  0  0  0  0  0  0
    5.1087   -2.6548    0.0000 H   0  0  0  0  0  0  0  0  0  0  0  0
    8.0883   -1.1461    0.0000 H   0  0  0  0  0  0  0  0  0  0  0  0
    8.8767   -0.8884    0.0000 H   0  0  0  0  0  0  0  0  0  0  0  0
    7.9018    1.4696    0.0000 H   0  0  0  0  0  0  0  0  0  0  0  0
    4.2324    0.2494    0.0000 H   0  0  0  0  0  0  0  0  0  0  0  0
    3.4343    0.2648    0.0000 H   0  0  0  0  0  0  0  0  0  0  0  0
    9.3838   -0.1892    0.0000 H   0  0  0  0  0  0  0  0  0  0  0  0
    9.3838    0.6402    0.0000 H   0  0  0  0  0  0  0  0  0  0  0  0
    3.4103   -2.8486    0.0000 H   0  0  0  0  0  0  0  0  0  0  0  0
    4.2085   -2.8455    0.0000 H   0  0  0  0  0  0  0  0  0  0  0  0
    5.3787    0.2139    0.0000 H   0  0  0  0  0  0  0  0  0  0  0  0
    4.7635    0.8386    0.0000 H   0  0  0  0  0  0  0  0  0  0  0  0
    4.1388    0.2234    0.0000 H   0  0  0  0  0  0  0  0  0  0  0  0
    8.0131    1.7255    0.0000 H   0  0  0  0  0  0  0  0  0  0  0  0
    7.3931    2.3455    0.0000 H   0  0  0  0  0  0  0  0  0  0  0  0
    6.7731    1.7255    0.0000 H   0  0  0  0  0  0  0  0  0  0  0  0
    2.6718   -0.1599    0.0000 H   0  0  0  0  0  0  0  0  0  0  0  0
    2.2647   -0.8466    0.0000 H   0  0  0  0  0  0  0  0  0  0  0  0
    5.0289   -3.3461    0.0000 H   0  0  0  0  0  0  0  0  0  0  0  0
    5.6513   -3.9637    0.0000 H   0  0  0  0  0  0  0  0  0  0  0  0
    6.2689   -3.3413    0.0000 H   0  0  0  0  0  0  0  0  0  0  0  0
    9.9186    3.7572    0.0000 H   0  0  0  0  0  0  0  0  0  0  0  0
    9.3253    3.2249    0.0000 H   0  0  0  0  0  0  0  0  0  0  0  0
   11.0455    2.7371    0.0000 H   0  0  0  0  0  0  0  0  0  0  0  0
   11.5243    3.4716    0.0000 H   0  0  0  0  0  0  0  0  0  0  0  0
   10.7898    3.9504    0.0000 H   0  0  0  0  0  0  0  0  0  0  0  0
 15  1  1  1  0  0  0
  1 24  1  0  0  0  0
  2 23  2  0  0  0  0
  3 24  2  0  0  0  0
  4  5  1  0  0  0  0
  4  6  1  0  0  0  0
  4 11  1  0  0  0  0
  4 27  1  1  0  0  0
  5  7  1  0  0  0  0
  5 10  1  0  0  0  0
  5 28  1  6  0  0  0
  6  8  1  0  0  0  0
  6 14  1  0  0  0  0
  6 29  1  6  0  0  0
  7  9  1  0  0  0  0
  7 16  1  0  0  0  0
  7 19  1  1  0  0  0
  8 12  1  0  0  0  0
  8 15  1  0  0  0  0
  8 20  1  1  0  0  0
  9 13  1  0  0  0  0
  9 18  1  0  0  0  0
  9 30  1  6  0  0  0
 10 12  1  0  0  0  0
 10 31  1  0  0  0  0
 10 32  1  0  0  0  0
 11 13  1  0  0  0  0
 11 33  1  0  0  0  0
 11 34  1  0  0  0  0
 12 35  1  0  0  0  0
 12 36  1  0  0  0  0
 13 22  1  1  0  0  0
 13 37  1  0  0  0  0
 14 17  1  0  0  0  0
 14 38  1  0  0  0  0
 14 39  1  0  0  0  0
 15 17  1  0  0  0  0
 15 40  1  0  0  0  0
 16 21  1  0  0  0  0
 16 41  1  0  0  0  0
 16 42  1  0  0  0  0
 17 43  1  0  0  0  0
 17 44  1  0  0  0  0
 18 23  1  0  0  0  0
 18 45  1  0  0  0  0
 18 46  1  0  0  0  0
 19 47  1  0  0  0  0
 19 48  1  0  0  0  0
 19 49  1  0  0  0  0
 20 50  1  0  0  0  0
 20 51  1  0  0  0  0
 20 52  1  0  0  0  0
 21 23  1  0  0  0  0
 21 53  1  0  0  0  0
 21 54  1  0  0  0  0
 22 55  1  0  0  0  0
 22 56  1  0  0  0  0
 22 57  1  0  0  0  0
 24 25  1  0  0  0  0
 25 26  1  0  0  0  0
 25 58  1  0  0  0  0
 25 59  1  0  0  0  0
 26 60  1  0  0  0  0
 26 61  1  0  0  0  0
 26 62  1  0  0  0  0
M  END
> <PUBCHEM_COMPOUND_CID>
236416

> <PUBCHEM_COMPOUND_CANONICALIZED>
1

> <PUBCHEM_CACTVS_COMPLEXITY>
598

> <PUBCHEM_CACTVS_HBOND_ACCEPTOR>
3

> <PUBCHEM_CACTVS_HBOND_DONOR>
0

> <PUBCHEM_CACTVS_ROTATABLE_BOND>
3

> <PUBCHEM_CACTVS_SUBSKEYS>
AAADcfB4MAAAAAAAAAAAAAAAAAAAAYAAAAAwYMAAAAAAAGDAAAAAGgAAAAAADxSggAICCAAABAAIAICQCAAAAAAAAAAAAAEAAAAAABIAAAACAAAEAAAAAAGIyPCPgAAAAAAAAACAAAQAACAAAIAADAAAAA==

> <PUBCHEM_IUPAC_OPENEYE_NAME>
[(5R,6R,8R,9S,10S,13S,14S,17S)-6,10,13-trimethyl-3-oxo-1,2,4,5,6,7,8,9,11,12,14,15,16,17-tetradecahydrocyclopenta[a]phenanthren-17-yl] propanoate

> <PUBCHEM_IUPAC_CAS_NAME>
propanoic acid [(5R,6R,8R,9S,10S,13S,14S,17S)-6,10,13-trimethyl-3-oxo-1,2,4,5,6,7,8,9,11,12,14,15,16,17-tetradecahydrocyclopenta[a]phenanthren-17-yl] ester

> <PUBCHEM_IUPAC_NAME>
[(5R,6R,8R,9S,10S,13S,14S,17S)-6,10,13-trimethyl-3-oxo-1,2,4,5,6,7,8,9,11,12,14,15,16,17-tetradecahydrocyclopenta[a]phenanthren-17-yl] propanoate

> <PUBCHEM_IUPAC_SYSTEMATIC_NAME>
[(5R,6R,8R,9S,10S,13S,14S,17S)-6,10,13-trimethyl-3-oxidanylidene-1,2,4,5,6,7,8,9,11,12,14,15,16,17-tetradecahydrocyclopenta[a]phenanthren-17-yl] propanoate

> <PUBCHEM_IUPAC_TRADITIONAL_NAME>
propionic acid [(5R,6R,8R,9S,10S,13S,14S,17S)-3-keto-6,10,13-trimethyl-1,2,4,5,6,7,8,9,11,12,14,15,16,17-tetradecahydrocyclopenta[a]phenanthren-17-yl] ester

> <PUBCHEM_IUPAC_INCHI>
InChI=1S/C23H36O3/c1-5-21(25)26-20-7-6-17-16-12-14(2)19-13-15(24)8-10-22(19,3)18(16)9-11-23(17,20)4/h14,16-20H,5-13H2,1-4H3/t14-,16+,17+,18+,19-,20+,22-,23+/m1/s1

> <PUBCHEM_IUPAC_INCHIKEY>
OIHORBOMFNFQBP-CMMFVDGISA-N

> <PUBCHEM_XLOGP3>
5

> <PUBCHEM_EXACT_MASS>
360.266445

> <PUBCHEM_MOLECULAR_FORMULA>
C23H36O3

> <PUBCHEM_MOLECULAR_WEIGHT>
360.53014

> <PUBCHEM_OPENEYE_CAN_SMILES>
CCC(=O)OC1CCC2C1(CCC3C2CC(C4C3(CCC(=O)C4)C)C)C

> <PUBCHEM_OPENEYE_ISO_SMILES>
CCC(=O)O[C@H]1CC[C@@H]2[C@@]1(CC[C@H]3[C@H]2C[C@H]([C@@H]4[C@@]3(CCC(=O)C4)C)C)C

> <PUBCHEM_CACTVS_TPSA>
43.4

> <PUBCHEM_MONOISOTOPIC_WEIGHT>
360.266445

> <PUBCHEM_TOTAL_CHARGE>
0

> <PUBCHEM_HEAVY_ATOM_COUNT>
26

> <PUBCHEM_ATOM_DEF_STEREO_COUNT>
8

> <PUBCHEM_ATOM_UDEF_STEREO_COUNT>
0

> <PUBCHEM_BOND_DEF_STEREO_COUNT>
0

> <PUBCHEM_BOND_UDEF_STEREO_COUNT>
0

> <PUBCHEM_ISOTOPIC_ATOM_COUNT>
0

> <PUBCHEM_COMPONENT_COUNT>
1

> <PUBCHEM_CACTVS_TAUTO_COUNT>
3

> <PUBCHEM_COORDINATE_TYPE>
1
5
255

> <PUBCHEM_BONDANNOTATIONS>
15  1  5
13  22  5
4  27  5
5  28  6
6  29  6
7  19  5
8  20  5
9  30  6

$$$$

