13936688
  -OEChem-07051213123D

 77 81  0     1  0  0  0  0  0999 V2000
   -2.0579   -0.4810   -0.3732 O   0  0  0  0  0  0  0  0  0  0  0  0
   -2.4067    1.6452    1.4578 O   0  0  0  0  0  0  0  0  0  0  0  0
   -4.2973   -0.4537   -1.1549 O   0  0  0  0  0  0  0  0  0  0  0  0
   -6.0990   -2.5586   -0.3512 O   0  0  0  0  0  0  0  0  0  0  0  0
   -0.1377    3.8779   -1.3898 O   0  0  0  0  0  0  0  0  0  0  0  0
    2.1769    2.6643    1.6196 O   0  0  0  0  0  0  0  0  0  0  0  0
    0.4741   -1.4007   -1.7005 O   0  0  0  0  0  0  0  0  0  0  0  0
    0.4514    5.0591    0.5061 O   0  0  0  0  0  0  0  0  0  0  0  0
    2.7755   -2.4072   -1.4975 O   0  0  0  0  0  0  0  0  0  0  0  0
    4.4173    1.5308    1.7182 O   0  0  0  0  0  0  0  0  0  0  0  0
    5.0593   -3.5660   -1.3882 O   0  0  0  0  0  0  0  0  0  0  0  0
   -4.0538   -4.1411    0.8655 N   0  0  0  0  0  0  0  0  0  0  0  0
   -1.9446    2.5420    0.4368 C   0  0  2  0  0  0  0  0  0  0  0  0
   -2.1588    1.8752   -0.9318 C   0  0  0  0  0  0  0  0  0  0  0  0
   -0.4427    2.8241    0.6824 C   0  0  1  0  0  0  0  0  0  0  0  0
   -1.3801    0.5626   -1.0723 C   0  0  1  0  0  0  0  0  0  0  0  0
    0.4604    1.6639    0.3047 C   0  0  0  0  0  0  0  0  0  0  0  0
    0.0307    0.6294   -0.5441 C   0  0  0  0  0  0  0  0  0  0  0  0
   -2.8130    3.8027    0.5509 C   0  0  0  0  0  0  0  0  0  0  0  0
   -3.0299   -1.1121   -1.2018 C   0  0  2  0  0  0  0  0  0  0  0  0
   -3.8467   -2.7290    0.5503 C   0  0  1  0  0  0  0  0  0  0  0  0
   -3.1592   -2.5859   -0.8124 C   0  0  0  0  0  0  0  0  0  0  0  0
   -5.1748   -1.9590    0.5583 C   0  0  1  0  0  0  0  0  0  0  0  0
   -4.9333   -0.5042    0.1293 C   0  0  2  0  0  0  0  0  0  0  0  0
    1.7794    1.6468    0.7958 C   0  0  0  0  0  0  0  0  0  0  0  0
    0.9255   -0.4023   -0.8811 C   0  0  0  0  0  0  0  0  0  0  0  0
    0.0144    4.0590   -0.0470 C   0  0  0  0  0  0  0  0  0  0  0  0
    2.6617    0.6165    0.4522 C   0  0  0  0  0  0  0  0  0  0  0  0
    2.2348   -0.4081   -0.3877 C   0  0  0  0  0  0  0  0  0  0  0  0
   -4.2839    3.4628    0.4425 C   0  0  0  0  0  0  0  0  0  0  0  0
   -6.2296    0.2920    0.0231 C   0  0  0  0  0  0  0  0  0  0  0  0
    3.1521   -1.5047   -0.7602 C   0  0  0  0  0  0  0  0  0  0  0  0
    4.0405    0.6268    0.9828 C   0  0  0  0  0  0  0  0  0  0  0  0
   -2.7801   -4.8602    0.8542 C   0  0  0  0  0  0  0  0  0  0  0  0
   -4.7096   -4.2846    2.1650 C   0  0  0  0  0  0  0  0  0  0  0  0
    4.5304   -1.4976   -0.2290 C   0  0  0  0  0  0  0  0  0  0  0  0
    4.9593   -0.4686    0.6119 C   0  0  0  0  0  0  0  0  0  0  0  0
    0.2607    4.9821   -2.2082 C   0  0  0  0  0  0  0  0  0  0  0  0
    5.4103   -2.5307   -0.5731 C   0  0  0  0  0  0  0  0  0  0  0  0
    6.2681   -0.4728    1.1089 C   0  0  0  0  0  0  0  0  0  0  0  0
    6.7137   -2.5310   -0.0758 C   0  0  0  0  0  0  0  0  0  0  0  0
    7.1417   -1.5042    0.7635 C   0  0  0  0  0  0  0  0  0  0  0  0
   -3.2163    1.6519   -1.0754 H   0  0  0  0  0  0  0  0  0  0  0  0
   -1.9007    2.5467   -1.7544 H   0  0  0  0  0  0  0  0  0  0  0  0
   -0.3520    3.0165    1.7582 H   0  0  0  0  0  0  0  0  0  0  0  0
   -1.3175    0.3561   -2.1499 H   0  0  0  0  0  0  0  0  0  0  0  0
   -2.6458    4.2759    1.5268 H   0  0  0  0  0  0  0  0  0  0  0  0
   -2.5641    4.5426   -0.2175 H   0  0  0  0  0  0  0  0  0  0  0  0
   -2.7108   -1.1022   -2.2509 H   0  0  0  0  0  0  0  0  0  0  0  0
   -3.1925   -2.2747    1.3096 H   0  0  0  0  0  0  0  0  0  0  0  0
   -2.1485   -3.0072   -0.7971 H   0  0  0  0  0  0  0  0  0  0  0  0
   -3.7355   -3.1143   -1.5824 H   0  0  0  0  0  0  0  0  0  0  0  0
   -5.6398   -1.9441    1.5491 H   0  0  0  0  0  0  0  0  0  0  0  0
   -4.2889   -0.0087    0.8625 H   0  0  0  0  0  0  0  0  0  0  0  0
   -2.2858    2.0785    2.3199 H   0  0  0  0  0  0  0  0  0  0  0  0
   -4.8761    4.3531    0.6848 H   0  0  0  0  0  0  0  0  0  0  0  0
   -4.5934    2.6807    1.1407 H   0  0  0  0  0  0  0  0  0  0  0  0
   -4.5694    3.1781   -0.5733 H   0  0  0  0  0  0  0  0  0  0  0  0
   -6.7500    0.3313    0.9847 H   0  0  0  0  0  0  0  0  0  0  0  0
   -6.0297    1.3138   -0.3098 H   0  0  0  0  0  0  0  0  0  0  0  0
   -6.9048   -0.1389   -0.7240 H   0  0  0  0  0  0  0  0  0  0  0  0
   -5.7952   -2.3829   -1.2574 H   0  0  0  0  0  0  0  0  0  0  0  0
   -2.9136   -5.8817    1.2310 H   0  0  0  0  0  0  0  0  0  0  0  0
   -2.0179   -4.3766    1.4763 H   0  0  0  0  0  0  0  0  0  0  0  0
   -2.3922   -4.9908   -0.1608 H   0  0  0  0  0  0  0  0  0  0  0  0
   -4.1901   -3.7372    2.9601 H   0  0  0  0  0  0  0  0  0  0  0  0
   -4.7467   -5.3404    2.4605 H   0  0  0  0  0  0  0  0  0  0  0  0
   -5.7571   -3.9701    2.1342 H   0  0  0  0  0  0  0  0  0  0  0  0
    1.4692    2.8826    2.2453 H   0  0  0  0  0  0  0  0  0  0  0  0
   -0.4858   -1.5025   -1.6198 H   0  0  0  0  0  0  0  0  0  0  0  0
   -0.3418    5.8644   -1.9721 H   0  0  0  0  0  0  0  0  0  0  0  0
    1.3256    5.1915   -2.0690 H   0  0  0  0  0  0  0  0  0  0  0  0
    0.0897    4.7094   -3.2528 H   0  0  0  0  0  0  0  0  0  0  0  0
    6.6260    0.3162    1.7650 H   0  0  0  0  0  0  0  0  0  0  0  0
    7.4028   -3.3295   -0.3382 H   0  0  0  0  0  0  0  0  0  0  0  0
    8.1570   -1.5068    1.1496 H   0  0  0  0  0  0  0  0  0  0  0  0
    4.1398   -3.4778   -1.6799 H   0  0  0  0  0  0  0  0  0  0  0  0
  1 16  1  0  0  0  0
  1 20  1  0  0  0  0
  2 13  1  0  0  0  0
  2 55  1  0  0  0  0
  3 20  1  0  0  0  0
  3 24  1  0  0  0  0
  4 23  1  0  0  0  0
  4 62  1  0  0  0  0
  5 27  1  0  0  0  0
  5 38  1  0  0  0  0
  6 25  1  0  0  0  0
  6 69  1  0  0  0  0
  7 26  1  0  0  0  0
  7 70  1  0  0  0  0
  8 27  2  0  0  0  0
  9 32  2  0  0  0  0
 10 33  2  0  0  0  0
 11 39  1  0  0  0  0
 11 77  1  0  0  0  0
 12 21  1  0  0  0  0
 12 34  1  0  0  0  0
 12 35  1  0  0  0  0
 13 14  1  0  0  0  0
 13 15  1  0  0  0  0
 13 19  1  0  0  0  0
 14 16  1  0  0  0  0
 14 43  1  0  0  0  0
 14 44  1  0  0  0  0
 15 17  1  0  0  0  0
 15 27  1  0  0  0  0
 15 45  1  0  0  0  0
 16 18  1  0  0  0  0
 16 46  1  0  0  0  0
 17 18  1  0  0  0  0
 17 25  2  0  0  0  0
 18 26  2  0  0  0  0
 19 30  1  0  0  0  0
 19 47  1  0  0  0  0
 19 48  1  0  0  0  0
 20 22  1  0  0  0  0
 20 49  1  0  0  0  0
 21 22  1  0  0  0  0
 21 23  1  0  0  0  0
 21 50  1  0  0  0  0
 22 51  1  0  0  0  0
 22 52  1  0  0  0  0
 23 24  1  0  0  0  0
 23 53  1  0  0  0  0
 24 31  1  0  0  0  0
 24 54  1  0  0  0  0
 25 28  1  0  0  0  0
 26 29  1  0  0  0  0
 28 29  2  0  0  0  0
 28 33  1  0  0  0  0
 29 32  1  0  0  0  0
 30 56  1  0  0  0  0
 30 57  1  0  0  0  0
 30 58  1  0  0  0  0
 31 59  1  0  0  0  0
 31 60  1  0  0  0  0
 31 61  1  0  0  0  0
 32 36  1  0  0  0  0
 33 37  1  0  0  0  0
 34 63  1  0  0  0  0
 34 64  1  0  0  0  0
 34 65  1  0  0  0  0
 35 66  1  0  0  0  0
 35 67  1  0  0  0  0
 35 68  1  0  0  0  0
 36 37  2  0  0  0  0
 36 39  1  0  0  0  0
 37 40  1  0  0  0  0
 38 71  1  0  0  0  0
 38 72  1  0  0  0  0
 38 73  1  0  0  0  0
 39 41  2  0  0  0  0
 40 42  2  0  0  0  0
 40 74  1  0  0  0  0
 41 42  1  0  0  0  0
 41 75  1  0  0  0  0
 42 76  1  0  0  0  0
M  END
> <PUBCHEM_COMPOUND_CID>
13936688

> <PUBCHEM_CONFORMER_RMSD>
1

> <PUBCHEM_CONFORMER_DIVERSEORDER>
1
4
9
5
6
8
3
7
2

> <PUBCHEM_MMFF94_PARTIAL_CHARGES>
45
1 -0.56
10 -0.57
11 -0.53
12 -0.81
13 0.28
15 0.2
16 0.42
17 -0.14
18 -0.14
2 -0.68
20 0.56
21 0.27
23 0.28
24 0.28
25 0.08
26 0.08
27 0.66
28 0.09
29 0.09
3 -0.56
32 0.4
33 0.4
34 0.27
35 0.27
36 0.09
37 0.09
38 0.28
39 0.08
4 -0.68
40 -0.15
41 -0.15
42 -0.15
5 -0.43
55 0.4
6 -0.53
62 0.4
69 0.45
7 -0.53
70 0.45
74 0.15
75 0.15
76 0.15
77 0.45
8 -0.57
9 -0.57

> <PUBCHEM_EFFECTIVE_ROTOR_COUNT>
8

> <PUBCHEM_PHARMACOPHORE_FEATURES>
19
1 1 acceptor
1 10 acceptor
1 11 donor
1 12 cation
1 2 acceptor
1 2 donor
1 3 acceptor
1 30 hydrophobe
1 4 acceptor
1 4 donor
1 6 donor
1 7 donor
1 8 acceptor
1 9 acceptor
6 13 14 15 16 17 18 rings
6 17 18 25 26 28 29 rings
6 28 29 32 33 36 37 rings
6 3 20 21 22 23 24 rings
6 36 37 39 40 41 42 rings

> <PUBCHEM_HEAVY_ATOM_COUNT>
42

> <PUBCHEM_ATOM_DEF_STEREO_COUNT>
7

> <PUBCHEM_ATOM_UDEF_STEREO_COUNT>
0

> <PUBCHEM_BOND_DEF_STEREO_COUNT>
0

> <PUBCHEM_BOND_UDEF_STEREO_COUNT>
0

> <PUBCHEM_ISOTOPIC_ATOM_COUNT>
0

> <PUBCHEM_COMPONENT_COUNT>
1

> <PUBCHEM_CACTVS_TAUTO_COUNT>
248

> <PUBCHEM_CONFORMER_ID>
00D4A83000000001

> <PUBCHEM_MMFF94_ENERGY>
144.8372

> <PUBCHEM_FEATURE_SELFOVERLAP>
96.517

> <PUBCHEM_SHAPE_FINGERPRINT>
10010297 198 17619907262489074047
10838868 158 18198897007389554354
11135609 12 18410013243154189464
11136131 41 17691417308521229568
117089 54 18410286995659129594
11828532 37 17914047604383618891
12422481 6 17894916204478952826
12608794 3 18265308721921886233
131258 43 18266435665194097446
13140716 1 18188209917718759412
140371 6 18337386055070135373
14394314 77 18340768251763866419
14415360 78 17614571766504920904
15324884 4 17977424648229486860
15351339 4 18199198467260907131
15361156 5 18335140864694355774
15927050 60 17903922502513371735
16112460 7 17897999386045539177
17686467 74 18412271623802212832
18608769 82 18333736840908529666
19315092 285 16083643309902464143
19611394 137 18409169896862619090
22889206 1 17392493095062872945
23559900 14 18338522920128646401
2747138 104 18408044001461610394
3383291 50 18412542124926920979
3418910 222 18343014464294923156
4073 2 18335705009424073338
4144715 1 18199188387151153681
4435113 14 18270959025370599026
5104073 3 18042135422103828162
613672 6 18266761111286711611
6371380 46 18341620339189831175

> <PUBCHEM_SHAPE_MULTIPOLES>
794.8
14.67
6.93
1.53
11.49
2.38
-0.09
-16.18
3.04
-6.47
0.48
0.13
0.09
2.33

> <PUBCHEM_SHAPE_SELFOVERLAP>
1746.954

> <PUBCHEM_SHAPE_VOLUME>
423

> <PUBCHEM_COORDINATE_TYPE>
2
5
10

$$$$

