17396378
  -OEChem-06241222562D

 52 54  0     0  0  0  0  0  0999 V2000
    6.3092    2.5580    0.0000 S   0  0  0  0  0  0  0  0  0  0  0  0
    6.3092   -1.4420    0.0000 S   0  0  0  0  0  0  0  0  0  0  0  0
    7.3092    2.5580    0.0000 O   0  0  0  0  0  0  0  0  0  0  0  0
    5.3092    2.5580    0.0000 O   0  0  0  0  0  0  0  0  0  0  0  0
    6.3092   -3.4420    0.0000 O   0  0  0  0  0  0  0  0  0  0  0  0
    6.3092    3.5580    0.0000 N   0  0  0  0  0  0  0  0  0  0  0  0
    3.4945   -4.6444    0.0000 N   0  0  0  0  0  0  0  0  0  0  0  0
    7.1753    0.0580    0.0000 N   0  0  0  0  0  0  0  0  0  0  0  0
    7.1753    4.0580    0.0000 C   0  0  0  0  0  0  0  0  0  0  0  0
    5.4432    4.0580    0.0000 C   0  0  0  0  0  0  0  0  0  0  0  0
    5.4432    5.0580    0.0000 C   0  0  0  0  0  0  0  0  0  0  0  0
    7.1753    5.0580    0.0000 C   0  0  0  0  0  0  0  0  0  0  0  0
    6.3092    5.5580    0.0000 C   0  0  0  0  0  0  0  0  0  0  0  0
    6.3092    1.5580    0.0000 C   0  0  0  0  0  0  0  0  0  0  0  0
    5.4432    1.0580    0.0000 C   0  0  0  0  0  0  0  0  0  0  0  0
    7.1753    1.0580    0.0000 C   0  0  0  0  0  0  0  0  0  0  0  0
    4.4727   -4.4365    0.0000 C   0  0  0  0  0  0  0  0  0  0  0  0
    4.5772   -3.4420    0.0000 C   0  0  0  0  0  0  0  0  0  0  0  0
    2.9945   -3.7784    0.0000 C   0  0  0  0  0  0  0  0  0  0  0  0
    5.4432    0.0580    0.0000 C   0  0  0  0  0  0  0  0  0  0  0  0
    3.6636   -3.0353    0.0000 C   0  0  0  0  0  0  0  0  0  0  0  0
    6.3092   -0.4420    0.0000 C   0  0  0  0  0  0  0  0  0  0  0  0
    5.4432   -2.9420    0.0000 C   0  0  0  0  0  0  0  0  0  0  0  0
    5.4432   -1.9420    0.0000 C   0  0  0  0  0  0  0  0  0  0  0  0
    5.2158   -5.1057    0.0000 C   0  0  0  0  0  0  0  0  0  0  0  0
    3.0878   -5.5580    0.0000 C   0  0  0  0  0  0  0  0  0  0  0  0
    2.0000   -3.6739    0.0000 C   0  0  0  0  0  0  0  0  0  0  0  0
    4.8326    4.1656    0.0000 H   0  0  0  0  0  0  0  0  0  0  0  0
    5.2312    3.4754    0.0000 H   0  0  0  0  0  0  0  0  0  0  0  0
    7.3873    3.4754    0.0000 H   0  0  0  0  0  0  0  0  0  0  0  0
    7.7859    4.1656    0.0000 H   0  0  0  0  0  0  0  0  0  0  0  0
    5.2312    5.6406    0.0000 H   0  0  0  0  0  0  0  0  0  0  0  0
    4.8326    4.9503    0.0000 H   0  0  0  0  0  0  0  0  0  0  0  0
    7.7859    4.9503    0.0000 H   0  0  0  0  0  0  0  0  0  0  0  0
    7.3873    5.6406    0.0000 H   0  0  0  0  0  0  0  0  0  0  0  0
    6.7078    6.0329    0.0000 H   0  0  0  0  0  0  0  0  0  0  0  0
    5.9107    6.0329    0.0000 H   0  0  0  0  0  0  0  0  0  0  0  0
    4.9063    1.3680    0.0000 H   0  0  0  0  0  0  0  0  0  0  0  0
    7.7122    1.3680    0.0000 H   0  0  0  0  0  0  0  0  0  0  0  0
    4.9063   -0.2520    0.0000 H   0  0  0  0  0  0  0  0  0  0  0  0
    3.5348   -2.4288    0.0000 H   0  0  0  0  0  0  0  0  0  0  0  0
    5.2312   -1.3594    0.0000 H   0  0  0  0  0  0  0  0  0  0  0  0
    4.8326   -2.0497    0.0000 H   0  0  0  0  0  0  0  0  0  0  0  0
    4.8010   -5.5664    0.0000 H   0  0  0  0  0  0  0  0  0  0  0  0
    5.6766   -5.5205    0.0000 H   0  0  0  0  0  0  0  0  0  0  0  0
    5.6307   -4.6449    0.0000 H   0  0  0  0  0  0  0  0  0  0  0  0
    2.5214   -5.3058    0.0000 H   0  0  0  0  0  0  0  0  0  0  0  0
    2.8356   -6.1244    0.0000 H   0  0  0  0  0  0  0  0  0  0  0  0
    3.6542   -5.8102    0.0000 H   0  0  0  0  0  0  0  0  0  0  0  0
    2.0648   -3.0573    0.0000 H   0  0  0  0  0  0  0  0  0  0  0  0
    1.3834   -3.6091    0.0000 H   0  0  0  0  0  0  0  0  0  0  0  0
    1.9352   -4.2905    0.0000 H   0  0  0  0  0  0  0  0  0  0  0  0
  1  3  2  0  0  0  0
  1  4  2  0  0  0  0
  1  6  1  0  0  0  0
  1 14  1  0  0  0  0
  2 22  1  0  0  0  0
  2 24  1  0  0  0  0
  5 23  2  0  0  0  0
  6  9  1  0  0  0  0
  6 10  1  0  0  0  0
  7 17  1  0  0  0  0
  7 19  1  0  0  0  0
  7 26  1  0  0  0  0
  8 16  1  0  0  0  0
  8 22  2  0  0  0  0
  9 12  1  0  0  0  0
  9 30  1  0  0  0  0
  9 31  1  0  0  0  0
 10 11  1  0  0  0  0
 10 28  1  0  0  0  0
 10 29  1  0  0  0  0
 11 13  1  0  0  0  0
 11 32  1  0  0  0  0
 11 33  1  0  0  0  0
 12 13  1  0  0  0  0
 12 34  1  0  0  0  0
 12 35  1  0  0  0  0
 13 36  1  0  0  0  0
 13 37  1  0  0  0  0
 14 15  1  0  0  0  0
 14 16  2  0  0  0  0
 15 20  2  0  0  0  0
 15 38  1  0  0  0  0
 16 39  1  0  0  0  0
 17 18  2  0  0  0  0
 17 25  1  0  0  0  0
 18 21  1  0  0  0  0
 18 23  1  0  0  0  0
 19 21  2  0  0  0  0
 19 27  1  0  0  0  0
 20 22  1  0  0  0  0
 20 40  1  0  0  0  0
 21 41  1  0  0  0  0
 23 24  1  0  0  0  0
 24 42  1  0  0  0  0
 24 43  1  0  0  0  0
 25 44  1  0  0  0  0
 25 45  1  0  0  0  0
 25 46  1  0  0  0  0
 26 47  1  0  0  0  0
 26 48  1  0  0  0  0
 26 49  1  0  0  0  0
 27 50  1  0  0  0  0
 27 51  1  0  0  0  0
 27 52  1  0  0  0  0
M  END
> <PUBCHEM_COMPOUND_CID>
17396378

> <PUBCHEM_COMPOUND_CANONICALIZED>
1

> <PUBCHEM_CACTVS_COMPLEXITY>
616

> <PUBCHEM_CACTVS_HBOND_ACCEPTOR>
6

> <PUBCHEM_CACTVS_HBOND_DONOR>
0

> <PUBCHEM_CACTVS_ROTATABLE_BOND>
6

> <PUBCHEM_CACTVS_SUBSKEYS>
AAADceB7MABgAAAAAAAAAAAAAAAAAWAAAAAsWAAAAAAAAAAB4AAAHgQAQAAADAzF3gS+gZMMEAqoA7R3RHDC0DB1CjAI2D04ZNgIIPrglZGEIYhggADoycccAAAOAAAAAAAAAAAAAAAAAAAAAAAAAAAAAA==

> <PUBCHEM_IUPAC_OPENEYE_NAME>
2-[[5-(1-piperidylsulfonyl)-2-pyridyl]sulfanyl]-1-(1,2,5-trimethylpyrrol-3-yl)ethanone

> <PUBCHEM_IUPAC_CAS_NAME>
2-[[5-(1-piperidinylsulfonyl)-2-pyridinyl]thio]-1-(1,2,5-trimethyl-3-pyrrolyl)ethanone

> <PUBCHEM_IUPAC_NAME>
2-(5-piperidin-1-ylsulfonylpyridin-2-yl)sulfanyl-1-(1,2,5-trimethylpyrrol-3-yl)ethanone

> <PUBCHEM_IUPAC_SYSTEMATIC_NAME>
2-(5-piperidin-1-ylsulfonylpyridin-2-yl)sulfanyl-1-(1,2,5-trimethylpyrrol-3-yl)ethanone

> <PUBCHEM_IUPAC_TRADITIONAL_NAME>
2-[(5-piperidinosulfonyl-2-pyridyl)thio]-1-(1,2,5-trimethylpyrrol-3-yl)ethanone

> <PUBCHEM_IUPAC_INCHI>
InChI=1S/C19H25N3O3S2/c1-14-11-17(15(2)21(14)3)18(23)13-26-19-8-7-16(12-20-19)27(24,25)22-9-5-4-6-10-22/h7-8,11-12H,4-6,9-10,13H2,1-3H3

> <PUBCHEM_IUPAC_INCHIKEY>
GMSBJMRPNGRRON-UHFFFAOYSA-N

> <PUBCHEM_XLOGP3_AA>
2.6

> <PUBCHEM_EXACT_MASS>
407.133734

> <PUBCHEM_MOLECULAR_FORMULA>
C19H25N3O3S2

> <PUBCHEM_MOLECULAR_WEIGHT>
407.5501

> <PUBCHEM_OPENEYE_CAN_SMILES>
CC1=CC(=C(N1C)C)C(=O)CSC2=NC=C(C=C2)S(=O)(=O)N3CCCCC3

> <PUBCHEM_OPENEYE_ISO_SMILES>
CC1=CC(=C(N1C)C)C(=O)CSC2=NC=C(C=C2)S(=O)(=O)N3CCCCC3

> <PUBCHEM_CACTVS_TPSA>
106

> <PUBCHEM_MONOISOTOPIC_WEIGHT>
407.133734

> <PUBCHEM_TOTAL_CHARGE>
0

> <PUBCHEM_HEAVY_ATOM_COUNT>
27

> <PUBCHEM_ATOM_DEF_STEREO_COUNT>
0

> <PUBCHEM_ATOM_UDEF_STEREO_COUNT>
0

> <PUBCHEM_BOND_DEF_STEREO_COUNT>
0

> <PUBCHEM_BOND_UDEF_STEREO_COUNT>
0

> <PUBCHEM_ISOTOPIC_ATOM_COUNT>
0

> <PUBCHEM_COMPONENT_COUNT>
1

> <PUBCHEM_CACTVS_TAUTO_COUNT>
2

> <PUBCHEM_COORDINATE_TYPE>
1
5
255

> <PUBCHEM_BONDANNOTATIONS>
14  15  8
14  16  8
15  20  8
17  18  8
18  21  8
19  21  8
20  22  8
7  17  8
7  19  8
8  16  8
8  22  8

$$$$

