585141
  -OEChem-06241222453D

 53 58  0     0  0  0  0  0  0999 V2000
    0.4483    0.1058   -0.6259 O   0  0  0  0  0  0  0  0  0  0  0  0
   -0.1600    2.1975    0.1435 O   0  0  0  0  0  0  0  0  0  0  0  0
   -1.7988    0.4414   -0.0587 C   0  0  0  0  0  0  0  0  0  0  0  0
   -4.2074    0.8767    0.5591 C   0  0  0  0  0  0  0  0  0  0  0  0
   -3.1860   -1.3890    0.9888 C   0  0  0  0  0  0  0  0  0  0  0  0
   -3.6569   -0.6460   -1.3754 C   0  0  0  0  0  0  0  0  0  0  0  0
    2.3721    1.0090    0.5851 C   0  0  0  0  0  0  0  0  0  0  0  0
    2.6652   -0.6004   -1.3336 C   0  0  0  0  0  0  0  0  0  0  0  0
    1.8021    0.5466   -0.7701 C   0  0  0  0  0  0  0  0  0  0  0  0
    3.1807   -1.3403    1.0225 C   0  0  0  0  0  0  0  0  0  0  0  0
    4.6895    0.3158   -0.1364 C   0  0  0  0  0  0  0  0  0  0  0  0
   -2.7988    1.4892    0.4699 C   0  0  0  0  0  0  0  0  0  0  0  0
   -1.7814   -0.7675    0.8980 C   0  0  0  0  0  0  0  0  0  0  0  0
   -2.2503   -0.0272   -1.4559 C   0  0  0  0  0  0  0  0  0  0  0  0
   -4.1740   -0.3315    1.5109 C   0  0  0  0  0  0  0  0  0  0  0  0
   -4.6430    0.4070   -0.8399 C   0  0  0  0  0  0  0  0  0  0  0  0
   -3.6272   -1.8459   -0.4126 C   0  0  0  0  0  0  0  0  0  0  0  0
    2.3336   -0.1753    1.5675 C   0  0  0  0  0  0  0  0  0  0  0  0
    3.8336    1.4698    0.4139 C   0  0  0  0  0  0  0  0  0  0  0  0
    2.6256   -1.7795   -0.3450 C   0  0  0  0  0  0  0  0  0  0  0  0
    4.1245   -0.1311   -1.4958 C   0  0  0  0  0  0  0  0  0  0  0  0
    4.6343   -0.8667    0.8469 C   0  0  0  0  0  0  0  0  0  0  0  0
   -0.4257    1.0416   -0.1572 C   0  0  0  0  0  0  0  0  0  0  0  0
   -4.9138    1.6251    0.9352 H   0  0  0  0  0  0  0  0  0  0  0  0
   -3.1682   -2.2470    1.6699 H   0  0  0  0  0  0  0  0  0  0  0  0
   -3.9735   -0.9772   -2.3706 H   0  0  0  0  0  0  0  0  0  0  0  0
    1.8226    1.8372    1.0344 H   0  0  0  0  0  0  0  0  0  0  0  0
    2.2626   -0.9327   -2.2974 H   0  0  0  0  0  0  0  0  0  0  0  0
    1.8158    1.3781   -1.4876 H   0  0  0  0  0  0  0  0  0  0  0  0
    3.1482   -2.1817    1.7235 H   0  0  0  0  0  0  0  0  0  0  0  0
    5.7263    0.6488   -0.2575 H   0  0  0  0  0  0  0  0  0  0  0  0
   -2.8209    2.3683   -0.1878 H   0  0  0  0  0  0  0  0  0  0  0  0
   -2.4907    1.8506    1.4601 H   0  0  0  0  0  0  0  0  0  0  0  0
   -1.4436   -0.4579    1.8957 H   0  0  0  0  0  0  0  0  0  0  0  0
   -1.0708   -1.5320    0.5583 H   0  0  0  0  0  0  0  0  0  0  0  0
   -1.5556   -0.7693   -1.8703 H   0  0  0  0  0  0  0  0  0  0  0  0
   -2.2524    0.8162   -2.1590 H   0  0  0  0  0  0  0  0  0  0  0  0
   -3.8790   -0.0078    2.5166 H   0  0  0  0  0  0  0  0  0  0  0  0
   -5.1770   -0.7671    1.5978 H   0  0  0  0  0  0  0  0  0  0  0  0
   -5.6541   -0.0161   -0.7946 H   0  0  0  0  0  0  0  0  0  0  0  0
   -4.6860    1.2622   -1.5255 H   0  0  0  0  0  0  0  0  0  0  0  0
   -2.9391   -2.6120   -0.7905 H   0  0  0  0  0  0  0  0  0  0  0  0
   -4.6206   -2.3080   -0.3599 H   0  0  0  0  0  0  0  0  0  0  0  0
    1.3040   -0.5081    1.7412 H   0  0  0  0  0  0  0  0  0  0  0  0
    2.7256    0.1395    2.5430 H   0  0  0  0  0  0  0  0  0  0  0  0
    4.2363    1.8072    1.3769 H   0  0  0  0  0  0  0  0  0  0  0  0
    3.8760    2.3275   -0.2685 H   0  0  0  0  0  0  0  0  0  0  0  0
    3.2219   -2.6129   -0.7371 H   0  0  0  0  0  0  0  0  0  0  0  0
    1.6019   -2.1560   -0.2313 H   0  0  0  0  0  0  0  0  0  0  0  0
    4.1712    0.6983   -2.2119 H   0  0  0  0  0  0  0  0  0  0  0  0
    4.7356   -0.9436   -1.9074 H   0  0  0  0  0  0  0  0  0  0  0  0
    5.0504   -0.5671    1.8166 H   0  0  0  0  0  0  0  0  0  0  0  0
    5.2547   -1.6916    0.4756 H   0  0  0  0  0  0  0  0  0  0  0  0
  1  9  1  0  0  0  0
  1 23  1  0  0  0  0
  2 23  2  0  0  0  0
  3 12  1  0  0  0  0
  3 13  1  0  0  0  0
  3 14  1  0  0  0  0
  3 23  1  0  0  0  0
  4 12  1  0  0  0  0
  4 15  1  0  0  0  0
  4 16  1  0  0  0  0
  4 24  1  0  0  0  0
  5 13  1  0  0  0  0
  5 15  1  0  0  0  0
  5 17  1  0  0  0  0
  5 25  1  0  0  0  0
  6 14  1  0  0  0  0
  6 16  1  0  0  0  0
  6 17  1  0  0  0  0
  6 26  1  0  0  0  0
  7  9  1  0  0  0  0
  7 18  1  0  0  0  0
  7 19  1  0  0  0  0
  7 27  1  0  0  0  0
  8  9  1  0  0  0  0
  8 20  1  0  0  0  0
  8 21  1  0  0  0  0
  8 28  1  0  0  0  0
  9 29  1  0  0  0  0
 10 18  1  0  0  0  0
 10 20  1  0  0  0  0
 10 22  1  0  0  0  0
 10 30  1  0  0  0  0
 11 19  1  0  0  0  0
 11 21  1  0  0  0  0
 11 22  1  0  0  0  0
 11 31  1  0  0  0  0
 12 32  1  0  0  0  0
 12 33  1  0  0  0  0
 13 34  1  0  0  0  0
 13 35  1  0  0  0  0
 14 36  1  0  0  0  0
 14 37  1  0  0  0  0
 15 38  1  0  0  0  0
 15 39  1  0  0  0  0
 16 40  1  0  0  0  0
 16 41  1  0  0  0  0
 17 42  1  0  0  0  0
 17 43  1  0  0  0  0
 18 44  1  0  0  0  0
 18 45  1  0  0  0  0
 19 46  1  0  0  0  0
 19 47  1  0  0  0  0
 20 48  1  0  0  0  0
 20 49  1  0  0  0  0
 21 50  1  0  0  0  0
 21 51  1  0  0  0  0
 22 52  1  0  0  0  0
 22 53  1  0  0  0  0
M  END
> <PUBCHEM_COMPOUND_CID>
585141

> <PUBCHEM_CONFORMER_RMSD>
0.8

> <PUBCHEM_CONFORMER_DIVERSEORDER>
1
3
4
2
5

> <PUBCHEM_MMFF94_PARTIAL_CHARGES>
5
1 -0.43
2 -0.57
23 0.66
3 0.06
9 0.28

> <PUBCHEM_EFFECTIVE_ROTOR_COUNT>
5.4

> <PUBCHEM_PHARMACOPHORE_FEATURES>
9
1 2 acceptor
6 3 4 5 12 13 15 rings
6 3 4 6 12 14 16 rings
6 3 5 6 13 14 17 rings
6 4 5 6 15 16 17 rings
6 7 10 11 18 19 22 rings
6 7 8 9 10 18 20 rings
6 7 8 9 11 19 21 rings
6 8 10 11 20 21 22 rings

> <PUBCHEM_HEAVY_ATOM_COUNT>
23

> <PUBCHEM_ATOM_DEF_STEREO_COUNT>
0

> <PUBCHEM_ATOM_UDEF_STEREO_COUNT>
0

> <PUBCHEM_BOND_DEF_STEREO_COUNT>
0

> <PUBCHEM_BOND_UDEF_STEREO_COUNT>
0

> <PUBCHEM_ISOTOPIC_ATOM_COUNT>
0

> <PUBCHEM_COMPONENT_COUNT>
1

> <PUBCHEM_CACTVS_TAUTO_COUNT>
1

> <PUBCHEM_CONFORMER_ID>
0008EDB500000001

> <PUBCHEM_MMFF94_ENERGY>
59.5779

> <PUBCHEM_FEATURE_SELFOVERLAP>
70.753

> <PUBCHEM_SHAPE_FINGERPRINT>
10366900 7 17967255282020261611
11370993 144 16226594299451855567
11552529 35 15213593234502701879
11578080 2 17774178849929668284
11615757 297 15791732992332132297
12107183 9 17539401441867114035
12236239 1 17632574967727388392
12403259 415 10231754478874151454
12507557 5 14490477482239788299
12553582 1 18411130346677917917
12633257 1 17240203243923276530
12707595 3 18341330015625864317
12788726 201 18337949120471228977
128620 24 16917345926777069758
13224815 77 18333732407452318806
13296908 3 18410294692123693357
13533116 47 18339929324165221315
13544653 18 18343022189901474852
13583140 156 18130799927264688742
14289901 80 17458062668268192553
14341114 176 14851604358284392846
14386348 63 18413952780141490975
15375358 24 18412546504743185226
15788980 27 16057162813249518810
16752209 62 18057900210742360785
17349148 13 18343023280701705711
1813 80 18341041969323135828
18186145 218 11959732680873463652
19862831 5 17561367296161855098
200 152 18343588425557514599
20281475 54 18131630054375279543
21033648 29 16443631302026413033
21250096 35 18412829083537111921
21503847 285 14490192700602411970
22646028 1 18411140237940010863
22646028 28 17989487437319989130
22854114 59 15791736299478127180
23402539 116 18412829088259236648
23559900 14 18272936020607781512
26918003 58 18272938236473218296
296302 2 18410576162705164460
3004659 81 17561089145948930106
474 4 14419002595474458946
4921388 177 15626215798032587363
5104073 3 18186522076969692738
5161694 15 14549023199179542966
5283173 99 18270414909128481837
542803 24 17847058891427910028
9709674 26 18336825406770817734

> <PUBCHEM_SHAPE_MULTIPOLES>
461.59
10.71
1.68
1.47
0.52
0
0.09
1.22
-0.23
-0.12
-0.2
-0.1
0.26
-0.08

> <PUBCHEM_SHAPE_SELFOVERLAP>
1033.808

> <PUBCHEM_SHAPE_VOLUME>
232.5

> <PUBCHEM_COORDINATE_TYPE>
2
5
10

$$$$

