17396459
  -OEChem-06241222563D

 47 50  0     0  0  0  0  0  0999 V2000
    0.6692   -3.1106   -1.1095 O   0  0  0  0  0  0  0  0  0  0  0  0
   -2.7289    0.1909    0.4388 N   0  0  0  0  0  0  0  0  0  0  0  0
   -0.3397   -1.1010   -0.4704 N   0  0  0  0  0  0  0  0  0  0  0  0
    2.6613   -0.5043   -0.5473 N   0  0  0  0  0  0  0  0  0  0  0  0
    3.7850   -0.5156    0.1876 N   0  0  0  0  0  0  0  0  0  0  0  0
    3.9515   -1.4970    1.0888 N   0  0  0  0  0  0  0  0  0  0  0  0
   -1.4442    0.4526    1.1037 C   0  0  0  0  0  0  0  0  0  0  0  0
   -2.7734   -1.1885   -0.0677 C   0  0  0  0  0  0  0  0  0  0  0  0
   -0.2720    0.2288    0.1458 C   0  0  0  0  0  0  0  0  0  0  0  0
   -1.6355   -1.4361   -1.0567 C   0  0  0  0  0  0  0  0  0  0  0  0
   -3.8414    0.4377    1.3553 C   0  0  0  0  0  0  0  0  0  0  0  0
    0.7260   -1.9956   -0.5928 C   0  0  0  0  0  0  0  0  0  0  0  0
   -5.1368    0.6548    0.6195 C   0  0  0  0  0  0  0  0  0  0  0  0
    2.0380   -1.5869   -0.0737 C   0  0  0  0  0  0  0  0  0  0  0  0
   -5.5122    1.9413    0.2328 C   0  0  0  0  0  0  0  0  0  0  0  0
   -5.9618   -0.4307    0.3248 C   0  0  0  0  0  0  0  0  0  0  0  0
    2.8218   -2.1898    0.9202 C   0  0  0  0  0  0  0  0  0  0  0  0
   -6.7125    2.1423   -0.4487 C   0  0  0  0  0  0  0  0  0  0  0  0
   -7.1621   -0.2297   -0.3569 C   0  0  0  0  0  0  0  0  0  0  0  0
   -7.5374    1.0569   -0.7437 C   0  0  0  0  0  0  0  0  0  0  0  0
    4.7584    0.4651    0.0152 C   0  0  0  0  0  0  0  0  0  0  0  0
    4.5720    1.4744   -0.9294 C   0  0  0  0  0  0  0  0  0  0  0  0
    5.9205    0.4375    0.7862 C   0  0  0  0  0  0  0  0  0  0  0  0
    5.5479    2.4559   -1.1029 C   0  0  0  0  0  0  0  0  0  0  0  0
    6.8962    1.4191    0.6129 C   0  0  0  0  0  0  0  0  0  0  0  0
    6.7099    2.4284   -0.3317 C   0  0  0  0  0  0  0  0  0  0  0  0
   -1.4045    1.4914    1.4533 H   0  0  0  0  0  0  0  0  0  0  0  0
   -1.3285   -0.1965    1.9821 H   0  0  0  0  0  0  0  0  0  0  0  0
   -3.7003   -1.3877   -0.6117 H   0  0  0  0  0  0  0  0  0  0  0  0
   -2.7058   -1.9100    0.7575 H   0  0  0  0  0  0  0  0  0  0  0  0
    0.6543    0.3716    0.7047 H   0  0  0  0  0  0  0  0  0  0  0  0
   -0.2908    0.9640   -0.6677 H   0  0  0  0  0  0  0  0  0  0  0  0
   -1.7577   -0.8090   -1.9485 H   0  0  0  0  0  0  0  0  0  0  0  0
   -1.6514   -2.4797   -1.3877 H   0  0  0  0  0  0  0  0  0  0  0  0
   -3.9499   -0.3664    2.0964 H   0  0  0  0  0  0  0  0  0  0  0  0
   -3.6512    1.3444    1.9468 H   0  0  0  0  0  0  0  0  0  0  0  0
   -4.8778    2.7955    0.4541 H   0  0  0  0  0  0  0  0  0  0  0  0
   -5.6937   -1.4373    0.6343 H   0  0  0  0  0  0  0  0  0  0  0  0
    2.6370   -3.0722    1.5147 H   0  0  0  0  0  0  0  0  0  0  0  0
   -7.0047    3.1440   -0.7502 H   0  0  0  0  0  0  0  0  0  0  0  0
   -7.8064   -1.0743   -0.5830 H   0  0  0  0  0  0  0  0  0  0  0  0
   -8.4723    1.2136   -1.2738 H   0  0  0  0  0  0  0  0  0  0  0  0
    3.6818    1.5327   -1.5502 H   0  0  0  0  0  0  0  0  0  0  0  0
    6.1052   -0.3307    1.5325 H   0  0  0  0  0  0  0  0  0  0  0  0
    5.4034    3.2421   -1.8382 H   0  0  0  0  0  0  0  0  0  0  0  0
    7.8012    1.3981    1.2131 H   0  0  0  0  0  0  0  0  0  0  0  0
    7.4695    3.1928   -0.4667 H   0  0  0  0  0  0  0  0  0  0  0  0
  1 12  2  0  0  0  0
  2  7  1  0  0  0  0
  2  8  1  0  0  0  0
  2 11  1  0  0  0  0
  3  9  1  0  0  0  0
  3 10  1  0  0  0  0
  3 12  1  0  0  0  0
  4  5  1  0  0  0  0
  4 14  2  0  0  0  0
  5  6  1  0  0  0  0
  5 21  1  0  0  0  0
  6 17  2  0  0  0  0
  7  9  1  0  0  0  0
  7 27  1  0  0  0  0
  7 28  1  0  0  0  0
  8 10  1  0  0  0  0
  8 29  1  0  0  0  0
  8 30  1  0  0  0  0
  9 31  1  0  0  0  0
  9 32  1  0  0  0  0
 10 33  1  0  0  0  0
 10 34  1  0  0  0  0
 11 13  1  0  0  0  0
 11 35  1  0  0  0  0
 11 36  1  0  0  0  0
 12 14  1  0  0  0  0
 13 15  2  0  0  0  0
 13 16  1  0  0  0  0
 14 17  1  0  0  0  0
 15 18  1  0  0  0  0
 15 37  1  0  0  0  0
 16 19  2  0  0  0  0
 16 38  1  0  0  0  0
 17 39  1  0  0  0  0
 18 20  2  0  0  0  0
 18 40  1  0  0  0  0
 19 20  1  0  0  0  0
 19 41  1  0  0  0  0
 20 42  1  0  0  0  0
 21 22  2  0  0  0  0
 21 23  1  0  0  0  0
 22 24  1  0  0  0  0
 22 43  1  0  0  0  0
 23 25  2  0  0  0  0
 23 44  1  0  0  0  0
 24 26  2  0  0  0  0
 24 45  1  0  0  0  0
 25 26  1  0  0  0  0
 25 46  1  0  0  0  0
 26 47  1  0  0  0  0
M  END
> <PUBCHEM_COMPOUND_CID>
17396459

> <PUBCHEM_CONFORMER_RMSD>
0.8

> <PUBCHEM_CONFORMER_DIVERSEORDER>
1
14
82
87
57
61
96
80
90
65
63
56
69
24
91
55
102
51
85
25
45
86
48
95
15
21
28
76
84
47
73
29
100
77
52
12
97
67
34
75
5
101
13
94
32
71
37
70
4
30
104
92
9
3
41
64
42
23
22
78
54
66
46
38
93
2
58
62
68
19
8
31
53
60
105
50
44
49
89
16
79
74
88
40
11
43
17
39
98
20
72
26
6
99
83
18
81
10
33
103
35
59
7
27
36

> <PUBCHEM_MMFF94_PARTIAL_CHARGES>
37
1 -0.57
10 0.3
11 0.41
12 0.72
13 -0.14
14 0.2
15 -0.15
16 -0.15
17 0.14
18 -0.15
19 -0.15
2 -0.81
20 -0.15
21 -0.02
22 -0.15
23 -0.15
24 -0.15
25 -0.15
26 -0.15
3 -0.66
37 0.15
38 0.15
39 0.15
4 -0.71
40 0.15
41 0.15
42 0.15
43 0.15
44 0.15
45 0.15
46 0.15
47 0.15
5 0.86
6 -0.71
7 0.27
8 0.27
9 0.3

> <PUBCHEM_EFFECTIVE_ROTOR_COUNT>
6.2

> <PUBCHEM_PHARMACOPHORE_FEATURES>
8
1 1 acceptor
1 2 cation
1 4 acceptor
1 6 acceptor
5 4 5 6 14 17 rings
6 13 15 16 18 19 20 rings
6 2 3 7 8 9 10 rings
6 21 22 23 24 25 26 rings

> <PUBCHEM_HEAVY_ATOM_COUNT>
26

> <PUBCHEM_ATOM_DEF_STEREO_COUNT>
0

> <PUBCHEM_ATOM_UDEF_STEREO_COUNT>
0

> <PUBCHEM_BOND_DEF_STEREO_COUNT>
0

> <PUBCHEM_BOND_UDEF_STEREO_COUNT>
0

> <PUBCHEM_ISOTOPIC_ATOM_COUNT>
0

> <PUBCHEM_COMPONENT_COUNT>
1

> <PUBCHEM_CACTVS_TAUTO_COUNT>
1

> <PUBCHEM_CONFORMER_ID>
010972EB00000001

> <PUBCHEM_MMFF94_ENERGY>
68.0162

> <PUBCHEM_FEATURE_SELFOVERLAP>
40.644

> <PUBCHEM_SHAPE_FINGERPRINT>
10 15 18131348592125325737
10280341 67 17898578567151007336
10554248 39 18189064251201676135
10591671 39 17749387044972146487
10622 236 7419854599263813116
10669705 176 18114176424102732366
10670039 82 17023454348029307264
10730089 47 8070023363691400641
10753850 27 8935008053461819950
10835480 77 18343021121124634985
10906281 52 17895743106802516299
117089 54 10590672501317520824
11823591 26 18261114058717018766
11991303 11 16733272265945149031
125118 31 18202281428813203133
12596602 18 18202282524440891979
12838862 33 18262532420296129904
13685833 64 9583520910650337628
13911987 19 17822009831210496761
14251764 30 7348885568754630819
14257110 125 18261108573869416138
14347332 77 8070037648663339731
14420673 8 9367340445346898673
14428016 204 17917704665665933636
14565420 104 18131636681937521138
14767858 380 17821451266123558441
14931854 50 17530958099036417984
15183329 4 18334573542807508121
15419008 145 17987249983457409952
15475509 35 15625677128035914090
1577012 14 18338802213562449654
15961568 22 18343580767900631117
18335252 114 18408041823522839924
19301679 30 11167401525450623840
19427546 20 18188213079268506967
20157964 124 18341893025793159050
20511986 3 18273221915248511507
20567600 234 18342175579181005783
20691028 202 17912920592338449660
20832881 197 10735869574015452823
21049683 271 18186523177515834457
21150785 3 16443066088725719157
21298829 104 18408598188912133921
21344244 181 5978099154934796709
21365058 113 5472851576239994747
21814621 53 17059489798459183873
23081809 10 17168421683729293387
23845131 108 18201435836037264434
249057 25 17532366650582806978
2748736 6 18408604777143669329
3103668 31 16735251287975574767
312425 54 16415479333368427400
328310 630 18334849563687234849
3472631 163 18260261907230288556
3627633 1 17543072281949957174
397830 11 17846203437385850331
4073 2 18060133215636942531
4169191 19 18413106173990991101
4340502 62 17060341816606541434
6327066 14 18335419016078301564
6608658 132 17385721430770304537
6712543 237 15984833605606783400

> <PUBCHEM_SHAPE_MULTIPOLES>
504.29
21.87
2.71
1.1
9.67
0.31
0.05
-17.36
-0.51
-2.42
-0.7
-0.17
0.07
-0.93

> <PUBCHEM_SHAPE_SELFOVERLAP>
1090.879

> <PUBCHEM_SHAPE_VOLUME>
275.5

> <PUBCHEM_COORDINATE_TYPE>
2
5
10

$$$$

