7955
  -OEChem-07051212563D

 15 15  0     0  0  0  0  0  0999 V2000
    0.3546   -1.3392    0.0003 N   0  0  0  0  0  0  0  0  0  0  0  0
    0.9824    0.9768    0.0002 N   0  0  0  0  0  0  0  0  0  0  0  0
   -1.3371    0.3625    0.0005 N   0  0  0  0  0  0  0  0  0  0  0  0
    2.6132   -0.7083   -0.0005 N   0  0  0  0  0  0  0  0  0  0  0  0
   -1.9200   -1.9088   -0.0007 N   0  0  0  0  0  0  0  0  0  0  0  0
   -0.6931    2.6171   -0.0006 N   0  0  0  0  0  0  0  0  0  0  0  0
    1.2506   -0.3389    0.0002 C   0  0  0  0  0  0  0  0  0  0  0  0
   -0.9189   -0.9135    0.0003 C   0  0  0  0  0  0  0  0  0  0  0  0
   -0.3318    1.2525    0.0003 C   0  0  0  0  0  0  0  0  0  0  0  0
    3.3232    0.0109   -0.0011 H   0  0  0  0  0  0  0  0  0  0  0  0
    2.8628   -1.6877   -0.0011 H   0  0  0  0  0  0  0  0  0  0  0  0
   -2.8929   -1.6352   -0.0003 H   0  0  0  0  0  0  0  0  0  0  0  0
   -1.6522   -2.8832   -0.0004 H   0  0  0  0  0  0  0  0  0  0  0  0
    0.0302    3.3229   -0.0006 H   0  0  0  0  0  0  0  0  0  0  0  0
   -1.6709    2.8724   -0.0003 H   0  0  0  0  0  0  0  0  0  0  0  0
  1  7  2  0  0  0  0
  1  8  1  0  0  0  0
  2  7  1  0  0  0  0
  2  9  2  0  0  0  0
  3  8  2  0  0  0  0
  3  9  1  0  0  0  0
  4  7  1  0  0  0  0
  4 10  1  0  0  0  0
  4 11  1  0  0  0  0
  5  8  1  0  0  0  0
  5 12  1  0  0  0  0
  5 13  1  0  0  0  0
  6  9  1  0  0  0  0
  6 14  1  0  0  0  0
  6 15  1  0  0  0  0
M  END
> <PUBCHEM_COMPOUND_CID>
7955

> <PUBCHEM_CONFORMER_RMSD>
0.4

> <PUBCHEM_CONFORMER_DIVERSEORDER>
1

> <PUBCHEM_MMFF94_PARTIAL_CHARGES>
15
1 -0.62
10 0.4
11 0.4
12 0.4
13 0.4
14 0.4
15 0.4
2 -0.62
3 -0.62
4 -0.9
5 -0.9
6 -0.9
7 0.72
8 0.72
9 0.72

> <PUBCHEM_EFFECTIVE_ROTOR_COUNT>
0

> <PUBCHEM_PHARMACOPHORE_FEATURES>
7
1 4 donor
1 5 donor
1 6 donor
4 1 2 4 7 cation
4 1 3 5 8 cation
4 2 3 6 9 cation
6 1 2 3 7 8 9 rings

> <PUBCHEM_HEAVY_ATOM_COUNT>
9

> <PUBCHEM_ATOM_DEF_STEREO_COUNT>
0

> <PUBCHEM_ATOM_UDEF_STEREO_COUNT>
0

> <PUBCHEM_BOND_DEF_STEREO_COUNT>
0

> <PUBCHEM_BOND_UDEF_STEREO_COUNT>
0

> <PUBCHEM_ISOTOPIC_ATOM_COUNT>
0

> <PUBCHEM_COMPONENT_COUNT>
1

> <PUBCHEM_CACTVS_TAUTO_COUNT>
5

> <PUBCHEM_CONFORMER_ID>
00001F1300000001

> <PUBCHEM_MMFF94_ENERGY>
30.2112

> <PUBCHEM_FEATURE_SELFOVERLAP>
35.652

> <PUBCHEM_SHAPE_FINGERPRINT>
18185500 45 18265893545051553214
21040471 1 17906453577705375456
23552423 10 18272928324010679854
23552449 1 18410296916980069214
241688 4 18410573950791713184
2748010 2 18337676295515706988
29004967 10 18052538764011021467

> <PUBCHEM_SHAPE_MULTIPOLES>
155.33
2.28
2.28
0.55
0.82
1.27
0
-1.27
0
-0.82
0
0
0
0

> <PUBCHEM_SHAPE_SELFOVERLAP>
320.256

> <PUBCHEM_SHAPE_VOLUME>
78.4

> <PUBCHEM_COORDINATE_TYPE>
2
5
10

$$$$

