5280828
  -OEChem-07051212502D

 98 98  0     0  0  0  0  0  0999 V2000
    2.5369   -7.5000    0.0000 O   0  0  0  0  0  0  0  0  0  0  0  0
    2.5369   -9.5000    0.0000 O   0  0  0  0  0  0  0  0  0  0  0  0
    6.0010   -9.5000    0.0000 O   0  0  0  0  0  0  0  0  0  0  0  0
    4.2690  -10.5000    0.0000 O   0  0  0  0  0  0  0  0  0  0  0  0
    9.4651    1.5000    0.0000 C   0  0  0  0  0  0  0  0  0  0  0  0
    7.7331   -1.5000    0.0000 C   0  0  0  0  0  0  0  0  0  0  0  0
    7.7331   -0.5000    0.0000 C   0  0  0  0  0  0  0  0  0  0  0  0
    9.4651    2.5000    0.0000 C   0  0  0  0  0  0  0  0  0  0  0  0
    8.5991    1.0000    0.0000 C   0  0  0  0  0  0  0  0  0  0  0  0
    6.8671   -2.0000    0.0000 C   0  0  0  0  0  0  0  0  0  0  0  0
   11.1972    4.5000    0.0000 C   0  0  0  0  0  0  0  0  0  0  0  0
    6.0010   -3.5000    0.0000 C   0  0  0  0  0  0  0  0  0  0  0  0
    6.0010   -4.5000    0.0000 C   0  0  0  0  0  0  0  0  0  0  0  0
   10.3312    4.0000    0.0000 C   0  0  0  0  0  0  0  0  0  0  0  0
    8.5991    0.0000    0.0000 C   0  0  0  0  0  0  0  0  0  0  0  0
   11.1972    5.5000    0.0000 C   0  0  0  0  0  0  0  0  0  0  0  0
   10.3312    3.0000    0.0000 C   0  0  0  0  0  0  0  0  0  0  0  0
    6.8671   -3.0000    0.0000 C   0  0  0  0  0  0  0  0  0  0  0  0
    5.1350   -5.0000    0.0000 C   0  0  0  0  0  0  0  0  0  0  0  0
    4.2690   -6.5000    0.0000 C   0  0  0  0  0  0  0  0  0  0  0  0
   12.0632    7.0000    0.0000 C   0  0  0  0  0  0  0  0  0  0  0  0
   12.0632    6.0000    0.0000 C   0  0  0  0  0  0  0  0  0  0  0  0
    5.1350   -6.0000    0.0000 C   0  0  0  0  0  0  0  0  0  0  0  0
   12.9292    7.5000    0.0000 C   0  0  0  0  0  0  0  0  0  0  0  0
    4.2690   -7.5000    0.0000 C   0  0  0  0  0  0  0  0  0  0  0  0
    7.7331    1.5000    0.0000 C   0  0  0  0  0  0  0  0  0  0  0  0
    6.0010   -1.5000    0.0000 C   0  0  0  0  0  0  0  0  0  0  0  0
    9.4651    4.5000    0.0000 C   0  0  0  0  0  0  0  0  0  0  0  0
   12.9292    8.5000    0.0000 C   0  0  0  0  0  0  0  0  0  0  0  0
    4.2690   -4.5000    0.0000 C   0  0  0  0  0  0  0  0  0  0  0  0
    5.1350   -8.0000    0.0000 C   0  0  0  0  0  0  0  0  0  0  0  0
    3.4030   -8.0000    0.0000 C   0  0  0  0  0  0  0  0  0  0  0  0
   11.1972    7.5000    0.0000 C   0  0  0  0  0  0  0  0  0  0  0  0
    5.1350   -9.0000    0.0000 C   0  0  0  0  0  0  0  0  0  0  0  0
    3.4030   -9.0000    0.0000 C   0  0  0  0  0  0  0  0  0  0  0  0
   13.7953    9.0000    0.0000 C   0  0  0  0  0  0  0  0  0  0  0  0
    6.0010   -7.5000    0.0000 C   0  0  0  0  0  0  0  0  0  0  0  0
    4.2690   -9.5000    0.0000 C   0  0  0  0  0  0  0  0  0  0  0  0
   13.7953   10.0000    0.0000 C   0  0  0  0  0  0  0  0  0  0  0  0
   14.6613   10.5000    0.0000 C   0  0  0  0  0  0  0  0  0  0  0  0
   12.9292   10.5000    0.0000 C   0  0  0  0  0  0  0  0  0  0  0  0
    2.5369  -10.5000    0.0000 C   0  0  0  0  0  0  0  0  0  0  0  0
    9.6772    0.9174    0.0000 H   0  0  0  0  0  0  0  0  0  0  0  0
   10.0757    1.6077    0.0000 H   0  0  0  0  0  0  0  0  0  0  0  0
    7.9451   -2.0826    0.0000 H   0  0  0  0  0  0  0  0  0  0  0  0
    8.3437   -1.3923    0.0000 H   0  0  0  0  0  0  0  0  0  0  0  0
    7.5210    0.0826    0.0000 H   0  0  0  0  0  0  0  0  0  0  0  0
    7.1225   -0.6077    0.0000 H   0  0  0  0  0  0  0  0  0  0  0  0
    9.2531    3.0826    0.0000 H   0  0  0  0  0  0  0  0  0  0  0  0
    8.8546    2.3923    0.0000 H   0  0  0  0  0  0  0  0  0  0  0  0
   11.4092    3.9174    0.0000 H   0  0  0  0  0  0  0  0  0  0  0  0
   11.8078    4.6077    0.0000 H   0  0  0  0  0  0  0  0  0  0  0  0
    5.7890   -2.9174    0.0000 H   0  0  0  0  0  0  0  0  0  0  0  0
    5.3905   -3.6077    0.0000 H   0  0  0  0  0  0  0  0  0  0  0  0
    6.2131   -5.0826    0.0000 H   0  0  0  0  0  0  0  0  0  0  0  0
    6.6116   -4.3923    0.0000 H   0  0  0  0  0  0  0  0  0  0  0  0
    9.1360   -0.3100    0.0000 H   0  0  0  0  0  0  0  0  0  0  0  0
   10.9851    6.0826    0.0000 H   0  0  0  0  0  0  0  0  0  0  0  0
   10.5866    5.3923    0.0000 H   0  0  0  0  0  0  0  0  0  0  0  0
   10.8681    2.6900    0.0000 H   0  0  0  0  0  0  0  0  0  0  0  0
    7.4040   -3.3100    0.0000 H   0  0  0  0  0  0  0  0  0  0  0  0
    4.0569   -5.9174    0.0000 H   0  0  0  0  0  0  0  0  0  0  0  0
    3.6584   -6.6077    0.0000 H   0  0  0  0  0  0  0  0  0  0  0  0
   12.6002    5.6900    0.0000 H   0  0  0  0  0  0  0  0  0  0  0  0
    5.6720   -6.3100    0.0000 H   0  0  0  0  0  0  0  0  0  0  0  0
   13.1413    6.9174    0.0000 H   0  0  0  0  0  0  0  0  0  0  0  0
   13.5398    7.6077    0.0000 H   0  0  0  0  0  0  0  0  0  0  0  0
    8.0431    2.0369    0.0000 H   0  0  0  0  0  0  0  0  0  0  0  0
    7.1962    1.8100    0.0000 H   0  0  0  0  0  0  0  0  0  0  0  0
    7.4231    0.9631    0.0000 H   0  0  0  0  0  0  0  0  0  0  0  0
    6.3110   -0.9631    0.0000 H   0  0  0  0  0  0  0  0  0  0  0  0
    5.4641   -1.1900    0.0000 H   0  0  0  0  0  0  0  0  0  0  0  0
    5.6910   -2.0369    0.0000 H   0  0  0  0  0  0  0  0  0  0  0  0
    9.7751    5.0369    0.0000 H   0  0  0  0  0  0  0  0  0  0  0  0
    8.9282    4.8100    0.0000 H   0  0  0  0  0  0  0  0  0  0  0  0
    9.1551    3.9631    0.0000 H   0  0  0  0  0  0  0  0  0  0  0  0
   12.7172    9.0826    0.0000 H   0  0  0  0  0  0  0  0  0  0  0  0
   12.3187    8.3923    0.0000 H   0  0  0  0  0  0  0  0  0  0  0  0
    4.5790   -3.9631    0.0000 H   0  0  0  0  0  0  0  0  0  0  0  0
    3.7320   -4.1900    0.0000 H   0  0  0  0  0  0  0  0  0  0  0  0
    3.9590   -5.0369    0.0000 H   0  0  0  0  0  0  0  0  0  0  0  0
   11.5072    8.0369    0.0000 H   0  0  0  0  0  0  0  0  0  0  0  0
   10.6603    7.8100    0.0000 H   0  0  0  0  0  0  0  0  0  0  0  0
   10.8872    6.9631    0.0000 H   0  0  0  0  0  0  0  0  0  0  0  0
   14.3322    8.6900    0.0000 H   0  0  0  0  0  0  0  0  0  0  0  0
    6.3110   -8.0369    0.0000 H   0  0  0  0  0  0  0  0  0  0  0  0
    6.5380   -7.1900    0.0000 H   0  0  0  0  0  0  0  0  0  0  0  0
    5.6910   -6.9631    0.0000 H   0  0  0  0  0  0  0  0  0  0  0  0
    2.0000   -7.8100    0.0000 H   0  0  0  0  0  0  0  0  0  0  0  0
   14.9713    9.9631    0.0000 H   0  0  0  0  0  0  0  0  0  0  0  0
   15.1982   10.8100    0.0000 H   0  0  0  0  0  0  0  0  0  0  0  0
   14.3513   11.0369    0.0000 H   0  0  0  0  0  0  0  0  0  0  0  0
   13.2392   11.0369    0.0000 H   0  0  0  0  0  0  0  0  0  0  0  0
   12.3923   10.8100    0.0000 H   0  0  0  0  0  0  0  0  0  0  0  0
   12.6192    9.9631    0.0000 H   0  0  0  0  0  0  0  0  0  0  0  0
    1.9169  -10.5000    0.0000 H   0  0  0  0  0  0  0  0  0  0  0  0
    2.5369  -11.1200    0.0000 H   0  0  0  0  0  0  0  0  0  0  0  0
    3.1569  -10.5000    0.0000 H   0  0  0  0  0  0  0  0  0  0  0  0
  1 32  1  0  0  0  0
  1 89  1  0  0  0  0
  2 35  1  0  0  0  0
  2 42  1  0  0  0  0
  3 34  2  0  0  0  0
  4 38  2  0  0  0  0
  5  8  1  0  0  0  0
  5  9  1  0  0  0  0
  5 43  1  0  0  0  0
  5 44  1  0  0  0  0
  6  7  1  0  0  0  0
  6 10  1  0  0  0  0
  6 45  1  0  0  0  0
  6 46  1  0  0  0  0
  7 15  1  0  0  0  0
  7 47  1  0  0  0  0
  7 48  1  0  0  0  0
  8 17  1  0  0  0  0
  8 49  1  0  0  0  0
  8 50  1  0  0  0  0
  9 15  2  0  0  0  0
  9 26  1  0  0  0  0
 10 18  2  0  0  0  0
 10 27  1  0  0  0  0
 11 14  1  0  0  0  0
 11 16  1  0  0  0  0
 11 51  1  0  0  0  0
 11 52  1  0  0  0  0
 12 13  1  0  0  0  0
 12 18  1  0  0  0  0
 12 53  1  0  0  0  0
 12 54  1  0  0  0  0
 13 19  1  0  0  0  0
 13 55  1  0  0  0  0
 13 56  1  0  0  0  0
 14 17  2  0  0  0  0
 14 28  1  0  0  0  0
 15 57  1  0  0  0  0
 16 22  1  0  0  0  0
 16 58  1  0  0  0  0
 16 59  1  0  0  0  0
 17 60  1  0  0  0  0
 18 61  1  0  0  0  0
 19 23  2  0  0  0  0
 19 30  1  0  0  0  0
 20 23  1  0  0  0  0
 20 25  1  0  0  0  0
 20 62  1  0  0  0  0
 20 63  1  0  0  0  0
 21 22  2  0  0  0  0
 21 24  1  0  0  0  0
 21 33  1  0  0  0  0
 22 64  1  0  0  0  0
 23 65  1  0  0  0  0
 24 29  1  0  0  0  0
 24 66  1  0  0  0  0
 24 67  1  0  0  0  0
 25 31  2  0  0  0  0
 25 32  1  0  0  0  0
 26 68  1  0  0  0  0
 26 69  1  0  0  0  0
 26 70  1  0  0  0  0
 27 71  1  0  0  0  0
 27 72  1  0  0  0  0
 27 73  1  0  0  0  0
 28 74  1  0  0  0  0
 28 75  1  0  0  0  0
 28 76  1  0  0  0  0
 29 36  1  0  0  0  0
 29 77  1  0  0  0  0
 29 78  1  0  0  0  0
 30 79  1  0  0  0  0
 30 80  1  0  0  0  0
 30 81  1  0  0  0  0
 31 34  1  0  0  0  0
 31 37  1  0  0  0  0
 32 35  2  0  0  0  0
 33 82  1  0  0  0  0
 33 83  1  0  0  0  0
 33 84  1  0  0  0  0
 34 38  1  0  0  0  0
 35 38  1  0  0  0  0
 36 39  2  0  0  0  0
 36 85  1  0  0  0  0
 37 86  1  0  0  0  0
 37 87  1  0  0  0  0
 37 88  1  0  0  0  0
 39 40  1  0  0  0  0
 39 41  1  0  0  0  0
 40 90  1  0  0  0  0
 40 91  1  0  0  0  0
 40 92  1  0  0  0  0
 41 93  1  0  0  0  0
 41 94  1  0  0  0  0
 41 95  1  0  0  0  0
 42 96  1  0  0  0  0
 42 97  1  0  0  0  0
 42 98  1  0  0  0  0
M  END
> <PUBCHEM_COMPOUND_CID>
5280828

> <PUBCHEM_COMPOUND_CANONICALIZED>
1

> <PUBCHEM_CACTVS_COMPLEXITY>
1190

> <PUBCHEM_CACTVS_HBOND_ACCEPTOR>
4

> <PUBCHEM_CACTVS_HBOND_DONOR>
1

> <PUBCHEM_CACTVS_ROTATABLE_BOND>
18

> <PUBCHEM_CACTVS_SUBSKEYS>
AAADcfB8OAAAAAAAAAAAAAAAAAAAAAAAAAAgAAAAAAAAAAAAAAAAGgAACAAADASAgAICAAAABgCIAqBSAAIACAAgIAAACAFAAEgIBBYAAQQAUAAEoAAIkQKAAAAAAAAAAAAAAAAAAAAAAAAAAAAAAAAAAA==

> <PUBCHEM_IUPAC_OPENEYE_NAME>
5-[(2E,6E,10E,14E,18E)-3,7,11,15,19,23-hexamethyltetracosa-2,6,10,14,18,22-hexaenyl]-4-hydroxy-3-methoxy-6-methyl-1,2-benzoquinone

> <PUBCHEM_IUPAC_CAS_NAME>
5-[(2E,6E,10E,14E,18E)-3,7,11,15,19,23-hexamethyltetracosa-2,6,10,14,18,22-hexaenyl]-4-hydroxy-3-methoxy-6-methylcyclohexa-3,5-diene-1,2-dione

> <PUBCHEM_IUPAC_NAME>
5-[(2E,6E,10E,14E,18E)-3,7,11,15,19,23-hexamethyltetracosa-2,6,10,14,18,22-hexaenyl]-4-hydroxy-3-methoxy-6-methylcyclohexa-3,5-diene-1,2-dione

> <PUBCHEM_IUPAC_SYSTEMATIC_NAME>
5-[(2E,6E,10E,14E,18E)-3,7,11,15,19,23-hexamethyltetracosa-2,6,10,14,18,22-hexaenyl]-3-methoxy-6-methyl-4-oxidanyl-cyclohexa-3,5-diene-1,2-dione

> <PUBCHEM_IUPAC_TRADITIONAL_NAME>
5-[(2E,6E,10E,14E,18E)-3,7,11,15,19,23-hexamethyltetracosa-2,6,10,14,18,22-hexaenyl]-4-hydroxy-3-methoxy-6-methyl-o-benzoquinone

> <PUBCHEM_IUPAC_INCHI>
InChI=1S/C38H56O4/c1-27(2)15-10-16-28(3)17-11-18-29(4)19-12-20-30(5)21-13-22-31(6)23-14-24-32(7)25-26-34-33(8)35(39)37(41)38(42-9)36(34)40/h15,17,19,21,23,25,40H,10-14,16,18,20,22,24,26H2,1-9H3/b28-17+,29-19+,30-21+,31-23+,32-25+

> <PUBCHEM_IUPAC_INCHIKEY>
IALHZQNPELKEGE-HGJBZHBGSA-N

> <PUBCHEM_XLOGP3_AA>
11

> <PUBCHEM_EXACT_MASS>
576.41786

> <PUBCHEM_MOLECULAR_FORMULA>
C38H56O4

> <PUBCHEM_MOLECULAR_WEIGHT>
576.84884

> <PUBCHEM_OPENEYE_CAN_SMILES>
CC1=C(C(=C(C(=O)C1=O)OC)O)CC=C(C)CCC=C(C)CCC=C(C)CCC=C(C)CCC=C(C)CCC=C(C)C

> <PUBCHEM_OPENEYE_ISO_SMILES>
CC1=C(C(=C(C(=O)C1=O)OC)O)C/C=C(\C)/CC/C=C(\C)/CC/C=C(\C)/CC/C=C(\C)/CC/C=C(\C)/CCC=C(C)C

> <PUBCHEM_CACTVS_TPSA>
63.6

> <PUBCHEM_MONOISOTOPIC_WEIGHT>
576.41786

> <PUBCHEM_TOTAL_CHARGE>
0

> <PUBCHEM_HEAVY_ATOM_COUNT>
42

> <PUBCHEM_ATOM_DEF_STEREO_COUNT>
0

> <PUBCHEM_ATOM_UDEF_STEREO_COUNT>
0

> <PUBCHEM_BOND_DEF_STEREO_COUNT>
5

> <PUBCHEM_BOND_UDEF_STEREO_COUNT>
0

> <PUBCHEM_ISOTOPIC_ATOM_COUNT>
0

> <PUBCHEM_COMPONENT_COUNT>
1

> <PUBCHEM_CACTVS_TAUTO_COUNT>
128

> <PUBCHEM_COORDINATE_TYPE>
1
5
255

$$$$

