10010
  -OEChem-07051212463D

 32 31  0     1  0  0  0  0  0999 V2000
   -0.2694   -0.9869   -0.0840 S   0  0  0  0  0  0  0  0  0  0  0  0
    0.2668    0.9969   -0.0768 S   0  0  0  0  0  0  0  0  0  0  0  0
   -4.2062    1.7701    0.8165 O   0  0  0  0  0  0  0  0  0  0  0  0
    4.2000   -1.7758    0.8100 O   0  0  0  0  0  0  0  0  0  0  0  0
   -5.8340    0.2131    0.5625 O   0  0  0  0  0  0  0  0  0  0  0  0
    5.8329   -0.2231    0.5630 O   0  0  0  0  0  0  0  0  0  0  0  0
   -4.1101   -1.7865    0.1661 N   0  0  0  0  0  0  0  0  0  0  0  0
    4.1156    1.7836    0.1733 N   0  0  0  0  0  0  0  0  0  0  0  0
   -2.7593   -0.1060   -0.9918 C   0  0  0  0  0  0  0  0  0  0  0  0
    2.7603    0.1117   -0.9919 C   0  0  0  0  0  0  0  0  0  0  0  0
   -3.5053   -0.4578    0.3033 C   0  0  1  0  0  0  0  0  0  0  0  0
    3.5066    0.4561    0.3051 C   0  0  1  0  0  0  0  0  0  0  0  0
   -1.5737   -1.0119   -1.3374 C   0  0  0  0  0  0  0  0  0  0  0  0
    1.5777    1.0226   -1.3348 C   0  0  0  0  0  0  0  0  0  0  0  0
   -4.6460    0.5111    0.5590 C   0  0  0  0  0  0  0  0  0  0  0  0
    4.6440   -0.5173    0.5577 C   0  0  0  0  0  0  0  0  0  0  0  0
   -2.4460    0.9443   -0.9676 H   0  0  0  0  0  0  0  0  0  0  0  0
   -3.4670   -0.1523   -1.8326 H   0  0  0  0  0  0  0  0  0  0  0  0
    3.4698    0.1616   -1.8310 H   0  0  0  0  0  0  0  0  0  0  0  0
    2.4446   -0.9378   -0.9732 H   0  0  0  0  0  0  0  0  0  0  0  0
   -2.8532   -0.4486    1.1817 H   0  0  0  0  0  0  0  0  0  0  0  0
    2.8550    0.4419    1.1842 H   0  0  0  0  0  0  0  0  0  0  0  0
   -1.1453   -0.7134   -2.3005 H   0  0  0  0  0  0  0  0  0  0  0  0
   -1.9079   -2.0478   -1.4556 H   0  0  0  0  0  0  0  0  0  0  0  0
    1.1451    0.7207   -2.2952 H   0  0  0  0  0  0  0  0  0  0  0  0
    1.9064    2.0586   -1.4616 H   0  0  0  0  0  0  0  0  0  0  0  0
   -4.7636   -1.7972   -0.6160 H   0  0  0  0  0  0  0  0  0  0  0  0
   -4.6496   -2.0103    1.0013 H   0  0  0  0  0  0  0  0  0  0  0  0
    4.6180    2.0132    1.0307 H   0  0  0  0  0  0  0  0  0  0  0  0
    3.3870    2.4904    0.0855 H   0  0  0  0  0  0  0  0  0  0  0  0
   -4.9479    2.3878    0.9916 H   0  0  0  0  0  0  0  0  0  0  0  0
    4.9396   -2.3966    0.9832 H   0  0  0  0  0  0  0  0  0  0  0  0
  1  2  1  0  0  0  0
  1 13  1  0  0  0  0
  2 14  1  0  0  0  0
  3 15  1  0  0  0  0
  3 31  1  0  0  0  0
  4 16  1  0  0  0  0
  4 32  1  0  0  0  0
  5 15  2  0  0  0  0
  6 16  2  0  0  0  0
  7 11  1  0  0  0  0
  7 27  1  0  0  0  0
  7 28  1  0  0  0  0
  8 12  1  0  0  0  0
  8 29  1  0  0  0  0
  8 30  1  0  0  0  0
  9 11  1  0  0  0  0
  9 13  1  0  0  0  0
  9 17  1  0  0  0  0
  9 18  1  0  0  0  0
 10 12  1  0  0  0  0
 10 14  1  0  0  0  0
 10 19  1  0  0  0  0
 10 20  1  0  0  0  0
 11 15  1  0  0  0  0
 11 21  1  0  0  0  0
 12 16  1  0  0  0  0
 12 22  1  0  0  0  0
 13 23  1  0  0  0  0
 13 24  1  0  0  0  0
 14 25  1  0  0  0  0
 14 26  1  0  0  0  0
M  END
> <PUBCHEM_COMPOUND_CID>
10010

> <PUBCHEM_CONFORMER_RMSD>
1

> <PUBCHEM_CONFORMER_DIVERSEORDER>
10
157
5
283
327
262
345
401
1
74
82
121
359
142
240
265
250
396
53
103
79
473
15
22
233
278
373
437
370
11
150
415
163
148
59
321
264
54
135
18
38
134
42
350
3
453
28
320
171
245
107
376
507
154
130
75
530
52
16
266
521
276
375
76
44
405
140
232
443
139
89
4
341
545
64
41
510
308
72
364
391
49
99
515
48
39
35
196
161
181
399
20
19
571
114
410
24
273
461
299
255
523
368
9
153
12
183
568
69
302
289
216
211
162
595
575
43
17
554
384
2
305
402
393
438
71
342
68
322
221
343
177
13
407
37
155
501
8
197
101
539
25
33
77
485
146
360
36
6

> <PUBCHEM_MMFF94_PARTIAL_CHARGES>
20
1 -0.23
11 0.33
12 0.33
13 0.23
14 0.23
15 0.66
16 0.66
2 -0.23
27 0.36
28 0.36
29 0.36
3 -0.65
30 0.36
31 0.5
32 0.5
4 -0.65
5 -0.57
6 -0.57
7 -0.99
8 -0.99

> <PUBCHEM_EFFECTIVE_ROTOR_COUNT>
9

> <PUBCHEM_PHARMACOPHORE_FEATURES>
12
1 3 acceptor
1 4 acceptor
1 5 acceptor
1 6 acceptor
1 7 cation
1 7 donor
1 8 cation
1 8 donor
3 1 9 13 hydrophobe
3 2 10 14 hydrophobe
3 3 5 15 anion
3 4 6 16 anion

> <PUBCHEM_HEAVY_ATOM_COUNT>
16

> <PUBCHEM_ATOM_DEF_STEREO_COUNT>
0

> <PUBCHEM_ATOM_UDEF_STEREO_COUNT>
2

> <PUBCHEM_BOND_DEF_STEREO_COUNT>
0

> <PUBCHEM_BOND_UDEF_STEREO_COUNT>
0

> <PUBCHEM_ISOTOPIC_ATOM_COUNT>
0

> <PUBCHEM_COMPONENT_COUNT>
1

> <PUBCHEM_CACTVS_TAUTO_COUNT>
1

> <PUBCHEM_CONFORMER_ID>
0000271A0000000A

> <PUBCHEM_MMFF94_ENERGY>
6.6245

> <PUBCHEM_FEATURE_SELFOVERLAP>
61.011

> <PUBCHEM_SHAPE_FINGERPRINT>
11128504 68 10447921776435965382
117890 112 16588022424486823192
12596602 18 18338516343868896464
13675066 3 18410855451538227431
14251718 22 10375866372815300310
14251732 14 12535332524098885345
14251758 9 18338516451243065831
14251764 18 18410575054598307879
14251764 30 15769774667125629954
14252887 29 17489596649564271116
14455015 7 16415760842467310330
15375358 24 15791727494731834605
17834076 25 14923942349140751862
19784866 9 18408602599695197835
20645477 56 16877662344754879351
20871999 31 10015865375392632013
212916 134 17095531707269477631
21315764 268 18335145280290442489
23402539 116 17312829268451163821
23402655 69 8935009182922187246
23559900 14 16298655136627994500
23590187 156 17095527288565385255
2916195 48 16370727045739074643
328317 168 5545196129526371116
42 15 18343866606325925382
5104073 3 18338516339579191091
573450 72 18187089420859494527

> <PUBCHEM_SHAPE_MULTIPOLES>
303.53
13.32
1.59
1.12
0.01
0
-0.32
0.03
4.95
-0.01
0.19
0
0
-1.01

> <PUBCHEM_SHAPE_SELFOVERLAP>
553.36

> <PUBCHEM_SHAPE_VOLUME>
194

> <PUBCHEM_COORDINATE_TYPE>
2
5
10

$$$$

