160139
  -OEChem-07051212513D

 43 44  0     1  0  0  0  0  0999 V2000
   -0.5201   -1.7138   -0.0345 S   0  0  0  0  0  0  0  0  0  0  0  0
   -2.3707    2.5497   -0.1396 O   0  0  0  0  0  0  0  0  0  0  0  0
    1.4318    3.1348   -0.7779 O   0  0  0  0  0  0  0  0  0  0  0  0
   -5.4101    0.3749   -0.6034 O   0  0  0  0  0  0  0  0  0  0  0  0
   -4.7434    0.7140    1.5577 O   0  0  0  0  0  0  0  0  0  0  0  0
    3.4397   -1.8445   -1.2810 O   0  0  0  0  0  0  0  0  0  0  0  0
    4.4663   -2.6185    0.5864 O   0  0  0  0  0  0  0  0  0  0  0  0
   -2.3136    0.2077   -0.4088 N   0  0  0  0  0  0  0  0  0  0  0  0
    0.5681    1.1531    0.0627 N   0  0  0  0  0  0  0  0  0  0  0  0
    6.0801   -0.4450    0.7794 N   0  0  0  0  0  0  0  0  0  0  0  0
   -1.1699   -0.3873   -1.0758 C   0  0  1  0  0  0  0  0  0  0  0  0
   -0.4986    0.9913   -0.9408 C   0  0  1  0  0  0  0  0  0  0  0  0
   -1.8826    1.4873   -0.4466 C   0  0  0  0  0  0  0  0  0  0  0  0
   -3.3819   -0.5029    0.0359 C   0  0  0  0  0  0  0  0  0  0  0  0
   -2.0717   -2.6726   -0.0954 C   0  0  0  0  0  0  0  0  0  0  0  0
   -3.3344   -1.8512    0.1549 C   0  0  0  0  0  0  0  0  0  0  0  0
    1.4485    2.2278    0.0502 C   0  0  0  0  0  0  0  0  0  0  0  0
    2.4652    2.1385    1.1760 C   0  0  0  0  0  0  0  0  0  0  0  0
   -4.5020   -2.7173    0.5627 C   0  0  0  0  0  0  0  0  0  0  0  0
    3.3336    0.8808    1.1198 C   0  0  0  0  0  0  0  0  0  0  0  0
   -4.5693    0.2627    0.4437 C   0  0  0  0  0  0  0  0  0  0  0  0
    4.1353    0.7895   -0.1881 C   0  0  0  0  0  0  0  0  0  0  0  0
    5.0771   -0.4210   -0.2849 C   0  0  2  0  0  0  0  0  0  0  0  0
    4.3226   -1.7384   -0.2527 C   0  0  0  0  0  0  0  0  0  0  0  0
   -1.3841   -0.6763   -2.1117 H   0  0  0  0  0  0  0  0  0  0  0  0
   -0.2158    1.4178   -1.9108 H   0  0  0  0  0  0  0  0  0  0  0  0
    0.6456    0.4728    0.8144 H   0  0  0  0  0  0  0  0  0  0  0  0
   -2.1468   -3.1677   -1.0697 H   0  0  0  0  0  0  0  0  0  0  0  0
   -1.9796   -3.4515    0.6691 H   0  0  0  0  0  0  0  0  0  0  0  0
    3.0973    3.0334    1.1351 H   0  0  0  0  0  0  0  0  0  0  0  0
    1.9225    2.1708    2.1281 H   0  0  0  0  0  0  0  0  0  0  0  0
    2.7184   -0.0171    1.2415 H   0  0  0  0  0  0  0  0  0  0  0  0
    4.0159    0.9125    1.9767 H   0  0  0  0  0  0  0  0  0  0  0  0
   -5.4282   -2.1533    0.7023 H   0  0  0  0  0  0  0  0  0  0  0  0
   -4.2823   -3.2285    1.5058 H   0  0  0  0  0  0  0  0  0  0  0  0
   -4.6946   -3.4731   -0.2060 H   0  0  0  0  0  0  0  0  0  0  0  0
    3.4429    0.7647   -1.0383 H   0  0  0  0  0  0  0  0  0  0  0  0
    4.7290    1.7060   -0.3032 H   0  0  0  0  0  0  0  0  0  0  0  0
    5.6141   -0.3849   -1.2400 H   0  0  0  0  0  0  0  0  0  0  0  0
   -6.2194    0.8798   -0.3745 H   0  0  0  0  0  0  0  0  0  0  0  0
    6.5722    0.4474    0.8038 H   0  0  0  0  0  0  0  0  0  0  0  0
    5.6292   -0.5429    1.6878 H   0  0  0  0  0  0  0  0  0  0  0  0
    2.9502   -2.6941   -1.2559 H   0  0  0  0  0  0  0  0  0  0  0  0
  1 11  1  0  0  0  0
  1 15  1  0  0  0  0
  2 13  2  0  0  0  0
  3 17  2  0  0  0  0
  4 21  1  0  0  0  0
  4 40  1  0  0  0  0
  5 21  2  0  0  0  0
  6 24  1  0  0  0  0
  6 43  1  0  0  0  0
  7 24  2  0  0  0  0
  8 11  1  0  0  0  0
  8 13  1  0  0  0  0
  8 14  1  0  0  0  0
  9 12  1  0  0  0  0
  9 17  1  0  0  0  0
  9 27  1  0  0  0  0
 10 23  1  0  0  0  0
 10 41  1  0  0  0  0
 10 42  1  0  0  0  0
 11 12  1  0  0  0  0
 11 25  1  0  0  0  0
 12 13  1  0  0  0  0
 12 26  1  0  0  0  0
 14 16  2  0  0  0  0
 14 21  1  0  0  0  0
 15 16  1  0  0  0  0
 15 28  1  0  0  0  0
 15 29  1  0  0  0  0
 16 19  1  0  0  0  0
 17 18  1  0  0  0  0
 18 20  1  0  0  0  0
 18 30  1  0  0  0  0
 18 31  1  0  0  0  0
 19 34  1  0  0  0  0
 19 35  1  0  0  0  0
 19 36  1  0  0  0  0
 20 22  1  0  0  0  0
 20 32  1  0  0  0  0
 20 33  1  0  0  0  0
 22 23  1  0  0  0  0
 22 37  1  0  0  0  0
 22 38  1  0  0  0  0
 23 24  1  0  0  0  0
 23 39  1  0  0  0  0
M  END
> <PUBCHEM_COMPOUND_CID>
160139

> <PUBCHEM_CONFORMER_RMSD>
1

> <PUBCHEM_CONFORMER_DIVERSEORDER>
3
30
23
10
45
56
15
33
31
11
16
12
25
42
14
5
6
28
70
41
13
63
20
57
51
39
34
8
43
55
44
19
53
4
37
68
22
60
7
69
2
26
27
61
54
21
17
62
35
66
52
32
9
18
46
1
29
47
59
58
67
24
38
65
64
36
40
50
49
48

> <PUBCHEM_MMFF94_PARTIAL_CHARGES>
27
1 -0.45
10 -0.99
11 0.44
12 0.28
13 0.58
14 0.12
15 0.37
16 -0.28
17 0.57
18 0.06
19 0.14
2 -0.57
21 0.71
23 0.33
24 0.66
27 0.37
3 -0.57
4 -0.65
40 0.5
41 0.36
42 0.36
43 0.5
5 -0.57
6 -0.65
7 -0.57
8 -0.39
9 -0.65

> <PUBCHEM_EFFECTIVE_ROTOR_COUNT>
8.6

> <PUBCHEM_PHARMACOPHORE_FEATURES>
13
1 10 cation
1 10 donor
1 2 acceptor
1 3 acceptor
1 4 acceptor
1 5 acceptor
1 6 acceptor
1 7 acceptor
1 9 donor
3 4 5 21 anion
3 6 7 24 anion
4 8 11 12 13 rings
6 1 8 11 14 15 16 rings

> <PUBCHEM_HEAVY_ATOM_COUNT>
24

> <PUBCHEM_ATOM_DEF_STEREO_COUNT>
3

> <PUBCHEM_ATOM_UDEF_STEREO_COUNT>
0

> <PUBCHEM_BOND_DEF_STEREO_COUNT>
0

> <PUBCHEM_BOND_UDEF_STEREO_COUNT>
0

> <PUBCHEM_ISOTOPIC_ATOM_COUNT>
0

> <PUBCHEM_COMPONENT_COUNT>
1

> <PUBCHEM_CACTVS_TAUTO_COUNT>
2

> <PUBCHEM_CONFORMER_ID>
0002718B00000003

> <PUBCHEM_MMFF94_ENERGY>
52.7924

> <PUBCHEM_FEATURE_SELFOVERLAP>
66.341

> <PUBCHEM_SHAPE_FINGERPRINT>
12107183 9 18337100259277431409
12596602 18 15285654153098595134
12633257 1 18334851718858158881
12892183 10 17970629584696211881
13140716 1 18338504275849876107
13402501 40 18408885144498833054
13533116 47 18117560613650686803
13583140 156 17242740779547979385
14251751 18 18341896281837220706
14341114 176 18408880733081896080
14420673 8 18337668723863378114
14617045 38 18410005546915777350
14790565 3 17473262557608721744
14866123 147 17902506326619336872
15256400 18 18408601457302345289
15537594 2 17846502542913082690
17492 89 18053380994566578851
17804303 29 18410291372071847165
17857418 61 18408608062798373390
1813 80 17489309633436229373
19591789 44 18267868456976734582
20403669 9 18408886269600565854
21279426 13 18194404613574250669
21403212 168 18262516009362754777
2215653 11 18408329890714856189
22950370 63 18342736304294115852
23559900 14 18337957774988410028
3004659 81 18202282507630008068
3117164 225 18335128813459280281
314173 41 18410290311911263756
335352 9 18412265034678731277
3421961 26 18336831901347139648
3633792 109 18336275626194636165
3680242 22 18340202020218392162
5104073 3 18263079933429740321
7097593 13 18263366880252957100
9709674 26 18198062465094527074

> <PUBCHEM_SHAPE_MULTIPOLES>
447.6
12.18
3.32
1.05
5.06
0.22
-0.1
4.86
-2.43
0.4
-0.03
0.1
-0.16
0.57

> <PUBCHEM_SHAPE_SELFOVERLAP>
911.586

> <PUBCHEM_SHAPE_VOLUME>
260.4

> <PUBCHEM_COORDINATE_TYPE>
2
5
10

$$$$

