443024
  -OEChem-07051213002D

 77 81  0     1  0  0  0  0  0999 V2000
    7.3358   -1.1852    0.0000 O   0  0  0  0  0  0  0  0  0  0  0  0
   10.4045   -1.1852    0.0000 O   0  0  0  0  0  0  0  0  0  0  0  0
    6.6876    3.4281    0.0000 O   0  0  0  0  0  0  0  0  0  0  0  0
    5.0403    2.8928    0.0000 O   0  0  0  0  0  0  0  0  0  0  0  0
    5.3493    1.9418    0.0000 O   0  0  0  0  0  0  0  0  0  0  0  0
    8.6439    3.0122    0.0000 O   0  0  0  0  0  0  0  0  0  0  0  0
   12.3992   -4.3034    0.0000 O   0  0  0  0  0  0  0  0  0  0  0  0
    9.1066   -5.3796    0.0000 O   0  0  0  0  0  0  0  0  0  0  0  0
    6.0695    5.3302    0.0000 O   0  0  0  0  0  0  0  0  0  0  0  0
    4.1132    5.7460    0.0000 O   0  0  0  0  0  0  0  0  0  0  0  0
    2.7750    4.2597    0.0000 O   0  0  0  0  0  0  0  0  0  0  0  0
   11.0636   -5.7920    0.0000 O   0  0  0  0  0  0  0  0  0  0  0  0
    2.4149    2.5655    0.0000 O   0  0  0  0  0  0  0  0  0  0  0  0
    8.8747   -0.6852    0.0000 C   0  0  1  0  0  0  0  0  0  0  0  0
    8.8747   -1.6852    0.0000 C   0  0  1  0  0  0  0  0  0  0  0  0
    7.9236   -0.3762    0.0000 C   0  0  1  0  0  0  0  0  0  0  0  0
    9.8209   -1.9899    0.0000 C   0  0  1  0  0  0  0  0  0  0  0  0
    7.9236   -1.9942    0.0000 C   0  0  0  0  0  0  0  0  0  0  0  0
    9.8209   -0.3804    0.0000 C   0  0  0  0  0  0  0  0  0  0  0  0
    7.6146    0.5749    0.0000 C   0  0  0  0  0  0  0  0  0  0  0  0
   10.1316   -2.9404    0.0000 C   0  0  0  0  0  0  0  0  0  0  0  0
    8.2838    1.3180    0.0000 C   0  0  0  0  0  0  0  0  0  0  0  0
    6.6365    0.7828    0.0000 C   0  0  0  0  0  0  0  0  0  0  0  0
    9.4637   -3.6847    0.0000 C   0  0  0  0  0  0  0  0  0  0  0  0
   11.1101   -3.1466    0.0000 C   0  0  0  0  0  0  0  0  0  0  0  0
    6.3274    1.7339    0.0000 C   0  0  0  0  0  0  0  0  0  0  0  0
    7.9747    2.2691    0.0000 C   0  0  0  0  0  0  0  0  0  0  0  0
    6.9966    2.4770    0.0000 C   0  0  0  0  0  0  0  0  0  0  0  0
   11.4207   -4.0972    0.0000 C   0  0  0  0  0  0  0  0  0  0  0  0
    9.7744   -4.6352    0.0000 C   0  0  0  0  0  0  0  0  0  0  0  0
    5.7094    3.6360    0.0000 C   0  0  2  0  0  0  0  0  0  0  0  0
    5.4004    4.5870    0.0000 C   0  0  1  0  0  0  0  0  0  0  0  0
    4.4222    4.7950    0.0000 C   0  0  2  0  0  0  0  0  0  0  0  0
    3.7531    4.0518    0.0000 C   0  0  1  0  0  0  0  0  0  0  0  0
    4.0621    3.1008    0.0000 C   0  0  1  0  0  0  0  0  0  0  0  0
   10.7529   -4.8415    0.0000 C   0  0  0  0  0  0  0  0  0  0  0  0
    3.3930    2.3576    0.0000 C   0  0  0  0  0  0  0  0  0  0  0  0
    4.6802    1.1986    0.0000 C   0  0  0  0  0  0  0  0  0  0  0  0
    9.6220    2.8043    0.0000 C   0  0  0  0  0  0  0  0  0  0  0  0
   13.0671   -3.5591    0.0000 C   0  0  0  0  0  0  0  0  0  0  0  0
    8.1280   -5.1733    0.0000 C   0  0  0  0  0  0  0  0  0  0  0  0
    8.8758    0.1648    0.0000 H   0  0  0  0  0  0  0  0  0  0  0  0
    8.8758   -2.5352    0.0000 H   0  0  0  0  0  0  0  0  0  0  0  0
    7.3113   -0.2792    0.0000 H   0  0  0  0  0  0  0  0  0  0  0  0
   10.4334   -2.0861    0.0000 H   0  0  0  0  0  0  0  0  0  0  0  0
    7.3867   -2.3042    0.0000 H   0  0  0  0  0  0  0  0  0  0  0  0
    8.1758   -2.5606    0.0000 H   0  0  0  0  0  0  0  0  0  0  0  0
   10.3583   -0.0712    0.0000 H   0  0  0  0  0  0  0  0  0  0  0  0
    9.5699    0.1865    0.0000 H   0  0  0  0  0  0  0  0  0  0  0  0
    8.8902    1.1891    0.0000 H   0  0  0  0  0  0  0  0  0  0  0  0
    6.2216    0.3221    0.0000 H   0  0  0  0  0  0  0  0  0  0  0  0
    8.8570   -3.5569    0.0000 H   0  0  0  0  0  0  0  0  0  0  0  0
   11.5241   -2.6852    0.0000 H   0  0  0  0  0  0  0  0  0  0  0  0
    6.1243    4.0967    0.0000 H   0  0  0  0  0  0  0  0  0  0  0  0
    5.2088    5.1767    0.0000 H   0  0  0  0  0  0  0  0  0  0  0  0
    3.8158    4.9239    0.0000 H   0  0  0  0  0  0  0  0  0  0  0  0
    3.5615    4.6415    0.0000 H   0  0  0  0  0  0  0  0  0  0  0  0
    4.2537    2.5111    0.0000 H   0  0  0  0  0  0  0  0  0  0  0  0
    3.1608    1.7828    0.0000 H   0  0  0  0  0  0  0  0  0  0  0  0
    3.9188    2.0291    0.0000 H   0  0  0  0  0  0  0  0  0  0  0  0
    5.8779    5.9198    0.0000 H   0  0  0  0  0  0  0  0  0  0  0  0
    3.5068    5.8749    0.0000 H   0  0  0  0  0  0  0  0  0  0  0  0
    2.5834    4.8494    0.0000 H   0  0  0  0  0  0  0  0  0  0  0  0
   11.6702   -5.9198    0.0000 H   0  0  0  0  0  0  0  0  0  0  0  0
    4.2194    1.6135    0.0000 H   0  0  0  0  0  0  0  0  0  0  0  0
    4.2653    0.7379    0.0000 H   0  0  0  0  0  0  0  0  0  0  0  0
    5.1409    0.7838    0.0000 H   0  0  0  0  0  0  0  0  0  0  0  0
    9.4931    2.1979    0.0000 H   0  0  0  0  0  0  0  0  0  0  0  0
   10.2285    2.6754    0.0000 H   0  0  0  0  0  0  0  0  0  0  0  0
    9.7509    3.4108    0.0000 H   0  0  0  0  0  0  0  0  0  0  0  0
   13.5286   -3.9731    0.0000 H   0  0  0  0  0  0  0  0  0  0  0  0
   13.4812   -3.0976    0.0000 H   0  0  0  0  0  0  0  0  0  0  0  0
   12.6056   -3.1450    0.0000 H   0  0  0  0  0  0  0  0  0  0  0  0
    8.2559   -4.5666    0.0000 H   0  0  0  0  0  0  0  0  0  0  0  0
    7.5214   -5.0455    0.0000 H   0  0  0  0  0  0  0  0  0  0  0  0
    8.0002   -5.7800    0.0000 H   0  0  0  0  0  0  0  0  0  0  0  0
    2.0000    2.1048    0.0000 H   0  0  0  0  0  0  0  0  0  0  0  0
  1 16  1  0  0  0  0
  1 18  1  0  0  0  0
  2 17  1  0  0  0  0
  2 19  1  0  0  0  0
  3 28  1  0  0  0  0
 31  3  1  6  0  0  0
  4 31  1  0  0  0  0
  4 35  1  0  0  0  0
  5 26  1  0  0  0  0
  5 38  1  0  0  0  0
  6 27  1  0  0  0  0
  6 39  1  0  0  0  0
  7 29  1  0  0  0  0
  7 40  1  0  0  0  0
  8 30  1  0  0  0  0
  8 41  1  0  0  0  0
 32  9  1  1  0  0  0
  9 61  1  0  0  0  0
 33 10  1  6  0  0  0
 10 62  1  0  0  0  0
 34 11  1  1  0  0  0
 11 63  1  0  0  0  0
 12 36  1  0  0  0  0
 12 64  1  0  0  0  0
 13 37  1  0  0  0  0
 13 77  1  0  0  0  0
 14 15  1  0  0  0  0
 14 16  1  0  0  0  0
 14 19  1  0  0  0  0
 14 42  1  6  0  0  0
 15 17  1  0  0  0  0
 15 18  1  0  0  0  0
 15 43  1  6  0  0  0
 16 20  1  6  0  0  0
 16 44  1  0  0  0  0
 17 21  1  6  0  0  0
 17 45  1  0  0  0  0
 18 46  1  0  0  0  0
 18 47  1  0  0  0  0
 19 48  1  0  0  0  0
 19 49  1  0  0  0  0
 20 22  2  0  0  0  0
 20 23  1  0  0  0  0
 21 24  2  0  0  0  0
 21 25  1  0  0  0  0
 22 27  1  0  0  0  0
 22 50  1  0  0  0  0
 23 26  2  0  0  0  0
 23 51  1  0  0  0  0
 24 30  1  0  0  0  0
 24 52  1  0  0  0  0
 25 29  2  0  0  0  0
 25 53  1  0  0  0  0
 26 28  1  0  0  0  0
 27 28  2  0  0  0  0
 29 36  1  0  0  0  0
 30 36  2  0  0  0  0
 31 32  1  0  0  0  0
 31 54  1  0  0  0  0
 32 33  1  0  0  0  0
 32 55  1  0  0  0  0
 33 34  1  0  0  0  0
 33 56  1  0  0  0  0
 34 35  1  0  0  0  0
 34 57  1  0  0  0  0
 35 37  1  6  0  0  0
 35 58  1  0  0  0  0
 37 59  1  0  0  0  0
 37 60  1  0  0  0  0
 38 65  1  0  0  0  0
 38 66  1  0  0  0  0
 38 67  1  0  0  0  0
 39 68  1  0  0  0  0
 39 69  1  0  0  0  0
 39 70  1  0  0  0  0
 40 71  1  0  0  0  0
 40 72  1  0  0  0  0
 40 73  1  0  0  0  0
 41 74  1  0  0  0  0
 41 75  1  0  0  0  0
 41 76  1  0  0  0  0
M  END
> <PUBCHEM_COMPOUND_CID>
443024

> <PUBCHEM_COMPOUND_CANONICALIZED>
1

> <PUBCHEM_CACTVS_COMPLEXITY>
807

> <PUBCHEM_CACTVS_HBOND_ACCEPTOR>
13

> <PUBCHEM_CACTVS_HBOND_DONOR>
5

> <PUBCHEM_CACTVS_ROTATABLE_BOND>
9

> <PUBCHEM_CACTVS_SUBSKEYS>
AAADcfB4PAAAAAAAAAAAAAAAAAAAASJAAAA0YIAAAAASAAABQAAAGgAACAAADRSwmAMyDoAABgCAAiBCAAACCAAgIAAAiAAGiIgdNyKGMRqieCOlwBUPuAfA4PwOoAABCAAAQABAAAIQAACAAAAAAAAAAA==

> <PUBCHEM_IUPAC_OPENEYE_NAME>
(2S,3R,4S,5S,6R)-2-[4-[(3S,3aR,6S,6aR)-3-(4-hydroxy-3,5-dimethoxy-phenyl)-1,3,3a,4,6,6a-hexahydrofuro[3,4-c]furan-6-yl]-2,6-dimethoxy-phenoxy]-6-(hydroxymethyl)tetrahydropyran-3,4,5-triol

> <PUBCHEM_IUPAC_CAS_NAME>
(2S,3R,4S,5S,6R)-2-[4-[(3S,3aR,6S,6aR)-3-(4-hydroxy-3,5-dimethoxyphenyl)-1,3,3a,4,6,6a-hexahydrofuro[3,4-c]furan-6-yl]-2,6-dimethoxyphenoxy]-6-(hydroxymethyl)oxane-3,4,5-triol

> <PUBCHEM_IUPAC_NAME>
(2S,3R,4S,5S,6R)-2-[4-[(3S,3aR,6S,6aR)-3-(4-hydroxy-3,5-dimethoxyphenyl)-1,3,3a,4,6,6a-hexahydrofuro[3,4-c]furan-6-yl]-2,6-dimethoxyphenoxy]-6-(hydroxymethyl)oxane-3,4,5-triol

> <PUBCHEM_IUPAC_SYSTEMATIC_NAME>
(2S,3R,4S,5S,6R)-2-[4-[(3S,3aR,6S,6aR)-3-(3,5-dimethoxy-4-oxidanyl-phenyl)-1,3,3a,4,6,6a-hexahydrofuro[3,4-c]furan-6-yl]-2,6-dimethoxy-phenoxy]-6-(hydroxymethyl)oxane-3,4,5-triol

> <PUBCHEM_IUPAC_TRADITIONAL_NAME>
(2S,3R,4S,5S,6R)-2-[4-[(3S,3aR,6S,6aR)-3-(4-hydroxy-3,5-dimethoxy-phenyl)-1,3,3a,4,6,6a-hexahydrofuro[3,4-c]furan-6-yl]-2,6-dimethoxy-phenoxy]-6-methylol-tetrahydropyran-3,4,5-triol

> <PUBCHEM_IUPAC_INCHI>
InChI=1S/C28H36O13/c1-34-16-5-12(6-17(35-2)21(16)30)25-14-10-39-26(15(14)11-38-25)13-7-18(36-3)27(19(8-13)37-4)41-28-24(33)23(32)22(31)20(9-29)40-28/h5-8,14-15,20,22-26,28-33H,9-11H2,1-4H3/t14-,15-,20+,22+,23-,24+,25+,26+,28-/m0/s1

> <PUBCHEM_IUPAC_INCHIKEY>
WEKCEGQSIIQPAQ-IRBNZIFYSA-N

> <PUBCHEM_XLOGP3_AA>
0.4

> <PUBCHEM_EXACT_MASS>
580.215591

> <PUBCHEM_MOLECULAR_FORMULA>
C28H36O13

> <PUBCHEM_MOLECULAR_WEIGHT>
580.57764

> <PUBCHEM_OPENEYE_CAN_SMILES>
COC1=CC(=CC(=C1O)OC)C2C3COC(C3CO2)C4=CC(=C(C(=C4)OC)OC5C(C(C(C(O5)CO)O)O)O)OC

> <PUBCHEM_OPENEYE_ISO_SMILES>
COC1=CC(=CC(=C1O)OC)[C@@H]2[C@H]3CO[C@@H]([C@H]3CO2)C4=CC(=C(C(=C4)OC)O[C@H]5[C@@H]([C@H]([C@@H]([C@H](O5)CO)O)O)O)OC

> <PUBCHEM_CACTVS_TPSA>
175

> <PUBCHEM_MONOISOTOPIC_WEIGHT>
580.215591

> <PUBCHEM_TOTAL_CHARGE>
0

> <PUBCHEM_HEAVY_ATOM_COUNT>
41

> <PUBCHEM_ATOM_DEF_STEREO_COUNT>
9

> <PUBCHEM_ATOM_UDEF_STEREO_COUNT>
0

> <PUBCHEM_BOND_DEF_STEREO_COUNT>
0

> <PUBCHEM_BOND_UDEF_STEREO_COUNT>
0

> <PUBCHEM_ISOTOPIC_ATOM_COUNT>
0

> <PUBCHEM_COMPONENT_COUNT>
1

> <PUBCHEM_CACTVS_TAUTO_COUNT>
2

> <PUBCHEM_COORDINATE_TYPE>
1
5
255

> <PUBCHEM_BONDANNOTATIONS>
33  10  6
34  11  5
14  42  6
15  43  6
16  20  6
17  21  6
20  22  8
20  23  8
21  24  8
21  25  8
22  27  8
23  26  8
24  30  8
25  29  8
26  28  8
27  28  8
29  36  8
31  3  6
30  36  8
35  37  6
32  9  5

$$$$

