119405
  -OEChem-07051212493D

 21 22  0     0  0  0  0  0  0999 V2000
   -3.7057    1.4541    0.0005 O   0  0  0  0  0  0  0  0  0  0  0  0
   -3.8074   -1.3108   -0.0009 O   0  0  0  0  0  0  0  0  0  0  0  0
    3.8748    1.2630   -0.0009 O   0  0  0  0  0  0  0  0  0  0  0  0
    4.1987   -0.9774   -0.0003 O   0  0  0  0  0  0  0  0  0  0  0  0
    1.1598    1.0108    0.0000 N   0  0  0  0  0  0  0  0  0  0  0  0
   -0.1622    0.6264    0.0001 C   0  0  0  0  0  0  0  0  0  0  0  0
   -0.1841   -0.7700    0.0002 C   0  0  0  0  0  0  0  0  0  0  0  0
    1.1695   -1.2088    0.0014 C   0  0  0  0  0  0  0  0  0  0  0  0
    1.9720   -0.0913    0.0007 C   0  0  0  0  0  0  0  0  0  0  0  0
   -1.3283    1.4001    0.0000 C   0  0  0  0  0  0  0  0  0  0  0  0
   -1.4297   -1.4287   -0.0004 C   0  0  0  0  0  0  0  0  0  0  0  0
   -2.5521    0.7248    0.0000 C   0  0  0  0  0  0  0  0  0  0  0  0
   -2.6045   -0.6677   -0.0002 C   0  0  0  0  0  0  0  0  0  0  0  0
    3.3992   -0.0245   -0.0002 C   0  0  0  0  0  0  0  0  0  0  0  0
    1.4807    1.9694   -0.0005 H   0  0  0  0  0  0  0  0  0  0  0  0
    1.5134   -2.2348    0.0019 H   0  0  0  0  0  0  0  0  0  0  0  0
   -1.2825    2.4844    0.0001 H   0  0  0  0  0  0  0  0  0  0  0  0
   -1.4696   -2.5145   -0.0005 H   0  0  0  0  0  0  0  0  0  0  0  0
   -4.4580    0.8370    0.0005 H   0  0  0  0  0  0  0  0  0  0  0  0
   -3.6538   -2.2712   -0.0011 H   0  0  0  0  0  0  0  0  0  0  0  0
    4.8555    1.2859   -0.0015 H   0  0  0  0  0  0  0  0  0  0  0  0
  1 12  1  0  0  0  0
  1 19  1  0  0  0  0
  2 13  1  0  0  0  0
  2 20  1  0  0  0  0
  3 14  1  0  0  0  0
  3 21  1  0  0  0  0
  4 14  2  0  0  0  0
  5  6  1  0  0  0  0
  5  9  1  0  0  0  0
  5 15  1  0  0  0  0
  6  7  1  0  0  0  0
  6 10  2  0  0  0  0
  7  8  1  0  0  0  0
  7 11  2  0  0  0  0
  8  9  2  0  0  0  0
  8 16  1  0  0  0  0
  9 14  1  0  0  0  0
 10 12  1  0  0  0  0
 10 17  1  0  0  0  0
 11 13  1  0  0  0  0
 11 18  1  0  0  0  0
 12 13  2  0  0  0  0
M  END
> <PUBCHEM_COMPOUND_CID>
119405

> <PUBCHEM_CONFORMER_RMSD>
0.4

> <PUBCHEM_CONFORMER_DIVERSEORDER>
1
2

> <PUBCHEM_MMFF94_PARTIAL_CHARGES>
20
1 -0.53
10 -0.15
11 -0.15
12 0.08
13 0.08
14 0.81
15 0.27
16 0.15
17 0.15
18 0.15
19 0.45
2 -0.53
20 0.45
21 0.5
3 -0.65
4 -0.57
5 0.03
6 -0.15
8 -0.15
9 -0.24

> <PUBCHEM_EFFECTIVE_ROTOR_COUNT>
1

> <PUBCHEM_PHARMACOPHORE_FEATURES>
9
1 1 donor
1 2 donor
1 3 acceptor
1 4 acceptor
1 5 cation
1 5 donor
3 3 4 14 anion
5 5 6 7 8 9 rings
6 6 7 10 11 12 13 rings

> <PUBCHEM_HEAVY_ATOM_COUNT>
14

> <PUBCHEM_ATOM_DEF_STEREO_COUNT>
0

> <PUBCHEM_ATOM_UDEF_STEREO_COUNT>
0

> <PUBCHEM_BOND_DEF_STEREO_COUNT>
0

> <PUBCHEM_BOND_UDEF_STEREO_COUNT>
0

> <PUBCHEM_ISOTOPIC_ATOM_COUNT>
0

> <PUBCHEM_COMPONENT_COUNT>
1

> <PUBCHEM_CACTVS_TAUTO_COUNT>
32

> <PUBCHEM_CONFORMER_ID>
0001D26D00000001

> <PUBCHEM_MMFF94_ENERGY>
23.6358

> <PUBCHEM_FEATURE_SELFOVERLAP>
45.825

> <PUBCHEM_SHAPE_FINGERPRINT>
10608611 8 18408889533591269736
11132069 177 18410580599654502576
12032990 46 18410288095022473066
12932764 1 17346327028521060764
13380535 76 18337110171697868719
14144814 61 18413109467776674370
14325111 11 18410573985436404672
15196674 1 18410575084694759908
15219456 202 18114174293524692270
15536298 74 18408040698125084284
15775835 57 18342737468019074705
16945 1 18410575037671789155
18186145 218 17988647410742297350
19422 9 18343017787697081398
200 152 18040444261329287743
20510252 161 18333166163390967553
20871998 184 18187925045591593135
21267235 1 18411692184203524762
21501502 16 18339083794985278651
23402539 116 18334304179263239622
23402655 69 18191320458332366765
23463225 33 18341614854020793194
23559900 14 18334298699734230754
2748010 2 18121786023618784821
3312278 4 18409165536863684177
43471831 8 18272093837139512186
474 4 17058642959757567820
5104073 3 18410856564214352184
528886 8 18410017671154597899
53812653 166 18335143119504446688
6333449 129 18408325501384834333
7364860 26 18120937467168121046
8809292 202 18200871760527825243
9709674 26 18409724071596720942

> <PUBCHEM_SHAPE_MULTIPOLES>
259.66
6.8
1.59
0.58
2.9
0.05
0
0.23
0
-0.66
0
-0.01
-0.01
0

> <PUBCHEM_SHAPE_SELFOVERLAP>
575.47

> <PUBCHEM_SHAPE_VOLUME>
140.7

> <PUBCHEM_COORDINATE_TYPE>
2
5
10

$$$$

