11895
  -OEChem-06261206153D

 18 18  0     0  0  0  0  0  0999 V2000
   -0.2726    2.5524   -0.3033 Cl  0  0  0  0  0  0  0  0  0  0  0  0
    2.0671   -0.7122   -0.6248 O   0  0  0  0  0  0  0  0  0  0  0  0
    1.9189    0.7441    1.1516 O   0  0  0  0  0  0  0  0  0  0  0  0
   -0.0583   -0.1300    0.1461 C   0  0  0  0  0  0  0  0  0  0  0  0
   -0.8958    0.9513   -0.1274 C   0  0  0  0  0  0  0  0  0  0  0  0
   -0.5946   -1.4104    0.2828 C   0  0  0  0  0  0  0  0  0  0  0  0
   -2.2696    0.7524   -0.2641 C   0  0  0  0  0  0  0  0  0  0  0  0
   -1.9684   -1.6093    0.1462 C   0  0  0  0  0  0  0  0  0  0  0  0
   -2.8060   -0.5280   -0.1272 C   0  0  0  0  0  0  0  0  0  0  0  0
    1.3830    0.0296    0.2973 C   0  0  0  0  0  0  0  0  0  0  0  0
    3.4962   -0.6398   -0.5772 C   0  0  0  0  0  0  0  0  0  0  0  0
    0.0433   -2.2635    0.5002 H   0  0  0  0  0  0  0  0  0  0  0  0
   -2.9361    1.5844   -0.4770 H   0  0  0  0  0  0  0  0  0  0  0  0
   -2.3864   -2.6060    0.2538 H   0  0  0  0  0  0  0  0  0  0  0  0
   -3.8757   -0.6830   -0.2332 H   0  0  0  0  0  0  0  0  0  0  0  0
    3.8601   -1.0039    0.3882 H   0  0  0  0  0  0  0  0  0  0  0  0
    3.8276    0.3879   -0.7527 H   0  0  0  0  0  0  0  0  0  0  0  0
    3.8961   -1.2791   -1.3686 H   0  0  0  0  0  0  0  0  0  0  0  0
  1  5  1  0  0  0  0
  2 10  1  0  0  0  0
  2 11  1  0  0  0  0
  3 10  2  0  0  0  0
  4  5  1  0  0  0  0
  4  6  2  0  0  0  0
  4 10  1  0  0  0  0
  5  7  2  0  0  0  0
  6  8  1  0  0  0  0
  6 12  1  0  0  0  0
  7  9  1  0  0  0  0
  7 13  1  0  0  0  0
  8  9  2  0  0  0  0
  8 14  1  0  0  0  0
  9 15  1  0  0  0  0
 11 16  1  0  0  0  0
 11 17  1  0  0  0  0
 11 18  1  0  0  0  0
M  END
> <PUBCHEM_COMPOUND_CID>
11895

> <PUBCHEM_CONFORMER_RMSD>
0.4

> <PUBCHEM_CONFORMER_DIVERSEORDER>
2
1
3
4

> <PUBCHEM_MMFF94_PARTIAL_CHARGES>
15
1 -0.18
10 0.63
11 0.28
12 0.15
13 0.15
14 0.15
15 0.15
2 -0.43
3 -0.57
4 0.09
5 0.18
6 -0.15
7 -0.15
8 -0.15
9 -0.15

> <PUBCHEM_EFFECTIVE_ROTOR_COUNT>
2

> <PUBCHEM_PHARMACOPHORE_FEATURES>
2
1 3 acceptor
6 4 5 6 7 8 9 rings

> <PUBCHEM_HEAVY_ATOM_COUNT>
11

> <PUBCHEM_ATOM_DEF_STEREO_COUNT>
0

> <PUBCHEM_ATOM_UDEF_STEREO_COUNT>
0

> <PUBCHEM_BOND_DEF_STEREO_COUNT>
0

> <PUBCHEM_BOND_UDEF_STEREO_COUNT>
0

> <PUBCHEM_ISOTOPIC_ATOM_COUNT>
0

> <PUBCHEM_COMPONENT_COUNT>
1

> <PUBCHEM_CACTVS_TAUTO_COUNT>
1

> <PUBCHEM_CONFORMER_ID>
00002E7700000002

> <PUBCHEM_MMFF94_ENERGY>
31.4118

> <PUBCHEM_FEATURE_SELFOVERLAP>
10.148

> <PUBCHEM_SHAPE_FINGERPRINT>
10857977 72 18339655429536360129
12032990 46 18411695453085028763
12423570 1 12066395707015519243
12524768 44 18264217928038126449
12716758 59 18339928224199614034
12897270 3 18411138064781634654
13024252 1 17346588695045363707
15219456 202 18187089412485610384
16945 1 18272661134005239043
17990270 104 18123191199436839105
20201158 50 18113615728922816614
20711985 344 18339366382353153361
21040471 1 18125732432865054945
22802520 49 18262233425556390222
23402539 116 18337681909096069910
23552423 10 18200594687633707511
23559900 14 18263928903479853534
241688 4 18411135848641872089
2748010 2 18338807710366357349
369184 2 16081090359491929299
5084963 1 18334293184168060617
7364860 26 17976253543511700717

> <PUBCHEM_SHAPE_MULTIPOLES>
216.51
4.2
1.99
0.79
2.47
1.1
0.07
-1.38
-0.67
-0.69
-0.09
0.32
0.04
0.37

> <PUBCHEM_SHAPE_SELFOVERLAP>
440.941

> <PUBCHEM_SHAPE_VOLUME>
126.8

> <PUBCHEM_COORDINATE_TYPE>
2
5
10

$$$$

