443273
  -OEChem-07051213012D

 34 36  0     0  0  0  0  0  0999 V2000
    5.1372    4.5010    0.0000 Cl  0  0  0  0  0  0  0  0  0  0  0  0
    5.4071   -0.9132    0.0000 O   0  0  0  0  0  0  0  0  0  0  0  0
    2.8660   -2.5010    0.0000 O   0  0  0  0  0  0  0  0  0  0  0  0
    3.7891   -0.9132    0.0000 N   0  0  0  0  0  0  0  0  0  0  0  0
    5.0981    0.0378    0.0000 N   0  0  0  0  0  0  0  0  0  0  0  0
    3.5103    0.8468    0.0000 C   0  0  0  0  0  0  0  0  0  0  0  0
    3.9170    1.7604    0.0000 C   0  0  0  0  0  0  0  0  0  0  0  0
    4.0981    0.0378    0.0000 C   0  0  0  0  0  0  0  0  0  0  0  0
    4.5981   -2.5010    0.0000 C   0  0  0  0  0  0  0  0  0  0  0  0
    4.5981   -1.5010    0.0000 C   0  0  0  0  0  0  0  0  0  0  0  0
    3.7320   -3.0010    0.0000 C   0  0  0  0  0  0  0  0  0  0  0  0
    4.9116    1.8649    0.0000 C   0  0  0  0  0  0  0  0  0  0  0  0
    3.3292    2.5694    0.0000 C   0  0  0  0  0  0  0  0  0  0  0  0
    5.4641   -3.0010    0.0000 C   0  0  0  0  0  0  0  0  0  0  0  0
    3.7320   -4.0010    0.0000 C   0  0  0  0  0  0  0  0  0  0  0  0
    5.3183    2.7785    0.0000 C   0  0  0  0  0  0  0  0  0  0  0  0
    3.7360    3.4830    0.0000 C   0  0  0  0  0  0  0  0  0  0  0  0
    5.4641   -4.0010    0.0000 C   0  0  0  0  0  0  0  0  0  0  0  0
    4.5981   -4.5010    0.0000 C   0  0  0  0  0  0  0  0  0  0  0  0
    4.7305    3.5875    0.0000 C   0  0  0  0  0  0  0  0  0  0  0  0
    2.0000   -3.0010    0.0000 C   0  0  0  0  0  0  0  0  0  0  0  0
    2.9963    1.1935    0.0000 H   0  0  0  0  0  0  0  0  0  0  0  0
    3.0796    0.4008    0.0000 H   0  0  0  0  0  0  0  0  0  0  0  0
    5.2760    1.3633    0.0000 H   0  0  0  0  0  0  0  0  0  0  0  0
    2.7126    2.5046    0.0000 H   0  0  0  0  0  0  0  0  0  0  0  0
    6.0010   -2.6910    0.0000 H   0  0  0  0  0  0  0  0  0  0  0  0
    3.1951   -4.3110    0.0000 H   0  0  0  0  0  0  0  0  0  0  0  0
    5.9349    2.8433    0.0000 H   0  0  0  0  0  0  0  0  0  0  0  0
    3.3716    3.9845    0.0000 H   0  0  0  0  0  0  0  0  0  0  0  0
    6.0010   -4.3110    0.0000 H   0  0  0  0  0  0  0  0  0  0  0  0
    4.5981   -5.1210    0.0000 H   0  0  0  0  0  0  0  0  0  0  0  0
    1.6900   -2.4641    0.0000 H   0  0  0  0  0  0  0  0  0  0  0  0
    1.4631   -3.3110    0.0000 H   0  0  0  0  0  0  0  0  0  0  0  0
    2.3100   -3.5380    0.0000 H   0  0  0  0  0  0  0  0  0  0  0  0
  1 20  1  0  0  0  0
  2  5  1  0  0  0  0
  2 10  1  0  0  0  0
  3 11  1  0  0  0  0
  3 21  1  0  0  0  0
  4  8  1  0  0  0  0
  4 10  2  0  0  0  0
  5  8  2  0  0  0  0
  6  7  1  0  0  0  0
  6  8  1  0  0  0  0
  6 22  1  0  0  0  0
  6 23  1  0  0  0  0
  7 12  2  0  0  0  0
  7 13  1  0  0  0  0
  9 10  1  0  0  0  0
  9 11  1  0  0  0  0
  9 14  2  0  0  0  0
 11 15  2  0  0  0  0
 12 16  1  0  0  0  0
 12 24  1  0  0  0  0
 13 17  2  0  0  0  0
 13 25  1  0  0  0  0
 14 18  1  0  0  0  0
 14 26  1  0  0  0  0
 15 19  1  0  0  0  0
 15 27  1  0  0  0  0
 16 20  2  0  0  0  0
 16 28  1  0  0  0  0
 17 20  1  0  0  0  0
 17 29  1  0  0  0  0
 18 19  2  0  0  0  0
 18 30  1  0  0  0  0
 19 31  1  0  0  0  0
 21 32  1  0  0  0  0
 21 33  1  0  0  0  0
 21 34  1  0  0  0  0
M  END
> <PUBCHEM_COMPOUND_CID>
443273

> <PUBCHEM_COMPOUND_CANONICALIZED>
1

> <PUBCHEM_CACTVS_COMPLEXITY>
323

> <PUBCHEM_CACTVS_HBOND_ACCEPTOR>
4

> <PUBCHEM_CACTVS_HBOND_DONOR>
0

> <PUBCHEM_CACTVS_ROTATABLE_BOND>
4

> <PUBCHEM_CACTVS_SUBSKEYS>
AAADccB7MAAEAAAAAAAAAAAAAAAAAWAAAAAwYAAAAAAAAAAB0AAAHgIEAAAADAaBmyIzFoYYFACpAiNyNgCCiAkkJaApiCE2DtiML7aFvxuEMWhn5ROIqYeYyKCOBAAAAAAIAAAIAAAAABAAAAAAAAAAAA==

> <PUBCHEM_IUPAC_OPENEYE_NAME>
3-[(4-chlorophenyl)methyl]-5-(2-methoxyphenyl)-1,2,4-oxadiazole

> <PUBCHEM_IUPAC_CAS_NAME>
3-[(4-chlorophenyl)methyl]-5-(2-methoxyphenyl)-1,2,4-oxadiazole

> <PUBCHEM_IUPAC_NAME>
3-[(4-chlorophenyl)methyl]-5-(2-methoxyphenyl)-1,2,4-oxadiazole

> <PUBCHEM_IUPAC_SYSTEMATIC_NAME>
3-[(4-chlorophenyl)methyl]-5-(2-methoxyphenyl)-1,2,4-oxadiazole

> <PUBCHEM_IUPAC_TRADITIONAL_NAME>
3-(4-chlorobenzyl)-5-(2-methoxyphenyl)-1,2,4-oxadiazole

> <PUBCHEM_IUPAC_INCHI>
InChI=1S/C16H13ClN2O2/c1-20-14-5-3-2-4-13(14)16-18-15(19-21-16)10-11-6-8-12(17)9-7-11/h2-9H,10H2,1H3

> <PUBCHEM_IUPAC_INCHIKEY>
XARXXOJWHQUSIS-UHFFFAOYSA-N

> <PUBCHEM_XLOGP3_AA>
4.4

> <PUBCHEM_EXACT_MASS>
300.066555

> <PUBCHEM_MOLECULAR_FORMULA>
C16H13ClN2O2

> <PUBCHEM_MOLECULAR_WEIGHT>
300.73962

> <PUBCHEM_OPENEYE_CAN_SMILES>
COC1=CC=CC=C1C2=NC(=NO2)CC3=CC=C(C=C3)Cl

> <PUBCHEM_OPENEYE_ISO_SMILES>
COC1=CC=CC=C1C2=NC(=NO2)CC3=CC=C(C=C3)Cl

> <PUBCHEM_CACTVS_TPSA>
48.2

> <PUBCHEM_MONOISOTOPIC_WEIGHT>
300.066555

> <PUBCHEM_TOTAL_CHARGE>
0

> <PUBCHEM_HEAVY_ATOM_COUNT>
21

> <PUBCHEM_ATOM_DEF_STEREO_COUNT>
0

> <PUBCHEM_ATOM_UDEF_STEREO_COUNT>
0

> <PUBCHEM_BOND_DEF_STEREO_COUNT>
0

> <PUBCHEM_BOND_UDEF_STEREO_COUNT>
0

> <PUBCHEM_ISOTOPIC_ATOM_COUNT>
0

> <PUBCHEM_COMPONENT_COUNT>
1

> <PUBCHEM_CACTVS_TAUTO_COUNT>
1

> <PUBCHEM_COORDINATE_TYPE>
1
5
255

> <PUBCHEM_BONDANNOTATIONS>
11  15  8
12  16  8
13  17  8
14  18  8
15  19  8
16  20  8
17  20  8
18  19  8
2  10  8
2  5  8
4  10  8
4  8  8
5  8  8
7  12  8
7  13  8
9  11  8
9  14  8

$$$$

