9909623
  -OEChem-07051213113D

 78 80  0     1  0  0  0  0  0999 V2000
   -7.7700   -0.7007    0.6807 O   0  0  0  0  0  0  0  0  0  0  0  0
    0.6503   -1.1755   -0.0006 C   0  0  2  0  0  0  0  0  0  0  0  0
    1.7908   -0.6535    0.9104 C   0  0  2  0  0  0  0  0  0  0  0  0
   -0.5719   -0.6799    0.8117 C   0  0  1  0  0  0  0  0  0  0  0  0
    1.3199    0.7535    1.3343 C   0  0  0  0  0  0  0  0  0  0  0  0
   -0.2088    0.7647    1.1692 C   0  0  0  0  0  0  0  0  0  0  0  0
    0.6058   -2.7167   -0.1287 C   0  0  0  0  0  0  0  0  0  0  0  0
    3.1908   -0.6550    0.3139 C   0  0  1  0  0  0  0  0  0  0  0  0
   -1.8728   -1.0035    0.1246 C   0  0  0  0  0  0  0  0  0  0  0  0
    0.7308   -0.5512   -1.4180 C   0  0  0  0  0  0  0  0  0  0  0  0
   -0.8132   -3.3053   -0.0070 C   0  0  0  0  0  0  0  0  0  0  0  0
   -1.9266   -2.3778   -0.5118 C   0  0  0  0  0  0  0  0  0  0  0  0
    4.1916   -0.0865    1.3375 C   0  0  0  0  0  0  0  0  0  0  0  0
    3.5588   -2.0690   -0.1372 C   0  0  0  0  0  0  0  0  0  0  0  0
    5.6700   -0.1081    0.9154 C   0  0  0  0  0  0  0  0  0  0  0  0
   -2.9249   -0.1738    0.0682 C   0  0  0  0  0  0  0  0  0  0  0  0
    6.0469    0.7620   -0.3120 C   0  0  2  0  0  0  0  0  0  0  0  0
   -4.1640   -0.5122   -0.5866 C   0  0  0  0  0  0  0  0  0  0  0  0
    7.5413    0.5845   -0.7305 C   0  0  0  0  0  0  0  0  0  0  0  0
    5.6564    2.2411   -0.0695 C   0  0  0  0  0  0  0  0  0  0  0  0
   -5.2177    0.3179   -0.6434 C   0  0  0  0  0  0  0  0  0  0  0  0
    7.8861   -0.8767   -1.0461 C   0  0  0  0  0  0  0  0  0  0  0  0
    8.5425    1.1398    0.2861 C   0  0  0  0  0  0  0  0  0  0  0  0
    5.9207    3.1651   -1.2508 C   0  0  0  0  0  0  0  0  0  0  0  0
   -6.5179   -0.0873   -1.3014 C   0  0  0  0  0  0  0  0  0  0  0  0
   -5.2101    1.6491   -0.0450 C   0  0  0  0  0  0  0  0  0  0  0  0
   -7.7399    0.2031   -0.4222 C   0  0  2  0  0  0  0  0  0  0  0  0
   -6.4078    1.9705    0.8145 C   0  0  0  0  0  0  0  0  0  0  0  0
   -7.7249    1.6388    0.1066 C   0  0  0  0  0  0  0  0  0  0  0  0
   -4.2321    2.5426   -0.2625 C   0  0  0  0  0  0  0  0  0  0  0  0
    1.8056   -1.2710    1.8224 H   0  0  0  0  0  0  0  0  0  0  0  0
   -0.5979   -1.2294    1.7674 H   0  0  0  0  0  0  0  0  0  0  0  0
    1.7582    1.5427    0.7126 H   0  0  0  0  0  0  0  0  0  0  0  0
    1.5967    0.9598    2.3742 H   0  0  0  0  0  0  0  0  0  0  0  0
   -0.4923    1.4668    0.3764 H   0  0  0  0  0  0  0  0  0  0  0  0
   -0.7058    1.0908    2.0892 H   0  0  0  0  0  0  0  0  0  0  0  0
    1.0022   -3.0380   -1.0987 H   0  0  0  0  0  0  0  0  0  0  0  0
    1.2170   -3.2024    0.6398 H   0  0  0  0  0  0  0  0  0  0  0  0
    3.2200   -0.0010   -0.5654 H   0  0  0  0  0  0  0  0  0  0  0  0
    0.8037    0.5406   -1.3888 H   0  0  0  0  0  0  0  0  0  0  0  0
   -0.1467   -0.7948   -2.0238 H   0  0  0  0  0  0  0  0  0  0  0  0
    1.5983   -0.9149   -1.9772 H   0  0  0  0  0  0  0  0  0  0  0  0
   -1.0038   -3.5389    1.0493 H   0  0  0  0  0  0  0  0  0  0  0  0
   -0.8574   -4.2631   -0.5392 H   0  0  0  0  0  0  0  0  0  0  0  0
   -1.8471   -2.2856   -1.6012 H   0  0  0  0  0  0  0  0  0  0  0  0
   -2.8728   -2.8820   -0.2840 H   0  0  0  0  0  0  0  0  0  0  0  0
    4.1167   -0.6808    2.2591 H   0  0  0  0  0  0  0  0  0  0  0  0
    3.9172    0.9311    1.6312 H   0  0  0  0  0  0  0  0  0  0  0  0
    2.9810   -2.4022   -0.9977 H   0  0  0  0  0  0  0  0  0  0  0  0
    3.4659   -2.7943    0.6771 H   0  0  0  0  0  0  0  0  0  0  0  0
    4.5938   -2.1139   -0.4893 H   0  0  0  0  0  0  0  0  0  0  0  0
    6.2484    0.2463    1.7787 H   0  0  0  0  0  0  0  0  0  0  0  0
    5.9818   -1.1454    0.7708 H   0  0  0  0  0  0  0  0  0  0  0  0
   -2.8312    0.7549    0.6137 H   0  0  0  0  0  0  0  0  0  0  0  0
    5.4469    0.4064   -1.1607 H   0  0  0  0  0  0  0  0  0  0  0  0
   -4.2617   -1.4788   -1.0695 H   0  0  0  0  0  0  0  0  0  0  0  0
    7.6889    1.1366   -1.6674 H   0  0  0  0  0  0  0  0  0  0  0  0
    6.1592    2.6326    0.8220 H   0  0  0  0  0  0  0  0  0  0  0  0
    4.5813    2.3028    0.1312 H   0  0  0  0  0  0  0  0  0  0  0  0
    7.1441   -1.3185   -1.7192 H   0  0  0  0  0  0  0  0  0  0  0  0
    7.9473   -1.4910   -0.1426 H   0  0  0  0  0  0  0  0  0  0  0  0
    8.8606   -0.9367   -1.5435 H   0  0  0  0  0  0  0  0  0  0  0  0
    9.5676    1.0136   -0.0799 H   0  0  0  0  0  0  0  0  0  0  0  0
    8.4718    0.6238    1.2485 H   0  0  0  0  0  0  0  0  0  0  0  0
    8.3934    2.2093    0.4585 H   0  0  0  0  0  0  0  0  0  0  0  0
    5.4623    2.7747   -2.1648 H   0  0  0  0  0  0  0  0  0  0  0  0
    5.4947    4.1546   -1.0548 H   0  0  0  0  0  0  0  0  0  0  0  0
    6.9915    3.2997   -1.4271 H   0  0  0  0  0  0  0  0  0  0  0  0
   -6.6133    0.4652   -2.2451 H   0  0  0  0  0  0  0  0  0  0  0  0
   -6.5038   -1.1555   -1.5513 H   0  0  0  0  0  0  0  0  0  0  0  0
   -8.6520    0.0318   -1.0049 H   0  0  0  0  0  0  0  0  0  0  0  0
   -6.3368    1.3979    1.7485 H   0  0  0  0  0  0  0  0  0  0  0  0
   -6.4175    3.0295    1.1002 H   0  0  0  0  0  0  0  0  0  0  0  0
   -8.5507    1.7910    0.8115 H   0  0  0  0  0  0  0  0  0  0  0  0
   -7.8737    2.3349   -0.7286 H   0  0  0  0  0  0  0  0  0  0  0  0
   -4.2676    3.5261    0.1963 H   0  0  0  0  0  0  0  0  0  0  0  0
   -3.3977    2.3540   -0.9302 H   0  0  0  0  0  0  0  0  0  0  0  0
   -8.5683   -0.5042    1.2000 H   0  0  0  0  0  0  0  0  0  0  0  0
  1 27  1  0  0  0  0
  1 78  1  0  0  0  0
  2  3  1  0  0  0  0
  2  4  1  0  0  0  0
  2  7  1  0  0  0  0
  2 10  1  0  0  0  0
  3  5  1  0  0  0  0
  3  8  1  0  0  0  0
  3 31  1  0  0  0  0
  4  6  1  0  0  0  0
  4  9  1  0  0  0  0
  4 32  1  0  0  0  0
  5  6  1  0  0  0  0
  5 33  1  0  0  0  0
  5 34  1  0  0  0  0
  6 35  1  0  0  0  0
  6 36  1  0  0  0  0
  7 11  1  0  0  0  0
  7 37  1  0  0  0  0
  7 38  1  0  0  0  0
  8 13  1  0  0  0  0
  8 14  1  0  0  0  0
  8 39  1  0  0  0  0
  9 12  1  0  0  0  0
  9 16  2  0  0  0  0
 10 40  1  0  0  0  0
 10 41  1  0  0  0  0
 10 42  1  0  0  0  0
 11 12  1  0  0  0  0
 11 43  1  0  0  0  0
 11 44  1  0  0  0  0
 12 45  1  0  0  0  0
 12 46  1  0  0  0  0
 13 15  1  0  0  0  0
 13 47  1  0  0  0  0
 13 48  1  0  0  0  0
 14 49  1  0  0  0  0
 14 50  1  0  0  0  0
 14 51  1  0  0  0  0
 15 17  1  0  0  0  0
 15 52  1  0  0  0  0
 15 53  1  0  0  0  0
 16 18  1  0  0  0  0
 16 54  1  0  0  0  0
 17 19  1  0  0  0  0
 17 20  1  0  0  0  0
 17 55  1  0  0  0  0
 18 21  2  0  0  0  0
 18 56  1  0  0  0  0
 19 22  1  0  0  0  0
 19 23  1  0  0  0  0
 19 57  1  0  0  0  0
 20 24  1  0  0  0  0
 20 58  1  0  0  0  0
 20 59  1  0  0  0  0
 21 25  1  0  0  0  0
 21 26  1  0  0  0  0
 22 60  1  0  0  0  0
 22 61  1  0  0  0  0
 22 62  1  0  0  0  0
 23 63  1  0  0  0  0
 23 64  1  0  0  0  0
 23 65  1  0  0  0  0
 24 66  1  0  0  0  0
 24 67  1  0  0  0  0
 24 68  1  0  0  0  0
 25 27  1  0  0  0  0
 25 69  1  0  0  0  0
 25 70  1  0  0  0  0
 26 28  1  0  0  0  0
 26 30  2  0  0  0  0
 27 29  1  0  0  0  0
 27 71  1  0  0  0  0
 28 29  1  0  0  0  0
 28 72  1  0  0  0  0
 28 73  1  0  0  0  0
 29 74  1  0  0  0  0
 29 75  1  0  0  0  0
 30 76  1  0  0  0  0
 30 77  1  0  0  0  0
M  END
> <PUBCHEM_COMPOUND_CID>
9909623

> <PUBCHEM_CONFORMER_RMSD>
1

> <PUBCHEM_CONFORMER_DIVERSEORDER>
1
9
6
7
11
8
3
4
10
2
5

> <PUBCHEM_MMFF94_PARTIAL_CHARGES>
17
1 -0.68
12 0.14
16 -0.15
18 -0.15
21 -0.14
25 0.14
26 -0.14
27 0.28
28 0.14
30 -0.3
4 0.14
54 0.15
56 0.15
76 0.15
77 0.15
78 0.4
9 -0.28

> <PUBCHEM_EFFECTIVE_ROTOR_COUNT>
9

> <PUBCHEM_PHARMACOPHORE_FEATURES>
9
1 1 acceptor
1 1 donor
1 14 hydrophobe
1 24 hydrophobe
3 19 22 23 hydrophobe
5 2 3 4 5 6 rings
6 2 4 7 9 11 12 rings
6 21 25 26 27 28 29 rings
6 8 13 15 17 19 20 hydrophobe

> <PUBCHEM_HEAVY_ATOM_COUNT>
30

> <PUBCHEM_ATOM_DEF_STEREO_COUNT>
6

> <PUBCHEM_ATOM_UDEF_STEREO_COUNT>
0

> <PUBCHEM_BOND_DEF_STEREO_COUNT>
2

> <PUBCHEM_BOND_UDEF_STEREO_COUNT>
0

> <PUBCHEM_ISOTOPIC_ATOM_COUNT>
0

> <PUBCHEM_COMPONENT_COUNT>
1

> <PUBCHEM_CACTVS_TAUTO_COUNT>
1

> <PUBCHEM_CONFORMER_ID>
0097357700000001

> <PUBCHEM_MMFF94_ENERGY>
89.1969

> <PUBCHEM_FEATURE_SELFOVERLAP>
45.743

> <PUBCHEM_SHAPE_FINGERPRINT>
10 15 17989205958454486707
10369192 42 18408889555461395015
106641 1 17132112442773481555
10906281 52 18114451327731883739
11315181 36 18060702797974091721
11456790 92 16988296335009852024
11991303 11 17531253803102650494
12202916 173 10159694703415434705
12539765 74 18187077373455332167
13540713 4 17243876562333248362
14117953 113 18409724068066151500
14251764 18 17989489619253065595
14257110 125 18412263934903183549
14790565 3 18411140268100052368
14849402 71 18341048528313436685
15064981 194 18056461882298160478
15183329 4 18409731763735136768
15188451 53 7204778086098160034
15276724 80 18130795593780363532
15301273 46 13398636073522952768
15840311 113 18060416894058229708
15849732 13 18060137634904679407
17686467 74 17632295650000835421
18335252 114 18410859858987439732
18603816 31 12175611847061567217
18608769 82 18336827499253769347
19611394 137 17916291746432963737
20715895 44 18410852136725561500
21585482 111 18269557316066250365
21792961 116 18114175354629625170
22224240 67 14549019883501532433
23559900 14 18041847208407598674
23576562 1 18264776445654136853
249057 3 18411981335077772428
2838139 119 18272655640631811284
3633792 109 18261669363686603978
397830 11 16701726160410502449
4058900 60 18412822512654413626
4073 2 18341610456570907707
4098825 35 18187927321581167359
4112364 45 17274529945624304430
4258327 124 18271235024105263909
5104073 3 10879731879096970526
5219985 9 8718825400949389203
5265222 85 18189899716550498518
5758199 1 18410013260576814163
5911458 16 18342173358477828780
6328613 192 18412265004070751152

> <PUBCHEM_SHAPE_MULTIPOLES>
611.52
25.08
2.9
1.18
1.99
0.18
0
-15.41
4.26
0.62
0.48
0.57
-0.17
-0.94

> <PUBCHEM_SHAPE_SELFOVERLAP>
1245.74

> <PUBCHEM_SHAPE_VOLUME>
355.7

> <PUBCHEM_COORDINATE_TYPE>
2
5
10

$$$$

