90301
  -OEChem-07051212473D

 15 15  0     0  0  0  0  0  0999 V2000
    0.5791    2.1267    0.2071 O   0  0  0  0  0  0  0  0  0  0  0  0
   -3.4345   -0.1453   -0.0301 O   0  0  0  0  0  0  0  0  0  0  0  0
    2.6602    0.7283   -0.5390 O   0  0  0  0  0  0  0  0  0  0  0  0
    2.6985   -1.3486    0.4176 O   0  0  0  0  0  0  0  0  0  0  0  0
   -1.4372    1.0053    0.0888 N   0  0  0  0  0  0  0  0  0  0  0  0
   -1.4607   -1.3256   -0.1172 N   0  0  0  0  0  0  0  0  0  0  0  0
    0.6410   -0.2349   -0.0027 C   0  0  0  0  0  0  0  0  0  0  0  0
   -0.0497    1.0768    0.1076 C   0  0  0  0  0  0  0  0  0  0  0  0
   -0.0921   -1.3485   -0.1076 C   0  0  0  0  0  0  0  0  0  0  0  0
   -2.2032   -0.1583   -0.0206 C   0  0  0  0  0  0  0  0  0  0  0  0
    2.0984   -0.3760   -0.0040 C   0  0  0  0  0  0  0  0  0  0  0  0
    0.3402   -2.3388   -0.1950 H   0  0  0  0  0  0  0  0  0  0  0  0
   -1.9442    1.8829    0.1621 H   0  0  0  0  0  0  0  0  0  0  0  0
   -1.9483   -2.2126   -0.2006 H   0  0  0  0  0  0  0  0  0  0  0  0
    3.6394    0.6719   -0.5573 H   0  0  0  0  0  0  0  0  0  0  0  0
  1  8  2  0  0  0  0
  2 10  2  0  0  0  0
  3 11  1  0  0  0  0
  3 15  1  0  0  0  0
  4 11  2  0  0  0  0
  5  8  1  0  0  0  0
  5 10  1  0  0  0  0
  5 13  1  0  0  0  0
  6  9  1  0  0  0  0
  6 10  1  0  0  0  0
  6 14  1  0  0  0  0
  7  8  1  0  0  0  0
  7  9  2  0  0  0  0
  7 11  1  0  0  0  0
  9 12  1  0  0  0  0
M  END
> <PUBCHEM_COMPOUND_CID>
90301

> <PUBCHEM_CONFORMER_RMSD>
0.4

> <PUBCHEM_CONFORMER_DIVERSEORDER>
1
3
2

> <PUBCHEM_MMFF94_PARTIAL_CHARGES>
15
1 -0.57
10 0.69
11 0.71
12 0.15
13 0.37
14 0.37
15 0.5
2 -0.57
3 -0.65
4 -0.57
5 -0.49
6 -0.54
7 0.03
8 0.62
9 -0.04

> <PUBCHEM_EFFECTIVE_ROTOR_COUNT>
1

> <PUBCHEM_PHARMACOPHORE_FEATURES>
9
1 1 acceptor
1 2 acceptor
1 3 acceptor
1 4 acceptor
1 5 donor
1 6 donor
1 7 anion
3 3 4 11 anion
6 5 6 7 8 9 10 rings

> <PUBCHEM_HEAVY_ATOM_COUNT>
11

> <PUBCHEM_ATOM_DEF_STEREO_COUNT>
0

> <PUBCHEM_ATOM_UDEF_STEREO_COUNT>
0

> <PUBCHEM_BOND_DEF_STEREO_COUNT>
0

> <PUBCHEM_BOND_UDEF_STEREO_COUNT>
0

> <PUBCHEM_ISOTOPIC_ATOM_COUNT>
0

> <PUBCHEM_COMPONENT_COUNT>
1

> <PUBCHEM_CACTVS_TAUTO_COUNT>
9

> <PUBCHEM_CONFORMER_ID>
000160BD00000001

> <PUBCHEM_MMFF94_ENERGY>
24.0876

> <PUBCHEM_FEATURE_SELFOVERLAP>
46.11

> <PUBCHEM_SHAPE_FINGERPRINT>
10130415 120 18342744043408361218
10219947 1 18335136509871583207
10857977 72 18335434485832895178
14325111 11 18411981377446982221
16945 1 18338238163163756337
18185500 45 18411700976175302194
193761 8 17761213215461523119
21040471 1 17616248525994037016
23402655 69 18120392088669667885
23552423 10 18052820247640736293
2748010 2 18047749596550864663
5084963 1 18188773992974419130
53812654 25 18261685817321154166

> <PUBCHEM_SHAPE_MULTIPOLES>
192.94
3.95
1.65
0.6
0.73
0.41
0.01
-0.67
0.09
-0.34
-0.09
-0.1
-0.01
-0.21

> <PUBCHEM_SHAPE_SELFOVERLAP>
406.876

> <PUBCHEM_SHAPE_VOLUME>
106.2

> <PUBCHEM_COORDINATE_TYPE>
2
5
10

$$$$

