7149
  -OEChem-06261201492D

 20 20  0     1  0  0  0  0  0999 V2000
    2.0000    1.0950    0.0000 O   0  0  0  0  0  0  0  0  0  0  0  0
    3.7320    2.0950    0.0000 O   0  0  0  0  0  0  0  0  0  0  0  0
    2.8660    0.5950    0.0000 C   0  0  3  0  0  0  0  0  0  0  0  0
    2.8660   -0.4050    0.0000 C   0  0  0  0  0  0  0  0  0  0  0  0
    3.7320    1.0950    0.0000 C   0  0  0  0  0  0  0  0  0  0  0  0
    2.0000   -0.9050    0.0000 C   0  0  0  0  0  0  0  0  0  0  0  0
    3.7320   -0.9050    0.0000 C   0  0  0  0  0  0  0  0  0  0  0  0
    2.0000   -1.9050    0.0000 C   0  0  0  0  0  0  0  0  0  0  0  0
    3.7320   -1.9050    0.0000 C   0  0  0  0  0  0  0  0  0  0  0  0
    2.8660   -2.4050    0.0000 C   0  0  0  0  0  0  0  0  0  0  0  0
    2.8660    1.4450    0.0000 H   0  0  0  0  0  0  0  0  0  0  0  0
    3.9441    0.5124    0.0000 H   0  0  0  0  0  0  0  0  0  0  0  0
    4.3426    1.2027    0.0000 H   0  0  0  0  0  0  0  0  0  0  0  0
    1.4631   -0.5950    0.0000 H   0  0  0  0  0  0  0  0  0  0  0  0
    4.2690   -0.5950    0.0000 H   0  0  0  0  0  0  0  0  0  0  0  0
    1.4631   -2.2150    0.0000 H   0  0  0  0  0  0  0  0  0  0  0  0
    4.2690   -2.2150    0.0000 H   0  0  0  0  0  0  0  0  0  0  0  0
    2.8660   -3.0250    0.0000 H   0  0  0  0  0  0  0  0  0  0  0  0
    2.0000    1.7150    0.0000 H   0  0  0  0  0  0  0  0  0  0  0  0
    4.2690    2.4050    0.0000 H   0  0  0  0  0  0  0  0  0  0  0  0
  1  3  1  0  0  0  0
  1 19  1  0  0  0  0
  2  5  1  0  0  0  0
  2 20  1  0  0  0  0
  3  4  1  0  0  0  0
  3  5  1  0  0  0  0
  3 11  1  0  0  0  0
  4  6  2  0  0  0  0
  4  7  1  0  0  0  0
  5 12  1  0  0  0  0
  5 13  1  0  0  0  0
  6  8  1  0  0  0  0
  6 14  1  0  0  0  0
  7  9  2  0  0  0  0
  7 15  1  0  0  0  0
  8 10  2  0  0  0  0
  8 16  1  0  0  0  0
  9 10  1  0  0  0  0
  9 17  1  0  0  0  0
 10 18  1  0  0  0  0
M  END
> <PUBCHEM_COMPOUND_CID>
7149

> <PUBCHEM_COMPOUND_CANONICALIZED>
1

> <PUBCHEM_CACTVS_COMPLEXITY>
87.3

> <PUBCHEM_CACTVS_HBOND_ACCEPTOR>
2

> <PUBCHEM_CACTVS_HBOND_DONOR>
2

> <PUBCHEM_CACTVS_ROTATABLE_BOND>
2

> <PUBCHEM_CACTVS_SUBSKEYS>
AAADccBwMAAAAAAAAAAAAAAAAAAAAAAAAAAwAAAAAAAAAAABAAAAGgAACAAADBSgmAIwAIAAAgCAAiBCAAACAAAgAAAIiAAACIgJNiKAERCAcAAkwAEJmAeAwKAOAAAAAAAAAAAAAAAAAAAAAAAAAAAAAA==

> <PUBCHEM_IUPAC_OPENEYE_NAME>
1-phenylethane-1,2-diol

> <PUBCHEM_IUPAC_CAS_NAME>
1-phenylethane-1,2-diol

> <PUBCHEM_IUPAC_NAME>
1-phenylethane-1,2-diol

> <PUBCHEM_IUPAC_SYSTEMATIC_NAME>
1-phenylethane-1,2-diol

> <PUBCHEM_IUPAC_TRADITIONAL_NAME>
1-phenylethane-1,2-diol

> <PUBCHEM_IUPAC_INCHI>
InChI=1S/C8H10O2/c9-6-8(10)7-4-2-1-3-5-7/h1-5,8-10H,6H2

> <PUBCHEM_IUPAC_INCHIKEY>
PWMWNFMRSKOCEY-UHFFFAOYSA-N

> <PUBCHEM_XLOGP3>
0.4

> <PUBCHEM_EXACT_MASS>
138.06808

> <PUBCHEM_MOLECULAR_FORMULA>
C8H10O2

> <PUBCHEM_MOLECULAR_WEIGHT>
138.1638

> <PUBCHEM_OPENEYE_CAN_SMILES>
C1=CC=C(C=C1)C(CO)O

> <PUBCHEM_OPENEYE_ISO_SMILES>
C1=CC=C(C=C1)C(CO)O

> <PUBCHEM_CACTVS_TPSA>
40.5

> <PUBCHEM_MONOISOTOPIC_WEIGHT>
138.06808

> <PUBCHEM_TOTAL_CHARGE>
0

> <PUBCHEM_HEAVY_ATOM_COUNT>
10

> <PUBCHEM_ATOM_DEF_STEREO_COUNT>
0

> <PUBCHEM_ATOM_UDEF_STEREO_COUNT>
1

> <PUBCHEM_BOND_DEF_STEREO_COUNT>
0

> <PUBCHEM_BOND_UDEF_STEREO_COUNT>
0

> <PUBCHEM_ISOTOPIC_ATOM_COUNT>
0

> <PUBCHEM_COMPONENT_COUNT>
1

> <PUBCHEM_CACTVS_TAUTO_COUNT>
1

> <PUBCHEM_COORDINATE_TYPE>
1
5
255

> <PUBCHEM_BONDANNOTATIONS>
3  11  3
4  6  8
4  7  8
6  8  8
7  9  8
8  10  8
9  10  8

$$$$

