15731
  -OEChem-07051212483D

 24 25  0     0  0  0  0  0  0999 V2000
   -0.8728    1.6639   -1.4679 O   0  0  0  0  0  0  0  0  0  0  0  0
    0.8728   -1.6640   -1.4679 O   0  0  0  0  0  0  0  0  0  0  0  0
   -0.7240   -0.0307    0.2300 C   0  0  0  0  0  0  0  0  0  0  0  0
    0.7239    0.0307    0.2301 C   0  0  0  0  0  0  0  0  0  0  0  0
   -1.4745    0.7848   -0.6168 C   0  0  0  0  0  0  0  0  0  0  0  0
    1.4744   -0.7848   -0.6168 C   0  0  0  0  0  0  0  0  0  0  0  0
   -1.3662   -0.9202    1.0915 C   0  0  0  0  0  0  0  0  0  0  0  0
    1.3662    0.9202    1.0915 C   0  0  0  0  0  0  0  0  0  0  0  0
   -2.8673    0.7109   -0.6022 C   0  0  0  0  0  0  0  0  0  0  0  0
    2.8672   -0.7109   -0.6022 C   0  0  0  0  0  0  0  0  0  0  0  0
   -2.7591   -0.9940    1.1061 C   0  0  0  0  0  0  0  0  0  0  0  0
    2.7591    0.9939    1.1060 C   0  0  0  0  0  0  0  0  0  0  0  0
   -3.5096   -0.1784    0.2593 C   0  0  0  0  0  0  0  0  0  0  0  0
    3.5096    0.1785    0.2593 C   0  0  0  0  0  0  0  0  0  0  0  0
   -0.7973   -1.5639    1.7585 H   0  0  0  0  0  0  0  0  0  0  0  0
    0.7974    1.5639    1.7584 H   0  0  0  0  0  0  0  0  0  0  0  0
   -3.4654    1.3401   -1.2561 H   0  0  0  0  0  0  0  0  0  0  0  0
    3.4654   -1.3401   -1.2561 H   0  0  0  0  0  0  0  0  0  0  0  0
   -3.2594   -1.6865    1.7767 H   0  0  0  0  0  0  0  0  0  0  0  0
    3.2593    1.6865    1.7767 H   0  0  0  0  0  0  0  0  0  0  0  0
   -4.5941   -0.2359    0.2709 H   0  0  0  0  0  0  0  0  0  0  0  0
    4.5941    0.2360    0.2708 H   0  0  0  0  0  0  0  0  0  0  0  0
   -1.5560    2.1389   -1.9713 H   0  0  0  0  0  0  0  0  0  0  0  0
    1.5561   -2.1389   -1.9713 H   0  0  0  0  0  0  0  0  0  0  0  0
  1  5  1  0  0  0  0
  1 23  1  0  0  0  0
  2  6  1  0  0  0  0
  2 24  1  0  0  0  0
  3  4  1  0  0  0  0
  3  5  1  0  0  0  0
  3  7  2  0  0  0  0
  4  6  1  0  0  0  0
  4  8  2  0  0  0  0
  5  9  2  0  0  0  0
  6 10  2  0  0  0  0
  7 11  1  0  0  0  0
  7 15  1  0  0  0  0
  8 12  1  0  0  0  0
  8 16  1  0  0  0  0
  9 13  1  0  0  0  0
  9 17  1  0  0  0  0
 10 14  1  0  0  0  0
 10 18  1  0  0  0  0
 11 13  2  0  0  0  0
 11 19  1  0  0  0  0
 12 14  2  0  0  0  0
 12 20  1  0  0  0  0
 13 21  1  0  0  0  0
 14 22  1  0  0  0  0
M  END
> <PUBCHEM_COMPOUND_CID>
15731

> <PUBCHEM_CONFORMER_RMSD>
0.4

> <PUBCHEM_CONFORMER_DIVERSEORDER>
1
3
6
2
5
4

> <PUBCHEM_MMFF94_PARTIAL_CHARGES>
22
1 -0.53
10 -0.15
11 -0.15
12 -0.15
13 -0.15
14 -0.15
15 0.15
16 0.15
17 0.15
18 0.15
19 0.15
2 -0.53
20 0.15
21 0.15
22 0.15
23 0.45
24 0.45
5 0.08
6 0.08
7 -0.15
8 -0.15
9 -0.15

> <PUBCHEM_EFFECTIVE_ROTOR_COUNT>
1

> <PUBCHEM_PHARMACOPHORE_FEATURES>
4
1 1 donor
1 2 donor
6 3 5 7 9 11 13 rings
6 4 6 8 10 12 14 rings

> <PUBCHEM_HEAVY_ATOM_COUNT>
14

> <PUBCHEM_ATOM_DEF_STEREO_COUNT>
0

> <PUBCHEM_ATOM_UDEF_STEREO_COUNT>
0

> <PUBCHEM_BOND_DEF_STEREO_COUNT>
0

> <PUBCHEM_BOND_UDEF_STEREO_COUNT>
0

> <PUBCHEM_ISOTOPIC_ATOM_COUNT>
0

> <PUBCHEM_COMPONENT_COUNT>
1

> <PUBCHEM_CACTVS_TAUTO_COUNT>
5

> <PUBCHEM_CONFORMER_ID>
00003D7300000001

> <PUBCHEM_MMFF94_ENERGY>
43.9083

> <PUBCHEM_FEATURE_SELFOVERLAP>
20.297

> <PUBCHEM_SHAPE_FINGERPRINT>
10219947 1 17967812738968922144
107287 299 18260542316717330470
10857977 72 18202281377415402993
11031198 65 17967531255365561312
11471102 20 17822010929983763328
12035759 4 13654774359196173134
12932764 1 18409732858893631986
13538477 17 16343980291189747907
13581323 91 17418097619621738723
13839132 238 17986684876559415884
14115302 16 15841264840587193667
14993402 34 14779266414667275945
15219456 202 18408604777058740632
15279307 12 15719395039998448335
15309172 13 17967251966500739650
15775835 57 15647049352397008306
16945 1 18410573959381647490
17844478 74 18409444795326286993
18175812 5 18410573955086680111
19049666 15 18194402422808379473
200 152 17168151143596685263
20201158 50 18334855047484401419
20279233 1 18410857659257087955
204376 136 17750244608307320984
20645464 45 18412827984410398387
20645477 70 17749674107332018487
21639500 275 17458921344126815736
22802520 49 18197213874072270815
232386 152 17131547241629651091
23402539 116 18131362898877679663
23557571 272 18201430393854016853
23559900 14 18060422464915551074
474 4 16010463161668054904
528886 8 17458351822947141466
77492 1 15719392836627464336
81228 2 17988070227278248357
8272917 22 16951392382067943399

> <PUBCHEM_SHAPE_MULTIPOLES>
276.37
5.56
1.34
1.32
0
0
-0.08
0
0.74
0
-0.29
0
0
1.18

> <PUBCHEM_SHAPE_SELFOVERLAP>
605.813

> <PUBCHEM_SHAPE_VOLUME>
149.6

> <PUBCHEM_COORDINATE_TYPE>
2
5
10

$$$$

