47205805
  -OEChem-06241223003D

 40 42  0     0  0  0  0  0  0999 V2000
   -2.8860   -0.0107   -1.7649 O   0  0  0  0  0  0  0  0  0  0  0  0
   -0.9884    0.1630    1.6874 O   0  0  0  0  0  0  0  0  0  0  0  0
    0.5550    1.1705    0.2236 N   0  0  0  0  0  0  0  0  0  0  0  0
   -3.0067    1.0115    0.3271 N   0  0  0  0  0  0  0  0  0  0  0  0
   -4.6918   -0.5939   -0.3744 C   0  0  0  0  0  0  0  0  0  0  0  0
   -4.7525   -1.4239    0.8740 C   0  0  0  0  0  0  0  0  0  0  0  0
   -4.6880   -2.0916   -0.4683 C   0  0  0  0  0  0  0  0  0  0  0  0
   -3.4402    0.1579   -0.6850 C   0  0  0  0  0  0  0  0  0  0  0  0
    0.9396    2.4866   -0.3194 C   0  0  0  0  0  0  0  0  0  0  0  0
    2.3652    2.8628    0.0431 C   0  0  0  0  0  0  0  0  0  0  0  0
    3.3210    1.8431   -0.5430 C   0  0  0  0  0  0  0  0  0  0  0  0
    1.5544    0.1243    0.1409 C   0  0  0  0  0  0  0  0  0  0  0  0
    2.8861    0.4377   -0.2190 C   0  0  0  0  0  0  0  0  0  0  0  0
   -1.8359    1.8183    0.2372 C   0  0  0  0  0  0  0  0  0  0  0  0
   -0.7175    0.9606    0.7871 C   0  0  0  0  0  0  0  0  0  0  0  0
    3.8518   -0.5801   -0.3264 C   0  0  0  0  0  0  0  0  0  0  0  0
    1.2435   -1.2280    0.3697 C   0  0  0  0  0  0  0  0  0  0  0  0
    3.5204   -1.9058   -0.0738 C   0  0  0  0  0  0  0  0  0  0  0  0
    2.2159   -2.2288    0.2706 C   0  0  0  0  0  0  0  0  0  0  0  0
    4.5542   -2.9734   -0.1864 C   0  0  0  0  0  0  0  0  0  0  0  0
   -5.6045   -0.0949   -0.6843 H   0  0  0  0  0  0  0  0  0  0  0  0
   -5.5850   -2.5768   -0.8335 H   0  0  0  0  0  0  0  0  0  0  0  0
   -3.7670   -2.5959   -0.7340 H   0  0  0  0  0  0  0  0  0  0  0  0
   -3.8761   -1.4943    1.5068 H   0  0  0  0  0  0  0  0  0  0  0  0
   -5.6931   -1.4588    1.4103 H   0  0  0  0  0  0  0  0  0  0  0  0
    0.8007    2.4497   -1.4068 H   0  0  0  0  0  0  0  0  0  0  0  0
    0.2668    3.2555    0.0742 H   0  0  0  0  0  0  0  0  0  0  0  0
    2.4727    2.8939    1.1350 H   0  0  0  0  0  0  0  0  0  0  0  0
    2.6047    3.8619   -0.3373 H   0  0  0  0  0  0  0  0  0  0  0  0
    4.3268    2.0319   -0.1494 H   0  0  0  0  0  0  0  0  0  0  0  0
    3.3622    1.9514   -1.6339 H   0  0  0  0  0  0  0  0  0  0  0  0
   -3.5504    1.0645    1.1837 H   0  0  0  0  0  0  0  0  0  0  0  0
   -1.9642    2.7072    0.8598 H   0  0  0  0  0  0  0  0  0  0  0  0
   -1.6599    2.0960   -0.8051 H   0  0  0  0  0  0  0  0  0  0  0  0
    4.8699   -0.3246   -0.6141 H   0  0  0  0  0  0  0  0  0  0  0  0
    0.2329   -1.5484    0.6040 H   0  0  0  0  0  0  0  0  0  0  0  0
    1.9309   -3.2617    0.4547 H   0  0  0  0  0  0  0  0  0  0  0  0
    4.3320   -3.8122    0.4821 H   0  0  0  0  0  0  0  0  0  0  0  0
    5.5435   -2.5952    0.0931 H   0  0  0  0  0  0  0  0  0  0  0  0
    4.5985   -3.3474   -1.2141 H   0  0  0  0  0  0  0  0  0  0  0  0
  1  8  2  0  0  0  0
  2 15  2  0  0  0  0
  3  9  1  0  0  0  0
  3 12  1  0  0  0  0
  3 15  1  0  0  0  0
  4  8  1  0  0  0  0
  4 14  1  0  0  0  0
  4 32  1  0  0  0  0
  5  6  1  0  0  0  0
  5  7  1  0  0  0  0
  5  8  1  0  0  0  0
  5 21  1  0  0  0  0
  6  7  1  0  0  0  0
  6 24  1  0  0  0  0
  6 25  1  0  0  0  0
  7 22  1  0  0  0  0
  7 23  1  0  0  0  0
  9 10  1  0  0  0  0
  9 26  1  0  0  0  0
  9 27  1  0  0  0  0
 10 11  1  0  0  0  0
 10 28  1  0  0  0  0
 10 29  1  0  0  0  0
 11 13  1  0  0  0  0
 11 30  1  0  0  0  0
 11 31  1  0  0  0  0
 12 13  2  0  0  0  0
 12 17  1  0  0  0  0
 13 16  1  0  0  0  0
 14 15  1  0  0  0  0
 14 33  1  0  0  0  0
 14 34  1  0  0  0  0
 16 18  2  0  0  0  0
 16 35  1  0  0  0  0
 17 19  2  0  0  0  0
 17 36  1  0  0  0  0
 18 19  1  0  0  0  0
 18 20  1  0  0  0  0
 19 37  1  0  0  0  0
 20 38  1  0  0  0  0
 20 39  1  0  0  0  0
 20 40  1  0  0  0  0
M  END
> <PUBCHEM_COMPOUND_CID>
47205805

> <PUBCHEM_CONFORMER_RMSD>
0.8

> <PUBCHEM_CONFORMER_DIVERSEORDER>
1
42
19
25
14
24
12
48
32
21
43
41
40
20
49
6
15
35
16
27
9
22
7
47
36
30
4
46
44
10
3
8
26
5
39
38
17
23
29
34
28
13
18
11
33
31
2
37
45

> <PUBCHEM_MMFF94_PARTIAL_CHARGES>
28
1 -0.57
11 0.14
12 0.12
13 -0.14
14 0.36
15 0.57
16 -0.15
17 -0.15
18 -0.14
19 -0.15
2 -0.57
20 0.14
21 0.1
22 0.1
23 0.1
24 0.1
25 0.1
3 -0.48
32 0.37
35 0.15
36 0.15
37 0.15
4 -0.73
5 -0.1
6 -0.2
7 -0.2
8 0.63
9 0.3

> <PUBCHEM_EFFECTIVE_ROTOR_COUNT>
6.4

> <PUBCHEM_PHARMACOPHORE_FEATURES>
5
1 1 acceptor
1 2 acceptor
1 4 donor
6 12 13 16 17 18 19 rings
6 3 9 10 11 12 13 rings

> <PUBCHEM_HEAVY_ATOM_COUNT>
20

> <PUBCHEM_ATOM_DEF_STEREO_COUNT>
0

> <PUBCHEM_ATOM_UDEF_STEREO_COUNT>
0

> <PUBCHEM_BOND_DEF_STEREO_COUNT>
0

> <PUBCHEM_BOND_UDEF_STEREO_COUNT>
0

> <PUBCHEM_ISOTOPIC_ATOM_COUNT>
0

> <PUBCHEM_COMPONENT_COUNT>
1

> <PUBCHEM_CACTVS_TAUTO_COUNT>
2

> <PUBCHEM_CONFORMER_ID>
02D04DAD00000001

> <PUBCHEM_MMFF94_ENERGY>
55.8679

> <PUBCHEM_FEATURE_SELFOVERLAP>
25.395

> <PUBCHEM_SHAPE_FINGERPRINT>
108634 29 17701813280982338755
11089746 13 12535345658531155422
11806522 49 18410855486356986008
12107183 9 18118672447961641881
12293681 25 17845356774376928203
12553582 1 18053386779575985058
12596599 1 17897429817072506932
12670546 177 17704068452334242661
13009979 54 17896027909919711720
14251757 17 18059570235776849923
14576447 43 18408882923747026836
14767858 380 18270380768997253590
15099037 8 18334855056427926545
15375462 189 17894632500773041521
15502722 9 18340488859223853893
17492 89 18409730668586989447
18186145 218 17632579383191314433
19141452 34 17903069272256984104
193927 3 18187358882633492639
20281475 54 18261111851198514553
20291156 8 18334580161256314359
20645477 70 18343584005904376368
20671657 53 18410290345548218092
20693207 138 18059855060827823503
21634736 98 18409451383932843038
21713013 43 18060425724674390359
221490 88 18413103961438742258
22393880 68 17917159389386688775
23379529 103 18261668298134412118
23402539 116 18124034795992560674
235170 7 17703525302454466863
23559900 14 18410583910905372465
23598288 3 17895190043679518617
2871803 45 18272094876995623503
312423 11 18334562568806798609
3323516 105 18272371932377120611
33824 294 18339643330914498784
46194498 28 17631735946483313493
5104073 3 18187928416803103025
5281201 14 18202284693125063085
53777708 50 18335975441507382577
5486654 36 18339069518977879521
602551 16 15430038721074616861
7970288 3 18194684989087702286
88748 71 18339637944666819859
9709674 26 18343298137461017059

> <PUBCHEM_SHAPE_MULTIPOLES>
389.89
10.02
3.24
0.99
8.49
0.08
-0.01
7.02
-1.49
-3.24
-0.08
0.76
0
-0.2

> <PUBCHEM_SHAPE_SELFOVERLAP>
821.458

> <PUBCHEM_SHAPE_VOLUME>
219.8

> <PUBCHEM_COORDINATE_TYPE>
2
5
10

$$$$

