443398
  -OEChem-07051213023D

 39 39  0     1  0  0  0  0  0999 V2000
    3.0742   -1.8820   -0.1896 S   0  0  0  0  0  0  0  0  0  0  0  0
   -1.6457    0.1798   -2.0254 O   0  0  0  0  0  0  0  0  0  0  0  0
    3.5192    1.8666    1.0436 O   0  0  0  0  0  0  0  0  0  0  0  0
    3.6042   -3.0470    0.4940 O   0  0  0  0  0  0  0  0  0  0  0  0
    2.1122   -2.0320   -1.2633 O   0  0  0  0  0  0  0  0  0  0  0  0
   -3.9453    0.0800   -0.2963 N   0  0  0  0  0  0  0  0  0  0  0  0
    2.5076   -0.7689    0.9950 N   0  0  0  0  0  0  0  0  0  0  0  0
   -1.7241    0.9833   -0.8488 C   0  0  1  0  0  0  0  0  0  0  0  0
   -2.5977    0.2954    0.2074 C   0  0  0  0  0  0  0  0  0  0  0  0
   -4.7758   -0.5780    0.7113 C   0  0  0  0  0  0  0  0  0  0  0  0
   -0.3183    1.2148   -0.3397 C   0  0  0  0  0  0  0  0  0  0  0  0
    0.4332    0.1332    0.0865 C   0  0  0  0  0  0  0  0  0  0  0  0
    1.7298    0.3467    0.5545 C   0  0  0  0  0  0  0  0  0  0  0  0
    0.1867    2.5032   -0.3124 C   0  0  0  0  0  0  0  0  0  0  0  0
   -4.1737   -1.9269    1.0945 C   0  0  0  0  0  0  0  0  0  0  0  0
   -6.1930   -0.7438    0.1720 C   0  0  0  0  0  0  0  0  0  0  0  0
    2.2549    1.6385    0.5891 C   0  0  0  0  0  0  0  0  0  0  0  0
    1.4833    2.7168    0.1555 C   0  0  0  0  0  0  0  0  0  0  0  0
    4.4682   -0.9798   -0.8278 C   0  0  0  0  0  0  0  0  0  0  0  0
   -2.1798    1.9381   -1.1398 H   0  0  0  0  0  0  0  0  0  0  0  0
   -2.6170    0.9006    1.1225 H   0  0  0  0  0  0  0  0  0  0  0  0
   -2.1368   -0.6670    0.4419 H   0  0  0  0  0  0  0  0  0  0  0  0
   -4.8377    0.0502    1.6092 H   0  0  0  0  0  0  0  0  0  0  0  0
   -4.3625    0.9730   -0.5573 H   0  0  0  0  0  0  0  0  0  0  0  0
    0.0306   -0.8752    0.0583 H   0  0  0  0  0  0  0  0  0  0  0  0
   -0.4040    3.3507   -0.6473 H   0  0  0  0  0  0  0  0  0  0  0  0
   -4.8978   -2.5155    1.6702 H   0  0  0  0  0  0  0  0  0  0  0  0
   -3.9049   -2.5196    0.2126 H   0  0  0  0  0  0  0  0  0  0  0  0
   -3.2914   -1.8257    1.7344 H   0  0  0  0  0  0  0  0  0  0  0  0
   -6.6325    0.2261   -0.0865 H   0  0  0  0  0  0  0  0  0  0  0  0
   -6.8414   -1.2104    0.9216 H   0  0  0  0  0  0  0  0  0  0  0  0
   -6.2098   -1.3731   -0.7250 H   0  0  0  0  0  0  0  0  0  0  0  0
    1.8796    3.7285    0.1768 H   0  0  0  0  0  0  0  0  0  0  0  0
    3.1863   -0.5336    1.7317 H   0  0  0  0  0  0  0  0  0  0  0  0
   -2.5563    0.0049   -2.3186 H   0  0  0  0  0  0  0  0  0  0  0  0
    4.9743   -1.6170   -1.5567 H   0  0  0  0  0  0  0  0  0  0  0  0
    4.1169   -0.0708   -1.3184 H   0  0  0  0  0  0  0  0  0  0  0  0
    5.1489   -0.7479   -0.0065 H   0  0  0  0  0  0  0  0  0  0  0  0
    3.7086    2.8191    0.9911 H   0  0  0  0  0  0  0  0  0  0  0  0
  1  4  2  0  0  0  0
  1  5  2  0  0  0  0
  1  7  1  0  0  0  0
  1 19  1  0  0  0  0
  2  8  1  0  0  0  0
  2 35  1  0  0  0  0
  3 17  1  0  0  0  0
  3 39  1  0  0  0  0
  6  9  1  0  0  0  0
  6 10  1  0  0  0  0
  6 24  1  0  0  0  0
  7 13  1  0  0  0  0
  7 34  1  0  0  0  0
  8  9  1  0  0  0  0
  8 11  1  0  0  0  0
  8 20  1  0  0  0  0
  9 21  1  0  0  0  0
  9 22  1  0  0  0  0
 10 15  1  0  0  0  0
 10 16  1  0  0  0  0
 10 23  1  0  0  0  0
 11 12  2  0  0  0  0
 11 14  1  0  0  0  0
 12 13  1  0  0  0  0
 12 25  1  0  0  0  0
 13 17  2  0  0  0  0
 14 18  2  0  0  0  0
 14 26  1  0  0  0  0
 15 27  1  0  0  0  0
 15 28  1  0  0  0  0
 15 29  1  0  0  0  0
 16 30  1  0  0  0  0
 16 31  1  0  0  0  0
 16 32  1  0  0  0  0
 17 18  1  0  0  0  0
 18 33  1  0  0  0  0
 19 36  1  0  0  0  0
 19 37  1  0  0  0  0
 19 38  1  0  0  0  0
M  END
> <PUBCHEM_COMPOUND_CID>
443398

> <PUBCHEM_CONFORMER_RMSD>
0.8

> <PUBCHEM_CONFORMER_DIVERSEORDER>
1
89
155
87
62
189
169
133
92
171
191
80
61
39
188
118
116
145
75
165
47
144
45
107
121
167
175
166
8
58
117
174
162
74
187
31
170
48
114
150
140
73
90
37
159
77
105
100
190
95
119
24
41
93
96
99
32
149
115
46
70
141
63
168
164
78
102
158
38
67
163
120
15
20
186
183
5
147
181
101
13
72
161
179
152
143
85
103
104
36
68
111
182
84
110
108
154
124
25
83
40
184
76
157
18
29
79
132
30
138
2
109
94
60
173
17
142
50
172
178
128
123
177
65
160
52
3
11
54
139
44
97
126
49
176
88
71
106
112
125
42
57
9
19
34
180
135
153
51
27
22
66
91
127
146
156
43
6
28
122
12
59
130
35
21
86
129
81
148
98
185
55
23
134
14
7
53
26
56
16
10
82
113
4
69
64
136
131
33
137
151

> <PUBCHEM_MMFF94_PARTIAL_CHARGES>
24
1 1.33
10 0.27
11 -0.14
12 -0.15
13 0.2
14 -0.15
17 0.08
18 -0.15
19 0.11
2 -0.68
24 0.36
25 0.15
26 0.15
3 -0.53
33 0.15
34 0.42
35 0.4
39 0.45
4 -0.65
5 -0.65
6 -0.9
7 -0.76
8 0.42
9 0.27

> <PUBCHEM_EFFECTIVE_ROTOR_COUNT>
6

> <PUBCHEM_PHARMACOPHORE_FEATURES>
10
1 2 acceptor
1 2 donor
1 3 donor
1 4 acceptor
1 5 acceptor
1 6 cation
1 6 donor
1 7 donor
3 10 15 16 hydrophobe
6 11 12 13 14 17 18 rings

> <PUBCHEM_HEAVY_ATOM_COUNT>
19

> <PUBCHEM_ATOM_DEF_STEREO_COUNT>
1

> <PUBCHEM_ATOM_UDEF_STEREO_COUNT>
0

> <PUBCHEM_BOND_DEF_STEREO_COUNT>
0

> <PUBCHEM_BOND_UDEF_STEREO_COUNT>
0

> <PUBCHEM_ISOTOPIC_ATOM_COUNT>
0

> <PUBCHEM_COMPONENT_COUNT>
1

> <PUBCHEM_CACTVS_TAUTO_COUNT>
3

> <PUBCHEM_CONFORMER_ID>
0006C40600000001

> <PUBCHEM_MMFF94_ENERGY>
37.9826

> <PUBCHEM_FEATURE_SELFOVERLAP>
50.767

> <PUBCHEM_SHAPE_FINGERPRINT>
114674 6 18272936007327650763
11595378 159 16009019597279340899
117890 22 18341888546553966339
12107183 9 18118957230031587017
12507560 40 18334860524169389261
12553582 1 18188502388054289518
12596602 18 16588028961659546147
12841375 25 18411697711820789740
12892183 10 18187925037254957137
13103583 49 18115291406366037547
13140716 1 17976271131650912400
13464513 79 18333447655843128118
13533116 47 18334293133509427915
13544592 145 18131071537413780659
13583140 156 17678178179627153787
13911882 115 18270392768107119682
13955234 65 18263643978615808616
14211702 104 17842265979706896483
14251764 30 17969208105209001150
14252887 29 18412829057841362865
14341114 176 18336538353238179745
14790565 3 17620186534063366844
14863182 85 18341329977498770444
14866123 147 17690280830278430113
15422964 175 18342463625173336485
15475509 84 17822848809547949617
15527383 91 18260544550063381513
17959699 21 10375878476439608383
1813 80 18115295791263973996
20397935 70 18338792313599905707
20403669 9 18340203085412472699
20645477 56 7637398541085853413
20645477 70 18339935826877128135
20693207 138 18202847677411751383
20871998 22 18412829105006959437
21041028 32 18114181994337938784
2215653 11 18343871017959107847
22224240 67 18117007576566512560
22950370 63 18266168603489476966
23466295 7 16526634749168319734
23557571 272 17346325902981537245
23559900 14 18341051831248191353
239999 70 18202002083986666985
2748010 2 18121809324196829988
31174 14 18411424990029814717
3421961 26 18409730672649614554
465052 167 18261105288029953295
9709674 26 18127968616758173931

> <PUBCHEM_SHAPE_MULTIPOLES>
361.42
10.27
2.94
1.16
13.49
0.16
-0.3
6.71
1.49
-3.32
0.26
-0.02
0.12
1.33

> <PUBCHEM_SHAPE_SELFOVERLAP>
717.424

> <PUBCHEM_SHAPE_VOLUME>
216.5

> <PUBCHEM_COORDINATE_TYPE>
2
5
10

$$$$

