440227
  -OEChem-07051212493D

 26 25  0     1  0  0  0  0  0999 V2000
    3.9017   -0.2634   -0.1087 P   0  0  0  0  0  0  0  0  0  0  0  0
    2.4845    0.4982   -0.3114 O   0  0  0  0  0  0  0  0  0  0  0  0
   -2.3919   -1.8091   -0.7185 O   0  0  0  0  0  0  0  0  0  0  0  0
    0.1674    1.8084   -0.7123 O   0  0  0  0  0  0  0  0  0  0  0  0
   -4.2633   -1.5065    0.5280 O   0  0  0  0  0  0  0  0  0  0  0  0
    3.5397   -1.8188   -0.3638 O   0  0  0  0  0  0  0  0  0  0  0  0
    4.1297   -0.1921    1.4907 O   0  0  0  0  0  0  0  0  0  0  0  0
    5.0324    0.2761   -0.9348 O   0  0  0  0  0  0  0  0  0  0  0  0
   -0.9679    0.4812    0.8251 N   0  0  0  0  0  0  0  0  0  0  0  0
   -4.4322    1.0693   -0.4266 N   0  0  0  0  0  0  0  0  0  0  0  0
   -2.2595    1.1054    0.7056 C   0  0  0  0  0  0  0  0  0  0  0  0
   -3.1122    0.4442   -0.3784 C   0  0  1  0  0  0  0  0  0  0  0  0
    0.1451    0.8883    0.1006 C   0  0  0  0  0  0  0  0  0  0  0  0
    1.3662    0.0552    0.4276 C   0  0  0  0  0  0  0  0  0  0  0  0
   -3.3397   -1.0362   -0.1231 C   0  0  0  0  0  0  0  0  0  0  0  0
   -2.7396    1.0161    1.6872 H   0  0  0  0  0  0  0  0  0  0  0  0
   -2.1221    2.1715    0.4907 H   0  0  0  0  0  0  0  0  0  0  0  0
   -2.6402    0.5577   -1.3617 H   0  0  0  0  0  0  0  0  0  0  0  0
   -0.8777   -0.2993    1.4693 H   0  0  0  0  0  0  0  0  0  0  0  0
    1.5711    0.1431    1.4992 H   0  0  0  0  0  0  0  0  0  0  0  0
    1.1496   -0.9893    0.1820 H   0  0  0  0  0  0  0  0  0  0  0  0
   -4.9604    0.6959   -1.2147 H   0  0  0  0  0  0  0  0  0  0  0  0
   -4.3317    2.0685   -0.6017 H   0  0  0  0  0  0  0  0  0  0  0  0
   -2.5443   -2.7643   -0.5550 H   0  0  0  0  0  0  0  0  0  0  0  0
    4.2642   -2.4800   -0.3685 H   0  0  0  0  0  0  0  0  0  0  0  0
    4.9788   -0.5115    1.8637 H   0  0  0  0  0  0  0  0  0  0  0  0
  1  2  1  0  0  0  0
  1  6  1  0  0  0  0
  1  7  1  0  0  0  0
  1  8  2  0  0  0  0
  2 14  1  0  0  0  0
  3 15  1  0  0  0  0
  3 24  1  0  0  0  0
  4 13  2  0  0  0  0
  5 15  2  0  0  0  0
  6 25  1  0  0  0  0
  7 26  1  0  0  0  0
  9 11  1  0  0  0  0
  9 13  1  0  0  0  0
  9 19  1  0  0  0  0
 10 12  1  0  0  0  0
 10 22  1  0  0  0  0
 10 23  1  0  0  0  0
 11 12  1  0  0  0  0
 11 16  1  0  0  0  0
 11 17  1  0  0  0  0
 12 15  1  0  0  0  0
 12 18  1  0  0  0  0
 13 14  1  0  0  0  0
 14 20  1  0  0  0  0
 14 21  1  0  0  0  0
M  END
> <PUBCHEM_COMPOUND_CID>
440227

> <PUBCHEM_CONFORMER_RMSD>
0.8

> <PUBCHEM_CONFORMER_DIVERSEORDER>
1
40
4
31
22
68
23
29
66
64
71
36
13
19
12
51
54
26
42
53
32
41
21
57
8
62
38
7
50
37
70
44
18
43
55
2
69
59
49
35
14
56
33
52
17
28
15
72
5
48
65
30
25
24
63
58
46
45
16
27
3
20
11
9
10
61
39
47
34
6
60
67

> <PUBCHEM_MMFF94_PARTIAL_CHARGES>
21
1 1.51
10 -0.99
11 0.3
12 0.33
13 0.57
14 0.34
15 0.66
19 0.37
2 -0.55
22 0.36
23 0.36
24 0.5
25 0.5
26 0.5
3 -0.65
4 -0.57
5 -0.57
6 -0.77
7 -0.77
8 -0.7
9 -0.73

> <PUBCHEM_EFFECTIVE_ROTOR_COUNT>
7

> <PUBCHEM_PHARMACOPHORE_FEATURES>
11
1 10 cation
1 10 donor
1 3 acceptor
1 4 acceptor
1 5 acceptor
1 6 acceptor
1 7 acceptor
1 8 acceptor
1 9 donor
3 3 5 15 anion
4 1 6 7 8 anion

> <PUBCHEM_HEAVY_ATOM_COUNT>
15

> <PUBCHEM_ATOM_DEF_STEREO_COUNT>
1

> <PUBCHEM_ATOM_UDEF_STEREO_COUNT>
0

> <PUBCHEM_BOND_DEF_STEREO_COUNT>
0

> <PUBCHEM_BOND_UDEF_STEREO_COUNT>
0

> <PUBCHEM_ISOTOPIC_ATOM_COUNT>
0

> <PUBCHEM_COMPONENT_COUNT>
1

> <PUBCHEM_CACTVS_TAUTO_COUNT>
2

> <PUBCHEM_CONFORMER_ID>
0006B7A300000001

> <PUBCHEM_MMFF94_ENERGY>
-19.4832

> <PUBCHEM_FEATURE_SELFOVERLAP>
55.913

> <PUBCHEM_SHAPE_FINGERPRINT>
12916748 109 10087634922979890876
14251710 61 18338230475425796547
14251718 22 18341045234146685100
15242433 33 18411416241138949014
17834072 33 18339073801239985180
17834074 16 18187365454202227278
18186145 218 13110963162667483280
20281407 28 18334858337761594656
20281475 54 18410289255032784824
20645477 70 15626225771131414704
20871999 31 18201722847104648757
212847 35 7853858287113040210
22485316 2 18411139155877388012
23402539 116 17846221072674437396
23402655 69 18059856211668166148
23532345 42 18408610232068198200
23557571 272 17968651752335986204
23559900 14 18187090529140574056
351380 180 9871751277943265054
90127 26 16515684463837660248

> <PUBCHEM_SHAPE_MULTIPOLES>
261.5
10.18
1.61
0.94
4.71
0.47
-0.16
2.47
0.67
-1.05
0.22
0.49
-0.05
0

> <PUBCHEM_SHAPE_SELFOVERLAP>
491.391

> <PUBCHEM_SHAPE_VOLUME>
162

> <PUBCHEM_COORDINATE_TYPE>
2
5
10

$$$$

