5282247
  -OEChem-07051213042D

 46 47  0     1  0  0  0  0  0999 V2000
    5.1350    3.7500    0.0000 O   0  0  0  0  0  0  0  0  0  0  0  0
    7.7331    1.2500    0.0000 N   0  0  0  0  0  0  0  0  0  0  0  0
    6.8671    1.7500    0.0000 C   0  0  1  0  0  0  0  0  0  0  0  0
    6.0010    2.2500    0.0000 C   0  0  1  0  0  0  0  0  0  0  0  0
    7.7331    2.2500    0.0000 C   0  0  0  0  0  0  0  0  0  0  0  0
    6.0010    1.2500    0.0000 C   0  0  0  0  0  0  0  0  0  0  0  0
    6.0010    3.2500    0.0000 C   0  0  2  0  0  0  0  0  0  0  0  0
    7.7331    0.2500    0.0000 C   0  0  1  0  0  0  0  0  0  0  0  0
    7.7331    3.2500    0.0000 C   0  0  0  0  0  0  0  0  0  0  0  0
    6.0010    0.2500    0.0000 C   0  0  0  0  0  0  0  0  0  0  0  0
    6.8671    3.7500    0.0000 C   0  0  0  0  0  0  0  0  0  0  0  0
    6.8671   -0.2500    0.0000 C   0  0  0  0  0  0  0  0  0  0  0  0
    5.1350    1.7500    0.0000 C   0  0  0  0  0  0  0  0  0  0  0  0
    8.5991   -0.2500    0.0000 C   0  0  0  0  0  0  0  0  0  0  0  0
    4.2690    2.2500    0.0000 C   0  0  0  0  0  0  0  0  0  0  0  0
    8.5991   -1.2500    0.0000 C   0  0  0  0  0  0  0  0  0  0  0  0
    9.4651   -1.7500    0.0000 C   0  0  0  0  0  0  0  0  0  0  0  0
    3.4030    1.7500    0.0000 C   0  0  0  0  0  0  0  0  0  0  0  0
    9.4651   -2.7500    0.0000 C   0  0  0  0  0  0  0  0  0  0  0  0
    2.5369    1.2500    0.0000 C   0  0  0  0  0  0  0  0  0  0  0  0
    9.4651   -3.7500    0.0000 C   0  0  0  0  0  0  0  0  0  0  0  0
    5.4641    2.5600    0.0000 H   0  0  0  0  0  0  0  0  0  0  0  0
    7.9451    1.6674    0.0000 H   0  0  0  0  0  0  0  0  0  0  0  0
    8.3437    2.3577    0.0000 H   0  0  0  0  0  0  0  0  0  0  0  0
    5.7890    1.8326    0.0000 H   0  0  0  0  0  0  0  0  0  0  0  0
    5.3905    1.1423    0.0000 H   0  0  0  0  0  0  0  0  0  0  0  0
    8.2700    1.5600    0.0000 H   0  0  0  0  0  0  0  0  0  0  0  0
    5.4641    2.9400    0.0000 H   0  0  0  0  0  0  0  0  0  0  0  0
    8.2700    0.5600    0.0000 H   0  0  0  0  0  0  0  0  0  0  0  0
    8.3437    3.1423    0.0000 H   0  0  0  0  0  0  0  0  0  0  0  0
    7.9451    3.8326    0.0000 H   0  0  0  0  0  0  0  0  0  0  0  0
    5.3905    0.3577    0.0000 H   0  0  0  0  0  0  0  0  0  0  0  0
    5.7890   -0.3326    0.0000 H   0  0  0  0  0  0  0  0  0  0  0  0
    7.2656    4.2250    0.0000 H   0  0  0  0  0  0  0  0  0  0  0  0
    6.4685    4.2250    0.0000 H   0  0  0  0  0  0  0  0  0  0  0  0
    6.4685   -0.7249    0.0000 H   0  0  0  0  0  0  0  0  0  0  0  0
    7.2656   -0.7249    0.0000 H   0  0  0  0  0  0  0  0  0  0  0  0
    5.1350    1.1300    0.0000 H   0  0  0  0  0  0  0  0  0  0  0  0
    9.2097   -0.3577    0.0000 H   0  0  0  0  0  0  0  0  0  0  0  0
    8.8112    0.3326    0.0000 H   0  0  0  0  0  0  0  0  0  0  0  0
    5.1350    4.3700    0.0000 H   0  0  0  0  0  0  0  0  0  0  0  0
    4.2690    2.8700    0.0000 H   0  0  0  0  0  0  0  0  0  0  0  0
    8.0622   -1.5600    0.0000 H   0  0  0  0  0  0  0  0  0  0  0  0
   10.0021   -1.4400    0.0000 H   0  0  0  0  0  0  0  0  0  0  0  0
    2.0000    0.9400    0.0000 H   0  0  0  0  0  0  0  0  0  0  0  0
    9.4651   -4.3700    0.0000 H   0  0  0  0  0  0  0  0  0  0  0  0
  7  1  1  1  0  0  0
  1 41  1  0  0  0  0
  3  2  1  1  0  0  0
  2  8  1  0  0  0  0
  2 27  1  0  0  0  0
  3  4  1  0  0  0  0
  3  5  1  0  0  0  0
  3  6  1  0  0  0  0
  4  7  1  0  0  0  0
  4 13  1  6  0  0  0
  4 22  1  0  0  0  0
  5  9  1  0  0  0  0
  5 23  1  0  0  0  0
  5 24  1  0  0  0  0
  6 10  1  0  0  0  0
  6 25  1  0  0  0  0
  6 26  1  0  0  0  0
  7 11  1  0  0  0  0
  7 28  1  0  0  0  0
  8 12  1  0  0  0  0
  8 14  1  6  0  0  0
  8 29  1  0  0  0  0
  9 11  1  0  0  0  0
  9 30  1  0  0  0  0
  9 31  1  0  0  0  0
 10 12  1  0  0  0  0
 10 32  1  0  0  0  0
 10 33  1  0  0  0  0
 11 34  1  0  0  0  0
 11 35  1  0  0  0  0
 12 36  1  0  0  0  0
 12 37  1  0  0  0  0
 13 15  2  0  0  0  0
 13 38  1  0  0  0  0
 14 16  1  0  0  0  0
 14 39  1  0  0  0  0
 14 40  1  0  0  0  0
 15 18  1  0  0  0  0
 15 42  1  0  0  0  0
 16 17  2  0  0  0  0
 16 43  1  0  0  0  0
 17 19  1  0  0  0  0
 17 44  1  0  0  0  0
 18 20  3  0  0  0  0
 19 21  3  0  0  0  0
 20 45  1  0  0  0  0
 21 46  1  0  0  0  0
M  END
> <PUBCHEM_COMPOUND_CID>
5282247

> <PUBCHEM_COMPOUND_CANONICALIZED>
1

> <PUBCHEM_CACTVS_COMPLEXITY>
500

> <PUBCHEM_CACTVS_HBOND_ACCEPTOR>
2

> <PUBCHEM_CACTVS_HBOND_DONOR>
2

> <PUBCHEM_CACTVS_ROTATABLE_BOND>
3

> <PUBCHEM_CACTVS_SUBSKEYS>
AAADceB6IAAAAAAAAAAAAAAAAAAAAAAAAAA8QAAAAAAAAAAAAAAAHgAQCAAADbzhgAYAAALAAgDAGCBCAAAAAAAgAAAICIAIAAgAEAIAgQAEQAAG0ACIAAOQ0PMOgAAAAAAAAAAAAAIEADQAAAAAAAAAAA==

> <PUBCHEM_IUPAC_OPENEYE_NAME>
(2S,6R,10S,11S)-11-[(E)-but-1-en-3-ynyl]-2-[(E)-pent-2-en-4-ynyl]-1-azaspiro[5.5]undecan-10-ol

> <PUBCHEM_IUPAC_CAS_NAME>
(2S,6R,10S,11S)-11-[(E)-but-1-en-3-ynyl]-2-[(E)-pent-2-en-4-ynyl]-1-azaspiro[5.5]undecan-10-ol

> <PUBCHEM_IUPAC_NAME>
(2S,6R,10S,11S)-11-[(E)-but-1-en-3-ynyl]-2-[(E)-pent-2-en-4-ynyl]-1-azaspiro[5.5]undecan-10-ol

> <PUBCHEM_IUPAC_SYSTEMATIC_NAME>
(2S,6R,10S,11S)-11-[(E)-but-1-en-3-ynyl]-2-[(E)-pent-2-en-4-ynyl]-1-azaspiro[5.5]undecan-10-ol

> <PUBCHEM_IUPAC_TRADITIONAL_NAME>
(2S,6R,10S,11S)-11-[(E)-but-1-en-3-ynyl]-2-[(E)-pent-2-en-4-ynyl]-1-azaspiro[5.5]undecan-10-ol

> <PUBCHEM_IUPAC_INCHI>
InChI=1S/C19H25NO/c1-3-5-7-10-16-11-8-14-19(20-16)15-9-13-18(21)17(19)12-6-4-2/h1-2,5-7,12,16-18,20-21H,8-11,13-15H2/b7-5+,12-6+/t16-,17-,18+,19-/m1/s1

> <PUBCHEM_IUPAC_INCHIKEY>
JBRYWENFVHQBGY-GFSCOHCQSA-N

> <PUBCHEM_XLOGP3_AA>
3.1

> <PUBCHEM_EXACT_MASS>
283.193614

> <PUBCHEM_MOLECULAR_FORMULA>
C19H25NO

> <PUBCHEM_MOLECULAR_WEIGHT>
283.4079

> <PUBCHEM_OPENEYE_CAN_SMILES>
C#CC=CCC1CCCC2(N1)CCCC(C2C=CC#C)O

> <PUBCHEM_OPENEYE_ISO_SMILES>
C#C/C=C/C[C@@H]1CCC[C@@]2(N1)CCC[C@@H]([C@H]2/C=C/C#C)O

> <PUBCHEM_CACTVS_TPSA>
32.3

> <PUBCHEM_MONOISOTOPIC_WEIGHT>
283.193614

> <PUBCHEM_TOTAL_CHARGE>
0

> <PUBCHEM_HEAVY_ATOM_COUNT>
21

> <PUBCHEM_ATOM_DEF_STEREO_COUNT>
4

> <PUBCHEM_ATOM_UDEF_STEREO_COUNT>
0

> <PUBCHEM_BOND_DEF_STEREO_COUNT>
2

> <PUBCHEM_BOND_UDEF_STEREO_COUNT>
0

> <PUBCHEM_ISOTOPIC_ATOM_COUNT>
0

> <PUBCHEM_COMPONENT_COUNT>
1

> <PUBCHEM_CACTVS_TAUTO_COUNT>
1

> <PUBCHEM_COORDINATE_TYPE>
1
5
255

> <PUBCHEM_BONDANNOTATIONS>
7  1  5
3  2  5
4  13  6
8  14  6

$$$$

