120704
  -OEChem-07051212563D

 84 89  0     1  0  0  0  0  0999 V2000
    3.8894    1.6787    0.1617 O   0  0  0  0  0  0  0  0  0  0  0  0
    0.8512   -2.7805   -1.3576 O   0  0  0  0  0  0  0  0  0  0  0  0
   -3.9295   -0.1693    0.2211 O   0  0  0  0  0  0  0  0  0  0  0  0
    8.4641   -0.0721   -0.2565 O   0  0  0  0  0  0  0  0  0  0  0  0
   -5.6467   -0.7581    1.7527 O   0  0  0  0  0  0  0  0  0  0  0  0
    8.7385    1.9462    0.8147 O   0  0  0  0  0  0  0  0  0  0  0  0
   -7.7377    1.9313   -0.5970 O   0  0  0  0  0  0  0  0  0  0  0  0
   -8.3968   -0.8733   -0.6921 O   0  0  0  0  0  0  0  0  0  0  0  0
    3.1160    0.4708    0.2415 C   0  0  1  0  0  0  0  0  0  0  0  0
    1.7344    0.7901   -0.3923 C   0  0  1  0  0  0  0  0  0  0  0  0
    0.8136   -0.4557   -0.5960 C   0  0  1  0  0  0  0  0  0  0  0  0
    3.8706   -0.6874   -0.4589 C   0  0  2  0  0  0  0  0  0  0  0  0
   -0.5765   -0.0523   -1.2601 C   0  0  2  0  0  0  0  0  0  0  0  0
   -1.2481    1.0894   -0.4228 C   0  0  2  0  0  0  0  0  0  0  0  0
    1.5998   -1.5677   -1.3365 C   0  0  1  0  0  0  0  0  0  0  0  0
    2.9250   -1.8979   -0.6450 C   0  0  0  0  0  0  0  0  0  0  0  0
    4.9723   -1.0856    0.5772 C   0  0  2  0  0  0  0  0  0  0  0  0
    1.0194    1.9102    0.3890 C   0  0  0  0  0  0  0  0  0  0  0  0
    3.0641    0.0245    1.7122 C   0  0  0  0  0  0  0  0  0  0  0  0
   -0.3177    2.2926   -0.2296 C   0  0  0  0  0  0  0  0  0  0  0  0
    4.3526   -0.7730    1.9558 C   0  0  0  0  0  0  0  0  0  0  0  0
   -1.6100   -1.2147   -1.3492 C   0  0  0  0  0  0  0  0  0  0  0  0
   -1.7745    0.5941    0.9477 C   0  0  0  0  0  0  0  0  0  0  0  0
    4.4502   -0.2913   -1.8310 C   0  0  0  0  0  0  0  0  0  0  0  0
   -0.3685    0.4325   -2.7198 C   0  0  0  0  0  0  0  0  0  0  0  0
   -2.0911   -1.7251    0.0071 C   0  0  0  0  0  0  0  0  0  0  0  0
   -2.7144   -0.6023    0.8302 C   0  0  2  0  0  0  0  0  0  0  0  0
    6.3056   -0.4125    0.4262 C   0  0  0  0  0  0  0  0  0  0  0  0
    7.3932   -1.0150   -0.3712 C   0  0  0  0  0  0  0  0  0  0  0  0
    6.6825    0.7493    0.9534 C   0  0  0  0  0  0  0  0  0  0  0  0
   -4.8601    0.2961    1.1941 C   0  0  2  0  0  0  0  0  0  0  0  0
    8.0628    0.9749    0.5218 C   0  0  0  0  0  0  0  0  0  0  0  0
   -5.7419    1.4185    0.6524 C   0  0  0  0  0  0  0  0  0  0  0  0
   -6.8001    0.8941   -0.3165 C   0  0  1  0  0  0  0  0  0  0  0  0
   -6.5602   -1.3444    0.8219 C   0  0  2  0  0  0  0  0  0  0  0  0
   -7.5444   -0.2943    0.2928 C   0  0  2  0  0  0  0  0  0  0  0  0
   -7.2838   -2.4774    1.5435 C   0  0  0  0  0  0  0  0  0  0  0  0
   -7.1032    3.0568   -1.1852 C   0  0  0  0  0  0  0  0  0  0  0  0
    1.9521    1.2109   -1.3828 H   0  0  0  0  0  0  0  0  0  0  0  0
    0.5766   -0.8579    0.3962 H   0  0  0  0  0  0  0  0  0  0  0  0
   -2.1223    1.4552   -0.9811 H   0  0  0  0  0  0  0  0  0  0  0  0
    1.7851   -1.2775   -2.3747 H   0  0  0  0  0  0  0  0  0  0  0  0
    2.6981   -2.3701    0.3211 H   0  0  0  0  0  0  0  0  0  0  0  0
    3.4401   -2.6860   -1.2121 H   0  0  0  0  0  0  0  0  0  0  0  0
    5.1631   -2.1668    0.5311 H   0  0  0  0  0  0  0  0  0  0  0  0
    1.6378    2.8145    0.4157 H   0  0  0  0  0  0  0  0  0  0  0  0
    0.8682    1.6120    1.4321 H   0  0  0  0  0  0  0  0  0  0  0  0
    2.2042   -0.6218    1.9160 H   0  0  0  0  0  0  0  0  0  0  0  0
    3.0122    0.8685    2.4087 H   0  0  0  0  0  0  0  0  0  0  0  0
   -0.8055    3.0457    0.4016 H   0  0  0  0  0  0  0  0  0  0  0  0
   -0.1411    2.7831   -1.1942 H   0  0  0  0  0  0  0  0  0  0  0  0
    5.0129   -0.2506    2.6551 H   0  0  0  0  0  0  0  0  0  0  0  0
    4.0898   -1.7134    2.4578 H   0  0  0  0  0  0  0  0  0  0  0  0
   -1.2333   -2.0476   -1.9482 H   0  0  0  0  0  0  0  0  0  0  0  0
   -2.4911   -0.8615   -1.9048 H   0  0  0  0  0  0  0  0  0  0  0  0
   -0.9412    0.3101    1.5994 H   0  0  0  0  0  0  0  0  0  0  0  0
   -2.2820    1.4304    1.4428 H   0  0  0  0  0  0  0  0  0  0  0  0
    3.6617    0.0111   -2.5276 H   0  0  0  0  0  0  0  0  0  0  0  0
    5.1444    0.5525   -1.7709 H   0  0  0  0  0  0  0  0  0  0  0  0
    4.9783   -1.1333   -2.2912 H   0  0  0  0  0  0  0  0  0  0  0  0
   -1.3080    0.8065   -3.1442 H   0  0  0  0  0  0  0  0  0  0  0  0
    0.3603    1.2416   -2.8047 H   0  0  0  0  0  0  0  0  0  0  0  0
   -0.0316   -0.3840   -3.3672 H   0  0  0  0  0  0  0  0  0  0  0  0
   -2.8385   -2.5094   -0.1636 H   0  0  0  0  0  0  0  0  0  0  0  0
   -1.2620   -2.1824    0.5574 H   0  0  0  0  0  0  0  0  0  0  0  0
   -2.9228   -1.0099    1.8286 H   0  0  0  0  0  0  0  0  0  0  0  0
    3.6232    2.2708    0.8842 H   0  0  0  0  0  0  0  0  0  0  0  0
    1.3502   -3.4273   -1.8851 H   0  0  0  0  0  0  0  0  0  0  0  0
    7.7225   -1.9743    0.0389 H   0  0  0  0  0  0  0  0  0  0  0  0
    7.1434   -1.1328   -1.4277 H   0  0  0  0  0  0  0  0  0  0  0  0
    6.1321    1.4320    1.5767 H   0  0  0  0  0  0  0  0  0  0  0  0
   -4.3153    0.7355    2.0389 H   0  0  0  0  0  0  0  0  0  0  0  0
   -5.1012    2.1639    0.1684 H   0  0  0  0  0  0  0  0  0  0  0  0
   -6.2491    1.9174    1.4887 H   0  0  0  0  0  0  0  0  0  0  0  0
   -6.3348    0.5811   -1.2609 H   0  0  0  0  0  0  0  0  0  0  0  0
   -5.9935   -1.7895   -0.0062 H   0  0  0  0  0  0  0  0  0  0  0  0
   -8.1888    0.0655    1.1045 H   0  0  0  0  0  0  0  0  0  0  0  0
   -7.8468   -2.0971    2.4031 H   0  0  0  0  0  0  0  0  0  0  0  0
   -7.9726   -3.0061    0.8782 H   0  0  0  0  0  0  0  0  0  0  0  0
   -6.5603   -3.1994    1.9378 H   0  0  0  0  0  0  0  0  0  0  0  0
   -7.8364   -1.2102   -1.4118 H   0  0  0  0  0  0  0  0  0  0  0  0
   -6.4001    2.7657   -1.9723 H   0  0  0  0  0  0  0  0  0  0  0  0
   -6.6089    3.6703   -0.4267 H   0  0  0  0  0  0  0  0  0  0  0  0
   -7.8815    3.6756   -1.6418 H   0  0  0  0  0  0  0  0  0  0  0  0
  1  9  1  0  0  0  0
  1 67  1  0  0  0  0
  2 15  1  0  0  0  0
  2 68  1  0  0  0  0
  3 27  1  0  0  0  0
  3 31  1  0  0  0  0
  4 29  1  0  0  0  0
  4 32  1  0  0  0  0
  5 31  1  0  0  0  0
  5 35  1  0  0  0  0
  6 32  2  0  0  0  0
  7 34  1  0  0  0  0
  7 38  1  0  0  0  0
  8 36  1  0  0  0  0
  8 81  1  0  0  0  0
  9 10  1  0  0  0  0
  9 12  1  0  0  0  0
  9 19  1  0  0  0  0
 10 11  1  0  0  0  0
 10 18  1  0  0  0  0
 10 39  1  0  0  0  0
 11 13  1  0  0  0  0
 11 15  1  0  0  0  0
 11 40  1  0  0  0  0
 12 16  1  0  0  0  0
 12 17  1  0  0  0  0
 12 24  1  0  0  0  0
 13 14  1  0  0  0  0
 13 22  1  0  0  0  0
 13 25  1  0  0  0  0
 14 20  1  0  0  0  0
 14 23  1  0  0  0  0
 14 41  1  0  0  0  0
 15 16  1  0  0  0  0
 15 42  1  0  0  0  0
 16 43  1  0  0  0  0
 16 44  1  0  0  0  0
 17 21  1  0  0  0  0
 17 28  1  0  0  0  0
 17 45  1  0  0  0  0
 18 20  1  0  0  0  0
 18 46  1  0  0  0  0
 18 47  1  0  0  0  0
 19 21  1  0  0  0  0
 19 48  1  0  0  0  0
 19 49  1  0  0  0  0
 20 50  1  0  0  0  0
 20 51  1  0  0  0  0
 21 52  1  0  0  0  0
 21 53  1  0  0  0  0
 22 26  1  0  0  0  0
 22 54  1  0  0  0  0
 22 55  1  0  0  0  0
 23 27  1  0  0  0  0
 23 56  1  0  0  0  0
 23 57  1  0  0  0  0
 24 58  1  0  0  0  0
 24 59  1  0  0  0  0
 24 60  1  0  0  0  0
 25 61  1  0  0  0  0
 25 62  1  0  0  0  0
 25 63  1  0  0  0  0
 26 27  1  0  0  0  0
 26 64  1  0  0  0  0
 26 65  1  0  0  0  0
 27 66  1  0  0  0  0
 28 29  1  0  0  0  0
 28 30  2  0  0  0  0
 29 69  1  0  0  0  0
 29 70  1  0  0  0  0
 30 32  1  0  0  0  0
 30 71  1  0  0  0  0
 31 33  1  0  0  0  0
 31 72  1  0  0  0  0
 33 34  1  0  0  0  0
 33 73  1  0  0  0  0
 33 74  1  0  0  0  0
 34 36  1  0  0  0  0
 34 75  1  0  0  0  0
 35 36  1  0  0  0  0
 35 37  1  0  0  0  0
 35 76  1  0  0  0  0
 36 77  1  0  0  0  0
 37 78  1  0  0  0  0
 37 79  1  0  0  0  0
 37 80  1  0  0  0  0
 38 82  1  0  0  0  0
 38 83  1  0  0  0  0
 38 84  1  0  0  0  0
M  END
> <PUBCHEM_COMPOUND_CID>
120704

> <PUBCHEM_CONFORMER_RMSD>
1

> <PUBCHEM_CONFORMER_DIVERSEORDER>
1
21
26
31
23
24
4
33
13
35
6
30
10
22
14
34
7
18
32
8
20
25
17
2
16
28
9
36
5
19
27
29
12
15
11
3

> <PUBCHEM_MMFF94_PARTIAL_CHARGES>
25
1 -0.68
15 0.28
17 0.14
2 -0.68
27 0.28
28 -0.28
29 0.42
3 -0.56
30 -0.14
31 0.56
32 0.71
34 0.28
35 0.28
36 0.28
38 0.28
4 -0.43
5 -0.56
6 -0.57
67 0.4
68 0.4
7 -0.56
71 0.15
8 -0.68
81 0.4
9 0.28

> <PUBCHEM_EFFECTIVE_ROTOR_COUNT>
7.8

> <PUBCHEM_PHARMACOPHORE_FEATURES>
16
1 1 acceptor
1 1 donor
1 2 acceptor
1 2 donor
1 3 acceptor
1 5 acceptor
1 6 acceptor
1 7 acceptor
1 8 acceptor
1 8 donor
5 4 28 29 30 32 rings
5 9 12 17 19 21 rings
6 10 11 13 14 18 20 rings
6 13 14 22 23 26 27 rings
6 5 31 33 34 35 36 rings
6 9 10 11 12 15 16 rings

> <PUBCHEM_HEAVY_ATOM_COUNT>
38

> <PUBCHEM_ATOM_DEF_STEREO_COUNT>
13

> <PUBCHEM_ATOM_UDEF_STEREO_COUNT>
0

> <PUBCHEM_BOND_DEF_STEREO_COUNT>
0

> <PUBCHEM_BOND_UDEF_STEREO_COUNT>
0

> <PUBCHEM_ISOTOPIC_ATOM_COUNT>
0

> <PUBCHEM_COMPONENT_COUNT>
1

> <PUBCHEM_CACTVS_TAUTO_COUNT>
1

> <PUBCHEM_CONFORMER_ID>
0001D78000000001

> <PUBCHEM_MMFF94_ENERGY>
133.5008

> <PUBCHEM_FEATURE_SELFOVERLAP>
81.455

> <PUBCHEM_SHAPE_FINGERPRINT>
10 15 18334012783297281338
10165383 225 17676205763183530946
10299344 5 17060617802235018475
106641 1 18409165476966296250
12133447 93 18201147862515857374
12838862 33 18041575705870162824
13811026 1 18335417976163231977
14251764 18 18187644686910460929
14294032 229 14201393928389005411
14394314 77 17917712435166884489
15131766 46 17697870385557841972
15142383 8 18413390960365972096
15183329 4 15913609463247525939
15301273 46 18335700563773900982
15461852 350 17022908926248617421
15840311 113 18411416190807747132
15849732 13 18334012787333772740
18335252 98 8646766712158959341
18603816 31 16773235077098907459
18608769 82 18040997327903798550
19841028 212 17845940748876245738
20105231 36 18335976528983246038
21792938 703 15285648655967868133
22224240 67 18334574642382049130
23522609 53 16844140494661838645
24771293 8 18040427811209268913
249057 3 14201404867828924536
2838139 119 14706928445111531147
4093350 32 15285626738406572526
4325135 7 5112003933483553089
4403749 210 18334298621739816191
45266715 3 9006793011914866464
5219985 9 15769776844695174262
5283156 175 12823302303742953976
6009941 240 18131349731040804065
6086070 43 16226341317198808283
6691757 9 16515401833799928007

> <PUBCHEM_SHAPE_MULTIPOLES>
735.07
25.44
2.33
1.68
6.95
0.4
0.38
3.43
-6.22
2.89
0.23
-0.06
-0.31
2.41

> <PUBCHEM_SHAPE_SELFOVERLAP>
1573.545

> <PUBCHEM_SHAPE_VOLUME>
404.5

> <PUBCHEM_COORDINATE_TYPE>
2
5
10

$$$$

