11653
  -OEChem-06261205573D

  5  4  0     0  0  0  0  0  0999 V2000
    1.9296   -0.0025    0.1467 I   0  0  0  0  0  0  0  0  0  0  0  0
   -0.9376   -1.6116    0.1664 Br  0  0  0  0  0  0  0  0  0  0  0  0
   -0.9332    1.6141    0.1663 Br  0  0  0  0  0  0  0  0  0  0  0  0
   -0.0587    0.0000   -0.4794 C   0  0  0  0  0  0  0  0  0  0  0  0
   -0.1743    0.0001   -1.5660 H   0  0  0  0  0  0  0  0  0  0  0  0
  1  4  1  0  0  0  0
  2  4  1  0  0  0  0
  3  4  1  0  0  0  0
  4  5  1  0  0  0  0
M  END
> <PUBCHEM_COMPOUND_CID>
11653

> <PUBCHEM_CONFORMER_RMSD>
0.4

> <PUBCHEM_CONFORMER_DIVERSEORDER>
1

> <PUBCHEM_MMFF94_PARTIAL_CHARGES>
4
1 -0.19
2 -0.23
3 -0.23
4 0.65

> <PUBCHEM_EFFECTIVE_ROTOR_COUNT>
0

> <PUBCHEM_PHARMACOPHORE_FEATURES>
4
1 1 hydrophobe
1 2 hydrophobe
1 3 hydrophobe
4 1 2 3 4 hydrophobe

> <PUBCHEM_HEAVY_ATOM_COUNT>
4

> <PUBCHEM_ATOM_DEF_STEREO_COUNT>
0

> <PUBCHEM_ATOM_UDEF_STEREO_COUNT>
0

> <PUBCHEM_BOND_DEF_STEREO_COUNT>
0

> <PUBCHEM_BOND_UDEF_STEREO_COUNT>
0

> <PUBCHEM_ISOTOPIC_ATOM_COUNT>
0

> <PUBCHEM_COMPONENT_COUNT>
1

> <PUBCHEM_CACTVS_TAUTO_COUNT>
1

> <PUBCHEM_CONFORMER_ID>
00002D8500000001

> <PUBCHEM_MMFF94_ENERGY>
0.0079

> <PUBCHEM_FEATURE_SELFOVERLAP>
21.148

> <PUBCHEM_SHAPE_FINGERPRINT>
139733 1 8573341321033692774
16714656 1 18410847763599514888
20096714 4 17901392512782223748
21040471 1 18194400219759324844
23552449 1 18336271145694472168
23552449 11 17403754249946041187
5943 1 5787793921182659428

> <PUBCHEM_SHAPE_MULTIPOLES>
106.14
2.31
2.04
0.8
1.46
0
0.02
0
0.19
-1.3
0.19
0.05
0
0

> <PUBCHEM_SHAPE_SELFOVERLAP>
138.92

> <PUBCHEM_SHAPE_VOLUME>
87.1

> <PUBCHEM_COORDINATE_TYPE>
2
5
10

$$$$

