11370435
  -OEChem-07051213103D

 39 40  0     1  0  0  0  0  0999 V2000
    1.3717   -0.3549    1.7294 S   0  0  0  0  0  0  0  0  0  0  0  0
   -3.9015   -2.6461    0.0223 O   0  0  0  0  0  0  0  0  0  0  0  0
   -2.6555    1.4035   -1.7300 O   0  0  0  0  0  0  0  0  0  0  0  0
   -0.5502    3.3335    0.0166 O   0  0  0  0  0  0  0  0  0  0  0  0
    1.2565    2.0004   -0.4178 O   0  0  0  0  0  0  0  0  0  0  0  0
    4.5823   -0.7548   -1.8562 O   0  0  0  0  0  0  0  0  0  0  0  0
   -2.0334    1.1378    0.5313 N   0  0  0  0  0  0  0  0  0  0  0  0
    4.2107   -0.9570    0.4339 N   0  0  0  0  0  0  0  0  0  0  0  0
   -2.6206    0.0100    1.2876 C   0  0  1  0  0  0  0  0  0  0  0  0
   -3.4520   -0.2904    0.0109 C   0  0  1  0  0  0  0  0  0  0  0  0
   -1.4106   -0.8153    1.7394 C   0  0  0  0  0  0  0  0  0  0  0  0
   -2.7173    0.9099   -0.6263 C   0  0  0  0  0  0  0  0  0  0  0  0
   -3.2163   -1.6107   -0.6826 C   0  0  2  0  0  0  0  0  0  0  0  0
   -0.6735    1.1285    0.6614 C   0  0  0  0  0  0  0  0  0  0  0  0
   -0.2483    0.0646    1.3541 C   0  0  0  0  0  0  0  0  0  0  0  0
   -3.7143   -1.5741   -2.1229 C   0  0  0  0  0  0  0  0  0  0  0  0
    0.1329    2.1676    0.0297 C   0  0  0  0  0  0  0  0  0  0  0  0
    1.7807   -1.3728    0.2920 C   0  0  0  0  0  0  0  0  0  0  0  0
    3.1823   -1.9606    0.3829 C   0  0  0  0  0  0  0  0  0  0  0  0
    4.8272   -0.4361   -0.6956 C   0  0  0  0  0  0  0  0  0  0  0  0
    5.8491    0.6169   -0.3601 C   0  0  0  0  0  0  0  0  0  0  0  0
   -3.2269    0.3711    2.1286 H   0  0  0  0  0  0  0  0  0  0  0  0
   -4.5216   -0.0735    0.1414 H   0  0  0  0  0  0  0  0  0  0  0  0
   -1.3520   -1.8001    1.2713 H   0  0  0  0  0  0  0  0  0  0  0  0
   -1.4376   -0.9547    2.8262 H   0  0  0  0  0  0  0  0  0  0  0  0
   -2.1534   -1.8714   -0.7111 H   0  0  0  0  0  0  0  0  0  0  0  0
   -3.1368   -0.8839   -2.7431 H   0  0  0  0  0  0  0  0  0  0  0  0
   -3.6502   -2.5694   -2.5764 H   0  0  0  0  0  0  0  0  0  0  0  0
   -4.7682   -1.2764   -2.1640 H   0  0  0  0  0  0  0  0  0  0  0  0
   -3.7164   -3.4843   -0.4344 H   0  0  0  0  0  0  0  0  0  0  0  0
    1.6906   -0.7642   -0.6143 H   0  0  0  0  0  0  0  0  0  0  0  0
    1.0561   -2.1909    0.2170 H   0  0  0  0  0  0  0  0  0  0  0  0
    3.3610   -2.6023   -0.4874 H   0  0  0  0  0  0  0  0  0  0  0  0
    3.2872   -2.5854    1.2771 H   0  0  0  0  0  0  0  0  0  0  0  0
   -0.0364    4.0565   -0.4026 H   0  0  0  0  0  0  0  0  0  0  0  0
    4.4801   -0.6053    1.3481 H   0  0  0  0  0  0  0  0  0  0  0  0
    6.4724    0.8172   -1.2360 H   0  0  0  0  0  0  0  0  0  0  0  0
    5.3382    1.5366   -0.0623 H   0  0  0  0  0  0  0  0  0  0  0  0
    6.4928    0.2769    0.4562 H   0  0  0  0  0  0  0  0  0  0  0  0
  1 15  1  0  0  0  0
  1 18  1  0  0  0  0
  2 13  1  0  0  0  0
  2 30  1  0  0  0  0
  3 12  2  0  0  0  0
  4 17  1  0  0  0  0
  4 35  1  0  0  0  0
  5 17  2  0  0  0  0
  6 20  2  0  0  0  0
  7  9  1  0  0  0  0
  7 12  1  0  0  0  0
  7 14  1  0  0  0  0
  8 19  1  0  0  0  0
  8 20  1  0  0  0  0
  8 36  1  0  0  0  0
  9 10  1  0  0  0  0
  9 11  1  0  0  0  0
  9 22  1  0  0  0  0
 10 12  1  0  0  0  0
 10 13  1  0  0  0  0
 10 23  1  0  0  0  0
 11 15  1  0  0  0  0
 11 24  1  0  0  0  0
 11 25  1  0  0  0  0
 13 16  1  0  0  0  0
 13 26  1  0  0  0  0
 14 15  2  0  0  0  0
 14 17  1  0  0  0  0
 16 27  1  0  0  0  0
 16 28  1  0  0  0  0
 16 29  1  0  0  0  0
 18 19  1  0  0  0  0
 18 31  1  0  0  0  0
 18 32  1  0  0  0  0
 19 33  1  0  0  0  0
 19 34  1  0  0  0  0
 20 21  1  0  0  0  0
 21 37  1  0  0  0  0
 21 38  1  0  0  0  0
 21 39  1  0  0  0  0
M  END
> <PUBCHEM_COMPOUND_CID>
11370435

> <PUBCHEM_CONFORMER_RMSD>
0.8

> <PUBCHEM_CONFORMER_DIVERSEORDER>
1
21
61
52
79
18
11
33
31
73
74
35
84
62
8
20
26
19
63
50
48
86
56
60
45
38
71
14
32
54
64
34
59
87
78
7
29
58
85
68
42
53
67
76
5
72
39
2
43
55
15
37
10
12
75
51
69
81
4
6
25
28
36
24
65
44
13
66
27
46
83
22
70
17
49
40
47
82
77
41
3
80
30
9
23
16
57

> <PUBCHEM_MMFF94_PARTIAL_CHARGES>
23
1 -0.33
10 0.05
11 0.14
12 0.58
13 0.28
14 0.12
15 -0.04
17 0.71
18 0.23
19 0.3
2 -0.68
20 0.57
21 0.06
3 -0.57
30 0.4
35 0.5
36 0.37
4 -0.65
5 -0.57
6 -0.57
7 -0.39
8 -0.73
9 0.22

> <PUBCHEM_EFFECTIVE_ROTOR_COUNT>
7.4

> <PUBCHEM_PHARMACOPHORE_FEATURES>
9
1 2 acceptor
1 2 donor
1 3 acceptor
1 4 acceptor
1 5 acceptor
1 6 acceptor
1 8 donor
3 4 5 17 anion
7 7 9 10 11 12 14 15 rings

> <PUBCHEM_HEAVY_ATOM_COUNT>
21

> <PUBCHEM_ATOM_DEF_STEREO_COUNT>
3

> <PUBCHEM_ATOM_UDEF_STEREO_COUNT>
0

> <PUBCHEM_BOND_DEF_STEREO_COUNT>
0

> <PUBCHEM_BOND_UDEF_STEREO_COUNT>
0

> <PUBCHEM_ISOTOPIC_ATOM_COUNT>
0

> <PUBCHEM_COMPONENT_COUNT>
1

> <PUBCHEM_CACTVS_TAUTO_COUNT>
2

> <PUBCHEM_CONFORMER_ID>
00AD7FC300000001

> <PUBCHEM_MMFF94_ENERGY>
60.8988

> <PUBCHEM_FEATURE_SELFOVERLAP>
45.723

> <PUBCHEM_SHAPE_FINGERPRINT>
10042902 136 17241901869277189359
10498660 4 18411136974355937014
12553582 1 18411706482471315995
12633257 1 5761653723801478735
12670546 177 18272938223614813574
14178342 30 6988036933682000433
14251732 17 12535358895794376390
14251758 9 12319469805055620170
14251764 30 16732697242933960806
14251764 38 13758061975099715326
14420673 8 7781253132195663140
14466204 15 10303825267315772550
14790565 3 17763743586918311489
15209294 21 10015588302456823258
16945 1 17977977853117625337
17349148 13 17846497063151952018
17959699 21 17274541065373858140
20775530 9 17462028473925259383
20871999 31 18342184379490114435
21403212 168 9295026629890556675
23402539 116 18272654592954962690
235170 7 18040710416173465022
23559900 14 17676500422955532088
23566358 27 18125992768640287513
2838139 119 13182757917660883095
532947 4 18194117409465289856
7097593 13 7420070154913542650
7226269 152 12103852259070963558

> <PUBCHEM_SHAPE_MULTIPOLES>
396.71
9.65
2.58
1.72
12.74
1.01
-0.2
-4.34
-4.6
-1.23
-0.48
-0.63
-0.43
-0.48

> <PUBCHEM_SHAPE_SELFOVERLAP>
811.509

> <PUBCHEM_SHAPE_VOLUME>
232.1

> <PUBCHEM_COORDINATE_TYPE>
2
5
10

$$$$

