5281521
  -OEChem-07051212583D

 37 37  0     1  0  0  0  0  0999 V2000
   -3.7472   -0.2546    1.2846 O   0  0  0  0  0  0  0  0  0  0  0  0
    1.1984   -0.9095    0.0370 C   0  0  0  0  0  0  0  0  0  0  0  0
    2.6336   -0.5350   -0.4687 C   0  0  1  0  0  0  0  0  0  0  0  0
    0.2238    0.2655   -0.3745 C   0  0  2  0  0  0  0  0  0  0  0  0
    3.1218    0.7858    0.1549 C   0  0  0  0  0  0  0  0  0  0  0  0
    0.7803    1.6600   -0.0977 C   0  0  0  0  0  0  0  0  0  0  0  0
    0.7254   -2.2188   -0.6394 C   0  0  0  0  0  0  0  0  0  0  0  0
    1.1878   -1.1477    1.5682 C   0  0  0  0  0  0  0  0  0  0  0  0
    2.0851    1.8644    0.1534 C   0  0  0  0  0  0  0  0  0  0  0  0
    3.7079   -1.6108   -0.2654 C   0  0  0  0  0  0  0  0  0  0  0  0
   -1.1596    0.0848    0.1956 C   0  0  0  0  0  0  0  0  0  0  0  0
   -0.1600    2.8339   -0.1877 C   0  0  0  0  0  0  0  0  0  0  0  0
   -2.2500   -0.0942   -0.5612 C   0  0  0  0  0  0  0  0  0  0  0  0
   -3.5896   -0.2648    0.0658 C   0  0  0  0  0  0  0  0  0  0  0  0
   -4.7577   -0.4591   -0.8651 C   0  0  0  0  0  0  0  0  0  0  0  0
    2.5635   -0.3760   -1.5556 H   0  0  0  0  0  0  0  0  0  0  0  0
    0.1372    0.2242   -1.4723 H   0  0  0  0  0  0  0  0  0  0  0  0
    3.9926    1.1420   -0.4100 H   0  0  0  0  0  0  0  0  0  0  0  0
    3.4616    0.6295    1.1859 H   0  0  0  0  0  0  0  0  0  0  0  0
    0.7712   -2.1376   -1.7310 H   0  0  0  0  0  0  0  0  0  0  0  0
    1.3394   -3.0741   -0.3390 H   0  0  0  0  0  0  0  0  0  0  0  0
   -0.3056   -2.4683   -0.3668 H   0  0  0  0  0  0  0  0  0  0  0  0
    0.2187   -1.5264    1.9113 H   0  0  0  0  0  0  0  0  0  0  0  0
    1.9257   -1.9006    1.8623 H   0  0  0  0  0  0  0  0  0  0  0  0
    1.4014   -0.2348    2.1323 H   0  0  0  0  0  0  0  0  0  0  0  0
    2.4462    2.8717    0.3462 H   0  0  0  0  0  0  0  0  0  0  0  0
    4.6662   -1.2705   -0.6745 H   0  0  0  0  0  0  0  0  0  0  0  0
    3.8693   -1.8380    0.7922 H   0  0  0  0  0  0  0  0  0  0  0  0
    3.4544   -2.5389   -0.7850 H   0  0  0  0  0  0  0  0  0  0  0  0
   -1.2581    0.1357    1.2773 H   0  0  0  0  0  0  0  0  0  0  0  0
    0.3689    3.7914   -0.1267 H   0  0  0  0  0  0  0  0  0  0  0  0
   -0.8896    2.8126    0.6279 H   0  0  0  0  0  0  0  0  0  0  0  0
   -0.6951    2.8200   -1.1429 H   0  0  0  0  0  0  0  0  0  0  0  0
   -2.1870   -0.1331   -1.6428 H   0  0  0  0  0  0  0  0  0  0  0  0
   -5.5537    0.2390   -0.5910 H   0  0  0  0  0  0  0  0  0  0  0  0
   -5.1165   -1.4881   -0.7816 H   0  0  0  0  0  0  0  0  0  0  0  0
   -4.4792   -0.2639   -1.9041 H   0  0  0  0  0  0  0  0  0  0  0  0
  1 14  2  0  0  0  0
  2  3  1  0  0  0  0
  2  4  1  0  0  0  0
  2  7  1  0  0  0  0
  2  8  1  0  0  0  0
  3  5  1  0  0  0  0
  3 10  1  0  0  0  0
  3 16  1  0  0  0  0
  4  6  1  0  0  0  0
  4 11  1  0  0  0  0
  4 17  1  0  0  0  0
  5  9  1  0  0  0  0
  5 18  1  0  0  0  0
  5 19  1  0  0  0  0
  6  9  2  0  0  0  0
  6 12  1  0  0  0  0
  7 20  1  0  0  0  0
  7 21  1  0  0  0  0
  7 22  1  0  0  0  0
  8 23  1  0  0  0  0
  8 24  1  0  0  0  0
  8 25  1  0  0  0  0
  9 26  1  0  0  0  0
 10 27  1  0  0  0  0
 10 28  1  0  0  0  0
 10 29  1  0  0  0  0
 11 13  2  0  0  0  0
 11 30  1  0  0  0  0
 12 31  1  0  0  0  0
 12 32  1  0  0  0  0
 12 33  1  0  0  0  0
 13 14  1  0  0  0  0
 13 34  1  0  0  0  0
 14 15  1  0  0  0  0
 15 35  1  0  0  0  0
 15 36  1  0  0  0  0
 15 37  1  0  0  0  0
M  END
> <PUBCHEM_COMPOUND_CID>
5281521

> <PUBCHEM_CONFORMER_RMSD>
0.6

> <PUBCHEM_CONFORMER_DIVERSEORDER>
1
8
6
5
10
3
11
7
9
2
4

> <PUBCHEM_MMFF94_PARTIAL_CHARGES>
13
1 -0.57
11 -0.29
12 0.14
13 -0.14
14 0.49
15 0.06
26 0.15
30 0.15
34 0.15
4 0.28
5 0.14
6 -0.28
9 -0.29

> <PUBCHEM_EFFECTIVE_ROTOR_COUNT>
2.8

> <PUBCHEM_PHARMACOPHORE_FEATURES>
3
1 1 acceptor
3 2 7 8 hydrophobe
6 2 3 4 5 6 9 rings

> <PUBCHEM_HEAVY_ATOM_COUNT>
15

> <PUBCHEM_ATOM_DEF_STEREO_COUNT>
2

> <PUBCHEM_ATOM_UDEF_STEREO_COUNT>
0

> <PUBCHEM_BOND_DEF_STEREO_COUNT>
1

> <PUBCHEM_BOND_UDEF_STEREO_COUNT>
0

> <PUBCHEM_ISOTOPIC_ATOM_COUNT>
0

> <PUBCHEM_COMPONENT_COUNT>
1

> <PUBCHEM_CACTVS_TAUTO_COUNT>
5

> <PUBCHEM_CONFORMER_ID>
005096F100000001

> <PUBCHEM_MMFF94_ENERGY>
32.8973

> <PUBCHEM_FEATURE_SELFOVERLAP>
15.223

> <PUBCHEM_SHAPE_FINGERPRINT>
10219947 1 18408322181127272695
10967382 1 18409731720653185740
10980938 120 18410013204209411373
11471102 20 18411141320445920885
116883 192 18048320234596258557
12032990 46 18412539942144004726
12346645 6 18334859385427633845
12654215 9 18272379667318062125
13862211 1 18337675316928522870
14251717 144 18408890603069450319
14252887 29 18408884027274034058
14993402 34 18334292046054591846
15501101 241 18341892978485293341
15757776 16 18342744034802543651
161256 15 18410578409342708764
16945 1 18409450254825689212
18186145 218 18261384521012194431
19422 9 17821726126634329567
200 152 18186809067496651309
20279233 1 17561368357704572995
20606313 2 18411140199285454700
20645477 70 18412271614452519071
20871998 22 18116987986903832862
21452121 103 18261689107493164512
21730867 7 18342178825981089837
221490 88 18196929977029969299
22289505 5 18271260412316490045
23402539 116 18336551632786662758
23598291 2 18113905931525968863
2748010 2 18194673779343411094
2871803 45 18272937154035984229
3060560 45 18334581221902539135
528886 8 18334298621907913098
581208 293 18337114470886097085
7364860 26 18261959544076739977
77492 1 17603863373731696813
7832392 63 18190464857116290278
81228 2 17908424997785826169
81539 233 18129667383022573884

> <PUBCHEM_SHAPE_MULTIPOLES>
302.82
6.78
2.33
0.99
7.5
1.13
-0.3
-2.1
0.51
-1.58
0.22
0.28
-0.3
0.08

> <PUBCHEM_SHAPE_SELFOVERLAP>
601.306

> <PUBCHEM_SHAPE_VOLUME>
179.6

> <PUBCHEM_COORDINATE_TYPE>
2
5
10

$$$$

