47205713
  -OEChem-06241223003D

 38 39  0     0  0  0  0  0  0999 V2000
    3.9224   -0.6250    0.9493 O   0  0  0  0  0  0  0  0  0  0  0  0
    4.5314    0.8328   -0.8704 O   0  0  0  0  0  0  0  0  0  0  0  0
   -1.1151    1.5375    1.6405 O   0  0  0  0  0  0  0  0  0  0  0  0
   -0.6088   -2.5839    0.9437 O   0  0  0  0  0  0  0  0  0  0  0  0
   -1.6532   -0.2064    0.1459 N   0  0  0  0  0  0  0  0  0  0  0  0
   -0.2071   -3.2948   -1.2056 N   0  0  0  0  0  0  0  0  0  0  0  0
   -3.0375   -0.3248    0.5122 C   0  0  0  0  0  0  0  0  0  0  0  0
   -3.9398    0.5766   -0.3240 C   0  0  0  0  0  0  0  0  0  0  0  0
   -5.4119    0.4740    0.0815 C   0  0  0  0  0  0  0  0  0  0  0  0
   -1.1720   -1.1168   -0.8989 C   0  0  0  0  0  0  0  0  0  0  0  0
   -0.8000    0.7377    0.7601 C   0  0  0  0  0  0  0  0  0  0  0  0
    0.5983    0.7884    0.3045 C   0  0  0  0  0  0  0  0  0  0  0  0
    1.5602   -0.0094    0.9290 C   0  0  0  0  0  0  0  0  0  0  0  0
   -6.2783    1.4269   -0.7274 C   0  0  0  0  0  0  0  0  0  0  0  0
    2.8576    0.0715    0.4665 C   0  0  0  0  0  0  0  0  0  0  0  0
    3.2054    0.9041   -0.5727 C   0  0  0  0  0  0  0  0  0  0  0  0
    0.9538    1.6390   -0.7571 C   0  0  0  0  0  0  0  0  0  0  0  0
    2.2750    1.7018   -1.2064 C   0  0  0  0  0  0  0  0  0  0  0  0
   -0.6599   -2.3913   -0.2680 C   0  0  0  0  0  0  0  0  0  0  0  0
    4.9793   -0.1380    0.0974 C   0  0  0  0  0  0  0  0  0  0  0  0
   -3.1391   -0.0434    1.5674 H   0  0  0  0  0  0  0  0  0  0  0  0
   -3.3483   -1.3729    0.4314 H   0  0  0  0  0  0  0  0  0  0  0  0
   -3.8362    0.3207   -1.3858 H   0  0  0  0  0  0  0  0  0  0  0  0
   -3.6059    1.6174   -0.2242 H   0  0  0  0  0  0  0  0  0  0  0  0
   -5.5209    0.7070    1.1470 H   0  0  0  0  0  0  0  0  0  0  0  0
   -5.7661   -0.5528   -0.0651 H   0  0  0  0  0  0  0  0  0  0  0  0
   -1.9981   -1.3537   -1.5788 H   0  0  0  0  0  0  0  0  0  0  0  0
   -0.3757   -0.6650   -1.4946 H   0  0  0  0  0  0  0  0  0  0  0  0
    1.3037   -0.6656    1.7536 H   0  0  0  0  0  0  0  0  0  0  0  0
   -6.2136    1.2033   -1.7971 H   0  0  0  0  0  0  0  0  0  0  0  0
   -7.3259    1.3365   -0.4240 H   0  0  0  0  0  0  0  0  0  0  0  0
   -5.9685    2.4655   -0.5737 H   0  0  0  0  0  0  0  0  0  0  0  0
    0.1995    2.2567   -1.2389 H   0  0  0  0  0  0  0  0  0  0  0  0
    2.5530    2.3563   -2.0246 H   0  0  0  0  0  0  0  0  0  0  0  0
    5.4197   -0.9881   -0.4363 H   0  0  0  0  0  0  0  0  0  0  0  0
    5.7516    0.3221    0.7245 H   0  0  0  0  0  0  0  0  0  0  0  0
    0.1790   -4.1897   -0.9239 H   0  0  0  0  0  0  0  0  0  0  0  0
   -0.2456   -3.1075   -2.2024 H   0  0  0  0  0  0  0  0  0  0  0  0
  1 15  1  0  0  0  0
  1 20  1  0  0  0  0
  2 16  1  0  0  0  0
  2 20  1  0  0  0  0
  3 11  2  0  0  0  0
  4 19  2  0  0  0  0
  5  7  1  0  0  0  0
  5 10  1  0  0  0  0
  5 11  1  0  0  0  0
  6 19  1  0  0  0  0
  6 37  1  0  0  0  0
  6 38  1  0  0  0  0
  7  8  1  0  0  0  0
  7 21  1  0  0  0  0
  7 22  1  0  0  0  0
  8  9  1  0  0  0  0
  8 23  1  0  0  0  0
  8 24  1  0  0  0  0
  9 14  1  0  0  0  0
  9 25  1  0  0  0  0
  9 26  1  0  0  0  0
 10 19  1  0  0  0  0
 10 27  1  0  0  0  0
 10 28  1  0  0  0  0
 11 12  1  0  0  0  0
 12 13  2  0  0  0  0
 12 17  1  0  0  0  0
 13 15  1  0  0  0  0
 13 29  1  0  0  0  0
 14 30  1  0  0  0  0
 14 31  1  0  0  0  0
 14 32  1  0  0  0  0
 15 16  2  0  0  0  0
 16 18  1  0  0  0  0
 17 18  2  0  0  0  0
 17 33  1  0  0  0  0
 18 34  1  0  0  0  0
 20 35  1  0  0  0  0
 20 36  1  0  0  0  0
M  END
> <PUBCHEM_COMPOUND_CID>
47205713

> <PUBCHEM_CONFORMER_RMSD>
0.8

> <PUBCHEM_CONFORMER_DIVERSEORDER>
1
250
201
138
53
165
241
224
163
183
142
266
50
118
25
210
144
254
153
267
92
172
251
97
256
32
243
94
99
180
40
198
79
169
173
84
240
152
103
244
37
259
80
35
176
47
124
82
150
234
262
269
239
60
274
26
158
212
127
271
114
249
268
258
89
230
159
273
113
161
75
216
19
104
85
117
33
168
202
193
242
225
164
133
61
245
196
59
229
76
160
236
128
29
52
131
4
143
238
192
112
67
41
54
178
260
102
191
213
171
116
130
197
175
233
186
51
88
177
6
72
265
255
211
129
5
189
120
86
62
100
23
132
261
16
257
134
272
125
275
162
31
166
263
55
109
205
15
71
215
123
206
270
145
174
34
107
110
119
44
36
218
141
235
95
204
78
232
207
252
146
74
140
227
135
264
30
93
48
42
214
228
195
20
203
156
18
77
148
217
137
194
126
184
9
90
187
46
63
56
73
10
154
3
149
38
27
185
91
12
157
69
39
209
190
226
136
65
170
237
66
70
64
28
22
222
2
246
115
13
8
147
179
221
58
21
167
248
57
139
81
45
208
155
43
68
223
17
83
101
121
231
98
111
122
108
14
199
11
188
200
151
253
219
247
182
49
220
96
87
24
181
106
105
7

> <PUBCHEM_MMFF94_PARTIAL_CHARGES>
22
1 -0.36
10 0.36
11 0.54
12 0.09
13 -0.15
15 0.08
16 0.08
17 -0.15
18 -0.15
19 0.57
2 -0.36
20 0.56
29 0.15
3 -0.57
33 0.15
34 0.15
37 0.37
38 0.37
4 -0.57
5 -0.66
6 -0.8
7 0.3

> <PUBCHEM_EFFECTIVE_ROTOR_COUNT>
7.6

> <PUBCHEM_PHARMACOPHORE_FEATURES>
8
1 1 acceptor
1 14 hydrophobe
1 2 acceptor
1 3 acceptor
1 4 acceptor
1 6 donor
5 1 2 15 16 20 rings
6 12 13 15 16 17 18 rings

> <PUBCHEM_HEAVY_ATOM_COUNT>
20

> <PUBCHEM_ATOM_DEF_STEREO_COUNT>
0

> <PUBCHEM_ATOM_UDEF_STEREO_COUNT>
0

> <PUBCHEM_BOND_DEF_STEREO_COUNT>
0

> <PUBCHEM_BOND_UDEF_STEREO_COUNT>
0

> <PUBCHEM_ISOTOPIC_ATOM_COUNT>
0

> <PUBCHEM_COMPONENT_COUNT>
1

> <PUBCHEM_CACTVS_TAUTO_COUNT>
2

> <PUBCHEM_CONFORMER_ID>
02D04D5100000001

> <PUBCHEM_MMFF94_ENERGY>
47.7943

> <PUBCHEM_FEATURE_SELFOVERLAP>
40.75

> <PUBCHEM_SHAPE_FINGERPRINT>
10366900 7 16805591556835978128
10906281 52 17313930927568246128
11578080 2 18119254952189602760
12011746 2 18187639228539777990
12236239 1 18342176656817110960
12592029 89 18202002174407982955
12670545 2 18343017804897978300
12788726 201 18186789301530407624
13533116 47 17822010969139823798
13538477 17 18337948970563370456
13836976 161 18411421726366074047
13899415 154 10231745734568617655
14115302 16 18335699391089736008
15048467 5 15267055956326328045
15099037 51 18341895186245981429
15207287 21 17095517383621818356
16752209 62 18187361064555915985
16945 1 18040984116911209928
187816 3 17967812747622355185
19784866 9 18410577327332287929
20645476 183 18270115712752229767
20681677 155 18341331085647402688
20691752 17 18052228950913769398
23402539 116 18040439884288374469
23559900 14 17968095266745747192
266924 87 18044372957867061577
3084891 72 18187080650551970163
347723 3 17603584141055027377
34934 24 18201439121776396224
3759504 43 18272651208404844595
465052 167 18060131042535990459
6138700 20 18337668749654437014
7832392 63 18128537063874010524
81228 2 16952221357621267952
81539 233 18340490062437169591
8272917 22 17846220015838260851
9999458 23 16702019785801902019

> <PUBCHEM_SHAPE_MULTIPOLES>
378.15
10.21
2.37
1.17
8.51
2.25
0.05
-4.7
-1.32
0.49
-0.69
-0.18
-0.04
-0.45

> <PUBCHEM_SHAPE_SELFOVERLAP>
791.942

> <PUBCHEM_SHAPE_VOLUME>
214

> <PUBCHEM_COORDINATE_TYPE>
2
5
10

$$$$

