13818693
  -OEChem-07051213093D

 23 24  0     1  0  0  0  0  0999 V2000
   -2.2985   -1.5129    0.0029 O   0  0  0  0  0  0  0  0  0  0  0  0
    0.1836    0.8615    0.1911 N   0  0  1  0  0  0  0  0  0  0  0  0
   -0.1609   -0.4338   -0.3988 C   0  0  1  0  0  0  0  0  0  0  0  0
    0.7388   -1.5053    0.1855 C   0  0  0  0  0  0  0  0  0  0  0  0
    1.5027    1.3037   -0.2303 C   0  0  0  0  0  0  0  0  0  0  0  0
   -0.9303    1.7513   -0.1166 C   0  0  0  0  0  0  0  0  0  0  0  0
    2.2008   -1.1542   -0.1162 C   0  0  0  0  0  0  0  0  0  0  0  0
    2.5372    0.2898    0.2820 C   0  0  0  0  0  0  0  0  0  0  0  0
   -2.1486    0.8940    0.2404 C   0  0  0  0  0  0  0  0  0  0  0  0
   -1.6248   -0.4940   -0.0400 C   0  0  0  0  0  0  0  0  0  0  0  0
   -0.0924   -0.4119   -1.4951 H   0  0  0  0  0  0  0  0  0  0  0  0
    0.4930   -2.4853   -0.2391 H   0  0  0  0  0  0  0  0  0  0  0  0
    0.5904   -1.5887    1.2699 H   0  0  0  0  0  0  0  0  0  0  0  0
    1.7299    2.2866    0.1978 H   0  0  0  0  0  0  0  0  0  0  0  0
    1.5679    1.3943   -1.3217 H   0  0  0  0  0  0  0  0  0  0  0  0
   -0.9500    2.0211   -1.1801 H   0  0  0  0  0  0  0  0  0  0  0  0
   -0.9055    2.6698    0.4777 H   0  0  0  0  0  0  0  0  0  0  0  0
    2.3835   -1.2775   -1.1912 H   0  0  0  0  0  0  0  0  0  0  0  0
    2.8682   -1.8507    0.4031 H   0  0  0  0  0  0  0  0  0  0  0  0
    2.5879    0.3505    1.3771 H   0  0  0  0  0  0  0  0  0  0  0  0
    3.5315    0.5537   -0.0960 H   0  0  0  0  0  0  0  0  0  0  0  0
   -3.0080    1.1249   -0.3924 H   0  0  0  0  0  0  0  0  0  0  0  0
   -2.4004    0.9712    1.3021 H   0  0  0  0  0  0  0  0  0  0  0  0
  1 10  2  0  0  0  0
  2  3  1  0  0  0  0
  2  5  1  0  0  0  0
  2  6  1  0  0  0  0
  3  4  1  0  0  0  0
  3 10  1  0  0  0  0
  3 11  1  0  0  0  0
  4  7  1  0  0  0  0
  4 12  1  0  0  0  0
  4 13  1  0  0  0  0
  5  8  1  0  0  0  0
  5 14  1  0  0  0  0
  5 15  1  0  0  0  0
  6  9  1  0  0  0  0
  6 16  1  0  0  0  0
  6 17  1  0  0  0  0
  7  8  1  0  0  0  0
  7 18  1  0  0  0  0
  7 19  1  0  0  0  0
  8 20  1  0  0  0  0
  8 21  1  0  0  0  0
  9 10  1  0  0  0  0
  9 22  1  0  0  0  0
  9 23  1  0  0  0  0
M  END
> <PUBCHEM_COMPOUND_CID>
13818693

> <PUBCHEM_CONFORMER_RMSD>
0.4

> <PUBCHEM_CONFORMER_DIVERSEORDER>
1
3
2

> <PUBCHEM_MMFF94_PARTIAL_CHARGES>
7
1 -0.57
10 0.45
2 -0.81
3 0.33
5 0.27
6 0.27
9 0.06

> <PUBCHEM_EFFECTIVE_ROTOR_COUNT>
1.2

> <PUBCHEM_PHARMACOPHORE_FEATURES>
4
1 1 acceptor
1 2 cation
5 2 3 6 9 10 rings
6 2 3 4 5 7 8 rings

> <PUBCHEM_HEAVY_ATOM_COUNT>
10

> <PUBCHEM_ATOM_DEF_STEREO_COUNT>
1

> <PUBCHEM_ATOM_UDEF_STEREO_COUNT>
0

> <PUBCHEM_BOND_DEF_STEREO_COUNT>
0

> <PUBCHEM_BOND_UDEF_STEREO_COUNT>
0

> <PUBCHEM_ISOTOPIC_ATOM_COUNT>
0

> <PUBCHEM_COMPONENT_COUNT>
1

> <PUBCHEM_CACTVS_TAUTO_COUNT>
3

> <PUBCHEM_CONFORMER_ID>
00D2DB4500000001

> <PUBCHEM_MMFF94_ENERGY>
7.36

> <PUBCHEM_FEATURE_SELFOVERLAP>
20.38

> <PUBCHEM_SHAPE_FINGERPRINT>
10857977 72 18337402547269635994
12423570 1 15104333003108565172
12524768 44 18119246417920137207
12897270 3 18411702071291638590
14128692 85 18410004442708132214
16945 1 18267303312226485692
18185500 45 18410857667757202206
19973954 147 18410009961630344116
21040471 1 18122343755139585676
23552423 10 18343579642301889070
241688 4 18412826897388221984
2748010 2 18410293601112264604
29004967 10 18341330002793456762
369184 2 18340209690570487864
5084963 1 18260825982053470114
66348 1 17546446038657099018

> <PUBCHEM_SHAPE_MULTIPOLES>
194.94
3.35
1.84
0.65
0.35
0.01
-0.01
-0.3
0.2
-0.24
-0.03
0.04
0.01
-0.03

> <PUBCHEM_SHAPE_SELFOVERLAP>
401.166

> <PUBCHEM_SHAPE_VOLUME>
114

> <PUBCHEM_COORDINATE_TYPE>
2
5
10

$$$$

