5492231
  -OEChem-07051213083D

 74 78  0     1  0  0  0  0  0999 V2000
   -0.5146   -1.6843    0.7630 O   0  0  0  0  0  0  0  0  0  0  0  0
   -3.1986   -1.0496    0.6787 O   0  0  0  0  0  0  0  0  0  0  0  0
   -5.4796   -1.7041    0.6656 O   0  0  0  0  0  0  0  0  0  0  0  0
   -1.7616   -4.7511   -0.8034 O   0  0  0  0  0  0  0  0  0  0  0  0
    1.0281   -5.3333   -0.3196 O   0  0  0  0  0  0  0  0  0  0  0  0
    1.6172   -0.7522    0.9375 O   0  0  0  0  0  0  0  0  0  0  0  0
    2.6545   -2.8922   -0.5964 O   0  0  0  0  0  0  0  0  0  0  0  0
   -6.0340    0.7291    2.0912 O   0  0  0  0  0  0  0  0  0  0  0  0
   -5.7374    2.3545   -0.1481 O   0  0  0  0  0  0  0  0  0  0  0  0
   -6.3481    0.4575   -2.1913 O   0  0  0  0  0  0  0  0  0  0  0  0
    2.7537    2.5639   -0.2449 O   0  3  0  0  0  0  0  0  0  0  0  0
   -2.0405    2.8166    0.4991 O   0  0  0  0  0  0  0  0  0  0  0  0
    0.3657    6.6599   -0.9398 O   0  0  0  0  0  0  0  0  0  0  0  0
    6.8426   -0.2142    2.2096 O   0  0  0  0  0  0  0  0  0  0  0  0
    5.9462   -1.4583   -2.3279 O   0  0  0  0  0  0  0  0  0  0  0  0
    7.5950   -1.5391   -0.1039 O   0  0  0  0  0  0  0  0  0  0  0  0
   -1.4135   -2.5125    0.0234 C   0  0  1  0  0  0  0  0  0  0  0  0
   -0.9009   -3.9545    0.0065 C   0  0  2  0  0  0  0  0  0  0  0  0
    0.5208   -4.0184   -0.5520 C   0  0  1  0  0  0  0  0  0  0  0  0
    1.4292   -2.9945    0.1287 C   0  0  2  0  0  0  0  0  0  0  0  0
   -4.8829    0.5801    1.2585 C   0  0  1  0  0  0  0  0  0  0  0  0
   -4.4765   -0.8922    1.2857 C   0  0  2  0  0  0  0  0  0  0  0  0
   -5.2083    1.0307   -0.1666 C   0  0  1  0  0  0  0  0  0  0  0  0
   -6.2235    0.0917   -0.8192 C   0  0  2  0  0  0  0  0  0  0  0  0
    0.7784   -1.6119    0.1666 C   0  0  1  0  0  0  0  0  0  0  0  0
   -2.7843   -2.4082    0.6844 C   0  0  0  0  0  0  0  0  0  0  0  0
   -5.7501   -1.3634   -0.6978 C   0  0  2  0  0  0  0  0  0  0  0  0
   -6.7986   -2.3501   -1.2042 C   0  0  0  0  0  0  0  0  0  0  0  0
    1.5214    0.5554    0.5204 C   0  0  0  0  0  0  0  0  0  0  0  0
    2.7421    1.3004    0.0765 C   0  0  0  0  0  0  0  0  0  0  0  0
    0.3719    1.2423    0.5343 C   0  0  0  0  0  0  0  0  0  0  0  0
    0.3383    2.6473    0.1444 C   0  0  0  0  0  0  0  0  0  0  0  0
    4.0196    0.5513    0.0292 C   0  0  0  0  0  0  0  0  0  0  0  0
    1.5360    3.2696   -0.2225 C   0  0  0  0  0  0  0  0  0  0  0  0
   -0.8510    3.3821    0.1455 C   0  0  0  0  0  0  0  0  0  0  0  0
    1.5453    4.6166   -0.5864 C   0  0  0  0  0  0  0  0  0  0  0  0
    4.3876   -0.1091   -1.1374 C   0  0  0  0  0  0  0  0  0  0  0  0
    4.8391    0.5178    1.1518 C   0  0  0  0  0  0  0  0  0  0  0  0
   -0.8391    4.7295   -0.2199 C   0  0  0  0  0  0  0  0  0  0  0  0
    0.3576    5.3461   -0.5848 C   0  0  0  0  0  0  0  0  0  0  0  0
    6.0428   -0.1856    1.1071 C   0  0  0  0  0  0  0  0  0  0  0  0
    5.5913   -0.8127   -1.1820 C   0  0  0  0  0  0  0  0  0  0  0  0
    6.4189   -0.8509   -0.0598 C   0  0  0  0  0  0  0  0  0  0  0  0
   -1.4988   -2.1116   -0.9959 H   0  0  0  0  0  0  0  0  0  0  0  0
   -0.9145   -4.3808    1.0171 H   0  0  0  0  0  0  0  0  0  0  0  0
    0.5230   -3.8734   -1.6394 H   0  0  0  0  0  0  0  0  0  0  0  0
    1.6869   -3.3286    1.1407 H   0  0  0  0  0  0  0  0  0  0  0  0
   -4.0973    1.2174    1.6771 H   0  0  0  0  0  0  0  0  0  0  0  0
   -4.4114   -1.2205    2.3304 H   0  0  0  0  0  0  0  0  0  0  0  0
   -4.2940    1.0660   -0.7707 H   0  0  0  0  0  0  0  0  0  0  0  0
   -7.2071    0.2276   -0.3532 H   0  0  0  0  0  0  0  0  0  0  0  0
    0.6913   -1.2303   -0.8629 H   0  0  0  0  0  0  0  0  0  0  0  0
   -3.5025   -3.0350    0.1460 H   0  0  0  0  0  0  0  0  0  0  0  0
   -2.7224   -2.7497    1.7250 H   0  0  0  0  0  0  0  0  0  0  0  0
   -4.8438   -1.5145   -1.2981 H   0  0  0  0  0  0  0  0  0  0  0  0
   -6.4561   -3.3795   -1.0506 H   0  0  0  0  0  0  0  0  0  0  0  0
   -7.7356   -2.2449   -0.6462 H   0  0  0  0  0  0  0  0  0  0  0  0
   -7.0060   -2.2141   -2.2692 H   0  0  0  0  0  0  0  0  0  0  0  0
   -1.7629   -4.3751   -1.7002 H   0  0  0  0  0  0  0  0  0  0  0  0
    0.4227   -5.9595   -0.7523 H   0  0  0  0  0  0  0  0  0  0  0  0
    2.4472   -2.5981   -1.4998 H   0  0  0  0  0  0  0  0  0  0  0  0
   -6.6895    0.0602    1.8310 H   0  0  0  0  0  0  0  0  0  0  0  0
   -6.5250    2.3514    0.4224 H   0  0  0  0  0  0  0  0  0  0  0  0
   -7.1045   -0.0283   -2.5606 H   0  0  0  0  0  0  0  0  0  0  0  0
   -0.5328    0.7763    0.9006 H   0  0  0  0  0  0  0  0  0  0  0  0
    2.4843    5.0840   -0.8702 H   0  0  0  0  0  0  0  0  0  0  0  0
    3.7438   -0.0809   -2.0130 H   0  0  0  0  0  0  0  0  0  0  0  0
    4.5483    1.0364    2.0621 H   0  0  0  0  0  0  0  0  0  0  0  0
   -1.7644    5.3006   -0.2191 H   0  0  0  0  0  0  0  0  0  0  0  0
   -2.0283    1.8651    0.3115 H   0  0  0  0  0  0  0  0  0  0  0  0
    1.2761    6.9210   -1.1614 H   0  0  0  0  0  0  0  0  0  0  0  0
    7.6314   -0.7445    2.0014 H   0  0  0  0  0  0  0  0  0  0  0  0
    6.9083   -1.5867   -2.3457 H   0  0  0  0  0  0  0  0  0  0  0  0
    7.5494   -2.2202   -0.7941 H   0  0  0  0  0  0  0  0  0  0  0  0
  1 17  1  0  0  0  0
  1 25  1  0  0  0  0
  2 22  1  0  0  0  0
  2 26  1  0  0  0  0
  3 22  1  0  0  0  0
  3 27  1  0  0  0  0
  4 18  1  0  0  0  0
  4 59  1  0  0  0  0
  5 19  1  0  0  0  0
  5 60  1  0  0  0  0
  6 25  1  0  0  0  0
  6 29  1  0  0  0  0
  7 20  1  0  0  0  0
  7 61  1  0  0  0  0
  8 21  1  0  0  0  0
  8 62  1  0  0  0  0
  9 23  1  0  0  0  0
  9 63  1  0  0  0  0
 10 24  1  0  0  0  0
 10 64  1  0  0  0  0
 11 30  2  0  0  0  0
 11 34  1  0  0  0  0
 12 35  1  0  0  0  0
 12 70  1  0  0  0  0
 13 40  1  0  0  0  0
 13 71  1  0  0  0  0
 14 41  1  0  0  0  0
 14 72  1  0  0  0  0
 15 42  1  0  0  0  0
 15 73  1  0  0  0  0
 16 43  1  0  0  0  0
 16 74  1  0  0  0  0
 17 18  1  0  0  0  0
 17 26  1  0  0  0  0
 17 44  1  0  0  0  0
 18 19  1  0  0  0  0
 18 45  1  0  0  0  0
 19 20  1  0  0  0  0
 19 46  1  0  0  0  0
 20 25  1  0  0  0  0
 20 47  1  0  0  0  0
 21 22  1  0  0  0  0
 21 23  1  0  0  0  0
 21 48  1  0  0  0  0
 22 49  1  0  0  0  0
 23 24  1  0  0  0  0
 23 50  1  0  0  0  0
 24 27  1  0  0  0  0
 24 51  1  0  0  0  0
 25 52  1  0  0  0  0
 26 53  1  0  0  0  0
 26 54  1  0  0  0  0
 27 28  1  0  0  0  0
 27 55  1  0  0  0  0
 28 56  1  0  0  0  0
 28 57  1  0  0  0  0
 28 58  1  0  0  0  0
 29 30  1  0  0  0  0
 29 31  2  0  0  0  0
 30 33  1  0  0  0  0
 31 32  1  0  0  0  0
 31 65  1  0  0  0  0
 32 34  1  0  0  0  0
 32 35  2  0  0  0  0
 33 37  2  0  0  0  0
 33 38  1  0  0  0  0
 34 36  2  0  0  0  0
 35 39  1  0  0  0  0
 36 40  1  0  0  0  0
 36 66  1  0  0  0  0
 37 42  1  0  0  0  0
 37 67  1  0  0  0  0
 38 41  2  0  0  0  0
 38 68  1  0  0  0  0
 39 40  2  0  0  0  0
 39 69  1  0  0  0  0
 41 43  1  0  0  0  0
 42 43  2  0  0  0  0
M  CHG  1  11   1
M  END
> <PUBCHEM_COMPOUND_CID>
5492231

> <PUBCHEM_CONFORMER_RMSD>
1

> <PUBCHEM_CONFORMER_DIVERSEORDER>
2
373
91
60
369
269
353
180
221
199
233
14
105
144
395
274
302
296
300
175
297
382
285
5
344
315
100
394
251
355
342
117
307
356
243
336
15
47
362
172
132
346
17
219
182
347
143
179
53
160
293
51
322
210
43
283
392
123
194
178
262
256
68
211
39
25
9
291
371
206
195
174
280
319
306
156
399
252
217
4
200
281
244
234
270
314
226
118
253
273
176
366
44
335
162
134
266
348
155
94
42
16
26
391
301
153
272
1
363
277
247
326
393
224
310
260
358
328
398
250
230
316
282
141
11
245
37
30
377
229
133
138
228
196
238
187
61
165
62
320
131
150
40
258
67
218
267
361
125
313
331
77
278
268
265
169
188
337
161
359
99
64
104
208
292
375
50
261
357
80
223
239
166
147
136
29
360
197
227
89
79
303
380
119
168
110
95
215
236
73
90
255
207
308
330
354
96
232
114
305
289
263
397
287
135
198
23
189
92
46
163
318
294
381
379
151
220
130
332
24
309
27
324
170
84
299
246
286
115
298
149
10
75
231
185
225
127
321
403
254
388
242
58
52
140
213
54
109
235
3
389
159
203
102
288
116
312
317
38
22
158
192
352
86
139
383
173
222
364
97
36
190
249
177
34
21
370
48
333
385
374
350
113
55
384
372
121
390
257
124
201
367
76
32
142
237
19
212
186
387
12
70
87
66
107
126
41
154
386
341
248
338
98
72
129
290
327
8
181
304
343
74
108
28
83
368
148
106
82
284
378
128
325
183
81
216
401
63
402
240
31
275
271
146
137
193
71
56
57
20
311
111
152
167
339
396
279
205
276
45
112
334
264
59
18
88
329
13
101
49
345
122
204
351
145
65
85
214
78
365
7
171
6
376
209
157
184
93
164
323
241
259
103
349
340
191
35
295
400
33
202
69
120

> <PUBCHEM_MMFF94_PARTIAL_CHARGES>
58
1 -0.56
10 -0.68
11 -0.87
12 -0.53
13 -0.53
14 -0.53
15 -0.53
16 -0.53
17 0.28
18 0.28
19 0.28
2 -0.56
20 0.28
21 0.28
22 0.56
23 0.28
24 0.28
25 0.56
26 0.28
27 0.28
29 0.09
3 -0.56
30 0.85
31 -0.18
32 0.03
33 0.09
34 0.92
35 0.08
36 -0.15
37 -0.15
38 -0.15
39 -0.15
4 -0.68
40 0.08
41 0.08
42 0.08
43 0.08
5 -0.68
59 0.4
6 -0.36
60 0.4
61 0.4
62 0.4
63 0.4
64 0.4
65 0.15
66 0.15
67 0.15
68 0.15
69 0.15
7 -0.68
70 0.45
71 0.45
72 0.45
73 0.45
74 0.45
8 -0.68
9 -0.68

> <PUBCHEM_EFFECTIVE_ROTOR_COUNT>
8.4

> <PUBCHEM_PHARMACOPHORE_FEATURES>
26
1 1 acceptor
1 10 acceptor
1 10 donor
1 12 donor
1 13 donor
1 14 donor
1 15 donor
1 16 donor
1 2 acceptor
1 3 acceptor
1 4 acceptor
1 4 donor
1 5 acceptor
1 5 donor
1 6 acceptor
1 7 acceptor
1 7 donor
1 8 acceptor
1 8 donor
1 9 acceptor
1 9 donor
6 1 17 18 19 20 25 rings
6 11 29 30 31 32 34 rings
6 3 21 22 23 24 27 rings
6 32 34 35 36 39 40 rings
6 33 37 38 41 42 43 rings

> <PUBCHEM_HEAVY_ATOM_COUNT>
43

> <PUBCHEM_ATOM_DEF_STEREO_COUNT>
10

> <PUBCHEM_ATOM_UDEF_STEREO_COUNT>
0

> <PUBCHEM_BOND_DEF_STEREO_COUNT>
0

> <PUBCHEM_BOND_UDEF_STEREO_COUNT>
0

> <PUBCHEM_ISOTOPIC_ATOM_COUNT>
0

> <PUBCHEM_COMPONENT_COUNT>
1

> <PUBCHEM_CACTVS_TAUTO_COUNT>
183

> <PUBCHEM_CONFORMER_ID>
0053CE0700000002

> <PUBCHEM_MMFF94_ENERGY>
137.7002

> <PUBCHEM_FEATURE_SELFOVERLAP>
132.089

> <PUBCHEM_SHAPE_FINGERPRINT>
10190108 129 18264188378811187193
102385 1 17691405630373087778
10653451 467 18187654604765485664
10815517 723 18333724745373393032
10930396 42 18191613920578242184
11135926 11 18337956800621086381
11136131 41 18198068190571744122
11513181 2 18042966678421546535
11763389 116 18338238287844921910
12788726 201 18272072891606583528
13782708 43 17967811708519740272
14068700 675 18260546719027862377
14117953 113 18410854399931194373
15183329 4 18413670205690394346
15320467 1 18410854387035418125
15781502 589 17686614645714822079
16067690 210 15482677896706237805
16087824 20 18340766048134913841
16112460 7 18265619779551753508
18681886 176 18339369573540248025
19311894 1 18337112254952491351
20028762 73 18333169466257591870
21796203 349 17910916306530297873
23576562 1 18124029031713913942
24771293 8 18260548901166037192
25223398 141 17774452684354562724
3103668 31 18270965759911175461
340366 18 18266737983019658970
46939830 39 17704068477988587325
6086070 43 18199485298077282783
6371009 1 18264497191697653379
9961470 85 17973455308125761633

> <PUBCHEM_SHAPE_MULTIPOLES>
791.01
16.52
7.58
1.38
2.99
6.56
0.02
-7
0.83
0.16
2.42
0.02
-0.19
-0.05

> <PUBCHEM_SHAPE_SELFOVERLAP>
1719.635

> <PUBCHEM_SHAPE_VOLUME>
425.7

> <PUBCHEM_COORDINATE_TYPE>
2
5
10

$$$$

