230280
  -OEChem-07051212462D

 18 19  0     0  0  0  0  0  0999 V2000
    4.6783   -1.2161    0.0000 N   0  0  0  0  0  0  0  0  0  0  0  0
    4.9889    1.3439    0.0000 N   0  0  0  0  0  0  0  0  0  0  0  0
    3.7320    0.0887    0.0000 C   0  0  0  0  0  0  0  0  0  0  0  0
    3.7320   -0.9113    0.0000 C   0  0  0  0  0  0  0  0  0  0  0  0
    4.6783    0.3934    0.0000 C   0  0  0  0  0  0  0  0  0  0  0  0
    5.2619   -0.4113    0.0000 C   0  0  0  0  0  0  0  0  0  0  0  0
    2.8660    0.5887    0.0000 C   0  0  0  0  0  0  0  0  0  0  0  0
    2.8660   -1.4113    0.0000 C   0  0  0  0  0  0  0  0  0  0  0  0
    2.0000    0.0887    0.0000 C   0  0  0  0  0  0  0  0  0  0  0  0
    2.0000   -0.9113    0.0000 C   0  0  0  0  0  0  0  0  0  0  0  0
    4.8709   -1.8054    0.0000 H   0  0  0  0  0  0  0  0  0  0  0  0
    5.8819   -0.4113    0.0000 H   0  0  0  0  0  0  0  0  0  0  0  0
    2.8660    1.2087    0.0000 H   0  0  0  0  0  0  0  0  0  0  0  0
    2.8660   -2.0313    0.0000 H   0  0  0  0  0  0  0  0  0  0  0  0
    1.4631    0.3987    0.0000 H   0  0  0  0  0  0  0  0  0  0  0  0
    1.4631   -1.2213    0.0000 H   0  0  0  0  0  0  0  0  0  0  0  0
    5.5956    1.4718    0.0000 H   0  0  0  0  0  0  0  0  0  0  0  0
    4.5749    1.8054    0.0000 H   0  0  0  0  0  0  0  0  0  0  0  0
  1  4  1  0  0  0  0
  1  6  1  0  0  0  0
  1 11  1  0  0  0  0
  2  5  1  0  0  0  0
  2 17  1  0  0  0  0
  2 18  1  0  0  0  0
  3  4  1  0  0  0  0
  3  5  1  0  0  0  0
  3  7  2  0  0  0  0
  4  8  2  0  0  0  0
  5  6  2  0  0  0  0
  6 12  1  0  0  0  0
  7  9  1  0  0  0  0
  7 13  1  0  0  0  0
  8 10  1  0  0  0  0
  8 14  1  0  0  0  0
  9 10  2  0  0  0  0
  9 15  1  0  0  0  0
 10 16  1  0  0  0  0
M  END
> <PUBCHEM_COMPOUND_CID>
230280

> <PUBCHEM_COMPOUND_CANONICALIZED>
1

> <PUBCHEM_CACTVS_COMPLEXITY>
124

> <PUBCHEM_CACTVS_HBOND_ACCEPTOR>
1

> <PUBCHEM_CACTVS_HBOND_DONOR>
2

> <PUBCHEM_CACTVS_ROTATABLE_BOND>
0

> <PUBCHEM_CACTVS_SUBSKEYS>
AAADccBzAAAAAAAAAAAAAAAAAAAAAWAAAAAwAAAAAAAAAFgB8AAAHAAQAAAADAjBHgQ8wPLJkACgAzRnRACCgCAxEiAI2aA4dJgIYOLA0dGUJAhgkADIyAcQgIAOAAAAAAACAAAAAAAAAAQAAAAAAAAAAA==

> <PUBCHEM_IUPAC_OPENEYE_NAME>
1H-indol-3-amine

> <PUBCHEM_IUPAC_CAS_NAME>
1H-indol-3-amine

> <PUBCHEM_IUPAC_NAME>
1H-indol-3-amine

> <PUBCHEM_IUPAC_SYSTEMATIC_NAME>
1H-indol-3-amine

> <PUBCHEM_IUPAC_TRADITIONAL_NAME>
1H-indol-3-ylamine

> <PUBCHEM_IUPAC_INCHI>
InChI=1S/C8H8N2/c9-7-5-10-8-4-2-1-3-6(7)8/h1-5,10H,9H2

> <PUBCHEM_IUPAC_INCHIKEY>
TXQAZWIBPGKHOX-UHFFFAOYSA-N

> <PUBCHEM_XLOGP3>
1.9

> <PUBCHEM_EXACT_MASS>
132.068748

> <PUBCHEM_MOLECULAR_FORMULA>
C8H8N2

> <PUBCHEM_MOLECULAR_WEIGHT>
132.16252

> <PUBCHEM_OPENEYE_CAN_SMILES>
C1=CC=C2C(=C1)C(=CN2)N

> <PUBCHEM_OPENEYE_ISO_SMILES>
C1=CC=C2C(=C1)C(=CN2)N

> <PUBCHEM_CACTVS_TPSA>
41.8

> <PUBCHEM_MONOISOTOPIC_WEIGHT>
132.068748

> <PUBCHEM_TOTAL_CHARGE>
0

> <PUBCHEM_HEAVY_ATOM_COUNT>
10

> <PUBCHEM_ATOM_DEF_STEREO_COUNT>
0

> <PUBCHEM_ATOM_UDEF_STEREO_COUNT>
0

> <PUBCHEM_BOND_DEF_STEREO_COUNT>
0

> <PUBCHEM_BOND_UDEF_STEREO_COUNT>
0

> <PUBCHEM_ISOTOPIC_ATOM_COUNT>
0

> <PUBCHEM_COMPONENT_COUNT>
1

> <PUBCHEM_CACTVS_TAUTO_COUNT>
1

> <PUBCHEM_COORDINATE_TYPE>
1
5
255

> <PUBCHEM_BONDANNOTATIONS>
1  4  8
1  6  8
3  4  8
3  5  8
3  7  8
4  8  8
5  6  8
7  9  8
8  10  8
9  10  8

$$$$

