2337
  -OEChem-07051212533D

 23 23  0     0  0  0  0  0  0999 V2000
   -2.1131   -0.3568    0.0005 O   0  0  0  0  0  0  0  0  0  0  0  0
   -1.7062    1.9089    0.0000 O   0  0  0  0  0  0  0  0  0  0  0  0
    4.1634   -0.7318   -0.0010 N   0  0  0  0  0  0  0  0  0  0  0  0
    0.1082    0.3619    0.0009 C   0  0  0  0  0  0  0  0  0  0  0  0
    1.0960    1.3466   -0.0001 C   0  0  0  0  0  0  0  0  0  0  0  0
    0.4669   -0.9861    0.0012 C   0  0  0  0  0  0  0  0  0  0  0  0
    2.8017   -0.3646   -0.0004 C   0  0  0  0  0  0  0  0  0  0  0  0
    2.4427    0.9834   -0.0008 C   0  0  0  0  0  0  0  0  0  0  0  0
    1.8137   -1.3494    0.0006 C   0  0  0  0  0  0  0  0  0  0  0  0
   -1.2959    0.7406    0.0008 C   0  0  0  0  0  0  0  0  0  0  0  0
   -3.5238   -0.1131   -0.0009 C   0  0  0  0  0  0  0  0  0  0  0  0
   -4.2535   -1.4395   -0.0009 C   0  0  0  0  0  0  0  0  0  0  0  0
    0.8381    2.4025   -0.0005 H   0  0  0  0  0  0  0  0  0  0  0  0
   -0.2676   -1.7866    0.0019 H   0  0  0  0  0  0  0  0  0  0  0  0
    3.2033    1.7599   -0.0016 H   0  0  0  0  0  0  0  0  0  0  0  0
    2.0812   -2.4031    0.0009 H   0  0  0  0  0  0  0  0  0  0  0  0
   -3.7946    0.4601    0.8926 H   0  0  0  0  0  0  0  0  0  0  0  0
   -3.7929    0.4592   -0.8954 H   0  0  0  0  0  0  0  0  0  0  0  0
   -5.3367   -1.2901   -0.0020 H   0  0  0  0  0  0  0  0  0  0  0  0
   -3.9769   -2.0312   -0.8798 H   0  0  0  0  0  0  0  0  0  0  0  0
   -3.9785   -2.0303    0.8790 H   0  0  0  0  0  0  0  0  0  0  0  0
    4.4242   -1.7089    0.0001 H   0  0  0  0  0  0  0  0  0  0  0  0
    4.8800   -0.0182   -0.0009 H   0  0  0  0  0  0  0  0  0  0  0  0
  1 10  1  0  0  0  0
  1 11  1  0  0  0  0
  2 10  2  0  0  0  0
  3  7  1  0  0  0  0
  3 22  1  0  0  0  0
  3 23  1  0  0  0  0
  4  5  2  0  0  0  0
  4  6  1  0  0  0  0
  4 10  1  0  0  0  0
  5  8  1  0  0  0  0
  5 13  1  0  0  0  0
  6  9  2  0  0  0  0
  6 14  1  0  0  0  0
  7  8  2  0  0  0  0
  7  9  1  0  0  0  0
  8 15  1  0  0  0  0
  9 16  1  0  0  0  0
 11 12  1  0  0  0  0
 11 17  1  0  0  0  0
 11 18  1  0  0  0  0
 12 19  1  0  0  0  0
 12 20  1  0  0  0  0
 12 21  1  0  0  0  0
M  END
> <PUBCHEM_COMPOUND_CID>
2337

> <PUBCHEM_CONFORMER_RMSD>
0.6

> <PUBCHEM_CONFORMER_DIVERSEORDER>
1
5
2
6
4
3
7

> <PUBCHEM_MMFF94_PARTIAL_CHARGES>
17
1 -0.43
10 0.63
11 0.28
13 0.15
14 0.15
15 0.15
16 0.15
2 -0.57
22 0.4
23 0.4
3 -0.9
4 0.09
5 -0.15
6 -0.15
7 0.1
8 -0.15
9 -0.15

> <PUBCHEM_EFFECTIVE_ROTOR_COUNT>
3

> <PUBCHEM_PHARMACOPHORE_FEATURES>
4
1 2 acceptor
1 3 cation
1 3 donor
6 4 5 6 7 8 9 rings

> <PUBCHEM_HEAVY_ATOM_COUNT>
12

> <PUBCHEM_ATOM_DEF_STEREO_COUNT>
0

> <PUBCHEM_ATOM_UDEF_STEREO_COUNT>
0

> <PUBCHEM_BOND_DEF_STEREO_COUNT>
0

> <PUBCHEM_BOND_UDEF_STEREO_COUNT>
0

> <PUBCHEM_ISOTOPIC_ATOM_COUNT>
0

> <PUBCHEM_COMPONENT_COUNT>
1

> <PUBCHEM_CACTVS_TAUTO_COUNT>
2

> <PUBCHEM_CONFORMER_ID>
0000092100000001

> <PUBCHEM_MMFF94_ENERGY>
38.2674

> <PUBCHEM_FEATURE_SELFOVERLAP>
20.297

> <PUBCHEM_SHAPE_FINGERPRINT>
11062470 55 12103847856006421310
11471102 20 18411423873538498597
11769659 78 18412830208839584051
11806522 49 18412545396815728670
12032990 46 18335698386225605438
13690532 89 18413390951612546234
14251717 144 18337955593287156191
14252887 29 17822002125469800022
14325111 11 18410575088995268292
15477762 27 18411135831541130454
15757776 16 18202288012934400482
16945 1 18410855456102213346
18186145 218 17346887719559054717
200 152 18187374233394766933
20201158 50 18342737412226970827
20645477 70 18409735054170761055
20871998 22 18188480388772778847
21501502 16 18340762744919570976
21501925 9 18412554214583898202
221490 88 18126560116102669331
22959321 4 18410573938160083473
23402539 116 18343590650234639895
23402655 69 18412267254907745781
25610 137 18411417272258361933
2748010 2 18192151727033489038
2871803 45 18343308058941134487
581208 293 18338802208318026905
8809292 202 18201715107394746691

> <PUBCHEM_SHAPE_MULTIPOLES>
230.23
6.78
1.62
0.59
3.43
0.25
0
-2.74
0
0.21
0
0
-0.01
0

> <PUBCHEM_SHAPE_SELFOVERLAP>
473.477

> <PUBCHEM_SHAPE_VOLUME>
133.6

> <PUBCHEM_COORDINATE_TYPE>
2
5
10

$$$$

