9411
  -OEChem-07051213003D

 27 27  0     1  0  0  0  0  0999 V2000
    2.6330   -2.3251   -0.1577 Br  0  0  0  0  0  0  0  0  0  0  0  0
   -0.3439   -2.0811    0.2280 O   0  0  0  0  0  0  0  0  0  0  0  0
   -0.7513    2.5604    0.2864 O   0  0  0  0  0  0  0  0  0  0  0  0
   -0.6177    0.2308    0.2603 N   0  0  0  0  0  0  0  0  0  0  0  0
    1.2911    1.5810    0.0219 N   0  0  0  0  0  0  0  0  0  0  0  0
   -2.0599    0.1028    0.4387 C   0  0  1  0  0  0  0  0  0  0  0  0
   -2.7048   -0.6419   -0.7373 C   0  0  0  0  0  0  0  0  0  0  0  0
   -2.3540   -0.6068    1.7563 C   0  0  0  0  0  0  0  0  0  0  0  0
    0.1342   -0.9484    0.1649 C   0  0  0  0  0  0  0  0  0  0  0  0
   -0.0790    1.5300    0.1960 C   0  0  0  0  0  0  0  0  0  0  0  0
   -2.4370    0.0313   -2.0774 C   0  0  0  0  0  0  0  0  0  0  0  0
    2.1141    0.4852   -0.0858 C   0  0  0  0  0  0  0  0  0  0  0  0
    1.6103   -0.7597   -0.0238 C   0  0  0  0  0  0  0  0  0  0  0  0
    3.5648    0.8416   -0.2705 C   0  0  0  0  0  0  0  0  0  0  0  0
   -2.5169    1.0974    0.4968 H   0  0  0  0  0  0  0  0  0  0  0  0
   -3.7911   -0.6612   -0.5791 H   0  0  0  0  0  0  0  0  0  0  0  0
   -2.4009   -1.6909   -0.7992 H   0  0  0  0  0  0  0  0  0  0  0  0
   -3.4251   -0.5465    1.9814 H   0  0  0  0  0  0  0  0  0  0  0  0
   -2.0954   -1.6689    1.7544 H   0  0  0  0  0  0  0  0  0  0  0  0
   -1.8170   -0.1320    2.5851 H   0  0  0  0  0  0  0  0  0  0  0  0
   -1.3778   -0.0144   -2.3480 H   0  0  0  0  0  0  0  0  0  0  0  0
   -3.0028   -0.4714   -2.8685 H   0  0  0  0  0  0  0  0  0  0  0  0
   -2.7454    1.0814   -2.0584 H   0  0  0  0  0  0  0  0  0  0  0  0
    1.7237    2.4993   -0.0306 H   0  0  0  0  0  0  0  0  0  0  0  0
    3.9178    1.4351    0.5803 H   0  0  0  0  0  0  0  0  0  0  0  0
    3.6927    1.4389   -1.1803 H   0  0  0  0  0  0  0  0  0  0  0  0
    4.2269   -0.0227   -0.3571 H   0  0  0  0  0  0  0  0  0  0  0  0
  1 13  1  0  0  0  0
  2  9  2  0  0  0  0
  3 10  2  0  0  0  0
  4  6  1  0  0  0  0
  4  9  1  0  0  0  0
  4 10  1  0  0  0  0
  5 10  1  0  0  0  0
  5 12  1  0  0  0  0
  5 24  1  0  0  0  0
  6  7  1  0  0  0  0
  6  8  1  0  0  0  0
  6 15  1  0  0  0  0
  7 11  1  0  0  0  0
  7 16  1  0  0  0  0
  7 17  1  0  0  0  0
  8 18  1  0  0  0  0
  8 19  1  0  0  0  0
  8 20  1  0  0  0  0
  9 13  1  0  0  0  0
 11 21  1  0  0  0  0
 11 22  1  0  0  0  0
 11 23  1  0  0  0  0
 12 13  2  0  0  0  0
 12 14  1  0  0  0  0
 14 25  1  0  0  0  0
 14 26  1  0  0  0  0
 14 27  1  0  0  0  0
M  END
> <PUBCHEM_COMPOUND_CID>
9411

> <PUBCHEM_CONFORMER_RMSD>
0.6

> <PUBCHEM_CONFORMER_DIVERSEORDER>
1
6
3
2
4
5

> <PUBCHEM_MMFF94_PARTIAL_CHARGES>
12
1 -0.11
10 0.69
12 -0.03
13 0.12
14 0.14
2 -0.57
24 0.37
3 -0.57
4 -0.42
5 -0.54
6 0.3
9 0.62

> <PUBCHEM_EFFECTIVE_ROTOR_COUNT>
2

> <PUBCHEM_PHARMACOPHORE_FEATURES>
6
1 1 hydrophobe
1 11 hydrophobe
1 2 acceptor
1 3 acceptor
1 5 donor
6 4 5 9 10 12 13 rings

> <PUBCHEM_HEAVY_ATOM_COUNT>
14

> <PUBCHEM_ATOM_DEF_STEREO_COUNT>
0

> <PUBCHEM_ATOM_UDEF_STEREO_COUNT>
1

> <PUBCHEM_BOND_DEF_STEREO_COUNT>
0

> <PUBCHEM_BOND_UDEF_STEREO_COUNT>
0

> <PUBCHEM_ISOTOPIC_ATOM_COUNT>
0

> <PUBCHEM_COMPONENT_COUNT>
1

> <PUBCHEM_CACTVS_TAUTO_COUNT>
3

> <PUBCHEM_CONFORMER_ID>
000024C300000001

> <PUBCHEM_MMFF94_ENERGY>
26.022

> <PUBCHEM_FEATURE_SELFOVERLAP>
30.446

> <PUBCHEM_SHAPE_FINGERPRINT>
11206711 2 18124872610630154494
12138202 97 17489041365716172335
12932764 1 17749106716413944328
13140716 1 18121493549605499408
14617773 55 18041279992596850520
14817 1 9500004446930170381
15775835 57 18040427810939892681
16945 1 18410007702688601528
17844478 74 17702934843045415107
18534176 82 17203618038539289685
193761 8 18122618624715045032
20201158 50 18343023259263844426
20645476 183 16617817222647274334
21061003 4 18268413660188878465
21501502 16 18264766747976489704
22112679 90 17676492782271872371
2334 1 18338792442026736416
23388829 49 18193294093971921666
23402539 116 18333734611398425660
23493267 7 17489878132666881240
23526113 38 18130801048414800107
23552423 10 18197493128883354586
23557571 272 16917061127516784301
25 1 18200611288251986653
2748010 2 18267580398152860220
5084963 1 17968667145287330258
528886 8 18409167692837079073
77492 1 17603862291447469491

> <PUBCHEM_SHAPE_MULTIPOLES>
272.36
4.67
2.27
1.24
1.47
0.17
-0.27
-0.78
-0.78
1.17
0.16
-1.46
-0.21
0.05

> <PUBCHEM_SHAPE_SELFOVERLAP>
538.964

> <PUBCHEM_SHAPE_VOLUME>
165.4

> <PUBCHEM_COORDINATE_TYPE>
2
5
10

$$$$

