10075692
  -OEChem-07051213102D

 80 81  0     0  0  0  0  0  0999 V2000
    7.7331    3.2500    0.0000 O   0  0  0  0  0  0  0  0  0  0  0  0
   10.3312   -1.2500    0.0000 O   0  0  0  0  0  0  0  0  0  0  0  0
    4.2690    7.2500    0.0000 O   0  0  0  0  0  0  0  0  0  0  0  0
    2.5369    6.2500    0.0000 O   0  0  0  0  0  0  0  0  0  0  0  0
    8.5991   -6.2500    0.0000 O   0  0  0  0  0  0  0  0  0  0  0  0
   10.3312   -7.2500    0.0000 O   0  0  0  0  0  0  0  0  0  0  0  0
    6.8671    1.7500    0.0000 N   0  0  0  0  0  0  0  0  0  0  0  0
    4.2690   -1.7500    0.0000 N   0  0  0  0  0  0  0  0  0  0  0  0
    8.5991   -1.2500    0.0000 N   0  0  0  0  0  0  0  0  0  0  0  0
    2.5369   -4.7500    0.0000 N   0  0  0  0  0  0  0  0  0  0  0  0
    6.0010    1.2500    0.0000 C   0  0  0  0  0  0  0  0  0  0  0  0
    6.0010    0.2500    0.0000 C   0  0  0  0  0  0  0  0  0  0  0  0
    7.7331    1.2500    0.0000 C   0  0  0  0  0  0  0  0  0  0  0  0
    5.1350   -0.2500    0.0000 C   0  0  0  0  0  0  0  0  0  0  0  0
    7.7331    0.2500    0.0000 C   0  0  0  0  0  0  0  0  0  0  0  0
    5.1350   -1.2500    0.0000 C   0  0  0  0  0  0  0  0  0  0  0  0
    6.8671    2.7500    0.0000 C   0  0  0  0  0  0  0  0  0  0  0  0
    6.0010    3.2500    0.0000 C   0  0  0  0  0  0  0  0  0  0  0  0
    8.5991   -0.2500    0.0000 C   0  0  0  0  0  0  0  0  0  0  0  0
    6.0010    4.2500    0.0000 C   0  0  0  0  0  0  0  0  0  0  0  0
    4.2690   -2.7500    0.0000 C   0  0  0  0  0  0  0  0  0  0  0  0
    3.4030   -3.2500    0.0000 C   0  0  0  0  0  0  0  0  0  0  0  0
    5.1350    4.7500    0.0000 C   0  0  0  0  0  0  0  0  0  0  0  0
    9.4651   -1.7500    0.0000 C   0  0  0  0  0  0  0  0  0  0  0  0
    9.4651   -2.7500    0.0000 C   0  0  0  0  0  0  0  0  0  0  0  0
    3.4030   -4.2500    0.0000 C   0  0  0  0  0  0  0  0  0  0  0  0
   10.3312   -3.2500    0.0000 C   0  0  0  0  0  0  0  0  0  0  0  0
    5.1350    5.7500    0.0000 C   0  0  0  0  0  0  0  0  0  0  0  0
    4.2690    4.2500    0.0000 C   0  0  0  0  0  0  0  0  0  0  0  0
   10.3312   -4.2500    0.0000 C   0  0  0  0  0  0  0  0  0  0  0  0
    4.2690    6.2500    0.0000 C   0  0  0  0  0  0  0  0  0  0  0  0
    3.4030    4.7500    0.0000 C   0  0  0  0  0  0  0  0  0  0  0  0
    3.4030    5.7500    0.0000 C   0  0  0  0  0  0  0  0  0  0  0  0
    9.4651   -4.7500    0.0000 C   0  0  0  0  0  0  0  0  0  0  0  0
   11.1972   -4.7500    0.0000 C   0  0  0  0  0  0  0  0  0  0  0  0
    9.4651   -5.7500    0.0000 C   0  0  0  0  0  0  0  0  0  0  0  0
   11.1972   -5.7500    0.0000 C   0  0  0  0  0  0  0  0  0  0  0  0
   10.3312   -6.2500    0.0000 C   0  0  0  0  0  0  0  0  0  0  0  0
    5.7890    1.8326    0.0000 H   0  0  0  0  0  0  0  0  0  0  0  0
    5.3905    1.1423    0.0000 H   0  0  0  0  0  0  0  0  0  0  0  0
    6.2131   -0.3326    0.0000 H   0  0  0  0  0  0  0  0  0  0  0  0
    6.6116    0.3577    0.0000 H   0  0  0  0  0  0  0  0  0  0  0  0
    8.3437    1.1423    0.0000 H   0  0  0  0  0  0  0  0  0  0  0  0
    7.9451    1.8326    0.0000 H   0  0  0  0  0  0  0  0  0  0  0  0
    4.9230    0.3326    0.0000 H   0  0  0  0  0  0  0  0  0  0  0  0
    4.5244   -0.3577    0.0000 H   0  0  0  0  0  0  0  0  0  0  0  0
    7.1225    0.3577    0.0000 H   0  0  0  0  0  0  0  0  0  0  0  0
    7.5210   -0.3326    0.0000 H   0  0  0  0  0  0  0  0  0  0  0  0
    5.3471   -1.8326    0.0000 H   0  0  0  0  0  0  0  0  0  0  0  0
    5.7456   -1.1423    0.0000 H   0  0  0  0  0  0  0  0  0  0  0  0
    5.3905    3.3577    0.0000 H   0  0  0  0  0  0  0  0  0  0  0  0
    5.7890    2.6674    0.0000 H   0  0  0  0  0  0  0  0  0  0  0  0
    9.2097   -0.3577    0.0000 H   0  0  0  0  0  0  0  0  0  0  0  0
    8.8112    0.3326    0.0000 H   0  0  0  0  0  0  0  0  0  0  0  0
    6.6116    4.1423    0.0000 H   0  0  0  0  0  0  0  0  0  0  0  0
    6.2131    4.8326    0.0000 H   0  0  0  0  0  0  0  0  0  0  0  0
    3.7320   -1.4400    0.0000 H   0  0  0  0  0  0  0  0  0  0  0  0
    4.4810   -3.3326    0.0000 H   0  0  0  0  0  0  0  0  0  0  0  0
    4.8796   -2.6423    0.0000 H   0  0  0  0  0  0  0  0  0  0  0  0
    8.0622   -1.5600    0.0000 H   0  0  0  0  0  0  0  0  0  0  0  0
    3.1909   -2.6674    0.0000 H   0  0  0  0  0  0  0  0  0  0  0  0
    2.7924   -3.3577    0.0000 H   0  0  0  0  0  0  0  0  0  0  0  0
    8.8546   -2.6423    0.0000 H   0  0  0  0  0  0  0  0  0  0  0  0
    9.2531   -3.3326    0.0000 H   0  0  0  0  0  0  0  0  0  0  0  0
    3.6150   -4.8326    0.0000 H   0  0  0  0  0  0  0  0  0  0  0  0
    4.0135   -4.1423    0.0000 H   0  0  0  0  0  0  0  0  0  0  0  0
   10.9417   -3.3577    0.0000 H   0  0  0  0  0  0  0  0  0  0  0  0
   10.5432   -2.6674    0.0000 H   0  0  0  0  0  0  0  0  0  0  0  0
    5.6720    6.0600    0.0000 H   0  0  0  0  0  0  0  0  0  0  0  0
    4.2690    3.6300    0.0000 H   0  0  0  0  0  0  0  0  0  0  0  0
    2.8660    4.4400    0.0000 H   0  0  0  0  0  0  0  0  0  0  0  0
    2.5369   -5.3700    0.0000 H   0  0  0  0  0  0  0  0  0  0  0  0
    2.0000   -4.4400    0.0000 H   0  0  0  0  0  0  0  0  0  0  0  0
    8.9282   -4.4400    0.0000 H   0  0  0  0  0  0  0  0  0  0  0  0
   11.7341   -4.4400    0.0000 H   0  0  0  0  0  0  0  0  0  0  0  0
   11.7341   -6.0600    0.0000 H   0  0  0  0  0  0  0  0  0  0  0  0
    4.8059    7.5600    0.0000 H   0  0  0  0  0  0  0  0  0  0  0  0
    2.0000    5.9400    0.0000 H   0  0  0  0  0  0  0  0  0  0  0  0
    8.5991   -6.8700    0.0000 H   0  0  0  0  0  0  0  0  0  0  0  0
   10.8681   -7.5600    0.0000 H   0  0  0  0  0  0  0  0  0  0  0  0
  1 17  2  0  0  0  0
  2 24  2  0  0  0  0
  3 31  1  0  0  0  0
  3 77  1  0  0  0  0
  4 33  1  0  0  0  0
  4 78  1  0  0  0  0
  5 36  1  0  0  0  0
  5 79  1  0  0  0  0
  6 38  1  0  0  0  0
  6 80  1  0  0  0  0
  7 11  1  0  0  0  0
  7 13  1  0  0  0  0
  7 17  1  0  0  0  0
  8 16  1  0  0  0  0
  8 21  1  0  0  0  0
  8 57  1  0  0  0  0
  9 19  1  0  0  0  0
  9 24  1  0  0  0  0
  9 60  1  0  0  0  0
 10 26  1  0  0  0  0
 10 72  1  0  0  0  0
 10 73  1  0  0  0  0
 11 12  1  0  0  0  0
 11 39  1  0  0  0  0
 11 40  1  0  0  0  0
 12 14  1  0  0  0  0
 12 41  1  0  0  0  0
 12 42  1  0  0  0  0
 13 15  1  0  0  0  0
 13 43  1  0  0  0  0
 13 44  1  0  0  0  0
 14 16  1  0  0  0  0
 14 45  1  0  0  0  0
 14 46  1  0  0  0  0
 15 19  1  0  0  0  0
 15 47  1  0  0  0  0
 15 48  1  0  0  0  0
 16 49  1  0  0  0  0
 16 50  1  0  0  0  0
 17 18  1  0  0  0  0
 18 20  1  0  0  0  0
 18 51  1  0  0  0  0
 18 52  1  0  0  0  0
 19 53  1  0  0  0  0
 19 54  1  0  0  0  0
 20 23  1  0  0  0  0
 20 55  1  0  0  0  0
 20 56  1  0  0  0  0
 21 22  1  0  0  0  0
 21 58  1  0  0  0  0
 21 59  1  0  0  0  0
 22 26  1  0  0  0  0
 22 61  1  0  0  0  0
 22 62  1  0  0  0  0
 23 28  2  0  0  0  0
 23 29  1  0  0  0  0
 24 25  1  0  0  0  0
 25 27  1  0  0  0  0
 25 63  1  0  0  0  0
 25 64  1  0  0  0  0
 26 65  1  0  0  0  0
 26 66  1  0  0  0  0
 27 30  1  0  0  0  0
 27 67  1  0  0  0  0
 27 68  1  0  0  0  0
 28 31  1  0  0  0  0
 28 69  1  0  0  0  0
 29 32  2  0  0  0  0
 29 70  1  0  0  0  0
 30 34  2  0  0  0  0
 30 35  1  0  0  0  0
 31 33  2  0  0  0  0
 32 33  1  0  0  0  0
 32 71  1  0  0  0  0
 34 36  1  0  0  0  0
 34 74  1  0  0  0  0
 35 37  2  0  0  0  0
 35 75  1  0  0  0  0
 36 38  2  0  0  0  0
 37 38  1  0  0  0  0
 37 76  1  0  0  0  0
M  END
> <PUBCHEM_COMPOUND_CID>
10075692

> <PUBCHEM_COMPOUND_CANONICALIZED>
1

> <PUBCHEM_CACTVS_COMPLEXITY>
669

> <PUBCHEM_CACTVS_HBOND_ACCEPTOR>
8

> <PUBCHEM_CACTVS_HBOND_DONOR>
7

> <PUBCHEM_CACTVS_ROTATABLE_BOND>
18

> <PUBCHEM_CACTVS_SUBSKEYS>
AAADcfB7uAAAAAAAAAAAAAAAAAAAAAAAAAAwYAAAAAAAAAABQAAAHgAQCAAADATBmAQwBoPAAgCIAiFSEAACAAAgIAAIiIEOiIgJJjKC0RKEcAEk1hGJmAeYyLCOIAABAAAAQABAAAIAAACAAAAAAAAAAA==

> <PUBCHEM_IUPAC_OPENEYE_NAME>
N-[3-[4-(3-aminopropylamino)butyl-[3-(3,4-dihydroxyphenyl)propanoyl]amino]propyl]-3-(3,4-dihydroxyphenyl)propanamide

> <PUBCHEM_IUPAC_CAS_NAME>
N-[3-[4-(3-aminopropylamino)butyl-[3-(3,4-dihydroxyphenyl)-1-oxopropyl]amino]propyl]-3-(3,4-dihydroxyphenyl)propanamide

> <PUBCHEM_IUPAC_NAME>
N-[3-[4-(3-aminopropylamino)butyl-[3-(3,4-dihydroxyphenyl)propanoyl]amino]propyl]-3-(3,4-dihydroxyphenyl)propanamide

> <PUBCHEM_IUPAC_SYSTEMATIC_NAME>
N-[3-[4-(3-azanylpropylamino)butyl-[3-[3,4-bis(oxidanyl)phenyl]propanoyl]amino]propyl]-3-[3,4-bis(oxidanyl)phenyl]propanamide

> <PUBCHEM_IUPAC_TRADITIONAL_NAME>
N-[3-[4-(3-aminopropylamino)butyl-[3-(3,4-dihydroxyphenyl)propanoyl]amino]propyl]-3-(3,4-dihydroxyphenyl)propionamide

> <PUBCHEM_IUPAC_INCHI>
InChI=1S/C28H42N4O6/c29-13-3-15-30-14-1-2-17-32(28(38)12-8-22-6-10-24(34)26(36)20-22)18-4-16-31-27(37)11-7-21-5-9-23(33)25(35)19-21/h5-6,9-10,19-20,30,33-36H,1-4,7-8,11-18,29H2,(H,31,37)

> <PUBCHEM_IUPAC_INCHIKEY>
VZOUDULKCUBJHR-UHFFFAOYSA-N

> <PUBCHEM_XLOGP3_AA>
1.5

> <PUBCHEM_EXACT_MASS>
530.310435

> <PUBCHEM_MOLECULAR_FORMULA>
C28H42N4O6

> <PUBCHEM_MOLECULAR_WEIGHT>
530.65628

> <PUBCHEM_OPENEYE_CAN_SMILES>
C1=CC(=C(C=C1CCC(=O)NCCCN(CCCCNCCCN)C(=O)CCC2=CC(=C(C=C2)O)O)O)O

> <PUBCHEM_OPENEYE_ISO_SMILES>
C1=CC(=C(C=C1CCC(=O)NCCCN(CCCCNCCCN)C(=O)CCC2=CC(=C(C=C2)O)O)O)O

> <PUBCHEM_CACTVS_TPSA>
168

> <PUBCHEM_MONOISOTOPIC_WEIGHT>
530.310435

> <PUBCHEM_TOTAL_CHARGE>
0

> <PUBCHEM_HEAVY_ATOM_COUNT>
38

> <PUBCHEM_ATOM_DEF_STEREO_COUNT>
0

> <PUBCHEM_ATOM_UDEF_STEREO_COUNT>
0

> <PUBCHEM_BOND_DEF_STEREO_COUNT>
0

> <PUBCHEM_BOND_UDEF_STEREO_COUNT>
0

> <PUBCHEM_ISOTOPIC_ATOM_COUNT>
0

> <PUBCHEM_COMPONENT_COUNT>
1

> <PUBCHEM_CACTVS_TAUTO_COUNT>
998

> <PUBCHEM_COORDINATE_TYPE>
1
5
255

> <PUBCHEM_BONDANNOTATIONS>
23  28  8
23  29  8
28  31  8
29  32  8
30  34  8
30  35  8
31  33  8
32  33  8
34  36  8
35  37  8
36  38  8
37  38  8

$$$$

