17396210
  -OEChem-06241222552D

 46 48  0     0  0  0  0  0  0999 V2000
    5.4978    3.3529    0.0000 O   0  0  0  0  0  0  0  0  0  0  0  0
    3.7320    1.9028    0.0000 O   0  0  0  0  0  0  0  0  0  0  0  0
    2.0000   -1.0972    0.0000 O   0  0  0  0  0  0  0  0  0  0  0  0
    5.5443    0.7075    0.0000 N   0  0  0  0  0  0  0  0  0  0  0  0
    3.7320   -1.0972    0.0000 N   0  0  0  0  0  0  0  0  0  0  0  0
    5.5443   -0.9019    0.0000 N   0  0  0  0  0  0  0  0  0  0  0  0
    2.8660    0.4028    0.0000 N   0  0  0  0  0  0  0  0  0  0  0  0
    7.6279    0.7688    0.0000 N   0  0  0  0  0  0  0  0  0  0  0  0
    4.5981    0.4028    0.0000 C   0  0  0  0  0  0  0  0  0  0  0  0
    4.5981   -0.5972    0.0000 C   0  0  0  0  0  0  0  0  0  0  0  0
    3.7320   -2.0972    0.0000 C   0  0  0  0  0  0  0  0  0  0  0  0
    6.1279   -0.0972    0.0000 C   0  0  0  0  0  0  0  0  0  0  0  0
    2.8660   -2.5972    0.0000 C   0  0  0  0  0  0  0  0  0  0  0  0
    5.8550    1.6581    0.0000 C   0  0  0  0  0  0  0  0  0  0  0  0
    3.7320    0.9028    0.0000 C   0  0  0  0  0  0  0  0  0  0  0  0
    2.8660   -0.5972    0.0000 C   0  0  0  0  0  0  0  0  0  0  0  0
    2.8660   -3.5972    0.0000 C   0  0  0  0  0  0  0  0  0  0  0  0
    5.1871    2.4024    0.0000 C   0  0  0  0  0  0  0  0  0  0  0  0
    7.1279   -0.0972    0.0000 C   0  0  0  0  0  0  0  0  0  0  0  0
    2.0000   -4.0972    0.0000 C   0  0  0  0  0  0  0  0  0  0  0  0
    7.6279   -0.9632    0.0000 C   0  0  0  0  0  0  0  0  0  0  0  0
    8.6279   -0.9632    0.0000 C   0  0  0  0  0  0  0  0  0  0  0  0
    8.6279    0.7688    0.0000 C   0  0  0  0  0  0  0  0  0  0  0  0
    9.1279   -0.0972    0.0000 C   0  0  0  0  0  0  0  0  0  0  0  0
    4.8299    4.0972    0.0000 C   0  0  0  0  0  0  0  0  0  0  0  0
    3.9441   -2.6798    0.0000 H   0  0  0  0  0  0  0  0  0  0  0  0
    4.3426   -1.9895    0.0000 H   0  0  0  0  0  0  0  0  0  0  0  0
    2.6540   -2.0146    0.0000 H   0  0  0  0  0  0  0  0  0  0  0  0
    2.2554   -2.7048    0.0000 H   0  0  0  0  0  0  0  0  0  0  0  0
    6.4019    1.3660    0.0000 H   0  0  0  0  0  0  0  0  0  0  0  0
    6.2375    2.1460    0.0000 H   0  0  0  0  0  0  0  0  0  0  0  0
    3.0781   -4.1798    0.0000 H   0  0  0  0  0  0  0  0  0  0  0  0
    3.4766   -3.4895    0.0000 H   0  0  0  0  0  0  0  0  0  0  0  0
    2.3291    0.7128    0.0000 H   0  0  0  0  0  0  0  0  0  0  0  0
    4.6402    2.6944    0.0000 H   0  0  0  0  0  0  0  0  0  0  0  0
    4.8046    1.9145    0.0000 H   0  0  0  0  0  0  0  0  0  0  0  0
    1.6900   -3.5602    0.0000 H   0  0  0  0  0  0  0  0  0  0  0  0
    1.4631   -4.4072    0.0000 H   0  0  0  0  0  0  0  0  0  0  0  0
    2.3100   -4.6341    0.0000 H   0  0  0  0  0  0  0  0  0  0  0  0
    7.3179   -1.5002    0.0000 H   0  0  0  0  0  0  0  0  0  0  0  0
    8.9379   -1.5002    0.0000 H   0  0  0  0  0  0  0  0  0  0  0  0
    8.9379    1.3058    0.0000 H   0  0  0  0  0  0  0  0  0  0  0  0
    9.7479   -0.0972    0.0000 H   0  0  0  0  0  0  0  0  0  0  0  0
    5.2914    4.5113    0.0000 H   0  0  0  0  0  0  0  0  0  0  0  0
    4.4159    4.5586    0.0000 H   0  0  0  0  0  0  0  0  0  0  0  0
    4.3685    3.6831    0.0000 H   0  0  0  0  0  0  0  0  0  0  0  0
  1 18  1  0  0  0  0
  1 25  1  0  0  0  0
  2 15  2  0  0  0  0
  3 16  2  0  0  0  0
  4  9  1  0  0  0  0
  4 12  1  0  0  0  0
  4 14  1  0  0  0  0
  5 10  1  0  0  0  0
  5 11  1  0  0  0  0
  5 16  1  0  0  0  0
  6 10  1  0  0  0  0
  6 12  2  0  0  0  0
  7 15  1  0  0  0  0
  7 16  1  0  0  0  0
  7 34  1  0  0  0  0
  8 19  1  0  0  0  0
  8 23  2  0  0  0  0
  9 10  2  0  0  0  0
  9 15  1  0  0  0  0
 11 13  1  0  0  0  0
 11 26  1  0  0  0  0
 11 27  1  0  0  0  0
 12 19  1  0  0  0  0
 13 17  1  0  0  0  0
 13 28  1  0  0  0  0
 13 29  1  0  0  0  0
 14 18  1  0  0  0  0
 14 30  1  0  0  0  0
 14 31  1  0  0  0  0
 17 20  1  0  0  0  0
 17 32  1  0  0  0  0
 17 33  1  0  0  0  0
 18 35  1  0  0  0  0
 18 36  1  0  0  0  0
 19 21  2  0  0  0  0
 20 37  1  0  0  0  0
 20 38  1  0  0  0  0
 20 39  1  0  0  0  0
 21 22  1  0  0  0  0
 21 40  1  0  0  0  0
 22 24  2  0  0  0  0
 22 41  1  0  0  0  0
 23 24  1  0  0  0  0
 23 42  1  0  0  0  0
 24 43  1  0  0  0  0
 25 44  1  0  0  0  0
 25 45  1  0  0  0  0
 25 46  1  0  0  0  0
M  END
> <PUBCHEM_COMPOUND_CID>
17396210

> <PUBCHEM_COMPOUND_CANONICALIZED>
1

> <PUBCHEM_CACTVS_COMPLEXITY>
489

> <PUBCHEM_CACTVS_HBOND_ACCEPTOR>
5

> <PUBCHEM_CACTVS_HBOND_DONOR>
1

> <PUBCHEM_CACTVS_ROTATABLE_BOND>
7

> <PUBCHEM_CACTVS_SUBSKEYS>
AAADceB7sAAAAAAAAAAAAAAAAAAAAWAAAAAsWAAAAAAAAFgB4AAAHgAQAAAACAjhlwY/sJfMFACoATd3dACCgC03EqAJ2CG4dNiKaOrA2bGVIIhohyLYyGcQAAAAAAAAAAAAAAAAAAAAAAAAAAAAAAAAAA==

> <PUBCHEM_IUPAC_OPENEYE_NAME>
3-butyl-7-(2-methoxyethyl)-8-(2-pyridyl)purine-2,6-dione

> <PUBCHEM_IUPAC_CAS_NAME>
3-butyl-7-(2-methoxyethyl)-8-(2-pyridinyl)purine-2,6-dione

> <PUBCHEM_IUPAC_NAME>
3-butyl-7-(2-methoxyethyl)-8-pyridin-2-ylpurine-2,6-dione

> <PUBCHEM_IUPAC_SYSTEMATIC_NAME>
3-butyl-7-(2-methoxyethyl)-8-pyridin-2-yl-purine-2,6-dione

> <PUBCHEM_IUPAC_TRADITIONAL_NAME>
3-butyl-7-(2-methoxyethyl)-8-(2-pyridyl)xanthine

> <PUBCHEM_IUPAC_INCHI>
InChI=1S/C17H21N5O3/c1-3-4-9-22-15-13(16(23)20-17(22)24)21(10-11-25-2)14(19-15)12-7-5-6-8-18-12/h5-8H,3-4,9-11H2,1-2H3,(H,20,23,24)

> <PUBCHEM_IUPAC_INCHIKEY>
YJMYLRZCQDGELK-UHFFFAOYSA-N

> <PUBCHEM_XLOGP3_AA>
1.1

> <PUBCHEM_EXACT_MASS>
343.16444

> <PUBCHEM_MOLECULAR_FORMULA>
C17H21N5O3

> <PUBCHEM_MOLECULAR_WEIGHT>
343.38034

> <PUBCHEM_OPENEYE_CAN_SMILES>
CCCCN1C2=C(C(=O)NC1=O)N(C(=N2)C3=CC=CC=N3)CCOC

> <PUBCHEM_OPENEYE_ISO_SMILES>
CCCCN1C2=C(C(=O)NC1=O)N(C(=N2)C3=CC=CC=N3)CCOC

> <PUBCHEM_CACTVS_TPSA>
89.4

> <PUBCHEM_MONOISOTOPIC_WEIGHT>
343.16444

> <PUBCHEM_TOTAL_CHARGE>
0

> <PUBCHEM_HEAVY_ATOM_COUNT>
25

> <PUBCHEM_ATOM_DEF_STEREO_COUNT>
0

> <PUBCHEM_ATOM_UDEF_STEREO_COUNT>
0

> <PUBCHEM_BOND_DEF_STEREO_COUNT>
0

> <PUBCHEM_BOND_UDEF_STEREO_COUNT>
0

> <PUBCHEM_ISOTOPIC_ATOM_COUNT>
0

> <PUBCHEM_COMPONENT_COUNT>
1

> <PUBCHEM_CACTVS_TAUTO_COUNT>
3

> <PUBCHEM_COORDINATE_TYPE>
1
5
255

> <PUBCHEM_BONDANNOTATIONS>
19  21  8
21  22  8
22  24  8
23  24  8
4  12  8
4  9  8
5  10  8
5  16  8
6  10  8
6  12  8
7  15  8
7  16  8
8  19  8
8  23  8
9  10  8
9  15  8

$$$$

