1791
  -OEChem-07051212512D

 54 56  0     1  0  0  0  0  0999 V2000
    2.0000    2.0000    0.0000 Cl  0  0  0  0  0  0  0  0  0  0  0  0
    3.7320    1.0000    0.0000 O   0  0  0  0  0  0  0  0  0  0  0  0
    4.5411    5.5878    0.0000 O   0  0  0  0  0  0  0  0  0  0  0  0
    6.3871   -5.5878    0.0000 O   0  0  0  0  0  0  0  0  0  0  0  0
    2.9230    5.5878    0.0000 N   0  0  0  0  0  0  0  0  0  0  0  0
    6.6962   -6.5388    0.0000 N   0  0  0  0  0  0  0  0  0  0  0  0
    5.4641   -2.0000    0.0000 C   0  0  0  0  0  0  0  0  0  0  0  0
    6.3301   -2.5000    0.0000 C   0  0  0  0  0  0  0  0  0  0  0  0
    5.4641   -1.0000    0.0000 C   0  0  0  0  0  0  0  0  0  0  0  0
    6.3301   -3.5000    0.0000 C   0  0  0  0  0  0  0  0  0  0  0  0
    4.5981   -0.5000    0.0000 C   0  0  0  0  0  0  0  0  0  0  0  0
    7.1962   -4.0000    0.0000 C   0  0  0  0  0  0  0  0  0  0  0  0
    4.5981    0.5000    0.0000 C   0  0  0  0  0  0  0  0  0  0  0  0
    7.1962   -5.0000    0.0000 C   0  0  0  0  0  0  0  0  0  0  0  0
    3.2320    6.5388    0.0000 C   0  0  3  0  0  0  0  0  0  0  0  0
    4.2320    6.5388    0.0000 C   0  0  0  0  0  0  0  0  0  0  0  0
    3.7320    5.0000    0.0000 C   0  0  0  0  0  0  0  0  0  0  0  0
    3.7320    4.0000    0.0000 C   0  0  0  0  0  0  0  0  0  0  0  0
    3.7320    2.0000    0.0000 C   0  0  0  0  0  0  0  0  0  0  0  0
    8.0052   -5.5878    0.0000 C   0  0  0  0  0  0  0  0  0  0  0  0
    2.6443    7.3479    0.0000 C   0  0  0  0  0  0  0  0  0  0  0  0
    2.8660    3.5000    0.0000 C   0  0  0  0  0  0  0  0  0  0  0  0
    4.5981    3.5000    0.0000 C   0  0  0  0  0  0  0  0  0  0  0  0
    2.8660    2.5000    0.0000 C   0  0  0  0  0  0  0  0  0  0  0  0
    4.5981    2.5000    0.0000 C   0  0  0  0  0  0  0  0  0  0  0  0
    7.6962   -6.5388    0.0000 C   0  0  0  0  0  0  0  0  0  0  0  0
    8.2839   -7.3479    0.0000 C   0  0  0  0  0  0  0  0  0  0  0  0
    4.8535   -1.8923    0.0000 H   0  0  0  0  0  0  0  0  0  0  0  0
    5.2520   -2.5826    0.0000 H   0  0  0  0  0  0  0  0  0  0  0  0
    6.9407   -2.6077    0.0000 H   0  0  0  0  0  0  0  0  0  0  0  0
    6.5422   -1.9174    0.0000 H   0  0  0  0  0  0  0  0  0  0  0  0
    6.0747   -1.1077    0.0000 H   0  0  0  0  0  0  0  0  0  0  0  0
    5.6762   -0.4174    0.0000 H   0  0  0  0  0  0  0  0  0  0  0  0
    5.7196   -3.3923    0.0000 H   0  0  0  0  0  0  0  0  0  0  0  0
    6.1181   -4.0826    0.0000 H   0  0  0  0  0  0  0  0  0  0  0  0
    3.9875   -0.3923    0.0000 H   0  0  0  0  0  0  0  0  0  0  0  0
    4.3860   -1.0826    0.0000 H   0  0  0  0  0  0  0  0  0  0  0  0
    7.8067   -4.1077    0.0000 H   0  0  0  0  0  0  0  0  0  0  0  0
    7.4082   -3.4174    0.0000 H   0  0  0  0  0  0  0  0  0  0  0  0
    5.2087    0.3923    0.0000 H   0  0  0  0  0  0  0  0  0  0  0  0
    4.8101    1.0826    0.0000 H   0  0  0  0  0  0  0  0  0  0  0  0
    2.3925    6.4059    0.0000 H   0  0  0  0  0  0  0  0  0  0  0  0
    4.8385    6.6678    0.0000 H   0  0  0  0  0  0  0  0  0  0  0  0
    4.1672    7.1554    0.0000 H   0  0  0  0  0  0  0  0  0  0  0  0
    8.5948   -5.3962    0.0000 H   0  0  0  0  0  0  0  0  0  0  0  0
    3.1459    7.7123    0.0000 H   0  0  0  0  0  0  0  0  0  0  0  0
    2.2798    7.8494    0.0000 H   0  0  0  0  0  0  0  0  0  0  0  0
    2.1427    6.9834    0.0000 H   0  0  0  0  0  0  0  0  0  0  0  0
    2.3291    3.8100    0.0000 H   0  0  0  0  0  0  0  0  0  0  0  0
    5.1350    3.8100    0.0000 H   0  0  0  0  0  0  0  0  0  0  0  0
    5.1350    2.1900    0.0000 H   0  0  0  0  0  0  0  0  0  0  0  0
    7.7824   -7.7123    0.0000 H   0  0  0  0  0  0  0  0  0  0  0  0
    8.6484   -7.8494    0.0000 H   0  0  0  0  0  0  0  0  0  0  0  0
    8.7855   -6.9834    0.0000 H   0  0  0  0  0  0  0  0  0  0  0  0
  1 24  1  0  0  0  0
  2 13  1  0  0  0  0
  2 19  1  0  0  0  0
  3 16  1  0  0  0  0
  3 17  1  0  0  0  0
  4  6  1  0  0  0  0
  4 14  1  0  0  0  0
  5 15  1  0  0  0  0
  5 17  2  0  0  0  0
  6 26  2  0  0  0  0
  7  8  1  0  0  0  0
  7  9  1  0  0  0  0
  7 28  1  0  0  0  0
  7 29  1  0  0  0  0
  8 10  1  0  0  0  0
  8 30  1  0  0  0  0
  8 31  1  0  0  0  0
  9 11  1  0  0  0  0
  9 32  1  0  0  0  0
  9 33  1  0  0  0  0
 10 12  1  0  0  0  0
 10 34  1  0  0  0  0
 10 35  1  0  0  0  0
 11 13  1  0  0  0  0
 11 36  1  0  0  0  0
 11 37  1  0  0  0  0
 12 14  1  0  0  0  0
 12 38  1  0  0  0  0
 12 39  1  0  0  0  0
 13 40  1  0  0  0  0
 13 41  1  0  0  0  0
 14 20  2  0  0  0  0
 15 16  1  0  0  0  0
 15 21  1  0  0  0  0
 15 42  1  0  0  0  0
 16 43  1  0  0  0  0
 16 44  1  0  0  0  0
 17 18  1  0  0  0  0
 18 22  2  0  0  0  0
 18 23  1  0  0  0  0
 19 24  2  0  0  0  0
 19 25  1  0  0  0  0
 20 26  1  0  0  0  0
 20 45  1  0  0  0  0
 21 46  1  0  0  0  0
 21 47  1  0  0  0  0
 21 48  1  0  0  0  0
 22 24  1  0  0  0  0
 22 49  1  0  0  0  0
 23 25  2  0  0  0  0
 23 50  1  0  0  0  0
 25 51  1  0  0  0  0
 26 27  1  0  0  0  0
 27 52  1  0  0  0  0
 27 53  1  0  0  0  0
 27 54  1  0  0  0  0
M  END
> <PUBCHEM_COMPOUND_CID>
1791

> <PUBCHEM_COMPOUND_CANONICALIZED>
1

> <PUBCHEM_CACTVS_COMPLEXITY>
476

> <PUBCHEM_CACTVS_HBOND_ACCEPTOR>
5

> <PUBCHEM_CACTVS_HBOND_DONOR>
0

> <PUBCHEM_CACTVS_ROTATABLE_BOND>
10

> <PUBCHEM_CACTVS_SUBSKEYS>
AAADceB7MAAEAAAAAAAAAAAAAAAAAWIAAAAwAAAAAAAAAAABwAAAHgIEAAAADC7hniYyhpIQBACpA6RyRgCCCAAkJ0AomCE2b9oOJruFs5qDOaDmwBkI6UeY6KyOIAAAIAAACABAAABAAAAQAAAAAAAAAA==

> <PUBCHEM_IUPAC_OPENEYE_NAME>
5-[7-[2-chloro-4-(4-methyl-4,5-dihydrooxazol-2-yl)phenoxy]heptyl]-3-methyl-isoxazole

> <PUBCHEM_IUPAC_CAS_NAME>
5-[7-[2-chloro-4-(4-methyl-4,5-dihydrooxazol-2-yl)phenoxy]heptyl]-3-methylisoxazole

> <PUBCHEM_IUPAC_NAME>
5-[7-[2-chloro-4-(4-methyl-4,5-dihydro-1,3-oxazol-2-yl)phenoxy]heptyl]-3-methyl-1,2-oxazole

> <PUBCHEM_IUPAC_SYSTEMATIC_NAME>
5-[7-[2-chloranyl-4-(4-methyl-4,5-dihydro-1,3-oxazol-2-yl)phenoxy]heptyl]-3-methyl-1,2-oxazole

> <PUBCHEM_IUPAC_TRADITIONAL_NAME>
5-[7-[2-chloro-4-(4-methyl-2-oxazolin-2-yl)phenoxy]heptyl]-3-methyl-isoxazole

> <PUBCHEM_IUPAC_INCHI>
InChI=1S/C21H27ClN2O3/c1-15-12-18(27-24-15)8-6-4-3-5-7-11-25-20-10-9-17(13-19(20)22)21-23-16(2)14-26-21/h9-10,12-13,16H,3-8,11,14H2,1-2H3

> <PUBCHEM_IUPAC_INCHIKEY>
WOJFAPUTPSWFLJ-UHFFFAOYSA-N

> <PUBCHEM_XLOGP3_AA>
5.5

> <PUBCHEM_EXACT_MASS>
390.17102

> <PUBCHEM_MOLECULAR_FORMULA>
C21H27ClN2O3

> <PUBCHEM_MOLECULAR_WEIGHT>
390.90368

> <PUBCHEM_OPENEYE_CAN_SMILES>
CC1COC(=N1)C2=CC(=C(C=C2)OCCCCCCCC3=CC(=NO3)C)Cl

> <PUBCHEM_OPENEYE_ISO_SMILES>
CC1COC(=N1)C2=CC(=C(C=C2)OCCCCCCCC3=CC(=NO3)C)Cl

> <PUBCHEM_CACTVS_TPSA>
56.8

> <PUBCHEM_MONOISOTOPIC_WEIGHT>
390.17102

> <PUBCHEM_TOTAL_CHARGE>
0

> <PUBCHEM_HEAVY_ATOM_COUNT>
27

> <PUBCHEM_ATOM_DEF_STEREO_COUNT>
0

> <PUBCHEM_ATOM_UDEF_STEREO_COUNT>
1

> <PUBCHEM_BOND_DEF_STEREO_COUNT>
0

> <PUBCHEM_BOND_UDEF_STEREO_COUNT>
0

> <PUBCHEM_ISOTOPIC_ATOM_COUNT>
0

> <PUBCHEM_COMPONENT_COUNT>
1

> <PUBCHEM_CACTVS_TAUTO_COUNT>
1

> <PUBCHEM_COORDINATE_TYPE>
1
5
255

> <PUBCHEM_BONDANNOTATIONS>
14  20  8
15  42  3
18  22  8
18  23  8
19  24  8
19  25  8
20  26  8
22  24  8
23  25  8
4  14  8
4  6  8
6  26  8

$$$$

