12442849
  -OEChem-07051213103D

 84 88  0     1  0  0  0  0  0999 V2000
   -6.2637   -1.3656   -1.0018 O   0  0  0  0  0  0  0  0  0  0  0  0
    5.8117    0.7682   -1.5272 O   0  0  0  0  0  0  0  0  0  0  0  0
    7.1425    0.1132    0.7834 O   0  0  0  0  0  0  0  0  0  0  0  0
   -7.3422    1.0817   -0.0133 O   0  0  0  0  0  0  0  0  0  0  0  0
   -0.7452    0.8596   -0.0840 C   0  0  2  0  0  0  0  0  0  0  0  0
   -1.4140   -0.5423   -0.3519 C   0  0  1  0  0  0  0  0  0  0  0  0
   -2.9959   -0.5970   -0.5490 C   0  0  2  0  0  0  0  0  0  0  0  0
    0.7650    0.5862    0.4907 C   0  0  1  0  0  0  0  0  0  0  0  0
   -3.6604    0.2556    0.5860 C   0  0  1  0  0  0  0  0  0  0  0  0
   -1.5996    1.6844    0.9170 C   0  0  0  0  0  0  0  0  0  0  0  0
    1.5348   -0.3332   -0.4851 C   0  0  0  0  0  0  0  0  0  0  0  0
    3.0686   -0.3145   -0.5245 C   0  0  1  0  0  0  0  0  0  0  0  0
   -3.0981    1.6909    0.6142 C   0  0  0  0  0  0  0  0  0  0  0  0
    3.6596    1.1201   -0.4072 C   0  0  1  0  0  0  0  0  0  0  0  0
   -5.2381    0.1782    0.6733 C   0  0  2  0  0  0  0  0  0  0  0  0
    1.5101    1.9324    0.7468 C   0  0  0  0  0  0  0  0  0  0  0  0
   -0.6085   -1.3235   -1.4175 C   0  0  0  0  0  0  0  0  0  0  0  0
   -3.4540   -2.0913   -0.3975 C   0  0  0  0  0  0  0  0  0  0  0  0
    3.0385    1.8247    0.8245 C   0  0  0  0  0  0  0  0  0  0  0  0
   -0.6692    1.6966   -1.4000 C   0  0  0  0  0  0  0  0  0  0  0  0
    0.8815   -1.1758   -1.3107 C   0  0  0  0  0  0  0  0  0  0  0  0
   -5.7582   -1.2557    0.3260 C   0  0  2  0  0  0  0  0  0  0  0  0
   -3.4381   -0.1278   -1.9563 C   0  0  0  0  0  0  0  0  0  0  0  0
    0.7301   -0.1667    1.8595 C   0  0  0  0  0  0  0  0  0  0  0  0
    3.6392   -1.3137    0.5116 C   0  0  0  0  0  0  0  0  0  0  0  0
   -4.6762   -2.3155    0.5000 C   0  0  0  0  0  0  0  0  0  0  0  0
    5.2130    1.0778   -0.2650 C   0  0  1  0  0  0  0  0  0  0  0  0
    5.1812   -1.3650    0.5932 C   0  0  0  0  0  0  0  0  0  0  0  0
    5.7147    0.0779    0.7873 C   0  0  1  0  0  0  0  0  0  0  0  0
   -5.9509    1.2615   -0.1637 C   0  0  0  0  0  0  0  0  0  0  0  0
    3.3224    1.9315   -1.6896 C   0  0  0  0  0  0  0  0  0  0  0  0
   -5.6352    0.4481    2.1549 C   0  0  0  0  0  0  0  0  0  0  0  0
    5.5704   -2.2241    1.8203 C   0  0  0  0  0  0  0  0  0  0  0  0
    5.7641   -2.0769   -0.6445 C   0  0  0  0  0  0  0  0  0  0  0  0
   -1.2731   -1.1009    0.5835 H   0  0  0  0  0  0  0  0  0  0  0  0
   -3.3009   -0.2029    1.5221 H   0  0  0  0  0  0  0  0  0  0  0  0
   -1.2439    2.7215    0.9556 H   0  0  0  0  0  0  0  0  0  0  0  0
   -1.4987    1.3027    1.9347 H   0  0  0  0  0  0  0  0  0  0  0  0
    3.3755   -0.6935   -1.5102 H   0  0  0  0  0  0  0  0  0  0  0  0
   -3.5859    2.2734    1.4035 H   0  0  0  0  0  0  0  0  0  0  0  0
   -3.2967    2.2240   -0.3197 H   0  0  0  0  0  0  0  0  0  0  0  0
    1.1493    2.3790    1.6831 H   0  0  0  0  0  0  0  0  0  0  0  0
    1.2809    2.6754   -0.0182 H   0  0  0  0  0  0  0  0  0  0  0  0
   -0.8746   -1.0035   -2.4286 H   0  0  0  0  0  0  0  0  0  0  0  0
   -0.8483   -2.3907   -1.3534 H   0  0  0  0  0  0  0  0  0  0  0  0
   -2.6506   -2.7093    0.0218 H   0  0  0  0  0  0  0  0  0  0  0  0
   -3.6536   -2.5243   -1.3867 H   0  0  0  0  0  0  0  0  0  0  0  0
    3.4501    2.8385    0.9157 H   0  0  0  0  0  0  0  0  0  0  0  0
    3.3155    1.3098    1.7502 H   0  0  0  0  0  0  0  0  0  0  0  0
   -1.6342    1.7993   -1.8894 H   0  0  0  0  0  0  0  0  0  0  0  0
   -0.3438    2.7244   -1.2132 H   0  0  0  0  0  0  0  0  0  0  0  0
    0.0124    1.2722   -2.1408 H   0  0  0  0  0  0  0  0  0  0  0  0
    1.4548   -1.8104   -1.9834 H   0  0  0  0  0  0  0  0  0  0  0  0
   -6.6011   -1.5115    0.9797 H   0  0  0  0  0  0  0  0  0  0  0  0
   -2.8358   -0.5675   -2.7539 H   0  0  0  0  0  0  0  0  0  0  0  0
   -4.4617   -0.4281   -2.1851 H   0  0  0  0  0  0  0  0  0  0  0  0
   -3.4179    0.9540   -2.0788 H   0  0  0  0  0  0  0  0  0  0  0  0
    0.4855   -1.2287    1.7509 H   0  0  0  0  0  0  0  0  0  0  0  0
    1.6916   -0.1208    2.3770 H   0  0  0  0  0  0  0  0  0  0  0  0
    0.0231    0.2641    2.5694 H   0  0  0  0  0  0  0  0  0  0  0  0
    3.2676   -1.0696    1.5092 H   0  0  0  0  0  0  0  0  0  0  0  0
    3.2526   -2.3190    0.2931 H   0  0  0  0  0  0  0  0  0  0  0  0
   -5.0839   -3.3095    0.2774 H   0  0  0  0  0  0  0  0  0  0  0  0
   -4.3555   -2.3421    1.5488 H   0  0  0  0  0  0  0  0  0  0  0  0
    5.5828    2.0788   -0.0079 H   0  0  0  0  0  0  0  0  0  0  0  0
    5.4023    0.4435    1.7733 H   0  0  0  0  0  0  0  0  0  0  0  0
   -5.7081    1.1962   -1.2260 H   0  0  0  0  0  0  0  0  0  0  0  0
   -5.7032    2.2709    0.1801 H   0  0  0  0  0  0  0  0  0  0  0  0
    2.2490    2.0295   -1.8631 H   0  0  0  0  0  0  0  0  0  0  0  0
    3.7395    2.9431   -1.6286 H   0  0  0  0  0  0  0  0  0  0  0  0
    3.7297    1.4557   -2.5887 H   0  0  0  0  0  0  0  0  0  0  0  0
   -6.7159    0.3575    2.3139 H   0  0  0  0  0  0  0  0  0  0  0  0
   -5.1540   -0.2682    2.8309 H   0  0  0  0  0  0  0  0  0  0  0  0
   -5.3463    1.4530    2.4789 H   0  0  0  0  0  0  0  0  0  0  0  0
    6.6545   -2.3644    1.8891 H   0  0  0  0  0  0  0  0  0  0  0  0
    5.2329   -1.7599    2.7539 H   0  0  0  0  0  0  0  0  0  0  0  0
    5.1147   -3.2197    1.7645 H   0  0  0  0  0  0  0  0  0  0  0  0
    6.8593   -2.0818   -0.6243 H   0  0  0  0  0  0  0  0  0  0  0  0
    5.4352   -3.1224   -0.6810 H   0  0  0  0  0  0  0  0  0  0  0  0
    5.4490   -1.6211   -1.5856 H   0  0  0  0  0  0  0  0  0  0  0  0
   -6.6011   -2.2701   -1.1183 H   0  0  0  0  0  0  0  0  0  0  0  0
    6.7755    0.7586   -1.3978 H   0  0  0  0  0  0  0  0  0  0  0  0
    7.4546   -0.3538    1.5761 H   0  0  0  0  0  0  0  0  0  0  0  0
   -7.7813    1.7708   -0.5403 H   0  0  0  0  0  0  0  0  0  0  0  0
  1 22  1  0  0  0  0
  1 81  1  0  0  0  0
  2 27  1  0  0  0  0
  2 82  1  0  0  0  0
  3 29  1  0  0  0  0
  3 83  1  0  0  0  0
  4 30  1  0  0  0  0
  4 84  1  0  0  0  0
  5  6  1  0  0  0  0
  5  8  1  0  0  0  0
  5 10  1  0  0  0  0
  5 20  1  0  0  0  0
  6  7  1  0  0  0  0
  6 17  1  0  0  0  0
  6 35  1  0  0  0  0
  7  9  1  0  0  0  0
  7 18  1  0  0  0  0
  7 23  1  0  0  0  0
  8 11  1  0  0  0  0
  8 16  1  0  0  0  0
  8 24  1  0  0  0  0
  9 13  1  0  0  0  0
  9 15  1  0  0  0  0
  9 36  1  0  0  0  0
 10 13  1  0  0  0  0
 10 37  1  0  0  0  0
 10 38  1  0  0  0  0
 11 12  1  0  0  0  0
 11 21  2  0  0  0  0
 12 14  1  0  0  0  0
 12 25  1  0  0  0  0
 12 39  1  0  0  0  0
 13 40  1  0  0  0  0
 13 41  1  0  0  0  0
 14 19  1  0  0  0  0
 14 27  1  0  0  0  0
 14 31  1  0  0  0  0
 15 22  1  0  0  0  0
 15 30  1  0  0  0  0
 15 32  1  0  0  0  0
 16 19  1  0  0  0  0
 16 42  1  0  0  0  0
 16 43  1  0  0  0  0
 17 21  1  0  0  0  0
 17 44  1  0  0  0  0
 17 45  1  0  0  0  0
 18 26  1  0  0  0  0
 18 46  1  0  0  0  0
 18 47  1  0  0  0  0
 19 48  1  0  0  0  0
 19 49  1  0  0  0  0
 20 50  1  0  0  0  0
 20 51  1  0  0  0  0
 20 52  1  0  0  0  0
 21 53  1  0  0  0  0
 22 26  1  0  0  0  0
 22 54  1  0  0  0  0
 23 55  1  0  0  0  0
 23 56  1  0  0  0  0
 23 57  1  0  0  0  0
 24 58  1  0  0  0  0
 24 59  1  0  0  0  0
 24 60  1  0  0  0  0
 25 28  1  0  0  0  0
 25 61  1  0  0  0  0
 25 62  1  0  0  0  0
 26 63  1  0  0  0  0
 26 64  1  0  0  0  0
 27 29  1  0  0  0  0
 27 65  1  0  0  0  0
 28 29  1  0  0  0  0
 28 33  1  0  0  0  0
 28 34  1  0  0  0  0
 29 66  1  0  0  0  0
 30 67  1  0  0  0  0
 30 68  1  0  0  0  0
 31 69  1  0  0  0  0
 31 70  1  0  0  0  0
 31 71  1  0  0  0  0
 32 72  1  0  0  0  0
 32 73  1  0  0  0  0
 32 74  1  0  0  0  0
 33 75  1  0  0  0  0
 33 76  1  0  0  0  0
 33 77  1  0  0  0  0
 34 78  1  0  0  0  0
 34 79  1  0  0  0  0
 34 80  1  0  0  0  0
M  END
> <PUBCHEM_COMPOUND_CID>
12442849

> <PUBCHEM_CONFORMER_RMSD>
0.8

> <PUBCHEM_CONFORMER_DIVERSEORDER>
1
2

> <PUBCHEM_MMFF94_PARTIAL_CHARGES>
18
1 -0.68
11 -0.28
12 0.14
17 0.14
2 -0.68
21 -0.29
22 0.28
27 0.28
29 0.28
3 -0.68
30 0.28
4 -0.68
53 0.15
8 0.14
81 0.4
82 0.4
83 0.4
84 0.4

> <PUBCHEM_EFFECTIVE_ROTOR_COUNT>
3.6

> <PUBCHEM_PHARMACOPHORE_FEATURES>
14
1 1 acceptor
1 1 donor
1 2 acceptor
1 2 donor
1 3 acceptor
1 3 donor
1 4 acceptor
1 4 donor
3 28 33 34 hydrophobe
6 12 14 25 27 28 29 rings
6 5 6 7 9 10 13 rings
6 5 6 8 11 17 21 rings
6 7 9 15 18 22 26 rings
6 8 11 12 14 16 19 rings

> <PUBCHEM_HEAVY_ATOM_COUNT>
34

> <PUBCHEM_ATOM_DEF_STEREO_COUNT>
11

> <PUBCHEM_ATOM_UDEF_STEREO_COUNT>
0

> <PUBCHEM_BOND_DEF_STEREO_COUNT>
0

> <PUBCHEM_BOND_UDEF_STEREO_COUNT>
0

> <PUBCHEM_ISOTOPIC_ATOM_COUNT>
0

> <PUBCHEM_COMPONENT_COUNT>
1

> <PUBCHEM_CACTVS_TAUTO_COUNT>
1

> <PUBCHEM_CONFORMER_ID>
00BDDCE100000001

> <PUBCHEM_MMFF94_ENERGY>
168.3626

> <PUBCHEM_FEATURE_SELFOVERLAP>
71.143

> <PUBCHEM_SHAPE_FINGERPRINT>
10 15 17749396944897962440
10554248 39 18408327691612557909
11488393 25 15865729115648656823
11578080 2 14978239437392788748
11646440 116 16370720413914054490
11719270 70 18040715895887583679
12107698 1 17917713512950637348
12166972 35 17917426506114039372
12236239 1 18342455932807424221
12422481 6 18113613525340615767
12516196 113 17821446854664534088
12633257 1 18113337505040780237
12788726 201 17604136103954942736
13533116 47 18060700607039734370
13782708 43 16988844977413789074
14068700 675 17315653798618868695
14251764 18 18260832574606775327
14341114 176 18410852179005301722
14849402 71 18265053540519092672
14856354 85 18336540522007059103
14955137 171 18041277759825610762
15131766 46 17914322477731553221
15142383 8 18410859884161079364
15183329 4 18334289868469242753
15461852 350 16081377336701528557
1577012 14 18410852148803426301
15788980 27 17703791413984882573
15799311 1 18200581527917521666
17349148 13 18113616798727972948
17844677 252 17632861927551448940
17857418 61 18409731763592341811
1813 80 17632581526343150300
19377110 9 18409164420203822962
20511986 3 18411146822478335951
21033648 29 15864338161068627315
21130935 74 17822008731034990982
21267235 1 18335417994182046582
22149856 69 17386828617815738123
23516275 137 18128800022925689970
23522609 53 18193246698654934665
23559900 14 18261679190556154841
23569914 152 15834853785649262607
23569943 247 16629418019239026955
3004659 81 18410288125630433366
3383291 50 17167864128555918247
3411729 13 17241905177177474072
34797466 226 13614229408993817698
350125 39 18334859415613983816
3633792 109 17916882287298946679
3680242 22 18187638133075392346
392239 28 18260821597277086971
4073 2 18059008363749228954
4098825 35 17918276454635779964
4340502 62 17846781793761391490
439807 62 18342737365430957563
46194498 28 16702019756348892366
469060 322 17386549349745180801
5104073 3 18187081711508957483
54039377 194 18269836579593498834
6081469 158 18272095994209289015
6086070 43 17749403529151645449
7226269 152 16443343169681744282
7495541 125 18336264552787797712

> <PUBCHEM_SHAPE_MULTIPOLES>
676.23
17.41
2.3
1.62
1.74
0.36
0.03
3.51
2.88
-0.54
0.03
-0.08
0
-1.35

> <PUBCHEM_SHAPE_SELFOVERLAP>
1432.475

> <PUBCHEM_SHAPE_VOLUME>
372.8

> <PUBCHEM_COORDINATE_TYPE>
2
5
10

$$$$

