12222
  -OEChem-07051212512D

  6  5  0     0  0  0  0  0  0999 V2000
    2.0000    0.1550    0.0000 O   0  0  0  0  0  0  0  0  0  0  0  0
    2.8660   -0.3450    0.0000 C   0  0  0  0  0  0  0  0  0  0  0  0
    3.7320    0.1550    0.0000 C   0  0  0  0  0  0  0  0  0  0  0  0
    4.5981    0.6550    0.0000 C   0  0  0  0  0  0  0  0  0  0  0  0
    2.8660   -0.9650    0.0000 H   0  0  0  0  0  0  0  0  0  0  0  0
    5.1350    0.9650    0.0000 H   0  0  0  0  0  0  0  0  0  0  0  0
  1  2  2  0  0  0  0
  2  3  1  0  0  0  0
  2  5  1  0  0  0  0
  3  4  3  0  0  0  0
  4  6  1  0  0  0  0
M  END
> <PUBCHEM_COMPOUND_CID>
12222

> <PUBCHEM_COMPOUND_CANONICALIZED>
1

> <PUBCHEM_CACTVS_COMPLEXITY>
54.9

> <PUBCHEM_CACTVS_HBOND_ACCEPTOR>
1

> <PUBCHEM_CACTVS_HBOND_DONOR>
0

> <PUBCHEM_CACTVS_ROTATABLE_BOND>
0

> <PUBCHEM_CACTVS_SUBSKEYS>
AAADcQBAIAAAAAAAAAAAAAAAAAAAAAAAAAAAAAAAAAAAAAAAAAAAGgAAAAAACACggAIAAAAAAABIGAgQgAAAAAAAAAAAAAAAAAAAAAAAAAAAAAAAAAAAAAAAAAAAAAAAAAAAAAAAAAAAAAAAAAAAAAAAAA==

> <PUBCHEM_IUPAC_OPENEYE_NAME>
prop-2-ynal

> <PUBCHEM_IUPAC_CAS_NAME>
2-propynal

> <PUBCHEM_IUPAC_NAME>
prop-2-ynal

> <PUBCHEM_IUPAC_SYSTEMATIC_NAME>
prop-2-ynal

> <PUBCHEM_IUPAC_TRADITIONAL_NAME>
propiolaldehyde

> <PUBCHEM_IUPAC_INCHI>
InChI=1S/C3H2O/c1-2-3-4/h1,3H

> <PUBCHEM_IUPAC_INCHIKEY>
IJNJLGFTSIAHEA-UHFFFAOYSA-N

> <PUBCHEM_XLOGP3_AA>
0.2

> <PUBCHEM_EXACT_MASS>
54.010565

> <PUBCHEM_MOLECULAR_FORMULA>
C3H2O

> <PUBCHEM_MOLECULAR_WEIGHT>
54.04738

> <PUBCHEM_OPENEYE_CAN_SMILES>
C#CC=O

> <PUBCHEM_OPENEYE_ISO_SMILES>
C#CC=O

> <PUBCHEM_CACTVS_TPSA>
17.1

> <PUBCHEM_MONOISOTOPIC_WEIGHT>
54.010565

> <PUBCHEM_TOTAL_CHARGE>
0

> <PUBCHEM_HEAVY_ATOM_COUNT>
4

> <PUBCHEM_ATOM_DEF_STEREO_COUNT>
0

> <PUBCHEM_ATOM_UDEF_STEREO_COUNT>
0

> <PUBCHEM_BOND_DEF_STEREO_COUNT>
0

> <PUBCHEM_BOND_UDEF_STEREO_COUNT>
0

> <PUBCHEM_ISOTOPIC_ATOM_COUNT>
0

> <PUBCHEM_COMPONENT_COUNT>
1

> <PUBCHEM_CACTVS_TAUTO_COUNT>
1

> <PUBCHEM_COORDINATE_TYPE>
1
5
255

$$$$

