5316774
  -OEChem-07051213112D

 52 55  0     1  0  0  0  0  0999 V2000
    8.1272    1.2844    0.0000 O   0  0  0  0  0  0  0  0  0  0  0  0
    7.2785   -0.2255    0.0000 O   0  0  0  0  0  0  0  0  0  0  0  0
   10.7424   -0.1854    0.0000 O   0  0  0  0  0  0  0  0  0  0  0  0
   10.7193    1.8144    0.0000 O   0  0  0  0  0  0  0  0  0  0  0  0
    9.0220   -1.2054    0.0000 O   0  0  0  0  0  0  0  0  0  0  0  0
    8.1040    3.2843    0.0000 O   0  0  0  0  0  0  0  0  0  0  0  0
    5.5301   -3.2601    0.0000 O   0  0  0  0  0  0  0  0  0  0  0  0
    5.5301   -0.2601    0.0000 O   0  0  0  0  0  0  0  0  0  0  0  0
    9.0602   -3.2842    0.0000 O   0  0  0  0  0  0  0  0  0  0  0  0
    9.8706    0.3045    0.0000 C   0  0  1  0  0  0  0  0  0  0  0  0
    9.8591    1.3044    0.0000 C   0  0  1  0  0  0  0  0  0  0  0  0
    9.0105   -0.2055    0.0000 C   0  0  2  0  0  0  0  0  0  0  0  0
    8.9873    1.7944    0.0000 C   0  0  1  0  0  0  0  0  0  0  0  0
    8.1387    0.2845    0.0000 C   0  0  1  0  0  0  0  0  0  0  0  0
    8.9758    2.7943    0.0000 C   0  0  0  0  0  0  0  0  0  0  0  0
    7.2901   -1.2254    0.0000 C   0  0  0  0  0  0  0  0  0  0  0  0
    6.3961   -1.7601    0.0000 C   0  0  0  0  0  0  0  0  0  0  0  0
    6.3961   -2.7601    0.0000 C   0  0  0  0  0  0  0  0  0  0  0  0
    8.1962   -1.7393    0.0000 C   0  0  0  0  0  0  0  0  0  0  0  0
    5.5301   -1.2601    0.0000 C   0  0  0  0  0  0  0  0  0  0  0  0
    4.6641   -1.7601    0.0000 C   0  0  0  0  0  0  0  0  0  0  0  0
    4.6641   -2.7601    0.0000 C   0  0  0  0  0  0  0  0  0  0  0  0
    8.1962   -2.7809    0.0000 C   0  0  0  0  0  0  0  0  0  0  0  0
    7.2901   -3.2948    0.0000 C   0  0  0  0  0  0  0  0  0  0  0  0
    3.7702   -1.2254    0.0000 C   0  0  0  0  0  0  0  0  0  0  0  0
    2.8641   -1.7393    0.0000 C   0  0  0  0  0  0  0  0  0  0  0  0
    3.7702   -3.2948    0.0000 C   0  0  0  0  0  0  0  0  0  0  0  0
    2.8641   -2.7809    0.0000 C   0  0  0  0  0  0  0  0  0  0  0  0
    2.0000   -1.2359    0.0000 C   0  0  0  0  0  0  0  0  0  0  0  0
    2.0000   -3.2842    0.0000 C   0  0  0  0  0  0  0  0  0  0  0  0
    9.8778   -0.3154    0.0000 H   0  0  0  0  0  0  0  0  0  0  0  0
    9.8519    1.9244    0.0000 H   0  0  0  0  0  0  0  0  0  0  0  0
    8.4772   -0.5217    0.0000 H   0  0  0  0  0  0  0  0  0  0  0  0
    8.4468    2.0982    0.0000 H   0  0  0  0  0  0  0  0  0  0  0  0
    7.5982    0.5883    0.0000 H   0  0  0  0  0  0  0  0  0  0  0  0
    9.5876    2.6937    0.0000 H   0  0  0  0  0  0  0  0  0  0  0  0
    9.1811    3.3794    0.0000 H   0  0  0  0  0  0  0  0  0  0  0  0
   11.2757    0.1307    0.0000 H   0  0  0  0  0  0  0  0  0  0  0  0
   10.7121    2.4344    0.0000 H   0  0  0  0  0  0  0  0  0  0  0  0
    9.5625   -1.5092    0.0000 H   0  0  0  0  0  0  0  0  0  0  0  0
    8.0969    3.9042    0.0000 H   0  0  0  0  0  0  0  0  0  0  0  0
    8.7319   -1.4272    0.0000 H   0  0  0  0  0  0  0  0  0  0  0  0
    7.2829   -3.9147    0.0000 H   0  0  0  0  0  0  0  0  0  0  0  0
    3.7773   -0.6055    0.0000 H   0  0  0  0  0  0  0  0  0  0  0  0
    3.7773   -3.9147    0.0000 H   0  0  0  0  0  0  0  0  0  0  0  0
    2.3121   -0.7002    0.0000 H   0  0  0  0  0  0  0  0  0  0  0  0
    1.4643   -0.9239    0.0000 H   0  0  0  0  0  0  0  0  0  0  0  0
    1.6879   -1.7717    0.0000 H   0  0  0  0  0  0  0  0  0  0  0  0
    1.6879   -2.7485    0.0000 H   0  0  0  0  0  0  0  0  0  0  0  0
    1.4643   -3.5963    0.0000 H   0  0  0  0  0  0  0  0  0  0  0  0
    2.3121   -3.8200    0.0000 H   0  0  0  0  0  0  0  0  0  0  0  0
    9.0579   -3.9042    0.0000 H   0  0  0  0  0  0  0  0  0  0  0  0
  1 13  1  0  0  0  0
  1 14  1  0  0  0  0
 14  2  1  6  0  0  0
  2 16  1  0  0  0  0
 10  3  1  6  0  0  0
  3 38  1  0  0  0  0
 11  4  1  1  0  0  0
  4 39  1  0  0  0  0
 12  5  1  1  0  0  0
  5 40  1  0  0  0  0
  6 15  1  0  0  0  0
  6 41  1  0  0  0  0
  7 18  1  0  0  0  0
  7 22  1  0  0  0  0
  8 20  2  0  0  0  0
  9 23  1  0  0  0  0
  9 52  1  0  0  0  0
 10 11  1  0  0  0  0
 10 12  1  0  0  0  0
 10 31  1  0  0  0  0
 11 13  1  0  0  0  0
 11 32  1  0  0  0  0
 12 14  1  0  0  0  0
 12 33  1  0  0  0  0
 13 15  1  6  0  0  0
 13 34  1  0  0  0  0
 14 35  1  0  0  0  0
 15 36  1  0  0  0  0
 15 37  1  0  0  0  0
 16 17  1  0  0  0  0
 16 19  2  0  0  0  0
 17 18  2  0  0  0  0
 17 20  1  0  0  0  0
 18 24  1  0  0  0  0
 19 23  1  0  0  0  0
 19 42  1  0  0  0  0
 20 21  1  0  0  0  0
 21 22  2  0  0  0  0
 21 25  1  0  0  0  0
 22 27  1  0  0  0  0
 23 24  2  0  0  0  0
 24 43  1  0  0  0  0
 25 26  2  0  0  0  0
 25 44  1  0  0  0  0
 26 28  1  0  0  0  0
 26 29  1  0  0  0  0
 27 28  2  0  0  0  0
 27 45  1  0  0  0  0
 28 30  1  0  0  0  0
 29 46  1  0  0  0  0
 29 47  1  0  0  0  0
 29 48  1  0  0  0  0
 30 49  1  0  0  0  0
 30 50  1  0  0  0  0
 30 51  1  0  0  0  0
M  END
> <PUBCHEM_COMPOUND_CID>
5316774

> <PUBCHEM_COMPOUND_CANONICALIZED>
1

> <PUBCHEM_CACTVS_COMPLEXITY>
630

> <PUBCHEM_CACTVS_HBOND_ACCEPTOR>
9

> <PUBCHEM_CACTVS_HBOND_DONOR>
5

> <PUBCHEM_CACTVS_ROTATABLE_BOND>
3

> <PUBCHEM_CACTVS_SUBSKEYS>
AAADceB4PAAAAAAAAAAAAAAAAAAAAAAAAAA0aIEAAAAAAACRQAAAGgAACAAADBSwmAMyDoAABgCIAqBSAAACCAAkIAAAiAEGCMgdNzaGNRqieWCl4BUPuYfI7PzO4AADCAAYAADAAAYQADAAAAAAAAAAAA==

> <PUBCHEM_IUPAC_OPENEYE_NAME>
3-hydroxy-6,7-dimethyl-1-[(2S,3R,4S,5S,6R)-3,4,5-trihydroxy-6-(hydroxymethyl)tetrahydropyran-2-yl]oxy-xanthen-9-one

> <PUBCHEM_IUPAC_CAS_NAME>
3-hydroxy-6,7-dimethyl-1-[[(2S,3R,4S,5S,6R)-3,4,5-trihydroxy-6-(hydroxymethyl)-2-oxanyl]oxy]-9-xanthenone

> <PUBCHEM_IUPAC_NAME>
3-hydroxy-6,7-dimethyl-1-[(2S,3R,4S,5S,6R)-3,4,5-trihydroxy-6-(hydroxymethyl)oxan-2-yl]oxyxanthen-9-one

> <PUBCHEM_IUPAC_SYSTEMATIC_NAME>
1-[(2S,3R,4S,5S,6R)-6-(hydroxymethyl)-3,4,5-tris(oxidanyl)oxan-2-yl]oxy-6,7-dimethyl-3-oxidanyl-xanthen-9-one

> <PUBCHEM_IUPAC_TRADITIONAL_NAME>
3-hydroxy-6,7-dimethyl-1-[(2S,3R,4S,5S,6R)-3,4,5-trihydroxy-6-methylol-tetrahydropyran-2-yl]oxy-xanthone

> <PUBCHEM_IUPAC_INCHI>
InChI=1S/C21H22O9/c1-8-3-11-12(4-9(8)2)28-13-5-10(23)6-14(16(13)17(11)24)29-21-20(27)19(26)18(25)15(7-22)30-21/h3-6,15,18-23,25-27H,7H2,1-2H3/t15-,18-,19+,20-,21-/m1/s1

> <PUBCHEM_IUPAC_INCHIKEY>
WMAOOSUVFZELAH-CMWLGVBASA-N

> <PUBCHEM_XLOGP3_AA>
1.2

> <PUBCHEM_EXACT_MASS>
418.126382

> <PUBCHEM_MOLECULAR_FORMULA>
C21H22O9

> <PUBCHEM_MOLECULAR_WEIGHT>
418.39398

> <PUBCHEM_OPENEYE_CAN_SMILES>
CC1=C(C=C2C(=C1)C(=O)C3=C(C=C(C=C3O2)O)OC4C(C(C(C(O4)CO)O)O)O)C

> <PUBCHEM_OPENEYE_ISO_SMILES>
CC1=C(C=C2C(=C1)C(=O)C3=C(C=C(C=C3O2)O)O[C@H]4[C@@H]([C@H]([C@@H]([C@H](O4)CO)O)O)O)C

> <PUBCHEM_CACTVS_TPSA>
146

> <PUBCHEM_MONOISOTOPIC_WEIGHT>
418.126382

> <PUBCHEM_TOTAL_CHARGE>
0

> <PUBCHEM_HEAVY_ATOM_COUNT>
30

> <PUBCHEM_ATOM_DEF_STEREO_COUNT>
5

> <PUBCHEM_ATOM_UDEF_STEREO_COUNT>
0

> <PUBCHEM_BOND_DEF_STEREO_COUNT>
0

> <PUBCHEM_BOND_UDEF_STEREO_COUNT>
0

> <PUBCHEM_ISOTOPIC_ATOM_COUNT>
0

> <PUBCHEM_COMPONENT_COUNT>
1

> <PUBCHEM_CACTVS_TAUTO_COUNT>
24

> <PUBCHEM_COORDINATE_TYPE>
1
5
255

> <PUBCHEM_BONDANNOTATIONS>
13  15  6
16  17  8
16  19  8
17  18  8
17  20  8
18  24  8
19  23  8
14  2  6
20  21  8
21  22  8
21  25  8
22  27  8
23  24  8
25  26  8
26  28  8
27  28  8
10  3  6
11  4  5
12  5  5
7  18  8
7  22  8

$$$$

