12392
  -OEChem-06261206543D

 45 44  0     0  0  0  0  0  0999 V2000
    0.0001    0.2069    0.0000 O   0  0  0  0  0  0  0  0  0  0  0  0
    3.6959   -0.4746    0.0104 C   0  0  0  0  0  0  0  0  0  0  0  0
   -3.6959   -0.4746   -0.0104 C   0  0  0  0  0  0  0  0  0  0  0  0
    4.9116    0.4538    0.0510 C   0  0  0  0  0  0  0  0  0  0  0  0
   -4.9116    0.4538   -0.0511 C   0  0  0  0  0  0  0  0  0  0  0  0
    2.3920    0.3219   -0.0035 C   0  0  0  0  0  0  0  0  0  0  0  0
   -2.3920    0.3218    0.0035 C   0  0  0  0  0  0  0  0  0  0  0  0
    6.2485   -0.2931    0.0430 C   0  0  0  0  0  0  0  0  0  0  0  0
   -6.2486   -0.2931   -0.0430 C   0  0  0  0  0  0  0  0  0  0  0  0
    1.1750   -0.5924   -0.0017 C   0  0  0  0  0  0  0  0  0  0  0  0
   -1.1750   -0.5925    0.0017 C   0  0  0  0  0  0  0  0  0  0  0  0
    7.4634    0.6351    0.0092 C   0  0  0  0  0  0  0  0  0  0  0  0
   -7.4633    0.6351   -0.0091 C   0  0  0  0  0  0  0  0  0  0  0  0
    8.7615   -0.1540   -0.0704 C   0  0  0  0  0  0  0  0  0  0  0  0
   -8.7615   -0.1539    0.0703 C   0  0  0  0  0  0  0  0  0  0  0  0
    3.7159   -1.1382    0.8833 H   0  0  0  0  0  0  0  0  0  0  0  0
    3.7484   -1.1105   -0.8814 H   0  0  0  0  0  0  0  0  0  0  0  0
   -3.7159   -1.1383   -0.8832 H   0  0  0  0  0  0  0  0  0  0  0  0
   -3.7484   -1.1106    0.8814 H   0  0  0  0  0  0  0  0  0  0  0  0
    4.8756    1.1292   -0.8129 H   0  0  0  0  0  0  0  0  0  0  0  0
    4.8594    1.0841    0.9474 H   0  0  0  0  0  0  0  0  0  0  0  0
   -4.8755    1.1292    0.8129 H   0  0  0  0  0  0  0  0  0  0  0  0
   -4.8595    1.0840   -0.9475 H   0  0  0  0  0  0  0  0  0  0  0  0
    2.3449    0.9878    0.8674 H   0  0  0  0  0  0  0  0  0  0  0  0
    2.3552    0.9761   -0.8835 H   0  0  0  0  0  0  0  0  0  0  0  0
   -2.3448    0.9877   -0.8674 H   0  0  0  0  0  0  0  0  0  0  0  0
   -2.3552    0.9760    0.8836 H   0  0  0  0  0  0  0  0  0  0  0  0
    6.2787   -0.9556   -0.8311 H   0  0  0  0  0  0  0  0  0  0  0  0
    6.3065   -0.9370    0.9293 H   0  0  0  0  0  0  0  0  0  0  0  0
   -6.2789   -0.9556    0.8312 H   0  0  0  0  0  0  0  0  0  0  0  0
   -6.3066   -0.9371   -0.9292 H   0  0  0  0  0  0  0  0  0  0  0  0
    1.1840   -1.2308   -0.8929 H   0  0  0  0  0  0  0  0  0  0  0  0
    1.1855   -1.2300    0.8902 H   0  0  0  0  0  0  0  0  0  0  0  0
   -1.1839   -1.2309    0.8930 H   0  0  0  0  0  0  0  0  0  0  0  0
   -1.1855   -1.2301   -0.8901 H   0  0  0  0  0  0  0  0  0  0  0  0
    7.4737    1.2648    0.9060 H   0  0  0  0  0  0  0  0  0  0  0  0
    7.3962    1.3035   -0.8570 H   0  0  0  0  0  0  0  0  0  0  0  0
   -7.4735    1.2649   -0.9059 H   0  0  0  0  0  0  0  0  0  0  0  0
   -7.3962    1.3035    0.8571 H   0  0  0  0  0  0  0  0  0  0  0  0
    8.8727   -0.8142    0.7957 H   0  0  0  0  0  0  0  0  0  0  0  0
    9.6180    0.5272   -0.0906 H   0  0  0  0  0  0  0  0  0  0  0  0
    8.7937   -0.7670   -0.9767 H   0  0  0  0  0  0  0  0  0  0  0  0
   -8.8727   -0.8140   -0.7959 H   0  0  0  0  0  0  0  0  0  0  0  0
   -9.6179    0.5273    0.0906 H   0  0  0  0  0  0  0  0  0  0  0  0
   -8.7937   -0.7670    0.9766 H   0  0  0  0  0  0  0  0  0  0  0  0
  1 10  1  0  0  0  0
  1 11  1  0  0  0  0
  2  4  1  0  0  0  0
  2  6  1  0  0  0  0
  2 16  1  0  0  0  0
  2 17  1  0  0  0  0
  3  5  1  0  0  0  0
  3  7  1  0  0  0  0
  3 18  1  0  0  0  0
  3 19  1  0  0  0  0
  4  8  1  0  0  0  0
  4 20  1  0  0  0  0
  4 21  1  0  0  0  0
  5  9  1  0  0  0  0
  5 22  1  0  0  0  0
  5 23  1  0  0  0  0
  6 10  1  0  0  0  0
  6 24  1  0  0  0  0
  6 25  1  0  0  0  0
  7 11  1  0  0  0  0
  7 26  1  0  0  0  0
  7 27  1  0  0  0  0
  8 12  1  0  0  0  0
  8 28  1  0  0  0  0
  8 29  1  0  0  0  0
  9 13  1  0  0  0  0
  9 30  1  0  0  0  0
  9 31  1  0  0  0  0
 10 32  1  0  0  0  0
 10 33  1  0  0  0  0
 11 34  1  0  0  0  0
 11 35  1  0  0  0  0
 12 14  1  0  0  0  0
 12 36  1  0  0  0  0
 12 37  1  0  0  0  0
 13 15  1  0  0  0  0
 13 38  1  0  0  0  0
 13 39  1  0  0  0  0
 14 40  1  0  0  0  0
 14 41  1  0  0  0  0
 14 42  1  0  0  0  0
 15 43  1  0  0  0  0
 15 44  1  0  0  0  0
 15 45  1  0  0  0  0
M  END
> <PUBCHEM_COMPOUND_CID>
12392

> <PUBCHEM_CONFORMER_RMSD>
1

> <PUBCHEM_CONFORMER_DIVERSEORDER>
1
387
3
354
381
392
89
6
322
386
26
319
382
44
148
278
28
334
60
27
37
181
87
339
69
211
120
98
143
284
209
373
262
4
234
368
18
35
238
155
239
192
370
144
341
86
274
178
326
255
103
137
252
106
266
173
116
231
2
25
270
171
24
297
95
63
83
343
314
16
323
50
19
351
233
348
310
203
108
275
379
214
8
51
49
149
277
127
230
312
223
47
232
163
136
151
99
282
372
237
93
31
273
40
179
71
10
78
134
287
29
377
68
219
226
358
115
66
224
76
159
58
249
276
242
9
240
146
251
264
253
88
122
254
176
107
185
14
23
52
294
318
364
380
102
34
80
152
12
280
53
158
129
160
183
295
166
333
17
256
313
298
33
175
279
172
39
169
121
388
65
289
15
205
355
67
293
374
7
114
164
292
302
217
21
299
389
32
84
320
363
96
362
308
138
207
135
300
36
260
218
54
228
391
197
349
208
269
371
13
94
110
118
383
30
356
243
376
141
316
246
186
59
258
327
167
38
191
347
174
5
361
48
72
142
306
216
285
369
82
286
340
336
125
332
328
321
195
11
85
259
245
222
180
265
342
132
45
20
139
268
317
170
315
385
305
61
177
199
145
225
281
309
91
215
261
345
133
201
128
168
153
74
109
357
247
97
77
46
55
303
352
250
104
366
105
73
335
64
311
359
229
42
162
119
248
22
365
43
241
165
325
267
206
156
184
117
101
301
220
212
210
272
304
112
56
384
57
235
204
263
271
338
291
182
244
375
290
288
353
126
337
257
331
346
329
196
200
111
130
150
390
360
307
190
62
90
324
70
123
81
330
147
194
202
140
350
296
236
189
113
344
198
154
79
157
124
188
161
378
100
41
283
92
213
187
393
221
131
227
75
193
367

> <PUBCHEM_MMFF94_PARTIAL_CHARGES>
3
1 -0.56
10 0.28
11 0.28

> <PUBCHEM_EFFECTIVE_ROTOR_COUNT>
12

> <PUBCHEM_PHARMACOPHORE_FEATURES>
5
1 1 acceptor
1 14 hydrophobe
1 15 hydrophobe
5 2 4 6 8 12 hydrophobe
5 3 5 7 9 13 hydrophobe

> <PUBCHEM_HEAVY_ATOM_COUNT>
15

> <PUBCHEM_ATOM_DEF_STEREO_COUNT>
0

> <PUBCHEM_ATOM_UDEF_STEREO_COUNT>
0

> <PUBCHEM_BOND_DEF_STEREO_COUNT>
0

> <PUBCHEM_BOND_UDEF_STEREO_COUNT>
0

> <PUBCHEM_ISOTOPIC_ATOM_COUNT>
0

> <PUBCHEM_COMPONENT_COUNT>
1

> <PUBCHEM_CACTVS_TAUTO_COUNT>
1

> <PUBCHEM_CONFORMER_ID>
0000306800000001

> <PUBCHEM_MMFF94_ENERGY>
-0.0381

> <PUBCHEM_FEATURE_SELFOVERLAP>
25.372

> <PUBCHEM_SHAPE_FINGERPRINT>
11315181 36 17458341919169379371
12091667 2 18259423018866246687
13533116 47 17845947324270215450
14123256 10 16950281810287391880
14251764 18 18131072644713392393
14251764 46 18410855460128181283
17834076 25 18410856559639796071
18006028 8 10735878369760458055
20621476 8 18410856577167825126
21150785 3 15719391737205526697
22224240 67 16128656336141878866
232437 2 18410573989446801702
23521765 1 18335421265881333767
28498 318 18187363255595573374
33684 2 18410575093253020002
4325135 7 18187082857991100197
67123 10 18410856546754887687
8209 1 18410575084663078916

> <PUBCHEM_SHAPE_MULTIPOLES>
302.82
30.02
0.8
0.61
0
0
0
2.51
0
0
0
0
0
0.02

> <PUBCHEM_SHAPE_SELFOVERLAP>
537.827

> <PUBCHEM_SHAPE_VOLUME>
197.9

> <PUBCHEM_COORDINATE_TYPE>
2
5
10

$$$$

