12851065
  -OEChem-07051213113D

 49 50  0     1  0  0  0  0  0999 V2000
   -0.3572    0.1693    0.0543 O   0  0  0  0  0  0  0  0  0  0  0  0
   -2.4837   -0.4064   -0.8111 O   0  0  0  0  0  0  0  0  0  0  0  0
    2.3633   -0.8956   -2.1359 O   0  0  0  0  0  0  0  0  0  0  0  0
    4.0652   -1.2250    0.2578 O   0  0  0  0  0  0  0  0  0  0  0  0
    2.0761    1.8843    0.2841 N   0  0  0  0  0  0  0  0  0  0  0  0
    1.6392   -2.9237    0.1179 N   0  0  0  0  0  0  0  0  0  0  0  0
   -0.7900    2.9053   -0.6732 N   0  0  0  0  0  0  0  0  0  0  0  0
   -3.7321   -2.7706    0.1022 N   0  0  0  0  0  0  0  0  0  0  0  0
    0.5610   -0.7682   -0.5147 C   0  0  1  0  0  0  0  0  0  0  0  0
    1.6783   -0.0089   -1.2514 C   0  0  1  0  0  0  0  0  0  0  0  0
    2.6848    0.6923   -0.3121 C   0  0  2  0  0  0  0  0  0  0  0  0
    1.0550   -1.6810    0.6238 C   0  0  2  0  0  0  0  0  0  0  0  0
    3.1867   -0.2423    0.8049 C   0  0  1  0  0  0  0  0  0  0  0  0
    2.0445   -0.9468    1.5479 C   0  0  0  0  0  0  0  0  0  0  0  0
   -1.3853    0.5114   -0.8728 C   0  0  1  0  0  0  0  0  0  0  0  0
   -1.8866    1.9422   -0.6283 C   0  0  1  0  0  0  0  0  0  0  0  0
   -2.6224    2.0370    0.7109 C   0  0  0  0  0  0  0  0  0  0  0  0
   -3.1563   -0.4087    0.4534 C   0  0  1  0  0  0  0  0  0  0  0  0
   -3.7197    0.9776    0.7725 C   0  0  0  0  0  0  0  0  0  0  0  0
   -4.2690   -1.4462    0.3821 C   0  0  0  0  0  0  0  0  0  0  0  0
    3.0484    2.6040    1.0878 C   0  0  0  0  0  0  0  0  0  0  0  0
    0.0260   -1.4122   -1.2283 H   0  0  0  0  0  0  0  0  0  0  0  0
    1.2313    0.7552   -1.8991 H   0  0  0  0  0  0  0  0  0  0  0  0
    3.5420    0.9977   -0.9277 H   0  0  0  0  0  0  0  0  0  0  0  0
    0.1907   -1.9672    1.2369 H   0  0  0  0  0  0  0  0  0  0  0  0
    3.8041    0.2757    1.5427 H   0  0  0  0  0  0  0  0  0  0  0  0
    1.4894   -0.2096    2.1416 H   0  0  0  0  0  0  0  0  0  0  0  0
    2.4648   -1.6615    2.2680 H   0  0  0  0  0  0  0  0  0  0  0  0
   -1.0056    0.4696   -1.9016 H   0  0  0  0  0  0  0  0  0  0  0  0
   -2.6043    2.1938   -1.4204 H   0  0  0  0  0  0  0  0  0  0  0  0
   -3.0655    3.0320    0.8380 H   0  0  0  0  0  0  0  0  0  0  0  0
   -1.9252    1.8878    1.5456 H   0  0  0  0  0  0  0  0  0  0  0  0
   -2.4420   -0.7027    1.2341 H   0  0  0  0  0  0  0  0  0  0  0  0
    1.2641    1.6409    0.8486 H   0  0  0  0  0  0  0  0  0  0  0  0
   -4.1908    0.9834    1.7618 H   0  0  0  0  0  0  0  0  0  0  0  0
   -4.4934    1.2393    0.0392 H   0  0  0  0  0  0  0  0  0  0  0  0
    1.9794   -3.4867    0.8965 H   0  0  0  0  0  0  0  0  0  0  0  0
    2.4550   -2.7126   -0.4555 H   0  0  0  0  0  0  0  0  0  0  0  0
    3.0248   -0.3753   -2.6227 H   0  0  0  0  0  0  0  0  0  0  0  0
    4.7984   -0.7559   -0.1755 H   0  0  0  0  0  0  0  0  0  0  0  0
   -4.9749   -1.1940   -0.4173 H   0  0  0  0  0  0  0  0  0  0  0  0
   -4.8291   -1.4768    1.3226 H   0  0  0  0  0  0  0  0  0  0  0  0
   -1.1571    3.8503   -0.5696 H   0  0  0  0  0  0  0  0  0  0  0  0
   -0.3376    2.8688   -1.5856 H   0  0  0  0  0  0  0  0  0  0  0  0
    4.0196    2.7026    0.5911 H   0  0  0  0  0  0  0  0  0  0  0  0
    3.1815    2.1695    2.0828 H   0  0  0  0  0  0  0  0  0  0  0  0
    2.6750    3.6211    1.2496 H   0  0  0  0  0  0  0  0  0  0  0  0
   -3.0710   -3.0327    0.8328 H   0  0  0  0  0  0  0  0  0  0  0  0
   -3.1931   -2.7436   -0.7628 H   0  0  0  0  0  0  0  0  0  0  0  0
  1  9  1  0  0  0  0
  1 15  1  0  0  0  0
  2 15  1  0  0  0  0
  2 18  1  0  0  0  0
  3 10  1  0  0  0  0
  3 39  1  0  0  0  0
  4 13  1  0  0  0  0
  4 40  1  0  0  0  0
  5 11  1  0  0  0  0
  5 21  1  0  0  0  0
  5 34  1  0  0  0  0
  6 12  1  0  0  0  0
  6 37  1  0  0  0  0
  6 38  1  0  0  0  0
  7 16  1  0  0  0  0
  7 43  1  0  0  0  0
  7 44  1  0  0  0  0
  8 20  1  0  0  0  0
  8 48  1  0  0  0  0
  8 49  1  0  0  0  0
  9 10  1  0  0  0  0
  9 12  1  0  0  0  0
  9 22  1  0  0  0  0
 10 11  1  0  0  0  0
 10 23  1  0  0  0  0
 11 13  1  0  0  0  0
 11 24  1  0  0  0  0
 12 14  1  0  0  0  0
 12 25  1  0  0  0  0
 13 14  1  0  0  0  0
 13 26  1  0  0  0  0
 14 27  1  0  0  0  0
 14 28  1  0  0  0  0
 15 16  1  0  0  0  0
 15 29  1  0  0  0  0
 16 17  1  0  0  0  0
 16 30  1  0  0  0  0
 17 19  1  0  0  0  0
 17 31  1  0  0  0  0
 17 32  1  0  0  0  0
 18 19  1  0  0  0  0
 18 20  1  0  0  0  0
 18 33  1  0  0  0  0
 19 35  1  0  0  0  0
 19 36  1  0  0  0  0
 20 41  1  0  0  0  0
 20 42  1  0  0  0  0
 21 45  1  0  0  0  0
 21 46  1  0  0  0  0
 21 47  1  0  0  0  0
M  END
> <PUBCHEM_COMPOUND_CID>
12851065

> <PUBCHEM_CONFORMER_RMSD>
0.8

> <PUBCHEM_CONFORMER_DIVERSEORDER>
1
10
37
25
20
24
9
23
40
7
16
36
21
34
38
3
30
28
31
2
33
29
6
15
22
11
18
26
17
14
13
5
39
35
32
12
4
27
8
19

> <PUBCHEM_MMFF94_PARTIAL_CHARGES>
27
1 -0.56
10 0.28
11 0.27
12 0.27
13 0.28
15 0.56
16 0.27
18 0.28
2 -0.56
20 0.27
21 0.27
3 -0.68
34 0.36
37 0.36
38 0.36
39 0.4
4 -0.68
40 0.4
43 0.36
44 0.36
48 0.36
49 0.36
5 -0.9
6 -0.99
7 -0.99
8 -0.99
9 0.28

> <PUBCHEM_EFFECTIVE_ROTOR_COUNT>
6.4

> <PUBCHEM_PHARMACOPHORE_FEATURES>
16
1 1 acceptor
1 2 acceptor
1 3 acceptor
1 3 donor
1 4 acceptor
1 4 donor
1 5 cation
1 5 donor
1 6 cation
1 6 donor
1 7 cation
1 7 donor
1 8 cation
1 8 donor
6 2 15 16 17 18 19 rings
6 9 10 11 12 13 14 rings

> <PUBCHEM_HEAVY_ATOM_COUNT>
21

> <PUBCHEM_ATOM_DEF_STEREO_COUNT>
8

> <PUBCHEM_ATOM_UDEF_STEREO_COUNT>
0

> <PUBCHEM_BOND_DEF_STEREO_COUNT>
0

> <PUBCHEM_BOND_UDEF_STEREO_COUNT>
0

> <PUBCHEM_ISOTOPIC_ATOM_COUNT>
0

> <PUBCHEM_COMPONENT_COUNT>
1

> <PUBCHEM_CACTVS_TAUTO_COUNT>
1

> <PUBCHEM_CONFORMER_ID>
00C4177900000001

> <PUBCHEM_MMFF94_ENERGY>
36.4791

> <PUBCHEM_FEATURE_SELFOVERLAP>
81.233

> <PUBCHEM_SHAPE_FINGERPRINT>
10366900 7 18273491294948158619
1100329 8 13293644176232575457
11578080 2 17774461415933281437
12251169 10 18337670940092623393
12403259 226 18411705395849520256
12500047 106 17985275311517023629
12553582 1 18270386219026155067
12596599 1 18115568431587700849
12633257 1 18339647866104454433
13140716 1 18408888451080410057
13224815 77 18412262831033369453
13693222 15 18059859467253233481
13764800 53 17604149345639510361
14081887 123 18410013247612726241
14178342 30 18340209712198376787
14223421 5 18412268362787703273
14289901 80 17240480291263263533
14787075 74 17834959663828788269
16945 1 18266479735468496206
18981168 100 16226059885287626777
19050596 39 18411418423346319363
200 152 17489870444859862083
20442098 301 18200310064725595827
20559304 39 18269835487658280100
20681677 274 18341339932705071834
21069387 34 14764085440432186473
21524375 3 18043824082658521880
23557571 272 18260832647890309617
23559900 14 17968929933151174767
3084891 72 16754953874650732491
3286 77 18342178864709622466
3797600 57 17895753980778878289
392239 28 18122628249451886897
5283173 99 18057906765395270109
7097593 13 18126289889560878571
7364860 26 18265615562104884774

> <PUBCHEM_SHAPE_MULTIPOLES>
388.77
7.25
3.02
1.29
3.21
0.36
0.26
-1.46
-1.63
0.4
-0.38
-0.74
-0.01
0.37

> <PUBCHEM_SHAPE_SELFOVERLAP>
782.757

> <PUBCHEM_SHAPE_VOLUME>
225

> <PUBCHEM_COORDINATE_TYPE>
2
5
10

$$$$

