232312
  -OEChem-07051213072D

 56 59  0     1  0  0  0  0  0999 V2000
    3.9271    1.4209    0.0000 O   0  0  0  0  0  0  0  0  0  0  0  0
    8.2814    1.8120    0.0000 O   0  0  0  0  0  0  0  0  0  0  0  0
    5.6591   -0.5791    0.0000 C   0  0  2  0  0  0  0  0  0  0  0  0
    4.7931   -0.0791    0.0000 C   0  0  1  0  0  0  0  0  0  0  0  0
    6.5251   -0.0791    0.0000 C   0  0  1  0  0  0  0  0  0  0  0  0
    6.5251    0.9209    0.0000 C   0  0  1  0  0  0  0  0  0  0  0  0
    3.8831   -0.5859    0.0000 C   0  0  2  0  0  0  0  0  0  0  0  0
    4.7931    0.9209    0.0000 C   0  0  2  0  0  0  0  0  0  0  0  0
    3.8751   -1.6275    0.0000 C   0  0  1  0  0  0  0  0  0  0  0  0
    7.4714    1.2257    0.0000 C   0  0  2  0  0  0  0  0  0  0  0  0
    5.6591    1.4209    0.0000 C   0  0  0  0  0  0  0  0  0  0  0  0
    5.6752   -1.6206    0.0000 C   0  0  0  0  0  0  0  0  0  0  0  0
    7.4714   -0.3838    0.0000 C   0  0  0  0  0  0  0  0  0  0  0  0
    4.7771   -2.1483    0.0000 C   0  0  0  0  0  0  0  0  0  0  0  0
    8.0550    0.4209    0.0000 C   0  0  0  0  0  0  0  0  0  0  0  0
    2.9562   -0.0218    0.0000 C   0  0  0  0  0  0  0  0  0  0  0  0
    6.5251    1.9209    0.0000 C   0  0  0  0  0  0  0  0  0  0  0  0
    2.9396   -2.1772    0.0000 C   0  0  0  0  0  0  0  0  0  0  0  0
    3.8908    0.4140    0.0000 C   0  0  0  0  0  0  0  0  0  0  0  0
    2.0084   -0.5498    0.0000 C   0  0  0  0  0  0  0  0  0  0  0  0
    2.0000   -1.6348    0.0000 C   0  0  0  0  0  0  0  0  0  0  0  0
    7.1640    2.1772    0.0000 C   0  0  0  0  0  0  0  0  0  0  0  0
    6.3985   -0.9984    0.0000 H   0  0  0  0  0  0  0  0  0  0  0  0
    5.5292    0.3459    0.0000 H   0  0  0  0  0  0  0  0  0  0  0  0
    6.6151   -0.9243    0.0000 H   0  0  0  0  0  0  0  0  0  0  0  0
    4.2562    0.6109    0.0000 H   0  0  0  0  0  0  0  0  0  0  0  0
    3.8783   -2.4775    0.0000 H   0  0  0  0  0  0  0  0  0  0  0  0
    6.0576    1.8959    0.0000 H   0  0  0  0  0  0  0  0  0  0  0  0
    5.2606    1.8959    0.0000 H   0  0  0  0  0  0  0  0  0  0  0  0
    5.8932   -2.2010    0.0000 H   0  0  0  0  0  0  0  0  0  0  0  0
    6.2843   -1.5051    0.0000 H   0  0  0  0  0  0  0  0  0  0  0  0
    7.2203   -0.9507    0.0000 H   0  0  0  0  0  0  0  0  0  0  0  0
    8.0087   -0.6930    0.0000 H   0  0  0  0  0  0  0  0  0  0  0  0
    4.3798   -2.6243    0.0000 H   0  0  0  0  0  0  0  0  0  0  0  0
    5.1781   -2.6212    0.0000 H   0  0  0  0  0  0  0  0  0  0  0  0
    8.5158    0.0062    0.0000 H   0  0  0  0  0  0  0  0  0  0  0  0
    8.5158    0.8357    0.0000 H   0  0  0  0  0  0  0  0  0  0  0  0
    3.3645    0.4448    0.0000 H   0  0  0  0  0  0  0  0  0  0  0  0
    2.5663    0.4602    0.0000 H   0  0  0  0  0  0  0  0  0  0  0  0
    7.1451    1.9209    0.0000 H   0  0  0  0  0  0  0  0  0  0  0  0
    6.5251    2.5409    0.0000 H   0  0  0  0  0  0  0  0  0  0  0  0
    5.9051    1.9209    0.0000 H   0  0  0  0  0  0  0  0  0  0  0  0
    2.5423   -2.6532    0.0000 H   0  0  0  0  0  0  0  0  0  0  0  0
    3.3406   -2.6501    0.0000 H   0  0  0  0  0  0  0  0  0  0  0  0
    4.5108    0.4093    0.0000 H   0  0  0  0  0  0  0  0  0  0  0  0
    3.8956    1.0340    0.0000 H   0  0  0  0  0  0  0  0  0  0  0  0
    3.2708    0.4188    0.0000 H   0  0  0  0  0  0  0  0  0  0  0  0
    1.8038    0.0355    0.0000 H   0  0  0  0  0  0  0  0  0  0  0  0
    1.3967   -0.6512    0.0000 H   0  0  0  0  0  0  0  0  0  0  0  0
    1.3900   -1.5240    0.0000 H   0  0  0  0  0  0  0  0  0  0  0  0
    1.7864   -2.2168    0.0000 H   0  0  0  0  0  0  0  0  0  0  0  0
    7.7540    2.3678    0.0000 H   0  0  0  0  0  0  0  0  0  0  0  0
    6.9734    2.7672    0.0000 H   0  0  0  0  0  0  0  0  0  0  0  0
    6.5740    1.9867    0.0000 H   0  0  0  0  0  0  0  0  0  0  0  0
    3.9271    2.0409    0.0000 H   0  0  0  0  0  0  0  0  0  0  0  0
    8.8474    1.5589    0.0000 H   0  0  0  0  0  0  0  0  0  0  0  0
  8  1  1  1  0  0  0
  1 55  1  0  0  0  0
 10  2  1  1  0  0  0
  2 56  1  0  0  0  0
  3  4  1  0  0  0  0
  3  5  1  0  0  0  0
  3 12  1  0  0  0  0
  3 23  1  1  0  0  0
  4  7  1  0  0  0  0
  4  8  1  0  0  0  0
  4 24  1  6  0  0  0
  5  6  1  0  0  0  0
  5 13  1  0  0  0  0
  5 25  1  6  0  0  0
  6 10  1  0  0  0  0
  6 11  1  0  0  0  0
  6 17  1  1  0  0  0
  7  9  1  0  0  0  0
  7 16  1  0  0  0  0
  7 19  1  1  0  0  0
  8 11  1  0  0  0  0
  8 26  1  0  0  0  0
  9 14  1  0  0  0  0
  9 18  1  0  0  0  0
  9 27  1  6  0  0  0
 10 15  1  0  0  0  0
 10 22  1  0  0  0  0
 11 28  1  0  0  0  0
 11 29  1  0  0  0  0
 12 14  1  0  0  0  0
 12 30  1  0  0  0  0
 12 31  1  0  0  0  0
 13 15  1  0  0  0  0
 13 32  1  0  0  0  0
 13 33  1  0  0  0  0
 14 34  1  0  0  0  0
 14 35  1  0  0  0  0
 15 36  1  0  0  0  0
 15 37  1  0  0  0  0
 16 20  1  0  0  0  0
 16 38  1  0  0  0  0
 16 39  1  0  0  0  0
 17 40  1  0  0  0  0
 17 41  1  0  0  0  0
 17 42  1  0  0  0  0
 18 21  1  0  0  0  0
 18 43  1  0  0  0  0
 18 44  1  0  0  0  0
 19 45  1  0  0  0  0
 19 46  1  0  0  0  0
 19 47  1  0  0  0  0
 20 21  1  0  0  0  0
 20 48  1  0  0  0  0
 20 49  1  0  0  0  0
 21 50  1  0  0  0  0
 21 51  1  0  0  0  0
 22 52  1  0  0  0  0
 22 53  1  0  0  0  0
 22 54  1  0  0  0  0
M  END
> <PUBCHEM_COMPOUND_CID>
232312

> <PUBCHEM_COMPOUND_CANONICALIZED>
1

> <PUBCHEM_CACTVS_COMPLEXITY>
463

> <PUBCHEM_CACTVS_HBOND_ACCEPTOR>
2

> <PUBCHEM_CACTVS_HBOND_DONOR>
2

> <PUBCHEM_CACTVS_ROTATABLE_BOND>
0

> <PUBCHEM_CACTVS_SUBSKEYS>
AAADcfB4MAAAAAAAAAAAAAAAAAAAAYAAAAAwYMAAAAAAAGDAAAAAGgAACAAAD1SggAICAAAAAgAAAAAAAAAAAAAAAAAAAAAAAAAAEAIAAAAAQAAEAAAAAAHAwPAPgAAAAAAAAADAAAYAADAAAYAADAAAAA==

> <PUBCHEM_IUPAC_OPENEYE_NAME>
(5R,8S,9S,10S,11S,13S,14S,17S)-10,13,17-trimethyl-1,2,3,4,5,6,7,8,9,11,12,14,15,16-tetradecahydrocyclopenta[a]phenanthrene-11,17-diol

> <PUBCHEM_IUPAC_CAS_NAME>
(5R,8S,9S,10S,11S,13S,14S,17S)-10,13,17-trimethyl-1,2,3,4,5,6,7,8,9,11,12,14,15,16-tetradecahydrocyclopenta[a]phenanthrene-11,17-diol

> <PUBCHEM_IUPAC_NAME>
(5R,8S,9S,10S,11S,13S,14S,17S)-10,13,17-trimethyl-1,2,3,4,5,6,7,8,9,11,12,14,15,16-tetradecahydrocyclopenta[a]phenanthrene-11,17-diol

> <PUBCHEM_IUPAC_SYSTEMATIC_NAME>
(5R,8S,9S,10S,11S,13S,14S,17S)-10,13,17-trimethyl-1,2,3,4,5,6,7,8,9,11,12,14,15,16-tetradecahydrocyclopenta[a]phenanthrene-11,17-diol

> <PUBCHEM_IUPAC_TRADITIONAL_NAME>
(5R,8S,9S,10S,11S,13S,14S,17S)-10,13,17-trimethyl-1,2,3,4,5,6,7,8,9,11,12,14,15,16-tetradecahydrocyclopenta[a]phenanthrene-11,17-diol

> <PUBCHEM_IUPAC_INCHI>
InChI=1S/C20H34O2/c1-18-10-5-4-6-13(18)7-8-14-15-9-11-20(3,22)19(15,2)12-16(21)17(14)18/h13-17,21-22H,4-12H2,1-3H3/t13-,14+,15+,16+,17-,18+,19+,20+/m1/s1

> <PUBCHEM_IUPAC_INCHIKEY>
XAECMTJMUAHJFL-BIQOYULWSA-N

> <PUBCHEM_XLOGP3_AA>
4.9

> <PUBCHEM_EXACT_MASS>
306.25588

> <PUBCHEM_MOLECULAR_FORMULA>
C20H34O2

> <PUBCHEM_MOLECULAR_WEIGHT>
306.48276

> <PUBCHEM_OPENEYE_CAN_SMILES>
CC12CCCCC1CCC3C2C(CC4(C3CCC4(C)O)C)O

> <PUBCHEM_OPENEYE_ISO_SMILES>
C[C@]12CCCC[C@@H]1CC[C@@H]3[C@@H]2[C@H](C[C@]4([C@H]3CC[C@]4(C)O)C)O

> <PUBCHEM_CACTVS_TPSA>
40.5

> <PUBCHEM_MONOISOTOPIC_WEIGHT>
306.25588

> <PUBCHEM_TOTAL_CHARGE>
0

> <PUBCHEM_HEAVY_ATOM_COUNT>
22

> <PUBCHEM_ATOM_DEF_STEREO_COUNT>
8

> <PUBCHEM_ATOM_UDEF_STEREO_COUNT>
0

> <PUBCHEM_BOND_DEF_STEREO_COUNT>
0

> <PUBCHEM_BOND_UDEF_STEREO_COUNT>
0

> <PUBCHEM_ISOTOPIC_ATOM_COUNT>
0

> <PUBCHEM_COMPONENT_COUNT>
1

> <PUBCHEM_CACTVS_TAUTO_COUNT>
1

> <PUBCHEM_COORDINATE_TYPE>
1
5
255

> <PUBCHEM_BONDANNOTATIONS>
8  1  5
10  2  5
3  23  5
4  24  6
5  25  6
6  17  5
7  19  5
9  27  6

$$$$

