92129
  -OEChem-07051213003D

 49 53  0     1  0  0  0  0  0999 V2000
   -1.7159   -3.7242   -0.5011 O   0  0  0  0  0  0  0  0  0  0  0  0
   -2.5665   -2.6436    1.3467 O   0  0  0  0  0  0  0  0  0  0  0  0
    3.7744    2.3045    1.6084 O   0  0  0  0  0  0  0  0  0  0  0  0
    5.0989    1.1865   -0.0645 O   0  0  0  0  0  0  0  0  0  0  0  0
    4.1979   -1.1117   -1.5000 O   0  0  0  0  0  0  0  0  0  0  0  0
   -1.5350    2.3492   -2.3806 O   0  0  0  0  0  0  0  0  0  0  0  0
   -4.4445    1.3995    1.3034 O   0  0  0  0  0  0  0  0  0  0  0  0
   -3.9407    2.7438   -1.0646 O   0  0  0  0  0  0  0  0  0  0  0  0
   -0.2878   -2.2198    0.5840 C   0  0  1  0  0  0  0  0  0  0  0  0
    0.1290   -2.3764   -0.8647 C   0  0  1  0  0  0  0  0  0  0  0  0
   -0.0837   -0.7795    1.0732 C   0  0  1  0  0  0  0  0  0  0  0  0
    1.6312   -2.2111   -1.0017 C   0  0  0  0  0  0  0  0  0  0  0  0
    1.3339   -0.3097    0.7173 C   0  0  0  0  0  0  0  0  0  0  0  0
   -0.4558   -3.7255   -1.1988 C   0  0  0  0  0  0  0  0  0  0  0  0
    2.1195   -0.9686   -0.2787 C   0  0  0  0  0  0  0  0  0  0  0  0
   -1.6608   -2.8408    0.5537 C   0  0  0  0  0  0  0  0  0  0  0  0
   -1.1082    0.1563    0.5048 C   0  0  0  0  0  0  0  0  0  0  0  0
    1.8572    0.8120    1.3890 C   0  0  0  0  0  0  0  0  0  0  0  0
    3.4112   -0.4997   -0.5753 C   0  0  0  0  0  0  0  0  0  0  0  0
    3.1252    1.2420    1.0588 C   0  0  0  0  0  0  0  0  0  0  0  0
    3.8799    0.6050    0.1045 C   0  0  0  0  0  0  0  0  0  0  0  0
   -2.3131    0.3464    1.1726 C   0  0  0  0  0  0  0  0  0  0  0  0
   -0.8452    0.8261   -0.6854 C   0  0  0  0  0  0  0  0  0  0  0  0
   -1.7985    1.6966   -1.2139 C   0  0  0  0  0  0  0  0  0  0  0  0
   -3.2665    1.2167    0.6440 C   0  0  0  0  0  0  0  0  0  0  0  0
    5.0244    2.2641    0.8909 C   0  0  0  0  0  0  0  0  0  0  0  0
   -3.0092    1.8919   -0.5491 C   0  0  0  0  0  0  0  0  0  0  0  0
   -1.9234    1.6987   -3.5889 C   0  0  0  0  0  0  0  0  0  0  0  0
   -4.6283    0.6716    2.5160 C   0  0  0  0  0  0  0  0  0  0  0  0
    0.3221   -2.8851    1.2155 H   0  0  0  0  0  0  0  0  0  0  0  0
   -0.3800   -1.6424   -1.5010 H   0  0  0  0  0  0  0  0  0  0  0  0
   -0.1635   -0.7799    2.1695 H   0  0  0  0  0  0  0  0  0  0  0  0
    1.8825   -2.1568   -2.0675 H   0  0  0  0  0  0  0  0  0  0  0  0
    2.1522   -3.0792   -0.5787 H   0  0  0  0  0  0  0  0  0  0  0  0
   -0.6351   -3.8443   -2.2712 H   0  0  0  0  0  0  0  0  0  0  0  0
    0.1443   -4.5671   -0.8369 H   0  0  0  0  0  0  0  0  0  0  0  0
    1.2794    1.3299    2.1480 H   0  0  0  0  0  0  0  0  0  0  0  0
   -2.4499   -0.1843    2.1079 H   0  0  0  0  0  0  0  0  0  0  0  0
    0.0758    0.6973   -1.2446 H   0  0  0  0  0  0  0  0  0  0  0  0
    5.0445   -0.6346   -1.5504 H   0  0  0  0  0  0  0  0  0  0  0  0
    5.8406    2.1496    1.6135 H   0  0  0  0  0  0  0  0  0  0  0  0
    5.1553    3.2138    0.3596 H   0  0  0  0  0  0  0  0  0  0  0  0
   -4.7116    2.7512   -0.4710 H   0  0  0  0  0  0  0  0  0  0  0  0
   -1.3975    0.7446   -3.6964 H   0  0  0  0  0  0  0  0  0  0  0  0
   -1.6517    2.3444   -4.4283 H   0  0  0  0  0  0  0  0  0  0  0  0
   -3.0055    1.5356   -3.6085 H   0  0  0  0  0  0  0  0  0  0  0  0
   -3.9029    0.9706    3.2803 H   0  0  0  0  0  0  0  0  0  0  0  0
   -4.6309   -0.4100    2.3421 H   0  0  0  0  0  0  0  0  0  0  0  0
   -5.6197    0.9328    2.9008 H   0  0  0  0  0  0  0  0  0  0  0  0
  1 14  1  0  0  0  0
  1 16  1  0  0  0  0
  2 16  2  0  0  0  0
  3 20  1  0  0  0  0
  3 26  1  0  0  0  0
  4 21  1  0  0  0  0
  4 26  1  0  0  0  0
  5 19  1  0  0  0  0
  5 40  1  0  0  0  0
  6 24  1  0  0  0  0
  6 28  1  0  0  0  0
  7 25  1  0  0  0  0
  7 29  1  0  0  0  0
  8 27  1  0  0  0  0
  8 43  1  0  0  0  0
  9 10  1  0  0  0  0
  9 11  1  0  0  0  0
  9 16  1  0  0  0  0
  9 30  1  0  0  0  0
 10 12  1  0  0  0  0
 10 14  1  0  0  0  0
 10 31  1  0  0  0  0
 11 13  1  0  0  0  0
 11 17  1  0  0  0  0
 11 32  1  0  0  0  0
 12 15  1  0  0  0  0
 12 33  1  0  0  0  0
 12 34  1  0  0  0  0
 13 15  1  0  0  0  0
 13 18  2  0  0  0  0
 14 35  1  0  0  0  0
 14 36  1  0  0  0  0
 15 19  2  0  0  0  0
 17 22  2  0  0  0  0
 17 23  1  0  0  0  0
 18 20  1  0  0  0  0
 18 37  1  0  0  0  0
 19 21  1  0  0  0  0
 20 21  2  0  0  0  0
 22 25  1  0  0  0  0
 22 38  1  0  0  0  0
 23 24  2  0  0  0  0
 23 39  1  0  0  0  0
 24 27  1  0  0  0  0
 25 27  2  0  0  0  0
 26 41  1  0  0  0  0
 26 42  1  0  0  0  0
 28 44  1  0  0  0  0
 28 45  1  0  0  0  0
 28 46  1  0  0  0  0
 29 47  1  0  0  0  0
 29 48  1  0  0  0  0
 29 49  1  0  0  0  0
M  END
> <PUBCHEM_COMPOUND_CID>
92129

> <PUBCHEM_CONFORMER_RMSD>
0.8

> <PUBCHEM_CONFORMER_DIVERSEORDER>
1
2

> <PUBCHEM_MMFF94_PARTIAL_CHARGES>
33
1 -0.43
11 0.29
12 0.14
13 -0.14
14 0.28
15 -0.14
16 0.66
17 -0.14
18 -0.15
19 0.08
2 -0.57
20 0.08
21 0.08
22 -0.15
23 -0.15
24 0.08
25 0.08
26 0.56
27 0.08
28 0.28
29 0.28
3 -0.36
37 0.15
38 0.15
39 0.15
4 -0.36
40 0.45
43 0.45
5 -0.53
6 -0.36
7 -0.36
8 -0.53
9 0.06

> <PUBCHEM_EFFECTIVE_ROTOR_COUNT>
4.4

> <PUBCHEM_PHARMACOPHORE_FEATURES>
12
1 2 acceptor
1 3 acceptor
1 4 acceptor
1 5 donor
1 6 acceptor
1 7 acceptor
1 8 donor
5 1 9 10 14 16 rings
5 3 4 20 21 26 rings
6 13 15 18 19 20 21 rings
6 17 22 23 24 25 27 rings
6 9 10 11 12 13 15 rings

> <PUBCHEM_HEAVY_ATOM_COUNT>
29

> <PUBCHEM_ATOM_DEF_STEREO_COUNT>
3

> <PUBCHEM_ATOM_UDEF_STEREO_COUNT>
0

> <PUBCHEM_BOND_DEF_STEREO_COUNT>
0

> <PUBCHEM_BOND_UDEF_STEREO_COUNT>
0

> <PUBCHEM_ISOTOPIC_ATOM_COUNT>
0

> <PUBCHEM_COMPONENT_COUNT>
1

> <PUBCHEM_CACTVS_TAUTO_COUNT>
36

> <PUBCHEM_CONFORMER_ID>
000167E100000001

> <PUBCHEM_MMFF94_ENERGY>
105.1559

> <PUBCHEM_FEATURE_SELFOVERLAP>
61.142

> <PUBCHEM_SHAPE_FINGERPRINT>
10165383 225 18266716134647371468
10871710 139 17695043523607731740
11115154 58 17245287210742010967
11578080 2 18190441810965488220
11582403 64 16624106291682159973
11595378 159 17346882238885516184
12156800 1 17828452839983418031
12160290 23 18048347490142324859
12422481 6 18052224394497086939
12730499 353 18265611168680375737
12788726 201 18053125950480965379
13034934 17 18270952540428430449
13134695 92 16975089232331193374
13140716 1 18335697256644289522
13583140 156 17560538273385626976
13681431 1 17113558458094372655
13911987 19 17688287402628780854
14840074 17 16469827896867166216
15324884 4 17914030239898295147
17357779 13 17756446875404911615
17492 54 17842034080961910575
1813 80 17766841628416937850
20600515 1 16835195696316819937
21033648 29 18340209682192381584
21304303 282 17125133820195583726
22182313 1 18188201001846389006
22907989 373 18048050575016491980
23419403 2 16809497021647345591
23536364 44 17182479128805998934
23559900 14 17129011969711058931
238 59 17906759216099483279
3187 122 18056758719750767019
350125 39 17972875852924212440
3729539 64 17976238455840528486
376196 1 16838861850484322205
4340502 62 18188193382500384547
469060 322 17703230590383333235
484985 159 5761104023943810292
5252454 2 18411417298328885144
633830 44 17749665315512987705
81228 2 18126573314289178723
9862522 239 18272662241684866745
9925002 15 17982439409267657647

> <PUBCHEM_SHAPE_MULTIPOLES>
549.85
8.36
3.97
2.25
5.09
3.33
1.4
-7.05
-2.73
-1.56
1.11
-2.15
-1.34
2.17

> <PUBCHEM_SHAPE_SELFOVERLAP>
1236.199

> <PUBCHEM_SHAPE_VOLUME>
290.4

> <PUBCHEM_COORDINATE_TYPE>
2
5
10

$$$$

