442678
  -OEChem-07051212592D

 84 90  0     1  0  0  0  0  0999 V2000
    9.5801   -0.8267    0.0000 O   0  0  0  0  0  0  0  0  0  0  0  0
    6.7942   -3.6111    0.0000 O   0  0  0  0  0  0  0  0  0  0  0  0
    5.8505   -1.1393    0.0000 O   0  0  0  0  0  0  0  0  0  0  0  0
   11.3503    1.2321    0.0000 O   0  0  0  0  0  0  0  0  0  0  0  0
    5.9541   -0.2920    0.0000 O   0  0  0  0  0  0  0  0  0  0  0  0
    7.8201    2.2080    0.0000 O   0  0  0  0  0  0  0  0  0  0  0  0
    9.9024   -1.6495    0.0000 O   0  0  0  0  0  0  0  0  0  0  0  0
   10.1030   -4.8412    0.0000 O   0  0  0  0  0  0  0  0  0  0  0  0
    2.8961   -1.6602    0.0000 O   0  0  0  0  0  0  0  0  0  0  0  0
    3.4977   -5.0718    0.0000 O   0  0  0  0  0  0  0  0  0  0  0  0
    2.2120   -3.5396    0.0000 O   0  0  0  0  0  0  0  0  0  0  0  0
   12.2066   -3.3195    0.0000 O   0  0  0  0  0  0  0  0  0  0  0  0
   10.4785    2.7288    0.0000 O   0  0  0  0  0  0  0  0  0  0  0  0
   13.9425   -2.3262    0.0000 O   0  0  0  0  0  0  0  0  0  0  0  0
   13.0669    5.2388    0.0000 O   0  0  0  0  0  0  0  0  0  0  0  0
   14.8105    2.2455    0.0000 O   0  0  0  0  0  0  0  0  0  0  0  0
   14.8028    4.2455    0.0000 O   0  0  0  0  0  0  0  0  0  0  0  0
    7.4782   -1.7317    0.0000 C   0  0  1  0  0  0  0  0  0  0  0  0
    6.4933   -1.9054    0.0000 C   0  0  2  0  0  0  0  0  0  0  0  0
    7.8201   -0.7920    0.0000 C   0  0  0  0  0  0  0  0  0  0  0  0
    6.1513   -2.8451    0.0000 C   0  0  1  0  0  0  0  0  0  0  0  0
    8.1209   -2.4978    0.0000 C   0  0  0  0  0  0  0  0  0  0  0  0
    8.6862   -0.2920    0.0000 C   0  0  0  0  0  0  0  0  0  0  0  0
   10.4862    0.7288    0.0000 C   0  0  1  0  0  0  0  0  0  0  0  0
    8.6862    0.7080    0.0000 C   0  0  0  0  0  0  0  0  0  0  0  0
   10.4862   -0.3128    0.0000 C   0  0  1  0  0  0  0  0  0  0  0  0
    9.5801    1.2426    0.0000 C   0  0  0  0  0  0  0  0  0  0  0  0
    7.7789   -3.4374    0.0000 C   0  0  0  0  0  0  0  0  0  0  0  0
    6.9541   -0.2920    0.0000 C   0  0  0  0  0  0  0  0  0  0  0  0
    5.1665   -3.0187    0.0000 C   0  0  0  0  0  0  0  0  0  0  0  0
    7.8201    1.2080    0.0000 C   0  0  0  0  0  0  0  0  0  0  0  0
    9.1438   -2.3011    0.0000 C   0  0  0  0  0  0  0  0  0  0  0  0
   11.3503   -0.8162    0.0000 C   0  0  0  0  0  0  0  0  0  0  0  0
    6.9541    0.7080    0.0000 C   0  0  0  0  0  0  0  0  0  0  0  0
    8.4360   -4.2456    0.0000 C   0  0  0  0  0  0  0  0  0  0  0  0
    9.8195   -3.0938    0.0000 C   0  0  0  0  0  0  0  0  0  0  0  0
    4.8245   -3.9584    0.0000 C   0  0  0  0  0  0  0  0  0  0  0  0
    4.5237   -2.2526    0.0000 C   0  0  0  0  0  0  0  0  0  0  0  0
    9.4632   -4.0726    0.0000 C   0  0  0  0  0  0  0  0  0  0  0  0
   11.3464   -1.8162    0.0000 C   0  0  0  0  0  0  0  0  0  0  0  0
   12.2182   -0.3195    0.0000 C   0  0  0  0  0  0  0  0  0  0  0  0
    3.5389   -2.4263    0.0000 C   0  0  0  0  0  0  0  0  0  0  0  0
    3.8397   -4.1321    0.0000 C   0  0  0  0  0  0  0  0  0  0  0  0
   11.3464    2.2321    0.0000 C   0  0  0  0  0  0  0  0  0  0  0  0
    3.1969   -3.3660    0.0000 C   0  0  0  0  0  0  0  0  0  0  0  0
   12.2105   -2.3195    0.0000 C   0  0  0  0  0  0  0  0  0  0  0  0
   13.0823   -0.8228    0.0000 C   0  0  0  0  0  0  0  0  0  0  0  0
   13.0784   -1.8228    0.0000 C   0  0  0  0  0  0  0  0  0  0  0  0
   12.2105    2.7355    0.0000 C   0  0  0  0  0  0  0  0  0  0  0  0
   13.0784    2.2388    0.0000 C   0  0  0  0  0  0  0  0  0  0  0  0
   12.2066    3.7355    0.0000 C   0  0  0  0  0  0  0  0  0  0  0  0
   13.0707    4.2388    0.0000 C   0  0  0  0  0  0  0  0  0  0  0  0
   13.9425    2.7421    0.0000 C   0  0  0  0  0  0  0  0  0  0  0  0
   13.9387    3.7421    0.0000 C   0  0  0  0  0  0  0  0  0  0  0  0
    6.9318   -1.0806    0.0000 H   0  0  0  0  0  0  0  0  0  0  0  0
    5.8827   -2.0130    0.0000 H   0  0  0  0  0  0  0  0  0  0  0  0
    5.9393   -3.4277    0.0000 H   0  0  0  0  0  0  0  0  0  0  0  0
   11.0237    0.4198    0.0000 H   0  0  0  0  0  0  0  0  0  0  0  0
   11.0237   -0.0039    0.0000 H   0  0  0  0  0  0  0  0  0  0  0  0
    9.9737    1.7217    0.0000 H   0  0  0  0  0  0  0  0  0  0  0  0
    9.1755    1.7124    0.0000 H   0  0  0  0  0  0  0  0  0  0  0  0
    6.4172    1.0180    0.0000 H   0  0  0  0  0  0  0  0  0  0  0  0
    5.2399   -1.2469    0.0000 H   0  0  0  0  0  0  0  0  0  0  0  0
    8.2173   -4.8257    0.0000 H   0  0  0  0  0  0  0  0  0  0  0  0
   10.4296   -2.9838    0.0000 H   0  0  0  0  0  0  0  0  0  0  0  0
    5.2230   -4.4334    0.0000 H   0  0  0  0  0  0  0  0  0  0  0  0
    4.7357   -1.6700    0.0000 H   0  0  0  0  0  0  0  0  0  0  0  0
   10.8083   -2.1241    0.0000 H   0  0  0  0  0  0  0  0  0  0  0  0
   12.2206    0.3005    0.0000 H   0  0  0  0  0  0  0  0  0  0  0  0
    5.6441    0.2450    0.0000 H   0  0  0  0  0  0  0  0  0  0  0  0
    7.2832    2.5180    0.0000 H   0  0  0  0  0  0  0  0  0  0  0  0
   10.4874   -1.8548    0.0000 H   0  0  0  0  0  0  0  0  0  0  0  0
   13.6204   -0.5149    0.0000 H   0  0  0  0  0  0  0  0  0  0  0  0
    9.8887   -5.4229    0.0000 H   0  0  0  0  0  0  0  0  0  0  0  0
    2.2855   -1.7679    0.0000 H   0  0  0  0  0  0  0  0  0  0  0  0
    3.8962   -5.5467    0.0000 H   0  0  0  0  0  0  0  0  0  0  0  0
    2.0000   -4.1223    0.0000 H   0  0  0  0  0  0  0  0  0  0  0  0
   12.7424   -3.6316    0.0000 H   0  0  0  0  0  0  0  0  0  0  0  0
   13.0808    1.6188    0.0000 H   0  0  0  0  0  0  0  0  0  0  0  0
   11.6685    4.0434    0.0000 H   0  0  0  0  0  0  0  0  0  0  0  0
   14.4807   -2.0182    0.0000 H   0  0  0  0  0  0  0  0  0  0  0  0
   12.5287    5.5467    0.0000 H   0  0  0  0  0  0  0  0  0  0  0  0
   15.3462    2.5576    0.0000 H   0  0  0  0  0  0  0  0  0  0  0  0
   14.8004    4.8655    0.0000 H   0  0  0  0  0  0  0  0  0  0  0  0
  1 23  1  0  0  0  0
  1 26  1  0  0  0  0
  2 21  1  0  0  0  0
  2 28  1  0  0  0  0
 19  3  1  6  0  0  0
  3 63  1  0  0  0  0
 24  4  1  1  0  0  0
  4 44  1  0  0  0  0
  5 29  1  0  0  0  0
  5 70  1  0  0  0  0
  6 31  1  0  0  0  0
  6 71  1  0  0  0  0
  7 32  1  0  0  0  0
  7 72  1  0  0  0  0
  8 39  1  0  0  0  0
  8 74  1  0  0  0  0
  9 42  1  0  0  0  0
  9 75  1  0  0  0  0
 10 43  1  0  0  0  0
 10 76  1  0  0  0  0
 11 45  1  0  0  0  0
 11 77  1  0  0  0  0
 12 46  1  0  0  0  0
 12 78  1  0  0  0  0
 13 44  2  0  0  0  0
 14 48  1  0  0  0  0
 14 81  1  0  0  0  0
 15 52  1  0  0  0  0
 15 82  1  0  0  0  0
 16 53  1  0  0  0  0
 16 83  1  0  0  0  0
 17 54  1  0  0  0  0
 17 84  1  0  0  0  0
 18 19  1  0  0  0  0
 18 20  1  0  0  0  0
 18 22  1  0  0  0  0
 18 55  1  6  0  0  0
 19 21  1  0  0  0  0
 19 56  1  0  0  0  0
 20 23  1  0  0  0  0
 20 29  2  0  0  0  0
 21 30  1  6  0  0  0
 21 57  1  0  0  0  0
 22 28  1  0  0  0  0
 22 32  2  0  0  0  0
 23 25  2  0  0  0  0
 24 26  1  0  0  0  0
 24 27  1  0  0  0  0
 24 58  1  0  0  0  0
 25 27  1  0  0  0  0
 25 31  1  0  0  0  0
 26 33  1  1  0  0  0
 26 59  1  0  0  0  0
 27 60  1  0  0  0  0
 27 61  1  0  0  0  0
 28 35  2  0  0  0  0
 29 34  1  0  0  0  0
 30 37  2  0  0  0  0
 30 38  1  0  0  0  0
 31 34  2  0  0  0  0
 32 36  1  0  0  0  0
 33 40  2  0  0  0  0
 33 41  1  0  0  0  0
 34 62  1  0  0  0  0
 35 39  1  0  0  0  0
 35 64  1  0  0  0  0
 36 39  2  0  0  0  0
 36 65  1  0  0  0  0
 37 43  1  0  0  0  0
 37 66  1  0  0  0  0
 38 42  2  0  0  0  0
 38 67  1  0  0  0  0
 40 46  1  0  0  0  0
 40 68  1  0  0  0  0
 41 47  2  0  0  0  0
 41 69  1  0  0  0  0
 42 45  1  0  0  0  0
 43 45  2  0  0  0  0
 44 49  1  0  0  0  0
 46 48  2  0  0  0  0
 47 48  1  0  0  0  0
 47 73  1  0  0  0  0
 49 50  2  0  0  0  0
 49 51  1  0  0  0  0
 50 53  1  0  0  0  0
 50 79  1  0  0  0  0
 51 52  2  0  0  0  0
 51 80  1  0  0  0  0
 52 54  1  0  0  0  0
 53 54  2  0  0  0  0
M  END
> <PUBCHEM_COMPOUND_CID>
442678

> <PUBCHEM_COMPOUND_CANONICALIZED>
1

> <PUBCHEM_CACTVS_COMPLEXITY>
1270

> <PUBCHEM_CACTVS_HBOND_ACCEPTOR>
17

> <PUBCHEM_CACTVS_HBOND_DONOR>
13

> <PUBCHEM_CACTVS_ROTATABLE_BOND>
6

> <PUBCHEM_CACTVS_SUBSKEYS>
AAADceB8PgAAAAAAAAAAAAAAAAAAAAAAAAA0aMGDAAAAAACRVAAAGgAACAAADRSgmAIwDoAABgCIAiDSCAACCAAkIAAIiAEGiMgNNzKGNRqCeSGlwBULuYfK7PzOoAADCAAIQABAAAYQABCAAAAAAAAAAA==

> <PUBCHEM_IUPAC_OPENEYE_NAME>
[(2R,3R)-2-(3,4-dihydroxyphenyl)-5,7-dihydroxy-8-[(2R,3R,4R)-3,5,7-trihydroxy-2-(3,4,5-trihydroxyphenyl)chroman-4-yl]chroman-3-yl] 3,4,5-trihydroxybenzoate

> <PUBCHEM_IUPAC_CAS_NAME>
3,4,5-trihydroxybenzoic acid [(2R,3R)-2-(3,4-dihydroxyphenyl)-5,7-dihydroxy-8-[(2R,3R,4R)-3,5,7-trihydroxy-2-(3,4,5-trihydroxyphenyl)-3,4-dihydro-2H-1-benzopyran-4-yl]-3,4-dihydro-2H-1-benzopyran-3-yl] ester

> <PUBCHEM_IUPAC_NAME>
[(2R,3R)-2-(3,4-dihydroxyphenyl)-5,7-dihydroxy-8-[(2R,3R,4R)-3,5,7-trihydroxy-2-(3,4,5-trihydroxyphenyl)-3,4-dihydro-2H-chromen-4-yl]-3,4-dihydro-2H-chromen-3-yl] 3,4,5-trihydroxybenzoate

> <PUBCHEM_IUPAC_SYSTEMATIC_NAME>
[(2R,3R)-2-[3,4-bis(oxidanyl)phenyl]-5,7-bis(oxidanyl)-8-[(2R,3R,4R)-3,5,7-tris(oxidanyl)-2-[3,4,5-tris(oxidanyl)phenyl]-3,4-dihydro-2H-chromen-4-yl]-3,4-dihydro-2H-chromen-3-yl] 3,4,5-tris(oxidanyl)benzoate

> <PUBCHEM_IUPAC_TRADITIONAL_NAME>
3,4,5-trihydroxybenzoic acid [(2R,3R)-2-(3,4-dihydroxyphenyl)-5,7-dihydroxy-8-[(2R,3R,4R)-3,5,7-trihydroxy-2-(3,4,5-trihydroxyphenyl)chroman-4-yl]chroman-3-yl] ester

> <PUBCHEM_IUPAC_INCHI>
InChI=1S/C37H30O17/c38-15-8-20(42)28-26(9-15)52-35(13-4-22(44)31(48)23(45)5-13)33(50)30(28)29-21(43)11-18(40)16-10-27(53-37(51)14-6-24(46)32(49)25(47)7-14)34(54-36(16)29)12-1-2-17(39)19(41)3-12/h1-9,11,27,30,33-35,38-50H,10H2/t27-,30-,33-,34-,35-/m1/s1

> <PUBCHEM_IUPAC_INCHIKEY>
LQQNPVZIFKLQPE-RGOYVLDUSA-N

> <PUBCHEM_XLOGP3_AA>
3.2

> <PUBCHEM_EXACT_MASS>
746.148299

> <PUBCHEM_MOLECULAR_FORMULA>
C37H30O17

> <PUBCHEM_MOLECULAR_WEIGHT>
746.6239

> <PUBCHEM_OPENEYE_CAN_SMILES>
C1C(C(OC2=C1C(=CC(=C2C3C(C(OC4=CC(=CC(=C34)O)O)C5=CC(=C(C(=C5)O)O)O)O)O)O)C6=CC(=C(C=C6)O)O)OC(=O)C7=CC(=C(C(=C7)O)O)O

> <PUBCHEM_OPENEYE_ISO_SMILES>
C1[C@H]([C@H](OC2=C1C(=CC(=C2[C@@H]3[C@H]([C@H](OC4=CC(=CC(=C34)O)O)C5=CC(=C(C(=C5)O)O)O)O)O)O)C6=CC(=C(C=C6)O)O)OC(=O)C7=CC(=C(C(=C7)O)O)O

> <PUBCHEM_CACTVS_TPSA>
308

> <PUBCHEM_MONOISOTOPIC_WEIGHT>
746.148299

> <PUBCHEM_TOTAL_CHARGE>
0

> <PUBCHEM_HEAVY_ATOM_COUNT>
54

> <PUBCHEM_ATOM_DEF_STEREO_COUNT>
5

> <PUBCHEM_ATOM_UDEF_STEREO_COUNT>
0

> <PUBCHEM_BOND_DEF_STEREO_COUNT>
0

> <PUBCHEM_BOND_UDEF_STEREO_COUNT>
0

> <PUBCHEM_ISOTOPIC_ATOM_COUNT>
0

> <PUBCHEM_COMPONENT_COUNT>
1

> <PUBCHEM_CACTVS_TAUTO_COUNT>
994

> <PUBCHEM_COORDINATE_TYPE>
1
5
255

> <PUBCHEM_BONDANNOTATIONS>
18  55  6
20  23  8
20  29  8
21  30  6
22  28  8
22  32  8
23  25  8
25  31  8
26  33  5
28  35  8
29  34  8
19  3  6
30  37  8
30  38  8
31  34  8
32  36  8
33  40  8
33  41  8
35  39  8
36  39  8
37  43  8
38  42  8
24  4  5
40  46  8
41  47  8
42  45  8
43  45  8
46  48  8
47  48  8
49  50  8
49  51  8
50  53  8
51  52  8
52  54  8
53  54  8

$$$$

