114767
  -OEChem-07051213013D

 28 30  0     1  0  0  0  0  0999 V2000
    0.5015   -2.0496   -1.7381 O   0  0  0  0  0  0  0  0  0  0  0  0
   -0.5342   -1.9997    1.7511 O   0  0  0  0  0  0  0  0  0  0  0  0
    0.6856   -1.8295   -0.3394 C   0  0  2  0  0  0  0  0  0  0  0  0
   -0.6882   -1.8268    0.3442 C   0  0  2  0  0  0  0  0  0  0  0  0
    1.4450   -0.5393   -0.1163 C   0  0  0  0  0  0  0  0  0  0  0  0
   -1.4414   -0.5359    0.1177 C   0  0  0  0  0  0  0  0  0  0  0  0
    0.7441    0.6810    0.0236 C   0  0  0  0  0  0  0  0  0  0  0  0
   -0.7381    0.6820   -0.0322 C   0  0  0  0  0  0  0  0  0  0  0  0
    2.8492   -0.5666   -0.0827 C   0  0  0  0  0  0  0  0  0  0  0  0
   -2.8461   -0.5586    0.0913 C   0  0  0  0  0  0  0  0  0  0  0  0
    1.5037    1.8479    0.2277 C   0  0  0  0  0  0  0  0  0  0  0  0
   -1.4951    1.8497   -0.2418 C   0  0  0  0  0  0  0  0  0  0  0  0
    3.5731    0.6052    0.1106 C   0  0  0  0  0  0  0  0  0  0  0  0
   -3.5674    0.6138   -0.1072 C   0  0  0  0  0  0  0  0  0  0  0  0
    2.9006    1.8105    0.2697 C   0  0  0  0  0  0  0  0  0  0  0  0
   -2.8923    1.8161   -0.2783 C   0  0  0  0  0  0  0  0  0  0  0  0
    1.2717   -2.6690    0.0546 H   0  0  0  0  0  0  0  0  0  0  0  0
   -1.2760   -2.6713   -0.0368 H   0  0  0  0  0  0  0  0  0  0  0  0
    3.3830   -1.5057   -0.2061 H   0  0  0  0  0  0  0  0  0  0  0  0
   -3.3824   -1.4951    0.2233 H   0  0  0  0  0  0  0  0  0  0  0  0
    1.0272    2.8143    0.3701 H   0  0  0  0  0  0  0  0  0  0  0  0
   -1.0163    2.8138   -0.3920 H   0  0  0  0  0  0  0  0  0  0  0  0
    1.3223   -1.8053   -2.1983 H   0  0  0  0  0  0  0  0  0  0  0  0
   -1.4044   -1.8879    2.1705 H   0  0  0  0  0  0  0  0  0  0  0  0
    4.6581    0.5775    0.1398 H   0  0  0  0  0  0  0  0  0  0  0  0
   -4.6527    0.5890   -0.1315 H   0  0  0  0  0  0  0  0  0  0  0  0
    3.4611    2.7276    0.4282 H   0  0  0  0  0  0  0  0  0  0  0  0
   -3.4508    2.7335   -0.4408 H   0  0  0  0  0  0  0  0  0  0  0  0
  1  3  1  0  0  0  0
  1 23  1  0  0  0  0
  2  4  1  0  0  0  0
  2 24  1  0  0  0  0
  3  4  1  0  0  0  0
  3  5  1  0  0  0  0
  3 17  1  0  0  0  0
  4  6  1  0  0  0  0
  4 18  1  0  0  0  0
  5  7  1  0  0  0  0
  5  9  2  0  0  0  0
  6  8  1  0  0  0  0
  6 10  2  0  0  0  0
  7  8  1  0  0  0  0
  7 11  2  0  0  0  0
  8 12  2  0  0  0  0
  9 13  1  0  0  0  0
  9 19  1  0  0  0  0
 10 14  1  0  0  0  0
 10 20  1  0  0  0  0
 11 15  1  0  0  0  0
 11 21  1  0  0  0  0
 12 16  1  0  0  0  0
 12 22  1  0  0  0  0
 13 15  2  0  0  0  0
 13 25  1  0  0  0  0
 14 16  2  0  0  0  0
 14 26  1  0  0  0  0
 15 27  1  0  0  0  0
 16 28  1  0  0  0  0
M  END
> <PUBCHEM_COMPOUND_CID>
114767

> <PUBCHEM_CONFORMER_RMSD>
0.4

> <PUBCHEM_CONFORMER_DIVERSEORDER>
1
2

> <PUBCHEM_MMFF94_PARTIAL_CHARGES>
24
1 -0.68
10 -0.15
11 -0.15
12 -0.15
13 -0.15
14 -0.15
15 -0.15
16 -0.15
19 0.15
2 -0.68
20 0.15
21 0.15
22 0.15
23 0.4
24 0.4
25 0.15
26 0.15
27 0.15
28 0.15
3 0.42
4 0.42
5 -0.14
6 -0.14
9 -0.15

> <PUBCHEM_EFFECTIVE_ROTOR_COUNT>
0.4

> <PUBCHEM_PHARMACOPHORE_FEATURES>
7
1 1 acceptor
1 1 donor
1 2 acceptor
1 2 donor
6 3 4 5 6 7 8 rings
6 5 7 9 11 13 15 rings
6 6 8 10 12 14 16 rings

> <PUBCHEM_HEAVY_ATOM_COUNT>
16

> <PUBCHEM_ATOM_DEF_STEREO_COUNT>
2

> <PUBCHEM_ATOM_UDEF_STEREO_COUNT>
0

> <PUBCHEM_BOND_DEF_STEREO_COUNT>
0

> <PUBCHEM_BOND_UDEF_STEREO_COUNT>
0

> <PUBCHEM_ISOTOPIC_ATOM_COUNT>
0

> <PUBCHEM_COMPONENT_COUNT>
1

> <PUBCHEM_CACTVS_TAUTO_COUNT>
1

> <PUBCHEM_CONFORMER_ID>
0001C04F00000001

> <PUBCHEM_MMFF94_ENERGY>
49.4182

> <PUBCHEM_FEATURE_SELFOVERLAP>
35.563

> <PUBCHEM_SHAPE_FINGERPRINT>
10608611 8 18410859862470211844
10967382 1 18410576201360129965
11132069 177 18408891728082070793
12423570 1 18113908194583765463
13140716 1 18195242209221382857
13380535 76 18410857663446410625
13464514 151 18050002491349368045
13897977 150 18410014364045896477
15196674 1 18410857663446637988
15219456 202 18409163346298611205
15309172 13 18260541191140473816
15775835 57 18410573985156966244
16945 1 18410862061493110115
17990270 104 17973727166580875935
18186145 218 18260823834406661968
20201158 50 18335701693039089525
20510252 161 18337107865458758153
20511035 2 18267580221953550270
20645476 183 17845358978106353670
20645477 70 18191316081528473125
20871998 184 18120367657940372879
20905425 154 18050291671660626308
21501502 16 18410578374608047140
21524375 3 18410862061492915232
22344851 341 18197216069022170299
2334 1 18411139108385185197
23402539 116 18268721528066592567
23463225 33 18341617052906898744
23493267 7 18130498640041723976
23559900 14 18408321117056642436
238 59 17765474141015982861
25 1 18337672030613487325
2748010 2 18193267503522995252
2871803 45 18340779186771428341
528886 8 18334301958765166840
53812653 166 18410577322415146656
69090 78 18261399896915992775
7364860 26 18118404174864929647
7832392 63 17539966599687289817
81228 2 17761793766185570945
8809292 202 18342452630098743704
9709674 26 18338513041376876342

> <PUBCHEM_SHAPE_MULTIPOLES>
317.53
5.11
2.47
0.92
0.03
0.29
0
-2.36
-0.01
0
0.02
-0.01
0.58
0.53

> <PUBCHEM_SHAPE_SELFOVERLAP>
705.768

> <PUBCHEM_SHAPE_VOLUME>
168.1

> <PUBCHEM_COORDINATE_TYPE>
2
5
10

$$$$

