60975
  -OEChem-07051213142D

 38 38  0     1  0  0  0  0  0999 V2000
    3.9674    0.0000    0.0000 Cl  0  0  0  0  0  0  0  0  0  0  0  0
    4.0010    2.8389    0.0000 O   0  0  0  0  0  0  0  0  0  0  0  0
    2.2690    3.8389    0.0000 N   0  0  0  0  0  0  0  0  0  0  0  0
    4.0010    3.8389    0.0000 C   0  0  3  0  0  0  0  0  0  0  0  0
    3.1350    4.3389    0.0000 C   0  0  0  0  0  0  0  0  0  0  0  0
    4.8671    4.3389    0.0000 C   0  0  0  0  0  0  0  0  0  0  0  0
    1.4030    4.3389    0.0000 C   0  0  0  0  0  0  0  0  0  0  0  0
    5.7331    3.8389    0.0000 C   0  0  0  0  0  0  0  0  0  0  0  0
    6.5991    4.3389    0.0000 C   0  0  0  0  0  0  0  0  0  0  0  0
    4.8671    5.3389    0.0000 C   0  0  0  0  0  0  0  0  0  0  0  0
    6.5991    5.3389    0.0000 C   0  0  0  0  0  0  0  0  0  0  0  0
    0.5369    3.8389    0.0000 C   0  0  0  0  0  0  0  0  0  0  0  0
    1.4030    5.3389    0.0000 C   0  0  0  0  0  0  0  0  0  0  0  0
    5.7331    5.8389    0.0000 C   0  0  0  0  0  0  0  0  0  0  0  0
    7.4931    3.8042    0.0000 C   0  0  0  0  0  0  0  0  0  0  0  0
    7.4931    5.8736    0.0000 C   0  0  0  0  0  0  0  0  0  0  0  0
    8.3991    4.3181    0.0000 C   0  0  0  0  0  0  0  0  0  0  0  0
    8.3991    5.3597    0.0000 C   0  0  0  0  0  0  0  0  0  0  0  0
    4.5380    3.5289    0.0000 H   0  0  0  0  0  0  0  0  0  0  0  0
    3.5335    4.8139    0.0000 H   0  0  0  0  0  0  0  0  0  0  0  0
    2.7365    4.8139    0.0000 H   0  0  0  0  0  0  0  0  0  0  0  0
    1.4030    3.7189    0.0000 H   0  0  0  0  0  0  0  0  0  0  0  0
    2.2690    3.2189    0.0000 H   0  0  0  0  0  0  0  0  0  0  0  0
    5.7331    3.2189    0.0000 H   0  0  0  0  0  0  0  0  0  0  0  0
    4.3301    5.6489    0.0000 H   0  0  0  0  0  0  0  0  0  0  0  0
    2.0230    5.3389    0.0000 H   0  0  0  0  0  0  0  0  0  0  0  0
    0.2269    4.3758    0.0000 H   0  0  0  0  0  0  0  0  0  0  0  0
    0.0000    3.5289    0.0000 H   0  0  0  0  0  0  0  0  0  0  0  0
    0.8469    3.3020    0.0000 H   0  0  0  0  0  0  0  0  0  0  0  0
    1.4030    5.9589    0.0000 H   0  0  0  0  0  0  0  0  0  0  0  0
    0.7830    5.3389    0.0000 H   0  0  0  0  0  0  0  0  0  0  0  0
    5.7331    6.4589    0.0000 H   0  0  0  0  0  0  0  0  0  0  0  0
    7.4859    3.1843    0.0000 H   0  0  0  0  0  0  0  0  0  0  0  0
    3.4641    2.5289    0.0000 H   0  0  0  0  0  0  0  0  0  0  0  0
    7.4859    6.4935    0.0000 H   0  0  0  0  0  0  0  0  0  0  0  0
    8.9349    4.0060    0.0000 H   0  0  0  0  0  0  0  0  0  0  0  0
    8.9349    5.6718    0.0000 H   0  0  0  0  0  0  0  0  0  0  0  0
    4.9674    0.0000    0.0000 H   0  0  0  0  0  0  0  0  0  0  0  0
  1 38  1  0  0  0  0
  2  4  1  0  0  0  0
  2 34  1  0  0  0  0
  3  5  1  0  0  0  0
  3  7  1  0  0  0  0
  3 23  1  0  0  0  0
  4  5  1  0  0  0  0
  4  6  1  0  0  0  0
  4 19  1  0  0  0  0
  5 20  1  0  0  0  0
  5 21  1  0  0  0  0
  6  8  2  0  0  0  0
  6 10  1  0  0  0  0
  7 12  1  0  0  0  0
  7 13  1  0  0  0  0
  7 22  1  0  0  0  0
  8  9  1  0  0  0  0
  8 24  1  0  0  0  0
  9 11  1  0  0  0  0
  9 15  2  0  0  0  0
 10 14  2  0  0  0  0
 10 25  1  0  0  0  0
 11 14  1  0  0  0  0
 11 16  2  0  0  0  0
 12 27  1  0  0  0  0
 12 28  1  0  0  0  0
 12 29  1  0  0  0  0
 13 26  1  0  0  0  0
 13 30  1  0  0  0  0
 13 31  1  0  0  0  0
 14 32  1  0  0  0  0
 15 17  1  0  0  0  0
 15 33  1  0  0  0  0
 16 18  1  0  0  0  0
 16 35  1  0  0  0  0
 17 18  2  0  0  0  0
 17 36  1  0  0  0  0
 18 37  1  0  0  0  0
M  END
> <PUBCHEM_COMPOUND_CID>
60975

> <PUBCHEM_COMPOUND_CANONICALIZED>
1

> <PUBCHEM_CACTVS_COMPLEXITY>
229

> <PUBCHEM_CACTVS_HBOND_ACCEPTOR>
2

> <PUBCHEM_CACTVS_HBOND_DONOR>
3

> <PUBCHEM_CACTVS_ROTATABLE_BOND>
4

> <PUBCHEM_CACTVS_SUBSKEYS>
AAADceByIAAEAAAAAAAAAAAAAAAAAAAAAAAwYAAAAAAAAADBUAAAHgAQCAAADDzhmAYyAMLAAgCAAiBCAAACAAAgAAAIiIAICIgKNiKAkRGEcAAk0AGYmAeQwPAOwAACAAAQAACAAAQAACAAAAAAAAAAAA==

> <PUBCHEM_IUPAC_OPENEYE_NAME>
2-(isopropylamino)-1-(2-naphthyl)ethanol hydrochloride

> <PUBCHEM_IUPAC_CAS_NAME>
1-(2-naphthalenyl)-2-(propan-2-ylamino)ethanol hydrochloride

> <PUBCHEM_IUPAC_NAME>
1-naphthalen-2-yl-2-(propan-2-ylamino)ethanol hydrochloride

> <PUBCHEM_IUPAC_SYSTEMATIC_NAME>
1-naphthalen-2-yl-2-(propan-2-ylamino)ethanol hydrochloride

> <PUBCHEM_IUPAC_TRADITIONAL_NAME>
2-(isopropylamino)-1-(2-naphthyl)ethanol hydrochloride

> <PUBCHEM_IUPAC_INCHI>
InChI=1S/C15H19NO.ClH/c1-11(2)16-10-15(17)14-8-7-12-5-3-4-6-13(12)9-14;/h3-9,11,15-17H,10H2,1-2H3;1H

> <PUBCHEM_IUPAC_INCHIKEY>
QONLGXRPRAIDGI-UHFFFAOYSA-N

> <PUBCHEM_EXACT_MASS>
265.123342

> <PUBCHEM_MOLECULAR_FORMULA>
C15H20ClNO

> <PUBCHEM_MOLECULAR_WEIGHT>
265.7784

> <PUBCHEM_OPENEYE_CAN_SMILES>
CC(C)NCC(C1=CC2=CC=CC=C2C=C1)O.Cl

> <PUBCHEM_OPENEYE_ISO_SMILES>
CC(C)NCC(C1=CC2=CC=CC=C2C=C1)O.Cl

> <PUBCHEM_CACTVS_TPSA>
32.3

> <PUBCHEM_MONOISOTOPIC_WEIGHT>
265.123342

> <PUBCHEM_TOTAL_CHARGE>
0

> <PUBCHEM_HEAVY_ATOM_COUNT>
18

> <PUBCHEM_ATOM_DEF_STEREO_COUNT>
0

> <PUBCHEM_ATOM_UDEF_STEREO_COUNT>
1

> <PUBCHEM_BOND_DEF_STEREO_COUNT>
0

> <PUBCHEM_BOND_UDEF_STEREO_COUNT>
0

> <PUBCHEM_ISOTOPIC_ATOM_COUNT>
0

> <PUBCHEM_COMPONENT_COUNT>
2

> <PUBCHEM_CACTVS_TAUTO_COUNT>
1

> <PUBCHEM_COORDINATE_TYPE>
1
5
255

> <PUBCHEM_BONDANNOTATIONS>
10  14  8
11  14  8
11  16  8
15  17  8
16  18  8
17  18  8
4  2  3
6  10  8
6  8  8
8  9  8
9  11  8
9  15  8

$$$$

