17396543
  -OEChem-06241222572D

 45 46  0     1  0  0  0  0  0999 V2000
    6.6381   -0.0632    0.0000 O   0  0  0  0  0  0  0  0  0  0  0  0
    2.5878    2.8795    0.0000 O   0  0  0  0  0  0  0  0  0  0  0  0
    7.1733    1.5841    0.0000 O   0  0  0  0  0  0  0  0  0  0  0  0
   10.2161   -3.8976    0.0000 O   0  0  0  0  0  0  0  0  0  0  0  0
    3.9890    3.8976    0.0000 O   0  0  0  0  0  0  0  0  0  0  0  0
    7.0539   -2.0195    0.0000 O   0  0  0  0  0  0  0  0  0  0  0  0
    4.6701    0.6362    0.0000 N   0  0  0  0  0  0  0  0  0  0  0  0
    8.7481   -1.6594    0.0000 N   0  0  0  0  0  0  0  0  0  0  0  0
    5.1701    2.1750    0.0000 C   0  0  0  0  0  0  0  0  0  0  0  0
    5.4791    1.2240    0.0000 C   0  0  0  0  0  0  0  0  0  0  0  0
    4.1701    2.1750    0.0000 C   0  0  0  0  0  0  0  0  0  0  0  0
    3.8611    1.2240    0.0000 C   0  0  0  0  0  0  0  0  0  0  0  0
    7.5891   -0.3722    0.0000 C   0  0  3  0  0  0  0  0  0  0  0  0
    5.7579    2.9840    0.0000 C   0  0  0  0  0  0  0  0  0  0  0  0
    6.4302    0.9150    0.0000 C   0  0  0  0  0  0  0  0  0  0  0  0
    2.9100    0.9150    0.0000 C   0  0  0  0  0  0  0  0  0  0  0  0
    3.5823    2.9840    0.0000 C   0  0  0  0  0  0  0  0  0  0  0  0
    7.7970   -1.3504    0.0000 C   0  0  0  0  0  0  0  0  0  0  0  0
    8.3323    0.2969    0.0000 C   0  0  0  0  0  0  0  0  0  0  0  0
    8.9560   -2.6375    0.0000 C   0  0  0  0  0  0  0  0  0  0  0  0
    9.9071   -2.9465    0.0000 C   0  0  0  0  0  0  0  0  0  0  0  0
   10.7161   -2.3588    0.0000 C   0  0  0  0  0  0  0  0  0  0  0  0
   11.5251   -2.9465    0.0000 C   0  0  0  0  0  0  0  0  0  0  0  0
   11.2161   -3.8976    0.0000 C   0  0  0  0  0  0  0  0  0  0  0  0
    2.0000    3.6885    0.0000 C   0  0  0  0  0  0  0  0  0  0  0  0
    4.6701    0.0162    0.0000 H   0  0  0  0  0  0  0  0  0  0  0  0
    7.4602    0.2342    0.0000 H   0  0  0  0  0  0  0  0  0  0  0  0
    6.2595    2.6196    0.0000 H   0  0  0  0  0  0  0  0  0  0  0  0
    6.1223    3.4856    0.0000 H   0  0  0  0  0  0  0  0  0  0  0  0
    5.2563    3.3485    0.0000 H   0  0  0  0  0  0  0  0  0  0  0  0
    2.7184    1.5046    0.0000 H   0  0  0  0  0  0  0  0  0  0  0  0
    2.3204    0.7234    0.0000 H   0  0  0  0  0  0  0  0  0  0  0  0
    3.1016    0.3253    0.0000 H   0  0  0  0  0  0  0  0  0  0  0  0
    8.7471   -0.1638    0.0000 H   0  0  0  0  0  0  0  0  0  0  0  0
    8.7930    0.7118    0.0000 H   0  0  0  0  0  0  0  0  0  0  0  0
    7.9174    0.7577    0.0000 H   0  0  0  0  0  0  0  0  0  0  0  0
    8.3364   -2.6592    0.0000 H   0  0  0  0  0  0  0  0  0  0  0  0
    8.8697   -3.2515    0.0000 H   0  0  0  0  0  0  0  0  0  0  0  0
    9.2088   -1.2445    0.0000 H   0  0  0  0  0  0  0  0  0  0  0  0
   10.7161   -1.7388    0.0000 H   0  0  0  0  0  0  0  0  0  0  0  0
   12.1148   -2.7550    0.0000 H   0  0  0  0  0  0  0  0  0  0  0  0
   11.5805   -4.3992    0.0000 H   0  0  0  0  0  0  0  0  0  0  0  0
    2.5016    4.0530    0.0000 H   0  0  0  0  0  0  0  0  0  0  0  0
    1.6356    4.1901    0.0000 H   0  0  0  0  0  0  0  0  0  0  0  0
    1.4984    3.3241    0.0000 H   0  0  0  0  0  0  0  0  0  0  0  0
  1 13  1  0  0  0  0
  1 15  1  0  0  0  0
  2 17  1  0  0  0  0
  2 25  1  0  0  0  0
  3 15  2  0  0  0  0
  4 21  1  0  0  0  0
  4 24  1  0  0  0  0
  5 17  2  0  0  0  0
  6 18  2  0  0  0  0
  7 10  1  0  0  0  0
  7 12  1  0  0  0  0
  7 26  1  0  0  0  0
  8 18  1  0  0  0  0
  8 20  1  0  0  0  0
  8 39  1  0  0  0  0
  9 10  2  0  0  0  0
  9 11  1  0  0  0  0
  9 14  1  0  0  0  0
 10 15  1  0  0  0  0
 11 12  2  0  0  0  0
 11 17  1  0  0  0  0
 12 16  1  0  0  0  0
 13 18  1  0  0  0  0
 13 19  1  0  0  0  0
 13 27  1  0  0  0  0
 14 28  1  0  0  0  0
 14 29  1  0  0  0  0
 14 30  1  0  0  0  0
 16 31  1  0  0  0  0
 16 32  1  0  0  0  0
 16 33  1  0  0  0  0
 19 34  1  0  0  0  0
 19 35  1  0  0  0  0
 19 36  1  0  0  0  0
 20 21  1  0  0  0  0
 20 37  1  0  0  0  0
 20 38  1  0  0  0  0
 21 22  2  0  0  0  0
 22 23  1  0  0  0  0
 22 40  1  0  0  0  0
 23 24  2  0  0  0  0
 23 41  1  0  0  0  0
 24 42  1  0  0  0  0
 25 43  1  0  0  0  0
 25 44  1  0  0  0  0
 25 45  1  0  0  0  0
M  END
> <PUBCHEM_COMPOUND_CID>
17396543

> <PUBCHEM_COMPOUND_CANONICALIZED>
1

> <PUBCHEM_CACTVS_COMPLEXITY>
511

> <PUBCHEM_CACTVS_HBOND_ACCEPTOR>
6

> <PUBCHEM_CACTVS_HBOND_DONOR>
2

> <PUBCHEM_CACTVS_ROTATABLE_BOND>
8

> <PUBCHEM_CACTVS_SUBSKEYS>
AAADceB7OAAAAAAAAAAAAAAAAAAAAWJAAAAAAAAAAAAAAAAB4AAAHgAQAAAADBzhngYyjJLJlECoA63y3AaCiCAnICAImaH+TNgOJnrEtb+HGajm1hHY6ce8fwsegAAAAAAAAAAAAAAAAAAAAAAAAAAAAA==

> <PUBCHEM_IUPAC_OPENEYE_NAME>
O2-[2-(2-furylmethylamino)-1-methyl-2-oxo-ethyl] O4-methyl 3,5-dimethyl-1H-pyrrole-2,4-dicarboxylate

> <PUBCHEM_IUPAC_CAS_NAME>
3,5-dimethyl-1H-pyrrole-2,4-dicarboxylic acid O2-[1-(2-furanylmethylamino)-1-oxopropan-2-yl] ester O4-methyl ester

> <PUBCHEM_IUPAC_NAME>
2-O-[1-(furan-2-ylmethylamino)-1-oxopropan-2-yl] 4-O-methyl 3,5-dimethyl-1H-pyrrole-2,4-dicarboxylate

> <PUBCHEM_IUPAC_SYSTEMATIC_NAME>
O2-[1-(furan-2-ylmethylamino)-1-oxidanylidene-propan-2-yl] O4-methyl 3,5-dimethyl-1H-pyrrole-2,4-dicarboxylate

> <PUBCHEM_IUPAC_TRADITIONAL_NAME>
3,5-dimethyl-1H-pyrrole-2,4-dicarboxylic acid O2-[2-(2-furfurylamino)-2-keto-1-methyl-ethyl] ester O4-methyl ester

> <PUBCHEM_IUPAC_INCHI>
InChI=1S/C17H20N2O6/c1-9-13(16(21)23-4)10(2)19-14(9)17(22)25-11(3)15(20)18-8-12-6-5-7-24-12/h5-7,11,19H,8H2,1-4H3,(H,18,20)

> <PUBCHEM_IUPAC_INCHIKEY>
XXIVNOVPOUCBMR-UHFFFAOYSA-N

> <PUBCHEM_XLOGP3_AA>
1.9

> <PUBCHEM_EXACT_MASS>
348.132136

> <PUBCHEM_MOLECULAR_FORMULA>
C17H20N2O6

> <PUBCHEM_MOLECULAR_WEIGHT>
348.3505

> <PUBCHEM_OPENEYE_CAN_SMILES>
CC1=C(NC(=C1C(=O)OC)C)C(=O)OC(C)C(=O)NCC2=CC=CO2

> <PUBCHEM_OPENEYE_ISO_SMILES>
CC1=C(NC(=C1C(=O)OC)C)C(=O)OC(C)C(=O)NCC2=CC=CO2

> <PUBCHEM_CACTVS_TPSA>
111

> <PUBCHEM_MONOISOTOPIC_WEIGHT>
348.132136

> <PUBCHEM_TOTAL_CHARGE>
0

> <PUBCHEM_HEAVY_ATOM_COUNT>
25

> <PUBCHEM_ATOM_DEF_STEREO_COUNT>
0

> <PUBCHEM_ATOM_UDEF_STEREO_COUNT>
1

> <PUBCHEM_BOND_DEF_STEREO_COUNT>
0

> <PUBCHEM_BOND_UDEF_STEREO_COUNT>
0

> <PUBCHEM_ISOTOPIC_ATOM_COUNT>
0

> <PUBCHEM_COMPONENT_COUNT>
1

> <PUBCHEM_CACTVS_TAUTO_COUNT>
20

> <PUBCHEM_COORDINATE_TYPE>
1
5
255

> <PUBCHEM_BONDANNOTATIONS>
11  12  8
13  19  3
21  22  8
22  23  8
23  24  8
4  21  8
4  24  8
7  10  8
7  12  8
9  10  8
9  11  8

$$$$

