5281656
  -OEChem-07051212583D

 27 29  0     0  0  0  0  0  0999 V2000
   -0.1011   -1.5552    0.0001 O   0  0  0  0  0  0  0  0  0  0  0  0
   -0.1264    2.5365    0.0022 O   0  0  0  0  0  0  0  0  0  0  0  0
   -2.7617    2.5132   -0.0022 O   0  0  0  0  0  0  0  0  0  0  0  0
    4.7354    1.1216   -0.0001 O   0  0  0  0  0  0  0  0  0  0  0  0
    4.6334   -1.6545    0.0006 O   0  0  0  0  0  0  0  0  0  0  0  0
   -4.8382   -1.7566    0.0004 O   0  0  0  0  0  0  0  0  0  0  0  0
   -1.3776    0.5266    0.0003 C   0  0  0  0  0  0  0  0  0  0  0  0
    1.1253    0.5566    0.0000 C   0  0  0  0  0  0  0  0  0  0  0  0
   -1.2882   -0.8651    0.0001 C   0  0  0  0  0  0  0  0  0  0  0  0
    1.0692   -0.8368   -0.0001 C   0  0  0  0  0  0  0  0  0  0  0  0
   -0.1354    1.3143    0.0005 C   0  0  0  0  0  0  0  0  0  0  0  0
   -2.6242    1.1579    0.0003 C   0  0  0  0  0  0  0  0  0  0  0  0
    2.3564    1.2176   -0.0002 C   0  0  0  0  0  0  0  0  0  0  0  0
    2.2539   -1.5760   -0.0004 C   0  0  0  0  0  0  0  0  0  0  0  0
   -2.4548   -1.6325   -0.0001 C   0  0  0  0  0  0  0  0  0  0  0  0
    3.5365    0.4737   -0.0006 C   0  0  0  0  0  0  0  0  0  0  0  0
    3.4857   -0.9204   -0.0006 C   0  0  0  0  0  0  0  0  0  0  0  0
   -3.7862    0.3859    0.0000 C   0  0  0  0  0  0  0  0  0  0  0  0
   -3.7019   -1.0066   -0.0001 C   0  0  0  0  0  0  0  0  0  0  0  0
    2.4022    2.3036    0.0000 H   0  0  0  0  0  0  0  0  0  0  0  0
    2.2187   -2.6628   -0.0002 H   0  0  0  0  0  0  0  0  0  0  0  0
   -2.3940   -2.7181    0.0000 H   0  0  0  0  0  0  0  0  0  0  0  0
   -4.7573    0.8753   -0.0004 H   0  0  0  0  0  0  0  0  0  0  0  0
   -1.8922    2.9421   -0.0037 H   0  0  0  0  0  0  0  0  0  0  0  0
    4.5777    2.0813    0.0000 H   0  0  0  0  0  0  0  0  0  0  0  0
    5.3888   -1.0411    0.0008 H   0  0  0  0  0  0  0  0  0  0  0  0
   -5.6083   -1.1624    0.0004 H   0  0  0  0  0  0  0  0  0  0  0  0
  1  9  1  0  0  0  0
  1 10  1  0  0  0  0
  2 11  2  0  0  0  0
  3 12  1  0  0  0  0
  3 24  1  0  0  0  0
  4 16  1  0  0  0  0
  4 25  1  0  0  0  0
  5 17  1  0  0  0  0
  5 26  1  0  0  0  0
  6 19  1  0  0  0  0
  6 27  1  0  0  0  0
  7  9  1  0  0  0  0
  7 11  1  0  0  0  0
  7 12  2  0  0  0  0
  8 10  1  0  0  0  0
  8 11  1  0  0  0  0
  8 13  2  0  0  0  0
  9 15  2  0  0  0  0
 10 14  2  0  0  0  0
 12 18  1  0  0  0  0
 13 16  1  0  0  0  0
 13 20  1  0  0  0  0
 14 17  1  0  0  0  0
 14 21  1  0  0  0  0
 15 19  1  0  0  0  0
 15 22  1  0  0  0  0
 16 17  2  0  0  0  0
 18 19  2  0  0  0  0
 18 23  1  0  0  0  0
M  END
> <PUBCHEM_COMPOUND_CID>
5281656

> <PUBCHEM_CONFORMER_RMSD>
0.4

> <PUBCHEM_CONFORMER_DIVERSEORDER>
1

> <PUBCHEM_MMFF94_PARTIAL_CHARGES>
27
1 -0.17
10 0.08
11 0.4
12 0.08
13 -0.15
14 -0.15
15 -0.15
16 0.08
17 0.08
18 -0.15
19 0.08
2 -0.57
20 0.15
21 0.15
22 0.15
23 0.15
24 0.45
25 0.45
26 0.45
27 0.45
3 -0.53
4 -0.53
5 -0.53
6 -0.53
7 0.09
8 0.09
9 0.08

> <PUBCHEM_EFFECTIVE_ROTOR_COUNT>
0

> <PUBCHEM_PHARMACOPHORE_FEATURES>
9
1 1 acceptor
1 2 acceptor
1 3 donor
1 4 donor
1 5 donor
1 6 donor
6 1 7 8 9 10 11 rings
6 7 9 12 15 18 19 rings
6 8 10 13 14 16 17 rings

> <PUBCHEM_HEAVY_ATOM_COUNT>
19

> <PUBCHEM_ATOM_DEF_STEREO_COUNT>
0

> <PUBCHEM_ATOM_UDEF_STEREO_COUNT>
0

> <PUBCHEM_BOND_DEF_STEREO_COUNT>
0

> <PUBCHEM_BOND_UDEF_STEREO_COUNT>
0

> <PUBCHEM_ISOTOPIC_ATOM_COUNT>
0

> <PUBCHEM_COMPONENT_COUNT>
1

> <PUBCHEM_CACTVS_TAUTO_COUNT>
114

> <PUBCHEM_CONFORMER_ID>
0050977800000001

> <PUBCHEM_MMFF94_ENERGY>
56.4276

> <PUBCHEM_FEATURE_SELFOVERLAP>
45.73

> <PUBCHEM_SHAPE_FINGERPRINT>
10062212 137 18338525230283156779
10608611 8 18409732884668723424
10616163 171 18336827605699316071
10967382 1 18266740190474340038
11132069 177 18410580599538380096
11471102 20 18411422791259630414
11806522 49 18340769243431663831
12032990 46 18410571786181086023
12403259 226 18409454678056870417
13140716 1 18337955726119633491
13288520 33 18336825394223571406
13583140 156 14418132958907061119
138480 1 15528553198088082181
14115302 16 17631727158679856639
15196674 1 18410855473081648454
15442244 35 18267586990874990074
15536298 74 18407760343981818090
16945 1 18194401095732102181
17492 89 18338799017290149706
17804303 29 18335417967594454745
18186145 218 17846502555887771654
18522853 276 18409730634232168571
19591789 44 18410293635578043510
200 152 18114188510493909999
20510252 161 18334011709307576721
20645477 70 18408321103544681886
21029758 11 18335988588655028257
21267235 1 18410847776579849510
21501502 16 18411418453094605152
221490 88 18269548356130636434
2334 1 18410575089142675527
23402539 116 18335147487876596391
23463225 33 18411981360182762532
23557571 272 18260820506181229398
23559900 14 18118688966168751118
2748010 2 18409450310106278757
2871803 45 18343026579474232183
335352 9 18122343746581222036
34934 24 18411144631696835895
350125 39 18410007720122068121
4214541 1 18410856611221692576
474 4 17202194124090536612
5104073 3 18409449215132257666
7097593 13 17482284007633296018
7364860 26 18120374263489733097
77779 3 18410572907389018422
8809292 202 18343015601326853259
9709674 26 18410568496415914142

> <PUBCHEM_SHAPE_MULTIPOLES>
355.8
8.44
2.31
0.59
1.84
0.61
0
-2.19
0
-0.68
0
-0.01
-0.01
0

> <PUBCHEM_SHAPE_SELFOVERLAP>
808.436

> <PUBCHEM_SHAPE_VOLUME>
185.4

> <PUBCHEM_COORDINATE_TYPE>
2
5
10

$$$$

