10650
  -OEChem-06261204483D

 72 74  0     0  0  0  0  0  0999 V2000
   -0.6563    0.6373   -1.4221 O   0  0  0  0  0  0  0  0  0  0  0  0
    1.0782    2.6280   -0.2723 O   0  0  0  0  0  0  0  0  0  0  0  0
   -3.3184   -0.4840    0.8090 O   0  0  0  0  0  0  0  0  0  0  0  0
    4.5286   -1.1038   -0.8857 O   0  0  0  0  0  0  0  0  0  0  0  0
    0.0286   -3.7009    0.3814 O   0  0  0  0  0  0  0  0  0  0  0  0
   -2.7675    4.8881    1.4016 O   0  0  0  0  0  0  0  0  0  0  0  0
    3.1322    1.6848   -0.6248 O   0  0  0  0  0  0  0  0  0  0  0  0
   -4.9893    4.1846   -0.2804 O   0  0  0  0  0  0  0  0  0  0  0  0
   -5.2814    2.1891    0.7680 O   0  0  0  0  0  0  0  0  0  0  0  0
   -2.5381    1.8128   -0.5909 C   0  0  0  0  0  0  0  0  0  0  0  0
   -4.9512   -2.5839    0.0804 C   0  0  0  0  0  0  0  0  0  0  0  0
   -3.4321    0.8003   -1.2356 C   0  0  0  0  0  0  0  0  0  0  0  0
   -4.7158   -1.4269   -0.8856 C   0  0  0  0  0  0  0  0  0  0  0  0
    7.1515   -0.5778   -0.2147 C   0  0  0  0  0  0  0  0  0  0  0  0
    2.1508   -0.7237    0.5445 C   0  0  0  0  0  0  0  0  0  0  0  0
    6.0292   -0.2388    0.7615 C   0  0  0  0  0  0  0  0  0  0  0  0
    3.4685   -0.3675    1.1579 C   0  0  0  0  0  0  0  0  0  0  0  0
   -1.1527    1.6867   -0.6967 C   0  0  0  0  0  0  0  0  0  0  0  0
    1.3711    0.1977   -0.1654 C   0  0  0  0  0  0  0  0  0  0  0  0
   -5.8895   -3.6486   -0.4945 C   0  0  0  0  0  0  0  0  0  0  0  0
    8.5347   -0.2071    0.3273 C   0  0  0  0  0  0  0  0  0  0  0  0
   -3.7721   -0.3756   -0.3308 C   0  0  0  0  0  0  0  0  0  0  0  0
    0.1404   -0.2021   -0.6858 C   0  0  0  0  0  0  0  0  0  0  0  0
    4.6560   -0.6199    0.2396 C   0  0  0  0  0  0  0  0  0  0  0  0
   -0.3279    2.6411   -0.1134 C   0  0  0  0  0  0  0  0  0  0  0  0
   -3.0851    2.8824    0.1202 C   0  0  0  0  0  0  0  0  0  0  0  0
   -6.0785   -4.8075    0.4848 C   0  0  0  0  0  0  0  0  0  0  0  0
    9.6374   -0.5885   -0.6608 C   0  0  0  0  0  0  0  0  0  0  0  0
    1.6944   -2.0292    0.7343 C   0  0  0  0  0  0  0  0  0  0  0  0
    1.9369    1.5388   -0.3988 C   0  0  0  0  0  0  0  0  0  0  0  0
   -0.3066   -1.5155   -0.5136 C   0  0  0  0  0  0  0  0  0  0  0  0
   -2.2501    3.8334    0.7101 C   0  0  0  0  0  0  0  0  0  0  0  0
   -0.8659    3.7207    0.5869 C   0  0  0  0  0  0  0  0  0  0  0  0
    0.4683   -2.4256    0.2035 C   0  0  0  0  0  0  0  0  0  0  0  0
   -6.9840   -5.8831   -0.0938 C   0  0  0  0  0  0  0  0  0  0  0  0
   11.0156   -0.2519   -0.1140 C   0  0  0  0  0  0  0  0  0  0  0  0
   -4.5324    3.0179    0.2471 C   0  0  0  0  0  0  0  0  0  0  0  0
    0.8727   -4.5818    1.1217 C   0  0  0  0  0  0  0  0  0  0  0  0
   -3.9889   -3.0465    0.3347 H   0  0  0  0  0  0  0  0  0  0  0  0
   -5.3699   -2.1990    1.0189 H   0  0  0  0  0  0  0  0  0  0  0  0
   -2.9665    0.3969   -2.1430 H   0  0  0  0  0  0  0  0  0  0  0  0
   -4.3673    1.2569   -1.5784 H   0  0  0  0  0  0  0  0  0  0  0  0
   -4.2828   -1.8052   -1.8183 H   0  0  0  0  0  0  0  0  0  0  0  0
   -5.6667   -0.9350   -1.1177 H   0  0  0  0  0  0  0  0  0  0  0  0
    6.9816   -0.0552   -1.1647 H   0  0  0  0  0  0  0  0  0  0  0  0
    7.1255   -1.6515   -0.4405 H   0  0  0  0  0  0  0  0  0  0  0  0
    6.0238    0.8378    0.9644 H   0  0  0  0  0  0  0  0  0  0  0  0
    6.1870   -0.7700    1.7066 H   0  0  0  0  0  0  0  0  0  0  0  0
    3.6296   -0.9763    2.0578 H   0  0  0  0  0  0  0  0  0  0  0  0
    3.4879    0.6671    1.5157 H   0  0  0  0  0  0  0  0  0  0  0  0
   -5.4772   -4.0276   -1.4376 H   0  0  0  0  0  0  0  0  0  0  0  0
   -6.8615   -3.1960   -0.7247 H   0  0  0  0  0  0  0  0  0  0  0  0
    8.7023   -0.7208    1.2818 H   0  0  0  0  0  0  0  0  0  0  0  0
    8.5740    0.8703    0.5282 H   0  0  0  0  0  0  0  0  0  0  0  0
   -6.5111   -4.4367    1.4213 H   0  0  0  0  0  0  0  0  0  0  0  0
   -5.1064   -5.2513    0.7294 H   0  0  0  0  0  0  0  0  0  0  0  0
    9.4864   -0.0601   -1.6092 H   0  0  0  0  0  0  0  0  0  0  0  0
    9.5901   -1.6623   -0.8762 H   0  0  0  0  0  0  0  0  0  0  0  0
    2.3344   -2.7012    1.2968 H   0  0  0  0  0  0  0  0  0  0  0  0
   -1.2548   -1.8318   -0.9399 H   0  0  0  0  0  0  0  0  0  0  0  0
   -0.2071    4.4663    1.0238 H   0  0  0  0  0  0  0  0  0  0  0  0
   -7.1066   -6.7012    0.6229 H   0  0  0  0  0  0  0  0  0  0  0  0
   -6.5616   -6.2983   -1.0143 H   0  0  0  0  0  0  0  0  0  0  0  0
   -7.9758   -5.4797   -0.3219 H   0  0  0  0  0  0  0  0  0  0  0  0
   11.1076    0.8208    0.0841 H   0  0  0  0  0  0  0  0  0  0  0  0
   11.2106   -0.7918    0.8180 H   0  0  0  0  0  0  0  0  0  0  0  0
   11.7887   -0.5314   -0.8366 H   0  0  0  0  0  0  0  0  0  0  0  0
   -2.0385    5.4390    1.7346 H   0  0  0  0  0  0  0  0  0  0  0  0
    0.3673   -5.5522    1.1651 H   0  0  0  0  0  0  0  0  0  0  0  0
    1.0009   -4.2426    2.1552 H   0  0  0  0  0  0  0  0  0  0  0  0
    1.8299   -4.7432    0.6145 H   0  0  0  0  0  0  0  0  0  0  0  0
   -5.9626    4.2692   -0.1914 H   0  0  0  0  0  0  0  0  0  0  0  0
  1 18  1  0  0  0  0
  1 23  1  0  0  0  0
  2 25  1  0  0  0  0
  2 30  1  0  0  0  0
  3 22  2  0  0  0  0
  4 24  2  0  0  0  0
  5 34  1  0  0  0  0
  5 38  1  0  0  0  0
  6 32  1  0  0  0  0
  6 68  1  0  0  0  0
  7 30  2  0  0  0  0
  8 37  1  0  0  0  0
  8 72  1  0  0  0  0
  9 37  2  0  0  0  0
 10 12  1  0  0  0  0
 10 18  1  0  0  0  0
 10 26  2  0  0  0  0
 11 13  1  0  0  0  0
 11 20  1  0  0  0  0
 11 39  1  0  0  0  0
 11 40  1  0  0  0  0
 12 22  1  0  0  0  0
 12 41  1  0  0  0  0
 12 42  1  0  0  0  0
 13 22  1  0  0  0  0
 13 43  1  0  0  0  0
 13 44  1  0  0  0  0
 14 16  1  0  0  0  0
 14 21  1  0  0  0  0
 14 45  1  0  0  0  0
 14 46  1  0  0  0  0
 15 17  1  0  0  0  0
 15 19  2  0  0  0  0
 15 29  1  0  0  0  0
 16 24  1  0  0  0  0
 16 47  1  0  0  0  0
 16 48  1  0  0  0  0
 17 24  1  0  0  0  0
 17 49  1  0  0  0  0
 17 50  1  0  0  0  0
 18 25  2  0  0  0  0
 19 23  1  0  0  0  0
 19 30  1  0  0  0  0
 20 27  1  0  0  0  0
 20 51  1  0  0  0  0
 20 52  1  0  0  0  0
 21 28  1  0  0  0  0
 21 53  1  0  0  0  0
 21 54  1  0  0  0  0
 23 31  2  0  0  0  0
 25 33  1  0  0  0  0
 26 32  1  0  0  0  0
 26 37  1  0  0  0  0
 27 35  1  0  0  0  0
 27 55  1  0  0  0  0
 27 56  1  0  0  0  0
 28 36  1  0  0  0  0
 28 57  1  0  0  0  0
 28 58  1  0  0  0  0
 29 34  2  0  0  0  0
 29 59  1  0  0  0  0
 31 34  1  0  0  0  0
 31 60  1  0  0  0  0
 32 33  2  0  0  0  0
 33 61  1  0  0  0  0
 35 62  1  0  0  0  0
 35 63  1  0  0  0  0
 35 64  1  0  0  0  0
 36 65  1  0  0  0  0
 36 66  1  0  0  0  0
 36 67  1  0  0  0  0
 38 69  1  0  0  0  0
 38 70  1  0  0  0  0
 38 71  1  0  0  0  0
M  END
> <PUBCHEM_COMPOUND_CID>
10650

> <PUBCHEM_CONFORMER_RMSD>
1.2

> <PUBCHEM_CONFORMER_DIVERSEORDER>
1
63
75
60
86
54
10
82
52
70
81
80
71
22
20
67
29
11
45
9
84
34
79
13
76
41
53
62
73
50
15
51
44
12
64
23
69
56
83
77
14
61
42
68
78
47
72
46
38
66
85
57
32
37
30
65
74
58
3
6
87
33
17
24
48
31
36
40
19
21
7
43
16
27
39
26
2
35
59
25
18
8
55
49
5
28
4

> <PUBCHEM_MMFF94_PARTIAL_CHARGES>
35
1 -0.17
10 -0.14
12 0.2
13 0.06
15 -0.14
16 0.06
17 0.2
18 0.08
19 0.09
2 -0.23
22 0.45
23 0.08
24 0.45
25 0.08
26 0.09
29 -0.15
3 -0.57
30 0.63
31 -0.15
32 0.08
33 -0.15
34 0.08
37 0.63
38 0.28
4 -0.57
5 -0.36
59 0.15
6 -0.53
60 0.15
61 0.15
68 0.45
7 -0.57
72 0.5
8 -0.65
9 -0.57

> <PUBCHEM_EFFECTIVE_ROTOR_COUNT>
14.4

> <PUBCHEM_PHARMACOPHORE_FEATURES>
16
1 1 acceptor
1 3 acceptor
1 35 hydrophobe
1 36 hydrophobe
1 4 acceptor
1 5 acceptor
1 6 donor
1 7 acceptor
1 8 acceptor
1 9 acceptor
3 8 9 37 anion
4 11 13 20 27 hydrophobe
4 14 16 21 28 hydrophobe
6 10 18 25 26 32 33 rings
6 15 19 23 29 31 34 rings
7 1 2 18 19 23 25 30 rings

> <PUBCHEM_HEAVY_ATOM_COUNT>
38

> <PUBCHEM_ATOM_DEF_STEREO_COUNT>
0

> <PUBCHEM_ATOM_UDEF_STEREO_COUNT>
0

> <PUBCHEM_BOND_DEF_STEREO_COUNT>
0

> <PUBCHEM_BOND_UDEF_STEREO_COUNT>
0

> <PUBCHEM_ISOTOPIC_ATOM_COUNT>
0

> <PUBCHEM_COMPONENT_COUNT>
1

> <PUBCHEM_CACTVS_TAUTO_COUNT>
110

> <PUBCHEM_CONFORMER_ID>
0000299A00000001

> <PUBCHEM_MMFF94_ENERGY>
117.6151

> <PUBCHEM_FEATURE_SELFOVERLAP>
81.278

> <PUBCHEM_SHAPE_FINGERPRINT>
10411042 1 18265896848562067799
11007060 377 18409448077609748984
11135926 11 18199755919476185116
12645989 146 18193838141516473119
13140716 1 18408045100398776969
13631057 29 18413394232524227863
14068700 675 18341612560555613207
14790565 3 18413386553682404652
14856354 85 18335423507954950757
15183329 4 15285649841426105612
15264996 163 18411710859586615087
16992610 120 18268977848416649252
18608769 82 18408603691096782872
20028762 73 18264770969724672479
21792965 184 18265031593093389099
22899556 105 18123737669638001012
2747138 104 18336272245432745802
3383291 50 18412830153838978994
4073 2 18264767834851304494
4616759 239 18042700553045977160
484989 97 18200319796984715479
5309563 4 18266744585186544891
6703917 75 18338225068773900144
9896288 288 18261673769811112937

> <PUBCHEM_SHAPE_MULTIPOLES>
729.2
21.29
7.02
1.02
57.38
2.41
-0.02
16.99
1.66
-19.45
-1.97
-0.11
-0.12
-0.86

> <PUBCHEM_SHAPE_SELFOVERLAP>
1540.965

> <PUBCHEM_SHAPE_VOLUME>
406.7

> <PUBCHEM_COORDINATE_TYPE>
2
5
10

$$$$

