6918615
  -OEChem-07051213072D

 31 31  0     0  0  0  0  0  0999 V2000
    2.0000   -0.3100    0.0000 F   0  0  0  0  0  0  0  0  0  0  0  0
    4.5000    0.5560    0.0000 O   0  0  0  0  0  0  0  0  0  0  0  0
    3.8660    1.1900    0.0000 O   0  0  0  0  0  0  0  0  0  0  0  0
    3.0000    2.6900    0.0000 O   0  0  0  0  0  0  0  0  0  0  0  0
    6.0000    1.4220    0.0000 O   0  0  0  0  0  0  0  0  0  0  0  0
    4.7320    2.6900    0.0000 N   0  0  0  0  0  0  0  0  0  0  0  0
    6.0000   -0.3100    0.0000 N   0  0  0  0  0  0  0  0  0  0  0  0
    3.0000   -0.3100    0.0000 C   0  0  0  0  0  0  0  0  0  0  0  0
    3.0000   -1.3100    0.0000 C   0  0  0  0  0  0  0  0  0  0  0  0
    3.0000    0.6900    0.0000 C   0  0  0  0  0  0  0  0  0  0  0  0
    4.0000   -0.3100    0.0000 C   0  0  0  0  0  0  0  0  0  0  0  0
    2.1340   -1.8100    0.0000 C   0  0  0  0  0  0  0  0  0  0  0  0
    3.8660   -1.8100    0.0000 C   0  0  0  0  0  0  0  0  0  0  0  0
    2.1340   -2.8100    0.0000 C   0  0  0  0  0  0  0  0  0  0  0  0
    3.8660   -2.8100    0.0000 C   0  0  0  0  0  0  0  0  0  0  0  0
    3.0000   -3.3100    0.0000 C   0  0  0  0  0  0  0  0  0  0  0  0
    3.8660    2.1900    0.0000 C   0  0  0  0  0  0  0  0  0  0  0  0
    5.5000    0.5560    0.0000 C   0  0  0  0  0  0  0  0  0  0  0  0
    2.7880    1.2726    0.0000 H   0  0  0  0  0  0  0  0  0  0  0  0
    2.3894    0.5823    0.0000 H   0  0  0  0  0  0  0  0  0  0  0  0
    3.8923   -0.9206    0.0000 H   0  0  0  0  0  0  0  0  0  0  0  0
    4.5826   -0.5221    0.0000 H   0  0  0  0  0  0  0  0  0  0  0  0
    1.5970   -1.5000    0.0000 H   0  0  0  0  0  0  0  0  0  0  0  0
    4.4030   -1.5000    0.0000 H   0  0  0  0  0  0  0  0  0  0  0  0
    1.5970   -3.1200    0.0000 H   0  0  0  0  0  0  0  0  0  0  0  0
    4.4030   -3.1200    0.0000 H   0  0  0  0  0  0  0  0  0  0  0  0
    3.0000   -3.9300    0.0000 H   0  0  0  0  0  0  0  0  0  0  0  0
    4.7320    3.3100    0.0000 H   0  0  0  0  0  0  0  0  0  0  0  0
    5.2690    2.3800    0.0000 H   0  0  0  0  0  0  0  0  0  0  0  0
    6.6200   -0.3100    0.0000 H   0  0  0  0  0  0  0  0  0  0  0  0
    5.6900   -0.8469    0.0000 H   0  0  0  0  0  0  0  0  0  0  0  0
  1  8  1  0  0  0  0
  2 11  1  0  0  0  0
  2 18  1  0  0  0  0
  3 10  1  0  0  0  0
  3 17  1  0  0  0  0
  4 17  2  0  0  0  0
  5 18  2  0  0  0  0
  6 17  1  0  0  0  0
  6 28  1  0  0  0  0
  6 29  1  0  0  0  0
  7 18  1  0  0  0  0
  7 30  1  0  0  0  0
  7 31  1  0  0  0  0
  8  9  1  0  0  0  0
  8 10  1  0  0  0  0
  8 11  1  0  0  0  0
  9 12  2  0  0  0  0
  9 13  1  0  0  0  0
 10 19  1  0  0  0  0
 10 20  1  0  0  0  0
 11 21  1  0  0  0  0
 11 22  1  0  0  0  0
 12 14  1  0  0  0  0
 12 23  1  0  0  0  0
 13 15  2  0  0  0  0
 13 24  1  0  0  0  0
 14 16  2  0  0  0  0
 14 25  1  0  0  0  0
 15 16  1  0  0  0  0
 15 26  1  0  0  0  0
 16 27  1  0  0  0  0
M  END
> <PUBCHEM_COMPOUND_CID>
6918615

> <PUBCHEM_COMPOUND_CANONICALIZED>
1

> <PUBCHEM_CACTVS_COMPLEXITY>
287

> <PUBCHEM_CACTVS_HBOND_ACCEPTOR>
5

> <PUBCHEM_CACTVS_HBOND_DONOR>
2

> <PUBCHEM_CACTVS_ROTATABLE_BOND>
7

> <PUBCHEM_CACTVS_SUBSKEYS>
AAADccBzOQAAAAAAAAAAAAAAAAAAAAAAAAAwAAAAAAAAAAABAAAAHwAQAAAADACgmAIwCIBABACIAiBCGAACAAAgAAAIiAAAAIkIICKAERCIIAAlwAEIiAeAwOAOgAAAAAAAAAAAAAAAAAAAAAAAAAAAAA==

> <PUBCHEM_IUPAC_OPENEYE_NAME>
(3-carbamoyloxy-2-fluoro-2-phenyl-propyl) carbamate

> <PUBCHEM_IUPAC_CAS_NAME>
carbamic acid (3-carbamoyloxy-2-fluoro-2-phenylpropyl) ester

> <PUBCHEM_IUPAC_NAME>
(3-carbamoyloxy-2-fluoro-2-phenylpropyl) carbamate

> <PUBCHEM_IUPAC_SYSTEMATIC_NAME>
(3-aminocarbonyloxy-2-fluoranyl-2-phenyl-propyl) carbamate

> <PUBCHEM_IUPAC_TRADITIONAL_NAME>
carbamic acid (3-carbamoyloxy-2-fluoro-2-phenyl-propyl) ester

> <PUBCHEM_IUPAC_INCHI>
InChI=1S/C11H13FN2O4/c12-11(6-17-9(13)15,7-18-10(14)16)8-4-2-1-3-5-8/h1-5H,6-7H2,(H2,13,15)(H2,14,16)

> <PUBCHEM_IUPAC_INCHIKEY>
ZCDHNOUTBZTCLP-UHFFFAOYSA-N

> <PUBCHEM_XLOGP3_AA>
0.6

> <PUBCHEM_EXACT_MASS>
256.085935

> <PUBCHEM_MOLECULAR_FORMULA>
C11H13FN2O4

> <PUBCHEM_MOLECULAR_WEIGHT>
256.230323

> <PUBCHEM_OPENEYE_CAN_SMILES>
C1=CC=C(C=C1)C(COC(=O)N)(COC(=O)N)F

> <PUBCHEM_OPENEYE_ISO_SMILES>
C1=CC=C(C=C1)C(COC(=O)N)(COC(=O)N)F

> <PUBCHEM_CACTVS_TPSA>
105

> <PUBCHEM_MONOISOTOPIC_WEIGHT>
256.085935

> <PUBCHEM_TOTAL_CHARGE>
0

> <PUBCHEM_HEAVY_ATOM_COUNT>
18

> <PUBCHEM_ATOM_DEF_STEREO_COUNT>
0

> <PUBCHEM_ATOM_UDEF_STEREO_COUNT>
0

> <PUBCHEM_BOND_DEF_STEREO_COUNT>
0

> <PUBCHEM_BOND_UDEF_STEREO_COUNT>
0

> <PUBCHEM_ISOTOPIC_ATOM_COUNT>
0

> <PUBCHEM_COMPONENT_COUNT>
1

> <PUBCHEM_CACTVS_TAUTO_COUNT>
3

> <PUBCHEM_COORDINATE_TYPE>
1
5
255

> <PUBCHEM_BONDANNOTATIONS>
12  14  8
13  15  8
14  16  8
15  16  8
9  12  8
9  13  8

$$$$

