104896
  -OEChem-07051213093D

 24 23  0     1  0  0  0  0  0999 V2000
    0.6156    2.3666    0.5746 O   0  0  0  0  0  0  0  0  0  0  0  0
    0.1259    1.2613   -1.3443 O   0  0  0  0  0  0  0  0  0  0  0  0
   -0.0135    0.0637    0.7799 C   0  0  1  0  0  0  0  0  0  0  0  0
   -1.1626   -0.7937    0.2098 C   0  0  0  0  0  0  0  0  0  0  0  0
   -2.5245   -0.0992    0.1167 C   0  0  0  0  0  0  0  0  0  0  0  0
    1.3038   -0.6957    1.0276 C   0  0  0  0  0  0  0  0  0  0  0  0
    0.2372    1.2652   -0.1252 C   0  0  0  0  0  0  0  0  0  0  0  0
   -3.6351   -1.0010   -0.3985 C   0  0  0  0  0  0  0  0  0  0  0  0
    1.9078   -1.3138   -0.2022 C   0  0  0  0  0  0  0  0  0  0  0  0
    3.1454   -1.0534   -0.6385 C   0  0  0  0  0  0  0  0  0  0  0  0
   -0.3605    0.4552    1.7462 H   0  0  0  0  0  0  0  0  0  0  0  0
   -0.8985   -1.1558   -0.7917 H   0  0  0  0  0  0  0  0  0  0  0  0
   -1.2721   -1.6852    0.8410 H   0  0  0  0  0  0  0  0  0  0  0  0
   -2.8063    0.2734    1.1088 H   0  0  0  0  0  0  0  0  0  0  0  0
   -2.4559    0.7746   -0.5408 H   0  0  0  0  0  0  0  0  0  0  0  0
    2.0249   -0.0150    1.4985 H   0  0  0  0  0  0  0  0  0  0  0  0
    1.1171   -1.4983    1.7519 H   0  0  0  0  0  0  0  0  0  0  0  0
   -4.5820   -0.4536   -0.4394 H   0  0  0  0  0  0  0  0  0  0  0  0
   -3.7700   -1.8673    0.2568 H   0  0  0  0  0  0  0  0  0  0  0  0
   -3.4068   -1.3641   -1.4055 H   0  0  0  0  0  0  0  0  0  0  0  0
    1.3129   -2.0413   -0.7474 H   0  0  0  0  0  0  0  0  0  0  0  0
    0.7800    3.1343   -0.0134 H   0  0  0  0  0  0  0  0  0  0  0  0
    3.5302   -1.5459   -1.5248 H   0  0  0  0  0  0  0  0  0  0  0  0
    3.7917   -0.3495   -0.1260 H   0  0  0  0  0  0  0  0  0  0  0  0
  1  7  1  0  0  0  0
  1 22  1  0  0  0  0
  2  7  2  0  0  0  0
  3  4  1  0  0  0  0
  3  6  1  0  0  0  0
  3  7  1  0  0  0  0
  3 11  1  0  0  0  0
  4  5  1  0  0  0  0
  4 12  1  0  0  0  0
  4 13  1  0  0  0  0
  5  8  1  0  0  0  0
  5 14  1  0  0  0  0
  5 15  1  0  0  0  0
  6  9  1  0  0  0  0
  6 16  1  0  0  0  0
  6 17  1  0  0  0  0
  8 18  1  0  0  0  0
  8 19  1  0  0  0  0
  8 20  1  0  0  0  0
  9 10  2  0  0  0  0
  9 21  1  0  0  0  0
 10 23  1  0  0  0  0
 10 24  1  0  0  0  0
M  END
> <PUBCHEM_COMPOUND_CID>
104896

> <PUBCHEM_CONFORMER_RMSD>
0.6

> <PUBCHEM_CONFORMER_DIVERSEORDER>
1
38
55
57
31
25
50
43
29
52
44
2
47
56
42
3
63
41
62
46
39
13
59
58
30
6
48
10
61
24
54
45
21
51
7
20
22
4
37
9
53
19
34
60
5
28
33
14
36
32
27
12
23
40
18
35
49
16
8
17
11
26
15

> <PUBCHEM_MMFF94_PARTIAL_CHARGES>
11
1 -0.65
10 -0.3
2 -0.57
21 0.15
22 0.5
23 0.15
24 0.15
3 0.06
6 0.14
7 0.66
9 -0.29

> <PUBCHEM_EFFECTIVE_ROTOR_COUNT>
5

> <PUBCHEM_PHARMACOPHORE_FEATURES>
6
1 1 acceptor
1 10 hydrophobe
1 2 acceptor
1 8 hydrophobe
3 1 2 7 anion
5 3 4 5 6 9 hydrophobe

> <PUBCHEM_HEAVY_ATOM_COUNT>
10

> <PUBCHEM_ATOM_DEF_STEREO_COUNT>
0

> <PUBCHEM_ATOM_UDEF_STEREO_COUNT>
1

> <PUBCHEM_BOND_DEF_STEREO_COUNT>
0

> <PUBCHEM_BOND_UDEF_STEREO_COUNT>
0

> <PUBCHEM_ISOTOPIC_ATOM_COUNT>
0

> <PUBCHEM_COMPONENT_COUNT>
1

> <PUBCHEM_CACTVS_TAUTO_COUNT>
1

> <PUBCHEM_CONFORMER_ID>
000199C000000001

> <PUBCHEM_MMFF94_ENERGY>
7.5887

> <PUBCHEM_FEATURE_SELFOVERLAP>
30.505

> <PUBCHEM_SHAPE_FINGERPRINT>
12423570 1 5465521423805310841
12897270 3 18271516615431427734
12932764 1 17560816398678294947
14120999 15 17560507495317498940
14128692 85 18408317778933571715
14390081 3 11023830591377740979
161256 15 18271254845405845157
18410436 195 18334018297718830313
20645477 70 18193006932975703399
20653085 51 13326270620445443990
20708731 107 18270393863619302263
20711978 78 18191607275509668245
20711985 344 18123752225165907746
20820808 20 16630520726406664382
21293036 1 17988638597105746727
228727 97 17916009334694634226
7364860 26 18116998784446190665

> <PUBCHEM_SHAPE_MULTIPOLES>
194.06
4.47
1.83
1.01
2.26
1.14
0.05
-2.94
1.04
-0.51
0.06
-0.25
0.1
0.06

> <PUBCHEM_SHAPE_SELFOVERLAP>
358.201

> <PUBCHEM_SHAPE_VOLUME>
122

> <PUBCHEM_COORDINATE_TYPE>
2
5
10

$$$$

