18772468
  -OEChem-07051213122D

 37 39  0     0  0  0  0  0  0999 V2000
    8.9030   -0.0908    0.0000 Cl  0  0  0  0  0  0  0  0  0  0  0  0
    5.2619   -2.6710    0.0000 S   0  0  0  0  0  0  0  0  0  0  0  0
    7.5673    1.3978    0.0000 S   0  0  0  0  0  0  0  0  0  0  0  0
    6.3246   -2.4043    0.0000 F   0  0  0  0  0  0  0  0  0  0  0  0
    4.9889   -4.4262    0.0000 O   0  0  0  0  0  0  0  0  0  0  0  0
    6.5422    3.8369    0.0000 O   0  0  0  0  0  0  0  0  0  0  0  0
    8.1886    3.2988    0.0000 O   0  0  0  0  0  0  0  0  0  0  0  0
    3.7320   -2.1710    0.0000 N   0  0  0  0  0  0  0  0  0  0  0  0
    3.7320   -3.1710    0.0000 N   0  0  0  0  0  0  0  0  0  0  0  0
    4.9889   -0.9157    0.0000 N   0  0  0  0  0  0  0  0  0  0  0  0
    2.0000   -2.1710    0.0000 C   0  0  0  0  0  0  0  0  0  0  0  0
    2.0000   -3.1710    0.0000 C   0  0  0  0  0  0  0  0  0  0  0  0
    2.8660   -1.6710    0.0000 C   0  0  0  0  0  0  0  0  0  0  0  0
    2.8660   -3.6710    0.0000 C   0  0  0  0  0  0  0  0  0  0  0  0
    4.6783   -1.8662    0.0000 C   0  0  0  0  0  0  0  0  0  0  0  0
    4.6783   -3.4757    0.0000 C   0  0  0  0  0  0  0  0  0  0  0  0
    5.9674   -0.7095    0.0000 C   0  0  0  0  0  0  0  0  0  0  0  0
    6.2781    0.2410    0.0000 C   0  0  0  0  0  0  0  0  0  0  0  0
    6.6353   -1.4538    0.0000 C   0  0  0  0  0  0  0  0  0  0  0  0
    7.2566    0.4472    0.0000 C   0  0  0  0  0  0  0  0  0  0  0  0
    7.6138   -1.2476    0.0000 C   0  0  0  0  0  0  0  0  0  0  0  0
    7.9244   -0.2971    0.0000 C   0  0  0  0  0  0  0  0  0  0  0  0
    6.8994    2.1421    0.0000 C   0  0  0  0  0  0  0  0  0  0  0  0
    7.2101    3.0926    0.0000 C   0  0  0  0  0  0  0  0  0  0  0  0
    1.7880   -1.5884    0.0000 H   0  0  0  0  0  0  0  0  0  0  0  0
    1.3894   -2.2786    0.0000 H   0  0  0  0  0  0  0  0  0  0  0  0
    1.3894   -3.0633    0.0000 H   0  0  0  0  0  0  0  0  0  0  0  0
    1.7880   -3.7536    0.0000 H   0  0  0  0  0  0  0  0  0  0  0  0
    3.2646   -1.1960    0.0000 H   0  0  0  0  0  0  0  0  0  0  0  0
    2.4675   -1.1960    0.0000 H   0  0  0  0  0  0  0  0  0  0  0  0
    2.4675   -4.1459    0.0000 H   0  0  0  0  0  0  0  0  0  0  0  0
    3.2646   -4.1459    0.0000 H   0  0  0  0  0  0  0  0  0  0  0  0
    5.8640    0.7025    0.0000 H   0  0  0  0  0  0  0  0  0  0  0  0
    8.0279   -1.7090    0.0000 H   0  0  0  0  0  0  0  0  0  0  0  0
    6.3525    2.4341    0.0000 H   0  0  0  0  0  0  0  0  0  0  0  0
    6.5169    1.6542    0.0000 H   0  0  0  0  0  0  0  0  0  0  0  0
    6.7349    4.4262    0.0000 H   0  0  0  0  0  0  0  0  0  0  0  0
  1 22  1  0  0  0  0
  2 15  1  0  0  0  0
  2 16  1  0  0  0  0
  3 20  1  0  0  0  0
  3 23  1  0  0  0  0
  4 19  1  0  0  0  0
  5 16  2  0  0  0  0
  6 24  1  0  0  0  0
  6 37  1  0  0  0  0
  7 24  2  0  0  0  0
  8  9  1  0  0  0  0
  8 13  1  0  0  0  0
  8 15  1  0  0  0  0
  9 14  1  0  0  0  0
  9 16  1  0  0  0  0
 10 15  2  0  0  0  0
 10 17  1  0  0  0  0
 11 12  1  0  0  0  0
 11 13  1  0  0  0  0
 11 25  1  0  0  0  0
 11 26  1  0  0  0  0
 12 14  1  0  0  0  0
 12 27  1  0  0  0  0
 12 28  1  0  0  0  0
 13 29  1  0  0  0  0
 13 30  1  0  0  0  0
 14 31  1  0  0  0  0
 14 32  1  0  0  0  0
 17 18  2  0  0  0  0
 17 19  1  0  0  0  0
 18 20  1  0  0  0  0
 18 33  1  0  0  0  0
 19 21  2  0  0  0  0
 20 22  2  0  0  0  0
 21 22  1  0  0  0  0
 21 34  1  0  0  0  0
 23 24  1  0  0  0  0
 23 35  1  0  0  0  0
 23 36  1  0  0  0  0
M  END
> <PUBCHEM_COMPOUND_CID>
18772468

> <PUBCHEM_COMPOUND_CANONICALIZED>
1

> <PUBCHEM_CACTVS_COMPLEXITY>
553

> <PUBCHEM_CACTVS_HBOND_ACCEPTOR>
7

> <PUBCHEM_CACTVS_HBOND_DONOR>
1

> <PUBCHEM_CACTVS_ROTATABLE_BOND>
4

> <PUBCHEM_CACTVS_SUBSKEYS>
AAADccBzMQBkAAAAAAAAAAAAAAAAAWAAAAA8QAAAAAAAAFgBAAAAHwYICAAACArF0CyxyYIAAgioACTSfACCEAFgDxATiBgIZogIICKhmpGEIARghgAoyAcQAAAAAABAACAAAIAAAIAAQAABAAAAAAAAAA==

> <PUBCHEM_IUPAC_OPENEYE_NAME>
2-[2-chloro-4-fluoro-5-[(3-oxo-5,6,7,8-tetrahydro-[1,3,4]thiadiazolo[3,4-a]pyridazin-1-ylidene)amino]phenyl]sulfanylacetic acid

> <PUBCHEM_IUPAC_CAS_NAME>
2-[[2-chloro-4-fluoro-5-[(3-oxo-5,6,7,8-tetrahydro-[1,3,4]thiadiazolo[3,4-a]pyridazin-1-ylidene)amino]phenyl]thio]acetic acid

> <PUBCHEM_IUPAC_NAME>
2-[2-chloro-4-fluoro-5-[(3-oxo-5,6,7,8-tetrahydro-[1,3,4]thiadiazolo[3,4-a]pyridazin-1-ylidene)amino]phenyl]sulfanylacetic acid

> <PUBCHEM_IUPAC_SYSTEMATIC_NAME>
2-[2-chloranyl-4-fluoranyl-5-[(3-oxidanylidene-5,6,7,8-tetrahydro-[1,3,4]thiadiazolo[3,4-a]pyridazin-1-ylidene)amino]phenyl]sulfanylethanoic acid

> <PUBCHEM_IUPAC_TRADITIONAL_NAME>
2-[[2-chloro-4-fluoro-5-[(3-keto-5,6,7,8-tetrahydro-[1,3,4]thiadiazolo[3,4-a]pyridazin-1-ylidene)amino]phenyl]thio]acetic acid

> <PUBCHEM_IUPAC_INCHI>
InChI=1S/C14H13ClFN3O3S2/c15-8-5-9(16)10(6-11(8)23-7-12(20)21)17-13-18-3-1-2-4-19(18)14(22)24-13/h5-6H,1-4,7H2,(H,20,21)

> <PUBCHEM_IUPAC_INCHIKEY>
XWROTTLWMHCFEC-UHFFFAOYSA-N

> <PUBCHEM_XLOGP3_AA>
3.6

> <PUBCHEM_EXACT_MASS>
389.007089

> <PUBCHEM_MOLECULAR_FORMULA>
C14H13ClFN3O3S2

> <PUBCHEM_MOLECULAR_WEIGHT>
389.852723

> <PUBCHEM_OPENEYE_CAN_SMILES>
C1CCN2C(=O)SC(=NC3=CC(=C(C=C3F)Cl)SCC(=O)O)N2C1

> <PUBCHEM_OPENEYE_ISO_SMILES>
C1CCN2C(=O)SC(=NC3=CC(=C(C=C3F)Cl)SCC(=O)O)N2C1

> <PUBCHEM_CACTVS_TPSA>
124

> <PUBCHEM_MONOISOTOPIC_WEIGHT>
389.007089

> <PUBCHEM_TOTAL_CHARGE>
0

> <PUBCHEM_HEAVY_ATOM_COUNT>
24

> <PUBCHEM_ATOM_DEF_STEREO_COUNT>
0

> <PUBCHEM_ATOM_UDEF_STEREO_COUNT>
0

> <PUBCHEM_BOND_DEF_STEREO_COUNT>
0

> <PUBCHEM_BOND_UDEF_STEREO_COUNT>
0

> <PUBCHEM_ISOTOPIC_ATOM_COUNT>
0

> <PUBCHEM_COMPONENT_COUNT>
1

> <PUBCHEM_CACTVS_TAUTO_COUNT>
1

> <PUBCHEM_COORDINATE_TYPE>
1
5
255

> <PUBCHEM_BONDANNOTATIONS>
17  18  8
17  19  8
18  20  8
19  21  8
2  15  8
2  16  8
20  22  8
21  22  8
8  15  8
8  9  8
9  16  8

$$$$

