156777
  -OEChem-07051212593D

 44 47  0     1  0  0  0  0  0999 V2000
    0.4249   -1.6083   -0.1312 O   0  0  0  0  0  0  0  0  0  0  0  0
    4.6461    0.7065    0.1635 O   0  0  0  0  0  0  0  0  0  0  0  0
   -1.5202    1.9798   -0.4705 O   0  0  0  0  0  0  0  0  0  0  0  0
    0.7090    3.2343   -0.1988 O   0  0  0  0  0  0  0  0  0  0  0  0
   -3.8400   -0.9366   -2.2979 O   0  0  0  0  0  0  0  0  0  0  0  0
   -7.1207   -0.1041    1.0571 O   0  0  0  0  0  0  0  0  0  0  0  0
   -1.6783   -0.4347   -0.4804 C   0  0  2  0  0  0  0  0  0  0  0  0
    5.3896   -0.5285    0.1941 C   0  0  0  0  0  0  0  0  0  0  0  0
    1.1345   -0.4318   -0.0879 C   0  0  0  0  0  0  0  0  0  0  0  0
    0.5087    0.8199   -0.1756 C   0  0  0  0  0  0  0  0  0  0  0  0
   -0.9161   -1.4675    0.3462 C   0  0  0  0  0  0  0  0  0  0  0  0
    2.5353   -0.5129    0.0116 C   0  0  0  0  0  0  0  0  0  0  0  0
   -0.9588    0.8953   -0.3614 C   0  0  0  0  0  0  0  0  0  0  0  0
    3.2839    0.6686    0.0553 C   0  0  0  0  0  0  0  0  0  0  0  0
   -3.1365   -0.3497   -0.0829 C   0  0  0  0  0  0  0  0  0  0  0  0
    4.5653   -1.7909    0.1674 C   0  0  0  0  0  0  0  0  0  0  0  0
    1.2642    1.9922   -0.1274 C   0  0  0  0  0  0  0  0  0  0  0  0
    3.2334   -1.7905    0.0842 C   0  0  0  0  0  0  0  0  0  0  0  0
    2.6497    1.9130   -0.0075 C   0  0  0  0  0  0  0  0  0  0  0  0
    6.2220   -0.4960    1.4813 C   0  0  0  0  0  0  0  0  0  0  0  0
    6.3213   -0.5051   -1.0235 C   0  0  0  0  0  0  0  0  0  0  0  0
   -4.1453   -0.6048   -1.0122 C   0  0  0  0  0  0  0  0  0  0  0  0
   -3.4674   -0.0121    1.2298 C   0  0  0  0  0  0  0  0  0  0  0  0
   -5.4840   -0.5224   -0.6292 C   0  0  0  0  0  0  0  0  0  0  0  0
   -4.8060    0.0704    1.6127 C   0  0  0  0  0  0  0  0  0  0  0  0
   -5.8145   -0.1846    0.6832 C   0  0  0  0  0  0  0  0  0  0  0  0
   -1.5832   -0.7087   -1.5394 H   0  0  0  0  0  0  0  0  0  0  0  0
   -0.8854   -1.2276    1.4174 H   0  0  0  0  0  0  0  0  0  0  0  0
   -1.3928   -2.4507    0.2552 H   0  0  0  0  0  0  0  0  0  0  0  0
    5.0861   -2.7441    0.2163 H   0  0  0  0  0  0  0  0  0  0  0  0
    2.6795   -2.7212    0.0672 H   0  0  0  0  0  0  0  0  0  0  0  0
    3.2504    2.8195    0.0305 H   0  0  0  0  0  0  0  0  0  0  0  0
    6.8815   -1.3667    1.5667 H   0  0  0  0  0  0  0  0  0  0  0  0
    6.8397    0.4089    1.5243 H   0  0  0  0  0  0  0  0  0  0  0  0
    5.5732   -0.4678    2.3651 H   0  0  0  0  0  0  0  0  0  0  0  0
    6.9413    0.3992   -1.0235 H   0  0  0  0  0  0  0  0  0  0  0  0
    6.9844   -1.3768   -1.0503 H   0  0  0  0  0  0  0  0  0  0  0  0
    5.7446   -0.4826   -1.9561 H   0  0  0  0  0  0  0  0  0  0  0  0
   -2.6983    0.1987    1.9679 H   0  0  0  0  0  0  0  0  0  0  0  0
   -6.2709   -0.7211   -1.3528 H   0  0  0  0  0  0  0  0  0  0  0  0
   -5.0573    0.3357    2.6360 H   0  0  0  0  0  0  0  0  0  0  0  0
    1.4088    3.9076   -0.1485 H   0  0  0  0  0  0  0  0  0  0  0  0
   -4.6643   -1.0767   -2.7947 H   0  0  0  0  0  0  0  0  0  0  0  0
   -7.6818   -0.3111    0.2901 H   0  0  0  0  0  0  0  0  0  0  0  0
  1  9  1  0  0  0  0
  1 11  1  0  0  0  0
  2  8  1  0  0  0  0
  2 14  1  0  0  0  0
  3 13  2  0  0  0  0
  4 17  1  0  0  0  0
  4 42  1  0  0  0  0
  5 22  1  0  0  0  0
  5 43  1  0  0  0  0
  6 26  1  0  0  0  0
  6 44  1  0  0  0  0
  7 11  1  0  0  0  0
  7 13  1  0  0  0  0
  7 15  1  0  0  0  0
  7 27  1  0  0  0  0
  8 16  1  0  0  0  0
  8 20  1  0  0  0  0
  8 21  1  0  0  0  0
  9 10  2  0  0  0  0
  9 12  1  0  0  0  0
 10 13  1  0  0  0  0
 10 17  1  0  0  0  0
 11 28  1  0  0  0  0
 11 29  1  0  0  0  0
 12 14  2  0  0  0  0
 12 18  1  0  0  0  0
 14 19  1  0  0  0  0
 15 22  2  0  0  0  0
 15 23  1  0  0  0  0
 16 18  2  0  0  0  0
 16 30  1  0  0  0  0
 17 19  2  0  0  0  0
 18 31  1  0  0  0  0
 19 32  1  0  0  0  0
 20 33  1  0  0  0  0
 20 34  1  0  0  0  0
 20 35  1  0  0  0  0
 21 36  1  0  0  0  0
 21 37  1  0  0  0  0
 21 38  1  0  0  0  0
 22 24  1  0  0  0  0
 23 25  2  0  0  0  0
 23 39  1  0  0  0  0
 24 26  2  0  0  0  0
 24 40  1  0  0  0  0
 25 26  1  0  0  0  0
 25 41  1  0  0  0  0
M  END
> <PUBCHEM_COMPOUND_CID>
156777

> <PUBCHEM_CONFORMER_RMSD>
0.6

> <PUBCHEM_CONFORMER_DIVERSEORDER>
1
9
6
14
15
3
11
4
10
12
2
13
5
8
7

> <PUBCHEM_MMFF94_PARTIAL_CHARGES>
33
1 -0.36
10 0.09
11 0.28
12 0.03
13 0.42
14 0.08
15 -0.14
16 -0.29
17 0.08
18 -0.18
19 -0.15
2 -0.36
22 0.08
23 -0.15
24 -0.15
25 -0.15
26 0.08
3 -0.57
30 0.15
31 0.15
32 0.15
39 0.15
4 -0.53
40 0.15
41 0.15
42 0.45
43 0.45
44 0.45
5 -0.53
6 -0.53
7 0.2
8 0.42
9 0.08

> <PUBCHEM_EFFECTIVE_ROTOR_COUNT>
2

> <PUBCHEM_PHARMACOPHORE_FEATURES>
11
1 1 acceptor
1 2 acceptor
1 3 acceptor
1 4 donor
1 5 donor
1 6 donor
3 8 20 21 hydrophobe
6 1 7 9 10 11 13 rings
6 15 22 23 24 25 26 rings
6 2 8 12 14 16 18 rings
6 9 10 12 14 17 19 rings

> <PUBCHEM_HEAVY_ATOM_COUNT>
26

> <PUBCHEM_ATOM_DEF_STEREO_COUNT>
0

> <PUBCHEM_ATOM_UDEF_STEREO_COUNT>
1

> <PUBCHEM_BOND_DEF_STEREO_COUNT>
0

> <PUBCHEM_BOND_UDEF_STEREO_COUNT>
0

> <PUBCHEM_ISOTOPIC_ATOM_COUNT>
0

> <PUBCHEM_COMPONENT_COUNT>
1

> <PUBCHEM_CACTVS_TAUTO_COUNT>
106

> <PUBCHEM_CONFORMER_ID>
0002646900000001

> <PUBCHEM_MMFF94_ENERGY>
84.1591

> <PUBCHEM_FEATURE_SELFOVERLAP>
55.876

> <PUBCHEM_SHAPE_FINGERPRINT>
10 15 18130231467818058952
10673678 19 16629093501054623630
10688039 33 18060137673691611228
10906281 52 18337375081449780014
11045977 3 17988353781161269675
11578080 2 13972526073499677804
11646440 116 18409728461063197864
11796584 16 16630531751703843026
12166972 35 18186801349013594617
12236239 1 17894348852569103479
12403259 415 17775293742135153661
12516196 113 18410293618418727760
12553582 1 18411989065644306798
12596602 18 16660369160345464170
12616971 3 18260830358894313221
12788726 201 18201161057029976008
13140716 1 18268145357723844786
13590594 115 18409729577729171689
13685833 64 18201716254240224155
13782708 43 17418092075383826235
13862211 1 18412552015650573042
14739800 52 16734400287281733064
14840074 17 18333732424706333934
14849402 71 17823143324430440744
15142383 8 18342176717363585845
15183329 4 18409452487602099903
15196674 1 18339928237675216668
15461852 350 16153434956984228149
15527383 91 18407757036472131833
15788980 27 17988927755979150327
15927050 60 17761205523876852732
17349148 13 18187082832300424019
17492 89 17982737673499232770
17844677 252 16343701036595150053
17980427 23 17023190392372149173
17980427 26 17463430321180705164
1813 80 18336814381510576612
19141452 34 18187086122155923190
19319366 153 17989488520375240002
19489759 90 15698001855579763175
200 152 18334582347326115693
20028762 73 18187650171695345255
20511986 3 17822304482651032057
21033648 144 18265626389522142749
21033648 29 17775021058930299589
21033650 10 16517058827254241528
21236236 1 18340487880346123157
21267235 1 18412259576023262862
21279426 13 18057328494565314935
21344244 181 12823014266009444808
21623969 137 18201714063517227202
21641784 216 17988346179164446164
21792934 111 18339937012251477608
21792961 116 17846782949303038886
23402539 116 18334582351410086535
23522609 53 18192682666675703188
23536379 177 16443343187109714614
23559900 14 18269559347337159568
23569943 247 17971745825243718174
24771293 8 18115320964790378608
25147074 1 18041843887806983125
3004659 81 18131912663882765516
314194 84 18412267250497051978
3178227 256 18201429281884878915
335352 9 18411698764108909103
3411729 13 16226907519028068664
345986 75 18261964071109200082
34797466 226 15357696349319843594
350125 39 18411697711810759932
4093350 32 17023178294082227172
4340502 62 16630528436474588362
46194498 28 17060336297552279100
465052 167 18201715141801587410
5104073 3 18265618680198336426
7495541 125 17418085490649957910
8863177 126 17774146887014607835

> <PUBCHEM_SHAPE_MULTIPOLES>
499.85
15.47
1.97
1.2
3.33
1.27
0.06
-4.64
-2.89
-1.57
0.18
1.13
-0.24
-0.46

> <PUBCHEM_SHAPE_SELFOVERLAP>
1116.769

> <PUBCHEM_SHAPE_VOLUME>
263.8

> <PUBCHEM_COORDINATE_TYPE>
2
5
10

$$$$

