196979
  -OEChem-07051212593D

 50 53  0     1  0  0  0  0  0999 V2000
    3.2988   -1.1303   -0.6297 O   0  0  0  0  0  0  0  0  0  0  0  0
    2.6215    0.9227    0.3490 O   0  0  0  0  0  0  0  0  0  0  0  0
    6.9255    0.8038   -0.0748 O   0  0  0  0  0  0  0  0  0  0  0  0
    6.2722   -1.4695    1.5226 O   0  0  0  0  0  0  0  0  0  0  0  0
    5.1650    0.3988   -2.1917 O   0  0  0  0  0  0  0  0  0  0  0  0
   -1.1968    3.7267    0.3384 O   0  0  0  0  0  0  0  0  0  0  0  0
   -1.2682   -2.2657   -0.0171 O   0  0  0  0  0  0  0  0  0  0  0  0
   -3.4871    2.5923    0.1682 O   0  0  0  0  0  0  0  0  0  0  0  0
   -5.8487    1.6149    0.0011 O   0  0  0  0  0  0  0  0  0  0  0  0
    5.5851    0.3989    0.1945 C   0  0  2  0  0  0  0  0  0  0  0  0
    5.5400   -1.1216    0.3500 C   0  0  2  0  0  0  0  0  0  0  0  0
    4.6645    0.8612   -0.9362 C   0  0  2  0  0  0  0  0  0  0  0  0
    4.0853   -1.5964    0.4713 C   0  0  2  0  0  0  0  0  0  0  0  0
    3.2568    0.2949   -0.7594 C   0  0  1  0  0  0  0  0  0  0  0  0
    3.9797   -3.1189    0.4817 C   0  0  0  0  0  0  0  0  0  0  0  0
    1.2676    1.0540    0.2940 C   0  0  0  0  0  0  0  0  0  0  0  0
   -0.9309    0.0541    0.1344 C   0  0  0  0  0  0  0  0  0  0  0  0
    0.4616   -0.0800    0.1899 C   0  0  0  0  0  0  0  0  0  0  0  0
   -1.5108    1.3235    0.1832 C   0  0  0  0  0  0  0  0  0  0  0  0
    0.6888    2.3207    0.3428 C   0  0  0  0  0  0  0  0  0  0  0  0
   -0.6983    2.4588    0.2878 C   0  0  0  0  0  0  0  0  0  0  0  0
   -3.2442   -0.9961   -0.0342 C   0  0  0  0  0  0  0  0  0  0  0  0
   -3.8241    0.2733    0.0145 C   0  0  0  0  0  0  0  0  0  0  0  0
   -1.7765   -1.1522    0.0245 C   0  0  0  0  0  0  0  0  0  0  0  0
   -2.9786    1.4795    0.1253 C   0  0  0  0  0  0  0  0  0  0  0  0
   -4.0567   -2.1315   -0.1393 C   0  0  0  0  0  0  0  0  0  0  0  0
   -5.2166    0.4075   -0.0422 C   0  0  0  0  0  0  0  0  0  0  0  0
   -5.4438   -1.9933   -0.1953 C   0  0  0  0  0  0  0  0  0  0  0  0
   -6.0225   -0.7265   -0.1468 C   0  0  0  0  0  0  0  0  0  0  0  0
   -6.3086   -3.2034   -0.3065 C   0  0  0  0  0  0  0  0  0  0  0  0
    5.2904    0.8804    1.1353 H   0  0  0  0  0  0  0  0  0  0  0  0
    6.0396   -1.5903   -0.5070 H   0  0  0  0  0  0  0  0  0  0  0  0
    4.6544    1.9566   -0.9694 H   0  0  0  0  0  0  0  0  0  0  0  0
    3.6442   -1.2314    1.4079 H   0  0  0  0  0  0  0  0  0  0  0  0
    2.6870    0.5006   -1.6758 H   0  0  0  0  0  0  0  0  0  0  0  0
    2.9282   -3.4260    0.5078 H   0  0  0  0  0  0  0  0  0  0  0  0
    4.4082   -3.5464   -0.4315 H   0  0  0  0  0  0  0  0  0  0  0  0
    4.4858   -3.5569    1.3465 H   0  0  0  0  0  0  0  0  0  0  0  0
    7.4809    0.4737    0.6522 H   0  0  0  0  0  0  0  0  0  0  0  0
    6.3814   -2.4351    1.5284 H   0  0  0  0  0  0  0  0  0  0  0  0
    4.5900    0.7589   -2.8882 H   0  0  0  0  0  0  0  0  0  0  0  0
    0.9123   -1.0676    0.1720 H   0  0  0  0  0  0  0  0  0  0  0  0
    1.3302    3.1952    0.4235 H   0  0  0  0  0  0  0  0  0  0  0  0
   -3.6180   -3.1257   -0.1760 H   0  0  0  0  0  0  0  0  0  0  0  0
   -7.1038   -0.6171   -0.1883 H   0  0  0  0  0  0  0  0  0  0  0  0
   -0.4652    4.3634    0.4095 H   0  0  0  0  0  0  0  0  0  0  0  0
   -7.2499   -2.9733   -0.8173 H   0  0  0  0  0  0  0  0  0  0  0  0
   -5.8137   -3.9892   -0.8874 H   0  0  0  0  0  0  0  0  0  0  0  0
   -6.5379   -3.5940    0.6899 H   0  0  0  0  0  0  0  0  0  0  0  0
   -5.2074    2.3371    0.0744 H   0  0  0  0  0  0  0  0  0  0  0  0
  1 13  1  0  0  0  0
  1 14  1  0  0  0  0
  2 14  1  0  0  0  0
  2 16  1  0  0  0  0
  3 10  1  0  0  0  0
  3 39  1  0  0  0  0
  4 11  1  0  0  0  0
  4 40  1  0  0  0  0
  5 12  1  0  0  0  0
  5 41  1  0  0  0  0
  6 21  1  0  0  0  0
  6 46  1  0  0  0  0
  7 24  2  0  0  0  0
  8 25  2  0  0  0  0
  9 27  1  0  0  0  0
  9 50  1  0  0  0  0
 10 11  1  0  0  0  0
 10 12  1  0  0  0  0
 10 31  1  0  0  0  0
 11 13  1  0  0  0  0
 11 32  1  0  0  0  0
 12 14  1  0  0  0  0
 12 33  1  0  0  0  0
 13 15  1  0  0  0  0
 13 34  1  0  0  0  0
 14 35  1  0  0  0  0
 15 36  1  0  0  0  0
 15 37  1  0  0  0  0
 15 38  1  0  0  0  0
 16 18  2  0  0  0  0
 16 20  1  0  0  0  0
 17 18  1  0  0  0  0
 17 19  2  0  0  0  0
 17 24  1  0  0  0  0
 18 42  1  0  0  0  0
 19 21  1  0  0  0  0
 19 25  1  0  0  0  0
 20 21  2  0  0  0  0
 20 43  1  0  0  0  0
 22 23  2  0  0  0  0
 22 24  1  0  0  0  0
 22 26  1  0  0  0  0
 23 25  1  0  0  0  0
 23 27  1  0  0  0  0
 26 28  2  0  0  0  0
 26 44  1  0  0  0  0
 27 29  2  0  0  0  0
 28 29  1  0  0  0  0
 28 30  1  0  0  0  0
 29 45  1  0  0  0  0
 30 47  1  0  0  0  0
 30 48  1  0  0  0  0
 30 49  1  0  0  0  0
M  END
> <PUBCHEM_COMPOUND_CID>
196979

> <PUBCHEM_CONFORMER_RMSD>
0.8

> <PUBCHEM_CONFORMER_DIVERSEORDER>
1
20
26
30
14
21
11
29
25
27
22
19
2
6
17
10
24
23
18
12
31
15
13
16
5
28
9
3
4
8
7

> <PUBCHEM_MMFF94_PARTIAL_CHARGES>
38
1 -0.56
10 0.28
11 0.28
12 0.28
13 0.28
14 0.56
16 0.08
17 0.09
18 -0.15
19 0.09
2 -0.36
20 -0.15
21 0.08
22 0.09
23 0.09
24 0.4
25 0.4
26 -0.15
27 0.08
28 -0.14
29 -0.15
3 -0.68
30 0.14
39 0.4
4 -0.68
40 0.4
41 0.4
42 0.15
43 0.15
44 0.15
45 0.15
46 0.45
5 -0.68
50 0.45
6 -0.53
7 -0.57
8 -0.57
9 -0.53

> <PUBCHEM_EFFECTIVE_ROTOR_COUNT>
3.2

> <PUBCHEM_PHARMACOPHORE_FEATURES>
16
1 1 acceptor
1 2 acceptor
1 3 acceptor
1 3 donor
1 4 acceptor
1 4 donor
1 5 acceptor
1 5 donor
1 6 donor
1 7 acceptor
1 8 acceptor
1 9 donor
6 1 10 11 12 13 14 rings
6 16 17 18 19 20 21 rings
6 17 19 22 23 24 25 rings
6 22 23 26 27 28 29 rings

> <PUBCHEM_HEAVY_ATOM_COUNT>
30

> <PUBCHEM_ATOM_DEF_STEREO_COUNT>
5

> <PUBCHEM_ATOM_UDEF_STEREO_COUNT>
0

> <PUBCHEM_BOND_DEF_STEREO_COUNT>
0

> <PUBCHEM_BOND_UDEF_STEREO_COUNT>
0

> <PUBCHEM_ISOTOPIC_ATOM_COUNT>
0

> <PUBCHEM_COMPONENT_COUNT>
1

> <PUBCHEM_CACTVS_TAUTO_COUNT>
57

> <PUBCHEM_CONFORMER_ID>
0003017300000001

> <PUBCHEM_MMFF94_ENERGY>
101.2644

> <PUBCHEM_FEATURE_SELFOVERLAP>
81.286

> <PUBCHEM_SHAPE_FINGERPRINT>
10411042 1 18265333907498930043
10595046 47 18341891883621846148
10939801 23 18263366902439501718
11524674 6 16660363662834740263
11963148 33 18408328774230250438
12107183 9 17692533729456050194
12166972 35 17989205910677226797
12236239 1 18060420222293633176
12516196 113 18260547797021799144
12788726 201 18335411409237630744
13402501 40 18260827085638707590
13533116 47 18272372005829570794
13782708 43 17603871074434212775
13862211 1 18409450250377870955
14347332 77 18411704270747384855
14394314 77 18409727369989160281
14790565 3 17398098839512896153
15183329 4 18411698785821122087
15196674 1 18410574010926542667
15250474 111 18341049726260522610
15927050 60 17540819387182439268
16087824 20 18337953515636841081
17492 89 18265897046136344758
17857418 61 18412545422632933850
19319366 153 17989213624834902394
20511986 3 18271820029174562638
21033648 29 15502660459056441826
21223535 225 15554180266877792613
21236236 1 18408603673916920177
21267235 1 18338513020630001155
21279426 13 18339644550737802727
22950370 63 18410854356706669161
23522609 53 18195777779059952997
23559900 14 18334864874559894793
3004659 81 18272931644268384454
329604 57 18412824664189740246
335352 9 18409169909968891509
3411729 13 17678751033839048296
34797466 226 17603861179404601588
350125 39 18409730673024290713
394071 54 15502671368948633354
4073 2 18131345281064600890
439807 62 18272088258662530227
463206 1 18267587914077330434
5104073 3 18114460068317444225
7237137 82 18272088314159521437
7970288 3 18337677417025209563

> <PUBCHEM_SHAPE_MULTIPOLES>
564.56
16.93
3.38
0.89
6.62
0.09
-0.23
-8.42
-0.98
-2.6
0.45
1.35
-0.06
-1.38

> <PUBCHEM_SHAPE_SELFOVERLAP>
1251.662

> <PUBCHEM_SHAPE_VOLUME>
298.7

> <PUBCHEM_COORDINATE_TYPE>
2
5
10

$$$$

