11563984
  -OEChem-07051213123D

 37 39  0     1  0  0  0  0  0999 V2000
    2.1144   -3.0793   -0.5701 Cl  0  0  0  0  0  0  0  0  0  0  0  0
    2.3732    0.7002    0.1043 N   0  0  0  0  0  0  0  0  0  0  0  0
    1.0356    0.6091    0.2006 N   0  0  0  0  0  0  0  0  0  0  0  0
   -0.5068   -1.1376   -0.0020 N   0  0  0  0  0  0  0  0  0  0  0  0
   -1.5270    0.9609    0.4643 N   0  0  3  0  0  0  0  0  0  0  0  0
   -0.8150   -2.4393   -0.2176 N   0  0  0  0  0  0  0  0  0  0  0  0
   -5.2000   -0.5872    0.4651 N   0  0  0  0  0  0  0  0  0  0  0  0
    5.1859    0.6260    0.3069 C   0  0  0  0  0  0  0  0  0  0  0  0
    4.4755   -0.5844   -0.3079 C   0  0  0  0  0  0  0  0  0  0  0  0
    4.5049    1.9320   -0.1106 C   0  0  0  0  0  0  0  0  0  0  0  0
    3.0464    1.9591    0.3488 C   0  0  0  0  0  0  0  0  0  0  0  0
    2.9982   -0.4898   -0.1562 C   0  0  0  0  0  0  0  0  0  0  0  0
    1.9893   -1.4211   -0.2494 C   0  0  0  0  0  0  0  0  0  0  0  0
    0.8069   -0.6885   -0.0221 C   0  0  0  0  0  0  0  0  0  0  0  0
   -1.6239   -0.3666    0.2273 C   0  0  0  0  0  0  0  0  0  0  0  0
   -2.7046   -1.2114    0.1558 C   0  0  0  0  0  0  0  0  0  0  0  0
   -2.1467   -2.4741   -0.1200 C   0  0  0  0  0  0  0  0  0  0  0  0
   -1.5581    1.9666   -0.6143 C   0  0  0  0  0  0  0  0  0  0  0  0
   -1.3751    1.5177    1.8218 C   0  0  0  0  0  0  0  0  0  0  0  0
   -4.0736   -0.8690    0.3255 C   0  0  0  0  0  0  0  0  0  0  0  0
   -2.9359    2.3711   -0.9046 C   0  0  0  0  0  0  0  0  0  0  0  0
   -4.0635    2.7056   -1.1454 C   0  0  0  0  0  0  0  0  0  0  0  0
    5.1736    0.5458    1.4014 H   0  0  0  0  0  0  0  0  0  0  0  0
    6.2367    0.6331   -0.0033 H   0  0  0  0  0  0  0  0  0  0  0  0
    4.8508   -1.5015    0.1598 H   0  0  0  0  0  0  0  0  0  0  0  0
    4.7152   -0.6429   -1.3768 H   0  0  0  0  0  0  0  0  0  0  0  0
    5.0404    2.7909    0.3083 H   0  0  0  0  0  0  0  0  0  0  0  0
    4.5480    2.0269   -1.2030 H   0  0  0  0  0  0  0  0  0  0  0  0
    2.9863    2.1389    1.4282 H   0  0  0  0  0  0  0  0  0  0  0  0
    2.4935    2.7479   -0.1717 H   0  0  0  0  0  0  0  0  0  0  0  0
   -2.6509   -3.4207   -0.2550 H   0  0  0  0  0  0  0  0  0  0  0  0
   -0.9607    2.8437   -0.3385 H   0  0  0  0  0  0  0  0  0  0  0  0
   -1.0996    1.5552   -1.5222 H   0  0  0  0  0  0  0  0  0  0  0  0
   -0.5657    2.2541    1.8588 H   0  0  0  0  0  0  0  0  0  0  0  0
   -1.1472    0.7298    2.5484 H   0  0  0  0  0  0  0  0  0  0  0  0
   -2.3063    2.0048    2.1290 H   0  0  0  0  0  0  0  0  0  0  0  0
   -5.0642    3.0011   -1.3582 H   0  0  0  0  0  0  0  0  0  0  0  0
  1 13  1  0  0  0  0
  2  3  1  0  0  0  0
  2 11  1  0  0  0  0
  2 12  1  0  0  0  0
  3 14  2  0  0  0  0
  4  6  1  0  0  0  0
  4 14  1  0  0  0  0
  4 15  1  0  0  0  0
  5 15  1  0  0  0  0
  5 18  1  0  0  0  0
  5 19  1  0  0  0  0
  6 17  2  0  0  0  0
  7 20  3  0  0  0  0
  8  9  1  0  0  0  0
  8 10  1  0  0  0  0
  8 23  1  0  0  0  0
  8 24  1  0  0  0  0
  9 12  1  0  0  0  0
  9 25  1  0  0  0  0
  9 26  1  0  0  0  0
 10 11  1  0  0  0  0
 10 27  1  0  0  0  0
 10 28  1  0  0  0  0
 11 29  1  0  0  0  0
 11 30  1  0  0  0  0
 12 13  2  0  0  0  0
 13 14  1  0  0  0  0
 15 16  2  0  0  0  0
 16 17  1  0  0  0  0
 16 20  1  0  0  0  0
 17 31  1  0  0  0  0
 18 21  1  0  0  0  0
 18 32  1  0  0  0  0
 18 33  1  0  0  0  0
 19 34  1  0  0  0  0
 19 35  1  0  0  0  0
 19 36  1  0  0  0  0
 21 22  3  0  0  0  0
 22 37  1  0  0  0  0
M  END
> <PUBCHEM_COMPOUND_CID>
11563984

> <PUBCHEM_CONFORMER_RMSD>
0.6

> <PUBCHEM_CONFORMER_DIVERSEORDER>
1
22
23
11
12
24
28
20
7
14
13
30
4
15
31
5
9
29
6
17
3
32
26
10
2
16
27
21
8
19
18
25

> <PUBCHEM_MMFF94_PARTIAL_CHARGES>
22
1 -0.12
11 0.26
12 -0.33
13 0.12
14 0.21
15 -0.07
16 0.02
17 0.14
18 0.57
19 0.37
2 0.31
20 0.54
21 -0.2
22 -0.18
3 -0.71
31 0.15
37 0.18
4 0.65
5 -0.82
6 -0.71
7 -0.56
9 0.18

> <PUBCHEM_EFFECTIVE_ROTOR_COUNT>
3.8

> <PUBCHEM_PHARMACOPHORE_FEATURES>
8
1 22 hydrophobe
1 5 cation
1 6 acceptor
1 7 acceptor
3 3 4 14 cation
5 2 3 12 13 14 rings
5 4 6 15 16 17 rings
6 2 8 9 10 11 12 rings

> <PUBCHEM_HEAVY_ATOM_COUNT>
22

> <PUBCHEM_ATOM_DEF_STEREO_COUNT>
0

> <PUBCHEM_ATOM_UDEF_STEREO_COUNT>
0

> <PUBCHEM_BOND_DEF_STEREO_COUNT>
0

> <PUBCHEM_BOND_UDEF_STEREO_COUNT>
0

> <PUBCHEM_ISOTOPIC_ATOM_COUNT>
0

> <PUBCHEM_COMPONENT_COUNT>
1

> <PUBCHEM_CACTVS_TAUTO_COUNT>
1

> <PUBCHEM_CONFORMER_ID>
00B073D000000001

> <PUBCHEM_MMFF94_ENERGY>
43.6383

> <PUBCHEM_FEATURE_SELFOVERLAP>
40.723

> <PUBCHEM_SHAPE_FINGERPRINT>
10608611 8 18410857672331724948
10967382 1 18335979796545892890
11370993 70 18411144670494115980
11725454 13 17057813094550232749
12403259 415 18334299730405627824
12403814 3 18341610378685879105
13140716 1 18121494644373877251
14223421 5 18410851079383235462
15196674 1 18411701014951353172
15420108 30 14940259492808569424
19784866 170 18339354154665833027
200 152 17967534553842260019
20510252 161 18335700567952811033
21267235 1 18335970996158013842
21857420 4 14025247015679729173
22182313 1 18339633551125974135
23227448 37 18410295787314142917
23402539 116 18262241001805191774
23557571 272 18411130338362472084
23559900 14 18190184666820350866
23566358 2 18262514904743860774
2748010 2 18266169707301463847
335352 9 18335698317453524358
34934 24 18335421227533219819
350125 39 18337668612468405120
3545911 37 18334572417789066672
5104073 3 18270119135714259624
559249 180 18271534212213042202
9709674 26 18409443713111008246

> <PUBCHEM_SHAPE_MULTIPOLES>
424.73
9.49
3.31
0.94
2.82
0.36
-0.18
-3.22
0.39
-1.12
0.78
-0.6
-0.47
1.28

> <PUBCHEM_SHAPE_SELFOVERLAP>
900.111

> <PUBCHEM_SHAPE_VOLUME>
235.1

> <PUBCHEM_COORDINATE_TYPE>
2
5
10

$$$$

