5280383
  -OEChem-07051212453D

 53 53  0     1  0  0  0  0  0999 V2000
   -4.0256   -2.6848   -0.4374 O   0  0  0  0  0  0  0  0  0  0  0  0
   -1.6972    3.5601    0.1236 O   0  0  0  0  0  0  0  0  0  0  0  0
   -2.5681    2.9865    2.1411 O   0  0  0  0  0  0  0  0  0  0  0  0
   -3.6080   -1.3176   -0.3326 C   0  0  2  0  0  0  0  0  0  0  0  0
   -2.9047   -2.4137    0.4141 C   0  0  2  0  0  0  0  0  0  0  0  0
   -4.5793   -0.4296    0.3477 C   0  0  0  0  0  0  0  0  0  0  0  0
   -3.9308    0.7459    1.0942 C   0  0  0  0  0  0  0  0  0  0  0  0
   -1.5207   -2.7520    0.0339 C   0  0  0  0  0  0  0  0  0  0  0  0
   -3.0994    1.6460    0.1788 C   0  0  0  0  0  0  0  0  0  0  0  0
   -0.4179   -2.1191    0.4639 C   0  0  0  0  0  0  0  0  0  0  0  0
   -2.4506    2.7789    0.9415 C   0  0  0  0  0  0  0  0  0  0  0  0
    0.9202   -2.4903    0.0605 C   0  0  0  0  0  0  0  0  0  0  0  0
    2.5138    1.2135   -1.3602 C   0  0  0  0  0  0  0  0  0  0  0  0
    0.9940    1.3097   -1.5242 C   0  0  0  0  0  0  0  0  0  0  0  0
    2.9621    1.7944   -0.0139 C   0  0  0  0  0  0  0  0  0  0  0  0
    0.4916    0.7551   -2.8591 C   0  0  0  0  0  0  0  0  0  0  0  0
    2.0178   -1.8525    0.4949 C   0  0  0  0  0  0  0  0  0  0  0  0
    4.4403    1.7853    0.2699 C   0  0  0  0  0  0  0  0  0  0  0  0
   -1.0141    0.8722   -3.0382 C   0  0  0  0  0  0  0  0  0  0  0  0
    3.3570   -2.2244    0.0910 C   0  0  0  0  0  0  0  0  0  0  0  0
    5.1395    0.8371    0.9128 C   0  0  0  0  0  0  0  0  0  0  0  0
    4.5247   -0.4148    1.4715 C   0  0  0  0  0  0  0  0  0  0  0  0
    4.4555   -1.5859    0.5259 C   0  0  0  0  0  0  0  0  0  0  0  0
   -3.1690   -0.8835   -1.2183 H   0  0  0  0  0  0  0  0  0  0  0  0
   -3.0893   -2.4993    1.4802 H   0  0  0  0  0  0  0  0  0  0  0  0
   -5.2806   -0.0369   -0.3985 H   0  0  0  0  0  0  0  0  0  0  0  0
   -5.1830   -0.9987    1.0661 H   0  0  0  0  0  0  0  0  0  0  0  0
   -3.2925    0.3547    1.8967 H   0  0  0  0  0  0  0  0  0  0  0  0
   -4.7174    1.3373    1.5789 H   0  0  0  0  0  0  0  0  0  0  0  0
   -1.4160   -3.5921   -0.6494 H   0  0  0  0  0  0  0  0  0  0  0  0
   -2.2893    1.0702   -0.2763 H   0  0  0  0  0  0  0  0  0  0  0  0
   -3.7321    2.0718   -0.6068 H   0  0  0  0  0  0  0  0  0  0  0  0
   -0.5228   -1.2803    1.1478 H   0  0  0  0  0  0  0  0  0  0  0  0
    1.0149   -3.3263   -0.6288 H   0  0  0  0  0  0  0  0  0  0  0  0
    3.0013    1.7682   -2.1717 H   0  0  0  0  0  0  0  0  0  0  0  0
    2.8358    0.1732   -1.4585 H   0  0  0  0  0  0  0  0  0  0  0  0
    0.6894    2.3602   -1.4385 H   0  0  0  0  0  0  0  0  0  0  0  0
    0.5022    0.7729   -0.7044 H   0  0  0  0  0  0  0  0  0  0  0  0
    2.4204    1.2931    0.7952 H   0  0  0  0  0  0  0  0  0  0  0  0
    2.6336    2.8412    0.0429 H   0  0  0  0  0  0  0  0  0  0  0  0
    0.7804   -0.2987   -2.9494 H   0  0  0  0  0  0  0  0  0  0  0  0
    0.9850    1.2911   -3.6787 H   0  0  0  0  0  0  0  0  0  0  0  0
    1.8851   -1.0255    1.1827 H   0  0  0  0  0  0  0  0  0  0  0  0
   -1.2694    4.2952    0.6124 H   0  0  0  0  0  0  0  0  0  0  0  0
    4.9952    2.6381   -0.1167 H   0  0  0  0  0  0  0  0  0  0  0  0
   -1.5333    0.2530   -2.3048 H   0  0  0  0  0  0  0  0  0  0  0  0
   -1.3472    1.9079   -2.9208 H   0  0  0  0  0  0  0  0  0  0  0  0
   -1.3058    0.5285   -4.0355 H   0  0  0  0  0  0  0  0  0  0  0  0
    3.4703   -3.0597   -0.5947 H   0  0  0  0  0  0  0  0  0  0  0  0
    6.2143    0.9593    1.0191 H   0  0  0  0  0  0  0  0  0  0  0  0
    3.5717   -0.1851    1.9529 H   0  0  0  0  0  0  0  0  0  0  0  0
    5.1605   -0.7289    2.3114 H   0  0  0  0  0  0  0  0  0  0  0  0
    5.4154   -1.9509    0.1628 H   0  0  0  0  0  0  0  0  0  0  0  0
  1  4  1  0  0  0  0
  1  5  1  0  0  0  0
  2 11  1  0  0  0  0
  2 44  1  0  0  0  0
  3 11  2  0  0  0  0
  4  5  1  0  0  0  0
  4  6  1  0  0  0  0
  4 24  1  0  0  0  0
  5  8  1  0  0  0  0
  5 25  1  0  0  0  0
  6  7  1  0  0  0  0
  6 26  1  0  0  0  0
  6 27  1  0  0  0  0
  7  9  1  0  0  0  0
  7 28  1  0  0  0  0
  7 29  1  0  0  0  0
  8 10  2  0  0  0  0
  8 30  1  0  0  0  0
  9 11  1  0  0  0  0
  9 31  1  0  0  0  0
  9 32  1  0  0  0  0
 10 12  1  0  0  0  0
 10 33  1  0  0  0  0
 12 17  2  0  0  0  0
 12 34  1  0  0  0  0
 13 14  1  0  0  0  0
 13 15  1  0  0  0  0
 13 35  1  0  0  0  0
 13 36  1  0  0  0  0
 14 16  1  0  0  0  0
 14 37  1  0  0  0  0
 14 38  1  0  0  0  0
 15 18  1  0  0  0  0
 15 39  1  0  0  0  0
 15 40  1  0  0  0  0
 16 19  1  0  0  0  0
 16 41  1  0  0  0  0
 16 42  1  0  0  0  0
 17 20  1  0  0  0  0
 17 43  1  0  0  0  0
 18 21  2  0  0  0  0
 18 45  1  0  0  0  0
 19 46  1  0  0  0  0
 19 47  1  0  0  0  0
 19 48  1  0  0  0  0
 20 23  2  0  0  0  0
 20 49  1  0  0  0  0
 21 22  1  0  0  0  0
 21 50  1  0  0  0  0
 22 23  1  0  0  0  0
 22 51  1  0  0  0  0
 22 52  1  0  0  0  0
 23 53  1  0  0  0  0
M  END
> <PUBCHEM_COMPOUND_CID>
5280383

> <PUBCHEM_CONFORMER_RMSD>
1.2

> <PUBCHEM_CONFORMER_DIVERSEORDER>
4
103
123
83
62
88
110
42
45
116
47
106
154
33
149
159
130
104
117
152
82
2
85
60
34
111
15
31
163
115
68
89
138
108
144
48
169
1
131
19
58
26
127
96
22
69
55
9
124
16
70
86
118
166
32
102
24
76
126
95
121
63
84
36
153
133
74
105
61
21
20
168
146
54
37
100
97
94
73
56
109
39
129
143
99
136
107
120
46
11
93
65
122
140
79
14
38
77
80
87
139
50
150
148
91
13
59
101
57
28
49
66
90
44
132
165
128
6
64
23
156
160
145
135
12
81
142
161
78
125
25
51
7
8
141
157
18
137
30
67
134
53
151
43
27
41
164
71
119
162
158
113
75
3
155
5
167
114
17
72
35
40
170
52
112
147
98
92
29
10

> <PUBCHEM_MMFF94_PARTIAL_CHARGES>
29
1 -0.3
10 -0.15
11 0.66
12 -0.15
15 0.14
17 -0.15
18 -0.29
2 -0.65
20 -0.15
21 -0.29
22 0.28
23 -0.29
24 0.1
25 0.1
3 -0.57
30 0.15
33 0.15
34 0.15
4 -0.05
43 0.15
44 0.5
45 0.15
49 0.15
5 0.09
50 0.15
53 0.15
6 0.09
8 -0.19
9 0.06

> <PUBCHEM_EFFECTIVE_ROTOR_COUNT>
13.6

> <PUBCHEM_PHARMACOPHORE_FEATURES>
6
1 1 acceptor
1 19 hydrophobe
1 2 acceptor
1 3 acceptor
3 2 3 11 anion
5 13 14 15 16 18 hydrophobe

> <PUBCHEM_HEAVY_ATOM_COUNT>
23

> <PUBCHEM_ATOM_DEF_STEREO_COUNT>
2

> <PUBCHEM_ATOM_UDEF_STEREO_COUNT>
0

> <PUBCHEM_BOND_DEF_STEREO_COUNT>
4

> <PUBCHEM_BOND_UDEF_STEREO_COUNT>
0

> <PUBCHEM_ISOTOPIC_ATOM_COUNT>
0

> <PUBCHEM_COMPONENT_COUNT>
1

> <PUBCHEM_CACTVS_TAUTO_COUNT>
1

> <PUBCHEM_CONFORMER_ID>
0050927F00000004

> <PUBCHEM_MMFF94_ENERGY>
15.3392

> <PUBCHEM_FEATURE_SELFOVERLAP>
30.504

> <PUBCHEM_SHAPE_FINGERPRINT>
10670039 82 18337381661471338326
10708813 3 18341044232896948840
11513181 2 18187359948144513990
12104220 1 18338809931535044520
12166972 35 17842847620650516639
12422481 6 18130802161017096818
12467345 10 18410012143473698346
12788726 201 18120638146385887892
13583140 156 18261408783531298232
14251764 3 16877941616249804098
14251764 38 18408320016732696824
144659 39 17458910451936850049
15256400 18 18410574015559302162
17818456 19 18410571752101195362
20765182 5 18412545401089623032
21673915 165 18412266129663237352
338550 245 18342170089870254568
3493558 16 18043528524220466426
445580 44 17203058485646692718
469060 322 17131835412291811550
7064713 232 18267579281197573673

> <PUBCHEM_SHAPE_MULTIPOLES>
455.72
10.27
4.23
2.01
4.07
0.27
-1.69
-0.31
4.45
-2.28
0.97
-0.3
1.62
-1.51

> <PUBCHEM_SHAPE_SELFOVERLAP>
875.29

> <PUBCHEM_SHAPE_VOLUME>
276.9

> <PUBCHEM_COORDINATE_TYPE>
2
5
10

$$$$

