5281798
  -OEChem-07051212593D

 81 84  0     1  0  0  0  0  0999 V2000
   -1.4521   -0.2761   -0.7366 O   0  0  0  0  0  0  0  0  0  0  0  0
    0.6372   -2.0668   -0.3167 O   0  0  0  0  0  0  0  0  0  0  0  0
    0.5854   -4.1326   -1.4833 O   0  0  0  0  0  0  0  0  0  0  0  0
    1.8255    1.2322   -0.1071 O   0  0  0  0  0  0  0  0  0  0  0  0
   -3.6268    0.3972   -0.2252 O   0  0  0  0  0  0  0  0  0  0  0  0
    0.1447    2.4099    1.9285 O   0  0  0  0  0  0  0  0  0  0  0  0
   -2.5989    2.7731    0.9179 O   0  0  0  0  0  0  0  0  0  0  0  0
    2.6306   -5.0359    0.3226 O   0  0  0  0  0  0  0  0  0  0  0  0
    0.8844   -5.3727    2.4631 O   0  0  0  0  0  0  0  0  0  0  0  0
   -1.5466   -5.7889    1.0268 O   0  0  0  0  0  0  0  0  0  0  0  0
   -6.4246   -0.5673   -2.3684 O   0  0  0  0  0  0  0  0  0  0  0  0
    2.7144   -0.1151    1.5460 O   0  0  0  0  0  0  0  0  0  0  0  0
   -7.4534    4.2926   -0.8279 O   0  0  0  0  0  0  0  0  0  0  0  0
   -8.6039    3.7339    1.6402 O   0  0  0  0  0  0  0  0  0  0  0  0
    8.0686    4.2374   -1.4185 O   0  0  0  0  0  0  0  0  0  0  0  0
   10.3460    2.8101   -0.7125 O   0  0  0  0  0  0  0  0  0  0  0  0
   -0.1038    0.1056   -1.0150 C   0  0  1  0  0  0  0  0  0  0  0  0
    0.5112    0.7827    0.2121 C   0  0  2  0  0  0  0  0  0  0  0  0
   -0.3369    1.9747    0.6561 C   0  0  1  0  0  0  0  0  0  0  0  0
   -1.8119    1.5910    0.7741 C   0  0  2  0  0  0  0  0  0  0  0  0
   -2.2933    0.8436   -0.4695 C   0  0  1  0  0  0  0  0  0  0  0  0
    1.3375   -3.2666   -0.6265 C   0  0  2  0  0  0  0  0  0  0  0  0
    1.7224   -3.9876    0.6641 C   0  0  1  0  0  0  0  0  0  0  0  0
    0.6597   -1.1557   -1.4062 C   0  0  0  0  0  0  0  0  0  0  0  0
    0.4876   -4.5711    1.3528 C   0  0  1  0  0  0  0  0  0  0  0  0
   -0.3288   -5.4248    0.3816 C   0  0  2  0  0  0  0  0  0  0  0  0
   -0.6222   -4.6315   -0.8994 C   0  0  2  0  0  0  0  0  0  0  0  0
   -1.3083   -5.4895   -1.9588 C   0  0  0  0  0  0  0  0  0  0  0  0
   -4.3049    0.1100   -1.4382 C   0  0  0  0  0  0  0  0  0  0  0  0
    2.8309    0.6979    0.6427 C   0  0  0  0  0  0  0  0  0  0  0  0
   -5.7498   -0.2907   -1.1429 C   0  0  1  0  0  0  0  0  0  0  0  0
   -6.5110    0.7865   -0.4023 C   0  0  0  0  0  0  0  0  0  0  0  0
    4.1075    1.2801    0.1703 C   0  0  0  0  0  0  0  0  0  0  0  0
   -6.6359    2.0598   -0.9577 C   0  0  0  0  0  0  0  0  0  0  0  0
   -7.0883    0.5062    0.8362 C   0  0  0  0  0  0  0  0  0  0  0  0
    5.2572    0.9129    0.7542 C   0  0  0  0  0  0  0  0  0  0  0  0
   -7.3382    3.0529   -0.2749 C   0  0  0  0  0  0  0  0  0  0  0  0
   -7.7904    1.4994    1.5192 C   0  0  0  0  0  0  0  0  0  0  0  0
   -7.9155    2.7727    0.9635 C   0  0  0  0  0  0  0  0  0  0  0  0
    6.5887    1.4123    0.3680 C   0  0  0  0  0  0  0  0  0  0  0  0
    6.7059    2.6021   -0.3504 C   0  0  0  0  0  0  0  0  0  0  0  0
    7.7318    0.6952    0.7211 C   0  0  0  0  0  0  0  0  0  0  0  0
    7.9663    3.0750   -0.7157 C   0  0  0  0  0  0  0  0  0  0  0  0
    8.9922    1.1680    0.3555 C   0  0  0  0  0  0  0  0  0  0  0  0
    9.1095    2.3579   -0.3628 C   0  0  0  0  0  0  0  0  0  0  0  0
   -0.0894    0.7856   -1.8771 H   0  0  0  0  0  0  0  0  0  0  0  0
    0.5124    0.0679    1.0457 H   0  0  0  0  0  0  0  0  0  0  0  0
   -0.2031    2.8211   -0.0277 H   0  0  0  0  0  0  0  0  0  0  0  0
   -1.9812    0.9873    1.6737 H   0  0  0  0  0  0  0  0  0  0  0  0
   -2.2904    1.5244   -1.3322 H   0  0  0  0  0  0  0  0  0  0  0  0
    2.2600   -3.0218   -1.1682 H   0  0  0  0  0  0  0  0  0  0  0  0
    2.2411   -3.3146    1.3566 H   0  0  0  0  0  0  0  0  0  0  0  0
    1.6928   -0.9120   -1.6784 H   0  0  0  0  0  0  0  0  0  0  0  0
    0.1682   -1.6232   -2.2678 H   0  0  0  0  0  0  0  0  0  0  0  0
   -0.1389   -3.7635    1.7516 H   0  0  0  0  0  0  0  0  0  0  0  0
    0.2120   -6.3511    0.1547 H   0  0  0  0  0  0  0  0  0  0  0  0
   -1.2887   -3.7870   -0.6807 H   0  0  0  0  0  0  0  0  0  0  0  0
   -2.2669   -5.8781   -1.6026 H   0  0  0  0  0  0  0  0  0  0  0  0
   -0.6728   -6.3333   -2.2495 H   0  0  0  0  0  0  0  0  0  0  0  0
   -1.4867   -4.9030   -2.8668 H   0  0  0  0  0  0  0  0  0  0  0  0
    0.0251    1.6828    2.5629 H   0  0  0  0  0  0  0  0  0  0  0  0
   -2.4652    3.3227    0.1268 H   0  0  0  0  0  0  0  0  0  0  0  0
    3.4253   -4.6243   -0.0578 H   0  0  0  0  0  0  0  0  0  0  0  0
    1.4067   -4.8088    3.0589 H   0  0  0  0  0  0  0  0  0  0  0  0
   -4.2725    0.9745   -2.1129 H   0  0  0  0  0  0  0  0  0  0  0  0
   -3.8025   -0.7148   -1.9593 H   0  0  0  0  0  0  0  0  0  0  0  0
   -2.0483   -4.9751    1.2049 H   0  0  0  0  0  0  0  0  0  0  0  0
   -5.7458   -1.2139   -0.5509 H   0  0  0  0  0  0  0  0  0  0  0  0
    4.0540    1.9761   -0.6586 H   0  0  0  0  0  0  0  0  0  0  0  0
   -7.3723   -0.6713   -2.1763 H   0  0  0  0  0  0  0  0  0  0  0  0
   -6.1970    2.2817   -1.9271 H   0  0  0  0  0  0  0  0  0  0  0  0
   -6.9993   -0.4809    1.2818 H   0  0  0  0  0  0  0  0  0  0  0  0
    5.2517    0.1887    1.5657 H   0  0  0  0  0  0  0  0  0  0  0  0
   -8.2350    1.2675    2.4833 H   0  0  0  0  0  0  0  0  0  0  0  0
    5.8362    3.1937   -0.6224 H   0  0  0  0  0  0  0  0  0  0  0  0
    7.6593   -0.2348    1.2798 H   0  0  0  0  0  0  0  0  0  0  0  0
   -6.9917    4.3027   -1.6838 H   0  0  0  0  0  0  0  0  0  0  0  0
   -8.9315    3.3598    2.4760 H   0  0  0  0  0  0  0  0  0  0  0  0
    9.8746    0.5994    0.6370 H   0  0  0  0  0  0  0  0  0  0  0  0
    7.1778    4.5947   -1.5751 H   0  0  0  0  0  0  0  0  0  0  0  0
   11.0160    2.1862   -0.3840 H   0  0  0  0  0  0  0  0  0  0  0  0
  1 17  1  0  0  0  0
  1 21  1  0  0  0  0
  2 22  1  0  0  0  0
  2 24  1  0  0  0  0
  3 22  1  0  0  0  0
  3 27  1  0  0  0  0
  4 18  1  0  0  0  0
  4 30  1  0  0  0  0
  5 21  1  0  0  0  0
  5 29  1  0  0  0  0
  6 19  1  0  0  0  0
  6 61  1  0  0  0  0
  7 20  1  0  0  0  0
  7 62  1  0  0  0  0
  8 23  1  0  0  0  0
  8 63  1  0  0  0  0
  9 25  1  0  0  0  0
  9 64  1  0  0  0  0
 10 26  1  0  0  0  0
 10 67  1  0  0  0  0
 11 31  1  0  0  0  0
 11 70  1  0  0  0  0
 12 30  2  0  0  0  0
 13 37  1  0  0  0  0
 13 77  1  0  0  0  0
 14 39  1  0  0  0  0
 14 78  1  0  0  0  0
 15 43  1  0  0  0  0
 15 80  1  0  0  0  0
 16 45  1  0  0  0  0
 16 81  1  0  0  0  0
 17 18  1  0  0  0  0
 17 24  1  0  0  0  0
 17 46  1  0  0  0  0
 18 19  1  0  0  0  0
 18 47  1  0  0  0  0
 19 20  1  0  0  0  0
 19 48  1  0  0  0  0
 20 21  1  0  0  0  0
 20 49  1  0  0  0  0
 21 50  1  0  0  0  0
 22 23  1  0  0  0  0
 22 51  1  0  0  0  0
 23 25  1  0  0  0  0
 23 52  1  0  0  0  0
 24 53  1  0  0  0  0
 24 54  1  0  0  0  0
 25 26  1  0  0  0  0
 25 55  1  0  0  0  0
 26 27  1  0  0  0  0
 26 56  1  0  0  0  0
 27 28  1  0  0  0  0
 27 57  1  0  0  0  0
 28 58  1  0  0  0  0
 28 59  1  0  0  0  0
 28 60  1  0  0  0  0
 29 31  1  0  0  0  0
 29 65  1  0  0  0  0
 29 66  1  0  0  0  0
 30 33  1  0  0  0  0
 31 32  1  0  0  0  0
 31 68  1  0  0  0  0
 32 34  2  0  0  0  0
 32 35  1  0  0  0  0
 33 36  2  0  0  0  0
 33 69  1  0  0  0  0
 34 37  1  0  0  0  0
 34 71  1  0  0  0  0
 35 38  2  0  0  0  0
 35 72  1  0  0  0  0
 36 40  1  0  0  0  0
 36 73  1  0  0  0  0
 37 39  2  0  0  0  0
 38 39  1  0  0  0  0
 38 74  1  0  0  0  0
 40 41  2  0  0  0  0
 40 42  1  0  0  0  0
 41 43  1  0  0  0  0
 41 75  1  0  0  0  0
 42 44  2  0  0  0  0
 42 76  1  0  0  0  0
 43 45  2  0  0  0  0
 44 45  1  0  0  0  0
 44 79  1  0  0  0  0
M  END
> <PUBCHEM_COMPOUND_CID>
5281798

> <PUBCHEM_CONFORMER_RMSD>
1.4

> <PUBCHEM_CONFORMER_DIVERSEORDER>
2
56
59
35
47
15
43
54
28
27
8
38
46
42
22
45
63
40
16
41
9
62
18
48
64
58
14
53
7
55
51
39
34
4
49
17
6
26
57
52
30
60
13
21
24
31
10
19
61
36
3
23
11
25
5
12
37
20
33
32
44
1
29
50

> <PUBCHEM_MMFF94_PARTIAL_CHARGES>
62
1 -0.56
10 -0.68
11 -0.68
12 -0.57
13 -0.53
14 -0.53
15 -0.53
16 -0.53
17 0.28
18 0.28
19 0.28
2 -0.56
20 0.28
21 0.56
22 0.56
23 0.28
24 0.28
25 0.28
26 0.28
27 0.28
29 0.28
3 -0.56
30 0.71
31 0.42
32 -0.14
33 -0.14
34 -0.15
35 -0.15
36 -0.18
37 0.08
38 -0.15
39 0.08
4 -0.43
40 0.03
41 -0.15
42 -0.15
43 0.08
44 -0.15
45 0.08
5 -0.56
6 -0.68
61 0.4
62 0.4
63 0.4
64 0.4
67 0.4
69 0.15
7 -0.68
70 0.4
71 0.15
72 0.15
73 0.15
74 0.15
75 0.15
76 0.15
77 0.45
78 0.45
79 0.15
8 -0.68
80 0.45
81 0.45
9 -0.68

> <PUBCHEM_EFFECTIVE_ROTOR_COUNT>
13.4

> <PUBCHEM_PHARMACOPHORE_FEATURES>
25
1 1 acceptor
1 10 acceptor
1 10 donor
1 11 acceptor
1 11 donor
1 12 acceptor
1 13 donor
1 14 donor
1 15 donor
1 16 donor
1 2 acceptor
1 3 acceptor
1 5 acceptor
1 6 acceptor
1 6 donor
1 7 acceptor
1 7 donor
1 8 acceptor
1 8 donor
1 9 acceptor
1 9 donor
6 1 17 18 19 20 21 rings
6 3 22 23 25 26 27 rings
6 32 34 35 37 38 39 rings
6 40 41 42 43 44 45 rings

> <PUBCHEM_HEAVY_ATOM_COUNT>
45

> <PUBCHEM_ATOM_DEF_STEREO_COUNT>
10

> <PUBCHEM_ATOM_UDEF_STEREO_COUNT>
1

> <PUBCHEM_BOND_DEF_STEREO_COUNT>
1

> <PUBCHEM_BOND_UDEF_STEREO_COUNT>
0

> <PUBCHEM_ISOTOPIC_ATOM_COUNT>
0

> <PUBCHEM_COMPONENT_COUNT>
1

> <PUBCHEM_CACTVS_TAUTO_COUNT>
51

> <PUBCHEM_CONFORMER_ID>
0050980600000002

> <PUBCHEM_MMFF94_ENERGY>
126.9126

> <PUBCHEM_FEATURE_SELFOVERLAP>
126.98

> <PUBCHEM_SHAPE_FINGERPRINT>
11062273 19 17974851984461960470
11135926 11 18410020961500798437
11991303 11 18270126708469868630
12522641 33 18412266150932273966
12539765 74 18260824900117604524
13008946 113 18194686088715062741
14150023 24 18411703188325981432
15064981 194 18125427619701508276
15439362 3 18410293640179044150
15927050 60 18335712606430618191
18365409 1 18337952273388018358
394071 54 17826522355949531999
4073 2 18412825811721513763
5265222 85 18340208462305208952
563151 97 18337674216942180201
6086070 43 8286202696347586145

> <PUBCHEM_SHAPE_MULTIPOLES>
832.17
27.45
8.53
1.65
21.28
17.12
-0.06
-50.28
1.46
-0.57
-0.82
-1.57
0.93
-3.55

> <PUBCHEM_SHAPE_SELFOVERLAP>
1765.065

> <PUBCHEM_SHAPE_VOLUME>
458.8

> <PUBCHEM_COORDINATE_TYPE>
2
5
10

$$$$

