253934
  -OEChem-07051213063D

 50 52  0     0  0  0  0  0  0999 V2000
    1.0054   -1.7485   -0.5033 O   0  0  0  0  0  0  0  0  0  0  0  0
    5.3855    0.0272   -0.5710 O   0  0  0  0  0  0  0  0  0  0  0  0
   -6.5721    0.1115    0.0071 O   0  0  0  0  0  0  0  0  0  0  0  0
    5.4166   -0.0433    1.7687 O   0  0  0  0  0  0  0  0  0  0  0  0
   -0.3378   -1.6346    0.0217 C   0  0  0  0  0  0  0  0  0  0  0  0
   -0.9651   -0.2572   -0.2116 C   0  0  0  0  0  0  0  0  0  0  0  0
   -0.2139    0.8456   -0.4269 C   0  0  0  0  0  0  0  0  0  0  0  0
    1.2543    0.6648   -0.4297 C   0  0  0  0  0  0  0  0  0  0  0  0
   -1.0971   -2.7685   -0.6926 C   0  0  0  0  0  0  0  0  0  0  0  0
   -0.2603   -1.9635    1.5236 C   0  0  0  0  0  0  0  0  0  0  0  0
    1.7850   -0.6281   -0.4718 C   0  0  0  0  0  0  0  0  0  0  0  0
   -2.4398   -0.1601   -0.1547 C   0  0  0  0  0  0  0  0  0  0  0  0
   -0.7521    2.2380   -0.6418 C   0  0  0  0  0  0  0  0  0  0  0  0
    2.1557    1.7427   -0.4228 C   0  0  0  0  0  0  0  0  0  0  0  0
    3.1660   -0.8443   -0.5325 C   0  0  0  0  0  0  0  0  0  0  0  0
   -0.8962    2.9836    0.6675 C   0  0  0  0  0  0  0  0  0  0  0  0
   -3.1883   -0.3073   -1.3186 C   0  0  0  0  0  0  0  0  0  0  0  0
   -3.0695    0.0778    1.0635 C   0  0  0  0  0  0  0  0  0  0  0  0
    4.0421    0.2360   -0.5238 C   0  0  0  0  0  0  0  0  0  0  0  0
    3.5368    1.5298   -0.4654 C   0  0  0  0  0  0  0  0  0  0  0  0
   -4.5791   -0.2156   -1.2640 C   0  0  0  0  0  0  0  0  0  0  0  0
   -4.4602    0.1693    1.1182 C   0  0  0  0  0  0  0  0  0  0  0  0
   -5.2152    0.0226   -0.0456 C   0  0  0  0  0  0  0  0  0  0  0  0
    5.9913   -0.1041    0.6897 C   0  0  0  0  0  0  0  0  0  0  0  0
   -7.1578    0.3564    1.2851 C   0  0  0  0  0  0  0  0  0  0  0  0
    7.4657   -0.3301    0.5311 C   0  0  0  0  0  0  0  0  0  0  0  0
   -2.1097   -2.9104   -0.3013 H   0  0  0  0  0  0  0  0  0  0  0  0
   -1.1577   -2.5807   -1.7711 H   0  0  0  0  0  0  0  0  0  0  0  0
   -0.5637   -3.7208   -0.5814 H   0  0  0  0  0  0  0  0  0  0  0  0
    0.2775   -1.1829    2.0744 H   0  0  0  0  0  0  0  0  0  0  0  0
   -1.2519   -2.0762    1.9733 H   0  0  0  0  0  0  0  0  0  0  0  0
    0.2953   -2.8943    1.6891 H   0  0  0  0  0  0  0  0  0  0  0  0
   -0.1344    2.8057   -1.3469 H   0  0  0  0  0  0  0  0  0  0  0  0
   -1.7335    2.2030   -1.1293 H   0  0  0  0  0  0  0  0  0  0  0  0
    1.8198    2.7746   -0.3817 H   0  0  0  0  0  0  0  0  0  0  0  0
    3.5561   -1.8584   -0.5807 H   0  0  0  0  0  0  0  0  0  0  0  0
   -1.2711    3.9954    0.4795 H   0  0  0  0  0  0  0  0  0  0  0  0
    0.0569    3.0800    1.1967 H   0  0  0  0  0  0  0  0  0  0  0  0
   -1.6028    2.4962    1.3446 H   0  0  0  0  0  0  0  0  0  0  0  0
   -2.7071   -0.4896   -2.2761 H   0  0  0  0  0  0  0  0  0  0  0  0
   -2.4954    0.1946    1.9793 H   0  0  0  0  0  0  0  0  0  0  0  0
    4.2102    2.3828   -0.4575 H   0  0  0  0  0  0  0  0  0  0  0  0
   -5.1617   -0.3300   -2.1740 H   0  0  0  0  0  0  0  0  0  0  0  0
   -4.8892    0.3558    2.0968 H   0  0  0  0  0  0  0  0  0  0  0  0
   -6.8523    1.3279    1.6881 H   0  0  0  0  0  0  0  0  0  0  0  0
   -6.9582   -0.4638    1.9829 H   0  0  0  0  0  0  0  0  0  0  0  0
   -8.2425    0.3968    1.1410 H   0  0  0  0  0  0  0  0  0  0  0  0
    7.6392   -1.2480   -0.0358 H   0  0  0  0  0  0  0  0  0  0  0  0
    7.9247   -0.4368    1.5180 H   0  0  0  0  0  0  0  0  0  0  0  0
    7.9178    0.5266    0.0256 H   0  0  0  0  0  0  0  0  0  0  0  0
  1  5  1  0  0  0  0
  1 11  1  0  0  0  0
  2 19  1  0  0  0  0
  2 24  1  0  0  0  0
  3 23  1  0  0  0  0
  3 25  1  0  0  0  0
  4 24  2  0  0  0  0
  5  6  1  0  0  0  0
  5  9  1  0  0  0  0
  5 10  1  0  0  0  0
  6  7  2  0  0  0  0
  6 12  1  0  0  0  0
  7  8  1  0  0  0  0
  7 13  1  0  0  0  0
  8 11  2  0  0  0  0
  8 14  1  0  0  0  0
  9 27  1  0  0  0  0
  9 28  1  0  0  0  0
  9 29  1  0  0  0  0
 10 30  1  0  0  0  0
 10 31  1  0  0  0  0
 10 32  1  0  0  0  0
 11 15  1  0  0  0  0
 12 17  2  0  0  0  0
 12 18  1  0  0  0  0
 13 16  1  0  0  0  0
 13 33  1  0  0  0  0
 13 34  1  0  0  0  0
 14 20  2  0  0  0  0
 14 35  1  0  0  0  0
 15 19  2  0  0  0  0
 15 36  1  0  0  0  0
 16 37  1  0  0  0  0
 16 38  1  0  0  0  0
 16 39  1  0  0  0  0
 17 21  1  0  0  0  0
 17 40  1  0  0  0  0
 18 22  2  0  0  0  0
 18 41  1  0  0  0  0
 19 20  1  0  0  0  0
 20 42  1  0  0  0  0
 21 23  2  0  0  0  0
 21 43  1  0  0  0  0
 22 23  1  0  0  0  0
 22 44  1  0  0  0  0
 24 26  1  0  0  0  0
 25 45  1  0  0  0  0
 25 46  1  0  0  0  0
 25 47  1  0  0  0  0
 26 48  1  0  0  0  0
 26 49  1  0  0  0  0
 26 50  1  0  0  0  0
M  END
> <PUBCHEM_COMPOUND_CID>
253934

> <PUBCHEM_CONFORMER_RMSD>
0.8

> <PUBCHEM_CONFORMER_DIVERSEORDER>
1
10
11
4
2
3
9
7
6
8
5

> <PUBCHEM_MMFF94_PARTIAL_CHARGES>
30
1 -0.36
11 0.08
12 0.03
13 0.14
14 -0.15
15 -0.15
17 -0.15
18 -0.15
19 0.08
2 -0.23
20 -0.15
21 -0.15
22 -0.15
23 0.08
24 0.66
25 0.28
26 0.06
3 -0.36
35 0.15
36 0.15
4 -0.57
40 0.15
41 0.15
42 0.15
43 0.15
44 0.15
5 0.42
6 -0.17
7 -0.17
8 0.03

> <PUBCHEM_EFFECTIVE_ROTOR_COUNT>
5.4

> <PUBCHEM_PHARMACOPHORE_FEATURES>
8
1 1 acceptor
1 16 hydrophobe
1 3 acceptor
1 4 acceptor
3 5 9 10 hydrophobe
6 1 5 6 7 8 11 rings
6 12 17 18 21 22 23 rings
6 8 11 14 15 19 20 rings

> <PUBCHEM_HEAVY_ATOM_COUNT>
26

> <PUBCHEM_ATOM_DEF_STEREO_COUNT>
0

> <PUBCHEM_ATOM_UDEF_STEREO_COUNT>
0

> <PUBCHEM_BOND_DEF_STEREO_COUNT>
0

> <PUBCHEM_BOND_UDEF_STEREO_COUNT>
0

> <PUBCHEM_ISOTOPIC_ATOM_COUNT>
0

> <PUBCHEM_COMPONENT_COUNT>
1

> <PUBCHEM_CACTVS_TAUTO_COUNT>
1

> <PUBCHEM_CONFORMER_ID>
0003DFEE00000001

> <PUBCHEM_MMFF94_ENERGY>
99.0204

> <PUBCHEM_FEATURE_SELFOVERLAP>
40.624

> <PUBCHEM_SHAPE_FINGERPRINT>
10906281 52 18263064570774840276
1100329 8 18339360747329453190
11578080 2 17315366825587561946
11646440 116 18334569131917747513
12035758 1 18341613689615047449
12166972 35 17346313778236119796
12236239 1 17821442478852378167
12633257 1 18409730625990523644
12741549 16 17846779607750418349
12788726 201 18337941347139604896
12838862 33 18337125521863453453
13140716 1 18267583507793526602
13533116 47 17676767682355753766
13583140 156 17203614765457783475
13782708 43 17274532123658039371
13862211 1 18412547591449019622
14028597 1 18130509746405529249
14251764 18 18342176614241815518
14790565 3 18409438198647436677
15048467 5 16443345386079923827
15131766 46 14925380429726888600
16728300 4 17629785597539778282
17349148 13 18413953880138500164
20642791 105 18269560601362855604
21033648 29 17845952748434374781
21033650 10 16517338116245773968
21150785 3 12751233710183017552
21267235 1 18272368711758316598
21781051 124 17702924990164273674
22182313 1 18267303325501668006
23402539 116 18260270728502095439
23536379 177 16298102103289932966
23559900 14 18265056843301132332
23569914 2 15434298418273523048
23569917 315 18334572417225922599
23569943 247 17825653719798629942
26918003 58 18131628976185650417
283562 15 18338797939279225537
3178227 256 18272922822189073057
335352 9 18411698760267427766
3383291 50 18273498992210743666
34797466 226 15068336796074895001
350125 39 18411418432021390516
404807 14 15436462295854233862
4093350 32 17749382727987240790
4325135 7 8430319039437296544
4340502 62 15357690881726431460
465052 167 17703787016233686080
5104073 3 18268432326396010170
5385378 56 18337105773683467346
7226269 152 18413112753553327680

> <PUBCHEM_SHAPE_MULTIPOLES>
511.59
15.15
2.15
1.25
4.16
0.32
0.28
0.31
4.59
-0.01
-0.03
-0.49
-0.16
-0.54

> <PUBCHEM_SHAPE_SELFOVERLAP>
1104.087

> <PUBCHEM_SHAPE_VOLUME>
281.6

> <PUBCHEM_COORDINATE_TYPE>
2
5
10

$$$$

