10901
  -OEChem-06261205063D

  8  7  0     0  0  0  0  0  0999 V2000
    1.6838    0.4834    0.0000 N   0  0  0  0  0  0  0  0  0  0  0  0
   -1.7524    0.2572    0.0000 N   0  0  0  0  0  0  0  0  0  0  0  0
    0.7255   -0.6147    0.0000 C   0  0  0  0  0  0  0  0  0  0  0  0
   -0.6569   -0.1258    0.0001 C   0  0  0  0  0  0  0  0  0  0  0  0
    0.8955   -1.2332    0.8874 H   0  0  0  0  0  0  0  0  0  0  0  0
    0.8995   -1.2479   -0.8764 H   0  0  0  0  0  0  0  0  0  0  0  0
    1.6010    1.0111   -0.8686 H   0  0  0  0  0  0  0  0  0  0  0  0
    2.6300    0.1044    0.0086 H   0  0  0  0  0  0  0  0  0  0  0  0
  1  3  1  0  0  0  0
  1  7  1  0  0  0  0
  1  8  1  0  0  0  0
  2  4  3  0  0  0  0
  3  4  1  0  0  0  0
  3  5  1  0  0  0  0
  3  6  1  0  0  0  0
M  END
> <PUBCHEM_COMPOUND_CID>
10901

> <PUBCHEM_CONFORMER_RMSD>
0.4

> <PUBCHEM_CONFORMER_DIVERSEORDER>
1

> <PUBCHEM_MMFF94_PARTIAL_CHARGES>
6
1 -0.99
2 -0.56
3 0.47
4 0.36
7 0.36
8 0.36

> <PUBCHEM_EFFECTIVE_ROTOR_COUNT>
0

> <PUBCHEM_PHARMACOPHORE_FEATURES>
3
1 1 cation
1 1 donor
1 2 acceptor

> <PUBCHEM_HEAVY_ATOM_COUNT>
4

> <PUBCHEM_ATOM_DEF_STEREO_COUNT>
0

> <PUBCHEM_ATOM_UDEF_STEREO_COUNT>
0

> <PUBCHEM_BOND_DEF_STEREO_COUNT>
0

> <PUBCHEM_BOND_UDEF_STEREO_COUNT>
0

> <PUBCHEM_ISOTOPIC_ATOM_COUNT>
0

> <PUBCHEM_COMPONENT_COUNT>
1

> <PUBCHEM_CACTVS_TAUTO_COUNT>
1

> <PUBCHEM_CONFORMER_ID>
00002A9500000001

> <PUBCHEM_MMFF94_ENERGY>
-1.0277

> <PUBCHEM_FEATURE_SELFOVERLAP>
15.223

> <PUBCHEM_SHAPE_FINGERPRINT>
139733 1 9294130558078839042
20096714 4 18408885113948362456
21015797 1 10158822772986458003
5460574 1 9223234043903283139

> <PUBCHEM_SHAPE_MULTIPOLES>
72.36
2.12
0.75
0.57
0.14
0.06
0
-0.41
0
-0.15
0
0
0.02
0

> <PUBCHEM_SHAPE_SELFOVERLAP>
121.74

> <PUBCHEM_SHAPE_VOLUME>
47.3

> <PUBCHEM_COORDINATE_TYPE>
2
5
10

$$$$

