441680
  -OEChem-07051212553D

 88 92  0     1  0  0  0  0  0999 V2000
    7.1626    0.6093    0.6803 O   0  0  0  0  0  0  0  0  0  0  0  0
    8.9761   -0.5249   -0.1924 O   0  0  0  0  0  0  0  0  0  0  0  0
   -0.3970    0.5085   -0.0095 C   0  0  1  0  0  0  0  0  0  0  0  0
   -1.9303    0.4652   -0.5890 C   0  0  1  0  0  0  0  0  0  0  0  0
    0.2486   -0.9222   -0.2455 C   0  0  1  0  0  0  0  0  0  0  0  0
   -2.7232   -0.6744    0.1763 C   0  0  1  0  0  0  0  0  0  0  0  0
    1.7919   -1.0019   -0.0109 C   0  0  2  0  0  0  0  0  0  0  0  0
   -4.3044   -0.7058   -0.0403 C   0  0  2  0  0  0  0  0  0  0  0  0
    2.4317    0.0958   -0.8918 C   0  0  1  0  0  0  0  0  0  0  0  0
   -4.8436    0.7406    0.2750 C   0  0  1  0  0  0  0  0  0  0  0  0
    0.4687    1.6196   -0.7069 C   0  0  0  0  0  0  0  0  0  0  0  0
   -0.5540   -2.0373    0.4431 C   0  0  0  0  0  0  0  0  0  0  0  0
   -2.0269   -2.0495    0.0226 C   0  0  0  0  0  0  0  0  0  0  0  0
   -2.6538    1.8286   -0.3888 C   0  0  0  0  0  0  0  0  0  0  0  0
    1.9935    1.4980   -0.5038 C   0  0  0  0  0  0  0  0  0  0  0  0
    3.9176   -0.2609   -1.0126 C   0  0  2  0  0  0  0  0  0  0  0  0
    2.4681   -2.2362   -0.6521 C   0  0  0  0  0  0  0  0  0  0  0  0
   -4.1687    1.7979   -0.6196 C   0  0  0  0  0  0  0  0  0  0  0  0
   -6.4021    0.8879    0.4001 C   0  0  0  0  0  0  0  0  0  0  0  0
   -0.3978    0.8783    1.5079 C   0  0  0  0  0  0  0  0  0  0  0  0
   -1.9243    0.2048   -2.1283 C   0  0  0  0  0  0  0  0  0  0  0  0
   -4.9375   -1.6830    1.0006 C   0  0  0  0  0  0  0  0  0  0  0  0
    3.9317   -1.8011   -0.8769 C   0  0  0  0  0  0  0  0  0  0  0  0
    2.2065   -0.9722    1.4797 C   0  0  0  0  0  0  0  0  0  0  0  0
   -4.6858   -1.2199   -1.4499 C   0  0  0  0  0  0  0  0  0  0  0  0
   -6.9260   -0.1670    1.4052 C   0  0  0  0  0  0  0  0  0  0  0  0
   -6.4591   -1.5862    1.1175 C   0  0  0  0  0  0  0  0  0  0  0  0
    4.8566    0.4385   -0.0380 C   0  0  1  0  0  0  0  0  0  0  0  0
   -7.1573    0.7759   -0.9365 C   0  0  0  0  0  0  0  0  0  0  0  0
   -6.7617    2.2765    0.9917 C   0  0  0  0  0  0  0  0  0  0  0  0
    6.2989   -0.0353   -0.2467 C   0  0  0  0  0  0  0  0  0  0  0  0
    4.7459    1.9588   -0.1852 C   0  0  0  0  0  0  0  0  0  0  0  0
    8.4850    0.2705    0.5970 C   0  0  0  0  0  0  0  0  0  0  0  0
    9.2702    1.0234    1.6279 C   0  0  0  0  0  0  0  0  0  0  0  0
    0.1446   -1.1263   -1.3186 H   0  0  0  0  0  0  0  0  0  0  0  0
   -2.6296   -0.4326    1.2430 H   0  0  0  0  0  0  0  0  0  0  0  0
    2.0458   -0.0459   -1.9172 H   0  0  0  0  0  0  0  0  0  0  0  0
   -4.4797    0.9614    1.2930 H   0  0  0  0  0  0  0  0  0  0  0  0
    0.1470    2.6139   -0.3724 H   0  0  0  0  0  0  0  0  0  0  0  0
    0.3096    1.6050   -1.7876 H   0  0  0  0  0  0  0  0  0  0  0  0
   -0.5074   -1.9498    1.5324 H   0  0  0  0  0  0  0  0  0  0  0  0
   -0.1197   -3.0142    0.1988 H   0  0  0  0  0  0  0  0  0  0  0  0
   -2.0862   -2.4101   -1.0083 H   0  0  0  0  0  0  0  0  0  0  0  0
   -2.5296   -2.8036    0.6364 H   0  0  0  0  0  0  0  0  0  0  0  0
   -2.2146    2.5895   -1.0459 H   0  0  0  0  0  0  0  0  0  0  0  0
   -2.5161    2.1978    0.6299 H   0  0  0  0  0  0  0  0  0  0  0  0
    2.4420    2.2531   -1.1547 H   0  0  0  0  0  0  0  0  0  0  0  0
    2.2077    1.7364    0.5376 H   0  0  0  0  0  0  0  0  0  0  0  0
    4.2439   -0.0074   -2.0317 H   0  0  0  0  0  0  0  0  0  0  0  0
    2.0115   -2.4765   -1.6207 H   0  0  0  0  0  0  0  0  0  0  0  0
    2.4043   -3.1351   -0.0297 H   0  0  0  0  0  0  0  0  0  0  0  0
   -4.5424    2.7986   -0.3801 H   0  0  0  0  0  0  0  0  0  0  0  0
   -4.3992    1.6438   -1.6766 H   0  0  0  0  0  0  0  0  0  0  0  0
   -0.8558    0.1188    2.1434 H   0  0  0  0  0  0  0  0  0  0  0  0
    0.6034    1.0454    1.8995 H   0  0  0  0  0  0  0  0  0  0  0  0
   -0.9122    1.8214    1.7046 H   0  0  0  0  0  0  0  0  0  0  0  0
   -1.5586   -0.7861   -2.4025 H   0  0  0  0  0  0  0  0  0  0  0  0
   -2.9135    0.2978   -2.5733 H   0  0  0  0  0  0  0  0  0  0  0  0
   -1.3223    0.9368   -2.6708 H   0  0  0  0  0  0  0  0  0  0  0  0
   -4.5092   -1.4887    1.9929 H   0  0  0  0  0  0  0  0  0  0  0  0
   -4.6871   -2.7212    0.7527 H   0  0  0  0  0  0  0  0  0  0  0  0
    4.5329   -2.1438   -0.0292 H   0  0  0  0  0  0  0  0  0  0  0  0
    4.3385   -2.2772   -1.7756 H   0  0  0  0  0  0  0  0  0  0  0  0
    1.4904   -1.4965    2.1168 H   0  0  0  0  0  0  0  0  0  0  0  0
    3.1635   -1.4742    1.6578 H   0  0  0  0  0  0  0  0  0  0  0  0
    2.3325    0.0363    1.8728 H   0  0  0  0  0  0  0  0  0  0  0  0
   -3.9518   -1.9223   -1.8507 H   0  0  0  0  0  0  0  0  0  0  0  0
   -5.6286   -1.7724   -1.4559 H   0  0  0  0  0  0  0  0  0  0  0  0
   -4.8059   -0.4181   -2.1797 H   0  0  0  0  0  0  0  0  0  0  0  0
   -8.0231   -0.1511    1.4361 H   0  0  0  0  0  0  0  0  0  0  0  0
   -6.5908    0.0994    2.4173 H   0  0  0  0  0  0  0  0  0  0  0  0
   -6.9463   -1.9663    0.2144 H   0  0  0  0  0  0  0  0  0  0  0  0
   -6.7923   -2.2416    1.9317 H   0  0  0  0  0  0  0  0  0  0  0  0
    4.5956    0.2062    1.0000 H   0  0  0  0  0  0  0  0  0  0  0  0
   -7.1265   -0.2262   -1.3639 H   0  0  0  0  0  0  0  0  0  0  0  0
   -8.2193    1.0154   -0.8017 H   0  0  0  0  0  0  0  0  0  0  0  0
   -6.7639    1.4752   -1.6813 H   0  0  0  0  0  0  0  0  0  0  0  0
   -7.8246    2.3270    1.2571 H   0  0  0  0  0  0  0  0  0  0  0  0
   -6.1869    2.4840    1.9012 H   0  0  0  0  0  0  0  0  0  0  0  0
   -6.5751    3.0870    0.2801 H   0  0  0  0  0  0  0  0  0  0  0  0
    6.3906   -1.1158   -0.1008 H   0  0  0  0  0  0  0  0  0  0  0  0
    6.6258    0.2057   -1.2662 H   0  0  0  0  0  0  0  0  0  0  0  0
    4.0491    2.4121    0.5191 H   0  0  0  0  0  0  0  0  0  0  0  0
    4.5420    2.2694   -1.2143 H   0  0  0  0  0  0  0  0  0  0  0  0
    5.6984    2.4409    0.0684 H   0  0  0  0  0  0  0  0  0  0  0  0
    8.9131    0.7640    2.6276 H   0  0  0  0  0  0  0  0  0  0  0  0
    9.1771    2.0980    1.4521 H   0  0  0  0  0  0  0  0  0  0  0  0
   10.3261    0.7480    1.5523 H   0  0  0  0  0  0  0  0  0  0  0  0
  1 31  1  0  0  0  0
  1 33  1  0  0  0  0
  2 33  2  0  0  0  0
  3  4  1  0  0  0  0
  3  5  1  0  0  0  0
  3 11  1  0  0  0  0
  3 20  1  0  0  0  0
  4  6  1  0  0  0  0
  4 14  1  0  0  0  0
  4 21  1  0  0  0  0
  5  7  1  0  0  0  0
  5 12  1  0  0  0  0
  5 35  1  0  0  0  0
  6  8  1  0  0  0  0
  6 13  1  0  0  0  0
  6 36  1  0  0  0  0
  7  9  1  0  0  0  0
  7 17  1  0  0  0  0
  7 24  1  0  0  0  0
  8 10  1  0  0  0  0
  8 22  1  0  0  0  0
  8 25  1  0  0  0  0
  9 15  1  0  0  0  0
  9 16  1  0  0  0  0
  9 37  1  0  0  0  0
 10 18  1  0  0  0  0
 10 19  1  0  0  0  0
 10 38  1  0  0  0  0
 11 15  1  0  0  0  0
 11 39  1  0  0  0  0
 11 40  1  0  0  0  0
 12 13  1  0  0  0  0
 12 41  1  0  0  0  0
 12 42  1  0  0  0  0
 13 43  1  0  0  0  0
 13 44  1  0  0  0  0
 14 18  1  0  0  0  0
 14 45  1  0  0  0  0
 14 46  1  0  0  0  0
 15 47  1  0  0  0  0
 15 48  1  0  0  0  0
 16 23  1  0  0  0  0
 16 28  1  0  0  0  0
 16 49  1  0  0  0  0
 17 23  1  0  0  0  0
 17 50  1  0  0  0  0
 17 51  1  0  0  0  0
 18 52  1  0  0  0  0
 18 53  1  0  0  0  0
 19 26  1  0  0  0  0
 19 29  1  0  0  0  0
 19 30  1  0  0  0  0
 20 54  1  0  0  0  0
 20 55  1  0  0  0  0
 20 56  1  0  0  0  0
 21 57  1  0  0  0  0
 21 58  1  0  0  0  0
 21 59  1  0  0  0  0
 22 27  1  0  0  0  0
 22 60  1  0  0  0  0
 22 61  1  0  0  0  0
 23 62  1  0  0  0  0
 23 63  1  0  0  0  0
 24 64  1  0  0  0  0
 24 65  1  0  0  0  0
 24 66  1  0  0  0  0
 25 67  1  0  0  0  0
 25 68  1  0  0  0  0
 25 69  1  0  0  0  0
 26 27  1  0  0  0  0
 26 70  1  0  0  0  0
 26 71  1  0  0  0  0
 27 72  1  0  0  0  0
 27 73  1  0  0  0  0
 28 31  1  0  0  0  0
 28 32  1  0  0  0  0
 28 74  1  0  0  0  0
 29 75  1  0  0  0  0
 29 76  1  0  0  0  0
 29 77  1  0  0  0  0
 30 78  1  0  0  0  0
 30 79  1  0  0  0  0
 30 80  1  0  0  0  0
 31 81  1  0  0  0  0
 31 82  1  0  0  0  0
 32 83  1  0  0  0  0
 32 84  1  0  0  0  0
 32 85  1  0  0  0  0
 33 34  1  0  0  0  0
 34 86  1  0  0  0  0
 34 87  1  0  0  0  0
 34 88  1  0  0  0  0
M  END
> <PUBCHEM_COMPOUND_CID>
441680

> <PUBCHEM_CONFORMER_RMSD>
1

> <PUBCHEM_CONFORMER_DIVERSEORDER>
2
5
4
1
3

> <PUBCHEM_MMFF94_PARTIAL_CHARGES>
5
1 -0.43
2 -0.57
31 0.28
33 0.66
34 0.06

> <PUBCHEM_EFFECTIVE_ROTOR_COUNT>
6.6

> <PUBCHEM_PHARMACOPHORE_FEATURES>
8
1 2 acceptor
1 32 hydrophobe
3 19 29 30 hydrophobe
5 7 9 16 17 23 rings
6 3 4 5 6 12 13 rings
6 3 5 7 9 11 15 rings
6 4 6 8 10 14 18 rings
6 8 10 19 22 26 27 rings

> <PUBCHEM_HEAVY_ATOM_COUNT>
34

> <PUBCHEM_ATOM_DEF_STEREO_COUNT>
9

> <PUBCHEM_ATOM_UDEF_STEREO_COUNT>
1

> <PUBCHEM_BOND_DEF_STEREO_COUNT>
0

> <PUBCHEM_BOND_UDEF_STEREO_COUNT>
0

> <PUBCHEM_ISOTOPIC_ATOM_COUNT>
0

> <PUBCHEM_COMPONENT_COUNT>
1

> <PUBCHEM_CACTVS_TAUTO_COUNT>
1

> <PUBCHEM_CONFORMER_ID>
0006BD5000000002

> <PUBCHEM_MMFF94_ENERGY>
171.62

> <PUBCHEM_FEATURE_SELFOVERLAP>
40.689

> <PUBCHEM_SHAPE_FINGERPRINT>
10 15 18411702093146471618
10076449 9 9583517629079260126
11135926 11 18272378572249542974
11456790 92 18334299765029059064
11578080 2 17314237643993681643
12166972 35 11239992356547035359
12236239 1 18040713706060397669
12788726 201 17096077112645069809
12838862 33 18341626922446313644
13782708 43 12895353279046615105
13811026 1 18411134757736230526
14028597 1 17560807675346626768
14251764 18 17060621092981625386
14394314 77 18341611555233222193
14790565 3 18340476825406018093
14849402 71 18270676447067639796
15183329 4 18342742913916202333
15247644 1 15626220204785156561
17093844 174 18335138692136741993
17349148 13 10952046771772198679
18608769 82 18411417289110943225
19611394 137 17916291745852727947
19841028 212 17845660373896427082
2026 5 13326035347344879136
21033648 29 17969239863098494624
21130935 74 18410569634413839106
21150785 3 14996285812102223437
21267235 1 18201433662846271006
21756936 100 18408044009603145359
23559900 14 18341895178363220781
23576562 1 6554824906857214744
24771293 8 18409165532289687749
3178227 256 18335702724680690128
335352 9 18412825772734486196
3383291 50 18130503046341307082
350125 39 18342733014412561869
4073 2 18129934594502623947
4093350 32 17458621255373949510
4325135 7 18201720656397040596
4340502 62 18412821391298066814
44802255 64 16081371903937840181
4616759 239 18408600357985852051
5104073 3 18341330105793667850
6086070 43 17168157741268254697
636775 72 18260547866069265937
9953998 17 18410857654867012561

> <PUBCHEM_SHAPE_MULTIPOLES>
687.97
23.12
2.19
1.38
31.35
0.16
-0.02
-5.39
-7.72
-1.44
-0.04
-0.42
0.01
0.94

> <PUBCHEM_SHAPE_SELFOVERLAP>
1438.205

> <PUBCHEM_SHAPE_VOLUME>
390.1

> <PUBCHEM_COORDINATE_TYPE>
2
5
10

$$$$

