6915739
  -OEChem-07051212572D

 35 38  0     1  0  0  0  0  0999 V2000
    3.9187   -1.6050    0.0000 O   0  0  0  0  0  0  0  0  0  0  0  0
    2.5049    0.3410    0.0000 O   0  0  0  0  0  0  0  0  0  0  0  0
    1.2448   -0.9190    0.0000 O   0  0  0  0  0  0  0  0  0  0  0  0
    5.7813    1.5069    0.0000 O   0  0  0  0  0  0  0  0  0  0  0  0
    3.0049   -1.1978    0.0000 C   0  0  2  0  0  0  0  0  0  0  0  0
    3.8139   -0.6100    0.0000 C   0  0  2  0  0  0  0  0  0  0  0  0
    3.5049    0.3410    0.0000 C   0  0  2  0  0  0  0  0  0  0  0  0
    3.2128   -2.1760    0.0000 C   0  0  0  0  0  0  0  0  0  0  0  0
    2.1959   -0.6100    0.0000 C   0  0  0  0  0  0  0  0  0  0  0  0
    4.2480    1.0102    0.0000 C   0  0  0  0  0  0  0  0  0  0  0  0
    4.1286   -2.5934    0.0000 C   0  0  0  0  0  0  0  0  0  0  0  0
    5.1991    0.7011    0.0000 C   0  0  0  0  0  0  0  0  0  0  0  0
    4.2506    2.0042    0.0000 C   0  0  0  0  0  0  0  0  0  0  0  0
    4.8718   -1.9243    0.0000 C   0  0  0  0  0  0  0  0  0  0  0  0
    5.4070   -0.2770    0.0000 C   0  0  0  0  0  0  0  0  0  0  0  0
    4.6639   -0.9461    0.0000 C   0  0  0  0  0  0  0  0  0  0  0  0
    5.1963    2.3106    0.0000 C   0  0  0  0  0  0  0  0  0  0  0  0
    3.4426    2.5934    0.0000 C   0  0  0  0  0  0  0  0  0  0  0  0
    3.3324   -0.5135    0.0000 C   0  0  0  0  0  0  0  0  0  0  0  0
    4.5016   -0.1104    0.0000 H   0  0  0  0  0  0  0  0  0  0  0  0
    3.2422    1.1494    0.0000 H   0  0  0  0  0  0  0  0  0  0  0  0
    3.0803   -2.7816    0.0000 H   0  0  0  0  0  0  0  0  0  0  0  0
    2.5928   -2.1741    0.0000 H   0  0  0  0  0  0  0  0  0  0  0  0
    4.6024   -2.9933    0.0000 H   0  0  0  0  0  0  0  0  0  0  0  0
    3.7970   -3.1173    0.0000 H   0  0  0  0  0  0  0  0  0  0  0  0
    5.4614   -2.1159    0.0000 H   0  0  0  0  0  0  0  0  0  0  0  0
    5.9819   -0.0448    0.0000 H   0  0  0  0  0  0  0  0  0  0  0  0
    5.7356   -0.8028    0.0000 H   0  0  0  0  0  0  0  0  0  0  0  0
    5.3879    2.9003    0.0000 H   0  0  0  0  0  0  0  0  0  0  0  0
    3.0773    2.0925    0.0000 H   0  0  0  0  0  0  0  0  0  0  0  0
    2.9417    2.9587    0.0000 H   0  0  0  0  0  0  0  0  0  0  0  0
    3.8079    3.0944    0.0000 H   0  0  0  0  0  0  0  0  0  0  0  0
    3.1408   -1.1032    0.0000 H   0  0  0  0  0  0  0  0  0  0  0  0
    2.7427   -0.3219    0.0000 H   0  0  0  0  0  0  0  0  0  0  0  0
    3.5240    0.0761    0.0000 H   0  0  0  0  0  0  0  0  0  0  0  0
  5  1  1  6  0  0  0
  1  6  1  0  0  0  0
  2  7  1  0  0  0  0
  2  9  1  0  0  0  0
  3  9  2  0  0  0  0
  4 12  1  0  0  0  0
  4 17  1  0  0  0  0
  5  6  1  0  0  0  0
  5  8  1  0  0  0  0
  5  9  1  0  0  0  0
  6  7  1  0  0  0  0
  6 20  1  1  0  0  0
  7 10  1  0  0  0  0
  7 21  1  6  0  0  0
  8 11  1  0  0  0  0
  8 22  1  0  0  0  0
  8 23  1  0  0  0  0
 10 12  2  0  0  0  0
 10 13  1  0  0  0  0
 11 14  1  0  0  0  0
 11 24  1  0  0  0  0
 11 25  1  0  0  0  0
 12 15  1  0  0  0  0
 13 17  2  0  0  0  0
 13 18  1  0  0  0  0
 14 16  2  0  0  0  0
 14 26  1  0  0  0  0
 15 16  1  0  0  0  0
 15 27  1  0  0  0  0
 15 28  1  0  0  0  0
 16 19  1  0  0  0  0
 17 29  1  0  0  0  0
 18 30  1  0  0  0  0
 18 31  1  0  0  0  0
 18 32  1  0  0  0  0
 19 33  1  0  0  0  0
 19 34  1  0  0  0  0
 19 35  1  0  0  0  0
M  END
> <PUBCHEM_COMPOUND_CID>
6915739

> <PUBCHEM_COMPOUND_CANONICALIZED>
1

> <PUBCHEM_CACTVS_COMPLEXITY>
457

> <PUBCHEM_CACTVS_HBOND_ACCEPTOR>
4

> <PUBCHEM_CACTVS_HBOND_DONOR>
0

> <PUBCHEM_CACTVS_ROTATABLE_BOND>
0

> <PUBCHEM_CACTVS_SUBSKEYS>
AAADceBwOAAAAAAAAAAAAAAAEgAAASJAAAAkAAAAAAAAAACBgAAAGgAAAAAADFSgmAIiDIAABECIAqjSiAICCAAkIAAAiAFECMgNJzaENR6CGSCl4BEKqQfK7PzOgAAAAAAAAAAAAAAAAAAAAAAAAAAAAA==

> <PUBCHEM_IUPAC_INCHI>
InChI=1S/C15H16O4/c1-8-4-3-5-15-13(19-15)12(18-14(15)16)11-9(2)7-17-10(11)6-8/h4,7,12-13H,3,5-6H2,1-2H3/b8-4+/t12-,13-,15-/m0/s1

> <PUBCHEM_IUPAC_INCHIKEY>
KBMSVODXFLAQNJ-DXGHHDSJSA-N

> <PUBCHEM_XLOGP3_AA>
1.9

> <PUBCHEM_EXACT_MASS>
260.104859

> <PUBCHEM_MOLECULAR_FORMULA>
C15H16O4

> <PUBCHEM_MOLECULAR_WEIGHT>
260.28514

> <PUBCHEM_OPENEYE_CAN_SMILES>
CC1=CCCC23C(O2)C(C4=C(C1)OC=C4C)OC3=O

> <PUBCHEM_OPENEYE_ISO_SMILES>
C/C/1=C\CC[C@@]23[C@@H](O2)[C@H](C4=C(C1)OC=C4C)OC3=O

> <PUBCHEM_CACTVS_TPSA>
52

> <PUBCHEM_MONOISOTOPIC_WEIGHT>
260.104859

> <PUBCHEM_TOTAL_CHARGE>
0

> <PUBCHEM_HEAVY_ATOM_COUNT>
19

> <PUBCHEM_ATOM_DEF_STEREO_COUNT>
3

> <PUBCHEM_ATOM_UDEF_STEREO_COUNT>
0

> <PUBCHEM_BOND_DEF_STEREO_COUNT>
1

> <PUBCHEM_BOND_UDEF_STEREO_COUNT>
0

> <PUBCHEM_ISOTOPIC_ATOM_COUNT>
0

> <PUBCHEM_COMPONENT_COUNT>
1

> <PUBCHEM_CACTVS_TAUTO_COUNT>
1

> <PUBCHEM_COORDINATE_TYPE>
1
5
255

> <PUBCHEM_BONDANNOTATIONS>
5  1  6
10  12  8
10  13  8
13  17  8
4  12  8
4  17  8
6  20  5
7  21  6

$$$$

