440217
  -OEChem-07051212493D

 43 42  0     1  0  0  0  0  0999 V2000
    5.3382    0.6154    0.8607 S   0  0  0  0  0  0  0  0  0  0  0  0
   -4.6252   -0.0087    0.3017 O   0  0  0  0  0  0  0  0  0  0  0  0
   -1.3090   -1.2562   -2.0539 O   0  0  0  0  0  0  0  0  0  0  0  0
   -2.7749    1.5098    1.5584 O   0  0  0  0  0  0  0  0  0  0  0  0
    1.2812    1.6587   -1.6448 O   0  0  0  0  0  0  0  0  0  0  0  0
    2.3796   -1.6149    1.5257 O   0  0  0  0  0  0  0  0  0  0  0  0
    3.6474   -2.6100   -0.0689 O   0  0  0  0  0  0  0  0  0  0  0  0
   -1.6573    1.7545   -0.4600 N   0  0  0  0  0  0  0  0  0  0  0  0
    2.1170    0.6455    0.2706 N   0  0  0  0  0  0  0  0  0  0  0  0
   -2.6417   -1.3962   -0.0011 C   0  0  0  0  0  0  0  0  0  0  0  0
   -3.3094   -0.0104   -0.2457 C   0  0  2  0  0  0  0  0  0  0  0  0
   -1.2360   -1.4612   -0.6470 C   0  0  0  0  0  0  0  0  0  0  0  0
   -2.5366   -1.7011    1.5065 C   0  0  0  0  0  0  0  0  0  0  0  0
   -3.5327   -2.4910   -0.6354 C   0  0  0  0  0  0  0  0  0  0  0  0
   -2.5727    1.1635    0.3960 C   0  0  0  0  0  0  0  0  0  0  0  0
   -0.8214    2.8672   -0.0719 C   0  0  0  0  0  0  0  0  0  0  0  0
    0.5040    2.4122    0.5233 C   0  0  0  0  0  0  0  0  0  0  0  0
    1.3291    1.5535   -0.4223 C   0  0  0  0  0  0  0  0  0  0  0  0
    2.9887   -0.2985   -0.3895 C   0  0  1  0  0  0  0  0  0  0  0  0
    4.3762    0.2913   -0.6543 C   0  0  0  0  0  0  0  0  0  0  0  0
    3.0555   -1.6234    0.3519 C   0  0  0  0  0  0  0  0  0  0  0  0
   -3.4148    0.1707   -1.3223 H   0  0  0  0  0  0  0  0  0  0  0  0
   -0.5613   -0.7178   -0.2149 H   0  0  0  0  0  0  0  0  0  0  0  0
   -0.7860   -2.4466   -0.4786 H   0  0  0  0  0  0  0  0  0  0  0  0
   -3.5118   -1.6481    2.0023 H   0  0  0  0  0  0  0  0  0  0  0  0
   -2.1382   -2.7087    1.6733 H   0  0  0  0  0  0  0  0  0  0  0  0
   -1.8612   -1.0022    2.0109 H   0  0  0  0  0  0  0  0  0  0  0  0
   -3.7125   -2.2956   -1.6983 H   0  0  0  0  0  0  0  0  0  0  0  0
   -3.0614   -3.4772   -0.5535 H   0  0  0  0  0  0  0  0  0  0  0  0
   -4.5086   -2.5545   -0.1411 H   0  0  0  0  0  0  0  0  0  0  0  0
   -1.5492    1.3902   -1.4021 H   0  0  0  0  0  0  0  0  0  0  0  0
   -0.6529    3.4671   -0.9725 H   0  0  0  0  0  0  0  0  0  0  0  0
   -1.3607    3.4874    0.6519 H   0  0  0  0  0  0  0  0  0  0  0  0
   -5.0641    0.8077    0.0073 H   0  0  0  0  0  0  0  0  0  0  0  0
    1.1104    3.2857    0.7883 H   0  0  0  0  0  0  0  0  0  0  0  0
    0.3084    1.8535    1.4468 H   0  0  0  0  0  0  0  0  0  0  0  0
   -0.4000   -1.3044   -2.3958 H   0  0  0  0  0  0  0  0  0  0  0  0
    2.5250   -0.5295   -1.3575 H   0  0  0  0  0  0  0  0  0  0  0  0
    2.1098    0.6523    1.2865 H   0  0  0  0  0  0  0  0  0  0  0  0
    4.9649   -0.4003   -1.2665 H   0  0  0  0  0  0  0  0  0  0  0  0
    4.2941    1.2332   -1.2072 H   0  0  0  0  0  0  0  0  0  0  0  0
    6.4325    1.0883    0.2466 H   0  0  0  0  0  0  0  0  0  0  0  0
    2.4288   -2.4810    1.9837 H   0  0  0  0  0  0  0  0  0  0  0  0
  1 20  1  0  0  0  0
  1 42  1  0  0  0  0
  2 11  1  0  0  0  0
  2 34  1  0  0  0  0
  3 12  1  0  0  0  0
  3 37  1  0  0  0  0
  4 15  2  0  0  0  0
  5 18  2  0  0  0  0
  6 21  1  0  0  0  0
  6 43  1  0  0  0  0
  7 21  2  0  0  0  0
  8 15  1  0  0  0  0
  8 16  1  0  0  0  0
  8 31  1  0  0  0  0
  9 18  1  0  0  0  0
  9 19  1  0  0  0  0
  9 39  1  0  0  0  0
 10 11  1  0  0  0  0
 10 12  1  0  0  0  0
 10 13  1  0  0  0  0
 10 14  1  0  0  0  0
 11 15  1  0  0  0  0
 11 22  1  0  0  0  0
 12 23  1  0  0  0  0
 12 24  1  0  0  0  0
 13 25  1  0  0  0  0
 13 26  1  0  0  0  0
 13 27  1  0  0  0  0
 14 28  1  0  0  0  0
 14 29  1  0  0  0  0
 14 30  1  0  0  0  0
 16 17  1  0  0  0  0
 16 32  1  0  0  0  0
 16 33  1  0  0  0  0
 17 18  1  0  0  0  0
 17 35  1  0  0  0  0
 17 36  1  0  0  0  0
 19 20  1  0  0  0  0
 19 21  1  0  0  0  0
 19 38  1  0  0  0  0
 20 40  1  0  0  0  0
 20 41  1  0  0  0  0
M  END
> <PUBCHEM_COMPOUND_CID>
440217

> <PUBCHEM_CONFORMER_RMSD>
1

> <PUBCHEM_CONFORMER_DIVERSEORDER>
1
83
114
24
107
102
81
39
58
91
21
35
3
73
76
19
97
28
36
111
96
47
89
41
43
68
71
30
116
123
98
61
109
60
86
82
112
6
106
49
74
11
10
124
56
42
75
5
95
51
90
120
70
93
117
65
66
9
122
110
32
29
80
38
105
72
15
118
100
40
48
69
78
12
121
16
84
45
88
108
62
125
27
34
4
99
50
94
101
79
23
25
18
8
115
85
77
13
26
22
103
7
52
104
14
63
37
20
113
55
92
87
17
33
46
44
2
59
64
67
53
31
119
57
54

> <PUBCHEM_MMFF94_PARTIAL_CHARGES>
24
1 -0.41
11 0.34
12 0.28
15 0.57
16 0.3
17 0.06
18 0.57
19 0.36
2 -0.68
20 0.23
21 0.66
3 -0.68
31 0.37
34 0.4
37 0.4
39 0.37
4 -0.57
42 0.18
43 0.5
5 -0.57
6 -0.65
7 -0.57
8 -0.73
9 -0.73

> <PUBCHEM_EFFECTIVE_ROTOR_COUNT>
11

> <PUBCHEM_PHARMACOPHORE_FEATURES>
12
1 2 acceptor
1 2 donor
1 3 acceptor
1 3 donor
1 4 acceptor
1 5 acceptor
1 6 acceptor
1 7 acceptor
1 8 donor
1 9 donor
3 10 13 14 hydrophobe
3 6 7 21 anion

> <PUBCHEM_HEAVY_ATOM_COUNT>
21

> <PUBCHEM_ATOM_DEF_STEREO_COUNT>
2

> <PUBCHEM_ATOM_UDEF_STEREO_COUNT>
0

> <PUBCHEM_BOND_DEF_STEREO_COUNT>
0

> <PUBCHEM_BOND_UDEF_STEREO_COUNT>
0

> <PUBCHEM_ISOTOPIC_ATOM_COUNT>
0

> <PUBCHEM_COMPONENT_COUNT>
1

> <PUBCHEM_CACTVS_TAUTO_COUNT>
4

> <PUBCHEM_CONFORMER_ID>
0006B79900000001

> <PUBCHEM_MMFF94_ENERGY>
36.0683

> <PUBCHEM_FEATURE_SELFOVERLAP>
60.958

> <PUBCHEM_SHAPE_FINGERPRINT>
10616163 171 18409162234012773526
11014199 57 17683814202937835878
11552529 35 17676494929765991854
12553582 1 18413106169178740744
12633257 1 17825664718997715256
14081887 123 18335150812397769432
14251764 3 15213021582644688719
14787075 74 18337107840258932576
15375462 189 18412541011743998136
15537594 2 18340470214702126827
17349148 13 17703791436235250720
20291156 8 18412544309993700500
20442098 301 18409732906438744620
21673915 165 18411139143377491208
23559900 14 18264217919570284449
339767 52 18340498802130906674
34934 24 18412266159569973672

> <PUBCHEM_SHAPE_MULTIPOLES>
390.84
9.08
3.12
1.32
5.89
0.33
-0.04
-3.05
1.39
-0.66
0.06
-0.21
-0.21
-0.7

> <PUBCHEM_SHAPE_SELFOVERLAP>
751.724

> <PUBCHEM_SHAPE_VOLUME>
240.6

> <PUBCHEM_COORDINATE_TYPE>
2
5
10

$$$$

