5289501
  -OEChem-07051213073D

 54 56  0     0  0  0  0  0  0999 V2000
    7.5528   -1.4732   -0.0089 O   0  0  0  0  0  0  0  0  0  0  0  0
    7.9473    0.7652   -0.0321 O   0  0  0  0  0  0  0  0  0  0  0  0
   -3.8582   -1.8096   -0.0050 C   0  0  0  0  0  0  0  0  0  0  0  0
   -5.1340    0.9616    0.2395 C   0  0  0  0  0  0  0  0  0  0  0  0
   -5.3699   -1.5352   -0.1654 C   0  0  0  0  0  0  0  0  0  0  0  0
   -5.8253   -0.3510    0.6705 C   0  0  0  0  0  0  0  0  0  0  0  0
   -3.0368   -0.5166   -0.0866 C   0  0  0  0  0  0  0  0  0  0  0  0
   -3.6264    0.7661    0.0349 C   0  0  0  0  0  0  0  0  0  0  0  0
   -3.4746   -2.8082   -1.1232 C   0  0  0  0  0  0  0  0  0  0  0  0
   -3.5879   -2.4822    1.3592 C   0  0  0  0  0  0  0  0  0  0  0  0
   -5.7510    1.4709   -1.0819 C   0  0  0  0  0  0  0  0  0  0  0  0
   -5.4359    1.9983    1.3478 C   0  0  0  0  0  0  0  0  0  0  0  0
   -1.6360   -0.6015   -0.2511 C   0  0  0  0  0  0  0  0  0  0  0  0
   -2.7947    1.9032   -0.0750 C   0  0  0  0  0  0  0  0  0  0  0  0
   -0.8363    0.5366   -0.3369 C   0  0  0  0  0  0  0  0  0  0  0  0
   -1.4177    1.7910   -0.2570 C   0  0  0  0  0  0  0  0  0  0  0  0
    0.6026    0.4083   -0.5054 C   0  0  0  0  0  0  0  0  0  0  0  0
    1.1068    0.3557   -1.9334 C   0  0  0  0  0  0  0  0  0  0  0  0
    1.4923    0.3297    0.5222 C   0  0  0  0  0  0  0  0  0  0  0  0
    2.9507    0.1997    0.3949 C   0  0  0  0  0  0  0  0  0  0  0  0
    3.5208   -1.0638    0.3388 C   0  0  0  0  0  0  0  0  0  0  0  0
    3.7350    1.3426    0.3337 C   0  0  0  0  0  0  0  0  0  0  0  0
    4.9051   -1.1872    0.2189 C   0  0  0  0  0  0  0  0  0  0  0  0
    5.1192    1.2193    0.2137 C   0  0  0  0  0  0  0  0  0  0  0  0
    5.7043   -0.0456    0.1564 C   0  0  0  0  0  0  0  0  0  0  0  0
    7.1475   -0.1742    0.0316 C   0  0  0  0  0  0  0  0  0  0  0  0
   -5.9480   -2.4232    0.1219 H   0  0  0  0  0  0  0  0  0  0  0  0
   -5.6139   -1.3494   -1.2191 H   0  0  0  0  0  0  0  0  0  0  0  0
   -6.9152   -0.2491    0.5881 H   0  0  0  0  0  0  0  0  0  0  0  0
   -5.6250   -0.5574    1.7295 H   0  0  0  0  0  0  0  0  0  0  0  0
   -3.5445   -2.3407   -2.1126 H   0  0  0  0  0  0  0  0  0  0  0  0
   -2.4558   -3.1937   -1.0114 H   0  0  0  0  0  0  0  0  0  0  0  0
   -4.1419   -3.6783   -1.1167 H   0  0  0  0  0  0  0  0  0  0  0  0
   -3.7941   -1.8077    2.1973 H   0  0  0  0  0  0  0  0  0  0  0  0
   -4.2072   -3.3773    1.4882 H   0  0  0  0  0  0  0  0  0  0  0  0
   -2.5414   -2.7955    1.4535 H   0  0  0  0  0  0  0  0  0  0  0  0
   -5.3632    2.4602   -1.3524 H   0  0  0  0  0  0  0  0  0  0  0  0
   -5.5309    0.8031   -1.9219 H   0  0  0  0  0  0  0  0  0  0  0  0
   -6.8404    1.5608   -1.0008 H   0  0  0  0  0  0  0  0  0  0  0  0
   -4.9282    1.7366    2.2838 H   0  0  0  0  0  0  0  0  0  0  0  0
   -5.1208    3.0105    1.0732 H   0  0  0  0  0  0  0  0  0  0  0  0
   -6.5118    2.0491    1.5539 H   0  0  0  0  0  0  0  0  0  0  0  0
   -1.1565   -1.5770   -0.3055 H   0  0  0  0  0  0  0  0  0  0  0  0
   -3.2150    2.9044   -0.0257 H   0  0  0  0  0  0  0  0  0  0  0  0
   -0.8174    2.6945   -0.3303 H   0  0  0  0  0  0  0  0  0  0  0  0
    0.8216    1.2712   -2.4642 H   0  0  0  0  0  0  0  0  0  0  0  0
    0.6555   -0.4943   -2.4580 H   0  0  0  0  0  0  0  0  0  0  0  0
    2.1897    0.2533   -2.0348 H   0  0  0  0  0  0  0  0  0  0  0  0
    1.1310    0.3644    1.5481 H   0  0  0  0  0  0  0  0  0  0  0  0
    2.9087   -1.9607    0.3867 H   0  0  0  0  0  0  0  0  0  0  0  0
    3.2911    2.3338    0.3777 H   0  0  0  0  0  0  0  0  0  0  0  0
    5.3188   -2.1908    0.1776 H   0  0  0  0  0  0  0  0  0  0  0  0
    5.7242    2.1210    0.1665 H   0  0  0  0  0  0  0  0  0  0  0  0
    8.5273   -1.5489   -0.0925 H   0  0  0  0  0  0  0  0  0  0  0  0
  1 26  1  0  0  0  0
  1 54  1  0  0  0  0
  2 26  2  0  0  0  0
  3  5  1  0  0  0  0
  3  7  1  0  0  0  0
  3  9  1  0  0  0  0
  3 10  1  0  0  0  0
  4  6  1  0  0  0  0
  4  8  1  0  0  0  0
  4 11  1  0  0  0  0
  4 12  1  0  0  0  0
  5  6  1  0  0  0  0
  5 27  1  0  0  0  0
  5 28  1  0  0  0  0
  6 29  1  0  0  0  0
  6 30  1  0  0  0  0
  7  8  2  0  0  0  0
  7 13  1  0  0  0  0
  8 14  1  0  0  0  0
  9 31  1  0  0  0  0
  9 32  1  0  0  0  0
  9 33  1  0  0  0  0
 10 34  1  0  0  0  0
 10 35  1  0  0  0  0
 10 36  1  0  0  0  0
 11 37  1  0  0  0  0
 11 38  1  0  0  0  0
 11 39  1  0  0  0  0
 12 40  1  0  0  0  0
 12 41  1  0  0  0  0
 12 42  1  0  0  0  0
 13 15  2  0  0  0  0
 13 43  1  0  0  0  0
 14 16  2  0  0  0  0
 14 44  1  0  0  0  0
 15 16  1  0  0  0  0
 15 17  1  0  0  0  0
 16 45  1  0  0  0  0
 17 18  1  0  0  0  0
 17 19  2  0  0  0  0
 18 46  1  0  0  0  0
 18 47  1  0  0  0  0
 18 48  1  0  0  0  0
 19 20  1  0  0  0  0
 19 49  1  0  0  0  0
 20 21  2  0  0  0  0
 20 22  1  0  0  0  0
 21 23  1  0  0  0  0
 21 50  1  0  0  0  0
 22 24  2  0  0  0  0
 22 51  1  0  0  0  0
 23 25  2  0  0  0  0
 23 52  1  0  0  0  0
 24 25  1  0  0  0  0
 24 53  1  0  0  0  0
 25 26  1  0  0  0  0
M  END
> <PUBCHEM_COMPOUND_CID>
5289501

> <PUBCHEM_CONFORMER_RMSD>
0.8

> <PUBCHEM_CONFORMER_DIVERSEORDER>
1
3
4
2

> <PUBCHEM_MMFF94_PARTIAL_CHARGES>
29
1 -0.65
13 -0.15
14 -0.15
15 0.03
16 -0.15
17 -0.17
18 0.14
19 -0.18
2 -0.57
20 0.03
21 -0.15
22 -0.15
23 -0.15
24 -0.15
25 0.09
26 0.63
3 0.14
4 0.14
43 0.15
44 0.15
45 0.15
49 0.15
50 0.15
51 0.15
52 0.15
53 0.15
54 0.5
7 -0.14
8 -0.14

> <PUBCHEM_EFFECTIVE_ROTOR_COUNT>
3.8

> <PUBCHEM_PHARMACOPHORE_FEATURES>
9
1 1 acceptor
1 18 hydrophobe
1 2 acceptor
3 1 2 26 anion
3 3 9 10 hydrophobe
3 4 11 12 hydrophobe
6 20 21 22 23 24 25 rings
6 3 4 5 6 7 8 rings
6 7 8 13 14 15 16 rings

> <PUBCHEM_HEAVY_ATOM_COUNT>
26

> <PUBCHEM_ATOM_DEF_STEREO_COUNT>
0

> <PUBCHEM_ATOM_UDEF_STEREO_COUNT>
0

> <PUBCHEM_BOND_DEF_STEREO_COUNT>
1

> <PUBCHEM_BOND_UDEF_STEREO_COUNT>
0

> <PUBCHEM_ISOTOPIC_ATOM_COUNT>
0

> <PUBCHEM_COMPONENT_COUNT>
1

> <PUBCHEM_CACTVS_TAUTO_COUNT>
1

> <PUBCHEM_CONFORMER_ID>
0050B61D00000001

> <PUBCHEM_MMFF94_ENERGY>
99.6755

> <PUBCHEM_FEATURE_SELFOVERLAP>
45.746

> <PUBCHEM_SHAPE_FINGERPRINT>
10299344 5 18342737421428549086
10319926 262 18187939373417551792
10411042 1 18121501246889046023
11045977 3 18334300842253394905
11089746 13 6988319435066152610
11135926 11 16558758927141193082
11315181 36 18334575733382694889
11524674 6 16950566571030545223
12091667 2 17275385421647966101
12107183 9 17763186143059118920
12166972 35 17846777395562510468
12236239 1 17989767791199628180
12516196 113 18411983563886412568
12616971 3 17203602670940726156
13288520 33 18341896273262941461
13533116 47 4822944495716077100
13668630 136 14405179595245410816
13885169 127 18335701667649204408
14251764 18 18408323289735269644
14341114 176 18409446981744442872
14394314 77 18272368719953151545
14844126 61 18336544907490629387
14849402 71 18269832013785060308
14856354 85 17845927455514490335
14933364 13 18408040710994324464
15021287 119 17346590881363429885
15183329 4 18412268354192526802
15348495 7 17895482418987236762
15352257 5 18411418440932935362
15361156 5 18272363149074054948
15461852 350 17894356562341524509
15537594 2 16988848284681077258
15716309 27 18343865520121257514
15849732 13 17846780728651778109
17093844 174 18408609145130171169
17844677 252 18260544472654146432
1813 80 17131828797999744279
18222031 100 16988570078702025172
18927931 339 18409164385844389919
19489759 90 17603587439552967969
21033648 29 17240778284188465929
21236236 1 18410294696803860563
21267235 1 18272086055470570259
21315759 40 15213024847015422124
21623969 137 17458339750232046070
21792961 116 17676485099566974740
220451 1 18059858385243189506
23035841 295 18202565085891119850
23516275 137 18195789972720170234
23522609 53 18198315469282399420
23559900 14 18410300185387280992
23569943 247 17487911218313886010
24771293 8 17774158986655282156
249057 3 18272934929776142805
3004659 81 18343305864423719624
335352 9 18411986867227901501
3383291 50 18059288744027017427
3545911 37 18410576210440713960
397830 11 17677628458088614770
4073 2 18201715129323095106
4214541 1 18410013234279528585
4325135 7 18273214192986529478
5104073 3 18410017611104398616
5265222 85 18188767220343899430
559249 180 18342741823543219743
7226269 152 18334858363953788049
7495541 125 18041563542559944312
9953998 17 18410014329812680928
999808 66 17774991368106206435

> <PUBCHEM_SHAPE_MULTIPOLES>
523.33
19.68
2.32
1.07
29.7
0.89
0.18
0.93
-2.21
-3.37
-0.1
-0.94
0.04
-0.2

> <PUBCHEM_SHAPE_SELFOVERLAP>
1126.071

> <PUBCHEM_SHAPE_VOLUME>
289.3

> <PUBCHEM_COORDINATE_TYPE>
2
5
10

$$$$

