5320946
  -OEChem-07051213093D

 34 36  0     0  0  0  0  0  0999 V2000
    0.0899   -0.7719   -0.0008 O   0  0  0  0  0  0  0  0  0  0  0  0
   -4.3249   -2.5164   -0.0020 O   0  0  0  0  0  0  0  0  0  0  0  0
    1.4727    2.6449   -0.0182 O   0  0  0  0  0  0  0  0  0  0  0  0
   -3.7417    2.1958    0.0016 O   0  0  0  0  0  0  0  0  0  0  0  0
   -1.2763    3.0671   -0.0074 O   0  0  0  0  0  0  0  0  0  0  0  0
    6.3671   -1.2481   -0.0064 O   0  0  0  0  0  0  0  0  0  0  0  0
   -1.7889    0.7650    0.0017 C   0  0  0  0  0  0  0  0  0  0  0  0
   -1.2583   -0.5230    0.0011 C   0  0  0  0  0  0  0  0  0  0  0  0
    0.9612    0.3057    0.0107 C   0  0  0  0  0  0  0  0  0  0  0  0
   -0.8691    1.9130   -0.0006 C   0  0  0  0  0  0  0  0  0  0  0  0
    0.5794    1.5960    0.0034 C   0  0  0  0  0  0  0  0  0  0  0  0
    2.3778   -0.1005    0.0062 C   0  0  0  0  0  0  0  0  0  0  0  0
   -3.1725    0.9583    0.0021 C   0  0  0  0  0  0  0  0  0  0  0  0
   -2.1098   -1.6284    0.0006 C   0  0  0  0  0  0  0  0  0  0  0  0
   -3.4919   -1.4396    0.0012 C   0  0  0  0  0  0  0  0  0  0  0  0
   -4.0220   -0.1488    0.0020 C   0  0  0  0  0  0  0  0  0  0  0  0
    3.0549   -0.2843    1.2120 C   0  0  0  0  0  0  0  0  0  0  0  0
    3.0419   -0.3027   -1.2038 C   0  0  0  0  0  0  0  0  0  0  0  0
    4.3955   -0.6696    1.2079 C   0  0  0  0  0  0  0  0  0  0  0  0
    4.3824   -0.6883   -1.2080 C   0  0  0  0  0  0  0  0  0  0  0  0
    5.0593   -0.8716   -0.0021 C   0  0  0  0  0  0  0  0  0  0  0  0
   -5.7268   -2.2525   -0.0012 C   0  0  0  0  0  0  0  0  0  0  0  0
   -1.6992   -2.6350   -0.0008 H   0  0  0  0  0  0  0  0  0  0  0  0
   -5.0875    0.0579    0.0017 H   0  0  0  0  0  0  0  0  0  0  0  0
    2.5505   -0.1312    2.1631 H   0  0  0  0  0  0  0  0  0  0  0  0
    2.5276   -0.1642   -2.1517 H   0  0  0  0  0  0  0  0  0  0  0  0
    4.9114   -0.8095    2.1541 H   0  0  0  0  0  0  0  0  0  0  0  0
    4.8942   -0.8444   -2.1538 H   0  0  0  0  0  0  0  0  0  0  0  0
    2.3815    2.3041   -0.0169 H   0  0  0  0  0  0  0  0  0  0  0  0
   -3.0595    2.8844    0.0067 H   0  0  0  0  0  0  0  0  0  0  0  0
   -6.0378   -1.7294    0.9095 H   0  0  0  0  0  0  0  0  0  0  0  0
   -6.2377   -3.2210   -0.0027 H   0  0  0  0  0  0  0  0  0  0  0  0
   -6.0382   -1.7263   -0.9100 H   0  0  0  0  0  0  0  0  0  0  0  0
    6.6749   -1.3281    0.9128 H   0  0  0  0  0  0  0  0  0  0  0  0
  1  8  1  0  0  0  0
  1  9  1  0  0  0  0
  2 15  1  0  0  0  0
  2 22  1  0  0  0  0
  3 11  1  0  0  0  0
  3 29  1  0  0  0  0
  4 13  1  0  0  0  0
  4 30  1  0  0  0  0
  5 10  2  0  0  0  0
  6 21  1  0  0  0  0
  6 34  1  0  0  0  0
  7  8  1  0  0  0  0
  7 10  1  0  0  0  0
  7 13  2  0  0  0  0
  8 14  2  0  0  0  0
  9 11  2  0  0  0  0
  9 12  1  0  0  0  0
 10 11  1  0  0  0  0
 12 17  2  0  0  0  0
 12 18  1  0  0  0  0
 13 16  1  0  0  0  0
 14 15  1  0  0  0  0
 14 23  1  0  0  0  0
 15 16  2  0  0  0  0
 16 24  1  0  0  0  0
 17 19  1  0  0  0  0
 17 25  1  0  0  0  0
 18 20  2  0  0  0  0
 18 26  1  0  0  0  0
 19 21  2  0  0  0  0
 19 27  1  0  0  0  0
 20 21  1  0  0  0  0
 20 28  1  0  0  0  0
 22 31  1  0  0  0  0
 22 32  1  0  0  0  0
 22 33  1  0  0  0  0
M  END
> <PUBCHEM_COMPOUND_CID>
5320946

> <PUBCHEM_CONFORMER_RMSD>
0.6

> <PUBCHEM_CONFORMER_DIVERSEORDER>
1
2

> <PUBCHEM_MMFF94_PARTIAL_CHARGES>
31
1 -0.16
10 0.47
11 0.09
12 0.03
13 0.08
14 -0.15
15 0.08
16 -0.15
17 -0.15
18 -0.15
19 -0.15
2 -0.36
20 -0.15
21 0.08
22 0.28
23 0.15
24 0.15
25 0.15
26 0.15
27 0.15
28 0.15
29 0.45
3 -0.53
30 0.45
34 0.45
4 -0.53
5 -0.57
6 -0.53
7 0.09
8 0.08
9 0.05

> <PUBCHEM_EFFECTIVE_ROTOR_COUNT>
2

> <PUBCHEM_PHARMACOPHORE_FEATURES>
9
1 1 acceptor
1 2 acceptor
1 3 donor
1 4 donor
1 5 acceptor
1 6 donor
6 1 7 8 9 10 11 rings
6 12 17 18 19 20 21 rings
6 7 8 13 14 15 16 rings

> <PUBCHEM_HEAVY_ATOM_COUNT>
22

> <PUBCHEM_ATOM_DEF_STEREO_COUNT>
0

> <PUBCHEM_ATOM_UDEF_STEREO_COUNT>
0

> <PUBCHEM_BOND_DEF_STEREO_COUNT>
0

> <PUBCHEM_BOND_UDEF_STEREO_COUNT>
0

> <PUBCHEM_ISOTOPIC_ATOM_COUNT>
0

> <PUBCHEM_COMPONENT_COUNT>
1

> <PUBCHEM_CACTVS_TAUTO_COUNT>
48

> <PUBCHEM_CONFORMER_ID>
005130F200000001

> <PUBCHEM_MMFF94_ENERGY>
76.0981

> <PUBCHEM_FEATURE_SELFOVERLAP>
45.697

> <PUBCHEM_SHAPE_FINGERPRINT>
10062212 137 18201717379447731041
10319926 262 18191045563229450442
10411042 1 18338797806657173359
10595046 47 18343015606597389806
10616163 171 18410574032528447438
11046707 91 18411982464005155793
11796584 16 18119810463934718366
12236239 1 17774718766600305262
12363563 72 18338791226176536167
12553582 1 18342178873062303907
13140716 1 18408604747379624345
13288520 33 18410573993952564271
13540713 4 18266758904328025785
13540713 5 18266441145478174021
13675066 3 17822296777173760794
13862211 1 18337674122869592223
14178342 30 18041263470163520403
14386348 63 17894631500224899326
14790565 3 17688301713512388969
15042514 8 18410572920548285393
15196674 1 18410856533880879585
16752209 62 18272376377299325427
16945 1 18338799030380221189
17492 89 17904765479808234743
17804303 29 18408324393014565025
18222031 100 18335141934431329799
18681886 176 18341894079025413006
19141452 34 17749108842607963591
193927 3 18337381648243967267
200 152 16702300196011799524
20028762 73 17969504810308983671
20374829 77 18410855451818010023
20403669 9 18336824204396518999
21033648 29 17168440336197377226
21065201 7 18263365948756516418
21267235 1 18412258415923326035
21279426 13 18342188726608649215
21728266 224 18272098231259814306
2297311 6 18335413591249666054
23366157 5 18058447591413350316
23402539 116 18412266168291543374
23557571 272 18261106396067990958
23559900 14 18337400365342340704
25147074 1 18340470185017605589
3004659 81 18059859437125262846
312423 11 18270106912659515885
335352 9 18411139139446553525
4214541 1 18410856589778511112
465052 167 18265325123595185783
474 4 17130690701325070244
5104073 3 18334013873855147272
559249 180 18271248321350665387
7970288 3 18411139095543150434
8863177 126 17699837429145212819
9709674 26 18196652891525165915

> <PUBCHEM_SHAPE_MULTIPOLES>
417.53
11.73
2.61
0.88
4.79
1.33
0
-8.57
0
-3.13
-0.01
1.07
-0.15
0.01

> <PUBCHEM_SHAPE_SELFOVERLAP>
928.818

> <PUBCHEM_SHAPE_VOLUME>
222

> <PUBCHEM_COORDINATE_TYPE>
2
5
10

$$$$

