108014
  -OEChem-07051212592D

 39 43  0     1  0  0  0  0  0999 V2000
    9.8761    0.3070    0.0000 O   0  0  0  0  0  0  0  0  0  0  0  0
    8.3532   -0.8047    0.0000 O   0  0  0  0  0  0  0  0  0  0  0  0
    7.7661    1.6143    0.0000 O   0  0  0  0  0  0  0  0  0  0  0  0
   10.6857    1.8823    0.0000 O   0  0  0  0  0  0  0  0  0  0  0  0
    6.5410    2.0000    0.0000 O   0  0  0  0  0  0  0  0  0  0  0  0
    4.7926    2.0346    0.0000 O   0  0  0  0  0  0  0  0  0  0  0  0
    4.7926   -2.0346    0.0000 O   0  0  0  0  0  0  0  0  0  0  0  0
    2.9554    2.0777    0.0000 O   0  0  0  0  0  0  0  0  0  0  0  0
    2.9554   -2.0777    0.0000 O   0  0  0  0  0  0  0  0  0  0  0  0
    8.3532    0.8047    0.0000 C   0  0  2  0  0  0  0  0  0  0  0  0
    8.9368    0.0000    0.0000 C   0  0  2  0  0  0  0  0  0  0  0  0
    8.9368    1.6022    0.0000 C   0  0  0  0  0  0  0  0  0  0  0  0
    7.4070    0.5000    0.0000 C   0  0  0  0  0  0  0  0  0  0  0  0
    9.8761    1.2952    0.0000 C   0  0  1  0  0  0  0  0  0  0  0  0
    7.4070   -0.5000    0.0000 C   0  0  0  0  0  0  0  0  0  0  0  0
    6.5410    1.0000    0.0000 C   0  0  0  0  0  0  0  0  0  0  0  0
    5.6750    0.5000    0.0000 C   0  0  0  0  0  0  0  0  0  0  0  0
    6.5410   -1.0000    0.0000 C   0  0  0  0  0  0  0  0  0  0  0  0
    5.6750   -0.5000    0.0000 C   0  0  0  0  0  0  0  0  0  0  0  0
    4.7810    1.0347    0.0000 C   0  0  0  0  0  0  0  0  0  0  0  0
    4.7810   -1.0347    0.0000 C   0  0  0  0  0  0  0  0  0  0  0  0
    3.8749    0.5208    0.0000 C   0  0  0  0  0  0  0  0  0  0  0  0
    3.8749   -0.5208    0.0000 C   0  0  0  0  0  0  0  0  0  0  0  0
    2.9438    1.0777    0.0000 C   0  0  0  0  0  0  0  0  0  0  0  0
    2.9438   -1.0777    0.0000 C   0  0  0  0  0  0  0  0  0  0  0  0
    2.0000    0.5425    0.0000 C   0  0  0  0  0  0  0  0  0  0  0  0
    2.0000   -0.5425    0.0000 C   0  0  0  0  0  0  0  0  0  0  0  0
    9.4373   -0.6870    0.0000 H   0  0  0  0  0  0  0  0  0  0  0  0
    9.1903    2.1680    0.0000 H   0  0  0  0  0  0  0  0  0  0  0  0
    8.4008    1.9137    0.0000 H   0  0  0  0  0  0  0  0  0  0  0  0
    9.7799    1.9077    0.0000 H   0  0  0  0  0  0  0  0  0  0  0  0
    8.0188    2.1804    0.0000 H   0  0  0  0  0  0  0  0  0  0  0  0
    6.5410   -1.6200    0.0000 H   0  0  0  0  0  0  0  0  0  0  0  0
   11.2518    1.6296    0.0000 H   0  0  0  0  0  0  0  0  0  0  0  0
    6.0040    2.3100    0.0000 H   0  0  0  0  0  0  0  0  0  0  0  0
    1.4643    0.8546    0.0000 H   0  0  0  0  0  0  0  0  0  0  0  0
    1.4643   -0.8546    0.0000 H   0  0  0  0  0  0  0  0  0  0  0  0
    2.4220    2.3939    0.0000 H   0  0  0  0  0  0  0  0  0  0  0  0
    2.4220   -2.3939    0.0000 H   0  0  0  0  0  0  0  0  0  0  0  0
  1 11  1  0  0  0  0
  1 14  1  0  0  0  0
  2 11  1  0  0  0  0
  2 15  1  0  0  0  0
 10  3  1  1  0  0  0
  3 32  1  0  0  0  0
 14  4  1  6  0  0  0
  4 34  1  0  0  0  0
  5 16  1  0  0  0  0
  5 35  1  0  0  0  0
  6 20  2  0  0  0  0
  7 21  2  0  0  0  0
  8 24  1  0  0  0  0
  8 38  1  0  0  0  0
  9 25  1  0  0  0  0
  9 39  1  0  0  0  0
 10 11  1  0  0  0  0
 10 12  1  0  0  0  0
 10 13  1  0  0  0  0
 11 28  1  1  0  0  0
 12 14  1  0  0  0  0
 12 29  1  0  0  0  0
 12 30  1  0  0  0  0
 13 15  2  0  0  0  0
 13 16  1  0  0  0  0
 14 31  1  0  0  0  0
 15 18  1  0  0  0  0
 16 17  2  0  0  0  0
 17 19  1  0  0  0  0
 17 20  1  0  0  0  0
 18 19  2  0  0  0  0
 18 33  1  0  0  0  0
 19 21  1  0  0  0  0
 20 22  1  0  0  0  0
 21 23  1  0  0  0  0
 22 23  1  0  0  0  0
 22 24  2  0  0  0  0
 23 25  2  0  0  0  0
 24 26  1  0  0  0  0
 25 27  1  0  0  0  0
 26 27  2  0  0  0  0
 26 36  1  0  0  0  0
 27 37  1  0  0  0  0
M  END
> <PUBCHEM_COMPOUND_CID>
108014

> <PUBCHEM_COMPOUND_CANONICALIZED>
1

> <PUBCHEM_CACTVS_COMPLEXITY>
682

> <PUBCHEM_CACTVS_HBOND_ACCEPTOR>
9

> <PUBCHEM_CACTVS_HBOND_DONOR>
5

> <PUBCHEM_CACTVS_ROTATABLE_BOND>
0

> <PUBCHEM_CACTVS_SUBSKEYS>
AAADccB4PAAAAAAAAAAAAAAAAAAAASJAAAAwYMAAAAASAEjBQAAAGgAACAAADESwmAMwDoAABgCIAqBSAAACCAAkIAAIiAEGCMgdNzaGNBqieWCl4BUPuYfL7PzO4QADCAAYAADCAAYQADAAAAAAAAAAAA==

> <PUBCHEM_IUPAC_INCHI>
InChI=1S/C18H12O9/c19-6-1-2-7(20)12-11(6)14(22)5-3-8-13(16(24)10(5)15(12)23)18(25)4-9(21)27-17(18)26-8/h1-3,9,17,19-21,24-25H,4H2/t9-,17+,18-/m1/s1

> <PUBCHEM_IUPAC_INCHIKEY>
FBPGRTYADYGYRG-AHBCHLHISA-N

> <PUBCHEM_XLOGP3_AA>
1.2

> <PUBCHEM_EXACT_MASS>
372.048132

> <PUBCHEM_MOLECULAR_FORMULA>
C18H12O9

> <PUBCHEM_MOLECULAR_WEIGHT>
372.28248

> <PUBCHEM_OPENEYE_CAN_SMILES>
C1C(OC2C1(C3=C(O2)C=C4C(=C3O)C(=O)C5=C(C=CC(=C5C4=O)O)O)O)O

> <PUBCHEM_OPENEYE_ISO_SMILES>
C1[C@@H](O[C@H]2[C@@]1(C3=C(O2)C=C4C(=C3O)C(=O)C5=C(C=CC(=C5C4=O)O)O)O)O

> <PUBCHEM_CACTVS_TPSA>
154

> <PUBCHEM_MONOISOTOPIC_WEIGHT>
372.048132

> <PUBCHEM_TOTAL_CHARGE>
0

> <PUBCHEM_HEAVY_ATOM_COUNT>
27

> <PUBCHEM_ATOM_DEF_STEREO_COUNT>
3

> <PUBCHEM_ATOM_UDEF_STEREO_COUNT>
0

> <PUBCHEM_BOND_DEF_STEREO_COUNT>
0

> <PUBCHEM_BOND_UDEF_STEREO_COUNT>
0

> <PUBCHEM_ISOTOPIC_ATOM_COUNT>
0

> <PUBCHEM_COMPONENT_COUNT>
1

> <PUBCHEM_CACTVS_TAUTO_COUNT>
70

> <PUBCHEM_COORDINATE_TYPE>
1
5
255

> <PUBCHEM_BONDANNOTATIONS>
11  28  5
13  15  8
13  16  8
15  18  8
16  17  8
17  19  8
18  19  8
22  23  8
22  24  8
23  25  8
24  26  8
25  27  8
26  27  8
10  3  5
14  4  6

$$$$

