442789
  -OEChem-07051212592D

 58 60  0     1  0  0  0  0  0999 V2000
    8.4497   -1.0950    0.0000 O   0  0  0  0  0  0  0  0  0  0  0  0
    4.8811   -0.1005    0.0000 O   0  0  0  0  0  0  0  0  0  0  0  0
    5.8517   -1.5950    0.0000 O   0  0  0  0  0  0  0  0  0  0  0  0
    2.6598   -1.4277    0.0000 O   0  0  0  0  0  0  0  0  0  0  0  0
    3.8642   -2.4799    0.0000 O   0  0  0  0  0  0  0  0  0  0  0  0
    6.7177   -3.0950    0.0000 O   0  0  0  0  0  0  0  0  0  0  0  0
    8.4497   -4.0950    0.0000 O   0  0  0  0  0  0  0  0  0  0  0  0
   10.1818   -1.0950    0.0000 O   0  0  0  0  0  0  0  0  0  0  0  0
   10.1818   -3.0950    0.0000 O   0  0  0  0  0  0  0  0  0  0  0  0
    2.5369    0.7414    0.0000 O   0  0  0  0  0  0  0  0  0  0  0  0
    3.4030   -0.7586    0.0000 C   0  0  1  0  0  0  0  0  0  0  0  0
    7.5837   -1.5950    0.0000 C   0  0  1  0  0  0  0  0  0  0  0  0
    4.0721   -1.5017    0.0000 C   0  0  2  0  0  0  0  0  0  0  0  0
    7.5837   -2.5950    0.0000 C   0  0  2  0  0  0  0  0  0  0  0  0
    4.9856   -1.0950    0.0000 C   0  0  1  0  0  0  0  0  0  0  0  0
    8.4497   -3.0950    0.0000 C   0  0  1  0  0  0  0  0  0  0  0  0
    9.3158   -2.5950    0.0000 C   0  0  2  0  0  0  0  0  0  0  0  0
    3.9030    0.1074    0.0000 C   0  0  0  0  0  0  0  0  0  0  0  0
    6.7177   -1.0950    0.0000 C   0  0  0  0  0  0  0  0  0  0  0  0
    9.3158   -1.5950    0.0000 C   0  0  1  0  0  0  0  0  0  0  0  0
    2.5369   -0.2586    0.0000 C   0  0  0  0  0  0  0  0  0  0  0  0
   10.1818   -0.0950    0.0000 C   0  0  0  0  0  0  0  0  0  0  0  0
   11.0478    0.4050    0.0000 C   0  0  0  0  0  0  0  0  0  0  0  0
    9.3158    0.4050    0.0000 C   0  0  0  0  0  0  0  0  0  0  0  0
   11.0478    1.4050    0.0000 C   0  0  0  0  0  0  0  0  0  0  0  0
    9.3158    1.4050    0.0000 C   0  0  0  0  0  0  0  0  0  0  0  0
   10.1818    1.9050    0.0000 C   0  0  0  0  0  0  0  0  0  0  0  0
   10.1818    2.9050    0.0000 C   0  0  0  0  0  0  0  0  0  0  0  0
   11.0478    3.4050    0.0000 C   0  0  0  0  0  0  0  0  0  0  0  0
   11.0478    4.4050    0.0000 C   0  0  0  0  0  0  0  0  0  0  0  0
    7.5837   -0.9750    0.0000 H   0  0  0  0  0  0  0  0  0  0  0  0
    3.4732   -1.6622    0.0000 H   0  0  0  0  0  0  0  0  0  0  0  0
    7.0468   -2.2850    0.0000 H   0  0  0  0  0  0  0  0  0  0  0  0
    4.9532   -1.7142    0.0000 H   0  0  0  0  0  0  0  0  0  0  0  0
    7.9128   -3.4050    0.0000 H   0  0  0  0  0  0  0  0  0  0  0  0
    9.8527   -2.2850    0.0000 H   0  0  0  0  0  0  0  0  0  0  0  0
    4.0946    0.6971    0.0000 H   0  0  0  0  0  0  0  0  0  0  0  0
    3.3366    0.3596    0.0000 H   0  0  0  0  0  0  0  0  0  0  0  0
    7.1162   -0.6201    0.0000 H   0  0  0  0  0  0  0  0  0  0  0  0
    6.3192   -0.6201    0.0000 H   0  0  0  0  0  0  0  0  0  0  0  0
    9.8527   -1.9050    0.0000 H   0  0  0  0  0  0  0  0  0  0  0  0
    1.9264   -0.1509    0.0000 H   0  0  0  0  0  0  0  0  0  0  0  0
    2.3249   -0.8412    0.0000 H   0  0  0  0  0  0  0  0  0  0  0  0
    2.0702   -1.2361    0.0000 H   0  0  0  0  0  0  0  0  0  0  0  0
    4.3249   -2.8948    0.0000 H   0  0  0  0  0  0  0  0  0  0  0  0
    6.7177   -3.7150    0.0000 H   0  0  0  0  0  0  0  0  0  0  0  0
    8.9867   -4.4050    0.0000 H   0  0  0  0  0  0  0  0  0  0  0  0
   10.7187   -2.7850    0.0000 H   0  0  0  0  0  0  0  0  0  0  0  0
    2.0000    1.0514    0.0000 H   0  0  0  0  0  0  0  0  0  0  0  0
   11.5848    0.0950    0.0000 H   0  0  0  0  0  0  0  0  0  0  0  0
    8.7788    0.0950    0.0000 H   0  0  0  0  0  0  0  0  0  0  0  0
   11.5848    1.7150    0.0000 H   0  0  0  0  0  0  0  0  0  0  0  0
    8.7788    1.7150    0.0000 H   0  0  0  0  0  0  0  0  0  0  0  0
    9.9697    3.4876    0.0000 H   0  0  0  0  0  0  0  0  0  0  0  0
    9.5712    2.7973    0.0000 H   0  0  0  0  0  0  0  0  0  0  0  0
   11.5848    3.0950    0.0000 H   0  0  0  0  0  0  0  0  0  0  0  0
   11.5848    4.7150    0.0000 H   0  0  0  0  0  0  0  0  0  0  0  0
   10.5109    4.7150    0.0000 H   0  0  0  0  0  0  0  0  0  0  0  0
  1 12  1  0  0  0  0
  1 20  1  0  0  0  0
  2 15  1  0  0  0  0
  2 18  1  0  0  0  0
 15  3  1  1  0  0  0
  3 19  1  0  0  0  0
 11  4  1  6  0  0  0
  4 44  1  0  0  0  0
 13  5  1  6  0  0  0
  5 45  1  0  0  0  0
 14  6  1  6  0  0  0
  6 46  1  0  0  0  0
 16  7  1  1  0  0  0
  7 47  1  0  0  0  0
 20  8  1  1  0  0  0
  8 22  1  0  0  0  0
 17  9  1  6  0  0  0
  9 48  1  0  0  0  0
 10 21  1  0  0  0  0
 10 49  1  0  0  0  0
 11 13  1  0  0  0  0
 11 18  1  0  0  0  0
 11 21  1  0  0  0  0
 12 14  1  0  0  0  0
 12 19  1  1  0  0  0
 12 31  1  0  0  0  0
 13 15  1  0  0  0  0
 13 32  1  0  0  0  0
 14 16  1  0  0  0  0
 14 33  1  0  0  0  0
 15 34  1  0  0  0  0
 16 17  1  0  0  0  0
 16 35  1  0  0  0  0
 17 20  1  0  0  0  0
 17 36  1  0  0  0  0
 18 37  1  0  0  0  0
 18 38  1  0  0  0  0
 19 39  1  0  0  0  0
 19 40  1  0  0  0  0
 20 41  1  0  0  0  0
 21 42  1  0  0  0  0
 21 43  1  0  0  0  0
 22 23  2  0  0  0  0
 22 24  1  0  0  0  0
 23 25  1  0  0  0  0
 23 50  1  0  0  0  0
 24 26  2  0  0  0  0
 24 51  1  0  0  0  0
 25 27  2  0  0  0  0
 25 52  1  0  0  0  0
 26 27  1  0  0  0  0
 26 53  1  0  0  0  0
 27 28  1  0  0  0  0
 28 29  1  0  0  0  0
 28 54  1  0  0  0  0
 28 55  1  0  0  0  0
 29 30  2  0  0  0  0
 29 56  1  0  0  0  0
 30 57  1  0  0  0  0
 30 58  1  0  0  0  0
M  END
> <PUBCHEM_COMPOUND_CID>
442789

> <PUBCHEM_COMPOUND_CANONICALIZED>
1

> <PUBCHEM_CACTVS_COMPLEXITY>
554

> <PUBCHEM_CACTVS_HBOND_ACCEPTOR>
10

> <PUBCHEM_CACTVS_HBOND_DONOR>
6

> <PUBCHEM_CACTVS_ROTATABLE_BOND>
8

> <PUBCHEM_CACTVS_SUBSKEYS>
AAADceB4PAAAAAAAAAAAAAAAAAAAASAAAAA0QAAAAAAAAAABAAAAGgAACAAADFSwmAMwDoAABgCAAiBCAAACCAAgIAAIiAAGCIgdNiKEMRqieCClwBEPqAfA4IwOIAAAAAAAAABAAAAAAAAAAAAAAAAAAA==

> <PUBCHEM_IUPAC_OPENEYE_NAME>
(2S,3R,4S,5S,6R)-2-(4-allylphenoxy)-6-[[(2R,3R,4R)-3,4-dihydroxy-4-(hydroxymethyl)tetrahydrofuran-2-yl]oxymethyl]tetrahydropyran-3,4,5-triol

> <PUBCHEM_IUPAC_CAS_NAME>
(2R,3S,4S,5R,6S)-2-[[(2R,3R,4R)-3,4-dihydroxy-4-(hydroxymethyl)-2-oxolanyl]oxymethyl]-6-(4-prop-2-enylphenoxy)oxane-3,4,5-triol

> <PUBCHEM_IUPAC_NAME>
(2R,3S,4S,5R,6S)-2-[[(2R,3R,4R)-3,4-dihydroxy-4-(hydroxymethyl)oxolan-2-yl]oxymethyl]-6-(4-prop-2-enylphenoxy)oxane-3,4,5-triol

> <PUBCHEM_IUPAC_SYSTEMATIC_NAME>
(2R,3S,4S,5R,6S)-2-[[(2R,3R,4R)-4-(hydroxymethyl)-3,4-bis(oxidanyl)oxolan-2-yl]oxymethyl]-6-(4-prop-2-enylphenoxy)oxane-3,4,5-triol

> <PUBCHEM_IUPAC_TRADITIONAL_NAME>
(2S,3R,4S,5S,6R)-2-(4-allylphenoxy)-6-[[(2R,3R,4R)-3,4-dihydroxy-4-methylol-tetrahydrofuran-2-yl]oxymethyl]tetrahydropyran-3,4,5-triol

> <PUBCHEM_IUPAC_INCHI>
InChI=1S/C20H28O10/c1-2-3-11-4-6-12(7-5-11)29-18-16(24)15(23)14(22)13(30-18)8-27-19-17(25)20(26,9-21)10-28-19/h2,4-7,13-19,21-26H,1,3,8-10H2/t13-,14-,15+,16-,17+,18-,19-,20-/m1/s1

> <PUBCHEM_IUPAC_INCHIKEY>
HLTAEJNADMCLOV-LTRJMQNCSA-N

> <PUBCHEM_XLOGP3_AA>
-0.9

> <PUBCHEM_EXACT_MASS>
428.168247

> <PUBCHEM_MOLECULAR_FORMULA>
C20H28O10

> <PUBCHEM_MOLECULAR_WEIGHT>
428.43032

> <PUBCHEM_OPENEYE_CAN_SMILES>
C=CCC1=CC=C(C=C1)OC2C(C(C(C(O2)COC3C(C(CO3)(CO)O)O)O)O)O

> <PUBCHEM_OPENEYE_ISO_SMILES>
C=CCC1=CC=C(C=C1)O[C@H]2[C@@H]([C@H]([C@@H]([C@H](O2)CO[C@H]3[C@@H]([C@](CO3)(CO)O)O)O)O)O

> <PUBCHEM_CACTVS_TPSA>
158

> <PUBCHEM_MONOISOTOPIC_WEIGHT>
428.168247

> <PUBCHEM_TOTAL_CHARGE>
0

> <PUBCHEM_HEAVY_ATOM_COUNT>
30

> <PUBCHEM_ATOM_DEF_STEREO_COUNT>
8

> <PUBCHEM_ATOM_UDEF_STEREO_COUNT>
0

> <PUBCHEM_BOND_DEF_STEREO_COUNT>
0

> <PUBCHEM_BOND_UDEF_STEREO_COUNT>
0

> <PUBCHEM_ISOTOPIC_ATOM_COUNT>
0

> <PUBCHEM_COMPONENT_COUNT>
1

> <PUBCHEM_CACTVS_TAUTO_COUNT>
1

> <PUBCHEM_COORDINATE_TYPE>
1
5
255

> <PUBCHEM_BONDANNOTATIONS>
12  19  5
22  23  8
22  24  8
23  25  8
24  26  8
25  27  8
26  27  8
15  3  5
11  4  6
13  5  6
14  6  6
16  7  5
20  8  5
17  9  6

$$$$

