442850
  -OEChem-07051212593D

 27 30  0     0  0  0  0  0  0999 V2000
    3.3290   -1.8796    0.0001 O   0  0  0  0  0  0  0  0  0  0  0  0
    4.0551    0.4167    0.0001 O   0  0  0  0  0  0  0  0  0  0  0  0
   -0.1622    3.3049    0.0001 O   0  0  0  0  0  0  0  0  0  0  0  0
   -1.8889    1.8021    0.0001 N   0  0  0  0  0  0  0  0  0  0  0  0
   -0.0266   -0.3264   -0.0001 C   0  0  0  0  0  0  0  0  0  0  0  0
    0.4297    1.0205   -0.0001 C   0  0  0  0  0  0  0  0  0  0  0  0
   -1.4797   -0.5985   -0.0001 C   0  0  0  0  0  0  0  0  0  0  0  0
   -2.3753    0.4845    0.0001 C   0  0  0  0  0  0  0  0  0  0  0  0
    0.9451   -1.3479    0.0000 C   0  0  0  0  0  0  0  0  0  0  0  0
    2.2851   -1.0055    0.0000 C   0  0  0  0  0  0  0  0  0  0  0  0
    2.6996    0.3013   -0.0001 C   0  0  0  0  0  0  0  0  0  0  0  0
    1.7982    1.3409   -0.0001 C   0  0  0  0  0  0  0  0  0  0  0  0
   -0.5494    2.1389   -0.0002 C   0  0  0  0  0  0  0  0  0  0  0  0
   -2.0373   -1.8899   -0.0002 C   0  0  0  0  0  0  0  0  0  0  0  0
   -3.7631    0.2920    0.0002 C   0  0  0  0  0  0  0  0  0  0  0  0
    4.4484   -0.9705    0.0002 C   0  0  0  0  0  0  0  0  0  0  0  0
   -3.4227   -2.0868   -0.0001 C   0  0  0  0  0  0  0  0  0  0  0  0
   -4.2851   -0.9966    0.0002 C   0  0  0  0  0  0  0  0  0  0  0  0
    0.6809   -2.3997    0.0001 H   0  0  0  0  0  0  0  0  0  0  0  0
    2.1510    2.3667   -0.0001 H   0  0  0  0  0  0  0  0  0  0  0  0
   -2.5696    2.5568    0.0002 H   0  0  0  0  0  0  0  0  0  0  0  0
   -1.4132   -2.7791   -0.0005 H   0  0  0  0  0  0  0  0  0  0  0  0
   -4.4423    1.1407    0.0004 H   0  0  0  0  0  0  0  0  0  0  0  0
    5.0571   -1.1630    0.8912 H   0  0  0  0  0  0  0  0  0  0  0  0
    5.0573   -1.1631   -0.8906 H   0  0  0  0  0  0  0  0  0  0  0  0
   -3.8246   -3.0961   -0.0002 H   0  0  0  0  0  0  0  0  0  0  0  0
   -5.3598   -1.1505    0.0003 H   0  0  0  0  0  0  0  0  0  0  0  0
  1 10  1  0  0  0  0
  1 16  1  0  0  0  0
  2 11  1  0  0  0  0
  2 16  1  0  0  0  0
  3 13  2  0  0  0  0
  4  8  1  0  0  0  0
  4 13  1  0  0  0  0
  4 21  1  0  0  0  0
  5  6  1  0  0  0  0
  5  7  1  0  0  0  0
  5  9  2  0  0  0  0
  6 12  2  0  0  0  0
  6 13  1  0  0  0  0
  7  8  1  0  0  0  0
  7 14  2  0  0  0  0
  8 15  2  0  0  0  0
  9 10  1  0  0  0  0
  9 19  1  0  0  0  0
 10 11  2  0  0  0  0
 11 12  1  0  0  0  0
 12 20  1  0  0  0  0
 14 17  1  0  0  0  0
 14 22  1  0  0  0  0
 15 18  1  0  0  0  0
 15 23  1  0  0  0  0
 16 24  1  0  0  0  0
 16 25  1  0  0  0  0
 17 18  2  0  0  0  0
 17 26  1  0  0  0  0
 18 27  1  0  0  0  0
M  END
> <PUBCHEM_COMPOUND_CID>
442850

> <PUBCHEM_CONFORMER_RMSD>
0.6

> <PUBCHEM_CONFORMER_DIVERSEORDER>
1

> <PUBCHEM_MMFF94_PARTIAL_CHARGES>
23
1 -0.36
10 0.08
11 0.08
12 -0.15
13 0.54
14 -0.15
15 -0.15
16 0.56
17 -0.15
18 -0.15
19 0.15
2 -0.36
20 0.15
21 0.37
22 0.15
23 0.15
26 0.15
27 0.15
3 -0.57
4 -0.55
6 0.09
8 0.12
9 -0.15

> <PUBCHEM_EFFECTIVE_ROTOR_COUNT>
0.6

> <PUBCHEM_PHARMACOPHORE_FEATURES>
8
1 1 acceptor
1 2 acceptor
1 3 acceptor
1 4 donor
5 1 2 10 11 16 rings
6 4 5 6 7 8 13 rings
6 5 6 9 10 11 12 rings
6 7 8 14 15 17 18 rings

> <PUBCHEM_HEAVY_ATOM_COUNT>
18

> <PUBCHEM_ATOM_DEF_STEREO_COUNT>
0

> <PUBCHEM_ATOM_UDEF_STEREO_COUNT>
0

> <PUBCHEM_BOND_DEF_STEREO_COUNT>
0

> <PUBCHEM_BOND_UDEF_STEREO_COUNT>
0

> <PUBCHEM_ISOTOPIC_ATOM_COUNT>
0

> <PUBCHEM_COMPONENT_COUNT>
1

> <PUBCHEM_CACTVS_TAUTO_COUNT>
2

> <PUBCHEM_CONFORMER_ID>
0006C1E200000001

> <PUBCHEM_MMFF94_ENERGY>
54.0671

> <PUBCHEM_FEATURE_SELFOVERLAP>
40.794

> <PUBCHEM_SHAPE_FINGERPRINT>
10319926 262 18048342182612501314
10616163 171 18337106868931510046
10618630 7 18411981364477671374
10967382 1 18266459802103262758
11132069 177 18410016532772025650
116883 192 18263920097915701558
11806522 49 18340487776907802646
12032990 46 18410853244041257011
12553582 1 18411144623281442395
13140716 1 18409728460741353281
13288520 33 18408882971144894710
13583140 156 14129346238192539159
138480 1 15095925084698907233
14115302 16 17846207826573563359
14790565 3 17905039610185296809
15196674 1 18410573976582635047
15352361 1 18410576154331877983
15375462 189 18202565098491497219
15442244 35 18409164385923374457
15536298 74 18262237711991806392
16945 1 18266459995524562084
17357779 13 18269857375085973317
17804303 29 18334853922197500129
1813 80 17632576045843327364
19141452 34 18260265240151439583
200 152 18041005016522921607
20510252 161 18190181363399585456
20645477 70 17909561562608031223
21029758 11 18408610249332619157
21029758 27 18342730789529578229
21267235 1 18410846647166967987
21296965 67 18409731742212528553
21421861 104 17985266519502866778
21501502 16 18338793532874511560
221490 88 18053940663090977091
22213442 358 18410293567026845639
2297311 6 18335689573000278054
2334 1 18338516326694314511
23366157 5 17842844321567214661
23402539 116 18334021613786971839
23463225 33 18410854339157541407
23557571 272 18188201104635324148
23559900 14 18336834212007642842
2748010 2 18337401452005619461
2871803 45 18342181076349092366
3091708 16 9353102876987988897
335352 9 18410574020149629805
34934 24 18410864256411276463
427121 178 15796469835044473625
5104073 3 18409449184798519746
7364860 26 18120655721407763921
81228 2 18267568281633380465
8809292 202 18343580720376000043
9709674 26 18190458449130904542
9981440 41 17113825090075870921

> <PUBCHEM_SHAPE_MULTIPOLES>
347.84
7.43
2.59
0.6
1.43
1.37
0
-3.73
0
-0.49
0
-0.03
-0.02
0

> <PUBCHEM_SHAPE_SELFOVERLAP>
798.208

> <PUBCHEM_SHAPE_VOLUME>
178

> <PUBCHEM_COORDINATE_TYPE>
2
5
10

$$$$

