23724658
  -OEChem-07051213083D

 28 29  0     0  0  0  0  0  0999 V2000
    0.3882   -3.0676    0.2670 O   0  0  0  0  0  0  0  0  0  0  0  0
   -4.1160   -1.1531   -0.5797 O   0  0  0  0  0  0  0  0  0  0  0  0
   -5.8341    0.6555    0.0276 O   0  0  0  0  0  0  0  0  0  0  0  0
   -4.1665    2.0838    0.6637 O   0  0  0  0  0  0  0  0  0  0  0  0
    2.1394    0.6956   -0.1583 C   0  0  0  0  0  0  0  0  0  0  0  0
    2.9388   -0.4386    0.1195 C   0  0  0  0  0  0  0  0  0  0  0  0
    0.1571   -0.7148   -0.1493 C   0  0  0  0  0  0  0  0  0  0  0  0
    0.7497    0.5405   -0.2898 C   0  0  0  0  0  0  0  0  0  0  0  0
    2.3254   -1.6944    0.2573 C   0  0  0  0  0  0  0  0  0  0  0  0
    0.9433   -1.8302    0.1237 C   0  0  0  0  0  0  0  0  0  0  0  0
    2.7529    1.9513   -0.2962 C   0  0  0  0  0  0  0  0  0  0  0  0
    4.3285   -0.2838    0.2506 C   0  0  0  0  0  0  0  0  0  0  0  0
    4.1350    2.0867   -0.1621 C   0  0  0  0  0  0  0  0  0  0  0  0
    4.9213    0.9714    0.1106 C   0  0  0  0  0  0  0  0  0  0  0  0
   -1.2878   -0.8320   -0.2935 C   0  0  0  0  0  0  0  0  0  0  0  0
   -2.1821    0.1269    0.0285 C   0  0  0  0  0  0  0  0  0  0  0  0
   -3.6347   -0.1149   -0.1539 C   0  0  0  0  0  0  0  0  0  0  0  0
   -4.5586    1.0177    0.2344 C   0  0  0  0  0  0  0  0  0  0  0  0
    0.1513    1.4195   -0.5234 H   0  0  0  0  0  0  0  0  0  0  0  0
    2.9344   -2.5712    0.4711 H   0  0  0  0  0  0  0  0  0  0  0  0
    2.1585    2.8373   -0.5094 H   0  0  0  0  0  0  0  0  0  0  0  0
    4.9629   -1.1416    0.4638 H   0  0  0  0  0  0  0  0  0  0  0  0
    4.5971    3.0636   -0.2710 H   0  0  0  0  0  0  0  0  0  0  0  0
    5.9972    1.0776    0.2146 H   0  0  0  0  0  0  0  0  0  0  0  0
   -1.6443   -1.7822   -0.6850 H   0  0  0  0  0  0  0  0  0  0  0  0
   -1.8788    1.0811    0.4433 H   0  0  0  0  0  0  0  0  0  0  0  0
    1.0908   -3.7138    0.4530 H   0  0  0  0  0  0  0  0  0  0  0  0
   -5.9674   -0.2497   -0.3268 H   0  0  0  0  0  0  0  0  0  0  0  0
  1 10  1  0  0  0  0
  1 27  1  0  0  0  0
  2 17  2  0  0  0  0
  3 18  1  0  0  0  0
  3 28  1  0  0  0  0
  4 18  2  0  0  0  0
  5  6  1  0  0  0  0
  5  8  1  0  0  0  0
  5 11  2  0  0  0  0
  6  9  1  0  0  0  0
  6 12  2  0  0  0  0
  7  8  2  0  0  0  0
  7 10  1  0  0  0  0
  7 15  1  0  0  0  0
  8 19  1  0  0  0  0
  9 10  2  0  0  0  0
  9 20  1  0  0  0  0
 11 13  1  0  0  0  0
 11 21  1  0  0  0  0
 12 14  1  0  0  0  0
 12 22  1  0  0  0  0
 13 14  2  0  0  0  0
 13 23  1  0  0  0  0
 14 24  1  0  0  0  0
 15 16  2  0  0  0  0
 15 25  1  0  0  0  0
 16 17  1  0  0  0  0
 16 26  1  0  0  0  0
 17 18  1  0  0  0  0
M  END
> <PUBCHEM_COMPOUND_CID>
23724658

> <PUBCHEM_CONFORMER_RMSD>
0.6

> <PUBCHEM_CONFORMER_DIVERSEORDER>
1
3
4
5
2
6
8
7

> <PUBCHEM_MMFF94_PARTIAL_CHARGES>
26
1 -0.53
10 0.08
11 -0.15
12 -0.15
13 -0.15
14 -0.15
15 -0.18
16 -0.14
17 0.56
18 0.72
19 0.15
2 -0.57
20 0.15
21 0.15
22 0.15
23 0.15
24 0.15
25 0.15
26 0.15
27 0.45
28 0.5
3 -0.65
4 -0.57
7 0.03
8 -0.15
9 -0.15

> <PUBCHEM_EFFECTIVE_ROTOR_COUNT>
3

> <PUBCHEM_PHARMACOPHORE_FEATURES>
7
1 1 donor
1 2 acceptor
1 3 acceptor
1 4 acceptor
3 3 4 18 anion
6 5 6 11 12 13 14 rings
6 5 6 7 8 9 10 rings

> <PUBCHEM_HEAVY_ATOM_COUNT>
18

> <PUBCHEM_ATOM_DEF_STEREO_COUNT>
0

> <PUBCHEM_ATOM_UDEF_STEREO_COUNT>
0

> <PUBCHEM_BOND_DEF_STEREO_COUNT>
1

> <PUBCHEM_BOND_UDEF_STEREO_COUNT>
0

> <PUBCHEM_ISOTOPIC_ATOM_COUNT>
0

> <PUBCHEM_COMPONENT_COUNT>
1

> <PUBCHEM_CACTVS_TAUTO_COUNT>
5

> <PUBCHEM_CONFORMER_ID>
016A027200000001

> <PUBCHEM_MMFF94_ENERGY>
51.3524

> <PUBCHEM_FEATURE_SELFOVERLAP>
35.615

> <PUBCHEM_SHAPE_FINGERPRINT>
10354089 29 18342735221550822753
10411042 1 17691126358778871282
10465860 228 18410290354238411886
11471102 20 18412547609035025102
12107183 9 17760647371074567905
12236239 1 18113339712896738999
12644460 14 17988369251538478850
13140716 1 18198914608961676218
14252887 29 11887679506810590088
14528608 73 18408606941975491581
14790565 3 18341887447095508492
15188451 53 15913035458211900241
15196674 1 18410575067493772278
15342168 16 18200870673784743204
15475509 35 16199880582455713074
18186145 218 18412267237653965150
19784866 9 18410013264328332792
20157964 124 18339928238013099805
20645477 70 18262235633090797183
20739085 24 18130503128193091932
212847 35 18333733511522956936
21524375 3 18410295765997633142
21709351 56 18410581686096417749
23402539 116 18186807950098545468
23402655 69 18261114049731198686
23559900 14 18114462374393530894
2916195 48 17968668099097111456
293599 30 18411980226849622508
335352 9 18411699890313558670
350125 39 18341050813436089028
3545911 37 18411698794832971837
42630746 31 18410012160659088950
474 4 18413669110520836281
4990 188 17967524658506590350
5104073 3 18342740697628799243
633830 44 18407760343528378414
8272917 22 18336825393854384270
960060 61 7060375955098428408
9999458 23 17917711293132650254

> <PUBCHEM_SHAPE_MULTIPOLES>
346.95
11.05
2.36
0.67
10.19
0.64
0
-6.04
0.62
-0.86
0.18
0.06
-0.03
-0.73

> <PUBCHEM_SHAPE_SELFOVERLAP>
755.92

> <PUBCHEM_SHAPE_VOLUME>
188.5

> <PUBCHEM_COORDINATE_TYPE>
2
5
10

$$$$

