251632
  -OEChem-07051213072D

 53 56  0     1  0  0  0  0  0999 V2000
    4.7950    1.2991    0.0000 O   0  0  0  0  0  0  0  0  0  0  0  0
    8.6500    2.0543    0.0000 O   0  0  0  0  0  0  0  0  0  0  0  0
    2.0000   -2.2532    0.0000 O   0  0  0  0  0  0  0  0  0  0  0  0
    7.3931    0.7991    0.0000 C   0  0  2  0  0  0  0  0  0  0  0  0
    7.3931   -0.2009    0.0000 C   0  0  2  0  0  0  0  0  0  0  0  0
    6.5271   -0.7009    0.0000 C   0  0  1  0  0  0  0  0  0  0  0  0
    5.6610   -0.2009    0.0000 C   0  0  2  0  0  0  0  0  0  0  0  0
    6.5271    1.2991    0.0000 C   0  0  2  0  0  0  0  0  0  0  0  0
    5.6610    0.7991    0.0000 C   0  0  2  0  0  0  0  0  0  0  0  0
    4.7510   -0.7078    0.0000 C   0  0  2  0  0  0  0  0  0  0  0  0
    8.3393    1.1038    0.0000 C   0  0  2  0  0  0  0  0  0  0  0  0
    8.3393   -0.5056    0.0000 C   0  0  0  0  0  0  0  0  0  0  0  0
    6.5431   -1.7424    0.0000 C   0  0  0  0  0  0  0  0  0  0  0  0
    8.9229    0.2991    0.0000 C   0  0  0  0  0  0  0  0  0  0  0  0
    7.3931    1.7991    0.0000 C   0  0  0  0  0  0  0  0  0  0  0  0
    4.7430   -1.7494    0.0000 C   0  0  0  0  0  0  0  0  0  0  0  0
    5.6451   -2.2702    0.0000 C   0  0  0  0  0  0  0  0  0  0  0  0
    3.8242   -0.1437    0.0000 C   0  0  0  0  0  0  0  0  0  0  0  0
    6.5271    2.2991    0.0000 C   0  0  0  0  0  0  0  0  0  0  0  0
    4.7587    0.2922    0.0000 C   0  0  0  0  0  0  0  0  0  0  0  0
    2.8763   -0.6716    0.0000 C   0  0  0  0  0  0  0  0  0  0  0  0
    3.8076   -2.2991    0.0000 C   0  0  0  0  0  0  0  0  0  0  0  0
    2.8680   -1.7566    0.0000 C   0  0  0  0  0  0  0  0  0  0  0  0
    7.4830   -1.0461    0.0000 H   0  0  0  0  0  0  0  0  0  0  0  0
    7.2664   -1.1202    0.0000 H   0  0  0  0  0  0  0  0  0  0  0  0
    6.3972    0.2241    0.0000 H   0  0  0  0  0  0  0  0  0  0  0  0
    7.0640    1.6091    0.0000 H   0  0  0  0  0  0  0  0  0  0  0  0
    5.6610    1.4191    0.0000 H   0  0  0  0  0  0  0  0  0  0  0  0
    7.9018    1.5432    0.0000 H   0  0  0  0  0  0  0  0  0  0  0  0
    8.0883   -1.0725    0.0000 H   0  0  0  0  0  0  0  0  0  0  0  0
    8.8767   -0.8149    0.0000 H   0  0  0  0  0  0  0  0  0  0  0  0
    6.7612   -2.3228    0.0000 H   0  0  0  0  0  0  0  0  0  0  0  0
    7.1523   -1.6269    0.0000 H   0  0  0  0  0  0  0  0  0  0  0  0
    9.3838   -0.1156    0.0000 H   0  0  0  0  0  0  0  0  0  0  0  0
    9.3838    0.7138    0.0000 H   0  0  0  0  0  0  0  0  0  0  0  0
    8.0131    1.7991    0.0000 H   0  0  0  0  0  0  0  0  0  0  0  0
    7.3931    2.4191    0.0000 H   0  0  0  0  0  0  0  0  0  0  0  0
    6.7731    1.7991    0.0000 H   0  0  0  0  0  0  0  0  0  0  0  0
    5.2478   -2.7462    0.0000 H   0  0  0  0  0  0  0  0  0  0  0  0
    6.0460   -2.7431    0.0000 H   0  0  0  0  0  0  0  0  0  0  0  0
    4.2324    0.3230    0.0000 H   0  0  0  0  0  0  0  0  0  0  0  0
    3.4343    0.3384    0.0000 H   0  0  0  0  0  0  0  0  0  0  0  0
    7.1471    2.2991    0.0000 H   0  0  0  0  0  0  0  0  0  0  0  0
    6.5271    2.9191    0.0000 H   0  0  0  0  0  0  0  0  0  0  0  0
    5.9071    2.2991    0.0000 H   0  0  0  0  0  0  0  0  0  0  0  0
    5.3787    0.2874    0.0000 H   0  0  0  0  0  0  0  0  0  0  0  0
    4.7635    0.9122    0.0000 H   0  0  0  0  0  0  0  0  0  0  0  0
    4.1388    0.2970    0.0000 H   0  0  0  0  0  0  0  0  0  0  0  0
    4.7950    1.9191    0.0000 H   0  0  0  0  0  0  0  0  0  0  0  0
    2.6718   -0.0863    0.0000 H   0  0  0  0  0  0  0  0  0  0  0  0
    2.2647   -0.7730    0.0000 H   0  0  0  0  0  0  0  0  0  0  0  0
    3.8100   -2.9191    0.0000 H   0  0  0  0  0  0  0  0  0  0  0  0
    9.2566    2.1822    0.0000 H   0  0  0  0  0  0  0  0  0  0  0  0
  9  1  1  1  0  0  0
  1 49  1  0  0  0  0
 11  2  1  1  0  0  0
  2 53  1  0  0  0  0
  3 23  2  0  0  0  0
  4  5  1  0  0  0  0
  4  8  1  0  0  0  0
  4 11  1  0  0  0  0
  4 15  1  1  0  0  0
  5  6  1  0  0  0  0
  5 12  1  0  0  0  0
  5 24  1  6  0  0  0
  6  7  1  0  0  0  0
  6 13  1  0  0  0  0
  6 25  1  1  0  0  0
  7  9  1  0  0  0  0
  7 10  1  0  0  0  0
  7 26  1  6  0  0  0
  8  9  1  0  0  0  0
  8 19  1  6  0  0  0
  8 27  1  0  0  0  0
  9 28  1  0  0  0  0
 10 16  1  0  0  0  0
 10 18  1  0  0  0  0
 10 20  1  1  0  0  0
 11 14  1  0  0  0  0
 11 29  1  0  0  0  0
 12 14  1  0  0  0  0
 12 30  1  0  0  0  0
 12 31  1  0  0  0  0
 13 17  1  0  0  0  0
 13 32  1  0  0  0  0
 13 33  1  0  0  0  0
 14 34  1  0  0  0  0
 14 35  1  0  0  0  0
 15 36  1  0  0  0  0
 15 37  1  0  0  0  0
 15 38  1  0  0  0  0
 16 17  1  0  0  0  0
 16 22  2  0  0  0  0
 17 39  1  0  0  0  0
 17 40  1  0  0  0  0
 18 21  1  0  0  0  0
 18 41  1  0  0  0  0
 18 42  1  0  0  0  0
 19 43  1  0  0  0  0
 19 44  1  0  0  0  0
 19 45  1  0  0  0  0
 20 46  1  0  0  0  0
 20 47  1  0  0  0  0
 20 48  1  0  0  0  0
 21 23  1  0  0  0  0
 21 50  1  0  0  0  0
 21 51  1  0  0  0  0
 22 23  1  0  0  0  0
 22 52  1  0  0  0  0
M  END
> <PUBCHEM_COMPOUND_CID>
251632

> <PUBCHEM_COMPOUND_CANONICALIZED>
1

> <PUBCHEM_CACTVS_COMPLEXITY>
567

> <PUBCHEM_CACTVS_HBOND_ACCEPTOR>
3

> <PUBCHEM_CACTVS_HBOND_DONOR>
2

> <PUBCHEM_CACTVS_ROTATABLE_BOND>
0

> <PUBCHEM_CACTVS_SUBSKEYS>
AAADceB4MAAAAAAAAAAAAAAAAAAAAYAAAAAwYIAAAAAAAGDAAAAAGgAACAAADxSggAICAAAAAgCIAqBSAAAAAAAgAAAACAEAAEgAEBIAAQAAQAAEgAAIAQPIyPCPgAAAAAAAAADAAAYAADAAAIAADAAAAA==

> <PUBCHEM_IUPAC_OPENEYE_NAME>
(8S,9S,10R,11S,12R,13R,14S,17S)-11,17-dihydroxy-10,12,13-trimethyl-1,2,6,7,8,9,11,12,14,15,16,17-dodecahydrocyclopenta[a]phenanthren-3-one

> <PUBCHEM_IUPAC_CAS_NAME>
(8S,9S,10R,11S,12R,13R,14S,17S)-11,17-dihydroxy-10,12,13-trimethyl-1,2,6,7,8,9,11,12,14,15,16,17-dodecahydrocyclopenta[a]phenanthren-3-one

> <PUBCHEM_IUPAC_NAME>
(8S,9S,10R,11S,12R,13R,14S,17S)-11,17-dihydroxy-10,12,13-trimethyl-1,2,6,7,8,9,11,12,14,15,16,17-dodecahydrocyclopenta[a]phenanthren-3-one

> <PUBCHEM_IUPAC_SYSTEMATIC_NAME>
(8S,9S,10R,11S,12R,13R,14S,17S)-10,12,13-trimethyl-11,17-bis(oxidanyl)-1,2,6,7,8,9,11,12,14,15,16,17-dodecahydrocyclopenta[a]phenanthren-3-one

> <PUBCHEM_IUPAC_TRADITIONAL_NAME>
(8S,9S,10R,11S,12R,13R,14S,17S)-11,17-dihydroxy-10,12,13-trimethyl-1,2,6,7,8,9,11,12,14,15,16,17-dodecahydrocyclopenta[a]phenanthren-3-one

> <PUBCHEM_IUPAC_INCHI>
InChI=1S/C20H30O3/c1-11-18(23)17-14(15-6-7-16(22)20(11,15)3)5-4-12-10-13(21)8-9-19(12,17)2/h10-11,14-18,22-23H,4-9H2,1-3H3/t11-,14-,15-,16-,17+,18-,19-,20-/m0/s1

> <PUBCHEM_IUPAC_INCHIKEY>
RYEZPKROXBMJEA-ZNNJTFIOSA-N

> <PUBCHEM_XLOGP3>
2.6

> <PUBCHEM_EXACT_MASS>
318.219495

> <PUBCHEM_MOLECULAR_FORMULA>
C20H30O3

> <PUBCHEM_MOLECULAR_WEIGHT>
318.4504

> <PUBCHEM_OPENEYE_CAN_SMILES>
CC1C(C2C(CCC3=CC(=O)CCC23C)C4C1(C(CC4)O)C)O

> <PUBCHEM_OPENEYE_ISO_SMILES>
C[C@H]1[C@@H]([C@H]2[C@@H](CCC3=CC(=O)CC[C@]23C)[C@H]4[C@]1([C@H](CC4)O)C)O

> <PUBCHEM_CACTVS_TPSA>
57.5

> <PUBCHEM_MONOISOTOPIC_WEIGHT>
318.219495

> <PUBCHEM_TOTAL_CHARGE>
0

> <PUBCHEM_HEAVY_ATOM_COUNT>
23

> <PUBCHEM_ATOM_DEF_STEREO_COUNT>
8

> <PUBCHEM_ATOM_UDEF_STEREO_COUNT>
0

> <PUBCHEM_BOND_DEF_STEREO_COUNT>
0

> <PUBCHEM_BOND_UDEF_STEREO_COUNT>
0

> <PUBCHEM_ISOTOPIC_ATOM_COUNT>
0

> <PUBCHEM_COMPONENT_COUNT>
1

> <PUBCHEM_CACTVS_TAUTO_COUNT>
5

> <PUBCHEM_COORDINATE_TYPE>
1
5
255

> <PUBCHEM_BONDANNOTATIONS>
9  1  5
10  20  5
11  2  5
4  15  5
5  24  6
6  25  5
7  26  6
8  19  6

$$$$

