23724766
  -OEChem-07051213083D

 16 16  0     1  0  0  0  0  0999 V2000
    1.6141    1.0161   -0.9296 F   0  0  0  0  0  0  0  0  0  0  0  0
    1.3100    0.5964    1.2401 O   0  0  0  0  0  0  0  0  0  0  0  0
    1.3057   -1.8059    0.1750 O   0  0  0  0  0  0  0  0  0  0  0  0
    0.6952    0.5340   -0.0441 C   0  0  2  0  0  0  0  0  0  0  0  0
    0.3753   -0.9238   -0.4494 C   0  0  2  0  0  0  0  0  0  0  0  0
   -0.5058    1.4389   -0.0189 C   0  0  0  0  0  0  0  0  0  0  0  0
   -1.0319   -1.3520   -0.1224 C   0  0  0  0  0  0  0  0  0  0  0  0
   -1.7554    0.9575    0.0422 C   0  0  0  0  0  0  0  0  0  0  0  0
   -2.0072   -0.4611    0.1071 C   0  0  0  0  0  0  0  0  0  0  0  0
    0.5130   -1.0301   -1.5327 H   0  0  0  0  0  0  0  0  0  0  0  0
   -0.3425    2.5122   -0.0401 H   0  0  0  0  0  0  0  0  0  0  0  0
   -1.2640   -2.4128   -0.1065 H   0  0  0  0  0  0  0  0  0  0  0  0
   -2.6076    1.6275    0.0699 H   0  0  0  0  0  0  0  0  0  0  0  0
   -3.0188   -0.7886    0.3201 H   0  0  0  0  0  0  0  0  0  0  0  0
    1.8122    1.4286    1.2733 H   0  0  0  0  0  0  0  0  0  0  0  0
    1.1194   -2.7071   -0.1399 H   0  0  0  0  0  0  0  0  0  0  0  0
  1  4  1  0  0  0  0
  2  4  1  0  0  0  0
  2 15  1  0  0  0  0
  3  5  1  0  0  0  0
  3 16  1  0  0  0  0
  4  5  1  0  0  0  0
  4  6  1  0  0  0  0
  5  7  1  0  0  0  0
  5 10  1  0  0  0  0
  6  8  2  0  0  0  0
  6 11  1  0  0  0  0
  7  9  2  0  0  0  0
  7 12  1  0  0  0  0
  8  9  1  0  0  0  0
  8 13  1  0  0  0  0
  9 14  1  0  0  0  0
M  END
> <PUBCHEM_COMPOUND_CID>
23724766

> <PUBCHEM_CONFORMER_RMSD>
0.4

> <PUBCHEM_CONFORMER_DIVERSEORDER>
1
2

> <PUBCHEM_MMFF94_PARTIAL_CHARGES>
15
1 -0.34
11 0.15
12 0.15
13 0.15
14 0.15
15 0.4
16 0.4
2 -0.68
3 -0.68
4 0.76
5 0.42
6 -0.29
7 -0.29
8 -0.15
9 -0.15

> <PUBCHEM_EFFECTIVE_ROTOR_COUNT>
0.4

> <PUBCHEM_PHARMACOPHORE_FEATURES>
5
1 2 acceptor
1 2 donor
1 3 acceptor
1 3 donor
6 4 5 6 7 8 9 rings

> <PUBCHEM_HEAVY_ATOM_COUNT>
9

> <PUBCHEM_ATOM_DEF_STEREO_COUNT>
2

> <PUBCHEM_ATOM_UDEF_STEREO_COUNT>
0

> <PUBCHEM_BOND_DEF_STEREO_COUNT>
0

> <PUBCHEM_BOND_UDEF_STEREO_COUNT>
0

> <PUBCHEM_ISOTOPIC_ATOM_COUNT>
0

> <PUBCHEM_COMPONENT_COUNT>
1

> <PUBCHEM_CACTVS_TAUTO_COUNT>
1

> <PUBCHEM_CONFORMER_ID>
016A02DE00000001

> <PUBCHEM_MMFF94_ENERGY>
13.1753

> <PUBCHEM_FEATURE_SELFOVERLAP>
25.392

> <PUBCHEM_SHAPE_FINGERPRINT>
12423570 1 6668299398384186008
16714656 1 18049990113200685149
16945 1 18411976970636476237
18185500 45 18265900155227728935
21040471 1 18408604760111096861
23552423 10 18343576369431535391
241688 4 18124597732649259833
24536 1 18272939331758366053
29004967 10 18200020751480834985
5084963 1 17753878429253493591

> <PUBCHEM_SHAPE_MULTIPOLES>
166.2
2.19
1.75
0.82
0.42
0.32
0.08
-0.02
0.08
-0.15
-0.04
-0.28
-0.14
-0.06

> <PUBCHEM_SHAPE_SELFOVERLAP>
340.746

> <PUBCHEM_SHAPE_VOLUME>
95.5

> <PUBCHEM_COORDINATE_TYPE>
2
5
10

$$$$

