9512
  -OEChem-06261203463D

 32 33  0     0  0  0  0  0  0999 V2000
   -2.7439   -2.1762   -0.0230 F   0  0  0  0  0  0  0  0  0  0  0  0
    4.8814   -0.0386   -0.1791 N   0  0  0  0  0  0  0  0  0  0  0  0
   -0.6563    0.2228    0.6026 N   0  0  0  0  0  0  0  0  0  0  0  0
   -1.2503    0.1144   -0.4958 N   0  0  0  0  0  0  0  0  0  0  0  0
    3.4862    0.0275    0.0176 C   0  0  0  0  0  0  0  0  0  0  0  0
    2.8335    1.2596   -0.0235 C   0  0  0  0  0  0  0  0  0  0  0  0
    2.7592   -1.1394    0.2534 C   0  0  0  0  0  0  0  0  0  0  0  0
    0.7269    0.1582    0.4071 C   0  0  0  0  0  0  0  0  0  0  0  0
    1.4539    1.3250    0.1714 C   0  0  0  0  0  0  0  0  0  0  0  0
    1.3794   -1.0740    0.4482 C   0  0  0  0  0  0  0  0  0  0  0  0
    5.7306    1.0698    0.2089 C   0  0  0  0  0  0  0  0  0  0  0  0
    5.4854   -1.2217   -0.7593 C   0  0  0  0  0  0  0  0  0  0  0  0
   -2.6403    0.1792   -0.2988 C   0  0  0  0  0  0  0  0  0  0  0  0
   -3.3617   -0.9874   -0.0643 C   0  0  0  0  0  0  0  0  0  0  0  0
   -3.2850    1.4116   -0.3404 C   0  0  0  0  0  0  0  0  0  0  0  0
   -4.7414   -0.9207    0.1307 C   0  0  0  0  0  0  0  0  0  0  0  0
   -4.6646    1.4781   -0.1456 C   0  0  0  0  0  0  0  0  0  0  0  0
   -5.3928    0.3120    0.0899 C   0  0  0  0  0  0  0  0  0  0  0  0
    3.3679    2.1854   -0.2165 H   0  0  0  0  0  0  0  0  0  0  0  0
    3.2377   -2.1134    0.3039 H   0  0  0  0  0  0  0  0  0  0  0  0
    0.9537    2.2893    0.1357 H   0  0  0  0  0  0  0  0  0  0  0  0
    0.8216   -1.9882    0.6345 H   0  0  0  0  0  0  0  0  0  0  0  0
    5.6975    1.8658   -0.5424 H   0  0  0  0  0  0  0  0  0  0  0  0
    6.7751    0.7528    0.3062 H   0  0  0  0  0  0  0  0  0  0  0  0
    5.4349    1.4806    1.1809 H   0  0  0  0  0  0  0  0  0  0  0  0
    6.4855   -1.0031   -1.1503 H   0  0  0  0  0  0  0  0  0  0  0  0
    4.8955   -1.6021   -1.6009 H   0  0  0  0  0  0  0  0  0  0  0  0
    5.5910   -2.0116   -0.0084 H   0  0  0  0  0  0  0  0  0  0  0  0
   -2.7257    2.3249   -0.5241 H   0  0  0  0  0  0  0  0  0  0  0  0
   -5.3081   -1.8287    0.3141 H   0  0  0  0  0  0  0  0  0  0  0  0
   -5.1720    2.4379   -0.1774 H   0  0  0  0  0  0  0  0  0  0  0  0
   -6.4669    0.3639    0.2416 H   0  0  0  0  0  0  0  0  0  0  0  0
  1 14  1  0  0  0  0
  2  5  1  0  0  0  0
  2 11  1  0  0  0  0
  2 12  1  0  0  0  0
  3  4  2  0  0  0  0
  3  8  1  0  0  0  0
  4 13  1  0  0  0  0
  5  6  2  0  0  0  0
  5  7  1  0  0  0  0
  6  9  1  0  0  0  0
  6 19  1  0  0  0  0
  7 10  2  0  0  0  0
  7 20  1  0  0  0  0
  8  9  2  0  0  0  0
  8 10  1  0  0  0  0
  9 21  1  0  0  0  0
 10 22  1  0  0  0  0
 11 23  1  0  0  0  0
 11 24  1  0  0  0  0
 11 25  1  0  0  0  0
 12 26  1  0  0  0  0
 12 27  1  0  0  0  0
 12 28  1  0  0  0  0
 13 14  1  0  0  0  0
 13 15  2  0  0  0  0
 14 16  2  0  0  0  0
 15 17  1  0  0  0  0
 15 29  1  0  0  0  0
 16 18  1  0  0  0  0
 16 30  1  0  0  0  0
 17 18  2  0  0  0  0
 17 31  1  0  0  0  0
 18 32  1  0  0  0  0
M  END
> <PUBCHEM_COMPOUND_CID>
9512

> <PUBCHEM_CONFORMER_RMSD>
0.6

> <PUBCHEM_CONFORMER_DIVERSEORDER>
1
8
6
5
2
4
7
3

> <PUBCHEM_MMFF94_PARTIAL_CHARGES>
26
1 -0.19
10 -0.15
11 0.37
12 0.37
13 0.18
14 0.19
15 -0.15
16 -0.15
17 -0.15
18 -0.15
19 0.15
2 -0.84
20 0.15
21 0.15
22 0.15
29 0.15
3 -0.18
30 0.15
31 0.15
32 0.15
4 -0.18
5 0.1
6 -0.15
7 -0.15
8 0.18
9 -0.15

> <PUBCHEM_EFFECTIVE_ROTOR_COUNT>
3

> <PUBCHEM_PHARMACOPHORE_FEATURES>
3
1 2 cation
6 13 14 15 16 17 18 rings
6 5 6 7 8 9 10 rings

> <PUBCHEM_HEAVY_ATOM_COUNT>
18

> <PUBCHEM_ATOM_DEF_STEREO_COUNT>
0

> <PUBCHEM_ATOM_UDEF_STEREO_COUNT>
0

> <PUBCHEM_BOND_DEF_STEREO_COUNT>
0

> <PUBCHEM_BOND_UDEF_STEREO_COUNT>
0

> <PUBCHEM_ISOTOPIC_ATOM_COUNT>
0

> <PUBCHEM_COMPONENT_COUNT>
1

> <PUBCHEM_CACTVS_TAUTO_COUNT>
1

> <PUBCHEM_CONFORMER_ID>
0000252800000001

> <PUBCHEM_MMFF94_ENERGY>
61.6868

> <PUBCHEM_FEATURE_SELFOVERLAP>
15.223

> <PUBCHEM_SHAPE_FINGERPRINT>
10616163 171 18410293571512425127
11287383 113 18410855443428457536
12107183 9 17620197967392286233
12236239 1 17967812760201230456
128620 24 13686299093047873979
13167823 11 18412265021176663367
14251731 8 18408886256594214661
14251764 18 18113614582783350225
14341114 176 18410288116465583117
15196674 1 18410857659394283314
15242433 33 18411702109899098739
15788980 27 18342172271792450258
17834072 33 18409729547542334076
17844677 252 18408597072056729784
18186145 218 18202293488927882549
18222031 100 5112007240449972730
200 152 18186519899553109457
20621476 66 18114454678223593425
20645477 56 18341898506698975221
20645477 70 18114740538308886326
20681677 155 18341896298769150899
21267235 1 18412819171348607283
21709351 56 18343589516300029165
221490 88 18268143150326770082
2297311 6 18409722976564202613
23035841 295 18410572916200700506
23402539 116 16988567904836539644
23402655 69 18412546526260200224
23536379 177 18409448107146849480
23557571 272 18341327889601319997
23559900 14 18335430019494597513
239999 70 18334010610618959558
29717793 49 17531241803412060028
300161 21 18272378585033503233
3004659 81 18341610460738955790
34797466 226 17895184468637797916
3545911 37 18411982472874834145
4073 2 18129940088161415090
4214541 1 18410856568694116709
42788 4 18410856564166969384
4990 188 18408036330058935422
5104073 3 18412266142162959696
542803 24 17385442128703757497
633830 44 17846501379108696664
77779 3 18412263934913771961
9709674 26 18410570678570627807

> <PUBCHEM_SHAPE_MULTIPOLES>
348.21
13.72
1.64
0.7
3.06
0.18
0.01
-0.45
1.24
-0.35
0.04
0.18
0.03
0.46

> <PUBCHEM_SHAPE_SELFOVERLAP>
742.191

> <PUBCHEM_SHAPE_VOLUME>
196

> <PUBCHEM_COORDINATE_TYPE>
2
5
10

$$$$

