46173831
  -OEChem-07051213093D

 72 76  0     1  0  0  0  0  0999 V2000
   -3.9789    0.7835    0.7477 O   0  0  0  0  0  0  0  0  0  0  0  0
   -0.5788    1.1962   -0.5583 O   0  0  0  0  0  0  0  0  0  0  0  0
   -2.2320    2.3987   -2.6055 O   0  0  0  0  0  0  0  0  0  0  0  0
   -4.5842    3.6406   -1.4855 O   0  0  0  0  0  0  0  0  0  0  0  0
    2.8622   -1.1223    1.1610 O   0  0  0  0  0  0  0  0  0  0  0  0
    3.2832    0.7765   -0.1281 O   0  0  0  0  0  0  0  0  0  0  0  0
   -6.3758    1.5849    1.8072 O   0  0  0  0  0  0  0  0  0  0  0  0
    5.6504   -1.7308    1.1156 O   0  0  0  0  0  0  0  0  0  0  0  0
    6.9648   -0.6631   -1.2507 O   0  0  0  0  0  0  0  0  0  0  0  0
    6.3723    2.1269   -1.5857 O   0  0  0  0  0  0  0  0  0  0  0  0
    1.2501   -1.8497   -0.7242 O   0  0  0  0  0  0  0  0  0  0  0  0
   -0.1344   -3.5695   -2.0681 O   0  0  0  0  0  0  0  0  0  0  0  0
    2.3886    3.3201   -0.6207 O   0  0  0  0  0  0  0  0  0  0  0  0
   -2.5531    0.8267    0.7765 C   0  0  1  0  0  0  0  0  0  0  0  0
   -2.0714   -0.5156    1.3473 C   0  0  2  0  0  0  0  0  0  0  0  0
   -1.9961    1.0662   -0.6266 C   0  0  1  0  0  0  0  0  0  0  0  0
   -2.5940    2.3399   -1.2245 C   0  0  2  0  0  0  0  0  0  0  0  0
   -4.1188    2.3489   -1.1036 C   0  0  1  0  0  0  0  0  0  0  0  0
   -4.5503    2.0263    0.3307 C   0  0  1  0  0  0  0  0  0  0  0  0
   -0.6763   -0.3625    1.9181 C   0  0  0  0  0  0  0  0  0  0  0  0
   -2.1864   -1.5960    0.2911 C   0  0  0  0  0  0  0  0  0  0  0  0
    0.4514   -0.8544    1.2491 C   0  0  0  0  0  0  0  0  0  0  0  0
   -1.0623   -2.0907   -0.3819 C   0  0  0  0  0  0  0  0  0  0  0  0
   -6.0646    1.8924    0.4606 C   0  0  0  0  0  0  0  0  0  0  0  0
    0.2872   -1.6220   -0.0031 C   0  0  0  0  0  0  0  0  0  0  0  0
   -3.4520   -2.0940   -0.0599 C   0  0  0  0  0  0  0  0  0  0  0  0
   -0.4917    0.3241    3.1294 C   0  0  0  0  0  0  0  0  0  0  0  0
    3.8460   -0.1602    0.7875 C   0  0  2  0  0  0  0  0  0  0  0  0
    1.7361   -0.6516    1.7685 C   0  0  0  0  0  0  0  0  0  0  0  0
    5.0109   -0.9090    0.1399 C   0  0  1  0  0  0  0  0  0  0  0  0
    6.0484    0.0600   -0.4270 C   0  0  2  0  0  0  0  0  0  0  0  0
    5.3862    1.1457   -1.2755 C   0  0  1  0  0  0  0  0  0  0  0  0
    4.2157    1.7839   -0.5238 C   0  0  1  0  0  0  0  0  0  0  0  0
   -1.1992   -3.0487   -1.3943 C   0  0  0  0  0  0  0  0  0  0  0  0
   -3.5894   -3.0534   -1.0638 C   0  0  0  0  0  0  0  0  0  0  0  0
    0.7873    0.5214    3.6516 C   0  0  0  0  0  0  0  0  0  0  0  0
    1.8999    0.0372    2.9693 C   0  0  0  0  0  0  0  0  0  0  0  0
   -2.4640   -3.5270   -1.7327 C   0  0  0  0  0  0  0  0  0  0  0  0
    3.4553    2.7880   -1.3847 C   0  0  0  0  0  0  0  0  0  0  0  0
   -4.9425   -3.5676   -1.4228 C   0  0  0  0  0  0  0  0  0  0  0  0
   -2.2557    1.6428    1.4491 H   0  0  0  0  0  0  0  0  0  0  0  0
   -2.7213   -0.8228    2.1801 H   0  0  0  0  0  0  0  0  0  0  0  0
   -2.2235    0.2584   -1.3279 H   0  0  0  0  0  0  0  0  0  0  0  0
   -2.1584    3.2315   -0.7582 H   0  0  0  0  0  0  0  0  0  0  0  0
   -4.5486    1.6240   -1.8055 H   0  0  0  0  0  0  0  0  0  0  0  0
   -4.2211    2.8116    1.0248 H   0  0  0  0  0  0  0  0  0  0  0  0
   -6.4381    1.0738   -0.1637 H   0  0  0  0  0  0  0  0  0  0  0  0
   -6.5731    2.8207    0.1831 H   0  0  0  0  0  0  0  0  0  0  0  0
    4.2075    0.3645    1.6810 H   0  0  0  0  0  0  0  0  0  0  0  0
    4.6436   -1.5800   -0.6459 H   0  0  0  0  0  0  0  0  0  0  0  0
   -4.3392   -1.7362    0.4574 H   0  0  0  0  0  0  0  0  0  0  0  0
   -1.3486    0.7160    3.6723 H   0  0  0  0  0  0  0  0  0  0  0  0
    6.6476    0.5046    0.3766 H   0  0  0  0  0  0  0  0  0  0  0  0
   -0.3730    1.9553    0.0135 H   0  0  0  0  0  0  0  0  0  0  0  0
    5.0429    0.7148   -2.2239 H   0  0  0  0  0  0  0  0  0  0  0  0
    4.5657    2.3077    0.3762 H   0  0  0  0  0  0  0  0  0  0  0  0
   -2.6284    1.6337   -3.0563 H   0  0  0  0  0  0  0  0  0  0  0  0
   -4.2400    4.2856   -0.8444 H   0  0  0  0  0  0  0  0  0  0  0  0
    0.9134    1.0511    4.5913 H   0  0  0  0  0  0  0  0  0  0  0  0
    2.8814    0.1824    3.4114 H   0  0  0  0  0  0  0  0  0  0  0  0
   -2.5663   -4.2734   -2.5169 H   0  0  0  0  0  0  0  0  0  0  0  0
    4.1025    3.6091   -1.7075 H   0  0  0  0  0  0  0  0  0  0  0  0
    3.0239    2.2990   -2.2646 H   0  0  0  0  0  0  0  0  0  0  0  0
   -7.3427    1.5001    1.8661 H   0  0  0  0  0  0  0  0  0  0  0  0
   -4.8865   -4.5802   -1.8366 H   0  0  0  0  0  0  0  0  0  0  0  0
   -5.4082   -2.9121   -2.1653 H   0  0  0  0  0  0  0  0  0  0  0  0
   -5.5904   -3.6177   -0.5411 H   0  0  0  0  0  0  0  0  0  0  0  0
    5.9594   -1.1570    1.8374 H   0  0  0  0  0  0  0  0  0  0  0  0
    6.4607   -1.0775   -1.9716 H   0  0  0  0  0  0  0  0  0  0  0  0
    6.6531    2.5443   -0.7534 H   0  0  0  0  0  0  0  0  0  0  0  0
    0.6985   -3.2435   -1.6944 H   0  0  0  0  0  0  0  0  0  0  0  0
    1.9131    3.9488   -1.1901 H   0  0  0  0  0  0  0  0  0  0  0  0
  1 14  1  0  0  0  0
  1 19  1  0  0  0  0
  2 16  1  0  0  0  0
  2 54  1  0  0  0  0
  3 17  1  0  0  0  0
  3 57  1  0  0  0  0
  4 18  1  0  0  0  0
  4 58  1  0  0  0  0
  5 28  1  0  0  0  0
  5 29  1  0  0  0  0
  6 28  1  0  0  0  0
  6 33  1  0  0  0  0
  7 24  1  0  0  0  0
  7 64  1  0  0  0  0
  8 30  1  0  0  0  0
  8 68  1  0  0  0  0
  9 31  1  0  0  0  0
  9 69  1  0  0  0  0
 10 32  1  0  0  0  0
 10 70  1  0  0  0  0
 11 25  2  0  0  0  0
 12 34  1  0  0  0  0
 12 71  1  0  0  0  0
 13 39  1  0  0  0  0
 13 72  1  0  0  0  0
 14 15  1  0  0  0  0
 14 16  1  0  0  0  0
 14 41  1  0  0  0  0
 15 20  1  0  0  0  0
 15 21  1  0  0  0  0
 15 42  1  0  0  0  0
 16 17  1  0  0  0  0
 16 43  1  0  0  0  0
 17 18  1  0  0  0  0
 17 44  1  0  0  0  0
 18 19  1  0  0  0  0
 18 45  1  0  0  0  0
 19 24  1  0  0  0  0
 19 46  1  0  0  0  0
 20 22  2  0  0  0  0
 20 27  1  0  0  0  0
 21 23  2  0  0  0  0
 21 26  1  0  0  0  0
 22 25  1  0  0  0  0
 22 29  1  0  0  0  0
 23 25  1  0  0  0  0
 23 34  1  0  0  0  0
 24 47  1  0  0  0  0
 24 48  1  0  0  0  0
 26 35  2  0  0  0  0
 26 51  1  0  0  0  0
 27 36  2  0  0  0  0
 27 52  1  0  0  0  0
 28 30  1  0  0  0  0
 28 49  1  0  0  0  0
 29 37  2  0  0  0  0
 30 31  1  0  0  0  0
 30 50  1  0  0  0  0
 31 32  1  0  0  0  0
 31 53  1  0  0  0  0
 32 33  1  0  0  0  0
 32 55  1  0  0  0  0
 33 39  1  0  0  0  0
 33 56  1  0  0  0  0
 34 38  2  0  0  0  0
 35 38  1  0  0  0  0
 35 40  1  0  0  0  0
 36 37  1  0  0  0  0
 36 59  1  0  0  0  0
 37 60  1  0  0  0  0
 38 61  1  0  0  0  0
 39 62  1  0  0  0  0
 39 63  1  0  0  0  0
 40 65  1  0  0  0  0
 40 66  1  0  0  0  0
 40 67  1  0  0  0  0
M  END
> <PUBCHEM_COMPOUND_CID>
46173831

> <PUBCHEM_CONFORMER_RMSD>
1

> <PUBCHEM_CONFORMER_DIVERSEORDER>
1
31
12
19
16
23
26
29
35
34
4
17
2
28
21
36
22
32
20
14
10
8
5
11
24
33
9
18
6
27
3
30
15
25
13
7

> <PUBCHEM_MMFF94_PARTIAL_CHARGES>
54
1 -0.56
10 -0.68
11 -0.57
12 -0.53
13 -0.68
14 0.28
15 0.29
16 0.28
17 0.28
18 0.28
19 0.28
2 -0.68
20 -0.14
21 -0.14
22 0.09
23 0.09
24 0.28
25 0.4
26 -0.15
27 -0.15
28 0.56
29 0.08
3 -0.68
30 0.28
31 0.28
32 0.28
33 0.28
34 0.08
35 -0.14
36 -0.15
37 -0.15
38 -0.15
39 0.28
4 -0.68
40 0.14
5 -0.36
51 0.15
52 0.15
54 0.4
57 0.4
58 0.4
59 0.15
6 -0.56
60 0.15
61 0.15
64 0.4
68 0.4
69 0.4
7 -0.68
70 0.4
71 0.45
72 0.4
8 -0.68
9 -0.68

> <PUBCHEM_EFFECTIVE_ROTOR_COUNT>
7.6

> <PUBCHEM_PHARMACOPHORE_FEATURES>
26
1 1 acceptor
1 10 acceptor
1 10 donor
1 11 acceptor
1 12 donor
1 13 acceptor
1 13 donor
1 2 acceptor
1 2 donor
1 3 acceptor
1 3 donor
1 4 acceptor
1 4 donor
1 5 acceptor
1 6 acceptor
1 7 acceptor
1 7 donor
1 8 acceptor
1 8 donor
1 9 acceptor
1 9 donor
6 1 14 16 17 18 19 rings
6 15 20 21 22 23 25 rings
6 20 22 27 29 36 37 rings
6 21 23 26 34 35 38 rings
6 6 28 30 31 32 33 rings

> <PUBCHEM_HEAVY_ATOM_COUNT>
40

> <PUBCHEM_ATOM_DEF_STEREO_COUNT>
11

> <PUBCHEM_ATOM_UDEF_STEREO_COUNT>
0

> <PUBCHEM_BOND_DEF_STEREO_COUNT>
0

> <PUBCHEM_BOND_UDEF_STEREO_COUNT>
0

> <PUBCHEM_ISOTOPIC_ATOM_COUNT>
0

> <PUBCHEM_COMPONENT_COUNT>
1

> <PUBCHEM_CACTVS_TAUTO_COUNT>
65

> <PUBCHEM_CONFORMER_ID>
02C08E8700000001

> <PUBCHEM_MMFF94_ENERGY>
138.2008

> <PUBCHEM_FEATURE_SELFOVERLAP>
132.068

> <PUBCHEM_SHAPE_FINGERPRINT>
10165383 225 18187642561676999345
11578080 2 18115572855541659567
11991303 11 18409450302018257467
12107698 1 18060415845790731928
12422481 6 18270666620107690921
12633046 712 17748831791098881848
12788726 201 18127429881629952579
131258 43 17832424194521484103
13617811 41 17977121058555281303
13782708 43 17459193975734767575
14279260 333 17488187192138856466
14840074 17 18202002127680437357
14910302 57 17751930120445323738
15082195 135 18268451112272181055
15361156 5 17988064596856017172
15775530 1 16953976053477122659
15968369 153 18129658595535934441
17980427 26 17274272775788673162
21223535 225 17988926665701230476
21756936 100 17704070698844718776
22182313 1 17242478043287118171
22907989 373 18265636332846167103
25223398 141 18189070744986537571
2838139 119 18060699490205974792
3388396 114 17693092964163164196
340366 18 18338521953624049482
392239 28 16629941305655142537
4058900 60 17897999390393065555
508706 21 17775001233567255536
5252454 2 18262531397935196715
5265222 85 18187922824739988459
5951187 136 16907235084511314701
613672 6 16587745343921195554
7237137 82 18187645756674134114

> <PUBCHEM_SHAPE_MULTIPOLES>
746.88
13.44
4.34
2.7
12.22
1.17
-1.99
-5.1
4.65
-5.7
3.59
0.39
-0.61
-2.16

> <PUBCHEM_SHAPE_SELFOVERLAP>
1632.794

> <PUBCHEM_SHAPE_VOLUME>
397.9

> <PUBCHEM_COORDINATE_TYPE>
2
5
10

$$$$

