91596
  -OEChem-07051213133D

 28 28  0     0  0  0  0  0  0999 V2000
   -3.0395    0.3317   -0.2191 S   0  0  0  0  0  0  0  0  0  0  0  0
   -0.2718    1.4051   -0.3452 S   0  0  0  0  0  0  0  0  0  0  0  0
   -3.5051    1.3909    0.6780 O   0  0  0  0  0  0  0  0  0  0  0  0
   -3.2717    0.4467   -1.6607 O   0  0  0  0  0  0  0  0  0  0  0  0
    4.5508    0.4033   -0.1349 O   0  0  0  0  0  0  0  0  0  0  0  0
    2.2665    0.9080    0.1358 N   0  0  0  0  0  0  0  0  0  0  0  0
   -0.7540   -0.9470    0.5502 N   0  0  0  0  0  0  0  0  0  0  0  0
    0.6179   -0.7872    0.6383 N   0  0  0  0  0  0  0  0  0  0  0  0
    3.0203   -1.3080   -0.1778 N   0  0  0  0  0  0  0  0  0  0  0  0
   -3.7825   -1.2024    0.3181 C   0  0  0  0  0  0  0  0  0  0  0  0
   -1.3385    0.1224    0.0537 C   0  0  0  0  0  0  0  0  0  0  0  0
   -5.2846   -1.1820    0.1436 C   0  0  0  0  0  0  0  0  0  0  0  0
    0.9424    0.3708    0.2071 C   0  0  0  0  0  0  0  0  0  0  0  0
    2.4770    2.3599    0.2656 C   0  0  0  0  0  0  0  0  0  0  0  0
    3.3746    0.0378   -0.0601 C   0  0  0  0  0  0  0  0  0  0  0  0
    3.9982   -2.3502   -0.3926 C   0  0  0  0  0  0  0  0  0  0  0  0
   -3.3418   -2.0091   -0.2753 H   0  0  0  0  0  0  0  0  0  0  0  0
   -3.5235   -1.3447    1.3715 H   0  0  0  0  0  0  0  0  0  0  0  0
   -5.7198   -2.1282    0.4795 H   0  0  0  0  0  0  0  0  0  0  0  0
   -5.7394   -0.3729    0.7240 H   0  0  0  0  0  0  0  0  0  0  0  0
   -5.5595   -1.0344   -0.9057 H   0  0  0  0  0  0  0  0  0  0  0  0
    2.2071    2.8534   -0.6727 H   0  0  0  0  0  0  0  0  0  0  0  0
    3.5330    2.5681    0.4620 H   0  0  0  0  0  0  0  0  0  0  0  0
    1.8921    2.7522    1.1032 H   0  0  0  0  0  0  0  0  0  0  0  0
    2.0509   -1.5947   -0.2166 H   0  0  0  0  0  0  0  0  0  0  0  0
    4.8796   -2.1713    0.2287 H   0  0  0  0  0  0  0  0  0  0  0  0
    4.2866   -2.3438   -1.4467 H   0  0  0  0  0  0  0  0  0  0  0  0
    3.5469   -3.3111   -0.1356 H   0  0  0  0  0  0  0  0  0  0  0  0
  1  3  2  0  0  0  0
  1  4  2  0  0  0  0
  1 10  1  0  0  0  0
  1 11  1  0  0  0  0
  2 11  1  0  0  0  0
  2 13  1  0  0  0  0
  5 15  2  0  0  0  0
  6 13  1  0  0  0  0
  6 14  1  0  0  0  0
  6 15  1  0  0  0  0
  7  8  1  0  0  0  0
  7 11  2  0  0  0  0
  8 13  2  0  0  0  0
  9 15  1  0  0  0  0
  9 16  1  0  0  0  0
  9 25  1  0  0  0  0
 10 12  1  0  0  0  0
 10 17  1  0  0  0  0
 10 18  1  0  0  0  0
 12 19  1  0  0  0  0
 12 20  1  0  0  0  0
 12 21  1  0  0  0  0
 14 22  1  0  0  0  0
 14 23  1  0  0  0  0
 14 24  1  0  0  0  0
 16 26  1  0  0  0  0
 16 27  1  0  0  0  0
 16 28  1  0  0  0  0
M  END
> <PUBCHEM_COMPOUND_CID>
91596

> <PUBCHEM_CONFORMER_RMSD>
0.6

> <PUBCHEM_CONFORMER_DIVERSEORDER>
9
74
103
52
24
6
28
104
15
112
37
40
27
99
109
30
96
49
116
43
94
61
55
101
32
46
38
1
73
93
90
68
44
81
16
48
66
60
108
65
14
35
53
56
62
57
19
102
114
91
50
67
75
13
86
2
72
115
47
85
39
31
29
95
71
58
20
59
12
97
21
111
84
51
100
3
77
98
88
89
25
106
10
7
17
105
11
110
64
45
36
92
23
42
79
80
8
113
41
18
26
63
54
34
4
69
76
33
107
22
83
78
82
70
5
87

> <PUBCHEM_MMFF94_PARTIAL_CHARGES>
16
1 1.26
10 0.11
11 0.32
13 0.44
14 0.3
15 0.69
16 0.3
2 -0.08
25 0.37
3 -0.65
4 -0.65
5 -0.57
6 -0.42
7 -0.34
8 -0.34
9 -0.73

> <PUBCHEM_EFFECTIVE_ROTOR_COUNT>
5

> <PUBCHEM_PHARMACOPHORE_FEATURES>
6
1 3 acceptor
1 4 acceptor
1 5 acceptor
1 7 acceptor
1 9 donor
5 2 7 8 11 13 rings

> <PUBCHEM_HEAVY_ATOM_COUNT>
16

> <PUBCHEM_ATOM_DEF_STEREO_COUNT>
0

> <PUBCHEM_ATOM_UDEF_STEREO_COUNT>
0

> <PUBCHEM_BOND_DEF_STEREO_COUNT>
0

> <PUBCHEM_BOND_UDEF_STEREO_COUNT>
0

> <PUBCHEM_ISOTOPIC_ATOM_COUNT>
0

> <PUBCHEM_COMPONENT_COUNT>
1

> <PUBCHEM_CACTVS_TAUTO_COUNT>
2

> <PUBCHEM_CONFORMER_ID>
000165CC00000009

> <PUBCHEM_MMFF94_ENERGY>
31.1435

> <PUBCHEM_FEATURE_SELFOVERLAP>
30.462

> <PUBCHEM_SHAPE_FINGERPRINT>
10062212 137 17967536825995991167
11471102 20 18411421726271134788
12032990 46 18413386544685716323
12616999 72 18342449336402250638
12916754 54 18411135836168270705
12932764 1 17561090236728126873
13167823 11 18333168366857058463
13296908 3 18412266129547088701
13675066 3 17822295712048323265
14350574 20 18342171150748132655
15196674 1 18410572924405428770
15477762 27 18409165511325956332
15848702 151 18408320020774644551
17834074 16 18412542085385764347
18186145 218 18130791191243231545
19422 9 18334572451832397865
1986462 14 18272932747742371415
200 152 18040434399804742616
20281475 54 18411414055253861308
20645477 70 18409444821650303526
21267235 1 18410283692654640459
221490 88 18340480076084435458
22959321 4 18408885126949321969
23402539 116 18335142011403014028
23402655 69 18409733984037933093
23526113 38 18201714051006306808
23557571 272 17703515432651314477
23559900 14 18410579487516455288
23596394 208 17988374753149257815
2748010 2 18200871756163688336
2871803 45 18059582377818018107
3286 77 18410573989457124085
4990 188 18201722863889002298
5104073 3 18335421308904880202
5281201 14 18343300370511610740
69090 78 18337674105335957323
7364860 26 18336546006764652768
77779 3 18409164411624522001
9709674 26 18340762663463047954

> <PUBCHEM_SHAPE_MULTIPOLES>
299.44
9.67
2.05
0.83
3.3
0.1
-0.2
3.67
-0.5
-1.72
0.02
0.52
-0.07
0.54

> <PUBCHEM_SHAPE_SELFOVERLAP>
576.827

> <PUBCHEM_SHAPE_VOLUME>
185

> <PUBCHEM_COORDINATE_TYPE>
2
5
10

$$$$

