6298
  -OEChem-06261201142D

 83 84  0     1  0  0  0  0  0999 V2000
    5.1520    0.0000    0.0000 I   0  5  0  0  0  0  0  0  0  0  0  0
    5.1520    2.5476    0.0000 I   0  5  0  0  0  0  0  0  0  0  0  0
    8.9177   10.8089    0.0000 N   0  3  0  0  0  0  0  0  0  0  0  0
    2.2678    6.5013    0.0000 N   0  3  0  0  0  0  0  0  0  0  0  0
    7.6609    9.5536    0.0000 C   0  0  1  0  0  0  0  0  0  0  0  0
    7.6609    8.5536    0.0000 C   0  0  3  0  0  0  0  0  0  0  0  0
    6.7948    8.0536    0.0000 C   0  0  1  0  0  0  0  0  0  0  0  0
    5.9288    8.5536    0.0000 C   0  0  3  0  0  0  0  0  0  0  0  0
    5.0188    8.0468    0.0000 C   0  0  2  0  0  0  0  0  0  0  0  0
    8.6071    9.8584    0.0000 C   0  0  1  0  0  0  0  0  0  0  0  0
    5.0108    7.0052    0.0000 C   0  0  1  0  0  0  0  0  0  0  0  0
    6.7948   10.0536    0.0000 C   0  0  0  0  0  0  0  0  0  0  0  0
    5.9288    9.5536    0.0000 C   0  0  0  0  0  0  0  0  0  0  0  0
    8.6071    8.2489    0.0000 C   0  0  0  0  0  0  0  0  0  0  0  0
    6.8109    7.0121    0.0000 C   0  0  0  0  0  0  0  0  0  0  0  0
    9.1907    9.0536    0.0000 C   0  0  0  0  0  0  0  0  0  0  0  0
    5.9129    6.4844    0.0000 C   0  0  0  0  0  0  0  0  0  0  0  0
    4.0920    8.6109    0.0000 C   0  0  0  0  0  0  0  0  0  0  0  0
    4.0754    6.4555    0.0000 C   0  0  0  0  0  0  0  0  0  0  0  0
    7.6609   10.5536    0.0000 C   0  0  0  0  0  0  0  0  0  0  0  0
    3.1357    6.9980    0.0000 C   0  0  1  0  0  0  0  0  0  0  0  0
    3.1441    8.0829    0.0000 C   0  0  0  0  0  0  0  0  0  0  0  0
    5.0265    9.0468    0.0000 C   0  0  0  0  0  0  0  0  0  0  0  0
    9.2284   11.7594    0.0000 C   0  0  0  0  0  0  0  0  0  0  0  0
    9.8683   10.4982    0.0000 C   0  0  0  0  0  0  0  0  0  0  0  0
    7.9672   11.1195    0.0000 C   0  0  0  0  0  0  0  0  0  0  0  0
    1.3998    6.0046    0.0000 C   0  0  0  0  0  0  0  0  0  0  0  0
    1.7711    7.3692    0.0000 C   0  0  0  0  0  0  0  0  0  0  0  0
    2.7644    5.6334    0.0000 C   0  0  0  0  0  0  0  0  0  0  0  0
   10.2069   11.9656    0.0000 C   0  0  0  0  0  0  0  0  0  0  0  0
    0.5357    6.5080    0.0000 C   0  0  0  0  0  0  0  0  0  0  0  0
    7.7265    7.9371    0.0000 H   0  0  0  0  0  0  0  0  0  0  0  0
    7.5342    7.6343    0.0000 H   0  0  0  0  0  0  0  0  0  0  0  0
    6.4657    8.8636    0.0000 H   0  0  0  0  0  0  0  0  0  0  0  0
    9.2196    9.9546    0.0000 H   0  0  0  0  0  0  0  0  0  0  0  0
    5.0140    6.1552    0.0000 H   0  0  0  0  0  0  0  0  0  0  0  0
    7.1934   10.5286    0.0000 H   0  0  0  0  0  0  0  0  0  0  0  0
    6.3963   10.5286    0.0000 H   0  0  0  0  0  0  0  0  0  0  0  0
    5.7168   10.1362    0.0000 H   0  0  0  0  0  0  0  0  0  0  0  0
    5.3182    9.4460    0.0000 H   0  0  0  0  0  0  0  0  0  0  0  0
    8.3560    7.6820    0.0000 H   0  0  0  0  0  0  0  0  0  0  0  0
    9.1445    7.9397    0.0000 H   0  0  0  0  0  0  0  0  0  0  0  0
    7.0289    6.4317    0.0000 H   0  0  0  0  0  0  0  0  0  0  0  0
    7.4200    7.1276    0.0000 H   0  0  0  0  0  0  0  0  0  0  0  0
    9.6516    8.6389    0.0000 H   0  0  0  0  0  0  0  0  0  0  0  0
    9.6516    9.4684    0.0000 H   0  0  0  0  0  0  0  0  0  0  0  0
    5.5156    6.0084    0.0000 H   0  0  0  0  0  0  0  0  0  0  0  0
    6.3138    6.0115    0.0000 H   0  0  0  0  0  0  0  0  0  0  0  0
    4.5002    9.0775    0.0000 H   0  0  0  0  0  0  0  0  0  0  0  0
    3.7020    9.0929    0.0000 H   0  0  0  0  0  0  0  0  0  0  0  0
    3.6780    5.9795    0.0000 H   0  0  0  0  0  0  0  0  0  0  0  0
    4.4763    5.9826    0.0000 H   0  0  0  0  0  0  0  0  0  0  0  0
    8.2809   10.5536    0.0000 H   0  0  0  0  0  0  0  0  0  0  0  0
    7.6609   11.1736    0.0000 H   0  0  0  0  0  0  0  0  0  0  0  0
    7.0409   10.5536    0.0000 H   0  0  0  0  0  0  0  0  0  0  0  0
    3.1345    6.3780    0.0000 H   0  0  0  0  0  0  0  0  0  0  0  0
    2.9395    8.6682    0.0000 H   0  0  0  0  0  0  0  0  0  0  0  0
    2.5324    7.9815    0.0000 H   0  0  0  0  0  0  0  0  0  0  0  0
    5.6465    9.0420    0.0000 H   0  0  0  0  0  0  0  0  0  0  0  0
    5.0313    9.6667    0.0000 H   0  0  0  0  0  0  0  0  0  0  0  0
    4.4065    9.0515    0.0000 H   0  0  0  0  0  0  0  0  0  0  0  0
    9.2078   12.3791    0.0000 H   0  0  0  0  0  0  0  0  0  0  0  0
    8.6146   11.8468    0.0000 H   0  0  0  0  0  0  0  0  0  0  0  0
    8.1598   11.7089    0.0000 H   0  0  0  0  0  0  0  0  0  0  0  0
    7.3779   11.3122    0.0000 H   0  0  0  0  0  0  0  0  0  0  0  0
    7.7746   10.5302    0.0000 H   0  0  0  0  0  0  0  0  0  0  0  0
    9.6756    9.9089    0.0000 H   0  0  0  0  0  0  0  0  0  0  0  0
   10.4576   10.3056    0.0000 H   0  0  0  0  0  0  0  0  0  0  0  0
   10.0609   11.0875    0.0000 H   0  0  0  0  0  0  0  0  0  0  0  0
    0.9995    5.5312    0.0000 H   0  0  0  0  0  0  0  0  0  0  0  0
    1.7965    5.5282    0.0000 H   0  0  0  0  0  0  0  0  0  0  0  0
    2.2263    5.3254    0.0000 H   0  0  0  0  0  0  0  0  0  0  0  0
    3.0724    5.0952    0.0000 H   0  0  0  0  0  0  0  0  0  0  0  0
    3.3026    5.9413    0.0000 H   0  0  0  0  0  0  0  0  0  0  0  0
    2.3092    7.6772    0.0000 H   0  0  0  0  0  0  0  0  0  0  0  0
    1.4632    7.9074    0.0000 H   0  0  0  0  0  0  0  0  0  0  0  0
    1.2330    7.0613    0.0000 H   0  0  0  0  0  0  0  0  0  0  0  0
   10.3348   11.3589    0.0000 H   0  0  0  0  0  0  0  0  0  0  0  0
   10.8136   12.0935    0.0000 H   0  0  0  0  0  0  0  0  0  0  0  0
   10.0791   12.5723    0.0000 H   0  0  0  0  0  0  0  0  0  0  0  0
    0.8478    7.0437    0.0000 H   0  0  0  0  0  0  0  0  0  0  0  0
    0.0000    6.8200    0.0000 H   0  0  0  0  0  0  0  0  0  0  0  0
    0.2237    5.9722    0.0000 H   0  0  0  0  0  0  0  0  0  0  0  0
 10  3  1  6  0  0  0
  3 24  1  0  0  0  0
  3 25  1  0  0  0  0
  3 26  1  0  0  0  0
 21  4  1  6  0  0  0
  4 27  1  0  0  0  0
  4 28  1  0  0  0  0
  4 29  1  0  0  0  0
  5  6  1  0  0  0  0
  5 10  1  0  0  0  0
  5 12  1  0  0  0  0
  5 20  1  1  0  0  0
  6  7  1  0  0  0  0
  6 14  1  0  0  0  0
  6 32  1  0  0  0  0
  7  8  1  0  0  0  0
  7 15  1  0  0  0  0
  7 33  1  1  0  0  0
  8  9  1  0  0  0  0
  8 13  1  0  0  0  0
  8 34  1  0  0  0  0
  9 11  1  0  0  0  0
  9 18  1  0  0  0  0
  9 23  1  1  0  0  0
 10 16  1  0  0  0  0
 10 35  1  0  0  0  0
 11 17  1  0  0  0  0
 11 19  1  0  0  0  0
 11 36  1  6  0  0  0
 12 13  1  0  0  0  0
 12 37  1  0  0  0  0
 12 38  1  0  0  0  0
 13 39  1  0  0  0  0
 13 40  1  0  0  0  0
 14 16  1  0  0  0  0
 14 41  1  0  0  0  0
 14 42  1  0  0  0  0
 15 17  1  0  0  0  0
 15 43  1  0  0  0  0
 15 44  1  0  0  0  0
 16 45  1  0  0  0  0
 16 46  1  0  0  0  0
 17 47  1  0  0  0  0
 17 48  1  0  0  0  0
 18 22  1  0  0  0  0
 18 49  1  0  0  0  0
 18 50  1  0  0  0  0
 19 21  1  0  0  0  0
 19 51  1  0  0  0  0
 19 52  1  0  0  0  0
 20 53  1  0  0  0  0
 20 54  1  0  0  0  0
 20 55  1  0  0  0  0
 21 22  1  0  0  0  0
 21 56  1  0  0  0  0
 22 57  1  0  0  0  0
 22 58  1  0  0  0  0
 23 59  1  0  0  0  0
 23 60  1  0  0  0  0
 23 61  1  0  0  0  0
 24 30  1  0  0  0  0
 24 62  1  0  0  0  0
 24 63  1  0  0  0  0
 25 67  1  0  0  0  0
 25 68  1  0  0  0  0
 25 69  1  0  0  0  0
 26 64  1  0  0  0  0
 26 65  1  0  0  0  0
 26 66  1  0  0  0  0
 27 31  1  0  0  0  0
 27 70  1  0  0  0  0
 27 71  1  0  0  0  0
 28 75  1  0  0  0  0
 28 76  1  0  0  0  0
 28 77  1  0  0  0  0
 29 72  1  0  0  0  0
 29 73  1  0  0  0  0
 29 74  1  0  0  0  0
 30 78  1  0  0  0  0
 30 79  1  0  0  0  0
 30 80  1  0  0  0  0
 31 81  1  0  0  0  0
 31 82  1  0  0  0  0
 31 83  1  0  0  0  0
M  CHG  4   1  -1   2  -1   3   1   4   1
M  END
> <PUBCHEM_COMPOUND_CID>
6298

> <PUBCHEM_COMPOUND_CANONICALIZED>
1

> <PUBCHEM_CACTVS_COMPLEXITY>
610

> <PUBCHEM_CACTVS_HBOND_ACCEPTOR>
2

> <PUBCHEM_CACTVS_HBOND_DONOR>
0

> <PUBCHEM_CACTVS_ROTATABLE_BOND>
4

> <PUBCHEM_CACTVS_SUBSKEYS>
AAADcfB7AAAAAwAAAAAAAAAAAAAAAYAAAAAwYMAAAAAAAGDAAAAAHAAAAAAADyjBAAQCAAMAAAAAAAAAAAAAAAAAAAAAAAAIAAAAAAIAgAAEAAAAAACAAAEQgMAPgAAAAAAAAACQAASAACAAACAACQAAAA==

> <PUBCHEM_IUPAC_OPENEYE_NAME>
ethyl-[(3R,5S,8R,10S,13S,17R)-3-[ethyl(dimethyl)ammonio]-10,13-dimethyl-2,3,4,5,6,7,8,9,11,12,14,15,16,17-tetradecahydro-1H-cyclopenta[a]phenanthren-17-yl]-dimethyl-ammonium diiodide

> <PUBCHEM_IUPAC_CAS_NAME>
ethyl-[(3R,5S,8R,10S,13S,17R)-3-[ethyl(dimethyl)ammonio]-10,13-dimethyl-2,3,4,5,6,7,8,9,11,12,14,15,16,17-tetradecahydro-1H-cyclopenta[a]phenanthren-17-yl]-dimethylammonium diiodide

> <PUBCHEM_IUPAC_NAME>
ethyl-[(3R,5S,8R,10S,13S,17R)-3-[ethyl(dimethyl)azaniumyl]-10,13-dimethyl-2,3,4,5,6,7,8,9,11,12,14,15,16,17-tetradecahydro-1H-cyclopenta[a]phenanthren-17-yl]-dimethylazanium diiodide

> <PUBCHEM_IUPAC_SYSTEMATIC_NAME>
ethyl-[(3R,5S,8R,10S,13S,17R)-3-[ethyl(dimethyl)azaniumyl]-10,13-dimethyl-2,3,4,5,6,7,8,9,11,12,14,15,16,17-tetradecahydro-1H-cyclopenta[a]phenanthren-17-yl]-dimethyl-azanium diiodide

> <PUBCHEM_IUPAC_TRADITIONAL_NAME>
ethyl-[(3R,5S,8R,10S,13S,17R)-3-[ethyl(dimethyl)ammonio]-10,13-dimethyl-2,3,4,5,6,7,8,9,11,12,14,15,16,17-tetradecahydro-1H-cyclopenta[a]phenanthren-17-yl]-dimethyl-ammonium diiodide

> <PUBCHEM_IUPAC_INCHI>
InChI=1S/C27H52N2.2HI/c1-9-28(5,6)21-15-17-26(3)20(19-21)11-12-22-23-13-14-25(29(7,8)10-2)27(23,4)18-16-24(22)26;;/h20-25H,9-19H2,1-8H3;2*1H/q+2;;/p-2/t20-,21+,22-,23?,24?,25+,26-,27-;;/m0../s1

> <PUBCHEM_IUPAC_INCHIKEY>
KZYCULBPHGRLMB-XOTIDMPHSA-L

> <PUBCHEM_EXACT_MASS>
658.221996

> <PUBCHEM_MOLECULAR_FORMULA>
C27H52I2N2

> <PUBCHEM_MOLECULAR_WEIGHT>
658.52412

> <PUBCHEM_OPENEYE_CAN_SMILES>
CC[N+](C)(C)C1CCC2(C(C1)CCC3C2CCC4(C3CCC4[N+](C)(C)CC)C)C.[I-].[I-]

> <PUBCHEM_OPENEYE_ISO_SMILES>
CC[N+](C)(C)[C@@H]1CC[C@]2([C@H](C1)CC[C@@H]3C2CC[C@]4(C3CC[C@H]4[N+](C)(C)CC)C)C.[I-].[I-]

> <PUBCHEM_CACTVS_TPSA>
0

> <PUBCHEM_MONOISOTOPIC_WEIGHT>
658.221996

> <PUBCHEM_TOTAL_CHARGE>
0

> <PUBCHEM_HEAVY_ATOM_COUNT>
31

> <PUBCHEM_ATOM_DEF_STEREO_COUNT>
6

> <PUBCHEM_ATOM_UDEF_STEREO_COUNT>
2

> <PUBCHEM_BOND_DEF_STEREO_COUNT>
0

> <PUBCHEM_BOND_UDEF_STEREO_COUNT>
0

> <PUBCHEM_ISOTOPIC_ATOM_COUNT>
0

> <PUBCHEM_COMPONENT_COUNT>
3

> <PUBCHEM_CACTVS_TAUTO_COUNT>
1

> <PUBCHEM_COORDINATE_TYPE>
1
5
255

> <PUBCHEM_BONDANNOTATIONS>
11  36  6
10  3  6
21  4  6
5  20  5
6  14  3
7  33  5
8  13  3
9  23  5

$$$$

