442146
  -OEChem-07051212572D

 38 40  0     1  0  0  0  0  0999 V2000
    3.7230   -0.5579    0.0000 O   0  0  0  0  0  0  0  0  0  0  0  0
    7.3840    1.5481    0.0000 O   0  0  0  0  0  0  0  0  0  0  0  0
    2.0000   -0.1258    0.0000 O   0  0  0  0  0  0  0  0  0  0  0  0
    4.3551    0.9246    0.0000 C   0  0  1  0  0  0  0  0  0  0  0  0
    4.5777   -0.0503    0.0000 C   0  0  1  0  0  0  0  0  0  0  0  0
    4.9786    1.7065    0.0000 C   0  0  0  0  0  0  0  0  0  0  0  0
    3.3648    1.0112    0.0000 C   0  0  1  0  0  0  0  0  0  0  0  0
    6.6021    0.9246    0.0000 C   0  0  1  0  0  0  0  0  0  0  0  0
    5.4786   -0.4842    0.0000 C   0  0  0  0  0  0  0  0  0  0  0  0
    5.9786    1.7065    0.0000 C   0  0  0  0  0  0  0  0  0  0  0  0
    6.3796   -0.0503    0.0000 C   0  0  0  0  0  0  0  0  0  0  0  0
    5.6146   -1.4689    0.0000 C   0  0  0  0  0  0  0  0  0  0  0  0
    2.9749    0.0968    0.0000 C   0  0  0  0  0  0  0  0  0  0  0  0
    6.5929   -1.6456    0.0000 C   0  0  0  0  0  0  0  0  0  0  0  0
    7.0647   -0.7706    0.0000 C   0  0  0  0  0  0  0  0  0  0  0  0
    2.8504    1.8687    0.0000 C   0  0  0  0  0  0  0  0  0  0  0  0
    7.5770    0.7021    0.0000 C   0  0  0  0  0  0  0  0  0  0  0  0
    4.8930   -2.1612    0.0000 C   0  0  0  0  0  0  0  0  0  0  0  0
    4.0200    1.7058    0.0000 H   0  0  0  0  0  0  0  0  0  0  0  0
    4.6147   -0.8995    0.0000 H   0  0  0  0  0  0  0  0  0  0  0  0
    5.1166    2.3109    0.0000 H   0  0  0  0  0  0  0  0  0  0  0  0
    4.4200    1.9755    0.0000 H   0  0  0  0  0  0  0  0  0  0  0  0
    3.6936    1.5369    0.0000 H   0  0  0  0  0  0  0  0  0  0  0  0
    6.5372    1.9755    0.0000 H   0  0  0  0  0  0  0  0  0  0  0  0
    5.8407    2.3109    0.0000 H   0  0  0  0  0  0  0  0  0  0  0  0
    6.4192   -2.2407    0.0000 H   0  0  0  0  0  0  0  0  0  0  0  0
    7.1665   -1.8808    0.0000 H   0  0  0  0  0  0  0  0  0  0  0  0
    7.6792   -0.6884    0.0000 H   0  0  0  0  0  0  0  0  0  0  0  0
    3.3821    2.1877    0.0000 H   0  0  0  0  0  0  0  0  0  0  0  0
    2.5315    2.4004    0.0000 H   0  0  0  0  0  0  0  0  0  0  0  0
    2.3188    1.5498    0.0000 H   0  0  0  0  0  0  0  0  0  0  0  0
    7.4391    0.0977    0.0000 H   0  0  0  0  0  0  0  0  0  0  0  0
    8.1815    0.5642    0.0000 H   0  0  0  0  0  0  0  0  0  0  0  0
    7.7150    1.3066    0.0000 H   0  0  0  0  0  0  0  0  0  0  0  0
    7.2916    2.1612    0.0000 H   0  0  0  0  0  0  0  0  0  0  0  0
    4.4638   -1.7138    0.0000 H   0  0  0  0  0  0  0  0  0  0  0  0
    4.4456   -2.5904    0.0000 H   0  0  0  0  0  0  0  0  0  0  0  0
    5.3223   -2.6086    0.0000 H   0  0  0  0  0  0  0  0  0  0  0  0
  1  5  1  0  0  0  0
  1 13  1  0  0  0  0
  8  2  1  6  0  0  0
  2 35  1  0  0  0  0
  3 13  2  0  0  0  0
  4  5  1  0  0  0  0
  4  6  1  0  0  0  0
  4  7  1  0  0  0  0
  4 19  1  1  0  0  0
  5  9  1  0  0  0  0
  5 20  1  6  0  0  0
  6 10  1  0  0  0  0
  6 21  1  0  0  0  0
  6 22  1  0  0  0  0
  7 13  1  0  0  0  0
  7 16  1  1  0  0  0
  7 23  1  0  0  0  0
  8 10  1  0  0  0  0
  8 11  1  0  0  0  0
  8 17  1  0  0  0  0
  9 11  1  0  0  0  0
  9 12  2  0  0  0  0
 10 24  1  0  0  0  0
 10 25  1  0  0  0  0
 11 15  2  0  0  0  0
 12 14  1  0  0  0  0
 12 18  1  0  0  0  0
 14 15  1  0  0  0  0
 14 26  1  0  0  0  0
 14 27  1  0  0  0  0
 15 28  1  0  0  0  0
 16 29  1  0  0  0  0
 16 30  1  0  0  0  0
 16 31  1  0  0  0  0
 17 32  1  0  0  0  0
 17 33  1  0  0  0  0
 17 34  1  0  0  0  0
 18 36  1  0  0  0  0
 18 37  1  0  0  0  0
 18 38  1  0  0  0  0
M  END
> <PUBCHEM_COMPOUND_CID>
442146

> <PUBCHEM_COMPOUND_CANONICALIZED>
1

> <PUBCHEM_CACTVS_COMPLEXITY>
474

> <PUBCHEM_CACTVS_HBOND_ACCEPTOR>
3

> <PUBCHEM_CACTVS_HBOND_DONOR>
1

> <PUBCHEM_CACTVS_ROTATABLE_BOND>
0

> <PUBCHEM_CACTVS_SUBSKEYS>
AAADceBwMAAAAAAAAAAAAAAAAAAAASIAAAAAAAAABgAAAACQAAAAGgAACAAADVSggAICCAAABgCIAiDSCAAAAAAgAAAACAEAAAgIBBIAIAACUAAEwAAIsAPK6PyOgAAAAAAAAAAAAAAAAAAAAAAAAAAAAA==

> <PUBCHEM_IUPAC_OPENEYE_NAME>
(3S,3aS,6S,9bS)-6-hydroxy-3,6,9-trimethyl-3,3a,4,5,8,9b-hexahydroazuleno[4,5-b]furan-2-one

> <PUBCHEM_IUPAC_CAS_NAME>
(3S,3aS,6S,9bS)-6-hydroxy-3,6,9-trimethyl-3,3a,4,5,8,9b-hexahydroazuleno[4,5-b]furan-2-one

> <PUBCHEM_IUPAC_NAME>
(3S,3aS,6S,9bS)-6-hydroxy-3,6,9-trimethyl-3,3a,4,5,8,9b-hexahydroazuleno[4,5-b]furan-2-one

> <PUBCHEM_IUPAC_SYSTEMATIC_NAME>
(3S,3aS,6S,9bS)-3,6,9-trimethyl-6-oxidanyl-3,3a,4,5,8,9b-hexahydroazuleno[4,5-b]furan-2-one

> <PUBCHEM_IUPAC_TRADITIONAL_NAME>
(3S,3aS,6S,9bS)-6-hydroxy-3,6,9-trimethyl-3,3a,4,5,8,9b-hexahydroazuleno[4,5-b]furan-2-one

> <PUBCHEM_IUPAC_INCHI>
InChI=1S/C15H20O3/c1-8-4-5-11-12(8)13-10(6-7-15(11,3)17)9(2)14(16)18-13/h5,9-10,13,17H,4,6-7H2,1-3H3/t9-,10-,13-,15-/m0/s1

> <PUBCHEM_IUPAC_INCHIKEY>
BXBCLQRTBGRRDB-MJVIGCOGSA-N

> <PUBCHEM_XLOGP3_AA>
1

> <PUBCHEM_EXACT_MASS>
248.141245

> <PUBCHEM_MOLECULAR_FORMULA>
C15H20O3

> <PUBCHEM_MOLECULAR_WEIGHT>
248.3175

> <PUBCHEM_OPENEYE_CAN_SMILES>
CC1C2CCC(C3=CCC(=C3C2OC1=O)C)(C)O

> <PUBCHEM_OPENEYE_ISO_SMILES>
C[C@H]1[C@@H]2CC[C@](C3=CCC(=C3[C@H]2OC1=O)C)(C)O

> <PUBCHEM_CACTVS_TPSA>
46.5

> <PUBCHEM_MONOISOTOPIC_WEIGHT>
248.141245

> <PUBCHEM_TOTAL_CHARGE>
0

> <PUBCHEM_HEAVY_ATOM_COUNT>
18

> <PUBCHEM_ATOM_DEF_STEREO_COUNT>
4

> <PUBCHEM_ATOM_UDEF_STEREO_COUNT>
0

> <PUBCHEM_BOND_DEF_STEREO_COUNT>
0

> <PUBCHEM_BOND_UDEF_STEREO_COUNT>
0

> <PUBCHEM_ISOTOPIC_ATOM_COUNT>
0

> <PUBCHEM_COMPONENT_COUNT>
1

> <PUBCHEM_CACTVS_TAUTO_COUNT>
2

> <PUBCHEM_COORDINATE_TYPE>
1
5
255

> <PUBCHEM_BONDANNOTATIONS>
8  2  6
4  19  5
5  20  6
7  16  5

$$$$

