11953969
  -OEChem-07051213023D

 88 92  0     1  0  0  0  0  0999 V2000
   -3.3243   -1.6722    0.4702 O   0  0  0  0  0  0  0  0  0  0  0  0
   -3.1852    0.0004   -1.2497 O   0  0  0  0  0  0  0  0  0  0  0  0
    0.7931   -0.9813   -0.6586 O   0  0  0  0  0  0  0  0  0  0  0  0
   -5.7577   -0.8592   -2.0045 O   0  0  0  0  0  0  0  0  0  0  0  0
    5.4367   -0.0502   -1.0649 O   0  0  0  0  0  0  0  0  0  0  0  0
    3.5555   -0.9026    1.8496 O   0  0  0  0  0  0  0  0  0  0  0  0
    1.1167   -2.5652    0.9875 O   0  0  0  0  0  0  0  0  0  0  0  0
    7.0653   -2.3246   -0.0873 O   0  0  0  0  0  0  0  0  0  0  0  0
   -0.9821    5.3397    1.5400 O   0  0  0  0  0  0  0  0  0  0  0  0
   -2.9738   -1.3758   -0.8894 C   0  0  2  0  0  0  0  0  0  0  0  0
   -3.8148   -2.2567   -1.8333 C   0  0  0  0  0  0  0  0  0  0  0  0
   -5.6140   -2.3385   -0.0616 C   0  0  2  0  0  0  0  0  0  0  0  0
   -4.7012   -1.4385    0.7952 C   0  0  1  0  0  0  0  0  0  0  0  0
   -1.4866   -1.7311   -1.0788 C   0  0  0  0  0  0  0  0  0  0  0  0
   -5.3155   -2.1397   -1.5587 C   0  0  1  0  0  0  0  0  0  0  0  0
   -0.5855   -0.7767   -0.2986 C   0  0  2  0  0  0  0  0  0  0  0  0
   -2.4158    0.9384   -0.4861 C   0  0  1  0  0  0  0  0  0  0  0  0
   -0.9263    0.6607   -0.6691 C   0  0  0  0  0  0  0  0  0  0  0  0
   -4.8381   -1.7048    2.2914 C   0  0  0  0  0  0  0  0  0  0  0  0
   -7.0975   -2.1319    0.2510 C   0  0  0  0  0  0  0  0  0  0  0  0
   -2.7962    2.3492   -0.9668 C   0  0  0  0  0  0  0  0  0  0  0  0
    3.7702   -0.7316    0.4542 C   0  0  2  0  0  0  0  0  0  0  0  0
    2.9871   -1.7698   -0.3757 C   0  0  2  0  0  0  0  0  0  0  0  0
   -4.5071   -3.1613    2.6111 C   0  0  0  0  0  0  0  0  0  0  0  0
   -3.9391   -0.7630    3.0901 C   0  0  0  0  0  0  0  0  0  0  0  0
    5.2626   -0.7754    0.1536 C   0  0  1  0  0  0  0  0  0  0  0  0
    1.5332   -1.8577    0.0805 C   0  0  0  0  0  0  0  0  0  0  0  0
    3.4826    0.6836    0.0180 C   0  0  0  0  0  0  0  0  0  0  0  0
    3.6188   -3.1309   -0.3035 C   0  0  0  0  0  0  0  0  0  0  0  0
   -2.0621    3.4276   -0.2149 C   0  0  0  0  0  0  0  0  0  0  0  0
    4.4621    1.0122   -1.0684 C   0  0  0  0  0  0  0  0  0  0  0  0
    5.8457   -2.1660   -0.0166 C   0  0  0  0  0  0  0  0  0  0  0  0
    4.9318   -3.3406   -0.1271 C   0  0  0  0  0  0  0  0  0  0  0  0
   -1.1484    4.3035   -0.6854 C   0  0  0  0  0  0  0  0  0  0  0  0
    2.5931    1.5164    0.5832 C   0  0  0  0  0  0  0  0  0  0  0  0
   -0.4269    5.3046    0.2228 C   0  0  2  0  0  0  0  0  0  0  0  0
    5.5475   -4.7041   -0.0982 C   0  0  0  0  0  0  0  0  0  0  0  0
    1.1092    5.0753    0.3239 C   0  0  2  0  0  0  0  0  0  0  0  0
    2.3191    2.8711    0.1556 C   0  0  0  0  0  0  0  0  0  0  0  0
   -0.7506    4.3919   -2.1373 C   0  0  0  0  0  0  0  0  0  0  0  0
    1.4562    3.6782    0.7941 C   0  0  0  0  0  0  0  0  0  0  0  0
    1.7625    6.0963    1.2626 C   0  0  0  0  0  0  0  0  0  0  0  0
   -3.5308   -3.3081   -1.6967 H   0  0  0  0  0  0  0  0  0  0  0  0
   -3.6145   -1.9771   -2.8750 H   0  0  0  0  0  0  0  0  0  0  0  0
   -5.3692   -3.3904    0.1308 H   0  0  0  0  0  0  0  0  0  0  0  0
   -4.9361   -0.3832    0.6045 H   0  0  0  0  0  0  0  0  0  0  0  0
   -1.2157   -1.6770   -2.1419 H   0  0  0  0  0  0  0  0  0  0  0  0
   -1.2852   -2.7596   -0.7545 H   0  0  0  0  0  0  0  0  0  0  0  0
   -5.8463   -2.8909   -2.1556 H   0  0  0  0  0  0  0  0  0  0  0  0
   -0.7194   -0.9108    0.7824 H   0  0  0  0  0  0  0  0  0  0  0  0
   -2.6873    0.8403    0.5725 H   0  0  0  0  0  0  0  0  0  0  0  0
   -0.6329    0.8415   -1.7122 H   0  0  0  0  0  0  0  0  0  0  0  0
   -0.3227    1.3373   -0.0581 H   0  0  0  0  0  0  0  0  0  0  0  0
   -5.8674   -1.5058    2.6114 H   0  0  0  0  0  0  0  0  0  0  0  0
   -7.7239   -2.6727   -0.4667 H   0  0  0  0  0  0  0  0  0  0  0  0
   -7.3511   -2.5116    1.2454 H   0  0  0  0  0  0  0  0  0  0  0  0
   -7.3740   -1.0731    0.2136 H   0  0  0  0  0  0  0  0  0  0  0  0
   -3.8742    2.4959   -0.8200 H   0  0  0  0  0  0  0  0  0  0  0  0
   -2.6515    2.4098   -2.0493 H   0  0  0  0  0  0  0  0  0  0  0  0
    2.9779   -1.5040   -1.4430 H   0  0  0  0  0  0  0  0  0  0  0  0
   -5.2583   -3.8507    2.2156 H   0  0  0  0  0  0  0  0  0  0  0  0
   -3.5248   -3.4613    2.2320 H   0  0  0  0  0  0  0  0  0  0  0  0
   -4.4942   -3.3145    3.6966 H   0  0  0  0  0  0  0  0  0  0  0  0
   -4.1009   -0.8977    4.1652 H   0  0  0  0  0  0  0  0  0  0  0  0
   -4.1589    0.2831    2.8517 H   0  0  0  0  0  0  0  0  0  0  0  0
   -2.8768   -0.9416    2.8920 H   0  0  0  0  0  0  0  0  0  0  0  0
    5.8371   -0.2832    0.9516 H   0  0  0  0  0  0  0  0  0  0  0  0
   -6.7296   -0.8611   -1.9968 H   0  0  0  0  0  0  0  0  0  0  0  0
    2.9696   -3.9922   -0.4478 H   0  0  0  0  0  0  0  0  0  0  0  0
   -2.2959    3.4378    0.8481 H   0  0  0  0  0  0  0  0  0  0  0  0
    3.9885    1.0319   -2.0538 H   0  0  0  0  0  0  0  0  0  0  0  0
    4.9876    1.9540   -0.8849 H   0  0  0  0  0  0  0  0  0  0  0  0
    2.6026   -0.8709    2.0338 H   0  0  0  0  0  0  0  0  0  0  0  0
    1.9868    1.1540    1.4103 H   0  0  0  0  0  0  0  0  0  0  0  0
   -0.5901    6.3083   -0.1919 H   0  0  0  0  0  0  0  0  0  0  0  0
    4.7959   -5.4954   -0.1892 H   0  0  0  0  0  0  0  0  0  0  0  0
    6.0807   -4.8608    0.8452 H   0  0  0  0  0  0  0  0  0  0  0  0
    6.2570   -4.8235   -0.9235 H   0  0  0  0  0  0  0  0  0  0  0  0
    1.5393    5.2338   -0.6744 H   0  0  0  0  0  0  0  0  0  0  0  0
    2.8204    3.2298   -0.7389 H   0  0  0  0  0  0  0  0  0  0  0  0
    0.2351    3.9424   -2.2914 H   0  0  0  0  0  0  0  0  0  0  0  0
   -0.7051    5.4398   -2.4536 H   0  0  0  0  0  0  0  0  0  0  0  0
   -1.4529    3.9001   -2.8129 H   0  0  0  0  0  0  0  0  0  0  0  0
    0.9573    3.3269    1.6953 H   0  0  0  0  0  0  0  0  0  0  0  0
    2.8537    5.9940    1.2488 H   0  0  0  0  0  0  0  0  0  0  0  0
    1.5221    7.1180    0.9495 H   0  0  0  0  0  0  0  0  0  0  0  0
    1.4322    5.9724    2.3000 H   0  0  0  0  0  0  0  0  0  0  0  0
   -1.8918    5.6763    1.4664 H   0  0  0  0  0  0  0  0  0  0  0  0
  1 10  1  0  0  0  0
  1 13  1  0  0  0  0
  2 10  1  0  0  0  0
  2 17  1  0  0  0  0
  3 16  1  0  0  0  0
  3 27  1  0  0  0  0
  4 15  1  0  0  0  0
  4 68  1  0  0  0  0
  5 26  1  0  0  0  0
  5 31  1  0  0  0  0
  6 22  1  0  0  0  0
  6 73  1  0  0  0  0
  7 27  2  0  0  0  0
  8 32  2  0  0  0  0
  9 36  1  0  0  0  0
  9 88  1  0  0  0  0
 10 11  1  0  0  0  0
 10 14  1  0  0  0  0
 11 15  1  0  0  0  0
 11 43  1  0  0  0  0
 11 44  1  0  0  0  0
 12 13  1  0  0  0  0
 12 15  1  0  0  0  0
 12 20  1  0  0  0  0
 12 45  1  0  0  0  0
 13 19  1  0  0  0  0
 13 46  1  0  0  0  0
 14 16  1  0  0  0  0
 14 47  1  0  0  0  0
 14 48  1  0  0  0  0
 15 49  1  0  0  0  0
 16 18  1  0  0  0  0
 16 50  1  0  0  0  0
 17 18  1  0  0  0  0
 17 21  1  0  0  0  0
 17 51  1  0  0  0  0
 18 52  1  0  0  0  0
 18 53  1  0  0  0  0
 19 24  1  0  0  0  0
 19 25  1  0  0  0  0
 19 54  1  0  0  0  0
 20 55  1  0  0  0  0
 20 56  1  0  0  0  0
 20 57  1  0  0  0  0
 21 30  1  0  0  0  0
 21 58  1  0  0  0  0
 21 59  1  0  0  0  0
 22 23  1  0  0  0  0
 22 26  1  0  0  0  0
 22 28  1  0  0  0  0
 23 27  1  0  0  0  0
 23 29  1  0  0  0  0
 23 60  1  0  0  0  0
 24 61  1  0  0  0  0
 24 62  1  0  0  0  0
 24 63  1  0  0  0  0
 25 64  1  0  0  0  0
 25 65  1  0  0  0  0
 25 66  1  0  0  0  0
 26 32  1  0  0  0  0
 26 67  1  0  0  0  0
 28 31  1  0  0  0  0
 28 35  2  0  0  0  0
 29 33  2  0  0  0  0
 29 69  1  0  0  0  0
 30 34  2  0  0  0  0
 30 70  1  0  0  0  0
 31 71  1  0  0  0  0
 31 72  1  0  0  0  0
 32 33  1  0  0  0  0
 33 37  1  0  0  0  0
 34 36  1  0  0  0  0
 34 40  1  0  0  0  0
 35 39  1  0  0  0  0
 35 74  1  0  0  0  0
 36 38  1  0  0  0  0
 36 75  1  0  0  0  0
 37 76  1  0  0  0  0
 37 77  1  0  0  0  0
 37 78  1  0  0  0  0
 38 41  1  0  0  0  0
 38 42  1  0  0  0  0
 38 79  1  0  0  0  0
 39 41  2  0  0  0  0
 39 80  1  0  0  0  0
 40 81  1  0  0  0  0
 40 82  1  0  0  0  0
 40 83  1  0  0  0  0
 41 84  1  0  0  0  0
 42 85  1  0  0  0  0
 42 86  1  0  0  0  0
 42 87  1  0  0  0  0
M  END
> <PUBCHEM_COMPOUND_CID>
11953969

> <PUBCHEM_CONFORMER_RMSD>
0.8

> <PUBCHEM_CONFORMER_DIVERSEORDER>
1

> <PUBCHEM_MMFF94_PARTIAL_CHARGES>
41
1 -0.56
10 0.56
13 0.28
15 0.28
16 0.28
17 0.28
2 -0.56
21 0.14
22 0.42
23 0.2
26 0.34
27 0.66
28 -0.28
29 -0.29
3 -0.43
30 -0.29
31 0.42
32 0.49
33 -0.12
34 -0.28
35 -0.15
36 0.42
37 0.14
38 0.14
39 -0.15
4 -0.68
40 0.14
41 -0.29
5 -0.56
6 -0.68
68 0.4
69 0.15
7 -0.57
70 0.15
73 0.4
74 0.15
8 -0.57
80 0.15
84 0.15
88 0.4
9 -0.68

> <PUBCHEM_EFFECTIVE_ROTOR_COUNT>
3.8

> <PUBCHEM_PHARMACOPHORE_FEATURES>
16
1 1 acceptor
1 2 acceptor
1 4 acceptor
1 4 donor
1 5 acceptor
1 6 acceptor
1 6 donor
1 7 acceptor
1 8 acceptor
1 9 acceptor
1 9 donor
3 19 24 25 hydrophobe
5 5 22 26 28 31 rings
6 1 10 11 12 13 15 rings
6 2 10 14 16 17 18 rings
6 22 23 26 29 32 33 rings

> <PUBCHEM_HEAVY_ATOM_COUNT>
42

> <PUBCHEM_ATOM_DEF_STEREO_COUNT>
11

> <PUBCHEM_ATOM_UDEF_STEREO_COUNT>
0

> <PUBCHEM_BOND_DEF_STEREO_COUNT>
3

> <PUBCHEM_BOND_UDEF_STEREO_COUNT>
0

> <PUBCHEM_ISOTOPIC_ATOM_COUNT>
0

> <PUBCHEM_COMPONENT_COUNT>
1

> <PUBCHEM_CACTVS_TAUTO_COUNT>
7

> <PUBCHEM_CONFORMER_ID>
00B6673100000001

> <PUBCHEM_MMFF94_ENERGY>
99.4113

> <PUBCHEM_FEATURE_SELFOVERLAP>
81.395

> <PUBCHEM_SHAPE_FINGERPRINT>
10677394 353 18191290775787361209
11093857 51 17769087943932277868
11991303 11 17623839528613285948
12786520 15 18045748343475439571
12788726 201 18054804029238139651
14114211 80 17260452683290141364
14340393 34 17329712020651136459
14363568 33 18266453205482545232
15001296 14 18270687592597040448
15200665 1 17760365887091191112
15297060 5 17032766322743591920
15400415 2 17184480815800818357
15444296 121 17260470791046464874
15890870 6 17545607115649736804
15927050 60 17471574326159575068
161222 619 17625261905622419017
16993438 75 18050285065906167929
19311894 1 18050288369157836088
20101258 96 18411136974213284773
21133410 38 17253421311120632543
24771750 20 17481700862827713909
4015057 19 18339931411593446403
4017518 198 17402062097615188092
404807 14 18336271210609585815
4144715 1 18057326081695559979
4435113 14 17702101353561039417
4461854 278 17469866144742027248
513202 73 18339919424239347187
5171179 24 18339085883115019821
6201320 77 17630296762998457659
6700243 42 17750774693065395324
86090 222 17488743342314990787

> <PUBCHEM_SHAPE_MULTIPOLES>
811.52
14.58
8.25
1.9
0.84
14.27
-0.87
-21.05
-0.32
-4.78
-1.47
3.28
-0.28
1.53

> <PUBCHEM_SHAPE_SELFOVERLAP>
1716.41

> <PUBCHEM_SHAPE_VOLUME>
449

> <PUBCHEM_COORDINATE_TYPE>
2
5
10

$$$$

