11756356
  -OEChem-07051213083D

 68 73  0     1  0  0  0  0  0999 V2000
   -7.8337   -0.6415    0.1446 O   0  0  0  0  0  0  0  0  0  0  0  0
   -5.9835    2.3247    0.7269 O   0  0  0  0  0  0  0  0  0  0  0  0
   -4.5760   -3.3262   -0.1614 O   0  0  0  0  0  0  0  0  0  0  0  0
    4.8419    0.9263    0.8018 O   0  0  0  0  0  0  0  0  0  0  0  0
   -8.4472    1.3941    0.8647 O   0  0  0  0  0  0  0  0  0  0  0  0
    4.9429    1.0122   -1.5096 O   0  0  0  0  0  0  0  0  0  0  0  0
   -3.0586   -1.5954    0.0579 N   0  0  0  0  0  0  0  0  0  0  0  0
    6.9051    0.9295   -0.2659 N   0  0  0  0  0  0  0  0  0  0  0  0
   -0.7077    1.1123    0.3511 N   0  0  0  0  0  0  0  0  0  0  0  0
   10.4348   -1.3847   -0.1108 N   0  0  0  0  0  0  0  0  0  0  0  0
   -2.7963   -0.2371    0.1307 C   0  0  0  0  0  0  0  0  0  0  0  0
   -1.8098   -2.3813    0.1331 C   0  0  0  0  0  0  0  0  0  0  0  0
   -0.7724   -1.3146    0.2569 C   0  0  0  0  0  0  0  0  0  0  0  0
   -5.1510    0.2122   -0.0486 C   0  0  0  0  0  0  0  0  0  0  0  0
   -6.2595    1.2240   -0.1429 C   0  0  2  0  0  0  0  0  0  0  0  0
   -1.3570   -0.0561    0.2547 C   0  0  0  0  0  0  0  0  0  0  0  0
   -5.4315   -1.1006   -0.1356 C   0  0  0  0  0  0  0  0  0  0  0  0
   -3.7756    0.6692    0.0789 C   0  0  0  0  0  0  0  0  0  0  0  0
    9.5526   -0.2203   -0.1163 C   0  0  0  0  0  0  0  0  0  0  0  0
    0.5951   -1.4014    0.3663 C   0  0  0  0  0  0  0  0  0  0  0  0
   -4.3285   -2.1253   -0.0808 C   0  0  0  0  0  0  0  0  0  0  0  0
    8.5795   -0.2921    1.0682 C   0  0  0  0  0  0  0  0  0  0  0  0
    8.7811   -0.1513   -1.4409 C   0  0  0  0  0  0  0  0  0  0  0  0
    7.5856    0.8681    1.0319 C   0  0  0  0  0  0  0  0  0  0  0  0
    7.7843    1.0061   -1.4325 C   0  0  0  0  0  0  0  0  0  0  0  0
   -6.4240    1.7494   -1.5710 C   0  0  0  0  0  0  0  0  0  0  0  0
   -6.8324   -1.5806   -0.3051 C   0  0  0  0  0  0  0  0  0  0  0  0
    1.3300   -0.2088    0.4706 C   0  0  0  0  0  0  0  0  0  0  0  0
   -7.5943    0.6751    0.3474 C   0  0  0  0  0  0  0  0  0  0  0  0
    0.6345    1.0336    0.4587 C   0  0  0  0  0  0  0  0  0  0  0  0
    1.2379   -2.7494    0.3699 C   0  0  0  0  0  0  0  0  0  0  0  0
    2.7289   -0.2314    0.5852 C   0  0  0  0  0  0  0  0  0  0  0  0
   -7.5207    2.7919   -1.6502 C   0  0  0  0  0  0  0  0  0  0  0  0
    5.5161    0.9607   -0.4220 C   0  0  0  0  0  0  0  0  0  0  0  0
    3.4482    0.9560    0.6882 C   0  0  0  0  0  0  0  0  0  0  0  0
    1.3833    2.2012    0.5632 C   0  0  0  0  0  0  0  0  0  0  0  0
    1.6029   -3.2203   -1.0347 C   0  0  0  0  0  0  0  0  0  0  0  0
    2.7753    2.1717    0.6773 C   0  0  0  0  0  0  0  0  0  0  0  0
   -1.7109   -2.9709   -0.7830 H   0  0  0  0  0  0  0  0  0  0  0  0
   -1.8613   -3.0320    1.0111 H   0  0  0  0  0  0  0  0  0  0  0  0
   -3.5645    1.7317    0.1217 H   0  0  0  0  0  0  0  0  0  0  0  0
   10.1695    0.6817   -0.0162 H   0  0  0  0  0  0  0  0  0  0  0  0
    9.1296   -0.2714    2.0167 H   0  0  0  0  0  0  0  0  0  0  0  0
    8.0239   -1.2390    1.0374 H   0  0  0  0  0  0  0  0  0  0  0  0
    8.2361   -1.0908   -1.6043 H   0  0  0  0  0  0  0  0  0  0  0  0
    9.4743   -0.0300   -2.2819 H   0  0  0  0  0  0  0  0  0  0  0  0
    6.8729    0.7637    1.8542 H   0  0  0  0  0  0  0  0  0  0  0  0
    8.1067    1.8229    1.1701 H   0  0  0  0  0  0  0  0  0  0  0  0
    8.3116    1.9661   -1.3818 H   0  0  0  0  0  0  0  0  0  0  0  0
    7.2010    1.0004   -2.3586 H   0  0  0  0  0  0  0  0  0  0  0  0
   -6.6491    0.9353   -2.2708 H   0  0  0  0  0  0  0  0  0  0  0  0
   -5.4903    2.2197   -1.9052 H   0  0  0  0  0  0  0  0  0  0  0  0
   -7.0380   -1.8170   -1.3543 H   0  0  0  0  0  0  0  0  0  0  0  0
   -6.9965   -2.4901    0.2821 H   0  0  0  0  0  0  0  0  0  0  0  0
    2.1118   -2.7896    1.0280 H   0  0  0  0  0  0  0  0  0  0  0  0
    0.5538   -3.4851    0.8124 H   0  0  0  0  0  0  0  0  0  0  0  0
    3.2990   -1.1554    0.5841 H   0  0  0  0  0  0  0  0  0  0  0  0
   -8.5150    2.3583   -1.5084 H   0  0  0  0  0  0  0  0  0  0  0  0
   -7.3820    3.6037   -0.9299 H   0  0  0  0  0  0  0  0  0  0  0  0
   -7.5196    3.2444   -2.6485 H   0  0  0  0  0  0  0  0  0  0  0  0
   10.9769   -1.4008    0.7520 H   0  0  0  0  0  0  0  0  0  0  0  0
   11.1074   -1.3096   -0.8727 H   0  0  0  0  0  0  0  0  0  0  0  0
   -5.8243    1.9755    1.6210 H   0  0  0  0  0  0  0  0  0  0  0  0
    0.8825    3.1677    0.5573 H   0  0  0  0  0  0  0  0  0  0  0  0
    0.7205   -3.2724   -1.6811 H   0  0  0  0  0  0  0  0  0  0  0  0
    2.0503   -4.2184   -0.9927 H   0  0  0  0  0  0  0  0  0  0  0  0
    2.3248   -2.5455   -1.5064 H   0  0  0  0  0  0  0  0  0  0  0  0
    3.3262    3.1049    0.7575 H   0  0  0  0  0  0  0  0  0  0  0  0
  1 27  1  0  0  0  0
  1 29  1  0  0  0  0
  2 15  1  0  0  0  0
  2 63  1  0  0  0  0
  3 21  2  0  0  0  0
  4 34  1  0  0  0  0
  4 35  1  0  0  0  0
  5 29  2  0  0  0  0
  6 34  2  0  0  0  0
  7 11  1  0  0  0  0
  7 12  1  0  0  0  0
  7 21  1  0  0  0  0
  8 24  1  0  0  0  0
  8 25  1  0  0  0  0
  8 34  1  0  0  0  0
  9 16  2  0  0  0  0
  9 30  1  0  0  0  0
 10 19  1  0  0  0  0
 10 61  1  0  0  0  0
 10 62  1  0  0  0  0
 11 16  1  0  0  0  0
 11 18  2  0  0  0  0
 12 13  1  0  0  0  0
 12 39  1  0  0  0  0
 12 40  1  0  0  0  0
 13 16  1  0  0  0  0
 13 20  2  0  0  0  0
 14 15  1  0  0  0  0
 14 17  2  0  0  0  0
 14 18  1  0  0  0  0
 15 26  1  0  0  0  0
 15 29  1  0  0  0  0
 17 21  1  0  0  0  0
 17 27  1  0  0  0  0
 18 41  1  0  0  0  0
 19 22  1  0  0  0  0
 19 23  1  0  0  0  0
 19 42  1  0  0  0  0
 20 28  1  0  0  0  0
 20 31  1  0  0  0  0
 22 24  1  0  0  0  0
 22 43  1  0  0  0  0
 22 44  1  0  0  0  0
 23 25  1  0  0  0  0
 23 45  1  0  0  0  0
 23 46  1  0  0  0  0
 24 47  1  0  0  0  0
 24 48  1  0  0  0  0
 25 49  1  0  0  0  0
 25 50  1  0  0  0  0
 26 33  1  0  0  0  0
 26 51  1  0  0  0  0
 26 52  1  0  0  0  0
 27 53  1  0  0  0  0
 27 54  1  0  0  0  0
 28 30  2  0  0  0  0
 28 32  1  0  0  0  0
 30 36  1  0  0  0  0
 31 37  1  0  0  0  0
 31 55  1  0  0  0  0
 31 56  1  0  0  0  0
 32 35  2  0  0  0  0
 32 57  1  0  0  0  0
 33 58  1  0  0  0  0
 33 59  1  0  0  0  0
 33 60  1  0  0  0  0
 35 38  1  0  0  0  0
 36 38  2  0  0  0  0
 36 64  1  0  0  0  0
 37 65  1  0  0  0  0
 37 66  1  0  0  0  0
 37 67  1  0  0  0  0
 38 68  1  0  0  0  0
M  END
> <PUBCHEM_COMPOUND_CID>
11756356

> <PUBCHEM_CONFORMER_RMSD>
1

> <PUBCHEM_CONFORMER_DIVERSEORDER>
1
11
15
16
13
20
2
10
18
17
7
19
4
6
14
12
8
9
3
5

> <PUBCHEM_MMFF94_PARTIAL_CHARGES>
39
1 -0.43
10 -0.99
11 0.08
12 0.44
13 -0.14
14 -0.14
15 0.48
16 0.34
17 -0.12
18 -0.15
19 0.27
2 -0.68
20 -0.14
21 0.62
24 0.3
25 0.3
27 0.42
29 0.66
3 -0.57
30 0.31
31 0.14
32 -0.15
34 0.78
35 0.08
36 -0.15
38 -0.15
4 -0.23
41 0.15
5 -0.57
57 0.15
6 -0.57
61 0.36
62 0.36
63 0.4
64 0.15
68 0.15
7 -0.47
8 -0.66
9 -0.62

> <PUBCHEM_EFFECTIVE_ROTOR_COUNT>
7

> <PUBCHEM_PHARMACOPHORE_FEATURES>
16
1 10 cation
1 10 donor
1 2 acceptor
1 2 donor
1 3 acceptor
1 33 hydrophobe
1 37 hydrophobe
1 5 acceptor
1 6 acceptor
1 9 acceptor
5 7 11 12 13 16 rings
6 1 14 15 17 27 29 rings
6 28 30 32 35 36 38 rings
6 7 11 14 17 18 21 rings
6 8 19 22 23 24 25 rings
6 9 13 16 20 28 30 rings

> <PUBCHEM_HEAVY_ATOM_COUNT>
38

> <PUBCHEM_ATOM_DEF_STEREO_COUNT>
1

> <PUBCHEM_ATOM_UDEF_STEREO_COUNT>
0

> <PUBCHEM_BOND_DEF_STEREO_COUNT>
0

> <PUBCHEM_BOND_UDEF_STEREO_COUNT>
0

> <PUBCHEM_ISOTOPIC_ATOM_COUNT>
0

> <PUBCHEM_COMPONENT_COUNT>
1

> <PUBCHEM_CACTVS_TAUTO_COUNT>
1

> <PUBCHEM_CONFORMER_ID>
00B3634400000001

> <PUBCHEM_MMFF94_ENERGY>
99.2196

> <PUBCHEM_FEATURE_SELFOVERLAP>
81.44

> <PUBCHEM_SHAPE_FINGERPRINT>
10 15 18131633401109773953
10162869 55 13840273576932635560
10299344 5 18060422404569549448
10669705 176 18411138034632337612
10674148 151 18343587313936575528
11135926 11 18187077377971546107
11181472 205 17846498180049482740
11297010 23 18260840318680932061
11408170 108 16081353203739008164
11410812 94 13984935290896197329
11578080 2 17344652515230424847
11621639 183 17131273610192456925
12664476 115 18410013226691972345
12758862 56 18410860928328698128
13383668 251 10807640135304891750
13811026 1 18186798072206540534
14279260 333 17968094261317113789
14294032 229 18201157775454273092
14856354 85 17774723057041012671
15065858 18 18040720260760590496
15183329 4 18408879629871120680
15230672 131 18412831274398240202
15289351 153 18260274079130591400
15347591 1 18125156027464826192
15444296 9 18202282533078130830
15510794 2 17968097495944140704
1577012 14 18201445769995374122
15840311 113 17418088768448938628
15890870 6 18341617040776546301
16087824 20 18338234968500314553
19611394 137 17844515610265723859
19841028 212 18340488976285873442
20105231 36 18270674265324318011
21033648 144 18411142481105040253
21792961 116 18335137604782152513
23559900 14 18259990340711526801
23576562 1 17984696723698499764
24893992 56 18339641144639027763
249057 3 18335984194597795672
3004659 81 18271243829932945848
3092352 35 17131833153355032338
3103668 31 18342461495260695164
335352 9 18409732841581634108
3383291 50 18114740439867971214
4073 2 18129944451368198595
4149490 64 14129635289681288727
6126387 218 15430032184129370753
6138700 20 18408884015059337442
9831232 110 18187075141037338382
99344 41 18410291411549972862

> <PUBCHEM_SHAPE_MULTIPOLES>
726.88
30.77
2.95
1.12
37.11
1.37
0.36
-8.07
5.3
-3.81
0.46
0.78
-0.44
0.85

> <PUBCHEM_SHAPE_SELFOVERLAP>
1611.994

> <PUBCHEM_SHAPE_VOLUME>
385.7

> <PUBCHEM_COORDINATE_TYPE>
2
5
10

$$$$

