12604
  -OEChem-06261207082D

 53 54  0     0  0  0  0  0  0999 V2000
    7.1962    1.2346    0.0000 O   0  0  0  0  0  0  0  0  0  0  0  0
    5.4641    1.2346    0.0000 O   0  0  0  0  0  0  0  0  0  0  0  0
   10.7263    1.2587    0.0000 O   0  0  0  0  0  0  0  0  0  0  0  0
   13.3263    0.7688    0.0000 O   0  0  0  0  0  0  0  0  0  0  0  0
   12.4545    2.2654    0.0000 O   0  0  0  0  0  0  0  0  0  0  0  0
    3.7320   -0.7654    0.0000 N   0  0  0  0  0  0  0  0  0  0  0  0
    4.5981   -0.2654    0.0000 C   0  0  0  0  0  0  0  0  0  0  0  0
    5.4641   -0.7654    0.0000 C   0  0  0  0  0  0  0  0  0  0  0  0
    6.3301   -0.2654    0.0000 C   0  0  0  0  0  0  0  0  0  0  0  0
    7.1962   -0.7654    0.0000 C   0  0  0  0  0  0  0  0  0  0  0  0
    2.8660   -0.2654    0.0000 C   0  0  0  0  0  0  0  0  0  0  0  0
    3.7320   -1.7654    0.0000 C   0  0  0  0  0  0  0  0  0  0  0  0
    8.0622   -0.2654    0.0000 C   0  0  0  0  0  0  0  0  0  0  0  0
    8.0622    0.7346    0.0000 C   0  0  0  0  0  0  0  0  0  0  0  0
    6.3301    0.7346    0.0000 C   0  0  0  0  0  0  0  0  0  0  0  0
    7.1962   -1.7654    0.0000 C   0  0  0  0  0  0  0  0  0  0  0  0
    2.8660   -2.2654    0.0000 C   0  0  0  0  0  0  0  0  0  0  0  0
    2.0000   -0.7654    0.0000 C   0  0  0  0  0  0  0  0  0  0  0  0
    8.9561   -0.8001    0.0000 C   0  0  0  0  0  0  0  0  0  0  0  0
    8.9561    1.2692    0.0000 C   0  0  0  0  0  0  0  0  0  0  0  0
    9.8622    0.7554    0.0000 C   0  0  0  0  0  0  0  0  0  0  0  0
    9.8622   -0.2862    0.0000 C   0  0  0  0  0  0  0  0  0  0  0  0
   11.5942    0.7621    0.0000 C   0  0  0  0  0  0  0  0  0  0  0  0
   12.4583    1.2654    0.0000 C   0  0  0  0  0  0  0  0  0  0  0  0
   14.1904    1.2721    0.0000 C   0  0  0  0  0  0  0  0  0  0  0  0
   15.0583    0.7754    0.0000 C   0  0  0  0  0  0  0  0  0  0  0  0
    4.9966    0.2095    0.0000 H   0  0  0  0  0  0  0  0  0  0  0  0
    4.1996    0.2095    0.0000 H   0  0  0  0  0  0  0  0  0  0  0  0
    5.0656   -1.2404    0.0000 H   0  0  0  0  0  0  0  0  0  0  0  0
    5.8626   -1.2404    0.0000 H   0  0  0  0  0  0  0  0  0  0  0  0
    3.2646    0.2095    0.0000 H   0  0  0  0  0  0  0  0  0  0  0  0
    2.4675    0.2095    0.0000 H   0  0  0  0  0  0  0  0  0  0  0  0
    3.9441   -2.3480    0.0000 H   0  0  0  0  0  0  0  0  0  0  0  0
    4.3426   -1.6578    0.0000 H   0  0  0  0  0  0  0  0  0  0  0  0
    6.5762   -1.7654    0.0000 H   0  0  0  0  0  0  0  0  0  0  0  0
    7.1962   -2.3854    0.0000 H   0  0  0  0  0  0  0  0  0  0  0  0
    7.8162   -1.7654    0.0000 H   0  0  0  0  0  0  0  0  0  0  0  0
    1.6900   -0.2285    0.0000 H   0  0  0  0  0  0  0  0  0  0  0  0
    1.4631   -1.0754    0.0000 H   0  0  0  0  0  0  0  0  0  0  0  0
    2.3100   -1.3023    0.0000 H   0  0  0  0  0  0  0  0  0  0  0  0
    2.5560   -1.7285    0.0000 H   0  0  0  0  0  0  0  0  0  0  0  0
    2.3291   -2.5754    0.0000 H   0  0  0  0  0  0  0  0  0  0  0  0
    3.1760   -2.8024    0.0000 H   0  0  0  0  0  0  0  0  0  0  0  0
    8.9490   -1.4200    0.0000 H   0  0  0  0  0  0  0  0  0  0  0  0
    8.9490    1.8892    0.0000 H   0  0  0  0  0  0  0  0  0  0  0  0
   10.3979   -0.5983    0.0000 H   0  0  0  0  0  0  0  0  0  0  0  0
   11.1975    0.2856    0.0000 H   0  0  0  0  0  0  0  0  0  0  0  0
   11.9946    0.2887    0.0000 H   0  0  0  0  0  0  0  0  0  0  0  0
   14.5870    1.7486    0.0000 H   0  0  0  0  0  0  0  0  0  0  0  0
   13.7900    1.7455    0.0000 H   0  0  0  0  0  0  0  0  0  0  0  0
   14.7504    0.2373    0.0000 H   0  0  0  0  0  0  0  0  0  0  0  0
   15.5964    0.4675    0.0000 H   0  0  0  0  0  0  0  0  0  0  0  0
   15.3662    1.3136    0.0000 H   0  0  0  0  0  0  0  0  0  0  0  0
  1 14  1  0  0  0  0
  1 15  1  0  0  0  0
  2 15  2  0  0  0  0
  3 21  1  0  0  0  0
  3 23  1  0  0  0  0
  4 24  1  0  0  0  0
  4 25  1  0  0  0  0
  5 24  2  0  0  0  0
  6  7  1  0  0  0  0
  6 11  1  0  0  0  0
  6 12  1  0  0  0  0
  7  8  1  0  0  0  0
  7 27  1  0  0  0  0
  7 28  1  0  0  0  0
  8  9  1  0  0  0  0
  8 29  1  0  0  0  0
  8 30  1  0  0  0  0
  9 10  2  0  0  0  0
  9 15  1  0  0  0  0
 10 13  1  0  0  0  0
 10 16  1  0  0  0  0
 11 18  1  0  0  0  0
 11 31  1  0  0  0  0
 11 32  1  0  0  0  0
 12 17  1  0  0  0  0
 12 33  1  0  0  0  0
 12 34  1  0  0  0  0
 13 14  2  0  0  0  0
 13 19  1  0  0  0  0
 14 20  1  0  0  0  0
 16 35  1  0  0  0  0
 16 36  1  0  0  0  0
 16 37  1  0  0  0  0
 17 41  1  0  0  0  0
 17 42  1  0  0  0  0
 17 43  1  0  0  0  0
 18 38  1  0  0  0  0
 18 39  1  0  0  0  0
 18 40  1  0  0  0  0
 19 22  2  0  0  0  0
 19 44  1  0  0  0  0
 20 21  2  0  0  0  0
 20 45  1  0  0  0  0
 21 22  1  0  0  0  0
 22 46  1  0  0  0  0
 23 24  1  0  0  0  0
 23 47  1  0  0  0  0
 23 48  1  0  0  0  0
 25 26  1  0  0  0  0
 25 49  1  0  0  0  0
 25 50  1  0  0  0  0
 26 51  1  0  0  0  0
 26 52  1  0  0  0  0
 26 53  1  0  0  0  0
M  END
> <PUBCHEM_COMPOUND_CID>
12604

> <PUBCHEM_COMPOUND_CANONICALIZED>
1

> <PUBCHEM_CACTVS_COMPLEXITY>
526

> <PUBCHEM_CACTVS_HBOND_ACCEPTOR>
6

> <PUBCHEM_CACTVS_HBOND_DONOR>
0

> <PUBCHEM_CACTVS_ROTATABLE_BOND>
10

> <PUBCHEM_CACTVS_SUBSKEYS>
AAADceB6OAAAAAAAAAAAAAAAAAAAAAAAAAAwQAAAAAAAAACBAAAAHgAAAAAADAThmAYyDoMABACIAiDSCAICCAAgIAAIiAFOCMgNJzKEsR6GOiClwBWKqQek4KwOIAAACAAIAABAAAAQABAAAAAAAAAAAA==

> <PUBCHEM_IUPAC_OPENEYE_NAME>
ethyl 2-[3-[2-(diethylamino)ethyl]-4-methyl-2-oxo-chromen-7-yl]oxyacetate

> <PUBCHEM_IUPAC_CAS_NAME>
2-[[3-[2-(diethylamino)ethyl]-4-methyl-2-oxo-1-benzopyran-7-yl]oxy]acetic acid ethyl ester

> <PUBCHEM_IUPAC_NAME>
ethyl 2-[3-[2-(diethylamino)ethyl]-4-methyl-2-oxochromen-7-yl]oxyacetate

> <PUBCHEM_IUPAC_SYSTEMATIC_NAME>
ethyl 2-[3-[2-(diethylamino)ethyl]-4-methyl-2-oxidanylidene-chromen-7-yl]oxyethanoate

> <PUBCHEM_IUPAC_TRADITIONAL_NAME>
2-[3-[2-(diethylamino)ethyl]-2-keto-4-methyl-chromen-7-yl]oxyacetic acid ethyl ester

> <PUBCHEM_IUPAC_INCHI>
InChI=1S/C20H27NO5/c1-5-21(6-2)11-10-17-14(4)16-9-8-15(12-18(16)26-20(17)23)25-13-19(22)24-7-3/h8-9,12H,5-7,10-11,13H2,1-4H3

> <PUBCHEM_IUPAC_INCHIKEY>
KLOIYEQEVSIOOO-UHFFFAOYSA-N

> <PUBCHEM_XLOGP3_AA>
3.1

> <PUBCHEM_EXACT_MASS>
361.188923

> <PUBCHEM_MOLECULAR_FORMULA>
C20H27NO5

> <PUBCHEM_MOLECULAR_WEIGHT>
361.43208

> <PUBCHEM_OPENEYE_CAN_SMILES>
CCN(CC)CCC1=C(C2=C(C=C(C=C2)OCC(=O)OCC)OC1=O)C

> <PUBCHEM_OPENEYE_ISO_SMILES>
CCN(CC)CCC1=C(C2=C(C=C(C=C2)OCC(=O)OCC)OC1=O)C

> <PUBCHEM_CACTVS_TPSA>
65.1

> <PUBCHEM_MONOISOTOPIC_WEIGHT>
361.188923

> <PUBCHEM_TOTAL_CHARGE>
0

> <PUBCHEM_HEAVY_ATOM_COUNT>
26

> <PUBCHEM_ATOM_DEF_STEREO_COUNT>
0

> <PUBCHEM_ATOM_UDEF_STEREO_COUNT>
0

> <PUBCHEM_BOND_DEF_STEREO_COUNT>
0

> <PUBCHEM_BOND_UDEF_STEREO_COUNT>
0

> <PUBCHEM_ISOTOPIC_ATOM_COUNT>
0

> <PUBCHEM_COMPONENT_COUNT>
1

> <PUBCHEM_CACTVS_TAUTO_COUNT>
1

> <PUBCHEM_COORDINATE_TYPE>
1
5
255

> <PUBCHEM_BONDANNOTATIONS>
1  14  8
1  15  8
10  13  8
13  14  8
13  19  8
14  20  8
19  22  8
20  21  8
21  22  8
9  10  8
9  15  8

$$$$

