8475
  -OEChem-06261202523D

 17 17  0     0  0  0  0  0  0999 V2000
    3.7878   -0.6991    0.0016 Cl  0  0  0  0  0  0  0  0  0  0  0  0
   -2.8642   -1.1212    0.0005 F   0  0  0  0  0  0  0  0  0  0  0  0
   -2.6410    0.7441    1.0843 F   0  0  0  0  0  0  0  0  0  0  0  0
   -2.6200    0.7441   -1.0902 F   0  0  0  0  0  0  0  0  0  0  0  0
    2.3493    1.9831    0.0015 N   0  0  0  0  0  0  0  0  0  0  0  0
   -0.6917   -0.1195    0.0003 C   0  0  0  0  0  0  0  0  0  0  0  0
    0.1438    0.9974    0.0009 C   0  0  0  0  0  0  0  0  0  0  0  0
    1.5289    0.8323    0.0009 C   0  0  0  0  0  0  0  0  0  0  0  0
   -0.1421   -1.4016   -0.0004 C   0  0  0  0  0  0  0  0  0  0  0  0
   -2.1725    0.0567    0.0009 C   0  0  0  0  0  0  0  0  0  0  0  0
    2.0785   -0.4496    0.0002 C   0  0  0  0  0  0  0  0  0  0  0  0
    1.2430   -1.5667   -0.0005 C   0  0  0  0  0  0  0  0  0  0  0  0
   -0.2893    1.9952    0.0016 H   0  0  0  0  0  0  0  0  0  0  0  0
   -0.7764   -2.2837   -0.0007 H   0  0  0  0  0  0  0  0  0  0  0  0
    1.6554   -2.5726   -0.0008 H   0  0  0  0  0  0  0  0  0  0  0  0
    1.9330    2.9047    0.0014 H   0  0  0  0  0  0  0  0  0  0  0  0
    3.3555    1.8815    0.0008 H   0  0  0  0  0  0  0  0  0  0  0  0
  1 11  1  0  0  0  0
  2 10  1  0  0  0  0
  3 10  1  0  0  0  0
  4 10  1  0  0  0  0
  5  8  1  0  0  0  0
  5 16  1  0  0  0  0
  5 17  1  0  0  0  0
  6  7  2  0  0  0  0
  6  9  1  0  0  0  0
  6 10  1  0  0  0  0
  7  8  1  0  0  0  0
  7 13  1  0  0  0  0
  8 11  2  0  0  0  0
  9 12  2  0  0  0  0
  9 14  1  0  0  0  0
 11 12  1  0  0  0  0
 12 15  1  0  0  0  0
M  END
> <PUBCHEM_COMPOUND_CID>
8475

> <PUBCHEM_CONFORMER_RMSD>
0.4

> <PUBCHEM_CONFORMER_DIVERSEORDER>
1

> <PUBCHEM_MMFF94_PARTIAL_CHARGES>
17
1 -0.18
10 1.16
11 0.18
12 -0.15
13 0.15
14 0.15
15 0.15
16 0.4
17 0.4
2 -0.34
3 -0.34
4 -0.34
5 -0.9
6 -0.14
7 -0.15
8 0.1
9 -0.15

> <PUBCHEM_EFFECTIVE_ROTOR_COUNT>
1

> <PUBCHEM_PHARMACOPHORE_FEATURES>
3
1 5 cation
1 5 donor
6 6 7 8 9 11 12 rings

> <PUBCHEM_HEAVY_ATOM_COUNT>
12

> <PUBCHEM_ATOM_DEF_STEREO_COUNT>
0

> <PUBCHEM_ATOM_UDEF_STEREO_COUNT>
0

> <PUBCHEM_BOND_DEF_STEREO_COUNT>
0

> <PUBCHEM_BOND_UDEF_STEREO_COUNT>
0

> <PUBCHEM_ISOTOPIC_ATOM_COUNT>
0

> <PUBCHEM_COMPONENT_COUNT>
1

> <PUBCHEM_CACTVS_TAUTO_COUNT>
1

> <PUBCHEM_CONFORMER_ID>
0000211B00000001

> <PUBCHEM_MMFF94_ENERGY>
31.0158

> <PUBCHEM_FEATURE_SELFOVERLAP>
15.223

> <PUBCHEM_SHAPE_FINGERPRINT>
10219947 1 18337112366816345610
12032990 46 18337666525040550198
124424 183 17774734172036163786
12897270 3 18412268354150192149
12932764 1 17917994992184878467
13380535 21 18125708007734104740
13380535 76 18194405485700323218
14325111 11 18410573942233537120
14993402 34 18408324414932435270
16945 1 18338797922135935206
17844478 74 17917417744543863025
18186145 218 18335134289457932780
193761 8 17906171750821129262
200 152 18114192912777483175
20201158 50 18341054115506115414
21028194 46 18342456997922240982
21040471 1 18266740169310733408
21501502 16 18266176124135617286
23402655 69 18194421098112647413
23552423 10 18412545400920837335
2748010 2 18267019458196667190
3248919 1 17894630365820744191
5084963 1 18342458106076563843
528886 8 18336831986544560227

> <PUBCHEM_SHAPE_MULTIPOLES>
222.02
4.93
1.63
0.73
0.21
0.19
0
-0.12
0.01
0.65
0
-0.33
0.08
0

> <PUBCHEM_SHAPE_SELFOVERLAP>
459.741

> <PUBCHEM_SHAPE_VOLUME>
129.3

> <PUBCHEM_COORDINATE_TYPE>
2
5
10

$$$$

