443790
  -OEChem-07051213033D

 46 49  0     0  0  0  0  0  0999 V2000
   -0.9091   -2.3205   -0.1258 O   0  0  0  0  0  0  0  0  0  0  0  0
    1.5582   -2.5928   -0.0719 O   0  0  0  0  0  0  0  0  0  0  0  0
    2.3250    2.6928    0.0540 O   0  0  0  0  0  0  0  0  0  0  0  0
   -5.0934    2.5056   -0.1203 O   0  0  0  0  0  0  0  0  0  0  0  0
    4.0668   -3.0520   -0.0206 O   0  0  0  0  0  0  0  0  0  0  0  0
    6.9553    0.6984    0.1206 O   0  0  0  0  0  0  0  0  0  0  0  0
   -6.1041   -0.4546    1.0684 O   0  0  0  0  0  0  0  0  0  0  0  0
   -6.2369   -0.4749   -1.2296 O   0  0  0  0  0  0  0  0  0  0  0  0
   -1.8392   -0.1050   -0.1007 C   0  0  0  0  0  0  0  0  0  0  0  0
    0.5737   -0.4519   -0.0525 C   0  0  0  0  0  0  0  0  0  0  0  0
    0.7772    0.9263   -0.0195 C   0  0  0  0  0  0  0  0  0  0  0  0
   -1.6327    1.2934   -0.0672 C   0  0  0  0  0  0  0  0  0  0  0  0
   -0.7288   -0.9655   -0.0931 C   0  0  0  0  0  0  0  0  0  0  0  0
   -0.3213    1.7953   -0.0269 C   0  0  0  0  0  0  0  0  0  0  0  0
   -3.1515   -0.6043   -0.1407 C   0  0  0  0  0  0  0  0  0  0  0  0
    3.0921   -0.8262   -0.0013 C   0  0  0  0  0  0  0  0  0  0  0  0
    3.2959    0.5547    0.0311 C   0  0  0  0  0  0  0  0  0  0  0  0
    1.7236   -1.3802   -0.0444 C   0  0  0  0  0  0  0  0  0  0  0  0
    2.1460    1.4815    0.0237 C   0  0  0  0  0  0  0  0  0  0  0  0
   -4.2444    0.2627   -0.1474 C   0  0  0  0  0  0  0  0  0  0  0  0
   -2.7447    2.1517   -0.0746 C   0  0  0  0  0  0  0  0  0  0  0  0
   -4.0414    1.6386   -0.1145 C   0  0  0  0  0  0  0  0  0  0  0  0
    4.1904   -1.6945    0.0077 C   0  0  0  0  0  0  0  0  0  0  0  0
    4.5979    1.0676    0.0717 C   0  0  0  0  0  0  0  0  0  0  0  0
   -3.4717   -2.0714   -0.1783 C   0  0  0  0  0  0  0  0  0  0  0  0
    5.6896    0.1989    0.0802 C   0  0  0  0  0  0  0  0  0  0  0  0
    5.4862   -1.1792    0.0485 C   0  0  0  0  0  0  0  0  0  0  0  0
   -5.6109   -0.2518   -0.1891 C   0  0  0  0  0  0  0  0  0  0  0  0
    7.0922    2.1181    0.1528 C   0  0  0  0  0  0  0  0  0  0  0  0
   -7.4401   -0.9609    1.1595 C   0  0  0  0  0  0  0  0  0  0  0  0
   -0.1657    2.8725   -0.0011 H   0  0  0  0  0  0  0  0  0  0  0  0
   -2.6024    3.2308   -0.0490 H   0  0  0  0  0  0  0  0  0  0  0  0
    4.7118    2.1457    0.0959 H   0  0  0  0  0  0  0  0  0  0  0  0
   -3.1009   -2.5683    0.7249 H   0  0  0  0  0  0  0  0  0  0  0  0
   -4.5358   -2.3181   -0.2107 H   0  0  0  0  0  0  0  0  0  0  0  0
   -3.0559   -2.5318   -1.0812 H   0  0  0  0  0  0  0  0  0  0  0  0
    6.3471   -1.8437    0.0561 H   0  0  0  0  0  0  0  0  0  0  0  0
   -0.1538   -2.7739    0.2792 H   0  0  0  0  0  0  0  0  0  0  0  0
   -5.9358    2.0243   -0.1448 H   0  0  0  0  0  0  0  0  0  0  0  0
    4.9486   -3.4617   -0.0078 H   0  0  0  0  0  0  0  0  0  0  0  0
    6.6541    2.5449    1.0615 H   0  0  0  0  0  0  0  0  0  0  0  0
    6.6979    2.5820   -0.7578 H   0  0  0  0  0  0  0  0  0  0  0  0
    8.1644    2.3379    0.1831 H   0  0  0  0  0  0  0  0  0  0  0  0
   -7.6916   -1.0696    2.2178 H   0  0  0  0  0  0  0  0  0  0  0  0
   -7.5051   -1.9416    0.6790 H   0  0  0  0  0  0  0  0  0  0  0  0
   -8.1417   -0.2579    0.7006 H   0  0  0  0  0  0  0  0  0  0  0  0
  1 13  1  0  0  0  0
  1 38  1  0  0  0  0
  2 18  2  0  0  0  0
  3 19  2  0  0  0  0
  4 22  1  0  0  0  0
  4 39  1  0  0  0  0
  5 23  1  0  0  0  0
  5 40  1  0  0  0  0
  6 26  1  0  0  0  0
  6 29  1  0  0  0  0
  7 28  1  0  0  0  0
  7 30  1  0  0  0  0
  8 28  2  0  0  0  0
  9 12  1  0  0  0  0
  9 13  2  0  0  0  0
  9 15  1  0  0  0  0
 10 11  2  0  0  0  0
 10 13  1  0  0  0  0
 10 18  1  0  0  0  0
 11 14  1  0  0  0  0
 11 19  1  0  0  0  0
 12 14  2  0  0  0  0
 12 21  1  0  0  0  0
 14 31  1  0  0  0  0
 15 20  2  0  0  0  0
 15 25  1  0  0  0  0
 16 17  2  0  0  0  0
 16 18  1  0  0  0  0
 16 23  1  0  0  0  0
 17 19  1  0  0  0  0
 17 24  1  0  0  0  0
 20 22  1  0  0  0  0
 20 28  1  0  0  0  0
 21 22  2  0  0  0  0
 21 32  1  0  0  0  0
 23 27  2  0  0  0  0
 24 26  2  0  0  0  0
 24 33  1  0  0  0  0
 25 34  1  0  0  0  0
 25 35  1  0  0  0  0
 25 36  1  0  0  0  0
 26 27  1  0  0  0  0
 27 37  1  0  0  0  0
 29 41  1  0  0  0  0
 29 42  1  0  0  0  0
 29 43  1  0  0  0  0
 30 44  1  0  0  0  0
 30 45  1  0  0  0  0
 30 46  1  0  0  0  0
M  END
> <PUBCHEM_COMPOUND_CID>
443790

> <PUBCHEM_CONFORMER_RMSD>
0.8

> <PUBCHEM_CONFORMER_DIVERSEORDER>
2
1

> <PUBCHEM_MMFF94_PARTIAL_CHARGES>
35
1 -0.53
10 0.09
11 0.09
13 0.08
14 -0.15
15 -0.14
16 0.09
17 0.09
18 0.4
19 0.4
2 -0.57
20 0.09
21 -0.15
22 0.08
23 0.08
24 -0.15
25 0.14
26 0.08
27 -0.15
28 0.63
29 0.28
3 -0.57
30 0.28
31 0.15
32 0.15
33 0.15
37 0.15
38 0.45
39 0.45
4 -0.53
40 0.45
5 -0.53
6 -0.36
7 -0.43
8 -0.57

> <PUBCHEM_EFFECTIVE_ROTOR_COUNT>
3

> <PUBCHEM_PHARMACOPHORE_FEATURES>
11
1 1 donor
1 2 acceptor
1 3 acceptor
1 4 donor
1 5 donor
1 6 acceptor
1 8 acceptor
6 10 11 16 17 18 19 rings
6 16 17 23 24 26 27 rings
6 9 10 11 12 13 14 rings
6 9 12 15 20 21 22 rings

> <PUBCHEM_HEAVY_ATOM_COUNT>
30

> <PUBCHEM_ATOM_DEF_STEREO_COUNT>
0

> <PUBCHEM_ATOM_UDEF_STEREO_COUNT>
0

> <PUBCHEM_BOND_DEF_STEREO_COUNT>
0

> <PUBCHEM_BOND_UDEF_STEREO_COUNT>
0

> <PUBCHEM_ISOTOPIC_ATOM_COUNT>
0

> <PUBCHEM_COMPONENT_COUNT>
1

> <PUBCHEM_CACTVS_TAUTO_COUNT>
363

> <PUBCHEM_CONFORMER_ID>
0006C58E00000002

> <PUBCHEM_MMFF94_ENERGY>
123.5068

> <PUBCHEM_FEATURE_SELFOVERLAP>
55.885

> <PUBCHEM_SHAPE_FINGERPRINT>
10 15 18272371932714932496
10411042 1 17977666739221269350
10595046 47 18335987544466103508
10835480 77 18341057414210310821
10906281 52 18337093619041518518
11578080 2 16915117345899621759
11963148 33 18342182124316721611
12107183 9 17616250720648362464
12236239 1 17822292400607399830
12516196 113 18187366527801821464
12788726 201 17386283311276823760
12838862 33 18338254685940179124
13073987 5 18411135882927757257
13140716 1 18194118512590499858
13402501 40 18411982468136579782
13533116 47 18113620110126958146
13685833 64 18413666911687419849
13782708 43 17703228541367863699
14251764 18 18333448724973343665
14341114 176 18409726278929738550
14394314 77 18334006229378538217
14790565 3 18410008875394274676
14849402 71 18261388893152642177
15131766 46 14130497294250142034
15183329 4 18409172103541657967
15196674 1 18338518645992478660
15927050 60 17613439948448791580
17492 89 18122064475456152866
1813 80 17131829902128079780
18608769 82 18340204077201596339
18681886 176 18335710403333363128
19611394 137 17987222353098566083
21130935 74 18336826493313433690
21236236 1 18408886274180512461
21267235 1 18410848880254166583
21279426 13 18267022941093261324
21521721 280 18260265209943958312
22149856 69 18335969961012698505
23522609 53 18119216585542380361
23559900 14 18337399222907387785
24771293 8 18043828498349385984
3004659 81 18271243928458672270
3178227 256 18411693258018786545
335352 9 18410013195978160253
34797466 226 17822284683147248788
350125 39 18409449163339688465
3545911 37 18409730651417403404
3680242 22 18198627820720361914
4073 2 18202560649280028906
4093350 32 17167855379469561446
4214541 1 18410294743985301205
46194498 28 17704072876261698220
5104073 3 18338237179621599081

> <PUBCHEM_SHAPE_MULTIPOLES>
570.43
17.31
2.77
0.72
2.04
0.19
0.04
-1.09
2.07
-1.28
-0.05
0.78
0.07
0.43

> <PUBCHEM_SHAPE_SELFOVERLAP>
1295.257

> <PUBCHEM_SHAPE_VOLUME>
298.2

> <PUBCHEM_COORDINATE_TYPE>
2
5
10

$$$$

