49787025
  -OEChem-07051213082D

 75 76  0     1  0  0  0  0  0999 V2000
    4.5981    2.7954    0.0000 O   0  0  0  0  0  0  0  0  0  0  0  0
    5.4641    0.2954    0.0000 O   0  0  0  0  0  0  0  0  0  0  0  0
    9.3124   -1.3011    0.0000 O   0  0  0  0  0  0  0  0  0  0  0  0
    8.8555    0.4041    0.0000 O   0  0  0  0  0  0  0  0  0  0  0  0
    4.6717    0.6374    0.0000 O   0  0  0  0  0  0  0  0  0  0  0  0
    5.0706   -0.6467    0.0000 O   0  0  0  0  0  0  0  0  0  0  0  0
    3.7320   -1.7046    0.0000 N   0  0  0  0  0  0  0  0  0  0  0  0
    4.5981    1.7954    0.0000 C   0  0  2  0  0  0  0  0  0  0  0  0
    5.4641    1.2954    0.0000 C   0  0  1  0  0  0  0  0  0  0  0  0
    3.7320    1.2954    0.0000 C   0  0  0  0  0  0  0  0  0  0  0  0
    2.8660    1.7954    0.0000 C   0  0  1  0  0  0  0  0  0  0  0  0
    6.3301    1.7954    0.0000 C   0  0  3  0  0  0  0  0  0  0  0  0
    2.0000    1.2954    0.0000 C   0  0  0  0  0  0  0  0  0  0  0  0
    7.1962    1.2954    0.0000 C   0  0  0  0  0  0  0  0  0  0  0  0
    2.8660    2.7954    0.0000 C   0  0  0  0  0  0  0  0  0  0  0  0
    6.3301    2.7954    0.0000 C   0  0  0  0  0  0  0  0  0  0  0  0
    7.1962    0.2954    0.0000 C   0  0  0  0  0  0  0  0  0  0  0  0
    8.0622   -0.2046    0.0000 C   0  0  1  0  0  0  0  0  0  0  0  0
    8.3210   -1.1705    0.0000 C   0  0  2  0  0  0  0  0  0  0  0  0
    2.0000    0.2954    0.0000 C   0  0  0  0  0  0  0  0  0  0  0  0
    7.8210   -2.0366    0.0000 C   0  0  0  0  0  0  0  0  0  0  0  0
    6.3301   -0.2046    0.0000 C   0  0  0  0  0  0  0  0  0  0  0  0
    3.7320    3.2954    0.0000 C   0  0  0  0  0  0  0  0  0  0  0  0
    2.0000   -0.7046    0.0000 C   0  0  0  0  0  0  0  0  0  0  0  0
    6.8551   -2.2954    0.0000 C   0  0  0  0  0  0  0  0  0  0  0  0
    2.8660    0.7954    0.0000 C   0  0  0  0  0  0  0  0  0  0  0  0
    2.8660   -1.2046    0.0000 C   0  0  0  0  0  0  0  0  0  0  0  0
    3.7320    0.2954    0.0000 C   0  0  0  0  0  0  0  0  0  0  0  0
    6.1480   -1.5883    0.0000 C   0  0  0  0  0  0  0  0  0  0  0  0
    3.7320   -0.7046    0.0000 C   0  0  0  0  0  0  0  0  0  0  0  0
    5.4409   -2.2954    0.0000 C   0  0  0  0  0  0  0  0  0  0  0  0
    9.6951   -2.2250    0.0000 C   0  0  0  0  0  0  0  0  0  0  0  0
    4.7338   -1.5883    0.0000 C   0  0  0  0  0  0  0  0  0  0  0  0
    5.4409   -3.2954    0.0000 C   0  0  0  0  0  0  0  0  0  0  0  0
    5.1350    2.1054    0.0000 H   0  0  0  0  0  0  0  0  0  0  0  0
    6.0010    0.9854    0.0000 H   0  0  0  0  0  0  0  0  0  0  0  0
    3.3335    0.8204    0.0000 H   0  0  0  0  0  0  0  0  0  0  0  0
    4.1306    0.8204    0.0000 H   0  0  0  0  0  0  0  0  0  0  0  0
    3.4030    2.1054    0.0000 H   0  0  0  0  0  0  0  0  0  0  0  0
    6.8671    2.1054    0.0000 H   0  0  0  0  0  0  0  0  0  0  0  0
    1.7880    1.8780    0.0000 H   0  0  0  0  0  0  0  0  0  0  0  0
    1.3894    1.1877    0.0000 H   0  0  0  0  0  0  0  0  0  0  0  0
    7.7331    1.6054    0.0000 H   0  0  0  0  0  0  0  0  0  0  0  0
    3.4860    2.7954    0.0000 H   0  0  0  0  0  0  0  0  0  0  0  0
    2.8660    3.4154    0.0000 H   0  0  0  0  0  0  0  0  0  0  0  0
    2.2460    2.7954    0.0000 H   0  0  0  0  0  0  0  0  0  0  0  0
    6.9501    2.7954    0.0000 H   0  0  0  0  0  0  0  0  0  0  0  0
    6.3301    3.4154    0.0000 H   0  0  0  0  0  0  0  0  0  0  0  0
    5.7101    2.7954    0.0000 H   0  0  0  0  0  0  0  0  0  0  0  0
    8.0216    0.4141    0.0000 H   0  0  0  0  0  0  0  0  0  0  0  0
    8.7298   -0.7044    0.0000 H   0  0  0  0  0  0  0  0  0  0  0  0
    4.9272   -0.0146    0.0000 H   0  0  0  0  0  0  0  0  0  0  0  0
    7.8210   -2.6566    0.0000 H   0  0  0  0  0  0  0  0  0  0  0  0
    8.4199   -2.1970    0.0000 H   0  0  0  0  0  0  0  0  0  0  0  0
    6.0201    0.3323    0.0000 H   0  0  0  0  0  0  0  0  0  0  0  0
    5.7932   -0.5146    0.0000 H   0  0  0  0  0  0  0  0  0  0  0  0
    6.6401   -0.7416    0.0000 H   0  0  0  0  0  0  0  0  0  0  0  0
    4.0420    3.8323    0.0000 H   0  0  0  0  0  0  0  0  0  0  0  0
    3.1951    3.6054    0.0000 H   0  0  0  0  0  0  0  0  0  0  0  0
    3.4220    2.7584    0.0000 H   0  0  0  0  0  0  0  0  0  0  0  0
    1.4631   -1.0146    0.0000 H   0  0  0  0  0  0  0  0  0  0  0  0
    6.3472   -2.6510    0.0000 H   0  0  0  0  0  0  0  0  0  0  0  0
    7.1171   -2.8573    0.0000 H   0  0  0  0  0  0  0  0  0  0  0  0
    2.8660    1.4154    0.0000 H   0  0  0  0  0  0  0  0  0  0  0  0
    9.4283    0.1669    0.0000 H   0  0  0  0  0  0  0  0  0  0  0  0
    6.1480   -0.9683    0.0000 H   0  0  0  0  0  0  0  0  0  0  0  0
    4.2690   -1.0146    0.0000 H   0  0  0  0  0  0  0  0  0  0  0  0
    3.5988   -2.3101    0.0000 H   0  0  0  0  0  0  0  0  0  0  0  0
    9.1223   -2.4622    0.0000 H   0  0  0  0  0  0  0  0  0  0  0  0
    9.9324   -2.7978    0.0000 H   0  0  0  0  0  0  0  0  0  0  0  0
   10.2679   -1.9877    0.0000 H   0  0  0  0  0  0  0  0  0  0  0  0
    4.8209   -3.2954    0.0000 H   0  0  0  0  0  0  0  0  0  0  0  0
    5.4409   -3.9154    0.0000 H   0  0  0  0  0  0  0  0  0  0  0  0
    6.0609   -3.2954    0.0000 H   0  0  0  0  0  0  0  0  0  0  0  0
    4.3617    1.1743    0.0000 H   0  0  0  0  0  0  0  0  0  0  0  0
  8  1  1  6  0  0  0
  1 23  1  0  0  0  0
  9  2  1  1  0  0  0
  2 52  1  0  0  0  0
 19  3  1  1  0  0  0
  3 32  1  0  0  0  0
 18  4  1  6  0  0  0
  4 65  1  0  0  0  0
  5 28  1  0  0  0  0
  5 75  1  0  0  0  0
  6 33  2  0  0  0  0
  7 27  1  0  0  0  0
  7 33  1  0  0  0  0
  7 68  1  0  0  0  0
  8  9  1  0  0  0  0
  8 10  1  0  0  0  0
  8 35  1  0  0  0  0
  9 12  1  0  0  0  0
  9 36  1  0  0  0  0
 10 11  1  0  0  0  0
 10 37  1  0  0  0  0
 10 38  1  0  0  0  0
 11 13  1  0  0  0  0
 11 15  1  1  0  0  0
 11 39  1  0  0  0  0
 12 14  1  0  0  0  0
 12 16  1  0  0  0  0
 12 40  1  0  0  0  0
 13 20  1  0  0  0  0
 13 41  1  0  0  0  0
 13 42  1  0  0  0  0
 14 17  2  0  0  0  0
 14 43  1  0  0  0  0
 15 44  1  0  0  0  0
 15 45  1  0  0  0  0
 15 46  1  0  0  0  0
 16 47  1  0  0  0  0
 16 48  1  0  0  0  0
 16 49  1  0  0  0  0
 17 18  1  0  0  0  0
 17 22  1  0  0  0  0
 18 19  1  0  0  0  0
 18 50  1  0  0  0  0
 19 21  1  0  0  0  0
 19 51  1  0  0  0  0
 20 24  2  0  0  0  0
 20 26  1  0  0  0  0
 21 25  1  0  0  0  0
 21 53  1  0  0  0  0
 21 54  1  0  0  0  0
 22 55  1  0  0  0  0
 22 56  1  0  0  0  0
 22 57  1  0  0  0  0
 23 58  1  0  0  0  0
 23 59  1  0  0  0  0
 23 60  1  0  0  0  0
 24 27  1  0  0  0  0
 24 61  1  0  0  0  0
 25 29  1  0  0  0  0
 25 62  1  0  0  0  0
 25 63  1  0  0  0  0
 26 28  2  0  0  0  0
 26 64  1  0  0  0  0
 27 30  2  0  0  0  0
 28 30  1  0  0  0  0
 29 31  2  0  0  0  0
 29 66  1  0  0  0  0
 30 67  1  0  0  0  0
 31 33  1  0  0  0  0
 31 34  1  0  0  0  0
 32 69  1  0  0  0  0
 32 70  1  0  0  0  0
 32 71  1  0  0  0  0
 34 72  1  0  0  0  0
 34 73  1  0  0  0  0
 34 74  1  0  0  0  0
M  END
> <PUBCHEM_COMPOUND_CID>
49787025

> <PUBCHEM_COMPOUND_CANONICALIZED>
1

> <PUBCHEM_CACTVS_COMPLEXITY>
707

> <PUBCHEM_CACTVS_HBOND_ACCEPTOR>
6

> <PUBCHEM_CACTVS_HBOND_DONOR>
4

> <PUBCHEM_CACTVS_ROTATABLE_BOND>
2

> <PUBCHEM_CACTVS_SUBSKEYS>
AAADcfB6OAAAAAAAAAAAAAAAAAAAAAAAAAAwAAAAAAAAAAABAAAAHgAQCAAADRyhmAIyxoLABgCIAiVSUACCAAAhIgAAiAEGbMgJNiLCkZOEcAhm1BnL2YeQ0PMOAAABQgAAAAAAAAKEAAAAAAAAAAAAAA==

> <PUBCHEM_IUPAC_OPENEYE_NAME>
(3R,5S,6R,8E,10S,11S,14E)-6,10,20-trihydroxy-5,11-dimethoxy-3,7,9,15-tetramethyl-17-azabicyclo[16.3.1]docosa-1(22),8,14,18,20-pentaen-16-one

> <PUBCHEM_IUPAC_CAS_NAME>
(3R,5S,6R,8E,10S,11S,14E)-6,10,20-trihydroxy-5,11-dimethoxy-3,7,9,15-tetramethyl-17-azabicyclo[16.3.1]docosa-1(22),8,14,18,20-pentaen-16-one

> <PUBCHEM_IUPAC_NAME>
(3R,5S,6R,8E,10S,11S,14E)-6,10,20-trihydroxy-5,11-dimethoxy-3,7,9,15-tetramethyl-17-azabicyclo[16.3.1]docosa-1(22),8,14,18,20-pentaen-16-one

> <PUBCHEM_IUPAC_SYSTEMATIC_NAME>
(3R,5S,6R,8E,10S,11S,14E)-5,11-dimethoxy-3,7,9,15-tetramethyl-6,10,20-tris(oxidanyl)-17-azabicyclo[16.3.1]docosa-1(22),8,14,18,20-pentaen-16-one

> <PUBCHEM_IUPAC_TRADITIONAL_NAME>
(3R,5S,6R,8E,10S,11S,14E)-6,10,20-trihydroxy-5,11-dimethoxy-3,7,9,15-tetramethyl-17-azabicyclo[16.3.1]docosa-1(22),8,14,18,20-pentaen-16-one

> <PUBCHEM_IUPAC_INCHI>
InChI=1S/C27H41NO6/c1-16-10-20-13-21(15-22(29)14-20)28-27(32)17(2)8-7-9-23(33-5)25(30)18(3)12-19(4)26(31)24(11-16)34-6/h8,12-16,19,23-26,29-31H,7,9-11H2,1-6H3,(H,28,32)/b17-8+,18-12+/t16-,19?,23+,24+,25+,26-/m1/s1

> <PUBCHEM_IUPAC_INCHIKEY>
JUHXUUXMSBXUJZ-ISVCGJASSA-N

> <PUBCHEM_XLOGP3_AA>
3.2

> <PUBCHEM_EXACT_MASS>
475.293388

> <PUBCHEM_MOLECULAR_FORMULA>
C27H41NO6

> <PUBCHEM_MOLECULAR_WEIGHT>
475.61754

> <PUBCHEM_OPENEYE_CAN_SMILES>
CC1CC(C(C(C=C(C(C(CCC=C(C(=O)NC2=CC(=CC(=C2)C1)O)C)OC)O)C)C)O)OC

> <PUBCHEM_OPENEYE_ISO_SMILES>
C[C@H]1C[C@@H]([C@@H](C(/C=C(/[C@@H]([C@H](CC/C=C(/C(=O)NC2=CC(=CC(=C2)C1)O)\C)OC)O)\C)C)O)OC

> <PUBCHEM_CACTVS_TPSA>
108

> <PUBCHEM_MONOISOTOPIC_WEIGHT>
475.293388

> <PUBCHEM_TOTAL_CHARGE>
0

> <PUBCHEM_HEAVY_ATOM_COUNT>
34

> <PUBCHEM_ATOM_DEF_STEREO_COUNT>
5

> <PUBCHEM_ATOM_UDEF_STEREO_COUNT>
1

> <PUBCHEM_BOND_DEF_STEREO_COUNT>
2

> <PUBCHEM_BOND_UDEF_STEREO_COUNT>
0

> <PUBCHEM_ISOTOPIC_ATOM_COUNT>
0

> <PUBCHEM_COMPONENT_COUNT>
1

> <PUBCHEM_CACTVS_TAUTO_COUNT>
2

> <PUBCHEM_COORDINATE_TYPE>
1
5
255

> <PUBCHEM_BONDANNOTATIONS>
8  1  6
11  15  5
12  16  3
9  2  5
20  24  8
20  26  8
24  27  8
26  28  8
27  30  8
28  30  8
19  3  5
18  4  6

$$$$

