443297
  -OEChem-07051213012D

  7  5  0     0  0  0  0  0  0999 V2000
    0.4699    0.0000    0.0000 Cl  0  0  0  0  0  0  0  0  0  0  0  0
    1.4030    3.6200    0.0000 O   0  0  0  0  0  0  0  0  0  0  0  0
    0.5369    3.1200    0.0000 N   0  0  0  0  0  0  0  0  0  0  0  0
    0.0000    3.4300    0.0000 H   0  0  0  0  0  0  0  0  0  0  0  0
    0.5369    2.5000    0.0000 H   0  0  0  0  0  0  0  0  0  0  0  0
    1.9399    3.3100    0.0000 H   0  0  0  0  0  0  0  0  0  0  0  0
    1.4700    0.0000    0.0000 H   0  0  0  0  0  0  0  0  0  0  0  0
  1  7  1  0  0  0  0
  2  3  1  0  0  0  0
  2  6  1  0  0  0  0
  3  4  1  0  0  0  0
  3  5  1  0  0  0  0
M  END
> <PUBCHEM_COMPOUND_CID>
443297

> <PUBCHEM_COMPOUND_CANONICALIZED>
1

> <PUBCHEM_CACTVS_COMPLEXITY>
2

> <PUBCHEM_CACTVS_HBOND_ACCEPTOR>
2

> <PUBCHEM_CACTVS_HBOND_DONOR>
3

> <PUBCHEM_CACTVS_ROTATABLE_BOND>
0

> <PUBCHEM_CACTVS_SUBSKEYS>
AAADcYACIAAEAAAAAAAAAAAAAAAAAAAAAAAAAAAAAAAAAAAAAAAAAAAUCAAAAAAAAAAAAAAAAAAAAAAAAAAAAAAAAAAAAAAAAAAAAAAAAAAAAAAAAAAAAAAAAAAAAAAAAAAAAAAAAAAAAAAAAAAAAAAAAA==

> <PUBCHEM_IUPAC_OPENEYE_NAME>
hydroxylamine hydrochloride

> <PUBCHEM_IUPAC_CAS_NAME>
hydroxylamine hydrochloride

> <PUBCHEM_IUPAC_NAME>
hydroxylamine hydrochloride

> <PUBCHEM_IUPAC_SYSTEMATIC_NAME>
azinous acid hydrochloride

> <PUBCHEM_IUPAC_TRADITIONAL_NAME>
hydroxylamine hydrochloride

> <PUBCHEM_IUPAC_INCHI>
InChI=1S/ClH.H3NO/c;1-2/h1H;2H,1H2

> <PUBCHEM_IUPAC_INCHIKEY>
WTDHULULXKLSOZ-UHFFFAOYSA-N

> <PUBCHEM_EXACT_MASS>
68.998141

> <PUBCHEM_MOLECULAR_FORMULA>
ClH4NO

> <PUBCHEM_MOLECULAR_WEIGHT>
69.49086

> <PUBCHEM_OPENEYE_CAN_SMILES>
NO.Cl

> <PUBCHEM_OPENEYE_ISO_SMILES>
NO.Cl

> <PUBCHEM_CACTVS_TPSA>
46.2

> <PUBCHEM_MONOISOTOPIC_WEIGHT>
68.998141

> <PUBCHEM_TOTAL_CHARGE>
0

> <PUBCHEM_HEAVY_ATOM_COUNT>
3

> <PUBCHEM_ATOM_DEF_STEREO_COUNT>
0

> <PUBCHEM_ATOM_UDEF_STEREO_COUNT>
0

> <PUBCHEM_BOND_DEF_STEREO_COUNT>
0

> <PUBCHEM_BOND_UDEF_STEREO_COUNT>
0

> <PUBCHEM_ISOTOPIC_ATOM_COUNT>
0

> <PUBCHEM_COMPONENT_COUNT>
2

> <PUBCHEM_CACTVS_TAUTO_COUNT>
1

> <PUBCHEM_COORDINATE_TYPE>
1
5
255

$$$$

