4765
  -OEChem-07051213033D

 17 17  0     0  0  0  0  0  0999 V2000
    2.1297   -0.0024    0.0887 S   0  0  0  0  0  0  0  0  0  0  0  0
    2.5953    0.0038   -1.4785 O   0  0  0  0  0  0  0  0  0  0  0  0
   -3.7660    0.0039   -0.0483 O   0  0  0  0  0  0  0  0  0  0  0  0
    2.5667    1.2601    0.6665 O   0  0  0  0  0  0  0  0  0  0  0  0
    2.5389   -1.2684    0.6765 O   0  0  0  0  0  0  0  0  0  0  0  0
    0.3838   -0.0011    0.0481 C   0  0  0  0  0  0  0  0  0  0  0  0
   -0.3123    1.2077    0.0370 C   0  0  0  0  0  0  0  0  0  0  0  0
   -0.3147   -1.2084    0.0269 C   0  0  0  0  0  0  0  0  0  0  0  0
   -1.7068    1.2093    0.0048 C   0  0  0  0  0  0  0  0  0  0  0  0
   -1.7093   -1.2067   -0.0053 C   0  0  0  0  0  0  0  0  0  0  0  0
   -2.4052    0.0022   -0.0163 C   0  0  0  0  0  0  0  0  0  0  0  0
    0.2107    2.1597    0.0457 H   0  0  0  0  0  0  0  0  0  0  0  0
    0.2055   -2.1620    0.0271 H   0  0  0  0  0  0  0  0  0  0  0  0
   -2.2435    2.1540   -0.0053 H   0  0  0  0  0  0  0  0  0  0  0  0
   -2.2419   -2.1537   -0.0234 H   0  0  0  0  0  0  0  0  0  0  0  0
    2.3134    0.7917   -2.0002 H   0  0  0  0  0  0  0  0  0  0  0  0
   -4.0820   -0.9160   -0.0594 H   0  0  0  0  0  0  0  0  0  0  0  0
  1  2  1  0  0  0  0
  1  4  2  0  0  0  0
  1  5  2  0  0  0  0
  1  6  1  0  0  0  0
  2 16  1  0  0  0  0
  3 11  1  0  0  0  0
  3 17  1  0  0  0  0
  6  7  2  0  0  0  0
  6  8  1  0  0  0  0
  7  9  1  0  0  0  0
  7 12  1  0  0  0  0
  8 10  2  0  0  0  0
  8 13  1  0  0  0  0
  9 11  2  0  0  0  0
  9 14  1  0  0  0  0
 10 11  1  0  0  0  0
 10 15  1  0  0  0  0
M  END
> <PUBCHEM_COMPOUND_CID>
4765

> <PUBCHEM_CONFORMER_RMSD>
0.4

> <PUBCHEM_CONFORMER_DIVERSEORDER>
1

> <PUBCHEM_MMFF94_PARTIAL_CHARGES>
17
1 1.49
10 -0.15
11 0.08
12 0.15
13 0.15
14 0.15
15 0.15
16 0.5
17 0.45
2 -0.68
3 -0.53
4 -0.65
5 -0.65
6 -0.01
7 -0.15
8 -0.15
9 -0.15

> <PUBCHEM_EFFECTIVE_ROTOR_COUNT>
1

> <PUBCHEM_PHARMACOPHORE_FEATURES>
6
1 2 acceptor
1 3 donor
1 4 acceptor
1 5 acceptor
4 1 2 4 5 anion
6 6 7 8 9 10 11 rings

> <PUBCHEM_HEAVY_ATOM_COUNT>
11

> <PUBCHEM_ATOM_DEF_STEREO_COUNT>
0

> <PUBCHEM_ATOM_UDEF_STEREO_COUNT>
0

> <PUBCHEM_BOND_DEF_STEREO_COUNT>
0

> <PUBCHEM_BOND_UDEF_STEREO_COUNT>
0

> <PUBCHEM_ISOTOPIC_ATOM_COUNT>
0

> <PUBCHEM_COMPONENT_COUNT>
1

> <PUBCHEM_CACTVS_TAUTO_COUNT>
2

> <PUBCHEM_CONFORMER_ID>
0000129D00000001

> <PUBCHEM_MMFF94_ENERGY>
16.8462

> <PUBCHEM_FEATURE_SELFOVERLAP>
30.503

> <PUBCHEM_SHAPE_FINGERPRINT>
10857977 72 18339088085831427497
12524768 44 18259982643586559700
12897270 3 18408881836787958998
12932764 1 18410853261141836021
14325111 11 18410578400678661273
15310529 11 16845855685076239645
15775835 57 18413386540411874104
16945 1 18411417306554562897
20201158 50 18040149630435226134
20645464 45 18113907035000156680
20645476 183 17917416593223940415
21040471 1 18339922730915265388
23402655 69 18121520179115307093
23552423 10 18199185083651467781
2748010 2 18122065299825369581
369184 2 18409737256934582515
5084963 1 17845937449739221028
7364860 26 18335423487091783770
8030462 33 18343860030688836046

> <PUBCHEM_SHAPE_MULTIPOLES>
206.75
4.73
1.4
0.81
0.58
0
-0.19
-0.01
-0.12
-0.03
0.16
-0.57
0
0

> <PUBCHEM_SHAPE_SELFOVERLAP>
419.573

> <PUBCHEM_SHAPE_VOLUME>
121

> <PUBCHEM_COORDINATE_TYPE>
2
5
10

$$$$

