542762
  -OEChem-07051213132D

  8  7  0     1  0  0  0  0  0999 V2000
    5.1350   -0.2500    0.0000 Br  0  0  0  0  0  0  0  0  0  0  0  0
    4.2690    1.2500    0.0000 Cl  0  0  0  0  0  0  0  0  0  0  0  0
    2.5369    0.2500    0.0000 O   0  0  0  0  0  0  0  0  0  0  0  0
    3.4030   -1.2500    0.0000 O   0  0  0  0  0  0  0  0  0  0  0  0
    4.2690    0.2500    0.0000 C   0  0  3  0  0  0  0  0  0  0  0  0
    3.4030   -0.2500    0.0000 C   0  0  0  0  0  0  0  0  0  0  0  0
    4.2690   -0.6000    0.0000 H   0  0  0  0  0  0  0  0  0  0  0  0
    2.0000   -0.0600    0.0000 H   0  0  0  0  0  0  0  0  0  0  0  0
  1  5  1  0  0  0  0
  2  5  1  0  0  0  0
  3  6  1  0  0  0  0
  3  8  1  0  0  0  0
  4  6  2  0  0  0  0
  5  6  1  0  0  0  0
  5  7  1  0  0  0  0
M  END
> <PUBCHEM_COMPOUND_CID>
542762

> <PUBCHEM_COMPOUND_CANONICALIZED>
1

> <PUBCHEM_CACTVS_COMPLEXITY>
64.6

> <PUBCHEM_CACTVS_HBOND_ACCEPTOR>
2

> <PUBCHEM_CACTVS_HBOND_DONOR>
1

> <PUBCHEM_CACTVS_ROTATABLE_BOND>
1

> <PUBCHEM_CACTVS_SUBSKEYS>
AAADcQBAMAAEEAAAAAAAAAAAAAAAAAAAAAAAAAAAAAAAAAAAAAAAGgJACAABQAOAgEAACAAAAgAIAACQCAAAAAAAAAAAAAAAAQBgAAAAAAAAAAAAAAAAAAAAAAAAAAAAAAAAAAAAAAAAAAAAAAAAAAAAAA==

> <PUBCHEM_IUPAC_OPENEYE_NAME>
2-bromo-2-chloro-acetic acid

> <PUBCHEM_IUPAC_CAS_NAME>
2-bromo-2-chloroacetic acid

> <PUBCHEM_IUPAC_NAME>
2-bromo-2-chloroacetic acid

> <PUBCHEM_IUPAC_SYSTEMATIC_NAME>
2-bromanyl-2-chloranyl-ethanoic acid

> <PUBCHEM_IUPAC_TRADITIONAL_NAME>
2-bromo-2-chloro-acetic acid

> <PUBCHEM_IUPAC_INCHI>
InChI=1S/C2H2BrClO2/c3-1(4)2(5)6/h1H,(H,5,6)

> <PUBCHEM_IUPAC_INCHIKEY>
GEHJBWKLJVFKPS-UHFFFAOYSA-N

> <PUBCHEM_XLOGP3_AA>
1.3

> <PUBCHEM_EXACT_MASS>
171.892669

> <PUBCHEM_MOLECULAR_FORMULA>
C2H2BrClO2

> <PUBCHEM_MOLECULAR_WEIGHT>
173.39308

> <PUBCHEM_OPENEYE_CAN_SMILES>
C(C(=O)O)(Cl)Br

> <PUBCHEM_OPENEYE_ISO_SMILES>
C(C(=O)O)(Cl)Br

> <PUBCHEM_CACTVS_TPSA>
37.3

> <PUBCHEM_MONOISOTOPIC_WEIGHT>
171.892669

> <PUBCHEM_TOTAL_CHARGE>
0

> <PUBCHEM_HEAVY_ATOM_COUNT>
6

> <PUBCHEM_ATOM_DEF_STEREO_COUNT>
0

> <PUBCHEM_ATOM_UDEF_STEREO_COUNT>
1

> <PUBCHEM_BOND_DEF_STEREO_COUNT>
0

> <PUBCHEM_BOND_UDEF_STEREO_COUNT>
0

> <PUBCHEM_ISOTOPIC_ATOM_COUNT>
0

> <PUBCHEM_COMPONENT_COUNT>
1

> <PUBCHEM_CACTVS_TAUTO_COUNT>
1

> <PUBCHEM_COORDINATE_TYPE>
1
5
255

> <PUBCHEM_BONDANNOTATIONS>
5  7  3

$$$$

