17395657
  -OEChem-06241222512D

 43 44  0     0  0  0  0  0  0999 V2000
    6.3301    5.2500    0.0000 F   0  0  0  0  0  0  0  0  0  0  0  0
    2.8660   -1.7500    0.0000 O   0  0  0  0  0  0  0  0  0  0  0  0
    6.3301   -3.7500    0.0000 O   0  0  0  0  0  0  0  0  0  0  0  0
    4.5981   -4.7500    0.0000 O   0  0  0  0  0  0  0  0  0  0  0  0
    4.5981    1.2500    0.0000 O   0  0  0  0  0  0  0  0  0  0  0  0
    5.4641   -0.2500    0.0000 N   0  0  0  0  0  0  0  0  0  0  0  0
    6.3301    1.2500    0.0000 N   0  0  0  0  0  0  0  0  0  0  0  0
    4.5981   -1.7500    0.0000 C   0  0  0  0  0  0  0  0  0  0  0  0
    4.5981   -0.7500    0.0000 C   0  0  0  0  0  0  0  0  0  0  0  0
    3.7320   -2.2500    0.0000 C   0  0  0  0  0  0  0  0  0  0  0  0
    5.4641   -2.2500    0.0000 C   0  0  0  0  0  0  0  0  0  0  0  0
    5.4641   -3.2500    0.0000 C   0  0  0  0  0  0  0  0  0  0  0  0
    4.5981   -3.7500    0.0000 C   0  0  0  0  0  0  0  0  0  0  0  0
    3.7320   -3.2500    0.0000 C   0  0  0  0  0  0  0  0  0  0  0  0
    5.4641    0.7500    0.0000 C   0  0  0  0  0  0  0  0  0  0  0  0
    6.3301    2.2500    0.0000 C   0  0  0  0  0  0  0  0  0  0  0  0
    2.0000   -2.2500    0.0000 C   0  0  0  0  0  0  0  0  0  0  0  0
    7.1962    2.7500    0.0000 C   0  0  0  0  0  0  0  0  0  0  0  0
    5.4641    2.7500    0.0000 C   0  0  0  0  0  0  0  0  0  0  0  0
    7.1962   -3.2500    0.0000 C   0  0  0  0  0  0  0  0  0  0  0  0
    3.7320   -5.2500    0.0000 C   0  0  0  0  0  0  0  0  0  0  0  0
    7.1962    3.7500    0.0000 C   0  0  0  0  0  0  0  0  0  0  0  0
    5.4641    3.7500    0.0000 C   0  0  0  0  0  0  0  0  0  0  0  0
    6.3301    4.2500    0.0000 C   0  0  0  0  0  0  0  0  0  0  0  0
    4.3860   -0.1674    0.0000 H   0  0  0  0  0  0  0  0  0  0  0  0
    3.9875   -0.8577    0.0000 H   0  0  0  0  0  0  0  0  0  0  0  0
    6.0010   -1.9400    0.0000 H   0  0  0  0  0  0  0  0  0  0  0  0
    3.1951   -3.5600    0.0000 H   0  0  0  0  0  0  0  0  0  0  0  0
    6.0010   -0.5600    0.0000 H   0  0  0  0  0  0  0  0  0  0  0  0
    6.8671    0.9400    0.0000 H   0  0  0  0  0  0  0  0  0  0  0  0
    1.6900   -1.7131    0.0000 H   0  0  0  0  0  0  0  0  0  0  0  0
    1.4631   -2.5600    0.0000 H   0  0  0  0  0  0  0  0  0  0  0  0
    2.3100   -2.7869    0.0000 H   0  0  0  0  0  0  0  0  0  0  0  0
    7.7331    2.4400    0.0000 H   0  0  0  0  0  0  0  0  0  0  0  0
    4.9272    2.4400    0.0000 H   0  0  0  0  0  0  0  0  0  0  0  0
    7.5062   -3.7869    0.0000 H   0  0  0  0  0  0  0  0  0  0  0  0
    7.7331   -2.9400    0.0000 H   0  0  0  0  0  0  0  0  0  0  0  0
    6.8862   -2.7131    0.0000 H   0  0  0  0  0  0  0  0  0  0  0  0
    3.4220   -4.7131    0.0000 H   0  0  0  0  0  0  0  0  0  0  0  0
    3.1951   -5.5600    0.0000 H   0  0  0  0  0  0  0  0  0  0  0  0
    4.0420   -5.7869    0.0000 H   0  0  0  0  0  0  0  0  0  0  0  0
    7.7331    4.0600    0.0000 H   0  0  0  0  0  0  0  0  0  0  0  0
    4.9272    4.0600    0.0000 H   0  0  0  0  0  0  0  0  0  0  0  0
  1 24  1  0  0  0  0
  2 10  1  0  0  0  0
  2 17  1  0  0  0  0
  3 12  1  0  0  0  0
  3 20  1  0  0  0  0
  4 13  1  0  0  0  0
  4 21  1  0  0  0  0
  5 15  2  0  0  0  0
  6  9  1  0  0  0  0
  6 15  1  0  0  0  0
  6 29  1  0  0  0  0
  7 15  1  0  0  0  0
  7 16  1  0  0  0  0
  7 30  1  0  0  0  0
  8  9  1  0  0  0  0
  8 10  1  0  0  0  0
  8 11  2  0  0  0  0
  9 25  1  0  0  0  0
  9 26  1  0  0  0  0
 10 14  2  0  0  0  0
 11 12  1  0  0  0  0
 11 27  1  0  0  0  0
 12 13  2  0  0  0  0
 13 14  1  0  0  0  0
 14 28  1  0  0  0  0
 16 18  2  0  0  0  0
 16 19  1  0  0  0  0
 17 31  1  0  0  0  0
 17 32  1  0  0  0  0
 17 33  1  0  0  0  0
 18 22  1  0  0  0  0
 18 34  1  0  0  0  0
 19 23  2  0  0  0  0
 19 35  1  0  0  0  0
 20 36  1  0  0  0  0
 20 37  1  0  0  0  0
 20 38  1  0  0  0  0
 21 39  1  0  0  0  0
 21 40  1  0  0  0  0
 21 41  1  0  0  0  0
 22 24  2  0  0  0  0
 22 42  1  0  0  0  0
 23 24  1  0  0  0  0
 23 43  1  0  0  0  0
M  END
> <PUBCHEM_COMPOUND_CID>
17395657

> <PUBCHEM_COMPOUND_CANONICALIZED>
1

> <PUBCHEM_CACTVS_COMPLEXITY>
391

> <PUBCHEM_CACTVS_HBOND_ACCEPTOR>
5

> <PUBCHEM_CACTVS_HBOND_DONOR>
2

> <PUBCHEM_CACTVS_ROTATABLE_BOND>
6

> <PUBCHEM_CACTVS_SUBSKEYS>
AAADceB7OQAAAAAAAAAAAAAAAAAAAAAAAAAwYAAAAAAAAAABQAAAHwAQAAAADAzBmA4zxoLABACIAiRCUACCCAAhIgAIiIAO7IiNJyLEsZuEMCpv1hdK6Cfw8D4OIQABCAAIQABCAAIQABCAAAAAAAAAAA==

> <PUBCHEM_IUPAC_OPENEYE_NAME>
1-(4-fluorophenyl)-3-[(2,4,5-trimethoxyphenyl)methyl]urea

> <PUBCHEM_IUPAC_CAS_NAME>
1-(4-fluorophenyl)-3-[(2,4,5-trimethoxyphenyl)methyl]urea

> <PUBCHEM_IUPAC_NAME>
1-(4-fluorophenyl)-3-[(2,4,5-trimethoxyphenyl)methyl]urea

> <PUBCHEM_IUPAC_SYSTEMATIC_NAME>
1-(4-fluorophenyl)-3-[(2,4,5-trimethoxyphenyl)methyl]urea

> <PUBCHEM_IUPAC_TRADITIONAL_NAME>
1-(4-fluorophenyl)-3-(2,4,5-trimethoxybenzyl)urea

> <PUBCHEM_IUPAC_INCHI>
InChI=1S/C17H19FN2O4/c1-22-14-9-16(24-3)15(23-2)8-11(14)10-19-17(21)20-13-6-4-12(18)5-7-13/h4-9H,10H2,1-3H3,(H2,19,20,21)

> <PUBCHEM_IUPAC_INCHIKEY>
HTUXJBDWYFPHFK-UHFFFAOYSA-N

> <PUBCHEM_XLOGP3_AA>
2.4

> <PUBCHEM_EXACT_MASS>
334.132885

> <PUBCHEM_MOLECULAR_FORMULA>
C17H19FN2O4

> <PUBCHEM_MOLECULAR_WEIGHT>
334.342163

> <PUBCHEM_OPENEYE_CAN_SMILES>
COC1=CC(=C(C=C1CNC(=O)NC2=CC=C(C=C2)F)OC)OC

> <PUBCHEM_OPENEYE_ISO_SMILES>
COC1=CC(=C(C=C1CNC(=O)NC2=CC=C(C=C2)F)OC)OC

> <PUBCHEM_CACTVS_TPSA>
68.8

> <PUBCHEM_MONOISOTOPIC_WEIGHT>
334.132885

> <PUBCHEM_TOTAL_CHARGE>
0

> <PUBCHEM_HEAVY_ATOM_COUNT>
24

> <PUBCHEM_ATOM_DEF_STEREO_COUNT>
0

> <PUBCHEM_ATOM_UDEF_STEREO_COUNT>
0

> <PUBCHEM_BOND_DEF_STEREO_COUNT>
0

> <PUBCHEM_BOND_UDEF_STEREO_COUNT>
0

> <PUBCHEM_ISOTOPIC_ATOM_COUNT>
0

> <PUBCHEM_COMPONENT_COUNT>
1

> <PUBCHEM_CACTVS_TAUTO_COUNT>
3

> <PUBCHEM_COORDINATE_TYPE>
1
5
255

> <PUBCHEM_BONDANNOTATIONS>
10  14  8
11  12  8
12  13  8
13  14  8
16  18  8
16  19  8
18  22  8
19  23  8
22  24  8
23  24  8
8  10  8
8  11  8

$$$$

