5462442
  -OEChem-07051212583D

 39 42  0     1  0  0  0  0  0999 V2000
   -4.5623   -0.2521   -0.2696 O   0  0  0  0  0  0  0  0  0  0  0  0
    1.2432    1.5557    1.4789 N   0  0  0  0  0  0  0  0  0  0  0  0
   -2.3874   -0.4201   -1.0245 N   0  0  0  0  0  0  0  0  0  0  0  0
    0.9430    0.3739    0.6376 C   0  0  1  0  0  0  0  0  0  0  0  0
    1.7489    0.4584   -0.6950 C   0  0  1  0  0  0  0  0  0  0  0  0
    1.3488   -0.7515   -1.5675 C   0  0  2  0  0  0  0  0  0  0  0  0
    1.5790    1.8048   -1.4189 C   0  0  0  0  0  0  0  0  0  0  0  0
    1.4651   -0.8891    1.4025 C   0  0  0  0  0  0  0  0  0  0  0  0
   -0.5635    0.1792    0.3679 C   0  0  0  0  0  0  0  0  0  0  0  0
   -0.1385   -0.6791   -1.9646 C   0  0  0  0  0  0  0  0  0  0  0  0
    1.8761    2.9542   -0.4646 C   0  0  0  0  0  0  0  0  0  0  0  0
   -1.0313   -0.2753   -0.8155 C   0  0  0  0  0  0  0  0  0  0  0  0
    1.5968   -2.0434   -0.8148 C   0  0  0  0  0  0  0  0  0  0  0  0
    1.0299    2.8339    0.7970 C   0  0  0  0  0  0  0  0  0  0  0  0
    1.6566   -2.1139    0.5277 C   0  0  0  0  0  0  0  0  0  0  0  0
   -1.5247    0.4678    1.4220 C   0  0  0  0  0  0  0  0  0  0  0  0
    1.9187   -3.4044    1.2449 C   0  0  0  0  0  0  0  0  0  0  0  0
   -2.8436    0.3345    1.2357 C   0  0  0  0  0  0  0  0  0  0  0  0
   -3.3548   -0.1335   -0.0790 C   0  0  0  0  0  0  0  0  0  0  0  0
    2.8221    0.3705   -0.4601 H   0  0  0  0  0  0  0  0  0  0  0  0
    1.9672   -0.7643   -2.4736 H   0  0  0  0  0  0  0  0  0  0  0  0
    0.5639    1.9326   -1.8092 H   0  0  0  0  0  0  0  0  0  0  0  0
    2.2561    1.8535   -2.2797 H   0  0  0  0  0  0  0  0  0  0  0  0
    0.7878   -1.1346    2.2315 H   0  0  0  0  0  0  0  0  0  0  0  0
    2.4427   -0.6742    1.8573 H   0  0  0  0  0  0  0  0  0  0  0  0
   -0.4631   -1.6499   -2.3628 H   0  0  0  0  0  0  0  0  0  0  0  0
   -0.2668    0.0441   -2.7798 H   0  0  0  0  0  0  0  0  0  0  0  0
    2.2175    1.5120    1.7791 H   0  0  0  0  0  0  0  0  0  0  0  0
    2.9414    2.9517   -0.2017 H   0  0  0  0  0  0  0  0  0  0  0  0
    1.6714    3.9099   -0.9601 H   0  0  0  0  0  0  0  0  0  0  0  0
    1.7192   -2.9427   -1.4129 H   0  0  0  0  0  0  0  0  0  0  0  0
    1.2943    3.6433    1.4867 H   0  0  0  0  0  0  0  0  0  0  0  0
   -0.0312    2.9707    0.5588 H   0  0  0  0  0  0  0  0  0  0  0  0
   -1.1589    0.7924    2.3903 H   0  0  0  0  0  0  0  0  0  0  0  0
   -2.6899   -0.7585   -1.9336 H   0  0  0  0  0  0  0  0  0  0  0  0
    2.8226   -3.3211    1.8568 H   0  0  0  0  0  0  0  0  0  0  0  0
    2.0607   -4.2403    0.5520 H   0  0  0  0  0  0  0  0  0  0  0  0
    1.0768   -3.6527    1.8992 H   0  0  0  0  0  0  0  0  0  0  0  0
   -3.5578    0.5492    2.0214 H   0  0  0  0  0  0  0  0  0  0  0  0
  1 19  2  0  0  0  0
  2  4  1  0  0  0  0
  2 14  1  0  0  0  0
  2 28  1  0  0  0  0
  3 12  1  0  0  0  0
  3 19  1  0  0  0  0
  3 35  1  0  0  0  0
  4  5  1  0  0  0  0
  4  8  1  0  0  0  0
  4  9  1  0  0  0  0
  5  6  1  0  0  0  0
  5  7  1  0  0  0  0
  5 20  1  0  0  0  0
  6 10  1  0  0  0  0
  6 13  1  0  0  0  0
  6 21  1  0  0  0  0
  7 11  1  0  0  0  0
  7 22  1  0  0  0  0
  7 23  1  0  0  0  0
  8 15  1  0  0  0  0
  8 24  1  0  0  0  0
  8 25  1  0  0  0  0
  9 12  2  0  0  0  0
  9 16  1  0  0  0  0
 10 12  1  0  0  0  0
 10 26  1  0  0  0  0
 10 27  1  0  0  0  0
 11 14  1  0  0  0  0
 11 29  1  0  0  0  0
 11 30  1  0  0  0  0
 13 15  2  0  0  0  0
 13 31  1  0  0  0  0
 14 32  1  0  0  0  0
 14 33  1  0  0  0  0
 15 17  1  0  0  0  0
 16 18  2  0  0  0  0
 16 34  1  0  0  0  0
 17 36  1  0  0  0  0
 17 37  1  0  0  0  0
 17 38  1  0  0  0  0
 18 19  1  0  0  0  0
 18 39  1  0  0  0  0
M  END
> <PUBCHEM_COMPOUND_CID>
5462442

> <PUBCHEM_CONFORMER_RMSD>
0.6

> <PUBCHEM_CONFORMER_DIVERSEORDER>
1

> <PUBCHEM_MMFF94_PARTIAL_CHARGES>
21
1 -0.57
10 0.14
12 -0.03
13 -0.29
14 0.27
15 -0.28
16 -0.15
17 0.14
18 -0.14
19 0.62
2 -0.9
28 0.36
3 -0.54
31 0.15
34 0.15
35 0.37
39 0.15
4 0.41
6 0.14
8 0.14
9 -0.14

> <PUBCHEM_EFFECTIVE_ROTOR_COUNT>
1.2

> <PUBCHEM_PHARMACOPHORE_FEATURES>
8
1 1 acceptor
1 2 cation
1 2 donor
1 3 donor
6 2 4 5 7 11 14 rings
6 3 9 12 16 18 19 rings
6 4 5 6 8 13 15 rings
6 4 5 6 9 10 12 rings

> <PUBCHEM_HEAVY_ATOM_COUNT>
19

> <PUBCHEM_ATOM_DEF_STEREO_COUNT>
3

> <PUBCHEM_ATOM_UDEF_STEREO_COUNT>
0

> <PUBCHEM_BOND_DEF_STEREO_COUNT>
0

> <PUBCHEM_BOND_UDEF_STEREO_COUNT>
0

> <PUBCHEM_ISOTOPIC_ATOM_COUNT>
0

> <PUBCHEM_COMPONENT_COUNT>
1

> <PUBCHEM_CACTVS_TAUTO_COUNT>
2

> <PUBCHEM_CONFORMER_ID>
005359AA00000001

> <PUBCHEM_MMFF94_ENERGY>
33.7366

> <PUBCHEM_FEATURE_SELFOVERLAP>
42.086

> <PUBCHEM_SHAPE_FINGERPRINT>
10863032 1 18124305009105721620
10948715 1 18051691040588256140
11578080 2 18055081123158642228
12326174 3 18411412912739754612
12423570 1 5603713624774068140
12716301 132 16745357315847098058
13004483 165 17766011870636585339
13134695 92 18192736615659038701
13681431 1 18268984448547012822
141345 1 17982171119597939332
14142880 1 16686552646370511069
14181834 199 17897475906266522261
14617773 55 17123928992086354526
14817 1 11929158247723613726
15852999 172 17559675036419454771
15906896 17 17401212170772985398
16945 1 17986931081449249462
1813 80 18118958333411193134
19765921 60 17973449797593101513
20559304 39 17676204688977262475
20645476 183 17762060938958570236
21524375 3 18118399536326974516
22112679 90 17689685959948670890
2255824 54 18409722959094195991
23419403 2 16986069836220032048
25 1 18046318886973244852
2748010 2 16664286913590547191
298252 57 17387680618630174500
3797600 57 17826514362424199719
394222 165 18115595824794240755
430814 3 18120375350163646060
4340502 62 18196651796709730819
5845 1 17536051178587511596
6442390 28 17765693755589031307
7364860 26 18411420600514904069
81228 2 17404869635967660826
9981440 41 16740593703627566888

> <PUBCHEM_SHAPE_MULTIPOLES>
375.18
4.3
3.06
1.77
6.45
0.4
0.19
-1
-0.02
-3.57
-0.8
-0.3
-0.16
-0.69

> <PUBCHEM_SHAPE_SELFOVERLAP>
822.336

> <PUBCHEM_SHAPE_VOLUME>
200.2

> <PUBCHEM_COORDINATE_TYPE>
2
5
10

$$$$

