192735
  -OEChem-07051212503D

 57 60  0     1  0  0  0  0  0999 V2000
    3.3762    0.2260    1.8293 O   0  0  0  0  0  0  0  0  0  0  0  0
    5.0809    0.1729   -1.1297 O   0  0  0  0  0  0  0  0  0  0  0  0
   -6.7944   -0.5063    0.2652 O   0  0  0  0  0  0  0  0  0  0  0  0
    6.1311   -2.0298   -0.0052 O   0  0  0  0  0  0  0  0  0  0  0  0
    1.9342   -0.0559   -0.1644 C   0  0  1  0  0  0  0  0  0  0  0  0
    1.0309    1.1139    0.2858 C   0  0  2  0  0  0  0  0  0  0  0  0
   -0.4108    1.0076   -0.2272 C   0  0  1  0  0  0  0  0  0  0  0  0
   -1.0398   -0.3355    0.2426 C   0  0  1  0  0  0  0  0  0  0  0  0
   -2.5147   -0.5062   -0.3016 C   0  0  2  0  0  0  0  0  0  0  0  0
    3.2891    0.4216    0.4214 C   0  0  1  0  0  0  0  0  0  0  0  0
    1.3345   -1.3415    0.4291 C   0  0  0  0  0  0  0  0  0  0  0  0
   -0.1184   -1.5550   -0.0296 C   0  0  0  0  0  0  0  0  0  0  0  0
    1.8370    2.3552   -0.0851 C   0  0  0  0  0  0  0  0  0  0  0  0
    3.3034    1.9431    0.1517 C   0  0  0  0  0  0  0  0  0  0  0  0
   -1.2546    2.1893    0.2750 C   0  0  0  0  0  0  0  0  0  0  0  0
   -3.3093    0.7976   -0.1422 C   0  0  0  0  0  0  0  0  0  0  0  0
    2.0394   -0.1887   -1.7091 C   0  0  0  0  0  0  0  0  0  0  0  0
   -3.2113   -1.6313    0.5209 C   0  0  0  0  0  0  0  0  0  0  0  0
   -2.7276    1.9790    0.1279 C   0  0  0  0  0  0  0  0  0  0  0  0
   -2.5204   -0.8896   -1.8009 C   0  0  0  0  0  0  0  0  0  0  0  0
    4.5057   -0.2586   -0.1316 C   0  0  0  0  0  0  0  0  0  0  0  0
   -4.8104    0.7133   -0.2941 C   0  0  0  0  0  0  0  0  0  0  0  0
   -4.7200   -1.7311    0.2997 C   0  0  0  0  0  0  0  0  0  0  0  0
   -5.4070   -0.3956    0.5666 C   0  0  2  0  0  0  0  0  0  0  0  0
    4.9761   -1.4944    0.6055 C   0  0  0  0  0  0  0  0  0  0  0  0
    0.9723    1.1017    1.3868 H   0  0  0  0  0  0  0  0  0  0  0  0
   -0.4075    1.0461   -1.3224 H   0  0  0  0  0  0  0  0  0  0  0  0
   -1.1108   -0.2646    1.3405 H   0  0  0  0  0  0  0  0  0  0  0  0
    1.3499   -1.3054    1.5254 H   0  0  0  0  0  0  0  0  0  0  0  0
    1.9302   -2.2136    0.1376 H   0  0  0  0  0  0  0  0  0  0  0  0
   -0.1137   -1.8087   -1.0932 H   0  0  0  0  0  0  0  0  0  0  0  0
   -0.5096   -2.4361    0.4917 H   0  0  0  0  0  0  0  0  0  0  0  0
    1.5636    3.2188    0.5300 H   0  0  0  0  0  0  0  0  0  0  0  0
    1.6829    2.6351   -1.1333 H   0  0  0  0  0  0  0  0  0  0  0  0
    3.8901    2.2280   -0.7283 H   0  0  0  0  0  0  0  0  0  0  0  0
    3.7090    2.5042    1.0018 H   0  0  0  0  0  0  0  0  0  0  0  0
   -0.9719    3.0922   -0.2798 H   0  0  0  0  0  0  0  0  0  0  0  0
   -1.0476    2.3903    1.3335 H   0  0  0  0  0  0  0  0  0  0  0  0
    2.5088    0.6829   -2.1761 H   0  0  0  0  0  0  0  0  0  0  0  0
    2.6394   -1.0654   -1.9793 H   0  0  0  0  0  0  0  0  0  0  0  0
    1.0674   -0.3142   -2.1930 H   0  0  0  0  0  0  0  0  0  0  0  0
   -3.0396   -1.4623    1.5928 H   0  0  0  0  0  0  0  0  0  0  0  0
   -2.7665   -2.6059    0.2876 H   0  0  0  0  0  0  0  0  0  0  0  0
   -3.3455    2.8653    0.2509 H   0  0  0  0  0  0  0  0  0  0  0  0
   -1.9472   -0.1786   -2.4047 H   0  0  0  0  0  0  0  0  0  0  0  0
   -2.0990   -1.8866   -1.9651 H   0  0  0  0  0  0  0  0  0  0  0  0
   -3.5316   -0.9155   -2.2205 H   0  0  0  0  0  0  0  0  0  0  0  0
   -5.2973    1.6623   -0.0338 H   0  0  0  0  0  0  0  0  0  0  0  0
   -5.0653    0.5473   -1.3485 H   0  0  0  0  0  0  0  0  0  0  0  0
   -4.9406   -2.0734   -0.7188 H   0  0  0  0  0  0  0  0  0  0  0  0
   -5.1401   -2.4991    0.9609 H   0  0  0  0  0  0  0  0  0  0  0  0
   -5.3154   -0.1315    1.6274 H   0  0  0  0  0  0  0  0  0  0  0  0
    4.1360    0.7304    2.1675 H   0  0  0  0  0  0  0  0  0  0  0  0
    4.1962   -2.2575    0.5794 H   0  0  0  0  0  0  0  0  0  0  0  0
    5.2328   -1.2625    1.6417 H   0  0  0  0  0  0  0  0  0  0  0  0
   -7.1599   -1.2135    0.8237 H   0  0  0  0  0  0  0  0  0  0  0  0
    6.8454   -1.3775    0.0958 H   0  0  0  0  0  0  0  0  0  0  0  0
  1 10  1  0  0  0  0
  1 53  1  0  0  0  0
  2 21  2  0  0  0  0
  3 24  1  0  0  0  0
  3 56  1  0  0  0  0
  4 25  1  0  0  0  0
  4 57  1  0  0  0  0
  5  6  1  0  0  0  0
  5 10  1  0  0  0  0
  5 11  1  0  0  0  0
  5 17  1  0  0  0  0
  6  7  1  0  0  0  0
  6 13  1  0  0  0  0
  6 26  1  0  0  0  0
  7  8  1  0  0  0  0
  7 15  1  0  0  0  0
  7 27  1  0  0  0  0
  8  9  1  0  0  0  0
  8 12  1  0  0  0  0
  8 28  1  0  0  0  0
  9 16  1  0  0  0  0
  9 18  1  0  0  0  0
  9 20  1  0  0  0  0
 10 14  1  0  0  0  0
 10 21  1  0  0  0  0
 11 12  1  0  0  0  0
 11 29  1  0  0  0  0
 11 30  1  0  0  0  0
 12 31  1  0  0  0  0
 12 32  1  0  0  0  0
 13 14  1  0  0  0  0
 13 33  1  0  0  0  0
 13 34  1  0  0  0  0
 14 35  1  0  0  0  0
 14 36  1  0  0  0  0
 15 19  1  0  0  0  0
 15 37  1  0  0  0  0
 15 38  1  0  0  0  0
 16 19  2  0  0  0  0
 16 22  1  0  0  0  0
 17 39  1  0  0  0  0
 17 40  1  0  0  0  0
 17 41  1  0  0  0  0
 18 23  1  0  0  0  0
 18 42  1  0  0  0  0
 18 43  1  0  0  0  0
 19 44  1  0  0  0  0
 20 45  1  0  0  0  0
 20 46  1  0  0  0  0
 20 47  1  0  0  0  0
 21 25  1  0  0  0  0
 22 24  1  0  0  0  0
 22 48  1  0  0  0  0
 22 49  1  0  0  0  0
 23 24  1  0  0  0  0
 23 50  1  0  0  0  0
 23 51  1  0  0  0  0
 24 52  1  0  0  0  0
 25 54  1  0  0  0  0
 25 55  1  0  0  0  0
M  END
> <PUBCHEM_COMPOUND_CID>
192735

> <PUBCHEM_CONFORMER_RMSD>
0.8

> <PUBCHEM_CONFORMER_DIVERSEORDER>
1
2
3

> <PUBCHEM_MMFF94_PARTIAL_CHARGES>
17
1 -0.68
10 0.34
15 0.14
16 -0.28
19 -0.29
2 -0.57
21 0.45
22 0.14
24 0.28
25 0.34
3 -0.68
4 -0.68
44 0.15
53 0.4
56 0.4
57 0.4
9 0.14

> <PUBCHEM_EFFECTIVE_ROTOR_COUNT>
4

> <PUBCHEM_PHARMACOPHORE_FEATURES>
11
1 1 acceptor
1 1 donor
1 2 acceptor
1 3 acceptor
1 3 donor
1 4 acceptor
1 4 donor
5 5 6 10 13 14 rings
6 5 6 7 8 11 12 rings
6 7 8 9 15 16 19 rings
6 9 16 18 22 23 24 rings

> <PUBCHEM_HEAVY_ATOM_COUNT>
25

> <PUBCHEM_ATOM_DEF_STEREO_COUNT>
7

> <PUBCHEM_ATOM_UDEF_STEREO_COUNT>
0

> <PUBCHEM_BOND_DEF_STEREO_COUNT>
0

> <PUBCHEM_BOND_UDEF_STEREO_COUNT>
0

> <PUBCHEM_ISOTOPIC_ATOM_COUNT>
0

> <PUBCHEM_COMPONENT_COUNT>
1

> <PUBCHEM_CACTVS_TAUTO_COUNT>
3

> <PUBCHEM_CONFORMER_ID>
0002F0DF00000001

> <PUBCHEM_MMFF94_ENERGY>
74.6035

> <PUBCHEM_FEATURE_SELFOVERLAP>
55.918

> <PUBCHEM_SHAPE_FINGERPRINT>
10366900 7 13973965402428190613
12166972 35 17917988373587723173
12236239 1 17846776325466209164
12403259 226 18411424994372689968
12403259 415 18059866038526972325
12616971 3 17968101893141423447
12633257 1 16660645120214583025
12788726 201 18041265617331313832
13140716 1 18194408788002815859
13224815 77 18409166580472399081
13288520 33 18411981390131443532
13533116 47 17917719019188180507
13675066 3 18186806841928261777
13862211 1 18408606950781853191
14251764 18 18343867719350377834
14341114 176 18413106147550663729
15196674 1 18411138004720833089
15209289 33 18413671313717882714
15788980 27 17749111079958318198
17349148 13 18411703183603726605
17492 89 18339644417209103666
1813 80 17418379077471633388
18186145 218 17988655055393823972
19141452 34 17603867759099138775
200 152 18259705592727019649
20028762 73 18260552199205886311
20261772 1 18114184103372122151
21150785 3 17274813658843640446
21267235 1 18411414033552236531
21279426 13 18340771553891928252
21682296 61 18115300215054395670
22182313 1 17750787925290083845
23402539 116 18333739004543334119
23522609 53 18123155057256453581
23557571 272 18187076286886484813
23559900 14 18412267194409250160
296302 2 8430321242381102653
3004659 81 18059858363209196616
335352 9 18411419535853735877
350125 39 18411697694651703869
3545911 37 18413670227602846595
4214541 1 18412263969289574953
465052 167 18408318891673031910
5104073 3 18333449837259273265
542803 24 17418092113600285133
559249 180 18339365295720957697
633830 44 18339086990530325518
9709674 26 18269273465306927707
9981440 41 17547578080948340240

> <PUBCHEM_SHAPE_MULTIPOLES>
491.01
12.59
2.21
1.08
2.13
0.56
0.28
-4.85
-1.09
-0.51
-0.22
-0.39
-0.17
0.01

> <PUBCHEM_SHAPE_SELFOVERLAP>
1050.16

> <PUBCHEM_SHAPE_VOLUME>
269.9

> <PUBCHEM_COORDINATE_TYPE>
2
5
10

$$$$

