46174012
  -OEChem-07051213113D

 34 34  0     1  0  0  0  0  0999 V2000
    2.0950   -1.0589   -0.6304 O   0  0  0  0  0  0  0  0  0  0  0  0
   -0.4952   -2.0159    0.0964 O   0  0  0  0  0  0  0  0  0  0  0  0
   -2.0895    2.4750    0.4205 O   0  0  0  0  0  0  0  0  0  0  0  0
    2.6095    1.6337    0.3213 O   0  0  0  0  0  0  0  0  0  0  0  0
    0.4983    3.4557   -0.2985 O   0  0  0  0  0  0  0  0  0  0  0  0
    3.4972   -0.8818    1.1869 O   0  0  0  0  0  0  0  0  0  0  0  0
   -2.6281   -0.1835   -0.5707 N   0  0  0  0  0  0  0  0  0  0  0  0
   -3.0475   -1.7349    1.2148 N   0  0  0  0  0  0  0  0  0  0  0  0
   -4.5147   -1.5140   -0.5154 N   0  0  0  0  0  0  0  0  0  0  0  0
    4.0926   -2.0906   -0.6761 N   0  0  0  0  0  0  0  0  0  0  0  0
   -1.3695    0.2144    0.0848 C   0  0  1  0  0  0  0  0  0  0  0  0
    1.1270   -0.2445    0.0376 C   0  0  2  0  0  0  0  0  0  0  0  0
   -0.2573   -0.7041   -0.4221 C   0  0  1  0  0  0  0  0  0  0  0  0
   -1.1058    1.6823   -0.2503 C   0  0  2  0  0  0  0  0  0  0  0  0
    1.3902    1.2217   -0.3026 C   0  0  1  0  0  0  0  0  0  0  0  0
    0.2793    2.1363    0.2100 C   0  0  1  0  0  0  0  0  0  0  0  0
   -3.3270   -1.0885    0.0313 C   0  0  0  0  0  0  0  0  0  0  0  0
    3.2454   -1.3024    0.0627 C   0  0  0  0  0  0  0  0  0  0  0  0
   -1.4534    0.1478    1.1766 H   0  0  0  0  0  0  0  0  0  0  0  0
    1.2008   -0.4012    1.1228 H   0  0  0  0  0  0  0  0  0  0  0  0
   -0.2862   -0.7892   -1.5154 H   0  0  0  0  0  0  0  0  0  0  0  0
   -1.2338    1.8675   -1.3238 H   0  0  0  0  0  0  0  0  0  0  0  0
    1.5414    1.3491   -1.3809 H   0  0  0  0  0  0  0  0  0  0  0  0
    0.3178    2.2240    1.3023 H   0  0  0  0  0  0  0  0  0  0  0  0
   -0.3289   -1.9988    1.0540 H   0  0  0  0  0  0  0  0  0  0  0  0
   -1.9849    2.3413    1.3779 H   0  0  0  0  0  0  0  0  0  0  0  0
    2.5143    1.5097    1.2811 H   0  0  0  0  0  0  0  0  0  0  0  0
    0.4842    3.4105   -1.2698 H   0  0  0  0  0  0  0  0  0  0  0  0
   -4.8564   -1.1291   -1.3893 H   0  0  0  0  0  0  0  0  0  0  0  0
   -5.0829   -2.2226   -0.0643 H   0  0  0  0  0  0  0  0  0  0  0  0
   -2.2164   -1.5628    1.7659 H   0  0  0  0  0  0  0  0  0  0  0  0
   -3.6865   -2.4323    1.5820 H   0  0  0  0  0  0  0  0  0  0  0  0
    4.9984   -2.3735   -0.3176 H   0  0  0  0  0  0  0  0  0  0  0  0
    3.8389   -2.4143   -1.6034 H   0  0  0  0  0  0  0  0  0  0  0  0
  1 12  1  0  0  0  0
  1 18  1  0  0  0  0
  2 13  1  0  0  0  0
  2 25  1  0  0  0  0
  3 14  1  0  0  0  0
  3 26  1  0  0  0  0
  4 15  1  0  0  0  0
  4 27  1  0  0  0  0
  5 16  1  0  0  0  0
  5 28  1  0  0  0  0
  6 18  2  0  0  0  0
  7 11  1  0  0  0  0
  7 17  2  0  0  0  0
  8 17  1  0  0  0  0
  8 31  1  0  0  0  0
  8 32  1  0  0  0  0
  9 17  1  0  0  0  0
  9 29  1  0  0  0  0
  9 30  1  0  0  0  0
 10 18  1  0  0  0  0
 10 33  1  0  0  0  0
 10 34  1  0  0  0  0
 11 13  1  0  0  0  0
 11 14  1  0  0  0  0
 11 19  1  0  0  0  0
 12 13  1  0  0  0  0
 12 15  1  0  0  0  0
 12 20  1  0  0  0  0
 13 21  1  0  0  0  0
 14 16  1  0  0  0  0
 14 22  1  0  0  0  0
 15 16  1  0  0  0  0
 15 23  1  0  0  0  0
 16 24  1  0  0  0  0
M  END
> <PUBCHEM_COMPOUND_CID>
46174012

> <PUBCHEM_CONFORMER_RMSD>
0.6

> <PUBCHEM_CONFORMER_DIVERSEORDER>
1
6
8
5
7
4
3
2

> <PUBCHEM_MMFF94_PARTIAL_CHARGES>
28
1 -0.43
10 -0.8
11 0.25
12 0.28
13 0.28
14 0.28
15 0.28
16 0.28
17 0.55
18 0.78
2 -0.68
25 0.4
26 0.4
27 0.4
28 0.4
29 0.4
3 -0.68
30 0.4
31 0.4
32 0.4
33 0.37
34 0.37
4 -0.68
5 -0.68
6 -0.57
7 -0.7
8 -0.85
9 -0.85

> <PUBCHEM_EFFECTIVE_ROTOR_COUNT>
4.2

> <PUBCHEM_PHARMACOPHORE_FEATURES>
14
1 10 donor
1 2 acceptor
1 2 donor
1 3 acceptor
1 3 donor
1 4 acceptor
1 4 donor
1 5 acceptor
1 5 donor
1 6 acceptor
1 8 donor
1 9 donor
4 7 8 9 17 cation
6 11 12 13 14 15 16 rings

> <PUBCHEM_HEAVY_ATOM_COUNT>
18

> <PUBCHEM_ATOM_DEF_STEREO_COUNT>
6

> <PUBCHEM_ATOM_UDEF_STEREO_COUNT>
0

> <PUBCHEM_BOND_DEF_STEREO_COUNT>
0

> <PUBCHEM_BOND_UDEF_STEREO_COUNT>
0

> <PUBCHEM_ISOTOPIC_ATOM_COUNT>
0

> <PUBCHEM_COMPONENT_COUNT>
1

> <PUBCHEM_CACTVS_TAUTO_COUNT>
4

> <PUBCHEM_CONFORMER_ID>
02C08F3C00000001

> <PUBCHEM_MMFF94_ENERGY>
51.9324

> <PUBCHEM_FEATURE_SELFOVERLAP>
71.117

> <PUBCHEM_SHAPE_FINGERPRINT>
10967382 1 18194120715903460828
10989021 7 18409167696968548277
11543360 7 15769485456850002486
11578080 2 17201949061862334020
11680986 33 18268425724641210451
12032990 46 18410011052473247438
12363563 72 18411414024941573191
12553582 1 18338783572608404039
13140716 1 18336827610089307064
15042514 8 18122902302645910163
15848700 24 18408046199340199039
16945 1 18194116313641460997
19591789 44 17112121400881350885
20510252 161 18262804085292586738
20559304 39 18338799992368428012
20645477 70 18268719303368660695
20871998 184 18114749359712438646
20871998 22 18408886226344853156
21041028 32 18335695044820196473
21296965 67 18409733958373409823
21501502 16 18410284830821155740
21501925 9 18409456868595296626
221490 88 18052818049061274343
2334 1 18410292505954074516
23402539 116 18335150824739397615
23419403 2 17824855345201182225
23557571 272 18116144661585464542
23559900 14 18341057341031589092
2748010 2 18337401512209235596
3071541 250 18411411787342376108
3091708 16 9353383243831423616
458136 41 17693916515636275357
54173680 148 18194118740371621860
7364860 26 18193276299869439364
81228 2 18121206838594182105
8809292 202 18268425909292869723

> <PUBCHEM_SHAPE_MULTIPOLES>
315.29
6.35
3.09
0.81
0.51
2.17
-0.12
-5.29
-0.1
-0.22
-0.01
-0.04
-0.22
0.24

> <PUBCHEM_SHAPE_SELFOVERLAP>
643.777

> <PUBCHEM_SHAPE_VOLUME>
178.4

> <PUBCHEM_COORDINATE_TYPE>
2
5
10

$$$$

