322238
  -OEChem-07051213152D

 62 65  0     1  0  0  0  0  0999 V2000
    1.4358    0.8613    0.0000 O   0  0  0  0  0  0  0  0  0  0  0  0
    6.3190    1.9677    0.0000 O   0  0  0  0  0  0  0  0  0  0  0  0
    5.9185    3.8830    0.0000 O   0  0  0  0  0  0  0  0  0  0  0  0
    3.8278    5.0901    0.0000 O   0  0  0  0  0  0  0  0  0  0  0  0
    4.4919   -0.8348    0.0000 O   0  0  0  0  0  0  0  0  0  0  0  0
    6.1147   -2.0805    0.0000 O   0  0  0  0  0  0  0  0  0  0  0  0
    2.7693   -0.6538    0.0000 O   0  0  0  0  0  0  0  0  0  0  0  0
    7.8366   -2.2682    0.0000 O   0  0  0  0  0  0  0  0  0  0  0  0
    3.9748    1.8096    0.0000 C   0  0  1  0  0  0  0  0  0  0  0  0
    2.1429    1.5684    0.0000 C   0  0  1  0  0  0  0  0  0  0  0  0
    5.5100    0.5664    0.0000 C   0  0  2  0  0  0  0  0  0  0  0  0
    3.7160    2.7755    0.0000 C   0  0  1  0  0  0  0  0  0  0  0  0
    4.9526    3.6242    0.0000 C   0  0  1  0  0  0  0  0  0  0  0  0
    1.1769    1.8272    0.0000 C   0  0  0  0  0  0  0  0  0  0  0  0
    4.0866    4.1242    0.0000 C   0  0  1  0  0  0  0  0  0  0  0  0
    6.4235    0.9732    0.0000 C   0  0  1  0  0  0  0  0  0  0  0  0
    4.2336    0.8437    0.0000 C   0  0  0  0  0  0  0  0  0  0  0  0
    5.3851   -0.4677    0.0000 C   0  0  0  0  0  0  0  0  0  0  0  0
    4.5964    0.1597    0.0000 C   0  0  0  0  0  0  0  0  0  0  0  0
    6.2231   -1.0864    0.0000 C   0  0  1  0  0  0  0  0  0  0  0  0
    7.2756    0.3740    0.0000 C   0  0  0  0  0  0  0  0  0  0  0  0
    7.1747   -0.6627    0.0000 C   0  0  0  0  0  0  0  0  0  0  0  0
    7.9859   -1.2474    0.0000 C   0  0  0  0  0  0  0  0  0  0  0  0
    3.5784   -1.2416    0.0000 C   0  0  0  0  0  0  0  0  0  0  0  0
    6.9215   -2.6714    0.0000 C   0  0  0  0  0  0  0  0  0  0  0  0
    3.4738   -2.2361    0.0000 C   0  0  0  0  0  0  0  0  0  0  0  0
    6.8131   -3.6655    0.0000 C   0  0  0  0  0  0  0  0  0  0  0  0
    7.6199   -4.2564    0.0000 C   0  0  0  0  0  0  0  0  0  0  0  0
    7.5115   -5.2505    0.0000 C   0  0  0  0  0  0  0  0  0  0  0  0
    8.5350   -3.8532    0.0000 C   0  0  0  0  0  0  0  0  0  0  0  0
    3.4960    3.5966    0.0000 H   0  0  0  0  0  0  0  0  0  0  0  0
    5.0335    4.2388    0.0000 H   0  0  0  0  0  0  0  0  0  0  0  0
    0.5593    1.7732    0.0000 H   0  0  0  0  0  0  0  0  0  0  0  0
    1.2310    2.4449    0.0000 H   0  0  0  0  0  0  0  0  0  0  0  0
    3.4666    4.1261    0.0000 H   0  0  0  0  0  0  0  0  0  0  0  0
    7.2000    1.3189    0.0000 H   0  0  0  0  0  0  0  0  0  0  0  0
    4.8325    1.0041    0.0000 H   0  0  0  0  0  0  0  0  0  0  0  0
    4.3941    0.2448    0.0000 H   0  0  0  0  0  0  0  0  0  0  0  0
    3.6348    0.6832    0.0000 H   0  0  0  0  0  0  0  0  0  0  0  0
    5.1076   -1.0221    0.0000 H   0  0  0  0  0  0  0  0  0  0  0  0
    4.7914   -0.2891    0.0000 H   0  0  0  0  0  0  0  0  0  0  0  0
    3.9779    0.1165    0.0000 H   0  0  0  0  0  0  0  0  0  0  0  0
    4.4464    0.7613    0.0000 H   0  0  0  0  0  0  0  0  0  0  0  0
    6.7240   -1.4518    0.0000 H   0  0  0  0  0  0  0  0  0  0  0  0
    7.8390    0.6327    0.0000 H   0  0  0  0  0  0  0  0  0  0  0  0
    6.0790    4.4818    0.0000 H   0  0  0  0  0  0  0  0  0  0  0  0
    3.2289    5.2505    0.0000 H   0  0  0  0  0  0  0  0  0  0  0  0
    8.3484   -0.7444    0.0000 H   0  0  0  0  0  0  0  0  0  0  0  0
    8.4889   -1.6099    0.0000 H   0  0  0  0  0  0  0  0  0  0  0  0
    7.6234   -1.7504    0.0000 H   0  0  0  0  0  0  0  0  0  0  0  0
    4.0904   -2.3009    0.0000 H   0  0  0  0  0  0  0  0  0  0  0  0
    3.4090   -2.8527    0.0000 H   0  0  0  0  0  0  0  0  0  0  0  0
    2.8572   -2.1713    0.0000 H   0  0  0  0  0  0  0  0  0  0  0  0
    6.5392   -4.2217    0.0000 H   0  0  0  0  0  0  0  0  0  0  0  0
    6.2178   -3.4923    0.0000 H   0  0  0  0  0  0  0  0  0  0  0  0
    7.6870   -3.6401    0.0000 H   0  0  0  0  0  0  0  0  0  0  0  0
    8.2850   -3.2859    0.0000 H   0  0  0  0  0  0  0  0  0  0  0  0
    9.1023   -3.6032    0.0000 H   0  0  0  0  0  0  0  0  0  0  0  0
    8.7850   -4.4206    0.0000 H   0  0  0  0  0  0  0  0  0  0  0  0
    8.1278   -5.3177    0.0000 H   0  0  0  0  0  0  0  0  0  0  0  0
    7.4443   -5.8669    0.0000 H   0  0  0  0  0  0  0  0  0  0  0  0
    6.8952   -5.1834    0.0000 H   0  0  0  0  0  0  0  0  0  0  0  0
 10  1  1  6  0  0  0
  1 14  1  0  0  0  0
  2 12  1  0  0  0  0
  2 16  1  0  0  0  0
 13  3  1  1  0  0  0
  3 46  1  0  0  0  0
 15  4  1  6  0  0  0
  4 47  1  0  0  0  0
  5 19  1  0  0  0  0
  5 24  1  0  0  0  0
 20  6  1  1  0  0  0
  6 25  1  0  0  0  0
  7 24  2  0  0  0  0
  8 25  2  0  0  0  0
  9 10  1  0  0  0  0
  9 11  1  0  0  0  0
  9 13  1  0  0  0  0
  9 17  1  1  0  0  0
 10 12  1  0  0  0  0
 10 14  1  0  0  0  0
 11 16  1  0  0  0  0
 11 18  1  0  0  0  0
 11 19  1  1  0  0  0
 12 15  1  0  0  0  0
 12 31  1  6  0  0  0
 13 15  1  0  0  0  0
 13 32  1  0  0  0  0
 14 33  1  0  0  0  0
 14 34  1  0  0  0  0
 15 35  1  0  0  0  0
 16 21  1  0  0  0  0
 16 36  1  1  0  0  0
 17 37  1  0  0  0  0
 17 38  1  0  0  0  0
 17 39  1  0  0  0  0
 18 20  1  0  0  0  0
 18 40  1  0  0  0  0
 18 41  1  0  0  0  0
 19 42  1  0  0  0  0
 19 43  1  0  0  0  0
 20 22  1  0  0  0  0
 20 44  1  0  0  0  0
 21 22  2  0  0  0  0
 21 45  1  0  0  0  0
 22 23  1  0  0  0  0
 23 48  1  0  0  0  0
 23 49  1  0  0  0  0
 23 50  1  0  0  0  0
 24 26  1  0  0  0  0
 25 27  1  0  0  0  0
 26 51  1  0  0  0  0
 26 52  1  0  0  0  0
 26 53  1  0  0  0  0
 27 28  1  0  0  0  0
 27 54  1  0  0  0  0
 27 55  1  0  0  0  0
 28 29  1  0  0  0  0
 28 30  1  0  0  0  0
 28 56  1  0  0  0  0
 29 60  1  0  0  0  0
 29 61  1  0  0  0  0
 29 62  1  0  0  0  0
 30 57  1  0  0  0  0
 30 58  1  0  0  0  0
 30 59  1  0  0  0  0
M  END
> <PUBCHEM_COMPOUND_CID>
322238

> <PUBCHEM_COMPOUND_CANONICALIZED>
1

> <PUBCHEM_CACTVS_COMPLEXITY>
777

> <PUBCHEM_CACTVS_HBOND_ACCEPTOR>
8

> <PUBCHEM_CACTVS_HBOND_DONOR>
2

> <PUBCHEM_CACTVS_ROTATABLE_BOND>
7

> <PUBCHEM_CACTVS_SUBSKEYS>
AAADcfB4PAAAAAAAAAAAAAAAEgAAAYAAAAAkQAAABIAAAACAAAAAGgAACAAAD1SggAICCAAABgCIAiDSCAAAAAAgAAAACAEAAAgBFBIAIQACUAAFgAALIAPA4PwPgAAAAAAAAAAAAAAAAAAAAIQADCAAAA==

> <PUBCHEM_IUPAC_INCHI>
InChI=1S/C22H32O8/c1-11(2)6-16(24)29-14-8-21(9-27-13(4)23)15(7-12(14)3)30-19-17(25)18(26)20(21,5)22(19)10-28-22/h7,11,14-15,17-19,25-26H,6,8-10H2,1-5H3/t14-,15+,17+,18+,19+,20+,21+,22+/m0/s1

> <PUBCHEM_IUPAC_INCHIKEY>
PNKLMTPXERFKEN-ZIOSACBISA-N

> <PUBCHEM_XLOGP3_AA>
0.4

> <PUBCHEM_EXACT_MASS>
424.209718

> <PUBCHEM_MOLECULAR_FORMULA>
C22H32O8

> <PUBCHEM_MOLECULAR_WEIGHT>
424.48468

> <PUBCHEM_OPENEYE_CAN_SMILES>
CC1=CC2C(CC1OC(=O)CC(C)C)(C3(C(C(C(C34CO4)O2)O)O)C)COC(=O)C

> <PUBCHEM_OPENEYE_ISO_SMILES>
CC1=C[C@@H]2[C@](C[C@@H]1OC(=O)CC(C)C)([C@]3([C@@H]([C@H]([C@H]([C@]34CO4)O2)O)O)C)COC(=O)C

> <PUBCHEM_CACTVS_TPSA>
115

> <PUBCHEM_MONOISOTOPIC_WEIGHT>
424.209718

> <PUBCHEM_TOTAL_CHARGE>
0

> <PUBCHEM_HEAVY_ATOM_COUNT>
30

> <PUBCHEM_ATOM_DEF_STEREO_COUNT>
8

> <PUBCHEM_ATOM_UDEF_STEREO_COUNT>
0

> <PUBCHEM_BOND_DEF_STEREO_COUNT>
0

> <PUBCHEM_BOND_UDEF_STEREO_COUNT>
0

> <PUBCHEM_ISOTOPIC_ATOM_COUNT>
0

> <PUBCHEM_COMPONENT_COUNT>
1

> <PUBCHEM_CACTVS_TAUTO_COUNT>
1

> <PUBCHEM_COORDINATE_TYPE>
1
5
255

> <PUBCHEM_BONDANNOTATIONS>
10  1  6
11  19  5
12  31  6
16  36  5
13  3  5
15  4  6
20  6  5
9  17  5

$$$$

