443229
  -OEChem-07051213013D

 34 35  0     1  0  0  0  0  0999 V2000
    5.2325   -2.2465   -0.6792 Cl  0  0  0  0  0  0  0  0  0  0  0  0
    4.2950    2.4572   -0.0550 Cl  0  0  0  0  0  0  0  0  0  0  0  0
   -0.6250    3.1871    0.8208 F   0  0  0  0  0  0  0  0  0  0  0  0
   -4.8268   -1.7857   -1.0993 F   0  0  0  0  0  0  0  0  0  0  0  0
   -4.9233   -1.5425    1.0654 F   0  0  0  0  0  0  0  0  0  0  0  0
   -1.0797   -1.6558    0.1546 O   0  0  0  0  0  0  0  0  0  0  0  0
    2.3493   -1.6681    1.7359 O   0  0  0  0  0  0  0  0  0  0  0  0
    2.5544   -3.2208    0.0975 O   0  0  0  0  0  0  0  0  0  0  0  0
   -1.3408    0.6761   -0.1227 N   0  0  0  0  0  0  0  0  0  0  0  0
   -3.1595   -0.5877   -0.0615 N   0  0  0  0  0  0  0  0  0  0  0  0
   -2.4258    1.5082   -0.2663 N   0  0  0  0  0  0  0  0  0  0  0  0
   -0.0206    1.0865   -0.1100 C   0  0  0  0  0  0  0  0  0  0  0  0
    2.3224    0.6467   -0.5643 C   0  0  0  0  0  0  0  0  0  0  0  0
    3.3623   -0.2992   -1.0734 C   0  0  0  0  0  0  0  0  0  0  0  0
    0.9896    0.2352   -0.5767 C   0  0  0  0  0  0  0  0  0  0  0  0
   -1.7770   -0.6616    0.0099 C   0  0  0  0  0  0  0  0  0  0  0  0
   -3.4553    0.7170   -0.2216 C   0  0  0  0  0  0  0  0  0  0  0  0
    0.3261    2.3569    0.3693 C   0  0  0  0  0  0  0  0  0  0  0  0
    2.6570    1.9133   -0.0853 C   0  0  0  0  0  0  0  0  0  0  0  0
    3.9403   -1.2171    0.0144 C   0  0  1  0  0  0  0  0  0  0  0  0
    1.6587    2.7685    0.3816 C   0  0  0  0  0  0  0  0  0  0  0  0
   -4.0731   -1.7114    0.0240 C   0  0  0  0  0  0  0  0  0  0  0  0
   -4.8651    1.1897   -0.3397 C   0  0  0  0  0  0  0  0  0  0  0  0
    2.8844   -2.1459    0.5818 C   0  0  0  0  0  0  0  0  0  0  0  0
    2.9150   -0.9149   -1.8678 H   0  0  0  0  0  0  0  0  0  0  0  0
    4.1668    0.2443   -1.5834 H   0  0  0  0  0  0  0  0  0  0  0  0
    0.7528   -0.7373   -0.9983 H   0  0  0  0  0  0  0  0  0  0  0  0
    4.4027   -0.6490    0.8279 H   0  0  0  0  0  0  0  0  0  0  0  0
    1.9025    3.7585    0.7582 H   0  0  0  0  0  0  0  0  0  0  0  0
   -3.5291   -2.6511    0.1538 H   0  0  0  0  0  0  0  0  0  0  0  0
   -4.8929    2.2763   -0.4570 H   0  0  0  0  0  0  0  0  0  0  0  0
   -5.4252    0.9121    0.5572 H   0  0  0  0  0  0  0  0  0  0  0  0
   -5.3397    0.7239   -1.2075 H   0  0  0  0  0  0  0  0  0  0  0  0
    1.6751   -2.2771    2.1057 H   0  0  0  0  0  0  0  0  0  0  0  0
  1 20  1  0  0  0  0
  2 19  1  0  0  0  0
  3 18  1  0  0  0  0
  4 22  1  0  0  0  0
  5 22  1  0  0  0  0
  6 16  2  0  0  0  0
  7 24  1  0  0  0  0
  7 34  1  0  0  0  0
  8 24  2  0  0  0  0
  9 11  1  0  0  0  0
  9 12  1  0  0  0  0
  9 16  1  0  0  0  0
 10 16  1  0  0  0  0
 10 17  1  0  0  0  0
 10 22  1  0  0  0  0
 11 17  2  0  0  0  0
 12 15  1  0  0  0  0
 12 18  2  0  0  0  0
 13 14  1  0  0  0  0
 13 15  2  0  0  0  0
 13 19  1  0  0  0  0
 14 20  1  0  0  0  0
 14 25  1  0  0  0  0
 14 26  1  0  0  0  0
 15 27  1  0  0  0  0
 17 23  1  0  0  0  0
 18 21  1  0  0  0  0
 19 21  2  0  0  0  0
 20 24  1  0  0  0  0
 20 28  1  0  0  0  0
 21 29  1  0  0  0  0
 22 30  1  0  0  0  0
 23 31  1  0  0  0  0
 23 32  1  0  0  0  0
 23 33  1  0  0  0  0
M  END
> <PUBCHEM_COMPOUND_CID>
443229

> <PUBCHEM_CONFORMER_RMSD>
0.8

> <PUBCHEM_CONFORMER_DIVERSEORDER>
1
52
35
62
4
50
42
33
68
51
17
22
37
55
36
38
63
27
32
53
69
28
44
66
64
56
23
48
30
45
60
54
16
13
9
21
34
43
5
67
26
29
49
58
25
65
14
3
19
46
39
57
12
61
15
7
41
31
24
11
59
10
40
20
6
47
8
18
2

> <PUBCHEM_MMFF94_PARTIAL_CHARGES>
27
1 -0.29
10 -0.42
11 -0.51
12 0.12
13 -0.14
14 0.14
15 -0.15
16 0.69
17 0.45
18 0.19
19 0.18
2 -0.18
20 0.35
21 -0.15
22 0.98
23 0.06
24 0.66
27 0.15
29 0.15
3 -0.19
34 0.5
4 -0.34
5 -0.34
6 -0.57
7 -0.65
8 -0.57
9 -0.11

> <PUBCHEM_EFFECTIVE_ROTOR_COUNT>
5

> <PUBCHEM_PHARMACOPHORE_FEATURES>
6
1 6 acceptor
1 7 acceptor
1 8 acceptor
3 7 8 24 anion
5 9 10 11 16 17 rings
6 12 13 15 18 19 21 rings

> <PUBCHEM_HEAVY_ATOM_COUNT>
24

> <PUBCHEM_ATOM_DEF_STEREO_COUNT>
0

> <PUBCHEM_ATOM_UDEF_STEREO_COUNT>
1

> <PUBCHEM_BOND_DEF_STEREO_COUNT>
0

> <PUBCHEM_BOND_UDEF_STEREO_COUNT>
0

> <PUBCHEM_ISOTOPIC_ATOM_COUNT>
0

> <PUBCHEM_COMPONENT_COUNT>
1

> <PUBCHEM_CACTVS_TAUTO_COUNT>
1

> <PUBCHEM_CONFORMER_ID>
0006C35D00000001

> <PUBCHEM_MMFF94_ENERGY>
64.6682

> <PUBCHEM_FEATURE_SELFOVERLAP>
30.505

> <PUBCHEM_SHAPE_FINGERPRINT>
1100329 8 17975129056654854329
11405975 8 18408601474804247281
11578080 2 17773894149854290676
12107183 9 18118390976937240953
12553582 1 18266748054876165038
12633257 1 18262510520062175749
12788726 201 18053099811504836632
13140716 1 18336259149872108521
13533116 47 18336266722331870415
14790565 3 17256806127344013800
14866123 147 17758670431618860897
15196674 1 18410572872913313621
15352361 1 18337953505943671422
15927050 60 18048036269276728110
17492 89 18336829697728470343
20567600 347 18058454201567654224
20645477 70 18409731742259878228
21250096 35 18338239378687175318
21267235 1 18338788017841325334
21279426 13 18341900714549334725
21421861 104 18271530883333897648
221490 88 18413102857721817890
2255824 54 18270676455398455308
23184049 29 18337109076718500620
23558518 356 18338498842294760344
23559900 14 18410580599723314628
3004659 81 18201156641439475022
314173 41 18338512049212843052
335352 9 18337670940382942997
33824 294 18339643318050461924
3421961 26 18408322185844265568
34934 24 18260552169541541452
463206 1 18339358565650428623
5104073 3 18335415760081687017
7364860 26 18410858746347907464
7970288 3 18335422417266028878
9709674 26 18341891836066118883

> <PUBCHEM_SHAPE_MULTIPOLES>
443.28
10.31
3.64
0.92
6.14
0.41
-0.11
-5.28
1.31
-2.7
-0.63
-0.23
-0.26
0.04

> <PUBCHEM_SHAPE_SELFOVERLAP>
929.132

> <PUBCHEM_SHAPE_VOLUME>
252.8

> <PUBCHEM_COORDINATE_TYPE>
2
5
10

$$$$

