5459810
  -OEChem-07051212493D

 20 20  0     0  0  0  0  0  0999 V2000
    3.9971    0.0153    0.3103 O   0  0  0  0  0  0  0  0  0  0  0  0
   -4.0862    0.0350   -0.5696 O   0  0  0  0  0  0  0  0  0  0  0  0
   -3.6337   -0.0001    0.7518 N   0  0  0  0  0  0  0  0  0  0  0  0
   -0.1044   -0.0088   -0.3277 C   0  0  0  0  0  0  0  0  0  0  0  0
   -1.5779   -0.0179   -0.5566 C   0  0  0  0  0  0  0  0  0  0  0  0
    0.5773    1.2032   -0.2161 C   0  0  0  0  0  0  0  0  0  0  0  0
    0.5923   -1.2128   -0.2244 C   0  0  0  0  0  0  0  0  0  0  0  0
    1.9555    1.2110   -0.0016 C   0  0  0  0  0  0  0  0  0  0  0  0
    1.9705   -1.2049   -0.0096 C   0  0  0  0  0  0  0  0  0  0  0  0
    2.6522    0.0070    0.1017 C   0  0  0  0  0  0  0  0  0  0  0  0
   -2.3428   -0.0270    0.7420 C   0  0  0  0  0  0  0  0  0  0  0  0
   -1.8542   -0.9021   -1.1446 H   0  0  0  0  0  0  0  0  0  0  0  0
   -1.8630    0.8628   -1.1454 H   0  0  0  0  0  0  0  0  0  0  0  0
    0.0459    2.1481   -0.2928 H   0  0  0  0  0  0  0  0  0  0  0  0
    0.0729   -2.1639   -0.3074 H   0  0  0  0  0  0  0  0  0  0  0  0
    2.4748    2.1618    0.0837 H   0  0  0  0  0  0  0  0  0  0  0  0
    2.5077   -2.1460    0.0703 H   0  0  0  0  0  0  0  0  0  0  0  0
   -1.7903   -0.0649    1.6943 H   0  0  0  0  0  0  0  0  0  0  0  0
    4.3024    0.9374    0.3616 H   0  0  0  0  0  0  0  0  0  0  0  0
   -5.0502    0.0528   -0.4456 H   0  0  0  0  0  0  0  0  0  0  0  0
  1 10  1  0  0  0  0
  1 19  1  0  0  0  0
  2  3  1  0  0  0  0
  2 20  1  0  0  0  0
  3 11  2  0  0  0  0
  4  5  1  0  0  0  0
  4  6  2  0  0  0  0
  4  7  1  0  0  0  0
  5 11  1  0  0  0  0
  5 12  1  0  0  0  0
  5 13  1  0  0  0  0
  6  8  1  0  0  0  0
  6 14  1  0  0  0  0
  7  9  2  0  0  0  0
  7 15  1  0  0  0  0
  8 10  2  0  0  0  0
  8 16  1  0  0  0  0
  9 10  1  0  0  0  0
  9 17  1  0  0  0  0
 11 18  1  0  0  0  0
M  END
> <PUBCHEM_COMPOUND_CID>
5459810

> <PUBCHEM_CONFORMER_RMSD>
0.4

> <PUBCHEM_CONFORMER_DIVERSEORDER>
1
11
2
8
9
5
3
10
6
4
7

> <PUBCHEM_MMFF94_PARTIAL_CHARGES>
18
1 -0.53
10 0.08
11 0.33
14 0.15
15 0.15
16 0.15
17 0.15
18 0.06
19 0.45
2 -0.34
20 0.4
3 -0.51
4 -0.14
5 0.2
6 -0.15
7 -0.15
8 -0.15
9 -0.15

> <PUBCHEM_EFFECTIVE_ROTOR_COUNT>
2

> <PUBCHEM_PHARMACOPHORE_FEATURES>
4
1 1 donor
1 2 anion
1 3 acceptor
6 4 6 7 8 9 10 rings

> <PUBCHEM_HEAVY_ATOM_COUNT>
11

> <PUBCHEM_ATOM_DEF_STEREO_COUNT>
0

> <PUBCHEM_ATOM_UDEF_STEREO_COUNT>
0

> <PUBCHEM_BOND_DEF_STEREO_COUNT>
1

> <PUBCHEM_BOND_UDEF_STEREO_COUNT>
0

> <PUBCHEM_ISOTOPIC_ATOM_COUNT>
0

> <PUBCHEM_COMPONENT_COUNT>
1

> <PUBCHEM_CACTVS_TAUTO_COUNT>
4

> <PUBCHEM_CONFORMER_ID>
00534F6200000001

> <PUBCHEM_MMFF94_ENERGY>
29.1143

> <PUBCHEM_FEATURE_SELFOVERLAP>
20.297

> <PUBCHEM_SHAPE_FINGERPRINT>
10219947 1 18411135840030643316
11062470 55 15697998535147842287
11471102 20 18411703188115023860
12032990 46 18340764957381538430
124424 183 17775571944130474057
13922767 16 18410015429018444329
14251717 144 18409169913388171847
14325111 11 18337952290335726389
14993402 34 18113337500698353414
15775835 57 17458341944437841227
16945 1 18410862057646282534
17844478 74 18060700610596262413
20201158 50 18202280320711153563
20279233 1 17846495941896572763
20281407 28 17489582385387056955
20645477 70 18268156520797826631
20871998 22 17973437991007878622
22485316 2 16845576404590466570
23380061 451 17346886679849882922
23402539 116 16630538323193728943
23402655 69 18336274530524373213
2748010 2 18049734202433550030
29004967 10 18272367594307151352
581208 293 18410295804451690302

> <PUBCHEM_SHAPE_MULTIPOLES>
209.66
6.16
1.16
0.77
3.57
0
0.03
-0.05
0.78
-0.71
-0.06
0.36
0
0.01

> <PUBCHEM_SHAPE_SELFOVERLAP>
431.496

> <PUBCHEM_SHAPE_VOLUME>
120.9

> <PUBCHEM_COORDINATE_TYPE>
2
5
10

$$$$

