12057
  -OEChem-06261206273D

 15 15  0     1  0  0  0  0  0999 V2000
    2.0090   -0.2391   -0.4603 S   0  0  2  0  0  0  0  0  0  0  0  0
    2.2218   -1.0691    0.9024 O   0  0  0  0  0  0  0  0  0  0  0  0
    2.6012    1.1259   -0.2486 O   0  0  0  0  0  0  0  0  0  0  0  0
    0.2386   -0.0875   -0.2196 C   0  0  0  0  0  0  0  0  0  0  0  0
   -0.3183    1.1504    0.1018 C   0  0  0  0  0  0  0  0  0  0  0  0
   -0.5819   -1.2077   -0.3537 C   0  0  0  0  0  0  0  0  0  0  0  0
   -1.6954    1.2683    0.2892 C   0  0  0  0  0  0  0  0  0  0  0  0
   -1.9592   -1.0896   -0.1664 C   0  0  0  0  0  0  0  0  0  0  0  0
   -2.5158    0.1483    0.1551 C   0  0  0  0  0  0  0  0  0  0  0  0
    0.2958    2.0396    0.2130 H   0  0  0  0  0  0  0  0  0  0  0  0
   -0.1641   -2.1792   -0.6051 H   0  0  0  0  0  0  0  0  0  0  0  0
   -2.1293    2.2321    0.5395 H   0  0  0  0  0  0  0  0  0  0  0  0
   -2.5983   -1.9615   -0.2711 H   0  0  0  0  0  0  0  0  0  0  0  0
   -3.5881    0.2401    0.3008 H   0  0  0  0  0  0  0  0  0  0  0  0
    3.0769   -0.8204    1.3254 H   0  0  0  0  0  0  0  0  0  0  0  0
  1  2  1  0  0  0  0
  1  3  2  0  0  0  0
  1  4  1  0  0  0  0
  2 15  1  0  0  0  0
  4  5  2  0  0  0  0
  4  6  1  0  0  0  0
  5  7  1  0  0  0  0
  5 10  1  0  0  0  0
  6  8  2  0  0  0  0
  6 11  1  0  0  0  0
  7  9  2  0  0  0  0
  7 12  1  0  0  0  0
  8  9  1  0  0  0  0
  8 13  1  0  0  0  0
  9 14  1  0  0  0  0
M  END
> <PUBCHEM_COMPOUND_CID>
12057

> <PUBCHEM_CONFORMER_RMSD>
0.4

> <PUBCHEM_CONFORMER_DIVERSEORDER>
1
3
2

> <PUBCHEM_MMFF94_PARTIAL_CHARGES>
15
1 0.49
10 0.15
11 0.15
12 0.15
13 0.15
14 0.15
15 0.5
2 -0.55
3 -0.5
4 0.06
5 -0.15
6 -0.15
7 -0.15
8 -0.15
9 -0.15

> <PUBCHEM_EFFECTIVE_ROTOR_COUNT>
1

> <PUBCHEM_PHARMACOPHORE_FEATURES>
1
6 4 5 6 7 8 9 rings

> <PUBCHEM_HEAVY_ATOM_COUNT>
9

> <PUBCHEM_ATOM_DEF_STEREO_COUNT>
0

> <PUBCHEM_ATOM_UDEF_STEREO_COUNT>
0

> <PUBCHEM_BOND_DEF_STEREO_COUNT>
0

> <PUBCHEM_BOND_UDEF_STEREO_COUNT>
0

> <PUBCHEM_ISOTOPIC_ATOM_COUNT>
0

> <PUBCHEM_COMPONENT_COUNT>
1

> <PUBCHEM_CACTVS_TAUTO_COUNT>
1

> <PUBCHEM_CONFORMER_ID>
00002F1900000001

> <PUBCHEM_MMFF94_ENERGY>
19.3743

> <PUBCHEM_FEATURE_SELFOVERLAP>
5.074

> <PUBCHEM_SHAPE_FINGERPRINT>
10857977 72 18187089416490420755
12897270 3 18335414630394329476
12932764 1 18059569230369055292
14325111 11 18409162238186570789
14390081 3 18261672593095809204
15310529 11 17632574954979617085
16714656 1 18334007285575443197
16945 1 18264766734822484583
18185500 45 18340768130839922926
20645464 45 17168157736223999682
20871998 184 17896312528607209495
21040471 1 18117834632284375901
23552423 10 18271240508804744836
2748010 2 17040631159096157325
29004967 10 16272205284335156036
369184 2 18131634495297597545
5084963 1 17823412875949494086

> <PUBCHEM_SHAPE_MULTIPOLES>
177.33
3.69
1.47
0.74
1.14
0.08
0.05
0.13
0.19
-0.21
0.03
0.22
-0.1
-0.33

> <PUBCHEM_SHAPE_SELFOVERLAP>
351.978

> <PUBCHEM_SHAPE_VOLUME>
105.6

> <PUBCHEM_COORDINATE_TYPE>
2
5
10

$$$$

