11954048
  -OEChem-07051213062D

 38 39  0     1  0  0  0  0  0999 V2000
    4.5981    0.2327    0.0000 S   0  0  0  0  0  0  0  0  0  0  0  0
    2.8660    1.2327    0.0000 O   0  0  0  0  0  0  0  0  0  0  0  0
    4.5981   -2.7673    0.0000 O   0  0  0  0  0  0  0  0  0  0  0  0
    5.4641   -1.2673    0.0000 O   0  0  0  0  0  0  0  0  0  0  0  0
    3.7320   -3.2673    0.0000 O   0  0  0  0  0  0  0  0  0  0  0  0
    2.8660   -1.7673    0.0000 N   0  0  0  0  0  0  0  0  0  0  0  0
    4.5981    1.2327    0.0000 C   0  0  1  0  0  0  0  0  0  0  0  0
    3.7320    1.7327    0.0000 C   0  0  1  0  0  0  0  0  0  0  0  0
    5.4641    1.7327    0.0000 C   0  0  0  0  0  0  0  0  0  0  0  0
    5.4641    2.7327    0.0000 C   0  0  0  0  0  0  0  0  0  0  0  0
    3.7320    2.7327    0.0000 C   0  0  0  0  0  0  0  0  0  0  0  0
    3.7320   -0.2673    0.0000 C   0  0  0  0  0  0  0  0  0  0  0  0
    4.5981    3.2327    0.0000 C   0  0  0  0  0  0  0  0  0  0  0  0
    3.7320   -1.2673    0.0000 C   0  0  1  0  0  0  0  0  0  0  0  0
    6.3580    1.1980    0.0000 C   0  0  0  0  0  0  0  0  0  0  0  0
    6.3580    3.2673    0.0000 C   0  0  0  0  0  0  0  0  0  0  0  0
    7.2641    1.7118    0.0000 C   0  0  0  0  0  0  0  0  0  0  0  0
    7.2641    2.7535    0.0000 C   0  0  0  0  0  0  0  0  0  0  0  0
    4.5981   -1.7673    0.0000 C   0  0  0  0  0  0  0  0  0  0  0  0
    2.8660   -2.7673    0.0000 C   0  0  0  0  0  0  0  0  0  0  0  0
    2.0000   -3.2673    0.0000 C   0  0  0  0  0  0  0  0  0  0  0  0
    5.1350    0.9227    0.0000 H   0  0  0  0  0  0  0  0  0  0  0  0
    3.7320    1.1127    0.0000 H   0  0  0  0  0  0  0  0  0  0  0  0
    3.1951    3.0427    0.0000 H   0  0  0  0  0  0  0  0  0  0  0  0
    3.5200    0.3153    0.0000 H   0  0  0  0  0  0  0  0  0  0  0  0
    3.1215   -0.3750    0.0000 H   0  0  0  0  0  0  0  0  0  0  0  0
    4.5981    3.8527    0.0000 H   0  0  0  0  0  0  0  0  0  0  0  0
    3.7320   -1.8873    0.0000 H   0  0  0  0  0  0  0  0  0  0  0  0
    6.3509    0.5780    0.0000 H   0  0  0  0  0  0  0  0  0  0  0  0
    6.3509    3.8873    0.0000 H   0  0  0  0  0  0  0  0  0  0  0  0
    7.7998    1.3998    0.0000 H   0  0  0  0  0  0  0  0  0  0  0  0
    2.3291    1.5427    0.0000 H   0  0  0  0  0  0  0  0  0  0  0  0
    7.7998    3.0656    0.0000 H   0  0  0  0  0  0  0  0  0  0  0  0
    2.3291   -1.4573    0.0000 H   0  0  0  0  0  0  0  0  0  0  0  0
    1.6900   -2.7304    0.0000 H   0  0  0  0  0  0  0  0  0  0  0  0
    1.4631   -3.5773    0.0000 H   0  0  0  0  0  0  0  0  0  0  0  0
    2.3100   -3.8043    0.0000 H   0  0  0  0  0  0  0  0  0  0  0  0
    5.1350   -3.0773    0.0000 H   0  0  0  0  0  0  0  0  0  0  0  0
  7  1  1  1  0  0  0
  1 12  1  0  0  0  0
  8  2  1  6  0  0  0
  2 32  1  0  0  0  0
  3 19  1  0  0  0  0
  3 38  1  0  0  0  0
  4 19  2  0  0  0  0
  5 20  2  0  0  0  0
 14  6  1  1  0  0  0
  6 20  1  0  0  0  0
  6 34  1  0  0  0  0
  7  8  1  0  0  0  0
  7  9  1  0  0  0  0
  7 22  1  0  0  0  0
  8 11  1  0  0  0  0
  8 23  1  0  0  0  0
  9 10  1  0  0  0  0
  9 15  2  0  0  0  0
 10 13  1  0  0  0  0
 10 16  2  0  0  0  0
 11 13  2  0  0  0  0
 11 24  1  0  0  0  0
 12 14  1  0  0  0  0
 12 25  1  0  0  0  0
 12 26  1  0  0  0  0
 13 27  1  0  0  0  0
 14 19  1  0  0  0  0
 14 28  1  0  0  0  0
 15 17  1  0  0  0  0
 15 29  1  0  0  0  0
 16 18  1  0  0  0  0
 16 30  1  0  0  0  0
 17 18  2  0  0  0  0
 17 31  1  0  0  0  0
 18 33  1  0  0  0  0
 20 21  1  0  0  0  0
 21 35  1  0  0  0  0
 21 36  1  0  0  0  0
 21 37  1  0  0  0  0
M  END
> <PUBCHEM_COMPOUND_CID>
11954048

> <PUBCHEM_COMPOUND_CANONICALIZED>
1

> <PUBCHEM_CACTVS_COMPLEXITY>
426

> <PUBCHEM_CACTVS_HBOND_ACCEPTOR>
5

> <PUBCHEM_CACTVS_HBOND_DONOR>
3

> <PUBCHEM_CACTVS_ROTATABLE_BOND>
5

> <PUBCHEM_CACTVS_SUBSKEYS>
AAADceByOABAAAAAAAAAAAAAAAAAAAAAAAAwQAAAAAAAAACBAAAAHgQQCAAADDzl2AayCILAAgiIAiHSGAACAAAgABAIiIGIAIgKNCKgETCAcAAk1gG4mAeAwKAOgAAAAAAQAAAAAAAAACAAAAAAAAAAAA==

> <PUBCHEM_IUPAC_OPENEYE_NAME>
(2R)-2-acetamido-3-[[(1R,2R)-2-hydroxy-1,2-dihydronaphthalen-1-yl]sulfanyl]propanoic acid

> <PUBCHEM_IUPAC_CAS_NAME>
(2R)-2-acetamido-3-[[(1R,2R)-2-hydroxy-1,2-dihydronaphthalen-1-yl]thio]propanoic acid

> <PUBCHEM_IUPAC_NAME>
(2R)-2-acetamido-3-[[(1R,2R)-2-hydroxy-1,2-dihydronaphthalen-1-yl]sulfanyl]propanoic acid

> <PUBCHEM_IUPAC_SYSTEMATIC_NAME>
(2R)-2-acetamido-3-[[(1R,2R)-2-oxidanyl-1,2-dihydronaphthalen-1-yl]sulfanyl]propanoic acid

> <PUBCHEM_IUPAC_TRADITIONAL_NAME>
(2R)-2-acetamido-3-[[(1R,2R)-2-hydroxy-1,2-dihydronaphthalen-1-yl]thio]propionic acid

> <PUBCHEM_IUPAC_INCHI>
InChI=1S/C15H17NO4S/c1-9(17)16-12(15(19)20)8-21-14-11-5-3-2-4-10(11)6-7-13(14)18/h2-7,12-14,18H,8H2,1H3,(H,16,17)(H,19,20)/t12-,13+,14+/m0/s1

> <PUBCHEM_IUPAC_INCHIKEY>
ZTYURBPPZDJPKW-BFHYXJOUSA-N

> <PUBCHEM_XLOGP3_AA>
1.1

> <PUBCHEM_EXACT_MASS>
307.087829

> <PUBCHEM_MOLECULAR_FORMULA>
C15H17NO4S

> <PUBCHEM_MOLECULAR_WEIGHT>
307.36478

> <PUBCHEM_OPENEYE_CAN_SMILES>
CC(=O)NC(CSC1C(C=CC2=CC=CC=C12)O)C(=O)O

> <PUBCHEM_OPENEYE_ISO_SMILES>
CC(=O)N[C@@H](CS[C@H]1[C@@H](C=CC2=CC=CC=C12)O)C(=O)O

> <PUBCHEM_CACTVS_TPSA>
112

> <PUBCHEM_MONOISOTOPIC_WEIGHT>
307.087829

> <PUBCHEM_TOTAL_CHARGE>
0

> <PUBCHEM_HEAVY_ATOM_COUNT>
21

> <PUBCHEM_ATOM_DEF_STEREO_COUNT>
3

> <PUBCHEM_ATOM_UDEF_STEREO_COUNT>
0

> <PUBCHEM_BOND_DEF_STEREO_COUNT>
0

> <PUBCHEM_BOND_UDEF_STEREO_COUNT>
0

> <PUBCHEM_ISOTOPIC_ATOM_COUNT>
0

> <PUBCHEM_COMPONENT_COUNT>
1

> <PUBCHEM_CACTVS_TAUTO_COUNT>
2

> <PUBCHEM_COORDINATE_TYPE>
1
5
255

> <PUBCHEM_BONDANNOTATIONS>
7  1  5
10  16  8
15  17  8
16  18  8
17  18  8
8  2  6
14  6  5
9  10  8
9  15  8

$$$$

