583238
  -OEChem-06241222452D

 39 39  0     1  0  0  0  0  0999 V2000
    4.0000    0.3450    0.0000 O   0  0  0  0  0  0  0  0  0  0  0  0
    4.7320    4.3450    0.0000 O   0  0  0  0  0  0  0  0  0  0  0  0
    3.0000    4.3450    0.0000 O   0  0  0  0  0  0  0  0  0  0  0  0
    2.1340    2.8450    0.0000 O   0  0  0  0  0  0  0  0  0  0  0  0
    3.8660    1.8450    0.0000 N   0  0  0  0  0  0  0  0  0  0  0  0
    3.8660    2.8450    0.0000 C   0  0  3  0  0  0  0  0  0  0  0  0
    3.0000    1.3450    0.0000 C   0  0  0  0  0  0  0  0  0  0  0  0
    3.0000    0.3450    0.0000 C   0  0  3  0  0  0  0  0  0  0  0  0
    4.7320    3.3450    0.0000 C   0  0  3  0  0  0  0  0  0  0  0  0
    2.0000    0.3450    0.0000 C   0  0  0  0  0  0  0  0  0  0  0  0
    5.5981    2.8450    0.0000 C   0  0  0  0  0  0  0  0  0  0  0  0
    3.0000    3.3450    0.0000 C   0  0  0  0  0  0  0  0  0  0  0  0
    3.0000   -0.6550    0.0000 C   0  0  0  0  0  0  0  0  0  0  0  0
    3.0000   -1.6550    0.0000 C   0  0  0  0  0  0  0  0  0  0  0  0
    3.0000   -2.6550    0.0000 C   0  0  0  0  0  0  0  0  0  0  0  0
    2.1340   -3.1550    0.0000 C   0  0  0  0  0  0  0  0  0  0  0  0
    3.8660   -3.1550    0.0000 C   0  0  0  0  0  0  0  0  0  0  0  0
    2.1340   -4.1550    0.0000 C   0  0  0  0  0  0  0  0  0  0  0  0
    3.8660   -4.1550    0.0000 C   0  0  0  0  0  0  0  0  0  0  0  0
    3.0000   -4.6550    0.0000 C   0  0  0  0  0  0  0  0  0  0  0  0
    4.6022    2.4200    0.0000 H   0  0  0  0  0  0  0  0  0  0  0  0
    2.7880    1.9276    0.0000 H   0  0  0  0  0  0  0  0  0  0  0  0
    2.3894    1.2373    0.0000 H   0  0  0  0  0  0  0  0  0  0  0  0
    5.4682    3.7700    0.0000 H   0  0  0  0  0  0  0  0  0  0  0  0
    4.4030    1.5350    0.0000 H   0  0  0  0  0  0  0  0  0  0  0  0
    2.0000    0.9650    0.0000 H   0  0  0  0  0  0  0  0  0  0  0  0
    1.3800    0.3450    0.0000 H   0  0  0  0  0  0  0  0  0  0  0  0
    2.0000   -0.2750    0.0000 H   0  0  0  0  0  0  0  0  0  0  0  0
    5.2881    2.3081    0.0000 H   0  0  0  0  0  0  0  0  0  0  0  0
    6.1350    2.5350    0.0000 H   0  0  0  0  0  0  0  0  0  0  0  0
    5.9081    3.3819    0.0000 H   0  0  0  0  0  0  0  0  0  0  0  0
    4.3100   -0.1919    0.0000 H   0  0  0  0  0  0  0  0  0  0  0  0
    5.2690    4.6550    0.0000 H   0  0  0  0  0  0  0  0  0  0  0  0
    2.4631    4.6550    0.0000 H   0  0  0  0  0  0  0  0  0  0  0  0
    1.5970   -2.8450    0.0000 H   0  0  0  0  0  0  0  0  0  0  0  0
    4.4030   -2.8450    0.0000 H   0  0  0  0  0  0  0  0  0  0  0  0
    1.5970   -4.4650    0.0000 H   0  0  0  0  0  0  0  0  0  0  0  0
    4.4030   -4.4650    0.0000 H   0  0  0  0  0  0  0  0  0  0  0  0
    3.0000   -5.2750    0.0000 H   0  0  0  0  0  0  0  0  0  0  0  0
  1  8  1  0  0  0  0
  1 32  1  0  0  0  0
  2  9  1  0  0  0  0
  2 33  1  0  0  0  0
  3 12  1  0  0  0  0
  3 34  1  0  0  0  0
  4 12  2  0  0  0  0
  5  6  1  0  0  0  0
  5  7  1  0  0  0  0
  5 25  1  0  0  0  0
  6  9  1  0  0  0  0
  6 12  1  0  0  0  0
  6 21  1  0  0  0  0
  7  8  1  0  0  0  0
  7 22  1  0  0  0  0
  7 23  1  0  0  0  0
  8 10  1  0  0  0  0
  8 13  1  0  0  0  0
  9 11  1  0  0  0  0
  9 24  1  0  0  0  0
 10 26  1  0  0  0  0
 10 27  1  0  0  0  0
 10 28  1  0  0  0  0
 11 29  1  0  0  0  0
 11 30  1  0  0  0  0
 11 31  1  0  0  0  0
 13 14  3  0  0  0  0
 14 15  1  0  0  0  0
 15 16  2  0  0  0  0
 15 17  1  0  0  0  0
 16 18  1  0  0  0  0
 16 35  1  0  0  0  0
 17 19  2  0  0  0  0
 17 36  1  0  0  0  0
 18 20  2  0  0  0  0
 18 37  1  0  0  0  0
 19 20  1  0  0  0  0
 19 38  1  0  0  0  0
 20 39  1  0  0  0  0
M  END
> <PUBCHEM_COMPOUND_CID>
583238

> <PUBCHEM_COMPOUND_CANONICALIZED>
1

> <PUBCHEM_CACTVS_COMPLEXITY>
391

> <PUBCHEM_CACTVS_HBOND_ACCEPTOR>
5

> <PUBCHEM_CACTVS_HBOND_DONOR>
4

> <PUBCHEM_CACTVS_ROTATABLE_BOND>
7

> <PUBCHEM_CACTVS_SUBSKEYS>
AAADceByOAAAAAAAAAAAAAAAAAAAAAAAAAAwAAAAAAAAAAABAAAAHgAQCAAADHzhmAYyCILAAgDIEiDSCAgCAAAgAAAIiIGIAIgKMDaAETCEYAAlsACYiAcAgAAOAAAAAAAAAAAAAAAAAAAAAAAAAAAAAA==

> <PUBCHEM_IUPAC_OPENEYE_NAME>
3-hydroxy-2-[(2-hydroxy-2-methyl-4-phenyl-but-3-ynyl)amino]butanoic acid

> <PUBCHEM_IUPAC_CAS_NAME>
3-hydroxy-2-[(2-hydroxy-2-methyl-4-phenylbut-3-ynyl)amino]butanoic acid

> <PUBCHEM_IUPAC_NAME>
3-hydroxy-2-[(2-hydroxy-2-methyl-4-phenylbut-3-ynyl)amino]butanoic acid

> <PUBCHEM_IUPAC_SYSTEMATIC_NAME>
2-[(2-methyl-2-oxidanyl-4-phenyl-but-3-ynyl)amino]-3-oxidanyl-butanoic acid

> <PUBCHEM_IUPAC_TRADITIONAL_NAME>
3-hydroxy-2-[(2-hydroxy-2-methyl-4-phenyl-but-3-ynyl)amino]butyric acid

> <PUBCHEM_IUPAC_INCHI>
InChI=1S/C15H19NO4/c1-11(17)13(14(18)19)16-10-15(2,20)9-8-12-6-4-3-5-7-12/h3-7,11,13,16-17,20H,10H2,1-2H3,(H,18,19)

> <PUBCHEM_IUPAC_INCHIKEY>
BHHRWESKXPARKN-UHFFFAOYSA-N

> <PUBCHEM_XLOGP3_AA>
-1.7

> <PUBCHEM_EXACT_MASS>
277.131408

> <PUBCHEM_MOLECULAR_FORMULA>
C15H19NO4

> <PUBCHEM_MOLECULAR_WEIGHT>
277.31566

> <PUBCHEM_OPENEYE_CAN_SMILES>
CC(C(C(=O)O)NCC(C)(C#CC1=CC=CC=C1)O)O

> <PUBCHEM_OPENEYE_ISO_SMILES>
CC(C(C(=O)O)NCC(C)(C#CC1=CC=CC=C1)O)O

> <PUBCHEM_CACTVS_TPSA>
89.8

> <PUBCHEM_MONOISOTOPIC_WEIGHT>
277.131408

> <PUBCHEM_TOTAL_CHARGE>
0

> <PUBCHEM_HEAVY_ATOM_COUNT>
20

> <PUBCHEM_ATOM_DEF_STEREO_COUNT>
0

> <PUBCHEM_ATOM_UDEF_STEREO_COUNT>
3

> <PUBCHEM_BOND_DEF_STEREO_COUNT>
0

> <PUBCHEM_BOND_UDEF_STEREO_COUNT>
0

> <PUBCHEM_ISOTOPIC_ATOM_COUNT>
0

> <PUBCHEM_COMPONENT_COUNT>
1

> <PUBCHEM_CACTVS_TAUTO_COUNT>
1

> <PUBCHEM_COORDINATE_TYPE>
1
5
255

> <PUBCHEM_BONDANNOTATIONS>
15  16  8
15  17  8
16  18  8
17  19  8
18  20  8
19  20  8
6  21  3
8  13  3
9  24  3

$$$$

