14225
  -OEChem-06241222422D

 40 36  0     0  0  0  0  0  0999 V2000
    5.4641    1.2315    0.0000 Al  0  1  0  0  0  0  0  0  0  0  0  0
    6.3301    1.7315    0.0000 C   0  5  0  0  0  0  0  0  0  0  0  0
    4.5981    1.7315    0.0000 C   0  5  0  0  0  0  0  0  0  0  0  0
    5.4641    0.2315    0.0000 C   0  5  0  0  0  0  0  0  0  0  0  0
    7.1962    2.2315    0.0000 C   0  0  0  0  0  0  0  0  0  0  0  0
    3.7320    2.2315    0.0000 C   0  0  0  0  0  0  0  0  0  0  0  0
    5.4641   -0.7685    0.0000 C   0  0  0  0  0  0  0  0  0  0  0  0
    8.0622    1.7315    0.0000 C   0  0  0  0  0  0  0  0  0  0  0  0
    2.8660    1.7315    0.0000 C   0  0  0  0  0  0  0  0  0  0  0  0
    4.5981   -1.2685    0.0000 C   0  0  0  0  0  0  0  0  0  0  0  0
    8.9282    2.2315    0.0000 C   0  0  0  0  0  0  0  0  0  0  0  0
    2.0000    2.2315    0.0000 C   0  0  0  0  0  0  0  0  0  0  0  0
    4.5981   -2.2685    0.0000 C   0  0  0  0  0  0  0  0  0  0  0  0
    4.8441    0.2315    0.0000 H   0  0  0  0  0  0  0  0  0  0  0  0
    6.0841    0.2315    0.0000 H   0  0  0  0  0  0  0  0  0  0  0  0
    4.2881    1.1946    0.0000 H   0  0  0  0  0  0  0  0  0  0  0  0
    4.9081    2.2685    0.0000 H   0  0  0  0  0  0  0  0  0  0  0  0
    6.6401    1.1946    0.0000 H   0  0  0  0  0  0  0  0  0  0  0  0
    6.0201    2.2685    0.0000 H   0  0  0  0  0  0  0  0  0  0  0  0
    5.6762   -1.3511    0.0000 H   0  0  0  0  0  0  0  0  0  0  0  0
    6.0747   -0.6608    0.0000 H   0  0  0  0  0  0  0  0  0  0  0  0
    4.1306    2.7065    0.0000 H   0  0  0  0  0  0  0  0  0  0  0  0
    3.3335    2.7065    0.0000 H   0  0  0  0  0  0  0  0  0  0  0  0
    7.5947    2.7065    0.0000 H   0  0  0  0  0  0  0  0  0  0  0  0
    6.7976    2.7065    0.0000 H   0  0  0  0  0  0  0  0  0  0  0  0
    4.3860   -0.6859    0.0000 H   0  0  0  0  0  0  0  0  0  0  0  0
    3.9875   -1.3761    0.0000 H   0  0  0  0  0  0  0  0  0  0  0  0
    2.4675    1.2566    0.0000 H   0  0  0  0  0  0  0  0  0  0  0  0
    3.2646    1.2566    0.0000 H   0  0  0  0  0  0  0  0  0  0  0  0
    7.6636    1.2566    0.0000 H   0  0  0  0  0  0  0  0  0  0  0  0
    8.4607    1.2566    0.0000 H   0  0  0  0  0  0  0  0  0  0  0  0
    9.2382    1.6946    0.0000 H   0  0  0  0  0  0  0  0  0  0  0  0
    9.4651    2.5415    0.0000 H   0  0  0  0  0  0  0  0  0  0  0  0
    8.6182    2.7685    0.0000 H   0  0  0  0  0  0  0  0  0  0  0  0
    2.3100    2.7685    0.0000 H   0  0  0  0  0  0  0  0  0  0  0  0
    1.4631    2.5415    0.0000 H   0  0  0  0  0  0  0  0  0  0  0  0
    1.6900    1.6946    0.0000 H   0  0  0  0  0  0  0  0  0  0  0  0
    3.9781   -2.2685    0.0000 H   0  0  0  0  0  0  0  0  0  0  0  0
    4.5981   -2.8885    0.0000 H   0  0  0  0  0  0  0  0  0  0  0  0
    5.2181   -2.2685    0.0000 H   0  0  0  0  0  0  0  0  0  0  0  0
  2  5  1  0  0  0  0
  2 18  1  0  0  0  0
  2 19  1  0  0  0  0
  3  6  1  0  0  0  0
  3 16  1  0  0  0  0
  3 17  1  0  0  0  0
  4  7  1  0  0  0  0
  4 14  1  0  0  0  0
  4 15  1  0  0  0  0
  5  8  1  0  0  0  0
  5 24  1  0  0  0  0
  5 25  1  0  0  0  0
  6  9  1  0  0  0  0
  6 22  1  0  0  0  0
  6 23  1  0  0  0  0
  7 10  1  0  0  0  0
  7 20  1  0  0  0  0
  7 21  1  0  0  0  0
  8 11  1  0  0  0  0
  8 30  1  0  0  0  0
  8 31  1  0  0  0  0
  9 12  1  0  0  0  0
  9 28  1  0  0  0  0
  9 29  1  0  0  0  0
 10 13  1  0  0  0  0
 10 26  1  0  0  0  0
 10 27  1  0  0  0  0
 11 32  1  0  0  0  0
 11 33  1  0  0  0  0
 11 34  1  0  0  0  0
 12 35  1  0  0  0  0
 12 36  1  0  0  0  0
 12 37  1  0  0  0  0
 13 38  1  0  0  0  0
 13 39  1  0  0  0  0
 13 40  1  0  0  0  0
M  CHG  4   1   3   2  -1   3  -1   4  -1
M  END
> <PUBCHEM_COMPOUND_CID>
14225

> <PUBCHEM_COMPOUND_CANONICALIZED>
1

> <PUBCHEM_CACTVS_COMPLEXITY>
26.6

> <PUBCHEM_CACTVS_HBOND_ACCEPTOR>
3

> <PUBCHEM_CACTVS_HBOND_DONOR>
0

> <PUBCHEM_CACTVS_ROTATABLE_BOND>
3

> <PUBCHEM_CACTVS_SUBSKEYS>
AAADceBwAAAAABAAAAAAAAAAAAAAAAAAAAAAAAAAAAAAAAAAAAAAGAAAAAAACACAAAACAAAAAAAAAAAAAAAAAAAAAAAAAAAAAAAAAAAAAAAAAAAAAAAAAAAAAAAAAAAAAAAAAAAAAAAAAAAAAAAAAAAAAA==

> <PUBCHEM_IUPAC_OPENEYE_NAME>
aluminum butane

> <PUBCHEM_IUPAC_CAS_NAME>
aluminum butane

> <PUBCHEM_IUPAC_NAME>
aluminum butane

> <PUBCHEM_IUPAC_SYSTEMATIC_NAME>
aluminum butane

> <PUBCHEM_IUPAC_TRADITIONAL_NAME>
aluminum butane

> <PUBCHEM_IUPAC_INCHI>
InChI=1S/3C4H9.Al/c3*1-3-4-2;/h3*1,3-4H2,2H3;/q3*-1;+3

> <PUBCHEM_IUPAC_INCHIKEY>
ARCRVRQNRGBSFW-UHFFFAOYSA-N

> <PUBCHEM_EXACT_MASS>
198.192814

> <PUBCHEM_MOLECULAR_FORMULA>
C12H27Al

> <PUBCHEM_MOLECULAR_WEIGHT>
198.324319

> <PUBCHEM_OPENEYE_CAN_SMILES>
CCC[CH2-].CCC[CH2-].CCC[CH2-].[Al+3]

> <PUBCHEM_OPENEYE_ISO_SMILES>
CCC[CH2-].CCC[CH2-].CCC[CH2-].[Al+3]

> <PUBCHEM_CACTVS_TPSA>
0

> <PUBCHEM_MONOISOTOPIC_WEIGHT>
198.192814

> <PUBCHEM_TOTAL_CHARGE>
0

> <PUBCHEM_HEAVY_ATOM_COUNT>
13

> <PUBCHEM_ATOM_DEF_STEREO_COUNT>
0

> <PUBCHEM_ATOM_UDEF_STEREO_COUNT>
0

> <PUBCHEM_BOND_DEF_STEREO_COUNT>
0

> <PUBCHEM_BOND_UDEF_STEREO_COUNT>
0

> <PUBCHEM_ISOTOPIC_ATOM_COUNT>
0

> <PUBCHEM_COMPONENT_COUNT>
4

> <PUBCHEM_CACTVS_TAUTO_COUNT>
1

> <PUBCHEM_NONSTANDARDBOND>
1  2  6
1  3  6
1  4  6

> <PUBCHEM_COORDINATE_TYPE>
1
5
255

$$$$

