54675763
  -OEChem-07051212483D

 17 16  0     0  0  0  0  0  0999 V2000
    0.7260    1.4285    0.5349 O   0  0  0  0  0  0  0  0  0  0  0  0
   -3.4824    0.4435   -0.8808 O   0  0  0  0  0  0  0  0  0  0  0  0
    3.0317   -0.3761    1.0762 O   0  0  0  0  0  0  0  0  0  0  0  0
   -2.8600   -1.2203    0.5482 O   0  0  0  0  0  0  0  0  0  0  0  0
    3.0538    0.5274   -1.0111 O   0  0  0  0  0  0  0  0  0  0  0  0
   -0.2972    0.5531    0.2322 C   0  0  0  0  0  0  0  0  0  0  0  0
    0.1359   -0.7359   -0.2881 C   0  0  0  0  0  0  0  0  0  0  0  0
   -1.6033    0.8335    0.3919 C   0  0  0  0  0  0  0  0  0  0  0  0
    1.4125   -1.1031   -0.4805 C   0  0  0  0  0  0  0  0  0  0  0  0
   -2.6888   -0.1154    0.0629 C   0  0  0  0  0  0  0  0  0  0  0  0
    2.5718   -0.2350   -0.1859 C   0  0  0  0  0  0  0  0  0  0  0  0
   -0.6151   -1.4705   -0.5622 H   0  0  0  0  0  0  0  0  0  0  0  0
   -1.9159    1.8131    0.7411 H   0  0  0  0  0  0  0  0  0  0  0  0
    1.6449   -2.0852   -0.8797 H   0  0  0  0  0  0  0  0  0  0  0  0
    0.3260    2.2489    0.8719 H   0  0  0  0  0  0  0  0  0  0  0  0
   -4.2221   -0.1483   -1.1360 H   0  0  0  0  0  0  0  0  0  0  0  0
    3.7999    0.2071    1.2555 H   0  0  0  0  0  0  0  0  0  0  0  0
  1  6  1  0  0  0  0
  1 15  1  0  0  0  0
  2 10  1  0  0  0  0
  2 16  1  0  0  0  0
  3 11  1  0  0  0  0
  3 17  1  0  0  0  0
  4 10  2  0  0  0  0
  5 11  2  0  0  0  0
  6  7  1  0  0  0  0
  6  8  2  0  0  0  0
  7  9  2  0  0  0  0
  7 12  1  0  0  0  0
  8 10  1  0  0  0  0
  8 13  1  0  0  0  0
  9 11  1  0  0  0  0
  9 14  1  0  0  0  0
M  END
> <PUBCHEM_COMPOUND_CID>
54675763

> <PUBCHEM_CONFORMER_RMSD>
0.6

> <PUBCHEM_CONFORMER_DIVERSEORDER>
1
4
3
2

> <PUBCHEM_MMFF94_PARTIAL_CHARGES>
17
1 -0.53
10 0.71
11 0.71
12 0.15
13 0.15
14 0.15
15 0.45
16 0.5
17 0.5
2 -0.65
3 -0.65
4 -0.57
5 -0.57
6 0.08
7 -0.15
8 -0.14
9 -0.14

> <PUBCHEM_EFFECTIVE_ROTOR_COUNT>
3

> <PUBCHEM_PHARMACOPHORE_FEATURES>
7
1 1 donor
1 2 acceptor
1 3 acceptor
1 4 acceptor
1 5 acceptor
3 2 4 10 anion
3 3 5 11 anion

> <PUBCHEM_HEAVY_ATOM_COUNT>
11

> <PUBCHEM_ATOM_DEF_STEREO_COUNT>
0

> <PUBCHEM_ATOM_UDEF_STEREO_COUNT>
0

> <PUBCHEM_BOND_DEF_STEREO_COUNT>
2

> <PUBCHEM_BOND_UDEF_STEREO_COUNT>
0

> <PUBCHEM_ISOTOPIC_ATOM_COUNT>
0

> <PUBCHEM_COMPONENT_COUNT>
1

> <PUBCHEM_CACTVS_TAUTO_COUNT>
3

> <PUBCHEM_CONFORMER_ID>
0342493300000001

> <PUBCHEM_MMFF94_ENERGY>
33.789

> <PUBCHEM_FEATURE_SELFOVERLAP>
35.634

> <PUBCHEM_SHAPE_FINGERPRINT>
10219947 1 17530966886312190614
10857977 72 18260552229248655186
11062470 55 17489304204623771607
12897270 3 18336260219081172517
12932764 1 17274810389571427766
14325111 11 18131628980417281654
16945 1 18113898251633826099
19422 9 5112009434550584750
20201158 50 18408324410468662711
21293036 1 18261662697723190092
23552423 10 18122613113982068246
29004967 10 18187079585241747387
3248919 1 18410289258968938919

> <PUBCHEM_SHAPE_MULTIPOLES>
197.03
5.45
1.18
0.89
0.82
0.03
0.02
-0.4
0.42
0.08
-0.09
-0.22
0.01
0.13

> <PUBCHEM_SHAPE_SELFOVERLAP>
391.603

> <PUBCHEM_SHAPE_VOLUME>
115.5

> <PUBCHEM_COORDINATE_TYPE>
2
5
10

$$$$

