148724
  -OEChem-07051212573D

 29 30  0     0  0  0  0  0  0999 V2000
   -2.2009   -1.3296   -0.1302 O   0  0  0  0  0  0  0  0  0  0  0  0
    0.7101    2.4889    0.4512 O   0  0  0  0  0  0  0  0  0  0  0  0
    2.8817    0.8162    0.3962 O   0  0  0  0  0  0  0  0  0  0  0  0
    2.5365   -1.9103    0.0802 O   0  0  0  0  0  0  0  0  0  0  0  0
   -4.4710   -1.0391   -0.2294 O   0  0  0  0  0  0  0  0  0  0  0  0
   -0.7708    0.6180    0.1623 C   0  0  0  0  0  0  0  0  0  0  0  0
    0.5151    1.1472    0.2938 C   0  0  0  0  0  0  0  0  0  0  0  0
   -0.9195   -0.7575    0.0048 C   0  0  0  0  0  0  0  0  0  0  0  0
    1.6259    0.2988    0.2659 C   0  0  0  0  0  0  0  0  0  0  0  0
    1.4574   -1.0788    0.1068 C   0  0  0  0  0  0  0  0  0  0  0  0
    0.1783   -1.6150   -0.0247 C   0  0  0  0  0  0  0  0  0  0  0  0
   -1.9593    1.4535    0.1841 C   0  0  0  0  0  0  0  0  0  0  0  0
   -3.1694    0.9039    0.0550 C   0  0  0  0  0  0  0  0  0  0  0  0
   -3.3528   -0.5499   -0.1120 C   0  0  0  0  0  0  0  0  0  0  0  0
    0.8748    3.2607   -0.7354 C   0  0  0  0  0  0  0  0  0  0  0  0
    3.7864    0.5956   -0.6827 C   0  0  0  0  0  0  0  0  0  0  0  0
    2.2774   -3.3028   -0.0858 C   0  0  0  0  0  0  0  0  0  0  0  0
   -0.0284   -2.6716   -0.1506 H   0  0  0  0  0  0  0  0  0  0  0  0
   -1.8638    2.5256    0.3118 H   0  0  0  0  0  0  0  0  0  0  0  0
   -4.0615    1.5206    0.0726 H   0  0  0  0  0  0  0  0  0  0  0  0
    0.0225    3.1337   -1.4103 H   0  0  0  0  0  0  0  0  0  0  0  0
    1.8002    2.9818   -1.2484 H   0  0  0  0  0  0  0  0  0  0  0  0
    0.9393    4.3147   -0.4512 H   0  0  0  0  0  0  0  0  0  0  0  0
    4.4341    1.4736   -0.7637 H   0  0  0  0  0  0  0  0  0  0  0  0
    3.2679    0.4657   -1.6392 H   0  0  0  0  0  0  0  0  0  0  0  0
    4.4181   -0.2717   -0.4709 H   0  0  0  0  0  0  0  0  0  0  0  0
    3.2464   -3.8128   -0.0850 H   0  0  0  0  0  0  0  0  0  0  0  0
    1.8085   -3.5138   -1.0530 H   0  0  0  0  0  0  0  0  0  0  0  0
    1.7037   -3.7098    0.7539 H   0  0  0  0  0  0  0  0  0  0  0  0
  1  8  1  0  0  0  0
  1 14  1  0  0  0  0
  2  7  1  0  0  0  0
  2 15  1  0  0  0  0
  3  9  1  0  0  0  0
  3 16  1  0  0  0  0
  4 10  1  0  0  0  0
  4 17  1  0  0  0  0
  5 14  2  0  0  0  0
  6  7  2  0  0  0  0
  6  8  1  0  0  0  0
  6 12  1  0  0  0  0
  7  9  1  0  0  0  0
  8 11  2  0  0  0  0
  9 10  2  0  0  0  0
 10 11  1  0  0  0  0
 11 18  1  0  0  0  0
 12 13  2  0  0  0  0
 12 19  1  0  0  0  0
 13 14  1  0  0  0  0
 13 20  1  0  0  0  0
 15 21  1  0  0  0  0
 15 22  1  0  0  0  0
 15 23  1  0  0  0  0
 16 24  1  0  0  0  0
 16 25  1  0  0  0  0
 16 26  1  0  0  0  0
 17 27  1  0  0  0  0
 17 28  1  0  0  0  0
 17 29  1  0  0  0  0
M  END
> <PUBCHEM_COMPOUND_CID>
148724

> <PUBCHEM_CONFORMER_RMSD>
0.6

> <PUBCHEM_CONFORMER_DIVERSEORDER>
3
5
4
2
1

> <PUBCHEM_MMFF94_PARTIAL_CHARGES>
20
1 -0.23
10 0.08
11 -0.15
12 -0.18
13 -0.14
14 0.71
15 0.28
16 0.28
17 0.28
18 0.15
19 0.15
2 -0.36
20 0.15
3 -0.36
4 -0.36
5 -0.57
6 0.03
7 0.08
8 0.08
9 0.08

> <PUBCHEM_EFFECTIVE_ROTOR_COUNT>
3

> <PUBCHEM_PHARMACOPHORE_FEATURES>
6
1 2 acceptor
1 3 acceptor
1 4 acceptor
1 5 acceptor
6 1 6 8 12 13 14 rings
6 6 7 8 9 10 11 rings

> <PUBCHEM_HEAVY_ATOM_COUNT>
17

> <PUBCHEM_ATOM_DEF_STEREO_COUNT>
0

> <PUBCHEM_ATOM_UDEF_STEREO_COUNT>
0

> <PUBCHEM_BOND_DEF_STEREO_COUNT>
0

> <PUBCHEM_BOND_UDEF_STEREO_COUNT>
0

> <PUBCHEM_ISOTOPIC_ATOM_COUNT>
0

> <PUBCHEM_COMPONENT_COUNT>
1

> <PUBCHEM_CACTVS_TAUTO_COUNT>
1

> <PUBCHEM_CONFORMER_ID>
000244F400000003

> <PUBCHEM_MMFF94_ENERGY>
83.158

> <PUBCHEM_FEATURE_SELFOVERLAP>
30.484

> <PUBCHEM_SHAPE_FINGERPRINT>
10967382 1 18410294683465310467
10980938 120 18410293618429530618
11471102 20 18410581673681117719
13140716 1 17977107864014464323
13380535 76 18341614772115961834
13380536 305 18195524792500388380
14576447 43 18043547022987488663
14790565 3 18267008475691829148
15042514 8 16826714596386764218
15196674 1 18409730703109978803
15442244 35 18263924521858480497
15536298 74 18261113019197750626
16945 1 18338798905604233883
17990270 104 18411422816997675339
193761 8 17978228584544220904
19591789 44 17834386822360267611
20559304 39 18410858733051542481
20588541 1 18342174436334693698
20645477 70 18338525235068942551
20739085 24 18049413101851540537
21267235 1 18409158939525418154
21501502 16 18336543944657792955
221490 88 18412538829964149259
2255824 54 18268430126940620644
23184049 29 18050573142474517714
2334 1 18410013277234417851
23402539 116 18334580093101392244
23463225 33 18337391672402061650
23526113 38 18131631192541795451
23526114 1 18338800133949205639
23552423 10 18338237038241079389
23557571 272 17322110482963395038
23559900 14 17903646520673745130
2748010 2 18337397165596427591
3060560 45 18338239245759324390
5104073 3 18337109064081435035
53812653 166 18261398806179091552
54173680 148 17833834150173603067
7364860 26 18336266725946394737
81228 2 17833261300320376387

> <PUBCHEM_SHAPE_MULTIPOLES>
320.51
5.77
3.2
0.69
2.87
0.35
0.03
-1.81
0.66
-2.06
0.36
-0.14
0.16
-0.26

> <PUBCHEM_SHAPE_SELFOVERLAP>
687.69

> <PUBCHEM_SHAPE_VOLUME>
177.9

> <PUBCHEM_COORDINATE_TYPE>
2
5
10

$$$$

