29025
  -OEChem-07051212582D

 25 26  0     1  0  0  0  0  0999 V2000
    2.0000    0.9636    0.0000 O   0  0  0  0  0  0  0  0  0  0  0  0
    6.9193   -0.1048    0.0000 C   0  0  0  0  0  0  0  0  0  0  0  0
    5.0873    0.1364    0.0000 C   0  0  3  0  0  0  0  0  0  0  0  0
    5.3461    1.1023    0.0000 C   0  0  3  0  0  0  0  0  0  0  0  0
    4.6095    2.0849    0.0000 C   0  0  0  0  0  0  0  0  0  0  0  0
    3.5522   -1.1068    0.0000 C   0  0  0  0  0  0  0  0  0  0  0  0
    7.4193   -0.9708    0.0000 C   0  0  0  0  0  0  0  0  0  0  0  0
    7.7853    0.3952    0.0000 C   0  0  0  0  0  0  0  0  0  0  0  0
    2.7431    0.2945    0.0000 C   0  0  0  0  0  0  0  0  0  0  0  0
    2.6386   -0.7000    0.0000 C   0  0  0  0  0  0  0  0  0  0  0  0
    3.7601   -2.0849    0.0000 C   0  0  0  0  0  0  0  0  0  0  0  0
    5.2556   -0.4603    0.0000 H   0  0  0  0  0  0  0  0  0  0  0  0
    5.7870    1.5382    0.0000 H   0  0  0  0  0  0  0  0  0  0  0  0
    4.9273    2.6173    0.0000 H   0  0  0  0  0  0  0  0  0  0  0  0
    3.9964    2.1769    0.0000 H   0  0  0  0  0  0  0  0  0  0  0  0
    6.8823   -1.2808    0.0000 H   0  0  0  0  0  0  0  0  0  0  0  0
    8.0953   -0.1417    0.0000 H   0  0  0  0  0  0  0  0  0  0  0  0
    8.3222    0.7052    0.0000 H   0  0  0  0  0  0  0  0  0  0  0  0
    7.4753    0.9321    0.0000 H   0  0  0  0  0  0  0  0  0  0  0  0
    7.7293   -1.5078    0.0000 H   0  0  0  0  0  0  0  0  0  0  0  0
    7.9562   -0.6608    0.0000 H   0  0  0  0  0  0  0  0  0  0  0  0
    2.1017   -1.0100    0.0000 H   0  0  0  0  0  0  0  0  0  0  0  0
    3.1536   -2.2138    0.0000 H   0  0  0  0  0  0  0  0  0  0  0  0
    3.8890   -2.6914    0.0000 H   0  0  0  0  0  0  0  0  0  0  0  0
    4.3665   -1.9560    0.0000 H   0  0  0  0  0  0  0  0  0  0  0  0
  1  9  2  0  0  0  0
  2  3  1  0  0  0  0
  2  4  1  0  0  0  0
  2  7  1  0  0  0  0
  2  8  1  0  0  0  0
  3  5  1  0  0  0  0
  3  6  1  0  0  0  0
  3 12  1  0  0  0  0
  4  5  1  0  0  0  0
  4  9  1  0  0  0  0
  4 13  1  0  0  0  0
  5 14  1  0  0  0  0
  5 15  1  0  0  0  0
  6 10  2  0  0  0  0
  6 11  1  0  0  0  0
  7 16  1  0  0  0  0
  7 20  1  0  0  0  0
  7 21  1  0  0  0  0
  8 17  1  0  0  0  0
  8 18  1  0  0  0  0
  8 19  1  0  0  0  0
  9 10  1  0  0  0  0
 10 22  1  0  0  0  0
 11 23  1  0  0  0  0
 11 24  1  0  0  0  0
 11 25  1  0  0  0  0
M  END
> <PUBCHEM_COMPOUND_CID>
29025

> <PUBCHEM_COMPOUND_CANONICALIZED>
1

> <PUBCHEM_CACTVS_COMPLEXITY>
248

> <PUBCHEM_CACTVS_HBOND_ACCEPTOR>
1

> <PUBCHEM_CACTVS_HBOND_DONOR>
0

> <PUBCHEM_CACTVS_ROTATABLE_BOND>
0

> <PUBCHEM_CACTVS_SUBSKEYS>
AAADccBwIAAAAAAAAAAAAAAAAABgAAAAAAAgQAAAAAAAAAAAAAAAGgAAAAAADwSAgAACAAAAAACIAqBSAAAAAAAgAAAACAEAAEgAABIAAQAAAAAAgAAIAQMIiEAPgAAAAAAAAAAAAAAAAAAAAAAAAAAAAA==

> <PUBCHEM_IUPAC_OPENEYE_NAME>
2,6,6-trimethylbicyclo[3.1.1]hept-2-en-4-one

> <PUBCHEM_IUPAC_CAS_NAME>
2,6,6-trimethyl-4-bicyclo[3.1.1]hept-2-enone

> <PUBCHEM_IUPAC_NAME>
2,6,6-trimethylbicyclo[3.1.1]hept-2-en-4-one

> <PUBCHEM_IUPAC_SYSTEMATIC_NAME>
2,6,6-trimethylbicyclo[3.1.1]hept-2-en-4-one

> <PUBCHEM_IUPAC_TRADITIONAL_NAME>
2,6,6-trimethylbicyclo[3.1.1]hept-2-en-4-one

> <PUBCHEM_IUPAC_INCHI>
InChI=1S/C10H14O/c1-6-4-9(11)8-5-7(6)10(8,2)3/h4,7-8H,5H2,1-3H3

> <PUBCHEM_IUPAC_INCHIKEY>
DCSCXTJOXBUFGB-UHFFFAOYSA-N

> <PUBCHEM_XLOGP3_AA>
1.6

> <PUBCHEM_EXACT_MASS>
150.104465

> <PUBCHEM_MOLECULAR_FORMULA>
C10H14O

> <PUBCHEM_MOLECULAR_WEIGHT>
150.21756

> <PUBCHEM_OPENEYE_CAN_SMILES>
CC1=CC(=O)C2CC1C2(C)C

> <PUBCHEM_OPENEYE_ISO_SMILES>
CC1=CC(=O)C2CC1C2(C)C

> <PUBCHEM_CACTVS_TPSA>
17.1

> <PUBCHEM_MONOISOTOPIC_WEIGHT>
150.104465

> <PUBCHEM_TOTAL_CHARGE>
0

> <PUBCHEM_HEAVY_ATOM_COUNT>
11

> <PUBCHEM_ATOM_DEF_STEREO_COUNT>
0

> <PUBCHEM_ATOM_UDEF_STEREO_COUNT>
2

> <PUBCHEM_BOND_DEF_STEREO_COUNT>
0

> <PUBCHEM_BOND_UDEF_STEREO_COUNT>
0

> <PUBCHEM_ISOTOPIC_ATOM_COUNT>
0

> <PUBCHEM_COMPONENT_COUNT>
1

> <PUBCHEM_CACTVS_TAUTO_COUNT>
5

> <PUBCHEM_COORDINATE_TYPE>
1
5
255

> <PUBCHEM_BONDANNOTATIONS>
3  2  3
4  2  3

$$$$

