47205114
  -OEChem-06241222582D

 35 37  0     1  0  0  0  0  0999 V2000
    5.4071    1.0021    0.0000 O   0  0  0  0  0  0  0  0  0  0  0  0
    5.4071    3.0021    0.0000 O   0  0  0  0  0  0  0  0  0  0  0  0
    2.8090    1.5021    0.0000 O   0  0  0  0  0  0  0  0  0  0  0  0
    3.6750    0.0021    0.0000 N   0  0  0  0  0  0  0  0  0  0  0  0
    3.6180   -2.0857    0.0000 N   0  0  0  0  0  0  0  0  0  0  0  0
    3.3090   -3.0368    0.0000 N   0  0  0  0  0  0  0  0  0  0  0  0
    4.5411    1.5021    0.0000 C   0  0  3  0  0  0  0  0  0  0  0  0
    4.5411    2.5021    0.0000 C   0  0  3  0  0  0  0  0  0  0  0  0
    3.6750    1.0021    0.0000 C   0  0  0  0  0  0  0  0  0  0  0  0
    3.6750    3.0021    0.0000 C   0  0  0  0  0  0  0  0  0  0  0  0
    6.2731    1.5021    0.0000 C   0  0  0  0  0  0  0  0  0  0  0  0
    6.2731    2.5021    0.0000 C   0  0  0  0  0  0  0  0  0  0  0  0
    2.8090   -0.4979    0.0000 C   0  0  0  0  0  0  0  0  0  0  0  0
    7.1671    0.9674    0.0000 C   0  0  0  0  0  0  0  0  0  0  0  0
    7.1671    3.0368    0.0000 C   0  0  0  0  0  0  0  0  0  0  0  0
    2.8090   -1.4979    0.0000 C   0  0  0  0  0  0  0  0  0  0  0  0
    8.0731    1.4813    0.0000 C   0  0  0  0  0  0  0  0  0  0  0  0
    8.0731    2.5229    0.0000 C   0  0  0  0  0  0  0  0  0  0  0  0
    2.0000   -2.0857    0.0000 C   0  0  0  0  0  0  0  0  0  0  0  0
    2.3090   -3.0368    0.0000 C   0  0  0  0  0  0  0  0  0  0  0  0
    4.5411    0.8821    0.0000 H   0  0  0  0  0  0  0  0  0  0  0  0
    4.5411    3.1221    0.0000 H   0  0  0  0  0  0  0  0  0  0  0  0
    3.9850    3.5390    0.0000 H   0  0  0  0  0  0  0  0  0  0  0  0
    3.1381    3.3121    0.0000 H   0  0  0  0  0  0  0  0  0  0  0  0
    3.3650    2.4652    0.0000 H   0  0  0  0  0  0  0  0  0  0  0  0
    4.2120   -0.3079    0.0000 H   0  0  0  0  0  0  0  0  0  0  0  0
    2.5970    0.0847    0.0000 H   0  0  0  0  0  0  0  0  0  0  0  0
    2.1984   -0.6056    0.0000 H   0  0  0  0  0  0  0  0  0  0  0  0
    7.1599    0.3475    0.0000 H   0  0  0  0  0  0  0  0  0  0  0  0
    7.1599    3.6567    0.0000 H   0  0  0  0  0  0  0  0  0  0  0  0
    8.6089    1.1692    0.0000 H   0  0  0  0  0  0  0  0  0  0  0  0
    8.6089    2.8350    0.0000 H   0  0  0  0  0  0  0  0  0  0  0  0
    1.4103   -1.8941    0.0000 H   0  0  0  0  0  0  0  0  0  0  0  0
    4.2077   -1.8941    0.0000 H   0  0  0  0  0  0  0  0  0  0  0  0
    1.9446   -3.5383    0.0000 H   0  0  0  0  0  0  0  0  0  0  0  0
  1  7  1  0  0  0  0
  1 11  1  0  0  0  0
  2  8  1  0  0  0  0
  2 12  1  0  0  0  0
  3  9  2  0  0  0  0
  4  9  1  0  0  0  0
  4 13  1  0  0  0  0
  4 26  1  0  0  0  0
  5  6  1  0  0  0  0
  5 16  1  0  0  0  0
  5 34  1  0  0  0  0
  6 20  2  0  0  0  0
  7  8  1  0  0  0  0
  7  9  1  0  0  0  0
  7 21  1  0  0  0  0
  8 10  1  0  0  0  0
  8 22  1  0  0  0  0
 10 23  1  0  0  0  0
 10 24  1  0  0  0  0
 10 25  1  0  0  0  0
 11 12  1  0  0  0  0
 11 14  2  0  0  0  0
 12 15  2  0  0  0  0
 13 16  1  0  0  0  0
 13 27  1  0  0  0  0
 13 28  1  0  0  0  0
 14 17  1  0  0  0  0
 14 29  1  0  0  0  0
 15 18  1  0  0  0  0
 15 30  1  0  0  0  0
 16 19  2  0  0  0  0
 17 18  2  0  0  0  0
 17 31  1  0  0  0  0
 18 32  1  0  0  0  0
 19 20  1  0  0  0  0
 19 33  1  0  0  0  0
 20 35  1  0  0  0  0
M  END
> <PUBCHEM_COMPOUND_CID>
47205114

> <PUBCHEM_COMPOUND_CANONICALIZED>
1

> <PUBCHEM_CACTVS_COMPLEXITY>
353

> <PUBCHEM_CACTVS_HBOND_ACCEPTOR>
4

> <PUBCHEM_CACTVS_HBOND_DONOR>
2

> <PUBCHEM_CACTVS_ROTATABLE_BOND>
3

> <PUBCHEM_CACTVS_SUBSKEYS>
AAADccBzMAAAAAAAAAAAAAAAAAAAAWAAAAA0QAAAAAAAAACRwAAAHgAYAAAACBzhlgY+hpLjBACqATV3UAKSDAAgogAYuaF+7JgPZraE8d+XvCrm/hGa6AeAQAAAAAAAAAAAQAAAAAAAAACAAAAAAAAAAA==

> <PUBCHEM_IUPAC_OPENEYE_NAME>
2-methyl-N-(1H-pyrazol-5-ylmethyl)-2,3-dihydro-1,4-benzodioxine-3-carboxamide

> <PUBCHEM_IUPAC_CAS_NAME>
2-methyl-N-(1H-pyrazol-5-ylmethyl)-2,3-dihydro-1,4-benzodioxin-3-carboxamide

> <PUBCHEM_IUPAC_NAME>
2-methyl-N-(1H-pyrazol-5-ylmethyl)-2,3-dihydro-1,4-benzodioxine-3-carboxamide

> <PUBCHEM_IUPAC_SYSTEMATIC_NAME>
2-methyl-N-(1H-pyrazol-5-ylmethyl)-2,3-dihydro-1,4-benzodioxine-3-carboxamide

> <PUBCHEM_IUPAC_TRADITIONAL_NAME>
2-methyl-N-(1H-pyrazol-5-ylmethyl)-2,3-dihydro-1,4-benzodioxin-3-carboxamide

> <PUBCHEM_IUPAC_INCHI>
InChI=1S/C14H15N3O3/c1-9-13(14(18)15-8-10-6-7-16-17-10)20-12-5-3-2-4-11(12)19-9/h2-7,9,13H,8H2,1H3,(H,15,18)(H,16,17)

> <PUBCHEM_IUPAC_INCHIKEY>
SPQSPGPIMAUTJY-UHFFFAOYSA-N

> <PUBCHEM_XLOGP3_AA>
1.3

> <PUBCHEM_EXACT_MASS>
273.111341

> <PUBCHEM_MOLECULAR_FORMULA>
C14H15N3O3

> <PUBCHEM_MOLECULAR_WEIGHT>
273.2872

> <PUBCHEM_OPENEYE_CAN_SMILES>
CC1C(OC2=CC=CC=C2O1)C(=O)NCC3=CC=NN3

> <PUBCHEM_OPENEYE_ISO_SMILES>
CC1C(OC2=CC=CC=C2O1)C(=O)NCC3=CC=NN3

> <PUBCHEM_CACTVS_TPSA>
76.2

> <PUBCHEM_MONOISOTOPIC_WEIGHT>
273.111341

> <PUBCHEM_TOTAL_CHARGE>
0

> <PUBCHEM_HEAVY_ATOM_COUNT>
20

> <PUBCHEM_ATOM_DEF_STEREO_COUNT>
0

> <PUBCHEM_ATOM_UDEF_STEREO_COUNT>
2

> <PUBCHEM_BOND_DEF_STEREO_COUNT>
0

> <PUBCHEM_BOND_UDEF_STEREO_COUNT>
0

> <PUBCHEM_ISOTOPIC_ATOM_COUNT>
0

> <PUBCHEM_COMPONENT_COUNT>
1

> <PUBCHEM_CACTVS_TAUTO_COUNT>
4

> <PUBCHEM_COORDINATE_TYPE>
1
5
255

> <PUBCHEM_BONDANNOTATIONS>
11  12  8
11  14  8
12  15  8
14  17  8
15  18  8
16  19  8
17  18  8
19  20  8
5  16  8
5  6  8
6  20  8
7  9  3
8  10  3

$$$$

