17396652
  -OEChem-06241222573D

 43 44  0     1  0  0  0  0  0999 V2000
   -6.5936   -0.0160    0.3504 F   0  0  0  0  0  0  0  0  0  0  0  0
    0.6754   -0.2322   -1.3396 O   0  0  0  0  0  0  0  0  0  0  0  0
   -1.3500   -1.6938   -0.1705 N   0  0  1  0  0  0  0  0  0  0  0  0
    2.1295   -0.9597    0.3540 N   0  0  0  0  0  0  0  0  0  0  0  0
   -1.7945   -0.7319    0.8373 C   0  0  0  0  0  0  0  0  0  0  0  0
    0.0389   -2.0828    0.0714 C   0  0  0  0  0  0  0  0  0  0  0  0
    3.2341   -0.0847    0.2224 C   0  0  0  0  0  0  0  0  0  0  0  0
   -2.9572    0.0879    0.3575 C   0  0  0  0  0  0  0  0  0  0  0  0
    0.9640   -0.9784   -0.4095 C   0  0  0  0  0  0  0  0  0  0  0  0
    3.0550    1.2911    0.3662 C   0  0  0  0  0  0  0  0  0  0  0  0
    4.5020   -0.5982   -0.0505 C   0  0  0  0  0  0  0  0  0  0  0  0
   -2.2176   -2.8711   -0.1713 C   0  0  0  0  0  0  0  0  0  0  0  0
    4.1437    2.1535    0.2370 C   0  0  0  0  0  0  0  0  0  0  0  0
    5.5908    0.2641   -0.1796 C   0  0  0  0  0  0  0  0  0  0  0  0
   -4.2613   -0.3533    0.5820 C   0  0  0  0  0  0  0  0  0  0  0  0
   -2.7332    1.2904   -0.3128 C   0  0  0  0  0  0  0  0  0  0  0  0
    1.7092    1.8716    0.6583 C   0  0  0  0  0  0  0  0  0  0  0  0
    4.7258   -2.0671   -0.2100 C   0  0  0  0  0  0  0  0  0  0  0  0
    5.4117    1.6399   -0.0359 C   0  0  0  0  0  0  0  0  0  0  0  0
   -5.3414    0.4082    0.1361 C   0  0  0  0  0  0  0  0  0  0  0  0
   -3.8135    2.0518   -0.7587 C   0  0  0  0  0  0  0  0  0  0  0  0
   -5.1176    1.6107   -0.5343 C   0  0  0  0  0  0  0  0  0  0  0  0
   -0.9926   -0.0258    1.0911 H   0  0  0  0  0  0  0  0  0  0  0  0
   -2.0385   -1.2213    1.7909 H   0  0  0  0  0  0  0  0  0  0  0  0
    0.2127   -2.3304    1.1260 H   0  0  0  0  0  0  0  0  0  0  0  0
    0.3080   -2.9646   -0.5246 H   0  0  0  0  0  0  0  0  0  0  0  0
    2.3519   -1.8443    0.8062 H   0  0  0  0  0  0  0  0  0  0  0  0
   -2.2606   -3.3597    0.8090 H   0  0  0  0  0  0  0  0  0  0  0  0
   -3.2347   -2.6274   -0.4905 H   0  0  0  0  0  0  0  0  0  0  0  0
   -1.8577   -3.6095   -0.8977 H   0  0  0  0  0  0  0  0  0  0  0  0
    4.0200    3.2279    0.3437 H   0  0  0  0  0  0  0  0  0  0  0  0
    6.5857   -0.1188   -0.3912 H   0  0  0  0  0  0  0  0  0  0  0  0
   -4.4535   -1.2816    1.1131 H   0  0  0  0  0  0  0  0  0  0  0  0
   -1.7223    1.6449   -0.4959 H   0  0  0  0  0  0  0  0  0  0  0  0
    1.8067    2.8527    1.1384 H   0  0  0  0  0  0  0  0  0  0  0  0
    1.1392    1.2545    1.3595 H   0  0  0  0  0  0  0  0  0  0  0  0
    1.1390    2.0153   -0.2635 H   0  0  0  0  0  0  0  0  0  0  0  0
    4.5664   -2.5832    0.7424 H   0  0  0  0  0  0  0  0  0  0  0  0
    4.0511   -2.4823   -0.9662 H   0  0  0  0  0  0  0  0  0  0  0  0
    5.7474   -2.2893   -0.5377 H   0  0  0  0  0  0  0  0  0  0  0  0
    6.2594    2.3114   -0.1368 H   0  0  0  0  0  0  0  0  0  0  0  0
   -3.6393    2.9879   -1.2811 H   0  0  0  0  0  0  0  0  0  0  0  0
   -5.9589    2.2031   -0.8817 H   0  0  0  0  0  0  0  0  0  0  0  0
  1 20  1  0  0  0  0
  2  9  2  0  0  0  0
  3  5  1  0  0  0  0
  3  6  1  0  0  0  0
  3 12  1  0  0  0  0
  4  7  1  0  0  0  0
  4  9  1  0  0  0  0
  4 27  1  0  0  0  0
  5  8  1  0  0  0  0
  5 23  1  0  0  0  0
  5 24  1  0  0  0  0
  6  9  1  0  0  0  0
  6 25  1  0  0  0  0
  6 26  1  0  0  0  0
  7 10  2  0  0  0  0
  7 11  1  0  0  0  0
  8 15  2  0  0  0  0
  8 16  1  0  0  0  0
 10 13  1  0  0  0  0
 10 17  1  0  0  0  0
 11 14  2  0  0  0  0
 11 18  1  0  0  0  0
 12 28  1  0  0  0  0
 12 29  1  0  0  0  0
 12 30  1  0  0  0  0
 13 19  2  0  0  0  0
 13 31  1  0  0  0  0
 14 19  1  0  0  0  0
 14 32  1  0  0  0  0
 15 20  1  0  0  0  0
 15 33  1  0  0  0  0
 16 21  2  0  0  0  0
 16 34  1  0  0  0  0
 17 35  1  0  0  0  0
 17 36  1  0  0  0  0
 17 37  1  0  0  0  0
 18 38  1  0  0  0  0
 18 39  1  0  0  0  0
 18 40  1  0  0  0  0
 19 41  1  0  0  0  0
 20 22  2  0  0  0  0
 21 22  1  0  0  0  0
 21 42  1  0  0  0  0
 22 43  1  0  0  0  0
M  END
> <PUBCHEM_COMPOUND_CID>
17396652

> <PUBCHEM_CONFORMER_RMSD>
0.8

> <PUBCHEM_CONFORMER_DIVERSEORDER>
5
226
15
35
198
115
192
129
195
186
148
75
68
209
130
132
184
159
170
189
212
64
18
221
140
197
101
158
72
76
110
210
200
84
65
40
73
47
193
45
179
123
188
133
151
96
50
208
141
166
60
178
99
67
10
28
112
53
1
25
90
174
34
36
49
7
86
44
225
164
222
191
138
144
97
85
77
69
26
187
120
41
206
152
9
147
194
109
12
169
20
190
29
167
8
149
62
82
113
180
22
128
203
30
171
59
80
207
145
163
173
227
105
89
56
156
33
70
127
154
201
104
172
31
142
100
119
93
205
32
228
176
124
19
165
139
155
43
83
214
153
218
143
122
57
196
58
108
61
125
211
48
23
46
66
27
116
114
219
161
168
13
111
88
52
216
2
94
92
177
146
38
175
220
98
102
3
181
135
4
74
106
204
185
126
118
162
95
103
24
91
131
215
121
37
51
54
199
16
6
150
134
183
224
71
213
117
55
223
11
107
79
87
17
78
217
137
14
182
21
42
81
202
63
136
157
160
39

> <PUBCHEM_MMFF94_PARTIAL_CHARGES>
30
1 -0.19
10 -0.14
11 -0.14
12 0.27
13 -0.15
14 -0.15
15 -0.15
16 -0.15
17 0.14
18 0.14
19 -0.15
2 -0.57
20 0.19
21 -0.15
22 -0.15
27 0.37
3 -0.81
31 0.15
32 0.15
33 0.15
34 0.15
4 -0.55
41 0.15
42 0.15
43 0.15
5 0.41
6 0.33
7 0.12
8 -0.14
9 0.57

> <PUBCHEM_EFFECTIVE_ROTOR_COUNT>
6

> <PUBCHEM_PHARMACOPHORE_FEATURES>
5
1 2 acceptor
1 3 cation
1 4 donor
6 7 10 11 13 14 19 rings
6 8 15 16 20 21 22 rings

> <PUBCHEM_HEAVY_ATOM_COUNT>
22

> <PUBCHEM_ATOM_DEF_STEREO_COUNT>
0

> <PUBCHEM_ATOM_UDEF_STEREO_COUNT>
0

> <PUBCHEM_BOND_DEF_STEREO_COUNT>
0

> <PUBCHEM_BOND_UDEF_STEREO_COUNT>
0

> <PUBCHEM_ISOTOPIC_ATOM_COUNT>
0

> <PUBCHEM_COMPONENT_COUNT>
1

> <PUBCHEM_CACTVS_TAUTO_COUNT>
2

> <PUBCHEM_CONFORMER_ID>
010973AC00000005

> <PUBCHEM_MMFF94_ENERGY>
75.0209

> <PUBCHEM_FEATURE_SELFOVERLAP>
25.371

> <PUBCHEM_SHAPE_FINGERPRINT>
10 15 18200878375136072800
11089746 13 18412833494758811734
11578080 2 16807315509479647368
11595378 159 16845305963501180060
12011746 2 18410574006721584132
12107183 9 18269284619917926626
12403259 415 18272653497606394445
12596602 18 15769765819620009521
12788726 201 17531240711936843385
13402501 40 18411702097267722725
13785724 45 17762059135547664098
14341114 176 18412539920584830608
15183329 4 18334289894497555184
15196674 1 18410856563940259049
17349148 13 17312817208304283514
17834072 8 18187357732383668780
192875 21 17530682134528745232
20157964 124 18334011717760529871
20645477 56 18411415103215598375
21033648 144 18041569035406501176
21033648 29 18411992355288997817
21236236 1 18262238812089451431
21279426 13 18266177429795093620
21315764 268 18272092716168462876
21421861 104 17916603037246891834
221357 26 18335422391268760712
23227448 37 18335986372367455783
23559900 14 18187363264138580626
2838139 119 18409456890080871149
3004659 81 18342455980858952314
335352 9 18409165520369786286
351380 180 18409730677113341185
3545911 37 18408319969519756624
4073 2 18059851711064874626
4214541 1 18409729526136017410
4325135 7 18040719139515852135
5104073 3 18343300383412298395
9996256 80 18335423443994599735

> <PUBCHEM_SHAPE_MULTIPOLES>
429.64
14.43
2.66
0.82
3.44
0.62
-0.05
-5.08
-0.06
-0.42
-0.17
0.21
-0.07
0.89

> <PUBCHEM_SHAPE_SELFOVERLAP>
903.683

> <PUBCHEM_SHAPE_VOLUME>
243.4

> <PUBCHEM_COORDINATE_TYPE>
2
5
10

$$$$

