441960
  -OEChem-07051212563D

 40 42  0     1  0  0  0  0  0999 V2000
   -2.1693   -1.4633    0.2711 O   0  0  0  0  0  0  0  0  0  0  0  0
   -4.1397   -0.5843   -1.5489 O   0  0  0  0  0  0  0  0  0  0  0  0
    0.0201    2.6591    0.2153 O   0  0  0  0  0  0  0  0  0  0  0  0
    2.6218   -1.4446    0.1256 O   0  0  0  0  0  0  0  0  0  0  0  0
    2.6425    2.6330    0.1540 O   0  0  0  0  0  0  0  0  0  0  0  0
    4.8512   -2.6176   -0.8970 O   0  0  0  0  0  0  0  0  0  0  0  0
   -3.0889   -0.3892    0.6011 C   0  0  2  0  0  0  0  0  0  0  0  0
   -4.3958   -0.6142   -0.1415 C   0  0  0  0  0  0  0  0  0  0  0  0
   -2.4315    0.9527    0.2434 C   0  0  0  0  0  0  0  0  0  0  0  0
   -1.0127    0.5320    0.2584 C   0  0  0  0  0  0  0  0  0  0  0  0
   -0.9412   -0.8530    0.2483 C   0  0  0  0  0  0  0  0  0  0  0  0
   -5.4129    0.4828    0.1842 C   0  0  0  0  0  0  0  0  0  0  0  0
   -4.9781   -1.9911    0.1844 C   0  0  0  0  0  0  0  0  0  0  0  0
    0.1337    1.3055    0.2211 C   0  0  0  0  0  0  0  0  0  0  0  0
    0.2648   -1.5253    0.1977 C   0  0  0  0  0  0  0  0  0  0  0  0
    1.3660    0.6432    0.1826 C   0  0  0  0  0  0  0  0  0  0  0  0
    1.4323   -0.7593    0.1694 C   0  0  0  0  0  0  0  0  0  0  0  0
    2.6216    1.4099    0.1464 C   0  0  0  0  0  0  0  0  0  0  0  0
    3.8014   -0.7194    0.0932 C   0  0  0  0  0  0  0  0  0  0  0  0
    3.8667    0.6198    0.1007 C   0  0  0  0  0  0  0  0  0  0  0  0
   -0.0791    3.2998   -1.0571 C   0  0  0  0  0  0  0  0  0  0  0  0
    5.0270   -1.5766    0.0475 C   0  0  0  0  0  0  0  0  0  0  0  0
   -3.2568   -0.4404    1.6870 H   0  0  0  0  0  0  0  0  0  0  0  0
   -2.6600    1.7209    0.9879 H   0  0  0  0  0  0  0  0  0  0  0  0
   -2.6950    1.3159   -0.7546 H   0  0  0  0  0  0  0  0  0  0  0  0
   -6.3625    0.2970   -0.3315 H   0  0  0  0  0  0  0  0  0  0  0  0
   -5.6136    0.5382    1.2591 H   0  0  0  0  0  0  0  0  0  0  0  0
   -5.0738    1.4655   -0.1604 H   0  0  0  0  0  0  0  0  0  0  0  0
   -4.3160   -2.7979   -0.1489 H   0  0  0  0  0  0  0  0  0  0  0  0
   -5.9280   -2.1465   -0.3405 H   0  0  0  0  0  0  0  0  0  0  0  0
   -5.1588   -2.1076    1.2580 H   0  0  0  0  0  0  0  0  0  0  0  0
    0.3016   -2.6093    0.1838 H   0  0  0  0  0  0  0  0  0  0  0  0
   -4.9846   -0.7168   -2.0118 H   0  0  0  0  0  0  0  0  0  0  0  0
    4.8083    1.1556    0.0752 H   0  0  0  0  0  0  0  0  0  0  0  0
    0.6789    2.9272   -1.7536 H   0  0  0  0  0  0  0  0  0  0  0  0
    0.0750    4.3726   -0.9123 H   0  0  0  0  0  0  0  0  0  0  0  0
   -1.0769    3.1443   -1.4780 H   0  0  0  0  0  0  0  0  0  0  0  0
    5.2123   -2.0273    1.0280 H   0  0  0  0  0  0  0  0  0  0  0  0
    5.9168   -1.0072   -0.2388 H   0  0  0  0  0  0  0  0  0  0  0  0
    4.0789   -3.1414   -0.6226 H   0  0  0  0  0  0  0  0  0  0  0  0
  1  7  1  0  0  0  0
  1 11  1  0  0  0  0
  2  8  1  0  0  0  0
  2 33  1  0  0  0  0
  3 14  1  0  0  0  0
  3 21  1  0  0  0  0
  4 17  1  0  0  0  0
  4 19  1  0  0  0  0
  5 18  2  0  0  0  0
  6 22  1  0  0  0  0
  6 40  1  0  0  0  0
  7  8  1  0  0  0  0
  7  9  1  0  0  0  0
  7 23  1  0  0  0  0
  8 12  1  0  0  0  0
  8 13  1  0  0  0  0
  9 10  1  0  0  0  0
  9 24  1  0  0  0  0
  9 25  1  0  0  0  0
 10 11  2  0  0  0  0
 10 14  1  0  0  0  0
 11 15  1  0  0  0  0
 12 26  1  0  0  0  0
 12 27  1  0  0  0  0
 12 28  1  0  0  0  0
 13 29  1  0  0  0  0
 13 30  1  0  0  0  0
 13 31  1  0  0  0  0
 14 16  2  0  0  0  0
 15 17  2  0  0  0  0
 15 32  1  0  0  0  0
 16 17  1  0  0  0  0
 16 18  1  0  0  0  0
 18 20  1  0  0  0  0
 19 20  2  0  0  0  0
 19 22  1  0  0  0  0
 20 34  1  0  0  0  0
 21 35  1  0  0  0  0
 21 36  1  0  0  0  0
 21 37  1  0  0  0  0
 22 38  1  0  0  0  0
 22 39  1  0  0  0  0
M  END
> <PUBCHEM_COMPOUND_CID>
441960

> <PUBCHEM_CONFORMER_RMSD>
0.6

> <PUBCHEM_CONFORMER_DIVERSEORDER>
2
10
6
4
11
3
9
1
8
5
7

> <PUBCHEM_MMFF94_PARTIAL_CHARGES>
24
1 -0.36
10 -0.14
11 0.08
14 0.08
15 -0.15
16 0.09
17 0.08
18 0.47
19 -0.06
2 -0.68
20 -0.14
21 0.28
22 0.42
3 -0.36
32 0.15
33 0.4
34 0.15
4 -0.16
40 0.4
5 -0.57
6 -0.68
7 0.28
8 0.28
9 0.14

> <PUBCHEM_EFFECTIVE_ROTOR_COUNT>
3.6

> <PUBCHEM_PHARMACOPHORE_FEATURES>
12
1 1 acceptor
1 2 acceptor
1 2 donor
1 3 acceptor
1 4 acceptor
1 5 acceptor
1 6 acceptor
1 6 donor
3 8 12 13 hydrophobe
5 1 7 9 10 11 rings
6 10 11 14 15 16 17 rings
6 4 16 17 18 19 20 rings

> <PUBCHEM_HEAVY_ATOM_COUNT>
22

> <PUBCHEM_ATOM_DEF_STEREO_COUNT>
1

> <PUBCHEM_ATOM_UDEF_STEREO_COUNT>
0

> <PUBCHEM_BOND_DEF_STEREO_COUNT>
0

> <PUBCHEM_BOND_UDEF_STEREO_COUNT>
0

> <PUBCHEM_ISOTOPIC_ATOM_COUNT>
0

> <PUBCHEM_COMPONENT_COUNT>
1

> <PUBCHEM_CACTVS_TAUTO_COUNT>
1

> <PUBCHEM_CONFORMER_ID>
0006BE6800000002

> <PUBCHEM_MMFF94_ENERGY>
76.9967

> <PUBCHEM_FEATURE_SELFOVERLAP>
61.045

> <PUBCHEM_SHAPE_FINGERPRINT>
10062212 137 18113901529390218175
10411042 1 18338796818703997042
10693767 8 18261972802910529759
10967382 1 18339642222575423224
11471102 20 18411420583709587850
11680986 33 18268987579346069723
116883 192 18412263969168379188
12032990 46 18411416211074229930
12236239 1 17894631448727548243
12403259 226 18339083791133442432
12553582 1 18270686479456485434
13009979 54 18113885083401344777
13134695 92 18114186276752739625
13140716 1 18410284835231940744
13288520 33 18336261344563356350
138480 1 18411417272390678984
13862211 1 18411704317813320218
14341114 176 18340480068259106171
14866123 147 17976252757601069401
15042514 8 17979076312626067482
15081414 286 18341610365395431804
15196674 1 18410573955508660411
15536298 74 18334858281668498552
15788980 27 17894349960786885775
15848700 24 18410578379214328764
15848702 151 18260264170045147991
16945 1 18052529976602859840
17349148 13 18113613456921975083
17357779 13 18270976720435034605
17492 89 18265614269547160091
1813 80 18262784250759048132
18186145 218 17918000460026490379
18222031 100 18334867125001184978
19141452 34 18113902658492266343
19591789 44 18411700984654707443
200 152 18113901550543353427
20028762 73 18186805746892028135
20645477 70 18412263900411810282
21029758 11 18409451379785484489
21267235 1 18410002252090545715
21279426 13 18341054107364509013
21452121 103 18263092037164694392
21478907 32 18195246843860418530
221357 26 18342469136196256093
221490 88 18125997170570783531
22182313 1 18269858491677723668
22393880 68 18202015325940929231
23175994 123 18272928323915428965
23402539 116 18335706074000858847
23557571 272 18262796414053702116
23559900 14 18410577271118203874
2748010 2 18340488872377677280
2871803 45 18271527584724894482
3004659 81 18201998842056751286
3286 77 17458069265606907128
335352 9 18410572920648401981
34934 24 18338521811916099882
350125 39 18410009966326718928
4214541 1 18410011057332353409
46194498 28 17559962009144202269
465052 167 18261104175812856038
5104073 3 18409445848131176731
602551 16 15068915096320320343
633830 44 18131358470914168379
7364860 26 18193275200125982536
9709674 26 18198621030377138067
9971528 1 18410579448529635057
9981440 41 17184760086926115113

> <PUBCHEM_SHAPE_MULTIPOLES>
417.53
10.38
2.86
0.8
3.52
1.64
0.19
-6.3
0.94
-1.81
0.55
0.29
0.04
0.43

> <PUBCHEM_SHAPE_SELFOVERLAP>
912.509

> <PUBCHEM_SHAPE_VOLUME>
228.2

> <PUBCHEM_COORDINATE_TYPE>
2
5
10

$$$$

