17395897
  -OEChem-06241222533D

 39 41  0     1  0  0  0  0  0999 V2000
    2.1705   -0.3871    2.6634 Cl  0  0  0  0  0  0  0  0  0  0  0  0
    2.7798   -0.0254   -2.7429 Cl  0  0  0  0  0  0  0  0  0  0  0  0
   -3.9124    1.6612    0.2826 S   0  0  0  0  0  0  0  0  0  0  0  0
   -5.0377    1.3860    1.1513 O   0  0  0  0  0  0  0  0  0  0  0  0
   -3.5249    3.0088   -0.0793 O   0  0  0  0  0  0  0  0  0  0  0  0
    0.0234    0.8157   -0.7594 O   0  0  0  0  0  0  0  0  0  0  0  0
   -1.0552   -1.0416    0.1147 N   0  0  0  0  0  0  0  0  0  0  0  0
   -0.9736   -2.4101    0.6384 C   0  0  0  0  0  0  0  0  0  0  0  0
   -0.3177   -3.5046   -0.1515 C   0  0  0  0  0  0  0  0  0  0  0  0
   -1.8040   -3.5158    0.0557 C   0  0  0  0  0  0  0  0  0  0  0  0
   -2.3721   -0.4702    0.0723 C   0  0  1  0  0  0  0  0  0  0  0  0
   -2.4756    0.8034    0.9104 C   0  0  0  0  0  0  0  0  0  0  0  0
   -2.7833   -0.0749   -1.3482 C   0  0  0  0  0  0  0  0  0  0  0  0
   -4.0921    0.6937   -1.2087 C   0  0  0  0  0  0  0  0  0  0  0  0
    0.0825   -0.3354   -0.3176 C   0  0  0  0  0  0  0  0  0  0  0  0
    1.4164   -1.0646   -0.2164 C   0  0  0  0  0  0  0  0  0  0  0  0
    2.5715   -0.1278   -0.0235 C   0  0  0  0  0  0  0  0  0  0  0  0
    2.9739    0.2277    1.2639 C   0  0  0  0  0  0  0  0  0  0  0  0
    3.2437    0.3881   -1.1317 C   0  0  0  0  0  0  0  0  0  0  0  0
    4.0483    1.0990    1.4433 C   0  0  0  0  0  0  0  0  0  0  0  0
    4.3183    1.2593   -0.9522 C   0  0  0  0  0  0  0  0  0  0  0  0
    4.7204    1.6147    0.3354 C   0  0  0  0  0  0  0  0  0  0  0  0
   -0.8293   -2.4216    1.7142 H   0  0  0  0  0  0  0  0  0  0  0  0
   -3.1038   -1.1921    0.4592 H   0  0  0  0  0  0  0  0  0  0  0  0
    0.0113   -3.3291   -1.1678 H   0  0  0  0  0  0  0  0  0  0  0  0
    0.2717   -4.2344    0.3900 H   0  0  0  0  0  0  0  0  0  0  0  0
   -2.2128   -4.2518    0.7372 H   0  0  0  0  0  0  0  0  0  0  0  0
   -2.4268   -3.3109   -0.8062 H   0  0  0  0  0  0  0  0  0  0  0  0
   -1.6275    1.4837    0.8137 H   0  0  0  0  0  0  0  0  0  0  0  0
   -2.6250    0.5800    1.9704 H   0  0  0  0  0  0  0  0  0  0  0  0
   -2.9086   -0.9514   -1.9929 H   0  0  0  0  0  0  0  0  0  0  0  0
   -2.0502    0.5741   -1.8364 H   0  0  0  0  0  0  0  0  0  0  0  0
   -4.9345    0.0107   -1.0652 H   0  0  0  0  0  0  0  0  0  0  0  0
   -4.2852    1.3528   -2.0574 H   0  0  0  0  0  0  0  0  0  0  0  0
    1.5423   -1.6678   -1.1207 H   0  0  0  0  0  0  0  0  0  0  0  0
    1.4198   -1.7939    0.5957 H   0  0  0  0  0  0  0  0  0  0  0  0
    4.3745    1.3861    2.4398 H   0  0  0  0  0  0  0  0  0  0  0  0
    4.8529    1.6702   -1.8049 H   0  0  0  0  0  0  0  0  0  0  0  0
    5.5570    2.2931    0.4751 H   0  0  0  0  0  0  0  0  0  0  0  0
  1 18  1  0  0  0  0
  2 19  1  0  0  0  0
  3  4  2  0  0  0  0
  3  5  2  0  0  0  0
  3 12  1  0  0  0  0
  3 14  1  0  0  0  0
  6 15  2  0  0  0  0
  7  8  1  0  0  0  0
  7 11  1  0  0  0  0
  7 15  1  0  0  0  0
  8  9  1  0  0  0  0
  8 10  1  0  0  0  0
  8 23  1  0  0  0  0
  9 10  1  0  0  0  0
  9 25  1  0  0  0  0
  9 26  1  0  0  0  0
 10 27  1  0  0  0  0
 10 28  1  0  0  0  0
 11 12  1  0  0  0  0
 11 13  1  0  0  0  0
 11 24  1  0  0  0  0
 12 29  1  0  0  0  0
 12 30  1  0  0  0  0
 13 14  1  0  0  0  0
 13 31  1  0  0  0  0
 13 32  1  0  0  0  0
 14 33  1  0  0  0  0
 14 34  1  0  0  0  0
 15 16  1  0  0  0  0
 16 17  1  0  0  0  0
 16 35  1  0  0  0  0
 16 36  1  0  0  0  0
 17 18  2  0  0  0  0
 17 19  1  0  0  0  0
 18 20  1  0  0  0  0
 19 21  2  0  0  0  0
 20 22  2  0  0  0  0
 20 37  1  0  0  0  0
 21 22  1  0  0  0  0
 21 38  1  0  0  0  0
 22 39  1  0  0  0  0
M  END
> <PUBCHEM_COMPOUND_CID>
17395897

> <PUBCHEM_CONFORMER_RMSD>
0.8

> <PUBCHEM_CONFORMER_DIVERSEORDER>
1
51
56
49
34
47
6
40
69
62
45
53
52
50
61
67
37
41
72
26
59
58
64
16
68
29
10
42
32
43
12
5
38
57
44
23
65
13
48
31
28
17
66
27
46
63
4
55
24
25
33
36
14
15
20
39
18
60
70
35
21
3
54
9
2
30
11
19
7
71
8
22

> <PUBCHEM_MMFF94_PARTIAL_CHARGES>
29
1 -0.18
10 -0.2
11 0.3
12 0.11
14 0.11
15 0.57
16 0.2
17 -0.14
18 0.18
19 0.18
2 -0.18
20 -0.15
21 -0.15
22 -0.15
23 0.1
25 0.1
26 0.1
27 0.1
28 0.1
3 1.09
37 0.15
38 0.15
39 0.15
4 -0.65
5 -0.65
6 -0.57
7 -0.51
8 0.05
9 -0.2

> <PUBCHEM_EFFECTIVE_ROTOR_COUNT>
6.4

> <PUBCHEM_PHARMACOPHORE_FEATURES>
5
1 4 acceptor
1 5 acceptor
1 6 acceptor
5 3 11 12 13 14 rings
6 17 18 19 20 21 22 rings

> <PUBCHEM_HEAVY_ATOM_COUNT>
22

> <PUBCHEM_ATOM_DEF_STEREO_COUNT>
0

> <PUBCHEM_ATOM_UDEF_STEREO_COUNT>
1

> <PUBCHEM_BOND_DEF_STEREO_COUNT>
0

> <PUBCHEM_BOND_UDEF_STEREO_COUNT>
0

> <PUBCHEM_ISOTOPIC_ATOM_COUNT>
0

> <PUBCHEM_COMPONENT_COUNT>
1

> <PUBCHEM_CACTVS_TAUTO_COUNT>
1

> <PUBCHEM_CONFORMER_ID>
010970B900000001

> <PUBCHEM_MMFF94_ENERGY>
54.717

> <PUBCHEM_FEATURE_SELFOVERLAP>
25.388

> <PUBCHEM_SHAPE_FINGERPRINT>
10498660 4 18113341933078898289
11543360 7 16370731421878394997
11582403 64 16519675635164797066
11640471 11 17988931050250650058
11725454 13 17605015683286888970
11796584 16 18335972113825470358
12173636 292 18411134745051509399
12500047 106 18408603630677220234
12596602 18 17561361777445995489
12633257 1 18271261430118438480
12788726 201 17984711021560719259
12892183 10 16558751256223963593
13140716 1 17621030959019885723
13583140 156 16702308927437745237
13965767 371 18059863921239892596
14178342 30 18341613651356402610
14468879 13 17676487211567486103
15210252 30 17967812743507477360
15342816 4 9367049095327420584
16752209 62 18125454024363826371
1741750 31 18411982442393461570
1813 80 10231745721752183603
18186145 218 18041557039636261149
18222031 100 10231743484127002385
19862831 5 4751158518734217436
200 152 5761653698036709156
204376 136 18413390955907357635
20600515 1 18409454661394056776
21618674 53 17989204798628615978
22079108 93 18334850615837489083
22907989 373 18123470479817533743
23526113 38 17603860096656014130
23557571 272 18190167993466884958
23559900 14 18334568041438984038
238 59 16515404045512523102
3004659 81 6483349997862875369
474 4 18338239391930662939
5104073 3 18058180432079082896
633830 44 18041839635747213773
7615 1 17416690129233238422
7808743 9 18339919308338572600
84936 182 18044943612838285729

> <PUBCHEM_SHAPE_MULTIPOLES>
437.75
9.32
3.01
1.93
0.04
2.64
-0.1
-7.66
0.3
3.18
0.27
-1.89
-0.17
-0.23

> <PUBCHEM_SHAPE_SELFOVERLAP>
892.925

> <PUBCHEM_SHAPE_VOLUME>
255.8

> <PUBCHEM_COORDINATE_TYPE>
2
5
10

$$$$

