130
  -OEChem-07051212492D

 23 22  0     1  0  0  0  0  0999 V2000
    5.6350   -0.5005    0.0000 O   0  0  0  0  0  0  0  0  0  0  0  0
    6.8671    0.3655    0.0000 O   0  0  0  0  0  0  0  0  0  0  0  0
    6.0010    1.8655    0.0000 O   0  0  0  0  0  0  0  0  0  0  0  0
    3.1350    2.0976    0.0000 O   0  0  0  0  0  0  0  0  0  0  0  0
    5.1350   -1.6345    0.0000 O   0  0  0  0  0  0  0  0  0  0  0  0
    3.1350    0.3655    0.0000 O   0  0  0  0  0  0  0  0  0  0  0  0
    2.5369   -1.1345    0.0000 O   0  0  0  0  0  0  0  0  0  0  0  0
    3.4030   -2.6345    0.0000 O   0  0  0  0  0  0  0  0  0  0  0  0
    5.1350    0.3655    0.0000 C   0  0  3  0  0  0  0  0  0  0  0  0
    4.2690   -0.1345    0.0000 C   0  0  0  0  0  0  0  0  0  0  0  0
    4.6350    1.2315    0.0000 C   0  0  0  0  0  0  0  0  0  0  0  0
    6.0010    0.8655    0.0000 C   0  0  0  0  0  0  0  0  0  0  0  0
    4.2690   -1.1345    0.0000 C   0  0  0  0  0  0  0  0  0  0  0  0
    3.6350    1.2315    0.0000 C   0  0  0  0  0  0  0  0  0  0  0  0
    3.4030   -1.6345    0.0000 C   0  0  0  0  0  0  0  0  0  0  0  0
    4.0569    0.4481    0.0000 H   0  0  0  0  0  0  0  0  0  0  0  0
    3.6584   -0.2422    0.0000 H   0  0  0  0  0  0  0  0  0  0  0  0
    5.2176    1.4436    0.0000 H   0  0  0  0  0  0  0  0  0  0  0  0
    4.5274    1.8421    0.0000 H   0  0  0  0  0  0  0  0  0  0  0  0
    5.3250   -1.0374    0.0000 H   0  0  0  0  0  0  0  0  0  0  0  0
    7.4040    0.6755    0.0000 H   0  0  0  0  0  0  0  0  0  0  0  0
    3.4450    2.6345    0.0000 H   0  0  0  0  0  0  0  0  0  0  0  0
    2.0000   -1.4445    0.0000 H   0  0  0  0  0  0  0  0  0  0  0  0
  1  9  1  0  0  0  0
  1 20  1  0  0  0  0
  2 12  1  0  0  0  0
  2 21  1  0  0  0  0
  3 12  2  0  0  0  0
  4 14  1  0  0  0  0
  4 22  1  0  0  0  0
  5 13  2  0  0  0  0
  6 14  2  0  0  0  0
  7 15  1  0  0  0  0
  7 23  1  0  0  0  0
  8 15  2  0  0  0  0
  9 10  1  0  0  0  0
  9 11  1  0  0  0  0
  9 12  1  0  0  0  0
 10 13  1  0  0  0  0
 10 16  1  0  0  0  0
 10 17  1  0  0  0  0
 11 14  1  0  0  0  0
 11 18  1  0  0  0  0
 11 19  1  0  0  0  0
 13 15  1  0  0  0  0
M  END
> <PUBCHEM_COMPOUND_CID>
130

> <PUBCHEM_COMPOUND_CANONICALIZED>
1

> <PUBCHEM_CACTVS_COMPLEXITY>
319

> <PUBCHEM_CACTVS_HBOND_ACCEPTOR>
8

> <PUBCHEM_CACTVS_HBOND_DONOR>
4

> <PUBCHEM_CACTVS_ROTATABLE_BOND>
6

> <PUBCHEM_CACTVS_SUBSKEYS>
AAADccBgPAAAAAAAAAAAAAAAAAAAAAAAAAAAAAAAAAAAAAAAAAAAGgAACAAADESAgAAACAAAAgAIAICQCAIAAAAAAAAAAAFAAAABABYAAAAAQAAFIAABAAHLbgAuAAAAAAAAAAAAAAAAAAAAAAAAAAAAAA==

> <PUBCHEM_IUPAC_OPENEYE_NAME>
2-hydroxy-4-oxo-butane-1,2,4-tricarboxylic acid

> <PUBCHEM_IUPAC_CAS_NAME>
2-hydroxy-4-oxobutane-1,2,4-tricarboxylic acid

> <PUBCHEM_IUPAC_NAME>
2-hydroxy-4-oxobutane-1,2,4-tricarboxylic acid

> <PUBCHEM_IUPAC_SYSTEMATIC_NAME>
2-oxidanyl-4-oxidanylidene-butane-1,2,4-tricarboxylic acid

> <PUBCHEM_IUPAC_TRADITIONAL_NAME>
2-hydroxy-4-keto-butane-1,2,4-tricarboxylic acid

> <PUBCHEM_IUPAC_INCHI>
InChI=1S/C7H8O8/c8-3(5(11)12)1-7(15,6(13)14)2-4(9)10/h15H,1-2H2,(H,9,10)(H,11,12)(H,13,14)

> <PUBCHEM_IUPAC_INCHIKEY>
RQMCNDRMPZBEOD-UHFFFAOYSA-N

> <PUBCHEM_XLOGP3>
-1.8

> <PUBCHEM_EXACT_MASS>
220.021917

> <PUBCHEM_MOLECULAR_FORMULA>
C7H8O8

> <PUBCHEM_MOLECULAR_WEIGHT>
220.13362

> <PUBCHEM_OPENEYE_CAN_SMILES>
C(C(=O)C(=O)O)C(CC(=O)O)(C(=O)O)O

> <PUBCHEM_OPENEYE_ISO_SMILES>
C(C(=O)C(=O)O)C(CC(=O)O)(C(=O)O)O

> <PUBCHEM_CACTVS_TPSA>
149

> <PUBCHEM_MONOISOTOPIC_WEIGHT>
220.021917

> <PUBCHEM_TOTAL_CHARGE>
0

> <PUBCHEM_HEAVY_ATOM_COUNT>
15

> <PUBCHEM_ATOM_DEF_STEREO_COUNT>
0

> <PUBCHEM_ATOM_UDEF_STEREO_COUNT>
1

> <PUBCHEM_BOND_DEF_STEREO_COUNT>
0

> <PUBCHEM_BOND_UDEF_STEREO_COUNT>
0

> <PUBCHEM_ISOTOPIC_ATOM_COUNT>
0

> <PUBCHEM_COMPONENT_COUNT>
1

> <PUBCHEM_CACTVS_TAUTO_COUNT>
2

> <PUBCHEM_COORDINATE_TYPE>
1
5
255

> <PUBCHEM_BONDANNOTATIONS>
9  1  3

$$$$

