51090917
  -OEChem-06241223003D

 46 47  0     0  0  0  0  0  0999 V2000
    2.9806   -4.3451    1.4016 F   0  0  0  0  0  0  0  0  0  0  0  0
    3.9295    2.2578   -0.2740 O   0  0  0  0  0  0  0  0  0  0  0  0
   -2.0808    3.2878   -0.4215 O   0  0  0  0  0  0  0  0  0  0  0  0
   -2.7310   -1.3346    1.1171 O   0  0  0  0  0  0  0  0  0  0  0  0
    1.8268    1.4494   -0.8406 N   0  0  0  0  0  0  0  0  0  0  0  0
    0.4641    1.5454   -0.7606 N   0  0  0  0  0  0  0  0  0  0  0  0
   -2.0619    1.4587    1.0480 N   0  0  0  0  0  0  0  0  0  0  0  0
   -4.2100   -1.9149   -0.5717 N   0  0  0  0  0  0  0  0  0  0  0  0
    0.7624    3.1311    1.1086 C   0  0  0  0  0  0  0  0  0  0  0  0
    2.0536    3.5307    0.4401 C   0  0  0  0  0  0  0  0  0  0  0  0
   -0.0339    2.3406    0.1261 C   0  0  0  0  0  0  0  0  0  0  0  0
    2.7009    2.3446   -0.2314 C   0  0  0  0  0  0  0  0  0  0  0  0
    2.3109    0.3414   -1.6464 C   0  0  0  0  0  0  0  0  0  0  0  0
   -1.5158    2.4165    0.2200 C   0  0  0  0  0  0  0  0  0  0  0  0
   -3.4748    1.3425    1.2903 C   0  0  0  0  0  0  0  0  0  0  0  0
    2.4894   -0.9084   -0.8338 C   0  0  0  0  0  0  0  0  0  0  0  0
   -4.1529    0.4134    0.2892 C   0  0  0  0  0  0  0  0  0  0  0  0
   -3.6233   -1.0168    0.3268 C   0  0  0  0  0  0  0  0  0  0  0  0
    3.7113   -1.1678   -0.2131 C   0  0  0  0  0  0  0  0  0  0  0  0
    1.4335   -1.8100   -0.6992 C   0  0  0  0  0  0  0  0  0  0  0  0
    3.8776   -2.3288    0.5418 C   0  0  0  0  0  0  0  0  0  0  0  0
    1.5996   -2.9710    0.0557 C   0  0  0  0  0  0  0  0  0  0  0  0
    2.8217   -3.2304    0.6762 C   0  0  0  0  0  0  0  0  0  0  0  0
   -5.2662   -1.5172   -1.4997 C   0  0  0  0  0  0  0  0  0  0  0  0
   -3.8115   -3.3150   -0.6495 C   0  0  0  0  0  0  0  0  0  0  0  0
    0.9496    2.4958    1.9815 H   0  0  0  0  0  0  0  0  0  0  0  0
    0.2046    4.0142    1.4344 H   0  0  0  0  0  0  0  0  0  0  0  0
    1.8736    4.2887   -0.3313 H   0  0  0  0  0  0  0  0  0  0  0  0
    2.7447    3.9508    1.1782 H   0  0  0  0  0  0  0  0  0  0  0  0
    1.6136    0.1688   -2.4762 H   0  0  0  0  0  0  0  0  0  0  0  0
    3.2664    0.6217   -2.1069 H   0  0  0  0  0  0  0  0  0  0  0  0
   -3.9295    2.3377    1.2371 H   0  0  0  0  0  0  0  0  0  0  0  0
   -3.5975    0.9658    2.3114 H   0  0  0  0  0  0  0  0  0  0  0  0
   -5.2244    0.3942    0.5169 H   0  0  0  0  0  0  0  0  0  0  0  0
   -4.0018    0.8123   -0.7206 H   0  0  0  0  0  0  0  0  0  0  0  0
   -1.4452    0.7955    1.5086 H   0  0  0  0  0  0  0  0  0  0  0  0
    4.5441   -0.4771   -0.3114 H   0  0  0  0  0  0  0  0  0  0  0  0
    0.4758   -1.6186   -1.1761 H   0  0  0  0  0  0  0  0  0  0  0  0
    4.8290   -2.5315    1.0247 H   0  0  0  0  0  0  0  0  0  0  0  0
    0.7774   -3.6726    0.1613 H   0  0  0  0  0  0  0  0  0  0  0  0
   -4.9104   -1.6952   -2.5194 H   0  0  0  0  0  0  0  0  0  0  0  0
   -4.6791   -3.9432   -0.4282 H   0  0  0  0  0  0  0  0  0  0  0  0
   -3.0168   -3.5378    0.0669 H   0  0  0  0  0  0  0  0  0  0  0  0
   -3.4506   -3.5249   -1.6604 H   0  0  0  0  0  0  0  0  0  0  0  0
   -5.5766   -0.4768   -1.4242 H   0  0  0  0  0  0  0  0  0  0  0  0
   -6.1414   -2.1478   -1.3140 H   0  0  0  0  0  0  0  0  0  0  0  0
  1 23  1  0  0  0  0
  2 12  2  0  0  0  0
  3 14  2  0  0  0  0
  4 18  2  0  0  0  0
  5  6  1  0  0  0  0
  5 12  1  0  0  0  0
  5 13  1  0  0  0  0
  6 11  2  0  0  0  0
  7 14  1  0  0  0  0
  7 15  1  0  0  0  0
  7 36  1  0  0  0  0
  8 18  1  0  0  0  0
  8 24  1  0  0  0  0
  8 25  1  0  0  0  0
  9 10  1  0  0  0  0
  9 11  1  0  0  0  0
  9 26  1  0  0  0  0
  9 27  1  0  0  0  0
 10 12  1  0  0  0  0
 10 28  1  0  0  0  0
 10 29  1  0  0  0  0
 11 14  1  0  0  0  0
 13 16  1  0  0  0  0
 13 30  1  0  0  0  0
 13 31  1  0  0  0  0
 15 17  1  0  0  0  0
 15 32  1  0  0  0  0
 15 33  1  0  0  0  0
 16 19  2  0  0  0  0
 16 20  1  0  0  0  0
 17 18  1  0  0  0  0
 17 34  1  0  0  0  0
 17 35  1  0  0  0  0
 19 21  1  0  0  0  0
 19 37  1  0  0  0  0
 20 22  2  0  0  0  0
 20 38  1  0  0  0  0
 21 23  2  0  0  0  0
 21 39  1  0  0  0  0
 22 23  1  0  0  0  0
 22 40  1  0  0  0  0
 24 41  1  0  0  0  0
 24 45  1  0  0  0  0
 24 46  1  0  0  0  0
 25 42  1  0  0  0  0
 25 43  1  0  0  0  0
 25 44  1  0  0  0  0
M  END
> <PUBCHEM_COMPOUND_CID>
51090917

> <PUBCHEM_CONFORMER_RMSD>
1.2

> <PUBCHEM_CONFORMER_DIVERSEORDER>
1
19
30
12
22
50
43
76
60
21
11
39
45
29
16
71
7
62
53
49
31
35
32
79
56
41
10
44
38
66
61
9
14
4
75
57
3
5
69
54
72
48
25
74
40
55
65
13
26
20
6
28
42
47
36
70
33
18
15
8
2
51
23
46
52
78
73
24
17
64
34
37
27
67
77
59
68
58
63

> <PUBCHEM_MMFF94_PARTIAL_CHARGES>
30
1 -0.19
10 0.06
11 0.39
12 0.57
13 0.44
14 0.63
15 0.3
16 -0.14
17 0.06
18 0.57
19 -0.15
2 -0.57
20 -0.15
21 -0.15
22 -0.15
23 0.19
24 0.3
25 0.3
3 -0.57
36 0.37
37 0.15
38 0.15
39 0.15
4 -0.57
40 0.15
5 -0.3
6 -0.51
7 -0.73
8 -0.66
9 0.06

> <PUBCHEM_EFFECTIVE_ROTOR_COUNT>
8.6

> <PUBCHEM_PHARMACOPHORE_FEATURES>
7
1 2 acceptor
1 3 acceptor
1 4 acceptor
1 6 acceptor
1 7 donor
6 16 19 20 21 22 23 rings
6 5 6 9 10 11 12 rings

> <PUBCHEM_HEAVY_ATOM_COUNT>
25

> <PUBCHEM_ATOM_DEF_STEREO_COUNT>
0

> <PUBCHEM_ATOM_UDEF_STEREO_COUNT>
0

> <PUBCHEM_BOND_DEF_STEREO_COUNT>
0

> <PUBCHEM_BOND_UDEF_STEREO_COUNT>
0

> <PUBCHEM_ISOTOPIC_ATOM_COUNT>
0

> <PUBCHEM_COMPONENT_COUNT>
1

> <PUBCHEM_CACTVS_TAUTO_COUNT>
4

> <PUBCHEM_CONFORMER_ID>
030B95E500000001

> <PUBCHEM_MMFF94_ENERGY>
50.0429

> <PUBCHEM_FEATURE_SELFOVERLAP>
35.521

> <PUBCHEM_SHAPE_FINGERPRINT>
114674 6 18047467816589453369
11552529 35 17832995223324135498
12553582 1 18048014548582828037
12596599 1 17750770273211756427
12633257 1 18116698798440216809
128238 76 18340205319333484818
13004483 165 17909267232129240960
14026016 164 17911802684521953578
14081887 123 17976828901968272170
14117953 113 17830732419909284951
14787075 74 18337656569564710924
14844126 61 17550107408320191778
15003188 105 18264489481825558855
152267 14 18121501512116630770
17134984 74 17903937565011632799
19026451 147 18336840697277047175
20775530 9 18269546303072848386
21315759 227 17273953857150030099
21421861 104 18412819200822833880
22113638 7 17907577282904983453
22393880 68 18263065682759971941
4283 87 18334571300765227975
463206 1 18411409644338363867
6433294 58 18410287034218168565
7471813 234 18336558169516176654
9795274 37 18342447132551511843

> <PUBCHEM_SHAPE_MULTIPOLES>
469.68
9.2
5.77
1.25
8.69
0.86
-0.06
6.19
-0.9
-3.08
1.36
0.21
0.28
-2.11

> <PUBCHEM_SHAPE_SELFOVERLAP>
974.171

> <PUBCHEM_SHAPE_VOLUME>
268

> <PUBCHEM_COORDINATE_TYPE>
2
5
10

$$$$

