441880
  -OEChem-07051212563D

 76 81  0     1  0  0  0  0  0999 V2000
    3.6296   -0.7905    0.4038 O   0  0  0  0  0  0  0  0  0  0  0  0
   -5.4792   -1.3942    1.0361 O   0  0  0  0  0  0  0  0  0  0  0  0
    4.9977    0.2785   -1.2371 O   0  0  0  0  0  0  0  0  0  0  0  0
   -5.9814    1.3532    0.5607 O   0  0  0  0  0  0  0  0  0  0  0  0
   -6.7617   -0.6277   -1.3461 O   0  0  0  0  0  0  0  0  0  0  0  0
    0.7046    0.9496    0.2019 C   0  0  1  0  0  0  0  0  0  0  0  0
    0.0920   -0.4509   -0.0443 C   0  0  2  0  0  0  0  0  0  0  0  0
   -1.2872   -0.6287    0.5998 C   0  0  1  0  0  0  0  0  0  0  0  0
    2.0801    0.7791   -0.5097 C   0  0  2  0  0  0  0  0  0  0  0  0
   -2.2626    0.4372   -0.0014 C   0  0  1  0  0  0  0  0  0  0  0  0
   -3.7306    0.3045    0.5873 C   0  0  2  0  0  0  0  0  0  0  0  0
    2.4199   -0.7166   -0.3433 C   0  0  2  0  0  0  0  0  0  0  0  0
    1.2302   -1.3899    0.3413 C   0  0  0  0  0  0  0  0  0  0  0  0
   -0.2241    1.9745   -0.4642 C   0  0  0  0  0  0  0  0  0  0  0  0
   -1.6661    1.8725    0.0685 C   0  0  0  0  0  0  0  0  0  0  0  0
   -4.2324   -1.1753    0.3579 C   0  0  1  0  0  0  0  0  0  0  0  0
    3.3173    1.4968    0.0415 C   0  0  1  0  0  0  0  0  0  0  0  0
   -1.8173   -2.0515    0.3882 C   0  0  0  0  0  0  0  0  0  0  0  0
   -3.2377   -2.2162    0.9128 C   0  0  0  0  0  0  0  0  0  0  0  0
    4.3910    0.3888    0.0530 C   0  0  1  0  0  0  0  0  0  0  0  0
    0.8523    1.2969    1.7049 C   0  0  0  0  0  0  0  0  0  0  0  0
   -4.7186    1.3038   -0.1119 C   0  0  1  0  0  0  0  0  0  0  0  0
   -4.5094   -1.4675   -1.1425 C   0  0  0  0  0  0  0  0  0  0  0  0
   -3.7284    0.6542    2.1040 C   0  0  0  0  0  0  0  0  0  0  0  0
   -4.9670    0.9876   -1.5910 C   0  0  0  0  0  0  0  0  0  0  0  0
   -5.4299   -0.4508   -1.8218 C   0  0  2  0  0  0  0  0  0  0  0  0
    3.6709    2.7419   -0.7635 C   0  0  0  0  0  0  0  0  0  0  0  0
    5.4700    0.6461    1.1166 C   0  0  0  0  0  0  0  0  0  0  0  0
    6.8002   -0.0422    0.7982 C   0  0  0  0  0  0  0  0  0  0  0  0
    5.8724   -0.8414   -1.3894 C   0  0  0  0  0  0  0  0  0  0  0  0
    6.5949   -1.2565   -0.1010 C   0  0  1  0  0  0  0  0  0  0  0  0
    7.9103   -1.9655   -0.4093 C   0  0  0  0  0  0  0  0  0  0  0  0
   -0.0552   -0.5788   -1.1306 H   0  0  0  0  0  0  0  0  0  0  0  0
   -1.1937   -0.4818    1.6796 H   0  0  0  0  0  0  0  0  0  0  0  0
    1.9596    0.9780   -1.5836 H   0  0  0  0  0  0  0  0  0  0  0  0
   -2.3211    0.2161   -1.0756 H   0  0  0  0  0  0  0  0  0  0  0  0
    2.5936   -1.1737   -1.3260 H   0  0  0  0  0  0  0  0  0  0  0  0
    1.3676   -1.4712    1.4244 H   0  0  0  0  0  0  0  0  0  0  0  0
    1.0795   -2.4024   -0.0466 H   0  0  0  0  0  0  0  0  0  0  0  0
   -0.2447    1.8157   -1.5503 H   0  0  0  0  0  0  0  0  0  0  0  0
    0.1535    2.9925   -0.3094 H   0  0  0  0  0  0  0  0  0  0  0  0
   -1.6963    2.2493    1.0951 H   0  0  0  0  0  0  0  0  0  0  0  0
   -2.2751    2.5589   -0.5290 H   0  0  0  0  0  0  0  0  0  0  0  0
    3.1578    1.8097    1.0763 H   0  0  0  0  0  0  0  0  0  0  0  0
   -1.1713   -2.7697    0.9074 H   0  0  0  0  0  0  0  0  0  0  0  0
   -1.7761   -2.3178   -0.6742 H   0  0  0  0  0  0  0  0  0  0  0  0
   -3.5950   -3.2296    0.6870 H   0  0  0  0  0  0  0  0  0  0  0  0
   -3.2285   -2.1650    2.0094 H   0  0  0  0  0  0  0  0  0  0  0  0
    1.5615    0.6389    2.2169 H   0  0  0  0  0  0  0  0  0  0  0  0
    1.2017    2.3282    1.8309 H   0  0  0  0  0  0  0  0  0  0  0  0
   -0.0890    1.2303    2.2559 H   0  0  0  0  0  0  0  0  0  0  0  0
   -4.3288    2.3251   -0.0525 H   0  0  0  0  0  0  0  0  0  0  0  0
   -4.9773   -2.4578   -1.2257 H   0  0  0  0  0  0  0  0  0  0  0  0
   -3.5740   -1.5067   -1.7097 H   0  0  0  0  0  0  0  0  0  0  0  0
   -2.9909    0.0782    2.6678 H   0  0  0  0  0  0  0  0  0  0  0  0
   -3.5124    1.7149    2.2691 H   0  0  0  0  0  0  0  0  0  0  0  0
   -4.6966    0.4498    2.5733 H   0  0  0  0  0  0  0  0  0  0  0  0
   -4.0527    1.1699   -2.1664 H   0  0  0  0  0  0  0  0  0  0  0  0
   -5.7349    1.6722   -1.9725 H   0  0  0  0  0  0  0  0  0  0  0  0
   -5.4527   -0.6566   -2.8981 H   0  0  0  0  0  0  0  0  0  0  0  0
    4.5862    3.2066   -0.3842 H   0  0  0  0  0  0  0  0  0  0  0  0
    3.8218    2.5145   -1.8238 H   0  0  0  0  0  0  0  0  0  0  0  0
    2.8656    3.4808   -0.6943 H   0  0  0  0  0  0  0  0  0  0  0  0
    5.1102    0.3053    2.0955 H   0  0  0  0  0  0  0  0  0  0  0  0
    5.6749    1.7192    1.2121 H   0  0  0  0  0  0  0  0  0  0  0  0
   -6.1221   -0.7385    0.7193 H   0  0  0  0  0  0  0  0  0  0  0  0
    7.4607    0.6756    0.2939 H   0  0  0  0  0  0  0  0  0  0  0  0
    7.3022   -0.3235    1.7313 H   0  0  0  0  0  0  0  0  0  0  0  0
   -5.8701    1.8873    1.3651 H   0  0  0  0  0  0  0  0  0  0  0  0
    6.5912   -0.5659   -2.1690 H   0  0  0  0  0  0  0  0  0  0  0  0
    5.2911   -1.6839   -1.7819 H   0  0  0  0  0  0  0  0  0  0  0  0
    5.9593   -1.9714    0.4382 H   0  0  0  0  0  0  0  0  0  0  0  0
   -7.3271    0.0135   -1.8093 H   0  0  0  0  0  0  0  0  0  0  0  0
    7.7387   -2.8432   -1.0413 H   0  0  0  0  0  0  0  0  0  0  0  0
    8.6080   -1.3019   -0.9311 H   0  0  0  0  0  0  0  0  0  0  0  0
    8.3933   -2.3042    0.5133 H   0  0  0  0  0  0  0  0  0  0  0  0
  1 12  1  0  0  0  0
  1 20  1  0  0  0  0
  2 16  1  0  0  0  0
  2 66  1  0  0  0  0
  3 20  1  0  0  0  0
  3 30  1  0  0  0  0
  4 22  1  0  0  0  0
  4 69  1  0  0  0  0
  5 26  1  0  0  0  0
  5 73  1  0  0  0  0
  6  7  1  0  0  0  0
  6  9  1  0  0  0  0
  6 14  1  0  0  0  0
  6 21  1  0  0  0  0
  7  8  1  0  0  0  0
  7 13  1  0  0  0  0
  7 33  1  0  0  0  0
  8 10  1  0  0  0  0
  8 18  1  0  0  0  0
  8 34  1  0  0  0  0
  9 12  1  0  0  0  0
  9 17  1  0  0  0  0
  9 35  1  0  0  0  0
 10 11  1  0  0  0  0
 10 15  1  0  0  0  0
 10 36  1  0  0  0  0
 11 16  1  0  0  0  0
 11 22  1  0  0  0  0
 11 24  1  0  0  0  0
 12 13  1  0  0  0  0
 12 37  1  0  0  0  0
 13 38  1  0  0  0  0
 13 39  1  0  0  0  0
 14 15  1  0  0  0  0
 14 40  1  0  0  0  0
 14 41  1  0  0  0  0
 15 42  1  0  0  0  0
 15 43  1  0  0  0  0
 16 19  1  0  0  0  0
 16 23  1  0  0  0  0
 17 20  1  0  0  0  0
 17 27  1  0  0  0  0
 17 44  1  0  0  0  0
 18 19  1  0  0  0  0
 18 45  1  0  0  0  0
 18 46  1  0  0  0  0
 19 47  1  0  0  0  0
 19 48  1  0  0  0  0
 20 28  1  0  0  0  0
 21 49  1  0  0  0  0
 21 50  1  0  0  0  0
 21 51  1  0  0  0  0
 22 25  1  0  0  0  0
 22 52  1  0  0  0  0
 23 26  1  0  0  0  0
 23 53  1  0  0  0  0
 23 54  1  0  0  0  0
 24 55  1  0  0  0  0
 24 56  1  0  0  0  0
 24 57  1  0  0  0  0
 25 26  1  0  0  0  0
 25 58  1  0  0  0  0
 25 59  1  0  0  0  0
 26 60  1  0  0  0  0
 27 61  1  0  0  0  0
 27 62  1  0  0  0  0
 27 63  1  0  0  0  0
 28 29  1  0  0  0  0
 28 64  1  0  0  0  0
 28 65  1  0  0  0  0
 29 31  1  0  0  0  0
 29 67  1  0  0  0  0
 29 68  1  0  0  0  0
 30 31  1  0  0  0  0
 30 70  1  0  0  0  0
 30 71  1  0  0  0  0
 31 32  1  0  0  0  0
 31 72  1  0  0  0  0
 32 74  1  0  0  0  0
 32 75  1  0  0  0  0
 32 76  1  0  0  0  0
M  END
> <PUBCHEM_COMPOUND_CID>
441880

> <PUBCHEM_CONFORMER_RMSD>
0.8

> <PUBCHEM_CONFORMER_DIVERSEORDER>
1
2
3

> <PUBCHEM_MMFF94_PARTIAL_CHARGES>
14
1 -0.56
12 0.28
16 0.28
2 -0.68
20 0.56
22 0.28
26 0.28
3 -0.56
30 0.28
4 -0.68
5 -0.68
66 0.4
69 0.4
73 0.4

> <PUBCHEM_EFFECTIVE_ROTOR_COUNT>
3.2

> <PUBCHEM_PHARMACOPHORE_FEATURES>
14
1 1 acceptor
1 2 acceptor
1 2 donor
1 3 acceptor
1 4 acceptor
1 4 donor
1 5 acceptor
1 5 donor
5 1 9 12 17 20 rings
5 6 7 9 12 13 rings
6 11 16 22 23 25 26 rings
6 3 20 28 29 30 31 rings
6 6 7 8 10 14 15 rings
6 8 10 11 16 18 19 rings

> <PUBCHEM_HEAVY_ATOM_COUNT>
32

> <PUBCHEM_ATOM_DEF_STEREO_COUNT>
13

> <PUBCHEM_ATOM_UDEF_STEREO_COUNT>
0

> <PUBCHEM_BOND_DEF_STEREO_COUNT>
0

> <PUBCHEM_BOND_UDEF_STEREO_COUNT>
0

> <PUBCHEM_ISOTOPIC_ATOM_COUNT>
0

> <PUBCHEM_COMPONENT_COUNT>
1

> <PUBCHEM_CACTVS_TAUTO_COUNT>
1

> <PUBCHEM_CONFORMER_ID>
0006BE1800000001

> <PUBCHEM_MMFF94_ENERGY>
135.2493

> <PUBCHEM_FEATURE_SELFOVERLAP>
71.511

> <PUBCHEM_SHAPE_FINGERPRINT>
11135926 11 18272934968182947843
11315181 36 17821447958787672737
12166972 35 17632290125459596317
12236239 1 17894633651513086020
12516196 113 16732702740191061632
12596602 18 14056714656277709806
12788726 201 18042403715578163201
13583140 156 14562813300296473321
13782708 43 18113617854884122614
13811026 1 18410862031443968423
13862211 1 18334576845710444846
14251752 14 17346602993118073374
14294032 229 17558834129047258412
14856354 85 14764338332612630083
15082195 135 17986947462908886372
15183329 4 17917997191429738558
15196674 1 18341327790806431281
15461852 350 17385726864019523452
1577012 14 18260819385190022880
15788980 27 17060623274144731089
17349148 13 18040705948679638896
17844677 252 18060414677454288317
17857418 61 18411419527305914586
18608769 82 18200876168087339491
18681886 176 18408328770261128792
18927931 339 18060132150542451187
19377110 9 5689596087198635942
19489759 90 17821728342752850555
19958102 18 18342741836117184302
20028762 73 18187367627846498542
21130935 74 18186519917387625986
21236236 1 18333730243100122521
21267235 1 18343293743651580883
21279426 13 18272090478832983452
21682296 61 17968368061503914478
21709351 56 18272371957756645045
21792961 116 17846497058419505131
21859007 373 17916045554233437364
22393880 68 18129951082945370171
23081809 10 17967807237237505440
23402539 116 18412826884582454125
23522609 53 18122025859479346376
23559900 14 18339645546980629520
23569914 152 17252599374369939623
23569917 315 18335135380011452591
23569943 247 17826787337956791030
23576562 1 17702935921393671006
249057 3 18131350808360144572
3004659 81 18131633374849333404
335352 9 18413668028094242748
3383291 50 18410856517023472467
350125 39 18342173358947125684
4015057 19 18335704880052997321
4058900 60 16343429517473950985
4073 2 17845366649303046986
4098825 35 13398636086808729208
5104073 3 18339635629827173744
5265222 85 15266475376196749970
5283173 99 18059584598126446773
542803 24 13326858820500633292
559249 180 18411980273540459283
7226269 152 18202002139932232353

> <PUBCHEM_SHAPE_MULTIPOLES>
629.2
18.46
2.23
1.42
14.05
0.19
0.01
-5.72
-3.62
0.26
-0.04
-1.25
0.08
0.29

> <PUBCHEM_SHAPE_SELFOVERLAP>
1354.808

> <PUBCHEM_SHAPE_VOLUME>
343.8

> <PUBCHEM_COORDINATE_TYPE>
2
5
10

$$$$

