583020
  -OEChem-06241222443D

 32 33  0     1  0  0  0  0  0999 V2000
   -0.7329    0.9052    1.0986 F   0  0  0  0  0  0  0  0  0  0  0  0
   -0.9646   -1.7292    0.7289 F   0  0  0  0  0  0  0  0  0  0  0  0
   -2.1662   -1.4597   -1.0698 F   0  0  0  0  0  0  0  0  0  0  0  0
   -3.9143   -1.7310    0.9765 F   0  0  0  0  0  0  0  0  0  0  0  0
   -2.7586   -0.3493    2.2041 F   0  0  0  0  0  0  0  0  0  0  0  0
   -4.3105    0.1469   -0.9005 F   0  0  0  0  0  0  0  0  0  0  0  0
   -4.4918    1.2300    0.9895 F   0  0  0  0  0  0  0  0  0  0  0  0
   -1.0505    0.4172   -2.3637 F   0  0  0  0  0  0  0  0  0  0  0  0
   -0.0864    2.0387   -1.2834 F   0  0  0  0  0  0  0  0  0  0  0  0
   -2.5286    1.3163   -0.1829 O   0  0  0  0  0  0  0  0  0  0  0  0
    0.8910   -1.2714   -1.5273 O   0  0  0  0  0  0  0  0  0  0  0  0
    1.8560    0.5372   -0.3780 N   0  0  0  0  0  0  0  0  0  0  0  0
    3.4516   -1.1949   -0.4290 N   0  0  0  0  0  0  0  0  0  0  0  0
   -1.3443    0.5013   -0.0487 C   0  0  2  0  0  0  0  0  0  0  0  0
   -1.8454   -0.9183    0.1282 C   0  0  0  0  0  0  0  0  0  0  0  0
   -3.0850   -0.6826    0.9338 C   0  0  0  0  0  0  0  0  0  0  0  0
   -3.6495    0.5143    0.2216 C   0  0  0  0  0  0  0  0  0  0  0  0
   -0.3956    0.7140   -1.2055 C   0  0  0  0  0  0  0  0  0  0  0  0
    0.8566   -0.1323   -1.0716 C   0  0  0  0  0  0  0  0  0  0  0  0
    3.1426    0.0560   -0.0397 C   0  0  0  0  0  0  0  0  0  0  0  0
    3.9837    0.8976    0.6588 C   0  0  0  0  0  0  0  0  0  0  0  0
    5.2466    0.4157    0.9843 C   0  0  0  0  0  0  0  0  0  0  0  0
    3.5954    2.2781    1.0664 C   0  0  0  0  0  0  0  0  0  0  0  0
    5.6131   -0.8707    0.6041 C   0  0  0  0  0  0  0  0  0  0  0  0
    4.6876   -1.6289   -0.0947 C   0  0  0  0  0  0  0  0  0  0  0  0
    1.6316    1.4819   -0.0784 H   0  0  0  0  0  0  0  0  0  0  0  0
    5.9565    1.0287    1.5329 H   0  0  0  0  0  0  0  0  0  0  0  0
    3.3719    2.8930    0.1883 H   0  0  0  0  0  0  0  0  0  0  0  0
    2.7252    2.2556    1.7310 H   0  0  0  0  0  0  0  0  0  0  0  0
    4.4023    2.7798    1.6123 H   0  0  0  0  0  0  0  0  0  0  0  0
    6.5922   -1.2672    0.8469 H   0  0  0  0  0  0  0  0  0  0  0  0
    4.9244   -2.6384   -0.4142 H   0  0  0  0  0  0  0  0  0  0  0  0
  1 14  1  0  0  0  0
  2 15  1  0  0  0  0
  3 15  1  0  0  0  0
  4 16  1  0  0  0  0
  5 16  1  0  0  0  0
  6 17  1  0  0  0  0
  7 17  1  0  0  0  0
  8 18  1  0  0  0  0
  9 18  1  0  0  0  0
 10 14  1  0  0  0  0
 10 17  1  0  0  0  0
 11 19  2  0  0  0  0
 12 19  1  0  0  0  0
 12 20  1  0  0  0  0
 12 26  1  0  0  0  0
 13 20  1  0  0  0  0
 13 25  2  0  0  0  0
 14 15  1  0  0  0  0
 14 18  1  0  0  0  0
 15 16  1  0  0  0  0
 16 17  1  0  0  0  0
 18 19  1  0  0  0  0
 20 21  2  0  0  0  0
 21 22  1  0  0  0  0
 21 23  1  0  0  0  0
 22 24  2  0  0  0  0
 22 27  1  0  0  0  0
 23 28  1  0  0  0  0
 23 29  1  0  0  0  0
 23 30  1  0  0  0  0
 24 25  1  0  0  0  0
 24 31  1  0  0  0  0
 25 32  1  0  0  0  0
M  END
> <PUBCHEM_COMPOUND_CID>
583020

> <PUBCHEM_CONFORMER_RMSD>
0.8

> <PUBCHEM_CONFORMER_DIVERSEORDER>
5
40
14
32
48
10
56
39
38
46
55
41
16
47
29
54
36
15
52
9
49
37
35
50
13
42
43
31
12
28
17
33
44
26
27
51
21
8
53
34
30
20
25
4
45
2
6
11
7
22
19
1
24
23
18
3

> <PUBCHEM_MMFF94_PARTIAL_CHARGES>
29
1 -0.34
10 -0.56
11 -0.57
12 -0.55
13 -0.62
14 0.62
15 0.68
16 0.68
17 0.96
18 0.74
19 0.57
2 -0.34
20 0.43
21 -0.14
22 -0.15
23 0.14
24 -0.15
25 0.16
26 0.37
27 0.15
3 -0.34
31 0.15
32 0.15
4 -0.34
5 -0.34
6 -0.34
7 -0.34
8 -0.34
9 -0.34

> <PUBCHEM_EFFECTIVE_ROTOR_COUNT>
5

> <PUBCHEM_PHARMACOPHORE_FEATURES>
6
1 10 acceptor
1 11 acceptor
1 12 donor
1 13 acceptor
5 10 14 15 16 17 rings
6 13 20 21 22 24 25 rings

> <PUBCHEM_HEAVY_ATOM_COUNT>
25

> <PUBCHEM_ATOM_DEF_STEREO_COUNT>
0

> <PUBCHEM_ATOM_UDEF_STEREO_COUNT>
1

> <PUBCHEM_BOND_DEF_STEREO_COUNT>
0

> <PUBCHEM_BOND_UDEF_STEREO_COUNT>
0

> <PUBCHEM_ISOTOPIC_ATOM_COUNT>
0

> <PUBCHEM_COMPONENT_COUNT>
1

> <PUBCHEM_CACTVS_TAUTO_COUNT>
3

> <PUBCHEM_CONFORMER_ID>
0008E56C00000005

> <PUBCHEM_MMFF94_ENERGY>
48.5342

> <PUBCHEM_FEATURE_SELFOVERLAP>
30.45

> <PUBCHEM_SHAPE_FINGERPRINT>
10366900 7 18343584066661659290
11045977 3 18410575089337893498
11370993 144 18409165554075273312
11370993 70 18335140895070499186
11552529 35 17897170117844484766
12236239 1 16515411776474585732
12251169 10 18333732420822452500
12403814 3 17313391144610104441
12507557 5 17967254191515313048
12553582 1 15913329082933711208
12633257 1 18333445456840750954
12670546 177 9727632804528612080
12714826 92 16630536154061138908
12788726 201 15051462672828029412
128620 24 12751518488189934862
12892183 10 18336541612485153224
13583140 156 17968100776486856066
13675066 3 18342453729457455474
14341114 176 18260544529116046496
14386348 63 18202567297968160114
16752209 62 15697733561720468872
16945 1 18059276765309499565
1813 80 16702297953922813990
19141452 34 18342738507290617827
19862831 5 13110964228051182292
200 152 17968106321247482710
204376 136 16877660166916407574
20775530 9 14259069742473547745
21033648 29 18339659913498742928
21065199 12 18409731746876754712
22646028 28 16988842778828317930
22854114 59 17967249801984759662
23402539 116 18412270557837888245
235170 7 8430323415718951248
23559900 14 17918272048257446204
26918003 58 18410295826322081400
2838139 119 17896326994516543761
296302 2 17603299367205712661
314173 85 17632295683453134684
351380 180 18186524323543523584
351380 3 15339115749645922616
38570 142 17679291968038315536
474 4 17022904558198363950
5104073 3 18409163294590095490
5924683 9 18187933815793784495
602551 16 17418095412762948762

> <PUBCHEM_SHAPE_MULTIPOLES>
427.32
10.58
1.78
1.51
7.22
0.23
-0.22
-0.56
4
0.85
0.13
-1.01
0.02
0.62

> <PUBCHEM_SHAPE_SELFOVERLAP>
943.118

> <PUBCHEM_SHAPE_VOLUME>
229.4

> <PUBCHEM_COORDINATE_TYPE>
2
5
10

$$$$

