442074
  -OEChem-07051212562D

 46 50  0     1  0  0  0  0  0999 V2000
    4.6209    2.9742    0.0000 O   0  0  0  0  0  0  0  0  0  0  0  0
    5.4860   -1.4890    0.0000 O   0  0  0  0  0  0  0  0  0  0  0  0
    2.6200    2.4160    0.0000 O   0  0  0  0  0  0  0  0  0  0  0  0
    6.7222   -0.9125    0.0000 O   0  0  0  0  0  0  0  0  0  0  0  0
    3.0895    3.8368    0.0000 O   0  0  0  0  0  0  0  0  0  0  0  0
    3.3982   -3.8368    0.0000 O   0  0  0  0  0  0  0  0  0  0  0  0
    4.1200    1.5498    0.0000 C   0  0  1  0  0  0  0  0  0  0  0  0
    4.1200    0.5499    0.0000 C   0  0  1  0  0  0  0  0  0  0  0  0
    4.9860    0.0499    0.0000 C   0  0  2  0  0  0  0  0  0  0  0  0
    4.9860    2.0498    0.0000 C   0  0  1  0  0  0  0  0  0  0  0  0
    3.2260    0.0152    0.0000 C   0  0  0  0  0  0  0  0  0  0  0  0
    5.8520    1.5498    0.0000 C   0  0  0  0  0  0  0  0  0  0  0  0
    5.8520    0.5499    0.0000 C   0  0  0  0  0  0  0  0  0  0  0  0
    3.2260    2.0845    0.0000 C   0  0  0  0  0  0  0  0  0  0  0  0
    4.1770   -0.5379    0.0000 C   0  0  0  0  0  0  0  0  0  0  0  0
    3.1200    1.5500    0.0000 C   0  0  0  0  0  0  0  0  0  0  0  0
    2.3200    0.5290    0.0000 C   0  0  0  0  0  0  0  0  0  0  0  0
    5.7950   -0.5379    0.0000 C   0  0  0  0  0  0  0  0  0  0  0  0
    4.4860   -1.4890    0.0000 C   0  0  1  0  0  0  0  0  0  0  0  0
    2.3200    1.5707    0.0000 C   0  0  0  0  0  0  0  0  0  0  0  0
    3.6272    2.9937    0.0000 C   0  0  0  0  0  0  0  0  0  0  0  0
    6.8368    0.7235    0.0000 C   0  0  0  0  0  0  0  0  0  0  0  0
    3.8982   -2.2980    0.0000 C   0  0  0  0  0  0  0  0  0  0  0  0
    2.8982   -2.2980    0.0000 C   0  0  0  0  0  0  0  0  0  0  0  0
    4.2072   -3.2491    0.0000 C   0  0  0  0  0  0  0  0  0  0  0  0
    2.5892   -3.2491    0.0000 C   0  0  0  0  0  0  0  0  0  0  0  0
    4.1265   -0.3001    0.0000 H   0  0  0  0  0  0  0  0  0  0  0  0
    5.6297    2.6050    0.0000 H   0  0  0  0  0  0  0  0  0  0  0  0
    2.8324   -0.4638    0.0000 H   0  0  0  0  0  0  0  0  0  0  0  0
    3.6306   -0.4546    0.0000 H   0  0  0  0  0  0  0  0  0  0  0  0
    6.4626    1.4422    0.0000 H   0  0  0  0  0  0  0  0  0  0  0  0
    6.0641    2.1325    0.0000 H   0  0  0  0  0  0  0  0  0  0  0  0
    3.8670   -0.0010    0.0000 H   0  0  0  0  0  0  0  0  0  0  0  0
    3.6106   -0.7901    0.0000 H   0  0  0  0  0  0  0  0  0  0  0  0
    2.5374    1.3380    0.0000 H   0  0  0  0  0  0  0  0  0  0  0  0
    3.2276    0.9394    0.0000 H   0  0  0  0  0  0  0  0  0  0  0  0
    1.7091    0.6351    0.0000 H   0  0  0  0  0  0  0  0  0  0  0  0
    2.1109   -0.0547    0.0000 H   0  0  0  0  0  0  0  0  0  0  0  0
    3.8736   -1.3920    0.0000 H   0  0  0  0  0  0  0  0  0  0  0  0
    1.7842    1.8827    0.0000 H   0  0  0  0  0  0  0  0  0  0  0  0
    7.2354    0.2486    0.0000 H   0  0  0  0  0  0  0  0  0  0  0  0
    7.0489    1.3061    0.0000 H   0  0  0  0  0  0  0  0  0  0  0  0
    2.0000    2.4160    0.0000 H   0  0  0  0  0  0  0  0  0  0  0  0
    2.5338   -1.7964    0.0000 H   0  0  0  0  0  0  0  0  0  0  0  0
    4.7969   -3.4406    0.0000 H   0  0  0  0  0  0  0  0  0  0  0  0
    1.9995   -3.4406    0.0000 H   0  0  0  0  0  0  0  0  0  0  0  0
  1 10  1  0  0  0  0
  1 21  1  0  0  0  0
  2 18  1  0  0  0  0
  2 19  1  0  0  0  0
  3 16  1  0  0  0  0
  3 43  1  0  0  0  0
  4 18  2  0  0  0  0
  5 21  2  0  0  0  0
  6 25  1  0  0  0  0
  6 26  1  0  0  0  0
  7  8  1  0  0  0  0
  7 10  1  0  0  0  0
  7 14  1  0  0  0  0
  7 16  1  1  0  0  0
  8  9  1  0  0  0  0
  8 11  1  0  0  0  0
  8 27  1  6  0  0  0
  9 13  1  0  0  0  0
  9 15  1  6  0  0  0
  9 18  1  0  0  0  0
 10 12  1  0  0  0  0
 10 28  1  1  0  0  0
 11 17  1  0  0  0  0
 11 29  1  0  0  0  0
 11 30  1  0  0  0  0
 12 13  1  0  0  0  0
 12 31  1  0  0  0  0
 12 32  1  0  0  0  0
 13 22  2  0  0  0  0
 14 20  2  0  0  0  0
 14 21  1  0  0  0  0
 15 19  1  0  0  0  0
 15 33  1  0  0  0  0
 15 34  1  0  0  0  0
 16 35  1  0  0  0  0
 16 36  1  0  0  0  0
 17 20  1  0  0  0  0
 17 37  1  0  0  0  0
 17 38  1  0  0  0  0
 19 23  1  6  0  0  0
 19 39  1  0  0  0  0
 20 40  1  0  0  0  0
 22 41  1  0  0  0  0
 22 42  1  0  0  0  0
 23 24  1  0  0  0  0
 23 25  2  0  0  0  0
 24 26  2  0  0  0  0
 24 44  1  0  0  0  0
 25 45  1  0  0  0  0
 26 46  1  0  0  0  0
M  END
> <PUBCHEM_COMPOUND_CID>
442074

> <PUBCHEM_COMPOUND_CANONICALIZED>
1

> <PUBCHEM_CACTVS_COMPLEXITY>
726

> <PUBCHEM_CACTVS_HBOND_ACCEPTOR>
6

> <PUBCHEM_CACTVS_HBOND_DONOR>
1

> <PUBCHEM_CACTVS_ROTATABLE_BOND>
2

> <PUBCHEM_CACTVS_SUBSKEYS>
AAADceB4OAAAAAAAAAAAAAAAAAAAASJEgAAwQAAAAAAAAEiBgAAAGgAACAAADxSgmAIwDIAABkCIAijSiAACCAAkIAAIiAEGCMgMNxYENQqCWSCl4BEIKYPK7PzPgAAAAAAAAABAAAYAADAAAAAAAAAAAA==

> <PUBCHEM_IUPAC_INCHI>
InChI=1S/C20H20O6/c1-11-7-16-20(10-21)13(17(22)26-16)3-2-4-15(20)19(11)8-14(25-18(19)23)12-5-6-24-9-12/h3,5-6,9,14-16,21H,1-2,4,7-8,10H2/t14-,15+,16+,19+,20-/m0/s1

> <PUBCHEM_IUPAC_INCHIKEY>
GQRWYOWPTLFVDK-AFJOWOCMSA-N

> <PUBCHEM_XLOGP3_AA>
1.6

> <PUBCHEM_EXACT_MASS>
356.125988

> <PUBCHEM_MOLECULAR_FORMULA>
C20H20O6

> <PUBCHEM_MOLECULAR_WEIGHT>
356.3692

> <PUBCHEM_OPENEYE_CAN_SMILES>
C=C1CC2C3(C(C14CC(OC4=O)C5=COC=C5)CCC=C3C(=O)O2)CO

> <PUBCHEM_OPENEYE_ISO_SMILES>
C=C1C[C@@H]2[C@@]3([C@@H]([C@@]14C[C@H](OC4=O)C5=COC=C5)CCC=C3C(=O)O2)CO

> <PUBCHEM_CACTVS_TPSA>
86

> <PUBCHEM_MONOISOTOPIC_WEIGHT>
356.125988

> <PUBCHEM_TOTAL_CHARGE>
0

> <PUBCHEM_HEAVY_ATOM_COUNT>
26

> <PUBCHEM_ATOM_DEF_STEREO_COUNT>
5

> <PUBCHEM_ATOM_UDEF_STEREO_COUNT>
0

> <PUBCHEM_BOND_DEF_STEREO_COUNT>
0

> <PUBCHEM_BOND_UDEF_STEREO_COUNT>
0

> <PUBCHEM_ISOTOPIC_ATOM_COUNT>
0

> <PUBCHEM_COMPONENT_COUNT>
1

> <PUBCHEM_CACTVS_TAUTO_COUNT>
1

> <PUBCHEM_COORDINATE_TYPE>
1
5
255

> <PUBCHEM_BONDANNOTATIONS>
10  28  5
19  23  6
23  24  8
23  25  8
24  26  8
6  25  8
6  26  8
7  16  5
8  27  6
9  15  6

$$$$

