255713
  -OEChem-07051213062D

 58 62  0     1  0  0  0  0  0999 V2000
    7.5304    1.1661    0.0000 O   0  0  0  0  0  0  0  0  0  0  0  0
    2.0000   -4.2239    0.0000 O   0  0  0  0  0  0  0  0  0  0  0  0
    9.1767    0.6280    0.0000 O   0  0  0  0  0  0  0  0  0  0  0  0
    5.4075   -1.5891    0.0000 C   0  0  1  0  0  0  0  0  0  0  0  0
    6.2735   -1.0891    0.0000 C   0  0  1  0  0  0  0  0  0  0  0  0
    6.2735   -0.0891    0.0000 C   0  0  2  0  0  0  0  0  0  0  0  0
    4.5414   -1.0891    0.0000 C   0  0  1  0  0  0  0  0  0  0  0  0
    3.8044   -1.7562    0.0000 C   0  0  2  0  0  0  0  0  0  0  0  0
    5.4075    0.4109    0.0000 C   0  0  0  0  0  0  0  0  0  0  0  0
    4.5414   -0.0891    0.0000 C   0  0  0  0  0  0  0  0  0  0  0  0
    5.1983   -2.5610    0.0000 C   0  0  0  0  0  0  0  0  0  0  0  0
    7.2197    0.2156    0.0000 C   0  0  2  0  0  0  0  0  0  0  0  0
    7.2197   -1.3939    0.0000 C   0  0  0  0  0  0  0  0  0  0  0  0
    4.2096   -2.6640    0.0000 C   0  0  0  0  0  0  0  0  0  0  0  0
    7.8033   -0.5891    0.0000 C   0  0  0  0  0  0  0  0  0  0  0  0
    2.7763   -1.6330    0.0000 C   0  0  0  0  0  0  0  0  0  0  0  0
    6.2735    0.9109    0.0000 C   0  0  0  0  0  0  0  0  0  0  0  0
    3.3969   -0.8430    0.0000 C   0  0  0  0  0  0  0  0  0  0  0  0
    3.6146   -3.5115    0.0000 C   0  0  0  0  0  0  0  0  0  0  0  0
    2.1620   -2.4665    0.0000 C   0  0  0  0  0  0  0  0  0  0  0  0
    2.5840   -3.4121    0.0000 C   0  0  0  0  0  0  0  0  0  0  0  0
    8.5089    1.3723    0.0000 C   0  0  0  0  0  0  0  0  0  0  0  0
    8.8196    2.3228    0.0000 C   0  0  0  0  0  0  0  0  0  0  0  0
    9.7981    2.5291    0.0000 C   0  0  0  0  0  0  0  0  0  0  0  0
    8.1517    3.0672    0.0000 C   0  0  0  0  0  0  0  0  0  0  0  0
   10.1087    3.4796    0.0000 C   0  0  0  0  0  0  0  0  0  0  0  0
    8.4624    4.0177    0.0000 C   0  0  0  0  0  0  0  0  0  0  0  0
    9.4409    4.2239    0.0000 C   0  0  0  0  0  0  0  0  0  0  0  0
    6.0945   -2.0896    0.0000 H   0  0  0  0  0  0  0  0  0  0  0  0
    6.3634   -1.9344    0.0000 H   0  0  0  0  0  0  0  0  0  0  0  0
    3.7645   -0.7444    0.0000 H   0  0  0  0  0  0  0  0  0  0  0  0
    5.8060    0.8858    0.0000 H   0  0  0  0  0  0  0  0  0  0  0  0
    5.0089    0.8858    0.0000 H   0  0  0  0  0  0  0  0  0  0  0  0
    4.3294    0.4935    0.0000 H   0  0  0  0  0  0  0  0  0  0  0  0
    3.9309   -0.1968    0.0000 H   0  0  0  0  0  0  0  0  0  0  0  0
    5.1974   -3.1810    0.0000 H   0  0  0  0  0  0  0  0  0  0  0  0
    5.8148   -2.6270    0.0000 H   0  0  0  0  0  0  0  0  0  0  0  0
    7.8322    0.3118    0.0000 H   0  0  0  0  0  0  0  0  0  0  0  0
    6.9687   -1.9608    0.0000 H   0  0  0  0  0  0  0  0  0  0  0  0
    7.7571   -1.7031    0.0000 H   0  0  0  0  0  0  0  0  0  0  0  0
    8.2642   -1.0039    0.0000 H   0  0  0  0  0  0  0  0  0  0  0  0
    8.2642   -0.1744    0.0000 H   0  0  0  0  0  0  0  0  0  0  0  0
    2.9543   -1.0391    0.0000 H   0  0  0  0  0  0  0  0  0  0  0  0
    2.2217   -1.3560    0.0000 H   0  0  0  0  0  0  0  0  0  0  0  0
    6.8935    0.9109    0.0000 H   0  0  0  0  0  0  0  0  0  0  0  0
    6.2735    1.5309    0.0000 H   0  0  0  0  0  0  0  0  0  0  0  0
    5.6535    0.9109    0.0000 H   0  0  0  0  0  0  0  0  0  0  0  0
    3.9631   -0.5904    0.0000 H   0  0  0  0  0  0  0  0  0  0  0  0
    3.1442   -0.2768    0.0000 H   0  0  0  0  0  0  0  0  0  0  0  0
    2.8307   -1.0957    0.0000 H   0  0  0  0  0  0  0  0  0  0  0  0
    3.8738   -4.0747    0.0000 H   0  0  0  0  0  0  0  0  0  0  0  0
    1.7332   -2.0187    0.0000 H   0  0  0  0  0  0  0  0  0  0  0  0
    1.6474   -2.8124    0.0000 H   0  0  0  0  0  0  0  0  0  0  0  0
   10.2121    2.0676    0.0000 H   0  0  0  0  0  0  0  0  0  0  0  0
    7.5450    2.9393    0.0000 H   0  0  0  0  0  0  0  0  0  0  0  0
   10.7154    3.6074    0.0000 H   0  0  0  0  0  0  0  0  0  0  0  0
    8.0483    4.4791    0.0000 H   0  0  0  0  0  0  0  0  0  0  0  0
    9.6335    4.8132    0.0000 H   0  0  0  0  0  0  0  0  0  0  0  0
 12  1  1  1  0  0  0
  1 22  1  0  0  0  0
  2 21  2  0  0  0  0
  3 22  2  0  0  0  0
  4  5  1  0  0  0  0
  4  7  1  0  0  0  0
  4 11  1  0  0  0  0
  4 29  1  1  0  0  0
  5  6  1  0  0  0  0
  5 13  1  0  0  0  0
  5 30  1  6  0  0  0
  6  9  1  0  0  0  0
  6 12  1  0  0  0  0
  6 17  1  1  0  0  0
  7  8  1  0  0  0  0
  7 10  1  0  0  0  0
  7 31  1  6  0  0  0
  8 14  1  0  0  0  0
  8 16  1  0  0  0  0
  8 18  1  1  0  0  0
  9 10  1  0  0  0  0
  9 32  1  0  0  0  0
  9 33  1  0  0  0  0
 10 34  1  0  0  0  0
 10 35  1  0  0  0  0
 11 14  1  0  0  0  0
 11 36  1  0  0  0  0
 11 37  1  0  0  0  0
 12 15  1  0  0  0  0
 12 38  1  0  0  0  0
 13 15  1  0  0  0  0
 13 39  1  0  0  0  0
 13 40  1  0  0  0  0
 14 19  2  0  0  0  0
 15 41  1  0  0  0  0
 15 42  1  0  0  0  0
 16 20  1  0  0  0  0
 16 43  1  0  0  0  0
 16 44  1  0  0  0  0
 17 45  1  0  0  0  0
 17 46  1  0  0  0  0
 17 47  1  0  0  0  0
 18 48  1  0  0  0  0
 18 49  1  0  0  0  0
 18 50  1  0  0  0  0
 19 21  1  0  0  0  0
 19 51  1  0  0  0  0
 20 21  1  0  0  0  0
 20 52  1  0  0  0  0
 20 53  1  0  0  0  0
 22 23  1  0  0  0  0
 23 24  2  0  0  0  0
 23 25  1  0  0  0  0
 24 26  1  0  0  0  0
 24 54  1  0  0  0  0
 25 27  2  0  0  0  0
 25 55  1  0  0  0  0
 26 28  2  0  0  0  0
 26 56  1  0  0  0  0
 27 28  1  0  0  0  0
 27 57  1  0  0  0  0
 28 58  1  0  0  0  0
M  END
> <PUBCHEM_COMPOUND_CID>
255713

> <PUBCHEM_COMPOUND_CANONICALIZED>
1

> <PUBCHEM_CACTVS_COMPLEXITY>
703

> <PUBCHEM_CACTVS_HBOND_ACCEPTOR>
3

> <PUBCHEM_CACTVS_HBOND_DONOR>
0

> <PUBCHEM_CACTVS_ROTATABLE_BOND>
3

> <PUBCHEM_CACTVS_SUBSKEYS>
AAADceB4MAAAAAAAAAAAAAAAAAAAAYMAAAAwYIAAAAAAAGABAAAAGgAAAAAADxSgmAIyCIAABACIAqDSCAACAAAkAAAIiAEACMgIJjKANRiCMQAkwAEIqYeIyPCPgAAAAAAAAACAAAQAACAAAYAADAAAAA==

> <PUBCHEM_IUPAC_OPENEYE_NAME>
[(3S,3aS,5aS,5bR,10aR,10bS)-3a,5b-dimethyl-8-oxo-2,3,4,5,5a,6,7,10,10a,10b-decahydro-1H-cyclopenta[a]fluoren-3-yl] benzoate

> <PUBCHEM_IUPAC_CAS_NAME>
benzoic acid [(3S,3aS,5aS,5bR,10aR,10bS)-3a,5b-dimethyl-8-oxo-2,3,4,5,5a,6,7,10,10a,10b-decahydro-1H-cyclopenta[a]fluoren-3-yl] ester

> <PUBCHEM_IUPAC_NAME>
[(3S,3aS,5aS,5bR,10aR,10bS)-3a,5b-dimethyl-8-oxo-2,3,4,5,5a,6,7,10,10a,10b-decahydro-1H-cyclopenta[a]fluoren-3-yl] benzoate

> <PUBCHEM_IUPAC_SYSTEMATIC_NAME>
[(3S,3aS,5aS,5bR,10aR,10bS)-3a,5b-dimethyl-8-oxidanylidene-2,3,4,5,5a,6,7,10,10a,10b-decahydro-1H-cyclopenta[a]fluoren-3-yl] benzoate

> <PUBCHEM_IUPAC_TRADITIONAL_NAME>
benzoic acid [(3S,3aS,5aS,5bR,10aR,10bS)-8-keto-3a,5b-dimethyl-2,3,4,5,5a,6,7,10,10a,10b-decahydro-1H-cyclopenta[a]fluoren-3-yl] ester

> <PUBCHEM_IUPAC_INCHI>
InChI=1S/C25H30O3/c1-24-12-10-18(26)14-17(24)15-19-20-8-9-22(25(20,2)13-11-21(19)24)28-23(27)16-6-4-3-5-7-16/h3-7,14,19-22H,8-13,15H2,1-2H3/t19-,20-,21-,22-,24-,25-/m0/s1

> <PUBCHEM_IUPAC_INCHIKEY>
CMGONSOWZSKMAU-BKWLFHPQSA-N

> <PUBCHEM_XLOGP3>
5

> <PUBCHEM_EXACT_MASS>
378.219495

> <PUBCHEM_MOLECULAR_FORMULA>
C25H30O3

> <PUBCHEM_MOLECULAR_WEIGHT>
378.5039

> <PUBCHEM_OPENEYE_CAN_SMILES>
CC12CCC3C(C1CCC2OC(=O)C4=CC=CC=C4)CC5=CC(=O)CCC35C

> <PUBCHEM_OPENEYE_ISO_SMILES>
C[C@]12CC[C@H]3[C@H]([C@@H]1CC[C@@H]2OC(=O)C4=CC=CC=C4)CC5=CC(=O)CC[C@]35C

> <PUBCHEM_CACTVS_TPSA>
43.4

> <PUBCHEM_MONOISOTOPIC_WEIGHT>
378.219495

> <PUBCHEM_TOTAL_CHARGE>
0

> <PUBCHEM_HEAVY_ATOM_COUNT>
28

> <PUBCHEM_ATOM_DEF_STEREO_COUNT>
6

> <PUBCHEM_ATOM_UDEF_STEREO_COUNT>
0

> <PUBCHEM_BOND_DEF_STEREO_COUNT>
0

> <PUBCHEM_BOND_UDEF_STEREO_COUNT>
0

> <PUBCHEM_ISOTOPIC_ATOM_COUNT>
0

> <PUBCHEM_COMPONENT_COUNT>
1

> <PUBCHEM_CACTVS_TAUTO_COUNT>
5

> <PUBCHEM_COORDINATE_TYPE>
1
5
255

> <PUBCHEM_BONDANNOTATIONS>
12  1  5
23  24  8
23  25  8
24  26  8
25  27  8
26  28  8
27  28  8
4  29  5
5  30  6
6  17  5
7  31  6
8  18  5

$$$$

