8878
  -OEChem-06261203123D

 30 29  0     0  0  0  0  0  0999 V2000
   -2.3765    0.2709    0.2298 O   0  0  0  0  0  0  0  0  0  0  0  0
   -1.2265   -1.7011   -0.1008 O   0  0  0  0  0  0  0  0  0  0  0  0
    2.5003    0.5705    0.0938 C   0  0  0  0  0  0  0  0  0  0  0  0
    3.8013   -0.2086   -0.1090 C   0  0  0  0  0  0  0  0  0  0  0  0
    1.2795   -0.3474   -0.0245 C   0  0  0  0  0  0  0  0  0  0  0  0
    5.0218    0.6999    0.0368 C   0  0  0  0  0  0  0  0  0  0  0  0
   -0.0355    0.3984    0.2015 C   0  0  0  0  0  0  0  0  0  0  0  0
    6.3157   -0.0636   -0.1964 C   0  0  0  0  0  0  0  0  0  0  0  0
   -1.2525   -0.4941    0.0972 C   0  0  0  0  0  0  0  0  0  0  0  0
   -3.6179   -0.4334    0.1223 C   0  0  0  0  0  0  0  0  0  0  0  0
   -4.7374    0.5395    0.2889 C   0  0  0  0  0  0  0  0  0  0  0  0
   -5.6723    0.7690   -0.6397 C   0  0  0  0  0  0  0  0  0  0  0  0
    2.4295    1.3729   -0.6503 H   0  0  0  0  0  0  0  0  0  0  0  0
    2.5059    1.0447    1.0827 H   0  0  0  0  0  0  0  0  0  0  0  0
    3.8618   -1.0230    0.6233 H   0  0  0  0  0  0  0  0  0  0  0  0
    3.8009   -0.6687   -1.1046 H   0  0  0  0  0  0  0  0  0  0  0  0
    1.2672   -0.8161   -1.0165 H   0  0  0  0  0  0  0  0  0  0  0  0
    1.3632   -1.1636    0.7043 H   0  0  0  0  0  0  0  0  0  0  0  0
    5.0394    1.1418    1.0399 H   0  0  0  0  0  0  0  0  0  0  0  0
    4.9589    1.5262   -0.6808 H   0  0  0  0  0  0  0  0  0  0  0  0
   -0.0344    0.8503    1.2000 H   0  0  0  0  0  0  0  0  0  0  0  0
   -0.1328    1.1938   -0.5463 H   0  0  0  0  0  0  0  0  0  0  0  0
    6.4250   -0.8796    0.5251 H   0  0  0  0  0  0  0  0  0  0  0  0
    7.1753    0.6049   -0.0862 H   0  0  0  0  0  0  0  0  0  0  0  0
    6.3437   -0.4896   -1.2044 H   0  0  0  0  0  0  0  0  0  0  0  0
   -3.6671   -0.9360   -0.8509 H   0  0  0  0  0  0  0  0  0  0  0  0
   -3.6774   -1.1865    0.9164 H   0  0  0  0  0  0  0  0  0  0  0  0
   -4.7892    1.0862    1.2269 H   0  0  0  0  0  0  0  0  0  0  0  0
   -6.4629    1.4886   -0.4569 H   0  0  0  0  0  0  0  0  0  0  0  0
   -5.6672    0.2489   -1.5912 H   0  0  0  0  0  0  0  0  0  0  0  0
  1  9  1  0  0  0  0
  1 10  1  0  0  0  0
  2  9  2  0  0  0  0
  3  4  1  0  0  0  0
  3  5  1  0  0  0  0
  3 13  1  0  0  0  0
  3 14  1  0  0  0  0
  4  6  1  0  0  0  0
  4 15  1  0  0  0  0
  4 16  1  0  0  0  0
  5  7  1  0  0  0  0
  5 17  1  0  0  0  0
  5 18  1  0  0  0  0
  6  8  1  0  0  0  0
  6 19  1  0  0  0  0
  6 20  1  0  0  0  0
  7  9  1  0  0  0  0
  7 21  1  0  0  0  0
  7 22  1  0  0  0  0
  8 23  1  0  0  0  0
  8 24  1  0  0  0  0
  8 25  1  0  0  0  0
 10 11  1  0  0  0  0
 10 26  1  0  0  0  0
 10 27  1  0  0  0  0
 11 12  2  0  0  0  0
 11 28  1  0  0  0  0
 12 29  1  0  0  0  0
 12 30  1  0  0  0  0
M  END
> <PUBCHEM_COMPOUND_CID>
8878

> <PUBCHEM_CONFORMER_RMSD>
0.8

> <PUBCHEM_CONFORMER_DIVERSEORDER>
1
65
84
68
150
31
192
177
45
179
54
53
187
41
58
188
76
4
98
107
85
167
185
3
184
186
108
169
106
6
23
59
145
2
77
74
47
32
94
79
131
181
191
9
95
111
122
139
7
124
73
22
18
27
81
38
16
120
196
156
130
180
91
183
21
128
12
163
141
133
34
171
29
136
138
17
170
26
115
13
149
67
25
153
117
80
129
134
14
160
57
152
48
46
158
101
82
135
87
60
97
66
100
121
39
28
43
10
195
70
88
113
93
164
182
118
11
96
116
15
56
109
173
147
62
193
90
19
166
61
86
172
24
159
8
157
140
49
42
123
137
55
72
36
105
119
151
71
194
44
146
92
33
5
20
143
114
110
112
52
161
189
30
132
83
165
168
102
142
64
148
125
126
89
104
63
103
176
162
127
144
78
178
175
174
51
37
155
190
35
75
50
69
40
99
154

> <PUBCHEM_MMFF94_PARTIAL_CHARGES>
10
1 -0.43
10 0.42
11 -0.29
12 -0.3
2 -0.57
28 0.15
29 0.15
30 0.15
7 0.06
9 0.66

> <PUBCHEM_EFFECTIVE_ROTOR_COUNT>
8

> <PUBCHEM_PHARMACOPHORE_FEATURES>
4
1 12 hydrophobe
1 2 acceptor
1 8 hydrophobe
5 3 4 5 6 7 hydrophobe

> <PUBCHEM_HEAVY_ATOM_COUNT>
12

> <PUBCHEM_ATOM_DEF_STEREO_COUNT>
0

> <PUBCHEM_ATOM_UDEF_STEREO_COUNT>
0

> <PUBCHEM_BOND_DEF_STEREO_COUNT>
0

> <PUBCHEM_BOND_UDEF_STEREO_COUNT>
0

> <PUBCHEM_ISOTOPIC_ATOM_COUNT>
0

> <PUBCHEM_COMPONENT_COUNT>
1

> <PUBCHEM_CACTVS_TAUTO_COUNT>
1

> <PUBCHEM_CONFORMER_ID>
000022AE00000001

> <PUBCHEM_MMFF94_ENERGY>
2.2533

> <PUBCHEM_FEATURE_SELFOVERLAP>
20.297

> <PUBCHEM_SHAPE_FINGERPRINT>
11401426 45 18260548917997609821
12091667 2 18060136531546243123
12815109 37 18186801374899104496
13533116 47 17749670805035391478
13740256 8 8646474237855003421
14123238 8 14851604384017227696
1420 363 9007057980592968132
14251718 22 6266900164820362472
14251731 8 18410854347731638658
15048467 5 18060420218035764716
15242433 33 18413107256311842882
15242439 84 18113899342898352360
15501527 16 18413669102068207473
17834072 33 7060370440513355560
17834072 8 18408323284918160437
17834076 25 18410575084673647916
187816 3 17313103055631476555
200 152 7132719387620504263
20279233 1 17385994058219457838
20281389 69 18131635590472592852
20645477 56 18343304759968154532
20645477 70 16806155688005587966
20767249 13 4967610576885780808
20767249 213 18272932717429784349
23218964 4 18413389847758218512
23402539 116 18259990361811693309
23402655 69 18040999574577609997
23559900 14 17895200956837574600
300161 21 18335708221906350618
366044 4 18409167710186103843
42788 4 18411981355903671400
8209 1 18408886239108474748

> <PUBCHEM_SHAPE_MULTIPOLES>
235.22
14.75
1
0.66
5.17
0.23
0.02
-3.47
1.61
-0.41
0.04
-0.19
-0.04
0.21

> <PUBCHEM_SHAPE_SELFOVERLAP>
429.458

> <PUBCHEM_SHAPE_VOLUME>
149.8

> <PUBCHEM_COORDINATE_TYPE>
2
5
10

$$$$

