47205759
  -OEChem-06241223002D

 30 32  0     0  0  0  0  0  0999 V2000
    4.9889    2.1482    0.0000 Cl  0  0  0  0  0  0  0  0  0  0  0  0
    4.6783   -0.4118    0.0000 S   0  0  0  0  0  0  0  0  0  0  0  0
    8.2619    0.3929    0.0000 O   0  0  0  0  0  0  0  0  0  0  0  0
    8.2619   -1.3391    0.0000 N   0  0  0  0  0  0  0  0  0  0  0  0
   10.8007   -0.8391    0.0000 N   0  0  0  0  0  0  0  0  0  0  0  0
   10.8007   -1.8391    0.0000 N   0  0  0  0  0  0  0  0  0  0  0  0
    3.7320    0.8929    0.0000 C   0  0  0  0  0  0  0  0  0  0  0  0
    3.7320   -0.1071    0.0000 C   0  0  0  0  0  0  0  0  0  0  0  0
    5.2619    0.3929    0.0000 C   0  0  0  0  0  0  0  0  0  0  0  0
    4.6783    1.1976    0.0000 C   0  0  0  0  0  0  0  0  0  0  0  0
    2.8660    1.3929    0.0000 C   0  0  0  0  0  0  0  0  0  0  0  0
    2.8660   -0.6071    0.0000 C   0  0  0  0  0  0  0  0  0  0  0  0
    6.2619    0.3929    0.0000 C   0  0  0  0  0  0  0  0  0  0  0  0
    2.0000    0.8929    0.0000 C   0  0  0  0  0  0  0  0  0  0  0  0
    2.0000   -0.1071    0.0000 C   0  0  0  0  0  0  0  0  0  0  0  0
    6.7619   -0.4731    0.0000 C   0  0  0  0  0  0  0  0  0  0  0  0
    9.2619   -1.3391    0.0000 C   0  0  0  0  0  0  0  0  0  0  0  0
    7.7619   -0.4731    0.0000 C   0  0  0  0  0  0  0  0  0  0  0  0
    9.8497   -0.5301    0.0000 C   0  0  0  0  0  0  0  0  0  0  0  0
    9.8497   -2.1482    0.0000 C   0  0  0  0  0  0  0  0  0  0  0  0
    2.8660    2.0129    0.0000 H   0  0  0  0  0  0  0  0  0  0  0  0
    2.8660   -1.2271    0.0000 H   0  0  0  0  0  0  0  0  0  0  0  0
    6.5719    0.9298    0.0000 H   0  0  0  0  0  0  0  0  0  0  0  0
    1.4631    1.2029    0.0000 H   0  0  0  0  0  0  0  0  0  0  0  0
    1.4631   -0.4171    0.0000 H   0  0  0  0  0  0  0  0  0  0  0  0
    6.4519   -1.0100    0.0000 H   0  0  0  0  0  0  0  0  0  0  0  0
    7.9519   -1.8761    0.0000 H   0  0  0  0  0  0  0  0  0  0  0  0
    9.6581    0.0595    0.0000 H   0  0  0  0  0  0  0  0  0  0  0  0
    9.6581   -2.7378    0.0000 H   0  0  0  0  0  0  0  0  0  0  0  0
   11.3023   -0.4747    0.0000 H   0  0  0  0  0  0  0  0  0  0  0  0
  1 10  1  0  0  0  0
  2  8  1  0  0  0  0
  2  9  1  0  0  0  0
  3 18  2  0  0  0  0
  4 17  1  0  0  0  0
  4 18  1  0  0  0  0
  4 27  1  0  0  0  0
  5  6  1  0  0  0  0
  5 19  1  0  0  0  0
  5 30  1  0  0  0  0
  6 20  2  0  0  0  0
  7  8  1  0  0  0  0
  7 10  1  0  0  0  0
  7 11  2  0  0  0  0
  8 12  2  0  0  0  0
  9 10  2  0  0  0  0
  9 13  1  0  0  0  0
 11 14  1  0  0  0  0
 11 21  1  0  0  0  0
 12 15  1  0  0  0  0
 12 22  1  0  0  0  0
 13 16  2  3  0  0  0
 13 23  1  0  0  0  0
 14 15  2  0  0  0  0
 14 24  1  0  0  0  0
 15 25  1  0  0  0  0
 16 18  1  0  0  0  0
 16 26  1  0  0  0  0
 17 19  2  0  0  0  0
 17 20  1  0  0  0  0
 19 28  1  0  0  0  0
 20 29  1  0  0  0  0
M  END
> <PUBCHEM_COMPOUND_CID>
47205759

> <PUBCHEM_COMPOUND_CANONICALIZED>
1

> <PUBCHEM_CACTVS_COMPLEXITY>
393

> <PUBCHEM_CACTVS_HBOND_ACCEPTOR>
3

> <PUBCHEM_CACTVS_HBOND_DONOR>
2

> <PUBCHEM_CACTVS_ROTATABLE_BOND>
3

> <PUBCHEM_CACTVS_SUBSKEYS>
AAADccBzIABEAAAAAAAAAAAAAAAAAWJAAAAwAAAAAAAAAEgB/AAAHgYYAAAADArB2iQ8wdLjAAiuAjV3UACTBIAhnhBYubggdtgIYKKhU1CQpAAgnACoiYcAgIAOAAAAAAAEAAAAAAAAAAgAAAAAAAAAAA==

> <PUBCHEM_IUPAC_OPENEYE_NAME>
3-(3-chlorobenzothiophen-2-yl)-N-(1H-pyrazol-4-yl)prop-2-enamide

> <PUBCHEM_IUPAC_CAS_NAME>
3-(3-chloro-1-benzothiophen-2-yl)-N-(1H-pyrazol-4-yl)-2-propenamide

> <PUBCHEM_IUPAC_NAME>
3-(3-chloro-1-benzothiophen-2-yl)-N-(1H-pyrazol-4-yl)prop-2-enamide

> <PUBCHEM_IUPAC_SYSTEMATIC_NAME>
3-(3-chloranyl-1-benzothiophen-2-yl)-N-(1H-pyrazol-4-yl)prop-2-enamide

> <PUBCHEM_IUPAC_TRADITIONAL_NAME>
3-(3-chlorobenzothiophen-2-yl)-N-(1H-pyrazol-4-yl)acrylamide

> <PUBCHEM_IUPAC_INCHI>
InChI=1S/C14H10ClN3OS/c15-14-10-3-1-2-4-11(10)20-12(14)5-6-13(19)18-9-7-16-17-8-9/h1-8H,(H,16,17)(H,18,19)

> <PUBCHEM_IUPAC_INCHIKEY>
WMMIHXNVYUFNNI-UHFFFAOYSA-N

> <PUBCHEM_XLOGP3_AA>
3.2

> <PUBCHEM_EXACT_MASS>
303.023311

> <PUBCHEM_MOLECULAR_FORMULA>
C14H10ClN3OS

> <PUBCHEM_MOLECULAR_WEIGHT>
303.7667

> <PUBCHEM_OPENEYE_CAN_SMILES>
C1=CC=C2C(=C1)C(=C(S2)C=CC(=O)NC3=CNN=C3)Cl

> <PUBCHEM_OPENEYE_ISO_SMILES>
C1=CC=C2C(=C1)C(=C(S2)C=CC(=O)NC3=CNN=C3)Cl

> <PUBCHEM_CACTVS_TPSA>
86

> <PUBCHEM_MONOISOTOPIC_WEIGHT>
303.023311

> <PUBCHEM_TOTAL_CHARGE>
0

> <PUBCHEM_HEAVY_ATOM_COUNT>
20

> <PUBCHEM_ATOM_DEF_STEREO_COUNT>
0

> <PUBCHEM_ATOM_UDEF_STEREO_COUNT>
0

> <PUBCHEM_BOND_DEF_STEREO_COUNT>
0

> <PUBCHEM_BOND_UDEF_STEREO_COUNT>
1

> <PUBCHEM_ISOTOPIC_ATOM_COUNT>
0

> <PUBCHEM_COMPONENT_COUNT>
1

> <PUBCHEM_CACTVS_TAUTO_COUNT>
4

> <PUBCHEM_COORDINATE_TYPE>
1
5
255

> <PUBCHEM_BONDANNOTATIONS>
11  14  8
12  15  8
13  16  1
14  15  8
17  19  8
17  20  8
2  8  8
2  9  8
5  19  8
5  6  8
6  20  8
7  10  8
7  11  8
7  8  8
8  12  8
9  10  8

$$$$

