512870
  -OEChem-07051213103D

 72 74  0     1  0  0  0  0  0999 V2000
   -0.9927   -0.6930    0.2017 O   0  0  0  0  0  0  0  0  0  0  0  0
    1.8450   -0.4004    0.1031 O   0  0  0  0  0  0  0  0  0  0  0  0
    0.7921   -3.3223    1.9905 O   0  0  0  0  0  0  0  0  0  0  0  0
   -2.8591   -0.0540    1.4728 O   0  0  0  0  0  0  0  0  0  0  0  0
    3.9035    0.4897    0.8579 O   0  0  0  0  0  0  0  0  0  0  0  0
   -1.9128    1.7772   -0.6186 O   0  0  0  0  0  0  0  0  0  0  0  0
   -6.1451    1.3185    0.5484 O   0  0  0  0  0  0  0  0  0  0  0  0
    1.7754    3.9352    0.0294 O   0  0  0  0  0  0  0  0  0  0  0  0
    3.8896    3.1080   -1.7344 O   0  0  0  0  0  0  0  0  0  0  0  0
   -0.7483   -4.3260   -0.4016 N   0  0  0  0  0  0  0  0  0  0  0  0
    2.2837   -4.0162   -0.5096 N   0  0  0  0  0  0  0  0  0  0  0  0
   -4.9750   -0.0336   -1.5341 N   0  0  0  0  0  0  0  0  0  0  0  0
    0.4424    1.7322    1.3829 N   0  0  0  0  0  0  0  0  0  0  0  0
    6.2503   -0.2843   -0.4793 N   0  0  0  0  0  0  0  0  0  0  0  0
   -0.6962   -2.0464    0.5533 C   0  0  2  0  0  0  0  0  0  0  0  0
    1.8545   -1.7831    0.4650 C   0  0  1  0  0  0  0  0  0  0  0  0
    0.6241   -2.0651    1.3432 C   0  0  2  0  0  0  0  0  0  0  0  0
   -0.6659   -2.9014   -0.7279 C   0  0  1  0  0  0  0  0  0  0  0  0
    1.9115   -2.6352   -0.8175 C   0  0  2  0  0  0  0  0  0  0  0  0
    0.5759   -2.5810   -1.5814 C   0  0  0  0  0  0  0  0  0  0  0  0
   -2.3989   -0.4609    0.1837 C   0  0  1  0  0  0  0  0  0  0  0  0
   -4.1909    1.0177   -0.8667 C   0  0  2  0  0  0  0  0  0  0  0  0
    2.4949    0.3960    1.0915 C   0  0  1  0  0  0  0  0  0  0  0  0
   -2.7040    0.6141   -0.8691 C   0  0  1  0  0  0  0  0  0  0  0  0
   -4.7148    1.2592    0.5769 C   0  0  2  0  0  0  0  0  0  0  0  0
    1.8851    1.8019    1.1473 C   0  0  1  0  0  0  0  0  0  0  0  0
    2.1830    2.5764   -0.1412 C   0  0  2  0  0  0  0  0  0  0  0  0
    3.6863    2.5485   -0.4391 C   0  0  1  0  0  0  0  0  0  0  0  0
   -4.2752    0.1217    1.5095 C   0  0  0  0  0  0  0  0  0  0  0  0
    4.2360    1.1180   -0.3849 C   0  0  1  0  0  0  0  0  0  0  0  0
   -4.2378    2.6101    1.1349 C   0  0  0  0  0  0  0  0  0  0  0  0
    5.7568    1.0841   -0.5094 C   0  0  0  0  0  0  0  0  0  0  0  0
   -4.8734    0.0943   -2.9773 C   0  0  0  0  0  0  0  0  0  0  0  0
   -1.4778   -2.4277    1.2272 H   0  0  0  0  0  0  0  0  0  0  0  0
    2.7723   -1.9983    1.0321 H   0  0  0  0  0  0  0  0  0  0  0  0
    0.5462   -1.3104    2.1340 H   0  0  0  0  0  0  0  0  0  0  0  0
   -1.5403   -2.6654   -1.3464 H   0  0  0  0  0  0  0  0  0  0  0  0
    2.6839   -2.2218   -1.4787 H   0  0  0  0  0  0  0  0  0  0  0  0
    0.4570   -1.5692   -1.9932 H   0  0  0  0  0  0  0  0  0  0  0  0
    0.6140   -3.2465   -2.4544 H   0  0  0  0  0  0  0  0  0  0  0  0
   -2.9318   -1.3784   -0.1001 H   0  0  0  0  0  0  0  0  0  0  0  0
   -4.3307    1.9596   -1.4154 H   0  0  0  0  0  0  0  0  0  0  0  0
    2.3787   -0.0507    2.0871 H   0  0  0  0  0  0  0  0  0  0  0  0
   -2.3663    0.2519   -1.8453 H   0  0  0  0  0  0  0  0  0  0  0  0
    2.3364    2.3467    1.9876 H   0  0  0  0  0  0  0  0  0  0  0  0
    1.6154    2.1756   -0.9901 H   0  0  0  0  0  0  0  0  0  0  0  0
    4.2143    3.1878    0.2789 H   0  0  0  0  0  0  0  0  0  0  0  0
    3.8158    0.5273   -1.2108 H   0  0  0  0  0  0  0  0  0  0  0  0
   -4.7747   -0.8227    1.2588 H   0  0  0  0  0  0  0  0  0  0  0  0
   -4.5604    0.3434    2.5445 H   0  0  0  0  0  0  0  0  0  0  0  0
   -0.7702   -4.8739   -1.2605 H   0  0  0  0  0  0  0  0  0  0  0  0
   -1.6231   -4.5166    0.0851 H   0  0  0  0  0  0  0  0  0  0  0  0
    2.3627   -4.5512   -1.3733 H   0  0  0  0  0  0  0  0  0  0  0  0
    3.2045   -4.0352   -0.0734 H   0  0  0  0  0  0  0  0  0  0  0  0
    1.6030   -3.2730    2.5248 H   0  0  0  0  0  0  0  0  0  0  0  0
   -3.1597    2.6449    1.3101 H   0  0  0  0  0  0  0  0  0  0  0  0
   -4.7330    2.8292    2.0885 H   0  0  0  0  0  0  0  0  0  0  0  0
   -4.5086    3.4279    0.4575 H   0  0  0  0  0  0  0  0  0  0  0  0
   -5.9555    0.0630   -1.2697 H   0  0  0  0  0  0  0  0  0  0  0  0
    6.2146    1.6326    0.3221 H   0  0  0  0  0  0  0  0  0  0  0  0
    6.0776    1.5581   -1.4427 H   0  0  0  0  0  0  0  0  0  0  0  0
    0.2614    1.2698    2.2727 H   0  0  0  0  0  0  0  0  0  0  0  0
    0.0623    2.6744    1.4626 H   0  0  0  0  0  0  0  0  0  0  0  0
   -2.0932    2.4144   -1.3306 H   0  0  0  0  0  0  0  0  0  0  0  0
   -6.4614    1.4049    1.4640 H   0  0  0  0  0  0  0  0  0  0  0  0
    2.2662    4.3060    0.7824 H   0  0  0  0  0  0  0  0  0  0  0  0
    3.4510    2.5316   -2.3831 H   0  0  0  0  0  0  0  0  0  0  0  0
   -5.2324    1.0680   -3.3274 H   0  0  0  0  0  0  0  0  0  0  0  0
   -3.8578   -0.0669   -3.3482 H   0  0  0  0  0  0  0  0  0  0  0  0
   -5.5018   -0.6702   -3.4463 H   0  0  0  0  0  0  0  0  0  0  0  0
    7.2693   -0.2787   -0.4879 H   0  0  0  0  0  0  0  0  0  0  0  0
    5.9728   -0.7306    0.3939 H   0  0  0  0  0  0  0  0  0  0  0  0
  1 15  1  0  0  0  0
  1 21  1  0  0  0  0
  2 16  1  0  0  0  0
  2 23  1  0  0  0  0
  3 17  1  0  0  0  0
  3 55  1  0  0  0  0
  4 21  1  0  0  0  0
  4 29  1  0  0  0  0
  5 23  1  0  0  0  0
  5 30  1  0  0  0  0
  6 24  1  0  0  0  0
  6 64  1  0  0  0  0
  7 25  1  0  0  0  0
  7 65  1  0  0  0  0
  8 27  1  0  0  0  0
  8 66  1  0  0  0  0
  9 28  1  0  0  0  0
  9 67  1  0  0  0  0
 10 18  1  0  0  0  0
 10 51  1  0  0  0  0
 10 52  1  0  0  0  0
 11 19  1  0  0  0  0
 11 53  1  0  0  0  0
 11 54  1  0  0  0  0
 12 22  1  0  0  0  0
 12 33  1  0  0  0  0
 12 59  1  0  0  0  0
 13 26  1  0  0  0  0
 13 62  1  0  0  0  0
 13 63  1  0  0  0  0
 14 32  1  0  0  0  0
 14 71  1  0  0  0  0
 14 72  1  0  0  0  0
 15 17  1  0  0  0  0
 15 18  1  0  0  0  0
 15 34  1  0  0  0  0
 16 17  1  0  0  0  0
 16 19  1  0  0  0  0
 16 35  1  0  0  0  0
 17 36  1  0  0  0  0
 18 20  1  0  0  0  0
 18 37  1  0  0  0  0
 19 20  1  0  0  0  0
 19 38  1  0  0  0  0
 20 39  1  0  0  0  0
 20 40  1  0  0  0  0
 21 24  1  0  0  0  0
 21 41  1  0  0  0  0
 22 24  1  0  0  0  0
 22 25  1  0  0  0  0
 22 42  1  0  0  0  0
 23 26  1  0  0  0  0
 23 43  1  0  0  0  0
 24 44  1  0  0  0  0
 25 29  1  0  0  0  0
 25 31  1  0  0  0  0
 26 27  1  0  0  0  0
 26 45  1  0  0  0  0
 27 28  1  0  0  0  0
 27 46  1  0  0  0  0
 28 30  1  0  0  0  0
 28 47  1  0  0  0  0
 29 49  1  0  0  0  0
 29 50  1  0  0  0  0
 30 32  1  0  0  0  0
 30 48  1  0  0  0  0
 31 56  1  0  0  0  0
 31 57  1  0  0  0  0
 31 58  1  0  0  0  0
 32 60  1  0  0  0  0
 32 61  1  0  0  0  0
 33 68  1  0  0  0  0
 33 69  1  0  0  0  0
 33 70  1  0  0  0  0
M  END
> <PUBCHEM_COMPOUND_CID>
512870

> <PUBCHEM_CONFORMER_RMSD>
1

> <PUBCHEM_CONFORMER_DIVERSEORDER>
1
69
91
75
84
42
12
15
68
43
25
95
92
63
61
88
57
24
87
32
46
39
70
67
90
2
7
13
66
96
17
11
28
6
79
20
49
74
62
44
34
77
10
83
89
60
56
82
3
30
48
52
45
73
97
35
81
38
65
9
22
85
80
58
47
8
76
53
5
27
33
59
94
4
18
23
50
29
51
37
54
19
41
40
31
64
71
14
21
36
26
93
78
55
72
16
86

> <PUBCHEM_MMFF94_PARTIAL_CHARGES>
45
1 -0.56
10 -0.99
11 -0.99
12 -0.9
13 -0.99
14 -0.99
15 0.28
16 0.28
17 0.28
18 0.27
19 0.27
2 -0.56
21 0.56
22 0.27
23 0.56
24 0.28
25 0.28
26 0.27
27 0.28
28 0.28
29 0.28
3 -0.68
30 0.28
32 0.27
33 0.27
4 -0.56
5 -0.56
51 0.36
52 0.36
53 0.36
54 0.36
55 0.4
59 0.36
6 -0.68
62 0.36
63 0.36
64 0.4
65 0.4
66 0.4
67 0.4
7 -0.68
71 0.36
72 0.36
8 -0.68
9 -0.68

> <PUBCHEM_EFFECTIVE_ROTOR_COUNT>
9.6

> <PUBCHEM_PHARMACOPHORE_FEATURES>
27
1 1 acceptor
1 10 cation
1 10 donor
1 11 cation
1 11 donor
1 12 cation
1 12 donor
1 13 cation
1 13 donor
1 14 cation
1 14 donor
1 2 acceptor
1 3 acceptor
1 3 donor
1 4 acceptor
1 5 acceptor
1 6 acceptor
1 6 donor
1 7 acceptor
1 7 donor
1 8 acceptor
1 8 donor
1 9 acceptor
1 9 donor
6 15 16 17 18 19 20 rings
6 4 21 22 24 25 29 rings
6 5 23 26 27 28 30 rings

> <PUBCHEM_HEAVY_ATOM_COUNT>
33

> <PUBCHEM_ATOM_DEF_STEREO_COUNT>
14

> <PUBCHEM_ATOM_UDEF_STEREO_COUNT>
0

> <PUBCHEM_BOND_DEF_STEREO_COUNT>
0

> <PUBCHEM_BOND_UDEF_STEREO_COUNT>
0

> <PUBCHEM_ISOTOPIC_ATOM_COUNT>
0

> <PUBCHEM_COMPONENT_COUNT>
1

> <PUBCHEM_CACTVS_TAUTO_COUNT>
1

> <PUBCHEM_CONFORMER_ID>
0007D36600000001

> <PUBCHEM_MMFF94_ENERGY>
80.4658

> <PUBCHEM_FEATURE_SELFOVERLAP>
137.116

> <PUBCHEM_SHAPE_FINGERPRINT>
10483366 6 18192130794112195774
11513181 2 18042403719186782487
12422481 6 17904513988092429914
12788726 201 17403754249924611067
13583140 156 17774452701734768155
14251751 93 18195528095403832314
14790565 3 18410000036130624832
151778 21 18411976940598566177
21033648 144 18129672885081915277
21860390 5 18265622154689747855
22393880 68 17313395530009116537
22907989 373 17833837066693637927
238 59 18339662091225840909
2838139 119 18334013900004420522
3298306 158 18412824685611972068
340366 18 18270676459983650972
3459 83 18113610227470487678
38695281 34 18334287686773640390
469060 322 13109006929517811936
474 4 18408605889951129547
5265222 85 18123449611315292924
6287921 2 18043253637854962663

> <PUBCHEM_SHAPE_MULTIPOLES>
601.4
11.41
4.73
1.76
3.03
2.78
-0.56
-8.48
-2.85
-3.24
-0.3
1.74
0.17
-1.09

> <PUBCHEM_SHAPE_SELFOVERLAP>
1234.787

> <PUBCHEM_SHAPE_VOLUME>
340.8

> <PUBCHEM_COORDINATE_TYPE>
2
5
10

$$$$

