104944
  -OEChem-07051212462D

 13 14  0     1  0  0  0  0  0999 V2000
    4.5986    0.0000    0.0000 O   0  0  0  0  0  0  0  0  0  0  0  0
    3.7320    0.5000    0.0000 C   0  0  3  0  0  0  0  0  0  0  0  0
    3.7320   -0.5000    0.0000 C   0  0  3  0  0  0  0  0  0  0  0  0
    2.8660   -1.0000    0.0000 C   0  0  0  0  0  0  0  0  0  0  0  0
    2.8660    1.0000    0.0000 C   0  0  0  0  0  0  0  0  0  0  0  0
    2.0000   -0.5000    0.0000 C   0  0  0  0  0  0  0  0  0  0  0  0
    2.0000    0.5000    0.0000 C   0  0  0  0  0  0  0  0  0  0  0  0
    4.0420    1.0370    0.0000 H   0  0  0  0  0  0  0  0  0  0  0  0
    4.0420   -1.0370    0.0000 H   0  0  0  0  0  0  0  0  0  0  0  0
    2.8660   -1.6200    0.0000 H   0  0  0  0  0  0  0  0  0  0  0  0
    2.8660    1.6200    0.0000 H   0  0  0  0  0  0  0  0  0  0  0  0
    1.4631   -0.8100    0.0000 H   0  0  0  0  0  0  0  0  0  0  0  0
    1.4631    0.8100    0.0000 H   0  0  0  0  0  0  0  0  0  0  0  0
  1  2  1  0  0  0  0
  1  3  1  0  0  0  0
  2  3  1  0  0  0  0
  2  5  1  0  0  0  0
  2  8  1  0  0  0  0
  3  4  1  0  0  0  0
  3  9  1  0  0  0  0
  4  6  2  0  0  0  0
  4 10  1  0  0  0  0
  5  7  2  0  0  0  0
  5 11  1  0  0  0  0
  6  7  1  0  0  0  0
  6 12  1  0  0  0  0
  7 13  1  0  0  0  0
M  END
> <PUBCHEM_COMPOUND_CID>
104944

> <PUBCHEM_COMPOUND_CANONICALIZED>
1

> <PUBCHEM_CACTVS_COMPLEXITY>
119

> <PUBCHEM_CACTVS_HBOND_ACCEPTOR>
1

> <PUBCHEM_CACTVS_HBOND_DONOR>
0

> <PUBCHEM_CACTVS_ROTATABLE_BOND>
0

> <PUBCHEM_CACTVS_SUBSKEYS>
AAADcYBgIAAAAAAAAAAAAAAAEgAAAAAAAAAgAAAABAAAAAAAAAAAGgAAAAAACBSggAIAAAAABACAACBCAAAAAAAgAAAICAAAAAgIBAAAIQACEAAAwAAIoAIAAAAAAAAAAAAAAAAAAAAAAAAAAAAAAAAAAA==

> <PUBCHEM_IUPAC_OPENEYE_NAME>
7-oxabicyclo[4.1.0]hepta-2,4-diene

> <PUBCHEM_IUPAC_CAS_NAME>
7-oxabicyclo[4.1.0]hepta-2,4-diene

> <PUBCHEM_IUPAC_NAME>
7-oxabicyclo[4.1.0]hepta-2,4-diene

> <PUBCHEM_IUPAC_SYSTEMATIC_NAME>
7-oxabicyclo[4.1.0]hepta-2,4-diene

> <PUBCHEM_IUPAC_TRADITIONAL_NAME>
7-oxabicyclo[4.1.0]hepta-2,4-diene

> <PUBCHEM_IUPAC_INCHI>
InChI=1S/C6H6O/c1-2-4-6-5(3-1)7-6/h1-6H

> <PUBCHEM_IUPAC_INCHIKEY>
WDFZWSZNOFELJY-UHFFFAOYSA-N

> <PUBCHEM_XLOGP3_AA>
0.9

> <PUBCHEM_EXACT_MASS>
94.041865

> <PUBCHEM_MOLECULAR_FORMULA>
C6H6O

> <PUBCHEM_MOLECULAR_WEIGHT>
94.11124

> <PUBCHEM_OPENEYE_CAN_SMILES>
C1=CC2C(O2)C=C1

> <PUBCHEM_OPENEYE_ISO_SMILES>
C1=CC2C(O2)C=C1

> <PUBCHEM_CACTVS_TPSA>
12.5

> <PUBCHEM_MONOISOTOPIC_WEIGHT>
94.041865

> <PUBCHEM_TOTAL_CHARGE>
0

> <PUBCHEM_HEAVY_ATOM_COUNT>
7

> <PUBCHEM_ATOM_DEF_STEREO_COUNT>
0

> <PUBCHEM_ATOM_UDEF_STEREO_COUNT>
2

> <PUBCHEM_BOND_DEF_STEREO_COUNT>
0

> <PUBCHEM_BOND_UDEF_STEREO_COUNT>
0

> <PUBCHEM_ISOTOPIC_ATOM_COUNT>
0

> <PUBCHEM_COMPONENT_COUNT>
1

> <PUBCHEM_CACTVS_TAUTO_COUNT>
1

> <PUBCHEM_COORDINATE_TYPE>
1
5
255

> <PUBCHEM_BONDANNOTATIONS>
2  5  3
3  4  3

$$$$

