92425
  -OEChem-07051213003D

 41 44  0     0  0  0  0  0  0999 V2000
   -0.6888   -2.9854   -0.6661 F   0  0  0  0  0  0  0  0  0  0  0  0
   -1.2952    1.9214   -0.6564 O   0  0  0  0  0  0  0  0  0  0  0  0
   -2.5232   -2.3641    0.6372 O   0  0  0  0  0  0  0  0  0  0  0  0
    3.9011   -2.0309   -0.2021 O   0  0  0  0  0  0  0  0  0  0  0  0
    5.6822    0.9292    0.6299 O   0  0  0  0  0  0  0  0  0  0  0  0
   -1.4210   -0.3668   -0.0280 N   0  0  0  0  0  0  0  0  0  0  0  0
    3.3692    0.6630    0.4846 N   0  0  0  0  0  0  0  0  0  0  0  0
   -3.3355    0.8756   -0.1173 C   0  0  0  0  0  0  0  0  0  0  0  0
   -3.6918   -0.3628    0.2176 C   0  0  0  0  0  0  0  0  0  0  0  0
   -4.2789    2.0066   -0.3075 C   0  0  0  0  0  0  0  0  0  0  0  0
   -5.0842   -0.7980    0.4955 C   0  0  0  0  0  0  0  0  0  0  0  0
   -5.7325    1.5094   -0.3781 C   0  0  0  0  0  0  0  0  0  0  0  0
   -6.0209    0.4111    0.6554 C   0  0  0  0  0  0  0  0  0  0  0  0
   -1.8787    0.9119   -0.2975 C   0  0  0  0  0  0  0  0  0  0  0  0
   -2.4833   -1.1929    0.2983 C   0  0  0  0  0  0  0  0  0  0  0  0
   -0.0490   -0.7754   -0.0789 C   0  0  0  0  0  0  0  0  0  0  0  0
    0.9613    0.1478    0.2057 C   0  0  0  0  0  0  0  0  0  0  0  0
    2.3108   -0.2323    0.1583 C   0  0  0  0  0  0  0  0  0  0  0  0
    0.2738   -2.0904   -0.4014 C   0  0  0  0  0  0  0  0  0  0  0  0
    2.6188   -1.5554   -0.1790 C   0  0  0  0  0  0  0  0  0  0  0  0
    1.6083   -2.4839   -0.4443 C   0  0  0  0  0  0  0  0  0  0  0  0
    4.6938    0.2744    0.2993 C   0  0  0  0  0  0  0  0  0  0  0  0
    4.8521   -1.0232   -0.4673 C   0  0  0  0  0  0  0  0  0  0  0  0
    3.0654    1.9761    1.0391 C   0  0  0  0  0  0  0  0  0  0  0  0
    2.7164    2.9261   -0.0167 C   0  0  0  0  0  0  0  0  0  0  0  0
    2.4297    3.7091   -0.8807 C   0  0  0  0  0  0  0  0  0  0  0  0
   -4.1712    2.7037    0.5318 H   0  0  0  0  0  0  0  0  0  0  0  0
   -4.0422    2.5582   -1.2241 H   0  0  0  0  0  0  0  0  0  0  0  0
   -5.4331   -1.4235   -0.3347 H   0  0  0  0  0  0  0  0  0  0  0  0
   -5.1250   -1.4077    1.4048 H   0  0  0  0  0  0  0  0  0  0  0  0
   -6.4156    2.3530   -0.2275 H   0  0  0  0  0  0  0  0  0  0  0  0
   -5.9327    1.1146   -1.3826 H   0  0  0  0  0  0  0  0  0  0  0  0
   -7.0625    0.0812    0.5695 H   0  0  0  0  0  0  0  0  0  0  0  0
   -5.9033    0.8305    1.6631 H   0  0  0  0  0  0  0  0  0  0  0  0
    0.6859    1.1542    0.4979 H   0  0  0  0  0  0  0  0  0  0  0  0
    1.8561   -3.5136   -0.6873 H   0  0  0  0  0  0  0  0  0  0  0  0
    4.8503   -0.7941   -1.5403 H   0  0  0  0  0  0  0  0  0  0  0  0
    5.8367   -1.4372   -0.2236 H   0  0  0  0  0  0  0  0  0  0  0  0
    2.2827    1.8924    1.8010 H   0  0  0  0  0  0  0  0  0  0  0  0
    3.9490    2.3524    1.5683 H   0  0  0  0  0  0  0  0  0  0  0  0
    2.1748    4.4029   -1.6472 H   0  0  0  0  0  0  0  0  0  0  0  0
  1 19  1  0  0  0  0
  2 14  2  0  0  0  0
  3 15  2  0  0  0  0
  4 20  1  0  0  0  0
  4 23  1  0  0  0  0
  5 22  2  0  0  0  0
  6 14  1  0  0  0  0
  6 15  1  0  0  0  0
  6 16  1  0  0  0  0
  7 18  1  0  0  0  0
  7 22  1  0  0  0  0
  7 24  1  0  0  0  0
  8  9  2  0  0  0  0
  8 10  1  0  0  0  0
  8 14  1  0  0  0  0
  9 11  1  0  0  0  0
  9 15  1  0  0  0  0
 10 12  1  0  0  0  0
 10 27  1  0  0  0  0
 10 28  1  0  0  0  0
 11 13  1  0  0  0  0
 11 29  1  0  0  0  0
 11 30  1  0  0  0  0
 12 13  1  0  0  0  0
 12 31  1  0  0  0  0
 12 32  1  0  0  0  0
 13 33  1  0  0  0  0
 13 34  1  0  0  0  0
 16 17  1  0  0  0  0
 16 19  2  0  0  0  0
 17 18  2  0  0  0  0
 17 35  1  0  0  0  0
 18 20  1  0  0  0  0
 19 21  1  0  0  0  0
 20 21  2  0  0  0  0
 21 36  1  0  0  0  0
 22 23  1  0  0  0  0
 23 37  1  0  0  0  0
 23 38  1  0  0  0  0
 24 25  1  0  0  0  0
 24 39  1  0  0  0  0
 24 40  1  0  0  0  0
 25 26  3  0  0  0  0
 26 41  1  0  0  0  0
M  END
> <PUBCHEM_COMPOUND_CID>
92425

> <PUBCHEM_CONFORMER_RMSD>
0.8

> <PUBCHEM_CONFORMER_DIVERSEORDER>
1
6
2
3
4
5

> <PUBCHEM_MMFF94_PARTIAL_CHARGES>
27
1 -0.19
10 0.14
11 0.14
14 0.62
15 0.62
16 0.12
17 -0.15
18 0.12
19 0.19
2 -0.57
20 0.08
21 -0.15
22 0.57
23 0.34
24 0.5
25 -0.2
26 -0.18
3 -0.57
35 0.15
36 0.15
4 -0.36
41 0.18
5 -0.57
6 -0.24
7 -0.48
8 -0.12
9 -0.12

> <PUBCHEM_EFFECTIVE_ROTOR_COUNT>
3.6

> <PUBCHEM_PHARMACOPHORE_FEATURES>
9
1 2 acceptor
1 26 hydrophobe
1 3 acceptor
1 4 acceptor
1 5 acceptor
5 6 8 9 14 15 rings
6 16 17 18 19 20 21 rings
6 4 7 18 20 22 23 rings
6 8 9 10 11 12 13 rings

> <PUBCHEM_HEAVY_ATOM_COUNT>
26

> <PUBCHEM_ATOM_DEF_STEREO_COUNT>
0

> <PUBCHEM_ATOM_UDEF_STEREO_COUNT>
0

> <PUBCHEM_BOND_DEF_STEREO_COUNT>
0

> <PUBCHEM_BOND_UDEF_STEREO_COUNT>
0

> <PUBCHEM_ISOTOPIC_ATOM_COUNT>
0

> <PUBCHEM_COMPONENT_COUNT>
1

> <PUBCHEM_CACTVS_TAUTO_COUNT>
1

> <PUBCHEM_CONFORMER_ID>
0001690900000001

> <PUBCHEM_MMFF94_ENERGY>
63.3384

> <PUBCHEM_FEATURE_SELFOVERLAP>
45.774

> <PUBCHEM_SHAPE_FINGERPRINT>
10 15 18343866598005087920
10411042 1 17614559667697884966
10871710 139 17329986894004897228
11045977 3 18342453759775583587
11578080 2 16879650167394444738
11595378 159 16773524381399681413
12236239 1 14045736037053462971
12403259 118 18268157461226313762
12403259 415 18341895255202763725
12596602 18 14333115391005017837
12633257 1 18130239197983712136
12925494 130 18265053725097412209
13140716 1 18269272365747820520
13402501 40 18411419548369437276
14341114 176 18408880758798887368
14790565 3 17548971161911875596
15196674 1 18410012169328177135
1601671 61 18411982468885886940
17844677 252 18336820983508481697
21033648 29 18187097126120254496
21033650 10 14997097251678254570
21065198 57 18412261722847683947
21133410 127 17915185611386876029
21315763 129 18411983572365226505
21709351 56 18409172112453411399
23227448 37 18335141951347455207
23558518 356 17980773636383096298
23559900 14 18409169921772118297
335352 9 18408041836412984262
338550 245 18340767031492156996
350125 39 18410852153119817196
3545911 37 18409165519377879312
4073 2 18201712938399378131
474 4 18409167714227616825
5104073 3 18270114755370136483
53794403 172 18269830926366719116
9709674 26 18411133641261095507
9999458 23 18342738503370080174

> <PUBCHEM_SHAPE_MULTIPOLES>
494.35
12.32
3.4
0.81
6.69
1.19
-0.03
3.47
-1.55
-2.21
0.74
-0.12
0.16
0.84

> <PUBCHEM_SHAPE_SELFOVERLAP>
1095.239

> <PUBCHEM_SHAPE_VOLUME>
264.2

> <PUBCHEM_COORDINATE_TYPE>
2
5
10

$$$$

