443055
  -OEChem-07051213013D

 82 85  0     1  0  0  0  0  0999 V2000
    3.3291   -2.7640    0.3750 O   0  0  0  0  0  0  0  0  0  0  0  0
    6.2779    3.1981   -0.4104 O   0  0  0  0  0  0  0  0  0  0  0  0
   -4.2967    1.1301    2.2613 O   0  0  0  0  0  0  0  0  0  0  0  0
    6.4983    1.2063    1.5940 O   0  0  0  0  0  0  0  0  0  0  0  0
    5.1277   -2.8379   -0.9444 O   0  0  0  0  0  0  0  0  0  0  0  0
   -6.8198    1.1097    1.4084 O   0  0  0  0  0  0  0  0  0  0  0  0
   -0.6988    0.1160   -0.0264 C   0  0  1  0  0  0  0  0  0  0  0  0
    0.1725   -0.8359    0.8163 C   0  0  2  0  0  0  0  0  0  0  0  0
    1.5828   -1.0607    0.2337 C   0  0  1  0  0  0  0  0  0  0  0  0
    2.3168    0.3240    0.1119 C   0  0  1  0  0  0  0  0  0  0  0  0
   -2.0171    0.0468    0.7816 C   0  0  2  0  0  0  0  0  0  0  0  0
    3.7813    0.2911   -0.5304 C   0  0  2  0  0  0  0  0  0  0  0  0
   -0.0219    1.4858   -0.0070 C   0  0  0  0  0  0  0  0  0  0  0  0
   -0.7421   -2.0455    1.0289 C   0  0  0  0  0  0  0  0  0  0  0  0
    1.4083    1.4088   -0.5549 C   0  0  0  0  0  0  0  0  0  0  0  0
   -2.1597   -1.4530    1.1135 C   0  0  0  0  0  0  0  0  0  0  0  0
   -3.2567    0.6257    0.1143 C   0  0  1  0  0  0  0  0  0  0  0  0
    4.7095   -0.7410    0.2029 C   0  0  2  0  0  0  0  0  0  0  0  0
   -0.9125   -0.3512   -1.4877 C   0  0  0  0  0  0  0  0  0  0  0  0
    2.3585   -2.0301    1.1350 C   0  0  0  0  0  0  0  0  0  0  0  0
    4.3830    1.7313   -0.3749 C   0  0  0  0  0  0  0  0  0  0  0  0
    3.7154   -0.0382   -2.0425 C   0  0  0  0  0  0  0  0  0  0  0  0
    6.2286   -0.5214   -0.0446 C   0  0  0  0  0  0  0  0  0  0  0  0
    5.8768    1.8530   -0.6601 C   0  0  2  0  0  0  0  0  0  0  0  0
   -4.5378    0.5263    0.9826 C   0  0  2  0  0  0  0  0  0  0  0  0
    6.6835    0.9047    0.2126 C   0  0  1  0  0  0  0  0  0  0  0  0
    4.4166   -2.1906   -0.1786 C   0  0  0  0  0  0  0  0  0  0  0  0
   -2.9914    2.0879   -0.2785 C   0  0  0  0  0  0  0  0  0  0  0  0
   -5.8125    1.1766    0.3940 C   0  0  1  0  0  0  0  0  0  0  0  0
   -6.3335    0.5618   -0.9360 C   0  0  1  0  0  0  0  0  0  0  0  0
   -6.4283   -0.9968   -0.8670 C   0  0  0  0  0  0  0  0  0  0  0  0
   -7.6370    1.2166   -1.4137 C   0  0  0  0  0  0  0  0  0  0  0  0
   -6.8429   -1.5833   -2.2246 C   0  0  0  0  0  0  0  0  0  0  0  0
   -7.3581   -1.5513    0.2157 C   0  0  0  0  0  0  0  0  0  0  0  0
    0.3168   -0.3867    1.8135 H   0  0  0  0  0  0  0  0  0  0  0  0
    1.4980   -1.5094   -0.7615 H   0  0  0  0  0  0  0  0  0  0  0  0
    2.4558    0.6693    1.1490 H   0  0  0  0  0  0  0  0  0  0  0  0
   -1.8573    0.5742    1.7342 H   0  0  0  0  0  0  0  0  0  0  0  0
    0.0157    1.8785    1.0173 H   0  0  0  0  0  0  0  0  0  0  0  0
   -0.5258    2.2393   -0.6090 H   0  0  0  0  0  0  0  0  0  0  0  0
   -0.4987   -2.5906    1.9464 H   0  0  0  0  0  0  0  0  0  0  0  0
   -0.6720   -2.7516    0.1938 H   0  0  0  0  0  0  0  0  0  0  0  0
    1.3597    1.2466   -1.6359 H   0  0  0  0  0  0  0  0  0  0  0  0
    1.8477    2.4017   -0.4129 H   0  0  0  0  0  0  0  0  0  0  0  0
   -2.8185   -1.9741    0.4094 H   0  0  0  0  0  0  0  0  0  0  0  0
   -2.5797   -1.5882    2.1165 H   0  0  0  0  0  0  0  0  0  0  0  0
   -3.4642    0.0740   -0.8103 H   0  0  0  0  0  0  0  0  0  0  0  0
    4.5783   -0.6480    1.2865 H   0  0  0  0  0  0  0  0  0  0  0  0
   -1.4643    0.3872   -2.0763 H   0  0  0  0  0  0  0  0  0  0  0  0
    0.0299   -0.5172   -2.0166 H   0  0  0  0  0  0  0  0  0  0  0  0
   -1.4702   -1.2914   -1.5464 H   0  0  0  0  0  0  0  0  0  0  0  0
    2.8174   -1.5479    2.0042 H   0  0  0  0  0  0  0  0  0  0  0  0
    1.6992   -2.8021    1.5402 H   0  0  0  0  0  0  0  0  0  0  0  0
    4.1720    2.1227    0.6292 H   0  0  0  0  0  0  0  0  0  0  0  0
    3.8729    2.4277   -1.0531 H   0  0  0  0  0  0  0  0  0  0  0  0
    3.2452    0.7670   -2.6158 H   0  0  0  0  0  0  0  0  0  0  0  0
    4.7133   -0.1792   -2.4701 H   0  0  0  0  0  0  0  0  0  0  0  0
    3.1463   -0.9519   -2.2379 H   0  0  0  0  0  0  0  0  0  0  0  0
    6.7868   -1.2012    0.6134 H   0  0  0  0  0  0  0  0  0  0  0  0
    6.4970   -0.7931   -1.0733 H   0  0  0  0  0  0  0  0  0  0  0  0
    6.0807    1.6462   -1.7170 H   0  0  0  0  0  0  0  0  0  0  0  0
   -4.7351   -0.5249    1.2135 H   0  0  0  0  0  0  0  0  0  0  0  0
    7.7532    1.0142    0.0060 H   0  0  0  0  0  0  0  0  0  0  0  0
   -3.8974    2.6206   -0.5715 H   0  0  0  0  0  0  0  0  0  0  0  0
   -2.5364    2.6586    0.5371 H   0  0  0  0  0  0  0  0  0  0  0  0
   -2.3797    2.1530   -1.1787 H   0  0  0  0  0  0  0  0  0  0  0  0
   -5.6582    2.2509    0.2594 H   0  0  0  0  0  0  0  0  0  0  0  0
    5.7641    3.7733   -1.0028 H   0  0  0  0  0  0  0  0  0  0  0  0
   -5.5788    0.7954   -1.6999 H   0  0  0  0  0  0  0  0  0  0  0  0
   -5.1027    1.0177    2.7937 H   0  0  0  0  0  0  0  0  0  0  0  0
    5.5621    1.1166    1.8297 H   0  0  0  0  0  0  0  0  0  0  0  0
   -5.4252   -1.3949   -0.6737 H   0  0  0  0  0  0  0  0  0  0  0  0
   -7.5538    1.6875    1.1407 H   0  0  0  0  0  0  0  0  0  0  0  0
   -7.5415    2.3079   -1.3980 H   0  0  0  0  0  0  0  0  0  0  0  0
   -8.4905    0.9478   -0.7852 H   0  0  0  0  0  0  0  0  0  0  0  0
   -7.8715    0.9334   -2.4443 H   0  0  0  0  0  0  0  0  0  0  0  0
   -6.2193   -1.1842   -3.0313 H   0  0  0  0  0  0  0  0  0  0  0  0
   -7.8913   -1.3726   -2.4586 H   0  0  0  0  0  0  0  0  0  0  0  0
   -6.7213   -2.6724   -2.2234 H   0  0  0  0  0  0  0  0  0  0  0  0
   -6.9888   -1.3361    1.2214 H   0  0  0  0  0  0  0  0  0  0  0  0
   -8.3730   -1.1533    0.1255 H   0  0  0  0  0  0  0  0  0  0  0  0
   -7.4266   -2.6426    0.1387 H   0  0  0  0  0  0  0  0  0  0  0  0
  1 20  1  0  0  0  0
  1 27  1  0  0  0  0
  2 24  1  0  0  0  0
  2 68  1  0  0  0  0
  3 25  1  0  0  0  0
  3 70  1  0  0  0  0
  4 26  1  0  0  0  0
  4 71  1  0  0  0  0
  5 27  2  0  0  0  0
  6 29  1  0  0  0  0
  6 73  1  0  0  0  0
  7  8  1  0  0  0  0
  7 11  1  0  0  0  0
  7 13  1  0  0  0  0
  7 19  1  0  0  0  0
  8  9  1  0  0  0  0
  8 14  1  0  0  0  0
  8 35  1  0  0  0  0
  9 10  1  0  0  0  0
  9 20  1  0  0  0  0
  9 36  1  0  0  0  0
 10 12  1  0  0  0  0
 10 15  1  0  0  0  0
 10 37  1  0  0  0  0
 11 16  1  0  0  0  0
 11 17  1  0  0  0  0
 11 38  1  0  0  0  0
 12 18  1  0  0  0  0
 12 21  1  0  0  0  0
 12 22  1  0  0  0  0
 13 15  1  0  0  0  0
 13 39  1  0  0  0  0
 13 40  1  0  0  0  0
 14 16  1  0  0  0  0
 14 41  1  0  0  0  0
 14 42  1  0  0  0  0
 15 43  1  0  0  0  0
 15 44  1  0  0  0  0
 16 45  1  0  0  0  0
 16 46  1  0  0  0  0
 17 25  1  0  0  0  0
 17 28  1  0  0  0  0
 17 47  1  0  0  0  0
 18 23  1  0  0  0  0
 18 27  1  0  0  0  0
 18 48  1  0  0  0  0
 19 49  1  0  0  0  0
 19 50  1  0  0  0  0
 19 51  1  0  0  0  0
 20 52  1  0  0  0  0
 20 53  1  0  0  0  0
 21 24  1  0  0  0  0
 21 54  1  0  0  0  0
 21 55  1  0  0  0  0
 22 56  1  0  0  0  0
 22 57  1  0  0  0  0
 22 58  1  0  0  0  0
 23 26  1  0  0  0  0
 23 59  1  0  0  0  0
 23 60  1  0  0  0  0
 24 26  1  0  0  0  0
 24 61  1  0  0  0  0
 25 29  1  0  0  0  0
 25 62  1  0  0  0  0
 26 63  1  0  0  0  0
 28 64  1  0  0  0  0
 28 65  1  0  0  0  0
 28 66  1  0  0  0  0
 29 30  1  0  0  0  0
 29 67  1  0  0  0  0
 30 31  1  0  0  0  0
 30 32  1  0  0  0  0
 30 69  1  0  0  0  0
 31 33  1  0  0  0  0
 31 34  1  0  0  0  0
 31 72  1  0  0  0  0
 32 74  1  0  0  0  0
 32 75  1  0  0  0  0
 32 76  1  0  0  0  0
 33 77  1  0  0  0  0
 33 78  1  0  0  0  0
 33 79  1  0  0  0  0
 34 80  1  0  0  0  0
 34 81  1  0  0  0  0
 34 82  1  0  0  0  0
M  END
> <PUBCHEM_COMPOUND_CID>
443055

> <PUBCHEM_CONFORMER_RMSD>
1

> <PUBCHEM_CONFORMER_DIVERSEORDER>
1
3
5
4
2

> <PUBCHEM_MMFF94_PARTIAL_CHARGES>
17
1 -0.43
18 0.06
2 -0.68
20 0.28
24 0.28
25 0.28
26 0.28
27 0.66
29 0.28
3 -0.68
4 -0.68
5 -0.57
6 -0.68
68 0.4
70 0.4
71 0.4
73 0.4

> <PUBCHEM_EFFECTIVE_ROTOR_COUNT>
7.2

> <PUBCHEM_PHARMACOPHORE_FEATURES>
16
1 2 acceptor
1 2 donor
1 28 hydrophobe
1 3 acceptor
1 3 donor
1 32 hydrophobe
1 4 acceptor
1 4 donor
1 5 acceptor
1 6 acceptor
1 6 donor
3 31 33 34 hydrophobe
5 7 8 11 14 16 rings
6 12 18 21 23 24 26 rings
6 7 8 9 10 13 15 rings
7 1 9 10 12 18 20 27 rings

> <PUBCHEM_HEAVY_ATOM_COUNT>
34

> <PUBCHEM_ATOM_DEF_STEREO_COUNT>
13

> <PUBCHEM_ATOM_UDEF_STEREO_COUNT>
0

> <PUBCHEM_BOND_DEF_STEREO_COUNT>
0

> <PUBCHEM_BOND_UDEF_STEREO_COUNT>
0

> <PUBCHEM_ISOTOPIC_ATOM_COUNT>
0

> <PUBCHEM_COMPONENT_COUNT>
1

> <PUBCHEM_CACTVS_TAUTO_COUNT>
1

> <PUBCHEM_CONFORMER_ID>
0006C2AF00000001

> <PUBCHEM_MMFF94_ENERGY>
138.5724

> <PUBCHEM_FEATURE_SELFOVERLAP>
81.289

> <PUBCHEM_SHAPE_FINGERPRINT>
10 15 17632291251231819712
10411042 1 17908703179525401930
10554248 39 18202278091865694582
10595046 47 18335138717605917419
11007060 377 18342173367494492451
11135609 187 18341056233209588555
11315181 36 18040999536640484921
12236239 1 18186801409147962675
12596602 18 17968094261032017891
12838862 33 18271816705265702792
12925494 130 17979072683400762864
13533116 47 18262234521242386848
1361 2 18409729599108984470
1361 4 18259704480489454255
13782708 43 17917430994402238419
13811026 1 18341896281283423842
14251764 18 18260546705873466948
14294032 229 13325751706522957455
14394314 77 18410849993400698681
14849402 71 18335133155750766633
15131766 46 14905899247998367390
15142383 8 15626229005136182484
15183329 4 18259989284223359919
15328829 1 18114466686482199973
1577012 14 18040430023365222785
20157964 124 18411416224549903886
20511986 3 18410300198171825883
21033648 29 17131830989155679593
21130935 74 18261387892725623819
21150785 3 17968096395815392885
21859007 373 17131845303564500117
22149856 69 18127947859123184609
23081809 10 17749386009700171659
23522609 53 17896015759352490289
23559900 14 18342458097771823529
24771293 8 18412544293199713372
24771750 20 17769359535920175869
249057 25 17968653946741729170
255183 451 17972027309627476238
2838139 119 17988926665442786957
335352 9 18342734127568616878
3633792 109 18341897441388914721
4073 2 18130500834258647354
4093350 32 17822567309112053398
4169191 19 18271517615842523989
4340502 62 18273209807614001482
4625314 4 18335140950857231127
4760202 170 18270694151081200253
5104073 3 18201708545032566858
5265222 85 16371017247751727407
6004065 56 18340488846423607900
6371009 1 18202845448218951005
9962374 69 18336270154185436918

> <PUBCHEM_SHAPE_MULTIPOLES>
664.49
21.63
2.62
1.53
15.76
0.44
-0.21
-4.13
-3.88
-2.8
-0.06
1.74
0.14
-0.7

> <PUBCHEM_SHAPE_SELFOVERLAP>
1379.872

> <PUBCHEM_SHAPE_VOLUME>
377.3

> <PUBCHEM_COORDINATE_TYPE>
2
5
10

$$$$

