10909
  -OEChem-06261205062D

 16 14  0     0  0  0  0  0  0999 V2000
    1.7321    0.9030    0.0000 S   0  0  0  0  0  0  0  0  0  0  0  0
    0.0000    0.9030    0.0000 Na  0  3  0  0  0  0  0  0  0  0  0  0
    3.4641    1.9030    0.0000 O   0  0  0  0  0  0  0  0  0  0  0  0
    0.8660    0.4030    0.0000 O   0  5  0  0  0  0  0  0  0  0  0  0
    1.2321    1.7690    0.0000 O   0  0  0  0  0  0  0  0  0  0  0  0
    2.2321    0.0369    0.0000 O   0  0  0  0  0  0  0  0  0  0  0  0
    2.5981    1.4030    0.0000 C   0  0  0  0  0  0  0  0  0  0  0  0
    3.0981    0.5369    0.0000 C   0  0  0  0  0  0  0  0  0  0  0  0
    2.0981    2.2690    0.0000 C   0  0  0  0  0  0  0  0  0  0  0  0
    2.5611    0.2269    0.0000 H   0  0  0  0  0  0  0  0  0  0  0  0
    3.4081    0.0000    0.0000 H   0  0  0  0  0  0  0  0  0  0  0  0
    3.6350    0.8469    0.0000 H   0  0  0  0  0  0  0  0  0  0  0  0
    2.6350    2.5790    0.0000 H   0  0  0  0  0  0  0  0  0  0  0  0
    1.7881    2.8059    0.0000 H   0  0  0  0  0  0  0  0  0  0  0  0
    1.5611    1.9590    0.0000 H   0  0  0  0  0  0  0  0  0  0  0  0
    4.0010    1.5930    0.0000 H   0  0  0  0  0  0  0  0  0  0  0  0
  1  4  1  0  0  0  0
  1  5  2  0  0  0  0
  1  6  2  0  0  0  0
  1  7  1  0  0  0  0
  3  7  1  0  0  0  0
  3 16  1  0  0  0  0
  7  8  1  0  0  0  0
  7  9  1  0  0  0  0
  8 10  1  0  0  0  0
  8 11  1  0  0  0  0
  8 12  1  0  0  0  0
  9 13  1  0  0  0  0
  9 14  1  0  0  0  0
  9 15  1  0  0  0  0
M  CHG  2   2   1   4  -1
M  END
> <PUBCHEM_COMPOUND_CID>
10909

> <PUBCHEM_COMPOUND_CANONICALIZED>
1

> <PUBCHEM_CACTVS_COMPLEXITY>
147

> <PUBCHEM_CACTVS_HBOND_ACCEPTOR>
4

> <PUBCHEM_CACTVS_HBOND_DONOR>
1

> <PUBCHEM_CACTVS_ROTATABLE_BOND>
0

> <PUBCHEM_CACTVS_SUBSKEYS>
AAADcYBAOCBAAAAAAAAAAAAAAAAAAAAAAAAAAAAAAAAAAAAAAAAAGgQACAAACASAwAACAAAAAgIAAAAAAHBAAAAAAAAAAAAAAAAAAAAAAAAAAAAAAAAAAAAAAAAAAAAAAAAAAAAAAAAAAAAAAAAAAAAAAA==

> <PUBCHEM_IUPAC_OPENEYE_NAME>
sodium 2-hydroxypropane-2-sulfonate

> <PUBCHEM_IUPAC_CAS_NAME>
sodium 2-hydroxy-2-propanesulfonate

> <PUBCHEM_IUPAC_NAME>
sodium 2-hydroxypropane-2-sulfonate

> <PUBCHEM_IUPAC_SYSTEMATIC_NAME>
sodium 2-oxidanylpropane-2-sulfonate

> <PUBCHEM_IUPAC_TRADITIONAL_NAME>
sodium 2-hydroxypropane-2-sulfonate

> <PUBCHEM_IUPAC_INCHI>
InChI=1S/C3H8O4S.Na/c1-3(2,4)8(5,6)7;/h4H,1-2H3,(H,5,6,7);/q;+1/p-1

> <PUBCHEM_IUPAC_INCHIKEY>
YNJORDSKPXMABC-UHFFFAOYSA-M

> <PUBCHEM_EXACT_MASS>
161.996274

> <PUBCHEM_MOLECULAR_FORMULA>
C3H7NaO4S

> <PUBCHEM_MOLECULAR_WEIGHT>
162.140049

> <PUBCHEM_OPENEYE_CAN_SMILES>
CC(C)(O)S(=O)(=O)[O-].[Na+]

> <PUBCHEM_OPENEYE_ISO_SMILES>
CC(C)(O)S(=O)(=O)[O-].[Na+]

> <PUBCHEM_CACTVS_TPSA>
85.8

> <PUBCHEM_MONOISOTOPIC_WEIGHT>
161.996274

> <PUBCHEM_TOTAL_CHARGE>
0

> <PUBCHEM_HEAVY_ATOM_COUNT>
9

> <PUBCHEM_ATOM_DEF_STEREO_COUNT>
0

> <PUBCHEM_ATOM_UDEF_STEREO_COUNT>
0

> <PUBCHEM_BOND_DEF_STEREO_COUNT>
0

> <PUBCHEM_BOND_UDEF_STEREO_COUNT>
0

> <PUBCHEM_ISOTOPIC_ATOM_COUNT>
0

> <PUBCHEM_COMPONENT_COUNT>
2

> <PUBCHEM_CACTVS_TAUTO_COUNT>
1

> <PUBCHEM_COORDINATE_TYPE>
1
5
255

$$$$

