3377
  -OEChem-06251223223D

 58 61  0     0  0  0  0  0  0999 V2000
   -3.0840   -5.4692   -0.5311 F   0  0  0  0  0  0  0  0  0  0  0  0
   -6.8609    3.0784   -0.5466 F   0  0  0  0  0  0  0  0  0  0  0  0
   -1.0626    0.5338    0.0720 N   0  3  0  0  0  0  0  0  0  0  0  0
    1.5204    1.7784    0.1069 N   0  3  0  0  0  0  0  0  0  0  0  0
    0.1514   -0.2325    0.5373 C   0  0  0  0  0  0  0  0  0  0  0  0
   -0.9271    2.0118    0.3451 C   0  0  0  0  0  0  0  0  0  0  0  0
    1.3856    0.3006   -0.1678 C   0  0  0  0  0  0  0  0  0  0  0  0
    0.3069    2.5440   -0.3606 C   0  0  0  0  0  0  0  0  0  0  0  0
   -2.3315   -0.0263    0.6520 C   0  0  0  0  0  0  0  0  0  0  0  0
    2.7905    2.3394   -0.4697 C   0  0  0  0  0  0  0  0  0  0  0  0
   -2.5344   -1.4972    0.3330 C   0  0  0  0  0  0  0  0  0  0  0  0
   -3.5556    0.8122    0.3288 C   0  0  0  0  0  0  0  0  0  0  0  0
    4.0134    1.6416    0.0350 C   0  0  0  0  0  0  0  0  0  0  0  0
   -3.2281   -2.2879    1.2282 C   0  0  0  0  0  0  0  0  0  0  0  0
   -3.9202    1.8270    1.1921 C   0  0  0  0  0  0  0  0  0  0  0  0
   -2.0200   -2.0042   -0.8447 C   0  0  0  0  0  0  0  0  0  0  0  0
   -4.2713    0.5377   -0.8206 C   0  0  0  0  0  0  0  0  0  0  0  0
    4.8817    1.0053   -0.7665 C   0  0  0  0  0  0  0  0  0  0  0  0
   -3.4147   -3.6387    0.9345 C   0  0  0  0  0  0  0  0  0  0  0  0
   -5.0443    2.5975    0.8946 C   0  0  0  0  0  0  0  0  0  0  0  0
   -2.2068   -3.3549   -1.1385 C   0  0  0  0  0  0  0  0  0  0  0  0
   -5.3953    1.3082   -1.1182 C   0  0  0  0  0  0  0  0  0  0  0  0
   -2.9041   -4.1722   -0.2489 C   0  0  0  0  0  0  0  0  0  0  0  0
   -5.7818    2.3381   -0.2606 C   0  0  0  0  0  0  0  0  0  0  0  0
    6.1038    0.3171   -0.3180 C   0  0  0  0  0  0  0  0  0  0  0  0
    6.2197   -0.0665    1.0089 C   0  0  0  0  0  0  0  0  0  0  0  0
    7.1157    0.0648   -1.2308 C   0  0  0  0  0  0  0  0  0  0  0  0
    7.3770   -0.7189    1.4338 C   0  0  0  0  0  0  0  0  0  0  0  0
    8.2731   -0.5877   -0.8060 C   0  0  0  0  0  0  0  0  0  0  0  0
    8.4037   -0.9795    0.5263 C   0  0  0  0  0  0  0  0  0  0  0  0
   -1.1170    0.4511   -0.9514 H   0  0  0  0  0  0  0  0  0  0  0  0
    1.5793    1.8975    1.1281 H   0  0  0  0  0  0  0  0  0  0  0  0
    0.0515   -1.2954    0.3178 H   0  0  0  0  0  0  0  0  0  0  0  0
    0.2252   -0.1040    1.6240 H   0  0  0  0  0  0  0  0  0  0  0  0
   -0.8777    2.1585    1.4297 H   0  0  0  0  0  0  0  0  0  0  0  0
   -1.7838    2.5373   -0.0810 H   0  0  0  0  0  0  0  0  0  0  0  0
    2.2677   -0.2111    0.2272 H   0  0  0  0  0  0  0  0  0  0  0  0
    1.3331    0.1626   -1.2538 H   0  0  0  0  0  0  0  0  0  0  0  0
    0.2402    2.4326   -1.4490 H   0  0  0  0  0  0  0  0  0  0  0  0
    0.4671    3.5979   -0.1108 H   0  0  0  0  0  0  0  0  0  0  0  0
   -2.1732    0.0271    1.7402 H   0  0  0  0  0  0  0  0  0  0  0  0
    2.7031    2.2850   -1.5613 H   0  0  0  0  0  0  0  0  0  0  0  0
    2.8324    3.3947   -0.1777 H   0  0  0  0  0  0  0  0  0  0  0  0
    4.1750    1.7130    1.1064 H   0  0  0  0  0  0  0  0  0  0  0  0
   -3.6303   -1.8812    2.1514 H   0  0  0  0  0  0  0  0  0  0  0  0
   -3.3601    2.0346    2.0989 H   0  0  0  0  0  0  0  0  0  0  0  0
   -1.5009   -1.4026   -1.5823 H   0  0  0  0  0  0  0  0  0  0  0  0
   -3.9896   -0.2382   -1.5231 H   0  0  0  0  0  0  0  0  0  0  0  0
    4.6960    0.9877   -1.8383 H   0  0  0  0  0  0  0  0  0  0  0  0
   -3.9580   -4.2752    1.6266 H   0  0  0  0  0  0  0  0  0  0  0  0
   -5.3465    3.3984    1.5628 H   0  0  0  0  0  0  0  0  0  0  0  0
   -1.8160   -3.7695   -2.0631 H   0  0  0  0  0  0  0  0  0  0  0  0
   -5.9670    1.1102   -2.0201 H   0  0  0  0  0  0  0  0  0  0  0  0
    5.4377    0.0952    1.7440 H   0  0  0  0  0  0  0  0  0  0  0  0
    7.0295    0.3649   -2.2718 H   0  0  0  0  0  0  0  0  0  0  0  0
    7.4772   -1.0290    2.4699 H   0  0  0  0  0  0  0  0  0  0  0  0
    9.0727   -0.7907   -1.5124 H   0  0  0  0  0  0  0  0  0  0  0  0
    9.3043   -1.4887    0.8568 H   0  0  0  0  0  0  0  0  0  0  0  0
  1 23  1  0  0  0  0
  2 24  1  0  0  0  0
  3  5  1  0  0  0  0
  3  6  1  0  0  0  0
  3  9  1  0  0  0  0
  3 31  1  0  0  0  0
  4  7  1  0  0  0  0
  4  8  1  0  0  0  0
  4 10  1  0  0  0  0
  4 32  1  0  0  0  0
  5  7  1  0  0  0  0
  5 33  1  0  0  0  0
  5 34  1  0  0  0  0
  6  8  1  0  0  0  0
  6 35  1  0  0  0  0
  6 36  1  0  0  0  0
  7 37  1  0  0  0  0
  7 38  1  0  0  0  0
  8 39  1  0  0  0  0
  8 40  1  0  0  0  0
  9 11  1  0  0  0  0
  9 12  1  0  0  0  0
  9 41  1  0  0  0  0
 10 13  1  0  0  0  0
 10 42  1  0  0  0  0
 10 43  1  0  0  0  0
 11 14  2  0  0  0  0
 11 16  1  0  0  0  0
 12 15  2  0  0  0  0
 12 17  1  0  0  0  0
 13 18  2  0  0  0  0
 13 44  1  0  0  0  0
 14 19  1  0  0  0  0
 14 45  1  0  0  0  0
 15 20  1  0  0  0  0
 15 46  1  0  0  0  0
 16 21  2  0  0  0  0
 16 47  1  0  0  0  0
 17 22  2  0  0  0  0
 17 48  1  0  0  0  0
 18 25  1  0  0  0  0
 18 49  1  0  0  0  0
 19 23  2  0  0  0  0
 19 50  1  0  0  0  0
 20 24  2  0  0  0  0
 20 51  1  0  0  0  0
 21 23  1  0  0  0  0
 21 52  1  0  0  0  0
 22 24  1  0  0  0  0
 22 53  1  0  0  0  0
 25 26  2  0  0  0  0
 25 27  1  0  0  0  0
 26 28  1  0  0  0  0
 26 54  1  0  0  0  0
 27 29  2  0  0  0  0
 27 55  1  0  0  0  0
 28 30  2  0  0  0  0
 28 56  1  0  0  0  0
 29 30  1  0  0  0  0
 29 57  1  0  0  0  0
 30 58  1  0  0  0  0
M  CHG  2   3   1   4   1
M  END
> <PUBCHEM_COMPOUND_CID>
3377

> <PUBCHEM_CONFORMER_RMSD>
0.8

> <PUBCHEM_CONFORMER_DIVERSEORDER>
1
4
5
9
8
10
7
6
11
2
3

> <PUBCHEM_MMFF94_PARTIAL_CHARGES>
47
1 -0.19
10 0.64
11 -0.14
12 -0.14
13 -0.29
14 -0.15
15 -0.15
16 -0.15
17 -0.15
18 -0.18
19 -0.15
2 -0.19
20 -0.15
21 -0.15
22 -0.15
23 0.19
24 0.19
25 0.03
26 -0.15
27 -0.15
28 -0.15
29 -0.15
3 -0.96
30 -0.15
31 0.45
32 0.45
4 -0.96
44 0.15
45 0.15
46 0.15
47 0.15
48 0.15
49 0.15
5 0.5
50 0.15
51 0.15
52 0.15
53 0.15
54 0.15
55 0.15
56 0.15
57 0.15
58 0.15
6 0.5
7 0.5
8 0.5
9 0.79

> <PUBCHEM_EFFECTIVE_ROTOR_COUNT>
7.2

> <PUBCHEM_PHARMACOPHORE_FEATURES>
8
1 3 cation
1 3 donor
1 4 cation
1 4 donor
6 11 14 16 19 21 23 rings
6 12 15 17 20 22 24 rings
6 25 26 27 28 29 30 rings
6 3 4 5 6 7 8 rings

> <PUBCHEM_HEAVY_ATOM_COUNT>
30

> <PUBCHEM_ATOM_DEF_STEREO_COUNT>
0

> <PUBCHEM_ATOM_UDEF_STEREO_COUNT>
0

> <PUBCHEM_BOND_DEF_STEREO_COUNT>
0

> <PUBCHEM_BOND_UDEF_STEREO_COUNT>
1

> <PUBCHEM_ISOTOPIC_ATOM_COUNT>
0

> <PUBCHEM_COMPONENT_COUNT>
1

> <PUBCHEM_CACTVS_TAUTO_COUNT>
1

> <PUBCHEM_CONFORMER_ID>
00000D3100000001

> <PUBCHEM_MMFF94_ENERGY>
87.5069

> <PUBCHEM_FEATURE_SELFOVERLAP>
40.6

> <PUBCHEM_SHAPE_FINGERPRINT>
10050765 1 18266459802573488732
10119406 146 18341052930834133319
10305334 12 18413108381235117650
10369192 42 14045738240108175976
10622 236 18195811765356946142
10940486 97 18342736286676650637
11101153 10 8069736412684505666
11315181 36 17530683208165509056
11331351 85 17846778533966383692
11524674 6 17894352193816264132
11796584 16 18408600354049618612
11809386 21 18269273473913303634
12107183 9 18413387661688969520
12144603 126 18131063854181791276
12422481 6 17603860071450668094
12643181 29 18410575098302335308
13947934 56 18342178809017660916
14118638 360 18054504708630356780
14347332 77 18194118504080154055
14856354 85 16128645358591059641
14866123 147 18338513041588152555
15183329 4 18343018926206799920
15230672 131 18342459283362352914
15347591 1 18267303136829736988
15439362 3 18121778598337943261
16114785 44 14925040796271260699
17492 89 18049722919195805900
18608769 82 10231744583686362884
19311894 1 18340770338711881321
21781055 127 18043534026273883729
22311459 1 18339923818223122856
23522609 53 17915713476347729788
23559900 14 18335425608600647064
249057 3 18411699902365432612
2747138 104 8646477553295819988
335352 9 18413671326677144540
3383291 50 18333446535014990771
4017518 198 18113619031905928046
4073 2 18335702711674299960
44062 13 18340205189571505172
444769 64 18342735238752018552
44802255 64 17560809857353328839
484985 159 18339929212454010375
5081480 168 14836123200690801092
5085150 59 18113622278679585942
5104073 3 18187921713003043848
513202 73 18197488529142692747
531348 171 18340765949065381139
559249 180 18412262830737970313
6058803 2 18051673478494090637
6371380 46 18334020526802264392
6691757 9 18260258677135359241
7970288 3 17616532861330172998

> <PUBCHEM_SHAPE_MULTIPOLES>
592.88
21.26
4.82
1.18
46.97
6.43
-0.07
-2.9
0.36
-10.77
0.49
0.26
0.25
-0.6

> <PUBCHEM_SHAPE_SELFOVERLAP>
1273.428

> <PUBCHEM_SHAPE_VOLUME>
327.5

> <PUBCHEM_COORDINATE_TYPE>
2
5
10

$$$$

