4400
  -OEChem-06261200062D

 51 54  0     1  0  0  0  0  0999 V2000
    5.2686    1.9351    0.0000 O   0  0  0  0  0  0  0  0  0  0  0  0
    7.6146    0.8432    0.0000 O   0  0  0  0  0  0  0  0  0  0  0  0
    7.6183    3.0188    0.0000 O   0  0  0  0  0  0  0  0  0  0  0  0
    4.5726    3.9043    0.0000 O   0  0  0  0  0  0  0  0  0  0  0  0
    5.5443    0.1745    0.0000 N   0  0  0  0  0  0  0  0  0  0  0  0
    6.2208    4.4366    0.0000 N   0  0  0  0  0  0  0  0  0  0  0  0
    5.5443   -1.4350    0.0000 N   0  0  0  0  0  0  0  0  0  0  0  0
    3.7320    0.3698    0.0000 N   0  0  0  0  0  0  0  0  0  0  0  0
    3.7320   -2.6302    0.0000 N   0  0  0  0  0  0  0  0  0  0  0  0
    2.8660   -1.1302    0.0000 N   0  0  0  0  0  0  0  0  0  0  0  0
    6.8066    1.4324    0.0000 C   0  0  3  0  0  0  0  0  0  0  0  0
    5.8550    1.1250    0.0000 C   0  0  3  0  0  0  0  0  0  0  0  0
    6.8083    2.4324    0.0000 C   0  0  3  0  0  0  0  0  0  0  0  0
    5.8578    2.7431    0.0000 C   0  0  3  0  0  0  0  0  0  0  0  0
    5.5504    3.6947    0.0000 C   0  0  0  0  0  0  0  0  0  0  0  0
    4.5981   -0.1302    0.0000 C   0  0  0  0  0  0  0  0  0  0  0  0
    6.1279   -0.6302    0.0000 C   0  0  0  0  0  0  0  0  0  0  0  0
    4.5981   -1.1302    0.0000 C   0  0  0  0  0  0  0  0  0  0  0  0
    3.7320   -1.6302    0.0000 C   0  0  0  0  0  0  0  0  0  0  0  0
    5.9134    5.3882    0.0000 C   0  0  0  0  0  0  0  0  0  0  0  0
    2.8660   -0.1302    0.0000 C   0  0  0  0  0  0  0  0  0  0  0  0
    6.5838    6.1302    0.0000 C   0  0  0  0  0  0  0  0  0  0  0  0
    2.8660   -3.1302    0.0000 C   0  0  0  0  0  0  0  0  0  0  0  0
    2.8660   -4.1302    0.0000 C   0  0  0  0  0  0  0  0  0  0  0  0
    2.0000   -4.6302    0.0000 C   0  0  0  0  0  0  0  0  0  0  0  0
    3.7320   -4.6302    0.0000 C   0  0  0  0  0  0  0  0  0  0  0  0
    2.0000   -5.6302    0.0000 C   0  0  0  0  0  0  0  0  0  0  0  0
    3.7320   -5.6302    0.0000 C   0  0  0  0  0  0  0  0  0  0  0  0
    2.8660   -6.1302    0.0000 C   0  0  0  0  0  0  0  0  0  0  0  0
    7.3595    1.7129    0.0000 H   0  0  0  0  0  0  0  0  0  0  0  0
    6.2926    0.6859    0.0000 H   0  0  0  0  0  0  0  0  0  0  0  0
    6.7124    3.0449    0.0000 H   0  0  0  0  0  0  0  0  0  0  0  0
    5.2456    2.8411    0.0000 H   0  0  0  0  0  0  0  0  0  0  0  0
    8.1814    1.0944    0.0000 H   0  0  0  0  0  0  0  0  0  0  0  0
    8.1843    2.7656    0.0000 H   0  0  0  0  0  0  0  0  0  0  0  0
    6.7479   -0.6302    0.0000 H   0  0  0  0  0  0  0  0  0  0  0  0
    6.8270    4.3067    0.0000 H   0  0  0  0  0  0  0  0  0  0  0  0
    5.5326    5.8775    0.0000 H   0  0  0  0  0  0  0  0  0  0  0  0
    5.3655    5.0981    0.0000 H   0  0  0  0  0  0  0  0  0  0  0  0
    4.2690   -2.9402    0.0000 H   0  0  0  0  0  0  0  0  0  0  0  0
    2.3291    0.1798    0.0000 H   0  0  0  0  0  0  0  0  0  0  0  0
    7.0439    5.7146    0.0000 H   0  0  0  0  0  0  0  0  0  0  0  0
    6.9995    6.5902    0.0000 H   0  0  0  0  0  0  0  0  0  0  0  0
    6.1238    6.5459    0.0000 H   0  0  0  0  0  0  0  0  0  0  0  0
    2.6540   -2.5476    0.0000 H   0  0  0  0  0  0  0  0  0  0  0  0
    2.2554   -3.2379    0.0000 H   0  0  0  0  0  0  0  0  0  0  0  0
    1.4631   -4.3202    0.0000 H   0  0  0  0  0  0  0  0  0  0  0  0
    4.2690   -4.3202    0.0000 H   0  0  0  0  0  0  0  0  0  0  0  0
    1.4631   -5.9402    0.0000 H   0  0  0  0  0  0  0  0  0  0  0  0
    4.2690   -5.9402    0.0000 H   0  0  0  0  0  0  0  0  0  0  0  0
    2.8660   -6.7502    0.0000 H   0  0  0  0  0  0  0  0  0  0  0  0
  1 12  1  0  0  0  0
  1 14  1  0  0  0  0
  2 11  1  0  0  0  0
  2 34  1  0  0  0  0
  3 13  1  0  0  0  0
  3 35  1  0  0  0  0
  4 15  2  0  0  0  0
  5 12  1  0  0  0  0
  5 16  1  0  0  0  0
  5 17  1  0  0  0  0
  6 15  1  0  0  0  0
  6 20  1  0  0  0  0
  6 37  1  0  0  0  0
  7 17  2  0  0  0  0
  7 18  1  0  0  0  0
  8 16  2  0  0  0  0
  8 21  1  0  0  0  0
  9 19  1  0  0  0  0
  9 23  1  0  0  0  0
  9 40  1  0  0  0  0
 10 19  1  0  0  0  0
 10 21  2  0  0  0  0
 11 12  1  0  0  0  0
 11 13  1  0  0  0  0
 11 30  1  0  0  0  0
 12 31  1  0  0  0  0
 13 14  1  0  0  0  0
 13 32  1  0  0  0  0
 14 15  1  0  0  0  0
 14 33  1  0  0  0  0
 16 18  1  0  0  0  0
 17 36  1  0  0  0  0
 18 19  2  0  0  0  0
 20 22  1  0  0  0  0
 20 38  1  0  0  0  0
 20 39  1  0  0  0  0
 21 41  1  0  0  0  0
 22 42  1  0  0  0  0
 22 43  1  0  0  0  0
 22 44  1  0  0  0  0
 23 24  1  0  0  0  0
 23 45  1  0  0  0  0
 23 46  1  0  0  0  0
 24 25  2  0  0  0  0
 24 26  1  0  0  0  0
 25 27  1  0  0  0  0
 25 47  1  0  0  0  0
 26 28  2  0  0  0  0
 26 48  1  0  0  0  0
 27 29  2  0  0  0  0
 27 49  1  0  0  0  0
 28 29  1  0  0  0  0
 28 50  1  0  0  0  0
 29 51  1  0  0  0  0
M  END
> <PUBCHEM_COMPOUND_CID>
4400

> <PUBCHEM_COMPOUND_CANONICALIZED>
1

> <PUBCHEM_CACTVS_COMPLEXITY>
563

> <PUBCHEM_CACTVS_HBOND_ACCEPTOR>
8

> <PUBCHEM_CACTVS_HBOND_DONOR>
4

> <PUBCHEM_CACTVS_ROTATABLE_BOND>
6

> <PUBCHEM_CACTVS_SUBSKEYS>
AAADceB7uAAAAAAAAAAAAAAAAAAAAWJAAAA8QAAAAAAAAFgB/AAAHgAQCAAADBzhnwY38L/MFgCoAydzdAKCgC0xEKAJ2KFoVJiLeDbA2VWfZAhvtgLbiCe6lQIOAAAAAAAAAAAAAAAAAAAAAAAAAAAAAA==

> <PUBCHEM_IUPAC_OPENEYE_NAME>
5-[6-(benzylamino)purin-9-yl]-N-ethyl-3,4-dihydroxy-tetrahydrofuran-2-carboxamide

> <PUBCHEM_IUPAC_CAS_NAME>
N-ethyl-3,4-dihydroxy-5-[6-[(phenylmethyl)amino]-9-purinyl]-2-oxolanecarboxamide

> <PUBCHEM_IUPAC_NAME>
5-[6-(benzylamino)purin-9-yl]-N-ethyl-3,4-dihydroxyoxolane-2-carboxamide

> <PUBCHEM_IUPAC_SYSTEMATIC_NAME>
N-ethyl-3,4-bis(oxidanyl)-5-[6-[(phenylmethyl)amino]purin-9-yl]oxolane-2-carboxamide

> <PUBCHEM_IUPAC_TRADITIONAL_NAME>
5-[6-(benzylamino)purin-9-yl]-N-ethyl-3,4-dihydroxy-tetrahydrofuran-2-carboxamide

> <PUBCHEM_IUPAC_INCHI>
InChI=1S/C19H22N6O4/c1-2-20-18(28)15-13(26)14(27)19(29-15)25-10-24-12-16(22-9-23-17(12)25)21-8-11-6-4-3-5-7-11/h3-7,9-10,13-15,19,26-27H,2,8H2,1H3,(H,20,28)(H,21,22,23)

> <PUBCHEM_IUPAC_INCHIKEY>
VVHDYJFDZYHAMR-UHFFFAOYSA-N

> <PUBCHEM_XLOGP3_AA>
0.6

> <PUBCHEM_EXACT_MASS>
398.170253

> <PUBCHEM_MOLECULAR_FORMULA>
C19H22N6O4

> <PUBCHEM_MOLECULAR_WEIGHT>
398.41578

> <PUBCHEM_OPENEYE_CAN_SMILES>
CCNC(=O)C1C(C(C(O1)N2C=NC3=C2N=CN=C3NCC4=CC=CC=C4)O)O

> <PUBCHEM_OPENEYE_ISO_SMILES>
CCNC(=O)C1C(C(C(O1)N2C=NC3=C2N=CN=C3NCC4=CC=CC=C4)O)O

> <PUBCHEM_CACTVS_TPSA>
134

> <PUBCHEM_MONOISOTOPIC_WEIGHT>
398.170253

> <PUBCHEM_TOTAL_CHARGE>
0

> <PUBCHEM_HEAVY_ATOM_COUNT>
29

> <PUBCHEM_ATOM_DEF_STEREO_COUNT>
0

> <PUBCHEM_ATOM_UDEF_STEREO_COUNT>
4

> <PUBCHEM_BOND_DEF_STEREO_COUNT>
0

> <PUBCHEM_BOND_UDEF_STEREO_COUNT>
0

> <PUBCHEM_ISOTOPIC_ATOM_COUNT>
0

> <PUBCHEM_COMPONENT_COUNT>
1

> <PUBCHEM_CACTVS_TAUTO_COUNT>
6

> <PUBCHEM_COORDINATE_TYPE>
1
5
255

> <PUBCHEM_BONDANNOTATIONS>
10  19  8
10  21  8
14  15  3
16  18  8
18  19  8
11  2  3
24  25  8
24  26  8
25  27  8
26  28  8
27  29  8
28  29  8
13  3  3
12  5  3
5  16  8
5  17  8
7  17  8
7  18  8
8  16  8
8  21  8

$$$$

