5318039
  -OEChem-07051213113D

 53 54  0     1  0  0  0  0  0999 V2000
   -1.3404   -0.9128   -2.0304 O   0  0  0  0  0  0  0  0  0  0  0  0
    1.2298    0.8155   -2.2163 O   0  0  0  0  0  0  0  0  0  0  0  0
   -7.5510   -1.8202    0.9828 O   0  0  0  0  0  0  0  0  0  0  0  0
    7.6475   -1.8701    0.4292 O   0  0  0  0  0  0  0  0  0  0  0  0
   -8.5996    0.6445    1.7263 O   0  0  0  0  0  0  0  0  0  0  0  0
    8.5994    0.2812    1.9099 O   0  0  0  0  0  0  0  0  0  0  0  0
   -1.2732    0.2233   -1.1714 C   0  0  1  0  0  0  0  0  0  0  0  0
   -2.5749    0.3166   -0.3668 C   0  0  0  0  0  0  0  0  0  0  0  0
   -0.0258    0.1340   -0.2889 C   0  0  0  0  0  0  0  0  0  0  0  0
   -3.8082    0.3844   -1.2755 C   0  0  0  0  0  0  0  0  0  0  0  0
    1.2533    0.4901   -1.0295 C   0  0  0  0  0  0  0  0  0  0  0  0
    2.5495    0.3762   -0.2407 C   0  0  0  0  0  0  0  0  0  0  0  0
   -5.0851    0.4500   -0.4760 C   0  0  0  0  0  0  0  0  0  0  0  0
    3.7921    0.7679   -1.0421 C   0  0  0  0  0  0  0  0  0  0  0  0
    5.0745    0.6345   -0.2557 C   0  0  0  0  0  0  0  0  0  0  0  0
   -5.7399   -0.7257   -0.1094 C   0  0  0  0  0  0  0  0  0  0  0  0
   -5.6114    1.6868   -0.1028 C   0  0  0  0  0  0  0  0  0  0  0  0
    5.7813   -0.5679   -0.2724 C   0  0  0  0  0  0  0  0  0  0  0  0
   -6.9208   -0.6649    0.6306 C   0  0  0  0  0  0  0  0  0  0  0  0
    5.5522    1.7140    0.4874 C   0  0  0  0  0  0  0  0  0  0  0  0
   -6.7925    1.7476    0.6368 C   0  0  0  0  0  0  0  0  0  0  0  0
   -7.4472    0.5718    1.0036 C   0  0  0  0  0  0  0  0  0  0  0  0
    6.9661   -0.6907    0.4537 C   0  0  0  0  0  0  0  0  0  0  0  0
    6.7366    1.5910    1.2138 C   0  0  0  0  0  0  0  0  0  0  0  0
    7.4437    0.3887    1.1967 C   0  0  0  0  0  0  0  0  0  0  0  0
   -6.9474   -3.0420    0.5621 C   0  0  0  0  0  0  0  0  0  0  0  0
    7.0915   -2.9238   -0.3549 C   0  0  0  0  0  0  0  0  0  0  0  0
   -1.2164    1.1098   -1.8150 H   0  0  0  0  0  0  0  0  0  0  0  0
   -2.5420    1.1949    0.2896 H   0  0  0  0  0  0  0  0  0  0  0  0
   -2.6599   -0.5662    0.2807 H   0  0  0  0  0  0  0  0  0  0  0  0
   -0.1089    0.8341    0.5497 H   0  0  0  0  0  0  0  0  0  0  0  0
    0.0882   -0.8834    0.1014 H   0  0  0  0  0  0  0  0  0  0  0  0
   -3.7421    1.2616   -1.9319 H   0  0  0  0  0  0  0  0  0  0  0  0
   -3.8494   -0.4850   -1.9433 H   0  0  0  0  0  0  0  0  0  0  0  0
    2.6388   -0.6612    0.1026 H   0  0  0  0  0  0  0  0  0  0  0  0
    2.4592    1.0181    0.6434 H   0  0  0  0  0  0  0  0  0  0  0  0
    3.6926    1.8010   -1.4009 H   0  0  0  0  0  0  0  0  0  0  0  0
    3.8589    0.1560   -1.9515 H   0  0  0  0  0  0  0  0  0  0  0  0
   -0.5278   -0.9274   -2.5640 H   0  0  0  0  0  0  0  0  0  0  0  0
   -5.2821   -1.6570   -0.4256 H   0  0  0  0  0  0  0  0  0  0  0  0
   -5.1093    2.6096   -0.3810 H   0  0  0  0  0  0  0  0  0  0  0  0
    5.3595   -1.3722   -0.8657 H   0  0  0  0  0  0  0  0  0  0  0  0
    5.0091    2.6551    0.5096 H   0  0  0  0  0  0  0  0  0  0  0  0
   -7.1912    2.7178    0.9212 H   0  0  0  0  0  0  0  0  0  0  0  0
    7.0971    2.4398    1.7889 H   0  0  0  0  0  0  0  0  0  0  0  0
   -8.8112    1.5793    1.8919 H   0  0  0  0  0  0  0  0  0  0  0  0
   -7.5810   -3.8567    0.9281 H   0  0  0  0  0  0  0  0  0  0  0  0
   -5.9595   -3.1811    1.0142 H   0  0  0  0  0  0  0  0  0  0  0  0
   -6.9229   -3.1255   -0.5298 H   0  0  0  0  0  0  0  0  0  0  0  0
    8.7731    1.1255    2.3605 H   0  0  0  0  0  0  0  0  0  0  0  0
    7.7624   -3.7841   -0.2597 H   0  0  0  0  0  0  0  0  0  0  0  0
    7.0596   -2.6626   -1.4182 H   0  0  0  0  0  0  0  0  0  0  0  0
    6.1148   -3.2397    0.0274 H   0  0  0  0  0  0  0  0  0  0  0  0
  1  7  1  0  0  0  0
  1 39  1  0  0  0  0
  2 11  2  0  0  0  0
  3 19  1  0  0  0  0
  3 26  1  0  0  0  0
  4 23  1  0  0  0  0
  4 27  1  0  0  0  0
  5 22  1  0  0  0  0
  5 46  1  0  0  0  0
  6 25  1  0  0  0  0
  6 50  1  0  0  0  0
  7  8  1  0  0  0  0
  7  9  1  0  0  0  0
  7 28  1  0  0  0  0
  8 10  1  0  0  0  0
  8 29  1  0  0  0  0
  8 30  1  0  0  0  0
  9 11  1  0  0  0  0
  9 31  1  0  0  0  0
  9 32  1  0  0  0  0
 10 13  1  0  0  0  0
 10 33  1  0  0  0  0
 10 34  1  0  0  0  0
 11 12  1  0  0  0  0
 12 14  1  0  0  0  0
 12 35  1  0  0  0  0
 12 36  1  0  0  0  0
 13 16  2  0  0  0  0
 13 17  1  0  0  0  0
 14 15  1  0  0  0  0
 14 37  1  0  0  0  0
 14 38  1  0  0  0  0
 15 18  2  0  0  0  0
 15 20  1  0  0  0  0
 16 19  1  0  0  0  0
 16 40  1  0  0  0  0
 17 21  2  0  0  0  0
 17 41  1  0  0  0  0
 18 23  1  0  0  0  0
 18 42  1  0  0  0  0
 19 22  2  0  0  0  0
 20 24  2  0  0  0  0
 20 43  1  0  0  0  0
 21 22  1  0  0  0  0
 21 44  1  0  0  0  0
 23 25  2  0  0  0  0
 24 25  1  0  0  0  0
 24 45  1  0  0  0  0
 26 47  1  0  0  0  0
 26 48  1  0  0  0  0
 26 49  1  0  0  0  0
 27 51  1  0  0  0  0
 27 52  1  0  0  0  0
 27 53  1  0  0  0  0
M  END
> <PUBCHEM_COMPOUND_CID>
5318039

> <PUBCHEM_CONFORMER_RMSD>
1.4

> <PUBCHEM_CONFORMER_DIVERSEORDER>
2
97
39
37
64
126
50
83
96
82
20
61
111
81
35
94
19
78
132
24
36
74
104
54
51
69
33
42
89
109
41
87
118
63
98
9
29
112
115
32
117
102
105
130
13
71
60
120
119
45
31
103
121
95
21
14
12
127
125
88
107
122
1
85
58
90
86
16
67
30
47
114
92
76
15
28
106
62
48
10
123
128
73
116
72
79
17
34
7
22
52
40
124
59
110
80
131
3
77
18
68
99
75
113
11
23
46
108
27
93
38
53
84
101
57
44
4
100
129
70
25
49
43
26
91
6
5
55
56
8
65
66

> <PUBCHEM_MMFF94_PARTIAL_CHARGES>
35
1 -0.68
10 0.14
11 0.45
12 0.06
13 -0.14
14 0.14
15 -0.14
16 -0.15
17 -0.15
18 -0.15
19 0.08
2 -0.57
20 -0.15
21 -0.15
22 0.08
23 0.08
24 -0.15
25 0.08
26 0.28
27 0.28
3 -0.36
39 0.4
4 -0.36
40 0.15
41 0.15
42 0.15
43 0.15
44 0.15
45 0.15
46 0.45
5 -0.53
50 0.45
6 -0.53
7 0.28
9 0.06

> <PUBCHEM_EFFECTIVE_ROTOR_COUNT>
10

> <PUBCHEM_PHARMACOPHORE_FEATURES>
9
1 1 acceptor
1 1 donor
1 2 acceptor
1 3 acceptor
1 4 acceptor
1 5 donor
1 6 donor
6 13 16 17 19 21 22 rings
6 15 18 20 23 24 25 rings

> <PUBCHEM_HEAVY_ATOM_COUNT>
27

> <PUBCHEM_ATOM_DEF_STEREO_COUNT>
0

> <PUBCHEM_ATOM_UDEF_STEREO_COUNT>
1

> <PUBCHEM_BOND_DEF_STEREO_COUNT>
0

> <PUBCHEM_BOND_UDEF_STEREO_COUNT>
0

> <PUBCHEM_ISOTOPIC_ATOM_COUNT>
0

> <PUBCHEM_COMPONENT_COUNT>
1

> <PUBCHEM_CACTVS_TAUTO_COUNT>
24

> <PUBCHEM_CONFORMER_ID>
0051259700000002

> <PUBCHEM_MMFF94_ENERGY>
78.409

> <PUBCHEM_FEATURE_SELFOVERLAP>
45.669

> <PUBCHEM_SHAPE_FINGERPRINT>
10 15 17894909612062979661
10100884 174 18051418371129134175
10299344 5 17847057778952181141
10533779 47 18336536222270120123
11135926 11 17989212555951995163
11200772 48 7060368241702071533
11315181 36 6483353314669183081
11386260 185 10303806623654128866
11408170 132 9439412328366571466
11456790 92 17749113309705618064
13627175 4 16988575627873807074
13673619 4 16200434667180144140
13782708 43 16128662937485747765
14251764 18 17561360656263968852
14344974 204 18197490736967574187
14849402 71 18199461061245243813
15183329 4 15913611657237524576
15352257 5 17703791435402060890
15554971 5 14345799374117267381
15716309 27 17561078091051289293
1577012 14 17095531673505728036
15979999 66 10879985848323221110
16994733 274 4678827125232721567
1754908 1 18408605842179124954
1754911 235 8646770002082218250
1818759 1 15841545284850920017
195137 175 6627476215810074427
2026 5 16127828486318795914
20554085 129 14707216543365818126
21130935 74 18411981360251704530
21150785 3 10519981565112381108
21585481 151 18272366494928042006
21781051 124 16200424802304604378
22956985 138 15623158224258961738
23569943 247 17627520663969342218
23576562 1 8285614504449360585
24204213 200 16443341013930689254
246663 6 16415477164156740988
3383291 50 17489868224266909867
4093350 32 18113339743526577574
4107672 100 10159699080303035649
4516262 110 5400261759367352435
4616759 239 17967522481681085691
504843 32 15574721257662602845
5470011 282 11384111951374880624
5758199 1 14056715747178044101
5937810 71 9006788596535362479
636775 72 17023455465739384073
636783 248 16732708221782875474
9831232 110 18130787927859917182
9953998 17 18409444787886183449

> <PUBCHEM_SHAPE_MULTIPOLES>
520.43
32.76
2.16
1.52
1.12
1.79
0.2
6.41
-18.28
-0.25
-0.42
0.17
-0.2
1.11

> <PUBCHEM_SHAPE_SELFOVERLAP>
1082.632

> <PUBCHEM_SHAPE_VOLUME>
296

> <PUBCHEM_COORDINATE_TYPE>
2
5
10

$$$$

