5479
  -OEChem-06261200423D

 29 29  0     0  0  0  0  0  0999 V2000
    2.7258   -0.0270    0.2587 S   0  0  0  0  0  0  0  0  0  0  0  0
    2.8125    1.2555    0.9368 O   0  0  0  0  0  0  0  0  0  0  0  0
    3.0849   -1.2540    0.9494 O   0  0  0  0  0  0  0  0  0  0  0  0
   -2.8271    2.6815   -0.2685 O   0  5  0  0  0  0  0  0  0  0  0  0
   -0.8054    2.2192    0.4641 O   0  0  0  0  0  0  0  0  0  0  0  0
   -1.3154   -0.5096    0.2211 N   0  0  0  0  0  0  0  0  0  0  0  0
   -3.1332   -1.5580   -0.4665 N   0  0  0  0  0  0  0  0  0  0  0  0
   -1.9352    1.8406    0.0412 N   0  3  0  0  0  0  0  0  0  0  0  0
    1.0882   -0.2079   -0.3739 C   0  0  0  0  0  0  0  0  0  0  0  0
    0.0405   -0.3160    0.7249 C   0  0  0  0  0  0  0  0  0  0  0  0
    3.7247    0.0740   -1.2091 C   0  0  0  0  0  0  0  0  0  0  0  0
   -1.9063   -1.7098   -0.0195 C   0  0  0  0  0  0  0  0  0  0  0  0
   -2.2022    0.4731   -0.0851 C   0  0  0  0  0  0  0  0  0  0  0  0
    5.1903    0.2349   -0.8727 C   0  0  0  0  0  0  0  0  0  0  0  0
   -3.3236   -0.1995   -0.5103 C   0  0  0  0  0  0  0  0  0  0  0  0
   -1.2187   -2.9970    0.2094 C   0  0  0  0  0  0  0  0  0  0  0  0
    1.0825   -1.1024   -1.0053 H   0  0  0  0  0  0  0  0  0  0  0  0
    0.8914    0.6570   -1.0154 H   0  0  0  0  0  0  0  0  0  0  0  0
    0.2725   -1.1965    1.3379 H   0  0  0  0  0  0  0  0  0  0  0  0
    0.0726    0.4926    1.4573 H   0  0  0  0  0  0  0  0  0  0  0  0
    3.5623   -0.8431   -1.7830 H   0  0  0  0  0  0  0  0  0  0  0  0
    3.3698    0.9291   -1.7919 H   0  0  0  0  0  0  0  0  0  0  0  0
    5.7865    0.2950   -1.7883 H   0  0  0  0  0  0  0  0  0  0  0  0
    5.3658    1.1462   -0.2921 H   0  0  0  0  0  0  0  0  0  0  0  0
    5.5567   -0.6117   -0.2831 H   0  0  0  0  0  0  0  0  0  0  0  0
   -4.2618    0.2189   -0.8463 H   0  0  0  0  0  0  0  0  0  0  0  0
   -0.2702   -3.0479   -0.3332 H   0  0  0  0  0  0  0  0  0  0  0  0
   -1.0283   -3.1558    1.2753 H   0  0  0  0  0  0  0  0  0  0  0  0
   -1.8416   -3.8267   -0.1409 H   0  0  0  0  0  0  0  0  0  0  0  0
  1  2  2  0  0  0  0
  1  3  2  0  0  0  0
  1  9  1  0  0  0  0
  1 11  1  0  0  0  0
  4  8  1  0  0  0  0
  5  8  2  0  0  0  0
  6 10  1  0  0  0  0
  6 12  1  0  0  0  0
  6 13  1  0  0  0  0
  7 12  2  0  0  0  0
  7 15  1  0  0  0  0
  8 13  1  0  0  0  0
  9 10  1  0  0  0  0
  9 17  1  0  0  0  0
  9 18  1  0  0  0  0
 10 19  1  0  0  0  0
 10 20  1  0  0  0  0
 11 14  1  0  0  0  0
 11 21  1  0  0  0  0
 11 22  1  0  0  0  0
 12 16  1  0  0  0  0
 13 15  2  0  0  0  0
 14 23  1  0  0  0  0
 14 24  1  0  0  0  0
 14 25  1  0  0  0  0
 15 26  1  0  0  0  0
 16 27  1  0  0  0  0
 16 28  1  0  0  0  0
 16 29  1  0  0  0  0
M  CHG  2   4  -1   8   1
M  END
> <PUBCHEM_COMPOUND_CID>
5479

> <PUBCHEM_CONFORMER_RMSD>
0.6

> <PUBCHEM_CONFORMER_DIVERSEORDER>
1
7
15
14
12
6
9
3
5
13
8
4
2
11
10

> <PUBCHEM_MMFF94_PARTIAL_CHARGES>
16
1 1.09
10 0.26
11 0.11
12 0.01
13 -0.07
15 0.08
16 0.18
2 -0.65
26 0.15
3 -0.65
4 -0.52
5 -0.52
6 0.05
7 -0.57
8 0.96
9 0.11

> <PUBCHEM_EFFECTIVE_ROTOR_COUNT>
5

> <PUBCHEM_PHARMACOPHORE_FEATURES>
7
1 2 acceptor
1 3 acceptor
1 4 acceptor
1 4 anion
1 5 acceptor
3 6 7 12 cation
5 6 7 12 13 15 rings

> <PUBCHEM_HEAVY_ATOM_COUNT>
16

> <PUBCHEM_ATOM_DEF_STEREO_COUNT>
0

> <PUBCHEM_ATOM_UDEF_STEREO_COUNT>
0

> <PUBCHEM_BOND_DEF_STEREO_COUNT>
0

> <PUBCHEM_BOND_UDEF_STEREO_COUNT>
0

> <PUBCHEM_ISOTOPIC_ATOM_COUNT>
0

> <PUBCHEM_COMPONENT_COUNT>
1

> <PUBCHEM_CACTVS_TAUTO_COUNT>
1

> <PUBCHEM_CONFORMER_ID>
0000156700000001

> <PUBCHEM_MMFF94_ENERGY>
21.1633

> <PUBCHEM_FEATURE_SELFOVERLAP>
35.618

> <PUBCHEM_SHAPE_FINGERPRINT>
12173636 292 18339652225480181901
12186901 62 18335133219689134500
12500047 106 18410575123750359926
12932764 1 18409163307781036418
15669948 3 18411705374185117382
15775835 57 18129939112845200700
16752209 62 18338811090463577315
16945 1 18340209600597818235
18186145 218 18040718077872849050
20300324 65 18411695465916858476
20510252 161 18334859424319658033
20645476 183 18201433700920721495
20645477 56 18409722993343177492
20645477 70 16805593807620375070
20871999 31 18335419075458828853
21061003 4 16950276269827183107
21501502 16 18269559493286789954
21524375 3 17982456193931570745
22094290 60 18409440363326018078
23402539 116 18335989696640572487
23557571 272 18259985946923143912
23559900 14 18335425634554228776
23598291 2 17916874646151038002
23598294 1 18412263956108962683
2748010 2 17905057954037122915
559249 180 18267585887564676366
573450 72 18343029917101535010
6049 1 17968376758543384128
8030462 33 18273496758521150826
81228 2 18410290277161115993

> <PUBCHEM_SHAPE_MULTIPOLES>
294.7
7.71
2.51
0.92
8.72
0.13
-0.03
0.46
-2.19
-2.85
0.25
0.74
-0.02
-0.09

> <PUBCHEM_SHAPE_SELFOVERLAP>
584.618

> <PUBCHEM_SHAPE_VOLUME>
177.5

> <PUBCHEM_COORDINATE_TYPE>
2
5
10

$$$$

