14730337
  -OEChem-07051213083D

 99 99  0     0  0  0  0  0  0999 V2000
  -15.8202   -2.7841    1.0752 O   0  0  0  0  0  0  0  0  0  0  0  0
   13.0924   -1.8915    0.5415 C   0  0  0  0  0  0  0  0  0  0  0  0
   14.5692   -1.4374    0.7024 C   0  0  0  0  0  0  0  0  0  0  0  0
   14.6832   -0.0801    1.3730 C   0  0  0  0  0  0  0  0  0  0  0  0
   12.1951   -0.7398    0.0304 C   0  0  0  0  0  0  0  0  0  0  0  0
   13.9700    0.9743    0.5402 C   0  0  0  0  0  0  0  0  0  0  0  0
   12.6148    0.5505    0.0108 C   0  0  0  0  0  0  0  0  0  0  0  0
   12.5674   -2.3880    1.9083 C   0  0  0  0  0  0  0  0  0  0  0  0
   13.1191   -3.0889   -0.4397 C   0  0  0  0  0  0  0  0  0  0  0  0
   10.8624   -1.1261   -0.4035 C   0  0  0  0  0  0  0  0  0  0  0  0
   11.8276    1.7267   -0.5193 C   0  0  0  0  0  0  0  0  0  0  0  0
    9.7623   -0.4080   -0.1254 C   0  0  0  0  0  0  0  0  0  0  0  0
    8.3918   -0.7349   -0.5201 C   0  0  0  0  0  0  0  0  0  0  0  0
  -16.0210   -1.4046    0.7400 C   0  0  0  0  0  0  0  0  0  0  0  0
    8.1802   -2.0042   -1.3130 C   0  0  0  0  0  0  0  0  0  0  0  0
  -14.9786   -1.0350   -0.3336 C   0  0  0  0  0  0  0  0  0  0  0  0
    7.3146    0.0211   -0.2156 C   0  0  0  0  0  0  0  0  0  0  0  0
  -13.5143   -1.1939    0.0861 C   0  0  0  0  0  0  0  0  0  0  0  0
  -12.5720   -0.7237   -1.0289 C   0  0  0  0  0  0  0  0  0  0  0  0
  -15.8300   -0.6078    2.0303 C   0  0  0  0  0  0  0  0  0  0  0  0
  -17.4576   -1.2588    0.2334 C   0  0  0  0  0  0  0  0  0  0  0  0
  -11.1063   -0.8937   -0.6815 C   0  0  0  0  0  0  0  0  0  0  0  0
    5.9247   -0.2130   -0.5567 C   0  0  0  0  0  0  0  0  0  0  0  0
  -10.6666   -2.3060   -0.3942 C   0  0  0  0  0  0  0  0  0  0  0  0
  -10.2009    0.1052   -0.6749 C   0  0  0  0  0  0  0  0  0  0  0  0
    4.9358    0.6208   -0.1924 C   0  0  0  0  0  0  0  0  0  0  0  0
   -8.7859   -0.0142   -0.4127 C   0  0  0  0  0  0  0  0  0  0  0  0
    3.5238    0.4271   -0.5139 C   0  0  0  0  0  0  0  0  0  0  0  0
   -7.8531    0.9518   -0.3964 C   0  0  0  0  0  0  0  0  0  0  0  0
    3.2678   -0.7960   -1.3528 C   0  0  0  0  0  0  0  0  0  0  0  0
    2.5961    1.3165   -0.1069 C   0  0  0  0  0  0  0  0  0  0  0  0
   -6.4203    0.8588   -0.1352 C   0  0  0  0  0  0  0  0  0  0  0  0
    1.1690    1.2804   -0.3527 C   0  0  0  0  0  0  0  0  0  0  0  0
   -5.8314   -0.5182    0.0507 C   0  0  0  0  0  0  0  0  0  0  0  0
   -5.5950    1.9268   -0.1527 C   0  0  0  0  0  0  0  0  0  0  0  0
    0.3372    2.2295    0.1063 C   0  0  0  0  0  0  0  0  0  0  0  0
   -4.1659    1.9394    0.0921 C   0  0  0  0  0  0  0  0  0  0  0  0
   -3.4304    3.0624    0.0509 C   0  0  0  0  0  0  0  0  0  0  0  0
   -1.0941    2.2083   -0.1227 C   0  0  0  0  0  0  0  0  0  0  0  0
   -1.9973    3.1157    0.2998 C   0  0  0  0  0  0  0  0  0  0  0  0
   -1.5632    4.3325    1.0734 C   0  0  0  0  0  0  0  0  0  0  0  0
   15.0533   -1.3807   -0.2826 H   0  0  0  0  0  0  0  0  0  0  0  0
   15.1374   -2.1775    1.2802 H   0  0  0  0  0  0  0  0  0  0  0  0
   15.7383    0.1946    1.4870 H   0  0  0  0  0  0  0  0  0  0  0  0
   14.2590   -0.1129    2.3830 H   0  0  0  0  0  0  0  0  0  0  0  0
   14.6022    1.2458   -0.3152 H   0  0  0  0  0  0  0  0  0  0  0  0
   13.8611    1.8765    1.1549 H   0  0  0  0  0  0  0  0  0  0  0  0
   13.2259   -3.1561    2.3295 H   0  0  0  0  0  0  0  0  0  0  0  0
   11.5695   -2.8328    1.8169 H   0  0  0  0  0  0  0  0  0  0  0  0
   12.4940   -1.5739    2.6375 H   0  0  0  0  0  0  0  0  0  0  0  0
   13.8822   -3.8190   -0.1437 H   0  0  0  0  0  0  0  0  0  0  0  0
   13.3511   -2.7631   -1.4603 H   0  0  0  0  0  0  0  0  0  0  0  0
   12.1672   -3.6301   -0.4622 H   0  0  0  0  0  0  0  0  0  0  0  0
   10.7900   -2.0208   -1.0106 H   0  0  0  0  0  0  0  0  0  0  0  0
   11.3257    2.2556    0.2970 H   0  0  0  0  0  0  0  0  0  0  0  0
   11.1032    1.4569   -1.2917 H   0  0  0  0  0  0  0  0  0  0  0  0
   12.5052    2.4393   -1.0053 H   0  0  0  0  0  0  0  0  0  0  0  0
    9.8317    0.4711    0.5113 H   0  0  0  0  0  0  0  0  0  0  0  0
  -15.1448   -1.6671   -1.2163 H   0  0  0  0  0  0  0  0  0  0  0  0
  -15.1502    0.0019   -0.6505 H   0  0  0  0  0  0  0  0  0  0  0  0
    8.5795   -2.8618   -0.7576 H   0  0  0  0  0  0  0  0  0  0  0  0
    7.1535   -2.2719   -1.5560 H   0  0  0  0  0  0  0  0  0  0  0  0
    8.7122   -1.9385   -2.2696 H   0  0  0  0  0  0  0  0  0  0  0  0
  -13.3073   -0.6012    0.9839 H   0  0  0  0  0  0  0  0  0  0  0  0
  -13.3224   -2.2424    0.3393 H   0  0  0  0  0  0  0  0  0  0  0  0
    7.4906    0.9311    0.3592 H   0  0  0  0  0  0  0  0  0  0  0  0
  -12.7812    0.3291   -1.2569 H   0  0  0  0  0  0  0  0  0  0  0  0
  -12.7779   -1.2860   -1.9486 H   0  0  0  0  0  0  0  0  0  0  0  0
  -15.8542    0.4704    1.8421 H   0  0  0  0  0  0  0  0  0  0  0  0
  -16.6199   -0.8435    2.7536 H   0  0  0  0  0  0  0  0  0  0  0  0
  -14.8895   -0.8604    2.5307 H   0  0  0  0  0  0  0  0  0  0  0  0
  -18.1806   -1.5882    0.9883 H   0  0  0  0  0  0  0  0  0  0  0  0
  -17.6828   -0.2215   -0.0345 H   0  0  0  0  0  0  0  0  0  0  0  0
  -17.6224   -1.8885   -0.6483 H   0  0  0  0  0  0  0  0  0  0  0  0
    5.6959   -1.0974   -1.1308 H   0  0  0  0  0  0  0  0  0  0  0  0
  -16.4718   -3.0282    1.7547 H   0  0  0  0  0  0  0  0  0  0  0  0
  -10.6263   -2.4836    0.6852 H   0  0  0  0  0  0  0  0  0  0  0  0
  -11.3733   -3.0250   -0.8249 H   0  0  0  0  0  0  0  0  0  0  0  0
   -9.7010   -2.5563   -0.8431 H   0  0  0  0  0  0  0  0  0  0  0  0
  -10.5465    1.1115   -0.9054 H   0  0  0  0  0  0  0  0  0  0  0  0
    5.1787    1.5099    0.3875 H   0  0  0  0  0  0  0  0  0  0  0  0
   -8.4412   -1.0159   -0.1732 H   0  0  0  0  0  0  0  0  0  0  0  0
   -8.1979    1.9645   -0.6112 H   0  0  0  0  0  0  0  0  0  0  0  0
    3.5501   -1.7108   -0.8191 H   0  0  0  0  0  0  0  0  0  0  0  0
    3.8027   -0.7457   -2.3083 H   0  0  0  0  0  0  0  0  0  0  0  0
    2.2126   -0.9175   -1.6115 H   0  0  0  0  0  0  0  0  0  0  0  0
    2.9322    2.1706    0.4822 H   0  0  0  0  0  0  0  0  0  0  0  0
    0.7639    0.4498   -0.9208 H   0  0  0  0  0  0  0  0  0  0  0  0
   -6.2097   -1.2016   -0.7192 H   0  0  0  0  0  0  0  0  0  0  0  0
   -4.7467   -0.5906   -0.0305 H   0  0  0  0  0  0  0  0  0  0  0  0
   -6.1173   -0.9175    1.0303 H   0  0  0  0  0  0  0  0  0  0  0  0
   -6.0343    2.9064   -0.3430 H   0  0  0  0  0  0  0  0  0  0  0  0
    0.7491    3.0614    0.6697 H   0  0  0  0  0  0  0  0  0  0  0  0
   -3.6668    1.0141    0.3526 H   0  0  0  0  0  0  0  0  0  0  0  0
   -3.9054    4.0151   -0.1755 H   0  0  0  0  0  0  0  0  0  0  0  0
   -1.4514    1.3561   -0.7003 H   0  0  0  0  0  0  0  0  0  0  0  0
   -0.7913    4.1031    1.8148 H   0  0  0  0  0  0  0  0  0  0  0  0
   -2.3957    4.7652    1.6415 H   0  0  0  0  0  0  0  0  0  0  0  0
   -1.1894    5.1050    0.3930 H   0  0  0  0  0  0  0  0  0  0  0  0
  1 14  1  0  0  0  0
  1 76  1  0  0  0  0
  2  3  1  0  0  0  0
  2  5  1  0  0  0  0
  2  8  1  0  0  0  0
  2  9  1  0  0  0  0
  3  4  1  0  0  0  0
  3 42  1  0  0  0  0
  3 43  1  0  0  0  0
  4  6  1  0  0  0  0
  4 44  1  0  0  0  0
  4 45  1  0  0  0  0
  5  7  2  0  0  0  0
  5 10  1  0  0  0  0
  6  7  1  0  0  0  0
  6 46  1  0  0  0  0
  6 47  1  0  0  0  0
  7 11  1  0  0  0  0
  8 48  1  0  0  0  0
  8 49  1  0  0  0  0
  8 50  1  0  0  0  0
  9 51  1  0  0  0  0
  9 52  1  0  0  0  0
  9 53  1  0  0  0  0
 10 12  2  0  0  0  0
 10 54  1  0  0  0  0
 11 55  1  0  0  0  0
 11 56  1  0  0  0  0
 11 57  1  0  0  0  0
 12 13  1  0  0  0  0
 12 58  1  0  0  0  0
 13 15  1  0  0  0  0
 13 17  2  0  0  0  0
 14 16  1  0  0  0  0
 14 20  1  0  0  0  0
 14 21  1  0  0  0  0
 15 61  1  0  0  0  0
 15 62  1  0  0  0  0
 15 63  1  0  0  0  0
 16 18  1  0  0  0  0
 16 59  1  0  0  0  0
 16 60  1  0  0  0  0
 17 23  1  0  0  0  0
 17 66  1  0  0  0  0
 18 19  1  0  0  0  0
 18 64  1  0  0  0  0
 18 65  1  0  0  0  0
 19 22  1  0  0  0  0
 19 67  1  0  0  0  0
 19 68  1  0  0  0  0
 20 69  1  0  0  0  0
 20 70  1  0  0  0  0
 20 71  1  0  0  0  0
 21 72  1  0  0  0  0
 21 73  1  0  0  0  0
 21 74  1  0  0  0  0
 22 24  1  0  0  0  0
 22 25  2  0  0  0  0
 23 26  2  0  0  0  0
 23 75  1  0  0  0  0
 24 77  1  0  0  0  0
 24 78  1  0  0  0  0
 24 79  1  0  0  0  0
 25 27  1  0  0  0  0
 25 80  1  0  0  0  0
 26 28  1  0  0  0  0
 26 81  1  0  0  0  0
 27 29  2  0  0  0  0
 27 82  1  0  0  0  0
 28 30  1  0  0  0  0
 28 31  2  0  0  0  0
 29 32  1  0  0  0  0
 29 83  1  0  0  0  0
 30 84  1  0  0  0  0
 30 85  1  0  0  0  0
 30 86  1  0  0  0  0
 31 33  1  0  0  0  0
 31 87  1  0  0  0  0
 32 34  1  0  0  0  0
 32 35  2  0  0  0  0
 33 36  2  0  0  0  0
 33 88  1  0  0  0  0
 34 89  1  0  0  0  0
 34 90  1  0  0  0  0
 34 91  1  0  0  0  0
 35 37  1  0  0  0  0
 35 92  1  0  0  0  0
 36 39  1  0  0  0  0
 36 93  1  0  0  0  0
 37 38  2  0  0  0  0
 37 94  1  0  0  0  0
 38 40  1  0  0  0  0
 38 95  1  0  0  0  0
 39 40  2  0  0  0  0
 39 96  1  0  0  0  0
 40 41  1  0  0  0  0
 41 97  1  0  0  0  0
 41 98  1  0  0  0  0
 41 99  1  0  0  0  0
M  END
> <PUBCHEM_COMPOUND_CID>
14730337

> <PUBCHEM_CONFORMER_RMSD>
1.4

> <PUBCHEM_CONFORMER_DIVERSEORDER>
15
85
53
7
76
46
25
84
51
33
95
55
4
12
99
27
64
90
17
8
82
73
54
79
5
86
93
36
29
58
100
42
24
39
97
43
80
1
50
3
48
77
89
63
72
70
23
47
16
81
88
26
65
101
57
96
87
30
91
52
94
49
21
19
37
45
10
68
22
74
98
11
92
61
14
18
34
83
31
62
66
35
78
60
59
20
28
71
75
40
9
6
32
67
44
56
2
69
13
38
41

> <PUBCHEM_MMFF94_PARTIAL_CHARGES>
49
1 -0.68
10 -0.15
11 0.14
12 -0.15
13 -0.14
14 0.28
15 0.14
17 -0.15
19 0.14
2 0.14
22 -0.28
23 -0.15
24 0.14
25 -0.15
26 -0.15
27 -0.15
28 -0.14
29 -0.15
30 0.14
31 -0.15
32 -0.14
33 -0.15
34 0.14
35 -0.15
36 -0.15
37 -0.15
38 -0.15
39 -0.15
40 -0.14
41 0.14
5 -0.14
54 0.15
58 0.15
6 0.14
66 0.15
7 -0.28
75 0.15
76 0.4
80 0.15
81 0.15
82 0.15
83 0.15
87 0.15
88 0.15
92 0.15
93 0.15
94 0.15
95 0.15
96 0.15

> <PUBCHEM_EFFECTIVE_ROTOR_COUNT>
14.8

> <PUBCHEM_PHARMACOPHORE_FEATURES>
11
1 1 acceptor
1 1 donor
1 15 hydrophobe
1 24 hydrophobe
1 30 hydrophobe
1 34 hydrophobe
1 41 hydrophobe
3 14 20 21 hydrophobe
3 2 8 9 hydrophobe
4 16 18 19 22 hydrophobe
6 2 3 4 5 6 7 rings

> <PUBCHEM_HEAVY_ATOM_COUNT>
41

> <PUBCHEM_ATOM_DEF_STEREO_COUNT>
0

> <PUBCHEM_ATOM_UDEF_STEREO_COUNT>
0

> <PUBCHEM_BOND_DEF_STEREO_COUNT>
10

> <PUBCHEM_BOND_UDEF_STEREO_COUNT>
0

> <PUBCHEM_ISOTOPIC_ATOM_COUNT>
0

> <PUBCHEM_COMPONENT_COUNT>
1

> <PUBCHEM_CACTVS_TAUTO_COUNT>
1

> <PUBCHEM_CONFORMER_ID>
00E0C4610000000F

> <PUBCHEM_MMFF94_ENERGY>
102.9326

> <PUBCHEM_FEATURE_SELFOVERLAP>
55.824

> <PUBCHEM_SHAPE_FINGERPRINT>
11421887 21 12463576205749610823
11828042 206 10591747785524714862
12013929 2 11815890177184617308
12013929 94 18334013921611548124
12559415 86 7276837884082253464
13740195 50 18409167732631462240
21026386 39 17989492940291687394
21102433 48 18343305907837921514
21360443 89 18408325505822915060
23399689 5 8646771101842031819
3991529 128 6771865173448510941

> <PUBCHEM_SHAPE_MULTIPOLES>
837.89
104.9
3.36
1.14
144.23
2.05
-0.35
-89.99
-27.41
0.76
-0.71
0.03
-0.43
0.21

> <PUBCHEM_SHAPE_SELFOVERLAP>
1666.248

> <PUBCHEM_SHAPE_VOLUME>
497.1

> <PUBCHEM_COORDINATE_TYPE>
2
5
10

$$$$

