47205451
  -OEChem-06241222583D

 37 38  0     0  0  0  0  0  0999 V2000
    4.8361    0.1956    0.5283 S   0  0  0  0  0  0  0  0  0  0  0  0
    5.8102    1.2681    0.5678 O   0  0  0  0  0  0  0  0  0  0  0  0
    5.1233   -1.0973    1.1178 O   0  0  0  0  0  0  0  0  0  0  0  0
   -0.3902    1.2759   -0.9331 O   0  0  0  0  0  0  0  0  0  0  0  0
    1.9376   -0.1733   -0.6020 N   0  0  0  0  0  0  0  0  0  0  0  0
   -1.6195   -0.6294   -0.3248 N   0  0  0  0  0  0  0  0  0  0  0  0
    3.3179    0.8037    1.2228 C   0  0  0  0  0  0  0  0  0  0  0  0
    4.3584   -0.0531   -1.1648 C   0  0  0  0  0  0  0  0  0  0  0  0
    2.1369   -0.0866    0.8550 C   0  0  0  0  0  0  0  0  0  0  0  0
    3.0629   -0.8490   -1.2708 C   0  0  0  0  0  0  0  0  0  0  0  0
    0.6883   -0.8819   -0.8921 C   0  0  0  0  0  0  0  0  0  0  0  0
   -0.4831    0.0704   -0.7256 C   0  0  0  0  0  0  0  0  0  0  0  0
   -2.9085   -0.1063   -0.0642 C   0  0  0  0  0  0  0  0  0  0  0  0
   -3.9528   -0.9416    0.3322 C   0  0  0  0  0  0  0  0  0  0  0  0
   -3.1276    1.2636   -0.2087 C   0  0  0  0  0  0  0  0  0  0  0  0
   -5.2162   -0.4071    0.5842 C   0  0  0  0  0  0  0  0  0  0  0  0
   -3.7470   -2.4129    0.4949 C   0  0  0  0  0  0  0  0  0  0  0  0
   -4.3911    1.7983    0.0434 C   0  0  0  0  0  0  0  0  0  0  0  0
   -5.4354    0.9629    0.4398 C   0  0  0  0  0  0  0  0  0  0  0  0
    4.2525    0.9350   -1.6252 H   0  0  0  0  0  0  0  0  0  0  0  0
    5.1802   -0.5792   -1.6601 H   0  0  0  0  0  0  0  0  0  0  0  0
    3.4513    0.8449    2.3082 H   0  0  0  0  0  0  0  0  0  0  0  0
    3.1720    1.8243    0.8530 H   0  0  0  0  0  0  0  0  0  0  0  0
    2.2743   -1.0870    1.2861 H   0  0  0  0  0  0  0  0  0  0  0  0
    1.2487    0.3460    1.3314 H   0  0  0  0  0  0  0  0  0  0  0  0
    2.8429   -0.9599   -2.3399 H   0  0  0  0  0  0  0  0  0  0  0  0
    3.2029   -1.8590   -0.8640 H   0  0  0  0  0  0  0  0  0  0  0  0
    0.5819   -1.7842   -0.2780 H   0  0  0  0  0  0  0  0  0  0  0  0
    0.6489   -1.1963   -1.9435 H   0  0  0  0  0  0  0  0  0  0  0  0
   -1.5231   -1.6343   -0.2085 H   0  0  0  0  0  0  0  0  0  0  0  0
   -2.3766    1.9789   -0.5101 H   0  0  0  0  0  0  0  0  0  0  0  0
   -6.0412   -1.0431    0.8939 H   0  0  0  0  0  0  0  0  0  0  0  0
   -3.4412   -2.8662   -0.4539 H   0  0  0  0  0  0  0  0  0  0  0  0
   -2.9885   -2.6136    1.2588 H   0  0  0  0  0  0  0  0  0  0  0  0
   -4.6657   -2.9185    0.8124 H   0  0  0  0  0  0  0  0  0  0  0  0
   -4.5633    2.8650   -0.0685 H   0  0  0  0  0  0  0  0  0  0  0  0
   -6.4191    1.3793    0.6360 H   0  0  0  0  0  0  0  0  0  0  0  0
  1  2  2  0  0  0  0
  1  3  2  0  0  0  0
  1  7  1  0  0  0  0
  1  8  1  0  0  0  0
  4 12  2  0  0  0  0
  5  9  1  0  0  0  0
  5 10  1  0  0  0  0
  5 11  1  0  0  0  0
  6 12  1  0  0  0  0
  6 13  1  0  0  0  0
  6 30  1  0  0  0  0
  7  9  1  0  0  0  0
  7 22  1  0  0  0  0
  7 23  1  0  0  0  0
  8 10  1  0  0  0  0
  8 20  1  0  0  0  0
  8 21  1  0  0  0  0
  9 24  1  0  0  0  0
  9 25  1  0  0  0  0
 10 26  1  0  0  0  0
 10 27  1  0  0  0  0
 11 12  1  0  0  0  0
 11 28  1  0  0  0  0
 11 29  1  0  0  0  0
 13 14  1  0  0  0  0
 13 15  2  0  0  0  0
 14 16  2  0  0  0  0
 14 17  1  0  0  0  0
 15 18  1  0  0  0  0
 15 31  1  0  0  0  0
 16 19  1  0  0  0  0
 16 32  1  0  0  0  0
 17 33  1  0  0  0  0
 17 34  1  0  0  0  0
 17 35  1  0  0  0  0
 18 19  2  0  0  0  0
 18 36  1  0  0  0  0
 19 37  1  0  0  0  0
M  END
> <PUBCHEM_COMPOUND_CID>
47205451

> <PUBCHEM_CONFORMER_RMSD>
0.8

> <PUBCHEM_CONFORMER_DIVERSEORDER>
1
22
13
23
34
26
7
16
4
37
18
20
6
29
30
24
3
35
25
9
36
27
8
38
12
10
19
33
21
28
32
2
15
14
31
5
11
17

> <PUBCHEM_MMFF94_PARTIAL_CHARGES>
24
1 1.09
10 0.27
11 0.33
12 0.57
13 0.12
14 -0.14
15 -0.15
16 -0.15
17 0.14
18 -0.15
19 -0.15
2 -0.65
3 -0.65
30 0.37
31 0.15
32 0.15
36 0.15
37 0.15
4 -0.57
5 -0.81
6 -0.55
7 0.11
8 0.11
9 0.27

> <PUBCHEM_EFFECTIVE_ROTOR_COUNT>
5

> <PUBCHEM_PHARMACOPHORE_FEATURES>
7
1 2 acceptor
1 3 acceptor
1 4 acceptor
1 5 cation
1 6 donor
6 1 5 7 8 9 10 rings
6 13 14 15 16 18 19 rings

> <PUBCHEM_HEAVY_ATOM_COUNT>
19

> <PUBCHEM_ATOM_DEF_STEREO_COUNT>
0

> <PUBCHEM_ATOM_UDEF_STEREO_COUNT>
0

> <PUBCHEM_BOND_DEF_STEREO_COUNT>
0

> <PUBCHEM_BOND_UDEF_STEREO_COUNT>
0

> <PUBCHEM_ISOTOPIC_ATOM_COUNT>
0

> <PUBCHEM_COMPONENT_COUNT>
1

> <PUBCHEM_CACTVS_TAUTO_COUNT>
2

> <PUBCHEM_CONFORMER_ID>
02D04C4B00000001

> <PUBCHEM_MMFF94_ENERGY>
44.0157

> <PUBCHEM_FEATURE_SELFOVERLAP>
35.537

> <PUBCHEM_SHAPE_FINGERPRINT>
10354089 29 16370724816271324106
10912923 1 17560794407849289926
11045977 3 18260829288983102699
11370993 144 17677034859027113439
12107183 9 17481719966652225289
12236239 1 17203604891623336647
12507557 5 16443068275027473555
12507560 40 18113896082954890759
12596602 18 18202846547629871408
12616971 3 16845567608534549591
13167823 11 17275102833947444395
13533116 47 17703512194520253938
13668630 136 14979953674994195049
13675066 3 18186516600997120759
13760787 5 16200428057156786183
14341114 176 18410290324221237288
14341114 328 17918270944055231580
14528608 73 5761645984528594586
14573314 32 18113613521172255445
14844126 61 18199465464256401435
14848160 23 12247683759939911524
15183329 4 5906058045334654132
15348495 7 18335422340008468418
15788980 27 15841554076168829383
17349148 13 15554446318742973724
17844677 252 18410006624393646424
1813 80 16486968544018903247
19489759 90 18410013243539181275
19784866 170 18334295383164955525
200 152 15195571203598762588
204376 136 16732701657922795335
20645477 56 17822014198490701557
20645477 70 16805597131213022638
21033648 29 17603595148676431825
21150785 3 5833980672666191200
220451 1 17917988386868256842
22854114 59 17894911832265549039
23402539 116 18342742905959407071
23402655 69 16153430545414232420
23559900 14 18266160893991877270
2916195 48 18114468872794509680
300161 21 18202569496885875239
351380 3 16559033800320366714
3545911 37 17240201019193364494
465052 167 13614521874939246416
5104073 3 18266167513179896123
542803 24 18334858316022974940
573450 72 18060700585158735231
5924683 9 18261960639926812679
602551 16 18342454803273548346
90127 26 17604139415157994796

> <PUBCHEM_SHAPE_MULTIPOLES>
367.29
14.27
1.63
1.15
3.36
0.25
0.03
-1.88
-3.67
-1.79
-0.16
1.2
0.09
0.83

> <PUBCHEM_SHAPE_SELFOVERLAP>
748.202

> <PUBCHEM_SHAPE_VOLUME>
212.8

> <PUBCHEM_COORDINATE_TYPE>
2
5
10

$$$$

