6259842
  -OEChem-07051213123D

 47 48  0     0  0  0  0  0  0999 V2000
    8.4925   -1.1431   -0.9683 Cl  0  0  0  0  0  0  0  0  0  0  0  0
   -6.5597   -1.0199   -0.8699 O   0  0  0  0  0  0  0  0  0  0  0  0
   -0.2682    2.8053   -0.2704 O   0  0  0  0  0  0  0  0  0  0  0  0
    0.5867   -1.7163    0.9484 O   0  0  0  0  0  0  0  0  0  0  0  0
    3.8618    0.0714    0.0224 O   0  0  0  0  0  0  0  0  0  0  0  0
    2.5293   -0.2502    0.1961 N   0  0  0  0  0  0  0  0  0  0  0  0
   -3.9913   -0.2753    0.2108 C   0  0  0  0  0  0  0  0  0  0  0  0
   -2.4969   -0.0493   -0.0001 C   0  0  0  0  0  0  0  0  0  0  0  0
   -4.8224    0.6658   -0.6687 C   0  0  0  0  0  0  0  0  0  0  0  0
   -4.3766   -1.7309   -0.0765 C   0  0  0  0  0  0  0  0  0  0  0  0
   -2.1332    1.4126    0.2636 C   0  0  0  0  0  0  0  0  0  0  0  0
   -1.6822   -0.9720    0.9076 C   0  0  0  0  0  0  0  0  0  0  0  0
   -6.3073    0.3467   -0.5455 C   0  0  0  0  0  0  0  0  0  0  0  0
   -5.8866   -1.9158    0.0138 C   0  0  0  0  0  0  0  0  0  0  0  0
   -0.6623    1.6802    0.0313 C   0  0  0  0  0  0  0  0  0  0  0  0
   -0.1935   -0.7987    0.7000 C   0  0  0  0  0  0  0  0  0  0  0  0
    0.2798    0.5412    0.2416 C   0  0  0  0  0  0  0  0  0  0  0  0
    1.5864    0.7257    0.0093 C   0  0  0  0  0  0  0  0  0  0  0  0
    2.0995    2.0711   -0.4562 C   0  0  0  0  0  0  0  0  0  0  0  0
    2.4787    2.9802    0.7058 C   0  0  0  0  0  0  0  0  0  0  0  0
    4.5941   -1.1209    0.2794 C   0  0  0  0  0  0  0  0  0  0  0  0
    6.0503   -0.8374    0.1068 C   0  0  0  0  0  0  0  0  0  0  0  0
    6.8213   -1.4703   -0.7814 C   0  0  0  0  0  0  0  0  0  0  0  0
   -4.2402   -0.0614    1.2603 H   0  0  0  0  0  0  0  0  0  0  0  0
   -2.2398   -0.2819   -1.0441 H   0  0  0  0  0  0  0  0  0  0  0  0
   -4.6903    1.7140   -0.3859 H   0  0  0  0  0  0  0  0  0  0  0  0
   -4.5171    0.5535   -1.7166 H   0  0  0  0  0  0  0  0  0  0  0  0
   -4.0419   -2.0060   -1.0845 H   0  0  0  0  0  0  0  0  0  0  0  0
   -3.9174   -2.4239    0.6341 H   0  0  0  0  0  0  0  0  0  0  0  0
   -2.3781    1.7110    1.2892 H   0  0  0  0  0  0  0  0  0  0  0  0
   -2.6573    2.0768   -0.4302 H   0  0  0  0  0  0  0  0  0  0  0  0
   -1.9028   -0.7936    1.9661 H   0  0  0  0  0  0  0  0  0  0  0  0
   -1.8859   -2.0226    0.6801 H   0  0  0  0  0  0  0  0  0  0  0  0
   -6.8804    0.9658   -1.2430 H   0  0  0  0  0  0  0  0  0  0  0  0
   -6.6788    0.5564    0.4646 H   0  0  0  0  0  0  0  0  0  0  0  0
   -6.2479   -1.7591    1.0371 H   0  0  0  0  0  0  0  0  0  0  0  0
   -6.1549   -2.9361   -0.2784 H   0  0  0  0  0  0  0  0  0  0  0  0
    1.5089    2.5611   -1.2335 H   0  0  0  0  0  0  0  0  0  0  0  0
    3.0231    1.9146   -1.0332 H   0  0  0  0  0  0  0  0  0  0  0  0
    2.2838   -1.1634    0.5562 H   0  0  0  0  0  0  0  0  0  0  0  0
    1.6271    3.2043    1.3550 H   0  0  0  0  0  0  0  0  0  0  0  0
    2.8691    3.9296    0.3248 H   0  0  0  0  0  0  0  0  0  0  0  0
    3.2601    2.5272    1.3256 H   0  0  0  0  0  0  0  0  0  0  0  0
    4.4228   -1.4489    1.3124 H   0  0  0  0  0  0  0  0  0  0  0  0
    4.2655   -1.9156   -0.4029 H   0  0  0  0  0  0  0  0  0  0  0  0
    6.4819   -0.0765    0.7526 H   0  0  0  0  0  0  0  0  0  0  0  0
    6.4712   -2.2391   -1.4572 H   0  0  0  0  0  0  0  0  0  0  0  0
  1 23  1  0  0  0  0
  2 13  1  0  0  0  0
  2 14  1  0  0  0  0
  3 15  2  0  0  0  0
  4 16  2  0  0  0  0
  5  6  1  0  0  0  0
  5 21  1  0  0  0  0
  6 18  1  0  0  0  0
  6 40  1  0  0  0  0
  7  8  1  0  0  0  0
  7  9  1  0  0  0  0
  7 10  1  0  0  0  0
  7 24  1  0  0  0  0
  8 11  1  0  0  0  0
  8 12  1  0  0  0  0
  8 25  1  0  0  0  0
  9 13  1  0  0  0  0
  9 26  1  0  0  0  0
  9 27  1  0  0  0  0
 10 14  1  0  0  0  0
 10 28  1  0  0  0  0
 10 29  1  0  0  0  0
 11 15  1  0  0  0  0
 11 30  1  0  0  0  0
 11 31  1  0  0  0  0
 12 16  1  0  0  0  0
 12 32  1  0  0  0  0
 12 33  1  0  0  0  0
 13 34  1  0  0  0  0
 13 35  1  0  0  0  0
 14 36  1  0  0  0  0
 14 37  1  0  0  0  0
 15 17  1  0  0  0  0
 16 17  1  0  0  0  0
 17 18  2  0  0  0  0
 18 19  1  0  0  0  0
 19 20  1  0  0  0  0
 19 38  1  0  0  0  0
 19 39  1  0  0  0  0
 20 41  1  0  0  0  0
 20 42  1  0  0  0  0
 20 43  1  0  0  0  0
 21 22  1  0  0  0  0
 21 44  1  0  0  0  0
 21 45  1  0  0  0  0
 22 23  2  0  0  0  0
 22 46  1  0  0  0  0
 23 47  1  0  0  0  0
M  END
> <PUBCHEM_COMPOUND_CID>
6259842

> <PUBCHEM_CONFORMER_RMSD>
0.8

> <PUBCHEM_CONFORMER_DIVERSEORDER>
1
75
77
63
29
10
62
43
27
17
59
69
41
23
71
68
33
76
11
30
51
74
44
12
70
31
37
21
32
24
38
8
14
22
65
18
64
4
19
46
39
25
66
5
47
34
79
9
26
49
36
50
13
73
78
45
35
52
54
56
42
57
61
40
72
28
7
53
55
48
16
67
6
58
20
2
3
60
15

> <PUBCHEM_MMFF94_PARTIAL_CHARGES>
21
1 -0.14
11 0.06
12 0.06
13 0.28
14 0.28
15 0.49
16 0.49
17 0.03
18 -0.04
19 0.14
2 -0.56
21 0.42
22 -0.29
23 -0.01
3 -0.57
4 -0.57
40 0.4
46 0.15
47 0.15
5 -0.26
6 -0.52

> <PUBCHEM_EFFECTIVE_ROTOR_COUNT>
7.8

> <PUBCHEM_PHARMACOPHORE_FEATURES>
7
1 17 anion
1 2 acceptor
1 20 hydrophobe
1 3 acceptor
1 4 acceptor
6 2 7 9 10 13 14 rings
6 8 11 12 15 16 17 rings

> <PUBCHEM_HEAVY_ATOM_COUNT>
23

> <PUBCHEM_ATOM_DEF_STEREO_COUNT>
0

> <PUBCHEM_ATOM_UDEF_STEREO_COUNT>
0

> <PUBCHEM_BOND_DEF_STEREO_COUNT>
1

> <PUBCHEM_BOND_UDEF_STEREO_COUNT>
0

> <PUBCHEM_ISOTOPIC_ATOM_COUNT>
0

> <PUBCHEM_COMPONENT_COUNT>
1

> <PUBCHEM_CACTVS_TAUTO_COUNT>
13

> <PUBCHEM_CONFORMER_ID>
005F848200000001

> <PUBCHEM_MMFF94_ENERGY>
58.71

> <PUBCHEM_FEATURE_SELFOVERLAP>
35.52

> <PUBCHEM_SHAPE_FINGERPRINT>
106641 1 7781509331046620359
10670039 82 16773803623030120805
11315181 36 18334008402077120768
11524674 6 16298390162277832223
11578080 2 16700071563436624799
12011746 2 18272369793451875682
12236239 1 18113338583652656025
12516196 113 18334858329741170890
13288520 33 18409165541005806916
13533116 47 18187649046814417952
13540713 4 17842828937246938536
13862211 1 18342179990065180202
14123256 34 18409443678750964434
14931854 50 17988641947818664618
15048467 5 10952048957282843862
15183329 4 18060139859834972898
15196674 1 18341335483847102497
15849732 13 18186522099072451830
16087824 20 18196373839807893917
17492 89 18049724018919196807
18006028 8 18335137618500516900
18222031 100 18409449202748463130
18681886 176 18335710420265208675
19784866 240 18260543428976814064
200 152 18261115154096923865
20028762 73 18259988158425574414
20281389 69 9223228542620220670
20554085 129 12751236953406033796
20735858 18 7493000765415243654
21150785 3 16774075172353513070
21267235 1 18412259519998771107
21279426 13 18342748407533185077
21682296 61 18408600353590871123
21709351 56 18272660034720419573
21756936 100 10375863057143083905
22224240 67 8862936169745879836
22393880 68 18202015313282406399
2297311 6 18262230127870735412
23402539 116 18409452492187184807
23559900 14 18339927000218759600
3004659 81 18131634474229014468
3009799 131 18060420226989390670
335352 9 18413392055688004541
465052 167 18259981548696960142
484989 97 18058720295676381427
5104073 3 18340207389328088497
6138700 20 18412544331468952711

> <PUBCHEM_SHAPE_MULTIPOLES>
446.74
18.54
2.52
0.87
18.62
1.64
-0.01
-13.1
-6.84
0.62
0.13
0.16
-0.11
0.71

> <PUBCHEM_SHAPE_SELFOVERLAP>
904.513

> <PUBCHEM_SHAPE_VOLUME>
259.5

> <PUBCHEM_COORDINATE_TYPE>
2
5
10

$$$$

