228785
  -OEChem-07051213053D

 57 60  0     1  0  0  0  0  0999 V2000
    1.4051    0.1479    1.1768 F   0  0  0  0  0  0  0  0  0  0  0  0
   -2.9134   -0.2459    1.8468 O   0  0  0  0  0  0  0  0  0  0  0  0
    0.2965    2.1094   -1.6152 O   0  0  0  0  0  0  0  0  0  0  0  0
   -3.6483   -2.6437    1.0668 O   0  0  0  0  0  0  0  0  0  0  0  0
   -5.2603   -0.1340   -0.4239 O   0  0  0  0  0  0  0  0  0  0  0  0
   -5.6164    2.3166    0.7879 O   0  0  0  0  0  0  0  0  0  0  0  0
    5.9187    0.1715    1.9201 O   0  0  0  0  0  0  0  0  0  0  0  0
   -1.7692    0.1528   -0.3121 C   0  0  1  0  0  0  0  0  0  0  0  0
   -0.8451   -1.0589   -0.0420 C   0  0  2  0  0  0  0  0  0  0  0  0
    0.5284   -0.9389   -0.7202 C   0  0  1  0  0  0  0  0  0  0  0  0
    1.2524    0.3479   -0.1842 C   0  0  2  0  0  0  0  0  0  0  0  0
   -3.0451   -0.3372    0.4324 C   0  0  1  0  0  0  0  0  0  0  0  0
   -1.0699    1.4004    0.2660 C   0  0  0  0  0  0  0  0  0  0  0  0
    2.7106    0.4787   -0.7744 C   0  0  2  0  0  0  0  0  0  0  0  0
    0.3586    1.6154   -0.2873 C   0  0  2  0  0  0  0  0  0  0  0  0
   -1.7199   -2.2714   -0.3665 C   0  0  0  0  0  0  0  0  0  0  0  0
   -3.1465   -1.8282    0.0183 C   0  0  1  0  0  0  0  0  0  0  0  0
    1.3702   -2.2087   -0.4733 C   0  0  0  0  0  0  0  0  0  0  0  0
   -2.0890    0.3615   -1.8185 C   0  0  0  0  0  0  0  0  0  0  0  0
    3.4264   -0.8303   -0.4133 C   0  0  0  0  0  0  0  0  0  0  0  0
    2.8054   -2.0805   -0.9840 C   0  0  0  0  0  0  0  0  0  0  0  0
    3.5026    1.6946   -0.2113 C   0  0  0  0  0  0  0  0  0  0  0  0
    2.7297    0.6581   -2.3156 C   0  0  0  0  0  0  0  0  0  0  0  0
   -4.2993    0.4197    0.1082 C   0  0  0  0  0  0  0  0  0  0  0  0
    4.0554    1.4890    1.1873 C   0  0  0  0  0  0  0  0  0  0  0  0
    4.4568   -0.9263    0.4429 C   0  0  0  0  0  0  0  0  0  0  0  0
    4.9142    0.2511    1.2165 C   0  0  0  0  0  0  0  0  0  0  0  0
   -4.3085    1.8893    0.4717 C   0  0  0  0  0  0  0  0  0  0  0  0
   -0.6512   -1.1138    1.0417 H   0  0  0  0  0  0  0  0  0  0  0  0
    0.3844   -0.8567   -1.8015 H   0  0  0  0  0  0  0  0  0  0  0  0
   -0.9715    1.3171    1.3538 H   0  0  0  0  0  0  0  0  0  0  0  0
   -1.6637    2.2971    0.0635 H   0  0  0  0  0  0  0  0  0  0  0  0
    0.8068    2.4070    0.3241 H   0  0  0  0  0  0  0  0  0  0  0  0
   -1.6740   -2.4970   -1.4383 H   0  0  0  0  0  0  0  0  0  0  0  0
   -1.3947   -3.1636    0.1786 H   0  0  0  0  0  0  0  0  0  0  0  0
   -3.7947   -1.9887   -0.8499 H   0  0  0  0  0  0  0  0  0  0  0  0
    0.9000   -3.0699   -0.9627 H   0  0  0  0  0  0  0  0  0  0  0  0
    1.3911   -2.4329    0.6017 H   0  0  0  0  0  0  0  0  0  0  0  0
   -1.1960    0.4101   -2.4442 H   0  0  0  0  0  0  0  0  0  0  0  0
   -2.7045   -0.4417   -2.2354 H   0  0  0  0  0  0  0  0  0  0  0  0
   -2.6371    1.2964   -1.9762 H   0  0  0  0  0  0  0  0  0  0  0  0
    2.8240   -2.0537   -2.0788 H   0  0  0  0  0  0  0  0  0  0  0  0
    3.3663   -2.9771   -0.6932 H   0  0  0  0  0  0  0  0  0  0  0  0
    2.9016    2.6091   -0.2410 H   0  0  0  0  0  0  0  0  0  0  0  0
    4.3623    1.8946   -0.8689 H   0  0  0  0  0  0  0  0  0  0  0  0
    3.7350    0.4743   -2.7165 H   0  0  0  0  0  0  0  0  0  0  0  0
    2.0516   -0.0186   -2.8412 H   0  0  0  0  0  0  0  0  0  0  0  0
    2.4639    1.6789   -2.6084 H   0  0  0  0  0  0  0  0  0  0  0  0
   -2.6708    0.6525    2.1131 H   0  0  0  0  0  0  0  0  0  0  0  0
    3.2643    1.3950    1.9365 H   0  0  0  0  0  0  0  0  0  0  0  0
    4.6779    2.3491    1.4580 H   0  0  0  0  0  0  0  0  0  0  0  0
   -0.2334    2.9245   -1.6052 H   0  0  0  0  0  0  0  0  0  0  0  0
    4.9256   -1.8764    0.6753 H   0  0  0  0  0  0  0  0  0  0  0  0
   -3.0825   -2.5045    1.8454 H   0  0  0  0  0  0  0  0  0  0  0  0
   -3.9556    2.4619   -0.3900 H   0  0  0  0  0  0  0  0  0  0  0  0
   -3.6849    2.1128    1.3359 H   0  0  0  0  0  0  0  0  0  0  0  0
   -5.5893    3.2840    0.8832 H   0  0  0  0  0  0  0  0  0  0  0  0
  1 11  1  0  0  0  0
  2 12  1  0  0  0  0
  2 49  1  0  0  0  0
  3 15  1  0  0  0  0
  3 52  1  0  0  0  0
  4 17  1  0  0  0  0
  4 54  1  0  0  0  0
  5 24  2  0  0  0  0
  6 28  1  0  0  0  0
  6 57  1  0  0  0  0
  7 27  2  0  0  0  0
  8  9  1  0  0  0  0
  8 12  1  0  0  0  0
  8 13  1  0  0  0  0
  8 19  1  0  0  0  0
  9 10  1  0  0  0  0
  9 16  1  0  0  0  0
  9 29  1  0  0  0  0
 10 11  1  0  0  0  0
 10 18  1  0  0  0  0
 10 30  1  0  0  0  0
 11 14  1  0  0  0  0
 11 15  1  0  0  0  0
 12 17  1  0  0  0  0
 12 24  1  0  0  0  0
 13 15  1  0  0  0  0
 13 31  1  0  0  0  0
 13 32  1  0  0  0  0
 14 20  1  0  0  0  0
 14 22  1  0  0  0  0
 14 23  1  0  0  0  0
 15 33  1  0  0  0  0
 16 17  1  0  0  0  0
 16 34  1  0  0  0  0
 16 35  1  0  0  0  0
 17 36  1  0  0  0  0
 18 21  1  0  0  0  0
 18 37  1  0  0  0  0
 18 38  1  0  0  0  0
 19 39  1  0  0  0  0
 19 40  1  0  0  0  0
 19 41  1  0  0  0  0
 20 21  1  0  0  0  0
 20 26  2  0  0  0  0
 21 42  1  0  0  0  0
 21 43  1  0  0  0  0
 22 25  1  0  0  0  0
 22 44  1  0  0  0  0
 22 45  1  0  0  0  0
 23 46  1  0  0  0  0
 23 47  1  0  0  0  0
 23 48  1  0  0  0  0
 24 28  1  0  0  0  0
 25 27  1  0  0  0  0
 25 50  1  0  0  0  0
 25 51  1  0  0  0  0
 26 27  1  0  0  0  0
 26 53  1  0  0  0  0
 28 55  1  0  0  0  0
 28 56  1  0  0  0  0
M  END
> <PUBCHEM_COMPOUND_CID>
228785

> <PUBCHEM_CONFORMER_RMSD>
0.8

> <PUBCHEM_CONFORMER_DIVERSEORDER>
1
3
2

> <PUBCHEM_MMFF94_PARTIAL_CHARGES>
24
1 -0.34
11 0.34
12 0.34
14 0.14
15 0.28
17 0.28
2 -0.68
20 -0.28
21 0.14
24 0.45
25 0.06
26 -0.14
27 0.49
28 0.34
3 -0.68
4 -0.68
49 0.4
5 -0.57
52 0.4
53 0.15
54 0.4
57 0.4
6 -0.68
7 -0.57

> <PUBCHEM_EFFECTIVE_ROTOR_COUNT>
3.8

> <PUBCHEM_PHARMACOPHORE_FEATURES>
14
1 2 acceptor
1 2 donor
1 3 acceptor
1 3 donor
1 4 acceptor
1 4 donor
1 5 acceptor
1 6 acceptor
1 6 donor
1 7 acceptor
5 8 9 12 16 17 rings
6 10 11 14 18 20 21 rings
6 14 20 22 25 26 27 rings
6 8 9 10 11 13 15 rings

> <PUBCHEM_HEAVY_ATOM_COUNT>
28

> <PUBCHEM_ATOM_DEF_STEREO_COUNT>
8

> <PUBCHEM_ATOM_UDEF_STEREO_COUNT>
0

> <PUBCHEM_BOND_DEF_STEREO_COUNT>
0

> <PUBCHEM_BOND_UDEF_STEREO_COUNT>
0

> <PUBCHEM_ISOTOPIC_ATOM_COUNT>
0

> <PUBCHEM_COMPONENT_COUNT>
1

> <PUBCHEM_CACTVS_TAUTO_COUNT>
15

> <PUBCHEM_CONFORMER_ID>
00037DB100000001

> <PUBCHEM_MMFF94_ENERGY>
102.9434

> <PUBCHEM_FEATURE_SELFOVERLAP>
71.177

> <PUBCHEM_SHAPE_FINGERPRINT>
10863032 1 18409719664980848143
10906281 52 18201424866842984516
11045977 3 18040999544576129632
11132069 177 18411416202558330206
11370993 70 18260548930703495019
11405975 8 18202560670248073153
11961588 58 5689295946505046754
12035758 1 18201150049139669681
12236239 1 17775289339334738992
12403259 118 18337113371522045450
12403814 3 17775005678646845597
12422481 6 18340773731841247826
12553582 1 18339061718853143525
12633257 1 17704353260031501387
13140716 1 18411699923819098626
13224815 77 18338227181106700758
13583140 156 17531533083355982867
13675066 3 18408600361779664703
13782708 43 14979943766911345065
14178342 30 18410855417194624999
14223421 5 18335139838703326926
14790565 3 17978503140635398036
15142383 8 16128384825426127796
15196674 1 18409726240211885343
15238133 3 18339633542325549525
15375358 24 18260547822670231623
15788980 27 17203615869227448820
15840311 113 17825096263572129345
1601671 61 18341321236897477492
16945 1 18334286583193671558
17349148 13 18412832369160563917
17980427 23 18271532992400054460
1813 80 17131834291895807982
19141452 34 18413388735219335583
20511986 3 18041575731507980655
20600515 1 18411131446348321269
20691752 17 17489586753258273982
20715895 44 18266178512280138009
21033648 29 17894642443463934059
21421861 104 17987524882480150442
21452121 103 18187650240783293978
21756936 100 17389679492911792280
21859007 373 17700988896533257093
22149856 69 18189031193656017843
22182313 1 18127697247179881172
23402539 116 18272098166735077794
23503953 91 18343860030514918653
23559900 14 18261377993068171334
296302 2 16660365861699479526
335352 9 18337666541671592350
34797466 226 16226046661041215149
34934 24 18186525427112780703
350125 39 18409445925736051340
3680242 22 18271526523662328906
392239 28 17677334883846393378
394222 165 17414416309438880788
4340502 62 18113620100930147600
474 4 17603591777374952616
495365 180 17531252806617164286
5104073 3 18201435826950892392
7064713 232 18410012126272749444
7495541 125 13183016320009430108
9709674 26 18261948647760697031
9981440 41 18408602574411152355

> <PUBCHEM_SHAPE_MULTIPOLES>
533.74
10.75
2.44
1.53
1.13
0.54
-0.25
-2.61
4.41
1.3
0.01
-1.05
-0.29
0.37

> <PUBCHEM_SHAPE_SELFOVERLAP>
1158.219

> <PUBCHEM_SHAPE_VOLUME>
291.6

> <PUBCHEM_COORDINATE_TYPE>
2
5
10

$$$$

