23724733
  -OEChem-07051213082D

 69 73  0     1  0  0  0  0  0999 V2000
    5.4641    1.5950    0.0000 O   0  0  0  0  0  0  0  0  0  0  0  0
    4.5981    3.0950    0.0000 O   0  0  0  0  0  0  0  0  0  0  0  0
    4.5981   -0.9050    0.0000 O   0  0  0  0  0  0  0  0  0  0  0  0
    2.8660    0.0950    0.0000 O   0  0  0  0  0  0  0  0  0  0  0  0
    2.8660    2.0950    0.0000 O   0  0  0  0  0  0  0  0  0  0  0  0
    6.3301   -0.9050    0.0000 O   0  0  0  0  0  0  0  0  0  0  0  0
    6.3301    5.0950    0.0000 O   0  3  0  0  0  0  0  0  0  0  0  0
    8.0622   -0.9050    0.0000 O   0  0  0  0  0  0  0  0  0  0  0  0
    8.0785    2.0604    0.0000 O   0  0  0  0  0  0  0  0  0  0  0  0
    9.8602    5.1192    0.0000 O   0  0  0  0  0  0  0  0  0  0  0  0
    2.0000    6.5950    0.0000 O   0  0  0  0  0  0  0  0  0  0  0  0
    8.0622   -6.9050    0.0000 O   0  0  0  0  0  0  0  0  0  0  0  0
    4.5981    0.0950    0.0000 C   0  0  1  0  0  0  0  0  0  0  0  0
    3.7320    0.5950    0.0000 C   0  0  1  0  0  0  0  0  0  0  0  0
    5.4641    0.5950    0.0000 C   0  0  1  0  0  0  0  0  0  0  0  0
    3.7320    1.5950    0.0000 C   0  0  2  0  0  0  0  0  0  0  0  0
    4.5981    2.0950    0.0000 C   0  0  1  0  0  0  0  0  0  0  0  0
    6.3301    0.0950    0.0000 C   0  0  0  0  0  0  0  0  0  0  0  0
    5.4641    3.5950    0.0000 C   0  0  0  0  0  0  0  0  0  0  0  0
    5.4641    4.5950    0.0000 C   0  0  0  0  0  0  0  0  0  0  0  0
    6.3301    3.0950    0.0000 C   0  0  0  0  0  0  0  0  0  0  0  0
    7.1962    3.5950    0.0000 C   0  0  0  0  0  0  0  0  0  0  0  0
    7.1962   -1.4050    0.0000 C   0  0  0  0  0  0  0  0  0  0  0  0
    7.1962    4.5950    0.0000 C   0  0  0  0  0  0  0  0  0  0  0  0
    4.5981    5.0950    0.0000 C   0  0  0  0  0  0  0  0  0  0  0  0
    8.0901    3.0603    0.0000 C   0  0  0  0  0  0  0  0  0  0  0  0
    8.0901    5.1297    0.0000 C   0  0  0  0  0  0  0  0  0  0  0  0
    7.1962   -2.4050    0.0000 C   0  0  0  0  0  0  0  0  0  0  0  0
    4.5981    6.0950    0.0000 C   0  0  0  0  0  0  0  0  0  0  0  0
    3.7320    4.5950    0.0000 C   0  0  0  0  0  0  0  0  0  0  0  0
    8.9962    3.5742    0.0000 C   0  0  0  0  0  0  0  0  0  0  0  0
    8.9962    4.6158    0.0000 C   0  0  0  0  0  0  0  0  0  0  0  0
    3.7320    6.5950    0.0000 C   0  0  0  0  0  0  0  0  0  0  0  0
    2.8660    5.0950    0.0000 C   0  0  0  0  0  0  0  0  0  0  0  0
    2.8660    6.0950    0.0000 C   0  0  0  0  0  0  0  0  0  0  0  0
    8.0622   -2.9050    0.0000 C   0  0  0  0  0  0  0  0  0  0  0  0
    8.0622   -3.9050    0.0000 C   0  0  0  0  0  0  0  0  0  0  0  0
    7.1962   -4.4050    0.0000 C   0  0  0  0  0  0  0  0  0  0  0  0
    8.9282   -4.4050    0.0000 C   0  0  0  0  0  0  0  0  0  0  0  0
    7.1962   -5.4050    0.0000 C   0  0  0  0  0  0  0  0  0  0  0  0
    8.9282   -5.4050    0.0000 C   0  0  0  0  0  0  0  0  0  0  0  0
    8.0622   -5.9050    0.0000 C   0  0  0  0  0  0  0  0  0  0  0  0
    5.1350   -0.2150    0.0000 H   0  0  0  0  0  0  0  0  0  0  0  0
    3.7320   -0.0250    0.0000 H   0  0  0  0  0  0  0  0  0  0  0  0
    6.0010    0.9050    0.0000 H   0  0  0  0  0  0  0  0  0  0  0  0
    3.7320    2.2150    0.0000 H   0  0  0  0  0  0  0  0  0  0  0  0
    4.0611    2.4050    0.0000 H   0  0  0  0  0  0  0  0  0  0  0  0
    6.9407   -0.0127    0.0000 H   0  0  0  0  0  0  0  0  0  0  0  0
    6.5422    0.6776    0.0000 H   0  0  0  0  0  0  0  0  0  0  0  0
    4.0611   -1.2150    0.0000 H   0  0  0  0  0  0  0  0  0  0  0  0
    2.8660   -0.5250    0.0000 H   0  0  0  0  0  0  0  0  0  0  0  0
    2.3291    1.7850    0.0000 H   0  0  0  0  0  0  0  0  0  0  0  0
    6.3301    2.4750    0.0000 H   0  0  0  0  0  0  0  0  0  0  0  0
    8.0829    5.7496    0.0000 H   0  0  0  0  0  0  0  0  0  0  0  0
    6.6592   -2.7150    0.0000 H   0  0  0  0  0  0  0  0  0  0  0  0
    5.1350    6.4050    0.0000 H   0  0  0  0  0  0  0  0  0  0  0  0
    3.7320    3.9750    0.0000 H   0  0  0  0  0  0  0  0  0  0  0  0
    9.5319    3.2621    0.0000 H   0  0  0  0  0  0  0  0  0  0  0  0
    3.7320    7.2150    0.0000 H   0  0  0  0  0  0  0  0  0  0  0  0
    2.3291    4.7850    0.0000 H   0  0  0  0  0  0  0  0  0  0  0  0
    8.5991   -2.5950    0.0000 H   0  0  0  0  0  0  0  0  0  0  0  0
    8.6118    1.7442    0.0000 H   0  0  0  0  0  0  0  0  0  0  0  0
   10.3984    4.8112    0.0000 H   0  0  0  0  0  0  0  0  0  0  0  0
    2.0000    7.2150    0.0000 H   0  0  0  0  0  0  0  0  0  0  0  0
    6.6592   -4.0950    0.0000 H   0  0  0  0  0  0  0  0  0  0  0  0
    9.4651   -4.0950    0.0000 H   0  0  0  0  0  0  0  0  0  0  0  0
    6.6592   -5.7150    0.0000 H   0  0  0  0  0  0  0  0  0  0  0  0
    9.4651   -5.7150    0.0000 H   0  0  0  0  0  0  0  0  0  0  0  0
    8.5991   -7.2150    0.0000 H   0  0  0  0  0  0  0  0  0  0  0  0
  1 15  1  0  0  0  0
  1 17  1  0  0  0  0
 17  2  1  6  0  0  0
  2 19  1  0  0  0  0
 13  3  1  1  0  0  0
  3 50  1  0  0  0  0
 14  4  1  6  0  0  0
  4 51  1  0  0  0  0
 16  5  1  1  0  0  0
  5 52  1  0  0  0  0
  6 18  1  0  0  0  0
  6 23  1  0  0  0  0
  7 20  2  0  0  0  0
  7 24  1  0  0  0  0
  8 23  2  0  0  0  0
  9 26  1  0  0  0  0
  9 62  1  0  0  0  0
 10 32  1  0  0  0  0
 10 63  1  0  0  0  0
 11 35  1  0  0  0  0
 11 64  1  0  0  0  0
 12 42  1  0  0  0  0
 12 69  1  0  0  0  0
 13 14  1  0  0  0  0
 13 15  1  0  0  0  0
 13 43  1  0  0  0  0
 14 16  1  0  0  0  0
 14 44  1  0  0  0  0
 15 18  1  6  0  0  0
 15 45  1  0  0  0  0
 16 17  1  0  0  0  0
 16 46  1  0  0  0  0
 17 47  1  0  0  0  0
 18 48  1  0  0  0  0
 18 49  1  0  0  0  0
 19 20  1  0  0  0  0
 19 21  2  0  0  0  0
 20 25  1  0  0  0  0
 21 22  1  0  0  0  0
 21 53  1  0  0  0  0
 22 24  1  0  0  0  0
 22 26  2  0  0  0  0
 23 28  1  0  0  0  0
 24 27  2  0  0  0  0
 25 29  2  0  0  0  0
 25 30  1  0  0  0  0
 26 31  1  0  0  0  0
 27 32  1  0  0  0  0
 27 54  1  0  0  0  0
 28 36  2  0  0  0  0
 28 55  1  0  0  0  0
 29 33  1  0  0  0  0
 29 56  1  0  0  0  0
 30 34  2  0  0  0  0
 30 57  1  0  0  0  0
 31 32  2  0  0  0  0
 31 58  1  0  0  0  0
 33 35  2  0  0  0  0
 33 59  1  0  0  0  0
 34 35  1  0  0  0  0
 34 60  1  0  0  0  0
 36 37  1  0  0  0  0
 36 61  1  0  0  0  0
 37 38  2  0  0  0  0
 37 39  1  0  0  0  0
 38 40  1  0  0  0  0
 38 65  1  0  0  0  0
 39 41  2  0  0  0  0
 39 66  1  0  0  0  0
 40 42  2  0  0  0  0
 40 67  1  0  0  0  0
 41 42  1  0  0  0  0
 41 68  1  0  0  0  0
M  CHG  1   7   1
M  END
> <PUBCHEM_COMPOUND_CID>
23724733

> <PUBCHEM_COMPOUND_CANONICALIZED>
1

> <PUBCHEM_CACTVS_COMPLEXITY>
901

> <PUBCHEM_CACTVS_HBOND_ACCEPTOR>
11

> <PUBCHEM_CACTVS_HBOND_DONOR>
7

> <PUBCHEM_CACTVS_ROTATABLE_BOND>
8

> <PUBCHEM_CACTVS_SUBSKEYS>
AAADceB4PAAAAAAAAAAAAAAAAAAAAAAAAAA0aMECAAAAAACR9AAAGgAACAAADBSwmAMwDsAABkCIAqDSCAICCAAkIAAIiAFGiMgdNzaGNR6ieWKl4BUPuYfK7OzOIAAACAAIAABAAAAQABAAAAAAAAAAAA==

> <PUBCHEM_IUPAC_OPENEYE_NAME>
[(2R,3S,4S,5R,6S)-6-[5,7-dihydroxy-2-(4-hydroxyphenyl)chromenylium-3-yl]oxy-3,4,5-trihydroxy-tetrahydropyran-2-yl]methyl (E)-3-(4-hydroxyphenyl)prop-2-enoate

> <PUBCHEM_IUPAC_CAS_NAME>
(E)-3-(4-hydroxyphenyl)-2-propenoic acid [(2R,3S,4S,5R,6S)-6-[[5,7-dihydroxy-2-(4-hydroxyphenyl)-1-benzopyrylium-3-yl]oxy]-3,4,5-trihydroxy-2-oxanyl]methyl ester

> <PUBCHEM_IUPAC_NAME>
[(2R,3S,4S,5R,6S)-6-[5,7-dihydroxy-2-(4-hydroxyphenyl)chromenylium-3-yl]oxy-3,4,5-trihydroxyoxan-2-yl]methyl (E)-3-(4-hydroxyphenyl)prop-2-enoate

> <PUBCHEM_IUPAC_SYSTEMATIC_NAME>
[(2R,3S,4S,5R,6S)-6-[2-(4-hydroxyphenyl)-5,7-bis(oxidanyl)chromenylium-3-yl]oxy-3,4,5-tris(oxidanyl)oxan-2-yl]methyl (E)-3-(4-hydroxyphenyl)prop-2-enoate

> <PUBCHEM_IUPAC_TRADITIONAL_NAME>
(E)-3-(4-hydroxyphenyl)acrylic acid [(2R,3S,4S,5R,6S)-6-[[5,7-dihydroxy-2-(4-hydroxyphenyl)-1-benzopyrylium-3-yl]oxy]-3,4,5-trihydroxy-tetrahydropyran-2-yl]methyl ester

> <PUBCHEM_IUPAC_INCHI>
InChI=1S/C30H26O12/c31-17-6-1-15(2-7-17)3-10-25(35)39-14-24-26(36)27(37)28(38)30(42-24)41-23-13-20-21(34)11-19(33)12-22(20)40-29(23)16-4-8-18(32)9-5-16/h1-13,24,26-28,30,36-38H,14H2,(H3-,31,32,33,34,35)/p+1/t24-,26-,27+,28-,30-/m1/s1

> <PUBCHEM_IUPAC_INCHIKEY>
VZPBBOAZFCREMQ-SHPGVJHPSA-O

> <PUBCHEM_EXACT_MASS>
579.150251

> <PUBCHEM_MOLECULAR_FORMULA>
C30H27O12+

> <PUBCHEM_MOLECULAR_WEIGHT>
579.52818

> <PUBCHEM_OPENEYE_CAN_SMILES>
C1=CC(=CC=C1C=CC(=O)OCC2C(C(C(C(O2)OC3=C([O+]=C4C=C(C=C(C4=C3)O)O)C5=CC=C(C=C5)O)O)O)O)O

> <PUBCHEM_OPENEYE_ISO_SMILES>
C1=CC(=CC=C1/C=C/C(=O)OC[C@@H]2[C@H]([C@@H]([C@H]([C@@H](O2)OC3=C([O+]=C4C=C(C=C(C4=C3)O)O)C5=CC=C(C=C5)O)O)O)O)O

> <PUBCHEM_CACTVS_TPSA>
187

> <PUBCHEM_MONOISOTOPIC_WEIGHT>
579.150251

> <PUBCHEM_TOTAL_CHARGE>
1

> <PUBCHEM_HEAVY_ATOM_COUNT>
42

> <PUBCHEM_ATOM_DEF_STEREO_COUNT>
5

> <PUBCHEM_ATOM_UDEF_STEREO_COUNT>
0

> <PUBCHEM_BOND_DEF_STEREO_COUNT>
1

> <PUBCHEM_BOND_UDEF_STEREO_COUNT>
0

> <PUBCHEM_ISOTOPIC_ATOM_COUNT>
0

> <PUBCHEM_COMPONENT_COUNT>
1

> <PUBCHEM_CACTVS_TAUTO_COUNT>
212

> <PUBCHEM_COORDINATE_TYPE>
1
5
255

> <PUBCHEM_BONDANNOTATIONS>
15  18  6
19  20  8
19  21  8
17  2  6
21  22  8
22  24  8
22  26  8
24  27  8
25  29  8
25  30  8
26  31  8
27  32  8
29  33  8
13  3  5
30  34  8
31  32  8
33  35  8
34  35  8
37  38  8
37  39  8
38  40  8
39  41  8
14  4  6
40  42  8
41  42  8
16  5  5
7  20  8
7  24  8

$$$$

