125848
  -OEChem-07051212592D

 40 44  0     1  0  0  0  0  0999 V2000
    3.3950    0.0000    0.0000 O   0  0  0  0  0  0  0  0  0  0  0  0
    2.5392    0.4884    0.0000 O   0  0  0  0  0  0  0  0  0  0  0  0
    4.2018    3.5038    0.0000 O   0  0  0  0  0  0  0  0  0  0  0  0
    6.0051    3.5692    0.0000 O   0  0  0  0  0  0  0  0  0  0  0  0
    6.0051   -3.5692    0.0000 O   0  0  0  0  0  0  0  0  0  0  0  0
    4.2018   -3.5038    0.0000 O   0  0  0  0  0  0  0  0  0  0  0  0
    4.2610    0.5000    0.0000 C   0  0  1  0  0  0  0  0  0  0  0  0
    4.2610   -0.5000    0.0000 C   0  0  2  0  0  0  0  0  0  0  0  0
    5.1270    1.0000    0.0000 C   0  0  0  0  0  0  0  0  0  0  0  0
    3.4015    0.9948    0.0000 C   0  0  2  0  0  0  0  0  0  0  0  0
    5.1270   -1.0000    0.0000 C   0  0  0  0  0  0  0  0  0  0  0  0
    5.9930    0.5000    0.0000 C   0  0  0  0  0  0  0  0  0  0  0  0
    5.9930   -0.5000    0.0000 C   0  0  0  0  0  0  0  0  0  0  0  0
    3.3881    1.9864    0.0000 C   0  0  0  0  0  0  0  0  0  0  0  0
    5.1110    2.0415    0.0000 C   0  0  0  0  0  0  0  0  0  0  0  0
    3.4015   -0.9948    0.0000 C   0  0  0  0  0  0  0  0  0  0  0  0
    5.1110   -2.0415    0.0000 C   0  0  0  0  0  0  0  0  0  0  0  0
    4.2338    2.5043    0.0000 C   0  0  0  0  0  0  0  0  0  0  0  0
    6.9030    1.0068    0.0000 C   0  0  0  0  0  0  0  0  0  0  0  0
    6.0090    2.5693    0.0000 C   0  0  0  0  0  0  0  0  0  0  0  0
    6.9030   -1.0068    0.0000 C   0  0  0  0  0  0  0  0  0  0  0  0
    3.3881   -1.9864    0.0000 C   0  0  0  0  0  0  0  0  0  0  0  0
    4.2338   -2.5043    0.0000 C   0  0  0  0  0  0  0  0  0  0  0  0
    6.0090   -2.5693    0.0000 C   0  0  0  0  0  0  0  0  0  0  0  0
    6.9111    2.0484    0.0000 C   0  0  0  0  0  0  0  0  0  0  0  0
    6.9111   -2.0484    0.0000 C   0  0  0  0  0  0  0  0  0  0  0  0
    3.5251    0.0745    0.0000 H   0  0  0  0  0  0  0  0  0  0  0  0
    3.4042    0.3748    0.0000 H   0  0  0  0  0  0  0  0  0  0  0  0
    3.1634    2.5642    0.0000 H   0  0  0  0  0  0  0  0  0  0  0  0
    2.7795    1.8680    0.0000 H   0  0  0  0  0  0  0  0  0  0  0  0
    2.8669   -0.6808    0.0000 H   0  0  0  0  0  0  0  0  0  0  0  0
    2.8580   -0.3100    0.0000 H   0  0  0  0  0  0  0  0  0  0  0  0
    7.4364    0.6907    0.0000 H   0  0  0  0  0  0  0  0  0  0  0  0
    7.4364   -0.6907    0.0000 H   0  0  0  0  0  0  0  0  0  0  0  0
    2.8452   -2.2858    0.0000 H   0  0  0  0  0  0  0  0  0  0  0  0
    2.0000    0.7944    0.0000 H   0  0  0  0  0  0  0  0  0  0  0  0
    7.4492    2.3564    0.0000 H   0  0  0  0  0  0  0  0  0  0  0  0
    7.4492   -2.3564    0.0000 H   0  0  0  0  0  0  0  0  0  0  0  0
    6.5409    3.8813    0.0000 H   0  0  0  0  0  0  0  0  0  0  0  0
    6.5409   -3.8813    0.0000 H   0  0  0  0  0  0  0  0  0  0  0  0
  8  1  1  6  0  0  0
  1 32  1  0  0  0  0
 10  2  1  1  0  0  0
  2 36  1  0  0  0  0
  3 18  2  0  0  0  0
  4 20  1  0  0  0  0
  4 39  1  0  0  0  0
  5 24  1  0  0  0  0
  5 40  1  0  0  0  0
  6 23  2  0  0  0  0
  7  8  1  0  0  0  0
  7  9  1  0  0  0  0
  7 10  1  0  0  0  0
  7 27  1  1  0  0  0
  8 11  1  0  0  0  0
  8 16  1  0  0  0  0
  9 12  2  0  0  0  0
  9 15  1  0  0  0  0
 10 14  1  0  0  0  0
 10 28  1  0  0  0  0
 11 13  2  0  0  0  0
 11 17  1  0  0  0  0
 12 13  1  0  0  0  0
 12 19  1  0  0  0  0
 13 21  1  0  0  0  0
 14 18  1  0  0  0  0
 14 29  1  0  0  0  0
 14 30  1  0  0  0  0
 15 18  1  0  0  0  0
 15 20  2  0  0  0  0
 16 22  2  0  0  0  0
 16 31  1  0  0  0  0
 17 23  1  0  0  0  0
 17 24  2  0  0  0  0
 19 25  2  0  0  0  0
 19 33  1  0  0  0  0
 20 25  1  0  0  0  0
 21 26  2  0  0  0  0
 21 34  1  0  0  0  0
 22 23  1  0  0  0  0
 22 35  1  0  0  0  0
 24 26  1  0  0  0  0
 25 37  1  0  0  0  0
 26 38  1  0  0  0  0
M  END
> <PUBCHEM_COMPOUND_CID>
125848

> <PUBCHEM_COMPOUND_CANONICALIZED>
1

> <PUBCHEM_CACTVS_COMPLEXITY>
688

> <PUBCHEM_CACTVS_HBOND_ACCEPTOR>
6

> <PUBCHEM_CACTVS_HBOND_DONOR>
4

> <PUBCHEM_CACTVS_ROTATABLE_BOND>
0

> <PUBCHEM_CACTVS_SUBSKEYS>
AAADccB4OAAAAAAAAAAAAAAAAAAAAAAAAAAwYMGCAAAAAADBQAAAGgAACAAADVSgmAIwBoAAAgCIAqBSAAACAAAkIAAIiAEGCMgINjaCFBKAcUAl4BEImYfK7PTOoAADAAAYAADAAAYAADAAAAAAAAAAAA==

> <PUBCHEM_IUPAC_OPENEYE_NAME>
(1S,12aR,12bS)-1,4,9,12a-tetrahydroxy-2,12b-dihydro-1H-perylene-3,10-dione

> <PUBCHEM_IUPAC_CAS_NAME>
(1S,12aR,12bS)-1,4,9,12a-tetrahydroxy-2,12b-dihydro-1H-perylene-3,10-dione

> <PUBCHEM_IUPAC_NAME>
(1S,12aR,12bS)-1,4,9,12a-tetrahydroxy-2,12b-dihydro-1H-perylene-3,10-dione

> <PUBCHEM_IUPAC_SYSTEMATIC_NAME>
(1S,12aR,12bS)-1,4,9,12a-tetrakis(oxidanyl)-2,12b-dihydro-1H-perylene-3,10-dione

> <PUBCHEM_IUPAC_TRADITIONAL_NAME>
(1S,12aR,12bS)-1,4,9,12a-tetrahydroxy-2,12b-dihydro-1H-perylene-3,10-quinone

> <PUBCHEM_IUPAC_INCHI>
InChI=1S/C20H14O6/c21-10-3-1-8-9-2-4-11(22)17-12(23)5-6-20(26,18(9)17)19-14(25)7-13(24)16(10)15(8)19/h1-6,14,19,21-22,25-26H,7H2/t14-,19+,20-/m0/s1

> <PUBCHEM_IUPAC_INCHIKEY>
MTOHOIPTYJIUCH-KPOBHBOGSA-N

> <PUBCHEM_XLOGP3_AA>
1.6

> <PUBCHEM_EXACT_MASS>
350.079038

> <PUBCHEM_MOLECULAR_FORMULA>
C20H14O6

> <PUBCHEM_MOLECULAR_WEIGHT>
350.32156

> <PUBCHEM_OPENEYE_CAN_SMILES>
C1C(C2C3=C(C=CC(=C3C1=O)O)C4=C5C2(C=CC(=O)C5=C(C=C4)O)O)O

> <PUBCHEM_OPENEYE_ISO_SMILES>
C1[C@@H]([C@@H]2C3=C(C=CC(=C3C1=O)O)C4=C5[C@]2(C=CC(=O)C5=C(C=C4)O)O)O

> <PUBCHEM_CACTVS_TPSA>
115

> <PUBCHEM_MONOISOTOPIC_WEIGHT>
350.079038

> <PUBCHEM_TOTAL_CHARGE>
0

> <PUBCHEM_HEAVY_ATOM_COUNT>
26

> <PUBCHEM_ATOM_DEF_STEREO_COUNT>
3

> <PUBCHEM_ATOM_UDEF_STEREO_COUNT>
0

> <PUBCHEM_BOND_DEF_STEREO_COUNT>
0

> <PUBCHEM_BOND_UDEF_STEREO_COUNT>
0

> <PUBCHEM_ISOTOPIC_ATOM_COUNT>
0

> <PUBCHEM_COMPONENT_COUNT>
1

> <PUBCHEM_CACTVS_TAUTO_COUNT>
162

> <PUBCHEM_COORDINATE_TYPE>
1
5
255

> <PUBCHEM_BONDANNOTATIONS>
8  1  6
11  13  8
11  17  8
12  19  8
13  21  8
15  20  8
17  24  8
19  25  8
10  2  5
20  25  8
21  26  8
24  26  8
7  27  5
9  12  8
9  15  8

$$$$

