12311059
  -OEChem-07051213153D

 52 55  0     1  0  0  0  0  0999 V2000
   -0.8325   -0.7177    0.0302 C   0  0  1  0  0  0  0  0  0  0  0  0
    0.6400   -0.5160   -0.5415 C   0  0  1  0  0  0  0  0  0  0  0  0
    1.3444    0.8132   -0.1011 C   0  0  1  0  0  0  0  0  0  0  0  0
   -1.6334    0.6127   -0.2451 C   0  0  1  0  0  0  0  0  0  0  0  0
    0.4434    2.0443   -0.1852 C   0  0  0  0  0  0  0  0  0  0  0  0
   -3.1876    0.5534   -0.0271 C   0  0  0  0  0  0  0  0  0  0  0  0
    2.0185    0.6645    1.2733 C   0  0  0  0  0  0  0  0  0  0  0  0
   -0.9436    1.8254    0.4117 C   0  0  0  0  0  0  0  0  0  0  0  0
    1.5877   -1.7539   -0.3873 C   0  0  0  0  0  0  0  0  0  0  0  0
    3.2023   -0.2408    0.9368 C   0  0  1  0  0  0  0  0  0  0  0  0
   -1.5315   -1.8656   -0.7602 C   0  0  0  0  0  0  0  0  0  0  0  0
    2.6725   -1.6622    0.7090 C   0  0  0  0  0  0  0  0  0  0  0  0
    2.6045    1.0026   -0.9377 C   0  0  0  0  0  0  0  0  0  0  0  0
   -3.7615   -0.6701   -0.7833 C   0  0  0  0  0  0  0  0  0  0  0  0
   -0.7985   -1.1230    1.5213 C   0  0  0  0  0  0  0  0  0  0  0  0
   -3.0343   -1.9772   -0.5040 C   0  0  0  0  0  0  0  0  0  0  0  0
    3.6487    0.3972   -0.3522 C   0  0  0  0  0  0  0  0  0  0  0  0
   -3.6190    0.5250    1.4505 C   0  0  0  0  0  0  0  0  0  0  0  0
   -3.8581    1.8073   -0.6509 C   0  0  0  0  0  0  0  0  0  0  0  0
    5.0379    0.2810   -0.8572 C   0  0  0  0  0  0  0  0  0  0  0  0
    0.4918   -0.4184   -1.6303 H   0  0  0  0  0  0  0  0  0  0  0  0
   -1.5303    0.7801   -1.3309 H   0  0  0  0  0  0  0  0  0  0  0  0
    0.3180    2.3335   -1.2381 H   0  0  0  0  0  0  0  0  0  0  0  0
    0.9133    2.9067    0.3048 H   0  0  0  0  0  0  0  0  0  0  0  0
    1.3853    0.2446    2.0543 H   0  0  0  0  0  0  0  0  0  0  0  0
    2.3779    1.6332    1.6511 H   0  0  0  0  0  0  0  0  0  0  0  0
   -0.8730    1.7141    1.4974 H   0  0  0  0  0  0  0  0  0  0  0  0
   -1.5156    2.7417    0.2379 H   0  0  0  0  0  0  0  0  0  0  0  0
    2.1130   -1.8758   -1.3459 H   0  0  0  0  0  0  0  0  0  0  0  0
    1.0334   -2.6879   -0.2606 H   0  0  0  0  0  0  0  0  0  0  0  0
    3.9656   -0.2034    1.7195 H   0  0  0  0  0  0  0  0  0  0  0  0
   -1.0784   -2.8341   -0.5216 H   0  0  0  0  0  0  0  0  0  0  0  0
   -1.3809   -1.7125   -1.8371 H   0  0  0  0  0  0  0  0  0  0  0  0
    2.2604   -2.0396    1.6525 H   0  0  0  0  0  0  0  0  0  0  0  0
    3.4992   -2.3342    0.4470 H   0  0  0  0  0  0  0  0  0  0  0  0
    2.6326    1.4942   -1.8999 H   0  0  0  0  0  0  0  0  0  0  0  0
   -3.7100   -0.4829   -1.8650 H   0  0  0  0  0  0  0  0  0  0  0  0
   -4.8264   -0.7962   -0.5492 H   0  0  0  0  0  0  0  0  0  0  0  0
   -1.7200   -1.6032    1.8518 H   0  0  0  0  0  0  0  0  0  0  0  0
   -0.0194   -1.8624    1.7221 H   0  0  0  0  0  0  0  0  0  0  0  0
   -0.6359   -0.2781    2.1911 H   0  0  0  0  0  0  0  0  0  0  0  0
   -3.4456   -2.7578   -1.1560 H   0  0  0  0  0  0  0  0  0  0  0  0
   -3.2343   -2.3103    0.5189 H   0  0  0  0  0  0  0  0  0  0  0  0
   -4.7070    0.6371    1.5371 H   0  0  0  0  0  0  0  0  0  0  0  0
   -3.3747   -0.4098    1.9527 H   0  0  0  0  0  0  0  0  0  0  0  0
   -3.1679    1.3444    2.0190 H   0  0  0  0  0  0  0  0  0  0  0  0
   -3.6400    2.7168   -0.0825 H   0  0  0  0  0  0  0  0  0  0  0  0
   -3.5270    1.9654   -1.6834 H   0  0  0  0  0  0  0  0  0  0  0  0
   -4.9494    1.7003   -0.6701 H   0  0  0  0  0  0  0  0  0  0  0  0
    5.3092   -0.7705   -0.9924 H   0  0  0  0  0  0  0  0  0  0  0  0
    5.7393    0.7326   -0.1490 H   0  0  0  0  0  0  0  0  0  0  0  0
    5.1586    0.7870   -1.8205 H   0  0  0  0  0  0  0  0  0  0  0  0
  1  2  1  0  0  0  0
  1  4  1  0  0  0  0
  1 11  1  0  0  0  0
  1 15  1  0  0  0  0
  2  3  1  0  0  0  0
  2  9  1  0  0  0  0
  2 21  1  0  0  0  0
  3  5  1  0  0  0  0
  3  7  1  0  0  0  0
  3 13  1  0  0  0  0
  4  6  1  0  0  0  0
  4  8  1  0  0  0  0
  4 22  1  0  0  0  0
  5  8  1  0  0  0  0
  5 23  1  0  0  0  0
  5 24  1  0  0  0  0
  6 14  1  0  0  0  0
  6 18  1  0  0  0  0
  6 19  1  0  0  0  0
  7 10  1  0  0  0  0
  7 25  1  0  0  0  0
  7 26  1  0  0  0  0
  8 27  1  0  0  0  0
  8 28  1  0  0  0  0
  9 12  1  0  0  0  0
  9 29  1  0  0  0  0
  9 30  1  0  0  0  0
 10 12  1  0  0  0  0
 10 17  1  0  0  0  0
 10 31  1  0  0  0  0
 11 16  1  0  0  0  0
 11 32  1  0  0  0  0
 11 33  1  0  0  0  0
 12 34  1  0  0  0  0
 12 35  1  0  0  0  0
 13 17  2  0  0  0  0
 13 36  1  0  0  0  0
 14 16  1  0  0  0  0
 14 37  1  0  0  0  0
 14 38  1  0  0  0  0
 15 39  1  0  0  0  0
 15 40  1  0  0  0  0
 15 41  1  0  0  0  0
 16 42  1  0  0  0  0
 16 43  1  0  0  0  0
 17 20  1  0  0  0  0
 18 44  1  0  0  0  0
 18 45  1  0  0  0  0
 18 46  1  0  0  0  0
 19 47  1  0  0  0  0
 19 48  1  0  0  0  0
 19 49  1  0  0  0  0
 20 50  1  0  0  0  0
 20 51  1  0  0  0  0
 20 52  1  0  0  0  0
M  END
> <PUBCHEM_COMPOUND_CID>
12311059

> <PUBCHEM_CONFORMER_RMSD>
0.6

> <PUBCHEM_CONFORMER_DIVERSEORDER>
1

> <PUBCHEM_MMFF94_PARTIAL_CHARGES>
6
10 0.14
13 -0.29
17 -0.28
20 0.14
3 0.14
36 0.15

> <PUBCHEM_EFFECTIVE_ROTOR_COUNT>
1.8

> <PUBCHEM_PHARMACOPHORE_FEATURES>
4
3 6 18 19 hydrophobe
6 1 2 3 4 5 8 rings
6 1 4 6 11 14 16 rings
8 2 3 7 9 10 12 13 17 rings

> <PUBCHEM_HEAVY_ATOM_COUNT>
20

> <PUBCHEM_ATOM_DEF_STEREO_COUNT>
5

> <PUBCHEM_ATOM_UDEF_STEREO_COUNT>
0

> <PUBCHEM_BOND_DEF_STEREO_COUNT>
0

> <PUBCHEM_BOND_UDEF_STEREO_COUNT>
0

> <PUBCHEM_ISOTOPIC_ATOM_COUNT>
0

> <PUBCHEM_COMPONENT_COUNT>
1

> <PUBCHEM_CACTVS_TAUTO_COUNT>
1

> <PUBCHEM_CONFORMER_ID>
00BBDA1300000001

> <PUBCHEM_MMFF94_ENERGY>
85.4133

> <PUBCHEM_FEATURE_SELFOVERLAP>
20.328

> <PUBCHEM_SHAPE_FINGERPRINT>
10062212 137 18411710880433326715
10498660 4 18408325488410619044
10616163 171 18409448063791235079
10646746 165 18186523176760868664
10759866 29 18201155550702372086
10863032 1 18334582364289862946
10948715 1 17989199331166980864
10967382 1 18264774431377589727
10980938 120 18411702114204622042
11132069 177 18409456894328216136
11578080 2 7059805183857451059
12011746 2 18261674856459223972
12236239 1 18131915962428315076
12382932 28 18333736827179323203
12403814 3 17917997195925283221
12491281 212 18333726936027941811
12500047 106 18335428988528106621
12553582 1 18410857654946510681
12788726 201 17241882284284231585
13140716 1 18264203612896694689
13221675 6 18411980252139202856
13224815 77 18410013208456801883
13296908 3 17167864123384665797
13538477 17 18411985762687777724
13760787 19 18343866631895269022
14144814 61 18409453565855090747
14178342 30 18265354831698985810
14787075 74 17987787519645456403
15196674 1 18410858788754300526
15309172 13 18335977640572179875
15375462 189 18342173353907996256
15415430 112 18409446964411196756
15775835 57 18410008853359924715
1601671 61 18408321103544233564
16752209 62 18335432222633446247
16945 1 18334017215350226289
17349148 13 18187662305356887311
17492 89 18412548729758752155
17804303 29 18114181912791231376
1813 80 17344078626596817050
18186145 218 17676210182087498977
19862831 5 17385719201444497582
19868273 293 18411705391443828693
200 152 18334860489223724839
20261772 1 18336254683279739371
21267235 1 18337665330559561655
21421861 104 17771634717582591618
21501502 16 18411705386916999543
2334 1 17976542710790604273
23402539 116 18413393141966661684
23402655 69 18341895229116734596
23463225 33 18412268349860531982
23493267 7 18060697286344179992
23557571 272 17748822986758959239
23559900 14 18113900460165089428
2748010 2 17476637581669307371
296302 2 16272206384100010892
3286 77 17167865214543891960
335352 9 18193843870922640183
34934 24 18412548738126263588
350125 39 18336824196207056137
474 4 17846779593999547022
5104073 3 18409733966984548234
633830 44 17631734988241453531
69090 78 18335428988770706223
74978 22 18336267825521150557
7832392 63 18408328778339554997
90525 40 18259987063361504959
9709674 26 18413102866412304078
9981440 41 17117475473202180016

> <PUBCHEM_SHAPE_MULTIPOLES>
411.59
7.65
2.11
1.2
1.64
0.17
-0.34
-0.71
1.11
-0.94
0.21
-0.05
0.08
-0.49

> <PUBCHEM_SHAPE_SELFOVERLAP>
879.594

> <PUBCHEM_SHAPE_VOLUME>
227.1

> <PUBCHEM_COORDINATE_TYPE>
2
5
10

$$$$

