133204
  -OEChem-07051213103D

 22 23  0     1  0  0  0  0  0999 V2000
   -0.3402   -1.0281    0.0922 O   0  0  0  0  0  0  0  0  0  0  0  0
    3.1845    0.9807   -0.7697 O   0  0  0  0  0  0  0  0  0  0  0  0
   -4.4175    0.0302   -0.1152 O   0  0  0  0  0  0  0  0  0  0  0  0
    1.4660    0.3219    0.7065 N   0  0  0  0  0  0  0  0  0  0  0  0
    1.0087   -1.0714    0.6169 C   0  0  2  0  0  0  0  0  0  0  0  0
   -0.6829    0.3533   -0.2092 C   0  0  2  0  0  0  0  0  0  0  0  0
    0.3375    1.2206    0.5576 C   0  0  0  0  0  0  0  0  0  0  0  0
    2.1900   -1.3279   -0.3333 C   0  0  0  0  0  0  0  0  0  0  0  0
    2.4675    0.1818   -0.2107 C   0  0  0  0  0  0  0  0  0  0  0  0
   -2.1170    0.6201    0.2013 C   0  0  0  0  0  0  0  0  0  0  0  0
   -3.0967   -0.2813   -0.5362 C   0  0  0  0  0  0  0  0  0  0  0  0
    1.0567   -1.5957    1.5761 H   0  0  0  0  0  0  0  0  0  0  0  0
   -0.5499    0.4847   -1.2898 H   0  0  0  0  0  0  0  0  0  0  0  0
    0.6085    2.1223    0.0014 H   0  0  0  0  0  0  0  0  0  0  0  0
   -0.0100    1.4793    1.5622 H   0  0  0  0  0  0  0  0  0  0  0  0
    1.9210   -1.6481   -1.3428 H   0  0  0  0  0  0  0  0  0  0  0  0
    2.9853   -1.9611    0.0674 H   0  0  0  0  0  0  0  0  0  0  0  0
   -2.3763    1.6709    0.0238 H   0  0  0  0  0  0  0  0  0  0  0  0
   -2.2427    0.4510    1.2787 H   0  0  0  0  0  0  0  0  0  0  0  0
   -3.0314   -0.1245   -1.6177 H   0  0  0  0  0  0  0  0  0  0  0  0
   -2.9093   -1.3374   -0.3184 H   0  0  0  0  0  0  0  0  0  0  0  0
   -5.0189   -0.5564   -0.6048 H   0  0  0  0  0  0  0  0  0  0  0  0
  1  5  1  0  0  0  0
  1  6  1  0  0  0  0
  2  9  2  0  0  0  0
  3 11  1  0  0  0  0
  3 22  1  0  0  0  0
  4  5  1  0  0  0  0
  4  7  1  0  0  0  0
  4  9  1  0  0  0  0
  5  8  1  0  0  0  0
  5 12  1  0  0  0  0
  6  7  1  0  0  0  0
  6 10  1  0  0  0  0
  6 13  1  0  0  0  0
  7 14  1  0  0  0  0
  7 15  1  0  0  0  0
  8  9  1  0  0  0  0
  8 16  1  0  0  0  0
  8 17  1  0  0  0  0
 10 11  1  0  0  0  0
 10 18  1  0  0  0  0
 10 19  1  0  0  0  0
 11 20  1  0  0  0  0
 11 21  1  0  0  0  0
M  END
> <PUBCHEM_COMPOUND_CID>
133204

> <PUBCHEM_CONFORMER_RMSD>
0.6

> <PUBCHEM_CONFORMER_DIVERSEORDER>
1
7
5
6
3
2
4

> <PUBCHEM_MMFF94_PARTIAL_CHARGES>
11
1 -0.54
11 0.28
2 -0.57
22 0.4
3 -0.68
4 -0.59
5 0.48
6 0.28
7 0.3
8 0.05
9 0.58

> <PUBCHEM_EFFECTIVE_ROTOR_COUNT>
2.8

> <PUBCHEM_PHARMACOPHORE_FEATURES>
5
1 1 acceptor
1 2 acceptor
1 3 acceptor
1 3 donor
7 1 4 5 6 7 8 9 rings

> <PUBCHEM_HEAVY_ATOM_COUNT>
11

> <PUBCHEM_ATOM_DEF_STEREO_COUNT>
2

> <PUBCHEM_ATOM_UDEF_STEREO_COUNT>
0

> <PUBCHEM_BOND_DEF_STEREO_COUNT>
0

> <PUBCHEM_BOND_UDEF_STEREO_COUNT>
0

> <PUBCHEM_ISOTOPIC_ATOM_COUNT>
0

> <PUBCHEM_COMPONENT_COUNT>
1

> <PUBCHEM_CACTVS_TAUTO_COUNT>
1

> <PUBCHEM_CONFORMER_ID>
0002085400000001

> <PUBCHEM_MMFF94_ENERGY>
31.0759

> <PUBCHEM_FEATURE_SELFOVERLAP>
25.371

> <PUBCHEM_SHAPE_FINGERPRINT>
11062470 55 15913330195593900485
12251169 10 10015581684028219196
12897270 3 18202281432975697316
12932764 1 17531259365353933077
14325111 11 18411138065008403365
14993402 34 17967250884263855389
16945 1 18334012765832452176
170605 34 17989487403102590952
19422 9 18188203316390487515
20645477 70 18339086003168382535
20820808 20 18343299232682978040
21040471 1 18410859832848058946
21293036 1 18411134718933526245
23402655 69 18408890659204880981
23552423 10 18195243544961668178
29004967 10 4967600651485456618
5084963 1 18339083816633863666

> <PUBCHEM_SHAPE_MULTIPOLES>
203.79
5.58
1.24
0.79
5.13
0.1
0.01
-0.02
-1.25
-0.64
0.05
-0.21
-0.03
-0.22

> <PUBCHEM_SHAPE_SELFOVERLAP>
417.371

> <PUBCHEM_SHAPE_VOLUME>
118.4

> <PUBCHEM_COORDINATE_TYPE>
2
5
10

$$$$

