230884
  -OEChem-07051213063D

 56 59  0     1  0  0  0  0  0999 V2000
   -5.3551   -1.3292   -0.1140 O   0  0  0  0  0  0  0  0  0  0  0  0
    5.6885    0.4742   -0.0272 O   0  0  0  0  0  0  0  0  0  0  0  0
   -0.0282   -0.3408   -0.2382 C   0  0  1  0  0  0  0  0  0  0  0  0
   -0.9254    0.8687    0.1846 C   0  0  2  0  0  0  0  0  0  0  0  0
    1.4477   -0.1905    0.2905 C   0  0  2  0  0  0  0  0  0  0  0  0
   -2.3224    0.6707   -0.4130 C   0  0  1  0  0  0  0  0  0  0  0  0
   -2.9978   -0.6286    0.0699 C   0  0  2  0  0  0  0  0  0  0  0  0
    1.9941    1.1743   -0.2358 C   0  0  1  0  0  0  0  0  0  0  0  0
   -0.6937   -1.7035    0.0927 C   0  0  0  0  0  0  0  0  0  0  0  0
   -0.3086    2.2026   -0.2585 C   0  0  0  0  0  0  0  0  0  0  0  0
   -2.1467   -1.8131   -0.4060 C   0  0  0  0  0  0  0  0  0  0  0  0
    1.1348    2.3617    0.2129 C   0  0  0  0  0  0  0  0  0  0  0  0
   -3.3909    1.7361   -0.1800 C   0  0  0  0  0  0  0  0  0  0  0  0
    2.3537   -1.3151   -0.2890 C   0  0  0  0  0  0  0  0  0  0  0  0
   -4.3554   -0.4821   -0.6471 C   0  0  2  0  0  0  0  0  0  0  0  0
   -4.7154    1.0071   -0.4725 C   0  0  0  0  0  0  0  0  0  0  0  0
    3.4717    1.3943    0.1049 C   0  0  0  0  0  0  0  0  0  0  0  0
    3.8542   -1.1210    0.0019 C   0  0  2  0  0  0  0  0  0  0  0  0
    1.4882   -0.2768    1.8378 C   0  0  0  0  0  0  0  0  0  0  0  0
   -3.2036   -0.7206    1.6029 C   0  0  0  0  0  0  0  0  0  0  0  0
    4.3424    0.2644   -0.4469 C   0  0  2  0  0  0  0  0  0  0  0  0
    4.6680   -2.2327   -0.6699 C   0  0  0  0  0  0  0  0  0  0  0  0
    0.0334   -0.3096   -1.3380 H   0  0  0  0  0  0  0  0  0  0  0  0
   -1.0115    0.9000    1.2755 H   0  0  0  0  0  0  0  0  0  0  0  0
   -2.1917    0.6083   -1.5067 H   0  0  0  0  0  0  0  0  0  0  0  0
    1.9362    1.1485   -1.3354 H   0  0  0  0  0  0  0  0  0  0  0  0
   -0.6731   -1.8866    1.1713 H   0  0  0  0  0  0  0  0  0  0  0  0
   -0.1245   -2.5179   -0.3689 H   0  0  0  0  0  0  0  0  0  0  0  0
   -0.9011    3.0392    0.1301 H   0  0  0  0  0  0  0  0  0  0  0  0
   -0.3375    2.2788   -1.3532 H   0  0  0  0  0  0  0  0  0  0  0  0
   -2.1353   -1.8510   -1.5031 H   0  0  0  0  0  0  0  0  0  0  0  0
   -2.5815   -2.7620   -0.0697 H   0  0  0  0  0  0  0  0  0  0  0  0
    1.5391    3.2919   -0.2046 H   0  0  0  0  0  0  0  0  0  0  0  0
    1.1633    2.4741    1.3026 H   0  0  0  0  0  0  0  0  0  0  0  0
   -3.2589    2.6009   -0.8382 H   0  0  0  0  0  0  0  0  0  0  0  0
   -3.3756    2.1000    0.8534 H   0  0  0  0  0  0  0  0  0  0  0  0
    2.2074   -1.3697   -1.3766 H   0  0  0  0  0  0  0  0  0  0  0  0
    2.0483   -2.2889    0.1129 H   0  0  0  0  0  0  0  0  0  0  0  0
   -4.2583   -0.7117   -1.7152 H   0  0  0  0  0  0  0  0  0  0  0  0
   -5.4371    1.1752    0.3345 H   0  0  0  0  0  0  0  0  0  0  0  0
   -5.1736    1.3899   -1.3915 H   0  0  0  0  0  0  0  0  0  0  0  0
    3.8188    2.3446   -0.3221 H   0  0  0  0  0  0  0  0  0  0  0  0
    3.6237    1.4989    1.1857 H   0  0  0  0  0  0  0  0  0  0  0  0
    4.0302   -1.2231    1.0802 H   0  0  0  0  0  0  0  0  0  0  0  0
    1.2041   -1.2752    2.1865 H   0  0  0  0  0  0  0  0  0  0  0  0
    2.4856   -0.0827    2.2413 H   0  0  0  0  0  0  0  0  0  0  0  0
    0.8164    0.4383    2.3185 H   0  0  0  0  0  0  0  0  0  0  0  0
   -2.2640   -0.6610    2.1586 H   0  0  0  0  0  0  0  0  0  0  0  0
   -3.8486    0.0756    1.9880 H   0  0  0  0  0  0  0  0  0  0  0  0
   -3.6691   -1.6753    1.8745 H   0  0  0  0  0  0  0  0  0  0  0  0
    4.3304    0.3249   -1.5430 H   0  0  0  0  0  0  0  0  0  0  0  0
    4.2918   -3.2183   -0.3751 H   0  0  0  0  0  0  0  0  0  0  0  0
    4.6111   -2.1630   -1.7615 H   0  0  0  0  0  0  0  0  0  0  0  0
    5.7222   -2.1884   -0.3793 H   0  0  0  0  0  0  0  0  0  0  0  0
   -5.6196   -0.9929    0.7584 H   0  0  0  0  0  0  0  0  0  0  0  0
    6.2625   -0.0868   -0.5750 H   0  0  0  0  0  0  0  0  0  0  0  0
  1 15  1  0  0  0  0
  1 55  1  0  0  0  0
  2 21  1  0  0  0  0
  2 56  1  0  0  0  0
  3  4  1  0  0  0  0
  3  5  1  0  0  0  0
  3  9  1  0  0  0  0
  3 23  1  0  0  0  0
  4  6  1  0  0  0  0
  4 10  1  0  0  0  0
  4 24  1  0  0  0  0
  5  8  1  0  0  0  0
  5 14  1  0  0  0  0
  5 19  1  0  0  0  0
  6  7  1  0  0  0  0
  6 13  1  0  0  0  0
  6 25  1  0  0  0  0
  7 11  1  0  0  0  0
  7 15  1  0  0  0  0
  7 20  1  0  0  0  0
  8 12  1  0  0  0  0
  8 17  1  0  0  0  0
  8 26  1  0  0  0  0
  9 11  1  0  0  0  0
  9 27  1  0  0  0  0
  9 28  1  0  0  0  0
 10 12  1  0  0  0  0
 10 29  1  0  0  0  0
 10 30  1  0  0  0  0
 11 31  1  0  0  0  0
 11 32  1  0  0  0  0
 12 33  1  0  0  0  0
 12 34  1  0  0  0  0
 13 16  1  0  0  0  0
 13 35  1  0  0  0  0
 13 36  1  0  0  0  0
 14 18  1  0  0  0  0
 14 37  1  0  0  0  0
 14 38  1  0  0  0  0
 15 16  1  0  0  0  0
 15 39  1  0  0  0  0
 16 40  1  0  0  0  0
 16 41  1  0  0  0  0
 17 21  1  0  0  0  0
 17 42  1  0  0  0  0
 17 43  1  0  0  0  0
 18 21  1  0  0  0  0
 18 22  1  0  0  0  0
 18 44  1  0  0  0  0
 19 45  1  0  0  0  0
 19 46  1  0  0  0  0
 19 47  1  0  0  0  0
 20 48  1  0  0  0  0
 20 49  1  0  0  0  0
 20 50  1  0  0  0  0
 21 51  1  0  0  0  0
 22 52  1  0  0  0  0
 22 53  1  0  0  0  0
 22 54  1  0  0  0  0
M  END
> <PUBCHEM_COMPOUND_CID>
230884

> <PUBCHEM_CONFORMER_RMSD>
0.6

> <PUBCHEM_CONFORMER_DIVERSEORDER>
1

> <PUBCHEM_MMFF94_PARTIAL_CHARGES>
6
1 -0.68
15 0.28
2 -0.68
21 0.28
55 0.4
56 0.4

> <PUBCHEM_EFFECTIVE_ROTOR_COUNT>
2.2

> <PUBCHEM_PHARMACOPHORE_FEATURES>
8
1 1 acceptor
1 1 donor
1 2 acceptor
1 2 donor
5 6 7 13 15 16 rings
6 3 4 5 8 10 12 rings
6 3 4 6 7 9 11 rings
6 5 8 14 17 18 21 rings

> <PUBCHEM_HEAVY_ATOM_COUNT>
22

> <PUBCHEM_ATOM_DEF_STEREO_COUNT>
9

> <PUBCHEM_ATOM_UDEF_STEREO_COUNT>
0

> <PUBCHEM_BOND_DEF_STEREO_COUNT>
0

> <PUBCHEM_BOND_UDEF_STEREO_COUNT>
0

> <PUBCHEM_ISOTOPIC_ATOM_COUNT>
0

> <PUBCHEM_COMPONENT_COUNT>
1

> <PUBCHEM_CACTVS_TAUTO_COUNT>
1

> <PUBCHEM_CONFORMER_ID>
000385E400000001

> <PUBCHEM_MMFF94_ENERGY>
79.7735

> <PUBCHEM_FEATURE_SELFOVERLAP>
40.685

> <PUBCHEM_SHAPE_FINGERPRINT>
10366900 7 17489592242743046945
10967382 1 18410576167015943092
11578080 2 16735810921871019970
116883 192 18262794211357822060
12011746 2 18342463638427023085
12236239 1 17846784013863727282
12403259 226 18336834100354518789
12403259 415 18114472197252333633
12633257 1 14996287985450542863
12788726 201 18267029542712027993
13140716 1 18265894837889632561
13221675 6 18342740693328510929
13224815 77 17989209243592713033
13544653 18 18410848880428330860
13862211 1 18410860966466457686
14790565 3 17616247426298812905
14866123 147 17540527354885678944
15099037 51 18410858793323555015
15196674 1 18410293639756459716
15536298 74 18408326570678944040
15788980 27 18412260653469126070
15848702 151 18113612425897611838
16752209 62 18340216292236110057
16945 1 18196086638509967081
17349148 13 17458061560367161895
17492 89 18264492780450476447
17804303 29 18409449180883509117
18186145 218 17632580461006299733
19141452 34 18260547805564475471
19591789 44 18411139181399414950
19862831 5 18060700610627722214
200 152 18113057138360849677
20645477 70 18335702775714103534
21029758 11 18335141998586794377
21033648 29 17749687241463270705
21267235 1 18410567375286674358
21279426 13 18267305507002273205
221357 26 18410860958192846013
221490 88 18269269058612427152
22393880 68 18201450198338556909
23402539 116 18408328795561544532
23493267 7 17988641930279534523
23557571 272 18333725841022355796
23559900 14 18335146379479764608
2871803 45 18343585178857585958
3004659 81 18271805774552933062
3286 77 17022913358043151459
335352 9 18337954622350130733
34934 24 18410862040545534516
350125 39 18410009945141870177
3545911 37 18408885109964495166
4214541 1 18410575106407155261
474 4 17346311532490320212
4921388 177 16271634608073205881
5104073 3 18410293639824993232
633830 44 17704071768170236284
7364860 26 18262803939053078672
9709674 26 18341049601922703235

> <PUBCHEM_SHAPE_MULTIPOLES>
441.01
10.4
2.29
0.98
1.33
0.32
0.44
-2.19
-1.62
0.47
-0.24
-0.16
-0.17
0.51

> <PUBCHEM_SHAPE_SELFOVERLAP>
931.243

> <PUBCHEM_SHAPE_VOLUME>
246

> <PUBCHEM_COORDINATE_TYPE>
2
5
10

$$$$

