47205104
  -OEChem-06241222583D

 36 37  0     0  0  0  0  0  0999 V2000
   -4.3286    0.3979   -0.1980 F   0  0  0  0  0  0  0  0  0  0  0  0
    0.7766    2.4369   -0.0387 O   0  0  0  0  0  0  0  0  0  0  0  0
    3.5117   -1.0000    0.6082 O   0  0  0  0  0  0  0  0  0  0  0  0
    1.9971   -0.8196   -1.1422 N   0  0  0  0  0  0  0  0  0  0  0  0
   -0.9560   -2.4591   -0.7311 N   0  0  0  0  0  0  0  0  0  0  0  0
   -1.9136   -2.5678    0.2056 N   0  0  0  0  0  0  0  0  0  0  0  0
    3.0484    2.0474    0.6125 C   0  0  0  0  0  0  0  0  0  0  0  0
    3.3102    1.1106   -0.5626 C   0  0  0  0  0  0  0  0  0  0  0  0
    1.5906    2.0401    1.0572 C   0  0  0  0  0  0  0  0  0  0  0  0
    2.9678   -0.3414   -0.2740 C   0  0  0  0  0  0  0  0  0  0  0  0
    1.5113   -2.1792   -1.0979 C   0  0  0  0  0  0  0  0  0  0  0  0
    0.3006   -2.3149   -0.2205 C   0  0  0  0  0  0  0  0  0  0  0  0
   -0.4958    1.9292   -0.0786 C   0  0  0  0  0  0  0  0  0  0  0  0
    0.1548   -2.3299    1.1452 C   0  0  0  0  0  0  0  0  0  0  0  0
   -1.1611    1.6213    1.1082 C   0  0  0  0  0  0  0  0  0  0  0  0
   -1.1251    1.7192   -1.3056 C   0  0  0  0  0  0  0  0  0  0  0  0
   -1.2290   -2.4883    1.3497 C   0  0  0  0  0  0  0  0  0  0  0  0
   -2.4556    1.1032    1.0679 C   0  0  0  0  0  0  0  0  0  0  0  0
   -2.4196    1.2012   -1.3459 C   0  0  0  0  0  0  0  0  0  0  0  0
   -3.0848    0.8932   -0.1592 C   0  0  0  0  0  0  0  0  0  0  0  0
    3.3326    3.0628    0.3111 H   0  0  0  0  0  0  0  0  0  0  0  0
    3.6820    1.7664    1.4618 H   0  0  0  0  0  0  0  0  0  0  0  0
    4.3773    1.1392   -0.8156 H   0  0  0  0  0  0  0  0  0  0  0  0
    2.7805    1.4703   -1.4521 H   0  0  0  0  0  0  0  0  0  0  0  0
    1.3412    1.0357    1.4216 H   0  0  0  0  0  0  0  0  0  0  0  0
    1.4589    2.7563    1.8764 H   0  0  0  0  0  0  0  0  0  0  0  0
    1.2786   -2.4739   -2.1269 H   0  0  0  0  0  0  0  0  0  0  0  0
    2.3054   -2.8391   -0.7315 H   0  0  0  0  0  0  0  0  0  0  0  0
    1.5822   -0.1975   -1.8293 H   0  0  0  0  0  0  0  0  0  0  0  0
    0.9352   -2.2388    1.8864 H   0  0  0  0  0  0  0  0  0  0  0  0
   -1.2336   -2.4897   -1.7042 H   0  0  0  0  0  0  0  0  0  0  0  0
   -0.7184    1.7953    2.0843 H   0  0  0  0  0  0  0  0  0  0  0  0
   -0.6106    1.9553   -2.2330 H   0  0  0  0  0  0  0  0  0  0  0  0
   -1.7671   -2.5476    2.2848 H   0  0  0  0  0  0  0  0  0  0  0  0
   -2.9763    0.8681    1.9914 H   0  0  0  0  0  0  0  0  0  0  0  0
   -2.9094    1.0367   -2.3011 H   0  0  0  0  0  0  0  0  0  0  0  0
  1 20  1  0  0  0  0
  2  9  1  0  0  0  0
  2 13  1  0  0  0  0
  3 10  2  0  0  0  0
  4 10  1  0  0  0  0
  4 11  1  0  0  0  0
  4 29  1  0  0  0  0
  5  6  1  0  0  0  0
  5 12  1  0  0  0  0
  5 31  1  0  0  0  0
  6 17  2  0  0  0  0
  7  8  1  0  0  0  0
  7  9  1  0  0  0  0
  7 21  1  0  0  0  0
  7 22  1  0  0  0  0
  8 10  1  0  0  0  0
  8 23  1  0  0  0  0
  8 24  1  0  0  0  0
  9 25  1  0  0  0  0
  9 26  1  0  0  0  0
 11 12  1  0  0  0  0
 11 27  1  0  0  0  0
 11 28  1  0  0  0  0
 12 14  2  0  0  0  0
 13 15  2  0  0  0  0
 13 16  1  0  0  0  0
 14 17  1  0  0  0  0
 14 30  1  0  0  0  0
 15 18  1  0  0  0  0
 15 32  1  0  0  0  0
 16 19  2  0  0  0  0
 16 33  1  0  0  0  0
 17 34  1  0  0  0  0
 18 20  2  0  0  0  0
 18 35  1  0  0  0  0
 19 20  1  0  0  0  0
 19 36  1  0  0  0  0
M  END
> <PUBCHEM_COMPOUND_CID>
47205104

> <PUBCHEM_CONFORMER_RMSD>
1.2

> <PUBCHEM_CONFORMER_DIVERSEORDER>
1
38
48
14
18
24
44
47
9
6
27
52
25
61
3
22
43
12
37
36
10
2
53
8
20
59
13
45
21
51
32
5
26
11
29
54
15
17
60
42
7
31
33
55
57
39
56
28
19
30
16
40
23
35
46
41
50
4
34
58
49

> <PUBCHEM_MMFF94_PARTIAL_CHARGES>
27
1 -0.19
10 0.57
11 0.48
12 -0.33
13 0.08
14 -0.15
15 -0.15
16 -0.15
17 0.14
18 -0.15
19 -0.15
2 -0.36
20 0.19
29 0.37
3 -0.57
30 0.15
31 0.27
32 0.15
33 0.15
34 0.15
35 0.15
36 0.15
4 -0.73
5 0.3
6 -0.71
8 0.06
9 0.28

> <PUBCHEM_EFFECTIVE_ROTOR_COUNT>
8

> <PUBCHEM_PHARMACOPHORE_FEATURES>
7
1 2 acceptor
1 3 acceptor
1 4 donor
1 5 donor
1 6 acceptor
5 5 6 12 14 17 rings
6 13 15 16 18 19 20 rings

> <PUBCHEM_HEAVY_ATOM_COUNT>
20

> <PUBCHEM_ATOM_DEF_STEREO_COUNT>
0

> <PUBCHEM_ATOM_UDEF_STEREO_COUNT>
0

> <PUBCHEM_BOND_DEF_STEREO_COUNT>
0

> <PUBCHEM_BOND_UDEF_STEREO_COUNT>
0

> <PUBCHEM_ISOTOPIC_ATOM_COUNT>
0

> <PUBCHEM_COMPONENT_COUNT>
1

> <PUBCHEM_CACTVS_TAUTO_COUNT>
4

> <PUBCHEM_CONFORMER_ID>
02D04AF000000001

> <PUBCHEM_MMFF94_ENERGY>
32.2356

> <PUBCHEM_FEATURE_SELFOVERLAP>
35.52

> <PUBCHEM_SHAPE_FINGERPRINT>
104564 63 17834667197898898292
10759866 29 18059003996205117628
11322862 65 18341052904599521109
12422481 6 18124288560009168051
12553582 1 16824743171868531540
12596599 1 17389091549614604327
13140716 1 18409452458001357546
14251711 518 17111281378108068054
14251745 187 18264779756989213835
15881359 60 17682979699138739018
17357779 13 17903643981667136807
17492 54 18342452660015821837
20905425 154 17832136126331909775
21524375 3 18341330101509762759
238 59 18053129446747615069
2748010 2 18263355894106071268
35225 105 16628521805683013994
3524813 1 18199743803062148191
5282274 181 18122312767140332737
5283268 108 17623835847779093915
81228 2 17982740666336472857

> <PUBCHEM_SHAPE_MULTIPOLES>
377.64
5.36
3.82
1.35
0.32
1.88
0
-1.81
0.3
0.03
-0.49
-0.24
0.04
0.79

> <PUBCHEM_SHAPE_SELFOVERLAP>
788.529

> <PUBCHEM_SHAPE_VOLUME>
214.8

> <PUBCHEM_COORDINATE_TYPE>
2
5
10

$$$$

