46174006
  -OEChem-07051213112D

 61 60  0     1  0  0  0  0  0999 V2000
    3.4030   -3.1270    0.0000 P   0  0  0  0  0  0  0  0  0  0  0  0
   10.3312   -0.1270    0.0000 O   0  0  0  0  0  0  0  0  0  0  0  0
    7.7331   -2.6270    0.0000 O   0  0  0  0  0  0  0  0  0  0  0  0
    5.1350   -3.1270    0.0000 O   0  0  0  0  0  0  0  0  0  0  0  0
    6.8671   -3.1270    0.0000 O   0  0  0  0  0  0  0  0  0  0  0  0
    2.5369   -3.6270    0.0000 O   0  0  0  0  0  0  0  0  0  0  0  0
    2.9030   -2.2610    0.0000 O   0  0  0  0  0  0  0  0  0  0  0  0
    3.9030   -3.9930    0.0000 O   0  0  0  0  0  0  0  0  0  0  0  0
    9.4651   -1.6270    0.0000 N   0  0  0  0  0  0  0  0  0  0  0  0
    6.8671   -1.1270    0.0000 N   0  0  0  0  0  0  0  0  0  0  0  0
   12.0632   -1.1270    0.0000 N   0  0  0  0  0  0  0  0  0  0  0  0
   10.3312    1.8730    0.0000 N   0  0  0  0  0  0  0  0  0  0  0  0
   11.1972    3.3730    0.0000 N   0  0  0  0  0  0  0  0  0  0  0  0
    9.4651    3.3730    0.0000 N   0  0  0  0  0  0  0  0  0  0  0  0
    8.5991   -1.1270    0.0000 C   0  0  1  0  0  0  0  0  0  0  0  0
    8.5991   -0.1270    0.0000 C   0  0  0  0  0  0  0  0  0  0  0  0
   11.1972   -1.6270    0.0000 C   0  0  3  0  0  0  0  0  0  0  0  0
   11.1972   -2.6270    0.0000 C   0  0  0  0  0  0  0  0  0  0  0  0
    9.4651    0.3730    0.0000 C   0  0  0  0  0  0  0  0  0  0  0  0
   10.3312   -1.1270    0.0000 C   0  0  0  0  0  0  0  0  0  0  0  0
    7.7331   -1.6270    0.0000 C   0  0  0  0  0  0  0  0  0  0  0  0
   12.0632   -3.1270    0.0000 C   0  0  0  0  0  0  0  0  0  0  0  0
   10.3312   -3.1270    0.0000 C   0  0  0  0  0  0  0  0  0  0  0  0
    9.4651    1.3730    0.0000 C   0  0  0  0  0  0  0  0  0  0  0  0
    6.0010   -1.6270    0.0000 C   0  0  1  0  0  0  0  0  0  0  0  0
    5.1350   -1.1270    0.0000 C   0  0  0  0  0  0  0  0  0  0  0  0
    6.0010   -2.6270    0.0000 C   0  0  0  0  0  0  0  0  0  0  0  0
    4.2690   -1.6270    0.0000 C   0  0  0  0  0  0  0  0  0  0  0  0
    4.2690   -2.6270    0.0000 C   0  0  0  0  0  0  0  0  0  0  0  0
   10.3312    2.8730    0.0000 C   0  0  0  0  0  0  0  0  0  0  0  0
    8.5991   -1.7470    0.0000 H   0  0  0  0  0  0  0  0  0  0  0  0
    8.3871    0.4556    0.0000 H   0  0  0  0  0  0  0  0  0  0  0  0
    7.9885   -0.2346    0.0000 H   0  0  0  0  0  0  0  0  0  0  0  0
   11.1972   -1.0070    0.0000 H   0  0  0  0  0  0  0  0  0  0  0  0
   10.6603   -2.3170    0.0000 H   0  0  0  0  0  0  0  0  0  0  0  0
    9.4651   -2.2470    0.0000 H   0  0  0  0  0  0  0  0  0  0  0  0
    9.6772   -0.2096    0.0000 H   0  0  0  0  0  0  0  0  0  0  0  0
   10.0757    0.4807    0.0000 H   0  0  0  0  0  0  0  0  0  0  0  0
   10.0212   -2.5901    0.0000 H   0  0  0  0  0  0  0  0  0  0  0  0
    9.7942   -3.4370    0.0000 H   0  0  0  0  0  0  0  0  0  0  0  0
   10.6412   -3.6639    0.0000 H   0  0  0  0  0  0  0  0  0  0  0  0
   11.7532   -3.6639    0.0000 H   0  0  0  0  0  0  0  0  0  0  0  0
   12.6002   -3.4370    0.0000 H   0  0  0  0  0  0  0  0  0  0  0  0
   12.3732   -2.5901    0.0000 H   0  0  0  0  0  0  0  0  0  0  0  0
    9.2531    1.9556    0.0000 H   0  0  0  0  0  0  0  0  0  0  0  0
    8.8546    1.2654    0.0000 H   0  0  0  0  0  0  0  0  0  0  0  0
    6.8671   -0.5070    0.0000 H   0  0  0  0  0  0  0  0  0  0  0  0
   12.6002   -1.4370    0.0000 H   0  0  0  0  0  0  0  0  0  0  0  0
   12.0632   -0.5070    0.0000 H   0  0  0  0  0  0  0  0  0  0  0  0
    6.5380   -1.9370    0.0000 H   0  0  0  0  0  0  0  0  0  0  0  0
    5.1350   -0.5070    0.0000 H   0  0  0  0  0  0  0  0  0  0  0  0
    3.7320   -1.3170    0.0000 H   0  0  0  0  0  0  0  0  0  0  0  0
    4.4810   -3.2096    0.0000 H   0  0  0  0  0  0  0  0  0  0  0  0
    4.8796   -2.5193    0.0000 H   0  0  0  0  0  0  0  0  0  0  0  0
    5.1350   -3.7470    0.0000 H   0  0  0  0  0  0  0  0  0  0  0  0
   11.1972    3.9930    0.0000 H   0  0  0  0  0  0  0  0  0  0  0  0
   11.7341    3.0630    0.0000 H   0  0  0  0  0  0  0  0  0  0  0  0
    9.4651    3.9930    0.0000 H   0  0  0  0  0  0  0  0  0  0  0  0
    8.9282    3.0630    0.0000 H   0  0  0  0  0  0  0  0  0  0  0  0
    2.2830   -2.2610    0.0000 H   0  0  0  0  0  0  0  0  0  0  0  0
    2.0000   -3.3170    0.0000 H   0  0  0  0  0  0  0  0  0  0  0  0
  1  6  1  0  0  0  0
  1  7  1  0  0  0  0
  1  8  2  0  0  0  0
  1 29  1  0  0  0  0
  2 20  2  0  0  0  0
  3 21  2  0  0  0  0
  4 27  1  0  0  0  0
  4 55  1  0  0  0  0
  5 27  2  0  0  0  0
  6 61  1  0  0  0  0
  7 60  1  0  0  0  0
 15  9  1  6  0  0  0
  9 20  1  0  0  0  0
  9 36  1  0  0  0  0
 10 21  1  0  0  0  0
 25 10  1  6  0  0  0
 10 47  1  0  0  0  0
 11 17  1  0  0  0  0
 11 48  1  0  0  0  0
 11 49  1  0  0  0  0
 12 24  1  0  0  0  0
 12 30  2  0  0  0  0
 13 30  1  0  0  0  0
 13 56  1  0  0  0  0
 13 57  1  0  0  0  0
 14 30  1  0  0  0  0
 14 58  1  0  0  0  0
 14 59  1  0  0  0  0
 15 16  1  0  0  0  0
 15 21  1  0  0  0  0
 15 31  1  0  0  0  0
 16 19  1  0  0  0  0
 16 32  1  0  0  0  0
 16 33  1  0  0  0  0
 17 18  1  0  0  0  0
 17 20  1  0  0  0  0
 17 34  1  0  0  0  0
 18 22  1  0  0  0  0
 18 23  1  0  0  0  0
 18 35  1  0  0  0  0
 19 24  1  0  0  0  0
 19 37  1  0  0  0  0
 19 38  1  0  0  0  0
 22 42  1  0  0  0  0
 22 43  1  0  0  0  0
 22 44  1  0  0  0  0
 23 39  1  0  0  0  0
 23 40  1  0  0  0  0
 23 41  1  0  0  0  0
 24 45  1  0  0  0  0
 24 46  1  0  0  0  0
 25 26  1  0  0  0  0
 25 27  1  0  0  0  0
 25 50  1  0  0  0  0
 26 28  2  0  0  0  0
 26 51  1  0  0  0  0
 28 29  1  0  0  0  0
 28 52  1  0  0  0  0
 29 53  1  0  0  0  0
 29 54  1  0  0  0  0
M  END
> <PUBCHEM_COMPOUND_CID>
46174006

> <PUBCHEM_COMPOUND_CANONICALIZED>
1

> <PUBCHEM_CACTVS_COMPLEXITY>
702

> <PUBCHEM_CACTVS_HBOND_ACCEPTOR>
9

> <PUBCHEM_CACTVS_HBOND_DONOR>
8

> <PUBCHEM_CACTVS_ROTATABLE_BOND>
13

> <PUBCHEM_CACTVS_SUBSKEYS>
AAADceB7uAIAAAAAAAAAAAAAAAAAAAAAAAAAAAAAAAAAAAAAAAAAHggQCCAADSjJgAQDCALAAhCoQCHSPICAAAEgAAAICIGIAAgCQBIAgSAUQAAAVgCYAAIYAQAIAAAAAAAAAAAAAAAAAAAAAAAAAAAAAA==

> <PUBCHEM_IUPAC_OPENEYE_NAME>
(Z,2S)-2-[[(2S)-2-[(2-amino-3-methyl-butanoyl)amino]-5-guanidino-pentanoyl]amino]-5-phosphono-pent-3-enoic acid

> <PUBCHEM_IUPAC_CAS_NAME>
(Z,2S)-2-[[(2S)-2-[(2-amino-3-methyl-1-oxobutyl)amino]-5-(diaminomethylideneamino)-1-oxopentyl]amino]-5-phosphono-3-pentenoic acid

> <PUBCHEM_IUPAC_NAME>
(Z,2S)-2-[[(2S)-2-[(2-amino-3-methylbutanoyl)amino]-5-(diaminomethylideneamino)pentanoyl]amino]-5-phosphonopent-3-enoic acid

> <PUBCHEM_IUPAC_SYSTEMATIC_NAME>
(Z,2S)-2-[[(2S)-2-[(2-azanyl-3-methyl-butanoyl)amino]-5-[bis(azanyl)methylideneamino]pentanoyl]amino]-5-phosphono-pent-3-enoic acid

> <PUBCHEM_IUPAC_TRADITIONAL_NAME>
(Z,2S)-2-[[(2S)-2-[(2-amino-3-methyl-butanoyl)amino]-5-guanidino-pentanoyl]amino]-5-phosphono-pent-3-enoic acid

> <PUBCHEM_IUPAC_INCHI>
InChI=1S/C16H31N6O7P/c1-9(2)12(17)14(24)21-10(5-3-7-20-16(18)19)13(23)22-11(15(25)26)6-4-8-30(27,28)29/h4,6,9-12H,3,5,7-8,17H2,1-2H3,(H,21,24)(H,22,23)(H,25,26)(H4,18,19,20)(H2,27,28,29)/b6-4-/t10-,11-,12?/m0/s1

> <PUBCHEM_IUPAC_INCHIKEY>
NPKRTHUUAUNSDZ-IQGGEEFSSA-N

> <PUBCHEM_XLOGP3_AA>
-5.5

> <PUBCHEM_EXACT_MASS>
450.199184

> <PUBCHEM_MOLECULAR_FORMULA>
C16H31N6O7P

> <PUBCHEM_MOLECULAR_WEIGHT>
450.427102

> <PUBCHEM_OPENEYE_CAN_SMILES>
CC(C)C(C(=O)NC(CCCN=C(N)N)C(=O)NC(C=CCP(=O)(O)O)C(=O)O)N

> <PUBCHEM_OPENEYE_ISO_SMILES>
CC(C)C(C(=O)N[C@@H](CCCN=C(N)N)C(=O)N[C@@H](/C=C\CP(=O)(O)O)C(=O)O)N

> <PUBCHEM_CACTVS_TPSA>
243

> <PUBCHEM_MONOISOTOPIC_WEIGHT>
450.199184

> <PUBCHEM_TOTAL_CHARGE>
0

> <PUBCHEM_HEAVY_ATOM_COUNT>
30

> <PUBCHEM_ATOM_DEF_STEREO_COUNT>
2

> <PUBCHEM_ATOM_UDEF_STEREO_COUNT>
1

> <PUBCHEM_BOND_DEF_STEREO_COUNT>
1

> <PUBCHEM_BOND_UDEF_STEREO_COUNT>
0

> <PUBCHEM_ISOTOPIC_ATOM_COUNT>
0

> <PUBCHEM_COMPONENT_COUNT>
1

> <PUBCHEM_CACTVS_TAUTO_COUNT>
8

> <PUBCHEM_COORDINATE_TYPE>
1
5
255

> <PUBCHEM_BONDANNOTATIONS>
25  10  6
17  11  3
15  9  6

$$$$

