5281487
  -OEChem-07051212573D

 48 50  0     1  0  0  0  0  0999 V2000
   -1.3698    0.8421    0.4746 O   0  0  0  0  0  0  0  0  0  0  0  0
    0.8442   -2.7210   -0.9864 O   0  0  0  0  0  0  0  0  0  0  0  0
    0.1882    3.0499    2.2748 O   0  0  0  0  0  0  0  0  0  0  0  0
    3.0456   -1.4008   -1.2881 O   0  0  0  0  0  0  0  0  0  0  0  0
    1.4764   -4.3294    0.5411 O   0  0  0  0  0  0  0  0  0  0  0  0
   -2.6131   -0.6436    1.7188 O   0  0  0  0  0  0  0  0  0  0  0  0
    0.9970    1.3692    0.6867 C   0  0  2  0  0  0  0  0  0  0  0  0
    1.1068    1.6373   -0.8405 C   0  0  2  0  0  0  0  0  0  0  0  0
   -0.1215    0.3573    1.0048 C   0  0  2  0  0  0  0  0  0  0  0  0
    0.0379   -1.0693    0.4444 C   0  0  1  0  0  0  0  0  0  0  0  0
    2.1572    0.7917   -1.5645 C   0  0  1  0  0  0  0  0  0  0  0  0
    0.6520   -1.2852   -0.9377 C   0  0  1  0  0  0  0  0  0  0  0  0
    0.6582    2.7720    1.1811 C   0  0  0  0  0  0  0  0  0  0  0  0
    2.0354   -0.6916   -1.2348 C   0  0  0  0  0  0  0  0  0  0  0  0
    2.3173    1.0214    1.4030 C   0  0  0  0  0  0  0  0  0  0  0  0
    1.3249    3.1259   -0.9217 C   0  0  0  0  0  0  0  0  0  0  0  0
    0.7789   -2.1103    1.2163 C   0  0  0  0  0  0  0  0  0  0  0  0
    1.0308    3.7956    0.1936 C   0  0  0  0  0  0  0  0  0  0  0  0
    2.0797    0.9419   -3.0859 C   0  0  0  0  0  0  0  0  0  0  0  0
    1.0941   -3.2062    0.2701 C   0  0  0  0  0  0  0  0  0  0  0  0
    1.1474   -2.1658    2.4977 C   0  0  0  0  0  0  0  0  0  0  0  0
   -2.4536    0.0667    0.7364 C   0  0  0  0  0  0  0  0  0  0  0  0
   -3.4383    0.2088   -0.3788 C   0  0  0  0  0  0  0  0  0  0  0  0
   -3.5151    1.5232   -1.0974 C   0  0  0  0  0  0  0  0  0  0  0  0
   -4.2065   -0.8686   -0.6245 C   0  0  0  0  0  0  0  0  0  0  0  0
   -5.2539   -1.0111   -1.6829 C   0  0  0  0  0  0  0  0  0  0  0  0
    0.1390    1.4599   -1.3306 H   0  0  0  0  0  0  0  0  0  0  0  0
   -0.2480    0.3236    2.0949 H   0  0  0  0  0  0  0  0  0  0  0  0
   -0.9442   -1.5459    0.3479 H   0  0  0  0  0  0  0  0  0  0  0  0
    3.1594    1.1069   -1.2446 H   0  0  0  0  0  0  0  0  0  0  0  0
   -0.0376   -1.0141   -1.7436 H   0  0  0  0  0  0  0  0  0  0  0  0
    2.7153    0.0439    1.1270 H   0  0  0  0  0  0  0  0  0  0  0  0
    3.0977    1.7628    1.1938 H   0  0  0  0  0  0  0  0  0  0  0  0
    2.1757    1.0144    2.4908 H   0  0  0  0  0  0  0  0  0  0  0  0
    1.6103    3.6284   -1.8363 H   0  0  0  0  0  0  0  0  0  0  0  0
    1.0471    4.8577    0.3613 H   0  0  0  0  0  0  0  0  0  0  0  0
    1.0891    0.6646   -3.4631 H   0  0  0  0  0  0  0  0  0  0  0  0
    2.2897    1.9690   -3.3988 H   0  0  0  0  0  0  0  0  0  0  0  0
    2.8098    0.2909   -3.5797 H   0  0  0  0  0  0  0  0  0  0  0  0
    0.9121   -1.3635    3.1874 H   0  0  0  0  0  0  0  0  0  0  0  0
    1.6936   -3.0143    2.8963 H   0  0  0  0  0  0  0  0  0  0  0  0
   -4.4620    1.6635   -1.6248 H   0  0  0  0  0  0  0  0  0  0  0  0
   -3.4309    2.3528   -0.3867 H   0  0  0  0  0  0  0  0  0  0  0  0
   -2.7007    1.6074   -1.8240 H   0  0  0  0  0  0  0  0  0  0  0  0
   -4.0703   -1.7667   -0.0238 H   0  0  0  0  0  0  0  0  0  0  0  0
   -5.0626   -1.9185   -2.2650 H   0  0  0  0  0  0  0  0  0  0  0  0
   -5.2816   -0.1749   -2.3848 H   0  0  0  0  0  0  0  0  0  0  0  0
   -6.2403   -1.1064   -1.2188 H   0  0  0  0  0  0  0  0  0  0  0  0
  1  9  1  0  0  0  0
  1 22  1  0  0  0  0
  2 12  1  0  0  0  0
  2 20  1  0  0  0  0
  3 13  2  0  0  0  0
  4 14  2  0  0  0  0
  5 20  2  0  0  0  0
  6 22  2  0  0  0  0
  7  8  1  0  0  0  0
  7  9  1  0  0  0  0
  7 13  1  0  0  0  0
  7 15  1  0  0  0  0
  8 11  1  0  0  0  0
  8 16  1  0  0  0  0
  8 27  1  0  0  0  0
  9 10  1  0  0  0  0
  9 28  1  0  0  0  0
 10 12  1  0  0  0  0
 10 17  1  0  0  0  0
 10 29  1  0  0  0  0
 11 14  1  0  0  0  0
 11 19  1  0  0  0  0
 11 30  1  0  0  0  0
 12 14  1  0  0  0  0
 12 31  1  0  0  0  0
 13 18  1  0  0  0  0
 15 32  1  0  0  0  0
 15 33  1  0  0  0  0
 15 34  1  0  0  0  0
 16 18  2  0  0  0  0
 16 35  1  0  0  0  0
 17 20  1  0  0  0  0
 17 21  2  0  0  0  0
 18 36  1  0  0  0  0
 19 37  1  0  0  0  0
 19 38  1  0  0  0  0
 19 39  1  0  0  0  0
 21 40  1  0  0  0  0
 21 41  1  0  0  0  0
 22 23  1  0  0  0  0
 23 24  1  0  0  0  0
 23 25  2  0  0  0  0
 24 42  1  0  0  0  0
 24 43  1  0  0  0  0
 24 44  1  0  0  0  0
 25 26  1  0  0  0  0
 25 45  1  0  0  0  0
 26 46  1  0  0  0  0
 26 47  1  0  0  0  0
 26 48  1  0  0  0  0
M  END
> <PUBCHEM_COMPOUND_CID>
5281487

> <PUBCHEM_CONFORMER_RMSD>
0.8

> <PUBCHEM_CONFORMER_DIVERSEORDER>
1
4
5
3
2

> <PUBCHEM_MMFF94_PARTIAL_CHARGES>
29
1 -0.43
10 0.14
11 0.06
12 0.34
13 0.49
14 0.45
16 -0.29
17 -0.12
18 -0.14
2 -0.43
20 0.71
21 -0.3
22 0.71
23 -0.12
24 0.14
25 -0.29
26 0.14
3 -0.57
35 0.15
36 0.15
4 -0.57
40 0.15
41 0.15
45 0.15
5 -0.57
6 -0.57
7 0.06
8 0.14
9 0.28

> <PUBCHEM_EFFECTIVE_ROTOR_COUNT>
3.6

> <PUBCHEM_PHARMACOPHORE_FEATURES>
9
1 24 hydrophobe
1 26 hydrophobe
1 3 acceptor
1 4 acceptor
1 5 acceptor
1 6 acceptor
5 2 10 12 17 20 rings
5 7 8 13 16 18 rings
7 7 8 9 10 11 12 14 rings

> <PUBCHEM_HEAVY_ATOM_COUNT>
26

> <PUBCHEM_ATOM_DEF_STEREO_COUNT>
6

> <PUBCHEM_ATOM_UDEF_STEREO_COUNT>
0

> <PUBCHEM_BOND_DEF_STEREO_COUNT>
1

> <PUBCHEM_BOND_UDEF_STEREO_COUNT>
0

> <PUBCHEM_ISOTOPIC_ATOM_COUNT>
0

> <PUBCHEM_COMPONENT_COUNT>
1

> <PUBCHEM_CACTVS_TAUTO_COUNT>
13

> <PUBCHEM_CONFORMER_ID>
005096CF00000001

> <PUBCHEM_MMFF94_ENERGY>
81.4958

> <PUBCHEM_FEATURE_SELFOVERLAP>
45.754

> <PUBCHEM_SHAPE_FINGERPRINT>
10165383 225 17405099034492755349
10764073 3 16979051738909394929
10930396 42 18193865712044858568
11578080 2 17408256115118708908
12553582 1 18044370767539027715
12788726 201 17618215552122029037
13134695 92 17985297228703096611
13149001 5 17902481841137460980
13681431 1 18200035190987077131
14787075 74 18334007311830556902
16945 1 18191843704679363684
20567600 347 18048333153963139303
20600515 1 17553228874475933449
20691752 17 18263907891545195888
20905425 154 18266751365968909196
21452121 99 17836640821265286612
21524375 3 18049735022508871217
22112679 90 17118582105558067978
22182313 1 16454018062073588216
22907989 373 16825581489693227429
229495 10 15906514198565234724
23419403 2 16602318072691926012
238 59 18339636716590717743
2748010 2 17253960093219005556
3060560 45 18268441152337707037
35225 105 17481993324256810067
5845 1 10509206561576936366
6669772 16 18118133463524714120
81228 2 17262441107308406627
9925002 15 17618770801252044036

> <PUBCHEM_SHAPE_MULTIPOLES>
499.85
5.47
4.43
2.31
10.81
1.81
-0.34
-1.12
-3.03
-3.16
1.2
-1.13
-0.21
0.17

> <PUBCHEM_SHAPE_SELFOVERLAP>
1076.093

> <PUBCHEM_SHAPE_VOLUME>
274.9

> <PUBCHEM_COORDINATE_TYPE>
2
5
10

$$$$

