4935
  -OEChem-07051212533D

 47 47  0     0  0  0  0  0  0999 V2000
    1.5215    0.4055   -0.1367 O   0  0  0  0  0  0  0  0  0  0  0  0
   -4.6304   -0.2906    0.7613 O   0  0  0  0  0  0  0  0  0  0  0  0
    0.9373    2.6183   -0.3843 O   0  0  0  0  0  0  0  0  0  0  0  0
    5.1241   -0.2737   -0.5186 N   0  0  0  0  0  0  0  0  0  0  0  0
   -2.5397   -2.1740    0.7640 N   0  0  0  0  0  0  0  0  0  0  0  0
    3.7087   -0.5524   -0.2782 C   0  0  0  0  0  0  0  0  0  0  0  0
    5.7492    0.2730    0.6852 C   0  0  0  0  0  0  0  0  0  0  0  0
    5.8180   -1.4870   -0.9490 C   0  0  0  0  0  0  0  0  0  0  0  0
    2.8887    0.7252   -0.3591 C   0  0  0  0  0  0  0  0  0  0  0  0
    7.2057    0.6259    0.4355 C   0  0  0  0  0  0  0  0  0  0  0  0
    5.7767   -2.5552    0.1306 C   0  0  0  0  0  0  0  0  0  0  0  0
   -0.7396    0.9856    0.0708 C   0  0  0  0  0  0  0  0  0  0  0  0
    0.6487    1.4499   -0.1768 C   0  0  0  0  0  0  0  0  0  0  0  0
   -3.3487    0.1144    0.5359 C   0  0  0  0  0  0  0  0  0  0  0  0
   -2.2974   -0.8024    0.5330 C   0  0  0  0  0  0  0  0  0  0  0  0
   -0.9929   -0.3668    0.3003 C   0  0  0  0  0  0  0  0  0  0  0  0
   -1.7910    1.9024    0.0738 C   0  0  0  0  0  0  0  0  0  0  0  0
   -5.5797   -0.0405   -0.2729 C   0  0  0  0  0  0  0  0  0  0  0  0
   -3.0955    1.4669    0.3062 C   0  0  0  0  0  0  0  0  0  0  0  0
   -6.6606   -1.1091   -0.2174 C   0  0  0  0  0  0  0  0  0  0  0  0
   -7.7031   -0.9151   -1.3038 C   0  0  0  0  0  0  0  0  0  0  0  0
    3.5244   -1.0416    0.6874 H   0  0  0  0  0  0  0  0  0  0  0  0
    3.3087   -1.2355   -1.0402 H   0  0  0  0  0  0  0  0  0  0  0  0
    5.2562    1.2152    0.9508 H   0  0  0  0  0  0  0  0  0  0  0  0
    5.6542   -0.3668    1.5697 H   0  0  0  0  0  0  0  0  0  0  0  0
    5.3387   -1.8760   -1.8569 H   0  0  0  0  0  0  0  0  0  0  0  0
    6.8502   -1.2853   -1.2542 H   0  0  0  0  0  0  0  0  0  0  0  0
    3.1996    1.4506    0.3999 H   0  0  0  0  0  0  0  0  0  0  0  0
    2.9967    1.1810   -1.3511 H   0  0  0  0  0  0  0  0  0  0  0  0
    7.8500   -0.2569    0.3854 H   0  0  0  0  0  0  0  0  0  0  0  0
    7.3299    1.2080   -0.4841 H   0  0  0  0  0  0  0  0  0  0  0  0
    7.5803    1.2408    1.2617 H   0  0  0  0  0  0  0  0  0  0  0  0
    4.7640   -2.8356    0.4330 H   0  0  0  0  0  0  0  0  0  0  0  0
    6.3563   -2.2953    1.0207 H   0  0  0  0  0  0  0  0  0  0  0  0
    6.2352   -3.4687   -0.2676 H   0  0  0  0  0  0  0  0  0  0  0  0
   -0.1947   -1.1049    0.3041 H   0  0  0  0  0  0  0  0  0  0  0  0
   -1.6145    2.9604   -0.1011 H   0  0  0  0  0  0  0  0  0  0  0  0
   -6.0198    0.9510   -0.1164 H   0  0  0  0  0  0  0  0  0  0  0  0
   -5.0950   -0.0585   -1.2578 H   0  0  0  0  0  0  0  0  0  0  0  0
   -3.9025    2.1944    0.3142 H   0  0  0  0  0  0  0  0  0  0  0  0
   -6.2023   -2.1007   -0.3150 H   0  0  0  0  0  0  0  0  0  0  0  0
   -7.1415   -1.0953    0.7680 H   0  0  0  0  0  0  0  0  0  0  0  0
   -8.1988    0.0557   -1.2028 H   0  0  0  0  0  0  0  0  0  0  0  0
   -7.2483   -0.9672   -2.2981 H   0  0  0  0  0  0  0  0  0  0  0  0
   -8.4679   -1.6953   -1.2392 H   0  0  0  0  0  0  0  0  0  0  0  0
   -3.4843   -2.4961    0.9291 H   0  0  0  0  0  0  0  0  0  0  0  0
   -1.7734   -2.8338    0.7592 H   0  0  0  0  0  0  0  0  0  0  0  0
  1  9  1  0  0  0  0
  1 13  1  0  0  0  0
  2 14  1  0  0  0  0
  2 18  1  0  0  0  0
  3 13  2  0  0  0  0
  4  6  1  0  0  0  0
  4  7  1  0  0  0  0
  4  8  1  0  0  0  0
  5 15  1  0  0  0  0
  5 46  1  0  0  0  0
  5 47  1  0  0  0  0
  6  9  1  0  0  0  0
  6 22  1  0  0  0  0
  6 23  1  0  0  0  0
  7 10  1  0  0  0  0
  7 24  1  0  0  0  0
  7 25  1  0  0  0  0
  8 11  1  0  0  0  0
  8 26  1  0  0  0  0
  8 27  1  0  0  0  0
  9 28  1  0  0  0  0
  9 29  1  0  0  0  0
 10 30  1  0  0  0  0
 10 31  1  0  0  0  0
 10 32  1  0  0  0  0
 11 33  1  0  0  0  0
 11 34  1  0  0  0  0
 11 35  1  0  0  0  0
 12 13  1  0  0  0  0
 12 16  2  0  0  0  0
 12 17  1  0  0  0  0
 14 15  2  0  0  0  0
 14 19  1  0  0  0  0
 15 16  1  0  0  0  0
 16 36  1  0  0  0  0
 17 19  2  0  0  0  0
 17 37  1  0  0  0  0
 18 20  1  0  0  0  0
 18 38  1  0  0  0  0
 18 39  1  0  0  0  0
 19 40  1  0  0  0  0
 20 21  1  0  0  0  0
 20 41  1  0  0  0  0
 20 42  1  0  0  0  0
 21 43  1  0  0  0  0
 21 44  1  0  0  0  0
 21 45  1  0  0  0  0
M  END
> <PUBCHEM_COMPOUND_CID>
4935

> <PUBCHEM_CONFORMER_RMSD>
1

> <PUBCHEM_CONFORMER_DIVERSEORDER>
2
49
50
18
61
8
59
45
22
53
56
17
57
20
43
10
34
29
39
31
52
13
37
28
32
16
14
47
38
54
26
7
58
48
1
41
21
9
11
27
6
60
30
25
24
3
42
4
15
36
33
12
23
35
19
5
46
55
40
51
44

> <PUBCHEM_MMFF94_PARTIAL_CHARGES>
22
1 -0.43
12 0.09
13 0.63
14 0.08
15 0.1
16 -0.15
17 -0.15
18 0.28
19 -0.15
2 -0.36
3 -0.57
36 0.15
37 0.15
4 -0.81
40 0.15
46 0.4
47 0.4
5 -0.9
6 0.27
7 0.27
8 0.27
9 0.28

> <PUBCHEM_EFFECTIVE_ROTOR_COUNT>
10

> <PUBCHEM_PHARMACOPHORE_FEATURES>
7
1 2 acceptor
1 21 hydrophobe
1 3 acceptor
1 4 cation
1 5 cation
1 5 donor
6 12 14 15 16 17 19 rings

> <PUBCHEM_HEAVY_ATOM_COUNT>
21

> <PUBCHEM_ATOM_DEF_STEREO_COUNT>
0

> <PUBCHEM_ATOM_UDEF_STEREO_COUNT>
0

> <PUBCHEM_BOND_DEF_STEREO_COUNT>
0

> <PUBCHEM_BOND_UDEF_STEREO_COUNT>
0

> <PUBCHEM_ISOTOPIC_ATOM_COUNT>
0

> <PUBCHEM_COMPONENT_COUNT>
1

> <PUBCHEM_CACTVS_TAUTO_COUNT>
1

> <PUBCHEM_CONFORMER_ID>
0000134700000002

> <PUBCHEM_MMFF94_ENERGY>
60.0435

> <PUBCHEM_FEATURE_SELFOVERLAP>
35.52

> <PUBCHEM_SHAPE_FINGERPRINT>
106641 1 16515689905365921528
12516196 113 18259984873096897832
12555020 224 18342457015814578407
12596602 18 17240759618587781354
12670543 26 18202849855582617205
12838862 33 18271542917626246474
13177829 20 16226051054607999689
13288520 33 18410289229337002845
13533116 47 18260548887875297520
13668630 136 18411419497362800767
13685833 64 18333448742031672666
13862211 1 18409164424509449855
14251752 14 16845579712042280055
14251764 18 18114177523276528696
14933364 13 9295286145094848882
15048467 5 11600010947036189783
15183329 4 16271928241696149318
15690457 1 17822015285603036183
15706992 2 12966848001173665687
1768 124 17894348890892130662
17834072 8 17917996057922174327
18006028 8 18408886221965853593
1813 80 17418367017973515124
20526848 3 10592043570456411415
21095086 128 16805035221427579308
21130935 74 18040712614685510826
21267235 1 18341038679456710387
22079108 93 14706931748025640942
2215653 11 18272368667922595691
22224240 67 17458347420948593414
23402539 116 18334011705724953949
23559900 14 18340207375868367953
3004659 81 17917704708958075212
3014063 24 18186803590854569735
335352 9 18342175540916599517
3383291 50 18343013355592273307
34797466 226 16950557758533158340
4325135 7 18272365353152128108
4340502 62 14418129625579689604
5104073 3 18189054364904158104
559249 180 18199748205509036960
5758199 1 9295290552026797909
6138700 20 18412824711898883399

> <PUBCHEM_SHAPE_MULTIPOLES>
404.6
20.07
2.14
0.88
2.09
0.1
0.07
10.12
3.05
1.06
0.05
-0.35
0.18
0.05

> <PUBCHEM_SHAPE_SELFOVERLAP>
808.92

> <PUBCHEM_SHAPE_VOLUME>
240.5

> <PUBCHEM_COORDINATE_TYPE>
2
5
10

$$$$

