4176
  -OEChem-06251223562D

 30 29  0     0  0  0  0  0  0999 V2000
    3.7320   -0.3660    0.0000 P   0  0  0  0  0  0  0  0  0  0  0  0
    4.5981    0.1340    0.0000 O   0  0  0  0  0  0  0  0  0  0  0  0
    2.8660   -0.8660    0.0000 O   0  0  0  0  0  0  0  0  0  0  0  0
    3.2320    0.5000    0.0000 O   0  0  0  0  0  0  0  0  0  0  0  0
    8.0622    0.1340    0.0000 O   0  0  0  0  0  0  0  0  0  0  0  0
    4.2320   -1.2320    0.0000 O   0  0  0  0  0  0  0  0  0  0  0  0
    7.1962   -1.3660    0.0000 O   0  0  0  0  0  0  0  0  0  0  0  0
    5.4641   -0.3660    0.0000 C   0  0  0  0  0  0  0  0  0  0  0  0
    6.3301    0.1340    0.0000 C   0  0  0  0  0  0  0  0  0  0  0  0
    5.4641   -1.3660    0.0000 C   0  0  0  0  0  0  0  0  0  0  0  0
    8.9282   -0.3660    0.0000 C   0  0  0  0  0  0  0  0  0  0  0  0
    7.1962   -0.3660    0.0000 C   0  0  0  0  0  0  0  0  0  0  0  0
    9.7942    0.1340    0.0000 C   0  0  0  0  0  0  0  0  0  0  0  0
    2.0000   -0.3660    0.0000 C   0  0  0  0  0  0  0  0  0  0  0  0
    3.7320    1.3660    0.0000 C   0  0  0  0  0  0  0  0  0  0  0  0
    6.3301    0.7540    0.0000 H   0  0  0  0  0  0  0  0  0  0  0  0
    4.8441   -1.3660    0.0000 H   0  0  0  0  0  0  0  0  0  0  0  0
    5.4641   -1.9860    0.0000 H   0  0  0  0  0  0  0  0  0  0  0  0
    6.0841   -1.3660    0.0000 H   0  0  0  0  0  0  0  0  0  0  0  0
    8.5297   -0.8410    0.0000 H   0  0  0  0  0  0  0  0  0  0  0  0
    9.3267   -0.8410    0.0000 H   0  0  0  0  0  0  0  0  0  0  0  0
   10.1042   -0.4030    0.0000 H   0  0  0  0  0  0  0  0  0  0  0  0
   10.3312    0.4440    0.0000 H   0  0  0  0  0  0  0  0  0  0  0  0
    9.4842    0.6709    0.0000 H   0  0  0  0  0  0  0  0  0  0  0  0
    2.3100    0.1709    0.0000 H   0  0  0  0  0  0  0  0  0  0  0  0
    1.4631   -0.0560    0.0000 H   0  0  0  0  0  0  0  0  0  0  0  0
    1.6900   -0.9030    0.0000 H   0  0  0  0  0  0  0  0  0  0  0  0
    4.2690    1.0560    0.0000 H   0  0  0  0  0  0  0  0  0  0  0  0
    4.0420    1.9030    0.0000 H   0  0  0  0  0  0  0  0  0  0  0  0
    3.1951    1.6760    0.0000 H   0  0  0  0  0  0  0  0  0  0  0  0
  1  2  1  0  0  0  0
  1  3  1  0  0  0  0
  1  4  1  0  0  0  0
  1  6  2  0  0  0  0
  2  8  1  0  0  0  0
  3 14  1  0  0  0  0
  4 15  1  0  0  0  0
  5 11  1  0  0  0  0
  5 12  1  0  0  0  0
  7 12  2  0  0  0  0
  8  9  2  3  0  0  0
  8 10  1  0  0  0  0
  9 12  1  0  0  0  0
  9 16  1  0  0  0  0
 10 17  1  0  0  0  0
 10 18  1  0  0  0  0
 10 19  1  0  0  0  0
 11 13  1  0  0  0  0
 11 20  1  0  0  0  0
 11 21  1  0  0  0  0
 13 22  1  0  0  0  0
 13 23  1  0  0  0  0
 13 24  1  0  0  0  0
 14 25  1  0  0  0  0
 14 26  1  0  0  0  0
 14 27  1  0  0  0  0
 15 28  1  0  0  0  0
 15 29  1  0  0  0  0
 15 30  1  0  0  0  0
M  END
> <PUBCHEM_COMPOUND_CID>
4176

> <PUBCHEM_COMPOUND_CANONICALIZED>
1

> <PUBCHEM_CACTVS_COMPLEXITY>
277

> <PUBCHEM_CACTVS_HBOND_ACCEPTOR>
6

> <PUBCHEM_CACTVS_HBOND_DONOR>
0

> <PUBCHEM_CACTVS_ROTATABLE_BOND>
7

> <PUBCHEM_CACTVS_SUBSKEYS>
AAADccBwOAIAAAAAAAAAAAAAAAAAAAAAAAAAAAAAAAAAAAAAAAAAGgAAACAACASggAICCAAABRCIQCDSCIAAAAAAIAAACAAAAEAABAAAIQACEAAAAAAAIQAAAAAAAAAAAAAAAAAAAAAAAAAAAAAAAAAAAA==

> <PUBCHEM_IUPAC_OPENEYE_NAME>
ethyl 3-dimethoxyphosphoryloxybut-2-enoate

> <PUBCHEM_IUPAC_CAS_NAME>
3-dimethoxyphosphoryloxy-2-butenoic acid ethyl ester

> <PUBCHEM_IUPAC_NAME>
ethyl 3-dimethoxyphosphoryloxybut-2-enoate

> <PUBCHEM_IUPAC_SYSTEMATIC_NAME>
ethyl 3-dimethoxyphosphoryloxybut-2-enoate

> <PUBCHEM_IUPAC_TRADITIONAL_NAME>
3-dimethoxyphosphoryloxybut-2-enoic acid ethyl ester

> <PUBCHEM_IUPAC_INCHI>
InChI=1S/C8H15O6P/c1-5-13-8(9)6-7(2)14-15(10,11-3)12-4/h6H,5H2,1-4H3

> <PUBCHEM_IUPAC_INCHIKEY>
DKNJTJKYWXJCIR-UHFFFAOYSA-N

> <PUBCHEM_XLOGP3>
1.6

> <PUBCHEM_EXACT_MASS>
238.060625

> <PUBCHEM_MOLECULAR_FORMULA>
C8H15O6P

> <PUBCHEM_MOLECULAR_WEIGHT>
238.174862

> <PUBCHEM_OPENEYE_CAN_SMILES>
CCOC(=O)C=C(C)OP(=O)(OC)OC

> <PUBCHEM_OPENEYE_ISO_SMILES>
CCOC(=O)C=C(C)OP(=O)(OC)OC

> <PUBCHEM_CACTVS_TPSA>
71.1

> <PUBCHEM_MONOISOTOPIC_WEIGHT>
238.060625

> <PUBCHEM_TOTAL_CHARGE>
0

> <PUBCHEM_HEAVY_ATOM_COUNT>
15

> <PUBCHEM_ATOM_DEF_STEREO_COUNT>
0

> <PUBCHEM_ATOM_UDEF_STEREO_COUNT>
0

> <PUBCHEM_BOND_DEF_STEREO_COUNT>
0

> <PUBCHEM_BOND_UDEF_STEREO_COUNT>
1

> <PUBCHEM_ISOTOPIC_ATOM_COUNT>
0

> <PUBCHEM_COMPONENT_COUNT>
1

> <PUBCHEM_CACTVS_TAUTO_COUNT>
1

> <PUBCHEM_COORDINATE_TYPE>
1
5
255

> <PUBCHEM_BONDANNOTATIONS>
8  9  1

$$$$

