443277
  -OEChem-07051213013D

 27 29  0     0  0  0  0  0  0999 V2000
   -3.3937    2.1799    0.8092 Cl  0  0  0  0  0  0  0  0  0  0  0  0
    2.9719   -1.2613    0.2567 S   0  0  0  0  0  0  0  0  0  0  0  0
    0.1043   -0.2461   -0.0193 O   0  0  0  0  0  0  0  0  0  0  0  0
    0.6609    1.8842   -0.4147 N   0  0  0  0  0  0  0  0  0  0  0  0
   -0.7183    1.7923   -0.4351 N   0  0  0  0  0  0  0  0  0  0  0  0
    2.4730    0.3456   -0.0673 C   0  0  0  0  0  0  0  0  0  0  0  0
   -2.2624   -0.1389   -0.1061 C   0  0  0  0  0  0  0  0  0  0  0  0
    1.0984    0.6715   -0.1685 C   0  0  0  0  0  0  0  0  0  0  0  0
   -0.9870    0.5375   -0.2008 C   0  0  0  0  0  0  0  0  0  0  0  0
    4.6249   -0.8158    0.2171 C   0  0  0  0  0  0  0  0  0  0  0  0
    3.5469    1.2001   -0.2021 C   0  0  0  0  0  0  0  0  0  0  0  0
    4.7922    0.5277   -0.0375 C   0  0  0  0  0  0  0  0  0  0  0  0
   -3.4111    0.5155    0.3387 C   0  0  0  0  0  0  0  0  0  0  0  0
   -2.3238   -1.4826   -0.4753 C   0  0  0  0  0  0  0  0  0  0  0  0
    5.6615   -1.8457    0.4449 C   0  0  0  0  0  0  0  0  0  0  0  0
   -4.6212   -0.1742    0.4145 C   0  0  0  0  0  0  0  0  0  0  0  0
   -3.5340   -2.1721   -0.3997 C   0  0  0  0  0  0  0  0  0  0  0  0
   -4.6827   -1.5178    0.0454 C   0  0  0  0  0  0  0  0  0  0  0  0
    3.4567    2.2595   -0.4090 H   0  0  0  0  0  0  0  0  0  0  0  0
    5.7592    1.0100   -0.1035 H   0  0  0  0  0  0  0  0  0  0  0  0
   -1.4492   -2.0193   -0.8355 H   0  0  0  0  0  0  0  0  0  0  0  0
    6.6661   -1.4129    0.3896 H   0  0  0  0  0  0  0  0  0  0  0  0
    5.5515   -2.3005    1.4351 H   0  0  0  0  0  0  0  0  0  0  0  0
    5.6004   -2.6373   -0.3095 H   0  0  0  0  0  0  0  0  0  0  0  0
   -5.5261    0.3203    0.7589 H   0  0  0  0  0  0  0  0  0  0  0  0
   -3.5827   -3.2178   -0.6893 H   0  0  0  0  0  0  0  0  0  0  0  0
   -5.6250   -2.0547    0.1037 H   0  0  0  0  0  0  0  0  0  0  0  0
  1 13  1  0  0  0  0
  2  6  1  0  0  0  0
  2 10  1  0  0  0  0
  3  8  1  0  0  0  0
  3  9  1  0  0  0  0
  4  5  1  0  0  0  0
  4  8  2  0  0  0  0
  5  9  2  0  0  0  0
  6  8  1  0  0  0  0
  6 11  2  0  0  0  0
  7  9  1  0  0  0  0
  7 13  1  0  0  0  0
  7 14  2  0  0  0  0
 10 12  2  0  0  0  0
 10 15  1  0  0  0  0
 11 12  1  0  0  0  0
 11 19  1  0  0  0  0
 12 20  1  0  0  0  0
 13 16  2  0  0  0  0
 14 17  1  0  0  0  0
 14 21  1  0  0  0  0
 15 22  1  0  0  0  0
 15 23  1  0  0  0  0
 15 24  1  0  0  0  0
 16 18  1  0  0  0  0
 16 25  1  0  0  0  0
 17 18  2  0  0  0  0
 17 26  1  0  0  0  0
 18 27  1  0  0  0  0
M  END
> <PUBCHEM_COMPOUND_CID>
443277

> <PUBCHEM_CONFORMER_RMSD>
0.6

> <PUBCHEM_CONFORMER_DIVERSEORDER>
1
20
4
19
3
18
2
17
12
11
21
10
13
14
9
22
7
24
23
8
15
16
6
5

> <PUBCHEM_MMFF94_PARTIAL_CHARGES>
24
1 -0.18
10 -0.14
11 -0.15
12 -0.15
13 0.18
14 -0.15
15 0.18
16 -0.15
17 -0.15
18 -0.15
19 0.15
2 -0.08
20 0.15
21 0.15
25 0.15
26 0.15
27 0.15
3 -0.28
4 -0.34
5 -0.34
6 0.04
7 0.05
8 0.48
9 0.43

> <PUBCHEM_EFFECTIVE_ROTOR_COUNT>
2

> <PUBCHEM_PHARMACOPHORE_FEATURES>
3
5 2 6 10 11 12 rings
5 3 4 5 8 9 rings
6 7 13 14 16 17 18 rings

> <PUBCHEM_HEAVY_ATOM_COUNT>
18

> <PUBCHEM_ATOM_DEF_STEREO_COUNT>
0

> <PUBCHEM_ATOM_UDEF_STEREO_COUNT>
0

> <PUBCHEM_BOND_DEF_STEREO_COUNT>
0

> <PUBCHEM_BOND_UDEF_STEREO_COUNT>
0

> <PUBCHEM_ISOTOPIC_ATOM_COUNT>
0

> <PUBCHEM_COMPONENT_COUNT>
1

> <PUBCHEM_CACTVS_TAUTO_COUNT>
1

> <PUBCHEM_CONFORMER_ID>
0006C38D00000001

> <PUBCHEM_MMFF94_ENERGY>
29.9866

> <PUBCHEM_FEATURE_SELFOVERLAP>
15.223

> <PUBCHEM_SHAPE_FINGERPRINT>
10465860 250 17530963570797989433
10616163 171 18408321081552867662
11046707 91 18411139134312835285
12107183 9 17904760329788025650
12236239 1 18341610408687294537
13167823 11 18411419505578084866
13288520 33 18411981368635579598
13533116 47 18337954459357566513
13551218 46 18408884061708294455
13583140 156 16805614706044890088
13675066 3 17458346359827803612
13760787 5 17704064093032198868
13862211 1 18412267220189681263
14420673 8 18119240907962990718
15196674 1 18411700984949885590
15352361 1 18412546492011556438
15442244 35 18410571773370264541
15788980 27 17775286075291384958
17492 89 18195808462400845507
17780758 139 18188496881768708648
17804303 29 18259982639660954897
17834072 33 18411697651986731140
17844677 252 18334850615452906288
17857418 61 18410299107397793258
1813 80 17632289094862312398
18186145 218 15913325762913591244
19141452 34 18409729582023229383
19422 9 18411979144000847236
200 152 18410857641997941490
20281475 54 18412263921965774572
20645477 70 18272653446293646314
21065198 48 18409164407277008528
21267235 1 18412255138478183210
21673915 165 18410575080669149306
221490 88 17984415239741314467
22485316 2 18411420600673263596
22646028 1 18412545396694350870
22646028 28 18413389813061045454
22950370 63 18413105052666273582
23402539 116 18412268345465325031
23522609 53 18055040364357080612
23559900 14 18262810562098397153
2871803 45 18060145340461162482
3004659 81 18131354120360314702
335352 9 18410856573368892613
351380 3 18202004352225706594
42 15 18408882931988801631
4214541 1 18409448115420402785
4409770 3 17984429800024067157
465052 167 18337948995938074766
5104073 3 18335706057153163440
559249 180 18341054120133359635
573450 72 18408324401662242649
5924683 9 17822301145614820383
633830 44 16773792610602454964
77779 3 18409166610600350184
83771 10 18342178860261830364
9709674 26 18413100658973271746

> <PUBCHEM_SHAPE_MULTIPOLES>
360.32
11.98
2.23
0.73
7.09
0.01
-0.04
4.91
-1.79
-1.07
-0.02
-0.13
-0.04
-1.05

> <PUBCHEM_SHAPE_SELFOVERLAP>
772.436

> <PUBCHEM_SHAPE_VOLUME>
202.8

> <PUBCHEM_COORDINATE_TYPE>
2
5
10

$$$$

