6272
  -OEChem-06261201133D

 24 24  0     1  0  0  0  0  0999 V2000
    2.8489    2.5994   -0.5318 I   0  0  0  0  0  0  0  0  0  0  0  0
   -1.8180    1.4106    1.2884 O   0  0  0  0  0  0  0  0  0  0  0  0
    4.0252   -0.2180    0.6297 O   0  0  0  0  0  0  0  0  0  0  0  0
   -3.4812    1.4645   -0.2615 O   0  0  0  0  0  0  0  0  0  0  0  0
   -3.6222   -1.2946   -0.0445 N   0  0  0  0  0  0  0  0  0  0  0  0
   -1.3592   -0.9238   -0.9085 C   0  0  0  0  0  0  0  0  0  0  0  0
   -2.3428   -0.6398    0.2350 C   0  0  1  0  0  0  0  0  0  0  0  0
    0.0826   -0.7226   -0.5000 C   0  0  0  0  0  0  0  0  0  0  0  0
    0.6647    0.5237   -0.6594 C   0  0  0  0  0  0  0  0  0  0  0  0
    0.7914   -1.7898    0.0253 C   0  0  0  0  0  0  0  0  0  0  0  0
   -2.6291    0.8436    0.3583 C   0  0  0  0  0  0  0  0  0  0  0  0
    1.9948    0.7083   -0.2821 C   0  0  0  0  0  0  0  0  0  0  0  0
    2.1217   -1.6053    0.4023 C   0  0  0  0  0  0  0  0  0  0  0  0
    2.7234   -0.3562    0.2488 C   0  0  0  0  0  0  0  0  0  0  0  0
   -1.5828   -0.2994   -1.7846 H   0  0  0  0  0  0  0  0  0  0  0  0
   -1.4697   -1.9612   -1.2548 H   0  0  0  0  0  0  0  0  0  0  0  0
   -1.9767   -1.0254    1.1934 H   0  0  0  0  0  0  0  0  0  0  0  0
    0.0870    1.3442   -1.0774 H   0  0  0  0  0  0  0  0  0  0  0  0
    0.3308   -2.7653    0.1513 H   0  0  0  0  0  0  0  0  0  0  0  0
   -4.0116   -0.9456   -0.9194 H   0  0  0  0  0  0  0  0  0  0  0  0
   -4.2957   -1.0698    0.6867 H   0  0  0  0  0  0  0  0  0  0  0  0
    2.6827   -2.4392    0.8157 H   0  0  0  0  0  0  0  0  0  0  0  0
   -1.9938    2.3702    1.3906 H   0  0  0  0  0  0  0  0  0  0  0  0
    4.2950    0.7012    0.4611 H   0  0  0  0  0  0  0  0  0  0  0  0
  1 12  1  0  0  0  0
  2 11  1  0  0  0  0
  2 23  1  0  0  0  0
  3 14  1  0  0  0  0
  3 24  1  0  0  0  0
  4 11  2  0  0  0  0
  5  7  1  0  0  0  0
  5 20  1  0  0  0  0
  5 21  1  0  0  0  0
  6  7  1  0  0  0  0
  6  8  1  0  0  0  0
  6 15  1  0  0  0  0
  6 16  1  0  0  0  0
  7 11  1  0  0  0  0
  7 17  1  0  0  0  0
  8  9  2  0  0  0  0
  8 10  1  0  0  0  0
  9 12  1  0  0  0  0
  9 18  1  0  0  0  0
 10 13  2  0  0  0  0
 10 19  1  0  0  0  0
 12 14  2  0  0  0  0
 13 14  1  0  0  0  0
 13 22  1  0  0  0  0
M  END
> <PUBCHEM_COMPOUND_CID>
6272

> <PUBCHEM_CONFORMER_RMSD>
0.6

> <PUBCHEM_CONFORMER_DIVERSEORDER>
1
21
12
16
29
20
7
26
2
25
9
17
13
28
6
11
23
30
19
22
15
24
18
14
8
27
10
5
4
3

> <PUBCHEM_MMFF94_PARTIAL_CHARGES>
21
1 -0.08
10 -0.15
11 0.66
12 0.08
13 -0.15
14 0.08
18 0.15
19 0.15
2 -0.65
20 0.36
21 0.36
22 0.15
23 0.5
24 0.45
3 -0.53
4 -0.57
5 -0.99
6 0.14
7 0.33
8 -0.14
9 -0.15

> <PUBCHEM_EFFECTIVE_ROTOR_COUNT>
3

> <PUBCHEM_PHARMACOPHORE_FEATURES>
8
1 1 hydrophobe
1 2 acceptor
1 3 donor
1 4 acceptor
1 5 cation
1 5 donor
3 2 4 11 anion
6 8 9 10 12 13 14 rings

> <PUBCHEM_HEAVY_ATOM_COUNT>
14

> <PUBCHEM_ATOM_DEF_STEREO_COUNT>
0

> <PUBCHEM_ATOM_UDEF_STEREO_COUNT>
1

> <PUBCHEM_BOND_DEF_STEREO_COUNT>
0

> <PUBCHEM_BOND_UDEF_STEREO_COUNT>
0

> <PUBCHEM_ISOTOPIC_ATOM_COUNT>
0

> <PUBCHEM_COMPONENT_COUNT>
1

> <PUBCHEM_CACTVS_TAUTO_COUNT>
3

> <PUBCHEM_CONFORMER_ID>
0000188000000001

> <PUBCHEM_MMFF94_ENERGY>
26.9112

> <PUBCHEM_FEATURE_SELFOVERLAP>
40.652

> <PUBCHEM_SHAPE_FINGERPRINT>
12162725 195 18410573967987419227
12251169 10 18341330080187250959
12346645 44 18196651792182603116
12696612 119 18413105091220739654
14144814 61 18411702114167659766
15375462 478 18334580126838807143
15775835 57 18335973177864152661
16945 1 18267577086353169540
200 152 18335998484360093879
201361 129 18412539895194731076
20510252 161 17044003894272723996
20559304 39 18335417941851011720
20671657 1 18199183989194709604
21524375 3 18192987119895466724
21665062 11 18123736814807821672
22854114 111 18339921524161525384
23402539 116 17676500436225328175
23557571 272 16660649505386832775
305870 269 18270116808222149924
53812653 8 18191862336342290062
7364860 26 18335977602165381276

> <PUBCHEM_SHAPE_MULTIPOLES>
277.46
6.29
2.36
0.9
1.54
0.84
-0.03
1.86
-0.61
-1.27
-0.01
0.06
0.14
-0.83

> <PUBCHEM_SHAPE_SELFOVERLAP>
553.131

> <PUBCHEM_SHAPE_VOLUME>
167.2

> <PUBCHEM_COORDINATE_TYPE>
2
5
10

$$$$

