4273
  -OEChem-06261200003D

 60 63  0     0  0  0  0  0  0999 V2000
    7.7280   -2.9716    0.2946 O   0  0  0  0  0  0  0  0  0  0  0  0
   -7.7977   -2.9847   -0.2932 O   0  0  0  0  0  0  0  0  0  0  0  0
    0.1308    4.2756    0.0050 N   0  0  0  0  0  0  0  0  0  0  0  0
    2.1054    3.2417    0.0438 N   0  0  0  0  0  0  0  0  0  0  0  0
   -1.3481    2.3488   -0.0280 N   0  0  0  0  0  0  0  0  0  0  0  0
    2.3077    0.2074    0.0461 N   0  0  0  0  0  0  0  0  0  0  0  0
   -0.0843    0.2611   -0.0042 N   0  0  0  0  0  0  0  0  0  0  0  0
   -2.4262    0.2722   -0.0506 N   0  0  0  0  0  0  0  0  0  0  0  0
   -0.8275    5.3541   -0.0145 C   0  0  0  0  0  0  0  0  0  0  0  0
   -0.1429    2.9375   -0.0023 C   0  0  0  0  0  0  0  0  0  0  0  0
    1.0944    2.3140    0.0227 C   0  0  0  0  0  0  0  0  0  0  0  0
   -0.7537    6.2084    1.2524 C   0  0  0  0  0  0  0  0  0  0  0  0
   -0.7029    6.2078   -1.2781 C   0  0  0  0  0  0  0  0  0  0  0  0
    1.4938    4.4077    0.0322 C   0  0  0  0  0  0  0  0  0  0  0  0
    1.0978    0.9227    0.0213 C   0  0  0  0  0  0  0  0  0  0  0  0
   -1.2170    1.0043   -0.0269 C   0  0  0  0  0  0  0  0  0  0  0  0
    2.3694   -1.2239    0.0460 C   0  0  0  0  0  0  0  0  0  0  0  0
   -2.4659   -1.1556   -0.0529 C   0  0  0  0  0  0  0  0  0  0  0  0
    3.7973   -1.6901    0.1123 C   0  0  0  0  0  0  0  0  0  0  0  0
   -3.8867   -1.6435   -0.1170 C   0  0  0  0  0  0  0  0  0  0  0  0
    4.5047   -1.8990   -1.0644 C   0  0  0  0  0  0  0  0  0  0  0  0
    4.3912   -1.9051    1.3489 C   0  0  0  0  0  0  0  0  0  0  0  0
   -4.5883   -1.8653    1.0608 C   0  0  0  0  0  0  0  0  0  0  0  0
   -4.4799   -1.8654   -1.3528 C   0  0  0  0  0  0  0  0  0  0  0  0
    5.8297   -2.3307   -1.0032 C   0  0  0  0  0  0  0  0  0  0  0  0
    5.7163   -2.3367    1.4100 C   0  0  0  0  0  0  0  0  0  0  0  0
    6.4355   -2.5495    0.2340 C   0  0  0  0  0  0  0  0  0  0  0  0
   -5.9066   -2.3171    1.0017 C   0  0  0  0  0  0  0  0  0  0  0  0
   -5.7983   -2.3171   -1.4118 C   0  0  0  0  0  0  0  0  0  0  0  0
   -6.5117   -2.5430   -0.2345 C   0  0  0  0  0  0  0  0  0  0  0  0
    8.4053   -3.1696   -0.9455 C   0  0  0  0  0  0  0  0  0  0  0  0
   -8.4692   -3.1953    0.9480 C   0  0  0  0  0  0  0  0  0  0  0  0
   -1.8240    4.8948   -0.0343 H   0  0  0  0  0  0  0  0  0  0  0  0
   -0.8638    5.5883    2.1490 H   0  0  0  0  0  0  0  0  0  0  0  0
   -1.5524    6.9576    1.2602 H   0  0  0  0  0  0  0  0  0  0  0  0
    0.2028    6.7369    1.3283 H   0  0  0  0  0  0  0  0  0  0  0  0
   -0.7770    5.5872   -2.1780 H   0  0  0  0  0  0  0  0  0  0  0  0
   -1.5006    6.9570   -1.3183 H   0  0  0  0  0  0  0  0  0  0  0  0
    0.2559    6.7362   -1.3158 H   0  0  0  0  0  0  0  0  0  0  0  0
    1.9861    5.3707    0.0426 H   0  0  0  0  0  0  0  0  0  0  0  0
    3.1637    0.7517    0.0611 H   0  0  0  0  0  0  0  0  0  0  0  0
    1.8927   -1.6286   -0.8560 H   0  0  0  0  0  0  0  0  0  0  0  0
    1.8125   -1.6335    0.8988 H   0  0  0  0  0  0  0  0  0  0  0  0
   -3.2808    0.8177   -0.0634 H   0  0  0  0  0  0  0  0  0  0  0  0
   -1.9076   -1.5587   -0.9080 H   0  0  0  0  0  0  0  0  0  0  0  0
   -1.9836   -1.5578    0.8475 H   0  0  0  0  0  0  0  0  0  0  0  0
    4.0419   -1.7293   -2.0327 H   0  0  0  0  0  0  0  0  0  0  0  0
    3.8408   -1.7405    2.2710 H   0  0  0  0  0  0  0  0  0  0  0  0
   -4.1262   -1.6901    2.0285 H   0  0  0  0  0  0  0  0  0  0  0  0
   -3.9341   -1.6907   -2.2757 H   0  0  0  0  0  0  0  0  0  0  0  0
    6.3300   -2.4759   -1.9546 H   0  0  0  0  0  0  0  0  0  0  0  0
    6.1830   -2.5051    2.3767 H   0  0  0  0  0  0  0  0  0  0  0  0
   -6.4026   -2.4717    1.9539 H   0  0  0  0  0  0  0  0  0  0  0  0
   -6.2645   -2.4910   -2.3778 H   0  0  0  0  0  0  0  0  0  0  0  0
    9.4207   -3.5044   -0.7094 H   0  0  0  0  0  0  0  0  0  0  0  0
    7.9366   -3.9630   -1.5376 H   0  0  0  0  0  0  0  0  0  0  0  0
    8.4995   -2.2337   -1.5064 H   0  0  0  0  0  0  0  0  0  0  0  0
   -9.4799   -3.5450    0.7135 H   0  0  0  0  0  0  0  0  0  0  0  0
   -7.9872   -3.9824    1.5378 H   0  0  0  0  0  0  0  0  0  0  0  0
   -8.5765   -2.2618    1.5108 H   0  0  0  0  0  0  0  0  0  0  0  0
  1 27  1  0  0  0  0
  1 31  1  0  0  0  0
  2 30  1  0  0  0  0
  2 32  1  0  0  0  0
  3  9  1  0  0  0  0
  3 10  1  0  0  0  0
  3 14  1  0  0  0  0
  4 11  1  0  0  0  0
  4 14  2  0  0  0  0
  5 10  2  0  0  0  0
  5 16  1  0  0  0  0
  6 15  1  0  0  0  0
  6 17  1  0  0  0  0
  6 41  1  0  0  0  0
  7 15  1  0  0  0  0
  7 16  2  0  0  0  0
  8 16  1  0  0  0  0
  8 18  1  0  0  0  0
  8 44  1  0  0  0  0
  9 12  1  0  0  0  0
  9 13  1  0  0  0  0
  9 33  1  0  0  0  0
 10 11  1  0  0  0  0
 11 15  2  0  0  0  0
 12 34  1  0  0  0  0
 12 35  1  0  0  0  0
 12 36  1  0  0  0  0
 13 37  1  0  0  0  0
 13 38  1  0  0  0  0
 13 39  1  0  0  0  0
 14 40  1  0  0  0  0
 17 19  1  0  0  0  0
 17 42  1  0  0  0  0
 17 43  1  0  0  0  0
 18 20  1  0  0  0  0
 18 45  1  0  0  0  0
 18 46  1  0  0  0  0
 19 21  2  0  0  0  0
 19 22  1  0  0  0  0
 20 23  2  0  0  0  0
 20 24  1  0  0  0  0
 21 25  1  0  0  0  0
 21 47  1  0  0  0  0
 22 26  2  0  0  0  0
 22 48  1  0  0  0  0
 23 28  1  0  0  0  0
 23 49  1  0  0  0  0
 24 29  2  0  0  0  0
 24 50  1  0  0  0  0
 25 27  2  0  0  0  0
 25 51  1  0  0  0  0
 26 27  1  0  0  0  0
 26 52  1  0  0  0  0
 28 30  2  0  0  0  0
 28 53  1  0  0  0  0
 29 30  1  0  0  0  0
 29 54  1  0  0  0  0
 31 55  1  0  0  0  0
 31 56  1  0  0  0  0
 31 57  1  0  0  0  0
 32 58  1  0  0  0  0
 32 59  1  0  0  0  0
 32 60  1  0  0  0  0
M  END
> <PUBCHEM_COMPOUND_CID>
4273

> <PUBCHEM_CONFORMER_RMSD>
1

> <PUBCHEM_CONFORMER_DIVERSEORDER>
1
67
90
21
76
57
91
80
56
38
59
74
45
18
15
69
54
70
77
14
89
88
51
12
73
41
40
34
46
84
61
83
78
28
85
52
17
48
92
62
68
11
43
19
65
53
25
35
71
79
23
31
47
13
26
63
82
30
7
36
66
27
44
4
2
60
75
37
58
49
8
16
81
9
39
6
22
20
10
24
72
64
87
42
29
55
5
50
86
32
3
33

> <PUBCHEM_MMFF94_PARTIAL_CHARGES>
41
1 -0.36
10 0.11
11 0.23
14 0.04
15 0.41
16 0.72
17 0.51
18 0.51
19 -0.14
2 -0.36
20 -0.14
21 -0.15
22 -0.15
23 -0.15
24 -0.15
25 -0.15
26 -0.15
27 0.08
28 -0.15
29 -0.15
3 0.05
30 0.08
31 0.28
32 0.28
4 -0.57
40 0.15
41 0.4
44 0.4
47 0.15
48 0.15
49 0.15
5 -0.57
50 0.15
51 0.15
52 0.15
53 0.15
54 0.15
6 -0.87
7 -0.62
8 -0.87
9 0.26

> <PUBCHEM_EFFECTIVE_ROTOR_COUNT>
9

> <PUBCHEM_PHARMACOPHORE_FEATURES>
12
1 1 acceptor
1 2 acceptor
1 6 cation
1 6 donor
1 8 donor
3 3 4 14 cation
3 9 12 13 hydrophobe
4 5 7 8 16 cation
5 3 4 10 11 14 rings
6 19 21 22 25 26 27 rings
6 20 23 24 28 29 30 rings
6 5 7 10 11 15 16 rings

> <PUBCHEM_HEAVY_ATOM_COUNT>
32

> <PUBCHEM_ATOM_DEF_STEREO_COUNT>
0

> <PUBCHEM_ATOM_UDEF_STEREO_COUNT>
0

> <PUBCHEM_BOND_DEF_STEREO_COUNT>
0

> <PUBCHEM_BOND_UDEF_STEREO_COUNT>
0

> <PUBCHEM_ISOTOPIC_ATOM_COUNT>
0

> <PUBCHEM_COMPONENT_COUNT>
1

> <PUBCHEM_CACTVS_TAUTO_COUNT>
6

> <PUBCHEM_CONFORMER_ID>
000010B100000001

> <PUBCHEM_MMFF94_ENERGY>
99.5135

> <PUBCHEM_FEATURE_SELFOVERLAP>
61.025

> <PUBCHEM_SHAPE_FINGERPRINT>
10050765 1 18411419497220797965
10411042 1 18410572889934803650
11059845 2 17460012176253285403
11297750 10 18272379646349803709
12107183 9 18334845157229507329
12342043 65 17988083267321133447
12758862 56 18413111671770364915
13248334 5 18050567348321503408
13540713 5 18337371795352055329
13631057 29 18270680991285119218
13673619 4 18060140925398670175
13692115 27 18333724736640656601
13785724 45 18410012104966750529
13955234 65 17977948986616210817
14068700 675 18272367603155809054
15198563 99 18339082712785181588
15351339 4 17702959148255788611
15400415 2 17185879390343341557
16989713 51 18263639740253253022
16992752 21 18338507634540558790
17686467 74 18335711563908001930
19301679 30 18411145723215024840
19427546 20 18124593339473008396
20771845 65 18335135346262377161
21130935 74 17980473470447965187
21639891 77 18342463681445489077
21716022 299 18200864085547985468
21796203 349 18123438688232550234
21927370 108 18410283740284695347
22033318 11 18044625708782434129
22311459 1 18122626316674866177
22899556 105 18338781365891435468
23523766 6 18342736282439361461
25242607 90 18334865991151704083
255183 451 18409166584551036766
3103668 31 18270122465000300669
32027 91 18268711615535878659
3627633 1 18339080505104003613
44280117 145 18193272113284167606
504843 32 17764591318814681269
6058803 2 17754168688340606175
6673363 416 18337099147909244444
6697151 62 18194990507802253095
6698420 124 17177145385273250736
6700243 42 17753019934722612212
77188 2 18410576154210864061

> <PUBCHEM_SHAPE_MULTIPOLES>
616.92
20.3
9.18
1.17
1.2
21.62
0.01
-46.5
0.01
1.51
0
0.1
-0.38
0.46

> <PUBCHEM_SHAPE_SELFOVERLAP>
1329.552

> <PUBCHEM_SHAPE_VOLUME>
339.2

> <PUBCHEM_COORDINATE_TYPE>
2
5
10

$$$$

