10298166
  -OEChem-07051212503D

 51 52  0     1  0  0  0  0  0999 V2000
    0.5343   -3.0041    0.3624 S   0  0  0  0  0  0  0  0  0  0  0  0
   -3.0776    0.2472    1.7408 O   0  0  0  0  0  0  0  0  0  0  0  0
    0.0912    0.7772    0.1871 O   0  0  0  0  0  0  0  0  0  0  0  0
   -0.0188   -1.7754    1.2804 O   0  0  0  0  0  0  0  0  0  0  0  0
   -4.0146    1.9858    0.4714 O   0  0  0  0  0  0  0  0  0  0  0  0
    1.9034    0.3065   -1.2549 O   0  0  0  0  0  0  0  0  0  0  0  0
   -1.8223    0.8084    4.1378 O   0  0  0  0  0  0  0  0  0  0  0  0
    1.8753    3.1509   -1.9149 O   0  0  0  0  0  0  0  0  0  0  0  0
    1.8265    2.7096    1.6756 O   0  0  0  0  0  0  0  0  0  0  0  0
    2.0671   -3.2119    0.8808 O   0  0  0  0  0  0  0  0  0  0  0  0
   -2.4298    0.3045   -3.3768 O   0  0  0  0  0  0  0  0  0  0  0  0
    0.5860   -2.5762   -1.0232 O   0  0  0  0  0  0  0  0  0  0  0  0
   -0.2164   -4.1898    0.7315 O   0  0  0  0  0  0  0  0  0  0  0  0
    3.5430   -1.6317   -1.3780 O   0  0  0  0  0  0  0  0  0  0  0  0
    5.0403   -0.7142    0.0871 O   0  0  0  0  0  0  0  0  0  0  0  0
   -3.1880   -0.1076   -1.2147 N   0  0  0  0  0  0  0  0  0  0  0  0
   -0.9575   -0.1088   -0.2017 C   0  0  1  0  0  0  0  0  0  0  0  0
   -1.2272   -1.1196    0.9185 C   0  0  2  0  0  0  0  0  0  0  0  0
   -2.2203    0.7043   -0.5064 C   0  0  2  0  0  0  0  0  0  0  0  0
   -1.9256   -0.5040    2.1405 C   0  0  1  0  0  0  0  0  0  0  0  0
   -2.8164    1.2791    0.7889 C   0  0  2  0  0  0  0  0  0  0  0  0
    0.8420    1.2213   -0.9408 C   0  0  2  0  0  0  0  0  0  0  0  0
   -1.0293    0.3051    3.0780 C   0  0  0  0  0  0  0  0  0  0  0  0
    1.3495    2.6458   -0.6882 C   0  0  1  0  0  0  0  0  0  0  0  0
    2.4391    2.6750    0.3894 C   0  0  2  0  0  0  0  0  0  0  0  0
   -3.2066   -0.2357   -2.5936 C   0  0  0  0  0  0  0  0  0  0  0  0
    3.3230    1.4677    0.3096 C   0  0  0  0  0  0  0  0  0  0  0  0
    3.0334    0.4253   -0.4825 C   0  0  0  0  0  0  0  0  0  0  0  0
   -4.2983   -1.1576   -3.0668 C   0  0  0  0  0  0  0  0  0  0  0  0
    3.9945   -0.6771   -0.5372 C   0  0  0  0  0  0  0  0  0  0  0  0
   -0.6580   -0.6462   -1.1056 H   0  0  0  0  0  0  0  0  0  0  0  0
   -1.9227   -1.8717    0.5190 H   0  0  0  0  0  0  0  0  0  0  0  0
   -1.9791    1.5509   -1.1611 H   0  0  0  0  0  0  0  0  0  0  0  0
   -2.3197   -1.3319    2.7445 H   0  0  0  0  0  0  0  0  0  0  0  0
   -2.1252    2.0104    1.2228 H   0  0  0  0  0  0  0  0  0  0  0  0
    0.2086    1.2591   -1.8367 H   0  0  0  0  0  0  0  0  0  0  0  0
   -0.2357   -0.3204    3.4987 H   0  0  0  0  0  0  0  0  0  0  0  0
   -0.5701    1.1614    2.5802 H   0  0  0  0  0  0  0  0  0  0  0  0
   -3.8454   -0.6509   -0.6620 H   0  0  0  0  0  0  0  0  0  0  0  0
    0.5081    3.2838   -0.3912 H   0  0  0  0  0  0  0  0  0  0  0  0
    3.0504    3.5782    0.2820 H   0  0  0  0  0  0  0  0  0  0  0  0
   -4.1440    2.6551    1.1647 H   0  0  0  0  0  0  0  0  0  0  0  0
    4.2282    1.4917    0.9103 H   0  0  0  0  0  0  0  0  0  0  0  0
   -1.2318    1.3103    4.7251 H   0  0  0  0  0  0  0  0  0  0  0  0
    2.1503    4.0704   -1.7588 H   0  0  0  0  0  0  0  0  0  0  0  0
   -5.2413   -0.9203   -2.5660 H   0  0  0  0  0  0  0  0  0  0  0  0
   -4.4368   -1.0407   -4.1452 H   0  0  0  0  0  0  0  0  0  0  0  0
   -4.0200   -2.1921   -2.8487 H   0  0  0  0  0  0  0  0  0  0  0  0
    2.5344    2.7595    2.3408 H   0  0  0  0  0  0  0  0  0  0  0  0
    2.5874   -3.8946    0.3957 H   0  0  0  0  0  0  0  0  0  0  0  0
    4.1610   -2.3912   -1.4397 H   0  0  0  0  0  0  0  0  0  0  0  0
  1  4  1  0  0  0  0
  1 10  1  0  0  0  0
  1 12  2  0  0  0  0
  1 13  2  0  0  0  0
  2 20  1  0  0  0  0
  2 21  1  0  0  0  0
  3 17  1  0  0  0  0
  3 22  1  0  0  0  0
  4 18  1  0  0  0  0
  5 21  1  0  0  0  0
  5 42  1  0  0  0  0
  6 22  1  0  0  0  0
  6 28  1  0  0  0  0
  7 23  1  0  0  0  0
  7 44  1  0  0  0  0
  8 24  1  0  0  0  0
  8 45  1  0  0  0  0
  9 25  1  0  0  0  0
  9 49  1  0  0  0  0
 10 50  1  0  0  0  0
 11 26  2  0  0  0  0
 14 30  1  0  0  0  0
 14 51  1  0  0  0  0
 15 30  2  0  0  0  0
 16 19  1  0  0  0  0
 16 26  1  0  0  0  0
 16 39  1  0  0  0  0
 17 18  1  0  0  0  0
 17 19  1  0  0  0  0
 17 31  1  0  0  0  0
 18 20  1  0  0  0  0
 18 32  1  0  0  0  0
 19 21  1  0  0  0  0
 19 33  1  0  0  0  0
 20 23  1  0  0  0  0
 20 34  1  0  0  0  0
 21 35  1  0  0  0  0
 22 24  1  0  0  0  0
 22 36  1  0  0  0  0
 23 37  1  0  0  0  0
 23 38  1  0  0  0  0
 24 25  1  0  0  0  0
 24 40  1  0  0  0  0
 25 27  1  0  0  0  0
 25 41  1  0  0  0  0
 26 29  1  0  0  0  0
 27 28  2  0  0  0  0
 27 43  1  0  0  0  0
 28 30  1  0  0  0  0
 29 46  1  0  0  0  0
 29 47  1  0  0  0  0
 29 48  1  0  0  0  0
M  END
> <PUBCHEM_COMPOUND_CID>
10298166

> <PUBCHEM_CONFORMER_RMSD>
1

> <PUBCHEM_CONFORMER_DIVERSEORDER>
2
13
6
8
20
21
17
19
4
24
3
16
18
14
15
10
22
7
12
9
23
5
1
11

> <PUBCHEM_MMFF94_PARTIAL_CHARGES>
38
1 1.67
10 -0.68
11 -0.57
12 -0.65
13 -0.65
14 -0.65
15 -0.57
16 -0.73
17 0.28
18 0.28
19 0.3
2 -0.56
20 0.28
21 0.56
22 0.56
23 0.28
24 0.28
25 0.42
26 0.57
27 -0.29
28 0.09
29 0.06
3 -0.56
30 0.71
39 0.37
4 -0.46
42 0.4
43 0.15
44 0.4
45 0.4
49 0.4
5 -0.68
50 0.5
51 0.5
6 -0.36
7 -0.68
8 -0.68
9 -0.68

> <PUBCHEM_EFFECTIVE_ROTOR_COUNT>
10

> <PUBCHEM_PHARMACOPHORE_FEATURES>
22
1 10 acceptor
1 11 acceptor
1 12 acceptor
1 13 acceptor
1 14 acceptor
1 15 acceptor
1 16 donor
1 2 acceptor
1 3 acceptor
1 5 acceptor
1 5 donor
1 6 acceptor
1 7 acceptor
1 7 donor
1 8 acceptor
1 8 donor
1 9 acceptor
1 9 donor
3 14 15 30 anion
4 1 10 12 13 anion
6 2 17 18 19 20 21 rings
6 6 22 24 25 27 28 rings

> <PUBCHEM_HEAVY_ATOM_COUNT>
30

> <PUBCHEM_ATOM_DEF_STEREO_COUNT>
7

> <PUBCHEM_ATOM_UDEF_STEREO_COUNT>
1

> <PUBCHEM_BOND_DEF_STEREO_COUNT>
0

> <PUBCHEM_BOND_UDEF_STEREO_COUNT>
0

> <PUBCHEM_ISOTOPIC_ATOM_COUNT>
0

> <PUBCHEM_COMPONENT_COUNT>
1

> <PUBCHEM_CACTVS_TAUTO_COUNT>
2

> <PUBCHEM_CONFORMER_ID>
009D233600000002

> <PUBCHEM_MMFF94_ENERGY>
65.868

> <PUBCHEM_FEATURE_SELFOVERLAP>
111.86

> <PUBCHEM_SHAPE_FINGERPRINT>
11578080 2 16822497364204455801
11640471 11 17604976182288077737
12035759 4 18263100880333681623
12156800 1 16752465164383088323
12467345 10 17821733861886059445
12539773 59 17822004363131741963
12596599 1 17532367750426588062
12655364 131 18115327570703164424
12788726 201 16588862344228461429
13583140 156 18335410310163839769
14251757 17 18123772871264071727
14251764 3 17703526414687264751
16752209 62 15625951885029748841
18219364 16 18272358768096799058
20600515 1 18339066152093083396
20905425 154 17838328945677276982
21069387 34 18260271806713174596
23419403 2 17056960989939020063
23558518 356 18263925436465013999
238 59 18272102590298204895
35225 105 17464781650766039107
81228 2 17553755162456952570
9981440 41 17247828155452083304

> <PUBCHEM_SHAPE_MULTIPOLES>
534.08
6.91
3.63
3.19
1.31
2.21
-1.01
-0.78
3.58
2.36
-0.39
-4.16
-0.51
-0.71

> <PUBCHEM_SHAPE_SELFOVERLAP>
1094.912

> <PUBCHEM_SHAPE_VOLUME>
307.4

> <PUBCHEM_COORDINATE_TYPE>
2
5
10

$$$$

