3003141
  -OEChem-07051213032D

 30 32  0     1  0  0  0  0  0999 V2000
    3.3448   -1.4353    0.0000 Cl  0  0  0  0  0  0  0  0  0  0  0  0
    5.0768   -4.4353    0.0000 Cl  0  0  0  0  0  0  0  0  0  0  0  0
    4.2678    0.1525    0.0000 S   0  0  0  0  0  0  0  0  0  0  0  0
    5.5768    1.1036    0.0000 S   0  0  0  0  0  0  0  0  0  0  0  0
    4.3958    2.8261    0.0000 N   0  0  0  0  0  0  0  0  0  0  0  0
    4.5649    4.4353    0.0000 N   0  0  0  0  0  0  0  0  0  0  0  0
    2.0000    1.7035    0.0000 N   0  0  0  0  0  0  0  0  0  0  0  0
    5.0768   -0.4353    0.0000 C   0  0  1  0  0  0  0  0  0  0  0  0
    5.8858    0.1525    0.0000 C   0  0  0  0  0  0  0  0  0  0  0  0
    5.0768   -1.4353    0.0000 C   0  0  0  0  0  0  0  0  0  0  0  0
    4.5768    1.1036    0.0000 C   0  0  0  0  0  0  0  0  0  0  0  0
    4.2108   -1.9353    0.0000 C   0  0  0  0  0  0  0  0  0  0  0  0
    5.9428   -1.9353    0.0000 C   0  0  0  0  0  0  0  0  0  0  0  0
    3.9890    1.9126    0.0000 C   0  0  0  0  0  0  0  0  0  0  0  0
    4.2108   -2.9353    0.0000 C   0  0  0  0  0  0  0  0  0  0  0  0
    5.9428   -2.9353    0.0000 C   0  0  0  0  0  0  0  0  0  0  0  0
    5.0768   -3.4353    0.0000 C   0  0  0  0  0  0  0  0  0  0  0  0
    5.3739    3.0340    0.0000 C   0  0  0  0  0  0  0  0  0  0  0  0
    3.8958    3.6921    0.0000 C   0  0  0  0  0  0  0  0  0  0  0  0
    2.9945    1.8080    0.0000 C   0  0  0  0  0  0  0  0  0  0  0  0
    5.4785    4.0286    0.0000 C   0  0  0  0  0  0  0  0  0  0  0  0
    4.5244   -0.7168    0.0000 H   0  0  0  0  0  0  0  0  0  0  0  0
    6.1958   -0.3844    0.0000 H   0  0  0  0  0  0  0  0  0  0  0  0
    6.4522    0.4047    0.0000 H   0  0  0  0  0  0  0  0  0  0  0  0
    6.4798   -1.6253    0.0000 H   0  0  0  0  0  0  0  0  0  0  0  0
    3.6739   -3.2453    0.0000 H   0  0  0  0  0  0  0  0  0  0  0  0
    6.4798   -3.2453    0.0000 H   0  0  0  0  0  0  0  0  0  0  0  0
    5.8347    2.6192    0.0000 H   0  0  0  0  0  0  0  0  0  0  0  0
    3.2792    3.7570    0.0000 H   0  0  0  0  0  0  0  0  0  0  0  0
    6.0154    4.3386    0.0000 H   0  0  0  0  0  0  0  0  0  0  0  0
  1 12  1  0  0  0  0
  2 17  1  0  0  0  0
  3  8  1  0  0  0  0
  3 11  1  0  0  0  0
  4  9  1  0  0  0  0
  4 11  1  0  0  0  0
  5 14  1  0  0  0  0
  5 18  1  0  0  0  0
  5 19  1  0  0  0  0
  6 19  2  0  0  0  0
  6 21  1  0  0  0  0
  7 20  3  0  0  0  0
  8  9  1  0  0  0  0
  8 10  1  1  0  0  0
  8 22  1  0  0  0  0
  9 23  1  0  0  0  0
  9 24  1  0  0  0  0
 10 12  2  0  0  0  0
 10 13  1  0  0  0  0
 11 14  2  0  0  0  0
 12 15  1  0  0  0  0
 13 16  2  0  0  0  0
 13 25  1  0  0  0  0
 14 20  1  0  0  0  0
 15 17  2  0  0  0  0
 15 26  1  0  0  0  0
 16 17  1  0  0  0  0
 16 27  1  0  0  0  0
 18 21  2  0  0  0  0
 18 28  1  0  0  0  0
 19 29  1  0  0  0  0
 21 30  1  0  0  0  0
M  END
> <PUBCHEM_COMPOUND_CID>
3003141

> <PUBCHEM_COMPOUND_CANONICALIZED>
1

> <PUBCHEM_CACTVS_COMPLEXITY>
476

> <PUBCHEM_CACTVS_HBOND_ACCEPTOR>
4

> <PUBCHEM_CACTVS_HBOND_DONOR>
0

> <PUBCHEM_CACTVS_ROTATABLE_BOND>
2

> <PUBCHEM_CACTVS_SUBSKEYS>
AAADccBzAABmAAAAAAAAAAAAAAAAAWJAAAAwAAAAAAAAAAABwAAAHAYAAAAADArFWiS9kJcMEAiwBjRnZAAigS0xF7AJyAAYMoiIaCKhGxCQIAAogAKIiCcAgIAOBAAAAACBAAAIAAAAAQIAAAAAAAAAAA==

> <PUBCHEM_IUPAC_OPENEYE_NAME>
(2E)-2-[(4R)-4-(2,4-dichlorophenyl)-1,3-dithiolan-2-ylidene]-2-imidazol-1-yl-acetonitrile

> <PUBCHEM_IUPAC_CAS_NAME>
(2E)-2-[(4R)-4-(2,4-dichlorophenyl)-1,3-dithiolan-2-ylidene]-2-(1-imidazolyl)acetonitrile

> <PUBCHEM_IUPAC_NAME>
(2E)-2-[(4R)-4-(2,4-dichlorophenyl)-1,3-dithiolan-2-ylidene]-2-imidazol-1-ylacetonitrile

> <PUBCHEM_IUPAC_SYSTEMATIC_NAME>
(2E)-2-[(4R)-4-(2,4-dichlorophenyl)-1,3-dithiolan-2-ylidene]-2-imidazol-1-yl-ethanenitrile

> <PUBCHEM_IUPAC_TRADITIONAL_NAME>
(2E)-2-[(4R)-4-(2,4-dichlorophenyl)-1,3-dithiolan-2-ylidene]-2-imidazol-1-yl-acetonitrile

> <PUBCHEM_IUPAC_INCHI>
InChI=1S/C14H9Cl2N3S2/c15-9-1-2-10(11(16)5-9)13-7-20-14(21-13)12(6-17)19-4-3-18-8-19/h1-5,8,13H,7H2/b14-12+/t13-/m0/s1

> <PUBCHEM_IUPAC_INCHIKEY>
YTAOBBFIOAEMLL-REQDGWNSSA-N

> <PUBCHEM_XLOGP3_AA>
4

> <PUBCHEM_EXACT_MASS>
352.961495

> <PUBCHEM_MOLECULAR_FORMULA>
C14H9Cl2N3S2

> <PUBCHEM_MOLECULAR_WEIGHT>
354.27736

> <PUBCHEM_OPENEYE_CAN_SMILES>
C1C(SC(=C(C#N)N2C=CN=C2)S1)C3=C(C=C(C=C3)Cl)Cl

> <PUBCHEM_OPENEYE_ISO_SMILES>
C1[C@H](S/C(=C(\C#N)/N2C=CN=C2)/S1)C3=C(C=C(C=C3)Cl)Cl

> <PUBCHEM_CACTVS_TPSA>
92.2

> <PUBCHEM_MONOISOTOPIC_WEIGHT>
352.961495

> <PUBCHEM_TOTAL_CHARGE>
0

> <PUBCHEM_HEAVY_ATOM_COUNT>
21

> <PUBCHEM_ATOM_DEF_STEREO_COUNT>
1

> <PUBCHEM_ATOM_UDEF_STEREO_COUNT>
0

> <PUBCHEM_BOND_DEF_STEREO_COUNT>
1

> <PUBCHEM_BOND_UDEF_STEREO_COUNT>
0

> <PUBCHEM_ISOTOPIC_ATOM_COUNT>
0

> <PUBCHEM_COMPONENT_COUNT>
1

> <PUBCHEM_CACTVS_TAUTO_COUNT>
1

> <PUBCHEM_COORDINATE_TYPE>
1
5
255

> <PUBCHEM_BONDANNOTATIONS>
10  12  8
10  13  8
12  15  8
13  16  8
15  17  8
16  17  8
18  21  8
5  18  8
5  19  8
6  19  8
6  21  8
8  10  5

$$$$

