11035
  -OEChem-06261205152D

 30 31  0     0  0  0  0  0  0999 V2000
    5.1350    3.7500    0.0000 S   0  0  0  0  0  0  0  0  0  0  0  0
    5.1350    4.7500    0.0000 O   0  0  0  0  0  0  0  0  0  0  0  0
    6.1350    3.7500    0.0000 O   0  0  0  0  0  0  0  0  0  0  0  0
    4.1350    3.7500    0.0000 O   0  0  0  0  0  0  0  0  0  0  0  0
    2.5369   -1.7500    0.0000 O   0  0  0  0  0  0  0  0  0  0  0  0
    4.2690   -4.7500    0.0000 O   0  0  0  0  0  0  0  0  0  0  0  0
    5.1350   -0.2500    0.0000 N   0  0  0  0  0  0  0  0  0  0  0  0
    4.2690   -0.7500    0.0000 N   0  0  0  0  0  0  0  0  0  0  0  0
    5.1350    2.7500    0.0000 C   0  0  0  0  0  0  0  0  0  0  0  0
    5.1350    0.7500    0.0000 C   0  0  0  0  0  0  0  0  0  0  0  0
    4.2690    2.2500    0.0000 C   0  0  0  0  0  0  0  0  0  0  0  0
    6.0010    2.2500    0.0000 C   0  0  0  0  0  0  0  0  0  0  0  0
    4.2690    1.2500    0.0000 C   0  0  0  0  0  0  0  0  0  0  0  0
    6.0010    1.2500    0.0000 C   0  0  0  0  0  0  0  0  0  0  0  0
    4.2690   -1.7500    0.0000 C   0  0  0  0  0  0  0  0  0  0  0  0
    3.4030   -2.2500    0.0000 C   0  0  0  0  0  0  0  0  0  0  0  0
    5.1350   -2.2500    0.0000 C   0  0  0  0  0  0  0  0  0  0  0  0
    3.4030   -3.2500    0.0000 C   0  0  0  0  0  0  0  0  0  0  0  0
    4.2690   -3.7500    0.0000 C   0  0  0  0  0  0  0  0  0  0  0  0
    5.1350   -3.2500    0.0000 C   0  0  0  0  0  0  0  0  0  0  0  0
    3.7321    2.5600    0.0000 H   0  0  0  0  0  0  0  0  0  0  0  0
    6.5380    2.5600    0.0000 H   0  0  0  0  0  0  0  0  0  0  0  0
    3.7321    0.9400    0.0000 H   0  0  0  0  0  0  0  0  0  0  0  0
    6.5380    0.9400    0.0000 H   0  0  0  0  0  0  0  0  0  0  0  0
    5.6719   -1.9400    0.0000 H   0  0  0  0  0  0  0  0  0  0  0  0
    2.8660   -3.5600    0.0000 H   0  0  0  0  0  0  0  0  0  0  0  0
    5.6719   -3.5600    0.0000 H   0  0  0  0  0  0  0  0  0  0  0  0
    5.6719    5.0600    0.0000 H   0  0  0  0  0  0  0  0  0  0  0  0
    2.0000   -2.0600    0.0000 H   0  0  0  0  0  0  0  0  0  0  0  0
    4.8059   -5.0600    0.0000 H   0  0  0  0  0  0  0  0  0  0  0  0
  1  2  1  0  0  0  0
  1  3  2  0  0  0  0
  1  4  2  0  0  0  0
  1  9  1  0  0  0  0
  2 28  1  0  0  0  0
  5 16  1  0  0  0  0
  5 29  1  0  0  0  0
  6 19  1  0  0  0  0
  6 30  1  0  0  0  0
  7  8  2  0  0  0  0
  7 10  1  0  0  0  0
  8 15  1  0  0  0  0
  9 11  2  0  0  0  0
  9 12  1  0  0  0  0
 10 13  2  0  0  0  0
 10 14  1  0  0  0  0
 11 13  1  0  0  0  0
 11 21  1  0  0  0  0
 12 14  2  0  0  0  0
 12 22  1  0  0  0  0
 13 23  1  0  0  0  0
 14 24  1  0  0  0  0
 15 16  2  0  0  0  0
 15 17  1  0  0  0  0
 16 18  1  0  0  0  0
 17 20  2  0  0  0  0
 17 25  1  0  0  0  0
 18 19  2  0  0  0  0
 18 26  1  0  0  0  0
 19 20  1  0  0  0  0
 20 27  1  0  0  0  0
M  END
> <PUBCHEM_COMPOUND_CID>
11035

> <PUBCHEM_COMPOUND_CANONICALIZED>
1

> <PUBCHEM_CACTVS_COMPLEXITY>
439

> <PUBCHEM_CACTVS_HBOND_ACCEPTOR>
7

> <PUBCHEM_CACTVS_HBOND_DONOR>
3

> <PUBCHEM_CACTVS_ROTATABLE_BOND>
3

> <PUBCHEM_CACTVS_SUBSKEYS>
AAADccBzOABAAAAAAAAAAAAAAAAAAAAAAAAwYAAAAAAAAAABQAAAHgQICAAACAyB0AAwx4AAAoKCACRCQHDCAEAgIgAIiBgHbIgKJyKSkZOAcABlwBUI2AewYAQAAEQACAAAEAAAiAAQAAAgAAAAAAAAAA==

> <PUBCHEM_IUPAC_OPENEYE_NAME>
4-(2,4-dihydroxyphenyl)azobenzenesulfonic acid

> <PUBCHEM_IUPAC_CAS_NAME>
4-(2,4-dihydroxyphenyl)azobenzenesulfonic acid

> <PUBCHEM_IUPAC_NAME>
4-[(2,4-dihydroxyphenyl)diazenyl]benzenesulfonic acid

> <PUBCHEM_IUPAC_SYSTEMATIC_NAME>
4-[[2,4-bis(oxidanyl)phenyl]diazenyl]benzenesulfonic acid

> <PUBCHEM_IUPAC_TRADITIONAL_NAME>
4-(2,4-dihydroxyphenyl)azobesylic acid

> <PUBCHEM_IUPAC_INCHI>
InChI=1S/C12H10N2O5S/c15-9-3-6-11(12(16)7-9)14-13-8-1-4-10(5-2-8)20(17,18)19/h1-7,15-16H,(H,17,18,19)

> <PUBCHEM_IUPAC_INCHIKEY>
MHKGJUOEEHNBLE-UHFFFAOYSA-N

> <PUBCHEM_XLOGP3_AA>
1.7

> <PUBCHEM_EXACT_MASS>
294.031042

> <PUBCHEM_MOLECULAR_FORMULA>
C12H10N2O5S

> <PUBCHEM_MOLECULAR_WEIGHT>
294.2832

> <PUBCHEM_OPENEYE_CAN_SMILES>
C1=CC(=CC=C1N=NC2=C(C=C(C=C2)O)O)S(=O)(=O)O

> <PUBCHEM_OPENEYE_ISO_SMILES>
C1=CC(=CC=C1N=NC2=C(C=C(C=C2)O)O)S(=O)(=O)O

> <PUBCHEM_CACTVS_TPSA>
128

> <PUBCHEM_MONOISOTOPIC_WEIGHT>
294.031042

> <PUBCHEM_TOTAL_CHARGE>
0

> <PUBCHEM_HEAVY_ATOM_COUNT>
20

> <PUBCHEM_ATOM_DEF_STEREO_COUNT>
0

> <PUBCHEM_ATOM_UDEF_STEREO_COUNT>
0

> <PUBCHEM_BOND_DEF_STEREO_COUNT>
0

> <PUBCHEM_BOND_UDEF_STEREO_COUNT>
0

> <PUBCHEM_ISOTOPIC_ATOM_COUNT>
0

> <PUBCHEM_COMPONENT_COUNT>
1

> <PUBCHEM_CACTVS_TAUTO_COUNT>
12

> <PUBCHEM_COORDINATE_TYPE>
1
5
255

> <PUBCHEM_BONDANNOTATIONS>
10  13  8
10  14  8
11  13  8
12  14  8
15  16  8
15  17  8
16  18  8
17  20  8
18  19  8
19  20  8
9  11  8
9  12  8

$$$$

