17395600
  -OEChem-06241222512D

 62 65  0     1  0  0  0  0  0999 V2000
    5.6859    1.8013    0.0000 S   0  0  0  0  0  0  0  0  0  0  0  0
    6.8614    3.4193    0.0000 O   0  0  0  0  0  0  0  0  0  0  0  0
    3.7389    3.9762    0.0000 O   0  0  0  0  0  0  0  0  0  0  0  0
    2.0000   -5.0466    0.0000 O   0  0  0  0  0  0  0  0  0  0  0  0
    5.4071    0.0412    0.0000 N   0  0  0  0  0  0  0  0  0  0  0  0
    3.7891    0.0412    0.0000 N   0  0  0  0  0  0  0  0  0  0  0  0
    4.0981    0.9923    0.0000 N   0  0  0  0  0  0  0  0  0  0  0  0
    3.7320   -2.0466    0.0000 N   0  0  0  0  0  0  0  0  0  0  0  0
    5.4602    4.4374    0.0000 N   0  0  0  0  0  0  0  0  0  0  0  0
    4.3775    5.6398    0.0000 N   0  0  0  0  0  0  0  0  0  0  0  0
    6.3582   -0.2678    0.0000 C   0  0  0  0  0  0  0  0  0  0  0  0
    6.5661   -1.2459    0.0000 C   0  0  0  0  0  0  0  0  0  0  0  0
    7.1013    0.4013    0.0000 C   0  0  0  0  0  0  0  0  0  0  0  0
    8.0524    0.0923    0.0000 C   0  0  0  0  0  0  0  0  0  0  0  0
    7.5171   -1.5550    0.0000 C   0  0  0  0  0  0  0  0  0  0  0  0
    8.2603   -0.8858    0.0000 C   0  0  0  0  0  0  0  0  0  0  0  0
    4.5981   -0.5466    0.0000 C   0  0  0  0  0  0  0  0  0  0  0  0
    5.0981    0.9923    0.0000 C   0  0  0  0  0  0  0  0  0  0  0  0
    4.5981   -1.5466    0.0000 C   0  0  0  0  0  0  0  0  0  0  0  0
    5.2791    2.7148    0.0000 C   0  0  3  0  0  0  0  0  0  0  0  0
    5.8669    3.5238    0.0000 C   0  0  0  0  0  0  0  0  0  0  0  0
    5.9602    5.3034    0.0000 C   0  0  0  0  0  0  0  0  0  0  0  0
    4.2846    2.8194    0.0000 C   0  0  0  0  0  0  0  0  0  0  0  0
    5.2910    6.0466    0.0000 C   0  0  0  0  0  0  0  0  0  0  0  0
    3.7320   -3.0466    0.0000 C   0  0  0  0  0  0  0  0  0  0  0  0
    4.4820    4.6453    0.0000 C   0  0  0  0  0  0  0  0  0  0  0  0
    2.8660   -3.5466    0.0000 C   0  0  0  0  0  0  0  0  0  0  0  0
    4.5981   -3.5466    0.0000 C   0  0  0  0  0  0  0  0  0  0  0  0
    2.8660   -4.5466    0.0000 C   0  0  0  0  0  0  0  0  0  0  0  0
    4.5981   -4.5466    0.0000 C   0  0  0  0  0  0  0  0  0  0  0  0
    3.7320   -5.0466    0.0000 C   0  0  0  0  0  0  0  0  0  0  0  0
    2.0000   -6.0466    0.0000 C   0  0  0  0  0  0  0  0  0  0  0  0
    5.8974   -0.6827    0.0000 H   0  0  0  0  0  0  0  0  0  0  0  0
    7.3924    0.9488    0.0000 H   0  0  0  0  0  0  0  0  0  0  0  0
    6.6127    0.7830    0.0000 H   0  0  0  0  0  0  0  0  0  0  0  0
    5.9464   -1.2676    0.0000 H   0  0  0  0  0  0  0  0  0  0  0  0
    6.4798   -1.8599    0.0000 H   0  0  0  0  0  0  0  0  0  0  0  0
    8.6720    0.1140    0.0000 H   0  0  0  0  0  0  0  0  0  0  0  0
    8.1386    0.7063    0.0000 H   0  0  0  0  0  0  0  0  0  0  0  0
    7.2260   -2.1024    0.0000 H   0  0  0  0  0  0  0  0  0  0  0  0
    8.0057   -1.9367    0.0000 H   0  0  0  0  0  0  0  0  0  0  0  0
    8.5888   -1.4116    0.0000 H   0  0  0  0  0  0  0  0  0  0  0  0
    8.8351   -0.6536    0.0000 H   0  0  0  0  0  0  0  0  0  0  0  0
    4.8101   -2.1292    0.0000 H   0  0  0  0  0  0  0  0  0  0  0  0
    5.2087   -1.4389    0.0000 H   0  0  0  0  0  0  0  0  0  0  0  0
    4.9147    2.2132    0.0000 H   0  0  0  0  0  0  0  0  0  0  0  0
    3.1951   -1.7366    0.0000 H   0  0  0  0  0  0  0  0  0  0  0  0
    6.4618    4.9390    0.0000 H   0  0  0  0  0  0  0  0  0  0  0  0
    6.3750    5.7642    0.0000 H   0  0  0  0  0  0  0  0  0  0  0  0
    4.3494    3.4360    0.0000 H   0  0  0  0  0  0  0  0  0  0  0  0
    3.6680    2.8842    0.0000 H   0  0  0  0  0  0  0  0  0  0  0  0
    4.2198    2.2028    0.0000 H   0  0  0  0  0  0  0  0  0  0  0  0
    5.7926    6.4110    0.0000 H   0  0  0  0  0  0  0  0  0  0  0  0
    4.9810    6.5835    0.0000 H   0  0  0  0  0  0  0  0  0  0  0  0
    3.8406    5.9498    0.0000 H   0  0  0  0  0  0  0  0  0  0  0  0
    2.3291   -3.2366    0.0000 H   0  0  0  0  0  0  0  0  0  0  0  0
    5.1350   -3.2366    0.0000 H   0  0  0  0  0  0  0  0  0  0  0  0
    5.1350   -4.8566    0.0000 H   0  0  0  0  0  0  0  0  0  0  0  0
    3.7320   -5.6666    0.0000 H   0  0  0  0  0  0  0  0  0  0  0  0
    1.3800   -6.0466    0.0000 H   0  0  0  0  0  0  0  0  0  0  0  0
    2.0000   -6.6666    0.0000 H   0  0  0  0  0  0  0  0  0  0  0  0
    2.6200   -6.0466    0.0000 H   0  0  0  0  0  0  0  0  0  0  0  0
  1 18  1  0  0  0  0
  1 20  1  0  0  0  0
  2 21  2  0  0  0  0
  3 26  2  0  0  0  0
  4 29  1  0  0  0  0
  4 32  1  0  0  0  0
  5 11  1  0  0  0  0
  5 17  1  0  0  0  0
  5 18  1  0  0  0  0
  6  7  1  0  0  0  0
  6 17  2  0  0  0  0
  7 18  2  0  0  0  0
  8 19  1  0  0  0  0
  8 25  1  0  0  0  0
  8 47  1  0  0  0  0
  9 21  1  0  0  0  0
  9 22  1  0  0  0  0
  9 26  1  0  0  0  0
 10 24  1  0  0  0  0
 10 26  1  0  0  0  0
 10 55  1  0  0  0  0
 11 12  1  0  0  0  0
 11 13  1  0  0  0  0
 11 33  1  0  0  0  0
 12 15  1  0  0  0  0
 12 36  1  0  0  0  0
 12 37  1  0  0  0  0
 13 14  1  0  0  0  0
 13 34  1  0  0  0  0
 13 35  1  0  0  0  0
 14 16  1  0  0  0  0
 14 38  1  0  0  0  0
 14 39  1  0  0  0  0
 15 16  1  0  0  0  0
 15 40  1  0  0  0  0
 15 41  1  0  0  0  0
 16 42  1  0  0  0  0
 16 43  1  0  0  0  0
 17 19  1  0  0  0  0
 19 44  1  0  0  0  0
 19 45  1  0  0  0  0
 20 21  1  0  0  0  0
 20 23  1  0  0  0  0
 20 46  1  0  0  0  0
 22 24  1  0  0  0  0
 22 48  1  0  0  0  0
 22 49  1  0  0  0  0
 23 50  1  0  0  0  0
 23 51  1  0  0  0  0
 23 52  1  0  0  0  0
 24 53  1  0  0  0  0
 24 54  1  0  0  0  0
 25 27  2  0  0  0  0
 25 28  1  0  0  0  0
 27 29  1  0  0  0  0
 27 56  1  0  0  0  0
 28 30  2  0  0  0  0
 28 57  1  0  0  0  0
 29 31  2  0  0  0  0
 30 31  1  0  0  0  0
 30 58  1  0  0  0  0
 31 59  1  0  0  0  0
 32 60  1  0  0  0  0
 32 61  1  0  0  0  0
 32 62  1  0  0  0  0
M  END
> <PUBCHEM_COMPOUND_CID>
17395600

> <PUBCHEM_COMPOUND_CANONICALIZED>
1

> <PUBCHEM_CACTVS_COMPLEXITY>
649

> <PUBCHEM_CACTVS_HBOND_ACCEPTOR>
7

> <PUBCHEM_CACTVS_HBOND_DONOR>
2

> <PUBCHEM_CACTVS_ROTATABLE_BOND>
8

> <PUBCHEM_CACTVS_SUBSKEYS>
AAADceB7sABAAAAAAAAAAAAAAAAAAWLAAAAwYAAAAAAAAAABwAAAHgQYAAAACCzF0waz1ofMFAiqACdydACS2AthIrAdyIEebIiMbiLEuZuUMChu3zvI6AeQUAMAAAAAAgAAAAAAAAAEAAAAAAAAAAAAAA==

> <PUBCHEM_IUPAC_OPENEYE_NAME>
1-[2-[[4-cyclohexyl-5-[(3-methoxyanilino)methyl]-1,2,4-triazol-3-yl]sulfanyl]propanoyl]imidazolidin-2-one

> <PUBCHEM_IUPAC_CAS_NAME>
1-[2-[[4-cyclohexyl-5-[(3-methoxyanilino)methyl]-1,2,4-triazol-3-yl]thio]-1-oxopropyl]-2-imidazolidinone

> <PUBCHEM_IUPAC_NAME>
1-[2-[[4-cyclohexyl-5-[(3-methoxyanilino)methyl]-1,2,4-triazol-3-yl]sulfanyl]propanoyl]imidazolidin-2-one

> <PUBCHEM_IUPAC_SYSTEMATIC_NAME>
1-[2-[[4-cyclohexyl-5-[[(3-methoxyphenyl)amino]methyl]-1,2,4-triazol-3-yl]sulfanyl]propanoyl]imidazolidin-2-one

> <PUBCHEM_IUPAC_TRADITIONAL_NAME>
1-[2-[[4-cyclohexyl-5-(m-anisidinomethyl)-1,2,4-triazol-3-yl]thio]propanoyl]-2-imidazolidinone

> <PUBCHEM_IUPAC_INCHI>
InChI=1S/C22H30N6O3S/c1-15(20(29)27-12-11-23-21(27)30)32-22-26-25-19(28(22)17-8-4-3-5-9-17)14-24-16-7-6-10-18(13-16)31-2/h6-7,10,13,15,17,24H,3-5,8-9,11-12,14H2,1-2H3,(H,23,30)

> <PUBCHEM_IUPAC_INCHIKEY>
BZNMEHCHBDWCDD-UHFFFAOYSA-N

> <PUBCHEM_XLOGP3_AA>
2.8

> <PUBCHEM_EXACT_MASS>
458.21001

> <PUBCHEM_MOLECULAR_FORMULA>
C22H30N6O3S

> <PUBCHEM_MOLECULAR_WEIGHT>
458.577

> <PUBCHEM_OPENEYE_CAN_SMILES>
CC(C(=O)N1CCNC1=O)SC2=NN=C(N2C3CCCCC3)CNC4=CC(=CC=C4)OC

> <PUBCHEM_OPENEYE_ISO_SMILES>
CC(C(=O)N1CCNC1=O)SC2=NN=C(N2C3CCCCC3)CNC4=CC(=CC=C4)OC

> <PUBCHEM_CACTVS_TPSA>
127

> <PUBCHEM_MONOISOTOPIC_WEIGHT>
458.21001

> <PUBCHEM_TOTAL_CHARGE>
0

> <PUBCHEM_HEAVY_ATOM_COUNT>
32

> <PUBCHEM_ATOM_DEF_STEREO_COUNT>
0

> <PUBCHEM_ATOM_UDEF_STEREO_COUNT>
1

> <PUBCHEM_BOND_DEF_STEREO_COUNT>
0

> <PUBCHEM_BOND_UDEF_STEREO_COUNT>
0

> <PUBCHEM_ISOTOPIC_ATOM_COUNT>
0

> <PUBCHEM_COMPONENT_COUNT>
1

> <PUBCHEM_CACTVS_TAUTO_COUNT>
2

> <PUBCHEM_COORDINATE_TYPE>
1
5
255

> <PUBCHEM_BONDANNOTATIONS>
20  23  3
25  27  8
25  28  8
27  29  8
28  30  8
29  31  8
30  31  8
5  17  8
5  18  8
6  17  8
6  7  8
7  18  8

$$$$

