13564
  -OEChem-06241222393D

 14 13  0     0  0  0  0  0  0999 V2000
   -2.8102    0.9597   -0.5715 Br  0  0  0  0  0  0  0  0  0  0  0  0
    0.1312    0.2150    0.3012 O   0  0  0  0  0  0  0  0  0  0  0  0
    1.9104   -1.0133   -0.5127 O   0  0  0  0  0  0  0  0  0  0  0  0
   -0.7438   -0.8956    0.0798 C   0  0  0  0  0  0  0  0  0  0  0  0
   -2.1499   -0.5282    0.5042 C   0  0  0  0  0  0  0  0  0  0  0  0
    1.4347    0.0114   -0.0428 C   0  0  0  0  0  0  0  0  0  0  0  0
    2.2275    1.2510    0.2418 C   0  0  0  0  0  0  0  0  0  0  0  0
   -0.3973   -1.7483    0.6749 H   0  0  0  0  0  0  0  0  0  0  0  0
   -0.7210   -1.1687   -0.9821 H   0  0  0  0  0  0  0  0  0  0  0  0
   -2.8487   -1.3565    0.3655 H   0  0  0  0  0  0  0  0  0  0  0  0
   -2.1822   -0.1770    1.5391 H   0  0  0  0  0  0  0  0  0  0  0  0
    2.1845    1.4818    1.3091 H   0  0  0  0  0  0  0  0  0  0  0  0
    1.8378    2.0840   -0.3487 H   0  0  0  0  0  0  0  0  0  0  0  0
    3.2722    1.0853   -0.0369 H   0  0  0  0  0  0  0  0  0  0  0  0
  1  5  1  0  0  0  0
  2  4  1  0  0  0  0
  2  6  1  0  0  0  0
  3  6  2  0  0  0  0
  4  5  1  0  0  0  0
  4  8  1  0  0  0  0
  4  9  1  0  0  0  0
  5 10  1  0  0  0  0
  5 11  1  0  0  0  0
  6  7  1  0  0  0  0
  7 12  1  0  0  0  0
  7 13  1  0  0  0  0
  7 14  1  0  0  0  0
M  END
> <PUBCHEM_COMPOUND_CID>
13564

> <PUBCHEM_CONFORMER_RMSD>
0.4

> <PUBCHEM_CONFORMER_DIVERSEORDER>
1
7
8
27
19
9
18
25
21
26
24
28
23
10
6
2
17
14
15
20
5
22
12
3
13
16
4
11

> <PUBCHEM_MMFF94_PARTIAL_CHARGES>
7
1 -0.23
2 -0.43
3 -0.57
4 0.28
5 0.23
6 0.66
7 0.06

> <PUBCHEM_EFFECTIVE_ROTOR_COUNT>
3

> <PUBCHEM_PHARMACOPHORE_FEATURES>
2
1 1 hydrophobe
1 3 acceptor

> <PUBCHEM_HEAVY_ATOM_COUNT>
7

> <PUBCHEM_ATOM_DEF_STEREO_COUNT>
0

> <PUBCHEM_ATOM_UDEF_STEREO_COUNT>
0

> <PUBCHEM_BOND_DEF_STEREO_COUNT>
0

> <PUBCHEM_BOND_UDEF_STEREO_COUNT>
0

> <PUBCHEM_ISOTOPIC_ATOM_COUNT>
0

> <PUBCHEM_COMPONENT_COUNT>
1

> <PUBCHEM_CACTVS_TAUTO_COUNT>
1

> <PUBCHEM_CONFORMER_ID>
000034FC00000001

> <PUBCHEM_MMFF94_ENERGY>
4.218

> <PUBCHEM_FEATURE_SELFOVERLAP>
10.148

> <PUBCHEM_SHAPE_FINGERPRINT>
12932741 1 18412536617860377639
12932764 1 18341886390163684123
14390081 3 18343025497295343973
19973954 147 18413103948775646253
20653085 51 18335699511617858713
21040471 1 18343580707374806562
29004967 10 18337101281146928842
5460574 1 10015595981879447451

> <PUBCHEM_SHAPE_MULTIPOLES>
138.26
4.29
1.29
0.75
1.01
0.18
0.03
1.35
0.33
-0.03
0.04
0.12
0
0.56

> <PUBCHEM_SHAPE_SELFOVERLAP>
236.06

> <PUBCHEM_SHAPE_VOLUME>
94.7

> <PUBCHEM_COORDINATE_TYPE>
2
5
10

$$$$

