3782
  -OEChem-06251223403D

 36 38  0     1  0  0  0  0  0999 V2000
   -2.5609    1.5418   -0.6398 S   0  0  0  0  0  0  0  0  0  0  0  0
   -2.1573    1.4636   -2.0311 O   0  0  0  0  0  0  0  0  0  0  0  0
   -3.5353    2.5226   -0.2016 O   0  0  0  0  0  0  0  0  0  0  0  0
   -0.0273   -1.7954   -0.2261 O   0  0  0  0  0  0  0  0  0  0  0  0
    1.4232    2.1457    0.3461 O   0  0  0  0  0  0  0  0  0  0  0  0
    5.4244    0.5655    0.0642 O   0  0  0  0  0  0  0  0  0  0  0  0
   -1.1646    1.6396    0.3715 N   0  0  2  0  0  0  0  0  0  0  0  0
    2.0106   -0.1543    0.0452 N   0  0  0  0  0  0  0  0  0  0  0  0
    4.1098    1.0037    0.1684 N   0  0  0  0  0  0  0  0  0  0  0  0
   -3.1651   -0.0523   -0.2163 C   0  0  0  0  0  0  0  0  0  0  0  0
   -2.2485   -1.0764    0.0247 C   0  0  0  0  0  0  0  0  0  0  0  0
   -0.2788    0.5327    0.1579 C   0  0  0  0  0  0  0  0  0  0  0  0
   -0.7857   -0.8498   -0.0407 C   0  0  0  0  0  0  0  0  0  0  0  0
   -4.5390   -0.2722   -0.1379 C   0  0  0  0  0  0  0  0  0  0  0  0
   -1.4110    1.9783    1.8054 C   0  0  0  0  0  0  0  0  0  0  0  0
   -2.7266   -2.3551    0.3285 C   0  0  0  0  0  0  0  0  0  0  0  0
    1.0262    0.8222    0.1929 C   0  0  0  0  0  0  0  0  0  0  0  0
   -5.0049   -1.5474    0.1755 C   0  0  0  0  0  0  0  0  0  0  0  0
   -4.1022   -2.5865    0.4055 C   0  0  0  0  0  0  0  0  0  0  0  0
    3.3780   -0.0954    0.0167 C   0  0  0  0  0  0  0  0  0  0  0  0
    4.1485   -1.2461   -0.1837 C   0  0  0  0  0  0  0  0  0  0  0  0
    5.4345   -0.7758   -0.1454 C   0  0  0  0  0  0  0  0  0  0  0  0
    6.7522   -1.4089   -0.2800 C   0  0  0  0  0  0  0  0  0  0  0  0
   -5.2537    0.5226   -0.3275 H   0  0  0  0  0  0  0  0  0  0  0  0
   -1.8951    2.9570    1.8743 H   0  0  0  0  0  0  0  0  0  0  0  0
   -0.4701    2.0427    2.3609 H   0  0  0  0  0  0  0  0  0  0  0  0
   -2.0424    1.2232    2.2829 H   0  0  0  0  0  0  0  0  0  0  0  0
   -2.0461   -3.1807    0.5198 H   0  0  0  0  0  0  0  0  0  0  0  0
   -6.0731   -1.7349    0.2366 H   0  0  0  0  0  0  0  0  0  0  0  0
   -4.4707   -3.5795    0.6471 H   0  0  0  0  0  0  0  0  0  0  0  0
    1.6144   -1.0836   -0.0705 H   0  0  0  0  0  0  0  0  0  0  0  0
    0.6328    2.7114    0.3329 H   0  0  0  0  0  0  0  0  0  0  0  0
    3.8304   -2.2676   -0.3345 H   0  0  0  0  0  0  0  0  0  0  0  0
    7.3468   -1.2562    0.6259 H   0  0  0  0  0  0  0  0  0  0  0  0
    6.6578   -2.4866   -0.4456 H   0  0  0  0  0  0  0  0  0  0  0  0
    7.2993   -0.9827   -1.1266 H   0  0  0  0  0  0  0  0  0  0  0  0
  1  2  2  0  0  0  0
  1  3  2  0  0  0  0
  1  7  1  0  0  0  0
  1 10  1  0  0  0  0
  4 13  2  0  0  0  0
  5 17  1  0  0  0  0
  5 32  1  0  0  0  0
  6  9  1  0  0  0  0
  6 22  1  0  0  0  0
  7 12  1  0  0  0  0
  7 15  1  0  0  0  0
  8 17  1  0  0  0  0
  8 20  1  0  0  0  0
  8 31  1  0  0  0  0
  9 20  2  0  0  0  0
 10 11  1  0  0  0  0
 10 14  2  0  0  0  0
 11 13  1  0  0  0  0
 11 16  2  0  0  0  0
 12 13  1  0  0  0  0
 12 17  2  0  0  0  0
 14 18  1  0  0  0  0
 14 24  1  0  0  0  0
 15 25  1  0  0  0  0
 15 26  1  0  0  0  0
 15 27  1  0  0  0  0
 16 19  1  0  0  0  0
 16 28  1  0  0  0  0
 18 19  2  0  0  0  0
 18 29  1  0  0  0  0
 19 30  1  0  0  0  0
 20 21  1  0  0  0  0
 21 22  2  0  0  0  0
 21 33  1  0  0  0  0
 22 23  1  0  0  0  0
 23 34  1  0  0  0  0
 23 35  1  0  0  0  0
 23 36  1  0  0  0  0
M  END
> <PUBCHEM_COMPOUND_CID>
3782

> <PUBCHEM_CONFORMER_RMSD>
0.6

> <PUBCHEM_CONFORMER_DIVERSEORDER>
1
13
14
6
4
7
8
9
15
11
12
5
3
16
10
2

> <PUBCHEM_MMFF94_PARTIAL_CHARGES>
30
1 1.45
10 -0.01
11 0.09
12 0.21
13 0.47
14 -0.15
15 0.36
16 -0.15
17 0.18
18 -0.15
19 -0.15
2 -0.65
20 0.37
21 -0.15
22 -0.04
23 0.18
24 0.15
28 0.15
29 0.15
3 -0.65
30 0.15
31 0.4
32 0.45
33 0.15
4 -0.57
5 -0.53
6 -0.02
7 -0.68
8 -0.58
9 -0.41

> <PUBCHEM_EFFECTIVE_ROTOR_COUNT>
2.2

> <PUBCHEM_PHARMACOPHORE_FEATURES>
9
1 2 acceptor
1 3 acceptor
1 4 acceptor
1 5 donor
1 8 donor
3 8 9 20 cation
5 6 9 20 21 22 rings
6 1 7 10 11 12 13 rings
6 10 11 14 16 18 19 rings

> <PUBCHEM_HEAVY_ATOM_COUNT>
23

> <PUBCHEM_ATOM_DEF_STEREO_COUNT>
0

> <PUBCHEM_ATOM_UDEF_STEREO_COUNT>
0

> <PUBCHEM_BOND_DEF_STEREO_COUNT>
0

> <PUBCHEM_BOND_UDEF_STEREO_COUNT>
1

> <PUBCHEM_ISOTOPIC_ATOM_COUNT>
0

> <PUBCHEM_COMPONENT_COUNT>
1

> <PUBCHEM_CACTVS_TAUTO_COUNT>
8

> <PUBCHEM_CONFORMER_ID>
00000EC600000001

> <PUBCHEM_MMFF94_ENERGY>
57.3944

> <PUBCHEM_FEATURE_SELFOVERLAP>
45.737

> <PUBCHEM_SHAPE_FINGERPRINT>
10165383 225 18198062689330262005
10411042 1 18196088842604117715
11315181 36 18408882962924017424
11524674 6 17022900138166087191
11578080 2 16771846578385655607
12011746 2 18340217323692782719
12107183 9 17695638733129085138
12166972 35 18201995522062895188
12236239 1 18060418041188816054
12293681 160 17608103275332058769
12403259 226 18336551491158256481
12760667 363 18334575724592494927
12916754 54 18341609291880142748
13288520 33 18409728460883868719
13402501 40 18408601444201730726
13862211 1 18261394412290806775
14251740 79 18343018891472275371
15196674 1 18410011035757212024
16945 1 18412260611120748821
17804303 29 18410855421884945287
17844677 252 18411130330052040580
1813 80 17345484690781608765
19489759 90 18060701701792333342
200 152 18186240614872511064
21033648 29 17604165777967951594
21236236 1 18408884061923916121
21267235 1 18410285904984875458
21279426 13 18265613367149912455
22182313 1 18193862382248094481
2297311 6 18411411800158914007
23175994 123 17821727217439978417
23198884 109 16056879148150937926
23402539 116 18186806893415069957
23557571 272 18335133211294404710
23559900 14 18337961081965424720
3004659 81 18272932718205309238
335352 9 18410856560531288013
350125 39 18411415077303460701
4214541 1 18412263960683536804
497634 4 18341889697394179428
5104073 3 18260833726538823602
531348 171 17487626457797449054
559249 180 18269840968448259906
9709674 26 18197778799900734330

> <PUBCHEM_SHAPE_MULTIPOLES>
432.89
12.55
2.63
0.95
19.45
0.09
-0.04
-6.15
-0.8
-2.65
0.3
-0.63
0.53
0.77

> <PUBCHEM_SHAPE_SELFOVERLAP>
930.376

> <PUBCHEM_SHAPE_VOLUME>
239.3

> <PUBCHEM_COORDINATE_TYPE>
2
5
10

$$$$

