13463
  -OEChem-06261214303D

 31 33  0     1  0  0  0  0  0999 V2000
    5.5883   -0.9157    0.0949 Cl  0  0  0  0  0  0  0  0  0  0  0  0
    1.8458   -0.1092    1.2252 O   0  0  0  0  0  0  0  0  0  0  0  0
    1.8300    2.6071   -0.6057 O   0  0  0  0  0  0  0  0  0  0  0  0
    2.6204   -0.7370   -1.6126 O   0  0  0  0  0  0  0  0  0  0  0  0
   -0.3200   -0.1019    0.2610 N   0  0  0  0  0  0  0  0  0  0  0  0
   -1.5858   -1.8816   -0.1869 N   0  0  0  0  0  0  0  0  0  0  0  0
   -2.0420    1.6036    0.4247 N   0  0  0  0  0  0  0  0  0  0  0  0
   -4.2614    0.6612    0.0482 N   0  0  0  0  0  0  0  0  0  0  0  0
   -4.6096   -1.6606   -0.4157 N   0  0  0  0  0  0  0  0  0  0  0  0
    1.5532    1.2165   -0.7544 C   0  0  2  0  0  0  0  0  0  0  0  0
    0.8825    0.6928    0.5187 C   0  0  2  0  0  0  0  0  0  0  0  0
    2.8503    0.4343   -0.8404 C   0  0  1  0  0  0  0  0  0  0  0  0
    3.1326    0.0990    0.6199 C   0  0  2  0  0  0  0  0  0  0  0  0
    4.0007   -1.1218    0.8627 C   0  0  0  0  0  0  0  0  0  0  0  0
   -1.6089    0.3491    0.2291 C   0  0  0  0  0  0  0  0  0  0  0  0
   -0.3577   -1.4469    0.0049 C   0  0  0  0  0  0  0  0  0  0  0  0
   -2.3779   -0.7695   -0.0495 C   0  0  0  0  0  0  0  0  0  0  0  0
   -3.7535   -0.5809   -0.1381 C   0  0  0  0  0  0  0  0  0  0  0  0
   -3.3870    1.6615    0.3140 C   0  0  0  0  0  0  0  0  0  0  0  0
    0.9190    1.1010   -1.6402 H   0  0  0  0  0  0  0  0  0  0  0  0
    0.5838    1.5070    1.1895 H   0  0  0  0  0  0  0  0  0  0  0  0
    3.6644    1.0024   -1.3021 H   0  0  0  0  0  0  0  0  0  0  0  0
    3.5715    0.9737    1.1179 H   0  0  0  0  0  0  0  0  0  0  0  0
    3.5384   -2.0377    0.4801 H   0  0  0  0  0  0  0  0  0  0  0  0
    4.1560   -1.2733    1.9360 H   0  0  0  0  0  0  0  0  0  0  0  0
    2.2913    2.8993   -1.4104 H   0  0  0  0  0  0  0  0  0  0  0  0
    3.4760   -1.1836   -1.7296 H   0  0  0  0  0  0  0  0  0  0  0  0
    0.5322   -2.0604   -0.0328 H   0  0  0  0  0  0  0  0  0  0  0  0
   -3.8283    2.6421    0.4575 H   0  0  0  0  0  0  0  0  0  0  0  0
   -4.2330   -2.5884   -0.5553 H   0  0  0  0  0  0  0  0  0  0  0  0
   -5.6057   -1.4981   -0.4752 H   0  0  0  0  0  0  0  0  0  0  0  0
  1 14  1  0  0  0  0
  2 11  1  0  0  0  0
  2 13  1  0  0  0  0
  3 10  1  0  0  0  0
  3 26  1  0  0  0  0
  4 12  1  0  0  0  0
  4 27  1  0  0  0  0
  5 11  1  0  0  0  0
  5 15  1  0  0  0  0
  5 16  1  0  0  0  0
  6 16  2  0  0  0  0
  6 17  1  0  0  0  0
  7 15  2  0  0  0  0
  7 19  1  0  0  0  0
  8 18  1  0  0  0  0
  8 19  2  0  0  0  0
  9 18  1  0  0  0  0
  9 30  1  0  0  0  0
  9 31  1  0  0  0  0
 10 11  1  0  0  0  0
 10 12  1  0  0  0  0
 10 20  1  0  0  0  0
 11 21  1  0  0  0  0
 12 13  1  0  0  0  0
 12 22  1  0  0  0  0
 13 14  1  0  0  0  0
 13 23  1  0  0  0  0
 14 24  1  0  0  0  0
 14 25  1  0  0  0  0
 15 17  1  0  0  0  0
 16 28  1  0  0  0  0
 17 18  2  0  0  0  0
 19 29  1  0  0  0  0
M  END
> <PUBCHEM_COMPOUND_CID>
13463

> <PUBCHEM_CONFORMER_RMSD>
0.6

> <PUBCHEM_CONFORMER_DIVERSEORDER>
44
25
150
5
170
101
36
69
15
65
7
122
167
144
149
58
164
126
156
125
76
86
140
105
160
102
63
96
147
153
120
12
172
81
35
131
67
19
133
155
23
151
2
20
114
168
118
17
146
42
89
135
117
108
92
10
152
55
98
21
119
61
132
109
161
38
88
22
93
111
14
157
165
56
106
30
41
84
8
59
49
45
73
64
82
134
121
80
9
83
1
28
130
33
72
123
47
62
115
16
139
136
6
163
159
68
100
48
94
39
13
51
107
70
29
112
95
97
4
31
116
34
113
124
110
91
50
171
71
52
18
24
26
148
3
32
66
43
87
158
74
99
53
75
11
138
137
166
77
37
79
127
27
169
40
78
90
162
128
60
104
85
141
142
57
46
129
103
154
143
54
145

> <PUBCHEM_MMFF94_PARTIAL_CHARGES>
25
1 -0.29
10 0.28
11 0.54
12 0.28
13 0.28
14 0.29
15 0.11
16 0.04
17 0.23
18 0.41
19 0.47
2 -0.56
26 0.4
27 0.4
28 0.15
29 0.15
3 -0.68
30 0.4
31 0.4
4 -0.68
5 0.05
6 -0.57
7 -0.57
8 -0.62
9 -0.9

> <PUBCHEM_EFFECTIVE_ROTOR_COUNT>
3

> <PUBCHEM_PHARMACOPHORE_FEATURES>
13
1 2 acceptor
1 3 acceptor
1 3 donor
1 4 acceptor
1 4 donor
1 9 cation
1 9 donor
3 5 6 16 cation
3 5 7 15 cation
3 7 8 19 cation
5 2 10 11 12 13 rings
5 5 6 15 16 17 rings
6 7 8 15 17 18 19 rings

> <PUBCHEM_HEAVY_ATOM_COUNT>
19

> <PUBCHEM_ATOM_DEF_STEREO_COUNT>
0

> <PUBCHEM_ATOM_UDEF_STEREO_COUNT>
4

> <PUBCHEM_BOND_DEF_STEREO_COUNT>
0

> <PUBCHEM_BOND_UDEF_STEREO_COUNT>
0

> <PUBCHEM_ISOTOPIC_ATOM_COUNT>
0

> <PUBCHEM_COMPONENT_COUNT>
1

> <PUBCHEM_CACTVS_TAUTO_COUNT>
3

> <PUBCHEM_CONFORMER_ID>
000034970000002C

> <PUBCHEM_MMFF94_ENERGY>
42.8114

> <PUBCHEM_FEATURE_SELFOVERLAP>
66.573

> <PUBCHEM_SHAPE_FINGERPRINT>
10062212 137 18408891741447065947
10922523 26 18113333128585150447
12236239 1 18131913779793566616
12507560 40 18041009410189991720
12916754 54 18272091548517210461
13288520 33 18335422382673161522
13675066 3 18113905952494545666
13690532 89 18412830183032902530
15042514 8 18264490594760378927
15196674 1 18410576167068917977
15375358 24 17603588543053607770
15442244 35 18413109463524151816
16752209 62 18410303501576520699
16945 1 18411129230255472275
17349148 13 18259707787149339886
17492 89 18268430131399508122
17804303 29 18334017198365250296
17862501 102 18411423912214400667
1813 80 17274260699068681702
18186145 218 17274830116735961531
19422 9 18131347496866408811
20279233 1 17167861967384988286
20612939 158 17489863813773203452
21267235 1 18412257328937878107
2255824 54 17917427580193076604
23402539 116 18334021617654690589
23463225 33 18341897415175733035
23532345 12 18410575084858413704
23557571 272 17748826319336939891
23559900 14 18113621188343039184
296302 2 16805610248264469168
312423 11 18271233924793979225
3286 77 18271811189630818317
34797466 226 17531800248372406324
4340502 62 13912601611712067239
474 4 17415554307931291420
5104073 3 18408884010099563825
559249 180 18340493377756517146
69090 78 17458633306455907487
7364860 26 18265335010831226336
74978 22 18271803471669376720
9709674 26 18334006164373220999
9981440 41 17335338234573174992

> <PUBCHEM_SHAPE_MULTIPOLES>
350.37
9.37
1.9
0.96
2.32
0.49
-0.12
-2.6
0.16
-0.71
-0.21
0.76
0
-0.74

> <PUBCHEM_SHAPE_SELFOVERLAP>
751.583

> <PUBCHEM_SHAPE_VOLUME>
196.4

> <PUBCHEM_COORDINATE_TYPE>
2
5
10

$$$$

