8979
  -OEChem-06261203173D

 58 66  0     0  0  0  0  0  0999 V2000
   -0.9720    1.9093    0.2121 N   0  0  0  0  0  0  0  0  0  0  0  0
    1.0616    3.1389   -0.0446 N   0  0  0  0  0  0  0  0  0  0  0  0
   -3.2372    1.0858    0.3849 N   0  0  0  0  0  0  0  0  0  0  0  0
    1.7453    0.8287    0.1173 N   0  0  0  0  0  0  0  0  0  0  0  0
    3.1179   -1.1129    0.4039 N   0  0  0  0  0  0  0  0  0  0  0  0
   -1.8214   -0.7742   -0.2335 N   0  0  0  0  0  0  0  0  0  0  0  0
   -1.0991   -3.0421   -0.4835 N   0  0  0  0  0  0  0  0  0  0  0  0
    0.8189   -1.7434    0.1532 N   0  0  0  0  0  0  0  0  0  0  0  0
   -0.2851    3.0388   -0.1893 C   0  0  0  0  0  0  0  0  0  0  0  0
   -1.2323    3.9156   -0.6581 C   0  0  0  0  0  0  0  0  0  0  0  0
   -2.5078    3.2810   -0.5511 C   0  0  0  0  0  0  0  0  0  0  0  0
   -2.3371    2.0264   -0.0025 C   0  0  0  0  0  0  0  0  0  0  0  0
    1.9590    2.1160    0.1871 C   0  0  0  0  0  0  0  0  0  0  0  0
    3.3526    2.3872    0.5529 C   0  0  0  0  0  0  0  0  0  0  0  0
    3.9503    1.1483    0.7090 C   0  0  0  0  0  0  0  0  0  0  0  0
    2.9223    0.1646    0.4113 C   0  0  0  0  0  0  0  0  0  0  0  0
   -3.8876   -1.2197    0.7180 C   0  0  0  0  0  0  0  0  0  0  0  0
   -1.0131    5.1976   -1.1540 C   0  0  0  0  0  0  0  0  0  0  0  0
   -2.9667   -0.1742    0.2790 C   0  0  0  0  0  0  0  0  0  0  0  0
   -3.7210    3.8566   -0.9183 C   0  0  0  0  0  0  0  0  0  0  0  0
   -3.2511   -2.4234    0.4781 C   0  0  0  0  0  0  0  0  0  0  0  0
    2.4057   -3.2666   -0.4960 C   0  0  0  0  0  0  0  0  0  0  0  0
    1.1749   -3.8427   -0.7564 C   0  0  0  0  0  0  0  0  0  0  0  0
   -1.9708   -2.0628   -0.1043 C   0  0  0  0  0  0  0  0  0  0  0  0
    2.1008   -1.9566    0.0546 C   0  0  0  0  0  0  0  0  0  0  0  0
    0.1737   -2.8603   -0.3574 C   0  0  0  0  0  0  0  0  0  0  0  0
    4.0490    3.5607    0.7507 C   0  0  0  0  0  0  0  0  0  0  0  0
    5.2753    1.0083    1.0624 C   0  0  0  0  0  0  0  0  0  0  0  0
   -2.2341    5.7966   -1.5385 C   0  0  0  0  0  0  0  0  0  0  0  0
   -3.5199    5.1602   -1.4261 C   0  0  0  0  0  0  0  0  0  0  0  0
   -5.1459   -1.1572    1.2773 C   0  0  0  0  0  0  0  0  0  0  0  0
   -3.8315   -3.6362    0.7792 C   0  0  0  0  0  0  0  0  0  0  0  0
    5.3951    3.4476    1.1125 C   0  0  0  0  0  0  0  0  0  0  0  0
    6.0023    2.1840    1.2666 C   0  0  0  0  0  0  0  0  0  0  0  0
    3.5922   -3.9153   -0.7594 C   0  0  0  0  0  0  0  0  0  0  0  0
    1.0575   -5.1050   -1.2968 C   0  0  0  0  0  0  0  0  0  0  0  0
   -5.7594   -2.3733    1.5929 C   0  0  0  0  0  0  0  0  0  0  0  0
   -5.1085   -3.6006    1.3463 C   0  0  0  0  0  0  0  0  0  0  0  0
    3.5008   -5.1984   -1.3068 C   0  0  0  0  0  0  0  0  0  0  0  0
    2.2462   -5.7873   -1.5727 C   0  0  0  0  0  0  0  0  0  0  0  0
   -0.5368    1.1013    0.6334 H   0  0  0  0  0  0  0  0  0  0  0  0
    1.4625    4.0688   -0.1489 H   0  0  0  0  0  0  0  0  0  0  0  0
   -0.0572    5.6930   -1.2445 H   0  0  0  0  0  0  0  0  0  0  0  0
   -4.6954    3.3963   -0.8382 H   0  0  0  0  0  0  0  0  0  0  0  0
    3.5873    4.5340    0.6364 H   0  0  0  0  0  0  0  0  0  0  0  0
    5.7410    0.0369    1.1779 H   0  0  0  0  0  0  0  0  0  0  0  0
   -2.2046    6.8072   -1.9458 H   0  0  0  0  0  0  0  0  0  0  0  0
   -4.3933    5.7243   -1.7536 H   0  0  0  0  0  0  0  0  0  0  0  0
   -5.6452   -0.2149    1.4683 H   0  0  0  0  0  0  0  0  0  0  0  0
   -3.3311   -4.5782    0.5901 H   0  0  0  0  0  0  0  0  0  0  0  0
    5.9843    4.3458    1.2786 H   0  0  0  0  0  0  0  0  0  0  0  0
    4.5551   -3.4625   -0.5562 H   0  0  0  0  0  0  0  0  0  0  0  0
    7.0507    2.1266    1.5476 H   0  0  0  0  0  0  0  0  0  0  0  0
    0.0944   -5.5564   -1.5027 H   0  0  0  0  0  0  0  0  0  0  0  0
   -6.7522   -2.3759    2.0356 H   0  0  0  0  0  0  0  0  0  0  0  0
   -5.6096   -4.5306    1.6023 H   0  0  0  0  0  0  0  0  0  0  0  0
    4.4082   -5.7526   -1.5326 H   0  0  0  0  0  0  0  0  0  0  0  0
    2.2062   -6.7863   -1.9995 H   0  0  0  0  0  0  0  0  0  0  0  0
  1  9  1  0  0  0  0
  1 12  1  0  0  0  0
  1 41  1  0  0  0  0
  2  9  1  0  0  0  0
  2 13  1  0  0  0  0
  2 42  1  0  0  0  0
  3 12  1  0  0  0  0
  3 19  2  0  0  0  0
  4 13  2  0  0  0  0
  4 16  1  0  0  0  0
  5 16  2  0  0  0  0
  5 25  1  0  0  0  0
  6 19  1  0  0  0  0
  6 24  2  0  0  0  0
  7 24  1  0  0  0  0
  7 26  2  0  0  0  0
  8 25  2  0  0  0  0
  8 26  1  0  0  0  0
  9 10  2  0  0  0  0
 10 11  1  0  0  0  0
 10 18  1  0  0  0  0
 11 12  2  0  0  0  0
 11 20  1  0  0  0  0
 13 14  1  0  0  0  0
 14 15  1  0  0  0  0
 14 27  2  0  0  0  0
 15 16  1  0  0  0  0
 15 28  2  0  0  0  0
 17 19  1  0  0  0  0
 17 21  1  0  0  0  0
 17 31  2  0  0  0  0
 18 29  2  0  0  0  0
 18 43  1  0  0  0  0
 20 30  2  0  0  0  0
 20 44  1  0  0  0  0
 21 24  1  0  0  0  0
 21 32  2  0  0  0  0
 22 23  1  0  0  0  0
 22 25  1  0  0  0  0
 22 35  2  0  0  0  0
 23 26  1  0  0  0  0
 23 36  2  0  0  0  0
 27 33  1  0  0  0  0
 27 45  1  0  0  0  0
 28 34  1  0  0  0  0
 28 46  1  0  0  0  0
 29 30  1  0  0  0  0
 29 47  1  0  0  0  0
 30 48  1  0  0  0  0
 31 37  1  0  0  0  0
 31 49  1  0  0  0  0
 32 38  1  0  0  0  0
 32 50  1  0  0  0  0
 33 34  2  0  0  0  0
 33 51  1  0  0  0  0
 34 53  1  0  0  0  0
 35 39  1  0  0  0  0
 35 52  1  0  0  0  0
 36 40  1  0  0  0  0
 36 54  1  0  0  0  0
 37 38  2  0  0  0  0
 37 55  1  0  0  0  0
 38 56  1  0  0  0  0
 39 40  2  0  0  0  0
 39 57  1  0  0  0  0
 40 58  1  0  0  0  0
M  END
> <PUBCHEM_COMPOUND_CID>
8979

> <PUBCHEM_CONFORMER_RMSD>
0.8

> <PUBCHEM_CONFORMER_DIVERSEORDER>
1
2

> <PUBCHEM_MMFF94_PARTIAL_CHARGES>
56
1 0.03
12 -0.03
13 0.41
14 0.09
15 0.09
16 0.57
17 0.09
18 -0.15
19 0.57
2 -0.53
20 -0.15
21 0.09
22 0.09
23 0.09
24 0.57
25 0.57
26 0.57
27 -0.15
28 -0.15
29 -0.15
3 -0.58
30 -0.15
31 -0.15
32 -0.15
33 -0.15
34 -0.15
35 -0.15
36 -0.15
37 -0.15
38 -0.15
39 -0.15
4 -0.66
40 -0.15
41 0.27
42 0.4
43 0.15
44 0.15
45 0.15
46 0.15
47 0.15
48 0.15
49 0.15
5 -0.66
50 0.15
51 0.15
52 0.15
53 0.15
54 0.15
55 0.15
56 0.15
57 0.15
58 0.15
6 -0.66
7 -0.66
8 -0.66
9 -0.07

> <PUBCHEM_EFFECTIVE_ROTOR_COUNT>
0

> <PUBCHEM_PHARMACOPHORE_FEATURES>
17
1 1 cation
1 1 donor
1 2 donor
3 2 4 13 cation
3 3 6 19 cation
3 4 5 16 cation
3 5 8 25 cation
3 6 7 24 cation
3 7 8 26 cation
5 1 9 10 11 12 rings
5 4 13 14 15 16 rings
5 6 17 19 21 24 rings
5 8 22 23 25 26 rings
6 10 11 18 20 29 30 rings
6 14 15 27 28 33 34 rings
6 17 21 31 32 37 38 rings
6 22 23 35 36 39 40 rings

> <PUBCHEM_HEAVY_ATOM_COUNT>
40

> <PUBCHEM_ATOM_DEF_STEREO_COUNT>
0

> <PUBCHEM_ATOM_UDEF_STEREO_COUNT>
0

> <PUBCHEM_BOND_DEF_STEREO_COUNT>
0

> <PUBCHEM_BOND_UDEF_STEREO_COUNT>
0

> <PUBCHEM_ISOTOPIC_ATOM_COUNT>
0

> <PUBCHEM_COMPONENT_COUNT>
1

> <PUBCHEM_CACTVS_TAUTO_COUNT>
4

> <PUBCHEM_CONFORMER_ID>
0000231300000001

> <PUBCHEM_MMFF94_ENERGY>
151.8585

> <PUBCHEM_FEATURE_SELFOVERLAP>
88.059

> <PUBCHEM_SHAPE_FINGERPRINT>
10290309 65 18335707113868306192
11445158 3 17696755454938690695
11513181 2 18188786061695397670
12202916 173 18128544760545362267
12218070 45 17757274777917349376
12758862 11 17324928548440576754
14068700 686 18410577266654704112
14117953 113 18194119616866613061
14394314 77 17908138777050049809
14415360 78 17619629524023322668
15320467 1 18410294730736201004
15351339 4 16468398080609692283
15439362 3 17976551825292052744
15968369 26 18122923181310325724
20775438 99 18050034334653418253
21033648 29 17608091962519336178
21133410 127 18272651290110171908
21133410 221 17758713270445988042
21796203 349 17553735405755506913
22113638 7 17834115242913931617
229767 44 18047473318542689018
23559900 14 17616267204812822668
25019877 29 17388807583573219678
437795 96 18339082717001098499
4403749 210 18265921106838692648
4461854 278 17976242552790890442
50677037 204 17543085480621048384
5171179 24 18192708062795686311
5776283 40 17835515299415942436
9961470 85 18266458892103693145

> <PUBCHEM_SHAPE_MULTIPOLES>
783.33
11.08
10.84
1.34
1.51
0.17
-0.09
0.42
5.97
-0.37
-6.3
-0.28
-0.16
6.92

> <PUBCHEM_SHAPE_SELFOVERLAP>
1846.023

> <PUBCHEM_SHAPE_VOLUME>
385

> <PUBCHEM_COORDINATE_TYPE>
2
5
10

$$$$

