5241
  -OEChem-06261200363D

 32 32  0     0  0  0  0  0  0999 V2000
    0.0335    2.0425   -1.3411 I   0  0  0  0  0  0  0  0  0  0  0  0
    2.8660   -3.0823    0.4173 I   0  0  0  0  0  0  0  0  0  0  0  0
   -3.0906   -2.9213    0.3626 I   0  0  0  0  0  0  0  0  0  0  0  0
    4.8550    2.0499    1.3979 O   0  0  0  0  0  0  0  0  0  0  0  0
    4.8995    1.4089   -0.7807 O   0  0  0  0  0  0  0  0  0  0  0  0
   -2.4496    0.0995   -0.6743 N   0  0  0  0  0  0  0  0  0  0  0  0
   -4.0923    1.5148    0.3789 N   0  0  0  0  0  0  0  0  0  0  0  0
    2.4909    0.0129   -0.6441 C   0  0  0  0  0  0  0  0  0  0  0  0
    1.1668   -0.6538   -0.4159 C   0  0  0  0  0  0  0  0  0  0  0  0
    3.0273    0.7391    0.5910 C   0  0  0  0  0  0  0  0  0  0  0  0
   -0.0212    0.0377   -0.6528 C   0  0  0  0  0  0  0  0  0  0  0  0
    1.1279   -1.9726    0.0367 C   0  0  0  0  0  0  0  0  0  0  0  0
   -1.2482   -0.5898   -0.4371 C   0  0  0  0  0  0  0  0  0  0  0  0
   -0.0990   -2.6000    0.2525 C   0  0  0  0  0  0  0  0  0  0  0  0
   -1.2871   -1.9086    0.0155 C   0  0  0  0  0  0  0  0  0  0  0  0
    4.3405    1.4280    0.3085 C   0  0  0  0  0  0  0  0  0  0  0  0
   -2.9361    0.7567    0.3315 C   0  0  0  0  0  0  0  0  0  0  0  0
   -4.9451    1.6578   -0.7925 C   0  0  0  0  0  0  0  0  0  0  0  0
   -4.6380    1.9804    1.6460 C   0  0  0  0  0  0  0  0  0  0  0  0
    3.2394   -0.6993   -1.0082 H   0  0  0  0  0  0  0  0  0  0  0  0
    2.4566    0.6945   -1.5003 H   0  0  0  0  0  0  0  0  0  0  0  0
    2.3190    1.5005    0.9338 H   0  0  0  0  0  0  0  0  0  0  0  0
    3.1885    0.0342    1.4134 H   0  0  0  0  0  0  0  0  0  0  0  0
   -0.1297   -3.6288    0.6057 H   0  0  0  0  0  0  0  0  0  0  0  0
   -2.4248    0.7427    1.3128 H   0  0  0  0  0  0  0  0  0  0  0  0
   -5.5654    0.7644   -0.9164 H   0  0  0  0  0  0  0  0  0  0  0  0
   -4.3453    1.7955   -1.6984 H   0  0  0  0  0  0  0  0  0  0  0  0
   -5.6050    2.5272   -0.7052 H   0  0  0  0  0  0  0  0  0  0  0  0
   -5.2347    2.8887    1.5127 H   0  0  0  0  0  0  0  0  0  0  0  0
   -3.8388    2.2186    2.3559 H   0  0  0  0  0  0  0  0  0  0  0  0
   -5.2747    1.2066    2.0865 H   0  0  0  0  0  0  0  0  0  0  0  0
    5.7138    2.4816    1.2018 H   0  0  0  0  0  0  0  0  0  0  0  0
  1 11  1  0  0  0  0
  2 12  1  0  0  0  0
  3 15  1  0  0  0  0
  4 16  1  0  0  0  0
  4 32  1  0  0  0  0
  5 16  2  0  0  0  0
  6 13  1  0  0  0  0
  6 17  2  0  0  0  0
  7 17  1  0  0  0  0
  7 18  1  0  0  0  0
  7 19  1  0  0  0  0
  8  9  1  0  0  0  0
  8 10  1  0  0  0  0
  8 20  1  0  0  0  0
  8 21  1  0  0  0  0
  9 11  2  0  0  0  0
  9 12  1  0  0  0  0
 10 16  1  0  0  0  0
 10 22  1  0  0  0  0
 10 23  1  0  0  0  0
 11 13  1  0  0  0  0
 12 14  2  0  0  0  0
 13 15  2  0  0  0  0
 14 15  1  0  0  0  0
 14 24  1  0  0  0  0
 17 25  1  0  0  0  0
 18 26  1  0  0  0  0
 18 27  1  0  0  0  0
 18 28  1  0  0  0  0
 19 29  1  0  0  0  0
 19 30  1  0  0  0  0
 19 31  1  0  0  0  0
M  END
> <PUBCHEM_COMPOUND_CID>
5241

> <PUBCHEM_CONFORMER_RMSD>
0.6

> <PUBCHEM_CONFORMER_DIVERSEORDER>
3
12
14
9
6
8
11
16
10
7
5
2
13
4
15
1

> <PUBCHEM_MMFF94_PARTIAL_CHARGES>
22
1 -0.08
10 0.06
11 0.08
12 0.08
13 0.18
14 -0.15
15 0.08
16 0.66
17 0.44
18 0.37
19 0.37
2 -0.08
24 0.15
25 0.06
3 -0.08
32 0.5
4 -0.65
5 -0.57
6 -0.63
7 -0.79
8 0.14
9 -0.14

> <PUBCHEM_EFFECTIVE_ROTOR_COUNT>
5

> <PUBCHEM_PHARMACOPHORE_FEATURES>
8
1 1 hydrophobe
1 2 hydrophobe
1 3 hydrophobe
1 4 acceptor
1 5 acceptor
3 4 5 16 anion
3 6 7 17 cation
6 9 11 12 13 14 15 rings

> <PUBCHEM_HEAVY_ATOM_COUNT>
19

> <PUBCHEM_ATOM_DEF_STEREO_COUNT>
0

> <PUBCHEM_ATOM_UDEF_STEREO_COUNT>
0

> <PUBCHEM_BOND_DEF_STEREO_COUNT>
0

> <PUBCHEM_BOND_UDEF_STEREO_COUNT>
0

> <PUBCHEM_ISOTOPIC_ATOM_COUNT>
0

> <PUBCHEM_COMPONENT_COUNT>
1

> <PUBCHEM_CACTVS_TAUTO_COUNT>
1

> <PUBCHEM_CONFORMER_ID>
0000147900000003

> <PUBCHEM_MMFF94_ENERGY>
54.7264

> <PUBCHEM_FEATURE_SELFOVERLAP>
40.652

> <PUBCHEM_SHAPE_FINGERPRINT>
10382601 240 18272650203113075858
10493431 412 18411696578208126789
1100329 8 18268713994462477106
12390115 104 18337094671318938556
12633257 1 18198923550746301426
12788726 201 17764009286305063934
12930653 34 18338796710802716106
13140716 1 18270964647303583891
14142880 1 18267034872523004503
14178342 30 18342736265238600535
14739800 52 17677634058414888680
15209294 21 18409729543136499465
15238133 3 17314235646838819506
15475509 35 16629393847189523546
18785283 64 18271242841489262938
19784866 140 7348888871663999045
19784866 170 18273209807376852172
204376 136 18412824702960561933
20510252 161 18191584151400491306
20691752 17 17418375800828694150
20739085 24 17983556779085133429
21452121 103 18269283524283975456
21501502 16 18411426115322269990
22182313 1 18337655447840112703
22182937 141 18334852775747382449
2334 1 18343301444296347103
23402539 116 18050579447239010966
23557571 272 18191570983304828278
23558518 356 18272644611198382627
23559900 14 18187926252715176262
25147074 1 18338533996206341742
2748010 2 18342734130613935710
283562 15 18122914122554904899
2838139 119 17458065975588800352
350125 39 18125433121258526717
352729 6 17624405390396882190
474 4 18335989773712509283
5104073 3 18413389847394735634
633830 44 17897157147269487173
7064713 232 18340487772829581076
90316 7 17702124511840472948

> <PUBCHEM_SHAPE_MULTIPOLES>
405.12
9.49
3.99
1.19
0.45
2.45
0.22
-6.95
3.08
-0.25
0.39
0.28
-0.8
-0.03

> <PUBCHEM_SHAPE_SELFOVERLAP>
764.61

> <PUBCHEM_SHAPE_VOLUME>
260.3

> <PUBCHEM_COORDINATE_TYPE>
2
5
10

$$$$

