5015
  -OEChem-06261200283D

 46 46  0     0  0  0  0  0  0999 V2000
   -0.1967   -1.3140   -1.1421 O   0  0  0  0  0  0  0  0  0  0  0  0
    0.7243   -0.1607    0.6796 N   0  0  0  0  0  0  0  0  0  0  0  0
   -2.7636    0.0262    0.0461 C   0  0  0  0  0  0  0  0  0  0  0  0
   -2.3685    1.5316   -0.1042 C   0  0  0  0  0  0  0  0  0  0  0  0
   -4.0139   -0.1318    0.9707 C   0  0  0  0  0  0  0  0  0  0  0  0
   -3.0620   -0.5008   -1.3950 C   0  0  0  0  0  0  0  0  0  0  0  0
   -1.6147   -0.7913    0.7163 C   0  0  0  0  0  0  0  0  0  0  0  0
   -2.0528    2.2790    1.1866 C   0  0  0  0  0  0  0  0  0  0  0  0
   -5.2788    0.5882    0.5173 C   0  0  0  0  0  0  0  0  0  0  0  0
   -3.4986   -1.9574   -1.5095 C   0  0  0  0  0  0  0  0  0  0  0  0
   -0.2852   -0.7931   -0.0333 C   0  0  0  0  0  0  0  0  0  0  0  0
    2.0728    0.0208    0.2902 C   0  0  0  0  0  0  0  0  0  0  0  0
    3.0136   -0.9426    0.6221 C   0  0  0  0  0  0  0  0  0  0  0  0
    2.4307    1.1598   -0.4158 C   0  0  0  0  0  0  0  0  0  0  0  0
    4.3429   -0.7632    0.2393 C   0  0  0  0  0  0  0  0  0  0  0  0
    3.7600    1.3391   -0.7987 C   0  0  0  0  0  0  0  0  0  0  0  0
    2.6450   -2.1750    1.3831 C   0  0  0  0  0  0  0  0  0  0  0  0
    1.4296    2.2075   -0.7816 C   0  0  0  0  0  0  0  0  0  0  0  0
    4.7160    0.3777   -0.4712 C   0  0  0  0  0  0  0  0  0  0  0  0
   -3.1677    2.0747   -0.6238 H   0  0  0  0  0  0  0  0  0  0  0  0
   -1.4960    1.6092   -0.7625 H   0  0  0  0  0  0  0  0  0  0  0  0
   -3.7704    0.2166    1.9821 H   0  0  0  0  0  0  0  0  0  0  0  0
   -4.2528   -1.1962    1.0880 H   0  0  0  0  0  0  0  0  0  0  0  0
   -2.1945   -0.3437   -2.0455 H   0  0  0  0  0  0  0  0  0  0  0  0
   -3.8513    0.1144   -1.8460 H   0  0  0  0  0  0  0  0  0  0  0  0
   -1.9078   -1.8437    0.8231 H   0  0  0  0  0  0  0  0  0  0  0  0
   -1.4620   -0.4417    1.7444 H   0  0  0  0  0  0  0  0  0  0  0  0
   -1.2245    1.8238    1.7343 H   0  0  0  0  0  0  0  0  0  0  0  0
   -2.9222    2.3294    1.8475 H   0  0  0  0  0  0  0  0  0  0  0  0
   -1.7624    3.3090    0.9528 H   0  0  0  0  0  0  0  0  0  0  0  0
   -5.6300    0.2234   -0.4515 H   0  0  0  0  0  0  0  0  0  0  0  0
   -6.0815    0.4114    1.2414 H   0  0  0  0  0  0  0  0  0  0  0  0
   -5.1315    1.6694    0.4533 H   0  0  0  0  0  0  0  0  0  0  0  0
   -2.7334   -2.6433   -1.1373 H   0  0  0  0  0  0  0  0  0  0  0  0
   -4.4305   -2.1457   -0.9699 H   0  0  0  0  0  0  0  0  0  0  0  0
   -3.6762   -2.2061   -2.5614 H   0  0  0  0  0  0  0  0  0  0  0  0
    0.5219    0.1569    1.6244 H   0  0  0  0  0  0  0  0  0  0  0  0
    5.1006   -1.5023    0.4854 H   0  0  0  0  0  0  0  0  0  0  0  0
    4.0678    2.2213   -1.3539 H   0  0  0  0  0  0  0  0  0  0  0  0
    3.5243   -2.7796    1.6308 H   0  0  0  0  0  0  0  0  0  0  0  0
    2.1580   -1.9132    2.3285 H   0  0  0  0  0  0  0  0  0  0  0  0
    1.9711   -2.8021    0.7903 H   0  0  0  0  0  0  0  0  0  0  0  0
    1.9115    3.1048   -1.1852 H   0  0  0  0  0  0  0  0  0  0  0  0
    0.7476    1.8262   -1.5478 H   0  0  0  0  0  0  0  0  0  0  0  0
    0.8583    2.5236    0.0968 H   0  0  0  0  0  0  0  0  0  0  0  0
    5.7509    0.5172   -0.7698 H   0  0  0  0  0  0  0  0  0  0  0  0
  1 11  2  0  0  0  0
  2 11  1  0  0  0  0
  2 12  1  0  0  0  0
  2 37  1  0  0  0  0
  3  4  1  0  0  0  0
  3  5  1  0  0  0  0
  3  6  1  0  0  0  0
  3  7  1  0  0  0  0
  4  8  1  0  0  0  0
  4 20  1  0  0  0  0
  4 21  1  0  0  0  0
  5  9  1  0  0  0  0
  5 22  1  0  0  0  0
  5 23  1  0  0  0  0
  6 10  1  0  0  0  0
  6 24  1  0  0  0  0
  6 25  1  0  0  0  0
  7 11  1  0  0  0  0
  7 26  1  0  0  0  0
  7 27  1  0  0  0  0
  8 28  1  0  0  0  0
  8 29  1  0  0  0  0
  8 30  1  0  0  0  0
  9 31  1  0  0  0  0
  9 32  1  0  0  0  0
  9 33  1  0  0  0  0
 10 34  1  0  0  0  0
 10 35  1  0  0  0  0
 10 36  1  0  0  0  0
 12 13  2  0  0  0  0
 12 14  1  0  0  0  0
 13 15  1  0  0  0  0
 13 17  1  0  0  0  0
 14 16  2  0  0  0  0
 14 18  1  0  0  0  0
 15 19  2  0  0  0  0
 15 38  1  0  0  0  0
 16 19  1  0  0  0  0
 16 39  1  0  0  0  0
 17 40  1  0  0  0  0
 17 41  1  0  0  0  0
 17 42  1  0  0  0  0
 18 43  1  0  0  0  0
 18 44  1  0  0  0  0
 18 45  1  0  0  0  0
 19 46  1  0  0  0  0
M  END
> <PUBCHEM_COMPOUND_CID>
5015

> <PUBCHEM_CONFORMER_RMSD>
0.8

> <PUBCHEM_CONFORMER_DIVERSEORDER>
1
21
22
13
28
14
18
19
27
23
10
29
2
11
20
25
24
15
6
7
16
26
17
4
12
9
8
5
3

> <PUBCHEM_MMFF94_PARTIAL_CHARGES>
16
1 -0.57
11 0.57
12 0.12
13 -0.14
14 -0.14
15 -0.15
16 -0.15
17 0.14
18 0.14
19 -0.15
2 -0.55
37 0.37
38 0.15
39 0.15
46 0.15
7 0.06

> <PUBCHEM_EFFECTIVE_ROTOR_COUNT>
7

> <PUBCHEM_PHARMACOPHORE_FEATURES>
7
1 1 acceptor
1 10 hydrophobe
1 2 donor
1 8 hydrophobe
1 9 hydrophobe
5 3 4 5 6 7 hydrophobe
6 12 13 14 15 16 19 rings

> <PUBCHEM_HEAVY_ATOM_COUNT>
19

> <PUBCHEM_ATOM_DEF_STEREO_COUNT>
0

> <PUBCHEM_ATOM_UDEF_STEREO_COUNT>
0

> <PUBCHEM_BOND_DEF_STEREO_COUNT>
0

> <PUBCHEM_BOND_UDEF_STEREO_COUNT>
0

> <PUBCHEM_ISOTOPIC_ATOM_COUNT>
0

> <PUBCHEM_COMPONENT_COUNT>
1

> <PUBCHEM_CACTVS_TAUTO_COUNT>
2

> <PUBCHEM_CONFORMER_ID>
0000139700000001

> <PUBCHEM_MMFF94_ENERGY>
71.1295

> <PUBCHEM_FEATURE_SELFOVERLAP>
35.551

> <PUBCHEM_SHAPE_FINGERPRINT>
10062212 137 18261395512234477039
10366900 7 14261345838938291585
11471102 20 18060424599561575158
11578080 2 18047791227479844224
11615757 297 18273219685611579382
11796584 16 16588012538031537494
12107183 9 17622730142502177993
12236239 1 18408321094516306178
12403814 3 18409448111821748225
12670546 56 18334304140951405548
12788726 201 18114444739157769057
13009979 54 18120096340920098586
14341114 176 18201708583354702611
15196674 1 18272367619861177452
15442244 35 18198344163920954256
18186145 218 17775008963991059962
200 152 18411987923130252143
20233049 118 18040154037356586664
20261772 1 18334572455916420501
20645477 70 17489592307247093666
21033648 29 16916800552067480405
21267235 1 18271234015278481922
23402539 116 18260831479543121789
23402655 69 18413110580015149892
23557571 272 17022899073272088017
23559900 14 17988922249572497377
23598288 3 18335143145949438045
23598291 2 18410019865930885094
25 1 17989486299665397610
3545911 37 18059850653779693720
474 4 17917140599073742700
633830 44 18272649069036305903
8272917 22 18342452694481594306

> <PUBCHEM_SHAPE_MULTIPOLES>
380.16
9.8
2.17
1.3
0.82
0.38
0.15
-0.06
0.04
-0.2
-0.04
0.72
-0.33
-1.99

> <PUBCHEM_SHAPE_SELFOVERLAP>
761.231

> <PUBCHEM_SHAPE_VOLUME>
225.8

> <PUBCHEM_COORDINATE_TYPE>
2
5
10

$$$$

