10473088
  -OEChem-07051213112D

 55 54  0     1  0  0  0  0  0999 V2000
   10.6603    1.1900    0.0000 O   0  0  0  0  0  0  0  0  0  0  0  0
    2.0000   -3.8100    0.0000 O   0  0  0  0  0  0  0  0  0  0  0  0
    6.3301    0.6900    0.0000 O   0  0  0  0  0  0  0  0  0  0  0  0
   14.1244    4.1900    0.0000 O   0  0  0  0  0  0  0  0  0  0  0  0
   12.3923    4.1900    0.0000 O   0  0  0  0  0  0  0  0  0  0  0  0
   12.3923    1.1900    0.0000 C   0  0  0  0  0  0  0  0  0  0  0  0
   12.3923    2.1900    0.0000 C   0  0  0  0  0  0  0  0  0  0  0  0
   11.5263    0.6900    0.0000 C   0  0  1  0  0  0  0  0  0  0  0  0
   13.2583    2.6900    0.0000 C   0  0  0  0  0  0  0  0  0  0  0  0
   11.5263   -0.3100    0.0000 C   0  0  0  0  0  0  0  0  0  0  0  0
    2.8660   -3.3100    0.0000 C   0  0  2  0  0  0  0  0  0  0  0  0
    6.3301   -0.3100    0.0000 C   0  0  2  0  0  0  0  0  0  0  0  0
   13.2583    3.6900    0.0000 C   0  0  0  0  0  0  0  0  0  0  0  0
    5.4641   -0.8100    0.0000 C   0  0  0  0  0  0  0  0  0  0  0  0
    3.7320   -3.8100    0.0000 C   0  0  0  0  0  0  0  0  0  0  0  0
   10.6603   -0.8100    0.0000 C   0  0  0  0  0  0  0  0  0  0  0  0
    2.8660   -2.3100    0.0000 C   0  0  0  0  0  0  0  0  0  0  0  0
    4.5981   -0.3100    0.0000 C   0  0  0  0  0  0  0  0  0  0  0  0
    7.1962   -0.8100    0.0000 C   0  0  0  0  0  0  0  0  0  0  0  0
    3.7320   -4.8100    0.0000 C   0  0  0  0  0  0  0  0  0  0  0  0
    9.7942   -0.3100    0.0000 C   0  0  0  0  0  0  0  0  0  0  0  0
    3.7320   -1.8100    0.0000 C   0  0  0  0  0  0  0  0  0  0  0  0
    3.7320   -0.8100    0.0000 C   0  0  0  0  0  0  0  0  0  0  0  0
    8.0622   -0.3100    0.0000 C   0  0  0  0  0  0  0  0  0  0  0  0
    8.9282   -0.8100    0.0000 C   0  0  0  0  0  0  0  0  0  0  0  0
   12.6044    0.6074    0.0000 H   0  0  0  0  0  0  0  0  0  0  0  0
   13.0029    1.2977    0.0000 H   0  0  0  0  0  0  0  0  0  0  0  0
   12.1803    2.7726    0.0000 H   0  0  0  0  0  0  0  0  0  0  0  0
   11.7817    2.0823    0.0000 H   0  0  0  0  0  0  0  0  0  0  0  0
   10.9893    0.3800    0.0000 H   0  0  0  0  0  0  0  0  0  0  0  0
   13.4704    2.1074    0.0000 H   0  0  0  0  0  0  0  0  0  0  0  0
   13.8689    2.7977    0.0000 H   0  0  0  0  0  0  0  0  0  0  0  0
   12.0632   -0.6200    0.0000 H   0  0  0  0  0  0  0  0  0  0  0  0
    2.8660   -3.9300    0.0000 H   0  0  0  0  0  0  0  0  0  0  0  0
    6.8671    0.0000    0.0000 H   0  0  0  0  0  0  0  0  0  0  0  0
    5.0656   -1.2850    0.0000 H   0  0  0  0  0  0  0  0  0  0  0  0
    5.8626   -1.2850    0.0000 H   0  0  0  0  0  0  0  0  0  0  0  0
    4.3426   -3.9177    0.0000 H   0  0  0  0  0  0  0  0  0  0  0  0
    3.9441   -3.2274    0.0000 H   0  0  0  0  0  0  0  0  0  0  0  0
   10.6603    1.8100    0.0000 H   0  0  0  0  0  0  0  0  0  0  0  0
   10.6603   -1.4300    0.0000 H   0  0  0  0  0  0  0  0  0  0  0  0
    2.3291   -2.0000    0.0000 H   0  0  0  0  0  0  0  0  0  0  0  0
    4.5981    0.3100    0.0000 H   0  0  0  0  0  0  0  0  0  0  0  0
    7.1962   -1.4300    0.0000 H   0  0  0  0  0  0  0  0  0  0  0  0
    3.1120   -4.8100    0.0000 H   0  0  0  0  0  0  0  0  0  0  0  0
    3.7320   -5.4300    0.0000 H   0  0  0  0  0  0  0  0  0  0  0  0
    4.3520   -4.8100    0.0000 H   0  0  0  0  0  0  0  0  0  0  0  0
    9.7942    0.3100    0.0000 H   0  0  0  0  0  0  0  0  0  0  0  0
    4.2690   -2.1200    0.0000 H   0  0  0  0  0  0  0  0  0  0  0  0
    3.1951   -0.5000    0.0000 H   0  0  0  0  0  0  0  0  0  0  0  0
    8.0622    0.3100    0.0000 H   0  0  0  0  0  0  0  0  0  0  0  0
    8.9282   -1.4300    0.0000 H   0  0  0  0  0  0  0  0  0  0  0  0
    2.0000   -4.4300    0.0000 H   0  0  0  0  0  0  0  0  0  0  0  0
    5.7932    1.0000    0.0000 H   0  0  0  0  0  0  0  0  0  0  0  0
   14.1244    4.8100    0.0000 H   0  0  0  0  0  0  0  0  0  0  0  0
  8  1  1  1  0  0  0
  1 40  1  0  0  0  0
 11  2  1  1  0  0  0
  2 53  1  0  0  0  0
 12  3  1  1  0  0  0
  3 54  1  0  0  0  0
  4 13  1  0  0  0  0
  4 55  1  0  0  0  0
  5 13  2  0  0  0  0
  6  7  1  0  0  0  0
  6  8  1  0  0  0  0
  6 26  1  0  0  0  0
  6 27  1  0  0  0  0
  7  9  1  0  0  0  0
  7 28  1  0  0  0  0
  7 29  1  0  0  0  0
  8 10  1  0  0  0  0
  8 30  1  0  0  0  0
  9 13  1  0  0  0  0
  9 31  1  0  0  0  0
  9 32  1  0  0  0  0
 10 16  2  0  0  0  0
 10 33  1  0  0  0  0
 11 15  1  0  0  0  0
 11 17  1  0  0  0  0
 11 34  1  0  0  0  0
 12 14  1  0  0  0  0
 12 19  1  0  0  0  0
 12 35  1  0  0  0  0
 14 18  1  0  0  0  0
 14 36  1  0  0  0  0
 14 37  1  0  0  0  0
 15 20  1  0  0  0  0
 15 38  1  0  0  0  0
 15 39  1  0  0  0  0
 16 21  1  0  0  0  0
 16 41  1  0  0  0  0
 17 22  2  0  0  0  0
 17 42  1  0  0  0  0
 18 23  2  0  0  0  0
 18 43  1  0  0  0  0
 19 24  2  0  0  0  0
 19 44  1  0  0  0  0
 20 45  1  0  0  0  0
 20 46  1  0  0  0  0
 20 47  1  0  0  0  0
 21 25  2  0  0  0  0
 21 48  1  0  0  0  0
 22 23  1  0  0  0  0
 22 49  1  0  0  0  0
 23 50  1  0  0  0  0
 24 25  1  0  0  0  0
 24 51  1  0  0  0  0
 25 52  1  0  0  0  0
M  END
> <PUBCHEM_COMPOUND_CID>
10473088

> <PUBCHEM_COMPOUND_CANONICALIZED>
1

> <PUBCHEM_CACTVS_COMPLEXITY>
488

> <PUBCHEM_CACTVS_HBOND_ACCEPTOR>
5

> <PUBCHEM_CACTVS_HBOND_DONOR>
4

> <PUBCHEM_CACTVS_ROTATABLE_BOND>
13

> <PUBCHEM_CACTVS_SUBSKEYS>
AAADceB4OAAAAAAAAAAAAAAAAAAAAAAAAAAAAAAAAAAAAAAAAAAAGgAACAAACBSggAICCAAAAgCIACDSCAAAAAAgAAAICAEAAAgIFBIAAQAAUAAEwAAIkAOIbARAAAAAAAAAAAAAAAAAAAAAAAAAAAAAAA==

> <PUBCHEM_IUPAC_OPENEYE_NAME>
(5S,6Z,8E,10E,12R,14Z,16E,18R)-5,12,18-trihydroxyicosa-6,8,10,14,16-pentaenoic acid

> <PUBCHEM_IUPAC_CAS_NAME>
(5S,6Z,8E,10E,12R,14Z,16E,18R)-5,12,18-trihydroxyeicosa-6,8,10,14,16-pentaenoic acid

> <PUBCHEM_IUPAC_NAME>
(5S,6Z,8E,10E,12R,14Z,16E,18R)-5,12,18-trihydroxyicosa-6,8,10,14,16-pentaenoic acid

> <PUBCHEM_IUPAC_SYSTEMATIC_NAME>
(5S,6Z,8E,10E,12R,14Z,16E,18R)-5,12,18-tris(oxidanyl)icosa-6,8,10,14,16-pentaenoic acid

> <PUBCHEM_IUPAC_TRADITIONAL_NAME>
(5S,6Z,8E,10E,12R,14Z,16E,18R)-5,12,18-trihydroxyeicosa-6,8,10,14,16-pentaenoic acid

> <PUBCHEM_IUPAC_INCHI>
InChI=1S/C20H30O5/c1-2-17(21)11-8-5-9-14-18(22)12-6-3-4-7-13-19(23)15-10-16-20(24)25/h3-9,11-13,17-19,21-23H,2,10,14-16H2,1H3,(H,24,25)/b4-3+,9-5-,11-8+,12-6+,13-7-/t17-,18+,19-/m1/s1

> <PUBCHEM_IUPAC_INCHIKEY>
AOPOCGPBAIARAV-OTBJXLELSA-N

> <PUBCHEM_XLOGP3_AA>
2.4

> <PUBCHEM_EXACT_MASS>
350.209324

> <PUBCHEM_MOLECULAR_FORMULA>
C20H30O5

> <PUBCHEM_MOLECULAR_WEIGHT>
350.4492

> <PUBCHEM_OPENEYE_CAN_SMILES>
CCC(C=CC=CCC(C=CC=CC=CC(CCCC(=O)O)O)O)O

> <PUBCHEM_OPENEYE_ISO_SMILES>
CC[C@H](/C=C/C=C\C[C@H](/C=C/C=C/C=C\[C@H](CCCC(=O)O)O)O)O

> <PUBCHEM_CACTVS_TPSA>
98

> <PUBCHEM_MONOISOTOPIC_WEIGHT>
350.209324

> <PUBCHEM_TOTAL_CHARGE>
0

> <PUBCHEM_HEAVY_ATOM_COUNT>
25

> <PUBCHEM_ATOM_DEF_STEREO_COUNT>
3

> <PUBCHEM_ATOM_UDEF_STEREO_COUNT>
0

> <PUBCHEM_BOND_DEF_STEREO_COUNT>
5

> <PUBCHEM_BOND_UDEF_STEREO_COUNT>
0

> <PUBCHEM_ISOTOPIC_ATOM_COUNT>
0

> <PUBCHEM_COMPONENT_COUNT>
1

> <PUBCHEM_CACTVS_TAUTO_COUNT>
1

> <PUBCHEM_COORDINATE_TYPE>
1
5
255

> <PUBCHEM_BONDANNOTATIONS>
8  1  5
11  2  5
12  3  5

$$$$

