47205251
  -OEChem-06241222582D

 35 36  0     1  0  0  0  0  0999 V2000
    2.8660   -4.3512    0.0000 Cl  0  0  0  0  0  0  0  0  0  0  0  0
    5.4641    1.1488    0.0000 O   0  0  0  0  0  0  0  0  0  0  0  0
    5.4641    3.1488    0.0000 N   0  0  0  0  0  0  0  0  0  0  0  0
    3.7320    1.1488    0.0000 N   0  0  0  0  0  0  0  0  0  0  0  0
    6.5468    4.3512    0.0000 N   0  0  0  0  0  0  0  0  0  0  0  0
    4.5981    2.6488    0.0000 C   0  0  3  0  0  0  0  0  0  0  0  0
    3.7320    0.1488    0.0000 C   0  0  0  0  0  0  0  0  0  0  0  0
    2.8660   -0.3512    0.0000 C   0  0  0  0  0  0  0  0  0  0  0  0
    4.5981    1.6488    0.0000 C   0  0  0  0  0  0  0  0  0  0  0  0
    3.7320    3.1488    0.0000 C   0  0  0  0  0  0  0  0  0  0  0  0
    2.8660   -1.3512    0.0000 C   0  0  0  0  0  0  0  0  0  0  0  0
    6.3776    2.7420    0.0000 C   0  0  0  0  0  0  0  0  0  0  0  0
    5.5686    4.1433    0.0000 C   0  0  0  0  0  0  0  0  0  0  0  0
    2.0000   -1.8512    0.0000 C   0  0  0  0  0  0  0  0  0  0  0  0
    3.7320   -1.8512    0.0000 C   0  0  0  0  0  0  0  0  0  0  0  0
    7.0468    3.4852    0.0000 C   0  0  0  0  0  0  0  0  0  0  0  0
    2.0000   -2.8512    0.0000 C   0  0  0  0  0  0  0  0  0  0  0  0
    3.7320   -2.8512    0.0000 C   0  0  0  0  0  0  0  0  0  0  0  0
    2.8660   -3.3512    0.0000 C   0  0  0  0  0  0  0  0  0  0  0  0
    4.5981    3.2688    0.0000 H   0  0  0  0  0  0  0  0  0  0  0  0
    3.9441   -0.4338    0.0000 H   0  0  0  0  0  0  0  0  0  0  0  0
    4.3426    0.2564    0.0000 H   0  0  0  0  0  0  0  0  0  0  0  0
    2.6540    0.2314    0.0000 H   0  0  0  0  0  0  0  0  0  0  0  0
    2.2554   -0.4589    0.0000 H   0  0  0  0  0  0  0  0  0  0  0  0
    3.1951    1.4588    0.0000 H   0  0  0  0  0  0  0  0  0  0  0  0
    4.0420    3.6857    0.0000 H   0  0  0  0  0  0  0  0  0  0  0  0
    3.1951    3.4588    0.0000 H   0  0  0  0  0  0  0  0  0  0  0  0
    3.4220    2.6118    0.0000 H   0  0  0  0  0  0  0  0  0  0  0  0
    6.5066    2.1356    0.0000 H   0  0  0  0  0  0  0  0  0  0  0  0
    5.1079    4.5582    0.0000 H   0  0  0  0  0  0  0  0  0  0  0  0
    1.4631   -1.5412    0.0000 H   0  0  0  0  0  0  0  0  0  0  0  0
    4.2690   -1.5412    0.0000 H   0  0  0  0  0  0  0  0  0  0  0  0
    7.6634    3.4204    0.0000 H   0  0  0  0  0  0  0  0  0  0  0  0
    1.4631   -3.1612    0.0000 H   0  0  0  0  0  0  0  0  0  0  0  0
    4.2690   -3.1612    0.0000 H   0  0  0  0  0  0  0  0  0  0  0  0
  1 19  1  0  0  0  0
  2  9  2  0  0  0  0
  3  6  1  0  0  0  0
  3 12  1  0  0  0  0
  3 13  1  0  0  0  0
  4  7  1  0  0  0  0
  4  9  1  0  0  0  0
  4 25  1  0  0  0  0
  5 13  2  0  0  0  0
  5 16  1  0  0  0  0
  6  9  1  0  0  0  0
  6 10  1  0  0  0  0
  6 20  1  0  0  0  0
  7  8  1  0  0  0  0
  7 21  1  0  0  0  0
  7 22  1  0  0  0  0
  8 11  1  0  0  0  0
  8 23  1  0  0  0  0
  8 24  1  0  0  0  0
 10 26  1  0  0  0  0
 10 27  1  0  0  0  0
 10 28  1  0  0  0  0
 11 14  2  0  0  0  0
 11 15  1  0  0  0  0
 12 16  2  0  0  0  0
 12 29  1  0  0  0  0
 13 30  1  0  0  0  0
 14 17  1  0  0  0  0
 14 31  1  0  0  0  0
 15 18  2  0  0  0  0
 15 32  1  0  0  0  0
 16 33  1  0  0  0  0
 17 19  2  0  0  0  0
 17 34  1  0  0  0  0
 18 19  1  0  0  0  0
 18 35  1  0  0  0  0
M  END
> <PUBCHEM_COMPOUND_CID>
47205251

> <PUBCHEM_COMPOUND_CANONICALIZED>
1

> <PUBCHEM_CACTVS_COMPLEXITY>
292

> <PUBCHEM_CACTVS_HBOND_ACCEPTOR>
2

> <PUBCHEM_CACTVS_HBOND_DONOR>
1

> <PUBCHEM_CACTVS_ROTATABLE_BOND>
5

> <PUBCHEM_CACTVS_SUBSKEYS>
AAADceBzIAAEAAAAAAAAAAAAAAAAAWAAAAAwAAAAAAAAAAABwAAAHgIQAAAADCrBmiQ/kJfMEACoAjF3dAACgC0xF6AJyIGYMoiIaCKBmzGUIAAolgKIiCcQgIAOBAAAAAAAAAAIAAAAAAAAAAAAAAAAAA==

> <PUBCHEM_IUPAC_OPENEYE_NAME>
N-[2-(4-chlorophenyl)ethyl]-2-imidazol-1-yl-propanamide

> <PUBCHEM_IUPAC_CAS_NAME>
N-[2-(4-chlorophenyl)ethyl]-2-(1-imidazolyl)propanamide

> <PUBCHEM_IUPAC_NAME>
N-[2-(4-chlorophenyl)ethyl]-2-imidazol-1-ylpropanamide

> <PUBCHEM_IUPAC_SYSTEMATIC_NAME>
N-[2-(4-chlorophenyl)ethyl]-2-imidazol-1-yl-propanamide

> <PUBCHEM_IUPAC_TRADITIONAL_NAME>
N-[2-(4-chlorophenyl)ethyl]-2-imidazol-1-yl-propionamide

> <PUBCHEM_IUPAC_INCHI>
InChI=1S/C14H16ClN3O/c1-11(18-9-8-16-10-18)14(19)17-7-6-12-2-4-13(15)5-3-12/h2-5,8-11H,6-7H2,1H3,(H,17,19)

> <PUBCHEM_IUPAC_INCHIKEY>
KPPYZLAJVLQCGC-UHFFFAOYSA-N

> <PUBCHEM_XLOGP3_AA>
2.4

> <PUBCHEM_EXACT_MASS>
277.09819

> <PUBCHEM_MOLECULAR_FORMULA>
C14H16ClN3O

> <PUBCHEM_MOLECULAR_WEIGHT>
277.74934

> <PUBCHEM_OPENEYE_CAN_SMILES>
CC(C(=O)NCCC1=CC=C(C=C1)Cl)N2C=CN=C2

> <PUBCHEM_OPENEYE_ISO_SMILES>
CC(C(=O)NCCC1=CC=C(C=C1)Cl)N2C=CN=C2

> <PUBCHEM_CACTVS_TPSA>
46.9

> <PUBCHEM_MONOISOTOPIC_WEIGHT>
277.09819

> <PUBCHEM_TOTAL_CHARGE>
0

> <PUBCHEM_HEAVY_ATOM_COUNT>
19

> <PUBCHEM_ATOM_DEF_STEREO_COUNT>
0

> <PUBCHEM_ATOM_UDEF_STEREO_COUNT>
1

> <PUBCHEM_BOND_DEF_STEREO_COUNT>
0

> <PUBCHEM_BOND_UDEF_STEREO_COUNT>
0

> <PUBCHEM_ISOTOPIC_ATOM_COUNT>
0

> <PUBCHEM_COMPONENT_COUNT>
1

> <PUBCHEM_CACTVS_TAUTO_COUNT>
2

> <PUBCHEM_COORDINATE_TYPE>
1
5
255

> <PUBCHEM_BONDANNOTATIONS>
11  14  8
11  15  8
12  16  8
14  17  8
15  18  8
17  19  8
18  19  8
3  12  8
3  13  8
5  13  8
5  16  8
6  10  3

$$$$

