11953875
  -OEChem-07051212502D

 81 84  0     1  0  0  0  0  0999 V2000
   12.6525   -1.2255    0.0000 O   0  0  0  0  0  0  0  0  0  0  0  0
    5.8200   -4.3944    0.0000 O   0  0  0  0  0  0  0  0  0  0  0  0
    7.1024   -4.3047    0.0000 O   0  0  0  0  0  0  0  0  0  0  0  0
    4.8924   -3.7469    0.0000 O   0  0  0  0  0  0  0  0  0  0  0  0
    7.1466    4.4592    0.0000 O   0  0  0  0  0  0  0  0  0  0  0  0
    8.5478    3.4411    0.0000 O   0  0  0  0  0  0  0  0  0  0  0  0
    9.1660   -1.6309    0.0000 N   0  0  0  0  0  0  0  0  0  0  0  0
   11.0647   -2.0345    0.0000 N   0  0  0  0  0  0  0  0  0  0  0  0
    6.2845   -0.5248    0.0000 N   0  0  0  0  0  0  0  0  0  0  0  0
    4.9856   -1.9673    0.0000 N   0  0  0  0  0  0  0  0  0  0  0  0
   10.7557   -2.9855    0.0000 C   0  0  2  0  0  0  0  0  0  0  0  0
    9.8046   -3.2946    0.0000 C   0  0  0  0  0  0  0  0  0  0  0  0
    9.0615   -2.6254    0.0000 C   0  0  0  0  0  0  0  0  0  0  0  0
    8.0834   -2.8333    0.0000 C   0  0  0  0  0  0  0  0  0  0  0  0
    7.5834   -1.9673    0.0000 C   0  0  0  0  0  0  0  0  0  0  0  0
    8.2525   -1.2242    0.0000 C   0  0  0  0  0  0  0  0  0  0  0  0
   11.5647   -3.5733    0.0000 C   0  0  0  0  0  0  0  0  0  0  0  0
    6.5888   -1.8628    0.0000 C   0  0  0  0  0  0  0  0  0  0  0  0
    7.0935    0.0630    0.0000 C   0  0  0  0  0  0  0  0  0  0  0  0
    8.0446   -0.2460    0.0000 C   0  0  0  0  0  0  0  0  0  0  0  0
   12.3737   -2.9855    0.0000 C   0  0  0  0  0  0  0  0  0  0  0  0
    6.7845    1.0140    0.0000 C   0  0  0  0  0  0  0  0  0  0  0  0
   12.0647   -2.0345    0.0000 C   0  0  0  0  0  0  0  0  0  0  0  0
    8.3590   -3.7946    0.0000 C   0  0  0  0  0  0  0  0  0  0  0  0
    5.7845    1.0140    0.0000 C   0  0  0  0  0  0  0  0  0  0  0  0
    5.4755    0.0630    0.0000 C   0  0  0  0  0  0  0  0  0  0  0  0
   11.5647   -4.5733    0.0000 C   0  0  0  0  0  0  0  0  0  0  0  0
    7.3723    1.8231    0.0000 C   0  0  0  0  0  0  0  0  0  0  0  0
    6.0010   -2.6718    0.0000 C   0  0  0  0  0  0  0  0  0  0  0  0
    4.5244   -0.2460    0.0000 C   0  0  0  0  0  0  0  0  0  0  0  0
   13.3248   -3.2946    0.0000 C   0  0  0  0  0  0  0  0  0  0  0  0
    5.1967    1.8231    0.0000 C   0  0  0  0  0  0  0  0  0  0  0  0
    6.9655    2.7366    0.0000 C   0  0  0  0  0  0  0  0  0  0  0  0
    4.3165   -1.2242    0.0000 C   0  0  0  0  0  0  0  0  0  0  0  0
    3.5075   -2.6254    0.0000 C   0  0  2  0  0  0  0  0  0  0  0  0
    3.4030   -1.6309    0.0000 C   0  0  0  0  0  0  0  0  0  0  0  0
    6.4078   -3.5854    0.0000 C   0  0  0  0  0  0  0  0  0  0  0  0
    4.4856   -2.8333    0.0000 C   0  0  0  0  0  0  0  0  0  0  0  0
    2.7643   -3.2946    0.0000 C   0  0  0  0  0  0  0  0  0  0  0  0
   13.5327   -4.2727    0.0000 C   0  0  0  0  0  0  0  0  0  0  0  0
    7.5533    3.5456    0.0000 C   0  0  0  0  0  0  0  0  0  0  0  0
    2.5369   -1.1309    0.0000 C   0  0  0  0  0  0  0  0  0  0  0  0
    2.5369   -0.1309    0.0000 C   0  0  0  0  0  0  0  0  0  0  0  0
   10.3173   -2.5471    0.0000 H   0  0  0  0  0  0  0  0  0  0  0  0
    9.3161   -3.6763    0.0000 H   0  0  0  0  0  0  0  0  0  0  0  0
   10.0957   -3.8420    0.0000 H   0  0  0  0  0  0  0  0  0  0  0  0
    9.7030   -1.3209    0.0000 H   0  0  0  0  0  0  0  0  0  0  0  0
   10.7003   -1.5329    0.0000 H   0  0  0  0  0  0  0  0  0  0  0  0
    6.7597   -1.2668    0.0000 H   0  0  0  0  0  0  0  0  0  0  0  0
    6.0316   -1.5910    0.0000 H   0  0  0  0  0  0  0  0  0  0  0  0
    8.5053    0.1688    0.0000 H   0  0  0  0  0  0  0  0  0  0  0  0
    7.7631   -3.9655    0.0000 H   0  0  0  0  0  0  0  0  0  0  0  0
    8.5300   -4.3906    0.0000 H   0  0  0  0  0  0  0  0  0  0  0  0
    8.9550   -3.6237    0.0000 H   0  0  0  0  0  0  0  0  0  0  0  0
   10.9447   -4.5733    0.0000 H   0  0  0  0  0  0  0  0  0  0  0  0
   11.5647   -5.1933    0.0000 H   0  0  0  0  0  0  0  0  0  0  0  0
   12.1847   -4.5733    0.0000 H   0  0  0  0  0  0  0  0  0  0  0  0
    6.2845   -1.1448    0.0000 H   0  0  0  0  0  0  0  0  0  0  0  0
    7.8030    1.3771    0.0000 H   0  0  0  0  0  0  0  0  0  0  0  0
    7.8863    2.1698    0.0000 H   0  0  0  0  0  0  0  0  0  0  0  0
    5.5704   -2.2258    0.0000 H   0  0  0  0  0  0  0  0  0  0  0  0
    5.4870   -3.0185    0.0000 H   0  0  0  0  0  0  0  0  0  0  0  0
    4.0637    0.1688    0.0000 H   0  0  0  0  0  0  0  0  0  0  0  0
   13.7855   -2.8797    0.0000 H   0  0  0  0  0  0  0  0  0  0  0  0
    5.6983    2.1875    0.0000 H   0  0  0  0  0  0  0  0  0  0  0  0
    4.8323    2.3247    0.0000 H   0  0  0  0  0  0  0  0  0  0  0  0
    4.6951    1.4586    0.0000 H   0  0  0  0  0  0  0  0  0  0  0  0
    6.5348    3.1826    0.0000 H   0  0  0  0  0  0  0  0  0  0  0  0
    6.4515    2.3899    0.0000 H   0  0  0  0  0  0  0  0  0  0  0  0
    3.6680   -3.2243    0.0000 H   0  0  0  0  0  0  0  0  0  0  0  0
    2.3495   -2.8338    0.0000 H   0  0  0  0  0  0  0  0  0  0  0  0
    2.3036   -3.7094    0.0000 H   0  0  0  0  0  0  0  0  0  0  0  0
    3.1792   -3.7553    0.0000 H   0  0  0  0  0  0  0  0  0  0  0  0
   13.0719   -4.6876    0.0000 H   0  0  0  0  0  0  0  0  0  0  0  0
   14.1224   -4.4643    0.0000 H   0  0  0  0  0  0  0  0  0  0  0  0
    2.0000   -1.4409    0.0000 H   0  0  0  0  0  0  0  0  0  0  0  0
    3.1569   -0.1309    0.0000 H   0  0  0  0  0  0  0  0  0  0  0  0
    2.5369    0.4891    0.0000 H   0  0  0  0  0  0  0  0  0  0  0  0
    1.9169   -0.1309    0.0000 H   0  0  0  0  0  0  0  0  0  0  0  0
    6.0722   -4.9608    0.0000 H   0  0  0  0  0  0  0  0  0  0  0  0
    7.5110    4.9608    0.0000 H   0  0  0  0  0  0  0  0  0  0  0  0
  1 23  2  0  0  0  0
  2 37  1  0  0  0  0
  2 80  1  0  0  0  0
  3 37  2  0  0  0  0
  4 38  2  0  0  0  0
  5 41  1  0  0  0  0
  5 81  1  0  0  0  0
  6 41  2  0  0  0  0
  7 13  1  0  0  0  0
  7 16  1  0  0  0  0
  7 47  1  0  0  0  0
  8 11  1  0  0  0  0
  8 23  1  0  0  0  0
  8 48  1  0  0  0  0
  9 19  1  0  0  0  0
  9 26  1  0  0  0  0
  9 58  1  0  0  0  0
 10 34  2  0  0  0  0
 10 38  1  0  0  0  0
 11 12  1  1  0  0  0
 11 17  1  0  0  0  0
 11 44  1  0  0  0  0
 12 13  1  0  0  0  0
 12 45  1  0  0  0  0
 12 46  1  0  0  0  0
 13 14  2  0  0  0  0
 14 15  1  0  0  0  0
 14 24  1  0  0  0  0
 15 16  2  0  0  0  0
 15 18  1  0  0  0  0
 16 20  1  0  0  0  0
 17 21  2  0  0  0  0
 17 27  1  0  0  0  0
 18 29  1  0  0  0  0
 18 49  1  0  0  0  0
 18 50  1  0  0  0  0
 19 20  2  0  0  0  0
 19 22  1  0  0  0  0
 20 51  1  0  0  0  0
 21 23  1  0  0  0  0
 21 31  1  0  0  0  0
 22 25  2  0  0  0  0
 22 28  1  0  0  0  0
 24 52  1  0  0  0  0
 24 53  1  0  0  0  0
 24 54  1  0  0  0  0
 25 26  1  0  0  0  0
 25 32  1  0  0  0  0
 26 30  2  0  0  0  0
 27 55  1  0  0  0  0
 27 56  1  0  0  0  0
 27 57  1  0  0  0  0
 28 33  1  0  0  0  0
 28 59  1  0  0  0  0
 28 60  1  0  0  0  0
 29 37  1  0  0  0  0
 29 61  1  0  0  0  0
 29 62  1  0  0  0  0
 30 34  1  0  0  0  0
 30 63  1  0  0  0  0
 31 40  2  0  0  0  0
 31 64  1  0  0  0  0
 32 65  1  0  0  0  0
 32 66  1  0  0  0  0
 32 67  1  0  0  0  0
 33 41  1  0  0  0  0
 33 68  1  0  0  0  0
 33 69  1  0  0  0  0
 34 36  1  0  0  0  0
 35 36  1  0  0  0  0
 35 38  1  0  0  0  0
 35 39  1  6  0  0  0
 35 70  1  0  0  0  0
 36 42  2  0  0  0  0
 39 71  1  0  0  0  0
 39 72  1  0  0  0  0
 39 73  1  0  0  0  0
 40 74  1  0  0  0  0
 40 75  1  0  0  0  0
 42 43  1  0  0  0  0
 42 76  1  0  0  0  0
 43 77  1  0  0  0  0
 43 78  1  0  0  0  0
 43 79  1  0  0  0  0
M  END
> <PUBCHEM_COMPOUND_CID>
11953875

> <PUBCHEM_COMPOUND_CANONICALIZED>
1

> <PUBCHEM_CACTVS_COMPLEXITY>
1430

> <PUBCHEM_CACTVS_HBOND_ACCEPTOR>
7

> <PUBCHEM_CACTVS_HBOND_DONOR>
5

> <PUBCHEM_CACTVS_ROTATABLE_BOND>
11

> <PUBCHEM_CACTVS_SUBSKEYS>
AAADcfB/uAAAAAAAAAAAAAAAAAAAAWIECAAAAAAAAAAAAAABgAAAHgAQCAAADSjBngQCiJLJkgCoAyXyXACCgCAhAiAImaE4RNgIIHLA0ZGEQAhklgDIyQeY2fOegAAAAAAAAAAAAAAAAAAAAAAAAAAAAA==

> <PUBCHEM_IUPAC_OPENEYE_NAME>
3-[(2Z,5Z)-2-[[3-(2-carboxyethyl)-4-methyl-5-[[(2R)-3-methyl-5-oxo-4-vinyl-1,2-dihydropyrrol-2-yl]methyl]-1H-pyrrol-2-yl]methylene]-5-[[(3Z,4R)-3-ethylidene-4-methyl-5-oxo-pyrrol-2-yl]methylene]-4-methyl-pyrrol-3-yl]propanoic acid

> <PUBCHEM_IUPAC_CAS_NAME>
3-[(2Z,5Z)-2-[[3-(2-carboxyethyl)-5-[[(2R)-4-ethenyl-3-methyl-5-oxo-1,2-dihydropyrrol-2-yl]methyl]-4-methyl-1H-pyrrol-2-yl]methylidene]-5-[[(3Z,4R)-3-ethylidene-4-methyl-5-oxo-2-pyrrolyl]methylidene]-4-methyl-3-pyrrolyl]propanoic acid

> <PUBCHEM_IUPAC_NAME>
3-[(2Z,5Z)-2-[[3-(2-carboxyethyl)-5-[[(2R)-4-ethenyl-3-methyl-5-oxo-1,2-dihydropyrrol-2-yl]methyl]-4-methyl-1H-pyrrol-2-yl]methylidene]-5-[[(3Z,4R)-3-ethylidene-4-methyl-5-oxopyrrol-2-yl]methylidene]-4-methylpyrrol-3-yl]propanoic acid

> <PUBCHEM_IUPAC_SYSTEMATIC_NAME>
3-[(2Z,5Z)-2-[[5-[[(2R)-4-ethenyl-3-methyl-5-oxidanylidene-1,2-dihydropyrrol-2-yl]methyl]-3-(3-hydroxy-3-oxopropyl)-4-methyl-1H-pyrrol-2-yl]methylidene]-5-[[(3Z,4R)-3-ethylidene-4-methyl-5-oxidanylidene-pyrrol-2-yl]methylidene]-4-methyl-pyrrol-3-yl]propanoic acid

> <PUBCHEM_IUPAC_TRADITIONAL_NAME>
3-[(2Z,5Z)-2-[[3-(2-carboxyethyl)-5-[[(2R)-5-keto-3-methyl-4-vinyl-3-pyrrolin-2-yl]methyl]-4-methyl-1H-pyrrol-2-yl]methylene]-5-[[(3Z,4R)-3-ethylidene-5-keto-4-methyl-1-pyrrolin-2-yl]methylene]-4-methyl-3-pyrrolin-3-yl]propionic acid

> <PUBCHEM_IUPAC_INCHI>
InChI=1S/C33H38N4O6/c1-7-20-19(6)32(42)37-27(20)14-25-18(5)23(10-12-31(40)41)29(35-25)15-28-22(9-11-30(38)39)17(4)24(34-28)13-26-16(3)21(8-2)33(43)36-26/h7-8,14-15,19,26,34-35H,2,9-13H2,1,3-6H3,(H,36,43)(H,38,39)(H,40,41)/b20-7-,25-14-,29-15-/t19-,26-/m1/s1

> <PUBCHEM_IUPAC_INCHIKEY>
GLWKVDXAQHCAIO-REYDXQAISA-N

> <PUBCHEM_XLOGP3_AA>
2.3

> <PUBCHEM_EXACT_MASS>
586.279135

> <PUBCHEM_MOLECULAR_FORMULA>
C33H38N4O6

> <PUBCHEM_MOLECULAR_WEIGHT>
586.67802

> <PUBCHEM_OPENEYE_CAN_SMILES>
CC=C1C(C(=O)N=C1C=C2C(=C(C(=CC3=C(C(=C(N3)CC4C(=C(C(=O)N4)C=C)C)C)CCC(=O)O)N2)CCC(=O)O)C)C

> <PUBCHEM_OPENEYE_ISO_SMILES>
C/C=C\1/[C@H](C(=O)N=C1/C=C\2/C(=C(/C(=C/C3=C(C(=C(N3)C[C@@H]4C(=C(C(=O)N4)C=C)C)C)CCC(=O)O)/N2)CCC(=O)O)C)C

> <PUBCHEM_CACTVS_TPSA>
161

> <PUBCHEM_MONOISOTOPIC_WEIGHT>
586.279135

> <PUBCHEM_TOTAL_CHARGE>
0

> <PUBCHEM_HEAVY_ATOM_COUNT>
43

> <PUBCHEM_ATOM_DEF_STEREO_COUNT>
2

> <PUBCHEM_ATOM_UDEF_STEREO_COUNT>
0

> <PUBCHEM_BOND_DEF_STEREO_COUNT>
3

> <PUBCHEM_BOND_UDEF_STEREO_COUNT>
0

> <PUBCHEM_ISOTOPIC_ATOM_COUNT>
0

> <PUBCHEM_COMPONENT_COUNT>
1

> <PUBCHEM_CACTVS_TAUTO_COUNT>
84

> <PUBCHEM_COORDINATE_TYPE>
1
5
255

> <PUBCHEM_BONDANNOTATIONS>
11  12  5
13  14  8
14  15  8
15  16  8
19  22  8
22  25  8
25  26  8
35  39  6
7  13  8
7  16  8
9  19  8
9  26  8

$$$$

