53297450
  -OEChem-07051213152D

 50 51  0     1  0  0  0  0  0999 V2000
    4.5981    0.9050    0.0000 O   0  0  0  0  0  0  0  0  0  0  0  0
    6.3301   -1.0950    0.0000 O   0  0  0  0  0  0  0  0  0  0  0  0
    4.5981   -2.0950    0.0000 O   0  0  0  0  0  0  0  0  0  0  0  0
    2.8660   -1.0950    0.0000 O   0  0  0  0  0  0  0  0  0  0  0  0
    8.9282   -0.5950    0.0000 O   0  0  0  0  0  0  0  0  0  0  0  0
    2.8660    1.9050    0.0000 O   0  5  0  0  0  0  0  0  0  0  0  0
    2.0000    0.4050    0.0000 O   0  0  0  0  0  0  0  0  0  0  0  0
   14.1244    0.4050    0.0000 O   0  0  0  0  0  0  0  0  0  0  0  0
    6.3301    0.9050    0.0000 N   0  3  0  0  0  0  0  0  0  0  0  0
   12.3923    0.4050    0.0000 N   0  0  0  0  0  0  0  0  0  0  0  0
   13.2583    0.9050    0.0000 N   0  0  0  0  0  0  0  0  0  0  0  0
    5.4641   -0.5950    0.0000 C   0  0  1  0  0  0  0  0  0  0  0  0
    5.4641    0.4050    0.0000 C   0  0  1  0  0  0  0  0  0  0  0  0
    4.5981   -1.0950    0.0000 C   0  0  2  0  0  0  0  0  0  0  0  0
    3.7320   -0.5950    0.0000 C   0  0  1  0  0  0  0  0  0  0  0  0
    3.7320    0.4050    0.0000 C   0  0  1  0  0  0  0  0  0  0  0  0
    7.1962    0.4050    0.0000 C   0  0  0  0  0  0  0  0  0  0  0  0
    8.0622    0.9050    0.0000 C   0  0  0  0  0  0  0  0  0  0  0  0
    6.3301    1.9050    0.0000 C   0  0  0  0  0  0  0  0  0  0  0  0
    8.9282    0.4050    0.0000 C   0  0  3  0  0  0  0  0  0  0  0  0
    2.8660    0.9050    0.0000 C   0  0  0  0  0  0  0  0  0  0  0  0
    9.7942    0.9050    0.0000 C   0  0  0  0  0  0  0  0  0  0  0  0
    8.0622    1.9050    0.0000 C   0  0  0  0  0  0  0  0  0  0  0  0
    7.1962    2.4050    0.0000 C   0  0  0  0  0  0  0  0  0  0  0  0
   10.6603    0.4050    0.0000 C   0  0  0  0  0  0  0  0  0  0  0  0
   11.5263    0.9050    0.0000 C   0  0  0  0  0  0  0  0  0  0  0  0
   12.3923   -0.5950    0.0000 C   0  0  0  0  0  0  0  0  0  0  0  0
    5.4641   -1.2150    0.0000 H   0  0  0  0  0  0  0  0  0  0  0  0
    5.4641    1.0250    0.0000 H   0  0  0  0  0  0  0  0  0  0  0  0
    5.1350   -1.4050    0.0000 H   0  0  0  0  0  0  0  0  0  0  0  0
    3.7320   -1.2150    0.0000 H   0  0  0  0  0  0  0  0  0  0  0  0
    3.7320    1.0250    0.0000 H   0  0  0  0  0  0  0  0  0  0  0  0
    7.1962   -0.2150    0.0000 H   0  0  0  0  0  0  0  0  0  0  0  0
    9.4651    0.0950    0.0000 H   0  0  0  0  0  0  0  0  0  0  0  0
    5.7932    2.2150    0.0000 H   0  0  0  0  0  0  0  0  0  0  0  0
    6.3301   -1.7150    0.0000 H   0  0  0  0  0  0  0  0  0  0  0  0
    4.0611   -2.4050    0.0000 H   0  0  0  0  0  0  0  0  0  0  0  0
    2.8660   -1.7150    0.0000 H   0  0  0  0  0  0  0  0  0  0  0  0
   10.1928    1.3800    0.0000 H   0  0  0  0  0  0  0  0  0  0  0  0
    9.3957    1.3800    0.0000 H   0  0  0  0  0  0  0  0  0  0  0  0
    8.5991    2.2150    0.0000 H   0  0  0  0  0  0  0  0  0  0  0  0
    7.1962    3.0250    0.0000 H   0  0  0  0  0  0  0  0  0  0  0  0
   10.2617   -0.0699    0.0000 H   0  0  0  0  0  0  0  0  0  0  0  0
   11.0588   -0.0699    0.0000 H   0  0  0  0  0  0  0  0  0  0  0  0
   11.9248    1.3800    0.0000 H   0  0  0  0  0  0  0  0  0  0  0  0
   11.1278    1.3800    0.0000 H   0  0  0  0  0  0  0  0  0  0  0  0
    9.4651   -0.9050    0.0000 H   0  0  0  0  0  0  0  0  0  0  0  0
   11.7723   -0.5950    0.0000 H   0  0  0  0  0  0  0  0  0  0  0  0
   12.3923   -1.2150    0.0000 H   0  0  0  0  0  0  0  0  0  0  0  0
   13.0123   -0.5950    0.0000 H   0  0  0  0  0  0  0  0  0  0  0  0
  1 13  1  0  0  0  0
  1 16  1  0  0  0  0
 12  2  1  6  0  0  0
  2 36  1  0  0  0  0
 14  3  1  1  0  0  0
  3 37  1  0  0  0  0
 15  4  1  6  0  0  0
  4 38  1  0  0  0  0
  5 20  1  0  0  0  0
  5 47  1  0  0  0  0
  6 21  1  0  0  0  0
  7 21  2  0  0  0  0
  8 11  2  0  0  0  0
 13  9  1  1  0  0  0
  9 17  1  0  0  0  0
  9 19  2  0  0  0  0
 10 11  1  0  0  0  0
 10 26  1  0  0  0  0
 10 27  1  0  0  0  0
 12 13  1  0  0  0  0
 12 14  1  0  0  0  0
 12 28  1  0  0  0  0
 13 29  1  0  0  0  0
 14 15  1  0  0  0  0
 14 30  1  0  0  0  0
 15 16  1  0  0  0  0
 15 31  1  0  0  0  0
 16 21  1  1  0  0  0
 16 32  1  0  0  0  0
 17 18  2  0  0  0  0
 17 33  1  0  0  0  0
 18 20  1  0  0  0  0
 18 23  1  0  0  0  0
 19 24  1  0  0  0  0
 19 35  1  0  0  0  0
 20 22  1  0  0  0  0
 20 34  1  0  0  0  0
 22 25  1  0  0  0  0
 22 39  1  0  0  0  0
 22 40  1  0  0  0  0
 23 24  2  0  0  0  0
 23 41  1  0  0  0  0
 24 42  1  0  0  0  0
 25 26  1  0  0  0  0
 25 43  1  0  0  0  0
 25 44  1  0  0  0  0
 26 45  1  0  0  0  0
 26 46  1  0  0  0  0
 27 48  1  0  0  0  0
 27 49  1  0  0  0  0
 27 50  1  0  0  0  0
M  CHG  2   6  -1   9   1
M  END
> <PUBCHEM_COMPOUND_CID>
53297450

> <PUBCHEM_COMPOUND_CANONICALIZED>
1

> <PUBCHEM_CACTVS_COMPLEXITY>
505

> <PUBCHEM_CACTVS_HBOND_ACCEPTOR>
10

> <PUBCHEM_CACTVS_HBOND_DONOR>
4

> <PUBCHEM_CACTVS_ROTATABLE_BOND>
6

> <PUBCHEM_CACTVS_SUBSKEYS>
AAADceB7PAAAAAAAAAAAAAAAAAAAAAAAAAAsSAAAAAAAAAABgAAAHgAMCAAADBThmgY+iJMMFgCpAjD3TAKCgCAxAiAY2CF4bJgLNvbAkZWOcAhn4AHb2Af6/IZOAAAAAAAAAAAAAAAAAAAAAAAAAAAAAA==

> <PUBCHEM_IUPAC_OPENEYE_NAME>
(2S,3S,4S,5R,6R)-3,4,5-trihydroxy-6-[3-[1-hydroxy-4-[methyl(nitroso)amino]butyl]pyridin-1-ium-1-yl]tetrahydropyran-2-carboxylate

> <PUBCHEM_IUPAC_CAS_NAME>
(2S,3S,4S,5R,6R)-3,4,5-trihydroxy-6-[3-[1-hydroxy-4-[methyl(nitroso)amino]butyl]-1-pyridin-1-iumyl]-2-oxanecarboxylate

> <PUBCHEM_IUPAC_NAME>
(2S,3S,4S,5R,6R)-3,4,5-trihydroxy-6-[3-[1-hydroxy-4-[methyl(nitroso)amino]butyl]pyridin-1-ium-1-yl]oxane-2-carboxylate

> <PUBCHEM_IUPAC_SYSTEMATIC_NAME>
(2S,3S,4S,5R,6R)-6-[3-[4-[methyl(nitroso)amino]-1-oxidanyl-butyl]pyridin-1-ium-1-yl]-3,4,5-tris(oxidanyl)oxane-2-carboxylate

> <PUBCHEM_IUPAC_TRADITIONAL_NAME>
(2S,3S,4S,5R,6R)-3,4,5-trihydroxy-6-[3-[1-hydroxy-4-[methyl(nitroso)amino]butyl]pyridin-1-ium-1-yl]tetrahydropyran-2-carboxylate

> <PUBCHEM_IUPAC_INCHI>
InChI=1S/C16H23N3O8/c1-18(17-26)6-3-5-10(20)9-4-2-7-19(8-9)15-13(23)11(21)12(22)14(27-15)16(24)25/h2,4,7-8,10-15,20-23H,3,5-6H2,1H3/t10?,11-,12-,13+,14-,15+/m0/s1

> <PUBCHEM_IUPAC_INCHIKEY>
VSVYJUYJFLYYSI-UKOUFMKDSA-N

> <PUBCHEM_XLOGP3_AA>
-0.5

> <PUBCHEM_EXACT_MASS>
385.148515

> <PUBCHEM_MOLECULAR_FORMULA>
C16H23N3O8

> <PUBCHEM_MOLECULAR_WEIGHT>
385.36912

> <PUBCHEM_OPENEYE_CAN_SMILES>
CN(CCCC(C1=C[N+](=CC=C1)C2C(C(C(C(O2)C(=O)[O-])O)O)O)O)N=O

> <PUBCHEM_OPENEYE_ISO_SMILES>
CN(CCCC(C1=C[N+](=CC=C1)[C@H]2[C@@H]([C@H]([C@@H]([C@H](O2)C(=O)[O-])O)O)O)O)N=O

> <PUBCHEM_CACTVS_TPSA>
167

> <PUBCHEM_MONOISOTOPIC_WEIGHT>
385.148515

> <PUBCHEM_TOTAL_CHARGE>
0

> <PUBCHEM_HEAVY_ATOM_COUNT>
27

> <PUBCHEM_ATOM_DEF_STEREO_COUNT>
5

> <PUBCHEM_ATOM_UDEF_STEREO_COUNT>
1

> <PUBCHEM_BOND_DEF_STEREO_COUNT>
0

> <PUBCHEM_BOND_UDEF_STEREO_COUNT>
0

> <PUBCHEM_ISOTOPIC_ATOM_COUNT>
0

> <PUBCHEM_COMPONENT_COUNT>
1

> <PUBCHEM_CACTVS_TAUTO_COUNT>
1

> <PUBCHEM_COORDINATE_TYPE>
1
5
255

> <PUBCHEM_BONDANNOTATIONS>
16  21  5
17  18  8
18  23  8
19  24  8
12  2  6
23  24  8
14  3  5
15  4  6
20  5  3
13  9  5
9  17  8
9  19  8

$$$$

