2526
  -OEChem-07051212472D

 19 18  0     0  0  0  0  0  0999 V2000
    3.4030    0.3585    0.0000 P   0  0  0  0  0  0  0  0  0  0  0  0
    4.2690    0.8585    0.0000 O   0  0  0  0  0  0  0  0  0  0  0  0
    6.0010   -1.1415    0.0000 O   0  0  0  0  0  0  0  0  0  0  0  0
    6.8671    0.3585    0.0000 O   0  0  0  0  0  0  0  0  0  0  0  0
    2.5369   -0.1415    0.0000 O   0  0  0  0  0  0  0  0  0  0  0  0
    2.9030    1.2245    0.0000 O   0  0  0  0  0  0  0  0  0  0  0  0
    3.9030   -0.5075    0.0000 O   0  0  0  0  0  0  0  0  0  0  0  0
    5.1350    0.3585    0.0000 C   0  0  0  0  0  0  0  0  0  0  0  0
    6.0010    0.8585    0.0000 C   0  0  0  0  0  0  0  0  0  0  0  0
    5.1350   -0.6415    0.0000 C   0  0  0  0  0  0  0  0  0  0  0  0
    5.1350    0.9785    0.0000 H   0  0  0  0  0  0  0  0  0  0  0  0
    4.5244   -0.5338    0.0000 H   0  0  0  0  0  0  0  0  0  0  0  0
    4.9230   -1.2241    0.0000 H   0  0  0  0  0  0  0  0  0  0  0  0
    6.3996    1.3335    0.0000 H   0  0  0  0  0  0  0  0  0  0  0  0
    5.6025    1.3335    0.0000 H   0  0  0  0  0  0  0  0  0  0  0  0
    6.0010   -1.7615    0.0000 H   0  0  0  0  0  0  0  0  0  0  0  0
    7.4040    0.6685    0.0000 H   0  0  0  0  0  0  0  0  0  0  0  0
    2.0000    0.1685    0.0000 H   0  0  0  0  0  0  0  0  0  0  0  0
    3.2130    1.7615    0.0000 H   0  0  0  0  0  0  0  0  0  0  0  0
  1  2  1  0  0  0  0
  1  5  1  0  0  0  0
  1  6  1  0  0  0  0
  1  7  2  0  0  0  0
  2  8  1  0  0  0  0
  3 10  1  0  0  0  0
  3 16  1  0  0  0  0
  4  9  1  0  0  0  0
  4 17  1  0  0  0  0
  5 18  1  0  0  0  0
  6 19  1  0  0  0  0
  8  9  1  0  0  0  0
  8 10  1  0  0  0  0
  8 11  1  0  0  0  0
  9 14  1  0  0  0  0
  9 15  1  0  0  0  0
 10 12  1  0  0  0  0
 10 13  1  0  0  0  0
M  END
> <PUBCHEM_COMPOUND_CID>
2526

> <PUBCHEM_COMPOUND_CANONICALIZED>
1

> <PUBCHEM_CACTVS_COMPLEXITY>
125

> <PUBCHEM_CACTVS_HBOND_ACCEPTOR>
6

> <PUBCHEM_CACTVS_HBOND_DONOR>
4

> <PUBCHEM_CACTVS_ROTATABLE_BOND>
4

> <PUBCHEM_CACTVS_SUBSKEYS>
AAADccBAOAIAAAAAAAAAAAAAAAAAAAAAAAAAAAAAAAAAAAAAAAAAGgAACCAACBSggAIAAAAAAxAAQAAAAIAAAAAAAAAAAAAAAAABEAAAAAAAQAABAAABAAAAAAAAAAAAAAAAAAAAAAAAAAAAAAAAAAAAAA==

> <PUBCHEM_IUPAC_OPENEYE_NAME>
[2-hydroxy-1-(hydroxymethyl)ethyl] dihydrogen phosphate

> <PUBCHEM_IUPAC_CAS_NAME>
1,3-dihydroxypropan-2-yl dihydrogen phosphate

> <PUBCHEM_IUPAC_NAME>
1,3-dihydroxypropan-2-yl dihydrogen phosphate

> <PUBCHEM_IUPAC_SYSTEMATIC_NAME>
1,3-bis(oxidanyl)propan-2-yl dihydrogen phosphate

> <PUBCHEM_IUPAC_TRADITIONAL_NAME>
(2-hydroxy-1-methylol-ethyl) dihydrogen phosphate

> <PUBCHEM_IUPAC_INCHI>
InChI=1S/C3H9O6P/c4-1-3(2-5)9-10(6,7)8/h3-5H,1-2H2,(H2,6,7,8)

> <PUBCHEM_IUPAC_INCHIKEY>
DHCLVCXQIBBOPH-UHFFFAOYSA-N

> <PUBCHEM_XLOGP3_AA>
-2.9

> <PUBCHEM_EXACT_MASS>
172.013675

> <PUBCHEM_MOLECULAR_FORMULA>
C3H9O6P

> <PUBCHEM_MOLECULAR_WEIGHT>
172.073722

> <PUBCHEM_OPENEYE_CAN_SMILES>
C(C(CO)OP(=O)(O)O)O

> <PUBCHEM_OPENEYE_ISO_SMILES>
C(C(CO)OP(=O)(O)O)O

> <PUBCHEM_CACTVS_TPSA>
107

> <PUBCHEM_MONOISOTOPIC_WEIGHT>
172.013675

> <PUBCHEM_TOTAL_CHARGE>
0

> <PUBCHEM_HEAVY_ATOM_COUNT>
10

> <PUBCHEM_ATOM_DEF_STEREO_COUNT>
0

> <PUBCHEM_ATOM_UDEF_STEREO_COUNT>
0

> <PUBCHEM_BOND_DEF_STEREO_COUNT>
0

> <PUBCHEM_BOND_UDEF_STEREO_COUNT>
0

> <PUBCHEM_ISOTOPIC_ATOM_COUNT>
0

> <PUBCHEM_COMPONENT_COUNT>
1

> <PUBCHEM_CACTVS_TAUTO_COUNT>
1

> <PUBCHEM_COORDINATE_TYPE>
1
5
255

$$$$

