4326
  -OEChem-06261200023D

 59 60  0     1  0  0  0  0  0999 V2000
    2.7685   -0.9329    1.1486 S   0  0  0  0  0  0  0  0  0  0  0  0
    3.2068   -1.4157    2.4450 O   0  0  0  0  0  0  0  0  0  0  0  0
    3.3242   -1.4903   -0.0706 O   0  0  0  0  0  0  0  0  0  0  0  0
    4.4916    2.8846   -0.4619 O   0  0  0  0  0  0  0  0  0  0  0  0
   -3.8232   -2.0912    1.8480 O   0  0  0  0  0  0  0  0  0  0  0  0
    7.3470   -1.4033    0.0504 O   0  0  0  0  0  0  0  0  0  0  0  0
    6.1188   -1.8814   -1.7984 O   0  0  0  0  0  0  0  0  0  0  0  0
   -6.8236   -1.7315   -2.1864 O   0  0  0  0  0  0  0  0  0  0  0  0
   -4.6551   -1.4650   -2.8004 O   0  0  0  0  0  0  0  0  0  0  0  0
   -6.0514    3.7192   -0.6809 O   0  0  0  0  0  0  0  0  0  0  0  0
   -7.1841    2.5353    0.8886 O   0  0  0  0  0  0  0  0  0  0  0  0
    2.8936    0.7626    1.1024 N   0  0  1  0  0  0  0  0  0  0  0  0
    4.4600    0.8394   -1.5734 N   0  0  0  0  0  0  0  0  0  0  0  0
   -3.8426   -1.1255   -0.2600 N   0  0  0  0  0  0  0  0  0  0  0  0
    2.6116    1.4494   -0.1885 C   0  0  1  0  0  0  0  0  0  0  0  0
    1.7724    2.6716    0.1676 C   0  0  0  0  0  0  0  0  0  0  0  0
    2.1014    2.9312    1.6282 C   0  0  0  0  0  0  0  0  0  0  0  0
    2.2335    1.5277    2.1955 C   0  0  0  0  0  0  0  0  0  0  0  0
    3.9504    1.8165   -0.7356 C   0  0  0  0  0  0  0  0  0  0  0  0
    1.0133   -1.1263    1.0747 C   0  0  0  0  0  0  0  0  0  0  0  0
    0.3755   -1.2383   -0.1608 C   0  0  0  0  0  0  0  0  0  0  0  0
    0.2657   -1.1657    2.2517 C   0  0  0  0  0  0  0  0  0  0  0  0
    5.7315    0.9621   -2.2491 C   0  0  0  0  0  0  0  0  0  0  0  0
   -1.0099   -1.3897   -0.2193 C   0  0  0  0  0  0  0  0  0  0  0  0
   -1.1196   -1.3170    2.1932 C   0  0  0  0  0  0  0  0  0  0  0  0
   -1.7575   -1.4290    0.9577 C   0  0  0  0  0  0  0  0  0  0  0  0
    6.8781    0.4029   -1.4169 C   0  0  0  0  0  0  0  0  0  0  0  0
   -3.2018   -1.5862    0.8961 C   0  0  0  0  0  0  0  0  0  0  0  0
   -5.2724   -1.1897   -0.4606 C   0  0  1  0  0  0  0  0  0  0  0  0
   -6.0015    0.0493    0.0733 C   0  0  0  0  0  0  0  0  0  0  0  0
    6.7205   -1.0703   -1.1086 C   0  0  0  0  0  0  0  0  0  0  0  0
   -5.6335    1.3806   -0.5943 C   0  0  0  0  0  0  0  0  0  0  0  0
   -5.5175   -1.4568   -1.9314 C   0  0  0  0  0  0  0  0  0  0  0  0
   -6.3705    2.5732   -0.0239 C   0  0  0  0  0  0  0  0  0  0  0  0
    2.0677    0.8330   -0.9071 H   0  0  0  0  0  0  0  0  0  0  0  0
    1.9624    3.5448   -0.4640 H   0  0  0  0  0  0  0  0  0  0  0  0
    0.7075    2.4219    0.0787 H   0  0  0  0  0  0  0  0  0  0  0  0
    1.3290    3.5158    2.1361 H   0  0  0  0  0  0  0  0  0  0  0  0
    3.0507    3.4712    1.7194 H   0  0  0  0  0  0  0  0  0  0  0  0
    1.2372    1.1619    2.4352 H   0  0  0  0  0  0  0  0  0  0  0  0
    2.8505    1.5197    3.0981 H   0  0  0  0  0  0  0  0  0  0  0  0
    3.9314   -0.0151   -1.7221 H   0  0  0  0  0  0  0  0  0  0  0  0
    0.9370   -1.2240   -1.0904 H   0  0  0  0  0  0  0  0  0  0  0  0
    0.7403   -1.0843    3.2256 H   0  0  0  0  0  0  0  0  0  0  0  0
    5.6426    0.4234   -3.1985 H   0  0  0  0  0  0  0  0  0  0  0  0
    5.9166    2.0181   -2.4726 H   0  0  0  0  0  0  0  0  0  0  0  0
   -1.4618   -1.5059   -1.2000 H   0  0  0  0  0  0  0  0  0  0  0  0
   -1.6843   -1.3415    3.1215 H   0  0  0  0  0  0  0  0  0  0  0  0
    6.9333    0.9503   -0.4682 H   0  0  0  0  0  0  0  0  0  0  0  0
    7.8274    0.5345   -1.9464 H   0  0  0  0  0  0  0  0  0  0  0  0
   -5.6357   -2.0711    0.0829 H   0  0  0  0  0  0  0  0  0  0  0  0
   -5.8105    0.1359    1.1512 H   0  0  0  0  0  0  0  0  0  0  0  0
   -7.0842   -0.1014   -0.0292 H   0  0  0  0  0  0  0  0  0  0  0  0
   -3.3052   -0.6474   -0.9759 H   0  0  0  0  0  0  0  0  0  0  0  0
   -4.5609    1.5691   -0.4746 H   0  0  0  0  0  0  0  0  0  0  0  0
   -5.8647    1.3298   -1.6640 H   0  0  0  0  0  0  0  0  0  0  0  0
    7.2514   -2.3577    0.2562 H   0  0  0  0  0  0  0  0  0  0  0  0
   -6.9784   -1.9202   -3.1365 H   0  0  0  0  0  0  0  0  0  0  0  0
   -6.5404    4.4920   -0.3260 H   0  0  0  0  0  0  0  0  0  0  0  0
  1  2  2  0  0  0  0
  1  3  2  0  0  0  0
  1 12  1  0  0  0  0
  1 20  1  0  0  0  0
  4 19  2  0  0  0  0
  5 28  2  0  0  0  0
  6 31  1  0  0  0  0
  6 57  1  0  0  0  0
  7 31  2  0  0  0  0
  8 33  1  0  0  0  0
  8 58  1  0  0  0  0
  9 33  2  0  0  0  0
 10 34  1  0  0  0  0
 10 59  1  0  0  0  0
 11 34  2  0  0  0  0
 12 15  1  0  0  0  0
 12 18  1  0  0  0  0
 13 19  1  0  0  0  0
 13 23  1  0  0  0  0
 13 42  1  0  0  0  0
 14 28  1  0  0  0  0
 14 29  1  0  0  0  0
 14 54  1  0  0  0  0
 15 16  1  0  0  0  0
 15 19  1  0  0  0  0
 15 35  1  0  0  0  0
 16 17  1  0  0  0  0
 16 36  1  0  0  0  0
 16 37  1  0  0  0  0
 17 18  1  0  0  0  0
 17 38  1  0  0  0  0
 17 39  1  0  0  0  0
 18 40  1  0  0  0  0
 18 41  1  0  0  0  0
 20 21  2  0  0  0  0
 20 22  1  0  0  0  0
 21 24  1  0  0  0  0
 21 43  1  0  0  0  0
 22 25  2  0  0  0  0
 22 44  1  0  0  0  0
 23 27  1  0  0  0  0
 23 45  1  0  0  0  0
 23 46  1  0  0  0  0
 24 26  2  0  0  0  0
 24 47  1  0  0  0  0
 25 26  1  0  0  0  0
 25 48  1  0  0  0  0
 26 28  1  0  0  0  0
 27 31  1  0  0  0  0
 27 49  1  0  0  0  0
 27 50  1  0  0  0  0
 29 30  1  0  0  0  0
 29 33  1  0  0  0  0
 29 51  1  0  0  0  0
 30 32  1  0  0  0  0
 30 52  1  0  0  0  0
 30 53  1  0  0  0  0
 32 34  1  0  0  0  0
 32 55  1  0  0  0  0
 32 56  1  0  0  0  0
M  END
> <PUBCHEM_COMPOUND_CID>
4326

> <PUBCHEM_CONFORMER_RMSD>
1.2

> <PUBCHEM_CONFORMER_DIVERSEORDER>
5
147
73
55
80
91
49
172
155
154
117
83
166
124
174
22
31
160
21
13
118
98
61
94
85
164
134
38
181
84
15
69
131
140
63
177
97
127
136
185
105
173
70
58
153
107
125
9
144
189
156
168
6
81
90
39
158
148
143
195
137
151
141
20
114
183
175
135
188
157
54
119
184
193
59
121
194
96
112
33
176
190
50
23
32
187
149
79
111
99
3
93
24
116
71
34
146
150
101
88
12
103
162
7
74
113
4
132
191
152
26
29
123
1
128
133
130
75
126
179
52
145
108
178
43
77
14
92
163
106
60
186
53
17
142
44
2
46
180
64
51
25
67
16
182
36
18
165
11
102
170
159
87
100
27
89
57
78
42
139
120
95
28
48
192
40
30
167
35
171
65
62
161
129
37
109
115
169
68
104
122
56
41
47
66
19
110
8
45
82
138
72
76
10
86

> <PUBCHEM_MMFF94_PARTIAL_CHARGES>
40
1 1.45
10 -0.65
11 -0.57
12 -0.85
13 -0.73
14 -0.73
15 0.42
18 0.36
19 0.57
2 -0.65
20 -0.01
21 -0.15
22 -0.15
23 0.3
24 -0.15
25 -0.15
26 0.09
27 0.06
28 0.54
29 0.36
3 -0.65
31 0.66
32 0.06
33 0.66
34 0.66
4 -0.57
42 0.37
43 0.15
44 0.15
47 0.15
48 0.15
5 -0.57
54 0.37
57 0.5
58 0.5
59 0.5
6 -0.65
7 -0.57
8 -0.65
9 -0.57

> <PUBCHEM_EFFECTIVE_ROTOR_COUNT>
15

> <PUBCHEM_PHARMACOPHORE_FEATURES>
17
1 10 acceptor
1 11 acceptor
1 13 donor
1 14 donor
1 2 acceptor
1 3 acceptor
1 4 acceptor
1 5 acceptor
1 6 acceptor
1 7 acceptor
1 8 acceptor
1 9 acceptor
3 10 11 34 anion
3 6 7 31 anion
3 8 9 33 anion
5 12 15 16 17 18 rings
6 20 21 22 24 25 26 rings

> <PUBCHEM_HEAVY_ATOM_COUNT>
34

> <PUBCHEM_ATOM_DEF_STEREO_COUNT>
0

> <PUBCHEM_ATOM_UDEF_STEREO_COUNT>
2

> <PUBCHEM_BOND_DEF_STEREO_COUNT>
0

> <PUBCHEM_BOND_UDEF_STEREO_COUNT>
0

> <PUBCHEM_ISOTOPIC_ATOM_COUNT>
0

> <PUBCHEM_COMPONENT_COUNT>
1

> <PUBCHEM_CACTVS_TAUTO_COUNT>
4

> <PUBCHEM_CONFORMER_ID>
000010E600000005

> <PUBCHEM_MMFF94_ENERGY>
54.7752

> <PUBCHEM_FEATURE_SELFOVERLAP>
86.459

> <PUBCHEM_SHAPE_FINGERPRINT>
10 15 14908185240183682463
10670039 82 18273216387440998573
11720765 8 18336540518181921080
1200032 147 17060049376261845544
12166972 35 17385724656063617386
12373685 5 9223231845724280339
13627167 48 17918000507392528437
13761468 95 18115858763531632025
13782708 43 4895561770572973886
14068700 675 17022895749257525770
15064981 194 18201444641326537743
15183329 4 18261661607001827054
15238133 3 18272660030346526160
19377110 9 12175626148437505323
21223535 225 18342177808126874437
21458453 9 8934710068287965244
23559900 14 17989208105606202082
249057 25 18199210471994698851
2838139 119 18412823564799490309
38570 142 17775560948935010425
397830 11 9583526390833506546
4058900 60 17418092109258086338
4340502 62 10231758890364753242
437795 51 12751225996432342894
4394409 98 16877939455886789879
504579 68 18340778087286285167
508180 173 18334289864232811849
513532 50 17823146631386011296
6086070 43 17967533471500244737
9689198 14 14692568806420930254

> <PUBCHEM_SHAPE_MULTIPOLES>
629.92
20.28
3.43
2.44
8.35
3.09
0.11
3.98
13.26
2.63
-0.39
-0.37
-0.88
-0.82

> <PUBCHEM_SHAPE_SELFOVERLAP>
1294.119

> <PUBCHEM_SHAPE_VOLUME>
360.7

> <PUBCHEM_COORDINATE_TYPE>
2
5
10

$$$$

