14037
  -OEChem-06241222413D

 50 49  0     0  0  0  0  0  0999 V2000
   -2.1918   -0.3539    0.5651 O   0  0  0  0  0  0  0  0  0  0  0  0
    2.1924   -0.3551   -0.5691 O   0  0  0  0  0  0  0  0  0  0  0  0
   -2.4602    0.3457   -0.6831 O   0  0  0  0  0  0  0  0  0  0  0  0
    2.4614    0.3454    0.6786 O   0  0  0  0  0  0  0  0  0  0  0  0
   -2.6264   -1.6880    0.3452 C   0  0  0  0  0  0  0  0  0  0  0  0
    2.6266   -1.6891   -0.3483 C   0  0  0  0  0  0  0  0  0  0  0  0
   -2.0221    1.6863   -0.4584 C   0  0  0  0  0  0  0  0  0  0  0  0
    2.0238    1.6861    0.4529 C   0  0  0  0  0  0  0  0  0  0  0  0
   -1.8300   -2.2729   -0.8203 C   0  0  0  0  0  0  0  0  0  0  0  0
   -2.3608   -2.4756    1.6264 C   0  0  0  0  0  0  0  0  0  0  0  0
   -4.1209   -1.6667    0.0276 C   0  0  0  0  0  0  0  0  0  0  0  0
    1.8305   -2.2728    0.8180 C   0  0  0  0  0  0  0  0  0  0  0  0
    2.3603   -2.4775   -1.6287 C   0  0  0  0  0  0  0  0  0  0  0  0
    4.1212   -1.6681   -0.0313 C   0  0  0  0  0  0  0  0  0  0  0  0
   -2.8283    2.2391    0.7154 C   0  0  0  0  0  0  0  0  0  0  0  0
   -2.2875    2.5028   -1.7228 C   0  0  0  0  0  0  0  0  0  0  0  0
    2.8346    2.2746   -0.7014 C   0  0  0  0  0  0  0  0  0  0  0  0
    2.2756    2.4707    1.7391 C   0  0  0  0  0  0  0  0  0  0  0  0
   -0.5852    1.6845   -0.1344 C   0  0  0  0  0  0  0  0  0  0  0  0
    0.5868    1.6845    0.1294 C   0  0  0  0  0  0  0  0  0  0  0  0
   -0.7639   -2.0682   -0.7193 H   0  0  0  0  0  0  0  0  0  0  0  0
   -1.9751   -3.3557   -0.8979 H   0  0  0  0  0  0  0  0  0  0  0  0
   -2.1315   -1.8385   -1.7806 H   0  0  0  0  0  0  0  0  0  0  0  0
   -2.9004   -2.0340    2.4722 H   0  0  0  0  0  0  0  0  0  0  0  0
   -1.2986   -2.4475    1.8919 H   0  0  0  0  0  0  0  0  0  0  0  0
   -2.6668   -3.5223    1.5301 H   0  0  0  0  0  0  0  0  0  0  0  0
   -4.3425   -1.1632   -0.9197 H   0  0  0  0  0  0  0  0  0  0  0  0
   -4.5240   -2.6830   -0.0408 H   0  0  0  0  0  0  0  0  0  0  0  0
   -4.6756   -1.1280    0.8047 H   0  0  0  0  0  0  0  0  0  0  0  0
    0.7643   -2.0679    0.7173 H   0  0  0  0  0  0  0  0  0  0  0  0
    1.9751   -3.3557    0.8964 H   0  0  0  0  0  0  0  0  0  0  0  0
    2.1324   -1.8378    1.7779 H   0  0  0  0  0  0  0  0  0  0  0  0
    2.8997   -2.0369   -2.4751 H   0  0  0  0  0  0  0  0  0  0  0  0
    1.2981   -2.4493   -1.8939 H   0  0  0  0  0  0  0  0  0  0  0  0
    2.6659   -3.5244   -1.5317 H   0  0  0  0  0  0  0  0  0  0  0  0
    4.3433   -1.1640    0.9158 H   0  0  0  0  0  0  0  0  0  0  0  0
    4.5240   -2.6845    0.0379 H   0  0  0  0  0  0  0  0  0  0  0  0
    4.6758   -1.1302   -0.8089 H   0  0  0  0  0  0  0  0  0  0  0  0
   -2.6318    3.3078    0.8624 H   0  0  0  0  0  0  0  0  0  0  0  0
   -3.9038    2.1094    0.5469 H   0  0  0  0  0  0  0  0  0  0  0  0
   -2.5948    1.7430    1.6649 H   0  0  0  0  0  0  0  0  0  0  0  0
   -1.7505    2.0796   -2.5803 H   0  0  0  0  0  0  0  0  0  0  0  0
   -3.3520    2.4834   -1.9830 H   0  0  0  0  0  0  0  0  0  0  0  0
   -1.9753    3.5467   -1.6084 H   0  0  0  0  0  0  0  0  0  0  0  0
    2.6179    3.3406   -0.8371 H   0  0  0  0  0  0  0  0  0  0  0  0
    2.6233    1.7819   -1.6577 H   0  0  0  0  0  0  0  0  0  0  0  0
    3.9097    2.1623   -0.5197 H   0  0  0  0  0  0  0  0  0  0  0  0
    3.3381    2.4492    2.0078 H   0  0  0  0  0  0  0  0  0  0  0  0
    1.9611    3.5163    1.6481 H   0  0  0  0  0  0  0  0  0  0  0  0
    1.7335    2.0258    2.5825 H   0  0  0  0  0  0  0  0  0  0  0  0
  1  3  1  0  0  0  0
  1  5  1  0  0  0  0
  2  4  1  0  0  0  0
  2  6  1  0  0  0  0
  3  7  1  0  0  0  0
  4  8  1  0  0  0  0
  5  9  1  0  0  0  0
  5 10  1  0  0  0  0
  5 11  1  0  0  0  0
  6 12  1  0  0  0  0
  6 13  1  0  0  0  0
  6 14  1  0  0  0  0
  7 15  1  0  0  0  0
  7 16  1  0  0  0  0
  7 19  1  0  0  0  0
  8 17  1  0  0  0  0
  8 18  1  0  0  0  0
  8 20  1  0  0  0  0
  9 21  1  0  0  0  0
  9 22  1  0  0  0  0
  9 23  1  0  0  0  0
 10 24  1  0  0  0  0
 10 25  1  0  0  0  0
 10 26  1  0  0  0  0
 11 27  1  0  0  0  0
 11 28  1  0  0  0  0
 11 29  1  0  0  0  0
 12 30  1  0  0  0  0
 12 31  1  0  0  0  0
 12 32  1  0  0  0  0
 13 33  1  0  0  0  0
 13 34  1  0  0  0  0
 13 35  1  0  0  0  0
 14 36  1  0  0  0  0
 14 37  1  0  0  0  0
 14 38  1  0  0  0  0
 15 39  1  0  0  0  0
 15 40  1  0  0  0  0
 15 41  1  0  0  0  0
 16 42  1  0  0  0  0
 16 43  1  0  0  0  0
 16 44  1  0  0  0  0
 17 45  1  0  0  0  0
 17 46  1  0  0  0  0
 17 47  1  0  0  0  0
 18 48  1  0  0  0  0
 18 49  1  0  0  0  0
 18 50  1  0  0  0  0
 19 20  3  0  0  0  0
M  END
> <PUBCHEM_COMPOUND_CID>
14037

> <PUBCHEM_CONFORMER_RMSD>
0.8

> <PUBCHEM_CONFORMER_DIVERSEORDER>
2
3
4
5
6
1

> <PUBCHEM_MMFF94_PARTIAL_CHARGES>
10
1 -0.28
19 -0.2
2 -0.28
20 -0.2
3 -0.28
4 -0.28
5 0.28
6 0.28
7 0.48
8 0.48

> <PUBCHEM_EFFECTIVE_ROTOR_COUNT>
6

> <PUBCHEM_PHARMACOPHORE_FEATURES>
4
3 7 15 16 hydrophobe
3 8 17 18 hydrophobe
4 5 9 10 11 hydrophobe
4 6 12 13 14 hydrophobe

> <PUBCHEM_HEAVY_ATOM_COUNT>
20

> <PUBCHEM_ATOM_DEF_STEREO_COUNT>
0

> <PUBCHEM_ATOM_UDEF_STEREO_COUNT>
0

> <PUBCHEM_BOND_DEF_STEREO_COUNT>
0

> <PUBCHEM_BOND_UDEF_STEREO_COUNT>
0

> <PUBCHEM_ISOTOPIC_ATOM_COUNT>
0

> <PUBCHEM_COMPONENT_COUNT>
1

> <PUBCHEM_CACTVS_TAUTO_COUNT>
1

> <PUBCHEM_CONFORMER_ID>
000036D500000002

> <PUBCHEM_MMFF94_ENERGY>
44.3393

> <PUBCHEM_FEATURE_SELFOVERLAP>
20.297

> <PUBCHEM_SHAPE_FINGERPRINT>
10616163 171 18339075965259755093
11322862 65 18270967955066159701
12553582 1 17975697508803434768
12633257 1 18189037841521242347
13140716 1 18336830887112164280
13533116 47 18259702290361405761
14022347 108 17758380152222820574
14178342 30 18336836298787424800
1420 336 18265898145067145739
14223421 5 18410296869577264388
14251705 54 18339922597802927746
14251745 187 18342736278460762066
14251757 17 17912121375996081887
15422964 175 17983287136964732915
15635459 17 18337669707220991359
15664445 248 17913188894048830181
17093844 170 18269841912871306969
20600515 1 17975411631696300980
20905425 154 18336824178573688454
21285901 2 18128554677983090015
23184049 29 18411421730096720606
23558518 356 18412827992995330817
23559900 14 18412271622520629837
2748010 2 18410581677438040853
2871803 45 18339642213747949460
598444 67 18197772413558593741
81228 2 18272934882541941393
8809292 202 18339642368519720210
9709674 26 18411708659950851133
9981440 41 17247289519219120465

> <PUBCHEM_SHAPE_MULTIPOLES>
388.11
6.77
4.21
1.42
0
0
0.01
-2.4
0
0.01
-0.02
0
0.08
1.64

> <PUBCHEM_SHAPE_SELFOVERLAP>
747.335

> <PUBCHEM_SHAPE_VOLUME>
240.7

> <PUBCHEM_COORDINATE_TYPE>
2
5
10

$$$$

