6337211
  -OEChem-07051212543D

 41 43  0     1  0  0  0  0  0999 V2000
   -4.3201   -1.3489   -0.5920 O   0  0  0  0  0  0  0  0  0  0  0  0
    0.9058    0.7679    2.5638 N   0  0  0  0  0  0  0  0  0  0  0  0
    0.4390   -0.8235    0.6624 C   0  0  2  0  0  0  0  0  0  0  0  0
    1.3736    0.2939    1.2415 C   0  0  1  0  0  0  0  0  0  0  0  0
    1.4829    1.5233    0.3185 C   0  0  2  0  0  0  0  0  0  0  0  0
    1.0302   -1.5421   -0.5978 C   0  0  0  0  0  0  0  0  0  0  0  0
    0.0941    2.1502    0.0998 C   0  0  0  0  0  0  0  0  0  0  0  0
   -0.9072   -0.2168    0.2147 C   0  0  0  0  0  0  0  0  0  0  0  0
    2.2008    1.3149   -1.0319 C   0  0  0  0  0  0  0  0  0  0  0  0
   -1.0319    1.1589   -0.0831 C   0  0  0  0  0  0  0  0  0  0  0  0
    2.5261   -1.8707   -0.5655 C   0  0  0  0  0  0  0  0  0  0  0  0
    0.2397   -1.9168    1.7543 C   0  0  0  0  0  0  0  0  0  0  0  0
    3.5034    0.5149   -0.9590 C   0  0  0  0  0  0  0  0  0  0  0  0
    3.3886   -0.9392   -1.4202 C   0  0  0  0  0  0  0  0  0  0  0  0
   -2.0335   -1.0429    0.0221 C   0  0  0  0  0  0  0  0  0  0  0  0
   -2.2695    1.6676   -0.5202 C   0  0  0  0  0  0  0  0  0  0  0  0
   -3.2514   -0.5236   -0.4197 C   0  0  0  0  0  0  0  0  0  0  0  0
   -3.3707    0.8329   -0.6880 C   0  0  0  0  0  0  0  0  0  0  0  0
    2.3719   -0.1070    1.4327 H   0  0  0  0  0  0  0  0  0  0  0  0
    2.0916    2.2762    0.8433 H   0  0  0  0  0  0  0  0  0  0  0  0
    0.7890   -1.0005   -1.5192 H   0  0  0  0  0  0  0  0  0  0  0  0
    0.4949   -2.4948   -0.7277 H   0  0  0  0  0  0  0  0  0  0  0  0
    0.1282    2.8289   -0.7624 H   0  0  0  0  0  0  0  0  0  0  0  0
   -0.1567    2.7714    0.9703 H   0  0  0  0  0  0  0  0  0  0  0  0
    2.4582    2.3182   -1.4020 H   0  0  0  0  0  0  0  0  0  0  0  0
    1.5300    0.9136   -1.7969 H   0  0  0  0  0  0  0  0  0  0  0  0
    2.6479   -2.8782   -0.9864 H   0  0  0  0  0  0  0  0  0  0  0  0
    2.9168   -1.9380    0.4542 H   0  0  0  0  0  0  0  0  0  0  0  0
    1.2002   -2.2214    2.1855 H   0  0  0  0  0  0  0  0  0  0  0  0
   -0.4050   -1.5686    2.5695 H   0  0  0  0  0  0  0  0  0  0  0  0
   -0.2258   -2.8259    1.3575 H   0  0  0  0  0  0  0  0  0  0  0  0
    3.9568    0.5714    0.0365 H   0  0  0  0  0  0  0  0  0  0  0  0
    4.2227    0.9982   -1.6341 H   0  0  0  0  0  0  0  0  0  0  0  0
    3.0279   -0.9616   -2.4566 H   0  0  0  0  0  0  0  0  0  0  0  0
    4.4027   -1.3589   -1.4482 H   0  0  0  0  0  0  0  0  0  0  0  0
    1.0241    0.0306    3.2567 H   0  0  0  0  0  0  0  0  0  0  0  0
   -0.0913    0.9736    2.5374 H   0  0  0  0  0  0  0  0  0  0  0  0
   -1.9707   -2.1128    0.2034 H   0  0  0  0  0  0  0  0  0  0  0  0
   -2.3778    2.7292   -0.7321 H   0  0  0  0  0  0  0  0  0  0  0  0
   -4.3120    1.2540   -1.0300 H   0  0  0  0  0  0  0  0  0  0  0  0
   -5.0776   -0.8236   -0.9025 H   0  0  0  0  0  0  0  0  0  0  0  0
  1 17  1  0  0  0  0
  1 41  1  0  0  0  0
  2  4  1  0  0  0  0
  2 36  1  0  0  0  0
  2 37  1  0  0  0  0
  3  4  1  0  0  0  0
  3  6  1  0  0  0  0
  3  8  1  0  0  0  0
  3 12  1  0  0  0  0
  4  5  1  0  0  0  0
  4 19  1  0  0  0  0
  5  7  1  0  0  0  0
  5  9  1  0  0  0  0
  5 20  1  0  0  0  0
  6 11  1  0  0  0  0
  6 21  1  0  0  0  0
  6 22  1  0  0  0  0
  7 10  1  0  0  0  0
  7 23  1  0  0  0  0
  7 24  1  0  0  0  0
  8 10  2  0  0  0  0
  8 15  1  0  0  0  0
  9 13  1  0  0  0  0
  9 25  1  0  0  0  0
  9 26  1  0  0  0  0
 10 16  1  0  0  0  0
 11 14  1  0  0  0  0
 11 27  1  0  0  0  0
 11 28  1  0  0  0  0
 12 29  1  0  0  0  0
 12 30  1  0  0  0  0
 12 31  1  0  0  0  0
 13 14  1  0  0  0  0
 13 32  1  0  0  0  0
 13 33  1  0  0  0  0
 14 34  1  0  0  0  0
 14 35  1  0  0  0  0
 15 17  2  0  0  0  0
 15 38  1  0  0  0  0
 16 18  2  0  0  0  0
 16 39  1  0  0  0  0
 17 18  1  0  0  0  0
 18 40  1  0  0  0  0
M  END
> <PUBCHEM_COMPOUND_CID>
6337211

> <PUBCHEM_CONFORMER_RMSD>
0.6

> <PUBCHEM_CONFORMER_DIVERSEORDER>
1
2

> <PUBCHEM_MMFF94_PARTIAL_CHARGES>
17
1 -0.53
10 -0.14
15 -0.15
16 -0.15
17 0.08
18 -0.15
2 -0.99
3 0.14
36 0.36
37 0.36
38 0.15
39 0.15
4 0.27
40 0.15
41 0.45
7 0.14
8 -0.14

> <PUBCHEM_EFFECTIVE_ROTOR_COUNT>
1.4

> <PUBCHEM_PHARMACOPHORE_FEATURES>
5
1 1 donor
1 2 cation
1 2 donor
6 3 4 5 7 8 10 rings
6 8 10 15 16 17 18 rings

> <PUBCHEM_HEAVY_ATOM_COUNT>
18

> <PUBCHEM_ATOM_DEF_STEREO_COUNT>
3

> <PUBCHEM_ATOM_UDEF_STEREO_COUNT>
0

> <PUBCHEM_BOND_DEF_STEREO_COUNT>
0

> <PUBCHEM_BOND_UDEF_STEREO_COUNT>
0

> <PUBCHEM_ISOTOPIC_ATOM_COUNT>
0

> <PUBCHEM_COMPONENT_COUNT>
1

> <PUBCHEM_CACTVS_TAUTO_COUNT>
3

> <PUBCHEM_CONFORMER_ID>
0060B2BB00000001

> <PUBCHEM_MMFF94_ENERGY>
62.5529

> <PUBCHEM_FEATURE_SELFOVERLAP>
25.391

> <PUBCHEM_SHAPE_FINGERPRINT>
10062212 137 18340206409416180662
10498660 4 17846506954224485829
10863032 1 18338793519789156492
11578080 2 16588875723035751824
12138202 97 17559656370576098914
12400797 292 18196926893243100206
12423570 1 6621629119962654818
12778500 126 17315041443698897715
12892183 10 9294417492064329222
13299463 15 18335128795983550220
14251745 187 18338232652852688310
144361 1 18411977000806865768
14790565 3 17760075616397017493
15775835 57 16343984676367161852
16945 1 18119240907761815900
1813 80 14923936873558667748
18186145 218 17846770845209330390
19765921 60 17488449965677628536
200 152 17676476290130089150
20361792 2 15792015618402419140
20645476 183 17059777693757490426
20691752 17 17917991710877382509
21501502 16 18337667624087597117
22112679 90 17481713369882989242
22802520 49 18267572529424504026
2334 1 18340497728779518137
23382010 3 17989193846293420390
23402539 116 18271810150865761748
23419403 2 15725012200545430032
23493267 7 17632856404365787841
23557571 272 17462012269208173426
23559900 14 17901112142198105958
2748010 2 17476634278802591937
2871803 45 18343026558363159127
3060560 45 17846227617703488855
3286 77 17385723560830878925
3323516 105 18335978692543755493
353137 74 18199178675745092780
5262128 65 18190440831274822228
6786 2 15654120084078951201
7364860 26 18188217498172409201
84936 31 16443648830009513050

> <PUBCHEM_SHAPE_MULTIPOLES>
359.58
5.61
2.21
1.52
2.62
0.04
-0.89
-0.89
3.18
-0.17
-0.06
-0.86
-0.17
0.19

> <PUBCHEM_SHAPE_SELFOVERLAP>
763.371

> <PUBCHEM_SHAPE_VOLUME>
197.9

> <PUBCHEM_COORDINATE_TYPE>
2
5
10

$$$$

