10222
  -OEChem-06261204233D

 36 38  0     0  0  0  0  0  0999 V2000
    0.0387   -0.5487    0.0005 C   0  0  0  0  0  0  0  0  0  0  0  0
    4.3602   -0.2028   -0.0007 C   0  0  0  0  0  0  0  0  0  0  0  0
    2.8747   -0.3256    0.0004 C   0  0  0  0  0  0  0  0  0  0  0  0
    0.6760    0.7195    0.0006 C   0  0  0  0  0  0  0  0  0  0  0  0
   -1.3998   -0.6115    0.0003 C   0  0  0  0  0  0  0  0  0  0  0  0
   -2.1458    0.5961    0.0002 C   0  0  0  0  0  0  0  0  0  0  0  0
    2.0780    0.8151    0.0004 C   0  0  0  0  0  0  0  0  0  0  0  0
    0.8847   -1.6862    0.0002 C   0  0  0  0  0  0  0  0  0  0  0  0
    2.2780   -1.5769    0.0000 C   0  0  0  0  0  0  0  0  0  0  0  0
   -0.0925    1.8863    0.0007 C   0  0  0  0  0  0  0  0  0  0  0  0
   -1.4822    1.8255    0.0003 C   0  0  0  0  0  0  0  0  0  0  0  0
   -3.5511    0.5685   -0.0002 C   0  0  0  0  0  0  0  0  0  0  0  0
    4.8943    0.5042    1.2598 C   0  0  0  0  0  0  0  0  0  0  0  0
    4.8927    0.5055   -1.2611 C   0  0  0  0  0  0  0  0  0  0  0  0
   -2.1431   -1.8185   -0.0002 C   0  0  0  0  0  0  0  0  0  0  0  0
   -4.2448   -0.6377   -0.0004 C   0  0  0  0  0  0  0  0  0  0  0  0
   -3.5406   -1.8318   -0.0004 C   0  0  0  0  0  0  0  0  0  0  0  0
   -4.3773    1.8191   -0.0005 C   0  0  0  0  0  0  0  0  0  0  0  0
    4.7994   -1.2099   -0.0014 H   0  0  0  0  0  0  0  0  0  0  0  0
    2.5448    1.7989    0.0004 H   0  0  0  0  0  0  0  0  0  0  0  0
    0.4732   -2.6923    0.0000 H   0  0  0  0  0  0  0  0  0  0  0  0
    2.8768   -2.4839   -0.0004 H   0  0  0  0  0  0  0  0  0  0  0  0
    0.3837    2.8652    0.0008 H   0  0  0  0  0  0  0  0  0  0  0  0
   -2.0143    2.7734    0.0003 H   0  0  0  0  0  0  0  0  0  0  0  0
    4.5723    1.5499    1.3108 H   0  0  0  0  0  0  0  0  0  0  0  0
    5.9895    0.4917    1.2716 H   0  0  0  0  0  0  0  0  0  0  0  0
    4.5423    0.0002    2.1669 H   0  0  0  0  0  0  0  0  0  0  0  0
    4.5393    0.0026   -2.1682 H   0  0  0  0  0  0  0  0  0  0  0  0
    5.9879    0.4928   -1.2745 H   0  0  0  0  0  0  0  0  0  0  0  0
    4.5709    1.5513   -1.3104 H   0  0  0  0  0  0  0  0  0  0  0  0
   -1.6453   -2.7847   -0.0003 H   0  0  0  0  0  0  0  0  0  0  0  0
   -5.3309   -0.6662   -0.0005 H   0  0  0  0  0  0  0  0  0  0  0  0
   -4.0729   -2.7785   -0.0006 H   0  0  0  0  0  0  0  0  0  0  0  0
   -5.4516    1.6021   -0.0009 H   0  0  0  0  0  0  0  0  0  0  0  0
   -4.1756    2.4154    0.8958 H   0  0  0  0  0  0  0  0  0  0  0  0
   -4.1749    2.4154   -0.8964 H   0  0  0  0  0  0  0  0  0  0  0  0
  1  4  2  0  0  0  0
  1  5  1  0  0  0  0
  1  8  1  0  0  0  0
  2  3  1  0  0  0  0
  2 13  1  0  0  0  0
  2 14  1  0  0  0  0
  2 19  1  0  0  0  0
  3  7  2  0  0  0  0
  3  9  1  0  0  0  0
  4  7  1  0  0  0  0
  4 10  1  0  0  0  0
  5  6  1  0  0  0  0
  5 15  2  0  0  0  0
  6 11  1  0  0  0  0
  6 12  2  0  0  0  0
  7 20  1  0  0  0  0
  8  9  2  0  0  0  0
  8 21  1  0  0  0  0
  9 22  1  0  0  0  0
 10 11  2  0  0  0  0
 10 23  1  0  0  0  0
 11 24  1  0  0  0  0
 12 16  1  0  0  0  0
 12 18  1  0  0  0  0
 13 25  1  0  0  0  0
 13 26  1  0  0  0  0
 13 27  1  0  0  0  0
 14 28  1  0  0  0  0
 14 29  1  0  0  0  0
 14 30  1  0  0  0  0
 15 17  1  0  0  0  0
 15 31  1  0  0  0  0
 16 17  2  0  0  0  0
 16 32  1  0  0  0  0
 17 33  1  0  0  0  0
 18 34  1  0  0  0  0
 18 35  1  0  0  0  0
 18 36  1  0  0  0  0
M  END
> <PUBCHEM_COMPOUND_CID>
10222

> <PUBCHEM_CONFORMER_RMSD>
0.6

> <PUBCHEM_CONFORMER_DIVERSEORDER>
1
2

> <PUBCHEM_MMFF94_PARTIAL_CHARGES>
20
10 -0.15
11 -0.15
12 -0.14
15 -0.15
16 -0.15
17 -0.15
18 0.14
2 0.14
20 0.15
21 0.15
22 0.15
23 0.15
24 0.15
3 -0.14
31 0.15
32 0.15
33 0.15
7 -0.15
8 -0.15
9 -0.15

> <PUBCHEM_EFFECTIVE_ROTOR_COUNT>
1

> <PUBCHEM_PHARMACOPHORE_FEATURES>
4
3 2 13 14 hydrophobe
6 1 3 4 7 8 9 rings
6 1 4 5 6 10 11 rings
6 5 6 12 15 16 17 rings

> <PUBCHEM_HEAVY_ATOM_COUNT>
18

> <PUBCHEM_ATOM_DEF_STEREO_COUNT>
0

> <PUBCHEM_ATOM_UDEF_STEREO_COUNT>
0

> <PUBCHEM_BOND_DEF_STEREO_COUNT>
0

> <PUBCHEM_BOND_UDEF_STEREO_COUNT>
0

> <PUBCHEM_ISOTOPIC_ATOM_COUNT>
0

> <PUBCHEM_COMPONENT_COUNT>
1

> <PUBCHEM_CACTVS_TAUTO_COUNT>
1

> <PUBCHEM_CONFORMER_ID>
000027EE00000001

> <PUBCHEM_MMFF94_ENERGY>
60.7879

> <PUBCHEM_FEATURE_SELFOVERLAP>
20.346

> <PUBCHEM_SHAPE_FINGERPRINT>
10062212 137 18343024363086380715
10319926 262 18263385693148438490
10411042 1 17762336911956152258
10493431 412 18263636441797614393
10498660 4 18410853282991446420
10616163 171 18409726253313201487
10967382 1 18266741479428784967
11132069 177 18410575097632422400
12236239 1 17918275351277142100
12390115 104 17898555721554736625
12403814 3 17561084726348363933
12839892 36 18267886002446290058
12954195 1 17897705773512368028
13140716 1 18338796693875808049
13214271 11 18334863809460207079
13221675 6 18410013251422403030
13675066 3 18040999505720924626
13760787 5 17203611480271960710
13862211 1 18338804420242489259
14790565 3 18339916001192714284
15196674 1 18410856594015612038
15375358 24 18333453165863889831
15536298 74 18335138751876303222
16945 1 18410856602758416997
17804303 29 18335419032677967305
1813 80 17346875671679969846
200 152 17967258585377541863
20510252 161 18116152349392606945
21029758 27 18200868479298950197
21267235 1 18338789036080974703
21421861 104 17700983390263429130
221490 88 18125434220464192867
2297311 6 18261097570163236556
23175994 123 17022896835382981321
23366157 5 17843406167999104964
23402539 116 18411427206253824254
23402655 69 18336549421020676829
23463225 33 18412825793634257327
23557571 272 18261660524179620614
23559900 14 18263925600259697366
2748010 2 18194127321869318493
296302 2 18411134761867251435
3312278 4 18409727378636415275
335352 9 18267022945377666095
34797466 226 17240761735959210956
34934 24 18339650035236829659
350125 39 18411976932762706665
3545911 37 18409164445620243943
4214541 1 18410856576925355169
4340502 62 16558458807901146497
43471831 8 18342181106778191882
474 4 16772377419537826140
4990 188 18040707087499918550
5104073 3 18338236067193687362
7364860 26 18191868911969401313
8809292 202 18200309910165036003
9709674 26 18409162233728437079

> <PUBCHEM_SHAPE_MULTIPOLES>
370.43
9.59
2.05
0.79
4.86
0.07
0
-0.93
0
-1.67
0
0.86
-0.09
0

> <PUBCHEM_SHAPE_SELFOVERLAP>
817.793

> <PUBCHEM_SHAPE_VOLUME>
187.5

> <PUBCHEM_COORDINATE_TYPE>
2
5
10

$$$$

