9100
  -OEChem-06261203242D

 20 21  0     0  0  0  0  0  0999 V2000
    2.3660   -1.4330    0.0000 O   0  0  0  0  0  0  0  0  0  0  0  0
    2.8660   -0.5670    0.0000 C   0  0  0  0  0  0  0  0  0  0  0  0
    2.0000   -0.0670    0.0000 C   0  0  0  0  0  0  0  0  0  0  0  0
    3.7320   -0.0670    0.0000 C   0  0  0  0  0  0  0  0  0  0  0  0
    3.3660   -1.4330    0.0000 C   0  0  0  0  0  0  0  0  0  0  0  0
    2.0000    0.9330    0.0000 C   0  0  0  0  0  0  0  0  0  0  0  0
    3.7320    0.9330    0.0000 C   0  0  0  0  0  0  0  0  0  0  0  0
    2.8660    1.4330    0.0000 C   0  0  0  0  0  0  0  0  0  0  0  0
    3.9441   -0.6496    0.0000 H   0  0  0  0  0  0  0  0  0  0  0  0
    4.3426    0.0407    0.0000 H   0  0  0  0  0  0  0  0  0  0  0  0
    1.3894    0.0407    0.0000 H   0  0  0  0  0  0  0  0  0  0  0  0
    1.7880   -0.6496    0.0000 H   0  0  0  0  0  0  0  0  0  0  0  0
    3.4737   -2.0436    0.0000 H   0  0  0  0  0  0  0  0  0  0  0  0
    3.9486   -1.2210    0.0000 H   0  0  0  0  0  0  0  0  0  0  0  0
    1.7880    1.5156    0.0000 H   0  0  0  0  0  0  0  0  0  0  0  0
    1.3894    0.8254    0.0000 H   0  0  0  0  0  0  0  0  0  0  0  0
    4.3426    0.8254    0.0000 H   0  0  0  0  0  0  0  0  0  0  0  0
    3.9441    1.5156    0.0000 H   0  0  0  0  0  0  0  0  0  0  0  0
    3.2646    1.9080    0.0000 H   0  0  0  0  0  0  0  0  0  0  0  0
    2.4675    1.9080    0.0000 H   0  0  0  0  0  0  0  0  0  0  0  0
  1  2  1  0  0  0  0
  1  5  1  0  0  0  0
  2  3  1  0  0  0  0
  2  4  1  0  0  0  0
  2  5  1  0  0  0  0
  3  6  1  0  0  0  0
  3 11  1  0  0  0  0
  3 12  1  0  0  0  0
  4  7  1  0  0  0  0
  4  9  1  0  0  0  0
  4 10  1  0  0  0  0
  5 13  1  0  0  0  0
  5 14  1  0  0  0  0
  6  8  1  0  0  0  0
  6 15  1  0  0  0  0
  6 16  1  0  0  0  0
  7  8  1  0  0  0  0
  7 17  1  0  0  0  0
  7 18  1  0  0  0  0
  8 19  1  0  0  0  0
  8 20  1  0  0  0  0
M  END
> <PUBCHEM_COMPOUND_CID>
9100

> <PUBCHEM_COMPOUND_CANONICALIZED>
1

> <PUBCHEM_CACTVS_COMPLEXITY>
92.6

> <PUBCHEM_CACTVS_HBOND_ACCEPTOR>
1

> <PUBCHEM_CACTVS_HBOND_DONOR>
0

> <PUBCHEM_CACTVS_ROTATABLE_BOND>
0

> <PUBCHEM_CACTVS_SUBSKEYS>
AAADccBgIAAAAAAAAAAAAAAAEgAAAAAAAAAwAAAAAAAAAAAAAAAAGgAAAAAADESggAIAAAAABAAAAAAAAAAAAAAAAAAAAAAAAAAAAAIAAAAAAAAEAAAAAAGAwCAOAAAAAAAAAAAAAAAAAAAAAAAAAAAAAA==

> <PUBCHEM_IUPAC_OPENEYE_NAME>
1-oxaspiro[2.5]octane

> <PUBCHEM_IUPAC_CAS_NAME>
1-oxaspiro[2.5]octane

> <PUBCHEM_IUPAC_NAME>
1-oxaspiro[2.5]octane

> <PUBCHEM_IUPAC_SYSTEMATIC_NAME>
1-oxaspiro[2.5]octane

> <PUBCHEM_IUPAC_TRADITIONAL_NAME>
1-oxaspiro[2.5]octane

> <PUBCHEM_IUPAC_INCHI>
InChI=1S/C7H12O/c1-2-4-7(5-3-1)6-8-7/h1-6H2

> <PUBCHEM_IUPAC_INCHIKEY>
VUEWYZJJYGPJDC-UHFFFAOYSA-N

> <PUBCHEM_XLOGP3_AA>
1.5

> <PUBCHEM_EXACT_MASS>
112.088815

> <PUBCHEM_MOLECULAR_FORMULA>
C7H12O

> <PUBCHEM_MOLECULAR_WEIGHT>
112.16958

> <PUBCHEM_OPENEYE_CAN_SMILES>
C1CCC2(CC1)CO2

> <PUBCHEM_OPENEYE_ISO_SMILES>
C1CCC2(CC1)CO2

> <PUBCHEM_CACTVS_TPSA>
12.5

> <PUBCHEM_MONOISOTOPIC_WEIGHT>
112.088815

> <PUBCHEM_TOTAL_CHARGE>
0

> <PUBCHEM_HEAVY_ATOM_COUNT>
8

> <PUBCHEM_ATOM_DEF_STEREO_COUNT>
0

> <PUBCHEM_ATOM_UDEF_STEREO_COUNT>
0

> <PUBCHEM_BOND_DEF_STEREO_COUNT>
0

> <PUBCHEM_BOND_UDEF_STEREO_COUNT>
0

> <PUBCHEM_ISOTOPIC_ATOM_COUNT>
0

> <PUBCHEM_COMPONENT_COUNT>
1

> <PUBCHEM_CACTVS_TAUTO_COUNT>
1

> <PUBCHEM_COORDINATE_TYPE>
1
5
255

$$$$

