5275
  -OEChem-06261200373D

 39 40  0     0  0  0  0  0  0999 V2000
    6.3181    2.6088    0.3802 O   0  0  0  0  0  0  0  0  0  0  0  0
   -5.7815    1.4976    0.3311 O   0  0  0  0  0  0  0  0  0  0  0  0
    4.8571    2.2282   -1.3185 O   0  0  0  0  0  0  0  0  0  0  0  0
    1.4740   -1.1802    0.4305 N   0  3  0  0  0  0  0  0  0  0  0  0
    0.1750   -0.4853    0.5493 N   0  0  0  0  0  0  0  0  0  0  0  0
    2.8794   -2.9366   -0.3371 N   0  0  0  0  0  0  0  0  0  0  0  0
    2.6245   -0.5504    1.1154 C   0  0  0  0  0  0  0  0  0  0  0  0
    3.3098    0.4199    0.1573 C   0  0  0  0  0  0  0  0  0  0  0  0
    4.5009    1.1221    0.7993 C   0  0  0  0  0  0  0  0  0  0  0  0
    1.6209   -2.3062   -0.2485 C   0  0  0  0  0  0  0  0  0  0  0  0
   -0.8384   -1.0948   -0.0885 C   0  0  0  0  0  0  0  0  0  0  0  0
   -2.1124   -0.4259    0.0205 C   0  0  0  0  0  0  0  0  0  0  0  0
    0.5307   -2.8791   -0.8823 C   0  0  0  0  0  0  0  0  0  0  0  0
   -0.7129   -2.2704   -0.8033 C   0  0  0  0  0  0  0  0  0  0  0  0
   -2.9788   -0.7341    1.0717 C   0  0  0  0  0  0  0  0  0  0  0  0
   -2.4844    0.5320   -0.9257 C   0  0  0  0  0  0  0  0  0  0  0  0
    5.2189    2.0318   -0.1656 C   0  0  0  0  0  0  0  0  0  0  0  0
   -4.2106   -0.0880    1.1761 C   0  0  0  0  0  0  0  0  0  0  0  0
   -3.7161    1.1781   -0.8211 C   0  0  0  0  0  0  0  0  0  0  0  0
   -4.5793    0.8681    0.2298 C   0  0  0  0  0  0  0  0  0  0  0  0
   -6.0948    2.4643   -0.6706 C   0  0  0  0  0  0  0  0  0  0  0  0
    2.1967   -0.0008    1.9626 H   0  0  0  0  0  0  0  0  0  0  0  0
    3.2878   -1.3072    1.5397 H   0  0  0  0  0  0  0  0  0  0  0  0
    2.5833    1.1649   -0.1919 H   0  0  0  0  0  0  0  0  0  0  0  0
    3.6407   -0.1187   -0.7394 H   0  0  0  0  0  0  0  0  0  0  0  0
    4.1635    1.7244    1.6498 H   0  0  0  0  0  0  0  0  0  0  0  0
    5.2191    0.3751    1.1556 H   0  0  0  0  0  0  0  0  0  0  0  0
    0.6355   -3.8035   -1.4442 H   0  0  0  0  0  0  0  0  0  0  0  0
   -1.5646   -2.7241   -1.3024 H   0  0  0  0  0  0  0  0  0  0  0  0
   -2.7070   -1.4767    1.8184 H   0  0  0  0  0  0  0  0  0  0  0  0
   -1.8223    0.7851   -1.7508 H   0  0  0  0  0  0  0  0  0  0  0  0
    3.7076   -2.5287    0.0696 H   0  0  0  0  0  0  0  0  0  0  0  0
    2.9027   -3.9262   -0.5512 H   0  0  0  0  0  0  0  0  0  0  0  0
   -4.8790   -0.3337    1.9969 H   0  0  0  0  0  0  0  0  0  0  0  0
   -3.9392    1.9097   -1.5901 H   0  0  0  0  0  0  0  0  0  0  0  0
    6.7782    3.1958   -0.2569 H   0  0  0  0  0  0  0  0  0  0  0  0
   -7.0861    2.8649   -0.4343 H   0  0  0  0  0  0  0  0  0  0  0  0
   -6.1633    2.0072   -1.6635 H   0  0  0  0  0  0  0  0  0  0  0  0
   -5.3959    3.3074   -0.6489 H   0  0  0  0  0  0  0  0  0  0  0  0
  1 17  1  0  0  0  0
  1 36  1  0  0  0  0
  2 20  1  0  0  0  0
  2 21  1  0  0  0  0
  3 17  2  0  0  0  0
  4  5  1  0  0  0  0
  4  7  1  0  0  0  0
  4 10  2  0  0  0  0
  5 11  2  0  0  0  0
  6 10  1  0  0  0  0
  6 32  1  0  0  0  0
  6 33  1  0  0  0  0
  7  8  1  0  0  0  0
  7 22  1  0  0  0  0
  7 23  1  0  0  0  0
  8  9  1  0  0  0  0
  8 24  1  0  0  0  0
  8 25  1  0  0  0  0
  9 17  1  0  0  0  0
  9 26  1  0  0  0  0
  9 27  1  0  0  0  0
 10 13  1  0  0  0  0
 11 12  1  0  0  0  0
 11 14  1  0  0  0  0
 12 15  2  0  0  0  0
 12 16  1  0  0  0  0
 13 14  2  0  0  0  0
 13 28  1  0  0  0  0
 14 29  1  0  0  0  0
 15 18  1  0  0  0  0
 15 30  1  0  0  0  0
 16 19  2  0  0  0  0
 16 31  1  0  0  0  0
 18 20  2  0  0  0  0
 18 34  1  0  0  0  0
 19 20  1  0  0  0  0
 19 35  1  0  0  0  0
 21 37  1  0  0  0  0
 21 38  1  0  0  0  0
 21 39  1  0  0  0  0
M  CHG  1   4   1
M  END
> <PUBCHEM_COMPOUND_CID>
5275

> <PUBCHEM_CONFORMER_RMSD>
0.8

> <PUBCHEM_CONFORMER_DIVERSEORDER>
1
8
24
29
10
23
25
2
21
28
20
19
15
31
26
9
11
4
14
22
27
32
7
6
17
18
16
3
30
5
12
13

> <PUBCHEM_MMFF94_PARTIAL_CHARGES>
28
1 -0.65
10 0.46
11 0.31
13 -0.15
14 -0.15
15 -0.15
16 -0.15
17 0.66
18 -0.15
19 -0.15
2 -0.36
20 0.08
21 0.28
28 0.15
29 0.15
3 -0.57
30 0.15
31 0.15
32 0.4
33 0.4
34 0.15
35 0.15
36 0.5
4 0.1
5 -0.26
6 -0.9
7 0.49
9 0.06

> <PUBCHEM_EFFECTIVE_ROTOR_COUNT>
6

> <PUBCHEM_PHARMACOPHORE_FEATURES>
9
1 1 acceptor
1 2 acceptor
1 3 acceptor
1 5 acceptor
1 6 donor
3 1 3 17 anion
3 4 6 10 cation
6 12 15 16 18 19 20 rings
6 4 5 10 11 13 14 rings

> <PUBCHEM_HEAVY_ATOM_COUNT>
21

> <PUBCHEM_ATOM_DEF_STEREO_COUNT>
0

> <PUBCHEM_ATOM_UDEF_STEREO_COUNT>
0

> <PUBCHEM_BOND_DEF_STEREO_COUNT>
0

> <PUBCHEM_BOND_UDEF_STEREO_COUNT>
0

> <PUBCHEM_ISOTOPIC_ATOM_COUNT>
0

> <PUBCHEM_COMPONENT_COUNT>
1

> <PUBCHEM_CACTVS_TAUTO_COUNT>
2

> <PUBCHEM_CONFORMER_ID>
0000149B00000001

> <PUBCHEM_MMFF94_ENERGY>
66.3756

> <PUBCHEM_FEATURE_SELFOVERLAP>
45.727

> <PUBCHEM_SHAPE_FINGERPRINT>
105312 117 18188770540105439550
10730089 43 18272653475720003597
11796584 16 6411015313946139972
12390115 104 18189043227041271506
12403259 118 17987796298205297932
12633257 1 15697717000421540588
12788726 201 18050584940513180162
12895836 83 18263647273293502832
12895837 130 17981601573150589420
13540713 5 18263386744851871222
13583140 156 17272594942356226267
14123256 34 10087648121620633200
14251764 38 18122627416476735289
14341114 328 16773791455440634772
14774955 27 18410298033856189125
15342168 16 18408609179616574975
15475509 8 5184346296943810603
15961568 22 18201999945320502213
17834072 32 18337956680109073876
17980427 23 17917991638353478183
1813 80 16736912967651359238
18785283 64 18340209708320809750
204376 136 18335140877537078547
20612939 158 18042123313678403514
21033648 29 16988003928992609581
21344244 78 14476953523931160791
21756936 100 17986676961799541072
22849339 104 15358281298634202893
23559900 14 17630873001364738679
270888 7 18410859828537721976
2838139 119 18410301285146743972
312425 54 16200155403985152768
3472631 163 18335700477969949228
474 4 18261115226731943107
5104073 3 18130781317788522219
5718773 13 9367337124989435281
6327066 14 18410017598167047364
633830 44 18340775961056433527
77188 2 17617377724684572822
7808743 9 18338239245896435208
9999458 23 18268429216603213702

> <PUBCHEM_SHAPE_MULTIPOLES>
399.62
13.75
3.31
1.1
1.21
0.67
-0.03
-16.68
-0.25
3.26
1.07
-0.18
-0.03
0.51

> <PUBCHEM_SHAPE_SELFOVERLAP>
837.618

> <PUBCHEM_SHAPE_VOLUME>
225

> <PUBCHEM_COORDINATE_TYPE>
2
5
10

$$$$

