9762
  -OEChem-06261204022D

 16 15  0     0  0  0  0  0  0999 V2000
    2.0000    0.6550    0.0000 F   0  0  0  0  0  0  0  0  0  0  0  0
    4.5981    0.1550    0.0000 C   0  0  0  0  0  0  0  0  0  0  0  0
    3.7320    0.6550    0.0000 C   0  0  0  0  0  0  0  0  0  0  0  0
    5.4641    0.6550    0.0000 C   0  0  0  0  0  0  0  0  0  0  0  0
    2.8660    0.1550    0.0000 C   0  0  0  0  0  0  0  0  0  0  0  0
    6.3301    0.1550    0.0000 C   0  0  0  0  0  0  0  0  0  0  0  0
    7.1962   -0.3450    0.0000 C   0  0  0  0  0  0  0  0  0  0  0  0
    4.1996   -0.3199    0.0000 H   0  0  0  0  0  0  0  0  0  0  0  0
    4.9966   -0.3199    0.0000 H   0  0  0  0  0  0  0  0  0  0  0  0
    4.1306    1.1300    0.0000 H   0  0  0  0  0  0  0  0  0  0  0  0
    3.3335    1.1300    0.0000 H   0  0  0  0  0  0  0  0  0  0  0  0
    5.8626    1.1300    0.0000 H   0  0  0  0  0  0  0  0  0  0  0  0
    5.0656    1.1300    0.0000 H   0  0  0  0  0  0  0  0  0  0  0  0
    2.4675   -0.3199    0.0000 H   0  0  0  0  0  0  0  0  0  0  0  0
    3.2646   -0.3199    0.0000 H   0  0  0  0  0  0  0  0  0  0  0  0
    7.7331   -0.6550    0.0000 H   0  0  0  0  0  0  0  0  0  0  0  0
  1  5  1  0  0  0  0
  2  3  1  0  0  0  0
  2  4  1  0  0  0  0
  2  8  1  0  0  0  0
  2  9  1  0  0  0  0
  3  5  1  0  0  0  0
  3 10  1  0  0  0  0
  3 11  1  0  0  0  0
  4  6  1  0  0  0  0
  4 12  1  0  0  0  0
  4 13  1  0  0  0  0
  5 14  1  0  0  0  0
  5 15  1  0  0  0  0
  6  7  3  0  0  0  0
  7 16  1  0  0  0  0
M  END
> <PUBCHEM_COMPOUND_CID>
9762

> <PUBCHEM_COMPOUND_CANONICALIZED>
1

> <PUBCHEM_CACTVS_COMPLEXITY>
67.5

> <PUBCHEM_CACTVS_HBOND_ACCEPTOR>
1

> <PUBCHEM_CACTVS_HBOND_DONOR>
0

> <PUBCHEM_CACTVS_ROTATABLE_BOND>
3

> <PUBCHEM_CACTVS_SUBSKEYS>
AAADccBgAQAAAAAAAAAAAAAAAAAAAAAAAAAAAAAAAAAAAAAAAAAAGQAAAAAACACAAAAAAAAAAABAGAAAAAgAAAAAAAAAAAAAAAAAAAIAAAAAAAAAAAAAAAAAAAAAAAAAAAAAAAAAAAAAAAAAAAAAAAAAAA==

> <PUBCHEM_IUPAC_OPENEYE_NAME>
6-fluorohex-1-yne

> <PUBCHEM_IUPAC_CAS_NAME>
6-fluoro-1-hexyne

> <PUBCHEM_IUPAC_NAME>
6-fluorohex-1-yne

> <PUBCHEM_IUPAC_SYSTEMATIC_NAME>
6-fluoranylhex-1-yne

> <PUBCHEM_IUPAC_TRADITIONAL_NAME>
6-fluorohex-1-yne

> <PUBCHEM_IUPAC_INCHI>
InChI=1S/C6H9F/c1-2-3-4-5-6-7/h1H,3-6H2

> <PUBCHEM_IUPAC_INCHIKEY>
YDUGWJMUYOGFLN-UHFFFAOYSA-N

> <PUBCHEM_XLOGP3_AA>
1.9

> <PUBCHEM_EXACT_MASS>
100.068829

> <PUBCHEM_MOLECULAR_FORMULA>
C6H9F

> <PUBCHEM_MOLECULAR_WEIGHT>
100.134063

> <PUBCHEM_OPENEYE_CAN_SMILES>
C#CCCCCF

> <PUBCHEM_OPENEYE_ISO_SMILES>
C#CCCCCF

> <PUBCHEM_CACTVS_TPSA>
0

> <PUBCHEM_MONOISOTOPIC_WEIGHT>
100.068829

> <PUBCHEM_TOTAL_CHARGE>
0

> <PUBCHEM_HEAVY_ATOM_COUNT>
7

> <PUBCHEM_ATOM_DEF_STEREO_COUNT>
0

> <PUBCHEM_ATOM_UDEF_STEREO_COUNT>
0

> <PUBCHEM_BOND_DEF_STEREO_COUNT>
0

> <PUBCHEM_BOND_UDEF_STEREO_COUNT>
0

> <PUBCHEM_ISOTOPIC_ATOM_COUNT>
0

> <PUBCHEM_COMPONENT_COUNT>
1

> <PUBCHEM_CACTVS_TAUTO_COUNT>
1

> <PUBCHEM_COORDINATE_TYPE>
1
5
255

$$$$

