12891
  -OEChem-06261207303D

 33 34  0     0  0  0  0  0  0999 V2000
    3.3190   -0.0961    0.0000 O   0  0  0  0  0  0  0  0  0  0  0  0
    4.6762   -0.4510    0.0002 N   0  0  0  0  0  0  0  0  0  0  0  0
    6.7933    0.5330    0.0009 N   0  0  0  0  0  0  0  0  0  0  0  0
    4.9799    1.9244   -0.0002 N   0  0  0  0  0  0  0  0  0  0  0  0
   -1.6082   -0.2748   -0.0003 C   0  0  0  0  0  0  0  0  0  0  0  0
   -3.0140    0.0678    0.0002 C   0  0  0  0  0  0  0  0  0  0  0  0
    1.0931   -0.9344   -0.0006 C   0  0  0  0  0  0  0  0  0  0  0  0
   -0.9308   -0.4402   -1.2083 C   0  0  0  0  0  0  0  0  0  0  0  0
   -0.9305   -0.4403    1.2077 C   0  0  0  0  0  0  0  0  0  0  0  0
    0.4242   -0.7711   -1.2084 C   0  0  0  0  0  0  0  0  0  0  0  0
    0.4246   -0.7711    1.2076 C   0  0  0  0  0  0  0  0  0  0  0  0
    2.5509   -1.2899   -0.0003 C   0  0  0  0  0  0  0  0  0  0  0  0
   -3.4053    1.4067   -0.0004 C   0  0  0  0  0  0  0  0  0  0  0  0
   -3.9777   -0.9406    0.0007 C   0  0  0  0  0  0  0  0  0  0  0  0
   -4.7605    1.7371   -0.0002 C   0  0  0  0  0  0  0  0  0  0  0  0
   -5.3329   -0.6101    0.0008 C   0  0  0  0  0  0  0  0  0  0  0  0
   -5.7242    0.7290    0.0003 C   0  0  0  0  0  0  0  0  0  0  0  0
    5.4226    0.6216    0.0003 C   0  0  0  0  0  0  0  0  0  0  0  0
   -1.4439   -0.3144   -2.1589 H   0  0  0  0  0  0  0  0  0  0  0  0
   -1.4434   -0.3147    2.1584 H   0  0  0  0  0  0  0  0  0  0  0  0
    0.9428   -0.8955   -2.1551 H   0  0  0  0  0  0  0  0  0  0  0  0
    0.9433   -0.8956    2.1541 H   0  0  0  0  0  0  0  0  0  0  0  0
    2.7956   -1.8912    0.8846 H   0  0  0  0  0  0  0  0  0  0  0  0
    2.7958   -1.8910   -0.8852 H   0  0  0  0  0  0  0  0  0  0  0  0
   -2.6671    2.2052   -0.0009 H   0  0  0  0  0  0  0  0  0  0  0  0
   -3.6899   -1.9894    0.0011 H   0  0  0  0  0  0  0  0  0  0  0  0
   -5.0654    2.7795   -0.0005 H   0  0  0  0  0  0  0  0  0  0  0  0
   -6.0835   -1.3950    0.0013 H   0  0  0  0  0  0  0  0  0  0  0  0
   -6.7793    0.9863    0.0005 H   0  0  0  0  0  0  0  0  0  0  0  0
    7.2604   -0.3673    0.0013 H   0  0  0  0  0  0  0  0  0  0  0  0
    7.3779    1.3616    0.0010 H   0  0  0  0  0  0  0  0  0  0  0  0
    5.6283    2.7041   -0.0011 H   0  0  0  0  0  0  0  0  0  0  0  0
    3.9890    2.1409   -0.0012 H   0  0  0  0  0  0  0  0  0  0  0  0
  1  2  1  0  0  0  0
  1 12  1  0  0  0  0
  2 18  2  0  0  0  0
  3 18  1  0  0  0  0
  3 30  1  0  0  0  0
  3 31  1  0  0  0  0
  4 18  1  0  0  0  0
  4 32  1  0  0  0  0
  4 33  1  0  0  0  0
  5  6  1  0  0  0  0
  5  8  2  0  0  0  0
  5  9  1  0  0  0  0
  6 13  2  0  0  0  0
  6 14  1  0  0  0  0
  7 10  2  0  0  0  0
  7 11  1  0  0  0  0
  7 12  1  0  0  0  0
  8 10  1  0  0  0  0
  8 19  1  0  0  0  0
  9 11  2  0  0  0  0
  9 20  1  0  0  0  0
 10 21  1  0  0  0  0
 11 22  1  0  0  0  0
 12 23  1  0  0  0  0
 12 24  1  0  0  0  0
 13 15  1  0  0  0  0
 13 25  1  0  0  0  0
 14 16  2  0  0  0  0
 14 26  1  0  0  0  0
 15 17  2  0  0  0  0
 15 27  1  0  0  0  0
 16 17  1  0  0  0  0
 16 28  1  0  0  0  0
 17 29  1  0  0  0  0
M  END
> <PUBCHEM_COMPOUND_CID>
12891

> <PUBCHEM_CONFORMER_RMSD>
0.6

> <PUBCHEM_CONFORMER_DIVERSEORDER>
1
16
12
7
3
2
8
6
13
15
11
4
9
10
14
5

> <PUBCHEM_MMFF94_PARTIAL_CHARGES>
29
1 -0.22
10 -0.15
11 -0.15
12 0.42
13 -0.15
14 -0.15
15 -0.15
16 -0.15
17 -0.15
18 0.55
19 0.15
2 -0.51
20 0.15
21 0.15
22 0.15
25 0.15
26 0.15
27 0.15
28 0.15
29 0.15
3 -0.85
30 0.4
31 0.4
32 0.4
33 0.4
4 -0.85
7 -0.14
8 -0.15
9 -0.15

> <PUBCHEM_EFFECTIVE_ROTOR_COUNT>
4

> <PUBCHEM_PHARMACOPHORE_FEATURES>
5
1 3 donor
1 4 donor
4 2 3 4 18 cation
6 5 7 8 9 10 11 rings
6 6 13 14 15 16 17 rings

> <PUBCHEM_HEAVY_ATOM_COUNT>
18

> <PUBCHEM_ATOM_DEF_STEREO_COUNT>
0

> <PUBCHEM_ATOM_UDEF_STEREO_COUNT>
0

> <PUBCHEM_BOND_DEF_STEREO_COUNT>
0

> <PUBCHEM_BOND_UDEF_STEREO_COUNT>
0

> <PUBCHEM_ISOTOPIC_ATOM_COUNT>
0

> <PUBCHEM_COMPONENT_COUNT>
1

> <PUBCHEM_CACTVS_TAUTO_COUNT>
2

> <PUBCHEM_CONFORMER_ID>
0000325B00000001

> <PUBCHEM_MMFF94_ENERGY>
55.141

> <PUBCHEM_FEATURE_SELFOVERLAP>
25.426

> <PUBCHEM_SHAPE_FINGERPRINT>
106641 1 16271917190893242913
10670039 82 17095515240939800112
11128504 68 15068625967949277656
11287383 113 18407758140189075450
11401426 45 16558750122505636663
117890 112 18343018912778026916
11796584 16 10447928377705987777
12236239 1 18408605876586465470
124424 183 12391507586288027087
12633257 1 16702017539866406652
12670543 26 15357972408189825928
12714333 28 18113337513915596970
13167372 99 18410575132493626096
13288520 33 8718825392859958219
13533116 47 17560528408273016314
13760787 19 18114188548679675991
13862211 1 14117796903671919331
14251732 16 18341048536744537635
14251752 14 17821729464187720406
14911166 2 15647059265223945875
15048467 5 18409167727228452657
17834072 33 18408888433852665215
17834072 8 15791735191487250106
187816 3 15574432119941761162
20374829 77 6916265122219591614
21150785 3 16443072677031367661
21641784 216 16733250331225927816
22079108 93 18130791131308998282
22224240 67 16917067745903190459
23272321 79 18411981338707997493
23402539 116 18343304756137592783
23536379 177 18408886265205456162
23559900 14 18117557555170287782
23590187 198 8574708010018864777
26918003 58 11887953259056177267
2838139 119 18335708247186193748
2916195 48 18201721760209137753
300161 21 18060424650985294015
34797466 226 18113328704705636037
351380 180 18343581837188686172
3759504 43 17967256372958305687
4325135 7 18335703823833368551
441001 317 18412824707487676841
465052 167 11239996772210849432
5104073 3 17988357195554554371
542803 24 18410014346660169026
54446538 1 18410013221774694636
69474 34 16558747884690298868

> <PUBCHEM_SHAPE_MULTIPOLES>
349.62
14.66
1.45
0.94
13.48
0.56
0
6.43
0
-0.07
0
-0.08
-0.21
0

> <PUBCHEM_SHAPE_SELFOVERLAP>
744.633

> <PUBCHEM_SHAPE_VOLUME>
195

> <PUBCHEM_COORDINATE_TYPE>
2
5
10

$$$$

