194116
  -OEChem-07051212512D

 48 49  0     1  0  0  0  0  0999 V2000
    6.8671   -0.7934    0.0000 S   0  0  0  0  0  0  0  0  0  0  0  0
    9.4470    1.4193    0.0000 O   0  0  0  0  0  0  0  0  0  0  0  0
    4.2690    0.7066    0.0000 O   0  0  0  0  0  0  0  0  0  0  0  0
   10.6743    0.2162    0.0000 O   0  0  0  0  0  0  0  0  0  0  0  0
    6.0010    2.7066    0.0000 O   0  0  0  0  0  0  0  0  0  0  0  0
    7.7331    2.7066    0.0000 O   0  0  0  0  0  0  0  0  0  0  0  0
   15.4298   -2.1044    0.0000 O   0  0  0  0  0  0  0  0  0  0  0  0
   14.2025   -3.3266    0.0000 O   0  0  0  0  0  0  0  0  0  0  0  0
    3.4030    2.2066    0.0000 O   0  0  0  0  0  0  0  0  0  0  0  0
    7.7331    0.7066    0.0000 N   0  0  0  0  0  0  0  0  0  0  0  0
    9.4470   -1.0061    0.0000 N   0  0  0  0  0  0  0  0  0  0  0  0
   14.0185   -0.6873    0.0000 N   0  0  0  0  0  0  0  0  0  0  0  0
    2.5369    0.7066    0.0000 N   0  0  0  0  0  0  0  0  0  0  0  0
    7.7331   -0.2934    0.0000 C   0  0  1  0  0  0  0  0  0  0  0  0
    8.7414   -0.2975    0.0000 C   0  0  1  0  0  0  0  0  0  0  0  0
    8.7414    0.7108    0.0000 C   0  0  0  0  0  0  0  0  0  0  0  0
    6.8671    1.2066    0.0000 C   0  0  0  0  0  0  0  0  0  0  0  0
    6.0010    0.7066    0.0000 C   0  0  0  0  0  0  0  0  0  0  0  0
    6.0010   -0.2934    0.0000 C   0  0  0  0  0  0  0  0  0  0  0  0
   10.4135   -0.7492    0.0000 C   0  0  0  0  0  0  0  0  0  0  0  0
    5.1350    1.2066    0.0000 C   0  0  0  0  0  0  0  0  0  0  0  0
   11.1191   -1.4578    0.0000 C   0  0  0  0  0  0  0  0  0  0  0  0
    6.8671    2.2066    0.0000 C   0  0  0  0  0  0  0  0  0  0  0  0
   12.0856   -1.2010    0.0000 C   0  0  0  0  0  0  0  0  0  0  0  0
   12.7912   -1.9095    0.0000 C   0  0  0  0  0  0  0  0  0  0  0  0
   13.7577   -1.6527    0.0000 C   0  0  2  0  0  0  0  0  0  0  0  0
   14.4633   -2.3612    0.0000 C   0  0  0  0  0  0  0  0  0  0  0  0
    3.4030    1.2066    0.0000 C   0  0  0  0  0  0  0  0  0  0  0  0
    7.9514   -1.1148    0.0000 H   0  0  0  0  0  0  0  0  0  0  0  0
    8.5023   -0.8696    0.0000 H   0  0  0  0  0  0  0  0  0  0  0  0
    9.2853   -1.6046    0.0000 H   0  0  0  0  0  0  0  0  0  0  0  0
    5.3905   -0.1857    0.0000 H   0  0  0  0  0  0  0  0  0  0  0  0
    5.7890   -0.8760    0.0000 H   0  0  0  0  0  0  0  0  0  0  0  0
    5.5335    1.6816    0.0000 H   0  0  0  0  0  0  0  0  0  0  0  0
    4.7365    1.6816    0.0000 H   0  0  0  0  0  0  0  0  0  0  0  0
   10.6105   -1.8124    0.0000 H   0  0  0  0  0  0  0  0  0  0  0  0
   11.3800   -2.0202    0.0000 H   0  0  0  0  0  0  0  0  0  0  0  0
   12.5942   -0.8464    0.0000 H   0  0  0  0  0  0  0  0  0  0  0  0
   11.8247   -0.6385    0.0000 H   0  0  0  0  0  0  0  0  0  0  0  0
   12.2826   -2.2641    0.0000 H   0  0  0  0  0  0  0  0  0  0  0  0
   13.0521   -2.4720    0.0000 H   0  0  0  0  0  0  0  0  0  0  0  0
   13.3202   -1.2134    0.0000 H   0  0  0  0  0  0  0  0  0  0  0  0
    6.0010    3.3266    0.0000 H   0  0  0  0  0  0  0  0  0  0  0  0
   14.6177   -0.5281    0.0000 H   0  0  0  0  0  0  0  0  0  0  0  0
   13.5810   -0.2480    0.0000 H   0  0  0  0  0  0  0  0  0  0  0  0
   15.8673   -2.5437    0.0000 H   0  0  0  0  0  0  0  0  0  0  0  0
    2.0000    1.0166    0.0000 H   0  0  0  0  0  0  0  0  0  0  0  0
    2.5369    0.0866    0.0000 H   0  0  0  0  0  0  0  0  0  0  0  0
  1 14  1  0  0  0  0
  1 19  1  0  0  0  0
  2 16  2  0  0  0  0
  3 21  1  0  0  0  0
  3 28  1  0  0  0  0
  4 20  2  0  0  0  0
  5 23  1  0  0  0  0
  5 43  1  0  0  0  0
  6 23  2  0  0  0  0
  7 27  1  0  0  0  0
  7 46  1  0  0  0  0
  8 27  2  0  0  0  0
  9 28  2  0  0  0  0
 10 14  1  0  0  0  0
 10 16  1  0  0  0  0
 10 17  1  0  0  0  0
 15 11  1  1  0  0  0
 11 20  1  0  0  0  0
 11 31  1  0  0  0  0
 26 12  1  1  0  0  0
 12 44  1  0  0  0  0
 12 45  1  0  0  0  0
 13 28  1  0  0  0  0
 13 47  1  0  0  0  0
 13 48  1  0  0  0  0
 14 15  1  0  0  0  0
 14 29  1  6  0  0  0
 15 16  1  0  0  0  0
 15 30  1  0  0  0  0
 17 18  2  0  0  0  0
 17 23  1  0  0  0  0
 18 19  1  0  0  0  0
 18 21  1  0  0  0  0
 19 32  1  0  0  0  0
 19 33  1  0  0  0  0
 20 22  1  0  0  0  0
 21 34  1  0  0  0  0
 21 35  1  0  0  0  0
 22 24  1  0  0  0  0
 22 36  1  0  0  0  0
 22 37  1  0  0  0  0
 24 25  1  0  0  0  0
 24 38  1  0  0  0  0
 24 39  1  0  0  0  0
 25 26  1  0  0  0  0
 25 40  1  0  0  0  0
 25 41  1  0  0  0  0
 26 27  1  0  0  0  0
 26 42  1  0  0  0  0
M  END
> <PUBCHEM_COMPOUND_CID>
194116

> <PUBCHEM_COMPOUND_CANONICALIZED>
1

> <PUBCHEM_CACTVS_COMPLEXITY>
740

> <PUBCHEM_CACTVS_HBOND_ACCEPTOR>
10

> <PUBCHEM_CACTVS_HBOND_DONOR>
5

> <PUBCHEM_CACTVS_ROTATABLE_BOND>
10

> <PUBCHEM_CACTVS_SUBSKEYS>
AAADceBzvABAAAAAAAAAAAAAAABYAAAAAAAgAAAAAAAQAAAAAAAAHgQQCAAADCjlwAaACAPABgiIAgXQWAAAAABAABAACIGIAEECRBogoCAcUAAEFgCwMQGYSQAQAAAAAAAAAAAAAAAAAAAAAAAAAAAAAA==

> <PUBCHEM_IUPAC_OPENEYE_NAME>
(6R,7R)-7-[[(5R)-5-amino-5-carboxy-pentanoyl]amino]-3-(carbamoyloxymethyl)-8-oxo-5-thia-1-azabicyclo[4.2.0]oct-2-ene-2-carboxylic acid

> <PUBCHEM_IUPAC_CAS_NAME>
(6R,7R)-7-[[(5R)-5-amino-5-carboxy-1-oxopentyl]amino]-3-(carbamoyloxymethyl)-8-oxo-5-thia-1-azabicyclo[4.2.0]oct-2-ene-2-carboxylic acid

> <PUBCHEM_IUPAC_NAME>
(6R,7R)-7-[[(5R)-5-amino-5-carboxypentanoyl]amino]-3-(carbamoyloxymethyl)-8-oxo-5-thia-1-azabicyclo[4.2.0]oct-2-ene-2-carboxylic acid

> <PUBCHEM_IUPAC_SYSTEMATIC_NAME>
(6R,7R)-3-(aminocarbonyloxymethyl)-7-[[(5R)-5-azanyl-6-oxidanyl-6-oxidanylidene-hexanoyl]amino]-8-oxidanylidene-5-thia-1-azabicyclo[4.2.0]oct-2-ene-2-carboxylic acid

> <PUBCHEM_IUPAC_TRADITIONAL_NAME>
(6R,7R)-7-[[(5R)-5-amino-5-carboxy-pentanoyl]amino]-3-(carbamoyloxymethyl)-8-keto-5-thia-1-azabicyclo[4.2.0]oct-2-ene-2-carboxylic acid

> <PUBCHEM_IUPAC_INCHI>
InChI=1S/C15H20N4O8S/c16-7(13(22)23)2-1-3-8(20)18-9-11(21)19-10(14(24)25)6(4-27-15(17)26)5-28-12(9)19/h7,9,12H,1-5,16H2,(H2,17,26)(H,18,20)(H,22,23)(H,24,25)/t7-,9-,12-/m1/s1

> <PUBCHEM_IUPAC_INCHIKEY>
LSRDVUINCBDNAZ-JWKOBGCHSA-N

> <PUBCHEM_XLOGP3>
-5

> <PUBCHEM_EXACT_MASS>
416.100185

> <PUBCHEM_MOLECULAR_FORMULA>
C15H20N4O8S

> <PUBCHEM_MOLECULAR_WEIGHT>
416.4063

> <PUBCHEM_OPENEYE_CAN_SMILES>
C1C(=C(N2C(S1)C(C2=O)NC(=O)CCCC(C(=O)O)N)C(=O)O)COC(=O)N

> <PUBCHEM_OPENEYE_ISO_SMILES>
C1C(=C(N2[C@H](S1)[C@@H](C2=O)NC(=O)CCC[C@H](C(=O)O)N)C(=O)O)COC(=O)N

> <PUBCHEM_CACTVS_TPSA>
228

> <PUBCHEM_MONOISOTOPIC_WEIGHT>
416.100185

> <PUBCHEM_TOTAL_CHARGE>
0

> <PUBCHEM_HEAVY_ATOM_COUNT>
28

> <PUBCHEM_ATOM_DEF_STEREO_COUNT>
3

> <PUBCHEM_ATOM_UDEF_STEREO_COUNT>
0

> <PUBCHEM_BOND_DEF_STEREO_COUNT>
0

> <PUBCHEM_BOND_UDEF_STEREO_COUNT>
0

> <PUBCHEM_ISOTOPIC_ATOM_COUNT>
0

> <PUBCHEM_COMPONENT_COUNT>
1

> <PUBCHEM_CACTVS_TAUTO_COUNT>
8

> <PUBCHEM_COORDINATE_TYPE>
1
5
255

> <PUBCHEM_BONDANNOTATIONS>
15  11  5
26  12  5
14  29  6

$$$$

