5281688
  -OEChem-07051212582D

 30 30  0     0  0  0  0  0  0999 V2000
    8.9282   -0.6900    0.0000 N   0  0  0  0  0  0  0  0  0  0  0  0
    8.9282    1.3100    0.0000 C   0  0  0  0  0  0  0  0  0  0  0  0
    9.7942    0.8100    0.0000 C   0  0  0  0  0  0  0  0  0  0  0  0
    8.0622    0.8100    0.0000 C   0  0  0  0  0  0  0  0  0  0  0  0
    9.7942   -0.1900    0.0000 C   0  0  0  0  0  0  0  0  0  0  0  0
    8.0622   -0.1900    0.0000 C   0  0  0  0  0  0  0  0  0  0  0  0
    7.1962   -0.6900    0.0000 C   0  0  0  0  0  0  0  0  0  0  0  0
    6.3301   -0.1900    0.0000 C   0  0  0  0  0  0  0  0  0  0  0  0
    5.4641   -0.6900    0.0000 C   0  0  0  0  0  0  0  0  0  0  0  0
    4.5981   -0.1900    0.0000 C   0  0  0  0  0  0  0  0  0  0  0  0
    3.7320   -0.6900    0.0000 C   0  0  0  0  0  0  0  0  0  0  0  0
    2.8660   -0.1900    0.0000 C   0  0  0  0  0  0  0  0  0  0  0  0
    2.0000   -0.6900    0.0000 C   0  0  0  0  0  0  0  0  0  0  0  0
    9.3267    1.7850    0.0000 H   0  0  0  0  0  0  0  0  0  0  0  0
    8.5297    1.7850    0.0000 H   0  0  0  0  0  0  0  0  0  0  0  0
   10.4048    0.7023    0.0000 H   0  0  0  0  0  0  0  0  0  0  0  0
   10.0063    1.3926    0.0000 H   0  0  0  0  0  0  0  0  0  0  0  0
    7.8501    1.3926    0.0000 H   0  0  0  0  0  0  0  0  0  0  0  0
    7.4516    0.7023    0.0000 H   0  0  0  0  0  0  0  0  0  0  0  0
   10.0063   -0.7726    0.0000 H   0  0  0  0  0  0  0  0  0  0  0  0
   10.4048   -0.0823    0.0000 H   0  0  0  0  0  0  0  0  0  0  0  0
    7.1962   -1.3100    0.0000 H   0  0  0  0  0  0  0  0  0  0  0  0
    6.3301    0.4300    0.0000 H   0  0  0  0  0  0  0  0  0  0  0  0
    5.4641   -1.3100    0.0000 H   0  0  0  0  0  0  0  0  0  0  0  0
    4.5981    0.4300    0.0000 H   0  0  0  0  0  0  0  0  0  0  0  0
    3.7320   -1.3100    0.0000 H   0  0  0  0  0  0  0  0  0  0  0  0
    2.8660    0.4300    0.0000 H   0  0  0  0  0  0  0  0  0  0  0  0
    1.6900   -0.1531    0.0000 H   0  0  0  0  0  0  0  0  0  0  0  0
    1.4631   -1.0000    0.0000 H   0  0  0  0  0  0  0  0  0  0  0  0
    2.3100   -1.2269    0.0000 H   0  0  0  0  0  0  0  0  0  0  0  0
  1  5  1  0  0  0  0
  1  6  2  0  0  0  0
  2  3  1  0  0  0  0
  2  4  1  0  0  0  0
  2 14  1  0  0  0  0
  2 15  1  0  0  0  0
  3  5  1  0  0  0  0
  3 16  1  0  0  0  0
  3 17  1  0  0  0  0
  4  6  1  0  0  0  0
  4 18  1  0  0  0  0
  4 19  1  0  0  0  0
  5 20  1  0  0  0  0
  5 21  1  0  0  0  0
  6  7  1  0  0  0  0
  7  8  2  0  0  0  0
  7 22  1  0  0  0  0
  8  9  1  0  0  0  0
  8 23  1  0  0  0  0
  9 10  2  0  0  0  0
  9 24  1  0  0  0  0
 10 11  1  0  0  0  0
 10 25  1  0  0  0  0
 11 12  2  0  0  0  0
 11 26  1  0  0  0  0
 12 13  1  0  0  0  0
 12 27  1  0  0  0  0
 13 28  1  0  0  0  0
 13 29  1  0  0  0  0
 13 30  1  0  0  0  0
M  END
> <PUBCHEM_COMPOUND_CID>
5281688

> <PUBCHEM_COMPOUND_CANONICALIZED>
1

> <PUBCHEM_CACTVS_COMPLEXITY>
244

> <PUBCHEM_CACTVS_HBOND_ACCEPTOR>
1

> <PUBCHEM_CACTVS_HBOND_DONOR>
0

> <PUBCHEM_CACTVS_ROTATABLE_BOND>
3

> <PUBCHEM_CACTVS_SUBSKEYS>
AAADceByAAAAAAAAAAAAAAAAAAAAAAAAAAAgAAAAAAAAAAAAAAAAHAAAAAAACAjBAAQCAAIAAACgASBiBAAAAAAgAAAICAAwABgIAAIAgQAAAAAAgAAIgAMQAAAAAAAAAAAAAAAAAAAAAAAAAAAAAAAAAA==

> <PUBCHEM_IUPAC_OPENEYE_NAME>
6-[(1E,3E,5E)-hepta-1,3,5-trienyl]-2,3,4,5-tetrahydropyridine

> <PUBCHEM_IUPAC_CAS_NAME>
6-[(1E,3E,5E)-hepta-1,3,5-trienyl]-2,3,4,5-tetrahydropyridine

> <PUBCHEM_IUPAC_NAME>
6-[(1E,3E,5E)-hepta-1,3,5-trienyl]-2,3,4,5-tetrahydropyridine

> <PUBCHEM_IUPAC_SYSTEMATIC_NAME>
6-[(1E,3E,5E)-hepta-1,3,5-trienyl]-2,3,4,5-tetrahydropyridine

> <PUBCHEM_IUPAC_TRADITIONAL_NAME>
6-[(1E,3E,5E)-hepta-1,3,5-trienyl]-2,3,4,5-tetrahydropyridine

> <PUBCHEM_IUPAC_INCHI>
InChI=1S/C12H17N/c1-2-3-4-5-6-9-12-10-7-8-11-13-12/h2-6,9H,7-8,10-11H2,1H3/b3-2+,5-4+,9-6+

> <PUBCHEM_IUPAC_INCHIKEY>
DHQABWCNLXWKMG-ILWUCBPQSA-N

> <PUBCHEM_XLOGP3_AA>
2.5

> <PUBCHEM_EXACT_MASS>
175.1361

> <PUBCHEM_MOLECULAR_FORMULA>
C12H17N

> <PUBCHEM_MOLECULAR_WEIGHT>
175.27008

> <PUBCHEM_OPENEYE_CAN_SMILES>
CC=CC=CC=CC1=NCCCC1

> <PUBCHEM_OPENEYE_ISO_SMILES>
C/C=C/C=C/C=C/C1=NCCCC1

> <PUBCHEM_CACTVS_TPSA>
12.4

> <PUBCHEM_MONOISOTOPIC_WEIGHT>
175.1361

> <PUBCHEM_TOTAL_CHARGE>
0

> <PUBCHEM_HEAVY_ATOM_COUNT>
13

> <PUBCHEM_ATOM_DEF_STEREO_COUNT>
0

> <PUBCHEM_ATOM_UDEF_STEREO_COUNT>
0

> <PUBCHEM_BOND_DEF_STEREO_COUNT>
3

> <PUBCHEM_BOND_UDEF_STEREO_COUNT>
0

> <PUBCHEM_ISOTOPIC_ATOM_COUNT>
0

> <PUBCHEM_COMPONENT_COUNT>
1

> <PUBCHEM_CACTVS_TAUTO_COUNT>
1

> <PUBCHEM_COORDINATE_TYPE>
1
5
255

$$$$

