470970
  -OEChem-07051213112D

 36 38  0     1  0  0  0  0  0999 V2000
    3.7230   -0.1959    0.0000 O   0  0  0  0  0  0  0  0  0  0  0  0
    7.0268   -2.1845    0.0000 O   0  0  0  0  0  0  0  0  0  0  0  0
    2.0000    0.2363    0.0000 O   0  0  0  0  0  0  0  0  0  0  0  0
    5.4786   -0.1221    0.0000 C   0  0  1  0  0  0  0  0  0  0  0  0
    6.3796    0.3118    0.0000 C   0  0  1  0  0  0  0  0  0  0  0  0
    4.5777    0.3118    0.0000 C   0  0  2  0  0  0  0  0  0  0  0  0
    4.3551    1.2867    0.0000 C   0  0  1  0  0  0  0  0  0  0  0  0
    7.0647   -0.4085    0.0000 C   0  0  0  0  0  0  0  0  0  0  0  0
    5.6146   -1.1068    0.0000 C   0  0  0  0  0  0  0  0  0  0  0  0
    6.5929   -1.2835    0.0000 C   0  0  2  0  0  0  0  0  0  0  0  0
    6.6021    1.2867    0.0000 C   0  0  0  0  0  0  0  0  0  0  0  0
    4.9786    2.0685    0.0000 C   0  0  0  0  0  0  0  0  0  0  0  0
    5.9786    2.0685    0.0000 C   0  0  0  0  0  0  0  0  0  0  0  0
    3.3648    1.3732    0.0000 C   0  0  0  0  0  0  0  0  0  0  0  0
    2.9749    0.4588    0.0000 C   0  0  0  0  0  0  0  0  0  0  0  0
    4.8930   -1.7992    0.0000 C   0  0  0  0  0  0  0  0  0  0  0  0
    7.5770    1.5092    0.0000 C   0  0  0  0  0  0  0  0  0  0  0  0
    2.8504    2.2308    0.0000 C   0  0  0  0  0  0  0  0  0  0  0  0
    4.7916   -0.6226    0.0000 H   0  0  0  0  0  0  0  0  0  0  0  0
    7.1993    0.5368    0.0000 H   0  0  0  0  0  0  0  0  0  0  0  0
    4.6147   -0.5374    0.0000 H   0  0  0  0  0  0  0  0  0  0  0  0
    4.0200    2.0679    0.0000 H   0  0  0  0  0  0  0  0  0  0  0  0
    7.5765   -0.7585    0.0000 H   0  0  0  0  0  0  0  0  0  0  0  0
    7.4666    0.0636    0.0000 H   0  0  0  0  0  0  0  0  0  0  0  0
    7.2127   -1.2977    0.0000 H   0  0  0  0  0  0  0  0  0  0  0  0
    5.1166    2.6730    0.0000 H   0  0  0  0  0  0  0  0  0  0  0  0
    4.4200    2.3375    0.0000 H   0  0  0  0  0  0  0  0  0  0  0  0
    6.5372    2.3375    0.0000 H   0  0  0  0  0  0  0  0  0  0  0  0
    5.8407    2.6730    0.0000 H   0  0  0  0  0  0  0  0  0  0  0  0
    4.2976   -1.6263    0.0000 H   0  0  0  0  0  0  0  0  0  0  0  0
    5.0411   -2.4012    0.0000 H   0  0  0  0  0  0  0  0  0  0  0  0
    7.9988    1.0547    0.0000 H   0  0  0  0  0  0  0  0  0  0  0  0
    7.7598    2.1017    0.0000 H   0  0  0  0  0  0  0  0  0  0  0  0
    7.6450   -2.2308    0.0000 H   0  0  0  0  0  0  0  0  0  0  0  0
    3.1514    2.7728    0.0000 H   0  0  0  0  0  0  0  0  0  0  0  0
    2.2305    2.2204    0.0000 H   0  0  0  0  0  0  0  0  0  0  0  0
  1  6  1  0  0  0  0
  1 15  1  0  0  0  0
 10  2  1  1  0  0  0
  2 34  1  0  0  0  0
  3 15  2  0  0  0  0
  4  5  1  0  0  0  0
  4  6  1  0  0  0  0
  4  9  1  0  0  0  0
  4 19  1  1  0  0  0
  5  8  1  0  0  0  0
  5 11  1  0  0  0  0
  5 20  1  1  0  0  0
  6  7  1  0  0  0  0
  6 21  1  6  0  0  0
  7 12  1  0  0  0  0
  7 14  1  0  0  0  0
  7 22  1  1  0  0  0
  8 10  1  0  0  0  0
  8 23  1  0  0  0  0
  8 24  1  0  0  0  0
  9 10  1  0  0  0  0
  9 16  2  0  0  0  0
 10 25  1  0  0  0  0
 11 13  1  0  0  0  0
 11 17  2  0  0  0  0
 12 13  1  0  0  0  0
 12 26  1  0  0  0  0
 12 27  1  0  0  0  0
 13 28  1  0  0  0  0
 13 29  1  0  0  0  0
 14 15  1  0  0  0  0
 14 18  2  0  0  0  0
 16 30  1  0  0  0  0
 16 31  1  0  0  0  0
 17 32  1  0  0  0  0
 17 33  1  0  0  0  0
 18 35  1  0  0  0  0
 18 36  1  0  0  0  0
M  END
> <PUBCHEM_COMPOUND_CID>
470970

> <PUBCHEM_COMPOUND_CANONICALIZED>
1

> <PUBCHEM_CACTVS_COMPLEXITY>
462

> <PUBCHEM_CACTVS_HBOND_ACCEPTOR>
3

> <PUBCHEM_CACTVS_HBOND_DONOR>
1

> <PUBCHEM_CACTVS_ROTATABLE_BOND>
0

> <PUBCHEM_CACTVS_SUBSKEYS>
AAADceBwMAAAAAAAAAAAAAAAAAAAAaIAAAAAAAAABgAAAADQAAAAGgAACAAADRSggAIACAAABgCIAgDSCAAAAAAgAAAAAAEAAEgAFBIAIQACQAAEwAAAMIHK6PyOgAAAAAAAAAAAAAAAAAAAAIAACAAAAA==

> <PUBCHEM_IUPAC_OPENEYE_NAME>
(3aS,6aR,8R,9aR,9bS)-8-hydroxy-3,6,9-trimethylene-3a,4,5,6a,7,8,9a,9b-octahydroazuleno[4,5-b]furan-2-one

> <PUBCHEM_IUPAC_CAS_NAME>
(3aS,6aR,8R,9aR,9bS)-8-hydroxy-3,6,9-trimethylene-3a,4,5,6a,7,8,9a,9b-octahydroazuleno[4,5-b]furan-2-one

> <PUBCHEM_IUPAC_NAME>
(3aS,6aR,8R,9aR,9bS)-8-hydroxy-3,6,9-trimethylidene-3a,4,5,6a,7,8,9a,9b-octahydroazuleno[4,5-b]furan-2-one

> <PUBCHEM_IUPAC_SYSTEMATIC_NAME>
(3aS,6aR,8R,9aR,9bS)-3,6,9-trimethylidene-8-oxidanyl-3a,4,5,6a,7,8,9a,9b-octahydroazuleno[4,5-b]furan-2-one

> <PUBCHEM_IUPAC_TRADITIONAL_NAME>
(3aS,6aR,8R,9aR,9bS)-8-hydroxy-3,6,9-trimethylene-3a,4,5,6a,7,8,9a,9b-octahydroazuleno[4,5-b]furan-2-one

> <PUBCHEM_IUPAC_INCHI>
InChI=1S/C15H18O3/c1-7-4-5-10-8(2)15(17)18-14(10)13-9(3)12(16)6-11(7)13/h10-14,16H,1-6H2/t10-,11-,12+,13-,14-/m0/s1

> <PUBCHEM_IUPAC_INCHIKEY>
XFVLNEYIZGZDHP-HPCHECBXSA-N

> <PUBCHEM_XLOGP3_AA>
1.3

> <PUBCHEM_EXACT_MASS>
246.125594

> <PUBCHEM_MOLECULAR_FORMULA>
C15H18O3

> <PUBCHEM_MOLECULAR_WEIGHT>
246.30162

> <PUBCHEM_OPENEYE_CAN_SMILES>
C=C1CCC2C(C3C1CC(C3=C)O)OC(=O)C2=C

> <PUBCHEM_OPENEYE_ISO_SMILES>
C=C1CC[C@@H]2[C@@H]([C@@H]3[C@H]1C[C@H](C3=C)O)OC(=O)C2=C

> <PUBCHEM_CACTVS_TPSA>
46.5

> <PUBCHEM_MONOISOTOPIC_WEIGHT>
246.125594

> <PUBCHEM_TOTAL_CHARGE>
0

> <PUBCHEM_HEAVY_ATOM_COUNT>
18

> <PUBCHEM_ATOM_DEF_STEREO_COUNT>
5

> <PUBCHEM_ATOM_UDEF_STEREO_COUNT>
0

> <PUBCHEM_BOND_DEF_STEREO_COUNT>
0

> <PUBCHEM_BOND_UDEF_STEREO_COUNT>
0

> <PUBCHEM_ISOTOPIC_ATOM_COUNT>
0

> <PUBCHEM_COMPONENT_COUNT>
1

> <PUBCHEM_CACTVS_TAUTO_COUNT>
1

> <PUBCHEM_COORDINATE_TYPE>
1
5
255

> <PUBCHEM_BONDANNOTATIONS>
10  2  5
4  19  5
5  20  5
6  21  6
7  22  5

$$$$

