38439
  -OEChem-07051213113D

 22 24  0     0  0  0  0  0  0999 V2000
   -2.3342   -2.8740   -0.0005 Cl  0  0  0  0  0  0  0  0  0  0  0  0
   -5.0171   -1.1786   -0.0006 Cl  0  0  0  0  0  0  0  0  0  0  0  0
   -4.8224    2.0071    0.0007 Cl  0  0  0  0  0  0  0  0  0  0  0  0
    5.0937   -1.6821    0.0009 Cl  0  0  0  0  0  0  0  0  0  0  0  0
    5.2361    1.5496    0.0000 Cl  0  0  0  0  0  0  0  0  0  0  0  0
    0.0688   -1.2699   -0.0001 O   0  0  0  0  0  0  0  0  0  0  0  0
    0.1945    1.5811   -0.0004 O   0  0  0  0  0  0  0  0  0  0  0  0
   -1.0595   -0.4896    0.0000 C   0  0  0  0  0  0  0  0  0  0  0  0
   -0.9982    0.9031   -0.0001 C   0  0  0  0  0  0  0  0  0  0  0  0
    1.2615   -0.5920    0.0000 C   0  0  0  0  0  0  0  0  0  0  0  0
    1.3229    0.8008   -0.0003 C   0  0  0  0  0  0  0  0  0  0  0  0
   -2.2944   -1.1373    0.0002 C   0  0  0  0  0  0  0  0  0  0  0  0
   -2.1712    1.6569    0.0001 C   0  0  0  0  0  0  0  0  0  0  0  0
    2.4347   -1.3457    0.0001 C   0  0  0  0  0  0  0  0  0  0  0  0
    2.5578    1.4484   -0.0005 C   0  0  0  0  0  0  0  0  0  0  0  0
   -3.4689   -0.3844    0.0004 C   0  0  0  0  0  0  0  0  0  0  0  0
   -3.4074    1.0103    0.0003 C   0  0  0  0  0  0  0  0  0  0  0  0
    3.6710   -0.6991    0.0000 C   0  0  0  0  0  0  0  0  0  0  0  0
    3.7324    0.6956   -0.0003 C   0  0  0  0  0  0  0  0  0  0  0  0
   -2.1114    2.7427    0.0001 H   0  0  0  0  0  0  0  0  0  0  0  0
    2.3758   -2.4316    0.0004 H   0  0  0  0  0  0  0  0  0  0  0  0
    2.5949    2.5352   -0.0007 H   0  0  0  0  0  0  0  0  0  0  0  0
  1 12  1  0  0  0  0
  2 16  1  0  0  0  0
  3 17  1  0  0  0  0
  4 18  1  0  0  0  0
  5 19  1  0  0  0  0
  6  8  1  0  0  0  0
  6 10  1  0  0  0  0
  7  9  1  0  0  0  0
  7 11  1  0  0  0  0
  8  9  1  0  0  0  0
  8 12  2  0  0  0  0
  9 13  2  0  0  0  0
 10 11  1  0  0  0  0
 10 14  2  0  0  0  0
 11 15  2  0  0  0  0
 12 16  1  0  0  0  0
 13 17  1  0  0  0  0
 13 20  1  0  0  0  0
 14 18  1  0  0  0  0
 14 21  1  0  0  0  0
 15 19  1  0  0  0  0
 15 22  1  0  0  0  0
 16 17  2  0  0  0  0
 18 19  2  0  0  0  0
M  END
> <PUBCHEM_COMPOUND_CID>
38439

> <PUBCHEM_CONFORMER_RMSD>
0.6

> <PUBCHEM_CONFORMER_DIVERSEORDER>
1

> <PUBCHEM_MMFF94_PARTIAL_CHARGES>
22
1 -0.18
10 0.08
11 0.08
12 0.18
13 -0.15
14 -0.15
15 -0.15
16 0.18
17 0.18
18 0.18
19 0.18
2 -0.18
20 0.15
21 0.15
22 0.15
3 -0.18
4 -0.18
5 -0.18
6 -0.17
7 -0.17
8 0.08
9 0.08

> <PUBCHEM_EFFECTIVE_ROTOR_COUNT>
0.4

> <PUBCHEM_PHARMACOPHORE_FEATURES>
5
1 6 acceptor
1 7 acceptor
6 10 11 14 15 18 19 rings
6 6 7 8 9 10 11 rings
6 8 9 12 13 16 17 rings

> <PUBCHEM_HEAVY_ATOM_COUNT>
19

> <PUBCHEM_ATOM_DEF_STEREO_COUNT>
0

> <PUBCHEM_ATOM_UDEF_STEREO_COUNT>
0

> <PUBCHEM_BOND_DEF_STEREO_COUNT>
0

> <PUBCHEM_BOND_UDEF_STEREO_COUNT>
0

> <PUBCHEM_ISOTOPIC_ATOM_COUNT>
0

> <PUBCHEM_COMPONENT_COUNT>
1

> <PUBCHEM_CACTVS_TAUTO_COUNT>
1

> <PUBCHEM_CONFORMER_ID>
0000962700000001

> <PUBCHEM_MMFF94_ENERGY>
53.0038

> <PUBCHEM_FEATURE_SELFOVERLAP>
25.449

> <PUBCHEM_SHAPE_FINGERPRINT>
10411042 1 17762055446154704771
10608611 8 18409732845934954968
10616163 171 18337388219338260454
10967382 1 18410575076104974727
11132069 177 18411704278984099368
11471102 20 18410295822090508396
11578080 2 16952547775293896139
12107183 9 17979357782732674930
12236239 1 18273494576282138376
12390115 104 18188472671318148985
12403814 3 17775570840529809061
12500047 106 18409172103853082713
12507560 40 18410011022318409196
12788726 201 17459179827911892073
13073987 5 18411136935115474208
13140716 1 18410293614086882906
13167823 11 18413109467792680490
13862211 1 18409169879445424639
14341114 176 18411975845365691650
14790565 3 18120085345788795041
15042514 8 18268143163929765707
15196674 1 18410573998052242244
15375358 24 18261392277612471695
15442244 35 18411138069366680730
15536298 74 18408323294056539200
17492 89 18339922615379345346
17804303 29 18408882957763964620
1813 80 17132114641369580124
18186145 218 17846503646872638422
19141452 34 18411701006060634397
200 152 18113340808060606317
20510252 161 18261108599829299769
20645477 70 18335419093266582014
21065198 57 18409730647143613152
21236236 1 18408604769370814497
21267235 1 18411129242845273811
21279426 13 18337953509884892757
21421861 104 17845102938115991418
221490 88 18340481158779957018
23402539 116 18334301997873488405
23402655 69 18335423477895259292
23557571 272 18260258620978809804
23559900 14 18335423500060951714
245318 6 16624884428594312132
2871803 45 18271813410171231403
3004659 81 18342454881326348854
335352 9 18338517567987310278
34797466 226 17604701167448985084
34934 24 18411986861925033920
350125 39 18409727344925835201
3545911 37 18409728426845955116
4214541 1 18410573998052209761
474 4 17488737866453207676
5104073 3 18410573998099709456
559249 180 18340773752978941866
633830 44 17275099522902166568
69090 78 18410577309867620895
77779 3 18410854360853943340
8809292 202 18342172245817353611
9709674 26 18408317783081177462

> <PUBCHEM_SHAPE_MULTIPOLES>
388.62
11
2.51
0.62
3.46
0.62
0
-0.77
0
-1
0
-0.01
0.01
0

> <PUBCHEM_SHAPE_SELFOVERLAP>
820.18

> <PUBCHEM_SHAPE_VOLUME>
222.6

> <PUBCHEM_COORDINATE_TYPE>
2
5
10

$$$$

