2351
  -OEChem-07051212523D

 61 63  0     1  0  0  0  0  0999 V2000
   -2.4510   -1.0220    0.5743 O   0  0  0  0  0  0  0  0  0  0  0  0
   -2.4690    1.2449   -1.1449 N   0  0  0  0  0  0  0  0  0  0  0  0
    0.8191    0.2208    0.2198 N   0  0  3  0  0  0  0  0  0  0  0  0
   -1.4525    1.0662   -0.1188 C   0  0  2  0  0  0  0  0  0  0  0  0
   -3.6623    1.9212   -0.6370 C   0  0  0  0  0  0  0  0  0  0  0  0
   -2.0033    2.0779   -2.2531 C   0  0  0  0  0  0  0  0  0  0  0  0
   -4.3840    2.3413   -1.9089 C   0  0  0  0  0  0  0  0  0  0  0  0
   -3.2942    2.4409   -2.9719 C   0  0  0  0  0  0  0  0  0  0  0  0
   -0.2371    0.3824   -0.7529 C   0  0  0  0  0  0  0  0  0  0  0  0
   -2.0316    0.2541    1.0455 C   0  0  0  0  0  0  0  0  0  0  0  0
    1.2631   -1.1337    0.5508 C   0  0  0  0  0  0  0  0  0  0  0  0
    1.4060    1.3261    0.8504 C   0  0  0  0  0  0  0  0  0  0  0  0
   -3.0421   -1.7907    1.6122 C   0  0  0  0  0  0  0  0  0  0  0  0
   -3.4639   -3.1597    1.0718 C   0  0  0  0  0  0  0  0  0  0  0  0
    2.4150   -1.5399   -0.3259 C   0  0  0  0  0  0  0  0  0  0  0  0
    1.3371    1.4558    2.2375 C   0  0  0  0  0  0  0  0  0  0  0  0
    2.0588    2.2970    0.0907 C   0  0  0  0  0  0  0  0  0  0  0  0
   -2.2647   -3.9358    0.5229 C   0  0  0  0  0  0  0  0  0  0  0  0
   -4.1665   -3.9686    2.1599 C   0  0  0  0  0  0  0  0  0  0  0  0
    2.1742   -2.1797   -1.5418 C   0  0  0  0  0  0  0  0  0  0  0  0
    3.7245   -1.2766    0.0763 C   0  0  0  0  0  0  0  0  0  0  0  0
    1.9207    2.5564    2.8650 C   0  0  0  0  0  0  0  0  0  0  0  0
    2.6424    3.3975    0.7183 C   0  0  0  0  0  0  0  0  0  0  0  0
    2.5734    3.5271    2.1055 C   0  0  0  0  0  0  0  0  0  0  0  0
    3.2428   -2.5565   -2.3553 C   0  0  0  0  0  0  0  0  0  0  0  0
    4.7931   -1.6533   -0.7374 C   0  0  0  0  0  0  0  0  0  0  0  0
    4.5522   -2.2932   -1.9532 C   0  0  0  0  0  0  0  0  0  0  0  0
   -1.1556    2.0461    0.2796 H   0  0  0  0  0  0  0  0  0  0  0  0
   -4.3099    1.2682   -0.0437 H   0  0  0  0  0  0  0  0  0  0  0  0
   -3.4117    2.8101   -0.0439 H   0  0  0  0  0  0  0  0  0  0  0  0
   -1.5044    2.9907   -1.9027 H   0  0  0  0  0  0  0  0  0  0  0  0
   -1.3394    1.5512   -2.9452 H   0  0  0  0  0  0  0  0  0  0  0  0
   -4.9089    3.2929   -1.7767 H   0  0  0  0  0  0  0  0  0  0  0  0
   -5.1231    1.5879   -2.2060 H   0  0  0  0  0  0  0  0  0  0  0  0
   -3.5027    1.7328   -3.7827 H   0  0  0  0  0  0  0  0  0  0  0  0
   -3.2432    3.4441   -3.4071 H   0  0  0  0  0  0  0  0  0  0  0  0
    0.1730    0.9596   -1.5879 H   0  0  0  0  0  0  0  0  0  0  0  0
   -0.5293   -0.5852   -1.1815 H   0  0  0  0  0  0  0  0  0  0  0  0
   -1.2767    0.1067    1.8245 H   0  0  0  0  0  0  0  0  0  0  0  0
   -2.8669    0.7736    1.5291 H   0  0  0  0  0  0  0  0  0  0  0  0
    0.4383   -1.8486    0.4318 H   0  0  0  0  0  0  0  0  0  0  0  0
    1.5511   -1.2201    1.6064 H   0  0  0  0  0  0  0  0  0  0  0  0
   -3.9211   -1.2597    1.9974 H   0  0  0  0  0  0  0  0  0  0  0  0
   -2.3239   -1.9128    2.4326 H   0  0  0  0  0  0  0  0  0  0  0  0
   -4.1628   -3.0054    0.2399 H   0  0  0  0  0  0  0  0  0  0  0  0
    0.8304    0.7129    2.8476 H   0  0  0  0  0  0  0  0  0  0  0  0
    2.1299    2.2082   -0.9901 H   0  0  0  0  0  0  0  0  0  0  0  0
   -1.5079   -4.0968    1.2982 H   0  0  0  0  0  0  0  0  0  0  0  0
   -1.7913   -3.3989   -0.3058 H   0  0  0  0  0  0  0  0  0  0  0  0
   -2.5766   -4.9156    0.1458 H   0  0  0  0  0  0  0  0  0  0  0  0
   -3.5009   -4.1559    3.0095 H   0  0  0  0  0  0  0  0  0  0  0  0
   -4.4999   -4.9367    1.7711 H   0  0  0  0  0  0  0  0  0  0  0  0
   -5.0488   -3.4367    2.5314 H   0  0  0  0  0  0  0  0  0  0  0  0
    1.1594   -2.3924   -1.8669 H   0  0  0  0  0  0  0  0  0  0  0  0
    3.9261   -0.7792    1.0213 H   0  0  0  0  0  0  0  0  0  0  0  0
    1.8663    2.6579    3.9450 H   0  0  0  0  0  0  0  0  0  0  0  0
    3.1525    4.1525    0.1272 H   0  0  0  0  0  0  0  0  0  0  0  0
    3.0282    4.3839    2.5941 H   0  0  0  0  0  0  0  0  0  0  0  0
    3.0553   -3.0550   -3.3019 H   0  0  0  0  0  0  0  0  0  0  0  0
    5.8126   -1.4483   -0.4245 H   0  0  0  0  0  0  0  0  0  0  0  0
    5.3841   -2.5865   -2.5867 H   0  0  0  0  0  0  0  0  0  0  0  0
  1 10  1  0  0  0  0
  1 13  1  0  0  0  0
  2  4  1  0  0  0  0
  2  5  1  0  0  0  0
  2  6  1  0  0  0  0
  3  9  1  0  0  0  0
  3 11  1  0  0  0  0
  3 12  1  0  0  0  0
  4  9  1  0  0  0  0
  4 10  1  0  0  0  0
  4 28  1  0  0  0  0
  5  7  1  0  0  0  0
  5 29  1  0  0  0  0
  5 30  1  0  0  0  0
  6  8  1  0  0  0  0
  6 31  1  0  0  0  0
  6 32  1  0  0  0  0
  7  8  1  0  0  0  0
  7 33  1  0  0  0  0
  7 34  1  0  0  0  0
  8 35  1  0  0  0  0
  8 36  1  0  0  0  0
  9 37  1  0  0  0  0
  9 38  1  0  0  0  0
 10 39  1  0  0  0  0
 10 40  1  0  0  0  0
 11 15  1  0  0  0  0
 11 41  1  0  0  0  0
 11 42  1  0  0  0  0
 12 16  2  0  0  0  0
 12 17  1  0  0  0  0
 13 14  1  0  0  0  0
 13 43  1  0  0  0  0
 13 44  1  0  0  0  0
 14 18  1  0  0  0  0
 14 19  1  0  0  0  0
 14 45  1  0  0  0  0
 15 20  2  0  0  0  0
 15 21  1  0  0  0  0
 16 22  1  0  0  0  0
 16 46  1  0  0  0  0
 17 23  2  0  0  0  0
 17 47  1  0  0  0  0
 18 48  1  0  0  0  0
 18 49  1  0  0  0  0
 18 50  1  0  0  0  0
 19 51  1  0  0  0  0
 19 52  1  0  0  0  0
 19 53  1  0  0  0  0
 20 25  1  0  0  0  0
 20 54  1  0  0  0  0
 21 26  2  0  0  0  0
 21 55  1  0  0  0  0
 22 24  2  0  0  0  0
 22 56  1  0  0  0  0
 23 24  1  0  0  0  0
 23 57  1  0  0  0  0
 24 58  1  0  0  0  0
 25 27  2  0  0  0  0
 25 59  1  0  0  0  0
 26 27  1  0  0  0  0
 26 60  1  0  0  0  0
 27 61  1  0  0  0  0
M  END
> <PUBCHEM_COMPOUND_CID>
2351

> <PUBCHEM_CONFORMER_RMSD>
1

> <PUBCHEM_CONFORMER_DIVERSEORDER>
1
61
48
75
84
55
37
13
83
5
33
24
45
110
89
20
111
6
40
103
91
96
25
9
88
79
80
56
112
72
74
66
82
19
93
26
42
53
63
69
77
23
4
108
28
97
47
65
39
78
104
99
34
51
59
86
95
50
57
107
36
70
54
11
7
71
101
38
18
43
30
68
3
85
62
27
60
73
52
21
46
29
15
98
109
67
44
94
92
49
17
100
113
31
106
32
35
16
105
12
2
58
81
102
90
10
8
41
87
76
22
14
64

> <PUBCHEM_MMFF94_PARTIAL_CHARGES>
32
1 -0.56
10 0.28
11 0.51
12 0.1
13 0.28
15 -0.14
16 -0.15
17 -0.15
2 -0.81
20 -0.15
21 -0.15
22 -0.15
23 -0.15
24 -0.15
25 -0.15
26 -0.15
27 -0.15
3 -0.84
4 0.27
46 0.15
47 0.15
5 0.27
54 0.15
55 0.15
56 0.15
57 0.15
58 0.15
59 0.15
6 0.27
60 0.15
61 0.15
9 0.37

> <PUBCHEM_EFFECTIVE_ROTOR_COUNT>
11

> <PUBCHEM_PHARMACOPHORE_FEATURES>
7
1 1 acceptor
1 2 cation
1 3 cation
3 14 18 19 hydrophobe
5 2 5 6 7 8 rings
6 12 16 17 22 23 24 rings
6 15 20 21 25 26 27 rings

> <PUBCHEM_HEAVY_ATOM_COUNT>
27

> <PUBCHEM_ATOM_DEF_STEREO_COUNT>
0

> <PUBCHEM_ATOM_UDEF_STEREO_COUNT>
1

> <PUBCHEM_BOND_DEF_STEREO_COUNT>
0

> <PUBCHEM_BOND_UDEF_STEREO_COUNT>
0

> <PUBCHEM_ISOTOPIC_ATOM_COUNT>
0

> <PUBCHEM_COMPONENT_COUNT>
1

> <PUBCHEM_CACTVS_TAUTO_COUNT>
1

> <PUBCHEM_CONFORMER_ID>
0000092F00000001

> <PUBCHEM_MMFF94_ENERGY>
77.6975

> <PUBCHEM_FEATURE_SELFOVERLAP>
35.52

> <PUBCHEM_SHAPE_FINGERPRINT>
10675989 125 17331406878896600708
11115154 58 17315654051595066657
11578080 2 18339630166671243289
12160290 23 17274835657739885869
12788726 201 17540254671928562658
13149001 5 18337679718620511615
13540713 4 18339367374574962345
13681431 1 18041568043717409808
13911987 19 18261384611918814278
14863182 85 17471268679318470843
15219462 58 17969209067513699233
15420108 30 16537636965269294001
15664445 248 17483095065262535837
15775530 1 18337964384752674330
16114785 44 17322088471075707104
1813 80 17096372915749263548
19319366 153 17185871139178493873
20511986 3 15769491036033087255
20600515 1 18194124242767904432
20693207 138 18411698790216186455
20739085 24 17118041725836829969
21285901 2 18124054346873648559
2260408 40 17619875428755907763
23557571 272 17986962847375387363
23559900 14 18341330007410365641
3380486 77 17766574816795614794
376196 1 17399015578496212581
46194498 28 18118149032349334788
6442390 28 17176859030833350880
7399639 24 18050289158920525104
9981440 41 17319906734679140041

> <PUBCHEM_SHAPE_MULTIPOLES>
539.82
8.71
5.62
2.94
0.6
1.79
-0.39
4.34
-2.7
1.76
1.61
0.75
-1.24
8.41

> <PUBCHEM_SHAPE_SELFOVERLAP>
1118.207

> <PUBCHEM_SHAPE_VOLUME>
310.5

> <PUBCHEM_COORDINATE_TYPE>
2
5
10

$$$$

