68229
  -OEChem-07051212572D

 29 31  0     0  0  0  0  0  0999 V2000
    3.9061   -2.1249    0.0000 O   0  0  0  0  0  0  0  0  0  0  0  0
    5.6500    0.9513    0.0000 O   0  0  0  0  0  0  0  0  0  0  0  0
    6.5442    2.4790    0.0000 O   0  0  0  0  0  0  0  0  0  0  0  0
    3.0000   -1.6111    0.0000 C   0  0  0  0  0  0  0  0  0  0  0  0
    4.8000   -0.5902    0.0000 C   0  0  0  0  0  0  0  0  0  0  0  0
    4.8000   -1.5902    0.0000 C   0  0  0  0  0  0  0  0  0  0  0  0
    3.0000   -0.5694    0.0000 C   0  0  0  0  0  0  0  0  0  0  0  0
    2.0000   -1.6149    0.0000 C   0  0  0  0  0  0  0  0  0  0  0  0
    2.5033   -2.4790    0.0000 C   0  0  0  0  0  0  0  0  0  0  0  0
    3.9061   -0.0556    0.0000 C   0  0  0  0  0  0  0  0  0  0  0  0
    5.6660   -0.0902    0.0000 C   0  0  0  0  0  0  0  0  0  0  0  0
    6.5320   -0.5902    0.0000 C   0  0  0  0  0  0  0  0  0  0  0  0
    5.6660   -2.0902    0.0000 C   0  0  0  0  0  0  0  0  0  0  0  0
    6.5320   -1.5902    0.0000 C   0  0  0  0  0  0  0  0  0  0  0  0
    7.4420   -0.0834    0.0000 C   0  0  0  0  0  0  0  0  0  0  0  0
    7.4501    0.9582    0.0000 C   0  0  0  0  0  0  0  0  0  0  0  0
    6.5480    1.4790    0.0000 C   0  0  0  0  0  0  0  0  0  0  0  0
    2.4643   -0.2574    0.0000 H   0  0  0  0  0  0  0  0  0  0  0  0
    1.9976   -0.9949    0.0000 H   0  0  0  0  0  0  0  0  0  0  0  0
    1.3800   -1.6173    0.0000 H   0  0  0  0  0  0  0  0  0  0  0  0
    2.0024   -2.2349    0.0000 H   0  0  0  0  0  0  0  0  0  0  0  0
    1.9652   -2.1711    0.0000 H   0  0  0  0  0  0  0  0  0  0  0  0
    2.1954   -3.0171    0.0000 H   0  0  0  0  0  0  0  0  0  0  0  0
    3.0415   -2.7869    0.0000 H   0  0  0  0  0  0  0  0  0  0  0  0
    3.9132    0.5644    0.0000 H   0  0  0  0  0  0  0  0  0  0  0  0
    5.6660   -2.7102    0.0000 H   0  0  0  0  0  0  0  0  0  0  0  0
    7.0690   -1.9002    0.0000 H   0  0  0  0  0  0  0  0  0  0  0  0
    7.9754   -0.3996    0.0000 H   0  0  0  0  0  0  0  0  0  0  0  0
    7.9882    1.2661    0.0000 H   0  0  0  0  0  0  0  0  0  0  0  0
  1  4  1  0  0  0  0
  1  6  1  0  0  0  0
  2 11  1  0  0  0  0
  2 17  1  0  0  0  0
  3 17  2  0  0  0  0
  4  7  1  0  0  0  0
  4  8  1  0  0  0  0
  4  9  1  0  0  0  0
  5  6  2  0  0  0  0
  5 10  1  0  0  0  0
  5 11  1  0  0  0  0
  6 13  1  0  0  0  0
  7 10  2  0  0  0  0
  7 18  1  0  0  0  0
  8 19  1  0  0  0  0
  8 20  1  0  0  0  0
  8 21  1  0  0  0  0
  9 22  1  0  0  0  0
  9 23  1  0  0  0  0
  9 24  1  0  0  0  0
 10 25  1  0  0  0  0
 11 12  2  0  0  0  0
 12 14  1  0  0  0  0
 12 15  1  0  0  0  0
 13 14  2  0  0  0  0
 13 26  1  0  0  0  0
 14 27  1  0  0  0  0
 15 16  2  0  0  0  0
 15 28  1  0  0  0  0
 16 17  1  0  0  0  0
 16 29  1  0  0  0  0
M  END
> <PUBCHEM_COMPOUND_CID>
68229

> <PUBCHEM_COMPOUND_CANONICALIZED>
1

> <PUBCHEM_CACTVS_COMPLEXITY>
394

> <PUBCHEM_CACTVS_HBOND_ACCEPTOR>
3

> <PUBCHEM_CACTVS_HBOND_DONOR>
0

> <PUBCHEM_CACTVS_ROTATABLE_BOND>
0

> <PUBCHEM_CACTVS_SUBSKEYS>
AAADccBwMAAAAAAAAAAAAAAAAAAAAAAAAAAwQIAAAAAAAACBAAAAGgAAAAAADESAmAAyDoAABACIAiDSCAACCAAgIAAIiAAGCMgMJyKEMRqCOiClwBUIqYeA4GwOIAACCAAIAABAAAQQABAAAAAAAAAAAA==

> <PUBCHEM_IUPAC_OPENEYE_NAME>
8,8-dimethylpyrano[2,3-f]chromen-2-one

> <PUBCHEM_IUPAC_CAS_NAME>
8,8-dimethyl-2-pyrano[2,3-f][1]benzopyranone

> <PUBCHEM_IUPAC_NAME>
8,8-dimethylpyrano[2,3-f]chromen-2-one

> <PUBCHEM_IUPAC_SYSTEMATIC_NAME>
8,8-dimethylpyrano[2,3-f]chromen-2-one

> <PUBCHEM_IUPAC_TRADITIONAL_NAME>
8,8-dimethylpyrano[2,3-f]chromen-2-one

> <PUBCHEM_IUPAC_INCHI>
InChI=1S/C14H12O3/c1-14(2)8-7-10-11(17-14)5-3-9-4-6-12(15)16-13(9)10/h3-8H,1-2H3

> <PUBCHEM_IUPAC_INCHIKEY>
QUVCQYQEIOLHFZ-UHFFFAOYSA-N

> <PUBCHEM_XLOGP3_AA>
2.8

> <PUBCHEM_EXACT_MASS>
228.078644

> <PUBCHEM_MOLECULAR_FORMULA>
C14H12O3

> <PUBCHEM_MOLECULAR_WEIGHT>
228.24328

> <PUBCHEM_OPENEYE_CAN_SMILES>
CC1(C=CC2=C(O1)C=CC3=C2OC(=O)C=C3)C

> <PUBCHEM_OPENEYE_ISO_SMILES>
CC1(C=CC2=C(O1)C=CC3=C2OC(=O)C=C3)C

> <PUBCHEM_CACTVS_TPSA>
35.5

> <PUBCHEM_MONOISOTOPIC_WEIGHT>
228.078644

> <PUBCHEM_TOTAL_CHARGE>
0

> <PUBCHEM_HEAVY_ATOM_COUNT>
17

> <PUBCHEM_ATOM_DEF_STEREO_COUNT>
0

> <PUBCHEM_ATOM_UDEF_STEREO_COUNT>
0

> <PUBCHEM_BOND_DEF_STEREO_COUNT>
0

> <PUBCHEM_BOND_UDEF_STEREO_COUNT>
0

> <PUBCHEM_ISOTOPIC_ATOM_COUNT>
0

> <PUBCHEM_COMPONENT_COUNT>
1

> <PUBCHEM_CACTVS_TAUTO_COUNT>
1

> <PUBCHEM_COORDINATE_TYPE>
1
5
255

> <PUBCHEM_BONDANNOTATIONS>
11  12  8
12  14  8
12  15  8
13  14  8
15  16  8
16  17  8
2  11  8
2  17  8
5  11  8
5  6  8
6  13  8

$$$$

