155170
  -OEChem-07051212493D

 24 24  0     1  0  0  0  0  0999 V2000
    5.5398   -0.8214   -0.0855 Br  0  0  0  0  0  0  0  0  0  0  0  0
   -0.6331    1.0908   -0.0595 S   0  0  0  0  0  0  0  0  0  0  0  0
   -3.7167    1.3774   -0.8465 O   0  0  0  0  0  0  0  0  0  0  0  0
   -4.0234   -0.8450   -1.1816 O   0  0  0  0  0  0  0  0  0  0  0  0
   -3.5626   -1.3124    1.4870 N   0  0  0  0  0  0  0  0  0  0  0  0
   -2.9531   -0.1340    0.8674 C   0  0  1  0  0  0  0  0  0  0  0  0
   -1.4423   -0.3347    0.7345 C   0  0  0  0  0  0  0  0  0  0  0  0
    1.0753    0.5622   -0.0676 C   0  0  0  0  0  0  0  0  0  0  0  0
   -3.6256    0.0751   -0.4765 C   0  0  0  0  0  0  0  0  0  0  0  0
    1.4354   -0.6017   -0.7405 C   0  0  0  0  0  0  0  0  0  0  0  0
    2.0359    1.3167    0.5997 C   0  0  0  0  0  0  0  0  0  0  0  0
    2.7678   -1.0146   -0.7461 C   0  0  0  0  0  0  0  0  0  0  0  0
    3.3683    0.9037    0.5940 C   0  0  0  0  0  0  0  0  0  0  0  0
    3.7342   -0.2620   -0.0788 C   0  0  0  0  0  0  0  0  0  0  0  0
   -3.1734    0.7297    1.5065 H   0  0  0  0  0  0  0  0  0  0  0  0
   -0.9915   -0.4842    1.7223 H   0  0  0  0  0  0  0  0  0  0  0  0
   -1.2407   -1.2287    0.1335 H   0  0  0  0  0  0  0  0  0  0  0  0
   -4.5507   -1.1336    1.6633 H   0  0  0  0  0  0  0  0  0  0  0  0
   -3.1377   -1.4775    2.3987 H   0  0  0  0  0  0  0  0  0  0  0  0
    0.7019   -1.1986   -1.2760 H   0  0  0  0  0  0  0  0  0  0  0  0
    1.7683    2.2274    1.1296 H   0  0  0  0  0  0  0  0  0  0  0  0
    3.0370   -1.9242   -1.2770 H   0  0  0  0  0  0  0  0  0  0  0  0
    4.1089    1.5014    1.1190 H   0  0  0  0  0  0  0  0  0  0  0  0
   -4.1402    1.4795   -1.7254 H   0  0  0  0  0  0  0  0  0  0  0  0
  1 14  1  0  0  0  0
  2  7  1  0  0  0  0
  2  8  1  0  0  0  0
  3  9  1  0  0  0  0
  3 24  1  0  0  0  0
  4  9  2  0  0  0  0
  5  6  1  0  0  0  0
  5 18  1  0  0  0  0
  5 19  1  0  0  0  0
  6  7  1  0  0  0  0
  6  9  1  0  0  0  0
  6 15  1  0  0  0  0
  7 16  1  0  0  0  0
  7 17  1  0  0  0  0
  8 10  2  0  0  0  0
  8 11  1  0  0  0  0
 10 12  1  0  0  0  0
 10 20  1  0  0  0  0
 11 13  2  0  0  0  0
 11 21  1  0  0  0  0
 12 14  2  0  0  0  0
 12 22  1  0  0  0  0
 13 14  1  0  0  0  0
 13 23  1  0  0  0  0
M  END
> <PUBCHEM_COMPOUND_CID>
155170

> <PUBCHEM_CONFORMER_RMSD>
0.6

> <PUBCHEM_CONFORMER_DIVERSEORDER>
1
36
7
22
32
18
10
19
24
34
13
37
17
38
9
5
40
2
8
35
31
12
27
14
28
39
29
20
3
4
16
25
15
21
11
33
6
23
30
26

> <PUBCHEM_MMFF94_PARTIAL_CHARGES>
21
1 -0.11
10 -0.15
11 -0.15
12 -0.15
13 -0.15
14 0.11
18 0.36
19 0.36
2 -0.33
20 0.15
21 0.15
22 0.15
23 0.15
24 0.5
3 -0.65
4 -0.57
5 -0.99
6 0.33
7 0.23
8 0.1
9 0.66

> <PUBCHEM_EFFECTIVE_ROTOR_COUNT>
4

> <PUBCHEM_PHARMACOPHORE_FEATURES>
7
1 1 hydrophobe
1 3 acceptor
1 4 acceptor
1 5 cation
1 5 donor
3 3 4 9 anion
6 8 10 11 12 13 14 rings

> <PUBCHEM_HEAVY_ATOM_COUNT>
14

> <PUBCHEM_ATOM_DEF_STEREO_COUNT>
1

> <PUBCHEM_ATOM_UDEF_STEREO_COUNT>
0

> <PUBCHEM_BOND_DEF_STEREO_COUNT>
0

> <PUBCHEM_BOND_UDEF_STEREO_COUNT>
0

> <PUBCHEM_ISOTOPIC_ATOM_COUNT>
0

> <PUBCHEM_COMPONENT_COUNT>
1

> <PUBCHEM_CACTVS_TAUTO_COUNT>
1

> <PUBCHEM_CONFORMER_ID>
00025E2200000001

> <PUBCHEM_MMFF94_ENERGY>
26.4538

> <PUBCHEM_FEATURE_SELFOVERLAP>
35.579

> <PUBCHEM_SHAPE_FINGERPRINT>
10751810 167 16558746806458302081
11615757 297 17312823762202863424
11796584 16 17846500387341062722
124424 183 18343584040327275240
12500047 106 17917996087512471235
13296908 3 18201433640975880193
13862211 1 18114181978091668270
14123238 8 8286193955461482244
14251717 144 17967816046030534046
14252887 29 17458619064940335886
15242439 84 18272373091633344077
15375358 24 18343586218034008400
17834072 14 18412827984157469904
17834072 33 17530970142467249620
18186145 218 16773798069437212517
19050596 39 16515677840686723363
1986462 14 17489867120586804211
200 152 17748832933565534981
20201158 50 18409163329013195074
20279233 1 18412823590389919899
20325693 3 16630524042511742147
20645476 183 15410890734614182563
20645477 56 17846780750015922445
20645477 70 18187367670252397638
22485316 2 18334297595183876166
23402539 116 17989207083598833140
23402655 69 18186802516928103028
23559900 14 17989486312719084984
26918003 58 18259696800844471627
2916195 48 6988024740359849186
581208 293 18114183016919508352

> <PUBCHEM_SHAPE_MULTIPOLES>
281.19
10.41
1.34
1.09
1.62
0.18
0.16
-2.82
-0.21
0.2
-0.02
-1.12
-0.19
0.75

> <PUBCHEM_SHAPE_SELFOVERLAP>
545.195

> <PUBCHEM_SHAPE_VOLUME>
173.9

> <PUBCHEM_COORDINATE_TYPE>
2
5
10

$$$$

