5462438
  -OEChem-07051212572D

 70 74  0     1  0  0  0  0  0999 V2000
   10.8006    2.5450    0.0000 O   0  0  0  0  0  0  0  0  0  0  0  0
   12.5745    1.5209    0.0000 O   0  0  0  0  0  0  0  0  0  0  0  0
    2.8660    0.9894    0.0000 O   0  0  0  0  0  0  0  0  0  0  0  0
    2.8739    3.0377    0.0000 O   0  0  0  0  0  0  0  0  0  0  0  0
    9.0565   -1.5242    0.0000 N   0  0  3  0  0  0  0  0  0  0  0  0
    7.2642    1.4966    0.0000 N   0  0  0  0  0  0  0  0  0  0  0  0
    7.2565   -0.5034    0.0000 C   0  0  2  0  0  0  0  0  0  0  0  0
    7.2565   -1.5450    0.0000 C   0  0  2  0  0  0  0  0  0  0  0  0
    9.0565   -0.5242    0.0000 C   0  0  1  0  0  0  0  0  0  0  0  0
    8.1625    0.0104    0.0000 C   0  0  0  0  0  0  0  0  0  0  0  0
    8.1625   -2.0589    0.0000 C   0  0  0  0  0  0  0  0  0  0  0  0
    6.3924   -0.0001    0.0000 C   0  0  0  0  0  0  0  0  0  0  0  0
    9.9225   -2.0242    0.0000 C   0  0  0  0  0  0  0  0  0  0  0  0
    9.9225   -0.0242    0.0000 C   0  0  0  0  0  0  0  0  0  0  0  0
    6.3924   -2.0484    0.0000 C   0  0  0  0  0  0  0  0  0  0  0  0
   10.7885   -1.5242    0.0000 C   0  0  0  0  0  0  0  0  0  0  0  0
   10.7885   -0.5242    0.0000 C   0  0  0  0  0  0  0  0  0  0  0  0
    6.3962    0.9999    0.0000 C   0  0  0  0  0  0  0  0  0  0  0  0
    9.9064    1.0173    0.0000 C   0  0  0  0  0  0  0  0  0  0  0  0
    6.3962   -3.0484    0.0000 C   0  0  0  0  0  0  0  0  0  0  0  0
   11.6985   -0.0174    0.0000 C   0  0  0  0  0  0  0  0  0  0  0  0
    5.5321    1.5032    0.0000 C   0  0  0  0  0  0  0  0  0  0  0  0
   10.8045    1.5450    0.0000 C   0  0  0  0  0  0  0  0  0  0  0  0
   11.7065    1.0242    0.0000 C   0  0  0  0  0  0  0  0  0  0  0  0
    7.2680    2.4966    0.0000 C   0  0  0  0  0  0  0  0  0  0  0  0
    5.5360    2.5032    0.0000 C   0  0  0  0  0  0  0  0  0  0  0  0
    6.4039    2.9999    0.0000 C   0  0  0  0  0  0  0  0  0  0  0  0
    4.6361    0.9720    0.0000 C   0  0  0  0  0  0  0  0  0  0  0  0
    4.6441    3.0414    0.0000 C   0  0  0  0  0  0  0  0  0  0  0  0
    3.7320    1.4894    0.0000 C   0  0  0  0  0  0  0  0  0  0  0  0
    3.7361    2.5310    0.0000 C   0  0  0  0  0  0  0  0  0  0  0  0
   11.6647    3.0484    0.0000 C   0  0  0  0  0  0  0  0  0  0  0  0
   13.4386    1.0176    0.0000 C   0  0  0  0  0  0  0  0  0  0  0  0
    2.0000    1.4894    0.0000 C   0  0  0  0  0  0  0  0  0  0  0  0
    7.2600    0.1166    0.0000 H   0  0  0  0  0  0  0  0  0  0  0  0
    6.7189   -1.2361    0.0000 H   0  0  0  0  0  0  0  0  0  0  0  0
    9.0630    0.3258    0.0000 H   0  0  0  0  0  0  0  0  0  0  0  0
    8.5671    0.4802    0.0000 H   0  0  0  0  0  0  0  0  0  0  0  0
    7.7689    0.4895    0.0000 H   0  0  0  0  0  0  0  0  0  0  0  0
    7.7689   -2.5379    0.0000 H   0  0  0  0  0  0  0  0  0  0  0  0
    8.5671   -2.5287    0.0000 H   0  0  0  0  0  0  0  0  0  0  0  0
    5.7822    0.1099    0.0000 H   0  0  0  0  0  0  0  0  0  0  0  0
    6.1781   -0.5819    0.0000 H   0  0  0  0  0  0  0  0  0  0  0  0
    9.5240   -2.4992    0.0000 H   0  0  0  0  0  0  0  0  0  0  0  0
   10.3210   -2.4992    0.0000 H   0  0  0  0  0  0  0  0  0  0  0  0
    6.1781   -1.4666    0.0000 H   0  0  0  0  0  0  0  0  0  0  0  0
    5.7822   -2.1584    0.0000 H   0  0  0  0  0  0  0  0  0  0  0  0
   11.0006   -2.1068    0.0000 H   0  0  0  0  0  0  0  0  0  0  0  0
   11.3991   -1.4166    0.0000 H   0  0  0  0  0  0  0  0  0  0  0  0
    9.3660    1.3210    0.0000 H   0  0  0  0  0  0  0  0  0  0  0  0
    5.7762   -3.0508    0.0000 H   0  0  0  0  0  0  0  0  0  0  0  0
    6.3986   -3.6684    0.0000 H   0  0  0  0  0  0  0  0  0  0  0  0
    7.0162   -3.0460    0.0000 H   0  0  0  0  0  0  0  0  0  0  0  0
   12.2318   -0.3336    0.0000 H   0  0  0  0  0  0  0  0  0  0  0  0
    7.7999    1.1845    0.0000 H   0  0  0  0  0  0  0  0  0  0  0  0
    7.8782    2.3866    0.0000 H   0  0  0  0  0  0  0  0  0  0  0  0
    7.4823    3.0784    0.0000 H   0  0  0  0  0  0  0  0  0  0  0  0
    6.8043    3.4733    0.0000 H   0  0  0  0  0  0  0  0  0  0  0  0
    6.0072    3.4764    0.0000 H   0  0  0  0  0  0  0  0  0  0  0  0
    4.6409    0.3521    0.0000 H   0  0  0  0  0  0  0  0  0  0  0  0
    4.6537    3.6613    0.0000 H   0  0  0  0  0  0  0  0  0  0  0  0
   11.9768    2.5126    0.0000 H   0  0  0  0  0  0  0  0  0  0  0  0
   12.2004    3.3604    0.0000 H   0  0  0  0  0  0  0  0  0  0  0  0
   11.3526    3.5841    0.0000 H   0  0  0  0  0  0  0  0  0  0  0  0
   13.1265    0.4818    0.0000 H   0  0  0  0  0  0  0  0  0  0  0  0
   13.9743    0.7055    0.0000 H   0  0  0  0  0  0  0  0  0  0  0  0
   13.7507    1.5533    0.0000 H   0  0  0  0  0  0  0  0  0  0  0  0
    2.3100    2.0263    0.0000 H   0  0  0  0  0  0  0  0  0  0  0  0
    1.4631    1.7994    0.0000 H   0  0  0  0  0  0  0  0  0  0  0  0
    1.6900    0.9524    0.0000 H   0  0  0  0  0  0  0  0  0  0  0  0
  1 23  1  0  0  0  0
  1 32  1  0  0  0  0
  2 24  1  0  0  0  0
  2 33  1  0  0  0  0
  3 30  1  0  0  0  0
  3 34  1  0  0  0  0
  4 31  2  0  0  0  0
  5  9  1  0  0  0  0
  5 11  1  0  0  0  0
  5 13  1  0  0  0  0
  6 18  1  0  0  0  0
  6 25  1  0  0  0  0
  6 55  1  0  0  0  0
  7  8  1  0  0  0  0
  7 10  1  0  0  0  0
  7 12  1  1  0  0  0
  7 35  1  0  0  0  0
  8 11  1  0  0  0  0
  8 15  1  6  0  0  0
  8 36  1  0  0  0  0
  9 10  1  0  0  0  0
  9 14  1  0  0  0  0
  9 37  1  6  0  0  0
 10 38  1  0  0  0  0
 10 39  1  0  0  0  0
 11 40  1  0  0  0  0
 11 41  1  0  0  0  0
 12 18  1  0  0  0  0
 12 42  1  0  0  0  0
 12 43  1  0  0  0  0
 13 16  1  0  0  0  0
 13 44  1  0  0  0  0
 13 45  1  0  0  0  0
 14 17  1  0  0  0  0
 14 19  2  0  0  0  0
 15 20  1  0  0  0  0
 15 46  1  0  0  0  0
 15 47  1  0  0  0  0
 16 17  1  0  0  0  0
 16 48  1  0  0  0  0
 16 49  1  0  0  0  0
 17 21  2  0  0  0  0
 18 22  2  0  0  0  0
 19 23  1  0  0  0  0
 19 50  1  0  0  0  0
 20 51  1  0  0  0  0
 20 52  1  0  0  0  0
 20 53  1  0  0  0  0
 21 24  1  0  0  0  0
 21 54  1  0  0  0  0
 22 26  1  0  0  0  0
 22 28  1  0  0  0  0
 23 24  2  0  0  0  0
 25 27  1  0  0  0  0
 25 56  1  0  0  0  0
 25 57  1  0  0  0  0
 26 27  1  0  0  0  0
 26 29  2  0  0  0  0
 27 58  1  0  0  0  0
 27 59  1  0  0  0  0
 28 30  2  0  0  0  0
 28 60  1  0  0  0  0
 29 31  1  0  0  0  0
 29 61  1  0  0  0  0
 30 31  1  0  0  0  0
 32 62  1  0  0  0  0
 32 63  1  0  0  0  0
 32 64  1  0  0  0  0
 33 65  1  0  0  0  0
 33 66  1  0  0  0  0
 33 67  1  0  0  0  0
 34 68  1  0  0  0  0
 34 69  1  0  0  0  0
 34 70  1  0  0  0  0
M  END
> <PUBCHEM_COMPOUND_CID>
5462438

> <PUBCHEM_COMPOUND_CANONICALIZED>
1

> <PUBCHEM_CACTVS_COMPLEXITY>
878

> <PUBCHEM_CACTVS_HBOND_ACCEPTOR>
6

> <PUBCHEM_CACTVS_HBOND_DONOR>
1

> <PUBCHEM_CACTVS_ROTATABLE_BOND>
6

> <PUBCHEM_CACTVS_SUBSKEYS>
AAADcfB7OAAAAAAAAAAAAAAAAAAAAAAAAAA8WIECAAAAAACxAAAAHgAQAAAADSzBmAYyBoPABACIAqRSQAKCCAAgIAAAiIBOjMgNJiKEsR+EMCpk0BGKqYew0PMOoAABAAAQQABAAAIAACCAAAAAAAAAAA==

> <PUBCHEM_IUPAC_OPENEYE_NAME>
1-[[(2R,3R,11bS)-3-ethyl-9,10-dimethoxy-2,3,4,6,7,11b-hexahydro-1H-benzo[a]quinolizin-2-yl]methyl]-7-methoxy-3,4-dihydro-2H-isoquinolin-6-one

> <PUBCHEM_IUPAC_CAS_NAME>
1-[[(2R,3R,11bS)-3-ethyl-9,10-dimethoxy-2,3,4,6,7,11b-hexahydro-1H-benzo[a]quinolizin-2-yl]methyl]-7-methoxy-3,4-dihydro-2H-isoquinolin-6-one

> <PUBCHEM_IUPAC_NAME>
1-[[(2R,3R,11bS)-3-ethyl-9,10-dimethoxy-2,3,4,6,7,11b-hexahydro-1H-benzo[a]quinolizin-2-yl]methyl]-7-methoxy-3,4-dihydro-2H-isoquinolin-6-one

> <PUBCHEM_IUPAC_SYSTEMATIC_NAME>
1-[[(2R,3R,11bS)-3-ethyl-9,10-dimethoxy-2,3,4,6,7,11b-hexahydro-1H-benzo[a]quinolizin-2-yl]methyl]-7-methoxy-3,4-dihydro-2H-isoquinolin-6-one

> <PUBCHEM_IUPAC_TRADITIONAL_NAME>
1-[[(2R,3R,11bS)-3-ethyl-9,10-dimethoxy-2,3,4,6,7,11b-hexahydro-1H-benzo[a]quinolizin-2-yl]methyl]-7-methoxy-3,4-dihydro-2H-isoquinolin-6-one

> <PUBCHEM_IUPAC_INCHI>
InChI=1S/C28H36N2O4/c1-5-17-16-30-9-7-19-13-27(33-3)28(34-4)15-22(19)24(30)11-20(17)10-23-21-14-26(32-2)25(31)12-18(21)6-8-29-23/h12-15,17,20,24,29H,5-11,16H2,1-4H3/t17-,20-,24-/m0/s1

> <PUBCHEM_IUPAC_INCHIKEY>
CLNILJPYOXIKRO-REIDKSKDSA-N

> <PUBCHEM_XLOGP3_AA>
4

> <PUBCHEM_EXACT_MASS>
464.267508

> <PUBCHEM_MOLECULAR_FORMULA>
C28H36N2O4

> <PUBCHEM_MOLECULAR_WEIGHT>
464.59644

> <PUBCHEM_OPENEYE_CAN_SMILES>
CCC1CN2CCC3=CC(=C(C=C3C2CC1CC4=C5C=C(C(=O)C=C5CCN4)OC)OC)OC

> <PUBCHEM_OPENEYE_ISO_SMILES>
CC[C@H]1CN2CCC3=CC(=C(C=C3[C@@H]2C[C@@H]1CC4=C5C=C(C(=O)C=C5CCN4)OC)OC)OC

> <PUBCHEM_CACTVS_TPSA>
60

> <PUBCHEM_MONOISOTOPIC_WEIGHT>
464.267508

> <PUBCHEM_TOTAL_CHARGE>
0

> <PUBCHEM_HEAVY_ATOM_COUNT>
34

> <PUBCHEM_ATOM_DEF_STEREO_COUNT>
3

> <PUBCHEM_ATOM_UDEF_STEREO_COUNT>
0

> <PUBCHEM_BOND_DEF_STEREO_COUNT>
0

> <PUBCHEM_BOND_UDEF_STEREO_COUNT>
0

> <PUBCHEM_ISOTOPIC_ATOM_COUNT>
0

> <PUBCHEM_COMPONENT_COUNT>
1

> <PUBCHEM_CACTVS_TAUTO_COUNT>
21

> <PUBCHEM_COORDINATE_TYPE>
1
5
255

> <PUBCHEM_BONDANNOTATIONS>
14  17  8
14  19  8
17  21  8
19  23  8
21  24  8
23  24  8
7  12  5
8  15  6
9  37  6

$$$$

