440999
  -OEChem-07051212513D

 13 12  0     0  0  0  0  0  0999 V2000
   -1.3618   -1.2195    0.0049 O   0  0  0  0  0  0  0  0  0  0  0  0
    0.2818    0.4213   -0.0066 N   0  0  0  0  0  0  0  0  0  0  0  0
    2.6361    0.3052    0.0094 N   0  0  0  0  0  0  0  0  0  0  0  0
   -1.9414    1.0036    0.0014 N   0  0  0  0  0  0  0  0  0  0  0  0
    1.4144   -0.4751   -0.0094 C   0  0  0  0  0  0  0  0  0  0  0  0
   -1.0291   -0.0355    0.0004 C   0  0  0  0  0  0  0  0  0  0  0  0
    1.3642   -1.1009   -0.9058 H   0  0  0  0  0  0  0  0  0  0  0  0
    1.3517   -1.1247    0.8692 H   0  0  0  0  0  0  0  0  0  0  0  0
    0.4541    1.4216   -0.0136 H   0  0  0  0  0  0  0  0  0  0  0  0
    2.6380    0.9079    0.8311 H   0  0  0  0  0  0  0  0  0  0  0  0
    2.6506    0.9277   -0.7972 H   0  0  0  0  0  0  0  0  0  0  0  0
   -1.6441    1.9735   -0.0024 H   0  0  0  0  0  0  0  0  0  0  0  0
   -2.9402    0.8259    0.0061 H   0  0  0  0  0  0  0  0  0  0  0  0
  1  6  2  0  0  0  0
  2  5  1  0  0  0  0
  2  6  1  0  0  0  0
  2  9  1  0  0  0  0
  3  5  1  0  0  0  0
  3 10  1  0  0  0  0
  3 11  1  0  0  0  0
  4  6  1  0  0  0  0
  4 12  1  0  0  0  0
  4 13  1  0  0  0  0
  5  7  1  0  0  0  0
  5  8  1  0  0  0  0
M  END
> <PUBCHEM_COMPOUND_CID>
440999

> <PUBCHEM_CONFORMER_RMSD>
0.4

> <PUBCHEM_CONFORMER_DIVERSEORDER>
1
4
2
3

> <PUBCHEM_MMFF94_PARTIAL_CHARGES>
11
1 -0.57
10 0.36
11 0.36
12 0.37
13 0.37
2 -0.73
3 -0.99
4 -0.8
5 0.57
6 0.69
9 0.37

> <PUBCHEM_EFFECTIVE_ROTOR_COUNT>
2

> <PUBCHEM_PHARMACOPHORE_FEATURES>
5
1 1 acceptor
1 2 donor
1 3 cation
1 3 donor
1 4 donor

> <PUBCHEM_HEAVY_ATOM_COUNT>
6

> <PUBCHEM_ATOM_DEF_STEREO_COUNT>
0

> <PUBCHEM_ATOM_UDEF_STEREO_COUNT>
0

> <PUBCHEM_BOND_DEF_STEREO_COUNT>
0

> <PUBCHEM_BOND_UDEF_STEREO_COUNT>
0

> <PUBCHEM_ISOTOPIC_ATOM_COUNT>
0

> <PUBCHEM_COMPONENT_COUNT>
1

> <PUBCHEM_CACTVS_TAUTO_COUNT>
3

> <PUBCHEM_CONFORMER_ID>
0006BAA700000001

> <PUBCHEM_MMFF94_ENERGY>
2.112

> <PUBCHEM_FEATURE_SELFOVERLAP>
25.462

> <PUBCHEM_SHAPE_FINGERPRINT>
139733 1 9222966862535632998
14390081 3 18260272940690158792
16714656 1 18341330080161020189
20096714 4 18341049721743833705
21040471 1 18338797952063484781
29004967 10 17095234805118106690
5460574 1 9295287239873646436

> <PUBCHEM_SHAPE_MULTIPOLES>
102.66
3.07
1
0.55
1.44
0.14
0
-0.46
-0.01
-0.46
0
0.01
0.01
0

> <PUBCHEM_SHAPE_SELFOVERLAP>
183.11

> <PUBCHEM_SHAPE_VOLUME>
66.6

> <PUBCHEM_COORDINATE_TYPE>
2
5
10

$$$$

