443488
  -OEChem-07051213022D

 59 61  0     1  0  0  0  0  0999 V2000
    2.6206    2.9399    0.0000 O   0  0  0  0  0  0  0  0  0  0  0  0
    3.7164   -2.6596    0.0000 O   0  0  0  0  0  0  0  0  0  0  0  0
    2.0000   -2.8923    0.0000 O   0  0  0  0  0  0  0  0  0  0  0  0
    3.3277    0.3850    0.0000 C   0  0  2  0  0  0  0  0  0  0  0  0
    4.2516    0.0023    0.0000 C   0  0  2  0  0  0  0  0  0  0  0  0
    5.5582    1.3089    0.0000 C   0  0  2  0  0  0  0  0  0  0  0  0
    5.1755    2.2327    0.0000 C   0  0  0  0  0  0  0  0  0  0  0  0
    5.1755    0.3850    0.0000 C   0  0  0  0  0  0  0  0  0  0  0  0
    2.9450    1.3089    0.0000 C   0  0  0  0  0  0  0  0  0  0  0  0
    2.4917   -0.2363    0.0000 C   0  0  0  0  0  0  0  0  0  0  0  0
    4.2516    2.6154    0.0000 C   0  0  0  0  0  0  0  0  0  0  0  0
    3.3277    2.2327    0.0000 C   0  0  1  0  0  0  0  0  0  0  0  0
    6.2313    2.0506    0.0000 C   0  0  0  0  0  0  0  0  0  0  0  0
    4.4035   -1.0282    0.0000 C   0  0  0  0  0  0  0  0  0  0  0  0
    2.6197   -1.2700    0.0000 C   0  0  0  0  0  0  0  0  0  0  0  0
    3.5820   -1.6686    0.0000 C   0  0  2  0  0  0  0  0  0  0  0  0
    2.4038    0.7677    0.0000 C   0  0  0  0  0  0  0  0  0  0  0  0
    5.9565    3.0137    0.0000 C   0  0  0  0  0  0  0  0  0  0  0  0
    4.9933    3.2886    0.0000 C   0  0  0  0  0  0  0  0  0  0  0  0
    5.4731    3.3436    0.0000 C   0  0  0  0  0  0  0  0  0  0  0  0
    6.2863    2.5304    0.0000 C   0  0  0  0  0  0  0  0  0  0  0  0
    5.3317   -1.4002    0.0000 C   0  0  0  0  0  0  0  0  0  0  0  0
    4.7658    4.2623    0.0000 C   0  0  0  0  0  0  0  0  0  0  0  0
    2.9254   -3.2714    0.0000 C   0  0  0  0  0  0  0  0  0  0  0  0
    3.0597   -4.2623    0.0000 C   0  0  0  0  0  0  0  0  0  0  0  0
    5.0369   -0.3230    0.0000 H   0  0  0  0  0  0  0  0  0  0  0  0
    5.8834    0.5236    0.0000 H   0  0  0  0  0  0  0  0  0  0  0  0
    5.2564   -0.2297    0.0000 H   0  0  0  0  0  0  0  0  0  0  0  0
    5.7902    0.3041    0.0000 H   0  0  0  0  0  0  0  0  0  0  0  0
    2.4532    1.6863    0.0000 H   0  0  0  0  0  0  0  0  0  0  0  0
    2.4532    0.9314    0.0000 H   0  0  0  0  0  0  0  0  0  0  0  0
    2.2125    0.3173    0.0000 H   0  0  0  0  0  0  0  0  0  0  0  0
    1.8985   -0.4166    0.0000 H   0  0  0  0  0  0  0  0  0  0  0  0
    2.7196    2.1118    0.0000 H   0  0  0  0  0  0  0  0  0  0  0  0
    6.6058    1.5564    0.0000 H   0  0  0  0  0  0  0  0  0  0  0  0
    6.7859    2.3276    0.0000 H   0  0  0  0  0  0  0  0  0  0  0  0
    2.0004   -1.2398    0.0000 H   0  0  0  0  0  0  0  0  0  0  0  0
    2.4839   -1.8750    0.0000 H   0  0  0  0  0  0  0  0  0  0  0  0
    3.0908   -2.0470    0.0000 H   0  0  0  0  0  0  0  0  0  0  0  0
    2.6411    1.3405    0.0000 H   0  0  0  0  0  0  0  0  0  0  0  0
    1.8310    1.0049    0.0000 H   0  0  0  0  0  0  0  0  0  0  0  0
    2.1666    0.1949    0.0000 H   0  0  0  0  0  0  0  0  0  0  0  0
    6.5738    3.0711    0.0000 H   0  0  0  0  0  0  0  0  0  0  0  0
    6.0138    3.6311    0.0000 H   0  0  0  0  0  0  0  0  0  0  0  0
    6.0720    3.1831    0.0000 H   0  0  0  0  0  0  0  0  0  0  0  0
    5.6336    3.9424    0.0000 H   0  0  0  0  0  0  0  0  0  0  0  0
    4.8742    3.5040    0.0000 H   0  0  0  0  0  0  0  0  0  0  0  0
    6.4468    1.9315    0.0000 H   0  0  0  0  0  0  0  0  0  0  0  0
    6.8852    2.6909    0.0000 H   0  0  0  0  0  0  0  0  0  0  0  0
    6.1258    3.1293    0.0000 H   0  0  0  0  0  0  0  0  0  0  0  0
    5.4197   -2.0139    0.0000 H   0  0  0  0  0  0  0  0  0  0  0  0
    5.8192   -1.0171    0.0000 H   0  0  0  0  0  0  0  0  0  0  0  0
    5.3696    4.4034    0.0000 H   0  0  0  0  0  0  0  0  0  0  0  0
    4.6248    4.8661    0.0000 H   0  0  0  0  0  0  0  0  0  0  0  0
    4.1621    4.1213    0.0000 H   0  0  0  0  0  0  0  0  0  0  0  0
    2.0217    2.7794    0.0000 H   0  0  0  0  0  0  0  0  0  0  0  0
    2.4453   -4.3456    0.0000 H   0  0  0  0  0  0  0  0  0  0  0  0
    3.1430   -4.8767    0.0000 H   0  0  0  0  0  0  0  0  0  0  0  0
    3.6741   -4.1790    0.0000 H   0  0  0  0  0  0  0  0  0  0  0  0
 12  1  1  6  0  0  0
  1 56  1  0  0  0  0
 16  2  1  1  0  0  0
  2 24  1  0  0  0  0
  3 24  2  0  0  0  0
  4  5  1  0  0  0  0
  4  9  1  0  0  0  0
  4 10  1  0  0  0  0
  4 17  1  6  0  0  0
  5  8  1  0  0  0  0
  5 14  1  0  0  0  0
  5 26  1  1  0  0  0
  6  7  1  0  0  0  0
  6  8  1  0  0  0  0
  6 13  1  0  0  0  0
  6 27  1  6  0  0  0
  7 11  1  0  0  0  0
  7 20  1  0  0  0  0
  7 21  1  0  0  0  0
  8 28  1  0  0  0  0
  8 29  1  0  0  0  0
  9 12  1  0  0  0  0
  9 30  1  0  0  0  0
  9 31  1  0  0  0  0
 10 15  1  0  0  0  0
 10 32  1  0  0  0  0
 10 33  1  0  0  0  0
 11 12  1  0  0  0  0
 11 19  2  0  0  0  0
 12 34  1  0  0  0  0
 13 18  1  0  0  0  0
 13 35  1  0  0  0  0
 13 36  1  0  0  0  0
 14 16  1  0  0  0  0
 14 22  2  0  0  0  0
 15 16  1  0  0  0  0
 15 37  1  0  0  0  0
 15 38  1  0  0  0  0
 16 39  1  0  0  0  0
 17 40  1  0  0  0  0
 17 41  1  0  0  0  0
 17 42  1  0  0  0  0
 18 19  1  0  0  0  0
 18 43  1  0  0  0  0
 18 44  1  0  0  0  0
 19 23  1  0  0  0  0
 20 45  1  0  0  0  0
 20 46  1  0  0  0  0
 20 47  1  0  0  0  0
 21 48  1  0  0  0  0
 21 49  1  0  0  0  0
 21 50  1  0  0  0  0
 22 51  1  0  0  0  0
 22 52  1  0  0  0  0
 23 53  1  0  0  0  0
 23 54  1  0  0  0  0
 23 55  1  0  0  0  0
 24 25  1  0  0  0  0
 25 57  1  0  0  0  0
 25 58  1  0  0  0  0
 25 59  1  0  0  0  0
M  END
> <PUBCHEM_COMPOUND_CID>
443488

> <PUBCHEM_COMPOUND_CANONICALIZED>
1

> <PUBCHEM_CACTVS_COMPLEXITY>
615

> <PUBCHEM_CACTVS_HBOND_ACCEPTOR>
3

> <PUBCHEM_CACTVS_HBOND_DONOR>
1

> <PUBCHEM_CACTVS_ROTATABLE_BOND>
2

> <PUBCHEM_CACTVS_SUBSKEYS>
AAADcfB4MAAAAAAAAAAAAAAAAAAAAAAAAAAwQAAAAAAYAACAAAAAGgAACAAADxSggAICCAAABgCIAgDSCAAAAAAgAAAACAAAAAgAFAIAIQACUAAEgAAIMAOAwPAPgAAAAAAAAABAAAIAACAAAAAAAAAAAA==

> <PUBCHEM_IUPAC_INCHI>
InChI=1S/C22H34O3/c1-13-7-8-16-11-17-14(2)19(25-15(3)23)9-10-22(17,6)12-18(24)20(13)21(16,4)5/h16-19,24H,2,7-12H2,1,3-6H3/t16-,17+,18-,19-,22-/m0/s1

> <PUBCHEM_IUPAC_INCHIKEY>
BMPKIAPYMZISRD-PQTWGXLHSA-N

> <PUBCHEM_XLOGP3_AA>
3.7

> <PUBCHEM_EXACT_MASS>
346.250795

> <PUBCHEM_MOLECULAR_FORMULA>
C22H34O3

> <PUBCHEM_MOLECULAR_WEIGHT>
346.50356

> <PUBCHEM_OPENEYE_CAN_SMILES>
CC1=C2C(CC3(CCC(C(=C)C3CC(C2(C)C)CC1)OC(=O)C)C)O

> <PUBCHEM_OPENEYE_ISO_SMILES>
CC1=C2[C@H](C[C@@]3(CC[C@@H](C(=C)[C@H]3C[C@@H](C2(C)C)CC1)OC(=O)C)C)O

> <PUBCHEM_CACTVS_TPSA>
46.5

> <PUBCHEM_MONOISOTOPIC_WEIGHT>
346.250795

> <PUBCHEM_TOTAL_CHARGE>
0

> <PUBCHEM_HEAVY_ATOM_COUNT>
25

> <PUBCHEM_ATOM_DEF_STEREO_COUNT>
5

> <PUBCHEM_ATOM_UDEF_STEREO_COUNT>
0

> <PUBCHEM_BOND_DEF_STEREO_COUNT>
0

> <PUBCHEM_BOND_UDEF_STEREO_COUNT>
0

> <PUBCHEM_ISOTOPIC_ATOM_COUNT>
0

> <PUBCHEM_COMPONENT_COUNT>
1

> <PUBCHEM_CACTVS_TAUTO_COUNT>
1

> <PUBCHEM_COORDINATE_TYPE>
1
5
255

> <PUBCHEM_BONDANNOTATIONS>
12  1  6
16  2  5
4  17  6
5  26  5
6  27  6

$$$$

