854296
  -OEChem-06241222473D

 33 34  0     0  0  0  0  0  0999 V2000
   -1.9028   -1.6154   -0.0407 O   0  0  0  0  0  0  0  0  0  0  0  0
    2.7747   -0.9043   -0.5891 O   0  0  0  0  0  0  0  0  0  0  0  0
   -4.1443   -1.9812    0.2243 O   0  0  0  0  0  0  0  0  0  0  0  0
    1.3339    0.9976   -0.3637 C   0  0  0  0  0  0  0  0  0  0  0  0
   -1.0631    0.6782   -0.0820 C   0  0  0  0  0  0  0  0  0  0  0  0
    0.0484    1.5243   -0.1941 C   0  0  0  0  0  0  0  0  0  0  0  0
    1.5281   -0.3813   -0.4240 C   0  0  0  0  0  0  0  0  0  0  0  0
   -0.8384   -0.6977   -0.1458 C   0  0  0  0  0  0  0  0  0  0  0  0
    2.4926    1.9333   -0.4801 C   0  0  0  0  0  0  0  0  0  0  0  0
   -2.4398    1.1588    0.0978 C   0  0  0  0  0  0  0  0  0  0  0  0
    0.4378   -1.2378   -0.3147 C   0  0  0  0  0  0  0  0  0  0  0  0
    3.1093    2.2575    0.8782 C   0  0  0  0  0  0  0  0  0  0  0  0
   -3.4325    0.2631    0.1945 C   0  0  0  0  0  0  0  0  0  0  0  0
   -2.7148    2.6323    0.1715 C   0  0  0  0  0  0  0  0  0  0  0  0
   -3.2114   -1.1914    0.1294 C   0  0  0  0  0  0  0  0  0  0  0  0
    3.2566   -1.7688    0.4381 C   0  0  0  0  0  0  0  0  0  0  0  0
    4.7657   -1.6674    0.5003 C   0  0  0  0  0  0  0  0  0  0  0  0
   -0.0727    2.6041   -0.1484 H   0  0  0  0  0  0  0  0  0  0  0  0
    3.2607    1.5173   -1.1431 H   0  0  0  0  0  0  0  0  0  0  0  0
    2.1716    2.8659   -0.9616 H   0  0  0  0  0  0  0  0  0  0  0  0
    0.5677   -2.3152   -0.3672 H   0  0  0  0  0  0  0  0  0  0  0  0
    2.3789    2.7345    1.5406 H   0  0  0  0  0  0  0  0  0  0  0  0
    3.9541    2.9425    0.7551 H   0  0  0  0  0  0  0  0  0  0  0  0
    3.4741    1.3536    1.3767 H   0  0  0  0  0  0  0  0  0  0  0  0
   -4.4617    0.5827    0.3284 H   0  0  0  0  0  0  0  0  0  0  0  0
   -2.4021    3.1332   -0.7510 H   0  0  0  0  0  0  0  0  0  0  0  0
   -2.1873    3.0848    1.0180 H   0  0  0  0  0  0  0  0  0  0  0  0
   -3.7818    2.8425    0.3069 H   0  0  0  0  0  0  0  0  0  0  0  0
    2.8365   -1.4928    1.4134 H   0  0  0  0  0  0  0  0  0  0  0  0
    2.9621   -2.7977    0.2046 H   0  0  0  0  0  0  0  0  0  0  0  0
    5.1704   -2.3268    1.2731 H   0  0  0  0  0  0  0  0  0  0  0  0
    5.2102   -1.9381   -0.4632 H   0  0  0  0  0  0  0  0  0  0  0  0
    5.0755   -0.6394    0.7150 H   0  0  0  0  0  0  0  0  0  0  0  0
  1  8  1  0  0  0  0
  1 15  1  0  0  0  0
  2  7  1  0  0  0  0
  2 16  1  0  0  0  0
  3 15  2  0  0  0  0
  4  6  2  0  0  0  0
  4  7  1  0  0  0  0
  4  9  1  0  0  0  0
  5  6  1  0  0  0  0
  5  8  2  0  0  0  0
  5 10  1  0  0  0  0
  6 18  1  0  0  0  0
  7 11  2  0  0  0  0
  8 11  1  0  0  0  0
  9 12  1  0  0  0  0
  9 19  1  0  0  0  0
  9 20  1  0  0  0  0
 10 13  2  0  0  0  0
 10 14  1  0  0  0  0
 11 21  1  0  0  0  0
 12 22  1  0  0  0  0
 12 23  1  0  0  0  0
 12 24  1  0  0  0  0
 13 15  1  0  0  0  0
 13 25  1  0  0  0  0
 14 26  1  0  0  0  0
 14 27  1  0  0  0  0
 14 28  1  0  0  0  0
 16 17  1  0  0  0  0
 16 29  1  0  0  0  0
 16 30  1  0  0  0  0
 17 31  1  0  0  0  0
 17 32  1  0  0  0  0
 17 33  1  0  0  0  0
M  END
> <PUBCHEM_COMPOUND_CID>
854296

> <PUBCHEM_CONFORMER_RMSD>
0.6

> <PUBCHEM_CONFORMER_DIVERSEORDER>
1
2
5
9
8
7
3
4
6

> <PUBCHEM_MMFF94_PARTIAL_CHARGES>
18
1 -0.23
10 -0.17
11 -0.15
13 -0.14
14 0.14
15 0.71
16 0.28
18 0.15
2 -0.36
21 0.15
25 0.15
3 -0.57
4 -0.14
5 0.03
6 -0.15
7 0.08
8 0.08
9 0.14

> <PUBCHEM_EFFECTIVE_ROTOR_COUNT>
3

> <PUBCHEM_PHARMACOPHORE_FEATURES>
5
1 12 hydrophobe
1 2 acceptor
1 3 acceptor
6 1 5 8 10 13 15 rings
6 4 5 6 7 8 11 rings

> <PUBCHEM_HEAVY_ATOM_COUNT>
17

> <PUBCHEM_ATOM_DEF_STEREO_COUNT>
0

> <PUBCHEM_ATOM_UDEF_STEREO_COUNT>
0

> <PUBCHEM_BOND_DEF_STEREO_COUNT>
0

> <PUBCHEM_BOND_UDEF_STEREO_COUNT>
0

> <PUBCHEM_ISOTOPIC_ATOM_COUNT>
0

> <PUBCHEM_COMPONENT_COUNT>
1

> <PUBCHEM_CACTVS_TAUTO_COUNT>
1

> <PUBCHEM_CONFORMER_ID>
000D091800000001

> <PUBCHEM_MMFF94_ENERGY>
53.5917

> <PUBCHEM_FEATURE_SELFOVERLAP>
25.398

> <PUBCHEM_SHAPE_FINGERPRINT>
10062212 137 18200874105363430987
10608611 8 18408322189807280773
10967382 1 18121777227641846253
11132069 177 18194399120189700846
11578080 2 17488482900056801100
11769659 78 18412543202129657959
12251169 10 18338515360321385179
13140716 1 18409164450010488297
14965852 173 18340203085069133069
15196674 1 18410854331158411439
15219456 202 18409169883070134605
15375462 189 17916584392181968786
15442244 35 18411698824391366692
15536298 74 18335701615993383244
16945 1 18191857044958574469
17492 89 18411418388692006771
17804303 29 18338231682342949908
20281475 54 18272368728453025606
20510252 161 18261949657447153273
20600515 1 18047469212991888244
20681677 274 18340487776855191803
21267235 1 18339913896189136727
21501502 16 18411129234286792965
21501925 9 18410862048887796082
221490 88 18341604897980737002
2255824 54 18130498661579974310
22959321 4 18411980239185885127
2297311 6 18118961632674095990
23184049 29 18410572894245666773
2334 1 18410007702398646173
23366157 5 18131347476109243980
23402539 116 18119260690075174583
23463225 33 18411979161143669820
23558518 356 18343013389809001385
23559900 14 18410300211220173672
23622692 118 18335711524230000719
2748010 2 18410288107991803821
312423 11 18342162354639156271
3286 77 18342176669860164614
335352 9 18267303329543706757
34934 24 18119251658218140175
350125 39 18410849979855711957
4409770 3 17339293628943236780
5104073 3 18336819819519350883
5902787 121 18340490079421710530
7364860 26 18335420132632466316
8809292 202 18271800233570335035
9709674 26 18270397179070382259

> <PUBCHEM_SHAPE_MULTIPOLES>
332.24
7.49
2.8
0.74
1.91
0.84
0.03
-2.84
1.46
0.29
0.33
0.33
0.1
-0.05

> <PUBCHEM_SHAPE_SELFOVERLAP>
702.071

> <PUBCHEM_SHAPE_VOLUME>
188

> <PUBCHEM_COORDINATE_TYPE>
2
5
10

$$$$

