656506
  -OEChem-07051212503D

 49 51  0     1  0  0  0  0  0999 V2000
    1.1039   -0.9190    2.2742 S   0  0  0  0  0  0  0  0  0  0  0  0
    0.2529   -3.8063   -0.8324 S   0  0  0  0  0  0  0  0  0  0  0  0
    1.6134   -0.0816   -0.2122 O   0  0  0  0  0  0  0  0  0  0  0  0
    5.0408    1.9907    0.7088 O   0  0  0  0  0  0  0  0  0  0  0  0
    3.7127    2.4182   -1.8667 O   0  0  0  0  0  0  0  0  0  0  0  0
    3.1158    1.4214    2.7806 O   0  0  0  0  0  0  0  0  0  0  0  0
    0.3820   -0.0565   -2.6665 O   0  0  0  0  0  0  0  0  0  0  0  0
    0.4882   -2.7020    0.3462 O   0  0  0  0  0  0  0  0  0  0  0  0
    1.7731   -4.2647   -1.2022 O   0  0  0  0  0  0  0  0  0  0  0  0
   -0.2964   -3.1291   -1.9923 O   0  0  0  0  0  0  0  0  0  0  0  0
   -0.4239   -4.9528   -0.2553 O   0  0  0  0  0  0  0  0  0  0  0  0
   -4.5625   -0.0683    0.1825 N   0  0  0  0  0  0  0  0  0  0  0  0
   -0.7070   -2.0771    0.7087 N   0  0  0  0  0  0  0  0  0  0  0  0
    3.6405    1.8313    0.4736 C   0  0  1  0  0  0  0  0  0  0  0  0
    3.4161    1.3573   -0.9628 C   0  0  1  0  0  0  0  0  0  0  0  0
    3.1040    0.8164    1.4880 C   0  0  2  0  0  0  0  0  0  0  0  0
    1.9626    0.9220   -1.1662 C   0  0  1  0  0  0  0  0  0  0  0  0
    1.6754    0.3918    1.1330 C   0  0  2  0  0  0  0  0  0  0  0  0
    1.7391    0.3318   -2.5550 C   0  0  0  0  0  0  0  0  0  0  0  0
   -0.5171   -1.2008    1.6447 C   0  0  0  0  0  0  0  0  0  0  0  0
   -1.5869   -0.3343    2.2820 C   0  0  0  0  0  0  0  0  0  0  0  0
   -2.6928    0.0194    1.3172 C   0  0  0  0  0  0  0  0  0  0  0  0
   -2.7165    1.1481    0.4826 C   0  0  0  0  0  0  0  0  0  0  0  0
   -3.9145    1.0738   -0.2312 C   0  0  0  0  0  0  0  0  0  0  0  0
   -3.8176   -0.7167    1.1307 C   0  0  0  0  0  0  0  0  0  0  0  0
   -1.8528    2.2360    0.2466 C   0  0  0  0  0  0  0  0  0  0  0  0
   -4.2934    2.0369   -1.1732 C   0  0  0  0  0  0  0  0  0  0  0  0
   -2.2186    3.2069   -0.6928 C   0  0  0  0  0  0  0  0  0  0  0  0
   -3.4207    3.1070   -1.3906 C   0  0  0  0  0  0  0  0  0  0  0  0
    3.1856    2.8180    0.6267 H   0  0  0  0  0  0  0  0  0  0  0  0
    4.0991    0.5280   -1.1862 H   0  0  0  0  0  0  0  0  0  0  0  0
    3.7810   -0.0478    1.5135 H   0  0  0  0  0  0  0  0  0  0  0  0
    1.2809    1.7746   -1.0430 H   0  0  0  0  0  0  0  0  0  0  0  0
    0.9915    1.2369    1.2590 H   0  0  0  0  0  0  0  0  0  0  0  0
    1.9681    1.0467   -3.3508 H   0  0  0  0  0  0  0  0  0  0  0  0
    2.3467   -0.5668   -2.7017 H   0  0  0  0  0  0  0  0  0  0  0  0
    5.1498    2.2816    1.6304 H   0  0  0  0  0  0  0  0  0  0  0  0
    4.6294    2.6957   -1.6983 H   0  0  0  0  0  0  0  0  0  0  0  0
    2.7576    0.7707    3.4082 H   0  0  0  0  0  0  0  0  0  0  0  0
   -2.0036   -0.8975    3.1268 H   0  0  0  0  0  0  0  0  0  0  0  0
   -1.1547    0.5840    2.6960 H   0  0  0  0  0  0  0  0  0  0  0  0
   -0.1644    0.7401   -2.5544 H   0  0  0  0  0  0  0  0  0  0  0  0
   -4.1695   -1.6382    1.5728 H   0  0  0  0  0  0  0  0  0  0  0  0
   -5.4584   -0.3820   -0.1644 H   0  0  0  0  0  0  0  0  0  0  0  0
   -0.9182    2.3390    0.7873 H   0  0  0  0  0  0  0  0  0  0  0  0
   -5.2289    1.9600   -1.7169 H   0  0  0  0  0  0  0  0  0  0  0  0
   -1.5571    4.0492   -0.8774 H   0  0  0  0  0  0  0  0  0  0  0  0
   -3.6852    3.8726   -2.1154 H   0  0  0  0  0  0  0  0  0  0  0  0
    2.3499   -4.4745   -0.4306 H   0  0  0  0  0  0  0  0  0  0  0  0
  1 18  1  0  0  0  0
  1 20  1  0  0  0  0
  2  8  1  0  0  0  0
  2  9  1  0  0  0  0
  2 10  2  0  0  0  0
  2 11  2  0  0  0  0
  3 17  1  0  0  0  0
  3 18  1  0  0  0  0
  4 14  1  0  0  0  0
  4 37  1  0  0  0  0
  5 15  1  0  0  0  0
  5 38  1  0  0  0  0
  6 16  1  0  0  0  0
  6 39  1  0  0  0  0
  7 19  1  0  0  0  0
  7 42  1  0  0  0  0
  8 13  1  0  0  0  0
  9 49  1  0  0  0  0
 12 24  1  0  0  0  0
 12 25  1  0  0  0  0
 12 44  1  0  0  0  0
 13 20  2  0  0  0  0
 14 15  1  0  0  0  0
 14 16  1  0  0  0  0
 14 30  1  0  0  0  0
 15 17  1  0  0  0  0
 15 31  1  0  0  0  0
 16 18  1  0  0  0  0
 16 32  1  0  0  0  0
 17 19  1  0  0  0  0
 17 33  1  0  0  0  0
 18 34  1  0  0  0  0
 19 35  1  0  0  0  0
 19 36  1  0  0  0  0
 20 21  1  0  0  0  0
 21 22  1  0  0  0  0
 21 40  1  0  0  0  0
 21 41  1  0  0  0  0
 22 23  1  0  0  0  0
 22 25  2  0  0  0  0
 23 24  1  0  0  0  0
 23 26  2  0  0  0  0
 24 27  2  0  0  0  0
 25 43  1  0  0  0  0
 26 28  1  0  0  0  0
 26 45  1  0  0  0  0
 27 29  1  0  0  0  0
 27 46  1  0  0  0  0
 28 29  2  0  0  0  0
 28 47  1  0  0  0  0
 29 48  1  0  0  0  0
M  END
> <PUBCHEM_COMPOUND_CID>
656506

> <PUBCHEM_CONFORMER_RMSD>
1

> <PUBCHEM_CONFORMER_DIVERSEORDER>
1
44
222
94
17
68
178
86
140
121
185
67
36
159
209
162
143
42
135
4
247
31
234
124
40
200
127
196
192
198
110
136
111
248
232
83
230
186
228
191
53
163
183
203
8
38
165
120
250
41
208
202
13
126
184
35
169
223
102
171
211
33
176
77
215
238
197
39
48
130
182
96
131
177
142
61
244
170
97
149
90
73
187
213
23
212
161
108
138
189
59
54
249
210
242
229
12
144
74
81
89
32
2
25
236
95
49
239
14
173
107
43
45
11
82
224
101
217
29
235
117
87
164
141
114
20
133
157
37
92
195
58
98
69
88
146
225
156
106
166
205
10
75
218
28
9
233
112
55
137
30
15
158
70
220
22
78
62
122
109
227
115
129
179
24
237
207
231
72
3
199
46
194
26
5
52
152
245
221
174
226
180
190
21
125
134
219
34
57
188
153
240
160
71
155
51
201
214
84
193
151
100
118
16
119
18
168
103
148
145
47
91
167
93
76
105
243
123
85
19
79
80
154
6
65
175
27
116
60
206
216
7
66
50
150
99
172
139
181
113
132
128
246
241
204
104
64
147
56
63

> <PUBCHEM_MMFF94_PARTIAL_CHARGES>
39
1 -0.37
10 -0.65
11 -0.65
12 0.03
13 -0.51
14 0.28
15 0.28
16 0.28
17 0.28
18 0.51
19 0.28
2 1.67
20 0.53
21 0.24
22 -0.18
24 -0.15
25 -0.3
26 -0.15
27 -0.15
28 -0.15
29 -0.15
3 -0.56
37 0.4
38 0.4
39 0.4
4 -0.68
42 0.4
43 0.15
44 0.27
45 0.15
46 0.15
47 0.15
48 0.15
49 0.5
5 -0.68
6 -0.68
7 -0.68
8 -0.12
9 -0.68

> <PUBCHEM_EFFECTIVE_ROTOR_COUNT>
8.2

> <PUBCHEM_PHARMACOPHORE_FEATURES>
19
1 10 acceptor
1 11 acceptor
1 12 cation
1 12 donor
1 13 acceptor
1 3 acceptor
1 4 acceptor
1 4 donor
1 5 acceptor
1 5 donor
1 6 acceptor
1 6 donor
1 7 acceptor
1 7 donor
1 9 acceptor
4 2 9 10 11 anion
5 12 22 23 24 25 rings
6 23 24 26 27 28 29 rings
6 3 14 15 16 17 18 rings

> <PUBCHEM_HEAVY_ATOM_COUNT>
29

> <PUBCHEM_ATOM_DEF_STEREO_COUNT>
5

> <PUBCHEM_ATOM_UDEF_STEREO_COUNT>
0

> <PUBCHEM_BOND_DEF_STEREO_COUNT>
0

> <PUBCHEM_BOND_UDEF_STEREO_COUNT>
1

> <PUBCHEM_ISOTOPIC_ATOM_COUNT>
0

> <PUBCHEM_COMPONENT_COUNT>
1

> <PUBCHEM_CACTVS_TAUTO_COUNT>
1

> <PUBCHEM_CONFORMER_ID>
000A047A00000001

> <PUBCHEM_MMFF94_ENERGY>
60.1216

> <PUBCHEM_FEATURE_SELFOVERLAP>
96.582

> <PUBCHEM_SHAPE_FINGERPRINT>
10764073 3 17340994539071472778
11370993 70 17917721239718303593
12156800 1 16760913867855761285
12160290 23 18047186354392488106
12633257 1 16915958446040250089
133893 2 17899402366697695419
13681431 1 17538838487576974991
14251757 17 16622314138999596743
14251764 3 18259989253668329112
17980427 23 17842027607960970009
20511986 3 17273994453176013044
20600515 1 17180547879064706183
20715895 44 17058391386469947797
20739085 24 15482391933647438100
21860390 5 17837508696711619007
22749437 52 17704075135478000041
23559900 14 18052260888754910141
23598288 3 17771336479111310218
238 59 18264194984439090375
26353 1 17037826841688931798
35225 105 18270118989727913356
44802255 64 18053069889121839502
46194498 28 18196925789716209727
469060 322 18120933911346650359
5081480 168 17616520096871245129
513532 50 17769949196511886125
550186 7 17341209764219646068
6669772 16 17822307772865331106

> <PUBCHEM_SHAPE_MULTIPOLES>
541.72
7.7
4.87
2.57
2.3
5.85
-0.06
-7.52
0.18
-1.23
-2.71
-1.53
0.18
1.62

> <PUBCHEM_SHAPE_SELFOVERLAP>
1123.07

> <PUBCHEM_SHAPE_VOLUME>
310.9

> <PUBCHEM_COORDINATE_TYPE>
2
5
10

$$$$

