5281950
  -OEChem-07051213012D

 43 45  0     0  0  0  0  0  0999 V2000
    5.4641   -0.4031    0.0000 O   0  0  0  0  0  0  0  0  0  0  0  0
    8.9942   -0.4273    0.0000 O   0  0  0  0  0  0  0  0  0  0  0  0
    7.2125    2.6315    0.0000 O   0  0  0  0  0  0  0  0  0  0  0  0
    3.7320    1.5969    0.0000 O   0  0  0  0  0  0  0  0  0  0  0  0
    5.4641    2.5969    0.0000 O   0  0  0  0  0  0  0  0  0  0  0  0
    7.2125   -1.4377    0.0000 C   0  0  0  0  0  0  0  0  0  0  0  0
    7.2241   -0.4378    0.0000 C   0  0  0  0  0  0  0  0  0  0  0  0
    6.3301    0.0969    0.0000 C   0  0  0  0  0  0  0  0  0  0  0  0
    8.2124   -1.4493    0.0000 C   0  0  0  0  0  0  0  0  0  0  0  0
    6.2126   -1.4262    0.0000 C   0  0  0  0  0  0  0  0  0  0  0  0
    6.3301    1.0969    0.0000 C   0  0  0  0  0  0  0  0  0  0  0  0
    8.1301    0.0760    0.0000 C   0  0  0  0  0  0  0  0  0  0  0  0
    7.2009   -2.4377    0.0000 C   0  0  0  0  0  0  0  0  0  0  0  0
    7.2241    1.6315    0.0000 C   0  0  0  0  0  0  0  0  0  0  0  0
    8.1301    1.1177    0.0000 C   0  0  0  0  0  0  0  0  0  0  0  0
    5.4641    1.5969    0.0000 C   0  0  0  0  0  0  0  0  0  0  0  0
    4.5981    0.0969    0.0000 C   0  0  0  0  0  0  0  0  0  0  0  0
    4.5981    1.0969    0.0000 C   0  0  0  0  0  0  0  0  0  0  0  0
    3.7320   -0.4031    0.0000 C   0  0  0  0  0  0  0  0  0  0  0  0
    8.0611   -2.9476    0.0000 C   0  0  0  0  0  0  0  0  0  0  0  0
    3.7320   -1.4031    0.0000 C   0  0  0  0  0  0  0  0  0  0  0  0
    2.8660    0.0969    0.0000 C   0  0  0  0  0  0  0  0  0  0  0  0
    2.8660   -1.9031    0.0000 C   0  0  0  0  0  0  0  0  0  0  0  0
    2.0000   -0.4031    0.0000 C   0  0  0  0  0  0  0  0  0  0  0  0
    2.0000   -1.4031    0.0000 C   0  0  0  0  0  0  0  0  0  0  0  0
    8.2053   -2.0692    0.0000 H   0  0  0  0  0  0  0  0  0  0  0  0
    6.2197   -0.8062    0.0000 H   0  0  0  0  0  0  0  0  0  0  0  0
    5.5926   -1.4190    0.0000 H   0  0  0  0  0  0  0  0  0  0  0  0
    6.2054   -2.0461    0.0000 H   0  0  0  0  0  0  0  0  0  0  0  0
    8.8324   -1.4565    0.0000 H   0  0  0  0  0  0  0  0  0  0  0  0
    8.2196   -0.8293    0.0000 H   0  0  0  0  0  0  0  0  0  0  0  0
    6.6605   -2.7414    0.0000 H   0  0  0  0  0  0  0  0  0  0  0  0
    8.6659    1.4298    0.0000 H   0  0  0  0  0  0  0  0  0  0  0  0
    8.0540   -3.5676    0.0000 H   0  0  0  0  0  0  0  0  0  0  0  0
    8.6016   -2.6439    0.0000 H   0  0  0  0  0  0  0  0  0  0  0  0
    9.5323   -0.1194    0.0000 H   0  0  0  0  0  0  0  0  0  0  0  0
    7.7458    2.9476    0.0000 H   0  0  0  0  0  0  0  0  0  0  0  0
    4.2690   -1.7131    0.0000 H   0  0  0  0  0  0  0  0  0  0  0  0
    2.8660    0.7169    0.0000 H   0  0  0  0  0  0  0  0  0  0  0  0
    3.7320    2.2169    0.0000 H   0  0  0  0  0  0  0  0  0  0  0  0
    2.8660   -2.5231    0.0000 H   0  0  0  0  0  0  0  0  0  0  0  0
    1.4631   -0.0931    0.0000 H   0  0  0  0  0  0  0  0  0  0  0  0
    1.4631   -1.7131    0.0000 H   0  0  0  0  0  0  0  0  0  0  0  0
  1  8  1  0  0  0  0
  1 17  1  0  0  0  0
  2 12  1  0  0  0  0
  2 36  1  0  0  0  0
  3 14  1  0  0  0  0
  3 37  1  0  0  0  0
  4 18  1  0  0  0  0
  4 40  1  0  0  0  0
  5 16  2  0  0  0  0
  6  7  1  0  0  0  0
  6  9  1  0  0  0  0
  6 10  1  0  0  0  0
  6 13  1  0  0  0  0
  7  8  1  0  0  0  0
  7 12  2  0  0  0  0
  8 11  2  0  0  0  0
  9 26  1  0  0  0  0
  9 30  1  0  0  0  0
  9 31  1  0  0  0  0
 10 27  1  0  0  0  0
 10 28  1  0  0  0  0
 10 29  1  0  0  0  0
 11 14  1  0  0  0  0
 11 16  1  0  0  0  0
 12 15  1  0  0  0  0
 13 20  2  0  0  0  0
 13 32  1  0  0  0  0
 14 15  2  0  0  0  0
 15 33  1  0  0  0  0
 16 18  1  0  0  0  0
 17 18  2  0  0  0  0
 17 19  1  0  0  0  0
 19 21  2  0  0  0  0
 19 22  1  0  0  0  0
 20 34  1  0  0  0  0
 20 35  1  0  0  0  0
 21 23  1  0  0  0  0
 21 38  1  0  0  0  0
 22 24  2  0  0  0  0
 22 39  1  0  0  0  0
 23 25  2  0  0  0  0
 23 41  1  0  0  0  0
 24 25  1  0  0  0  0
 24 42  1  0  0  0  0
 25 43  1  0  0  0  0
M  END
> <PUBCHEM_COMPOUND_CID>
5281950

> <PUBCHEM_COMPOUND_CANONICALIZED>
1

> <PUBCHEM_CACTVS_COMPLEXITY>
573

> <PUBCHEM_CACTVS_HBOND_ACCEPTOR>
5

> <PUBCHEM_CACTVS_HBOND_DONOR>
3

> <PUBCHEM_CACTVS_ROTATABLE_BOND>
3

> <PUBCHEM_CACTVS_SUBSKEYS>
AAADceB4OAAAAAAAAAAAAAAAAAAAAAAAAAAwYIAAAAAAAACBQAAAGgAACAAADgSAmAAyBoAABgCIAqBSAAICCAAkIAAIiAFGCMgMJzaGNRqCeWCl4BUIuQfI7PzPoAACCAAIAABAAAQQABAAAAAAAAAAAA==

> <PUBCHEM_IUPAC_OPENEYE_NAME>
8-(1,1-dimethylallyl)-3,5,7-trihydroxy-2-phenyl-chromen-4-one

> <PUBCHEM_IUPAC_CAS_NAME>
3,5,7-trihydroxy-8-(2-methylbut-3-en-2-yl)-2-phenyl-1-benzopyran-4-one

> <PUBCHEM_IUPAC_NAME>
3,5,7-trihydroxy-8-(2-methylbut-3-en-2-yl)-2-phenylchromen-4-one

> <PUBCHEM_IUPAC_SYSTEMATIC_NAME>
8-(2-methylbut-3-en-2-yl)-3,5,7-tris(oxidanyl)-2-phenyl-chromen-4-one

> <PUBCHEM_IUPAC_TRADITIONAL_NAME>
8-(1,1-dimethylallyl)-3,5,7-trihydroxy-2-phenyl-chromone

> <PUBCHEM_IUPAC_INCHI>
InChI=1S/C20H18O5/c1-4-20(2,3)15-13(22)10-12(21)14-16(23)17(24)18(25-19(14)15)11-8-6-5-7-9-11/h4-10,21-22,24H,1H2,2-3H3

> <PUBCHEM_IUPAC_INCHIKEY>
VEXSVXVQCSMKRX-UHFFFAOYSA-N

> <PUBCHEM_XLOGP3_AA>
4.8

> <PUBCHEM_EXACT_MASS>
338.115424

> <PUBCHEM_MOLECULAR_FORMULA>
C20H18O5

> <PUBCHEM_MOLECULAR_WEIGHT>
338.35392

> <PUBCHEM_OPENEYE_CAN_SMILES>
CC(C)(C=C)C1=C(C=C(C2=C1OC(=C(C2=O)O)C3=CC=CC=C3)O)O

> <PUBCHEM_OPENEYE_ISO_SMILES>
CC(C)(C=C)C1=C(C=C(C2=C1OC(=C(C2=O)O)C3=CC=CC=C3)O)O

> <PUBCHEM_CACTVS_TPSA>
87

> <PUBCHEM_MONOISOTOPIC_WEIGHT>
338.115424

> <PUBCHEM_TOTAL_CHARGE>
0

> <PUBCHEM_HEAVY_ATOM_COUNT>
25

> <PUBCHEM_ATOM_DEF_STEREO_COUNT>
0

> <PUBCHEM_ATOM_UDEF_STEREO_COUNT>
0

> <PUBCHEM_BOND_DEF_STEREO_COUNT>
0

> <PUBCHEM_BOND_UDEF_STEREO_COUNT>
0

> <PUBCHEM_ISOTOPIC_ATOM_COUNT>
0

> <PUBCHEM_COMPONENT_COUNT>
1

> <PUBCHEM_CACTVS_TAUTO_COUNT>
24

> <PUBCHEM_COORDINATE_TYPE>
1
5
255

> <PUBCHEM_BONDANNOTATIONS>
1  17  8
1  8  8
11  14  8
11  16  8
12  15  8
14  15  8
16  18  8
17  18  8
19  21  8
19  22  8
21  23  8
22  24  8
23  25  8
24  25  8
7  12  8
7  8  8
8  11  8

$$$$

