6977
  -OEChem-06261201383D

 14 14  0     0  0  0  0  0  0999 V2000
    1.8660   -2.1089    0.0004 Cl  0  0  0  0  0  0  0  0  0  0  0  0
   -3.4172    1.2092    0.0001 Cl  0  0  0  0  0  0  0  0  0  0  0  0
    1.6719    2.2013    0.0006 O   0  5  0  0  0  0  0  0  0  0  0  0
    2.7685    0.2996    0.0001 O   0  0  0  0  0  0  0  0  0  0  0  0
    1.6966    0.9485   -0.0001 N   0  3  0  0  0  0  0  0  0  0  0  0
    0.4633    0.2374   -0.0007 C   0  0  0  0  0  0  0  0  0  0  0  0
    0.4231   -1.1569   -0.0004 C   0  0  0  0  0  0  0  0  0  0  0  0
   -0.7241    0.9693   -0.0004 C   0  0  0  0  0  0  0  0  0  0  0  0
   -1.9517    0.3070    0.0001 C   0  0  0  0  0  0  0  0  0  0  0  0
   -0.8044   -1.8193    0.0001 C   0  0  0  0  0  0  0  0  0  0  0  0
   -1.9918   -1.0873    0.0004 C   0  0  0  0  0  0  0  0  0  0  0  0
   -0.7229    2.0573   -0.0005 H   0  0  0  0  0  0  0  0  0  0  0  0
   -0.8535   -2.9053    0.0005 H   0  0  0  0  0  0  0  0  0  0  0  0
   -2.9411   -1.6168    0.0008 H   0  0  0  0  0  0  0  0  0  0  0  0
  1  7  1  0  0  0  0
  2  9  1  0  0  0  0
  3  5  1  0  0  0  0
  4  5  2  0  0  0  0
  5  6  1  0  0  0  0
  6  7  2  0  0  0  0
  6  8  1  0  0  0  0
  7 10  1  0  0  0  0
  8  9  2  0  0  0  0
  8 12  1  0  0  0  0
  9 11  1  0  0  0  0
 10 11  2  0  0  0  0
 10 13  1  0  0  0  0
 11 14  1  0  0  0  0
M  CHG  2   3  -1   5   1
M  END
> <PUBCHEM_COMPOUND_CID>
6977

> <PUBCHEM_CONFORMER_RMSD>
0.4

> <PUBCHEM_CONFORMER_DIVERSEORDER>
1

> <PUBCHEM_MMFF94_PARTIAL_CHARGES>
14
1 -0.18
10 -0.15
11 -0.15
12 0.15
13 0.15
14 0.15
2 -0.18
3 -0.52
4 -0.52
5 0.91
6 0.13
7 0.18
8 -0.15
9 0.18

> <PUBCHEM_EFFECTIVE_ROTOR_COUNT>
1

> <PUBCHEM_PHARMACOPHORE_FEATURES>
4
1 3 acceptor
1 3 anion
1 4 acceptor
6 6 7 8 9 10 11 rings

> <PUBCHEM_HEAVY_ATOM_COUNT>
11

> <PUBCHEM_ATOM_DEF_STEREO_COUNT>
0

> <PUBCHEM_ATOM_UDEF_STEREO_COUNT>
0

> <PUBCHEM_BOND_DEF_STEREO_COUNT>
0

> <PUBCHEM_BOND_UDEF_STEREO_COUNT>
0

> <PUBCHEM_ISOTOPIC_ATOM_COUNT>
0

> <PUBCHEM_COMPONENT_COUNT>
1

> <PUBCHEM_CACTVS_TAUTO_COUNT>
1

> <PUBCHEM_CONFORMER_ID>
00001B4100000001

> <PUBCHEM_MMFF94_ENERGY>
36.0147

> <PUBCHEM_FEATURE_SELFOVERLAP>
20.379

> <PUBCHEM_SHAPE_FINGERPRINT>
12423570 1 10134211141823550283
13380535 21 18340753901845503147
13380535 76 18410860962250605139
14325111 11 18410575037503101025
16945 1 18338517426301089191
193761 8 18410856529807588295
21040471 1 18410855421615893925
21501502 16 18410859858470435807
23402655 69 18264221364898563805
23552423 10 18341048523516744342
23559900 14 18261943073964097100
241688 4 17039504159725452107
2748010 2 18266737991503897111
5084963 1 17970341516759799522
528862 383 18270405008822052147
528886 8 18410016558557627659
53812653 166 18335423473610731120

> <PUBCHEM_SHAPE_MULTIPOLES>
213.39
4.03
2.25
0.6
1.78
0.02
0
0.85
0
-1.05
0
0.05
-0.04
0

> <PUBCHEM_SHAPE_SELFOVERLAP>
431.593

> <PUBCHEM_SHAPE_VOLUME>
126.7

> <PUBCHEM_COORDINATE_TYPE>
2
5
10

$$$$

