132430
  -OEChem-07051213153D

 30 29  0     1  0  0  0  0  0999 V2000
   -1.7423   -2.1270   -0.8272 Br  0  0  0  0  0  0  0  0  0  0  0  0
    1.9411   -1.7616    1.9788 Br  0  0  0  0  0  0  0  0  0  0  0  0
   -3.5436    1.9612    0.0597 Cl  0  0  0  0  0  0  0  0  0  0  0  0
    1.9576    2.2644   -0.1068 Cl  0  0  0  0  0  0  0  0  0  0  0  0
    4.6970    0.3832    0.0670 Cl  0  0  0  0  0  0  0  0  0  0  0  0
   -0.7453    0.4072    0.0430 C   0  0  0  0  0  0  0  0  0  0  0  0
   -1.9911   -0.1676   -0.6685 C   0  0  2  0  0  0  0  0  0  0  0  0
    0.5768   -0.0264   -0.6280 C   0  0  0  0  0  0  0  0  0  0  0  0
   -3.3511    0.1516    0.0173 C   0  0  0  0  0  0  0  0  0  0  0  0
    1.8968    0.4430    0.0679 C   0  0  2  0  0  0  0  0  0  0  0  0
   -3.3929   -0.3018    1.4865 C   0  0  0  0  0  0  0  0  0  0  0  0
   -4.5667   -0.4099   -0.7326 C   0  0  0  0  0  0  0  0  0  0  0  0
    1.8923    0.1500    1.5826 C   0  0  0  0  0  0  0  0  0  0  0  0
    3.1612   -0.0901   -0.6265 C   0  0  0  0  0  0  0  0  0  0  0  0
    3.2102   -0.8761   -1.7133 C   0  0  0  0  0  0  0  0  0  0  0  0
   -0.7981    1.4993    0.0686 H   0  0  0  0  0  0  0  0  0  0  0  0
   -0.7417    0.0542    1.0764 H   0  0  0  0  0  0  0  0  0  0  0  0
   -2.0071    0.1771   -1.7096 H   0  0  0  0  0  0  0  0  0  0  0  0
    0.5611    0.3288   -1.6680 H   0  0  0  0  0  0  0  0  0  0  0  0
    0.6368   -1.1150   -0.6774 H   0  0  0  0  0  0  0  0  0  0  0  0
   -3.2599   -1.3835    1.5858 H   0  0  0  0  0  0  0  0  0  0  0  0
   -4.3639   -0.0639    1.9391 H   0  0  0  0  0  0  0  0  0  0  0  0
   -2.6330    0.1893    2.1025 H   0  0  0  0  0  0  0  0  0  0  0  0
   -4.6052   -1.5030   -0.6927 H   0  0  0  0  0  0  0  0  0  0  0  0
   -4.5516   -0.1125   -1.7872 H   0  0  0  0  0  0  0  0  0  0  0  0
   -5.5063   -0.0465   -0.2995 H   0  0  0  0  0  0  0  0  0  0  0  0
    1.0190    0.5527    2.1018 H   0  0  0  0  0  0  0  0  0  0  0  0
    2.7700    0.5622    2.0916 H   0  0  0  0  0  0  0  0  0  0  0  0
    4.1569   -1.2016   -2.1345 H   0  0  0  0  0  0  0  0  0  0  0  0
    2.3202   -1.2220   -2.2249 H   0  0  0  0  0  0  0  0  0  0  0  0
  1  7  1  0  0  0  0
  2 13  1  0  0  0  0
  3  9  1  0  0  0  0
  4 10  1  0  0  0  0
  5 14  1  0  0  0  0
  6  7  1  0  0  0  0
  6  8  1  0  0  0  0
  6 16  1  0  0  0  0
  6 17  1  0  0  0  0
  7  9  1  0  0  0  0
  7 18  1  0  0  0  0
  8 10  1  0  0  0  0
  8 19  1  0  0  0  0
  8 20  1  0  0  0  0
  9 11  1  0  0  0  0
  9 12  1  0  0  0  0
 10 13  1  0  0  0  0
 10 14  1  0  0  0  0
 11 21  1  0  0  0  0
 11 22  1  0  0  0  0
 11 23  1  0  0  0  0
 12 24  1  0  0  0  0
 12 25  1  0  0  0  0
 12 26  1  0  0  0  0
 13 27  1  0  0  0  0
 13 28  1  0  0  0  0
 14 15  2  0  0  0  0
 15 29  1  0  0  0  0
 15 30  1  0  0  0  0
M  END
> <PUBCHEM_COMPOUND_CID>
132430

> <PUBCHEM_CONFORMER_RMSD>
0.6

> <PUBCHEM_CONFORMER_DIVERSEORDER>
1
91
89
25
111
45
62
100
61
66
77
102
43
5
38
68
58
15
110
92
76
8
42
106
75
104
98
97
44
72
13
103
36
60
70
95
84
87
46
78
101
4
73
71
94
65
69
81
9
79
109
99
29
107
64
57
63
108
67
16
48
80
105
39
59
54
33
83
3
90
74
19
93
96
49
32
27
85
28
7
52
31
88
82
53
40
51
34
21
20
22
23
17
2
30
37
56
11
35
6
18
47
24
55
41
86
50
26
10
14
12

> <PUBCHEM_MMFF94_PARTIAL_CHARGES>
12
1 -0.23
10 0.43
13 0.23
15 -0.3
2 -0.23
29 0.15
3 -0.29
30 0.15
4 -0.29
5 -0.14
7 0.23
9 0.29

> <PUBCHEM_EFFECTIVE_ROTOR_COUNT>
6

> <PUBCHEM_PHARMACOPHORE_FEATURES>
3
1 1 hydrophobe
1 2 hydrophobe
3 9 11 12 hydrophobe

> <PUBCHEM_HEAVY_ATOM_COUNT>
15

> <PUBCHEM_ATOM_DEF_STEREO_COUNT>
2

> <PUBCHEM_ATOM_UDEF_STEREO_COUNT>
0

> <PUBCHEM_BOND_DEF_STEREO_COUNT>
0

> <PUBCHEM_BOND_UDEF_STEREO_COUNT>
0

> <PUBCHEM_ISOTOPIC_ATOM_COUNT>
0

> <PUBCHEM_COMPONENT_COUNT>
1

> <PUBCHEM_CACTVS_TAUTO_COUNT>
1

> <PUBCHEM_CONFORMER_ID>
0002054E00000001

> <PUBCHEM_MMFF94_ENERGY>
39.3039

> <PUBCHEM_FEATURE_SELFOVERLAP>
15.224

> <PUBCHEM_SHAPE_FINGERPRINT>
10366900 7 17775005674267735217
107287 299 16774078470729842210
124424 183 16081084891998366514
12500047 106 17822016397382237766
12932764 1 18131081410857707669
13221675 6 18272651246600295894
13533116 47 17917721244656180523
13583140 156 17917998256919075597
13922767 16 14345796058629042770
14144814 61 18410859879981838249
14252887 29 18334009515027434166
15279307 12 18059582368611288547
15375358 24 17967252001066135246
15375462 189 18202012031468625514
15775835 57 18202287991470119890
17834072 14 6483073994637667738
18186145 218 17095245851890049627
19078846 21 18270408316042114464
200 152 15482674550488785303
20233049 118 18409729599187612116
20279233 1 17967247577118062006
20645476 183 18411987944679253359
20645477 70 18411422786764112407
21730867 7 16487258776597142018
2255824 54 18059575737545384044
23402539 116 18186525431413256820
23526113 38 17313094268044395734
23557571 272 17822587048639373353
23558518 356 17910956833735583222
23559900 14 17531536386322859789
23598291 2 18269278975686775772
3060560 45 18131355189585540886
474 4 17773313431404874508
633830 44 17988635281802081078
74978 22 18336550430147963783
81228 2 17607824802632069351

> <PUBCHEM_SHAPE_MULTIPOLES>
326.19
8.63
1.98
1.61
2.19
0.13
-0.37
1.02
0.69
0.18
-0.23
-0.74
-0.86
-0.61

> <PUBCHEM_SHAPE_SELFOVERLAP>
565.939

> <PUBCHEM_SHAPE_VOLUME>
218.6

> <PUBCHEM_COORDINATE_TYPE>
2
5
10

$$$$

