443851
  -OEChem-07051213032D

 33 33  0     1  0  0  0  0  0999 V2000
    5.4641    1.7500    0.0000 O   0  0  0  0  0  0  0  0  0  0  0  0
    6.3301   -2.7500    0.0000 O   0  0  0  0  0  0  0  0  0  0  0  0
    7.1962    2.7500    0.0000 O   0  0  0  0  0  0  0  0  0  0  0  0
    8.0622    1.2500    0.0000 O   0  0  0  0  0  0  0  0  0  0  0  0
    5.4641   -1.2500    0.0000 C   0  0  0  0  0  0  0  0  0  0  0  0
    4.5981   -1.7500    0.0000 C   0  0  0  0  0  0  0  0  0  0  0  0
    6.3301    0.2500    0.0000 C   0  0  0  0  0  0  0  0  0  0  0  0
    5.4641   -0.2500    0.0000 C   0  0  0  0  0  0  0  0  0  0  0  0
    6.3301   -1.7500    0.0000 C   0  0  0  0  0  0  0  0  0  0  0  0
    6.3301    1.2500    0.0000 C   0  0  3  0  0  0  0  0  0  0  0  0
    7.1962   -0.2500    0.0000 C   0  0  0  0  0  0  0  0  0  0  0  0
    3.7320   -1.2500    0.0000 C   0  0  0  0  0  0  0  0  0  0  0  0
    7.1962   -1.2500    0.0000 C   0  0  0  0  0  0  0  0  0  0  0  0
    2.8660   -1.7500    0.0000 C   0  0  0  0  0  0  0  0  0  0  0  0
    7.1962    1.7500    0.0000 C   0  0  0  0  0  0  0  0  0  0  0  0
    2.0000   -1.2500    0.0000 C   0  0  0  0  0  0  0  0  0  0  0  0
    2.8660   -2.7500    0.0000 C   0  0  0  0  0  0  0  0  0  0  0  0
    4.1996   -2.2250    0.0000 H   0  0  0  0  0  0  0  0  0  0  0  0
    4.9966   -2.2250    0.0000 H   0  0  0  0  0  0  0  0  0  0  0  0
    4.9272    0.0600    0.0000 H   0  0  0  0  0  0  0  0  0  0  0  0
    5.7932    0.9400    0.0000 H   0  0  0  0  0  0  0  0  0  0  0  0
    7.7331    0.0600    0.0000 H   0  0  0  0  0  0  0  0  0  0  0  0
    3.7320   -0.6300    0.0000 H   0  0  0  0  0  0  0  0  0  0  0  0
    7.7331   -1.5600    0.0000 H   0  0  0  0  0  0  0  0  0  0  0  0
    2.2460   -2.7500    0.0000 H   0  0  0  0  0  0  0  0  0  0  0  0
    2.3100   -0.7131    0.0000 H   0  0  0  0  0  0  0  0  0  0  0  0
    1.4631   -0.9400    0.0000 H   0  0  0  0  0  0  0  0  0  0  0  0
    1.6900   -1.7869    0.0000 H   0  0  0  0  0  0  0  0  0  0  0  0
    2.8660   -3.3700    0.0000 H   0  0  0  0  0  0  0  0  0  0  0  0
    3.4860   -2.7500    0.0000 H   0  0  0  0  0  0  0  0  0  0  0  0
    5.4641    2.3700    0.0000 H   0  0  0  0  0  0  0  0  0  0  0  0
    6.8671   -3.0600    0.0000 H   0  0  0  0  0  0  0  0  0  0  0  0
    7.7331    3.0600    0.0000 H   0  0  0  0  0  0  0  0  0  0  0  0
  1 10  1  0  0  0  0
  1 31  1  0  0  0  0
  2  9  1  0  0  0  0
  2 32  1  0  0  0  0
  3 15  1  0  0  0  0
  3 33  1  0  0  0  0
  4 15  2  0  0  0  0
  5  6  1  0  0  0  0
  5  8  1  0  0  0  0
  5  9  2  0  0  0  0
  6 12  1  0  0  0  0
  6 18  1  0  0  0  0
  6 19  1  0  0  0  0
  7  8  2  0  0  0  0
  7 10  1  0  0  0  0
  7 11  1  0  0  0  0
  8 20  1  0  0  0  0
  9 13  1  0  0  0  0
 10 15  1  0  0  0  0
 10 21  1  0  0  0  0
 11 13  2  0  0  0  0
 11 22  1  0  0  0  0
 12 14  2  0  0  0  0
 12 23  1  0  0  0  0
 13 24  1  0  0  0  0
 14 16  1  0  0  0  0
 14 17  1  0  0  0  0
 16 26  1  0  0  0  0
 16 27  1  0  0  0  0
 16 28  1  0  0  0  0
 17 25  1  0  0  0  0
 17 29  1  0  0  0  0
 17 30  1  0  0  0  0
M  END
> <PUBCHEM_COMPOUND_CID>
443851

> <PUBCHEM_COMPOUND_CANONICALIZED>
1

> <PUBCHEM_CACTVS_COMPLEXITY>
294

> <PUBCHEM_CACTVS_HBOND_ACCEPTOR>
4

> <PUBCHEM_CACTVS_HBOND_DONOR>
3

> <PUBCHEM_CACTVS_ROTATABLE_BOND>
4

> <PUBCHEM_CACTVS_SUBSKEYS>
AAADceBwOAAAAAAAAAAAAAAAAAAAAAAAAAAwAAAAAAAAAAABAAAAGgAACAAADBSgmAIyDoAAAgCIAiDSCAICAAAgIAAIiAFGCIgJNjKCFRKAcAAkwBEJmAeI6PSOIAACAAAIAABAAAQAABAAAAAAAAAAAA==

> <PUBCHEM_IUPAC_OPENEYE_NAME>
2-hydroxy-2-[4-hydroxy-3-(3-methylbut-2-enyl)phenyl]acetic acid

> <PUBCHEM_IUPAC_CAS_NAME>
2-hydroxy-2-[4-hydroxy-3-(3-methylbut-2-enyl)phenyl]acetic acid

> <PUBCHEM_IUPAC_NAME>
2-hydroxy-2-[4-hydroxy-3-(3-methylbut-2-enyl)phenyl]acetic acid

> <PUBCHEM_IUPAC_SYSTEMATIC_NAME>
2-[3-(3-methylbut-2-enyl)-4-oxidanyl-phenyl]-2-oxidanyl-ethanoic acid

> <PUBCHEM_IUPAC_TRADITIONAL_NAME>
2-hydroxy-2-[4-hydroxy-3-(3-methylbut-2-enyl)phenyl]acetic acid

> <PUBCHEM_IUPAC_INCHI>
InChI=1S/C13H16O4/c1-8(2)3-4-9-7-10(5-6-11(9)14)12(15)13(16)17/h3,5-7,12,14-15H,4H2,1-2H3,(H,16,17)

> <PUBCHEM_IUPAC_INCHIKEY>
VBHJEUYYPUPECH-UHFFFAOYSA-N

> <PUBCHEM_XLOGP3_AA>
2.4

> <PUBCHEM_EXACT_MASS>
236.104859

> <PUBCHEM_MOLECULAR_FORMULA>
C13H16O4

> <PUBCHEM_MOLECULAR_WEIGHT>
236.26374

> <PUBCHEM_OPENEYE_CAN_SMILES>
CC(=CCC1=C(C=CC(=C1)C(C(=O)O)O)O)C

> <PUBCHEM_OPENEYE_ISO_SMILES>
CC(=CCC1=C(C=CC(=C1)C(C(=O)O)O)O)C

> <PUBCHEM_CACTVS_TPSA>
77.8

> <PUBCHEM_MONOISOTOPIC_WEIGHT>
236.104859

> <PUBCHEM_TOTAL_CHARGE>
0

> <PUBCHEM_HEAVY_ATOM_COUNT>
17

> <PUBCHEM_ATOM_DEF_STEREO_COUNT>
0

> <PUBCHEM_ATOM_UDEF_STEREO_COUNT>
1

> <PUBCHEM_BOND_DEF_STEREO_COUNT>
0

> <PUBCHEM_BOND_UDEF_STEREO_COUNT>
0

> <PUBCHEM_ISOTOPIC_ATOM_COUNT>
0

> <PUBCHEM_COMPONENT_COUNT>
1

> <PUBCHEM_CACTVS_TAUTO_COUNT>
3

> <PUBCHEM_COORDINATE_TYPE>
1
5
255

> <PUBCHEM_BONDANNOTATIONS>
10  1  3
11  13  8
5  8  8
5  9  8
7  11  8
7  8  8
9  13  8

$$$$

