13664
  -OEChem-06241222393D

 26 28  0     0  0  0  0  0  0999 V2000
   -0.0005    1.6417   -0.0447 N   0  0  0  0  0  0  0  0  0  0  0  0
    0.7008   -0.4724    0.0121 C   0  0  0  0  0  0  0  0  0  0  0  0
    1.1078    0.8451   -0.0196 C   0  0  0  0  0  0  0  0  0  0  0  0
    1.6697   -1.6043    0.0603 C   0  0  0  0  0  0  0  0  0  0  0  0
    2.5110    1.3341   -0.0544 C   0  0  0  0  0  0  0  0  0  0  0  0
    3.0865   -1.1415   -0.3320 C   0  0  0  0  0  0  0  0  0  0  0  0
    3.4683    0.1929    0.3366 C   0  0  0  0  0  0  0  0  0  0  0  0
   -0.7225   -0.4776    0.0143 C   0  0  0  0  0  0  0  0  0  0  0  0
   -1.1354    0.8589   -0.0230 C   0  0  0  0  0  0  0  0  0  0  0  0
   -1.7047   -1.4883    0.0464 C   0  0  0  0  0  0  0  0  0  0  0  0
   -2.4848    1.2307   -0.0327 C   0  0  0  0  0  0  0  0  0  0  0  0
   -3.0572   -1.1292    0.0379 C   0  0  0  0  0  0  0  0  0  0  0  0
   -3.4390    0.2100   -0.0012 C   0  0  0  0  0  0  0  0  0  0  0  0
    1.6897   -2.0065    1.0806 H   0  0  0  0  0  0  0  0  0  0  0  0
    1.3512   -2.4132   -0.6064 H   0  0  0  0  0  0  0  0  0  0  0  0
    2.7455    1.6755   -1.0696 H   0  0  0  0  0  0  0  0  0  0  0  0
    2.6491    2.1834    0.6234 H   0  0  0  0  0  0  0  0  0  0  0  0
    3.8113   -1.9169   -0.0593 H   0  0  0  0  0  0  0  0  0  0  0  0
    3.1418   -1.0205   -1.4217 H   0  0  0  0  0  0  0  0  0  0  0  0
    4.4937    0.4678    0.0648 H   0  0  0  0  0  0  0  0  0  0  0  0
    3.4513    0.0598    1.4262 H   0  0  0  0  0  0  0  0  0  0  0  0
    0.0050    2.6521   -0.0764 H   0  0  0  0  0  0  0  0  0  0  0  0
   -1.4226   -2.5369    0.0771 H   0  0  0  0  0  0  0  0  0  0  0  0
   -2.7840    2.2732   -0.0622 H   0  0  0  0  0  0  0  0  0  0  0  0
   -3.8174   -1.9055    0.0623 H   0  0  0  0  0  0  0  0  0  0  0  0
   -4.4953    0.4665   -0.0071 H   0  0  0  0  0  0  0  0  0  0  0  0
  1  3  1  0  0  0  0
  1  9  1  0  0  0  0
  1 22  1  0  0  0  0
  2  3  2  0  0  0  0
  2  4  1  0  0  0  0
  2  8  1  0  0  0  0
  3  5  1  0  0  0  0
  4  6  1  0  0  0  0
  4 14  1  0  0  0  0
  4 15  1  0  0  0  0
  5  7  1  0  0  0  0
  5 16  1  0  0  0  0
  5 17  1  0  0  0  0
  6  7  1  0  0  0  0
  6 18  1  0  0  0  0
  6 19  1  0  0  0  0
  7 20  1  0  0  0  0
  7 21  1  0  0  0  0
  8  9  1  0  0  0  0
  8 10  2  0  0  0  0
  9 11  2  0  0  0  0
 10 12  1  0  0  0  0
 10 23  1  0  0  0  0
 11 13  1  0  0  0  0
 11 24  1  0  0  0  0
 12 13  2  0  0  0  0
 12 25  1  0  0  0  0
 13 26  1  0  0  0  0
M  END
> <PUBCHEM_COMPOUND_CID>
13664

> <PUBCHEM_CONFORMER_RMSD>
0.4

> <PUBCHEM_CONFORMER_DIVERSEORDER>
1

> <PUBCHEM_MMFF94_PARTIAL_CHARGES>
15
1 0.03
10 -0.15
11 -0.15
12 -0.15
13 -0.15
2 -0.18
22 0.27
23 0.15
24 0.15
25 0.15
26 0.15
3 -0.33
4 0.18
5 0.18
9 -0.15

> <PUBCHEM_EFFECTIVE_ROTOR_COUNT>
0.8

> <PUBCHEM_PHARMACOPHORE_FEATURES>
5
1 1 cation
1 1 donor
5 1 2 3 8 9 rings
6 2 3 4 5 6 7 rings
6 8 9 10 11 12 13 rings

> <PUBCHEM_HEAVY_ATOM_COUNT>
13

> <PUBCHEM_ATOM_DEF_STEREO_COUNT>
0

> <PUBCHEM_ATOM_UDEF_STEREO_COUNT>
0

> <PUBCHEM_BOND_DEF_STEREO_COUNT>
0

> <PUBCHEM_BOND_UDEF_STEREO_COUNT>
0

> <PUBCHEM_ISOTOPIC_ATOM_COUNT>
0

> <PUBCHEM_COMPONENT_COUNT>
1

> <PUBCHEM_CACTVS_TAUTO_COUNT>
1

> <PUBCHEM_CONFORMER_ID>
0000356000000001

> <PUBCHEM_MMFF94_ENERGY>
18.8565

> <PUBCHEM_FEATURE_SELFOVERLAP>
25.547

> <PUBCHEM_SHAPE_FINGERPRINT>
10608611 8 18410579487015548552
10967382 1 18410856525290678662
11132069 177 18410300202630018352
11471102 20 18410579491341761789
11769659 78 18410016532756383103
11806522 49 18266182729779578815
12032990 46 18411131437562752715
12382932 28 18408324397303965378
12932764 1 17560806575264811781
13296908 3 18409727365509134550
13380535 76 18411140225076597739
14144814 61 18410574002410500235
14325111 11 18410575076078639936
15196674 1 18410856563955992298
15219456 202 18408604768442412700
15442244 35 18193556894251104530
15536298 74 18333731321331930038
16945 1 18340209707739898428
17844478 74 17988635311814221057
18186145 218 17989209265078209471
193761 8 17257934226246750741
200 152 18040727939560859295
20201158 50 18411138047533323482
20510252 161 18188208801058840025
20645477 70 18335987544825209287
20871998 184 18187362104286167663
21267235 1 18410846664051399083
21501502 16 18410854352037174933
21501925 9 18411429388239648378
2334 1 18410855425773730670
23402539 116 18186811296553289301
23402655 69 18264222447182765197
23463225 33 18413109459234140956
23552423 10 18272086080427834694
23559900 14 18264211477725501358
2748010 2 18410856563940064279
3312278 4 18409726257396749961
5104073 3 18410573985156739882
528886 8 18410299103102624754
53812653 166 18261679181617826640
69090 78 18334863822608963415
7364860 26 18263081037658535664
8809292 202 18272364256859548019
9709674 26 18409726240259695870

> <PUBCHEM_SHAPE_MULTIPOLES>
262.55
5.66
1.76
0.63
0.15
0.06
0
0.46
-0.07
0.1
0.03
0.06
0.02
0.11

> <PUBCHEM_SHAPE_SELFOVERLAP>
580.566

> <PUBCHEM_SHAPE_VOLUME>
142

> <PUBCHEM_COORDINATE_TYPE>
2
5
10

$$$$

