11829464
  -OEChem-07051213083D

 16 16  0     1  0  0  0  0  0999 V2000
   -2.6917    0.6128    0.4348 F   0  0  0  0  0  0  0  0  0  0  0  0
    1.8720    1.5981    0.0476 O   0  0  0  0  0  0  0  0  0  0  0  0
    1.8263   -0.8701    0.9809 O   0  0  0  0  0  0  0  0  0  0  0  0
    0.8895    0.7677   -0.5640 C   0  0  1  0  0  0  0  0  0  0  0  0
    1.2312   -0.7205   -0.3100 C   0  0  2  0  0  0  0  0  0  0  0  0
   -0.4898    1.1585   -0.0980 C   0  0  0  0  0  0  0  0  0  0  0  0
    0.0283   -1.6259   -0.3673 C   0  0  0  0  0  0  0  0  0  0  0  0
   -1.4492    0.2384    0.0667 C   0  0  0  0  0  0  0  0  0  0  0  0
   -1.2165   -1.1590   -0.1907 C   0  0  0  0  0  0  0  0  0  0  0  0
    0.9312    0.9579   -1.6442 H   0  0  0  0  0  0  0  0  0  0  0  0
    1.9738   -1.0486   -1.0463 H   0  0  0  0  0  0  0  0  0  0  0  0
   -0.7167    2.2082    0.0598 H   0  0  0  0  0  0  0  0  0  0  0  0
    0.1889   -2.6875   -0.5284 H   0  0  0  0  0  0  0  0  0  0  0  0
   -2.0710   -1.8255   -0.2158 H   0  0  0  0  0  0  0  0  0  0  0  0
    1.6581    2.5219   -0.1686 H   0  0  0  0  0  0  0  0  0  0  0  0
    2.5949   -0.2754    1.0165 H   0  0  0  0  0  0  0  0  0  0  0  0
  1  8  1  0  0  0  0
  2  4  1  0  0  0  0
  2 15  1  0  0  0  0
  3  5  1  0  0  0  0
  3 16  1  0  0  0  0
  4  5  1  0  0  0  0
  4  6  1  0  0  0  0
  4 10  1  0  0  0  0
  5  7  1  0  0  0  0
  5 11  1  0  0  0  0
  6  8  2  0  0  0  0
  6 12  1  0  0  0  0
  7  9  2  0  0  0  0
  7 13  1  0  0  0  0
  8  9  1  0  0  0  0
  9 14  1  0  0  0  0
M  END
> <PUBCHEM_COMPOUND_CID>
11829464

> <PUBCHEM_CONFORMER_RMSD>
0.4

> <PUBCHEM_CONFORMER_DIVERSEORDER>
1
2

> <PUBCHEM_MMFF94_PARTIAL_CHARGES>
14
1 -0.15
12 0.15
13 0.15
14 0.15
15 0.4
16 0.4
2 -0.68
3 -0.68
4 0.42
5 0.42
6 -0.29
7 -0.29
8 0.15
9 -0.15

> <PUBCHEM_EFFECTIVE_ROTOR_COUNT>
0.4

> <PUBCHEM_PHARMACOPHORE_FEATURES>
5
1 2 acceptor
1 2 donor
1 3 acceptor
1 3 donor
6 4 5 6 7 8 9 rings

> <PUBCHEM_HEAVY_ATOM_COUNT>
9

> <PUBCHEM_ATOM_DEF_STEREO_COUNT>
2

> <PUBCHEM_ATOM_UDEF_STEREO_COUNT>
0

> <PUBCHEM_BOND_DEF_STEREO_COUNT>
0

> <PUBCHEM_BOND_UDEF_STEREO_COUNT>
0

> <PUBCHEM_ISOTOPIC_ATOM_COUNT>
0

> <PUBCHEM_COMPONENT_COUNT>
1

> <PUBCHEM_CACTVS_TAUTO_COUNT>
1

> <PUBCHEM_CONFORMER_ID>
00B480D800000001

> <PUBCHEM_MMFF94_ENERGY>
13.4915

> <PUBCHEM_FEATURE_SELFOVERLAP>
25.39

> <PUBCHEM_SHAPE_FINGERPRINT>
16945 1 18338518667541278647
18185500 45 17979644437350351190
21040471 1 18337381630757844309
23552423 10 18200029508882273750
241688 4 17328290858516530371
29004967 10 18125433357117588131
5084963 1 17895470461502988951

> <PUBCHEM_SHAPE_MULTIPOLES>
166.2
2.53
1.71
0.75
0.66
0.1
0.04
-0.55
0.48
-0.3
-0.08
-0.16
0.09
-0.24

> <PUBCHEM_SHAPE_SELFOVERLAP>
338.86

> <PUBCHEM_SHAPE_VOLUME>
96.3

> <PUBCHEM_COORDINATE_TYPE>
2
5
10

$$$$

