656761
  -OEChem-07051213043D

 57 57  0     1  0  0  0  0  0999 V2000
  -10.1272    0.4853   -0.9633 O   0  0  0  0  0  0  0  0  0  0  0  0
   -9.2369    0.2680    1.1165 O   0  0  0  0  0  0  0  0  0  0  0  0
    2.5169   -1.4248   -0.5041 C   0  0  1  0  0  0  0  0  0  0  0  0
    3.8539   -2.0978   -0.6100 C   0  0  2  0  0  0  0  0  0  0  0  0
    2.7244   -2.7809    0.1036 C   0  0  0  0  0  0  0  0  0  0  0  0
    2.3673   -0.2366    0.3960 C   0  0  0  0  0  0  0  0  0  0  0  0
    4.9935   -1.5695    0.1794 C   0  0  0  0  0  0  0  0  0  0  0  0
    0.9889   -0.1438    1.0535 C   0  0  0  0  0  0  0  0  0  0  0  0
    5.7638   -0.4405   -0.5210 C   0  0  0  0  0  0  0  0  0  0  0  0
   -0.1479    0.0353    0.0422 C   0  0  0  0  0  0  0  0  0  0  0  0
    6.9478    0.0740    0.3025 C   0  0  0  0  0  0  0  0  0  0  0  0
   -1.5076    0.0881    0.7442 C   0  0  0  0  0  0  0  0  0  0  0  0
    7.7047    1.1751   -0.4438 C   0  0  0  0  0  0  0  0  0  0  0  0
   -2.6888    0.1960   -0.2257 C   0  0  0  0  0  0  0  0  0  0  0  0
    8.9058    1.6687    0.3625 C   0  0  0  0  0  0  0  0  0  0  0  0
   -4.0453    0.2753    0.4796 C   0  0  0  0  0  0  0  0  0  0  0  0
   -5.2253    0.3960   -0.4908 C   0  0  0  0  0  0  0  0  0  0  0  0
    9.6411    2.7856   -0.3609 C   0  0  0  0  0  0  0  0  0  0  0  0
   -6.5877    0.4001    0.2101 C   0  0  0  0  0  0  0  0  0  0  0  0
   -7.7497    0.4536   -0.7781 C   0  0  0  0  0  0  0  0  0  0  0  0
   -9.0917    0.3929   -0.0925 C   0  0  0  0  0  0  0  0  0  0  0  0
    1.9354   -1.3497   -1.4140 H   0  0  0  0  0  0  0  0  0  0  0  0
    4.1517   -2.4924   -1.5736 H   0  0  0  0  0  0  0  0  0  0  0  0
    2.7686   -2.8671    1.1826 H   0  0  0  0  0  0  0  0  0  0  0  0
    2.2570   -3.6267   -0.3867 H   0  0  0  0  0  0  0  0  0  0  0  0
    3.0862   -0.2181    1.2169 H   0  0  0  0  0  0  0  0  0  0  0  0
    2.5498    0.6709   -0.1923 H   0  0  0  0  0  0  0  0  0  0  0  0
    4.7352   -1.2832    1.2030 H   0  0  0  0  0  0  0  0  0  0  0  0
    5.6951   -2.4054    0.3105 H   0  0  0  0  0  0  0  0  0  0  0  0
    0.8080   -1.0462    1.6504 H   0  0  0  0  0  0  0  0  0  0  0  0
    0.9865    0.7047    1.7489 H   0  0  0  0  0  0  0  0  0  0  0  0
    6.1216   -0.8000   -1.4941 H   0  0  0  0  0  0  0  0  0  0  0  0
    5.0799    0.3908   -0.7304 H   0  0  0  0  0  0  0  0  0  0  0  0
   -0.1570   -0.7970   -0.6699 H   0  0  0  0  0  0  0  0  0  0  0  0
    0.0079    0.9554   -0.5334 H   0  0  0  0  0  0  0  0  0  0  0  0
    6.5864    0.4593    1.2635 H   0  0  0  0  0  0  0  0  0  0  0  0
    7.6286   -0.7574    0.5215 H   0  0  0  0  0  0  0  0  0  0  0  0
   -1.6349   -0.8125    1.3577 H   0  0  0  0  0  0  0  0  0  0  0  0
   -1.5256    0.9439    1.4303 H   0  0  0  0  0  0  0  0  0  0  0  0
    7.0263    2.0130   -0.6456 H   0  0  0  0  0  0  0  0  0  0  0  0
    8.0466    0.7952   -1.4142 H   0  0  0  0  0  0  0  0  0  0  0  0
   -2.6820   -0.6698   -0.8991 H   0  0  0  0  0  0  0  0  0  0  0  0
   -2.5578    1.0864   -0.8529 H   0  0  0  0  0  0  0  0  0  0  0  0
    8.5729    2.0338    1.3410 H   0  0  0  0  0  0  0  0  0  0  0  0
    9.5988    0.8390    0.5442 H   0  0  0  0  0  0  0  0  0  0  0  0
   -4.1782   -0.6203    1.0990 H   0  0  0  0  0  0  0  0  0  0  0  0
   -4.0513    1.1353    1.1604 H   0  0  0  0  0  0  0  0  0  0  0  0
   -5.1901   -0.4407   -1.1996 H   0  0  0  0  0  0  0  0  0  0  0  0
   -5.1171    1.3152   -1.0794 H   0  0  0  0  0  0  0  0  0  0  0  0
    8.9836    3.6448   -0.5275 H   0  0  0  0  0  0  0  0  0  0  0  0
   10.0144    2.4449   -1.3319 H   0  0  0  0  0  0  0  0  0  0  0  0
   10.4966    3.1228    0.2327 H   0  0  0  0  0  0  0  0  0  0  0  0
   -6.6444    1.2556    0.8946 H   0  0  0  0  0  0  0  0  0  0  0  0
   -6.6758   -0.5012    0.8299 H   0  0  0  0  0  0  0  0  0  0  0  0
   -7.6880   -0.3938   -1.4699 H   0  0  0  0  0  0  0  0  0  0  0  0
   -7.7013    1.3850   -1.3528 H   0  0  0  0  0  0  0  0  0  0  0  0
  -10.9945    0.4417   -0.5069 H   0  0  0  0  0  0  0  0  0  0  0  0
  1 21  1  0  0  0  0
  1 57  1  0  0  0  0
  2 21  2  0  0  0  0
  3  4  1  0  0  0  0
  3  5  1  0  0  0  0
  3  6  1  0  0  0  0
  3 22  1  0  0  0  0
  4  5  1  0  0  0  0
  4  7  1  0  0  0  0
  4 23  1  0  0  0  0
  5 24  1  0  0  0  0
  5 25  1  0  0  0  0
  6  8  1  0  0  0  0
  6 26  1  0  0  0  0
  6 27  1  0  0  0  0
  7  9  1  0  0  0  0
  7 28  1  0  0  0  0
  7 29  1  0  0  0  0
  8 10  1  0  0  0  0
  8 30  1  0  0  0  0
  8 31  1  0  0  0  0
  9 11  1  0  0  0  0
  9 32  1  0  0  0  0
  9 33  1  0  0  0  0
 10 12  1  0  0  0  0
 10 34  1  0  0  0  0
 10 35  1  0  0  0  0
 11 13  1  0  0  0  0
 11 36  1  0  0  0  0
 11 37  1  0  0  0  0
 12 14  1  0  0  0  0
 12 38  1  0  0  0  0
 12 39  1  0  0  0  0
 13 15  1  0  0  0  0
 13 40  1  0  0  0  0
 13 41  1  0  0  0  0
 14 16  1  0  0  0  0
 14 42  1  0  0  0  0
 14 43  1  0  0  0  0
 15 18  1  0  0  0  0
 15 44  1  0  0  0  0
 15 45  1  0  0  0  0
 16 17  1  0  0  0  0
 16 46  1  0  0  0  0
 16 47  1  0  0  0  0
 17 19  1  0  0  0  0
 17 48  1  0  0  0  0
 17 49  1  0  0  0  0
 18 50  1  0  0  0  0
 18 51  1  0  0  0  0
 18 52  1  0  0  0  0
 19 20  1  0  0  0  0
 19 53  1  0  0  0  0
 19 54  1  0  0  0  0
 20 21  1  0  0  0  0
 20 55  1  0  0  0  0
 20 56  1  0  0  0  0
M  END
> <PUBCHEM_COMPOUND_CID>
656761

> <PUBCHEM_CONFORMER_RMSD>
1.4

> <PUBCHEM_CONFORMER_DIVERSEORDER>
2
16
19
93
12
76
68
96
52
35
21
46
4
72
70
29
34
91
73
67
79
47
75
74
38
51
90
65
89
10
45
84
24
44
59
69
86
20
15
55
17
97
1
92
50
48
62
13
42
60
53
28
41
3
30
54
98
40
23
49
33
7
78
26
77
36
94
32
66
71
61
43
85
37
88
27
63
83
9
11
25
5
95
22
31
81
82
58
64
80
18
99
14
39
56
6
57
8
87

> <PUBCHEM_MMFF94_PARTIAL_CHARGES>
14
1 -0.65
2 -0.57
20 0.06
21 0.66
22 0.1
23 0.1
24 0.1
25 0.1
3 -0.19
4 -0.19
5 -0.2
57 0.5
6 0.09
7 0.09

> <PUBCHEM_EFFECTIVE_ROTOR_COUNT>
15.6

> <PUBCHEM_PHARMACOPHORE_FEATURES>
5
1 1 acceptor
1 18 hydrophobe
1 2 acceptor
3 1 2 21 anion
5 7 9 11 13 15 hydrophobe

> <PUBCHEM_HEAVY_ATOM_COUNT>
21

> <PUBCHEM_ATOM_DEF_STEREO_COUNT>
2

> <PUBCHEM_ATOM_UDEF_STEREO_COUNT>
0

> <PUBCHEM_BOND_DEF_STEREO_COUNT>
0

> <PUBCHEM_BOND_UDEF_STEREO_COUNT>
0

> <PUBCHEM_ISOTOPIC_ATOM_COUNT>
0

> <PUBCHEM_COMPONENT_COUNT>
1

> <PUBCHEM_CACTVS_TAUTO_COUNT>
1

> <PUBCHEM_CONFORMER_ID>
000A057900000002

> <PUBCHEM_MMFF94_ENERGY>
12.3234

> <PUBCHEM_FEATURE_SELFOVERLAP>
25.429

> <PUBCHEM_SHAPE_FINGERPRINT>
10299344 5 17676209096194093303
10666366 153 7060382504744258883
11315181 36 18334010610914020987
11638347 137 16558755641986706794
12838862 33 16773803589103119035
14142895 15 18335984190139012364
14251764 18 17603305986193525139
14251764 46 18410856563934763369
14344974 52 18131633353669720637
14428016 248 17894907438983783337
15419008 145 12103577393574389055
155225 1 18410575055785815636
15840311 113 18412541021035352030
16120349 18 18408325475314811365
20554085 129 16917352532706115496
20812841 46 12319449983802726414
21049683 271 18113058229051214672
21150785 3 18409167731866311315
21267235 1 8935005867592712394
21591340 7 13614517446527387865
22224240 67 18201720644229849242
246663 6 6050447015963370668
28498 318 8502654800794470970
437795 160 15984814896876843649
67123 10 18410012139664007927

> <PUBCHEM_SHAPE_MULTIPOLES>
420.43
37.09
2.07
0.9
39.97
0.49
0.05
-24.69
-4.41
-7.35
-0.25
0.64
-0.02
0.08

> <PUBCHEM_SHAPE_SELFOVERLAP>
787.782

> <PUBCHEM_SHAPE_VOLUME>
262.9

> <PUBCHEM_COORDINATE_TYPE>
2
5
10

$$$$

