47938
  -OEChem-07051213002D

 41 43  0     1  0  0  0  0  0999 V2000
    2.0000    3.0981    0.0000 Cl  0  0  0  0  0  0  0  0  0  0  0  0
    9.1279   -1.3660    0.0000 O   0  0  0  0  0  0  0  0  0  0  0  0
    7.1279    2.0981    0.0000 O   0  0  0  0  0  0  0  0  0  0  0  0
    5.5443    2.9028    0.0000 O   0  0  0  0  0  0  0  0  0  0  0  0
   11.6279   -2.2320    0.0000 O   0  0  0  0  0  0  0  0  0  0  0  0
   10.1279   -3.0981    0.0000 O   0  0  0  0  0  0  0  0  0  0  0  0
    5.5443    1.2933    0.0000 N   0  0  0  0  0  0  0  0  0  0  0  0
   10.1279   -1.3660    0.0000 C   0  0  3  0  0  0  0  0  0  0  0  0
    8.6279   -0.5000    0.0000 C   0  0  0  0  0  0  0  0  0  0  0  0
   10.6279   -0.5000    0.0000 C   0  0  0  0  0  0  0  0  0  0  0  0
    7.6279    1.2320    0.0000 C   0  0  0  0  0  0  0  0  0  0  0  0
    4.5981    2.5981    0.0000 C   0  0  0  0  0  0  0  0  0  0  0  0
    4.5981    1.5981    0.0000 C   0  0  0  0  0  0  0  0  0  0  0  0
    9.1279    0.3660    0.0000 C   0  0  0  0  0  0  0  0  0  0  0  0
    7.6279   -0.5000    0.0000 C   0  0  0  0  0  0  0  0  0  0  0  0
   10.6279   -2.2320    0.0000 C   0  0  0  0  0  0  0  0  0  0  0  0
    8.6279    1.2320    0.0000 C   0  0  0  0  0  0  0  0  0  0  0  0
    7.1279    0.3660    0.0000 C   0  0  0  0  0  0  0  0  0  0  0  0
    6.1279    2.0981    0.0000 C   0  0  0  0  0  0  0  0  0  0  0  0
    3.7320    3.0981    0.0000 C   0  0  0  0  0  0  0  0  0  0  0  0
    3.7320    1.0981    0.0000 C   0  0  0  0  0  0  0  0  0  0  0  0
    2.8660    2.5981    0.0000 C   0  0  0  0  0  0  0  0  0  0  0  0
    2.8660    1.5981    0.0000 C   0  0  0  0  0  0  0  0  0  0  0  0
   12.1279   -3.0981    0.0000 C   0  0  0  0  0  0  0  0  0  0  0  0
   13.1279   -3.0981    0.0000 C   0  0  0  0  0  0  0  0  0  0  0  0
    9.7029   -0.6299    0.0000 H   0  0  0  0  0  0  0  0  0  0  0  0
   11.1648   -0.8100    0.0000 H   0  0  0  0  0  0  0  0  0  0  0  0
   10.9379    0.0369    0.0000 H   0  0  0  0  0  0  0  0  0  0  0  0
   10.0910   -0.1900    0.0000 H   0  0  0  0  0  0  0  0  0  0  0  0
    9.7479    0.3660    0.0000 H   0  0  0  0  0  0  0  0  0  0  0  0
    7.3179   -1.0369    0.0000 H   0  0  0  0  0  0  0  0  0  0  0  0
    8.9379    1.7690    0.0000 H   0  0  0  0  0  0  0  0  0  0  0  0
    6.5079    0.3660    0.0000 H   0  0  0  0  0  0  0  0  0  0  0  0
    3.7320    3.7181    0.0000 H   0  0  0  0  0  0  0  0  0  0  0  0
    3.7320    0.4781    0.0000 H   0  0  0  0  0  0  0  0  0  0  0  0
    2.3291    1.2881    0.0000 H   0  0  0  0  0  0  0  0  0  0  0  0
   11.5453   -3.3101    0.0000 H   0  0  0  0  0  0  0  0  0  0  0  0
   12.2356   -3.7087    0.0000 H   0  0  0  0  0  0  0  0  0  0  0  0
   13.1279   -3.7181    0.0000 H   0  0  0  0  0  0  0  0  0  0  0  0
   13.7479   -3.0981    0.0000 H   0  0  0  0  0  0  0  0  0  0  0  0
   13.1279   -2.4781    0.0000 H   0  0  0  0  0  0  0  0  0  0  0  0
  1 22  1  0  0  0  0
  2  8  1  0  0  0  0
  2  9  1  0  0  0  0
  3 11  1  0  0  0  0
  3 19  1  0  0  0  0
  4 12  1  0  0  0  0
  4 19  1  0  0  0  0
  5 16  1  0  0  0  0
  5 24  1  0  0  0  0
  6 16  2  0  0  0  0
  7 13  1  0  0  0  0
  7 19  2  0  0  0  0
  8 10  1  0  0  0  0
  8 16  1  0  0  0  0
  8 26  1  0  0  0  0
  9 14  2  0  0  0  0
  9 15  1  0  0  0  0
 10 27  1  0  0  0  0
 10 28  1  0  0  0  0
 10 29  1  0  0  0  0
 11 17  2  0  0  0  0
 11 18  1  0  0  0  0
 12 13  2  0  0  0  0
 12 20  1  0  0  0  0
 13 21  1  0  0  0  0
 14 17  1  0  0  0  0
 14 30  1  0  0  0  0
 15 18  2  0  0  0  0
 15 31  1  0  0  0  0
 17 32  1  0  0  0  0
 18 33  1  0  0  0  0
 20 22  2  0  0  0  0
 20 34  1  0  0  0  0
 21 23  2  0  0  0  0
 21 35  1  0  0  0  0
 22 23  1  0  0  0  0
 23 36  1  0  0  0  0
 24 25  1  0  0  0  0
 24 37  1  0  0  0  0
 24 38  1  0  0  0  0
 25 39  1  0  0  0  0
 25 40  1  0  0  0  0
 25 41  1  0  0  0  0
M  END
> <PUBCHEM_COMPOUND_CID>
47938

> <PUBCHEM_COMPOUND_CANONICALIZED>
1

> <PUBCHEM_CACTVS_COMPLEXITY>
443

> <PUBCHEM_CACTVS_HBOND_ACCEPTOR>
6

> <PUBCHEM_CACTVS_HBOND_DONOR>
0

> <PUBCHEM_CACTVS_ROTATABLE_BOND>
7

> <PUBCHEM_CACTVS_SUBSKEYS>
AAADceB6OAAEAAAAAAAAAAAAAAAAAWAAAAAwYAAAAAAAAFgB9AAAHgIAAAAACB6hliIyzrIIFECoAaTyXAaCiCAvZyAImCH3btgfJrLFt7+vOyjkxBFe7YfYSAAAAQBAAQAAEAACAIACAAAgAAAAAAAAAA==

> <PUBCHEM_IUPAC_OPENEYE_NAME>
ethyl 2-[4-[(6-chloro-1,3-benzoxazol-2-yl)oxy]phenoxy]propanoate

> <PUBCHEM_IUPAC_CAS_NAME>
2-[4-[(6-chloro-1,3-benzoxazol-2-yl)oxy]phenoxy]propanoic acid ethyl ester

> <PUBCHEM_IUPAC_NAME>
ethyl 2-[4-[(6-chloro-1,3-benzoxazol-2-yl)oxy]phenoxy]propanoate

> <PUBCHEM_IUPAC_SYSTEMATIC_NAME>
ethyl 2-[4-[(6-chloranyl-1,3-benzoxazol-2-yl)oxy]phenoxy]propanoate

> <PUBCHEM_IUPAC_TRADITIONAL_NAME>
2-[4-[(6-chloro-1,3-benzoxazol-2-yl)oxy]phenoxy]propionic acid ethyl ester

> <PUBCHEM_IUPAC_INCHI>
InChI=1S/C18H16ClNO5/c1-3-22-17(21)11(2)23-13-5-7-14(8-6-13)24-18-20-15-9-4-12(19)10-16(15)25-18/h4-11H,3H2,1-2H3

> <PUBCHEM_IUPAC_INCHIKEY>
PQKBPHSEKWERTG-UHFFFAOYSA-N

> <PUBCHEM_XLOGP3>
4.1

> <PUBCHEM_EXACT_MASS>
361.0717

> <PUBCHEM_MOLECULAR_FORMULA>
C18H16ClNO5

> <PUBCHEM_MOLECULAR_WEIGHT>
361.77634

> <PUBCHEM_OPENEYE_CAN_SMILES>
CCOC(=O)C(C)OC1=CC=C(C=C1)OC2=NC3=C(O2)C=C(C=C3)Cl

> <PUBCHEM_OPENEYE_ISO_SMILES>
CCOC(=O)C(C)OC1=CC=C(C=C1)OC2=NC3=C(O2)C=C(C=C3)Cl

> <PUBCHEM_CACTVS_TPSA>
70.8

> <PUBCHEM_MONOISOTOPIC_WEIGHT>
361.0717

> <PUBCHEM_TOTAL_CHARGE>
0

> <PUBCHEM_HEAVY_ATOM_COUNT>
25

> <PUBCHEM_ATOM_DEF_STEREO_COUNT>
0

> <PUBCHEM_ATOM_UDEF_STEREO_COUNT>
1

> <PUBCHEM_BOND_DEF_STEREO_COUNT>
0

> <PUBCHEM_BOND_UDEF_STEREO_COUNT>
0

> <PUBCHEM_ISOTOPIC_ATOM_COUNT>
0

> <PUBCHEM_COMPONENT_COUNT>
1

> <PUBCHEM_CACTVS_TAUTO_COUNT>
1

> <PUBCHEM_COORDINATE_TYPE>
1
5
255

> <PUBCHEM_BONDANNOTATIONS>
11  17  8
11  18  8
12  13  8
12  20  8
13  21  8
14  17  8
15  18  8
20  22  8
21  23  8
22  23  8
4  12  8
4  19  8
7  13  8
7  19  8
8  26  3
9  14  8
9  15  8

$$$$

