13543
  -OEChem-06241222392D

 14 13  0     0  0  0  0  0  0999 V2000
    2.5369   -0.4400    0.0000 O   0  0  0  0  0  0  0  0  0  0  0  0
    5.1350    1.0600    0.0000 O   0  0  0  0  0  0  0  0  0  0  0  0
    4.2690   -0.4400    0.0000 N   0  0  0  0  0  0  0  0  0  0  0  0
    3.4030    0.0600    0.0000 C   0  0  0  0  0  0  0  0  0  0  0  0
    5.1350    0.0600    0.0000 C   0  0  0  0  0  0  0  0  0  0  0  0
    6.0010   -0.4400    0.0000 C   0  0  0  0  0  0  0  0  0  0  0  0
    6.8671    0.0600    0.0000 C   0  0  0  0  0  0  0  0  0  0  0  0
    3.8015    0.5349    0.0000 H   0  0  0  0  0  0  0  0  0  0  0  0
    3.0044    0.5349    0.0000 H   0  0  0  0  0  0  0  0  0  0  0  0
    4.2690   -1.0600    0.0000 H   0  0  0  0  0  0  0  0  0  0  0  0
    6.0010   -1.0600    0.0000 H   0  0  0  0  0  0  0  0  0  0  0  0
    2.0000   -0.1300    0.0000 H   0  0  0  0  0  0  0  0  0  0  0  0
    7.4040   -0.2500    0.0000 H   0  0  0  0  0  0  0  0  0  0  0  0
    6.8671    0.6800    0.0000 H   0  0  0  0  0  0  0  0  0  0  0  0
  1  4  1  0  0  0  0
  1 12  1  0  0  0  0
  2  5  2  0  0  0  0
  3  4  1  0  0  0  0
  3  5  1  0  0  0  0
  3 10  1  0  0  0  0
  4  8  1  0  0  0  0
  4  9  1  0  0  0  0
  5  6  1  0  0  0  0
  6  7  2  0  0  0  0
  6 11  1  0  0  0  0
  7 13  1  0  0  0  0
  7 14  1  0  0  0  0
M  END
> <PUBCHEM_COMPOUND_CID>
13543

> <PUBCHEM_COMPOUND_CANONICALIZED>
1

> <PUBCHEM_CACTVS_COMPLEXITY>
79.8

> <PUBCHEM_CACTVS_HBOND_ACCEPTOR>
2

> <PUBCHEM_CACTVS_HBOND_DONOR>
2

> <PUBCHEM_CACTVS_ROTATABLE_BOND>
2

> <PUBCHEM_CACTVS_SUBSKEYS>
AAADcYBiMAAAAAAAAAAAAAAAAAAAAAAAAAAAAAAAAAAAAAAAAAAAHgAQCAAACACBgAYAAALAAgCIACFSEACAAAAAAAAIAIAIAEEAEAAAAAAAAAAAEgAAAIAAAAAAAAAAAAAAAAAAAAAAAAAAAAAAAAAAAA==

> <PUBCHEM_IUPAC_OPENEYE_NAME>
N-(hydroxymethyl)prop-2-enamide

> <PUBCHEM_IUPAC_CAS_NAME>
N-(hydroxymethyl)-2-propenamide

> <PUBCHEM_IUPAC_NAME>
N-(hydroxymethyl)prop-2-enamide

> <PUBCHEM_IUPAC_SYSTEMATIC_NAME>
N-(hydroxymethyl)prop-2-enamide

> <PUBCHEM_IUPAC_TRADITIONAL_NAME>
N-methylolacrylamide

> <PUBCHEM_IUPAC_INCHI>
InChI=1S/C4H7NO2/c1-2-4(7)5-3-6/h2,6H,1,3H2,(H,5,7)

> <PUBCHEM_IUPAC_INCHIKEY>
CNCOEDDPFOAUMB-UHFFFAOYSA-N

> <PUBCHEM_XLOGP3_AA>
-0.5

> <PUBCHEM_EXACT_MASS>
101.047678

> <PUBCHEM_MOLECULAR_FORMULA>
C4H7NO2

> <PUBCHEM_MOLECULAR_WEIGHT>
101.10388

> <PUBCHEM_OPENEYE_CAN_SMILES>
C=CC(=O)NCO

> <PUBCHEM_OPENEYE_ISO_SMILES>
C=CC(=O)NCO

> <PUBCHEM_CACTVS_TPSA>
49.3

> <PUBCHEM_MONOISOTOPIC_WEIGHT>
101.047678

> <PUBCHEM_TOTAL_CHARGE>
0

> <PUBCHEM_HEAVY_ATOM_COUNT>
7

> <PUBCHEM_ATOM_DEF_STEREO_COUNT>
0

> <PUBCHEM_ATOM_UDEF_STEREO_COUNT>
0

> <PUBCHEM_BOND_DEF_STEREO_COUNT>
0

> <PUBCHEM_BOND_UDEF_STEREO_COUNT>
0

> <PUBCHEM_ISOTOPIC_ATOM_COUNT>
0

> <PUBCHEM_COMPONENT_COUNT>
1

> <PUBCHEM_CACTVS_TAUTO_COUNT>
2

> <PUBCHEM_COORDINATE_TYPE>
1
5
255

$$$$

