11329
  -OEChem-06261205322D

 76 77  0     1  0  0  0  0  0999 V2000
    2.6144    3.3100    0.0000 Cl  0  0  0  0  0  0  0  0  0  0  0  0
    8.2805   15.3331    0.0000 S   0  0  0  0  0  0  0  0  0  0  0  0
    2.9770   15.9317    0.0000 S   0  0  0  0  0  0  0  0  0  0  0  0
    5.6155   13.3114    0.0000 O   0  0  0  0  0  0  0  0  0  0  0  0
    7.9204   12.0209    0.0000 O   0  0  0  0  0  0  0  0  0  0  0  0
    9.5677   12.5561    0.0000 O   0  0  0  0  0  0  0  0  0  0  0  0
    4.3883   14.5146    0.0000 O   0  0  0  0  0  0  0  0  0  0  0  0
    5.2125    4.8100    0.0000 O   0  0  0  0  0  0  0  0  0  0  0  0
    3.4804    4.8100    0.0000 O   0  0  0  0  0  0  0  0  0  0  0  0
    7.3295   14.0241    0.0000 N   0  0  0  0  0  0  0  0  0  0  0  0
    5.6155   15.7368    0.0000 N   0  0  0  0  0  0  0  0  0  0  0  0
    6.0785    7.3100    0.0000 N   0  0  0  0  0  0  0  0  0  0  0  0
    4.3464    0.3100    0.0000 N   0  0  0  0  0  0  0  0  0  0  0  0
    7.3295   15.0241    0.0000 C   0  0  3  0  0  0  0  0  0  0  0  0
    8.8683   14.5241    0.0000 C   0  0  0  0  0  0  0  0  0  0  0  0
    8.2805   13.7151    0.0000 C   0  0  3  0  0  0  0  0  0  0  0  0
    6.3212   15.0283    0.0000 C   0  0  3  0  0  0  0  0  0  0  0  0
    6.3212   14.0200    0.0000 C   0  0  0  0  0  0  0  0  0  0  0  0
    9.6773   15.1119    0.0000 C   0  0  0  0  0  0  0  0  0  0  0  0
    9.6773   13.9363    0.0000 C   0  0  0  0  0  0  0  0  0  0  0  0
    8.5895   12.7640    0.0000 C   0  0  0  0  0  0  0  0  0  0  0  0
    4.6491   15.4800    0.0000 C   0  0  0  0  0  0  0  0  0  0  0  0
    3.9434   16.1885    0.0000 C   0  0  0  0  0  0  0  0  0  0  0  0
    2.2713   16.6403    0.0000 C   0  0  0  0  0  0  0  0  0  0  0  0
    1.3048   16.3834    0.0000 C   0  0  0  0  0  0  0  0  0  0  0  0
    6.0785    6.3100    0.0000 C   0  0  0  0  0  0  0  0  0  0  0  0
    6.9445    7.8100    0.0000 C   0  0  0  0  0  0  0  0  0  0  0  0
    5.2125    7.8100    0.0000 C   0  0  0  0  0  0  0  0  0  0  0  0
    0.5992   17.0920    0.0000 C   0  0  0  0  0  0  0  0  0  0  0  0
    5.2125    5.8100    0.0000 C   0  0  0  0  0  0  0  0  0  0  0  0
    5.2125    8.8100    0.0000 C   0  0  0  0  0  0  0  0  0  0  0  0
    6.9445    8.8100    0.0000 C   0  0  0  0  0  0  0  0  0  0  0  0
    4.3464    4.3100    0.0000 C   0  0  0  0  0  0  0  0  0  0  0  0
    4.3464    3.3100    0.0000 C   0  0  0  0  0  0  0  0  0  0  0  0
    3.4804    2.8100    0.0000 C   0  0  0  0  0  0  0  0  0  0  0  0
    5.2125    2.8100    0.0000 C   0  0  0  0  0  0  0  0  0  0  0  0
    3.4804    1.8100    0.0000 C   0  0  0  0  0  0  0  0  0  0  0  0
    5.2125    1.8100    0.0000 C   0  0  0  0  0  0  0  0  0  0  0  0
    4.3464    1.3100    0.0000 C   0  0  0  0  0  0  0  0  0  0  0  0
    7.1982   15.8639    0.0000 H   0  0  0  0  0  0  0  0  0  0  0  0
    7.6795   13.1141    0.0000 H   0  0  0  0  0  0  0  0  0  0  0  0
    5.5356   14.7038    0.0000 H   0  0  0  0  0  0  0  0  0  0  0  0
   10.0417   14.6103    0.0000 H   0  0  0  0  0  0  0  0  0  0  0  0
   10.1789   15.4763    0.0000 H   0  0  0  0  0  0  0  0  0  0  0  0
    9.3129   15.6135    0.0000 H   0  0  0  0  0  0  0  0  0  0  0  0
    9.3129   13.4347    0.0000 H   0  0  0  0  0  0  0  0  0  0  0  0
   10.1789   13.5719    0.0000 H   0  0  0  0  0  0  0  0  0  0  0  0
   10.0417   14.4379    0.0000 H   0  0  0  0  0  0  0  0  0  0  0  0
    5.7772   16.3354    0.0000 H   0  0  0  0  0  0  0  0  0  0  0  0
    8.1120   11.4312    0.0000 H   0  0  0  0  0  0  0  0  0  0  0  0
    4.4520   16.5431    0.0000 H   0  0  0  0  0  0  0  0  0  0  0  0
    3.6826   16.7510    0.0000 H   0  0  0  0  0  0  0  0  0  0  0  0
    2.7799   16.9948    0.0000 H   0  0  0  0  0  0  0  0  0  0  0  0
    2.0104   17.2027    0.0000 H   0  0  0  0  0  0  0  0  0  0  0  0
    1.1432   15.7849    0.0000 H   0  0  0  0  0  0  0  0  0  0  0  0
    6.2905    5.7274    0.0000 H   0  0  0  0  0  0  0  0  0  0  0  0
    6.6891    6.4177    0.0000 H   0  0  0  0  0  0  0  0  0  0  0  0
    4.6019    7.9177    0.0000 H   0  0  0  0  0  0  0  0  0  0  0  0
    5.0004    7.2274    0.0000 H   0  0  0  0  0  0  0  0  0  0  0  0
    7.1566    7.2274    0.0000 H   0  0  0  0  0  0  0  0  0  0  0  0
    7.5551    7.9177    0.0000 H   0  0  0  0  0  0  0  0  0  0  0  0
    0.7609   17.6905    0.0000 H   0  0  0  0  0  0  0  0  0  0  0  0
    0.0000   16.9328    0.0000 H   0  0  0  0  0  0  0  0  0  0  0  0
    5.0004    6.3926    0.0000 H   0  0  0  0  0  0  0  0  0  0  0  0
    4.6019    5.7023    0.0000 H   0  0  0  0  0  0  0  0  0  0  0  0
    5.8325    8.8100    0.0000 H   0  0  0  0  0  0  0  0  0  0  0  0
    5.2125    9.4300    0.0000 H   0  0  0  0  0  0  0  0  0  0  0  0
    4.5925    8.8100    0.0000 H   0  0  0  0  0  0  0  0  0  0  0  0
    7.5645    8.8100    0.0000 H   0  0  0  0  0  0  0  0  0  0  0  0
    6.9445    9.4300    0.0000 H   0  0  0  0  0  0  0  0  0  0  0  0
    6.3245    8.8100    0.0000 H   0  0  0  0  0  0  0  0  0  0  0  0
    5.7494    3.1200    0.0000 H   0  0  0  0  0  0  0  0  0  0  0  0
    2.9435    1.5000    0.0000 H   0  0  0  0  0  0  0  0  0  0  0  0
    5.7494    1.5000    0.0000 H   0  0  0  0  0  0  0  0  0  0  0  0
    4.8834    0.0000    0.0000 H   0  0  0  0  0  0  0  0  0  0  0  0
    3.8095    0.0000    0.0000 H   0  0  0  0  0  0  0  0  0  0  0  0
  1 35  1  0  0  0  0
  2 14  1  0  0  0  0
  2 15  1  0  0  0  0
  3 23  1  0  0  0  0
  3 24  1  0  0  0  0
  4 18  2  0  0  0  0
  5 21  1  0  0  0  0
  5 50  1  0  0  0  0
  6 21  2  0  0  0  0
  7 22  2  0  0  0  0
  8 30  1  0  0  0  0
  8 33  1  0  0  0  0
  9 33  2  0  0  0  0
 10 14  1  0  0  0  0
 10 16  1  0  0  0  0
 10 18  1  0  0  0  0
 11 17  1  0  0  0  0
 11 22  1  0  0  0  0
 11 49  1  0  0  0  0
 12 26  1  0  0  0  0
 12 27  1  0  0  0  0
 12 28  1  0  0  0  0
 13 39  1  0  0  0  0
 13 75  1  0  0  0  0
 13 76  1  0  0  0  0
 14 17  1  0  0  0  0
 14 40  1  0  0  0  0
 15 16  1  0  0  0  0
 15 19  1  0  0  0  0
 15 20  1  0  0  0  0
 16 21  1  0  0  0  0
 16 41  1  0  0  0  0
 17 18  1  0  0  0  0
 17 42  1  0  0  0  0
 19 43  1  0  0  0  0
 19 44  1  0  0  0  0
 19 45  1  0  0  0  0
 20 46  1  0  0  0  0
 20 47  1  0  0  0  0
 20 48  1  0  0  0  0
 22 23  1  0  0  0  0
 23 51  1  0  0  0  0
 23 52  1  0  0  0  0
 24 25  1  0  0  0  0
 24 53  1  0  0  0  0
 24 54  1  0  0  0  0
 25 29  2  0  0  0  0
 25 55  1  0  0  0  0
 26 30  1  0  0  0  0
 26 56  1  0  0  0  0
 26 57  1  0  0  0  0
 27 32  1  0  0  0  0
 27 60  1  0  0  0  0
 27 61  1  0  0  0  0
 28 31  1  0  0  0  0
 28 58  1  0  0  0  0
 28 59  1  0  0  0  0
 29 62  1  0  0  0  0
 29 63  1  0  0  0  0
 30 64  1  0  0  0  0
 30 65  1  0  0  0  0
 31 66  1  0  0  0  0
 31 67  1  0  0  0  0
 31 68  1  0  0  0  0
 32 69  1  0  0  0  0
 32 70  1  0  0  0  0
 32 71  1  0  0  0  0
 33 34  1  0  0  0  0
 34 35  2  0  0  0  0
 34 36  1  0  0  0  0
 35 37  1  0  0  0  0
 36 38  2  0  0  0  0
 36 72  1  0  0  0  0
 37 39  2  0  0  0  0
 37 73  1  0  0  0  0
 38 39  1  0  0  0  0
 38 74  1  0  0  0  0
M  END
> <PUBCHEM_COMPOUND_CID>
11329

> <PUBCHEM_COMPOUND_CANONICALIZED>
1

> <PUBCHEM_CACTVS_COMPLEXITY>
754

> <PUBCHEM_CACTVS_HBOND_ACCEPTOR>
10

> <PUBCHEM_CACTVS_HBOND_DONOR>
3

> <PUBCHEM_CACTVS_ROTATABLE_BOND>
13

> <PUBCHEM_CACTVS_SUBSKEYS>
AAADcfB7uABkAAAAAAAAAAAAAABYAWAAAAAwAAAABYAAAAABAAAAHgYQCAAADCrl2CayyIPABgiIAiXSWACCAABkBxAIiIGIbsgKZjqht7mXcQBk1gG47YeY2SGeCAAAAAIBAAAQAAAABAIAAAAAAAAAAA==

> <PUBCHEM_IUPAC_OPENEYE_NAME>
6-[(2-allylsulfanylacetyl)amino]-3,3-dimethyl-7-oxo-4-thia-1-azabicyclo[3.2.0]heptane-2-carboxylic acid; 2-(diethylamino)ethyl 4-amino-2-chloro-benzoate

> <PUBCHEM_IUPAC_CAS_NAME>
4-amino-2-chlorobenzoic acid 2-(diethylamino)ethyl ester; 3,3-dimethyl-7-oxo-6-[[1-oxo-2-(prop-2-enylthio)ethyl]amino]-4-thia-1-azabicyclo[3.2.0]heptane-2-carboxylic acid

> <PUBCHEM_IUPAC_NAME>
2-(diethylamino)ethyl 4-amino-2-chlorobenzoate; 3,3-dimethyl-7-oxo-6-[(2-prop-2-enylsulfanylacetyl)amino]-4-thia-1-azabicyclo[3.2.0]heptane-2-carboxylic acid

> <PUBCHEM_IUPAC_SYSTEMATIC_NAME>
2-(diethylamino)ethyl 4-azanyl-2-chloranyl-benzoate; 3,3-dimethyl-7-oxidanylidene-6-(2-prop-2-enylsulfanylethanoylamino)-4-thia-1-azabicyclo[3.2.0]heptane-2-carboxylic acid

> <PUBCHEM_IUPAC_TRADITIONAL_NAME>
6-[[2-(allylthio)acetyl]amino]-7-keto-3,3-dimethyl-4-thia-1-azabicyclo[3.2.0]heptane-2-carboxylic acid; 4-amino-2-chloro-benzoic acid 2-(diethylamino)ethyl ester

> <PUBCHEM_IUPAC_INCHI>
InChI=1S/C13H19ClN2O2.C13H18N2O4S2/c1-3-16(4-2)7-8-18-13(17)11-6-5-10(15)9-12(11)14;1-4-5-20-6-7(16)14-8-10(17)15-9(12(18)19)13(2,3)21-11(8)15/h5-6,9H,3-4,7-8,15H2,1-2H3;4,8-9,11H,1,5-6H2,2-3H3,(H,14,16)(H,18,19)

> <PUBCHEM_IUPAC_INCHIKEY>
QTSRNJOUSLIETA-UHFFFAOYSA-N

> <PUBCHEM_EXACT_MASS>
600.184305

> <PUBCHEM_MOLECULAR_FORMULA>
C26H37ClN4O6S2

> <PUBCHEM_MOLECULAR_WEIGHT>
601.17818

> <PUBCHEM_OPENEYE_CAN_SMILES>
CCN(CC)CCOC(=O)C1=C(C=C(C=C1)N)Cl.CC1(C(N2C(S1)C(C2=O)NC(=O)CSCC=C)C(=O)O)C

> <PUBCHEM_OPENEYE_ISO_SMILES>
CCN(CC)CCOC(=O)C1=C(C=C(C=C1)N)Cl.CC1(C(N2C(S1)C(C2=O)NC(=O)CSCC=C)C(=O)O)C

> <PUBCHEM_CACTVS_TPSA>
193

> <PUBCHEM_MONOISOTOPIC_WEIGHT>
600.184305

> <PUBCHEM_TOTAL_CHARGE>
0

> <PUBCHEM_HEAVY_ATOM_COUNT>
39

> <PUBCHEM_ATOM_DEF_STEREO_COUNT>
0

> <PUBCHEM_ATOM_UDEF_STEREO_COUNT>
3

> <PUBCHEM_BOND_DEF_STEREO_COUNT>
0

> <PUBCHEM_BOND_UDEF_STEREO_COUNT>
0

> <PUBCHEM_ISOTOPIC_ATOM_COUNT>
0

> <PUBCHEM_COMPONENT_COUNT>
2

> <PUBCHEM_CACTVS_TAUTO_COUNT>
12

> <PUBCHEM_COORDINATE_TYPE>
1
5
255

> <PUBCHEM_BONDANNOTATIONS>
14  40  3
16  41  3
17  42  3
34  35  8
34  36  8
35  37  8
36  38  8
37  39  8
38  39  8

$$$$

