10309
  -OEChem-06261204272D

 32 34  0     0  0  0  0  0  0999 V2000
    6.1237   -1.9196    0.0000 O   0  0  0  0  0  0  0  0  0  0  0  0
    7.1513    2.6627    0.0000 O   0  0  0  0  0  0  0  0  0  0  0  0
    2.6691    1.2615    0.0000 O   0  0  0  0  0  0  0  0  0  0  0  0
    6.1808    0.1682    0.0000 N   0  0  0  0  0  0  0  0  0  0  0  0
    4.4487    0.1682    0.0000 N   0  0  0  0  0  0  0  0  0  0  0  0
    5.3147   -0.3318    0.0000 C   0  0  0  0  0  0  0  0  0  0  0  0
    5.3147   -1.3318    0.0000 C   0  0  0  0  0  0  0  0  0  0  0  0
    4.5057   -1.9196    0.0000 C   0  0  0  0  0  0  0  0  0  0  0  0
    4.8147   -2.8706    0.0000 C   0  0  0  0  0  0  0  0  0  0  0  0
    6.1808    1.1682    0.0000 C   0  0  0  0  0  0  0  0  0  0  0  0
    4.4487    1.1682    0.0000 C   0  0  0  0  0  0  0  0  0  0  0  0
    5.8147   -2.8706    0.0000 C   0  0  0  0  0  0  0  0  0  0  0  0
    7.0468    1.6682    0.0000 C   0  0  0  0  0  0  0  0  0  0  0  0
    3.5827    1.6682    0.0000 C   0  0  0  0  0  0  0  0  0  0  0  0
    7.9603    1.2615    0.0000 C   0  0  0  0  0  0  0  0  0  0  0  0
    3.4782    2.6627    0.0000 C   0  0  0  0  0  0  0  0  0  0  0  0
    8.6294    2.0046    0.0000 C   0  0  0  0  0  0  0  0  0  0  0  0
    2.5000    2.8706    0.0000 C   0  0  0  0  0  0  0  0  0  0  0  0
    8.1294    2.8706    0.0000 C   0  0  0  0  0  0  0  0  0  0  0  0
    2.0000    2.0046    0.0000 C   0  0  0  0  0  0  0  0  0  0  0  0
    5.3147    0.2882    0.0000 H   0  0  0  0  0  0  0  0  0  0  0  0
    3.9160   -1.7280    0.0000 H   0  0  0  0  0  0  0  0  0  0  0  0
    4.4503   -3.3722    0.0000 H   0  0  0  0  0  0  0  0  0  0  0  0
    5.6438    1.4782    0.0000 H   0  0  0  0  0  0  0  0  0  0  0  0
    4.9856    1.4782    0.0000 H   0  0  0  0  0  0  0  0  0  0  0  0
    6.1792   -3.3722    0.0000 H   0  0  0  0  0  0  0  0  0  0  0  0
    8.0892    0.6550    0.0000 H   0  0  0  0  0  0  0  0  0  0  0  0
    3.9389    3.0776    0.0000 H   0  0  0  0  0  0  0  0  0  0  0  0
    9.2461    1.9398    0.0000 H   0  0  0  0  0  0  0  0  0  0  0  0
    2.2478    3.4370    0.0000 H   0  0  0  0  0  0  0  0  0  0  0  0
    8.3816    3.4370    0.0000 H   0  0  0  0  0  0  0  0  0  0  0  0
    1.3834    1.9398    0.0000 H   0  0  0  0  0  0  0  0  0  0  0  0
  1  7  1  0  0  0  0
  1 12  1  0  0  0  0
  2 13  1  0  0  0  0
  2 19  1  0  0  0  0
  3 14  1  0  0  0  0
  3 20  1  0  0  0  0
  4  6  1  0  0  0  0
  4 10  2  3  0  0  0
  5  6  1  0  0  0  0
  5 11  2  3  0  0  0
  6  7  1  0  0  0  0
  6 21  1  0  0  0  0
  7  8  2  0  0  0  0
  8  9  1  0  0  0  0
  8 22  1  0  0  0  0
  9 12  2  0  0  0  0
  9 23  1  0  0  0  0
 10 13  1  0  0  0  0
 10 24  1  0  0  0  0
 11 14  1  0  0  0  0
 11 25  1  0  0  0  0
 12 26  1  0  0  0  0
 13 15  2  0  0  0  0
 14 16  2  0  0  0  0
 15 17  1  0  0  0  0
 15 27  1  0  0  0  0
 16 18  1  0  0  0  0
 16 28  1  0  0  0  0
 17 19  2  0  0  0  0
 17 29  1  0  0  0  0
 18 20  2  0  0  0  0
 18 30  1  0  0  0  0
 19 31  1  0  0  0  0
 20 32  1  0  0  0  0
M  END
> <PUBCHEM_COMPOUND_CID>
10309

> <PUBCHEM_COMPOUND_CANONICALIZED>
1

> <PUBCHEM_CACTVS_COMPLEXITY>
333

> <PUBCHEM_CACTVS_HBOND_ACCEPTOR>
5

> <PUBCHEM_CACTVS_HBOND_DONOR>
0

> <PUBCHEM_CACTVS_ROTATABLE_BOND>
5

> <PUBCHEM_CACTVS_SUBSKEYS>
AAADccBzMAAAAAAAAAAAAAAAAAAAASJEgAAAAAAAAAAAAAAB+AAAHgAAAAAACAThkAYxBIIABECoALhzhASCCAAkIAAIiAGmDNgOJrKEtRuDGSDkwBEIqYaYEQAAAAAAAAAAAAAAAAAAAAAAAAAAAAAAAA==

> <PUBCHEM_IUPAC_OPENEYE_NAME>
1-(2-furyl)-N-[2-furyl-(2-furylmethyleneamino)methyl]methanimine

> <PUBCHEM_IUPAC_CAS_NAME>
1-(2-furanyl)-N-[2-furanyl-(2-furanylmethylideneamino)methyl]methanimine

> <PUBCHEM_IUPAC_NAME>
1-(furan-2-yl)-N-[furan-2-yl-(furan-2-ylmethylideneamino)methyl]methanimine

> <PUBCHEM_IUPAC_SYSTEMATIC_NAME>
1-(furan-2-yl)-N-[furan-2-yl-(furan-2-ylmethylideneamino)methyl]methanimine

> <PUBCHEM_IUPAC_TRADITIONAL_NAME>
2-furfurylidene-[(2-furfurylideneamino)-(2-furyl)methyl]amine

> <PUBCHEM_IUPAC_INCHI>
InChI=1S/C15H12N2O3/c1-4-12(18-7-1)10-16-15(14-6-3-9-20-14)17-11-13-5-2-8-19-13/h1-11,15H

> <PUBCHEM_IUPAC_INCHIKEY>
CYGDSXFTXXFMNI-UHFFFAOYSA-N

> <PUBCHEM_XLOGP3_AA>
2.6

> <PUBCHEM_EXACT_MASS>
268.084792

> <PUBCHEM_MOLECULAR_FORMULA>
C15H12N2O3

> <PUBCHEM_MOLECULAR_WEIGHT>
268.26738

> <PUBCHEM_OPENEYE_CAN_SMILES>
C1=COC(=C1)C=NC(C2=CC=CO2)N=CC3=CC=CO3

> <PUBCHEM_OPENEYE_ISO_SMILES>
C1=COC(=C1)C=NC(C2=CC=CO2)N=CC3=CC=CO3

> <PUBCHEM_CACTVS_TPSA>
64.1

> <PUBCHEM_MONOISOTOPIC_WEIGHT>
268.084792

> <PUBCHEM_TOTAL_CHARGE>
0

> <PUBCHEM_HEAVY_ATOM_COUNT>
20

> <PUBCHEM_ATOM_DEF_STEREO_COUNT>
0

> <PUBCHEM_ATOM_UDEF_STEREO_COUNT>
0

> <PUBCHEM_BOND_DEF_STEREO_COUNT>
0

> <PUBCHEM_BOND_UDEF_STEREO_COUNT>
2

> <PUBCHEM_ISOTOPIC_ATOM_COUNT>
0

> <PUBCHEM_COMPONENT_COUNT>
1

> <PUBCHEM_CACTVS_TAUTO_COUNT>
1

> <PUBCHEM_COORDINATE_TYPE>
1
5
255

> <PUBCHEM_BONDANNOTATIONS>
1  12  8
1  7  8
13  15  8
14  16  8
15  17  8
16  18  8
17  19  8
18  20  8
2  13  8
2  19  8
3  14  8
3  20  8
4  10  1
5  11  1
7  8  8
8  9  8
9  12  8

$$$$

