11934
  -OEChem-06261206183D

 28 30  0     0  0  0  0  0  0999 V2000
   -1.7490   -0.5635   -0.0002 C   0  0  0  0  0  0  0  0  0  0  0  0
    0.5251    0.3005    0.0001 C   0  0  0  0  0  0  0  0  0  0  0  0
   -2.2452    0.7619    0.0001 C   0  0  0  0  0  0  0  0  0  0  0  0
   -0.3609   -0.7772   -0.0002 C   0  0  0  0  0  0  0  0  0  0  0  0
    1.9524    0.0631    0.0002 C   0  0  0  0  0  0  0  0  0  0  0  0
    0.0372    1.6039    0.0003 C   0  0  0  0  0  0  0  0  0  0  0  0
   -1.3388    1.8346    0.0004 C   0  0  0  0  0  0  0  0  0  0  0  0
   -2.6555   -1.6362   -0.0003 C   0  0  0  0  0  0  0  0  0  0  0  0
   -3.6333    0.9756    0.0002 C   0  0  0  0  0  0  0  0  0  0  0  0
    2.6405   -0.0505   -1.2079 C   0  0  0  0  0  0  0  0  0  0  0  0
    2.6406   -0.0516    1.2082 C   0  0  0  0  0  0  0  0  0  0  0  0
   -4.0314   -1.4055   -0.0002 C   0  0  0  0  0  0  0  0  0  0  0  0
   -4.5194   -0.1021   -0.0001 C   0  0  0  0  0  0  0  0  0  0  0  0
    4.0165   -0.2790   -1.2081 C   0  0  0  0  0  0  0  0  0  0  0  0
    4.0166   -0.2801    1.2078 C   0  0  0  0  0  0  0  0  0  0  0  0
    4.7046   -0.3938   -0.0003 C   0  0  0  0  0  0  0  0  0  0  0  0
    0.0266   -1.7955   -0.0004 H   0  0  0  0  0  0  0  0  0  0  0  0
    0.7143    2.4549    0.0006 H   0  0  0  0  0  0  0  0  0  0  0  0
   -1.6979    2.8617    0.0007 H   0  0  0  0  0  0  0  0  0  0  0  0
   -2.2967   -2.6634   -0.0004 H   0  0  0  0  0  0  0  0  0  0  0  0
   -4.0371    1.9859    0.0005 H   0  0  0  0  0  0  0  0  0  0  0  0
    2.1195    0.0364   -2.1586 H   0  0  0  0  0  0  0  0  0  0  0  0
    2.1197    0.0344    2.1590 H   0  0  0  0  0  0  0  0  0  0  0  0
   -4.7218   -2.2439   -0.0003 H   0  0  0  0  0  0  0  0  0  0  0  0
   -5.5907    0.0768    0.0000 H   0  0  0  0  0  0  0  0  0  0  0  0
    4.5523   -0.3676   -2.1486 H   0  0  0  0  0  0  0  0  0  0  0  0
    4.5526   -0.3695    2.1482 H   0  0  0  0  0  0  0  0  0  0  0  0
    5.7759   -0.5717   -0.0004 H   0  0  0  0  0  0  0  0  0  0  0  0
  1  3  1  0  0  0  0
  1  4  1  0  0  0  0
  1  8  2  0  0  0  0
  2  4  2  0  0  0  0
  2  5  1  0  0  0  0
  2  6  1  0  0  0  0
  3  7  1  0  0  0  0
  3  9  2  0  0  0  0
  4 17  1  0  0  0  0
  5 10  2  0  0  0  0
  5 11  1  0  0  0  0
  6  7  2  0  0  0  0
  6 18  1  0  0  0  0
  7 19  1  0  0  0  0
  8 12  1  0  0  0  0
  8 20  1  0  0  0  0
  9 13  1  0  0  0  0
  9 21  1  0  0  0  0
 10 14  1  0  0  0  0
 10 22  1  0  0  0  0
 11 15  2  0  0  0  0
 11 23  1  0  0  0  0
 12 13  2  0  0  0  0
 12 24  1  0  0  0  0
 13 25  1  0  0  0  0
 14 16  2  0  0  0  0
 14 26  1  0  0  0  0
 15 16  1  0  0  0  0
 15 27  1  0  0  0  0
 16 28  1  0  0  0  0
M  END
> <PUBCHEM_COMPOUND_CID>
11934

> <PUBCHEM_CONFORMER_RMSD>
0.6

> <PUBCHEM_CONFORMER_DIVERSEORDER>
1
2

> <PUBCHEM_MMFF94_PARTIAL_CHARGES>
24
10 -0.15
11 -0.15
12 -0.15
13 -0.15
14 -0.15
15 -0.15
16 -0.15
17 0.15
18 0.15
19 0.15
20 0.15
21 0.15
22 0.15
23 0.15
24 0.15
25 0.15
26 0.15
27 0.15
28 0.15
4 -0.15
6 -0.15
7 -0.15
8 -0.15
9 -0.15

> <PUBCHEM_EFFECTIVE_ROTOR_COUNT>
1

> <PUBCHEM_PHARMACOPHORE_FEATURES>
3
6 1 2 3 4 6 7 rings
6 1 3 8 9 12 13 rings
6 5 10 11 14 15 16 rings

> <PUBCHEM_HEAVY_ATOM_COUNT>
16

> <PUBCHEM_ATOM_DEF_STEREO_COUNT>
0

> <PUBCHEM_ATOM_UDEF_STEREO_COUNT>
0

> <PUBCHEM_BOND_DEF_STEREO_COUNT>
0

> <PUBCHEM_BOND_UDEF_STEREO_COUNT>
0

> <PUBCHEM_ISOTOPIC_ATOM_COUNT>
0

> <PUBCHEM_COMPONENT_COUNT>
1

> <PUBCHEM_CACTVS_TAUTO_COUNT>
1

> <PUBCHEM_CONFORMER_ID>
00002E9E00000001

> <PUBCHEM_MMFF94_ENERGY>
53.5764

> <PUBCHEM_FEATURE_SELFOVERLAP>
15.249

> <PUBCHEM_SHAPE_FINGERPRINT>
10062212 137 18273216387388055795
11046707 91 18412545397005483315
11132069 177 18335420179576413237
11543360 7 15769493123640555603
12032990 46 18334853892428095709
12236239 1 17775566459747276902
12403814 3 5256407184741677787
13103583 49 17698401552953005715
13140716 1 18337951174055835889
13288520 33 18410009948698021534
13296908 3 18040434382318892278
13581323 91 18412268358756389160
13675066 3 17748547026187693761
13760787 19 17561083613994077507
13760787 5 17489868237061906287
13862211 1 18410859828875312535
14115302 16 17775280530462420322
14252887 29 17385719205966240382
14289901 80 16298392357042503587
14386348 63 17894909637663906886
15219456 202 17530686519753572800
15375358 24 17967816063030983711
15536298 74 18336828572109233616
15848700 24 18261397719446747069
16752209 62 18271537458791358963
16945 1 18410575119466182273
17804303 29 18335702715552620369
18175812 5 17749109976083183876
18186145 218 17560805385569368527
19026448 4 17167861984580727185
19026448 5 17203610406134608277
19141452 34 17676768682850778487
19862831 5 17632293471465719270
200 152 16702305667499473692
20028762 73 17970626282389503959
20279233 1 17821445763821981574
20510252 161 18115026423642101065
21029758 27 18130781236073691325
21065201 7 18335702788424620034
21267235 1 18412536592481119907
22646028 1 17917714608303914754
22646028 28 18131354115664323498
22854114 59 16805324387931041778
2297311 6 18261663840094768044
23175994 123 17167578289274782057
23366157 5 17914335671401444277
23402539 116 18410581694654736039
23557571 272 18187359982577656396
23559900 14 18261669389498437294
26918003 58 16588023515398258954
2748010 2 18194409896653114525
43471831 8 18341898557642984283
474 4 17058636371261885700
5104073 3 18337668603793854505
573450 72 18201446912224299904
69090 78 17095530582030120799
7364860 26 18118400640186622256
77492 1 17704069625097703940

> <PUBCHEM_SHAPE_MULTIPOLES>
329.27
9.33
1.46
0.98
2.16
0.24
0
-2.28
0
-1.48
0
1.21
-0.06
0

> <PUBCHEM_SHAPE_SELFOVERLAP>
737.235

> <PUBCHEM_SHAPE_VOLUME>
159.8

> <PUBCHEM_COORDINATE_TYPE>
2
5
10

$$$$

