11547
  -OEChem-06261205483D

 34 33  0     1  0  0  0  0  0999 V2000
   -1.6282   -0.4932   -0.3020 P   0  0  1  0  0  0  0  0  0  0  0  0
    1.2476    0.0764   -0.7870 P   0  0  0  0  0  0  0  0  0  0  0  0
   -0.1726    0.1745   -0.0171 O   0  0  0  0  0  0  0  0  0  0  0  0
   -2.0699    0.2378   -1.6881 O   0  0  0  0  0  0  0  0  0  0  0  0
    2.0954    1.0493    0.1955 O   0  0  0  0  0  0  0  0  0  0  0  0
    1.7444   -1.3458   -0.1857 O   0  0  0  0  0  0  0  0  0  0  0  0
   -1.5339   -1.9883   -0.4771 O   0  0  0  0  0  0  0  0  0  0  0  0
   -2.6522    0.0412    0.9015 N   0  0  0  0  0  0  0  0  0  0  0  0
   -2.2124   -0.1659    2.2835 C   0  0  0  0  0  0  0  0  0  0  0  0
   -4.0647   -0.3289    0.7897 C   0  0  0  0  0  0  0  0  0  0  0  0
    1.9340    2.4455   -0.0118 C   0  0  0  0  0  0  0  0  0  0  0  0
    3.1415   -1.5944   -0.2473 C   0  0  0  0  0  0  0  0  0  0  0  0
   -2.0482    1.6522   -1.7917 C   0  0  0  0  0  0  0  0  0  0  0  0
    2.7919    3.1945    0.9855 C   0  0  0  0  0  0  0  0  0  0  0  0
    3.4273   -2.9548    0.3520 C   0  0  0  0  0  0  0  0  0  0  0  0
   -1.2046    0.2371    2.4252 H   0  0  0  0  0  0  0  0  0  0  0  0
   -2.1913   -1.2311    2.5367 H   0  0  0  0  0  0  0  0  0  0  0  0
   -2.8633    0.3565    2.9927 H   0  0  0  0  0  0  0  0  0  0  0  0
   -4.4409   -0.0754   -0.2067 H   0  0  0  0  0  0  0  0  0  0  0  0
   -4.6799    0.2195    1.5111 H   0  0  0  0  0  0  0  0  0  0  0  0
   -4.2071   -1.4039    0.9422 H   0  0  0  0  0  0  0  0  0  0  0  0
    2.2449    2.7176   -1.0284 H   0  0  0  0  0  0  0  0  0  0  0  0
    0.8856    2.7376    0.1294 H   0  0  0  0  0  0  0  0  0  0  0  0
    3.4850   -1.5828   -1.2896 H   0  0  0  0  0  0  0  0  0  0  0  0
    3.7045   -0.8439    0.3210 H   0  0  0  0  0  0  0  0  0  0  0  0
   -2.7691    1.9552   -2.5552 H   0  0  0  0  0  0  0  0  0  0  0  0
   -2.3194    2.1236   -0.8440 H   0  0  0  0  0  0  0  0  0  0  0  0
   -1.0530    1.9832   -2.0969 H   0  0  0  0  0  0  0  0  0  0  0  0
    2.6931    4.2756    0.8528 H   0  0  0  0  0  0  0  0  0  0  0  0
    2.5053    2.9369    2.0105 H   0  0  0  0  0  0  0  0  0  0  0  0
    3.8456    2.9194    0.8712 H   0  0  0  0  0  0  0  0  0  0  0  0
    4.4967   -3.1812    0.3174 H   0  0  0  0  0  0  0  0  0  0  0  0
    3.0912   -2.9959    1.3934 H   0  0  0  0  0  0  0  0  0  0  0  0
    2.8835   -3.7365   -0.1888 H   0  0  0  0  0  0  0  0  0  0  0  0
  1  3  1  0  0  0  0
  1  4  1  0  0  0  0
  1  7  2  0  0  0  0
  1  8  1  0  0  0  0
  2  3  1  0  0  0  0
  2  5  1  0  0  0  0
  2  6  1  0  0  0  0
  4 13  1  0  0  0  0
  5 11  1  0  0  0  0
  6 12  1  0  0  0  0
  8  9  1  0  0  0  0
  8 10  1  0  0  0  0
  9 16  1  0  0  0  0
  9 17  1  0  0  0  0
  9 18  1  0  0  0  0
 10 19  1  0  0  0  0
 10 20  1  0  0  0  0
 10 21  1  0  0  0  0
 11 14  1  0  0  0  0
 11 22  1  0  0  0  0
 11 23  1  0  0  0  0
 12 15  1  0  0  0  0
 12 24  1  0  0  0  0
 12 25  1  0  0  0  0
 13 26  1  0  0  0  0
 13 27  1  0  0  0  0
 13 28  1  0  0  0  0
 14 29  1  0  0  0  0
 14 30  1  0  0  0  0
 14 31  1  0  0  0  0
 15 32  1  0  0  0  0
 15 33  1  0  0  0  0
 15 34  1  0  0  0  0
M  END
> <PUBCHEM_COMPOUND_CID>
11547

> <PUBCHEM_CONFORMER_RMSD>
0.8

> <PUBCHEM_CONFORMER_DIVERSEORDER>
1
63
47
101
93
116
104
71
3
109
111
15
68
85
86
95
18
16
82
98
48
84
67
119
77
87
52
27
105
28
61
56
92
118
72
78
107
19
62
42
55
10
43
66
2
103
23
114
110
83
5
53
117
80
46
30
74
97
49
96
99
106
65
25
79
76
112
17
4
38
40
45
100
7
113
60
90
108
8
13
6
69
57
24
21
88
12
81
102
20
64
58
70
29
11
39
9
115
94
91
34
26
50
73
33
44
14
35
32
89
75
22
51
31
59
36
37
54
41

> <PUBCHEM_MMFF94_PARTIAL_CHARGES>
13
1 1.51
10 0.27
11 0.28
12 0.28
13 0.28
2 0.3
3 -0.37
4 -0.55
5 -0.38
6 -0.38
7 -0.7
8 -0.81
9 0.27

> <PUBCHEM_EFFECTIVE_ROTOR_COUNT>
8

> <PUBCHEM_PHARMACOPHORE_FEATURES>
1
1 7 acceptor

> <PUBCHEM_HEAVY_ATOM_COUNT>
15

> <PUBCHEM_ATOM_DEF_STEREO_COUNT>
0

> <PUBCHEM_ATOM_UDEF_STEREO_COUNT>
1

> <PUBCHEM_BOND_DEF_STEREO_COUNT>
0

> <PUBCHEM_BOND_UDEF_STEREO_COUNT>
0

> <PUBCHEM_ISOTOPIC_ATOM_COUNT>
0

> <PUBCHEM_COMPONENT_COUNT>
1

> <PUBCHEM_CACTVS_TAUTO_COUNT>
1

> <PUBCHEM_CONFORMER_ID>
00002D1B00000001

> <PUBCHEM_MMFF94_ENERGY>
9.7615

> <PUBCHEM_FEATURE_SELFOVERLAP>
5.074

> <PUBCHEM_SHAPE_FINGERPRINT>
12553582 1 18190460652829084878
12932764 1 18412539890599064366
15295992 7 18268432506864361701
17357990 137 17314204787393380152
17841504 4 18339915017248947504
19049666 15 18059300966732956428
20671657 1 18261944159740963722
21061003 4 18267856362317466326
21524375 3 17755588144539927684
23526113 38 18055653938350846222
23557571 272 17560802074613936737
2748010 2 18059307525132219765
31174 14 18412255129977542607
3286 77 18341038705590627851
45790113 53 18341048613858698775
458136 41 18197201556607524572
6049 1 18131072657661812365
633830 44 17751915822942911092
7364860 26 18334853888344124982
7615 1 17385734577311353365
81228 2 17561371690441362021

> <PUBCHEM_SHAPE_MULTIPOLES>
282.06
6.37
3.19
1.61
0.79
1.04
-0.22
-1.74
-1.56
-5
-0.49
1.62
0.51
1.11

> <PUBCHEM_SHAPE_SELFOVERLAP>
490.084

> <PUBCHEM_SHAPE_VOLUME>
188.5

> <PUBCHEM_COORDINATE_TYPE>
2
5
10

$$$$

