10737
  -OEChem-06261204543D

 32 33  0     0  0  0  0  0  0999 V2000
   -1.4173    2.4292   -0.0052 O   0  0  0  0  0  0  0  0  0  0  0  0
    4.1785   -0.5071    0.0009 N   0  0  0  0  0  0  0  0  0  0  0  0
    2.8340   -0.0811   -0.0001 C   0  0  0  0  0  0  0  0  0  0  0  0
    0.2134    0.7524   -0.0016 C   0  0  0  0  0  0  0  0  0  0  0  0
    2.1689    0.1272   -1.2084 C   0  0  0  0  0  0  0  0  0  0  0  0
    2.1697    0.1334    1.2074 C   0  0  0  0  0  0  0  0  0  0  0  0
    0.8397    0.5501   -1.2092 C   0  0  0  0  0  0  0  0  0  0  0  0
    0.8405    0.5561    1.2068 C   0  0  0  0  0  0  0  0  0  0  0  0
   -1.2102    1.2066   -0.0023 C   0  0  0  0  0  0  0  0  0  0  0  0
   -2.3259    0.2739   -0.0002 C   0  0  0  0  0  0  0  0  0  0  0  0
    4.8783   -0.7313   -1.2484 C   0  0  0  0  0  0  0  0  0  0  0  0
    4.8822   -0.7128    1.2512 C   0  0  0  0  0  0  0  0  0  0  0  0
   -2.0866   -1.1002    0.0027 C   0  0  0  0  0  0  0  0  0  0  0  0
   -3.6356    0.7537   -0.0014 C   0  0  0  0  0  0  0  0  0  0  0  0
   -3.1569   -1.9946    0.0043 C   0  0  0  0  0  0  0  0  0  0  0  0
   -4.7060   -0.1406    0.0004 C   0  0  0  0  0  0  0  0  0  0  0  0
   -4.4666   -1.5149    0.0032 C   0  0  0  0  0  0  0  0  0  0  0  0
    2.6414   -0.0250   -2.1737 H   0  0  0  0  0  0  0  0  0  0  0  0
    2.6424   -0.0143    2.1734 H   0  0  0  0  0  0  0  0  0  0  0  0
    0.3251    0.7119   -2.1515 H   0  0  0  0  0  0  0  0  0  0  0  0
    0.3264    0.7227    2.1485 H   0  0  0  0  0  0  0  0  0  0  0  0
    5.9092   -1.0628   -1.0812 H   0  0  0  0  0  0  0  0  0  0  0  0
    4.9389    0.1897   -1.8389 H   0  0  0  0  0  0  0  0  0  0  0  0
    4.3921   -1.5156   -1.8395 H   0  0  0  0  0  0  0  0  0  0  0  0
    5.9152   -1.0386    1.0856 H   0  0  0  0  0  0  0  0  0  0  0  0
    4.4026   -1.4939    1.8516 H   0  0  0  0  0  0  0  0  0  0  0  0
    4.9377    0.2149    1.8316 H   0  0  0  0  0  0  0  0  0  0  0  0
   -1.0840   -1.5168    0.0037 H   0  0  0  0  0  0  0  0  0  0  0  0
   -3.8494    1.8192   -0.0037 H   0  0  0  0  0  0  0  0  0  0  0  0
   -2.9711   -3.0648    0.0065 H   0  0  0  0  0  0  0  0  0  0  0  0
   -5.7260    0.2326   -0.0006 H   0  0  0  0  0  0  0  0  0  0  0  0
   -5.3000   -2.2113    0.0045 H   0  0  0  0  0  0  0  0  0  0  0  0
  1  9  2  0  0  0  0
  2  3  1  0  0  0  0
  2 11  1  0  0  0  0
  2 12  1  0  0  0  0
  3  5  2  0  0  0  0
  3  6  1  0  0  0  0
  4  7  2  0  0  0  0
  4  8  1  0  0  0  0
  4  9  1  0  0  0  0
  5  7  1  0  0  0  0
  5 18  1  0  0  0  0
  6  8  2  0  0  0  0
  6 19  1  0  0  0  0
  7 20  1  0  0  0  0
  8 21  1  0  0  0  0
  9 10  1  0  0  0  0
 10 13  2  0  0  0  0
 10 14  1  0  0  0  0
 11 22  1  0  0  0  0
 11 23  1  0  0  0  0
 11 24  1  0  0  0  0
 12 25  1  0  0  0  0
 12 26  1  0  0  0  0
 12 27  1  0  0  0  0
 13 15  1  0  0  0  0
 13 28  1  0  0  0  0
 14 16  2  0  0  0  0
 14 29  1  0  0  0  0
 15 17  2  0  0  0  0
 15 30  1  0  0  0  0
 16 17  1  0  0  0  0
 16 31  1  0  0  0  0
 17 32  1  0  0  0  0
M  END
> <PUBCHEM_COMPOUND_CID>
10737

> <PUBCHEM_CONFORMER_RMSD>
0.6

> <PUBCHEM_CONFORMER_DIVERSEORDER>
1

> <PUBCHEM_MMFF94_PARTIAL_CHARGES>
26
1 -0.57
10 0.09
11 0.37
12 0.37
13 -0.15
14 -0.15
15 -0.15
16 -0.15
17 -0.15
18 0.15
19 0.15
2 -0.84
20 0.15
21 0.15
28 0.15
29 0.15
3 0.1
30 0.15
31 0.15
32 0.15
4 0.09
5 -0.15
6 -0.15
7 -0.15
8 -0.15
9 0.4

> <PUBCHEM_EFFECTIVE_ROTOR_COUNT>
3

> <PUBCHEM_PHARMACOPHORE_FEATURES>
4
1 1 acceptor
1 2 cation
6 10 13 14 15 16 17 rings
6 3 4 5 6 7 8 rings

> <PUBCHEM_HEAVY_ATOM_COUNT>
17

> <PUBCHEM_ATOM_DEF_STEREO_COUNT>
0

> <PUBCHEM_ATOM_UDEF_STEREO_COUNT>
0

> <PUBCHEM_BOND_DEF_STEREO_COUNT>
0

> <PUBCHEM_BOND_UDEF_STEREO_COUNT>
0

> <PUBCHEM_ISOTOPIC_ATOM_COUNT>
0

> <PUBCHEM_COMPONENT_COUNT>
1

> <PUBCHEM_CACTVS_TAUTO_COUNT>
1

> <PUBCHEM_CONFORMER_ID>
000029F100000001

> <PUBCHEM_MMFF94_ENERGY>
70.2928

> <PUBCHEM_FEATURE_SELFOVERLAP>
20.297

> <PUBCHEM_SHAPE_FINGERPRINT>
10465860 250 18259706704812300097
11046707 91 18413672400703135747
11128504 68 17489581251958770070
11471102 20 15339115749935916684
11578080 2 17558861466324160661
11796584 16 18409166631801347798
12236239 1 17632294592578855549
12251169 10 16298387937531724989
12507557 5 4678813965610916043
12633257 1 16515960368157586419
12730499 353 13039189225539362217
13288520 33 18410571799065929566
13296908 3 18336550400394526473
13583140 156 18044403697163815936
13675066 3 17240205451921458216
13760787 5 16128369419990242812
14115302 16 18060133202714610023
14252887 29 16443337694009768326
14386348 63 17894345587987939191
14576447 43 17632297848048132042
15653759 3 18113340820829496264
16752209 62 18200609080786541165
17804303 29 18334575720434216585
17834072 33 18130783447992249108
17862501 102 18131356336399656032
18186145 218 15339122299486898829
18785283 64 17533233976842998928
18915474 69 18059855013192831823
19141452 34 17822009770912624143
19862831 5 17418093200205859937
200 152 17203609302243734068
20279233 1 17603581920219260327
20374829 77 18410296895742759003
204376 136 15068627058696865020
20681677 155 18201718466274995201
20871999 31 18202285818443398245
21267235 1 18341604894171157347
22646028 28 18272933799698271843
22854114 59 15863790590796928762
2297311 6 18261099799209149596
231179 274 12031789154278283780
23175994 123 17167860872247644417
232386 152 18340768135541026743
23402539 116 18272093815674523437
23402655 69 14979966869281511879
23557571 272 18041551568012041132
23559900 14 18408888408309929120
26918003 58 16877940529892298499
2916195 48 11239995620627117630
4325135 7 18341615876766361096
5104073 3 18336824195859053329
559249 180 18130796706345418467
573450 72 18200600305704086568
602551 16 18408041814468610122
7364860 26 17975130938346122497
77492 1 17704071806814639177

> <PUBCHEM_SHAPE_MULTIPOLES>
339
10.18
1.59
1.15
2.93
0.1
0
-4.66
0.02
-1.62
0
1.47
-0.02
0.01

> <PUBCHEM_SHAPE_SELFOVERLAP>
727.519

> <PUBCHEM_SHAPE_VOLUME>
187.5

> <PUBCHEM_COORDINATE_TYPE>
2
5
10

$$$$

