3003768
  -OEChem-07051213062D

 36 38  0     0  0  0  0  0  0999 V2000
    6.3301   -1.2500    0.0000 N   0  0  0  0  0  0  0  0  0  0  0  0
    4.5981    2.7500    0.0000 N   0  0  0  0  0  0  0  0  0  0  0  0
    5.4641    0.2500    0.0000 C   0  0  0  0  0  0  0  0  0  0  0  0
    6.3301    0.7500    0.0000 C   0  0  0  0  0  0  0  0  0  0  0  0
    4.5981    0.7500    0.0000 C   0  0  0  0  0  0  0  0  0  0  0  0
    5.4641   -0.7500    0.0000 C   0  0  0  0  0  0  0  0  0  0  0  0
    3.7320    0.2500    0.0000 C   0  0  0  0  0  0  0  0  0  0  0  0
    7.1962    0.2500    0.0000 C   0  0  0  0  0  0  0  0  0  0  0  0
    6.3301    1.7500    0.0000 C   0  0  0  0  0  0  0  0  0  0  0  0
    4.5981   -1.2500    0.0000 C   0  0  0  0  0  0  0  0  0  0  0  0
    2.8660    0.7500    0.0000 C   0  0  0  0  0  0  0  0  0  0  0  0
    3.7320   -0.7500    0.0000 C   0  0  0  0  0  0  0  0  0  0  0  0
    8.0622    0.7500    0.0000 C   0  0  0  0  0  0  0  0  0  0  0  0
    7.1962    2.2500    0.0000 C   0  0  0  0  0  0  0  0  0  0  0  0
    8.0622    1.7500    0.0000 C   0  0  0  0  0  0  0  0  0  0  0  0
    2.0000    0.2500    0.0000 C   0  0  0  0  0  0  0  0  0  0  0  0
    2.8660   -1.2500    0.0000 C   0  0  0  0  0  0  0  0  0  0  0  0
    4.5981   -2.2500    0.0000 C   0  0  0  0  0  0  0  0  0  0  0  0
    2.0000   -0.7500    0.0000 C   0  0  0  0  0  0  0  0  0  0  0  0
    6.3301   -2.2500    0.0000 C   0  0  0  0  0  0  0  0  0  0  0  0
    4.5981    1.7500    0.0000 C   0  0  0  0  0  0  0  0  0  0  0  0
    5.4641   -2.7500    0.0000 C   0  0  0  0  0  0  0  0  0  0  0  0
    7.1962   -0.3700    0.0000 H   0  0  0  0  0  0  0  0  0  0  0  0
    5.7932    2.0600    0.0000 H   0  0  0  0  0  0  0  0  0  0  0  0
    4.0611   -0.9400    0.0000 H   0  0  0  0  0  0  0  0  0  0  0  0
    2.8660    1.3700    0.0000 H   0  0  0  0  0  0  0  0  0  0  0  0
    4.2690   -1.0600    0.0000 H   0  0  0  0  0  0  0  0  0  0  0  0
    8.5991    0.4400    0.0000 H   0  0  0  0  0  0  0  0  0  0  0  0
    7.1962    2.8700    0.0000 H   0  0  0  0  0  0  0  0  0  0  0  0
    8.5991    2.0600    0.0000 H   0  0  0  0  0  0  0  0  0  0  0  0
    1.4631    0.5600    0.0000 H   0  0  0  0  0  0  0  0  0  0  0  0
    2.8660   -1.8700    0.0000 H   0  0  0  0  0  0  0  0  0  0  0  0
    4.0611   -2.5600    0.0000 H   0  0  0  0  0  0  0  0  0  0  0  0
    1.4631   -1.0600    0.0000 H   0  0  0  0  0  0  0  0  0  0  0  0
    6.8671   -2.5600    0.0000 H   0  0  0  0  0  0  0  0  0  0  0  0
    5.4641   -3.3700    0.0000 H   0  0  0  0  0  0  0  0  0  0  0  0
  1  6  1  0  0  0  0
  1 20  2  0  0  0  0
  2 21  3  0  0  0  0
  3  4  1  0  0  0  0
  3  5  2  0  0  0  0
  3  6  1  0  0  0  0
  4  8  2  0  0  0  0
  4  9  1  0  0  0  0
  5  7  1  0  0  0  0
  5 21  1  0  0  0  0
  6 10  2  0  0  0  0
  7 11  2  0  0  0  0
  7 12  1  0  0  0  0
  8 13  1  0  0  0  0
  8 23  1  0  0  0  0
  9 14  2  0  0  0  0
  9 24  1  0  0  0  0
 10 18  1  0  0  0  0
 10 25  1  0  0  0  0
 11 16  1  0  0  0  0
 11 26  1  0  0  0  0
 12 17  2  0  0  0  0
 12 27  1  0  0  0  0
 13 15  2  0  0  0  0
 13 28  1  0  0  0  0
 14 15  1  0  0  0  0
 14 29  1  0  0  0  0
 15 30  1  0  0  0  0
 16 19  2  0  0  0  0
 16 31  1  0  0  0  0
 17 19  1  0  0  0  0
 17 32  1  0  0  0  0
 18 22  2  0  0  0  0
 18 33  1  0  0  0  0
 19 34  1  0  0  0  0
 20 22  1  0  0  0  0
 20 35  1  0  0  0  0
 22 36  1  0  0  0  0
M  END
> <PUBCHEM_COMPOUND_CID>
3003768

> <PUBCHEM_COMPOUND_CANONICALIZED>
1

> <PUBCHEM_CACTVS_COMPLEXITY>
430

> <PUBCHEM_CACTVS_HBOND_ACCEPTOR>
2

> <PUBCHEM_CACTVS_HBOND_DONOR>
0

> <PUBCHEM_CACTVS_ROTATABLE_BOND>
3

> <PUBCHEM_CACTVS_SUBSKEYS>
AAADccB7AAAAAAAAAAAAAAAAAAAAAAAAAAA8YIAAAAAAAAAB0AAAHAAAAAAADAjBHgQ8gJIIEACwBzRnRACigCAxAiAI2CA4ZJgIoOLAkZGEIAhggADIyA8QgMAOAAAAAAAAAAAAAAAAAAAAAAAAAAAAAA==

> <PUBCHEM_IUPAC_OPENEYE_NAME>
(E)-2,3-diphenyl-3-(2-pyridyl)prop-2-enenitrile

> <PUBCHEM_IUPAC_CAS_NAME>
(E)-2,3-diphenyl-3-(2-pyridinyl)-2-propenenitrile

> <PUBCHEM_IUPAC_NAME>
(E)-2,3-diphenyl-3-pyridin-2-ylprop-2-enenitrile

> <PUBCHEM_IUPAC_SYSTEMATIC_NAME>
(E)-2,3-diphenyl-3-pyridin-2-yl-prop-2-enenitrile

> <PUBCHEM_IUPAC_TRADITIONAL_NAME>
(E)-2,3-diphenyl-3-(2-pyridyl)acrylonitrile

> <PUBCHEM_IUPAC_INCHI>
InChI=1S/C20H14N2/c21-15-18(16-9-3-1-4-10-16)20(17-11-5-2-6-12-17)19-13-7-8-14-22-19/h1-14H/b20-18-

> <PUBCHEM_IUPAC_INCHIKEY>
BPTNSIACWODWNA-ZZEZOPTASA-N

> <PUBCHEM_XLOGP3_AA>
4.6

> <PUBCHEM_EXACT_MASS>
282.115698

> <PUBCHEM_MOLECULAR_FORMULA>
C20H14N2

> <PUBCHEM_MOLECULAR_WEIGHT>
282.33856

> <PUBCHEM_OPENEYE_CAN_SMILES>
C1=CC=C(C=C1)C(=C(C2=CC=CC=C2)C3=CC=CC=N3)C#N

> <PUBCHEM_OPENEYE_ISO_SMILES>
C1=CC=C(C=C1)/C(=C(/C2=CC=CC=C2)\C3=CC=CC=N3)/C#N

> <PUBCHEM_CACTVS_TPSA>
36.7

> <PUBCHEM_MONOISOTOPIC_WEIGHT>
282.115698

> <PUBCHEM_TOTAL_CHARGE>
0

> <PUBCHEM_HEAVY_ATOM_COUNT>
22

> <PUBCHEM_ATOM_DEF_STEREO_COUNT>
0

> <PUBCHEM_ATOM_UDEF_STEREO_COUNT>
0

> <PUBCHEM_BOND_DEF_STEREO_COUNT>
1

> <PUBCHEM_BOND_UDEF_STEREO_COUNT>
0

> <PUBCHEM_ISOTOPIC_ATOM_COUNT>
0

> <PUBCHEM_COMPONENT_COUNT>
1

> <PUBCHEM_CACTVS_TAUTO_COUNT>
1

> <PUBCHEM_COORDINATE_TYPE>
1
5
255

> <PUBCHEM_BONDANNOTATIONS>
1  20  8
1  6  8
10  18  8
11  16  8
12  17  8
13  15  8
14  15  8
16  19  8
17  19  8
18  22  8
20  22  8
4  8  8
4  9  8
6  10  8
7  11  8
7  12  8
8  13  8
9  14  8

$$$$

