6337958
  -OEChem-07051213113D

 24 23  0     1  0  0  0  0  0999 V2000
   -3.6115    0.2781   -0.1571 P   0  3  0  0  0  0  0  0  0  0  0  0
    1.7180    2.5351   -0.8405 O   0  0  0  0  0  0  0  0  0  0  0  0
    2.0380    1.7335    1.2581 O   0  0  0  0  0  0  0  0  0  0  0  0
   -3.7492   -0.3084    1.3434 O   0  0  0  0  0  0  0  0  0  0  0  0
   -4.2514   -0.8207   -0.8728 O   0  0  0  0  0  0  0  0  0  0  0  0
    2.7112   -1.3153   -1.1928 O   0  0  0  0  0  0  0  0  0  0  0  0
    1.1065   -0.6933    0.3760 N   0  0  0  0  0  0  0  0  0  0  0  0
    0.6242    0.4886   -0.2883 C   0  0  1  0  0  0  0  0  0  0  0  0
   -0.8309    0.8265    0.0578 C   0  0  0  0  0  0  0  0  0  0  0  0
   -1.8517   -0.1870   -0.4655 C   0  0  0  0  0  0  0  0  0  0  0  0
    1.5409    1.6164    0.1453 C   0  0  0  0  0  0  0  0  0  0  0  0
    2.1140   -1.4989   -0.1353 C   0  0  0  0  0  0  0  0  0  0  0  0
    2.4420   -2.6546    0.7717 C   0  0  0  0  0  0  0  0  0  0  0  0
    0.7400    0.3459   -1.3695 H   0  0  0  0  0  0  0  0  0  0  0  0
   -0.9358    0.9199    1.1476 H   0  0  0  0  0  0  0  0  0  0  0  0
   -1.0680    1.8188   -0.3499 H   0  0  0  0  0  0  0  0  0  0  0  0
   -1.6519   -1.1764   -0.0376 H   0  0  0  0  0  0  0  0  0  0  0  0
   -1.7171   -0.2801   -1.5503 H   0  0  0  0  0  0  0  0  0  0  0  0
    0.7329   -0.9060    1.2969 H   0  0  0  0  0  0  0  0  0  0  0  0
    3.0247   -3.3991    0.2223 H   0  0  0  0  0  0  0  0  0  0  0  0
    3.0265   -2.2935    1.6222 H   0  0  0  0  0  0  0  0  0  0  0  0
    1.5251   -3.1279    1.1343 H   0  0  0  0  0  0  0  0  0  0  0  0
    2.2926    3.2754   -0.5508 H   0  0  0  0  0  0  0  0  0  0  0  0
   -3.2876    0.2731    1.9847 H   0  0  0  0  0  0  0  0  0  0  0  0
  1  4  1  0  0  0  0
  1  5  2  0  0  0  0
  1 10  1  0  0  0  0
  2 11  1  0  0  0  0
  2 23  1  0  0  0  0
  3 11  2  0  0  0  0
  4 24  1  0  0  0  0
  6 12  2  0  0  0  0
  7  8  1  0  0  0  0
  7 12  1  0  0  0  0
  7 19  1  0  0  0  0
  8  9  1  0  0  0  0
  8 11  1  0  0  0  0
  8 14  1  0  0  0  0
  9 10  1  0  0  0  0
  9 15  1  0  0  0  0
  9 16  1  0  0  0  0
 10 17  1  0  0  0  0
 10 18  1  0  0  0  0
 12 13  1  0  0  0  0
 13 20  1  0  0  0  0
 13 21  1  0  0  0  0
 13 22  1  0  0  0  0
M  CHG  1   1   1
M  END
> <PUBCHEM_COMPOUND_CID>
6337958

> <PUBCHEM_CONFORMER_RMSD>
0.6

> <PUBCHEM_CONFORMER_DIVERSEORDER>
1
72
97
45
56
49
98
64
91
73
43
106
19
80
84
83
79
10
66
52
71
23
55
95
53
75
100
86
112
12
5
99
44
96
58
109
110
6
61
21
69
105
104
65
17
20
113
89
46
93
87
32
18
67
82
40
14
24
30
41
81
78
9
63
50
107
108
37
33
101
57
88
35
111
11
68
77
74
48
103
4
51
38
60
102
47
25
76
85
92
7
70
90
29
62
15
36
31
59
27
42
54
8
28
39
22
2
3
13
34
94
16
26

> <PUBCHEM_EFFECTIVE_ROTOR_COUNT>
6

> <PUBCHEM_PHARMACOPHORE_FEATURES>
5
1 2 acceptor
1 3 acceptor
1 6 acceptor
1 7 donor
3 2 3 11 anion

> <PUBCHEM_HEAVY_ATOM_COUNT>
13

> <PUBCHEM_ATOM_DEF_STEREO_COUNT>
1

> <PUBCHEM_ATOM_UDEF_STEREO_COUNT>
0

> <PUBCHEM_BOND_DEF_STEREO_COUNT>
0

> <PUBCHEM_BOND_UDEF_STEREO_COUNT>
0

> <PUBCHEM_ISOTOPIC_ATOM_COUNT>
0

> <PUBCHEM_COMPONENT_COUNT>
1

> <PUBCHEM_CACTVS_TAUTO_COUNT>
2

> <PUBCHEM_CONFORMER_ID>
0060B5A600000001

> <PUBCHEM_MMFF94_ENERGY>
15.6382

> <PUBCHEM_FEATURE_SELFOVERLAP>
25.43

> <PUBCHEM_SHAPE_FINGERPRINT>
12932764 1 18040709234962791873
13296908 3 18273495659315276571
13380535 21 18265604382368225927
14252887 29 18041279984402924886
15279307 12 18116720603720160239
18186145 218 18272094915892948373
20279233 1 17775011150640947563
20339313 130 18261103118933876621
20645477 70 18408329882599902695
20653091 64 18335978761490306312
20671657 1 18335138635595441332
20671657 53 18339928241590505695
20708731 107 18412258424317867580
20871998 22 18117279361885675110
2255824 54 18411416198226381286
23532345 88 18411429396966739781
23598291 2 18186512216204789525
3248919 1 18059579044960358541
581208 293 18339931402781368173
6049 1 17918273169217699061
7364860 26 18114185207168284452
81228 2 17471295522974476808
81539 233 18271530771548540596
88987 49 15626227871238403579

> <PUBCHEM_SHAPE_MULTIPOLES>
237.06
6.41
2.46
1.06
7.79
0.32
-0.12
-2.88
0.04
-3.15
-0.17
0.01
-0.04
-0.06

> <PUBCHEM_SHAPE_SELFOVERLAP>
440.603

> <PUBCHEM_SHAPE_VOLUME>
149.1

> <PUBCHEM_COORDINATE_TYPE>
2
5
10

$$$$

