442475
  -OEChem-07051212583D

 44 47  0     1  0  0  0  0  0999 V2000
    0.1533    0.0033    1.7964 O   0  0  0  0  0  0  0  0  0  0  0  0
   -1.3867   -3.4461    0.1778 O   0  0  0  0  0  0  0  0  0  0  0  0
   -0.6989    1.9114    0.6032 N   0  0  1  0  0  0  0  0  0  0  0  0
   -0.0335   -0.1908   -0.6378 C   0  0  1  0  0  0  0  0  0  0  0  0
    0.2292    0.7612    0.5757 C   0  0  2  0  0  0  0  0  0  0  0  0
    1.1096   -1.2441   -0.8491 C   0  0  1  0  0  0  0  0  0  0  0  0
   -1.3036   -1.1029   -0.4831 C   0  0  1  0  0  0  0  0  0  0  0  0
   -0.0929    0.6355   -1.9584 C   0  0  0  0  0  0  0  0  0  0  0  0
    1.6865    1.3004    0.5583 C   0  0  0  0  0  0  0  0  0  0  0  0
    2.5381   -0.7258   -0.6683 C   0  0  0  0  0  0  0  0  0  0  0  0
    0.7782   -2.4264    0.0485 C   0  0  0  0  0  0  0  0  0  0  0  0
    2.7257    0.1675    0.5581 C   0  0  1  0  0  0  0  0  0  0  0  0
   -0.7149   -2.4502   -0.0684 C   0  0  0  0  0  0  0  0  0  0  0  0
   -2.3982   -0.7679    0.5387 C   0  0  0  0  0  0  0  0  0  0  0  0
   -1.0174    1.8369   -1.8956 C   0  0  0  0  0  0  0  0  0  0  0  0
   -0.7741    2.6727   -0.6463 C   0  0  0  0  0  0  0  0  0  0  0  0
   -2.0077    1.6719    1.2085 C   0  0  0  0  0  0  0  0  0  0  0  0
   -2.9358    0.6517    0.5546 C   0  0  0  0  0  0  0  0  0  0  0  0
    4.1433    0.7418    0.5874 C   0  0  0  0  0  0  0  0  0  0  0  0
    1.0452   -1.6226   -1.8820 H   0  0  0  0  0  0  0  0  0  0  0  0
   -1.7639   -1.2585   -1.4673 H   0  0  0  0  0  0  0  0  0  0  0  0
   -0.3944   -0.0014   -2.8000 H   0  0  0  0  0  0  0  0  0  0  0  0
    0.9087    1.0022   -2.2152 H   0  0  0  0  0  0  0  0  0  0  0  0
    1.8553    1.9181    1.4515 H   0  0  0  0  0  0  0  0  0  0  0  0
    1.8700    1.9466   -0.3076 H   0  0  0  0  0  0  0  0  0  0  0  0
    3.2339   -1.5731   -0.6210 H   0  0  0  0  0  0  0  0  0  0  0  0
    2.8181   -0.1594   -1.5662 H   0  0  0  0  0  0  0  0  0  0  0  0
    1.0632   -2.2800    1.0924 H   0  0  0  0  0  0  0  0  0  0  0  0
    1.2107   -3.3552   -0.3330 H   0  0  0  0  0  0  0  0  0  0  0  0
    2.6038   -0.4395    1.4634 H   0  0  0  0  0  0  0  0  0  0  0  0
   -2.0877   -1.0462    1.5542 H   0  0  0  0  0  0  0  0  0  0  0  0
   -3.2482   -1.4332    0.3279 H   0  0  0  0  0  0  0  0  0  0  0  0
   -0.8531    2.4626   -2.7817 H   0  0  0  0  0  0  0  0  0  0  0  0
   -2.0561    1.5091   -1.9628 H   0  0  0  0  0  0  0  0  0  0  0  0
    0.1631    3.2276   -0.7747 H   0  0  0  0  0  0  0  0  0  0  0  0
   -1.5398    3.4560   -0.5793 H   0  0  0  0  0  0  0  0  0  0  0  0
   -2.5460    2.6276    1.2696 H   0  0  0  0  0  0  0  0  0  0  0  0
   -1.8669    1.3910    2.2604 H   0  0  0  0  0  0  0  0  0  0  0  0
   -3.2522    0.9611   -0.4427 H   0  0  0  0  0  0  0  0  0  0  0  0
   -3.8608    0.6426    1.1479 H   0  0  0  0  0  0  0  0  0  0  0  0
    0.2752    0.6270    2.5323 H   0  0  0  0  0  0  0  0  0  0  0  0
    4.2943    1.3558    1.4816 H   0  0  0  0  0  0  0  0  0  0  0  0
    4.8870   -0.0619    0.6036 H   0  0  0  0  0  0  0  0  0  0  0  0
    4.3395    1.3676   -0.2899 H   0  0  0  0  0  0  0  0  0  0  0  0
  1  5  1  0  0  0  0
  1 41  1  0  0  0  0
  2 13  2  0  0  0  0
  3  5  1  0  0  0  0
  3 16  1  0  0  0  0
  3 17  1  0  0  0  0
  4  5  1  0  0  0  0
  4  6  1  0  0  0  0
  4  7  1  0  0  0  0
  4  8  1  0  0  0  0
  5  9  1  0  0  0  0
  6 10  1  0  0  0  0
  6 11  1  0  0  0  0
  6 20  1  0  0  0  0
  7 13  1  0  0  0  0
  7 14  1  0  0  0  0
  7 21  1  0  0  0  0
  8 15  1  0  0  0  0
  8 22  1  0  0  0  0
  8 23  1  0  0  0  0
  9 12  1  0  0  0  0
  9 24  1  0  0  0  0
  9 25  1  0  0  0  0
 10 12  1  0  0  0  0
 10 26  1  0  0  0  0
 10 27  1  0  0  0  0
 11 13  1  0  0  0  0
 11 28  1  0  0  0  0
 11 29  1  0  0  0  0
 12 19  1  0  0  0  0
 12 30  1  0  0  0  0
 14 18  1  0  0  0  0
 14 31  1  0  0  0  0
 14 32  1  0  0  0  0
 15 16  1  0  0  0  0
 15 33  1  0  0  0  0
 15 34  1  0  0  0  0
 16 35  1  0  0  0  0
 16 36  1  0  0  0  0
 17 18  1  0  0  0  0
 17 37  1  0  0  0  0
 17 38  1  0  0  0  0
 18 39  1  0  0  0  0
 18 40  1  0  0  0  0
 19 42  1  0  0  0  0
 19 43  1  0  0  0  0
 19 44  1  0  0  0  0
M  END
> <PUBCHEM_COMPOUND_CID>
442475

> <PUBCHEM_CONFORMER_RMSD>
0.6

> <PUBCHEM_CONFORMER_DIVERSEORDER>
1

> <PUBCHEM_MMFF94_PARTIAL_CHARGES>
10
1 -0.68
11 0.06
13 0.45
16 0.27
17 0.27
2 -0.57
3 -0.81
41 0.4
5 0.55
7 0.06

> <PUBCHEM_EFFECTIVE_ROTOR_COUNT>
2

> <PUBCHEM_PHARMACOPHORE_FEATURES>
8
1 1 acceptor
1 1 donor
1 2 acceptor
1 3 cation
5 4 6 7 11 13 rings
6 3 4 5 8 15 16 rings
6 4 5 6 9 10 12 rings
7 3 4 5 7 14 17 18 rings

> <PUBCHEM_HEAVY_ATOM_COUNT>
19

> <PUBCHEM_ATOM_DEF_STEREO_COUNT>
5

> <PUBCHEM_ATOM_UDEF_STEREO_COUNT>
0

> <PUBCHEM_BOND_DEF_STEREO_COUNT>
0

> <PUBCHEM_BOND_UDEF_STEREO_COUNT>
0

> <PUBCHEM_ISOTOPIC_ATOM_COUNT>
0

> <PUBCHEM_COMPONENT_COUNT>
1

> <PUBCHEM_CACTVS_TAUTO_COUNT>
2

> <PUBCHEM_CONFORMER_ID>
0006C06B00000001

> <PUBCHEM_MMFF94_ENERGY>
59.8554

> <PUBCHEM_FEATURE_SELFOVERLAP>
41.629

> <PUBCHEM_SHAPE_FINGERPRINT>
10863032 1 17968370272852558113
10948715 1 17968653951005274801
10967382 1 18335415789813953250
12011746 2 18334011683474488693
12403814 3 18202290173540346628
12423570 1 8373530697791139450
13024252 1 15267355036526998040
13027679 85 18047478820089657893
13132413 78 17905037054320104724
13140716 1 18119247259807470050
13172582 1 18342735165710817223
13380536 237 17696190691991832263
141345 1 15612411111217301365
144361 1 17483365875534860661
14614273 12 18270408294450863132
14787075 74 17967540043027047641
14817 1 11287096907743640477
15490181 7 18049163559660996958
15852999 172 17413044427600468125
16945 1 18188759561657334194
18981168 100 18049739695380366152
19930374 2 18272097131368085769
21160774 45 18339934739781033644
21330990 113 18411691106393171126
22344851 341 18043806713209182434
2334 1 17903921050207809458
23402539 116 18262530186532976871
23419403 2 17398990109043748223
23559900 14 18042954571547309046
238 59 17476948090804495605
2748010 2 18122619724036775286
350125 39 18124306366479125318
427121 178 17607208156822842913
4340502 62 18115304604821942417
5255222 1 17691950979434342583
6992083 37 18270393863492604321
81228 2 18339359660966835182

> <PUBCHEM_SHAPE_MULTIPOLES>
374.29
3.89
3.02
1.46
2.93
1.72
0.41
-1.07
-1.19
-1.15
0.18
-0.3
-0.65
0.4

> <PUBCHEM_SHAPE_SELFOVERLAP>
805.804

> <PUBCHEM_SHAPE_VOLUME>
202

> <PUBCHEM_COORDINATE_TYPE>
2
5
10

$$$$

