196146
  -OEChem-07051212472D

 27 28  0     0  0  0  0  0  0999 V2000
    3.3542   -2.1708    0.0000 O   0  0  0  0  0  0  0  0  0  0  0  0
    6.2515   -1.5917    0.0000 O   0  0  0  0  0  0  0  0  0  0  0  0
    4.5872    1.5664    0.0000 N   0  0  0  0  0  0  0  0  0  0  0  0
    6.2630    1.4775    0.0000 N   0  0  0  0  0  0  0  0  0  0  0  0
    4.5872   -0.6806    0.0000 N   0  0  0  0  0  0  0  0  0  0  0  0
    7.1691   -0.0780    0.0000 N   0  0  0  0  0  0  0  0  0  0  0  0
    8.0332    1.4670    0.0000 N   0  0  0  0  0  0  0  0  0  0  0  0
    3.6123    1.3438    0.0000 C   0  0  0  0  0  0  0  0  0  0  0  0
    3.1784    0.4429    0.0000 C   0  0  0  0  0  0  0  0  0  0  0  0
    5.3691    0.9429    0.0000 C   0  0  0  0  0  0  0  0  0  0  0  0
    3.6123   -0.4581    0.0000 C   0  0  0  0  0  0  0  0  0  0  0  0
    5.3691   -0.0571    0.0000 C   0  0  0  0  0  0  0  0  0  0  0  0
    2.9888   -1.2399    0.0000 C   0  0  0  0  0  0  0  0  0  0  0  0
    6.2630   -0.5918    0.0000 C   0  0  0  0  0  0  0  0  0  0  0  0
    7.1691    0.9637    0.0000 C   0  0  0  0  0  0  0  0  0  0  0  0
    2.0000   -1.0909    0.0000 C   0  0  0  0  0  0  0  0  0  0  0  0
    3.6123    1.9638    0.0000 H   0  0  0  0  0  0  0  0  0  0  0  0
    3.0079    1.4818    0.0000 H   0  0  0  0  0  0  0  0  0  0  0  0
    2.6937    0.8294    0.0000 H   0  0  0  0  0  0  0  0  0  0  0  0
    2.6937    0.0563    0.0000 H   0  0  0  0  0  0  0  0  0  0  0  0
    4.7252    2.1708    0.0000 H   0  0  0  0  0  0  0  0  0  0  0  0
    6.2558    2.0975    0.0000 H   0  0  0  0  0  0  0  0  0  0  0  0
    2.0924   -0.4778    0.0000 H   0  0  0  0  0  0  0  0  0  0  0  0
    1.3869   -0.9985    0.0000 H   0  0  0  0  0  0  0  0  0  0  0  0
    1.9076   -1.7040    0.0000 H   0  0  0  0  0  0  0  0  0  0  0  0
    8.5713    1.1591    0.0000 H   0  0  0  0  0  0  0  0  0  0  0  0
    8.0308    2.0870    0.0000 H   0  0  0  0  0  0  0  0  0  0  0  0
  1 13  2  0  0  0  0
  2 14  2  0  0  0  0
  3  8  1  0  0  0  0
  3 10  1  0  0  0  0
  3 21  1  0  0  0  0
  4 10  1  0  0  0  0
  4 15  1  0  0  0  0
  4 22  1  0  0  0  0
  5 11  2  0  0  0  0
  5 12  1  0  0  0  0
  6 14  1  0  0  0  0
  6 15  2  0  0  0  0
  7 15  1  0  0  0  0
  7 26  1  0  0  0  0
  7 27  1  0  0  0  0
  8  9  1  0  0  0  0
  8 17  1  0  0  0  0
  8 18  1  0  0  0  0
  9 11  1  0  0  0  0
  9 19  1  0  0  0  0
  9 20  1  0  0  0  0
 10 12  2  0  0  0  0
 11 13  1  0  0  0  0
 12 14  1  0  0  0  0
 13 16  1  0  0  0  0
 16 23  1  0  0  0  0
 16 24  1  0  0  0  0
 16 25  1  0  0  0  0
M  END
> <PUBCHEM_COMPOUND_CID>
196146

> <PUBCHEM_COMPOUND_CANONICALIZED>
1

> <PUBCHEM_CACTVS_COMPLEXITY>
461

> <PUBCHEM_CACTVS_HBOND_ACCEPTOR>
4

> <PUBCHEM_CACTVS_HBOND_DONOR>
3

> <PUBCHEM_CACTVS_ROTATABLE_BOND>
1

> <PUBCHEM_CACTVS_SUBSKEYS>
AAADccBzsAAAAAAAAAAAAAAAAAAAAAAAAAAgAAAABAAAAAAAAAAAHgAQAAAACAzBgAQDAALAAACoAYVwdACAAAEAAAABAIG4AECAQBIAgAAEAAAIEAIAAEAUAAAAAAAAAAAAAAAAAAAAAAAAAAAAAAAAAA==

> <PUBCHEM_IUPAC_OPENEYE_NAME>
6-acetyl-2-amino-1,7,8,9-tetrahydropyrimido[4,5-b][1,4]diazepin-4-one

> <PUBCHEM_IUPAC_CAS_NAME>
6-acetyl-2-amino-1,7,8,9-tetrahydropyrimido[4,5-b][1,4]diazepin-4-one

> <PUBCHEM_IUPAC_NAME>
6-acetyl-2-amino-1,7,8,9-tetrahydropyrimido[4,5-b][1,4]diazepin-4-one

> <PUBCHEM_IUPAC_SYSTEMATIC_NAME>
2-azanyl-6-ethanoyl-1,7,8,9-tetrahydropyrimido[4,5-b][1,4]diazepin-4-one

> <PUBCHEM_IUPAC_TRADITIONAL_NAME>
6-acetyl-2-amino-1,7,8,9-tetrahydropyrimido[4,5-b][1,4]diazepin-4-one

> <PUBCHEM_IUPAC_INCHI>
InChI=1S/C9H11N5O2/c1-4(15)5-2-3-11-7-6(12-5)8(16)14-9(10)13-7/h2-3H2,1H3,(H4,10,11,13,14,16)

> <PUBCHEM_IUPAC_INCHIKEY>
XEAAIJWYCBLWNK-UHFFFAOYSA-N

> <PUBCHEM_XLOGP3_AA>
-1.9

> <PUBCHEM_EXACT_MASS>
221.091275

> <PUBCHEM_MOLECULAR_FORMULA>
C9H11N5O2

> <PUBCHEM_MOLECULAR_WEIGHT>
221.21594

> <PUBCHEM_OPENEYE_CAN_SMILES>
CC(=O)C1=NC2=C(NCC1)NC(=NC2=O)N

> <PUBCHEM_OPENEYE_ISO_SMILES>
CC(=O)C1=NC2=C(NCC1)NC(=NC2=O)N

> <PUBCHEM_CACTVS_TPSA>
109

> <PUBCHEM_MONOISOTOPIC_WEIGHT>
221.091275

> <PUBCHEM_TOTAL_CHARGE>
0

> <PUBCHEM_HEAVY_ATOM_COUNT>
16

> <PUBCHEM_ATOM_DEF_STEREO_COUNT>
0

> <PUBCHEM_ATOM_UDEF_STEREO_COUNT>
0

> <PUBCHEM_BOND_DEF_STEREO_COUNT>
0

> <PUBCHEM_BOND_UDEF_STEREO_COUNT>
0

> <PUBCHEM_ISOTOPIC_ATOM_COUNT>
0

> <PUBCHEM_COMPONENT_COUNT>
1

> <PUBCHEM_CACTVS_TAUTO_COUNT>
92

> <PUBCHEM_COORDINATE_TYPE>
1
5
255

> <PUBCHEM_BONDANNOTATIONS>
10  12  8
12  14  8
4  10  8
4  15  8
6  14  8
6  15  8

$$$$

