240071
  -OEChem-07051213062D

 51 52  0     0  0  0  0  0  0999 V2000
    5.2320   -0.8660    0.0000 O   0  0  0  0  0  0  0  0  0  0  0  0
    3.7320    4.0000    0.0000 O   0  0  0  0  0  0  0  0  0  0  0  0
    3.7320   -4.0000    0.0000 O   0  0  0  0  0  0  0  0  0  0  0  0
    2.0000    4.0000    0.0000 O   0  0  0  0  0  0  0  0  0  0  0  0
    2.0000   -4.0000    0.0000 O   0  0  0  0  0  0  0  0  0  0  0  0
    3.7320    0.0000    0.0000 C   0  0  0  0  0  0  0  0  0  0  0  0
    2.7320    0.0000    0.0000 C   0  0  0  0  0  0  0  0  0  0  0  0
    3.7320   -1.0000    0.0000 C   0  0  0  0  0  0  0  0  0  0  0  0
    3.7320    1.0000    0.0000 C   0  0  0  0  0  0  0  0  0  0  0  0
    4.7320    0.0000    0.0000 C   0  0  0  0  0  0  0  0  0  0  0  0
    5.2320    0.8660    0.0000 C   0  0  0  0  0  0  0  0  0  0  0  0
    2.2320    0.8660    0.0000 C   0  0  0  0  0  0  0  0  0  0  0  0
    4.5981    1.5000    0.0000 C   0  0  0  0  0  0  0  0  0  0  0  0
    2.8660   -1.5000    0.0000 C   0  0  0  0  0  0  0  0  0  0  0  0
    2.8660    1.5000    0.0000 C   0  0  0  0  0  0  0  0  0  0  0  0
    4.5981   -1.5000    0.0000 C   0  0  0  0  0  0  0  0  0  0  0  0
    6.2320    0.8660    0.0000 C   0  0  0  0  0  0  0  0  0  0  0  0
    4.5981    2.5000    0.0000 C   0  0  0  0  0  0  0  0  0  0  0  0
    2.8660   -2.5000    0.0000 C   0  0  0  0  0  0  0  0  0  0  0  0
    4.5981   -2.5000    0.0000 C   0  0  0  0  0  0  0  0  0  0  0  0
    2.8660    2.5000    0.0000 C   0  0  0  0  0  0  0  0  0  0  0  0
    3.7320   -3.0000    0.0000 C   0  0  0  0  0  0  0  0  0  0  0  0
    3.7320    3.0000    0.0000 C   0  0  0  0  0  0  0  0  0  0  0  0
    2.8660    4.5000    0.0000 C   0  0  0  0  0  0  0  0  0  0  0  0
    2.8660   -4.5000    0.0000 C   0  0  0  0  0  0  0  0  0  0  0  0
    2.8660   -5.5000    0.0000 C   0  0  0  0  0  0  0  0  0  0  0  0
    2.8660    5.5000    0.0000 C   0  0  0  0  0  0  0  0  0  0  0  0
    2.1494   -0.2121    0.0000 H   0  0  0  0  0  0  0  0  0  0  0  0
    2.8397   -0.6106    0.0000 H   0  0  0  0  0  0  0  0  0  0  0  0
    5.3397    1.4766    0.0000 H   0  0  0  0  0  0  0  0  0  0  0  0
    4.6494    1.0781    0.0000 H   0  0  0  0  0  0  0  0  0  0  0  0
    2.7690    1.1760    0.0000 H   0  0  0  0  0  0  0  0  0  0  0  0
    1.9220    1.4030    0.0000 H   0  0  0  0  0  0  0  0  0  0  0  0
    1.6951    0.5560    0.0000 H   0  0  0  0  0  0  0  0  0  0  0  0
    2.3291   -1.1900    0.0000 H   0  0  0  0  0  0  0  0  0  0  0  0
    5.1350    1.1900    0.0000 H   0  0  0  0  0  0  0  0  0  0  0  0
    5.1350   -1.1900    0.0000 H   0  0  0  0  0  0  0  0  0  0  0  0
    2.3291    1.1900    0.0000 H   0  0  0  0  0  0  0  0  0  0  0  0
    6.2320    0.2460    0.0000 H   0  0  0  0  0  0  0  0  0  0  0  0
    6.8520    0.8660    0.0000 H   0  0  0  0  0  0  0  0  0  0  0  0
    6.2320    1.4860    0.0000 H   0  0  0  0  0  0  0  0  0  0  0  0
    2.3291   -2.8100    0.0000 H   0  0  0  0  0  0  0  0  0  0  0  0
    5.1350    2.8100    0.0000 H   0  0  0  0  0  0  0  0  0  0  0  0
    5.1350   -2.8100    0.0000 H   0  0  0  0  0  0  0  0  0  0  0  0
    2.3291    2.8100    0.0000 H   0  0  0  0  0  0  0  0  0  0  0  0
    3.4860    5.5000    0.0000 H   0  0  0  0  0  0  0  0  0  0  0  0
    2.8660    6.1200    0.0000 H   0  0  0  0  0  0  0  0  0  0  0  0
    2.2460    5.5000    0.0000 H   0  0  0  0  0  0  0  0  0  0  0  0
    2.2460   -5.5000    0.0000 H   0  0  0  0  0  0  0  0  0  0  0  0
    2.8660   -6.1200    0.0000 H   0  0  0  0  0  0  0  0  0  0  0  0
    3.4860   -5.5000    0.0000 H   0  0  0  0  0  0  0  0  0  0  0  0
  1 10  2  0  0  0  0
  2 23  1  0  0  0  0
  2 24  1  0  0  0  0
  3 22  1  0  0  0  0
  3 25  1  0  0  0  0
  4 24  2  0  0  0  0
  5 25  2  0  0  0  0
  6  7  1  0  0  0  0
  6  8  1  0  0  0  0
  6  9  1  0  0  0  0
  6 10  1  0  0  0  0
  7 12  1  0  0  0  0
  7 28  1  0  0  0  0
  7 29  1  0  0  0  0
  8 14  2  0  0  0  0
  8 16  1  0  0  0  0
  9 13  2  0  0  0  0
  9 15  1  0  0  0  0
 10 11  1  0  0  0  0
 11 17  1  0  0  0  0
 11 30  1  0  0  0  0
 11 31  1  0  0  0  0
 12 32  1  0  0  0  0
 12 33  1  0  0  0  0
 12 34  1  0  0  0  0
 13 18  1  0  0  0  0
 13 36  1  0  0  0  0
 14 19  1  0  0  0  0
 14 35  1  0  0  0  0
 15 21  2  0  0  0  0
 15 38  1  0  0  0  0
 16 20  2  0  0  0  0
 16 37  1  0  0  0  0
 17 39  1  0  0  0  0
 17 40  1  0  0  0  0
 17 41  1  0  0  0  0
 18 23  2  0  0  0  0
 18 43  1  0  0  0  0
 19 22  2  0  0  0  0
 19 42  1  0  0  0  0
 20 22  1  0  0  0  0
 20 44  1  0  0  0  0
 21 23  1  0  0  0  0
 21 45  1  0  0  0  0
 24 27  1  0  0  0  0
 25 26  1  0  0  0  0
 26 49  1  0  0  0  0
 26 50  1  0  0  0  0
 26 51  1  0  0  0  0
 27 46  1  0  0  0  0
 27 47  1  0  0  0  0
 27 48  1  0  0  0  0
M  END
> <PUBCHEM_COMPOUND_CID>
240071

> <PUBCHEM_COMPOUND_CANONICALIZED>
1

> <PUBCHEM_CACTVS_COMPLEXITY>
489

> <PUBCHEM_CACTVS_HBOND_ACCEPTOR>
5

> <PUBCHEM_CACTVS_HBOND_DONOR>
0

> <PUBCHEM_CACTVS_ROTATABLE_BOND>
9

> <PUBCHEM_CACTVS_SUBSKEYS>
AAADceB4OAAAAAAAAAAAAAAAAAAAAAAAAAAwYAAAAAAAAAABQAAAGgAAAAAADgSAmAAyDoAABACIAqDSCAACCAAgIAAIiAEGCIgMJjKENRqCOiCkwBEIqAeIyPCPoAAAAAAAAABAAAAAAAAAAAAAAAAAAA==

> <PUBCHEM_IUPAC_OPENEYE_NAME>
[4-[1-(4-acetoxyphenyl)-1-ethyl-2-oxo-butyl]phenyl] acetate

> <PUBCHEM_IUPAC_CAS_NAME>
acetic acid [4-[3-(4-acetyloxyphenyl)-4-oxohexan-3-yl]phenyl] ester

> <PUBCHEM_IUPAC_NAME>
[4-[3-(4-acetyloxyphenyl)-4-oxohexan-3-yl]phenyl] acetate

> <PUBCHEM_IUPAC_SYSTEMATIC_NAME>
[4-[3-(4-acetyloxyphenyl)-4-oxidanylidene-hexan-3-yl]phenyl] ethanoate

> <PUBCHEM_IUPAC_TRADITIONAL_NAME>
acetic acid [4-[1-(4-acetoxyphenyl)-1-ethyl-2-keto-butyl]phenyl] ester

> <PUBCHEM_IUPAC_INCHI>
InChI=1S/C22H24O5/c1-5-21(25)22(6-2,17-7-11-19(12-8-17)26-15(3)23)18-9-13-20(14-10-18)27-16(4)24/h7-14H,5-6H2,1-4H3

> <PUBCHEM_IUPAC_INCHIKEY>
IKCMGESKFZLMGO-UHFFFAOYSA-N

> <PUBCHEM_XLOGP3_AA>
3.9

> <PUBCHEM_EXACT_MASS>
368.162374

> <PUBCHEM_MOLECULAR_FORMULA>
C22H24O5

> <PUBCHEM_MOLECULAR_WEIGHT>
368.42296

> <PUBCHEM_OPENEYE_CAN_SMILES>
CCC(=O)C(CC)(C1=CC=C(C=C1)OC(=O)C)C2=CC=C(C=C2)OC(=O)C

> <PUBCHEM_OPENEYE_ISO_SMILES>
CCC(=O)C(CC)(C1=CC=C(C=C1)OC(=O)C)C2=CC=C(C=C2)OC(=O)C

> <PUBCHEM_CACTVS_TPSA>
69.7

> <PUBCHEM_MONOISOTOPIC_WEIGHT>
368.162374

> <PUBCHEM_TOTAL_CHARGE>
0

> <PUBCHEM_HEAVY_ATOM_COUNT>
27

> <PUBCHEM_ATOM_DEF_STEREO_COUNT>
0

> <PUBCHEM_ATOM_UDEF_STEREO_COUNT>
0

> <PUBCHEM_BOND_DEF_STEREO_COUNT>
0

> <PUBCHEM_BOND_UDEF_STEREO_COUNT>
0

> <PUBCHEM_ISOTOPIC_ATOM_COUNT>
0

> <PUBCHEM_COMPONENT_COUNT>
1

> <PUBCHEM_CACTVS_TAUTO_COUNT>
2

> <PUBCHEM_COORDINATE_TYPE>
1
5
255

> <PUBCHEM_BONDANNOTATIONS>
13  18  8
14  19  8
15  21  8
16  20  8
18  23  8
19  22  8
20  22  8
21  23  8
8  14  8
8  16  8
9  13  8
9  15  8

$$$$

