54691340
  -OEChem-07051213032D

 65 66  0     1  0  0  0  0  0999 V2000
    2.5369   -1.2504    0.0000 O   0  0  0  0  0  0  0  0  0  0  0  0
    3.6304    0.4132    0.0000 O   0  0  0  0  0  0  0  0  0  0  0  0
    6.8462   -1.0186    0.0000 O   0  0  0  0  0  0  0  0  0  0  0  0
    5.1706    1.6746    0.0000 O   0  0  0  0  0  0  0  0  0  0  0  0
    3.4030   -5.7504    0.0000 O   0  0  0  0  0  0  0  0  0  0  0  0
    5.1825   -1.6572    0.0000 N   0  0  0  0  0  0  0  0  0  0  0  0
   12.3580    5.0424    0.0000 C   0  0  1  0  0  0  0  0  0  0  0  0
   11.3634    4.9378    0.0000 C   0  0  0  0  0  0  0  0  0  0  0  0
   10.9567    4.0243    0.0000 C   0  0  1  0  0  0  0  0  0  0  0  0
   12.7647    5.9559    0.0000 C   0  0  0  0  0  0  0  0  0  0  0  0
   12.9457    4.2334    0.0000 C   0  0  0  0  0  0  0  0  0  0  0  0
    4.2690   -1.2504    0.0000 C   0  0  3  0  0  0  0  0  0  0  0  0
   11.5445    3.2153    0.0000 C   0  0  0  0  0  0  0  0  0  0  0  0
    9.9622    3.9198    0.0000 C   0  0  0  0  0  0  0  0  0  0  0  0
    3.4030   -1.7504    0.0000 C   0  0  3  0  0  0  0  0  0  0  0  0
   13.7592    6.0604    0.0000 C   0  0  0  0  0  0  0  0  0  0  0  0
    4.3735   -0.2559    0.0000 C   0  0  0  0  0  0  0  0  0  0  0  0
    5.3517   -0.0480    0.0000 C   0  0  0  0  0  0  0  0  0  0  0  0
    3.4030   -2.7504    0.0000 C   0  0  0  0  0  0  0  0  0  0  0  0
    9.5554    3.0062    0.0000 C   0  0  0  0  0  0  0  0  0  0  0  0
    5.8517   -0.9140    0.0000 C   0  0  0  0  0  0  0  0  0  0  0  0
    5.7584    0.8655    0.0000 C   0  0  0  0  0  0  0  0  0  0  0  0
    4.2690   -3.2504    0.0000 C   0  0  0  0  0  0  0  0  0  0  0  0
    2.5369   -3.2504    0.0000 C   0  0  0  0  0  0  0  0  0  0  0  0
   10.1432    2.1972    0.0000 C   0  0  0  0  0  0  0  0  0  0  0  0
    8.5609    2.9017    0.0000 C   0  0  0  0  0  0  0  0  0  0  0  0
    4.2690   -4.2504    0.0000 C   0  0  0  0  0  0  0  0  0  0  0  0
    2.5369   -4.2504    0.0000 C   0  0  0  0  0  0  0  0  0  0  0  0
    6.7529    0.9701    0.0000 C   0  0  0  0  0  0  0  0  0  0  0  0
    8.1542    1.9881    0.0000 C   0  0  0  0  0  0  0  0  0  0  0  0
    3.4030   -4.7504    0.0000 C   0  0  0  0  0  0  0  0  0  0  0  0
    7.1597    1.8836    0.0000 C   0  0  0  0  0  0  0  0  0  0  0  0
   12.1058    4.4760    0.0000 H   0  0  0  0  0  0  0  0  0  0  0  0
   11.4067    5.5563    0.0000 H   0  0  0  0  0  0  0  0  0  0  0  0
   10.7619    5.0878    0.0000 H   0  0  0  0  0  0  0  0  0  0  0  0
   10.7045    3.4579    0.0000 H   0  0  0  0  0  0  0  0  0  0  0  0
   12.8079    6.5744    0.0000 H   0  0  0  0  0  0  0  0  0  0  0  0
   12.1631    6.1059    0.0000 H   0  0  0  0  0  0  0  0  0  0  0  0
   12.4441    3.8689    0.0000 H   0  0  0  0  0  0  0  0  0  0  0  0
   13.3102    3.7318    0.0000 H   0  0  0  0  0  0  0  0  0  0  0  0
   13.4473    4.5978    0.0000 H   0  0  0  0  0  0  0  0  0  0  0  0
    4.3014   -1.8696    0.0000 H   0  0  0  0  0  0  0  0  0  0  0  0
   11.0429    2.8508    0.0000 H   0  0  0  0  0  0  0  0  0  0  0  0
   11.9089    2.7137    0.0000 H   0  0  0  0  0  0  0  0  0  0  0  0
   12.0461    3.5797    0.0000 H   0  0  0  0  0  0  0  0  0  0  0  0
    9.5978    4.4214    0.0000 H   0  0  0  0  0  0  0  0  0  0  0  0
    3.4030   -1.1304    0.0000 H   0  0  0  0  0  0  0  0  0  0  0  0
   13.8240    5.4438    0.0000 H   0  0  0  0  0  0  0  0  0  0  0  0
   14.3758    6.1252    0.0000 H   0  0  0  0  0  0  0  0  0  0  0  0
   13.6944    6.6770    0.0000 H   0  0  0  0  0  0  0  0  0  0  0  0
    5.3114   -2.2636    0.0000 H   0  0  0  0  0  0  0  0  0  0  0  0
    4.8059   -2.9404    0.0000 H   0  0  0  0  0  0  0  0  0  0  0  0
    2.0000   -2.9404    0.0000 H   0  0  0  0  0  0  0  0  0  0  0  0
    9.6416    1.8328    0.0000 H   0  0  0  0  0  0  0  0  0  0  0  0
   10.5077    1.6956    0.0000 H   0  0  0  0  0  0  0  0  0  0  0  0
   10.6448    2.5616    0.0000 H   0  0  0  0  0  0  0  0  0  0  0  0
    2.0000   -1.5604    0.0000 H   0  0  0  0  0  0  0  0  0  0  0  0
    8.1965    3.4033    0.0000 H   0  0  0  0  0  0  0  0  0  0  0  0
    4.8059   -4.5604    0.0000 H   0  0  0  0  0  0  0  0  0  0  0  0
    2.0000   -4.5604    0.0000 H   0  0  0  0  0  0  0  0  0  0  0  0
    7.1174    0.4685    0.0000 H   0  0  0  0  0  0  0  0  0  0  0  0
    8.5186    1.4866    0.0000 H   0  0  0  0  0  0  0  0  0  0  0  0
    6.7952    2.3852    0.0000 H   0  0  0  0  0  0  0  0  0  0  0  0
    5.4228    2.2410    0.0000 H   0  0  0  0  0  0  0  0  0  0  0  0
    2.8660   -6.0604    0.0000 H   0  0  0  0  0  0  0  0  0  0  0  0
  1 15  1  0  0  0  0
  1 57  1  0  0  0  0
  2 17  2  0  0  0  0
  3 21  2  0  0  0  0
  4 22  1  0  0  0  0
  4 64  1  0  0  0  0
  5 31  1  0  0  0  0
  5 65  1  0  0  0  0
  6 12  1  0  0  0  0
  6 21  1  0  0  0  0
  6 51  1  0  0  0  0
  7  8  1  0  0  0  0
  7 10  1  0  0  0  0
  7 11  1  1  0  0  0
  7 33  1  0  0  0  0
  8  9  1  0  0  0  0
  8 34  1  0  0  0  0
  8 35  1  0  0  0  0
  9 13  1  1  0  0  0
  9 14  1  0  0  0  0
  9 36  1  0  0  0  0
 10 16  1  0  0  0  0
 10 37  1  0  0  0  0
 10 38  1  0  0  0  0
 11 39  1  0  0  0  0
 11 40  1  0  0  0  0
 11 41  1  0  0  0  0
 12 15  1  0  0  0  0
 12 17  1  0  0  0  0
 12 42  1  0  0  0  0
 13 43  1  0  0  0  0
 13 44  1  0  0  0  0
 13 45  1  0  0  0  0
 14 20  2  0  0  0  0
 14 46  1  0  0  0  0
 15 19  1  0  0  0  0
 15 47  1  0  0  0  0
 16 48  1  0  0  0  0
 16 49  1  0  0  0  0
 16 50  1  0  0  0  0
 17 18  1  0  0  0  0
 18 21  1  0  0  0  0
 18 22  2  0  0  0  0
 19 23  2  0  0  0  0
 19 24  1  0  0  0  0
 20 25  1  0  0  0  0
 20 26  1  0  0  0  0
 22 29  1  0  0  0  0
 23 27  1  0  0  0  0
 23 52  1  0  0  0  0
 24 28  2  0  0  0  0
 24 53  1  0  0  0  0
 25 54  1  0  0  0  0
 25 55  1  0  0  0  0
 25 56  1  0  0  0  0
 26 30  2  0  0  0  0
 26 58  1  0  0  0  0
 27 31  2  0  0  0  0
 27 59  1  0  0  0  0
 28 31  1  0  0  0  0
 28 60  1  0  0  0  0
 29 32  2  0  0  0  0
 29 61  1  0  0  0  0
 30 32  1  0  0  0  0
 30 62  1  0  0  0  0
 32 63  1  0  0  0  0
M  END
> <PUBCHEM_COMPOUND_CID>
54691340

> <PUBCHEM_COMPOUND_CANONICALIZED>
1

> <PUBCHEM_CACTVS_COMPLEXITY>
786

> <PUBCHEM_CACTVS_HBOND_ACCEPTOR>
5

> <PUBCHEM_CACTVS_HBOND_DONOR>
4

> <PUBCHEM_CACTVS_ROTATABLE_BOND>
9

> <PUBCHEM_CACTVS_SUBSKEYS>
AAADcfB6OAAAAAAAAAAAAAAAAAAAAWAAAAAwAAAAAAAAAAABAAAAHgAQCAAADTzhmAYyBoLAAgCIAqFSEACCAAAgIAAIiIGOCMgKNj6KkTOEcAAk9hGYmQec/OTOIAAAAAAAAABAAAAAAAAAAAAAAAAAAA==

> <PUBCHEM_IUPAC_OPENEYE_NAME>
(3E)-5-[hydroxy-(4-hydroxyphenyl)methyl]-3-[(2E,4E,6E,8R,10R)-1-hydroxy-6,8,10-trimethyl-dodeca-2,4,6-trienylidene]pyrrolidine-2,4-dione

> <PUBCHEM_IUPAC_CAS_NAME>
(3E)-5-[hydroxy-(4-hydroxyphenyl)methyl]-3-[(2E,4E,6E,8R,10R)-1-hydroxy-6,8,10-trimethyldodeca-2,4,6-trienylidene]pyrrolidine-2,4-dione

> <PUBCHEM_IUPAC_NAME>
(3E)-5-[hydroxy-(4-hydroxyphenyl)methyl]-3-[(2E,4E,6E,8R,10R)-1-hydroxy-6,8,10-trimethyldodeca-2,4,6-trienylidene]pyrrolidine-2,4-dione

> <PUBCHEM_IUPAC_SYSTEMATIC_NAME>
(3E)-5-[(4-hydroxyphenyl)-oxidanyl-methyl]-3-[(2E,4E,6E,8R,10R)-6,8,10-trimethyl-1-oxidanyl-dodeca-2,4,6-trienylidene]pyrrolidine-2,4-dione

> <PUBCHEM_IUPAC_TRADITIONAL_NAME>
(3E)-5-[hydroxy-(4-hydroxyphenyl)methyl]-3-[(2E,4E,6E,8R,10R)-1-hydroxy-6,8,10-trimethyl-dodeca-2,4,6-trienylidene]pyrrolidine-2,4-quinone

> <PUBCHEM_IUPAC_INCHI>
InChI=1S/C26H33NO5/c1-5-16(2)14-18(4)15-17(3)8-6-7-9-21(29)22-25(31)23(27-26(22)32)24(30)19-10-12-20(28)13-11-19/h6-13,15-16,18,23-24,28-30H,5,14H2,1-4H3,(H,27,32)/b8-6+,9-7+,17-15+,22-21+/t16-,18-,23?,24?/m1/s1

> <PUBCHEM_IUPAC_INCHIKEY>
NKHVQSJVSMTQID-YNUTZCEOSA-N

> <PUBCHEM_XLOGP3_AA>
6.4

> <PUBCHEM_EXACT_MASS>
439.235873

> <PUBCHEM_MOLECULAR_FORMULA>
C26H33NO5

> <PUBCHEM_MOLECULAR_WEIGHT>
439.54392

> <PUBCHEM_OPENEYE_CAN_SMILES>
CCC(C)CC(C)C=C(C)C=CC=CC(=C1C(=O)C(NC1=O)C(C2=CC=C(C=C2)O)O)O

> <PUBCHEM_OPENEYE_ISO_SMILES>
CC[C@@H](C)C[C@@H](C)/C=C(\C)/C=C/C=C/C(=C\1/C(=O)C(NC1=O)C(C2=CC=C(C=C2)O)O)/O

> <PUBCHEM_CACTVS_TPSA>
107

> <PUBCHEM_MONOISOTOPIC_WEIGHT>
439.235873

> <PUBCHEM_TOTAL_CHARGE>
0

> <PUBCHEM_HEAVY_ATOM_COUNT>
32

> <PUBCHEM_ATOM_DEF_STEREO_COUNT>
2

> <PUBCHEM_ATOM_UDEF_STEREO_COUNT>
2

> <PUBCHEM_BOND_DEF_STEREO_COUNT>
4

> <PUBCHEM_BOND_UDEF_STEREO_COUNT>
0

> <PUBCHEM_ISOTOPIC_ATOM_COUNT>
0

> <PUBCHEM_COMPONENT_COUNT>
1

> <PUBCHEM_CACTVS_TAUTO_COUNT>
38

> <PUBCHEM_COORDINATE_TYPE>
1
5
255

> <PUBCHEM_BONDANNOTATIONS>
15  1  3
12  17  3
19  23  8
19  24  8
23  27  8
24  28  8
27  31  8
28  31  8
7  11  5
9  13  5

$$$$

