5295
  -OEChem-06261200372D

 75 76  0     1  0  0  0  0  0999 V2000
   15.3276    2.3929    0.0000 O   0  0  0  0  0  0  0  0  0  0  0  0
   17.9732    1.9862    0.0000 O   0  0  0  0  0  0  0  0  0  0  0  0
   18.8392    2.4862    0.0000 O   0  0  0  0  0  0  0  0  0  0  0  0
   21.4373    3.9862    0.0000 O   0  0  0  0  0  0  0  0  0  0  0  0
   20.5713    2.4862    0.0000 O   0  0  0  0  0  0  0  0  0  0  0  0
   16.2411    1.9862    0.0000 C   0  0  3  0  0  0  0  0  0  0  0  0
   14.6585    1.6498    0.0000 C   0  0  3  0  0  0  0  0  0  0  0  0
   16.1366    0.9916    0.0000 C   0  0  0  0  0  0  0  0  0  0  0  0
   15.1585    0.7837    0.0000 C   0  0  0  0  0  0  0  0  0  0  0  0
   17.1072    2.4862    0.0000 C   0  0  3  0  0  0  0  0  0  0  0  0
   13.6639    1.7543    0.0000 C   0  0  0  0  0  0  0  0  0  0  0  0
   17.1072    3.4862    0.0000 C   0  0  0  0  0  0  0  0  0  0  0  0
   17.9732    3.9862    0.0000 C   0  0  0  0  0  0  0  0  0  0  0  0
   13.0761    0.9453    0.0000 C   0  0  0  0  0  0  0  0  0  0  0  0
   18.8392    3.4862    0.0000 C   0  0  3  0  0  0  0  0  0  0  0  0
   12.0816    1.0498    0.0000 C   0  0  0  0  0  0  0  0  0  0  0  0
   19.7052    3.9862    0.0000 C   0  0  0  0  0  0  0  0  0  0  0  0
   11.4938    0.2408    0.0000 C   0  0  0  0  0  0  0  0  0  0  0  0
   10.4993    0.3453    0.0000 C   0  0  0  0  0  0  0  0  0  0  0  0
    9.9115   -0.4637    0.0000 C   0  0  0  0  0  0  0  0  0  0  0  0
   20.5713    3.4862    0.0000 C   0  0  0  0  0  0  0  0  0  0  0  0
    8.9170   -0.3592    0.0000 C   0  0  0  0  0  0  0  0  0  0  0  0
    8.3292   -1.1682    0.0000 C   0  0  0  0  0  0  0  0  0  0  0  0
    7.3347   -1.0637    0.0000 C   0  0  0  0  0  0  0  0  0  0  0  0
    6.7469   -1.8727    0.0000 C   0  0  0  0  0  0  0  0  0  0  0  0
    5.7524   -1.7682    0.0000 C   0  0  0  0  0  0  0  0  0  0  0  0
    4.1701   -2.4726    0.0000 C   0  0  0  0  0  0  0  0  0  0  0  0
    5.1646   -2.5772    0.0000 C   0  0  0  0  0  0  0  0  0  0  0  0
    3.5823   -3.2817    0.0000 C   0  0  0  0  0  0  0  0  0  0  0  0
    2.5878   -3.1771    0.0000 C   0  0  0  0  0  0  0  0  0  0  0  0
    2.0000   -3.9862    0.0000 C   0  0  0  0  0  0  0  0  0  0  0  0
   16.1966    2.8350    0.0000 H   0  0  0  0  0  0  0  0  0  0  0  0
   14.3538    2.4433    0.0000 H   0  0  0  0  0  0  0  0  0  0  0  0
   16.2014    0.3750    0.0000 H   0  0  0  0  0  0  0  0  0  0  0  0
   16.7566    0.9916    0.0000 H   0  0  0  0  0  0  0  0  0  0  0  0
   14.5921    0.5315    0.0000 H   0  0  0  0  0  0  0  0  0  0  0  0
   15.3500    0.1941    0.0000 H   0  0  0  0  0  0  0  0  0  0  0  0
   17.1072    1.6362    0.0000 H   0  0  0  0  0  0  0  0  0  0  0  0
   13.8348    2.3503    0.0000 H   0  0  0  0  0  0  0  0  0  0  0  0
   13.1067    2.0261    0.0000 H   0  0  0  0  0  0  0  0  0  0  0  0
   16.8951    4.0688    0.0000 H   0  0  0  0  0  0  0  0  0  0  0  0
   16.4966    3.3785    0.0000 H   0  0  0  0  0  0  0  0  0  0  0  0
   18.3717    4.4611    0.0000 H   0  0  0  0  0  0  0  0  0  0  0  0
   17.5747    4.4611    0.0000 H   0  0  0  0  0  0  0  0  0  0  0  0
   12.9053    0.3493    0.0000 H   0  0  0  0  0  0  0  0  0  0  0  0
   13.6334    0.6735    0.0000 H   0  0  0  0  0  0  0  0  0  0  0  0
   19.5753    3.0612    0.0000 H   0  0  0  0  0  0  0  0  0  0  0  0
   12.2525    1.6458    0.0000 H   0  0  0  0  0  0  0  0  0  0  0  0
   11.5244    1.3216    0.0000 H   0  0  0  0  0  0  0  0  0  0  0  0
   20.1038    4.4611    0.0000 H   0  0  0  0  0  0  0  0  0  0  0  0
   19.3067    4.4611    0.0000 H   0  0  0  0  0  0  0  0  0  0  0  0
   11.3229   -0.3552    0.0000 H   0  0  0  0  0  0  0  0  0  0  0  0
   12.0511   -0.0310    0.0000 H   0  0  0  0  0  0  0  0  0  0  0  0
   10.6702    0.9413    0.0000 H   0  0  0  0  0  0  0  0  0  0  0  0
    9.9421    0.6171    0.0000 H   0  0  0  0  0  0  0  0  0  0  0  0
    9.7406   -1.0597    0.0000 H   0  0  0  0  0  0  0  0  0  0  0  0
   10.4688   -0.7355    0.0000 H   0  0  0  0  0  0  0  0  0  0  0  0
    9.0879    0.2368    0.0000 H   0  0  0  0  0  0  0  0  0  0  0  0
    8.3598   -0.0874    0.0000 H   0  0  0  0  0  0  0  0  0  0  0  0
    8.1583   -1.7642    0.0000 H   0  0  0  0  0  0  0  0  0  0  0  0
    8.8865   -1.4400    0.0000 H   0  0  0  0  0  0  0  0  0  0  0  0
   21.9742    3.6762    0.0000 H   0  0  0  0  0  0  0  0  0  0  0  0
    7.0825   -0.4973    0.0000 H   0  0  0  0  0  0  0  0  0  0  0  0
    6.9991   -2.4391    0.0000 H   0  0  0  0  0  0  0  0  0  0  0  0
    5.5002   -1.2018    0.0000 H   0  0  0  0  0  0  0  0  0  0  0  0
    4.3410   -1.8767    0.0000 H   0  0  0  0  0  0  0  0  0  0  0  0
    3.6128   -2.2009    0.0000 H   0  0  0  0  0  0  0  0  0  0  0  0
    3.4114   -3.8776    0.0000 H   0  0  0  0  0  0  0  0  0  0  0  0
    4.1396   -3.5535    0.0000 H   0  0  0  0  0  0  0  0  0  0  0  0
    5.4168   -3.1436    0.0000 H   0  0  0  0  0  0  0  0  0  0  0  0
    2.7587   -2.5812    0.0000 H   0  0  0  0  0  0  0  0  0  0  0  0
    2.0305   -2.9054    0.0000 H   0  0  0  0  0  0  0  0  0  0  0  0
    1.4984   -3.6217    0.0000 H   0  0  0  0  0  0  0  0  0  0  0  0
    1.6356   -4.4878    0.0000 H   0  0  0  0  0  0  0  0  0  0  0  0
    2.5016   -4.3506    0.0000 H   0  0  0  0  0  0  0  0  0  0  0  0
  1  6  1  0  0  0  0
  1  7  1  0  0  0  0
  2  3  1  0  0  0  0
  2 10  1  0  0  0  0
  3 15  1  0  0  0  0
  4 21  1  0  0  0  0
  4 62  1  0  0  0  0
  5 21  2  0  0  0  0
  6  8  1  0  0  0  0
  6 10  1  0  0  0  0
  6 32  1  0  0  0  0
  7  9  1  0  0  0  0
  7 11  1  0  0  0  0
  7 33  1  0  0  0  0
  8  9  1  0  0  0  0
  8 34  1  0  0  0  0
  8 35  1  0  0  0  0
  9 36  1  0  0  0  0
  9 37  1  0  0  0  0
 10 12  1  0  0  0  0
 10 38  1  0  0  0  0
 11 14  1  0  0  0  0
 11 39  1  0  0  0  0
 11 40  1  0  0  0  0
 12 13  1  0  0  0  0
 12 41  1  0  0  0  0
 12 42  1  0  0  0  0
 13 15  1  0  0  0  0
 13 43  1  0  0  0  0
 13 44  1  0  0  0  0
 14 16  1  0  0  0  0
 14 45  1  0  0  0  0
 14 46  1  0  0  0  0
 15 17  1  0  0  0  0
 15 47  1  0  0  0  0
 16 18  1  0  0  0  0
 16 48  1  0  0  0  0
 16 49  1  0  0  0  0
 17 21  1  0  0  0  0
 17 50  1  0  0  0  0
 17 51  1  0  0  0  0
 18 19  1  0  0  0  0
 18 52  1  0  0  0  0
 18 53  1  0  0  0  0
 19 20  1  0  0  0  0
 19 54  1  0  0  0  0
 19 55  1  0  0  0  0
 20 22  1  0  0  0  0
 20 56  1  0  0  0  0
 20 57  1  0  0  0  0
 22 23  1  0  0  0  0
 22 58  1  0  0  0  0
 22 59  1  0  0  0  0
 23 24  1  0  0  0  0
 23 60  1  0  0  0  0
 23 61  1  0  0  0  0
 24 25  2  3  0  0  0
 24 63  1  0  0  0  0
 25 26  1  0  0  0  0
 25 64  1  0  0  0  0
 26 28  2  3  0  0  0
 26 65  1  0  0  0  0
 27 28  1  0  0  0  0
 27 29  1  0  0  0  0
 27 66  1  0  0  0  0
 27 67  1  0  0  0  0
 28 70  1  0  0  0  0
 29 30  1  0  0  0  0
 29 68  1  0  0  0  0
 29 69  1  0  0  0  0
 30 31  1  0  0  0  0
 30 71  1  0  0  0  0
 30 72  1  0  0  0  0
 31 73  1  0  0  0  0
 31 74  1  0  0  0  0
 31 75  1  0  0  0  0
M  END
> <PUBCHEM_COMPOUND_CID>
5295

> <PUBCHEM_COMPOUND_CANONICALIZED>
1

> <PUBCHEM_CACTVS_COMPLEXITY>
530

> <PUBCHEM_CACTVS_HBOND_ACCEPTOR>
5

> <PUBCHEM_CACTVS_HBOND_DONOR>
1

> <PUBCHEM_CACTVS_ROTATABLE_BOND>
16

> <PUBCHEM_CACTVS_SUBSKEYS>
AAADcfB4OAAAAAAAAAAAAAAAAAAAASAAAAAkAAAAAAAAAAAAAAAAGgAADAAACBSggAICCAAABgCIACDSCAAAAAAgAAAICAEAAAgJABYAAQACQAAFoAAKgAPI6KyAAAAAAAAAAAAAAAAAAAAAAAAAAAAAAA==

> <PUBCHEM_IUPAC_OPENEYE_NAME>
2-[6-(5-hexadeca-9,11-dienyltetrahydrofuran-2-yl)dioxan-3-yl]acetic acid

> <PUBCHEM_IUPAC_CAS_NAME>
2-[6-(5-hexadeca-9,11-dienyl-2-oxolanyl)-3-dioxanyl]acetic acid

> <PUBCHEM_IUPAC_NAME>
2-[6-(5-hexadeca-9,11-dienyloxolan-2-yl)dioxan-3-yl]acetic acid

> <PUBCHEM_IUPAC_SYSTEMATIC_NAME>
2-[6-(5-hexadeca-9,11-dienyloxolan-2-yl)-1,2-dioxan-3-yl]ethanoic acid

> <PUBCHEM_IUPAC_TRADITIONAL_NAME>
2-[6-(5-hexadeca-9,11-dienyltetrahydrofuran-2-yl)dioxan-3-yl]acetic acid

> <PUBCHEM_IUPAC_INCHI>
InChI=1S/C26H44O5/c1-2-3-4-5-6-7-8-9-10-11-12-13-14-15-16-22-17-19-24(29-22)25-20-18-23(30-31-25)21-26(27)28/h5-8,22-25H,2-4,9-21H2,1H3,(H,27,28)

> <PUBCHEM_IUPAC_INCHIKEY>
GAPWLWSFQQHPET-UHFFFAOYSA-N

> <PUBCHEM_XLOGP3_AA>
7.6

> <PUBCHEM_EXACT_MASS>
436.318875

> <PUBCHEM_MOLECULAR_FORMULA>
C26H44O5

> <PUBCHEM_MOLECULAR_WEIGHT>
436.62456

> <PUBCHEM_OPENEYE_CAN_SMILES>
CCCCC=CC=CCCCCCCCCC1CCC(O1)C2CCC(OO2)CC(=O)O

> <PUBCHEM_OPENEYE_ISO_SMILES>
CCCCC=CC=CCCCCCCCCC1CCC(O1)C2CCC(OO2)CC(=O)O

> <PUBCHEM_CACTVS_TPSA>
65

> <PUBCHEM_MONOISOTOPIC_WEIGHT>
436.318875

> <PUBCHEM_TOTAL_CHARGE>
0

> <PUBCHEM_HEAVY_ATOM_COUNT>
31

> <PUBCHEM_ATOM_DEF_STEREO_COUNT>
0

> <PUBCHEM_ATOM_UDEF_STEREO_COUNT>
4

> <PUBCHEM_BOND_DEF_STEREO_COUNT>
0

> <PUBCHEM_BOND_UDEF_STEREO_COUNT>
2

> <PUBCHEM_ISOTOPIC_ATOM_COUNT>
0

> <PUBCHEM_COMPONENT_COUNT>
1

> <PUBCHEM_CACTVS_TAUTO_COUNT>
1

> <PUBCHEM_COORDINATE_TYPE>
1
5
255

> <PUBCHEM_BONDANNOTATIONS>
10  38  3
15  47  3
24  25  1
26  28  1
6  32  3
7  33  3

$$$$

