9548877
  -OEChem-07051213063D

 54 53  0     1  0  0  0  0  0999 V2000
   -4.7098    2.3351    0.0738 O   0  0  0  0  0  0  0  0  0  0  0  0
   -5.6584    1.4180   -0.5307 O   0  0  0  0  0  0  0  0  0  0  0  0
    5.9485   -0.6647    1.2835 O   0  0  0  0  0  0  0  0  0  0  0  0
    6.1521    0.7342   -0.5004 O   0  0  0  0  0  0  0  0  0  0  0  0
    0.0333    3.5868   -0.3530 C   0  0  0  0  0  0  0  0  0  0  0  0
    1.4682    3.1687   -0.6920 C   0  0  0  0  0  0  0  0  0  0  0  0
   -0.9679    2.4324   -0.4250 C   0  0  0  0  0  0  0  0  0  0  0  0
    2.0558    2.0397    0.1608 C   0  0  0  0  0  0  0  0  0  0  0  0
   -2.3915    2.9026   -0.1108 C   0  0  0  0  0  0  0  0  0  0  0  0
    3.5092    1.7086   -0.1812 C   0  0  0  0  0  0  0  0  0  0  0  0
   -3.4269    1.7745   -0.2072 C   0  0  1  0  0  0  0  0  0  0  0  0
    4.0670    0.6409    0.7591 C   0  0  0  0  0  0  0  0  0  0  0  0
   -3.1624    0.6682    0.7770 C   0  0  0  0  0  0  0  0  0  0  0  0
   -1.1854   -4.2582   -0.5714 C   0  0  0  0  0  0  0  0  0  0  0  0
   -0.0560   -3.2218   -0.6045 C   0  0  0  0  0  0  0  0  0  0  0  0
   -2.5525   -3.6425   -0.2512 C   0  0  0  0  0  0  0  0  0  0  0  0
    1.3099   -3.8288   -0.9347 C   0  0  0  0  0  0  0  0  0  0  0  0
   -2.9900   -0.6131    0.4174 C   0  0  0  0  0  0  0  0  0  0  0  0
    5.4884    0.2732    0.4159 C   0  0  0  0  0  0  0  0  0  0  0  0
   -2.5911   -2.9758    1.0955 C   0  0  0  0  0  0  0  0  0  0  0  0
   -2.7714   -1.6750    1.3726 C   0  0  0  0  0  0  0  0  0  0  0  0
    2.4312   -2.8031   -0.9936 C   0  0  0  0  0  0  0  0  0  0  0  0
   -0.2723    4.3828   -1.0429 H   0  0  0  0  0  0  0  0  0  0  0  0
    0.0177    4.0179    0.6556 H   0  0  0  0  0  0  0  0  0  0  0  0
    1.5056    2.8678   -1.7467 H   0  0  0  0  0  0  0  0  0  0  0  0
    2.1105    4.0537   -0.6016 H   0  0  0  0  0  0  0  0  0  0  0  0
   -0.9396    1.9836   -1.4251 H   0  0  0  0  0  0  0  0  0  0  0  0
   -0.6799    1.6564    0.2912 H   0  0  0  0  0  0  0  0  0  0  0  0
    1.4590    1.1293    0.0336 H   0  0  0  0  0  0  0  0  0  0  0  0
    1.9858    2.3234    1.2182 H   0  0  0  0  0  0  0  0  0  0  0  0
   -2.6783    3.7058   -0.8022 H   0  0  0  0  0  0  0  0  0  0  0  0
   -2.4244    3.3531    0.8905 H   0  0  0  0  0  0  0  0  0  0  0  0
    4.1223    2.6157   -0.1117 H   0  0  0  0  0  0  0  0  0  0  0  0
    3.5724    1.3635   -1.2206 H   0  0  0  0  0  0  0  0  0  0  0  0
   -3.4216    1.3982   -1.2393 H   0  0  0  0  0  0  0  0  0  0  0  0
    4.0500    1.0127    1.7897 H   0  0  0  0  0  0  0  0  0  0  0  0
    3.4549   -0.2639    0.6983 H   0  0  0  0  0  0  0  0  0  0  0  0
   -3.1392    0.9446    1.8291 H   0  0  0  0  0  0  0  0  0  0  0  0
   -0.9478   -5.0308    0.1708 H   0  0  0  0  0  0  0  0  0  0  0  0
   -1.2452   -4.7622   -1.5437 H   0  0  0  0  0  0  0  0  0  0  0  0
   -0.2968   -2.4511   -1.3473 H   0  0  0  0  0  0  0  0  0  0  0  0
    0.0201   -2.7161    0.3651 H   0  0  0  0  0  0  0  0  0  0  0  0
   -3.3055   -4.4402   -0.2544 H   0  0  0  0  0  0  0  0  0  0  0  0
   -2.8346   -2.9608   -1.0590 H   0  0  0  0  0  0  0  0  0  0  0  0
    1.2526   -4.3432   -1.9015 H   0  0  0  0  0  0  0  0  0  0  0  0
    1.5619   -4.5882   -0.1850 H   0  0  0  0  0  0  0  0  0  0  0  0
   -3.0230   -0.8667   -0.6369 H   0  0  0  0  0  0  0  0  0  0  0  0
   -2.4467   -3.6440    1.9437 H   0  0  0  0  0  0  0  0  0  0  0  0
   -2.7599   -1.3839    2.4216 H   0  0  0  0  0  0  0  0  0  0  0  0
    2.2213   -2.0337   -1.7431 H   0  0  0  0  0  0  0  0  0  0  0  0
    2.5543   -2.3149   -0.0228 H   0  0  0  0  0  0  0  0  0  0  0  0
    3.3777   -3.2866   -1.2543 H   0  0  0  0  0  0  0  0  0  0  0  0
   -5.9372    0.9982    0.3011 H   0  0  0  0  0  0  0  0  0  0  0  0
    6.8732   -0.9246    1.0844 H   0  0  0  0  0  0  0  0  0  0  0  0
  1  2  1  0  0  0  0
  1 11  1  0  0  0  0
  2 53  1  0  0  0  0
  3 19  1  0  0  0  0
  3 54  1  0  0  0  0
  4 19  2  0  0  0  0
  5  6  1  0  0  0  0
  5  7  1  0  0  0  0
  5 23  1  0  0  0  0
  5 24  1  0  0  0  0
  6  8  1  0  0  0  0
  6 25  1  0  0  0  0
  6 26  1  0  0  0  0
  7  9  1  0  0  0  0
  7 27  1  0  0  0  0
  7 28  1  0  0  0  0
  8 10  1  0  0  0  0
  8 29  1  0  0  0  0
  8 30  1  0  0  0  0
  9 11  1  0  0  0  0
  9 31  1  0  0  0  0
  9 32  1  0  0  0  0
 10 12  1  0  0  0  0
 10 33  1  0  0  0  0
 10 34  1  0  0  0  0
 11 13  1  0  0  0  0
 11 35  1  0  0  0  0
 12 19  1  0  0  0  0
 12 36  1  0  0  0  0
 12 37  1  0  0  0  0
 13 18  2  0  0  0  0
 13 38  1  0  0  0  0
 14 15  1  0  0  0  0
 14 16  1  0  0  0  0
 14 39  1  0  0  0  0
 14 40  1  0  0  0  0
 15 17  1  0  0  0  0
 15 41  1  0  0  0  0
 15 42  1  0  0  0  0
 16 20  1  0  0  0  0
 16 43  1  0  0  0  0
 16 44  1  0  0  0  0
 17 22  1  0  0  0  0
 17 45  1  0  0  0  0
 17 46  1  0  0  0  0
 18 21  1  0  0  0  0
 18 47  1  0  0  0  0
 20 21  2  0  0  0  0
 20 48  1  0  0  0  0
 21 49  1  0  0  0  0
 22 50  1  0  0  0  0
 22 51  1  0  0  0  0
 22 52  1  0  0  0  0
M  END
> <PUBCHEM_COMPOUND_CID>
9548877

> <PUBCHEM_CONFORMER_RMSD>
1.2

> <PUBCHEM_CONFORMER_DIVERSEORDER>
3
170
19
98
108
109
71
147
18
65
17
52
85
133
46
60
161
2
58
68
135
140
4
156
172
66
24
34
122
11
9
118
48
100
88
90
94
62
153
38
72
99
103
27
142
117
49
119
81
160
33
69
116
139
35
43
154
28
128
143
41
173
91
111
148
134
125
127
106
112
7
174
86
168
40
21
169
167
105
15
96
95
23
165
175
64
157
149
39
131
55
166
163
37
93
67
80
56
26
162
76
97
115
45
87
129
155
6
54
84
25
120
137
32
1
53
114
20
104
30
145
16
47
13
89
57
123
126
164
110
5
59
61
144
79
124
132
159
141
121
77
107
130
31
171
73
14
36
51
63
12
75
8
10
151
29
146
78
102
44
113
138
101
158
150
50
92
70
22
83
152
82
74
42
136

> <PUBCHEM_MMFF94_PARTIAL_CHARGES>
18
1 -0.28
11 0.42
12 0.06
13 -0.29
16 0.14
18 -0.15
19 0.66
2 -0.4
20 -0.29
21 -0.15
3 -0.65
38 0.15
4 -0.57
47 0.15
48 0.15
49 0.15
53 0.4
54 0.5

> <PUBCHEM_EFFECTIVE_ROTOR_COUNT>
15

> <PUBCHEM_PHARMACOPHORE_FEATURES>
5
1 22 hydrophobe
1 3 acceptor
1 4 acceptor
3 3 4 19 anion
5 14 15 16 17 20 hydrophobe

> <PUBCHEM_HEAVY_ATOM_COUNT>
22

> <PUBCHEM_ATOM_DEF_STEREO_COUNT>
1

> <PUBCHEM_ATOM_UDEF_STEREO_COUNT>
0

> <PUBCHEM_BOND_DEF_STEREO_COUNT>
2

> <PUBCHEM_BOND_UDEF_STEREO_COUNT>
0

> <PUBCHEM_ISOTOPIC_ATOM_COUNT>
0

> <PUBCHEM_COMPONENT_COUNT>
1

> <PUBCHEM_CACTVS_TAUTO_COUNT>
1

> <PUBCHEM_CONFORMER_ID>
0091B44D00000003

> <PUBCHEM_MMFF94_ENERGY>
7.7243

> <PUBCHEM_FEATURE_SELFOVERLAP>
25.428

> <PUBCHEM_SHAPE_FINGERPRINT>
10483366 6 18264787463210842703
11014199 57 17689439283092904818
12100795 323 18409731789573460242
12555020 224 18271817796114023885
13402501 40 18338233881329301556
1361 2 18337114583219709727
14117953 113 18336259025613592663
14647877 51 18047467013863462430
15003188 8 18408328808531102154
19930381 70 18051129491368893821
20531524 4 18192685978231937694
20621476 51 18120655725596787907
21344244 246 18337684109100396991
238918 7 18259985994373616502
3246872 21 17040633886701122516
373842 8 18340490083659155946
508706 21 18335414630547856198
532947 4 18267021842272937509
9543594 6 18192994808129519672

> <PUBCHEM_SHAPE_MULTIPOLES>
429.27
11.34
6.85
1.06
13.17
4.26
-0.19
-3.4
-2.44
-4.04
2.13
0.15
0.57
0.73

> <PUBCHEM_SHAPE_SELFOVERLAP>
801.218

> <PUBCHEM_SHAPE_VOLUME>
267.1

> <PUBCHEM_COORDINATE_TYPE>
2
5
10

$$$$

