5854
  -OEChem-06261200563D

 64 68  0     1  0  0  0  0  0999 V2000
   -2.6479    2.6380    1.9070 O   0  0  0  0  0  0  0  0  0  0  0  0
    5.8886   -1.7317    1.0122 O   0  0  0  0  0  0  0  0  0  0  0  0
   -5.6850   -2.2070   -0.6728 O   0  0  0  0  0  0  0  0  0  0  0  0
   -3.6098   -0.4156    0.0927 N   0  0  0  0  0  0  0  0  0  0  0  0
   -0.4654    0.3665    0.0370 C   0  0  2  0  0  0  0  0  0  0  0  0
    1.0405    0.1234    0.4372 C   0  0  2  0  0  0  0  0  0  0  0  0
    2.0343    0.7142   -0.6205 C   0  0  2  0  0  0  0  0  0  0  0  0
    3.4593    0.4840   -0.1096 C   0  0  1  0  0  0  0  0  0  0  0  0
   -0.6409    1.9045   -0.1648 C   0  0  1  0  0  0  0  0  0  0  0  0
    3.7716   -1.0189    0.0481 C   0  0  2  0  0  0  0  0  0  0  0  0
    1.3797   -1.3489    0.7972 C   0  0  0  0  0  0  0  0  0  0  0  0
    1.7543    2.1989   -0.8879 C   0  0  0  0  0  0  0  0  0  0  0  0
   -1.4113   -0.0707    1.1988 C   0  0  0  0  0  0  0  0  0  0  0  0
    0.2920    2.4610   -1.2463 C   0  0  0  0  0  0  0  0  0  0  0  0
    2.8644   -1.5740    1.1416 C   0  0  0  0  0  0  0  0  0  0  0  0
   -2.1030    2.3144   -0.4077 C   0  0  0  0  0  0  0  0  0  0  0  0
    4.6475    1.0326   -0.8915 C   0  0  0  0  0  0  0  0  0  0  0  0
   -2.8840    0.3804    1.0803 C   0  0  1  0  0  0  0  0  0  0  0  0
   -0.8121   -0.4356   -1.2428 C   0  0  0  0  0  0  0  0  0  0  0  0
   -3.0044    1.8753    0.7503 C   0  0  1  0  0  0  0  0  0  0  0  0
    5.2475   -0.9004    0.3833 C   0  0  0  0  0  0  0  0  0  0  0  0
    5.8454    0.3726   -0.1925 C   0  0  0  0  0  0  0  0  0  0  0  0
    3.6806   -1.8654   -1.2351 C   0  0  0  0  0  0  0  0  0  0  0  0
   -5.0079    0.0259   -0.0077 C   0  0  0  0  0  0  0  0  0  0  0  0
   -3.5563   -1.8442    0.4326 C   0  0  0  0  0  0  0  0  0  0  0  0
   -5.7481   -0.8268   -1.0343 C   0  0  0  0  0  0  0  0  0  0  0  0
   -4.3299   -2.6525   -0.6050 C   0  0  0  0  0  0  0  0  0  0  0  0
    1.2081    0.6919    1.3662 H   0  0  0  0  0  0  0  0  0  0  0  0
    1.9165    0.1893   -1.5736 H   0  0  0  0  0  0  0  0  0  0  0  0
    3.5182    0.9609    0.8845 H   0  0  0  0  0  0  0  0  0  0  0  0
   -0.3278    2.3961    0.7680 H   0  0  0  0  0  0  0  0  0  0  0  0
    1.1036   -2.0137   -0.0273 H   0  0  0  0  0  0  0  0  0  0  0  0
    0.7907   -1.6688    1.6634 H   0  0  0  0  0  0  0  0  0  0  0  0
    2.3885    2.5594   -1.7062 H   0  0  0  0  0  0  0  0  0  0  0  0
    2.0174    2.7909   -0.0018 H   0  0  0  0  0  0  0  0  0  0  0  0
   -1.0201    0.3833    2.1215 H   0  0  0  0  0  0  0  0  0  0  0  0
   -1.3144   -1.1385    1.4030 H   0  0  0  0  0  0  0  0  0  0  0  0
    0.1453    3.5436   -1.3441 H   0  0  0  0  0  0  0  0  0  0  0  0
    0.0595    2.0275   -2.2254 H   0  0  0  0  0  0  0  0  0  0  0  0
    3.0898   -1.0917    2.1018 H   0  0  0  0  0  0  0  0  0  0  0  0
    3.0493   -2.6444    1.2931 H   0  0  0  0  0  0  0  0  0  0  0  0
   -2.1471    3.4079   -0.4937 H   0  0  0  0  0  0  0  0  0  0  0  0
   -2.4729    1.9089   -1.3552 H   0  0  0  0  0  0  0  0  0  0  0  0
    4.7168    2.1237   -0.8420 H   0  0  0  0  0  0  0  0  0  0  0  0
    4.6025    0.7490   -1.9485 H   0  0  0  0  0  0  0  0  0  0  0  0
   -3.3360    0.2205    2.0707 H   0  0  0  0  0  0  0  0  0  0  0  0
   -0.0922   -0.2739   -2.0487 H   0  0  0  0  0  0  0  0  0  0  0  0
   -0.8299   -1.5121   -1.0462 H   0  0  0  0  0  0  0  0  0  0  0  0
   -1.7844   -0.1673   -1.6608 H   0  0  0  0  0  0  0  0  0  0  0  0
   -4.0178    2.2200    0.5569 H   0  0  0  0  0  0  0  0  0  0  0  0
    6.2124    0.9936    0.6297 H   0  0  0  0  0  0  0  0  0  0  0  0
    6.6477    0.1454   -0.8977 H   0  0  0  0  0  0  0  0  0  0  0  0
    4.3672   -1.5182   -2.0147 H   0  0  0  0  0  0  0  0  0  0  0  0
    3.9572   -2.9053   -1.0224 H   0  0  0  0  0  0  0  0  0  0  0  0
    2.6760   -1.8787   -1.6656 H   0  0  0  0  0  0  0  0  0  0  0  0
   -1.7960    2.3279    2.2516 H   0  0  0  0  0  0  0  0  0  0  0  0
   -5.1141    1.0424   -0.3895 H   0  0  0  0  0  0  0  0  0  0  0  0
   -5.5106   -0.0459    0.9651 H   0  0  0  0  0  0  0  0  0  0  0  0
   -3.9874   -2.0190    1.4270 H   0  0  0  0  0  0  0  0  0  0  0  0
   -2.5455   -2.2546    0.4180 H   0  0  0  0  0  0  0  0  0  0  0  0
   -6.8044   -0.5407   -1.0666 H   0  0  0  0  0  0  0  0  0  0  0  0
   -5.3377   -0.6945   -2.0432 H   0  0  0  0  0  0  0  0  0  0  0  0
   -3.8707   -2.5812   -1.5987 H   0  0  0  0  0  0  0  0  0  0  0  0
   -4.3426   -3.7098   -0.3214 H   0  0  0  0  0  0  0  0  0  0  0  0
  1 20  1  0  0  0  0
  1 56  1  0  0  0  0
  2 21  2  0  0  0  0
  3 26  1  0  0  0  0
  3 27  1  0  0  0  0
  4 18  1  0  0  0  0
  4 24  1  0  0  0  0
  4 25  1  0  0  0  0
  5  6  1  0  0  0  0
  5  9  1  0  0  0  0
  5 13  1  0  0  0  0
  5 19  1  0  0  0  0
  6  7  1  0  0  0  0
  6 11  1  0  0  0  0
  6 28  1  0  0  0  0
  7  8  1  0  0  0  0
  7 12  1  0  0  0  0
  7 29  1  0  0  0  0
  8 10  1  0  0  0  0
  8 17  1  0  0  0  0
  8 30  1  0  0  0  0
  9 14  1  0  0  0  0
  9 16  1  0  0  0  0
  9 31  1  0  0  0  0
 10 15  1  0  0  0  0
 10 21  1  0  0  0  0
 10 23  1  0  0  0  0
 11 15  1  0  0  0  0
 11 32  1  0  0  0  0
 11 33  1  0  0  0  0
 12 14  1  0  0  0  0
 12 34  1  0  0  0  0
 12 35  1  0  0  0  0
 13 18  1  0  0  0  0
 13 36  1  0  0  0  0
 13 37  1  0  0  0  0
 14 38  1  0  0  0  0
 14 39  1  0  0  0  0
 15 40  1  0  0  0  0
 15 41  1  0  0  0  0
 16 20  1  0  0  0  0
 16 42  1  0  0  0  0
 16 43  1  0  0  0  0
 17 22  1  0  0  0  0
 17 44  1  0  0  0  0
 17 45  1  0  0  0  0
 18 20  1  0  0  0  0
 18 46  1  0  0  0  0
 19 47  1  0  0  0  0
 19 48  1  0  0  0  0
 19 49  1  0  0  0  0
 20 50  1  0  0  0  0
 21 22  1  0  0  0  0
 22 51  1  0  0  0  0
 22 52  1  0  0  0  0
 23 53  1  0  0  0  0
 23 54  1  0  0  0  0
 23 55  1  0  0  0  0
 24 26  1  0  0  0  0
 24 57  1  0  0  0  0
 24 58  1  0  0  0  0
 25 27  1  0  0  0  0
 25 59  1  0  0  0  0
 25 60  1  0  0  0  0
 26 61  1  0  0  0  0
 26 62  1  0  0  0  0
 27 63  1  0  0  0  0
 27 64  1  0  0  0  0
M  END
> <PUBCHEM_COMPOUND_CID>
5854

> <PUBCHEM_CONFORMER_RMSD>
0.8

> <PUBCHEM_CONFORMER_DIVERSEORDER>
1
3
2

> <PUBCHEM_MMFF94_PARTIAL_CHARGES>
14
1 -0.68
10 0.06
18 0.27
2 -0.57
20 0.28
21 0.45
22 0.06
24 0.27
25 0.27
26 0.28
27 0.28
3 -0.56
4 -0.81
56 0.4

> <PUBCHEM_EFFECTIVE_ROTOR_COUNT>
4.2

> <PUBCHEM_PHARMACOPHORE_FEATURES>
10
1 1 acceptor
1 1 donor
1 2 acceptor
1 3 acceptor
1 4 cation
5 8 10 17 21 22 rings
6 3 4 24 25 26 27 rings
6 5 6 7 9 12 14 rings
6 5 9 13 16 18 20 rings
6 6 7 8 10 11 15 rings

> <PUBCHEM_HEAVY_ATOM_COUNT>
27

> <PUBCHEM_ATOM_DEF_STEREO_COUNT>
8

> <PUBCHEM_ATOM_UDEF_STEREO_COUNT>
0

> <PUBCHEM_BOND_DEF_STEREO_COUNT>
0

> <PUBCHEM_BOND_UDEF_STEREO_COUNT>
0

> <PUBCHEM_ISOTOPIC_ATOM_COUNT>
0

> <PUBCHEM_COMPONENT_COUNT>
1

> <PUBCHEM_CACTVS_TAUTO_COUNT>
2

> <PUBCHEM_CONFORMER_ID>
000016DE00000001

> <PUBCHEM_MMFF94_ENERGY>
90.5492

> <PUBCHEM_FEATURE_SELFOVERLAP>
50.835

> <PUBCHEM_SHAPE_FINGERPRINT>
10369192 42 17244733082329305264
10447042 23 17917996079391969882
10622 236 18268730401374912075
11135609 187 17842554042440609724
11135609 201 17169289048549317176
11552529 35 18187645850973146937
11578080 2 18263384549991753273
12107183 9 17689149432444313690
12166972 35 17988642926986396703
12236239 1 18408322181069178862
12516196 113 18411421682862519393
12553582 1 17916567856225342328
12596602 18 17894628158745793568
12788726 201 18335706061506256651
13224815 77 18341894142896073440
13583140 156 16516259551057261008
13782708 43 17313374673948770702
13862211 1 18272654558558229426
14068700 675 18334582308924734673
1454969 45 18271521993342392996
14787075 74 18341605993651169104
15183329 4 18131083640752946887
15196674 1 18201435930705353032
15250474 111 18411704317660449930
15420108 30 17834392706987871977
15788980 27 14333117577301354058
17349148 13 18411975841191978697
17357779 13 17132117931140578877
17857418 61 18411136926525493862
1813 80 17631715171383734668
18222031 100 18343589525195821064
18681886 176 18336552599001167770
19141452 34 18267015236017332185
200 152 18341895169319280745
20028762 73 18412268367769336994
20511986 3 18271257087362683113
20775438 99 16676434953884878759
21033648 29 16009039444038346610
21267235 1 18271798047109987674
21756936 100 10159696885178861425
22393880 68 17702959028407555699
23402539 116 18413673517073015751
23557571 272 17676761063288618873
23559900 14 18269562650188076937
23622692 118 18410577275502926221
24771293 8 18340483379742987292
25147074 1 18339906161317195965
2871803 45 17917993893158436912
3004659 81 18342466894139047979
3009799 131 17846224336337944501
339767 52 18408890615923061015
34797466 226 17240757355504103632
350125 39 18335421248823089328
4015057 19 17632006455944897181
4098825 35 17989493996673871885
4325135 7 18412262831439596870
4340502 62 16515687754178332246
439807 62 18197779891677814207
46194498 28 17058938736853652375
463206 1 18119248364126365343
474113 269 16844193284321307362
497634 4 18335416902311014957
5104073 3 18411979204684453520
5283173 99 17703240623268915397
5924683 9 18335982051477485497
6913067 236 17346325886312915844
7471813 234 18336549309246265845
7495541 125 17531250530627161824
9709674 26 18200300130730062402
9849439 229 16594190882520193985

> <PUBCHEM_SHAPE_MULTIPOLES>
533.06
12.91
2.82
1.28
1.25
0.5
0.13
-7.25
-1.15
-1.62
-0.22
-0.3
0.14
-1.83

> <PUBCHEM_SHAPE_SELFOVERLAP>
1136.676

> <PUBCHEM_SHAPE_VOLUME>
293.9

> <PUBCHEM_COORDINATE_TYPE>
2
5
10

$$$$

