247855
  -OEChem-07051213062D

 52 55  0     1  0  0  0  0  0999 V2000
    2.9316    3.7290    0.0000 O   0  0  0  0  0  0  0  0  0  0  0  0
    2.9686   -3.5092    0.0000 N   0  0  0  0  0  0  0  0  0  0  0  0
    2.9847   -0.4677    0.0000 C   0  0  1  0  0  0  0  0  0  0  0  0
    3.8507   -0.9677    0.0000 C   0  0  2  0  0  0  0  0  0  0  0  0
    3.8507   -1.9677    0.0000 C   0  0  1  0  0  0  0  0  0  0  0  0
    2.9686    0.5738    0.0000 C   0  0  2  0  0  0  0  0  0  0  0  0
    2.9847   -2.4677    0.0000 C   0  0  2  0  0  0  0  0  0  0  0  0
    2.1187   -0.9677    0.0000 C   0  0  0  0  0  0  0  0  0  0  0  0
    2.1187   -1.9677    0.0000 C   0  0  0  0  0  0  0  0  0  0  0  0
    4.7607   -0.4608    0.0000 C   0  0  0  0  0  0  0  0  0  0  0  0
    3.8667    1.1016    0.0000 C   0  0  0  0  0  0  0  0  0  0  0  0
    4.7607   -2.4745    0.0000 C   0  0  0  0  0  0  0  0  0  0  0  0
    2.0167    1.0944    0.0000 C   0  0  0  0  0  0  0  0  0  0  0  0
    4.7688    0.5808    0.0000 C   0  0  0  0  0  0  0  0  0  0  0  0
    2.1065    0.0672    0.0000 C   0  0  0  0  0  0  0  0  0  0  0  0
    2.1187   -2.9677    0.0000 C   0  0  0  0  0  0  0  0  0  0  0  0
    4.7688   -3.5161    0.0000 C   0  0  0  0  0  0  0  0  0  0  0  0
    3.8751    2.1865    0.0000 C   0  0  0  0  0  0  0  0  0  0  0  0
    2.0000    2.1793    0.0000 C   0  0  0  0  0  0  0  0  0  0  0  0
    3.8667   -4.0370    0.0000 C   0  0  0  0  0  0  0  0  0  0  0  0
    2.9354    2.7290    0.0000 C   0  0  2  0  0  0  0  0  0  0  0  0
    2.2453   -0.0484    0.0000 H   0  0  0  0  0  0  0  0  0  0  0  0
    4.5836   -1.3984    0.0000 H   0  0  0  0  0  0  0  0  0  0  0  0
    4.5836   -1.5370    0.0000 H   0  0  0  0  0  0  0  0  0  0  0  0
    1.9066   -0.3851    0.0000 H   0  0  0  0  0  0  0  0  0  0  0  0
    1.5081   -1.0754    0.0000 H   0  0  0  0  0  0  0  0  0  0  0  0
    1.5081   -1.8600    0.0000 H   0  0  0  0  0  0  0  0  0  0  0  0
    1.9066   -2.5503    0.0000 H   0  0  0  0  0  0  0  0  0  0  0  0
    4.9653   -1.0461    0.0000 H   0  0  0  0  0  0  0  0  0  0  0  0
    5.3724   -0.3595    0.0000 H   0  0  0  0  0  0  0  0  0  0  0  0
    5.3724   -2.5759    0.0000 H   0  0  0  0  0  0  0  0  0  0  0  0
    4.9653   -1.8892    0.0000 H   0  0  0  0  0  0  0  0  0  0  0  0
    1.4043    1.1911    0.0000 H   0  0  0  0  0  0  0  0  0  0  0  0
    1.8167    0.5076    0.0000 H   0  0  0  0  0  0  0  0  0  0  0  0
    2.4282   -3.8130    0.0000 H   0  0  0  0  0  0  0  0  0  0  0  0
    5.3069    0.8887    0.0000 H   0  0  0  0  0  0  0  0  0  0  0  0
    1.7924    0.6017    0.0000 H   0  0  0  0  0  0  0  0  0  0  0  0
    1.5720   -0.2470    0.0000 H   0  0  0  0  0  0  0  0  0  0  0  0
    2.4206   -0.4674    0.0000 H   0  0  0  0  0  0  0  0  0  0  0  0
    1.8087   -2.4308    0.0000 H   0  0  0  0  0  0  0  0  0  0  0  0
    1.5818   -3.2777    0.0000 H   0  0  0  0  0  0  0  0  0  0  0  0
    2.4287   -3.5046    0.0000 H   0  0  0  0  0  0  0  0  0  0  0  0
    4.9823   -4.0982    0.0000 H   0  0  0  0  0  0  0  0  0  0  0  0
    5.3788   -3.4053    0.0000 H   0  0  0  0  0  0  0  0  0  0  0  0
    4.4851    2.0757    0.0000 H   0  0  0  0  0  0  0  0  0  0  0  0
    4.0886    2.7686    0.0000 H   0  0  0  0  0  0  0  0  0  0  0  0
    1.7820    2.7597    0.0000 H   0  0  0  0  0  0  0  0  0  0  0  0
    1.3908    2.0638    0.0000 H   0  0  0  0  0  0  0  0  0  0  0  0
    3.4657   -4.5098    0.0000 H   0  0  0  0  0  0  0  0  0  0  0  0
    4.2640   -4.5129    0.0000 H   0  0  0  0  0  0  0  0  0  0  0  0
    3.4718    3.0401    0.0000 H   0  0  0  0  0  0  0  0  0  0  0  0
    2.3934    4.0370    0.0000 H   0  0  0  0  0  0  0  0  0  0  0  0
 21  1  1  6  0  0  0
  1 52  1  0  0  0  0
  2  7  1  0  0  0  0
  2 20  1  0  0  0  0
  2 35  1  0  0  0  0
  3  4  1  0  0  0  0
  3  6  1  0  0  0  0
  3  8  1  0  0  0  0
  3 22  1  1  0  0  0
  4  5  1  0  0  0  0
  4 10  1  0  0  0  0
  4 23  1  6  0  0  0
  5  7  1  0  0  0  0
  5 12  1  0  0  0  0
  5 24  1  1  0  0  0
  6 11  1  0  0  0  0
  6 13  1  0  0  0  0
  6 15  1  6  0  0  0
  7  9  1  0  0  0  0
  7 16  1  6  0  0  0
  8  9  1  0  0  0  0
  8 25  1  0  0  0  0
  8 26  1  0  0  0  0
  9 27  1  0  0  0  0
  9 28  1  0  0  0  0
 10 14  1  0  0  0  0
 10 29  1  0  0  0  0
 10 30  1  0  0  0  0
 11 14  2  0  0  0  0
 11 18  1  0  0  0  0
 12 17  1  0  0  0  0
 12 31  1  0  0  0  0
 12 32  1  0  0  0  0
 13 19  1  0  0  0  0
 13 33  1  0  0  0  0
 13 34  1  0  0  0  0
 14 36  1  0  0  0  0
 15 37  1  0  0  0  0
 15 38  1  0  0  0  0
 15 39  1  0  0  0  0
 16 40  1  0  0  0  0
 16 41  1  0  0  0  0
 16 42  1  0  0  0  0
 17 20  1  0  0  0  0
 17 43  1  0  0  0  0
 17 44  1  0  0  0  0
 18 21  1  0  0  0  0
 18 45  1  0  0  0  0
 18 46  1  0  0  0  0
 19 21  1  0  0  0  0
 19 47  1  0  0  0  0
 19 48  1  0  0  0  0
 20 49  1  0  0  0  0
 20 50  1  0  0  0  0
 21 51  1  0  0  0  0
M  END
> <PUBCHEM_COMPOUND_CID>
247855

> <PUBCHEM_COMPOUND_CANONICALIZED>
1

> <PUBCHEM_CACTVS_COMPLEXITY>
459

> <PUBCHEM_CACTVS_HBOND_ACCEPTOR>
2

> <PUBCHEM_CACTVS_HBOND_DONOR>
2

> <PUBCHEM_CACTVS_ROTATABLE_BOND>
0

> <PUBCHEM_CACTVS_SUBSKEYS>
AAADceB6IAAAAAAAAAAAAAAAAAAAAAAAAAA8YIEAAAAAAACwAAAAHgAQCAAAD5zhgAYCAALAAgCAAiBCAAAAAAAgAAAACIAIAAgAEAIAgQAEQAAE0ACIAAOQwPAPgAAAAAAAAADQAASAACQAAAAAAAAAAA==

> <PUBCHEM_IUPAC_OPENEYE_NAME>
(4aS,4bR,8S,10aR,10bS,12aS)-10a,12a-dimethyl-1,2,3,4,4a,4b,5,7,8,9,10,10b,11,12-tetradecahydronaphtho[2,1-f]quinolin-8-ol

> <PUBCHEM_IUPAC_CAS_NAME>
(4aS,4bR,8S,10aR,10bS,12aS)-10a,12a-dimethyl-1,2,3,4,4a,4b,5,7,8,9,10,10b,11,12-tetradecahydronaphtho[2,1-f]quinolin-8-ol

> <PUBCHEM_IUPAC_NAME>
(4aS,4bR,8S,10aR,10bS,12aS)-10a,12a-dimethyl-1,2,3,4,4a,4b,5,7,8,9,10,10b,11,12-tetradecahydronaphtho[2,1-f]quinolin-8-ol

> <PUBCHEM_IUPAC_SYSTEMATIC_NAME>
(4aS,4bR,8S,10aR,10bS,12aS)-10a,12a-dimethyl-1,2,3,4,4a,4b,5,7,8,9,10,10b,11,12-tetradecahydronaphtho[2,1-f]quinolin-8-ol

> <PUBCHEM_IUPAC_TRADITIONAL_NAME>
(4aS,4bR,8S,10aR,10bS,12aS)-10a,12a-dimethyl-1,2,3,4,4a,4b,5,7,8,9,10,10b,11,12-tetradecahydronaphtho[2,1-f]quinolin-8-ol

> <PUBCHEM_IUPAC_INCHI>
InChI=1S/C19H31NO/c1-18-9-7-14(21)12-13(18)5-6-15-16(18)8-10-19(2)17(15)4-3-11-20-19/h5,14-17,20-21H,3-4,6-12H2,1-2H3/t14-,15+,16-,17-,18-,19-/m0/s1

> <PUBCHEM_IUPAC_INCHIKEY>
GWLZIXUQGCRFNW-QSMSVPEVSA-N

> <PUBCHEM_XLOGP3_AA>
3

> <PUBCHEM_EXACT_MASS>
289.240565

> <PUBCHEM_MOLECULAR_FORMULA>
C19H31NO

> <PUBCHEM_MOLECULAR_WEIGHT>
289.45554

> <PUBCHEM_OPENEYE_CAN_SMILES>
CC12CCC(CC1=CCC3C2CCC4(C3CCCN4)C)O

> <PUBCHEM_OPENEYE_ISO_SMILES>
C[C@]12CC[C@@H](CC1=CC[C@@H]3[C@@H]2CC[C@]4([C@H]3CCCN4)C)O

> <PUBCHEM_CACTVS_TPSA>
32.3

> <PUBCHEM_MONOISOTOPIC_WEIGHT>
289.240565

> <PUBCHEM_TOTAL_CHARGE>
0

> <PUBCHEM_HEAVY_ATOM_COUNT>
21

> <PUBCHEM_ATOM_DEF_STEREO_COUNT>
6

> <PUBCHEM_ATOM_UDEF_STEREO_COUNT>
0

> <PUBCHEM_BOND_DEF_STEREO_COUNT>
0

> <PUBCHEM_BOND_UDEF_STEREO_COUNT>
0

> <PUBCHEM_ISOTOPIC_ATOM_COUNT>
0

> <PUBCHEM_COMPONENT_COUNT>
1

> <PUBCHEM_CACTVS_TAUTO_COUNT>
1

> <PUBCHEM_COORDINATE_TYPE>
1
5
255

> <PUBCHEM_BONDANNOTATIONS>
21  1  6
3  22  5
4  23  6
5  24  5
6  15  6
7  16  6

$$$$

