17395729
  -OEChem-06241222523D

 43 46  0     0  0  0  0  0  0999 V2000
    1.4751   -0.8676    0.6344 S   0  0  0  0  0  0  0  0  0  0  0  0
   -0.2064    2.4106   -0.3772 O   0  0  0  0  0  0  0  0  0  0  0  0
   -0.7425    0.9849    1.3674 N   0  0  0  0  0  0  0  0  0  0  0  0
    3.8348   -2.0687    0.3598 N   0  0  0  0  0  0  0  0  0  0  0  0
   -3.7739   -0.2517    1.4247 N   0  0  0  0  0  0  0  0  0  0  0  0
   -3.5720    1.0991   -0.3286 N   0  0  0  0  0  0  0  0  0  0  0  0
    3.6216    0.3057   -0.1955 C   0  0  0  0  0  0  0  0  0  0  0  0
    2.5856    1.2941   -0.1929 C   0  0  0  0  0  0  0  0  0  0  0  0
    1.3760    0.7917    0.2340 C   0  0  0  0  0  0  0  0  0  0  0  0
    4.9861    0.3584   -0.5458 C   0  0  0  0  0  0  0  0  0  0  0  0
    3.1332   -0.9220    0.2394 C   0  0  0  0  0  0  0  0  0  0  0  0
   -2.0789    1.5449    1.6194 C   0  0  0  0  0  0  0  0  0  0  0  0
    5.7508   -0.7989   -0.4380 C   0  0  0  0  0  0  0  0  0  0  0  0
    0.0691    1.4832    0.3794 C   0  0  0  0  0  0  0  0  0  0  0  0
    2.7790    2.7092   -0.6027 C   0  0  0  0  0  0  0  0  0  0  0  0
   -3.1324    0.8253    0.8793 C   0  0  0  0  0  0  0  0  0  0  0  0
    5.1337   -1.9534    0.0098 C   0  0  0  0  0  0  0  0  0  0  0  0
   -4.6884   -0.7029    0.5078 C   0  0  0  0  0  0  0  0  0  0  0  0
    5.6622    1.6020   -1.0314 C   0  0  0  0  0  0  0  0  0  0  0  0
   -4.5429    0.1565   -0.5775 C   0  0  0  0  0  0  0  0  0  0  0  0
    5.9519   -3.1991    0.1269 C   0  0  0  0  0  0  0  0  0  0  0  0
   -5.6025   -1.7566    0.5339 C   0  0  0  0  0  0  0  0  0  0  0  0
   -5.3490   -0.0317   -1.7130 C   0  0  0  0  0  0  0  0  0  0  0  0
   -6.3966   -1.9294   -0.6045 C   0  0  0  0  0  0  0  0  0  0  0  0
   -6.2737   -1.0835   -1.7091 C   0  0  0  0  0  0  0  0  0  0  0  0
   -2.0801    2.6041    1.3402 H   0  0  0  0  0  0  0  0  0  0  0  0
   -2.2453    1.4874    2.7005 H   0  0  0  0  0  0  0  0  0  0  0  0
    6.8056   -0.8014   -0.6961 H   0  0  0  0  0  0  0  0  0  0  0  0
    2.8578    2.7867   -1.6916 H   0  0  0  0  0  0  0  0  0  0  0  0
    1.9659    3.3644   -0.2808 H   0  0  0  0  0  0  0  0  0  0  0  0
    3.6763    3.1351   -0.1464 H   0  0  0  0  0  0  0  0  0  0  0  0
   -0.4360    0.1992    1.9339 H   0  0  0  0  0  0  0  0  0  0  0  0
    5.1135    2.0465   -1.8663 H   0  0  0  0  0  0  0  0  0  0  0  0
    5.7611    2.3251   -0.2164 H   0  0  0  0  0  0  0  0  0  0  0  0
    6.6722    1.3931   -1.4022 H   0  0  0  0  0  0  0  0  0  0  0  0
   -3.6059   -0.6482    2.3400 H   0  0  0  0  0  0  0  0  0  0  0  0
    6.7757   -3.0487    0.8320 H   0  0  0  0  0  0  0  0  0  0  0  0
    5.3461   -4.0360    0.4902 H   0  0  0  0  0  0  0  0  0  0  0  0
    6.3615   -3.4788   -0.8491 H   0  0  0  0  0  0  0  0  0  0  0  0
   -5.6960   -2.4120    1.3924 H   0  0  0  0  0  0  0  0  0  0  0  0
   -5.2611    0.6202   -2.5762 H   0  0  0  0  0  0  0  0  0  0  0  0
   -7.1231   -2.7380   -0.6291 H   0  0  0  0  0  0  0  0  0  0  0  0
   -6.9049   -1.2429   -2.5796 H   0  0  0  0  0  0  0  0  0  0  0  0
  1  9  1  0  0  0  0
  1 11  1  0  0  0  0
  2 14  2  0  0  0  0
  3 12  1  0  0  0  0
  3 14  1  0  0  0  0
  3 32  1  0  0  0  0
  4 11  1  0  0  0  0
  4 17  2  0  0  0  0
  5 16  1  0  0  0  0
  5 18  1  0  0  0  0
  5 36  1  0  0  0  0
  6 16  2  0  0  0  0
  6 20  1  0  0  0  0
  7  8  1  0  0  0  0
  7 10  1  0  0  0  0
  7 11  2  0  0  0  0
  8  9  2  0  0  0  0
  8 15  1  0  0  0  0
  9 14  1  0  0  0  0
 10 13  2  0  0  0  0
 10 19  1  0  0  0  0
 12 16  1  0  0  0  0
 12 26  1  0  0  0  0
 12 27  1  0  0  0  0
 13 17  1  0  0  0  0
 13 28  1  0  0  0  0
 15 29  1  0  0  0  0
 15 30  1  0  0  0  0
 15 31  1  0  0  0  0
 17 21  1  0  0  0  0
 18 20  1  0  0  0  0
 18 22  2  0  0  0  0
 19 33  1  0  0  0  0
 19 34  1  0  0  0  0
 19 35  1  0  0  0  0
 20 23  2  0  0  0  0
 21 37  1  0  0  0  0
 21 38  1  0  0  0  0
 21 39  1  0  0  0  0
 22 24  1  0  0  0  0
 22 40  1  0  0  0  0
 23 25  1  0  0  0  0
 23 41  1  0  0  0  0
 24 25  2  0  0  0  0
 24 42  1  0  0  0  0
 25 43  1  0  0  0  0
M  END
> <PUBCHEM_COMPOUND_CID>
17395729

> <PUBCHEM_CONFORMER_RMSD>
0.8

> <PUBCHEM_CONFORMER_DIVERSEORDER>
1
16
2
24
3
29
30
19
18
27
7
26
28
6
10
11
14
23
15
4
22
21
17
13
25
12
20
8
5
9

> <PUBCHEM_MMFF94_PARTIAL_CHARGES>
31
1 -0.08
10 -0.14
11 0.3
12 0.48
13 -0.15
14 0.71
15 0.18
16 0.01
17 0.17
18 -0.15
19 0.14
2 -0.57
20 0.23
21 0.14
22 -0.15
23 -0.15
24 -0.15
25 -0.15
28 0.15
3 -0.73
32 0.37
36 0.27
4 -0.57
40 0.15
41 0.15
42 0.15
43 0.15
5 0.03
6 -0.57
8 -0.18
9 -0.05

> <PUBCHEM_EFFECTIVE_ROTOR_COUNT>
4

> <PUBCHEM_PHARMACOPHORE_FEATURES>
9
1 2 acceptor
1 3 donor
1 4 acceptor
1 5 donor
3 5 6 16 cation
5 1 7 8 9 11 rings
5 5 6 16 18 20 rings
6 18 20 22 23 24 25 rings
6 4 7 10 11 13 17 rings

> <PUBCHEM_HEAVY_ATOM_COUNT>
25

> <PUBCHEM_ATOM_DEF_STEREO_COUNT>
0

> <PUBCHEM_ATOM_UDEF_STEREO_COUNT>
0

> <PUBCHEM_BOND_DEF_STEREO_COUNT>
0

> <PUBCHEM_BOND_UDEF_STEREO_COUNT>
0

> <PUBCHEM_ISOTOPIC_ATOM_COUNT>
0

> <PUBCHEM_COMPONENT_COUNT>
1

> <PUBCHEM_CACTVS_TAUTO_COUNT>
2

> <PUBCHEM_CONFORMER_ID>
0109701100000001

> <PUBCHEM_MMFF94_ENERGY>
50.564

> <PUBCHEM_FEATURE_SELFOVERLAP>
45.853

> <PUBCHEM_SHAPE_FINGERPRINT>
10319926 262 14201388362295940811
10447042 23 18411136939832382508
105312 117 14764624214230749681
10554248 39 12463301275633048794
10622 236 18265058100924775034
10693767 8 18341057388630424050
11089746 13 13542182740898743876
11497681 19 18188765189230738798
12166972 35 18411982425672476669
12236239 1 18187359934921468529
12592606 108 18186805735145907231
12596602 18 16950001417690114587
12633257 1 14923952210834030371
13533116 47 18261673684065118392
14211702 104 18041554862215125166
14848178 5 18333737939565439931
15064986 266 18201426005157154153
15183329 4 17418102039544025865
15188451 53 17531537567354457219
15519825 34 13912906176728178991
17134984 74 18060424577459667443
17349148 13 18040989652765299848
17857418 61 18260265261040362867
18222031 100 18411704313660323184
20028762 73 18263082266325696182
20281389 69 9943804478314051511
20567600 247 18335143085187107475
22061861 79 18273217486894240071
22393880 68 17703795795215573739
23081809 10 18334287686821165368
23522609 53 17971441122904178873
23559900 14 18271246015306701113
2748736 6 12031797963399133239
2838139 119 12895078388254697895
3004659 81 18413113848891151761
314194 84 18408595981271712850
34797466 226 16916779627060576093
351380 3 17894630327577430271
3882209 13 16981558711626435178
397830 11 6699802120792116677
4015057 19 18200865206165099744
4098825 35 18272934943024813989
439807 62 18408886214219892359
44880568 143 17132117939830669421
46194498 28 17417527987137282485
465052 167 18259982678273449974
5104073 3 17385441024997565505
559249 180 18114183077724296857
5718773 13 18268152140374491154
602551 16 16081091467503782244
636775 72 10373572770824688078
6431902 208 18335700559410784227
6669772 16 17899705557219374432
7495541 125 17530689835769071312
7970288 3 18186525393180914623
96874 4 18259994781238725567

> <PUBCHEM_SHAPE_MULTIPOLES>
492.54
18.26
2.76
1.29
9.19
0.61
-0.06
11.77
-6.02
-3.36
-0.04
1.82
-0.19
-1.53

> <PUBCHEM_SHAPE_SELFOVERLAP>
1078.736

> <PUBCHEM_SHAPE_VOLUME>
270.8

> <PUBCHEM_COORDINATE_TYPE>
2
5
10

$$$$

