5459880
  -OEChem-07051212483D

 22 24  0     0  0  0  0  0  0999 V2000
    2.8732   -1.7824    0.0002 S   0  0  0  0  0  0  0  0  0  0  0  0
   -0.3290   -1.7377    0.0004 S   0  0  0  0  0  0  0  0  0  0  0  0
    4.9970    1.4480   -0.0006 O   0  0  0  0  0  0  0  0  0  0  0  0
   -5.2590   -0.4375   -0.0004 O   0  0  0  0  0  0  0  0  0  0  0  0
    2.7747    0.7794    0.0000 N   0  0  0  0  0  0  0  0  0  0  0  0
   -0.0519    0.9471    0.0011 N   0  0  0  0  0  0  0  0  0  0  0  0
    1.9640   -0.3183    0.0002 C   0  0  0  0  0  0  0  0  0  0  0  0
    0.6255   -0.2572    0.0008 C   0  0  0  0  0  0  0  0  0  0  0  0
   -1.7318   -0.7424    0.0003 C   0  0  0  0  0  0  0  0  0  0  0  0
   -1.3242    0.6778    0.0008 C   0  0  0  0  0  0  0  0  0  0  0  0
    4.4665   -0.9062   -0.0009 C   0  0  0  0  0  0  0  0  0  0  0  0
    4.1423    0.5696   -0.0002 C   0  0  0  0  0  0  0  0  0  0  0  0
   -3.0035   -1.1342   -0.0005 C   0  0  0  0  0  0  0  0  0  0  0  0
   -2.3927    1.6916    0.0001 C   0  0  0  0  0  0  0  0  0  0  0  0
   -4.0763   -0.1128   -0.0006 C   0  0  0  0  0  0  0  0  0  0  0  0
   -3.6748    1.3154   -0.0007 C   0  0  0  0  0  0  0  0  0  0  0  0
    5.0342   -1.1584   -0.8999 H   0  0  0  0  0  0  0  0  0  0  0  0
    5.0358   -1.1590    0.8969 H   0  0  0  0  0  0  0  0  0  0  0  0
    2.3816    1.7152    0.0001 H   0  0  0  0  0  0  0  0  0  0  0  0
   -3.2967   -2.1779   -0.0009 H   0  0  0  0  0  0  0  0  0  0  0  0
   -2.1108    2.7379    0.0002 H   0  0  0  0  0  0  0  0  0  0  0  0
   -4.4684    2.0546   -0.0012 H   0  0  0  0  0  0  0  0  0  0  0  0
  1  7  1  0  0  0  0
  1 11  1  0  0  0  0
  2  8  1  0  0  0  0
  2  9  1  0  0  0  0
  3 12  2  0  0  0  0
  4 15  2  0  0  0  0
  5  7  1  0  0  0  0
  5 12  1  0  0  0  0
  5 19  1  0  0  0  0
  6  8  1  0  0  0  0
  6 10  2  0  0  0  0
  7  8  2  0  0  0  0
  9 10  1  0  0  0  0
  9 13  2  0  0  0  0
 10 14  1  0  0  0  0
 11 12  1  0  0  0  0
 11 17  1  0  0  0  0
 11 18  1  0  0  0  0
 13 15  1  0  0  0  0
 13 20  1  0  0  0  0
 14 16  2  0  0  0  0
 14 21  1  0  0  0  0
 15 16  1  0  0  0  0
 16 22  1  0  0  0  0
M  END
> <PUBCHEM_COMPOUND_CID>
5459880

> <PUBCHEM_CONFORMER_RMSD>
0.4

> <PUBCHEM_CONFORMER_DIVERSEORDER>
1

> <PUBCHEM_MMFF94_PARTIAL_CHARGES>
20
1 -0.33
10 0.42
11 0.29
12 0.57
13 -0.14
14 -0.14
15 0.54
16 -0.14
19 0.37
2 -0.2
20 0.15
21 0.15
22 0.15
3 -0.57
4 -0.57
5 -0.54
6 -0.62
7 0.21
8 0.27
9 0.12

> <PUBCHEM_EFFECTIVE_ROTOR_COUNT>
0.6

> <PUBCHEM_PHARMACOPHORE_FEATURES>
7
1 3 acceptor
1 4 acceptor
1 5 donor
1 6 acceptor
5 1 5 7 11 12 rings
5 2 6 8 9 10 rings
6 9 10 13 14 15 16 rings

> <PUBCHEM_HEAVY_ATOM_COUNT>
16

> <PUBCHEM_ATOM_DEF_STEREO_COUNT>
0

> <PUBCHEM_ATOM_UDEF_STEREO_COUNT>
0

> <PUBCHEM_BOND_DEF_STEREO_COUNT>
1

> <PUBCHEM_BOND_UDEF_STEREO_COUNT>
0

> <PUBCHEM_ISOTOPIC_ATOM_COUNT>
0

> <PUBCHEM_COMPONENT_COUNT>
1

> <PUBCHEM_CACTVS_TAUTO_COUNT>
2

> <PUBCHEM_CONFORMER_ID>
00534FA800000001

> <PUBCHEM_MMFF94_ENERGY>
30.7311

> <PUBCHEM_FEATURE_SELFOVERLAP>
35.601

> <PUBCHEM_SHAPE_FINGERPRINT>
10014705 185 18272937158700483069
10608611 8 18410295839154384908
10616163 171 18336826394582167022
11471102 20 18409450289048245006
12107183 9 17618505818859800562
12390115 104 18115289203048314665
13081056 2 18409166623458839372
13167823 11 18411140276753342370
13675066 3 18131345323634114379
14325111 11 18410855494593401696
15196674 1 18410575127639132133
15375358 24 18413668006762084210
15442244 35 18122626321402044970
15536298 74 18408885174362890654
17834072 33 18408325479662273014
18186145 218 18270963560971529494
18522853 276 18411418405918679517
200 152 17967535687587032155
20300324 65 18259988163125872181
20510252 161 18334011739546492537
20645477 56 18410857625134706808
20645477 70 18261390100581407222
21267235 1 18410566319020326414
21652331 79 18411419509667265316
23402539 116 18335990809232105527
23402655 69 18333453170253822220
23463225 33 18340769350584456022
23557571 272 18260539052479193972
23559900 14 18190182484882168406
245318 6 16768997439100617436
3545911 37 18410854352548858404
4214541 1 18339080492150029728
4463277 17 18410291424481801681
449060 50 18412262826659287404
474 4 17632007543051261988
474229 33 18409449172241034839
4990 188 18041272257835491238
5104073 3 18339642342565255579
5374978 207 18411705387354537930
542803 24 17167859768366942625
633830 44 18262519324265150023
69090 78 18408044013207126478
77779 3 18410291445218094850
9709674 26 18410005559294783686

> <PUBCHEM_SHAPE_MULTIPOLES>
315.27
10.04
1.79
0.61
2.15
0.08
0
-1.42
0
0.33
0
0
0.04
0

> <PUBCHEM_SHAPE_SELFOVERLAP>
669.395

> <PUBCHEM_SHAPE_VOLUME>
177.3

> <PUBCHEM_COORDINATE_TYPE>
2
5
10

$$$$

