17395389
  -OEChem-06241222492D

 56 58  0     1  0  0  0  0  0999 V2000
    8.0622   -0.7500    0.0000 N   0  0  0  0  0  0  0  0  0  0  0  0
   10.6603   -1.2500    0.0000 N   0  0  0  0  0  0  0  0  0  0  0  0
    9.7942    0.2500    0.0000 N   0  0  0  0  0  0  0  0  0  0  0  0
   11.5263    0.2500    0.0000 N   0  0  0  0  0  0  0  0  0  0  0  0
   12.3923   -1.2500    0.0000 N   0  0  0  0  0  0  0  0  0  0  0  0
   10.6603    1.7500    0.0000 N   0  0  0  0  0  0  0  0  0  0  0  0
    6.3301    0.2500    0.0000 C   0  0  0  0  0  0  0  0  0  0  0  0
    7.1962    0.7500    0.0000 C   0  0  0  0  0  0  0  0  0  0  0  0
    6.3301   -0.7500    0.0000 C   0  0  0  0  0  0  0  0  0  0  0  0
    8.0622    0.2500    0.0000 C   0  0  0  0  0  0  0  0  0  0  0  0
    7.1962   -1.2500    0.0000 C   0  0  0  0  0  0  0  0  0  0  0  0
    5.4641    0.7500    0.0000 C   0  0  0  0  0  0  0  0  0  0  0  0
    8.9282   -1.2500    0.0000 C   0  0  3  0  0  0  0  0  0  0  0  0
    4.5981    0.2500    0.0000 C   0  0  0  0  0  0  0  0  0  0  0  0
    8.9282   -2.2500    0.0000 C   0  0  0  0  0  0  0  0  0  0  0  0
    9.7942   -0.7500    0.0000 C   0  0  0  0  0  0  0  0  0  0  0  0
    3.7320    0.7500    0.0000 C   0  0  0  0  0  0  0  0  0  0  0  0
    3.7320    1.7500    0.0000 C   0  0  0  0  0  0  0  0  0  0  0  0
    2.8660    0.2500    0.0000 C   0  0  0  0  0  0  0  0  0  0  0  0
   11.5263   -0.7500    0.0000 C   0  0  0  0  0  0  0  0  0  0  0  0
   10.6603    0.7500    0.0000 C   0  0  0  0  0  0  0  0  0  0  0  0
    2.8660    2.2500    0.0000 C   0  0  0  0  0  0  0  0  0  0  0  0
    2.0000    0.7500    0.0000 C   0  0  0  0  0  0  0  0  0  0  0  0
    2.0000    1.7500    0.0000 C   0  0  0  0  0  0  0  0  0  0  0  0
   13.2583   -0.7500    0.0000 C   0  0  0  0  0  0  0  0  0  0  0  0
   12.3923   -2.2500    0.0000 C   0  0  0  0  0  0  0  0  0  0  0  0
    5.7932   -0.0600    0.0000 H   0  0  0  0  0  0  0  0  0  0  0  0
    5.7196   -0.6423    0.0000 H   0  0  0  0  0  0  0  0  0  0  0  0
    7.5947    1.2250    0.0000 H   0  0  0  0  0  0  0  0  0  0  0  0
    6.7976    1.2250    0.0000 H   0  0  0  0  0  0  0  0  0  0  0  0
    6.1181   -1.3326    0.0000 H   0  0  0  0  0  0  0  0  0  0  0  0
    6.7976   -1.7250    0.0000 H   0  0  0  0  0  0  0  0  0  0  0  0
    7.5947   -1.7250    0.0000 H   0  0  0  0  0  0  0  0  0  0  0  0
    8.6728    0.1423    0.0000 H   0  0  0  0  0  0  0  0  0  0  0  0
    8.2742    0.8326    0.0000 H   0  0  0  0  0  0  0  0  0  0  0  0
    5.8626    1.2250    0.0000 H   0  0  0  0  0  0  0  0  0  0  0  0
    5.0656    1.2250    0.0000 H   0  0  0  0  0  0  0  0  0  0  0  0
    8.3913   -1.5600    0.0000 H   0  0  0  0  0  0  0  0  0  0  0  0
    4.1996   -0.2249    0.0000 H   0  0  0  0  0  0  0  0  0  0  0  0
    4.9966   -0.2249    0.0000 H   0  0  0  0  0  0  0  0  0  0  0  0
    8.3082   -2.2500    0.0000 H   0  0  0  0  0  0  0  0  0  0  0  0
    8.9282   -2.8700    0.0000 H   0  0  0  0  0  0  0  0  0  0  0  0
    9.5482   -2.2500    0.0000 H   0  0  0  0  0  0  0  0  0  0  0  0
    4.2690    2.0600    0.0000 H   0  0  0  0  0  0  0  0  0  0  0  0
    2.8660   -0.3700    0.0000 H   0  0  0  0  0  0  0  0  0  0  0  0
    2.8660    2.8700    0.0000 H   0  0  0  0  0  0  0  0  0  0  0  0
    1.4631    0.4400    0.0000 H   0  0  0  0  0  0  0  0  0  0  0  0
    1.4631    2.0600    0.0000 H   0  0  0  0  0  0  0  0  0  0  0  0
   11.1972    2.0600    0.0000 H   0  0  0  0  0  0  0  0  0  0  0  0
   10.1233    2.0600    0.0000 H   0  0  0  0  0  0  0  0  0  0  0  0
   13.5683   -1.2869    0.0000 H   0  0  0  0  0  0  0  0  0  0  0  0
   13.7953   -0.4400    0.0000 H   0  0  0  0  0  0  0  0  0  0  0  0
   12.9483   -0.2131    0.0000 H   0  0  0  0  0  0  0  0  0  0  0  0
   11.7723   -2.2500    0.0000 H   0  0  0  0  0  0  0  0  0  0  0  0
   12.3923   -2.8700    0.0000 H   0  0  0  0  0  0  0  0  0  0  0  0
   13.0123   -2.2500    0.0000 H   0  0  0  0  0  0  0  0  0  0  0  0
  1 10  1  0  0  0  0
  1 11  1  0  0  0  0
  1 13  1  0  0  0  0
  2 16  1  0  0  0  0
  2 20  2  0  0  0  0
  3 16  2  0  0  0  0
  3 21  1  0  0  0  0
  4 20  1  0  0  0  0
  4 21  2  0  0  0  0
  5 20  1  0  0  0  0
  5 25  1  0  0  0  0
  5 26  1  0  0  0  0
  6 21  1  0  0  0  0
  6 49  1  0  0  0  0
  6 50  1  0  0  0  0
  7  8  1  0  0  0  0
  7  9  1  0  0  0  0
  7 12  1  0  0  0  0
  7 27  1  0  0  0  0
  8 10  1  0  0  0  0
  8 29  1  0  0  0  0
  8 30  1  0  0  0  0
  9 11  1  0  0  0  0
  9 28  1  0  0  0  0
  9 31  1  0  0  0  0
 10 34  1  0  0  0  0
 10 35  1  0  0  0  0
 11 32  1  0  0  0  0
 11 33  1  0  0  0  0
 12 14  1  0  0  0  0
 12 36  1  0  0  0  0
 12 37  1  0  0  0  0
 13 15  1  0  0  0  0
 13 16  1  0  0  0  0
 13 38  1  0  0  0  0
 14 17  1  0  0  0  0
 14 39  1  0  0  0  0
 14 40  1  0  0  0  0
 15 41  1  0  0  0  0
 15 42  1  0  0  0  0
 15 43  1  0  0  0  0
 17 18  2  0  0  0  0
 17 19  1  0  0  0  0
 18 22  1  0  0  0  0
 18 44  1  0  0  0  0
 19 23  2  0  0  0  0
 19 45  1  0  0  0  0
 22 24  2  0  0  0  0
 22 46  1  0  0  0  0
 23 24  1  0  0  0  0
 23 47  1  0  0  0  0
 24 48  1  0  0  0  0
 25 51  1  0  0  0  0
 25 52  1  0  0  0  0
 25 53  1  0  0  0  0
 26 54  1  0  0  0  0
 26 55  1  0  0  0  0
 26 56  1  0  0  0  0
M  END
> <PUBCHEM_COMPOUND_CID>
17395389

> <PUBCHEM_COMPOUND_CANONICALIZED>
1

> <PUBCHEM_CACTVS_COMPLEXITY>
403

> <PUBCHEM_CACTVS_HBOND_ACCEPTOR>
6

> <PUBCHEM_CACTVS_HBOND_DONOR>
1

> <PUBCHEM_CACTVS_ROTATABLE_BOND>
6

> <PUBCHEM_CACTVS_SUBSKEYS>
AAADceB7gAAAAAAAAAAAAAAAAAAAAAAAAAA8WIAAAAAAAAABwAAAHAAQAAAADSjBGwQzEIdIEACgAiJiJAACgAkgAKAJiAA4AIiIaCKAmRCUIAAogAKIiAcQgMAOAAAAAAAAAAAAAAAAAAAAAAAAAAAAAA==

> <PUBCHEM_IUPAC_OPENEYE_NAME>
N2,N2-dimethyl-6-[1-[4-(2-phenylethyl)-1-piperidyl]ethyl]-1,3,5-triazine-2,4-diamine

> <PUBCHEM_IUPAC_CAS_NAME>
N2,N2-dimethyl-6-[1-[4-(2-phenylethyl)-1-piperidinyl]ethyl]-1,3,5-triazine-2,4-diamine

> <PUBCHEM_IUPAC_NAME>
2-N,2-N-dimethyl-6-[1-[4-(2-phenylethyl)piperidin-1-yl]ethyl]-1,3,5-triazine-2,4-diamine

> <PUBCHEM_IUPAC_SYSTEMATIC_NAME>
N2,N2-dimethyl-6-[1-[4-(2-phenylethyl)piperidin-1-yl]ethyl]-1,3,5-triazine-2,4-diamine

> <PUBCHEM_IUPAC_TRADITIONAL_NAME>
[4-amino-6-[1-(4-phenethylpiperidino)ethyl]-s-triazin-2-yl]-dimethyl-amine

> <PUBCHEM_IUPAC_INCHI>
InChI=1S/C20H30N6/c1-15(18-22-19(21)24-20(23-18)25(2)3)26-13-11-17(12-14-26)10-9-16-7-5-4-6-8-16/h4-8,15,17H,9-14H2,1-3H3,(H2,21,22,23,24)

> <PUBCHEM_IUPAC_INCHIKEY>
NKTJNEWDWXHNCC-UHFFFAOYSA-N

> <PUBCHEM_XLOGP3_AA>
3.6

> <PUBCHEM_EXACT_MASS>
354.253195

> <PUBCHEM_MOLECULAR_FORMULA>
C20H30N6

> <PUBCHEM_MOLECULAR_WEIGHT>
354.4924

> <PUBCHEM_OPENEYE_CAN_SMILES>
CC(C1=NC(=NC(=N1)N(C)C)N)N2CCC(CC2)CCC3=CC=CC=C3

> <PUBCHEM_OPENEYE_ISO_SMILES>
CC(C1=NC(=NC(=N1)N(C)C)N)N2CCC(CC2)CCC3=CC=CC=C3

> <PUBCHEM_CACTVS_TPSA>
71.2

> <PUBCHEM_MONOISOTOPIC_WEIGHT>
354.253195

> <PUBCHEM_TOTAL_CHARGE>
0

> <PUBCHEM_HEAVY_ATOM_COUNT>
26

> <PUBCHEM_ATOM_DEF_STEREO_COUNT>
0

> <PUBCHEM_ATOM_UDEF_STEREO_COUNT>
1

> <PUBCHEM_BOND_DEF_STEREO_COUNT>
0

> <PUBCHEM_BOND_UDEF_STEREO_COUNT>
0

> <PUBCHEM_ISOTOPIC_ATOM_COUNT>
0

> <PUBCHEM_COMPONENT_COUNT>
1

> <PUBCHEM_CACTVS_TAUTO_COUNT>
4

> <PUBCHEM_COORDINATE_TYPE>
1
5
255

> <PUBCHEM_BONDANNOTATIONS>
13  15  3
17  18  8
17  19  8
18  22  8
19  23  8
2  16  8
2  20  8
22  24  8
23  24  8
3  16  8
3  21  8
4  20  8
4  21  8

$$$$

