656876
  -OEChem-07051213043D

 18 18  0     0  0  0  0  0  0999 V2000
   -0.8438    2.1788    0.1745 O   0  0  0  0  0  0  0  0  0  0  0  0
   -3.0675   -1.2518    0.4898 O   0  0  0  0  0  0  0  0  0  0  0  0
   -3.1179    0.7978   -0.4677 O   0  0  0  0  0  0  0  0  0  0  0  0
    3.9586    0.5530    0.0600 O   0  0  0  0  0  0  0  0  0  0  0  0
   -1.0085   -0.2055   -0.0332 C   0  0  0  0  0  0  0  0  0  0  0  0
   -0.2463    0.9581    0.0718 C   0  0  0  0  0  0  0  0  0  0  0  0
    1.7770   -0.3583   -0.0305 C   0  0  0  0  0  0  0  0  0  0  0  0
    1.1466    0.8817    0.0731 C   0  0  0  0  0  0  0  0  0  0  0  0
   -0.3781   -1.4454   -0.1367 C   0  0  0  0  0  0  0  0  0  0  0  0
    1.0146   -1.5218   -0.1354 C   0  0  0  0  0  0  0  0  0  0  0  0
   -2.4637   -0.1482   -0.0363 C   0  0  0  0  0  0  0  0  0  0  0  0
    3.2291   -0.4385   -0.0295 C   0  0  0  0  0  0  0  0  0  0  0  0
    1.7265    1.7978    0.1557 H   0  0  0  0  0  0  0  0  0  0  0  0
   -0.9465   -2.3670   -0.2304 H   0  0  0  0  0  0  0  0  0  0  0  0
    1.4916   -2.4949   -0.2192 H   0  0  0  0  0  0  0  0  0  0  0  0
    3.6694   -1.4466   -0.1140 H   0  0  0  0  0  0  0  0  0  0  0  0
   -1.8086    2.0857    0.2172 H   0  0  0  0  0  0  0  0  0  0  0  0
   -4.0454   -1.1761    0.4701 H   0  0  0  0  0  0  0  0  0  0  0  0
  1  6  1  0  0  0  0
  1 17  1  0  0  0  0
  2 11  1  0  0  0  0
  2 18  1  0  0  0  0
  3 11  2  0  0  0  0
  4 12  2  0  0  0  0
  5  6  2  0  0  0  0
  5  9  1  0  0  0  0
  5 11  1  0  0  0  0
  6  8  1  0  0  0  0
  7  8  2  0  0  0  0
  7 10  1  0  0  0  0
  7 12  1  0  0  0  0
  8 13  1  0  0  0  0
  9 10  2  0  0  0  0
  9 14  1  0  0  0  0
 10 15  1  0  0  0  0
 12 16  1  0  0  0  0
M  END
> <PUBCHEM_COMPOUND_CID>
656876

> <PUBCHEM_CONFORMER_RMSD>
0.6

> <PUBCHEM_CONFORMER_DIVERSEORDER>
2
1

> <PUBCHEM_MMFF94_PARTIAL_CHARGES>
18
1 -0.53
10 -0.15
11 0.63
12 0.42
13 0.15
14 0.15
15 0.15
16 0.06
17 0.45
18 0.5
2 -0.65
3 -0.57
4 -0.57
5 0.09
6 0.08
7 0.09
8 -0.15
9 -0.15

> <PUBCHEM_EFFECTIVE_ROTOR_COUNT>
2

> <PUBCHEM_PHARMACOPHORE_FEATURES>
6
1 1 donor
1 2 acceptor
1 3 acceptor
1 4 acceptor
3 2 3 11 anion
6 5 6 7 8 9 10 rings

> <PUBCHEM_HEAVY_ATOM_COUNT>
12

> <PUBCHEM_ATOM_DEF_STEREO_COUNT>
0

> <PUBCHEM_ATOM_UDEF_STEREO_COUNT>
0

> <PUBCHEM_BOND_DEF_STEREO_COUNT>
0

> <PUBCHEM_BOND_UDEF_STEREO_COUNT>
0

> <PUBCHEM_ISOTOPIC_ATOM_COUNT>
0

> <PUBCHEM_COMPONENT_COUNT>
1

> <PUBCHEM_CACTVS_TAUTO_COUNT>
4

> <PUBCHEM_CONFORMER_ID>
000A05EC00000002

> <PUBCHEM_MMFF94_ENERGY>
33.8265

> <PUBCHEM_FEATURE_SELFOVERLAP>
30.506

> <PUBCHEM_SHAPE_FINGERPRINT>
10219947 1 18333729104670077310
10857977 72 18410581664626966099
11062470 55 17847062198568461148
11132069 177 18187091628709833978
12032990 46 18409721842265698334
12897270 3 18409449232053676134
14325111 11 18411419522757791582
14614273 12 18127698338033190637
14993402 34 17822303370217644415
16945 1 18409163337534525294
17846911 113 18335994116166960704
19026448 5 16343704326682561942
193761 8 17760928841376547958
20201158 50 18412546535077085575
21501502 16 18048036560237199696
23235685 24 18410863165505245182
23402539 116 18334869311577083446
23402655 69 18192167077964341885
23463225 33 18341898549537845946
23552423 10 18053379083047474206
23559900 14 18334575746810675342
2748010 2 18192716631059775780
3312278 4 18413106182131915715
528886 8 18408892844905326115
53812653 166 18335143098045298024

> <PUBCHEM_SHAPE_MULTIPOLES>
223.48
5.05
1.65
0.62
1.52
0.24
0
0.01
0.03
-0.42
0.05
-0.07
-0.03
0.21

> <PUBCHEM_SHAPE_SELFOVERLAP>
475.87

> <PUBCHEM_SHAPE_VOLUME>
123.7

> <PUBCHEM_COORDINATE_TYPE>
2
5
10

$$$$

