5289462
  -OEChem-07051213033D

 52 53  0     1  0  0  0  0  0999 V2000
    0.0055    3.0382    0.3859 S   0  0  0  0  0  0  0  0  0  0  0  0
    3.9034   -0.7055   -0.8359 P   0  0  2  0  0  0  0  0  0  0  0  0
    2.8701   -0.7377    1.9181 P   0  0  0  0  0  0  0  0  0  0  0  0
    2.8736    0.4398   -1.3253 O   0  0  0  0  0  0  0  0  0  0  0  0
   -3.6321    1.5112    0.9477 O   0  0  0  0  0  0  0  0  0  0  0  0
   -2.9008    4.4815    1.7665 O   0  0  0  0  0  0  0  0  0  0  0  0
    3.9851   -0.5228    0.7684 O   0  0  0  0  0  0  0  0  0  0  0  0
    5.3517   -0.1918   -1.3417 O   0  0  0  0  0  0  0  0  0  0  0  0
    3.5501   -2.0955   -1.2796 O   0  0  0  0  0  0  0  0  0  0  0  0
    2.5970   -2.3303    1.8802 O   0  0  0  0  0  0  0  0  0  0  0  0
    3.7078   -0.5300    3.2846 O   0  0  0  0  0  0  0  0  0  0  0  0
    1.6512    0.1255    1.7775 O   0  0  0  0  0  0  0  0  0  0  0  0
   -1.4166    1.1988   -0.8968 N   0  0  0  0  0  0  0  0  0  0  0  0
   -3.0985   -3.2803   -0.3249 N   0  0  0  0  0  0  0  0  0  0  0  0
   -1.0823   -2.4947    0.7357 N   0  0  0  0  0  0  0  0  0  0  0  0
   -4.3548   -1.8342   -1.7230 N   0  0  0  0  0  0  0  0  0  0  0  0
   -0.2104    1.3547   -1.6070 C   0  0  0  0  0  0  0  0  0  0  0  0
    0.6421    2.2629   -1.0731 C   0  0  0  0  0  0  0  0  0  0  0  0
   -2.5072    0.3232   -1.2986 C   0  0  0  0  0  0  0  0  0  0  0  0
   -1.4703    2.0688    0.1948 C   0  0  0  0  0  0  0  0  0  0  0  0
    1.9987    2.6720   -1.5464 C   0  0  0  0  0  0  0  0  0  0  0  0
    0.0314    0.5594   -2.8536 C   0  0  0  0  0  0  0  0  0  0  0  0
   -2.3497   -1.0356   -0.6746 C   0  0  0  0  0  0  0  0  0  0  0  0
    3.1018    1.7966   -0.9677 C   0  0  0  0  0  0  0  0  0  0  0  0
   -2.4743    2.2520    1.0667 C   0  0  0  0  0  0  0  0  0  0  0  0
   -3.2365   -2.0596   -0.8828 C   0  0  0  0  0  0  0  0  0  0  0  0
   -2.4107    3.2207    2.2023 C   0  0  0  0  0  0  0  0  0  0  0  0
   -1.2822   -1.2981    0.1452 C   0  0  0  0  0  0  0  0  0  0  0  0
   -2.0150   -3.4265    0.4613 C   0  0  0  0  0  0  0  0  0  0  0  0
   -1.8282   -4.7628    1.0960 C   0  0  0  0  0  0  0  0  0  0  0  0
   -3.4907    0.7563   -1.1048 H   0  0  0  0  0  0  0  0  0  0  0  0
   -2.4922    0.1931   -2.3881 H   0  0  0  0  0  0  0  0  0  0  0  0
    2.1958    3.7230   -1.3022 H   0  0  0  0  0  0  0  0  0  0  0  0
    2.0327    2.6129   -2.6409 H   0  0  0  0  0  0  0  0  0  0  0  0
   -0.0342   -0.5139   -2.6495 H   0  0  0  0  0  0  0  0  0  0  0  0
   -0.7021    0.8187   -3.6238 H   0  0  0  0  0  0  0  0  0  0  0  0
    1.0194    0.7397   -3.2853 H   0  0  0  0  0  0  0  0  0  0  0  0
    3.1388    1.8876    0.1224 H   0  0  0  0  0  0  0  0  0  0  0  0
    4.0690    2.1138   -1.3707 H   0  0  0  0  0  0  0  0  0  0  0  0
   -0.5061   -0.5901    0.3971 H   0  0  0  0  0  0  0  0  0  0  0  0
   -3.0483    2.8764    3.0250 H   0  0  0  0  0  0  0  0  0  0  0  0
   -1.4150    3.3488    2.6357 H   0  0  0  0  0  0  0  0  0  0  0  0
   -4.2551    1.8104    1.6315 H   0  0  0  0  0  0  0  0  0  0  0  0
   -4.7588   -0.9074   -1.7626 H   0  0  0  0  0  0  0  0  0  0  0  0
   -4.9802   -2.6196   -1.8580 H   0  0  0  0  0  0  0  0  0  0  0  0
   -2.8824    5.0767    2.5352 H   0  0  0  0  0  0  0  0  0  0  0  0
   -2.0004   -5.5589    0.3650 H   0  0  0  0  0  0  0  0  0  0  0  0
   -0.8130   -4.8756    1.4892 H   0  0  0  0  0  0  0  0  0  0  0  0
   -2.5360   -4.8829    1.9215 H   0  0  0  0  0  0  0  0  0  0  0  0
    5.6040   -0.3329   -2.2790 H   0  0  0  0  0  0  0  0  0  0  0  0
    1.8831   -2.7032    2.4401 H   0  0  0  0  0  0  0  0  0  0  0  0
    3.2278   -0.5268    4.1401 H   0  0  0  0  0  0  0  0  0  0  0  0
  1 18  1  0  0  0  0
  1 20  1  0  0  0  0
  2  4  1  0  0  0  0
  2  7  1  0  0  0  0
  2  8  1  0  0  0  0
  2  9  2  0  0  0  0
  3  7  1  0  0  0  0
  3 10  1  0  0  0  0
  3 11  1  0  0  0  0
  3 12  2  0  0  0  0
  4 24  1  0  0  0  0
  5 25  1  0  0  0  0
  5 43  1  0  0  0  0
  6 27  1  0  0  0  0
  6 46  1  0  0  0  0
  8 50  1  0  0  0  0
 10 51  1  0  0  0  0
 11 52  1  0  0  0  0
 13 17  1  0  0  0  0
 13 19  1  0  0  0  0
 13 20  1  0  0  0  0
 14 26  2  0  0  0  0
 14 29  1  0  0  0  0
 15 28  1  0  0  0  0
 15 29  2  0  0  0  0
 16 26  1  0  0  0  0
 16 44  1  0  0  0  0
 16 45  1  0  0  0  0
 17 18  2  0  0  0  0
 17 22  1  0  0  0  0
 18 21  1  0  0  0  0
 19 23  1  0  0  0  0
 19 31  1  0  0  0  0
 19 32  1  0  0  0  0
 20 25  2  0  0  0  0
 21 24  1  0  0  0  0
 21 33  1  0  0  0  0
 21 34  1  0  0  0  0
 22 35  1  0  0  0  0
 22 36  1  0  0  0  0
 22 37  1  0  0  0  0
 23 26  1  0  0  0  0
 23 28  2  0  0  0  0
 24 38  1  0  0  0  0
 24 39  1  0  0  0  0
 25 27  1  0  0  0  0
 27 41  1  0  0  0  0
 27 42  1  0  0  0  0
 28 40  1  0  0  0  0
 29 30  1  0  0  0  0
 30 47  1  0  0  0  0
 30 48  1  0  0  0  0
 30 49  1  0  0  0  0
M  END
> <PUBCHEM_COMPOUND_CID>
5289462

> <PUBCHEM_CONFORMER_RMSD>
1

> <PUBCHEM_CONFORMER_DIVERSEORDER>
1
159
105
297
195
312
106
140
84
166
117
149
245
14
311
43
265
13
23
225
36
280
197
281
328
306
190
276
77
201
275
52
133
85
154
300
44
273
222
193
79
83
31
232
126
97
259
230
18
229
65
171
132
56
299
250
25
138
78
221
121
301
75
107
27
294
70
127
333
271
22
309
226
60
134
130
179
283
89
319
331
182
59
150
228
200
116
100
19
125
251
304
101
224
32
268
28
212
234
124
277
185
335
135
329
2
76
147
199
252
170
82
184
172
15
57
108
308
317
240
34
238
157
167
72
74
104
314
110
112
113
114
254
318
205
63
302
58
243
278
313
142
39
17
263
282
248
262
109
208
26
42
64
202
307
223
218
55
156
175
51
69
186
188
50
321
68
155
119
286
94
247
29
92
115
209
3
316
233
227
203
264
241
213
178
255
206
30
257
80
95
253
173
198
8
10
303
40
305
118
207
272
258
6
332
288
67
330
66
151
102
214
93
168
189
174
274
99
177
137
169
128
261
260
324
292
204
73
131
220
249
4
295
194
148
162
45
244
196
327
298
122
293
120
160
136
11
216
54
21
322
267
144
176
153
270
239
291
16
48
49
323
211
86
235
61
87
88
231
96
46
217
180
334
145
38
158
256
146
242
71
47
236
246
183
289
161
152
165
123
296
284
320
143
187
163
237
90
141
181
9
33
315
219
24
269
287
7
279
285
5
191
139
215
310
12
98
81
53
20
111
266
325
41
210
164
35
290
192
129
103
37
326
62
91

> <PUBCHEM_MMFF94_PARTIAL_CHARGES>
38
1 -0.2
10 -0.77
11 -0.77
12 -0.7
13 -0.57
14 -0.62
15 -0.62
16 -0.9
17 -0.04
18 -0.04
19 0.51
2 1.51
20 0.2
21 0.14
22 0.14
23 -0.14
24 0.28
25 -0.06
26 0.41
27 0.42
28 0.16
29 0.48
3 1.51
30 0.14
4 -0.55
40 0.15
43 0.45
44 0.4
45 0.4
46 0.4
5 -0.53
50 0.5
51 0.5
52 0.5
6 -0.68
7 -0.54
8 -0.77
9 -0.7

> <PUBCHEM_EFFECTIVE_ROTOR_COUNT>
9.4

> <PUBCHEM_PHARMACOPHORE_FEATURES>
15
1 10 acceptor
1 11 acceptor
1 12 acceptor
1 13 cation
1 16 donor
1 5 donor
1 6 acceptor
1 6 donor
1 8 acceptor
1 9 acceptor
3 14 15 29 cation
3 14 16 26 cation
4 3 10 11 12 anion
5 1 13 17 18 20 rings
6 14 15 23 26 28 29 rings

> <PUBCHEM_HEAVY_ATOM_COUNT>
30

> <PUBCHEM_ATOM_DEF_STEREO_COUNT>
0

> <PUBCHEM_ATOM_UDEF_STEREO_COUNT>
0

> <PUBCHEM_BOND_DEF_STEREO_COUNT>
1

> <PUBCHEM_BOND_UDEF_STEREO_COUNT>
0

> <PUBCHEM_ISOTOPIC_ATOM_COUNT>
0

> <PUBCHEM_COMPONENT_COUNT>
1

> <PUBCHEM_CACTVS_TAUTO_COUNT>
12

> <PUBCHEM_CONFORMER_ID>
0050B5F600000001

> <PUBCHEM_MMFF94_ENERGY>
27.6844

> <PUBCHEM_FEATURE_SELFOVERLAP>
76.298

> <PUBCHEM_SHAPE_FINGERPRINT>
1100329 8 18337098017536422441
11578080 2 15502640561095386601
12539773 59 16745711246747973807
12596599 1 18341898502208699300
12633257 1 18269551805485013774
12788726 201 18335135354762673005
14468879 13 16589460632872250240
14705955 166 17531243997596841641
14787075 74 17114656320592110860
15420108 30 17468469765618037077
17909252 39 18048291398781575254
17974551 9 17605556767720036324
20600515 1 18053414056997645451
20764821 26 17982737668935279126
20775530 9 17984420741642172942
20905425 154 17768818563218877398
23419403 2 17402107327793780621
23557571 272 18262814973045329146
23559900 14 18125725586618724524
238 59 16343428319357539600
3493558 16 12334357535349208174
35225 105 17750496529218507225
5309563 4 17541925508390448079

> <PUBCHEM_SHAPE_MULTIPOLES>
556.19
7.64
5.42
2.57
5.38
0.59
-0.82
3.99
0.55
-5.34
-2.8
1.26
-0.57
-2.59

> <PUBCHEM_SHAPE_SELFOVERLAP>
1111.381

> <PUBCHEM_SHAPE_VOLUME>
331.1

> <PUBCHEM_COORDINATE_TYPE>
2
5
10

$$$$

