3010886
  -OEChem-07051213082D

105105  0     1  0  0  0  0  0999 V2000
    5.4641    2.5000    0.0000 O   0  0  0  0  0  0  0  0  0  0  0  0
    6.3301   -2.0000    0.0000 O   0  0  0  0  0  0  0  0  0  0  0  0
    8.9282   -0.5000    0.0000 O   0  0  0  0  0  0  0  0  0  0  0  0
    4.5981   -1.0000    0.0000 O   0  0  0  0  0  0  0  0  0  0  0  0
    7.1962    3.5000    0.0000 O   0  0  0  0  0  0  0  0  0  0  0  0
   10.6603   -2.5000    0.0000 O   0  0  0  0  0  0  0  0  0  0  0  0
    3.7320    2.5000    0.0000 O   0  0  0  0  0  0  0  0  0  0  0  0
    7.1962   -3.5000    0.0000 O   0  0  0  0  0  0  0  0  0  0  0  0
    9.7942    1.0000    0.0000 O   0  0  0  0  0  0  0  0  0  0  0  0
    5.4641    0.5000    0.0000 N   0  0  0  0  0  0  0  0  0  0  0  0
    8.0622    2.0000    0.0000 N   0  0  0  0  0  0  0  0  0  0  0  0
    8.9282   -2.5000    0.0000 N   0  0  0  0  0  0  0  0  0  0  0  0
    4.5981    1.0000    0.0000 C   0  0  1  0  0  0  0  0  0  0  0  0
    8.0622    1.0000    0.0000 C   0  0  1  0  0  0  0  0  0  0  0  0
    8.0622   -2.0000    0.0000 C   0  0  1  0  0  0  0  0  0  0  0  0
    3.7320    0.5000    0.0000 C   0  0  0  0  0  0  0  0  0  0  0  0
    7.7201    0.0603    0.0000 C   0  0  0  0  0  0  0  0  0  0  0  0
    8.0622   -1.0000    0.0000 C   0  0  0  0  0  0  0  0  0  0  0  0
    6.3301   -1.0000    0.0000 C   0  0  2  0  0  0  0  0  0  0  0  0
    6.3301    2.0000    0.0000 C   0  0  2  0  0  0  0  0  0  0  0  0
    9.7942   -1.0000    0.0000 C   0  0  2  0  0  0  0  0  0  0  0  0
    2.8660    1.0000    0.0000 C   0  0  0  0  0  0  0  0  0  0  0  0
    7.3149   -1.1736    0.0000 C   0  0  0  0  0  0  0  0  0  0  0  0
    5.6874    1.2339    0.0000 C   0  0  0  0  0  0  0  0  0  0  0  0
   10.6603   -0.5000    0.0000 C   0  0  0  0  0  0  0  0  0  0  0  0
    5.4641   -0.5000    0.0000 C   0  0  0  0  0  0  0  0  0  0  0  0
    7.1962    2.5000    0.0000 C   0  0  0  0  0  0  0  0  0  0  0  0
    9.7942   -2.0000    0.0000 C   0  0  0  0  0  0  0  0  0  0  0  0
    4.5981    2.0000    0.0000 C   0  0  0  0  0  0  0  0  0  0  0  0
    7.1962   -2.5000    0.0000 C   0  0  0  0  0  0  0  0  0  0  0  0
    8.9282    0.5000    0.0000 C   0  0  0  0  0  0  0  0  0  0  0  0
    8.4862   -0.5825    0.0000 C   0  0  0  0  0  0  0  0  0  0  0  0
    6.7353   -0.1133    0.0000 C   0  0  0  0  0  0  0  0  0  0  0  0
    8.9282   -1.5000    0.0000 C   0  0  0  0  0  0  0  0  0  0  0  0
    7.1962   -0.5000    0.0000 C   0  0  0  0  0  0  0  0  0  0  0  0
    6.3301    1.0000    0.0000 C   0  0  0  0  0  0  0  0  0  0  0  0
    2.0000    0.5000    0.0000 C   0  0  0  0  0  0  0  0  0  0  0  0
    2.8660    2.0000    0.0000 C   0  0  0  0  0  0  0  0  0  0  0  0
    8.9282    2.5000    0.0000 C   0  0  0  0  0  0  0  0  0  0  0  0
    8.9282   -3.5000    0.0000 C   0  0  0  0  0  0  0  0  0  0  0  0
    6.7400   -2.1696    0.0000 C   0  0  0  0  0  0  0  0  0  0  0  0
    8.0541   -0.2927    0.0000 C   0  0  0  0  0  0  0  0  0  0  0  0
    5.1124    2.2299    0.0000 C   0  0  0  0  0  0  0  0  0  0  0  0
    6.0294    0.2943    0.0000 C   0  0  0  0  0  0  0  0  0  0  0  0
   11.5263   -1.0000    0.0000 C   0  0  0  0  0  0  0  0  0  0  0  0
   10.6603    0.5000    0.0000 C   0  0  0  0  0  0  0  0  0  0  0  0
    4.5981    0.3800    0.0000 H   0  0  0  0  0  0  0  0  0  0  0  0
    7.4516    1.1077    0.0000 H   0  0  0  0  0  0  0  0  0  0  0  0
    8.5991   -1.6900    0.0000 H   0  0  0  0  0  0  0  0  0  0  0  0
    3.3335    0.0251    0.0000 H   0  0  0  0  0  0  0  0  0  0  0  0
    4.1306    0.0251    0.0000 H   0  0  0  0  0  0  0  0  0  0  0  0
    7.5596   -0.5386    0.0000 H   0  0  0  0  0  0  0  0  0  0  0  0
    8.3722   -0.4631    0.0000 H   0  0  0  0  0  0  0  0  0  0  0  0
    6.7287   -1.4750    0.0000 H   0  0  0  0  0  0  0  0  0  0  0  0
    5.7196    1.8923    0.0000 H   0  0  0  0  0  0  0  0  0  0  0  0
    9.7942   -0.3800    0.0000 H   0  0  0  0  0  0  0  0  0  0  0  0
    2.8660    0.3800    0.0000 H   0  0  0  0  0  0  0  0  0  0  0  0
    7.8228   -1.5292    0.0000 H   0  0  0  0  0  0  0  0  0  0  0  0
    5.1255    0.9719    0.0000 H   0  0  0  0  0  0  0  0  0  0  0  0
   11.1972   -0.1900    0.0000 H   0  0  0  0  0  0  0  0  0  0  0  0
    6.6277    0.4973    0.0000 H   0  0  0  0  0  0  0  0  0  0  0  0
    6.1247   -0.2209    0.0000 H   0  0  0  0  0  0  0  0  0  0  0  0
    6.8429   -0.7239    0.0000 H   0  0  0  0  0  0  0  0  0  0  0  0
    8.0877   -1.0574    0.0000 H   0  0  0  0  0  0  0  0  0  0  0  0
    8.9612   -0.9810    0.0000 H   0  0  0  0  0  0  0  0  0  0  0  0
    8.8847   -0.1075    0.0000 H   0  0  0  0  0  0  0  0  0  0  0  0
    8.6182   -2.0369    0.0000 H   0  0  0  0  0  0  0  0  0  0  0  0
    9.4651   -1.8100    0.0000 H   0  0  0  0  0  0  0  0  0  0  0  0
    9.2382   -0.9631    0.0000 H   0  0  0  0  0  0  0  0  0  0  0  0
    7.5062    0.0369    0.0000 H   0  0  0  0  0  0  0  0  0  0  0  0
    6.6592   -0.1900    0.0000 H   0  0  0  0  0  0  0  0  0  0  0  0
    6.8862   -1.0369    0.0000 H   0  0  0  0  0  0  0  0  0  0  0  0
    6.6401    0.4631    0.0000 H   0  0  0  0  0  0  0  0  0  0  0  0
    6.8671    1.3100    0.0000 H   0  0  0  0  0  0  0  0  0  0  0  0
    6.0201    1.5369    0.0000 H   0  0  0  0  0  0  0  0  0  0  0  0
    3.4860    2.0000    0.0000 H   0  0  0  0  0  0  0  0  0  0  0  0
    2.8660    2.6200    0.0000 H   0  0  0  0  0  0  0  0  0  0  0  0
    2.2460    2.0000    0.0000 H   0  0  0  0  0  0  0  0  0  0  0  0
    1.6900    1.0369    0.0000 H   0  0  0  0  0  0  0  0  0  0  0  0
    1.4631    0.1900    0.0000 H   0  0  0  0  0  0  0  0  0  0  0  0
    2.3100   -0.0369    0.0000 H   0  0  0  0  0  0  0  0  0  0  0  0
    9.2382    1.9631    0.0000 H   0  0  0  0  0  0  0  0  0  0  0  0
    9.4651    2.8100    0.0000 H   0  0  0  0  0  0  0  0  0  0  0  0
    8.6182    3.0369    0.0000 H   0  0  0  0  0  0  0  0  0  0  0  0
    8.3082   -3.5000    0.0000 H   0  0  0  0  0  0  0  0  0  0  0  0
    8.9282   -4.1200    0.0000 H   0  0  0  0  0  0  0  0  0  0  0  0
    9.5482   -3.5000    0.0000 H   0  0  0  0  0  0  0  0  0  0  0  0
    8.5291   -0.6912    0.0000 H   0  0  0  0  0  0  0  0  0  0  0  0
    8.4527    0.1823    0.0000 H   0  0  0  0  0  0  0  0  0  0  0  0
    7.5792    0.1058    0.0000 H   0  0  0  0  0  0  0  0  0  0  0  0
    6.2030   -1.8596    0.0000 H   0  0  0  0  0  0  0  0  0  0  0  0
    6.4300   -2.7066    0.0000 H   0  0  0  0  0  0  0  0  0  0  0  0
    7.2770   -2.4796    0.0000 H   0  0  0  0  0  0  0  0  0  0  0  0
    5.4467    0.0822    0.0000 H   0  0  0  0  0  0  0  0  0  0  0  0
    6.2414   -0.2884    0.0000 H   0  0  0  0  0  0  0  0  0  0  0  0
    6.6120    0.5063    0.0000 H   0  0  0  0  0  0  0  0  0  0  0  0
    5.6493    2.5399    0.0000 H   0  0  0  0  0  0  0  0  0  0  0  0
    4.8024    2.7668    0.0000 H   0  0  0  0  0  0  0  0  0  0  0  0
    4.5755    1.9199    0.0000 H   0  0  0  0  0  0  0  0  0  0  0  0
   11.2803    0.5000    0.0000 H   0  0  0  0  0  0  0  0  0  0  0  0
   10.6603    1.1200    0.0000 H   0  0  0  0  0  0  0  0  0  0  0  0
   10.0403    0.5000    0.0000 H   0  0  0  0  0  0  0  0  0  0  0  0
   11.2163   -1.5369    0.0000 H   0  0  0  0  0  0  0  0  0  0  0  0
   12.0632   -1.3100    0.0000 H   0  0  0  0  0  0  0  0  0  0  0  0
   11.8363   -0.4631    0.0000 H   0  0  0  0  0  0  0  0  0  0  0  0
  1 20  1  0  0  0  0
  1 29  1  0  0  0  0
  2 19  1  0  0  0  0
  2 30  1  0  0  0  0
  3 21  1  0  0  0  0
  3 31  1  0  0  0  0
  4 26  2  0  0  0  0
  5 27  2  0  0  0  0
  6 28  2  0  0  0  0
  7 29  2  0  0  0  0
  8 30  2  0  0  0  0
  9 31  2  0  0  0  0
 10 13  1  0  0  0  0
 10 26  1  0  0  0  0
 10 36  1  0  0  0  0
 11 14  1  0  0  0  0
 11 27  1  0  0  0  0
 11 39  1  0  0  0  0
 12 15  1  0  0  0  0
 12 28  1  0  0  0  0
 12 40  1  0  0  0  0
 13 16  1  1  0  0  0
 13 29  1  0  0  0  0
 13 47  1  0  0  0  0
 14 17  1  6  0  0  0
 14 31  1  0  0  0  0
 14 48  1  0  0  0  0
 15 18  1  6  0  0  0
 15 30  1  0  0  0  0
 15 49  1  0  0  0  0
 16 22  1  0  0  0  0
 16 50  1  0  0  0  0
 16 51  1  0  0  0  0
 17 32  1  0  0  0  0
 17 33  1  0  0  0  0
 17 52  1  0  0  0  0
 18 34  1  0  0  0  0
 18 35  1  0  0  0  0
 18 53  1  0  0  0  0
 19 23  1  1  0  0  0
 19 26  1  0  0  0  0
 19 54  1  0  0  0  0
 20 24  1  1  0  0  0
 20 27  1  0  0  0  0
 20 55  1  0  0  0  0
 21 25  1  6  0  0  0
 21 28  1  0  0  0  0
 21 56  1  0  0  0  0
 22 37  1  0  0  0  0
 22 38  1  0  0  0  0
 22 57  1  0  0  0  0
 23 41  1  0  0  0  0
 23 42  1  0  0  0  0
 23 58  1  0  0  0  0
 24 43  1  0  0  0  0
 24 44  1  0  0  0  0
 24 59  1  0  0  0  0
 25 45  1  0  0  0  0
 25 46  1  0  0  0  0
 25 60  1  0  0  0  0
 32 64  1  0  0  0  0
 32 65  1  0  0  0  0
 32 66  1  0  0  0  0
 33 61  1  0  0  0  0
 33 62  1  0  0  0  0
 33 63  1  0  0  0  0
 34 67  1  0  0  0  0
 34 68  1  0  0  0  0
 34 69  1  0  0  0  0
 35 70  1  0  0  0  0
 35 71  1  0  0  0  0
 35 72  1  0  0  0  0
 36 73  1  0  0  0  0
 36 74  1  0  0  0  0
 36 75  1  0  0  0  0
 37 79  1  0  0  0  0
 37 80  1  0  0  0  0
 37 81  1  0  0  0  0
 38 76  1  0  0  0  0
 38 77  1  0  0  0  0
 38 78  1  0  0  0  0
 39 82  1  0  0  0  0
 39 83  1  0  0  0  0
 39 84  1  0  0  0  0
 40 85  1  0  0  0  0
 40 86  1  0  0  0  0
 40 87  1  0  0  0  0
 41 91  1  0  0  0  0
 41 92  1  0  0  0  0
 41 93  1  0  0  0  0
 42 88  1  0  0  0  0
 42 89  1  0  0  0  0
 42 90  1  0  0  0  0
 43 97  1  0  0  0  0
 43 98  1  0  0  0  0
 43 99  1  0  0  0  0
 44 94  1  0  0  0  0
 44 95  1  0  0  0  0
 44 96  1  0  0  0  0
 45103  1  0  0  0  0
 45104  1  0  0  0  0
 45105  1  0  0  0  0
 46100  1  0  0  0  0
 46101  1  0  0  0  0
 46102  1  0  0  0  0
M  END
> <PUBCHEM_COMPOUND_CID>
3010886

> <PUBCHEM_COMPOUND_CANONICALIZED>
1

> <PUBCHEM_CACTVS_COMPLEXITY>
1100

> <PUBCHEM_CACTVS_HBOND_ACCEPTOR>
9

> <PUBCHEM_CACTVS_HBOND_DONOR>
0

> <PUBCHEM_CACTVS_ROTATABLE_BOND>
7

> <PUBCHEM_CACTVS_SUBSKEYS>
AAADcfB/PAAAAAAAAAAAAAAAAAAAAAAAAAAAAAAAAAAAAAAAAAAAHgAAAAAADTzhgAYCCAMABAAIAAGQGAIAAAAAAAAAAAHIAAACABIAgCQHAAAEBgCQAACIAAAMAAAAAAAAAAAAAAAAAAAAAAAAAAAAAA==

> <PUBCHEM_IUPAC_OPENEYE_NAME>
(3S,6R,9S,12R,15S,18R)-3-isobutyl-6,9,12,15,18-pentaisopropyl-4,10,16-trimethyl-1,7,13-trioxa-4,10,16-triazacyclooctadecane-2,5,8,11,14,17-hexone

> <PUBCHEM_IUPAC_CAS_NAME>
(3S,6R,9S,12R,15S,18R)-4,10,16-trimethyl-3-(2-methylpropyl)-6,9,12,15,18-penta(propan-2-yl)-1,7,13-trioxa-4,10,16-triazacyclooctadecane-2,5,8,11,14,17-hexone

> <PUBCHEM_IUPAC_NAME>
(3S,6R,9S,12R,15S,18R)-4,10,16-trimethyl-3-(2-methylpropyl)-6,9,12,15,18-penta(propan-2-yl)-1,7,13-trioxa-4,10,16-triazacyclooctadecane-2,5,8,11,14,17-hexone

> <PUBCHEM_IUPAC_SYSTEMATIC_NAME>
(3S,6R,9S,12R,15S,18R)-4,10,16-trimethyl-3-(2-methylpropyl)-6,9,12,15,18-penta(propan-2-yl)-1,7,13-trioxa-4,10,16-triazacyclooctadecane-2,5,8,11,14,17-hexone

> <PUBCHEM_IUPAC_TRADITIONAL_NAME>
(3S,6R,9S,12R,15S,18R)-3-isobutyl-6,9,12,15,18-pentaisopropyl-4,10,16-trimethyl-1,7,13-trioxa-4,10,16-triazacyclooctadecane-2,5,8,11,14,17-triquinone

> <PUBCHEM_IUPAC_INCHI>
InChI=1S/C34H59N3O9/c1-17(2)16-23-32(41)44-27(21(9)10)30(39)36(14)25(19(5)6)34(43)46-28(22(11)12)31(40)37(15)24(18(3)4)33(42)45-26(20(7)8)29(38)35(23)13/h17-28H,16H2,1-15H3/t23-,24-,25-,26+,27+,28+/m0/s1

> <PUBCHEM_IUPAC_INCHIKEY>
PKDCQKBQAKLZBD-SCUYQTRWSA-N

> <PUBCHEM_XLOGP3_AA>
6.9

> <PUBCHEM_EXACT_MASS>
653.42513

> <PUBCHEM_MOLECULAR_FORMULA>
C34H59N3O9

> <PUBCHEM_MOLECULAR_WEIGHT>
653.84696

> <PUBCHEM_OPENEYE_CAN_SMILES>
CC(C)CC1C(=O)OC(C(=O)N(C(C(=O)OC(C(=O)N(C(C(=O)OC(C(=O)N1C)C(C)C)C(C)C)C)C(C)C)C(C)C)C)C(C)C

> <PUBCHEM_OPENEYE_ISO_SMILES>
CC(C)C[C@H]1C(=O)O[C@@H](C(=O)N([C@H](C(=O)O[C@@H](C(=O)N([C@H](C(=O)O[C@@H](C(=O)N1C)C(C)C)C(C)C)C)C(C)C)C(C)C)C)C(C)C

> <PUBCHEM_CACTVS_TPSA>
140

> <PUBCHEM_MONOISOTOPIC_WEIGHT>
653.42513

> <PUBCHEM_TOTAL_CHARGE>
0

> <PUBCHEM_HEAVY_ATOM_COUNT>
46

> <PUBCHEM_ATOM_DEF_STEREO_COUNT>
6

> <PUBCHEM_ATOM_UDEF_STEREO_COUNT>
0

> <PUBCHEM_BOND_DEF_STEREO_COUNT>
0

> <PUBCHEM_BOND_UDEF_STEREO_COUNT>
0

> <PUBCHEM_ISOTOPIC_ATOM_COUNT>
0

> <PUBCHEM_COMPONENT_COUNT>
1

> <PUBCHEM_CACTVS_TAUTO_COUNT>
64

> <PUBCHEM_COORDINATE_TYPE>
1
5
255

> <PUBCHEM_BONDANNOTATIONS>
13  16  5
14  17  6
15  18  6
19  23  5
20  24  5
21  25  6

$$$$

