7638
  -OEChem-07051213042D

 27 28  0     0  0  0  0  0  0999 V2000
    2.8660    0.4050    0.0000 O   0  0  0  0  0  0  0  0  0  0  0  0
    2.8660   -3.5950    0.0000 O   0  0  0  0  0  0  0  0  0  0  0  0
    3.7320    1.9050    0.0000 C   0  0  0  0  0  0  0  0  0  0  0  0
    3.7320    0.9050    0.0000 C   0  0  0  0  0  0  0  0  0  0  0  0
    2.8660   -0.5950    0.0000 C   0  0  0  0  0  0  0  0  0  0  0  0
    2.8660    2.4050    0.0000 C   0  0  0  0  0  0  0  0  0  0  0  0
    4.5981    2.4050    0.0000 C   0  0  0  0  0  0  0  0  0  0  0  0
    2.0000   -1.0950    0.0000 C   0  0  0  0  0  0  0  0  0  0  0  0
    3.7320   -1.0950    0.0000 C   0  0  0  0  0  0  0  0  0  0  0  0
    2.8660    3.4050    0.0000 C   0  0  0  0  0  0  0  0  0  0  0  0
    4.5981    3.4050    0.0000 C   0  0  0  0  0  0  0  0  0  0  0  0
    3.7320    3.9050    0.0000 C   0  0  0  0  0  0  0  0  0  0  0  0
    2.0000   -2.0950    0.0000 C   0  0  0  0  0  0  0  0  0  0  0  0
    3.7320   -2.0950    0.0000 C   0  0  0  0  0  0  0  0  0  0  0  0
    2.8660   -2.5950    0.0000 C   0  0  0  0  0  0  0  0  0  0  0  0
    3.9441    0.3224    0.0000 H   0  0  0  0  0  0  0  0  0  0  0  0
    4.3426    1.0127    0.0000 H   0  0  0  0  0  0  0  0  0  0  0  0
    2.3291    2.0950    0.0000 H   0  0  0  0  0  0  0  0  0  0  0  0
    5.1350    2.0950    0.0000 H   0  0  0  0  0  0  0  0  0  0  0  0
    1.4631   -0.7850    0.0000 H   0  0  0  0  0  0  0  0  0  0  0  0
    4.2690   -0.7850    0.0000 H   0  0  0  0  0  0  0  0  0  0  0  0
    2.3291    3.7150    0.0000 H   0  0  0  0  0  0  0  0  0  0  0  0
    5.1350    3.7150    0.0000 H   0  0  0  0  0  0  0  0  0  0  0  0
    1.4631   -2.4050    0.0000 H   0  0  0  0  0  0  0  0  0  0  0  0
    4.2690   -2.4050    0.0000 H   0  0  0  0  0  0  0  0  0  0  0  0
    3.7320    4.5250    0.0000 H   0  0  0  0  0  0  0  0  0  0  0  0
    2.3291   -3.9050    0.0000 H   0  0  0  0  0  0  0  0  0  0  0  0
  1  4  1  0  0  0  0
  1  5  1  0  0  0  0
  2 15  1  0  0  0  0
  2 27  1  0  0  0  0
  3  4  1  0  0  0  0
  3  6  2  0  0  0  0
  3  7  1  0  0  0  0
  4 16  1  0  0  0  0
  4 17  1  0  0  0  0
  5  8  2  0  0  0  0
  5  9  1  0  0  0  0
  6 10  1  0  0  0  0
  6 18  1  0  0  0  0
  7 11  2  0  0  0  0
  7 19  1  0  0  0  0
  8 13  1  0  0  0  0
  8 20  1  0  0  0  0
  9 14  2  0  0  0  0
  9 21  1  0  0  0  0
 10 12  2  0  0  0  0
 10 22  1  0  0  0  0
 11 12  1  0  0  0  0
 11 23  1  0  0  0  0
 12 26  1  0  0  0  0
 13 15  2  0  0  0  0
 13 24  1  0  0  0  0
 14 15  1  0  0  0  0
 14 25  1  0  0  0  0
M  END
> <PUBCHEM_COMPOUND_CID>
7638

> <PUBCHEM_COMPOUND_CANONICALIZED>
1

> <PUBCHEM_CACTVS_COMPLEXITY>
167

> <PUBCHEM_CACTVS_HBOND_ACCEPTOR>
2

> <PUBCHEM_CACTVS_HBOND_DONOR>
1

> <PUBCHEM_CACTVS_ROTATABLE_BOND>
3

> <PUBCHEM_CACTVS_SUBSKEYS>
AAADccBwMAAAAAAAAAAAAAAAAAAAAAAAAAAwYAAAAAAAAAABQAAAGgAACAAADASgmAIwBoAABgCAAiBCAAACCAAgIAAIiAAGCIgMJiKGMRqCeCCkwBEIuAfAwCAOAQAAAAAAAAACAAAAAAAAAAAAAAAAAA==

> <PUBCHEM_IUPAC_OPENEYE_NAME>
4-benzyloxyphenol

> <PUBCHEM_IUPAC_CAS_NAME>
4-phenylmethoxyphenol

> <PUBCHEM_IUPAC_NAME>
4-phenylmethoxyphenol

> <PUBCHEM_IUPAC_SYSTEMATIC_NAME>
4-phenylmethoxyphenol

> <PUBCHEM_IUPAC_TRADITIONAL_NAME>
4-benzoxyphenol

> <PUBCHEM_IUPAC_INCHI>
InChI=1S/C13H12O2/c14-12-6-8-13(9-7-12)15-10-11-4-2-1-3-5-11/h1-9,14H,10H2

> <PUBCHEM_IUPAC_INCHIKEY>
VYQNWZOUAUKGHI-UHFFFAOYSA-N

> <PUBCHEM_XLOGP3>
3.4

> <PUBCHEM_EXACT_MASS>
200.08373

> <PUBCHEM_MOLECULAR_FORMULA>
C13H12O2

> <PUBCHEM_MOLECULAR_WEIGHT>
200.23318

> <PUBCHEM_OPENEYE_CAN_SMILES>
C1=CC=C(C=C1)COC2=CC=C(C=C2)O

> <PUBCHEM_OPENEYE_ISO_SMILES>
C1=CC=C(C=C1)COC2=CC=C(C=C2)O

> <PUBCHEM_CACTVS_TPSA>
29.5

> <PUBCHEM_MONOISOTOPIC_WEIGHT>
200.08373

> <PUBCHEM_TOTAL_CHARGE>
0

> <PUBCHEM_HEAVY_ATOM_COUNT>
15

> <PUBCHEM_ATOM_DEF_STEREO_COUNT>
0

> <PUBCHEM_ATOM_UDEF_STEREO_COUNT>
0

> <PUBCHEM_BOND_DEF_STEREO_COUNT>
0

> <PUBCHEM_BOND_UDEF_STEREO_COUNT>
0

> <PUBCHEM_ISOTOPIC_ATOM_COUNT>
0

> <PUBCHEM_COMPONENT_COUNT>
1

> <PUBCHEM_CACTVS_TAUTO_COUNT>
2

> <PUBCHEM_COORDINATE_TYPE>
1
5
255

> <PUBCHEM_BONDANNOTATIONS>
10  12  8
11  12  8
13  15  8
14  15  8
3  6  8
3  7  8
5  8  8
5  9  8
6  10  8
7  11  8
8  13  8
9  14  8

$$$$

