3080551
  -OEChem-07051213153D

 42 43  0     1  0  0  0  0  0999 V2000
    3.7690   -1.2196    0.4994 O   0  0  0  0  0  0  0  0  0  0  0  0
    0.0708   -0.6216   -0.2440 C   0  0  1  0  0  0  0  0  0  0  0  0
   -0.8145    0.5784    0.2581 C   0  0  2  0  0  0  0  0  0  0  0  0
   -2.3764    0.4075    0.1852 C   0  0  0  0  0  0  0  0  0  0  0  0
    1.5406   -0.3783    0.3159 C   0  0  2  0  0  0  0  0  0  0  0  0
   -0.4868   -1.9482    0.3365 C   0  0  0  0  0  0  0  0  0  0  0  0
   -2.7737   -0.9827    0.7360 C   0  0  0  0  0  0  0  0  0  0  0  0
   -0.2980    1.9091   -0.3273 C   0  0  0  0  0  0  0  0  0  0  0  0
   -1.9852   -2.1303    0.1207 C   0  0  0  0  0  0  0  0  0  0  0  0
    0.1217   -0.7381   -1.7884 C   0  0  0  0  0  0  0  0  0  0  0  0
    2.0311    1.0570    0.1081 C   0  0  0  0  0  0  0  0  0  0  0  0
   -3.0511    1.4650    1.0991 C   0  0  0  0  0  0  0  0  0  0  0  0
   -2.9880    0.6044   -1.2160 C   0  0  0  0  0  0  0  0  0  0  0  0
    1.1888    2.0587   -0.2022 C   0  0  0  0  0  0  0  0  0  0  0  0
    2.5597   -1.4103   -0.2027 C   0  0  0  0  0  0  0  0  0  0  0  0
    3.4921    1.3489    0.3217 C   0  0  0  0  0  0  0  0  0  0  0  0
   -0.6071    0.6353    1.3410 H   0  0  0  0  0  0  0  0  0  0  0  0
    1.5009   -0.4976    1.4101 H   0  0  0  0  0  0  0  0  0  0  0  0
   -0.2883   -1.9873    1.4159 H   0  0  0  0  0  0  0  0  0  0  0  0
    0.0305   -2.8101   -0.1008 H   0  0  0  0  0  0  0  0  0  0  0  0
   -3.8458   -1.1611    0.5823 H   0  0  0  0  0  0  0  0  0  0  0  0
   -2.6160   -1.0040    1.8231 H   0  0  0  0  0  0  0  0  0  0  0  0
   -0.7586    2.7490    0.2039 H   0  0  0  0  0  0  0  0  0  0  0  0
   -0.5636    2.0145   -1.3840 H   0  0  0  0  0  0  0  0  0  0  0  0
   -2.2134   -2.2296   -0.9453 H   0  0  0  0  0  0  0  0  0  0  0  0
   -2.3001   -3.0702    0.5897 H   0  0  0  0  0  0  0  0  0  0  0  0
    0.6851   -1.6248   -2.0999 H   0  0  0  0  0  0  0  0  0  0  0  0
   -0.8625   -0.8499   -2.2379 H   0  0  0  0  0  0  0  0  0  0  0  0
    0.5998    0.1260   -2.2589 H   0  0  0  0  0  0  0  0  0  0  0  0
   -4.1309    1.2889    1.1746 H   0  0  0  0  0  0  0  0  0  0  0  0
   -2.9168    2.4810    0.7141 H   0  0  0  0  0  0  0  0  0  0  0  0
   -2.6438    1.4333    2.1159 H   0  0  0  0  0  0  0  0  0  0  0  0
   -2.7173    1.5715   -1.6499 H   0  0  0  0  0  0  0  0  0  0  0  0
   -4.0839    0.5819   -1.1625 H   0  0  0  0  0  0  0  0  0  0  0  0
   -2.7096   -0.1766   -1.9219 H   0  0  0  0  0  0  0  0  0  0  0  0
    1.5765    3.0640   -0.3491 H   0  0  0  0  0  0  0  0  0  0  0  0
    2.7720   -1.2751   -1.2675 H   0  0  0  0  0  0  0  0  0  0  0  0
    2.2326   -2.4404   -0.0413 H   0  0  0  0  0  0  0  0  0  0  0  0
    3.8218    1.0220    1.3127 H   0  0  0  0  0  0  0  0  0  0  0  0
    3.6874    2.4281    0.2881 H   0  0  0  0  0  0  0  0  0  0  0  0
    4.1121    0.9117   -0.4663 H   0  0  0  0  0  0  0  0  0  0  0  0
    3.6092   -1.4451    1.4319 H   0  0  0  0  0  0  0  0  0  0  0  0
  1 15  1  0  0  0  0
  1 42  1  0  0  0  0
  2  3  1  0  0  0  0
  2  5  1  0  0  0  0
  2  6  1  0  0  0  0
  2 10  1  0  0  0  0
  3  4  1  0  0  0  0
  3  8  1  0  0  0  0
  3 17  1  0  0  0  0
  4  7  1  0  0  0  0
  4 12  1  0  0  0  0
  4 13  1  0  0  0  0
  5 11  1  0  0  0  0
  5 15  1  0  0  0  0
  5 18  1  0  0  0  0
  6  9  1  0  0  0  0
  6 19  1  0  0  0  0
  6 20  1  0  0  0  0
  7  9  1  0  0  0  0
  7 21  1  0  0  0  0
  7 22  1  0  0  0  0
  8 14  1  0  0  0  0
  8 23  1  0  0  0  0
  8 24  1  0  0  0  0
  9 25  1  0  0  0  0
  9 26  1  0  0  0  0
 10 27  1  0  0  0  0
 10 28  1  0  0  0  0
 10 29  1  0  0  0  0
 11 14  2  0  0  0  0
 11 16  1  0  0  0  0
 12 30  1  0  0  0  0
 12 31  1  0  0  0  0
 12 32  1  0  0  0  0
 13 33  1  0  0  0  0
 13 34  1  0  0  0  0
 13 35  1  0  0  0  0
 14 36  1  0  0  0  0
 15 37  1  0  0  0  0
 15 38  1  0  0  0  0
 16 39  1  0  0  0  0
 16 40  1  0  0  0  0
 16 41  1  0  0  0  0
M  END
> <PUBCHEM_COMPOUND_CID>
3080551

> <PUBCHEM_CONFORMER_RMSD>
0.6

> <PUBCHEM_CONFORMER_DIVERSEORDER>
2
1

> <PUBCHEM_MMFF94_PARTIAL_CHARGES>
9
1 -0.68
11 -0.28
14 -0.29
15 0.28
16 0.14
36 0.15
42 0.4
5 0.14
8 0.14

> <PUBCHEM_EFFECTIVE_ROTOR_COUNT>
2.2

> <PUBCHEM_PHARMACOPHORE_FEATURES>
5
1 1 acceptor
1 1 donor
3 4 12 13 hydrophobe
6 2 3 4 6 7 9 rings
6 2 3 5 8 11 14 rings

> <PUBCHEM_HEAVY_ATOM_COUNT>
16

> <PUBCHEM_ATOM_DEF_STEREO_COUNT>
3

> <PUBCHEM_ATOM_UDEF_STEREO_COUNT>
0

> <PUBCHEM_BOND_DEF_STEREO_COUNT>
0

> <PUBCHEM_BOND_UDEF_STEREO_COUNT>
0

> <PUBCHEM_ISOTOPIC_ATOM_COUNT>
0

> <PUBCHEM_COMPONENT_COUNT>
1

> <PUBCHEM_CACTVS_TAUTO_COUNT>
1

> <PUBCHEM_CONFORMER_ID>
002F016700000002

> <PUBCHEM_MMFF94_ENERGY>
56.3598

> <PUBCHEM_FEATURE_SELFOVERLAP>
25.386

> <PUBCHEM_SHAPE_FINGERPRINT>
10863032 1 18410293584032609194
10967382 1 18339641264581236930
11132069 177 18412553102171661192
11680986 33 18410575054730267698
12251169 10 18338227176811597169
12382932 28 18411705348541778040
12423570 1 14582467744509671535
12491281 212 18410845547364845905
12696612 119 18339913810263007836
12932764 1 17704072923210529371
13140716 1 18411979182608125986
13172582 1 18338510945211146985
13214271 11 18338809896831843052
13380535 21 18339914931650301244
13464514 151 17552376770508741117
13571099 22 18411990151843764917
14144814 61 18410291397936583544
14223421 5 18126564518190628330
15076042 46 18260827102860735760
15219456 202 18412263913069657362
15375462 189 17845936350586647378
15375462 478 18118121372859420975
15442244 35 18410291419548531098
15536298 74 18334293150341111208
15775835 57 18272362053799430449
16945 1 18267585886762322866
17804303 29 18338227280133645494
17834069 15 18412261722636284472
18186145 218 18410851105094711740
200 152 18115316553505173847
20511035 2 18187927235739836812
20525323 117 18263928730657476507
21130352 189 18340772627770947564
21501502 16 18338511945901662034
22445834 79 18340484448292213770
2334 1 18340204081448869674
23388829 49 17975981955459710023
23402539 116 18260840327698029951
23419403 2 15376934461173635045
23463225 33 18412543176470630432
23559900 14 18337951303311322214
25 1 17912661386413084613
2748010 2 18411978040036003111
5084963 1 18115319993214633081
598444 67 18270118061983062311
7364860 26 18263922151221357176
74978 22 18412262826442886003
84936 31 16010146703908521982

> <PUBCHEM_SHAPE_MULTIPOLES>
323.4
5.28
2.34
1.07
1.72
0.09
0.37
-0.3
-1.03
0.08
-0.16
-0.49
0.02
0

> <PUBCHEM_SHAPE_SELFOVERLAP>
659.252

> <PUBCHEM_SHAPE_VOLUME>
186.4

> <PUBCHEM_COORDINATE_TYPE>
2
5
10

$$$$

