5317657
  -OEChem-07051213113D

 67 70  0     1  0  0  0  0  0999 V2000
    3.6280   -0.8128    0.5288 O   0  0  0  0  0  0  0  0  0  0  0  0
    0.5134   -1.4459   -1.3067 O   0  0  0  0  0  0  0  0  0  0  0  0
    2.0076   -3.9627   -1.5678 O   0  0  0  0  0  0  0  0  0  0  0  0
    3.5928   -4.4656    0.7858 O   0  0  0  0  0  0  0  0  0  0  0  0
    0.6605    1.3783    1.2014 O   0  0  0  0  0  0  0  0  0  0  0  0
    6.1120   -2.0407    0.6121 O   0  0  0  0  0  0  0  0  0  0  0  0
    3.8331    0.2806   -2.1725 O   0  0  0  0  0  0  0  0  0  0  0  0
   -0.0553   -1.8625    0.8934 O   0  0  0  0  0  0  0  0  0  0  0  0
    0.3612    5.2287   -0.0964 O   0  0  0  0  0  0  0  0  0  0  0  0
   -2.8980    1.5707    1.5667 O   0  0  0  0  0  0  0  0  0  0  0  0
   -8.1156   -0.7101   -1.3990 O   0  0  0  0  0  0  0  0  0  0  0  0
    1.8960   -1.6175   -0.9960 C   0  0  2  0  0  0  0  0  0  0  0  0
    2.1177   -3.0421   -0.4807 C   0  0  2  0  0  0  0  0  0  0  0  0
    2.2937   -0.5807    0.0658 C   0  0  2  0  0  0  0  0  0  0  0  0
    3.5085   -3.2013    0.1332 C   0  0  1  0  0  0  0  0  0  0  0  0
    3.7844   -2.0903    1.1480 C   0  0  1  0  0  0  0  0  0  0  0  0
    2.2339    0.8350   -0.4739 C   0  0  0  0  0  0  0  0  0  0  0  0
    5.2067   -2.1637    1.6939 C   0  0  0  0  0  0  0  0  0  0  0  0
    1.4046    1.7863    0.1232 C   0  0  0  0  0  0  0  0  0  0  0  0
    3.0144    1.1922   -1.5751 C   0  0  0  0  0  0  0  0  0  0  0  0
    1.3581    3.0858   -0.3801 C   0  0  0  0  0  0  0  0  0  0  0  0
    2.1380    3.4455   -1.4816 C   0  0  0  0  0  0  0  0  0  0  0  0
    2.9663    2.4935   -2.0773 C   0  0  0  0  0  0  0  0  0  0  0  0
   -0.3472   -1.5981   -0.2621 C   0  0  0  0  0  0  0  0  0  0  0  0
    0.4746    4.0669    0.2689 C   0  0  0  0  0  0  0  0  0  0  0  0
   -0.1725    2.3007    1.8139 C   0  0  0  0  0  0  0  0  0  0  0  0
    2.1426    4.8155   -2.0779 C   0  0  0  0  0  0  0  0  0  0  0  0
   -0.3034    3.5769    1.4230 C   0  0  0  0  0  0  0  0  0  0  0  0
   -0.9310    1.7391    2.9748 C   0  0  0  0  0  0  0  0  0  0  0  0
   -1.7202   -1.3867   -0.7744 C   0  0  0  0  0  0  0  0  0  0  0  0
   -2.2616    1.1587    2.5358 C   0  0  0  0  0  0  0  0  0  0  0  0
   -2.7598   -1.4713    0.0677 C   0  0  0  0  0  0  0  0  0  0  0  0
   -4.1677   -1.2715   -0.3184 C   0  0  0  0  0  0  0  0  0  0  0  0
   -2.7708    0.0032    3.3590 C   0  0  0  0  0  0  0  0  0  0  0  0
   -4.4605   -0.5833   -1.4844 C   0  0  0  0  0  0  0  0  0  0  0  0
   -5.1714   -1.7755    0.4930 C   0  0  0  0  0  0  0  0  0  0  0  0
   -5.7935   -0.3939   -1.8492 C   0  0  0  0  0  0  0  0  0  0  0  0
   -6.5042   -1.5861    0.1281 C   0  0  0  0  0  0  0  0  0  0  0  0
   -6.8154   -0.8953   -1.0431 C   0  0  0  0  0  0  0  0  0  0  0  0
    2.4310   -1.5239   -1.9427 H   0  0  0  0  0  0  0  0  0  0  0  0
    1.3827   -3.3932    0.2443 H   0  0  0  0  0  0  0  0  0  0  0  0
    1.6909   -0.6325    0.9692 H   0  0  0  0  0  0  0  0  0  0  0  0
    4.2519   -3.1999   -0.6727 H   0  0  0  0  0  0  0  0  0  0  0  0
    3.0977   -2.1663    2.0014 H   0  0  0  0  0  0  0  0  0  0  0  0
    5.3988   -3.1092    2.2089 H   0  0  0  0  0  0  0  0  0  0  0  0
    5.4019   -1.3408    2.3892 H   0  0  0  0  0  0  0  0  0  0  0  0
    1.1249   -3.8450   -1.9588 H   0  0  0  0  0  0  0  0  0  0  0  0
    2.9476   -4.4735    1.5133 H   0  0  0  0  0  0  0  0  0  0  0  0
    3.5825    2.7512   -2.9357 H   0  0  0  0  0  0  0  0  0  0  0  0
    5.9285   -1.1944    0.1693 H   0  0  0  0  0  0  0  0  0  0  0  0
    1.1487    5.0806   -2.4526 H   0  0  0  0  0  0  0  0  0  0  0  0
    2.4862    5.5565   -1.3489 H   0  0  0  0  0  0  0  0  0  0  0  0
    2.8242    4.8852   -2.9338 H   0  0  0  0  0  0  0  0  0  0  0  0
   -0.9664    4.2717    1.9254 H   0  0  0  0  0  0  0  0  0  0  0  0
    4.1432   -0.3550   -1.5059 H   0  0  0  0  0  0  0  0  0  0  0  0
   -1.1341    2.5062    3.7307 H   0  0  0  0  0  0  0  0  0  0  0  0
   -0.3342    0.9565    3.4574 H   0  0  0  0  0  0  0  0  0  0  0  0
   -1.8217   -1.1681   -1.8309 H   0  0  0  0  0  0  0  0  0  0  0  0
   -2.5942   -1.7337    1.1082 H   0  0  0  0  0  0  0  0  0  0  0  0
   -2.8682    0.3171    4.4016 H   0  0  0  0  0  0  0  0  0  0  0  0
   -3.7546   -0.3061    2.9973 H   0  0  0  0  0  0  0  0  0  0  0  0
   -2.0776   -0.8378    3.2860 H   0  0  0  0  0  0  0  0  0  0  0  0
   -3.6996   -0.1567   -2.1301 H   0  0  0  0  0  0  0  0  0  0  0  0
   -4.9449   -2.3167    1.4078 H   0  0  0  0  0  0  0  0  0  0  0  0
   -6.0303    0.1495   -2.7600 H   0  0  0  0  0  0  0  0  0  0  0  0
   -7.2910   -1.9818    0.7647 H   0  0  0  0  0  0  0  0  0  0  0  0
   -8.6876   -1.1213   -0.7284 H   0  0  0  0  0  0  0  0  0  0  0  0
  1 14  1  0  0  0  0
  1 16  1  0  0  0  0
  2 12  1  0  0  0  0
  2 24  1  0  0  0  0
  3 13  1  0  0  0  0
  3 47  1  0  0  0  0
  4 15  1  0  0  0  0
  4 48  1  0  0  0  0
  5 19  1  0  0  0  0
  5 26  1  0  0  0  0
  6 18  1  0  0  0  0
  6 50  1  0  0  0  0
  7 20  1  0  0  0  0
  7 55  1  0  0  0  0
  8 24  2  0  0  0  0
  9 25  2  0  0  0  0
 10 31  2  0  0  0  0
 11 39  1  0  0  0  0
 11 67  1  0  0  0  0
 12 13  1  0  0  0  0
 12 14  1  0  0  0  0
 12 40  1  0  0  0  0
 13 15  1  0  0  0  0
 13 41  1  0  0  0  0
 14 17  1  0  0  0  0
 14 42  1  0  0  0  0
 15 16  1  0  0  0  0
 15 43  1  0  0  0  0
 16 18  1  0  0  0  0
 16 44  1  0  0  0  0
 17 19  1  0  0  0  0
 17 20  2  0  0  0  0
 18 45  1  0  0  0  0
 18 46  1  0  0  0  0
 19 21  2  0  0  0  0
 20 23  1  0  0  0  0
 21 22  1  0  0  0  0
 21 25  1  0  0  0  0
 22 23  2  0  0  0  0
 22 27  1  0  0  0  0
 23 49  1  0  0  0  0
 24 30  1  0  0  0  0
 25 28  1  0  0  0  0
 26 28  2  0  0  0  0
 26 29  1  0  0  0  0
 27 51  1  0  0  0  0
 27 52  1  0  0  0  0
 27 53  1  0  0  0  0
 28 54  1  0  0  0  0
 29 31  1  0  0  0  0
 29 56  1  0  0  0  0
 29 57  1  0  0  0  0
 30 32  2  0  0  0  0
 30 58  1  0  0  0  0
 31 34  1  0  0  0  0
 32 33  1  0  0  0  0
 32 59  1  0  0  0  0
 33 35  2  0  0  0  0
 33 36  1  0  0  0  0
 34 60  1  0  0  0  0
 34 61  1  0  0  0  0
 34 62  1  0  0  0  0
 35 37  1  0  0  0  0
 35 63  1  0  0  0  0
 36 38  2  0  0  0  0
 36 64  1  0  0  0  0
 37 39  2  0  0  0  0
 37 65  1  0  0  0  0
 38 39  1  0  0  0  0
 38 66  1  0  0  0  0
M  END
> <PUBCHEM_COMPOUND_CID>
5317657

> <PUBCHEM_CONFORMER_RMSD>
1

> <PUBCHEM_CONFORMER_DIVERSEORDER>
21
67
49
47
89
39
64
82
75
69
53
70
5
83
18
79
55
37
77
22
50
43
45
7
86
38
15
6
32
92
51
19
40
63
91
12
58
20
60
28
66
23
65
85
52
90
81
31
59
74
88
57
56
76
24
26
14
29
10
61
3
78
84
73
16
93
11
46
30
72
9
4
13
71
48
54
25
44
80
68
8
41
62
2
36
34
33
35
87
17
27
42
1

> <PUBCHEM_MMFF94_PARTIAL_CHARGES>
52
1 -0.56
10 -0.57
11 -0.53
12 0.28
13 0.28
14 0.42
15 0.28
16 0.28
17 -0.14
18 0.28
19 0.08
2 -0.43
20 0.08
21 0.09
22 -0.14
23 -0.15
24 0.71
25 0.47
26 -0.06
27 0.14
28 -0.14
29 0.2
3 -0.68
30 -0.14
31 0.45
32 -0.18
33 0.03
34 0.06
35 -0.15
36 -0.15
37 -0.15
38 -0.15
39 0.08
4 -0.68
47 0.4
48 0.4
49 0.15
5 -0.16
50 0.4
54 0.15
55 0.45
58 0.15
59 0.15
6 -0.68
63 0.15
64 0.15
65 0.15
66 0.15
67 0.45
7 -0.53
8 -0.57
9 -0.57

> <PUBCHEM_EFFECTIVE_ROTOR_COUNT>
9.2

> <PUBCHEM_PHARMACOPHORE_FEATURES>
17
1 1 acceptor
1 10 acceptor
1 11 donor
1 3 acceptor
1 3 donor
1 4 acceptor
1 4 donor
1 5 acceptor
1 6 acceptor
1 6 donor
1 7 donor
1 8 acceptor
1 9 acceptor
6 1 12 13 14 15 16 rings
6 17 19 20 21 22 23 rings
6 33 35 36 37 38 39 rings
6 5 19 21 25 26 28 rings

> <PUBCHEM_HEAVY_ATOM_COUNT>
39

> <PUBCHEM_ATOM_DEF_STEREO_COUNT>
5

> <PUBCHEM_ATOM_UDEF_STEREO_COUNT>
0

> <PUBCHEM_BOND_DEF_STEREO_COUNT>
1

> <PUBCHEM_BOND_UDEF_STEREO_COUNT>
0

> <PUBCHEM_ISOTOPIC_ATOM_COUNT>
0

> <PUBCHEM_COMPONENT_COUNT>
1

> <PUBCHEM_CACTVS_TAUTO_COUNT>
156

> <PUBCHEM_CONFORMER_ID>
0051241900000015

> <PUBCHEM_MMFF94_ENERGY>
118.7402

> <PUBCHEM_FEATURE_SELFOVERLAP>
86.303

> <PUBCHEM_SHAPE_FINGERPRINT>
10674148 151 12031780397309862410
10675989 125 17899408697801827721
11456790 92 18342739663638815947
11720765 8 18339373984704353793
12156800 1 17478376287388877905
12166972 35 18410302414654421507
13636023 51 17489305231037176807
140371 6 18408878568471723954
14068700 675 18339368569040003312
14931854 50 17899110759983259173
15297060 5 16012082901188433323
19319366 153 18119527643836042383
21315764 21 18200031733876208697
2132832 1 18335418006096140843
21344244 78 18338249227242604474
23559900 14 18272384066092930515
3380486 77 18409728460931692246
3882209 13 18341898536241507416
44802255 64 16480183213779236188
469060 322 18267583696455635282
474144 1 18262230028437693191
513532 50 16082497635876272961
6086070 43 18338794494546987175

> <PUBCHEM_SHAPE_MULTIPOLES>
738.04
12.48
6.09
2.56
24.21
4.12
-1.39
-10.24
4.36
-8.7
0.73
0.82
1.45
-3.2

> <PUBCHEM_SHAPE_SELFOVERLAP>
1604.116

> <PUBCHEM_SHAPE_VOLUME>
398.2

> <PUBCHEM_COORDINATE_TYPE>
2
5
10

$$$$

