1256
  -OEChem-07051213023D

 26 26  0     1  0  0  0  0  0999 V2000
   -3.3761    1.1496    0.3997 O   0  0  0  0  0  0  0  0  0  0  0  0
   -3.5745   -1.0312   -0.2594 O   0  0  0  0  0  0  0  0  0  0  0  0
    1.4070    0.1148    0.3147 C   0  0  1  0  0  0  0  0  0  0  0  0
    0.7276    1.0837   -0.6617 C   0  0  0  0  0  0  0  0  0  0  0  0
    0.7129   -1.2595    0.2913 C   0  0  0  0  0  0  0  0  0  0  0  0
   -0.7549    1.2672   -0.3183 C   0  0  0  0  0  0  0  0  0  0  0  0
   -1.4373   -0.0257    0.0089 C   0  0  0  0  0  0  0  0  0  0  0  0
    2.8672   -0.0115    0.0076 C   0  0  0  0  0  0  0  0  0  0  0  0
   -0.7869   -1.1683    0.2705 C   0  0  0  0  0  0  0  0  0  0  0  0
    3.8107    0.4305    1.0866 C   0  0  0  0  0  0  0  0  0  0  0  0
   -2.9018   -0.0568    0.0250 C   0  0  0  0  0  0  0  0  0  0  0  0
    3.3061   -0.4928   -1.1649 C   0  0  0  0  0  0  0  0  0  0  0  0
    1.2887    0.5305    1.3261 H   0  0  0  0  0  0  0  0  0  0  0  0
    0.8004    0.7118   -1.6925 H   0  0  0  0  0  0  0  0  0  0  0  0
    1.2235    2.0625   -0.6457 H   0  0  0  0  0  0  0  0  0  0  0  0
    1.0180   -1.8261    1.1805 H   0  0  0  0  0  0  0  0  0  0  0  0
    1.0121   -1.8581   -0.5774 H   0  0  0  0  0  0  0  0  0  0  0  0
   -1.2490    1.7589   -1.1649 H   0  0  0  0  0  0  0  0  0  0  0  0
   -0.8376    1.9414    0.5436 H   0  0  0  0  0  0  0  0  0  0  0  0
   -1.3277   -2.0867    0.4835 H   0  0  0  0  0  0  0  0  0  0  0  0
    3.6513    1.4880    1.3214 H   0  0  0  0  0  0  0  0  0  0  0  0
    3.6504   -0.1574    1.9962 H   0  0  0  0  0  0  0  0  0  0  0  0
    4.8587    0.3095    0.7928 H   0  0  0  0  0  0  0  0  0  0  0  0
    4.3680   -0.5784   -1.3720 H   0  0  0  0  0  0  0  0  0  0  0  0
    2.6290   -0.8116   -1.9496 H   0  0  0  0  0  0  0  0  0  0  0  0
   -4.3566    1.1696    0.4225 H   0  0  0  0  0  0  0  0  0  0  0  0
  1 11  1  0  0  0  0
  1 26  1  0  0  0  0
  2 11  2  0  0  0  0
  3  4  1  0  0  0  0
  3  5  1  0  0  0  0
  3  8  1  0  0  0  0
  3 13  1  0  0  0  0
  4  6  1  0  0  0  0
  4 14  1  0  0  0  0
  4 15  1  0  0  0  0
  5  9  1  0  0  0  0
  5 16  1  0  0  0  0
  5 17  1  0  0  0  0
  6  7  1  0  0  0  0
  6 18  1  0  0  0  0
  6 19  1  0  0  0  0
  7  9  2  0  0  0  0
  7 11  1  0  0  0  0
  8 10  1  0  0  0  0
  8 12  2  0  0  0  0
  9 20  1  0  0  0  0
 10 21  1  0  0  0  0
 10 22  1  0  0  0  0
 10 23  1  0  0  0  0
 12 24  1  0  0  0  0
 12 25  1  0  0  0  0
M  END
> <PUBCHEM_COMPOUND_CID>
1256

> <PUBCHEM_CONFORMER_RMSD>
0.6

> <PUBCHEM_CONFORMER_DIVERSEORDER>
1
3
6
4
5
2

> <PUBCHEM_MMFF94_PARTIAL_CHARGES>
15
1 -0.65
10 0.14
11 0.71
12 -0.3
2 -0.57
20 0.15
24 0.15
25 0.15
26 0.5
3 0.14
5 0.14
6 0.14
7 -0.12
8 -0.28
9 -0.29

> <PUBCHEM_EFFECTIVE_ROTOR_COUNT>
2.8

> <PUBCHEM_PHARMACOPHORE_FEATURES>
4
1 1 acceptor
1 2 acceptor
3 1 2 11 anion
6 3 4 5 6 7 9 rings

> <PUBCHEM_HEAVY_ATOM_COUNT>
12

> <PUBCHEM_ATOM_DEF_STEREO_COUNT>
0

> <PUBCHEM_ATOM_UDEF_STEREO_COUNT>
1

> <PUBCHEM_BOND_DEF_STEREO_COUNT>
0

> <PUBCHEM_BOND_UDEF_STEREO_COUNT>
0

> <PUBCHEM_ISOTOPIC_ATOM_COUNT>
0

> <PUBCHEM_COMPONENT_COUNT>
1

> <PUBCHEM_CACTVS_TAUTO_COUNT>
1

> <PUBCHEM_CONFORMER_ID>
000004E800000001

> <PUBCHEM_MMFF94_ENERGY>
16.9665

> <PUBCHEM_FEATURE_SELFOVERLAP>
20.351

> <PUBCHEM_SHAPE_FINGERPRINT>
10130415 120 17704356558925152400
10219947 1 16200432472451686038
11062470 55 16081085965618890826
11132069 177 18411703205178978249
11401426 45 18343032077079577597
11543360 7 16371022783843525029
12032990 46 18412255117098201315
13760787 5 17418372501860586174
14144814 61 18273497874848533979
14325111 11 18408322193943531274
14993402 34 18060696173947689222
15219456 202 17821729450965182476
15310529 11 15864069892546561466
16945 1 18131630088524014798
17846911 113 18341339945795805792
18186145 218 18114176475462790056
19026448 4 17385441029091759852
19026448 5 15936408948528605023
193761 8 17550674747418777086
20645476 183 16916207889551618130
23235685 24 18272090508533803094
23380061 330 18412266120825213973
23402539 116 18337403694410895868
23402655 69 18197517305940313597
23463225 33 18060424659290333658
23559900 14 18335415786463140726
2748010 2 17912356537606890831
449060 50 17458911435853437568
69090 78 17894919494339798103

> <PUBCHEM_SHAPE_MULTIPOLES>
235.22
6.31
1.29
0.91
0.17
0.01
0.05
0.02
-0.43
0.49
0.03
-0.78
0.03
0.09

> <PUBCHEM_SHAPE_SELFOVERLAP>
475.062

> <PUBCHEM_SHAPE_VOLUME>
136.8

> <PUBCHEM_COORDINATE_TYPE>
2
5
10

$$$$

