47205588
  -OEChem-06241222592D

 41 42  0     0  0  0  0  0  0999 V2000
    2.8660    0.6920    0.0000 O   0  0  0  0  0  0  0  0  0  0  0  0
    5.4641    0.1920    0.0000 O   0  0  0  0  0  0  0  0  0  0  0  0
    7.0468    2.5284    0.0000 O   0  0  0  0  0  0  0  0  0  0  0  0
    3.7320   -0.8080    0.0000 N   0  0  0  0  0  0  0  0  0  0  0  0
    4.5981    1.6920    0.0000 N   0  0  0  0  0  0  0  0  0  0  0  0
    6.3776    1.7853    0.0000 N   0  0  0  0  0  0  0  0  0  0  0  0
    2.8660   -2.3080    0.0000 C   0  0  0  0  0  0  0  0  0  0  0  0
    2.0000   -2.8080    0.0000 C   0  0  0  0  0  0  0  0  0  0  0  0
    3.7320   -2.8080    0.0000 C   0  0  0  0  0  0  0  0  0  0  0  0
    2.0000   -3.8080    0.0000 C   0  0  0  0  0  0  0  0  0  0  0  0
    3.7320   -3.8080    0.0000 C   0  0  0  0  0  0  0  0  0  0  0  0
    2.8660   -4.3080    0.0000 C   0  0  0  0  0  0  0  0  0  0  0  0
    2.8660   -1.3080    0.0000 C   0  0  0  0  0  0  0  0  0  0  0  0
    4.5981   -1.3080    0.0000 C   0  0  0  0  0  0  0  0  0  0  0  0
    3.7320    0.1920    0.0000 C   0  0  0  0  0  0  0  0  0  0  0  0
    4.5981    0.6920    0.0000 C   0  0  0  0  0  0  0  0  0  0  0  0
    5.4641    2.1920    0.0000 C   0  0  0  0  0  0  0  0  0  0  0  0
    5.5686    3.1865    0.0000 C   0  0  0  0  0  0  0  0  0  0  0  0
    6.5468    3.3944    0.0000 C   0  0  0  0  0  0  0  0  0  0  0  0
    6.9535    4.3080    0.0000 C   0  0  0  0  0  0  0  0  0  0  0  0
    3.4030   -1.9980    0.0000 H   0  0  0  0  0  0  0  0  0  0  0  0
    4.3426   -2.9156    0.0000 H   0  0  0  0  0  0  0  0  0  0  0  0
    3.9441   -2.2254    0.0000 H   0  0  0  0  0  0  0  0  0  0  0  0
    1.7880   -2.2254    0.0000 H   0  0  0  0  0  0  0  0  0  0  0  0
    1.3894   -2.9156    0.0000 H   0  0  0  0  0  0  0  0  0  0  0  0
    3.9441   -4.3906    0.0000 H   0  0  0  0  0  0  0  0  0  0  0  0
    4.3426   -3.7003    0.0000 H   0  0  0  0  0  0  0  0  0  0  0  0
    1.3894   -3.7003    0.0000 H   0  0  0  0  0  0  0  0  0  0  0  0
    1.7880   -4.3906    0.0000 H   0  0  0  0  0  0  0  0  0  0  0  0
    2.4675   -4.7829    0.0000 H   0  0  0  0  0  0  0  0  0  0  0  0
    3.2646   -4.7829    0.0000 H   0  0  0  0  0  0  0  0  0  0  0  0
    2.6540   -0.7254    0.0000 H   0  0  0  0  0  0  0  0  0  0  0  0
    2.2554   -1.4156    0.0000 H   0  0  0  0  0  0  0  0  0  0  0  0
    4.2881   -1.8449    0.0000 H   0  0  0  0  0  0  0  0  0  0  0  0
    5.1350   -1.6180    0.0000 H   0  0  0  0  0  0  0  0  0  0  0  0
    4.9081   -0.7711    0.0000 H   0  0  0  0  0  0  0  0  0  0  0  0
    4.0611    2.0020    0.0000 H   0  0  0  0  0  0  0  0  0  0  0  0
    5.1079    3.6014    0.0000 H   0  0  0  0  0  0  0  0  0  0  0  0
    7.5199    4.0558    0.0000 H   0  0  0  0  0  0  0  0  0  0  0  0
    7.2057    4.8744    0.0000 H   0  0  0  0  0  0  0  0  0  0  0  0
    6.3871    4.5602    0.0000 H   0  0  0  0  0  0  0  0  0  0  0  0
  1 15  2  0  0  0  0
  2 16  2  0  0  0  0
  3  6  1  0  0  0  0
  3 19  1  0  0  0  0
  4 13  1  0  0  0  0
  4 14  1  0  0  0  0
  4 15  1  0  0  0  0
  5 16  1  0  0  0  0
  5 17  1  0  0  0  0
  5 37  1  0  0  0  0
  6 17  2  0  0  0  0
  7  8  1  0  0  0  0
  7  9  1  0  0  0  0
  7 13  1  0  0  0  0
  7 21  1  0  0  0  0
  8 10  1  0  0  0  0
  8 24  1  0  0  0  0
  8 25  1  0  0  0  0
  9 11  1  0  0  0  0
  9 22  1  0  0  0  0
  9 23  1  0  0  0  0
 10 12  1  0  0  0  0
 10 28  1  0  0  0  0
 10 29  1  0  0  0  0
 11 12  1  0  0  0  0
 11 26  1  0  0  0  0
 11 27  1  0  0  0  0
 12 30  1  0  0  0  0
 12 31  1  0  0  0  0
 13 32  1  0  0  0  0
 13 33  1  0  0  0  0
 14 34  1  0  0  0  0
 14 35  1  0  0  0  0
 14 36  1  0  0  0  0
 15 16  1  0  0  0  0
 17 18  1  0  0  0  0
 18 19  2  0  0  0  0
 18 38  1  0  0  0  0
 19 20  1  0  0  0  0
 20 39  1  0  0  0  0
 20 40  1  0  0  0  0
 20 41  1  0  0  0  0
M  END
> <PUBCHEM_COMPOUND_CID>
47205588

> <PUBCHEM_COMPOUND_CANONICALIZED>
1

> <PUBCHEM_CACTVS_COMPLEXITY>
356

> <PUBCHEM_CACTVS_HBOND_ACCEPTOR>
4

> <PUBCHEM_CACTVS_HBOND_DONOR>
1

> <PUBCHEM_CACTVS_ROTATABLE_BOND>
3

> <PUBCHEM_CACTVS_SUBSKEYS>
AAADceBzMAAAAAAAAAAAAAAAAAAAAWAAAAAwAAAAAAAAAAABgAAAHgAUAAAADQTBkgQztJPQAACpAKNycgCAAAAlIgAhGCG+bFqAZApAiaAUAIhCFwrAQEEQgAAOAAAAAAAAAAAAAAAAAAAAAAAAAAAAAA==

> <PUBCHEM_IUPAC_OPENEYE_NAME>
N'-(cyclohexylmethyl)-N'-methyl-N-(5-methylisoxazol-3-yl)oxamide

> <PUBCHEM_IUPAC_CAS_NAME>
N'-(cyclohexylmethyl)-N'-methyl-N-(5-methyl-3-isoxazolyl)oxamide

> <PUBCHEM_IUPAC_NAME>
N'-(cyclohexylmethyl)-N'-methyl-N-(5-methyl-1,2-oxazol-3-yl)oxamide

> <PUBCHEM_IUPAC_SYSTEMATIC_NAME>
N'-(cyclohexylmethyl)-N'-methyl-N-(5-methyl-1,2-oxazol-3-yl)ethanediamide

> <PUBCHEM_IUPAC_TRADITIONAL_NAME>
N'-(cyclohexylmethyl)-N'-methyl-N-(5-methylisoxazol-3-yl)oxamide

> <PUBCHEM_IUPAC_INCHI>
InChI=1S/C14H21N3O3/c1-10-8-12(16-20-10)15-13(18)14(19)17(2)9-11-6-4-3-5-7-11/h8,11H,3-7,9H2,1-2H3,(H,15,16,18)

> <PUBCHEM_IUPAC_INCHIKEY>
SALBFFCIHRIZRR-UHFFFAOYSA-N

> <PUBCHEM_XLOGP3_AA>
2.5

> <PUBCHEM_EXACT_MASS>
279.158292

> <PUBCHEM_MOLECULAR_FORMULA>
C14H21N3O3

> <PUBCHEM_MOLECULAR_WEIGHT>
279.33484

> <PUBCHEM_OPENEYE_CAN_SMILES>
CC1=CC(=NO1)NC(=O)C(=O)N(C)CC2CCCCC2

> <PUBCHEM_OPENEYE_ISO_SMILES>
CC1=CC(=NO1)NC(=O)C(=O)N(C)CC2CCCCC2

> <PUBCHEM_CACTVS_TPSA>
75.4

> <PUBCHEM_MONOISOTOPIC_WEIGHT>
279.158292

> <PUBCHEM_TOTAL_CHARGE>
0

> <PUBCHEM_HEAVY_ATOM_COUNT>
20

> <PUBCHEM_ATOM_DEF_STEREO_COUNT>
0

> <PUBCHEM_ATOM_UDEF_STEREO_COUNT>
0

> <PUBCHEM_BOND_DEF_STEREO_COUNT>
0

> <PUBCHEM_BOND_UDEF_STEREO_COUNT>
0

> <PUBCHEM_ISOTOPIC_ATOM_COUNT>
0

> <PUBCHEM_COMPONENT_COUNT>
1

> <PUBCHEM_CACTVS_TAUTO_COUNT>
8

> <PUBCHEM_COORDINATE_TYPE>
1
5
255

> <PUBCHEM_BONDANNOTATIONS>
17  18  8
18  19  8
3  19  8
3  6  8
6  17  8

$$$$

