102013
  -OEChem-07051213053D

 84 88  0     1  0  0  0  0  0999 V2000
    5.6822   -0.0614   -0.1401 O   0  0  0  0  0  0  0  0  0  0  0  0
    6.3092    0.5814    1.9795 O   0  0  0  0  0  0  0  0  0  0  0  0
   -3.0349    0.0875   -0.0738 C   0  0  1  0  0  0  0  0  0  0  0  0
   -2.2022   -0.9852    0.6557 C   0  0  1  0  0  0  0  0  0  0  0  0
   -4.4135   -0.1559    0.5875 C   0  0  2  0  0  0  0  0  0  0  0  0
   -0.0521    0.3567    0.2657 C   0  0  1  0  0  0  0  0  0  0  0  0
   -2.4161    1.4564    0.2555 C   0  0  0  0  0  0  0  0  0  0  0  0
   -3.0840   -2.2346    0.5727 C   0  0  0  0  0  0  0  0  0  0  0  0
   -0.7576   -1.0023    0.2292 C   0  0  0  0  0  0  0  0  0  0  0  0
   -4.5222   -1.6949    0.6656 C   0  0  0  0  0  0  0  0  0  0  0  0
    1.3907    0.3661   -0.4179 C   0  0  2  0  0  0  0  0  0  0  0  0
   -0.9556    1.5326   -0.2154 C   0  0  0  0  0  0  0  0  0  0  0  0
   -5.6130    0.4893   -0.0921 C   0  0  1  0  0  0  0  0  0  0  0  0
   -3.0948   -0.1263   -1.6068 C   0  0  0  0  0  0  0  0  0  0  0  0
    2.0650   -1.0112   -0.3579 C   0  0  0  0  0  0  0  0  0  0  0  0
    2.2586    1.4181    0.3337 C   0  0  0  0  0  0  0  0  0  0  0  0
   -0.0759   -2.1319   -0.0138 C   0  0  0  0  0  0  0  0  0  0  0  0
    1.3148    0.7418   -1.9192 C   0  0  0  0  0  0  0  0  0  0  0  0
   -6.9101   -0.2442    0.3133 C   0  0  0  0  0  0  0  0  0  0  0  0
    1.3518   -2.1360   -0.1849 C   0  0  0  0  0  0  0  0  0  0  0  0
    3.5582   -1.0798   -0.5707 C   0  0  0  0  0  0  0  0  0  0  0  0
    3.7458    1.3656   -0.0078 C   0  0  0  0  0  0  0  0  0  0  0  0
   -5.6638    1.9834    0.2453 C   0  0  0  0  0  0  0  0  0  0  0  0
    4.3104   -0.0298    0.2406 C   0  0  2  0  0  0  0  0  0  0  0  0
   -8.1810    0.3811   -0.2705 C   0  0  0  0  0  0  0  0  0  0  0  0
   -9.4711   -0.3081    0.1934 C   0  0  0  0  0  0  0  0  0  0  0  0
  -10.7824    0.2289   -0.4110 C   0  0  0  0  0  0  0  0  0  0  0  0
    6.5775    0.2672    0.8303 C   0  0  0  0  0  0  0  0  0  0  0  0
  -10.9454    1.7097   -0.0553 C   0  0  0  0  0  0  0  0  0  0  0  0
  -12.0077   -0.5539    0.0616 C   0  0  0  0  0  0  0  0  0  0  0  0
    7.9656    0.1975    0.3082 C   0  0  0  0  0  0  0  0  0  0  0  0
    9.0411    0.4992    1.1438 C   0  0  0  0  0  0  0  0  0  0  0  0
    8.1945   -0.1702   -1.0178 C   0  0  0  0  0  0  0  0  0  0  0  0
   10.3453    0.4335    0.6535 C   0  0  0  0  0  0  0  0  0  0  0  0
    9.4988   -0.2360   -1.5080 C   0  0  0  0  0  0  0  0  0  0  0  0
   10.5742    0.0658   -0.6724 C   0  0  0  0  0  0  0  0  0  0  0  0
   -2.1680   -0.7210    1.7268 H   0  0  0  0  0  0  0  0  0  0  0  0
   -4.3711    0.2012    1.6282 H   0  0  0  0  0  0  0  0  0  0  0  0
    0.0976    0.5317    1.3432 H   0  0  0  0  0  0  0  0  0  0  0  0
   -2.4603    1.6552    1.3333 H   0  0  0  0  0  0  0  0  0  0  0  0
   -2.9346    2.2726   -0.2466 H   0  0  0  0  0  0  0  0  0  0  0  0
   -2.8699   -2.9381    1.3844 H   0  0  0  0  0  0  0  0  0  0  0  0
   -2.9437   -2.7695   -0.3739 H   0  0  0  0  0  0  0  0  0  0  0  0
   -5.0019   -2.0125    1.5978 H   0  0  0  0  0  0  0  0  0  0  0  0
   -5.0757   -2.1318   -0.1718 H   0  0  0  0  0  0  0  0  0  0  0  0
   -0.5260    2.4821    0.1261 H   0  0  0  0  0  0  0  0  0  0  0  0
   -0.9763    1.5846   -1.3079 H   0  0  0  0  0  0  0  0  0  0  0  0
   -5.5462    0.3980   -1.1811 H   0  0  0  0  0  0  0  0  0  0  0  0
   -2.1015   -0.2646   -2.0450 H   0  0  0  0  0  0  0  0  0  0  0  0
   -3.5435    0.7394   -2.1067 H   0  0  0  0  0  0  0  0  0  0  0  0
   -3.6816   -1.0080   -1.8842 H   0  0  0  0  0  0  0  0  0  0  0  0
    1.8858    2.4298    0.1329 H   0  0  0  0  0  0  0  0  0  0  0  0
    2.1648    1.2665    1.4178 H   0  0  0  0  0  0  0  0  0  0  0  0
   -0.5569   -3.1037    0.0157 H   0  0  0  0  0  0  0  0  0  0  0  0
    1.0413    1.7930   -2.0608 H   0  0  0  0  0  0  0  0  0  0  0  0
    2.2730    0.6098   -2.4338 H   0  0  0  0  0  0  0  0  0  0  0  0
    0.5809    0.1218   -2.4472 H   0  0  0  0  0  0  0  0  0  0  0  0
   -6.9944   -0.2560    1.4079 H   0  0  0  0  0  0  0  0  0  0  0  0
   -6.9057   -1.2854   -0.0208 H   0  0  0  0  0  0  0  0  0  0  0  0
    1.8362   -3.1078   -0.1733 H   0  0  0  0  0  0  0  0  0  0  0  0
    3.7802   -0.9495   -1.6378 H   0  0  0  0  0  0  0  0  0  0  0  0
    3.9539   -2.0721   -0.3176 H   0  0  0  0  0  0  0  0  0  0  0  0
    3.9172    1.6650   -1.0491 H   0  0  0  0  0  0  0  0  0  0  0  0
    4.2870    2.1013    0.5994 H   0  0  0  0  0  0  0  0  0  0  0  0
   -5.7023    2.1509    1.3267 H   0  0  0  0  0  0  0  0  0  0  0  0
   -6.5335    2.4735   -0.1996 H   0  0  0  0  0  0  0  0  0  0  0  0
   -4.8223    2.5344   -0.1635 H   0  0  0  0  0  0  0  0  0  0  0  0
    4.1991   -0.2881    1.3030 H   0  0  0  0  0  0  0  0  0  0  0  0
   -8.1289    0.3641   -1.3655 H   0  0  0  0  0  0  0  0  0  0  0  0
   -8.2476    1.4258    0.0392 H   0  0  0  0  0  0  0  0  0  0  0  0
   -9.3957   -1.3760   -0.0502 H   0  0  0  0  0  0  0  0  0  0  0  0
   -9.5278   -0.2505    1.2886 H   0  0  0  0  0  0  0  0  0  0  0  0
  -10.7261    0.1409   -1.5033 H   0  0  0  0  0  0  0  0  0  0  0  0
  -10.8900    1.8704    1.0267 H   0  0  0  0  0  0  0  0  0  0  0  0
  -11.9157    2.0842   -0.4002 H   0  0  0  0  0  0  0  0  0  0  0  0
  -10.1805    2.3262   -0.5366 H   0  0  0  0  0  0  0  0  0  0  0  0
  -11.9144   -1.6123   -0.2028 H   0  0  0  0  0  0  0  0  0  0  0  0
  -12.9210   -0.1709   -0.4057 H   0  0  0  0  0  0  0  0  0  0  0  0
  -12.1268   -0.4858    1.1482 H   0  0  0  0  0  0  0  0  0  0  0  0
    8.8841    0.7875    2.1798 H   0  0  0  0  0  0  0  0  0  0  0  0
    7.3877   -0.4134   -1.7032 H   0  0  0  0  0  0  0  0  0  0  0  0
   11.1827    0.6684    1.3040 H   0  0  0  0  0  0  0  0  0  0  0  0
    9.6778   -0.5223   -2.5404 H   0  0  0  0  0  0  0  0  0  0  0  0
   11.5896    0.0146   -1.0541 H   0  0  0  0  0  0  0  0  0  0  0  0
  1 24  1  0  0  0  0
  1 28  1  0  0  0  0
  2 28  2  0  0  0  0
  3  4  1  0  0  0  0
  3  5  1  0  0  0  0
  3  7  1  0  0  0  0
  3 14  1  0  0  0  0
  4  8  1  0  0  0  0
  4  9  1  0  0  0  0
  4 37  1  0  0  0  0
  5 10  1  0  0  0  0
  5 13  1  0  0  0  0
  5 38  1  0  0  0  0
  6  9  1  0  0  0  0
  6 11  1  0  0  0  0
  6 12  1  0  0  0  0
  6 39  1  0  0  0  0
  7 12  1  0  0  0  0
  7 40  1  0  0  0  0
  7 41  1  0  0  0  0
  8 10  1  0  0  0  0
  8 42  1  0  0  0  0
  8 43  1  0  0  0  0
  9 17  2  0  0  0  0
 10 44  1  0  0  0  0
 10 45  1  0  0  0  0
 11 15  1  0  0  0  0
 11 16  1  0  0  0  0
 11 18  1  0  0  0  0
 12 46  1  0  0  0  0
 12 47  1  0  0  0  0
 13 19  1  0  0  0  0
 13 23  1  0  0  0  0
 13 48  1  0  0  0  0
 14 49  1  0  0  0  0
 14 50  1  0  0  0  0
 14 51  1  0  0  0  0
 15 20  2  0  0  0  0
 15 21  1  0  0  0  0
 16 22  1  0  0  0  0
 16 52  1  0  0  0  0
 16 53  1  0  0  0  0
 17 20  1  0  0  0  0
 17 54  1  0  0  0  0
 18 55  1  0  0  0  0
 18 56  1  0  0  0  0
 18 57  1  0  0  0  0
 19 25  1  0  0  0  0
 19 58  1  0  0  0  0
 19 59  1  0  0  0  0
 20 60  1  0  0  0  0
 21 24  1  0  0  0  0
 21 61  1  0  0  0  0
 21 62  1  0  0  0  0
 22 24  1  0  0  0  0
 22 63  1  0  0  0  0
 22 64  1  0  0  0  0
 23 65  1  0  0  0  0
 23 66  1  0  0  0  0
 23 67  1  0  0  0  0
 24 68  1  0  0  0  0
 25 26  1  0  0  0  0
 25 69  1  0  0  0  0
 25 70  1  0  0  0  0
 26 27  1  0  0  0  0
 26 71  1  0  0  0  0
 26 72  1  0  0  0  0
 27 29  1  0  0  0  0
 27 30  1  0  0  0  0
 27 73  1  0  0  0  0
 28 31  1  0  0  0  0
 29 74  1  0  0  0  0
 29 75  1  0  0  0  0
 29 76  1  0  0  0  0
 30 77  1  0  0  0  0
 30 78  1  0  0  0  0
 30 79  1  0  0  0  0
 31 32  2  0  0  0  0
 31 33  1  0  0  0  0
 32 34  1  0  0  0  0
 32 80  1  0  0  0  0
 33 35  2  0  0  0  0
 33 81  1  0  0  0  0
 34 36  2  0  0  0  0
 34 82  1  0  0  0  0
 35 36  1  0  0  0  0
 35 83  1  0  0  0  0
 36 84  1  0  0  0  0
M  END
> <PUBCHEM_COMPOUND_CID>
102013

> <PUBCHEM_CONFORMER_RMSD>
1

> <PUBCHEM_CONFORMER_DIVERSEORDER>
1
47
36
41
5
19
12
59
33
51
32
48
62
22
15
63
27
25
39
18
8
34
42
52
37
6
64
56
16
58
38
13
60
53
17
65
24
45
29
43
49
30
61
35
40
14
57
54
9
7
21
46
31
28
3
2
50
55
23
11
20
44
4
10
26

> <PUBCHEM_MMFF94_PARTIAL_CHARGES>
25
1 -0.43
11 0.14
15 -0.28
17 -0.15
2 -0.57
20 -0.15
21 0.14
24 0.28
28 0.63
31 0.09
32 -0.15
33 -0.15
34 -0.15
35 -0.15
36 -0.15
4 0.14
54 0.15
6 0.14
60 0.15
80 0.15
81 0.15
82 0.15
83 0.15
84 0.15
9 -0.28

> <PUBCHEM_EFFECTIVE_ROTOR_COUNT>
9.8

> <PUBCHEM_PHARMACOPHORE_FEATURES>
9
1 2 acceptor
1 23 hydrophobe
3 27 29 30 hydrophobe
5 13 19 25 26 27 hydrophobe
5 3 4 5 8 10 rings
6 11 15 16 21 22 24 rings
6 3 4 6 7 9 12 rings
6 31 32 33 34 35 36 rings
6 6 9 11 15 17 20 rings

> <PUBCHEM_HEAVY_ATOM_COUNT>
36

> <PUBCHEM_ATOM_DEF_STEREO_COUNT>
7

> <PUBCHEM_ATOM_UDEF_STEREO_COUNT>
0

> <PUBCHEM_BOND_DEF_STEREO_COUNT>
0

> <PUBCHEM_BOND_UDEF_STEREO_COUNT>
0

> <PUBCHEM_ISOTOPIC_ATOM_COUNT>
0

> <PUBCHEM_COMPONENT_COUNT>
1

> <PUBCHEM_CACTVS_TAUTO_COUNT>
1

> <PUBCHEM_CONFORMER_ID>
00018E7D00000001

> <PUBCHEM_MMFF94_ENERGY>
114.4436

> <PUBCHEM_FEATURE_SELFOVERLAP>
45.766

> <PUBCHEM_SHAPE_FINGERPRINT>
10 15 17917993884326084682
10165383 225 18343866623970290899
10299344 5 17418095404584438130
10883706 142 17385723591312524257
11409948 35 18188770673830544902
12013929 2 18335136501772239746
12144603 126 17203610389160396064
12522641 33 17458343052424061358
12664476 115 18202847656317034965
12741549 16 15267344019867456319
12838862 33 18340217340651144427
14040221 8 18202559596607333773
14117953 113 18410570682400949668
14251764 46 18273496771532607581
14344974 52 17822014181738288443
15061470 23 15267347327820078359
15301273 46 18259983778533949224
15347591 1 18055348033367995312
15461852 350 18040999496851844495
15510794 2 17458060452070635399
15840311 113 17988639654438056476
15890870 6 18411136935195017555
16087824 20 18341895216722540517
21792934 111 18261395521341902744
232437 2 18410575088963320963
24771293 8 18338793520211623501
24893992 56 18335141960142793379
249057 3 18343582915109374580
3092352 35 16845575314127742042
335352 9 18412543202013470637
5381727 24 18186803556953767055
6691757 9 18342449340591989723
9663363 56 18186803574529171104

> <PUBCHEM_SHAPE_MULTIPOLES>
729.12
40.26
1.71
1.13
14.91
0.4
-0.18
-7.74
0.02
1.9
0.14
-1.84
-0.08
0.91

> <PUBCHEM_SHAPE_SELFOVERLAP>
1542.139

> <PUBCHEM_SHAPE_VOLUME>
407.5

> <PUBCHEM_COORDINATE_TYPE>
2
5
10

$$$$

