9335
  -OEChem-07051213132D

 20 19  0     0  0  0  0  0  0999 V2000
    2.0000   -0.5000    0.0000 Cl  0  0  0  0  0  0  0  0  0  0  0  0
    7.1962    0.5000    0.0000 Cl  0  0  0  0  0  0  0  0  0  0  0  0
    4.0981    0.8660    0.0000 O   0  5  0  0  0  0  0  0  0  0  0  0
    4.5981    0.0000    0.0000 N   0  3  0  0  0  0  0  0  0  0  0  0
    5.4641    0.5000    0.0000 C   0  0  0  0  0  0  0  0  0  0  0  0
    3.7320   -0.5000    0.0000 C   0  0  0  0  0  0  0  0  0  0  0  0
    5.0981   -0.8660    0.0000 C   0  0  0  0  0  0  0  0  0  0  0  0
    6.3301    0.0000    0.0000 C   0  0  0  0  0  0  0  0  0  0  0  0
    2.8660    0.0000    0.0000 C   0  0  0  0  0  0  0  0  0  0  0  0
    3.3335   -0.9749    0.0000 H   0  0  0  0  0  0  0  0  0  0  0  0
    4.1306   -0.9749    0.0000 H   0  0  0  0  0  0  0  0  0  0  0  0
    5.8626    0.9749    0.0000 H   0  0  0  0  0  0  0  0  0  0  0  0
    5.0656    0.9749    0.0000 H   0  0  0  0  0  0  0  0  0  0  0  0
    4.5611   -1.1760    0.0000 H   0  0  0  0  0  0  0  0  0  0  0  0
    5.4081   -1.4030    0.0000 H   0  0  0  0  0  0  0  0  0  0  0  0
    5.6350   -0.5560    0.0000 H   0  0  0  0  0  0  0  0  0  0  0  0
    3.2646    0.4749    0.0000 H   0  0  0  0  0  0  0  0  0  0  0  0
    2.4675    0.4749    0.0000 H   0  0  0  0  0  0  0  0  0  0  0  0
    5.9316   -0.4749    0.0000 H   0  0  0  0  0  0  0  0  0  0  0  0
    6.7287   -0.4749    0.0000 H   0  0  0  0  0  0  0  0  0  0  0  0
  1  9  1  0  0  0  0
  2  8  1  0  0  0  0
  3  4  1  0  0  0  0
  4  5  1  0  0  0  0
  4  6  1  0  0  0  0
  4  7  1  0  0  0  0
  5  8  1  0  0  0  0
  5 12  1  0  0  0  0
  5 13  1  0  0  0  0
  6  9  1  0  0  0  0
  6 10  1  0  0  0  0
  6 11  1  0  0  0  0
  7 14  1  0  0  0  0
  7 15  1  0  0  0  0
  7 16  1  0  0  0  0
  8 19  1  0  0  0  0
  8 20  1  0  0  0  0
  9 17  1  0  0  0  0
  9 18  1  0  0  0  0
M  CHG  2   3  -1   4   1
M  END
> <PUBCHEM_COMPOUND_CID>
9335

> <PUBCHEM_COMPOUND_CANONICALIZED>
1

> <PUBCHEM_CACTVS_COMPLEXITY>
73.4

> <PUBCHEM_CACTVS_HBOND_ACCEPTOR>
1

> <PUBCHEM_CACTVS_HBOND_DONOR>
0

> <PUBCHEM_CACTVS_ROTATABLE_BOND>
4

> <PUBCHEM_CACTVS_SUBSKEYS>
AAADccBiIAAGAAAAAAAAAAAAAAAAAAAAAAAAAAAAAAAAAAAAAAAAHAIEAAAAAAPBAEQCAAMQAAAAAAAAAAAAAAAAAAAgAAAIAAAAAAAAAABAAAAAAACAAAAAAAAAAAAAAAAAAAAAAAAAAAAAAAAAAAAAAA==

> <PUBCHEM_IUPAC_OPENEYE_NAME>
2-chloro-N-(2-chloroethyl)-N-methyl-ethanamine oxide

> <PUBCHEM_IUPAC_CAS_NAME>
2-chloro-N-(2-chloroethyl)-N-methylethanamine oxide

> <PUBCHEM_IUPAC_NAME>
2-chloro-N-(2-chloroethyl)-N-methylethanamine oxide

> <PUBCHEM_IUPAC_SYSTEMATIC_NAME>
2-chloranyl-N-(2-chloroethyl)-N-methyl-ethanamine oxide

> <PUBCHEM_IUPAC_TRADITIONAL_NAME>
2-chloro-N-(2-chloroethyl)-N-methyl-ethanamine oxide

> <PUBCHEM_IUPAC_INCHI>
InChI=1S/C5H11Cl2NO/c1-8(9,4-2-6)5-3-7/h2-5H2,1H3

> <PUBCHEM_IUPAC_INCHIKEY>
AFLXUQUGROGEFA-UHFFFAOYSA-N

> <PUBCHEM_XLOGP3_AA>
0.9

> <PUBCHEM_EXACT_MASS>
171.021769

> <PUBCHEM_MOLECULAR_FORMULA>
C5H11Cl2NO

> <PUBCHEM_MOLECULAR_WEIGHT>
172.05294

> <PUBCHEM_OPENEYE_CAN_SMILES>
C[N+](CCCl)(CCCl)[O-]

> <PUBCHEM_OPENEYE_ISO_SMILES>
C[N+](CCCl)(CCCl)[O-]

> <PUBCHEM_CACTVS_TPSA>
18.1

> <PUBCHEM_MONOISOTOPIC_WEIGHT>
171.021769

> <PUBCHEM_TOTAL_CHARGE>
0

> <PUBCHEM_HEAVY_ATOM_COUNT>
9

> <PUBCHEM_ATOM_DEF_STEREO_COUNT>
0

> <PUBCHEM_ATOM_UDEF_STEREO_COUNT>
0

> <PUBCHEM_BOND_DEF_STEREO_COUNT>
0

> <PUBCHEM_BOND_UDEF_STEREO_COUNT>
0

> <PUBCHEM_ISOTOPIC_ATOM_COUNT>
0

> <PUBCHEM_COMPONENT_COUNT>
1

> <PUBCHEM_CACTVS_TAUTO_COUNT>
1

> <PUBCHEM_COORDINATE_TYPE>
1
5
255

$$$$

