155380
  -OEChem-07051213092D

 41 43  0     0  0  0  0  0  0999 V2000
    4.3198    1.7744    0.0000 O   0  0  0  0  0  0  0  0  0  0  0  0
    6.0682    1.7398    0.0000 O   0  0  0  0  0  0  0  0  0  0  0  0
    6.0682   -2.2602    0.0000 O   0  0  0  0  0  0  0  0  0  0  0  0
    9.5984    0.7639    0.0000 O   0  0  0  0  0  0  0  0  0  0  0  0
    7.8167    1.7744    0.0000 O   0  0  0  0  0  0  0  0  0  0  0  0
    9.5984   -1.2844    0.0000 O   0  0  0  0  0  0  0  0  0  0  0  0
    2.5381    0.7639    0.0000 O   0  0  0  0  0  0  0  0  0  0  0  0
    5.2022    0.2398    0.0000 C   0  0  0  0  0  0  0  0  0  0  0  0
    5.2022   -0.7602    0.0000 C   0  0  0  0  0  0  0  0  0  0  0  0
    6.9343    0.2398    0.0000 C   0  0  0  0  0  0  0  0  0  0  0  0
    6.9343   -0.7602    0.0000 C   0  0  0  0  0  0  0  0  0  0  0  0
    6.0682    0.7398    0.0000 C   0  0  0  0  0  0  0  0  0  0  0  0
    6.0682   -1.2602    0.0000 C   0  0  0  0  0  0  0  0  0  0  0  0
    4.3083    0.7744    0.0000 C   0  0  0  0  0  0  0  0  0  0  0  0
    4.3083   -1.2949    0.0000 C   0  0  0  0  0  0  0  0  0  0  0  0
    3.4022   -0.7810    0.0000 C   0  0  0  0  0  0  0  0  0  0  0  0
    7.8282    0.7744    0.0000 C   0  0  0  0  0  0  0  0  0  0  0  0
    7.8282   -1.2949    0.0000 C   0  0  0  0  0  0  0  0  0  0  0  0
    3.4022    0.2606    0.0000 C   0  0  0  0  0  0  0  0  0  0  0  0
    8.7343    0.2606    0.0000 C   0  0  0  0  0  0  0  0  0  0  0  0
    8.7343   -0.7810    0.0000 C   0  0  0  0  0  0  0  0  0  0  0  0
    2.5381   -1.2844    0.0000 C   0  0  0  0  0  0  0  0  0  0  0  0
    3.4597    2.2844    0.0000 C   0  0  0  0  0  0  0  0  0  0  0  0
   10.4663    0.2673    0.0000 C   0  0  0  0  0  0  0  0  0  0  0  0
    9.5945   -2.2844    0.0000 C   0  0  0  0  0  0  0  0  0  0  0  0
    4.3154   -1.9148    0.0000 H   0  0  0  0  0  0  0  0  0  0  0  0
    7.8210   -1.9148    0.0000 H   0  0  0  0  0  0  0  0  0  0  0  0
    2.2261   -0.7486    0.0000 H   0  0  0  0  0  0  0  0  0  0  0  0
    2.0024   -1.5964    0.0000 H   0  0  0  0  0  0  0  0  0  0  0  0
    2.8502   -1.8201    0.0000 H   0  0  0  0  0  0  0  0  0  0  0  0
    8.3500    2.0906    0.0000 H   0  0  0  0  0  0  0  0  0  0  0  0
    2.0000    0.4560    0.0000 H   0  0  0  0  0  0  0  0  0  0  0  0
    3.7758    2.8177    0.0000 H   0  0  0  0  0  0  0  0  0  0  0  0
    2.9263    2.6006    0.0000 H   0  0  0  0  0  0  0  0  0  0  0  0
    3.1435    1.7510    0.0000 H   0  0  0  0  0  0  0  0  0  0  0  0
   10.1584   -0.2709    0.0000 H   0  0  0  0  0  0  0  0  0  0  0  0
   11.0045   -0.0407    0.0000 H   0  0  0  0  0  0  0  0  0  0  0  0
   10.7743    0.8054    0.0000 H   0  0  0  0  0  0  0  0  0  0  0  0
    8.9745   -2.2820    0.0000 H   0  0  0  0  0  0  0  0  0  0  0  0
    9.5921   -2.9044    0.0000 H   0  0  0  0  0  0  0  0  0  0  0  0
   10.2145   -2.2868    0.0000 H   0  0  0  0  0  0  0  0  0  0  0  0
  1 14  1  0  0  0  0
  1 23  1  0  0  0  0
  2 12  2  0  0  0  0
  3 13  2  0  0  0  0
  4 20  1  0  0  0  0
  4 24  1  0  0  0  0
  5 17  1  0  0  0  0
  5 31  1  0  0  0  0
  6 21  1  0  0  0  0
  6 25  1  0  0  0  0
  7 19  1  0  0  0  0
  7 32  1  0  0  0  0
  8  9  2  0  0  0  0
  8 12  1  0  0  0  0
  8 14  1  0  0  0  0
  9 13  1  0  0  0  0
  9 15  1  0  0  0  0
 10 11  1  0  0  0  0
 10 12  1  0  0  0  0
 10 17  2  0  0  0  0
 11 13  1  0  0  0  0
 11 18  2  0  0  0  0
 14 19  2  0  0  0  0
 15 16  2  0  0  0  0
 15 26  1  0  0  0  0
 16 19  1  0  0  0  0
 16 22  1  0  0  0  0
 17 20  1  0  0  0  0
 18 21  1  0  0  0  0
 18 27  1  0  0  0  0
 20 21  2  0  0  0  0
 22 28  1  0  0  0  0
 22 29  1  0  0  0  0
 22 30  1  0  0  0  0
 23 33  1  0  0  0  0
 23 34  1  0  0  0  0
 23 35  1  0  0  0  0
 24 36  1  0  0  0  0
 24 37  1  0  0  0  0
 24 38  1  0  0  0  0
 25 39  1  0  0  0  0
 25 40  1  0  0  0  0
 25 41  1  0  0  0  0
M  END
> <PUBCHEM_COMPOUND_CID>
155380

> <PUBCHEM_COMPOUND_CANONICALIZED>
1

> <PUBCHEM_CACTVS_COMPLEXITY>
536

> <PUBCHEM_CACTVS_HBOND_ACCEPTOR>
7

> <PUBCHEM_CACTVS_HBOND_DONOR>
2

> <PUBCHEM_CACTVS_ROTATABLE_BOND>
3

> <PUBCHEM_CACTVS_SUBSKEYS>
AAADceB4OAAAAAAAAAAAAAAAAAAAAAAAAAAwYMAAAAAAAADBQAAAGgAACAAADASAmAIyBoAABgCIAqBSAAACCAAkIAAAiAEGiMgNJzaGNRqAcWMl4BULuYeL7PzO4AADCAAYQADAAAYQADCAAAAAAAAAAA==

> <PUBCHEM_IUPAC_OPENEYE_NAME>
1,7-dihydroxy-2,3,8-trimethoxy-6-methyl-anthracene-9,10-dione

> <PUBCHEM_IUPAC_CAS_NAME>
1,7-dihydroxy-2,3,8-trimethoxy-6-methylanthracene-9,10-dione

> <PUBCHEM_IUPAC_NAME>
1,7-dihydroxy-2,3,8-trimethoxy-6-methylanthracene-9,10-dione

> <PUBCHEM_IUPAC_SYSTEMATIC_NAME>
1,6,7-trimethoxy-3-methyl-2,8-bis(oxidanyl)anthracene-9,10-dione

> <PUBCHEM_IUPAC_TRADITIONAL_NAME>
1,7-dihydroxy-2,3,8-trimethoxy-6-methyl-9,10-anthraquinone

> <PUBCHEM_IUPAC_INCHI>
InChI=1S/C18H16O7/c1-7-5-8-12(18(25-4)13(7)19)15(21)11-9(14(8)20)6-10(23-2)17(24-3)16(11)22/h5-6,19,22H,1-4H3

> <PUBCHEM_IUPAC_INCHIKEY>
CFLNHFUPWNRWJA-UHFFFAOYSA-N

> <PUBCHEM_XLOGP3_AA>
3

> <PUBCHEM_EXACT_MASS>
344.089603

> <PUBCHEM_MOLECULAR_FORMULA>
C18H16O7

> <PUBCHEM_MOLECULAR_WEIGHT>
344.31544

> <PUBCHEM_OPENEYE_CAN_SMILES>
CC1=C(C(=C2C(=C1)C(=O)C3=CC(=C(C(=C3C2=O)O)OC)OC)OC)O

> <PUBCHEM_OPENEYE_ISO_SMILES>
CC1=C(C(=C2C(=C1)C(=O)C3=CC(=C(C(=C3C2=O)O)OC)OC)OC)O

> <PUBCHEM_CACTVS_TPSA>
102

> <PUBCHEM_MONOISOTOPIC_WEIGHT>
344.089603

> <PUBCHEM_TOTAL_CHARGE>
0

> <PUBCHEM_HEAVY_ATOM_COUNT>
25

> <PUBCHEM_ATOM_DEF_STEREO_COUNT>
0

> <PUBCHEM_ATOM_UDEF_STEREO_COUNT>
0

> <PUBCHEM_BOND_DEF_STEREO_COUNT>
0

> <PUBCHEM_BOND_UDEF_STEREO_COUNT>
0

> <PUBCHEM_ISOTOPIC_ATOM_COUNT>
0

> <PUBCHEM_COMPONENT_COUNT>
1

> <PUBCHEM_CACTVS_TAUTO_COUNT>
79

> <PUBCHEM_COORDINATE_TYPE>
1
5
255

> <PUBCHEM_BONDANNOTATIONS>
10  11  8
10  17  8
11  18  8
14  19  8
15  16  8
16  19  8
17  20  8
18  21  8
20  21  8
8  14  8
8  9  8
9  15  8

$$$$

