9834513
  -OEChem-07051213123D

 22 22  0     0  0  0  0  0  0999 V2000
   -1.0350   -2.8726   -0.1201 F   0  0  0  0  0  0  0  0  0  0  0  0
    0.6456   -1.6669   -0.7728 F   0  0  0  0  0  0  0  0  0  0  0  0
    0.1487   -1.7809    1.3412 F   0  0  0  0  0  0  0  0  0  0  0  0
    0.9307    1.0962    1.6783 O   0  0  0  0  0  0  0  0  0  0  0  0
    1.4468    1.2567   -0.5766 N   0  0  0  0  0  0  0  0  0  0  0  0
   -3.0283    1.6889   -0.2925 N   0  0  0  0  0  0  0  0  0  0  0  0
    4.2158   -0.7343   -0.3692 N   0  0  0  0  0  0  0  0  0  0  0  0
   -1.3055   -0.4972   -0.0339 C   0  0  0  0  0  0  0  0  0  0  0  0
   -0.8274    0.7946    0.1563 C   0  0  0  0  0  0  0  0  0  0  0  0
   -0.4050   -1.6814    0.0986 C   0  0  0  0  0  0  0  0  0  0  0  0
    0.5622    1.0640    0.4909 C   0  0  0  0  0  0  0  0  0  0  0  0
   -2.6440   -0.6972   -0.3532 C   0  0  0  0  0  0  0  0  0  0  0  0
   -1.7215    1.8440    0.0169 C   0  0  0  0  0  0  0  0  0  0  0  0
   -3.4567    0.4189   -0.4698 C   0  0  0  0  0  0  0  0  0  0  0  0
    2.8596    1.5095   -0.4077 C   0  0  0  0  0  0  0  0  0  0  0  0
    3.6139    0.2577   -0.3863 C   0  0  0  0  0  0  0  0  0  0  0  0
   -3.0586   -1.6869   -0.5100 H   0  0  0  0  0  0  0  0  0  0  0  0
   -1.4085    2.8749    0.1530 H   0  0  0  0  0  0  0  0  0  0  0  0
    1.0866    1.1978   -1.5251 H   0  0  0  0  0  0  0  0  0  0  0  0
   -4.5082    0.3170   -0.7172 H   0  0  0  0  0  0  0  0  0  0  0  0
    3.0174    2.0697    0.5194 H   0  0  0  0  0  0  0  0  0  0  0  0
    3.1790    2.1379   -1.2447 H   0  0  0  0  0  0  0  0  0  0  0  0
  1 10  1  0  0  0  0
  2 10  1  0  0  0  0
  3 10  1  0  0  0  0
  4 11  2  0  0  0  0
  5 11  1  0  0  0  0
  5 15  1  0  0  0  0
  5 19  1  0  0  0  0
  6 13  2  0  0  0  0
  6 14  1  0  0  0  0
  7 16  3  0  0  0  0
  8  9  2  0  0  0  0
  8 10  1  0  0  0  0
  8 12  1  0  0  0  0
  9 11  1  0  0  0  0
  9 13  1  0  0  0  0
 12 14  2  0  0  0  0
 12 17  1  0  0  0  0
 13 18  1  0  0  0  0
 14 20  1  0  0  0  0
 15 16  1  0  0  0  0
 15 21  1  0  0  0  0
 15 22  1  0  0  0  0
M  END
> <PUBCHEM_COMPOUND_CID>
9834513

> <PUBCHEM_CONFORMER_RMSD>
0.6

> <PUBCHEM_CONFORMER_DIVERSEORDER>
1
6
7
11
10
8
3
5
9
4
2

> <PUBCHEM_MMFF94_PARTIAL_CHARGES>
20
1 -0.34
10 1.16
11 0.54
12 -0.15
13 0.16
14 0.16
15 0.5
16 0.36
17 0.15
18 0.15
19 0.37
2 -0.34
20 0.15
3 -0.34
4 -0.57
5 -0.73
6 -0.62
7 -0.56
8 -0.14
9 0.09

> <PUBCHEM_EFFECTIVE_ROTOR_COUNT>
4

> <PUBCHEM_PHARMACOPHORE_FEATURES>
5
1 4 acceptor
1 5 donor
1 6 acceptor
1 7 acceptor
6 6 8 9 12 13 14 rings

> <PUBCHEM_HEAVY_ATOM_COUNT>
16

> <PUBCHEM_ATOM_DEF_STEREO_COUNT>
0

> <PUBCHEM_ATOM_UDEF_STEREO_COUNT>
0

> <PUBCHEM_BOND_DEF_STEREO_COUNT>
0

> <PUBCHEM_BOND_UDEF_STEREO_COUNT>
0

> <PUBCHEM_ISOTOPIC_ATOM_COUNT>
0

> <PUBCHEM_COMPONENT_COUNT>
1

> <PUBCHEM_CACTVS_TAUTO_COUNT>
2

> <PUBCHEM_CONFORMER_ID>
0096101100000001

> <PUBCHEM_MMFF94_ENERGY>
30.9684

> <PUBCHEM_FEATURE_SELFOVERLAP>
25.371

> <PUBCHEM_SHAPE_FINGERPRINT>
10062212 137 18262245515784041422
10922049 32 18201432584551029977
12592029 89 18130220574746839624
12644460 14 18055628675685832769
12715332 25 18259981557023462199
12716758 59 18337394824828994249
13380535 76 18409164437062088055
15207287 21 17749105578168554924
15279308 132 18334581230539855192
16945 1 18194415406890193193
18186145 218 18334006216213547652
20201158 50 18114174246691164334
20645476 183 17775572996154836186
22802520 49 18119247255443904736
23402539 116 18335709329475468781
23419403 2 14347792634211529606
23493267 7 17846785113549721049
23559900 14 18260831476113661952
2748010 2 17617111204740768889
69090 78 18335704918659762228
7364860 26 18048878790718813295
81228 2 17836375847816736433
9709674 26 18335134242439918782

> <PUBCHEM_SHAPE_MULTIPOLES>
286.64
5.57
2.36
0.92
3.83
1.12
-0.31
-1.11
1.56
-0.61
-0.07
0.21
-0.02
0.07

> <PUBCHEM_SHAPE_SELFOVERLAP>
602.008

> <PUBCHEM_SHAPE_VOLUME>
159.9

> <PUBCHEM_COORDINATE_TYPE>
2
5
10

$$$$

