586341
  -OEChem-06241222463D

 38 39  0     1  0  0  0  0  0999 V2000
    0.5034    2.3388    1.4898 O   0  0  0  0  0  0  0  0  0  0  0  0
    1.0050   -2.4426    0.7062 O   0  5  0  0  0  0  0  0  0  0  0  0
    2.9403   -1.4307    0.9979 O   0  0  0  0  0  0  0  0  0  0  0  0
   -4.6878   -0.6327   -0.4542 O   0  0  0  0  0  0  0  0  0  0  0  0
    1.8414   -1.5677    0.4428 N   0  3  0  0  0  0  0  0  0  0  0  0
    1.4654    0.8185   -0.0926 C   0  0  2  0  0  0  0  0  0  0  0  0
    1.5102   -0.6146   -0.6441 C   0  0  1  0  0  0  0  0  0  0  0  0
    2.8598    1.3534    0.2708 C   0  0  0  0  0  0  0  0  0  0  0  0
    2.5476   -0.7937   -1.7514 C   0  0  0  0  0  0  0  0  0  0  0  0
    3.8373    1.2084   -0.8930 C   0  0  0  0  0  0  0  0  0  0  0  0
    3.9231   -0.2314   -1.3881 C   0  0  0  0  0  0  0  0  0  0  0  0
    0.4955    0.9826    1.0804 C   0  0  2  0  0  0  0  0  0  0  0  0
   -0.8839    0.5530    0.6724 C   0  0  0  0  0  0  0  0  0  0  0  0
   -1.5041   -0.4947    1.3425 C   0  0  0  0  0  0  0  0  0  0  0  0
   -1.5263    1.2072   -0.3722 C   0  0  0  0  0  0  0  0  0  0  0  0
   -2.7855   -0.8942    0.9625 C   0  0  0  0  0  0  0  0  0  0  0  0
   -2.8077    0.8078   -0.7521 C   0  0  0  0  0  0  0  0  0  0  0  0
   -3.4371   -0.2429   -0.0848 C   0  0  0  0  0  0  0  0  0  0  0  0
   -5.2968    0.0757   -1.5327 C   0  0  0  0  0  0  0  0  0  0  0  0
    1.1318    1.4637   -0.9190 H   0  0  0  0  0  0  0  0  0  0  0  0
    0.5356   -0.9188   -1.0433 H   0  0  0  0  0  0  0  0  0  0  0  0
    3.2644    0.8868    1.1740 H   0  0  0  0  0  0  0  0  0  0  0  0
    2.7932    2.4233    0.5066 H   0  0  0  0  0  0  0  0  0  0  0  0
    2.1891   -0.2715   -2.6483 H   0  0  0  0  0  0  0  0  0  0  0  0
    2.6492   -1.8505   -2.0287 H   0  0  0  0  0  0  0  0  0  0  0  0
    4.8313    1.5528   -0.5858 H   0  0  0  0  0  0  0  0  0  0  0  0
    3.5195    1.8579   -1.7183 H   0  0  0  0  0  0  0  0  0  0  0  0
    4.5519   -0.2521   -2.2874 H   0  0  0  0  0  0  0  0  0  0  0  0
    4.4491   -0.8582   -0.6628 H   0  0  0  0  0  0  0  0  0  0  0  0
    0.8388    0.4037    1.9457 H   0  0  0  0  0  0  0  0  0  0  0  0
   -0.2664    2.4892    2.0645 H   0  0  0  0  0  0  0  0  0  0  0  0
   -1.0124   -1.0064    2.1649 H   0  0  0  0  0  0  0  0  0  0  0  0
   -1.0604    2.0376   -0.8948 H   0  0  0  0  0  0  0  0  0  0  0  0
   -3.2715   -1.7122    1.4871 H   0  0  0  0  0  0  0  0  0  0  0  0
   -3.2576    1.3587   -1.5709 H   0  0  0  0  0  0  0  0  0  0  0  0
   -6.2856   -0.3666   -1.6926 H   0  0  0  0  0  0  0  0  0  0  0  0
   -4.7356   -0.0505   -2.4647 H   0  0  0  0  0  0  0  0  0  0  0  0
   -5.4548    1.1303   -1.2829 H   0  0  0  0  0  0  0  0  0  0  0  0
  1 12  1  0  0  0  0
  1 31  1  0  0  0  0
  2  5  1  0  0  0  0
  3  5  2  0  0  0  0
  4 18  1  0  0  0  0
  4 19  1  0  0  0  0
  5  7  1  0  0  0  0
  6  7  1  0  0  0  0
  6  8  1  0  0  0  0
  6 12  1  0  0  0  0
  6 20  1  0  0  0  0
  7  9  1  0  0  0  0
  7 21  1  0  0  0  0
  8 10  1  0  0  0  0
  8 22  1  0  0  0  0
  8 23  1  0  0  0  0
  9 11  1  0  0  0  0
  9 24  1  0  0  0  0
  9 25  1  0  0  0  0
 10 11  1  0  0  0  0
 10 26  1  0  0  0  0
 10 27  1  0  0  0  0
 11 28  1  0  0  0  0
 11 29  1  0  0  0  0
 12 13  1  0  0  0  0
 12 30  1  0  0  0  0
 13 14  2  0  0  0  0
 13 15  1  0  0  0  0
 14 16  1  0  0  0  0
 14 32  1  0  0  0  0
 15 17  2  0  0  0  0
 15 33  1  0  0  0  0
 16 18  2  0  0  0  0
 16 34  1  0  0  0  0
 17 18  1  0  0  0  0
 17 35  1  0  0  0  0
 19 36  1  0  0  0  0
 19 37  1  0  0  0  0
 19 38  1  0  0  0  0
M  CHG  2   2  -1   5   1
M  END
> <PUBCHEM_COMPOUND_CID>
586341

> <PUBCHEM_CONFORMER_RMSD>
0.8

> <PUBCHEM_CONFORMER_DIVERSEORDER>
1
21
8
23
20
10
17
24
18
5
11
9
22
4
25
3
16
19
14
13
7
12
15
2
6

> <PUBCHEM_MMFF94_PARTIAL_CHARGES>
19
1 -0.68
12 0.42
13 -0.14
14 -0.15
15 -0.15
16 -0.15
17 -0.15
18 0.08
19 0.28
2 -0.52
3 -0.52
31 0.4
32 0.15
33 0.15
34 0.15
35 0.15
4 -0.36
5 0.8
7 0.24

> <PUBCHEM_EFFECTIVE_ROTOR_COUNT>
5.2

> <PUBCHEM_PHARMACOPHORE_FEATURES>
8
1 1 acceptor
1 1 donor
1 2 acceptor
1 2 anion
1 3 acceptor
1 4 acceptor
6 13 14 15 16 17 18 rings
6 6 7 8 9 10 11 rings

> <PUBCHEM_HEAVY_ATOM_COUNT>
19

> <PUBCHEM_ATOM_DEF_STEREO_COUNT>
0

> <PUBCHEM_ATOM_UDEF_STEREO_COUNT>
3

> <PUBCHEM_BOND_DEF_STEREO_COUNT>
0

> <PUBCHEM_BOND_UDEF_STEREO_COUNT>
0

> <PUBCHEM_ISOTOPIC_ATOM_COUNT>
0

> <PUBCHEM_COMPONENT_COUNT>
1

> <PUBCHEM_CACTVS_TAUTO_COUNT>
2

> <PUBCHEM_CONFORMER_ID>
0008F26500000001

> <PUBCHEM_MMFF94_ENERGY>
57.2768

> <PUBCHEM_FEATURE_SELFOVERLAP>
40.673

> <PUBCHEM_SHAPE_FINGERPRINT>
10498660 4 17989199309444172949
11370993 70 17847061068908075447
11578080 2 16081661087457291905
11640471 11 14764628581969869737
12236239 1 15936681597316224648
12251169 10 7997967964339608373
12553582 1 18187358844416286099
12707595 3 18114183029588145489
12788726 201 17824533300216621009
13296908 3 17676766573425606801
14341114 176 7493288854266953223
15375358 24 18059577949416533581
15635459 17 18186798075894736071
15852999 172 17418081114474007050
16752209 62 17241047721020698113
16945 1 18058995220911874056
18186145 218 18341880901100410872
19422 9 16733248123512100524
19862831 5 18334845152011600780
200 152 18040991847636149269
20279233 1 18201718431672585561
20361792 2 17458625644113022769
20523700 14 18060133224120998103
20645476 183 15985106271853196795
20645477 70 17968667012522970373
21501502 16 18270398433243102097
21637258 2 16225764146582069148
22646028 28 16805317803872706453
23184049 59 10807941422912562320
23402539 116 16773800242663959260
23557571 272 16987988397968750305
23559900 14 17989768903981013154
23596394 208 18337402582030541485
2748010 2 17835510536054384330
2838139 119 16269935781267814028
2871803 45 18409445886247921893
296302 2 16845568678139518652
3060560 45 18343584010542144196
3082319 5 17917706945923938237
3323516 105 18335138648754610713
3472631 163 15769774624534802711
465052 167 16805601409585797501
474 4 13614521831346222493

> <PUBCHEM_SHAPE_MULTIPOLES>
362.55
8.3
1.8
1.53
6.52
0.16
-0.18
0.52
-4.5
-1.16
0.63
0
0.05
0.27

> <PUBCHEM_SHAPE_SELFOVERLAP>
759.548

> <PUBCHEM_SHAPE_VOLUME>
203.7

> <PUBCHEM_COORDINATE_TYPE>
2
5
10

$$$$

