10452519
  -OEChem-07051213153D

 51 52  0     1  0  0  0  0  0999 V2000
    0.1340   -0.2037    0.3667 O   0  0  0  0  0  0  0  0  0  0  0  0
    1.2316    1.3487   -1.0435 O   0  0  0  0  0  0  0  0  0  0  0  0
   -1.8395    1.6618    1.0044 O   0  0  0  0  0  0  0  0  0  0  0  0
   -1.4087   -2.5726    0.7485 O   0  0  0  0  0  0  0  0  0  0  0  0
   -3.8884    2.1796   -0.8436 O   0  0  0  0  0  0  0  0  0  0  0  0
   -4.1804   -2.0404    1.3993 O   0  0  0  0  0  0  0  0  0  0  0  0
   -5.3917   -0.2222   -0.4621 O   0  0  0  0  0  0  0  0  0  0  0  0
    4.4106   -0.2307    1.0638 O   0  0  0  0  0  0  0  0  0  0  0  0
    3.4782    2.4264    1.6700 O   0  0  0  0  0  0  0  0  0  0  0  0
    0.4482    3.9620   -0.9338 O   0  0  0  0  0  0  0  0  0  0  0  0
    2.6464   -2.8978   -2.0417 O   0  0  0  0  0  0  0  0  0  0  0  0
    2.3319   -2.0009    0.0835 N   0  0  0  0  0  0  0  0  0  0  0  0
   -1.1876   -0.3459   -0.1521 C   0  0  0  0  0  0  0  0  0  0  0  0
   -1.8397    1.0316   -0.2803 C   0  0  1  0  0  0  0  0  0  0  0  0
   -1.9855   -1.2635    0.7797 C   0  0  1  0  0  0  0  0  0  0  0  0
   -3.2787    0.8910   -0.7801 C   0  0  1  0  0  0  0  0  0  0  0  0
   -3.4578   -1.3661    0.3650 C   0  0  2  0  0  0  0  0  0  0  0  0
   -4.1142   -0.0007    0.1431 C   0  0  0  0  0  0  0  0  0  0  0  0
    1.0864   -0.0263   -0.6800 C   0  0  1  0  0  0  0  0  0  0  0  0
    2.4447   -0.6048   -0.2716 C   0  0  1  0  0  0  0  0  0  0  0  0
    3.0657    0.2101    0.8658 C   0  0  2  0  0  0  0  0  0  0  0  0
    3.0841    1.6997    0.5087 C   0  0  1  0  0  0  0  0  0  0  0  0
    1.7083    2.1734    0.0255 C   0  0  1  0  0  0  0  0  0  0  0  0
    1.7476    3.6060   -0.4995 C   0  0  0  0  0  0  0  0  0  0  0  0
    2.4432   -3.0293   -0.8376 C   0  0  0  0  0  0  0  0  0  0  0  0
    2.3112   -4.3854   -0.1980 C   0  0  0  0  0  0  0  0  0  0  0  0
   -1.1621   -0.8357   -1.1351 H   0  0  0  0  0  0  0  0  0  0  0  0
   -1.2807    1.6900   -0.9494 H   0  0  0  0  0  0  0  0  0  0  0  0
   -1.8972   -0.9204    1.8182 H   0  0  0  0  0  0  0  0  0  0  0  0
   -3.2887    0.4887   -1.7999 H   0  0  0  0  0  0  0  0  0  0  0  0
   -3.5616   -1.9848   -0.5356 H   0  0  0  0  0  0  0  0  0  0  0  0
   -4.3117    0.5012    1.0982 H   0  0  0  0  0  0  0  0  0  0  0  0
    0.7723   -0.5606   -1.5850 H   0  0  0  0  0  0  0  0  0  0  0  0
    3.1172   -0.5402   -1.1385 H   0  0  0  0  0  0  0  0  0  0  0  0
    2.5366    0.0466    1.8124 H   0  0  0  0  0  0  0  0  0  0  0  0
    3.8375    1.8843   -0.2676 H   0  0  0  0  0  0  0  0  0  0  0  0
    0.9887    2.1445    0.8506 H   0  0  0  0  0  0  0  0  0  0  0  0
    2.1076   -2.2294    1.0478 H   0  0  0  0  0  0  0  0  0  0  0  0
    2.4253    3.7021   -1.3543 H   0  0  0  0  0  0  0  0  0  0  0  0
    2.0592    4.3100    0.2775 H   0  0  0  0  0  0  0  0  0  0  0  0
   -0.9523    1.5628    1.3865 H   0  0  0  0  0  0  0  0  0  0  0  0
   -1.8365   -3.1006    1.4432 H   0  0  0  0  0  0  0  0  0  0  0  0
   -3.8446    2.5727    0.0449 H   0  0  0  0  0  0  0  0  0  0  0  0
   -3.8552   -2.9554    1.4383 H   0  0  0  0  0  0  0  0  0  0  0  0
   -5.9000   -0.7980    0.1344 H   0  0  0  0  0  0  0  0  0  0  0  0
    4.8997   -0.0924    0.2348 H   0  0  0  0  0  0  0  0  0  0  0  0
    4.3490    2.0901    1.9431 H   0  0  0  0  0  0  0  0  0  0  0  0
    0.2079    3.3619   -1.6602 H   0  0  0  0  0  0  0  0  0  0  0  0
    2.2865   -5.1577   -0.9716 H   0  0  0  0  0  0  0  0  0  0  0  0
    3.1650   -4.5649    0.4611 H   0  0  0  0  0  0  0  0  0  0  0  0
    1.3849   -4.4382    0.3814 H   0  0  0  0  0  0  0  0  0  0  0  0
  1 13  1  0  0  0  0
  1 19  1  0  0  0  0
  2 19  1  0  0  0  0
  2 23  1  0  0  0  0
  3 14  1  0  0  0  0
  3 41  1  0  0  0  0
  4 15  1  0  0  0  0
  4 42  1  0  0  0  0
  5 16  1  0  0  0  0
  5 43  1  0  0  0  0
  6 17  1  0  0  0  0
  6 44  1  0  0  0  0
  7 18  1  0  0  0  0
  7 45  1  0  0  0  0
  8 21  1  0  0  0  0
  8 46  1  0  0  0  0
  9 22  1  0  0  0  0
  9 47  1  0  0  0  0
 10 24  1  0  0  0  0
 10 48  1  0  0  0  0
 11 25  2  0  0  0  0
 12 20  1  0  0  0  0
 12 25  1  0  0  0  0
 12 38  1  0  0  0  0
 13 14  1  0  0  0  0
 13 15  1  0  0  0  0
 13 27  1  0  0  0  0
 14 16  1  0  0  0  0
 14 28  1  0  0  0  0
 15 17  1  0  0  0  0
 15 29  1  0  0  0  0
 16 18  1  0  0  0  0
 16 30  1  0  0  0  0
 17 18  1  0  0  0  0
 17 31  1  0  0  0  0
 18 32  1  0  0  0  0
 19 20  1  0  0  0  0
 19 33  1  0  0  0  0
 20 21  1  0  0  0  0
 20 34  1  0  0  0  0
 21 22  1  0  0  0  0
 21 35  1  0  0  0  0
 22 23  1  0  0  0  0
 22 36  1  0  0  0  0
 23 24  1  0  0  0  0
 23 37  1  0  0  0  0
 24 39  1  0  0  0  0
 24 40  1  0  0  0  0
 25 26  1  0  0  0  0
 26 49  1  0  0  0  0
 26 50  1  0  0  0  0
 26 51  1  0  0  0  0
M  END
> <PUBCHEM_COMPOUND_CID>
10452519

> <PUBCHEM_CONFORMER_RMSD>
0.8

> <PUBCHEM_CONFORMER_DIVERSEORDER>
1
14
47
40
29
37
28
44
52
35
21
17
6
49
26
51
50
5
43
27
22
10
19
9
23
31
32
4
53
11
24
18
30
34
7
46
16
54
41
48
15
3
25
2
20
13
12
45
42
38
8
36
39
33

> <PUBCHEM_MMFF94_PARTIAL_CHARGES>
35
1 -0.56
10 -0.68
11 -0.57
12 -0.73
13 0.28
14 0.28
15 0.28
16 0.28
17 0.28
18 0.28
19 0.56
2 -0.56
20 0.3
21 0.28
22 0.28
23 0.28
24 0.28
25 0.57
26 0.06
3 -0.68
38 0.37
4 -0.68
41 0.4
42 0.4
43 0.4
44 0.4
45 0.4
46 0.4
47 0.4
48 0.4
5 -0.68
6 -0.68
7 -0.68
8 -0.68
9 -0.68

> <PUBCHEM_EFFECTIVE_ROTOR_COUNT>
7.4

> <PUBCHEM_PHARMACOPHORE_FEATURES>
22
1 1 acceptor
1 10 acceptor
1 10 donor
1 11 acceptor
1 12 donor
1 2 acceptor
1 3 acceptor
1 3 donor
1 4 acceptor
1 4 donor
1 5 acceptor
1 5 donor
1 6 acceptor
1 6 donor
1 7 acceptor
1 7 donor
1 8 acceptor
1 8 donor
1 9 acceptor
1 9 donor
6 13 14 15 16 17 18 rings
6 2 19 20 21 22 23 rings

> <PUBCHEM_HEAVY_ATOM_COUNT>
26

> <PUBCHEM_ATOM_DEF_STEREO_COUNT>
9

> <PUBCHEM_ATOM_UDEF_STEREO_COUNT>
0

> <PUBCHEM_BOND_DEF_STEREO_COUNT>
0

> <PUBCHEM_BOND_UDEF_STEREO_COUNT>
0

> <PUBCHEM_ISOTOPIC_ATOM_COUNT>
0

> <PUBCHEM_COMPONENT_COUNT>
1

> <PUBCHEM_CACTVS_TAUTO_COUNT>
2

> <PUBCHEM_CONFORMER_ID>
009F7E2700000001

> <PUBCHEM_MMFF94_ENERGY>
68.8721

> <PUBCHEM_FEATURE_SELFOVERLAP>
111.719

> <PUBCHEM_SHAPE_FINGERPRINT>
10616163 171 17981603767155333619
11370993 70 18339089189474570219
11680986 33 18409727404300827871
12403259 226 18121785198874229405
12553582 1 17832409174778315046
12633257 1 17844264946567229808
12788726 201 17473811201379222430
13140716 1 18191589640247129434
13533116 47 18334288804013724603
14223421 5 18411415098809666411
14251757 17 18341334508567760147
14251757 5 17544454810578753406
14866123 147 16897926665956246691
15422964 175 18339646745160181308
17349148 13 18337122184837362225
17492 89 17986112907206412771
18681886 176 18123470475892188344
20600515 1 17845378906812668476
20645477 70 18041282170182602335
20739085 24 18412267208043368072
21033648 29 17898307008604352176
22182313 1 18201719566082236215
23419403 2 16958205071951192904
23559900 14 18411417293405910401
2838139 119 14853014925009571984
5104073 3 18342740663628010449
7364860 26 18335416863840711190
9709674 26 18411981369121259471

> <PUBCHEM_SHAPE_MULTIPOLES>
465.52
8.2
4.72
1.21
7.18
0.94
-0.03
1.12
1.12
-4.38
-1.06
-0.48
0.13
2.03

> <PUBCHEM_SHAPE_SELFOVERLAP>
954.185

> <PUBCHEM_SHAPE_VOLUME>
264

> <PUBCHEM_COORDINATE_TYPE>
2
5
10

$$$$

