240985
  -OEChem-07051213073D

 47 50  0     1  0  0  0  0  0999 V2000
   -3.6337    0.5965    0.9128 O   0  0  0  0  0  0  0  0  0  0  0  0
   -0.2140    2.4765   -1.0921 O   0  0  0  0  0  0  0  0  0  0  0  0
   -5.4062   -0.5940    1.6245 O   0  0  0  0  0  0  0  0  0  0  0  0
    5.4444   -0.8162    1.5936 O   0  0  0  0  0  0  0  0  0  0  0  0
   -0.3587   -0.5670   -0.6827 C   0  0  2  0  0  0  0  0  0  0  0  0
    0.5551    0.4568    0.0741 C   0  0  1  0  0  0  0  0  0  0  0  0
   -1.7611   -0.6391   -0.0111 C   0  0  1  0  0  0  0  0  0  0  0  0
   -2.4629    0.7267    0.0589 C   0  0  2  0  0  0  0  0  0  0  0  0
    2.0380    0.4832   -0.4753 C   0  0  1  0  0  0  0  0  0  0  0  0
   -0.1382    1.8417    0.1764 C   0  0  2  0  0  0  0  0  0  0  0  0
   -1.5424    1.7323    0.7777 C   0  0  0  0  0  0  0  0  0  0  0  0
    0.2953   -1.9644   -0.7260 C   0  0  0  0  0  0  0  0  0  0  0  0
   -2.7038   -1.6602   -0.6494 C   0  0  0  0  0  0  0  0  0  0  0  0
    2.5504   -0.9585   -0.4850 C   0  0  0  0  0  0  0  0  0  0  0  0
    1.7197   -1.9412   -1.2636 C   0  0  0  0  0  0  0  0  0  0  0  0
   -2.9443    1.2813   -1.2932 C   0  0  0  0  0  0  0  0  0  0  0  0
    2.1667    1.0510   -1.9068 C   0  0  0  0  0  0  0  0  0  0  0  0
    2.9063    1.3671    0.4099 C   0  0  0  0  0  0  0  0  0  0  0  0
   -4.1466   -1.5385   -0.1717 C   0  0  0  0  0  0  0  0  0  0  0  0
   -4.4386   -0.4907    0.8737 C   0  0  0  0  0  0  0  0  0  0  0  0
    3.6408   -1.3707    0.1803 C   0  0  0  0  0  0  0  0  0  0  0  0
    3.9921    0.9644    1.0773 C   0  0  0  0  0  0  0  0  0  0  0  0
    4.4418   -0.4372    0.9977 C   0  0  0  0  0  0  0  0  0  0  0  0
   -0.4854   -0.2314   -1.7191 H   0  0  0  0  0  0  0  0  0  0  0  0
    0.6226    0.0876    1.1117 H   0  0  0  0  0  0  0  0  0  0  0  0
   -1.6078   -0.9819    1.0247 H   0  0  0  0  0  0  0  0  0  0  0  0
    0.4460    2.4999    0.8277 H   0  0  0  0  0  0  0  0  0  0  0  0
   -1.4522    1.4398    1.8333 H   0  0  0  0  0  0  0  0  0  0  0  0
   -2.0243    2.7189    0.7903 H   0  0  0  0  0  0  0  0  0  0  0  0
   -0.2911   -2.6369   -1.3623 H   0  0  0  0  0  0  0  0  0  0  0  0
    0.2956   -2.4011    0.2816 H   0  0  0  0  0  0  0  0  0  0  0  0
   -2.3542   -2.6771   -0.4335 H   0  0  0  0  0  0  0  0  0  0  0  0
   -2.6819   -1.5669   -1.7428 H   0  0  0  0  0  0  0  0  0  0  0  0
    1.7192   -1.6739   -2.3264 H   0  0  0  0  0  0  0  0  0  0  0  0
    2.1370   -2.9539   -1.2053 H   0  0  0  0  0  0  0  0  0  0  0  0
   -3.3257    2.3022   -1.1732 H   0  0  0  0  0  0  0  0  0  0  0  0
   -2.1582    1.2977   -2.0513 H   0  0  0  0  0  0  0  0  0  0  0  0
   -3.7810    0.7065   -1.7010 H   0  0  0  0  0  0  0  0  0  0  0  0
    1.4254    0.6303   -2.5932 H   0  0  0  0  0  0  0  0  0  0  0  0
    2.0557    2.1407   -1.9331 H   0  0  0  0  0  0  0  0  0  0  0  0
    3.1565    0.8354   -2.3306 H   0  0  0  0  0  0  0  0  0  0  0  0
    2.6419    2.4194    0.4864 H   0  0  0  0  0  0  0  0  0  0  0  0
   -4.4513   -2.5057    0.2469 H   0  0  0  0  0  0  0  0  0  0  0  0
   -4.8046   -1.3424   -1.0261 H   0  0  0  0  0  0  0  0  0  0  0  0
   -0.6252    3.3480   -0.9634 H   0  0  0  0  0  0  0  0  0  0  0  0
    3.9674   -2.4050    0.1578 H   0  0  0  0  0  0  0  0  0  0  0  0
    4.5722    1.6539    1.6796 H   0  0  0  0  0  0  0  0  0  0  0  0
  1  8  1  0  0  0  0
  1 20  1  0  0  0  0
  2 10  1  0  0  0  0
  2 45  1  0  0  0  0
  3 20  2  0  0  0  0
  4 23  2  0  0  0  0
  5  6  1  0  0  0  0
  5  7  1  0  0  0  0
  5 12  1  0  0  0  0
  5 24  1  0  0  0  0
  6  9  1  0  0  0  0
  6 10  1  0  0  0  0
  6 25  1  0  0  0  0
  7  8  1  0  0  0  0
  7 13  1  0  0  0  0
  7 26  1  0  0  0  0
  8 11  1  0  0  0  0
  8 16  1  0  0  0  0
  9 14  1  0  0  0  0
  9 17  1  0  0  0  0
  9 18  1  0  0  0  0
 10 11  1  0  0  0  0
 10 27  1  0  0  0  0
 11 28  1  0  0  0  0
 11 29  1  0  0  0  0
 12 15  1  0  0  0  0
 12 30  1  0  0  0  0
 12 31  1  0  0  0  0
 13 19  1  0  0  0  0
 13 32  1  0  0  0  0
 13 33  1  0  0  0  0
 14 15  1  0  0  0  0
 14 21  2  0  0  0  0
 15 34  1  0  0  0  0
 15 35  1  0  0  0  0
 16 36  1  0  0  0  0
 16 37  1  0  0  0  0
 16 38  1  0  0  0  0
 17 39  1  0  0  0  0
 17 40  1  0  0  0  0
 17 41  1  0  0  0  0
 18 22  2  0  0  0  0
 18 42  1  0  0  0  0
 19 20  1  0  0  0  0
 19 43  1  0  0  0  0
 19 44  1  0  0  0  0
 21 23  1  0  0  0  0
 21 46  1  0  0  0  0
 22 23  1  0  0  0  0
 22 47  1  0  0  0  0
M  END
> <PUBCHEM_COMPOUND_CID>
240985

> <PUBCHEM_CONFORMER_RMSD>
0.6

> <PUBCHEM_CONFORMER_DIVERSEORDER>
1

> <PUBCHEM_MMFF94_PARTIAL_CHARGES>
19
1 -0.43
10 0.28
14 -0.28
15 0.14
18 -0.29
19 0.06
2 -0.68
20 0.66
21 -0.14
22 -0.14
23 0.54
3 -0.57
4 -0.57
42 0.15
45 0.4
46 0.15
47 0.15
8 0.28
9 0.28

> <PUBCHEM_EFFECTIVE_ROTOR_COUNT>
1.4

> <PUBCHEM_PHARMACOPHORE_FEATURES>
8
1 2 acceptor
1 2 donor
1 3 acceptor
1 4 acceptor
6 1 7 8 13 19 20 rings
6 5 6 7 8 10 11 rings
6 5 6 9 12 14 15 rings
6 9 14 18 21 22 23 rings

> <PUBCHEM_HEAVY_ATOM_COUNT>
23

> <PUBCHEM_ATOM_DEF_STEREO_COUNT>
6

> <PUBCHEM_ATOM_UDEF_STEREO_COUNT>
0

> <PUBCHEM_BOND_DEF_STEREO_COUNT>
0

> <PUBCHEM_BOND_UDEF_STEREO_COUNT>
0

> <PUBCHEM_ISOTOPIC_ATOM_COUNT>
0

> <PUBCHEM_COMPONENT_COUNT>
1

> <PUBCHEM_CACTVS_TAUTO_COUNT>
3

> <PUBCHEM_CONFORMER_ID>
0003AD5900000001

> <PUBCHEM_MMFF94_ENERGY>
71.1231

> <PUBCHEM_FEATURE_SELFOVERLAP>
40.657

> <PUBCHEM_SHAPE_FINGERPRINT>
10675989 125 16751577274675058228
11132069 177 18334013912551887783
11796584 16 16702306745684192627
12236239 1 18131345315724707444
12363563 72 17703501151478976873
12403259 415 18260832605157141840
12403814 3 18413670197706705349
12422481 6 18262232339024694603
12553582 1 18335689521392020733
12633257 1 17822301149761821912
12839892 36 18261403251491874242
12892183 10 17531234106777710331
13140716 1 18188774911849370771
13224815 77 18334855013108618046
13583140 156 17916885606395594894
13675066 3 18342460347959776099
14081887 123 17894911840918767857
14178342 30 18263636428073929281
14223421 5 18189052169410828846
14341114 176 18187645838679283674
14341114 328 17313384487431765056
14790565 3 17975688386029985484
15196674 1 18334013886708185399
15209294 21 17530678797418374555
15536298 74 17967523597201515502
15788980 27 18059861657670528681
16752209 62 11023838248945454623
16945 1 18115018718380789253
17349148 13 18341895173276741950
1813 80 17917703608650122508
19050596 39 18334293145624416971
19784866 240 16630527362247279058
1979834 28 18041821970773981143
19862831 5 10375870774945944583
200 152 14405185062627930339
20261772 1 18334012774454249446
20715895 44 18126012804436714805
20775438 99 13107553358345792233
21069387 34 16415473865679821480
21267235 1 18409156714737516734
21637258 2 16343433894694569418
21756936 100 17025173821782143944
21857420 4 14325209619086695531
22182313 1 18264765635500696415
23184049 59 18335421240164368534
23402539 116 18411149029928229791
23557571 272 18261098712350243766
23559900 14 18041829740295525518
2748010 2 18335693992241940503
296302 2 14996284716700894678
312423 11 17131823270482472109
3286 77 16128658526643862204
350125 39 18333446548100118768
392239 28 17749113266065043498
394222 165 17770483249925515052
465052 167 18131061610942578074
474 4 5472847199699604130
5104073 3 18117274967928468634
633830 44 17022901216387039156
7064713 232 17966968313901809147
9709674 26 18043535116752048886

> <PUBCHEM_SHAPE_MULTIPOLES>
449.85
9.39
2.2
1.41
1.03
0.07
0.13
-2.18
-5.15
0.07
0.52
-0.29
0.18
0.09

> <PUBCHEM_SHAPE_SELFOVERLAP>
973.635

> <PUBCHEM_SHAPE_VOLUME>
241.3

> <PUBCHEM_COORDINATE_TYPE>
2
5
10

$$$$

