9614
  -OEChem-06261203523D

 25 24  0     0  0  0  0  0  0999 V2000
   -4.0519   -1.0133   -0.3704 F   0  0  0  0  0  0  0  0  0  0  0  0
    4.8905    0.0651   -0.1879 N   0  0  0  0  0  0  0  0  0  0  0  0
   -0.0901    0.5991   -0.1241 C   0  0  0  0  0  0  0  0  0  0  0  0
    1.1009   -0.2954    0.2267 C   0  0  0  0  0  0  0  0  0  0  0  0
   -1.4144   -0.0674    0.2561 C   0  0  0  0  0  0  0  0  0  0  0  0
    2.4542    0.3191   -0.1447 C   0  0  0  0  0  0  0  0  0  0  0  0
   -2.6060    0.8086   -0.1228 C   0  0  0  0  0  0  0  0  0  0  0  0
    3.6396   -0.5880    0.1834 C   0  0  0  0  0  0  0  0  0  0  0  0
   -3.9229    0.1723    0.2837 C   0  0  0  0  0  0  0  0  0  0  0  0
    0.0050    1.5583    0.3988 H   0  0  0  0  0  0  0  0  0  0  0  0
   -0.0805    0.8137   -1.1996 H   0  0  0  0  0  0  0  0  0  0  0  0
    1.0887   -0.5097    1.3026 H   0  0  0  0  0  0  0  0  0  0  0  0
    0.9934   -1.2579   -0.2890 H   0  0  0  0  0  0  0  0  0  0  0  0
   -1.4286   -0.2624    1.3354 H   0  0  0  0  0  0  0  0  0  0  0  0
   -1.4953   -1.0380   -0.2482 H   0  0  0  0  0  0  0  0  0  0  0  0
    2.5650    1.2747    0.3838 H   0  0  0  0  0  0  0  0  0  0  0  0
    2.4579    0.5496   -1.2180 H   0  0  0  0  0  0  0  0  0  0  0  0
   -2.6050    0.9652   -1.2079 H   0  0  0  0  0  0  0  0  0  0  0  0
   -2.5166    1.7907    0.3549 H   0  0  0  0  0  0  0  0  0  0  0  0
    3.5518   -1.5332   -0.3625 H   0  0  0  0  0  0  0  0  0  0  0  0
    3.6533   -0.8196    1.2540 H   0  0  0  0  0  0  0  0  0  0  0  0
   -4.7684    0.8065    0.0031 H   0  0  0  0  0  0  0  0  0  0  0  0
   -3.9660   -0.0239    1.3589 H   0  0  0  0  0  0  0  0  0  0  0  0
    5.6740   -0.5281    0.0823 H   0  0  0  0  0  0  0  0  0  0  0  0
    4.9942    0.9321    0.3378 H   0  0  0  0  0  0  0  0  0  0  0  0
  1  9  1  0  0  0  0
  2  8  1  0  0  0  0
  2 24  1  0  0  0  0
  2 25  1  0  0  0  0
  3  4  1  0  0  0  0
  3  5  1  0  0  0  0
  3 10  1  0  0  0  0
  3 11  1  0  0  0  0
  4  6  1  0  0  0  0
  4 12  1  0  0  0  0
  4 13  1  0  0  0  0
  5  7  1  0  0  0  0
  5 14  1  0  0  0  0
  5 15  1  0  0  0  0
  6  8  1  0  0  0  0
  6 16  1  0  0  0  0
  6 17  1  0  0  0  0
  7  9  1  0  0  0  0
  7 18  1  0  0  0  0
  7 19  1  0  0  0  0
  8 20  1  0  0  0  0
  8 21  1  0  0  0  0
  9 22  1  0  0  0  0
  9 23  1  0  0  0  0
M  END
> <PUBCHEM_COMPOUND_CID>
9614

> <PUBCHEM_CONFORMER_RMSD>
0.6

> <PUBCHEM_CONFORMER_DIVERSEORDER>
2
64
167
120
147
161
1
160
44
79
115
4
146
56
168
5
36
157
51
55
63
83
129
65
151
41
54
159
100
27
141
109
154
74
158
12
94
136
66
80
93
30
19
130
169
47
21
118
162
24
78
133
71
149
117
125
28
132
25
16
26
163
43
166
144
87
121
6
9
97
134
119
164
128
15
140
165
49
31
156
14
40
88
61
150
17
59
18
123
58
98
13
85
53
143
7
20
48
73
152
23
33
72
155
34
138
112
70
11
86
124
8
148
137
102
104
3
81
37
67
116
84
142
32
45
101
62
126
106
46
131
127
107
90
77
22
145
52
153
50
110
113
10
69
57
135
111
95
139
82
75
76
60
108
42
99
91
103
92
105
29
122
35
89
39
96
68
38
114

> <PUBCHEM_MMFF94_PARTIAL_CHARGES>
6
1 -0.34
2 -0.99
24 0.36
25 0.36
8 0.27
9 0.34

> <PUBCHEM_EFFECTIVE_ROTOR_COUNT>
6

> <PUBCHEM_PHARMACOPHORE_FEATURES>
3
1 2 cation
1 2 donor
5 3 4 5 6 7 hydrophobe

> <PUBCHEM_HEAVY_ATOM_COUNT>
9

> <PUBCHEM_ATOM_DEF_STEREO_COUNT>
0

> <PUBCHEM_ATOM_UDEF_STEREO_COUNT>
0

> <PUBCHEM_BOND_DEF_STEREO_COUNT>
0

> <PUBCHEM_BOND_UDEF_STEREO_COUNT>
0

> <PUBCHEM_ISOTOPIC_ATOM_COUNT>
0

> <PUBCHEM_COMPONENT_COUNT>
1

> <PUBCHEM_CACTVS_TAUTO_COUNT>
1

> <PUBCHEM_CONFORMER_ID>
0000258E00000002

> <PUBCHEM_MMFF94_ENERGY>
-4.6748

> <PUBCHEM_FEATURE_SELFOVERLAP>
15.223

> <PUBCHEM_SHAPE_FINGERPRINT>
11062470 55 10592042461964270240
12932764 1 15502670354587186241
14123238 8 18411699881158971900
14325111 11 18412826918847084569
17834072 33 18337952294915705948
17834076 25 12967131622853139437
18342897 14 14996280331697586803
190213 19 17530683225144469641
20645477 70 18201157775775610506
20719005 15 18412262839691745794
20828058 21 18186799197202940516
20828058 44 17821729429295297119
21293036 1 17846779611295454064
22485316 2 18410577313761771986
23402539 116 18272376390205092437
42788 4 18342457053814916008

> <PUBCHEM_SHAPE_MULTIPOLES>
172.96
9.33
0.86
0.64
2.78
0.02
-0.02
1.15
0.42
-0.36
0.04
-0.08
0.01
-0.21

> <PUBCHEM_SHAPE_SELFOVERLAP>
303.332

> <PUBCHEM_SHAPE_VOLUME>
113.8

> <PUBCHEM_COORDINATE_TYPE>
2
5
10

$$$$

