439784
  -OEChem-07051212473D

 35 37  0     1  0  0  0  0  0999 V2000
    1.6159   -2.1006   -0.0173 O   0  0  0  0  0  0  0  0  0  0  0  0
    0.1376    1.6667    0.6878 O   0  0  0  0  0  0  0  0  0  0  0  0
    2.4866    2.6713    0.2751 O   0  0  0  0  0  0  0  0  0  0  0  0
   -5.8055    0.2648   -0.1935 O   0  0  0  0  0  0  0  0  0  0  0  0
    5.9982   -0.3933   -0.6185 O   0  0  0  0  0  0  0  0  0  0  0  0
   -0.2897   -0.7175    0.6326 C   0  0  1  0  0  0  0  0  0  0  0  0
    0.2523   -1.7853   -0.3180 C   0  0  0  0  0  0  0  0  0  0  0  0
    0.5582    0.5334    0.4851 C   0  0  0  0  0  0  0  0  0  0  0  0
   -1.7643   -0.4546    0.4117 C   0  0  0  0  0  0  0  0  0  0  0  0
    1.9805    0.3056    0.1479 C   0  0  0  0  0  0  0  0  0  0  0  0
    2.4327   -1.0004   -0.0639 C   0  0  0  0  0  0  0  0  0  0  0  0
    2.8729    1.3791    0.0823 C   0  0  0  0  0  0  0  0  0  0  0  0
   -2.6701   -0.6537    1.4524 C   0  0  0  0  0  0  0  0  0  0  0  0
   -2.2138   -0.0141   -0.8322 C   0  0  0  0  0  0  0  0  0  0  0  0
    3.7869   -1.2353   -0.3073 C   0  0  0  0  0  0  0  0  0  0  0  0
    4.2220    1.1396   -0.1815 C   0  0  0  0  0  0  0  0  0  0  0  0
    4.6790   -0.1648   -0.3709 C   0  0  0  0  0  0  0  0  0  0  0  0
   -4.0286   -0.4119    1.2488 C   0  0  0  0  0  0  0  0  0  0  0  0
   -3.5723    0.2279   -1.0359 C   0  0  0  0  0  0  0  0  0  0  0  0
   -4.4799    0.0291    0.0047 C   0  0  0  0  0  0  0  0  0  0  0  0
   -6.1987    0.7139   -1.4895 C   0  0  0  0  0  0  0  0  0  0  0  0
   -0.1281   -1.0551    1.6663 H   0  0  0  0  0  0  0  0  0  0  0  0
   -0.3214   -2.7132   -0.2095 H   0  0  0  0  0  0  0  0  0  0  0  0
    0.1852   -1.4929   -1.3745 H   0  0  0  0  0  0  0  0  0  0  0  0
   -2.3337   -0.9968    2.4270 H   0  0  0  0  0  0  0  0  0  0  0  0
   -1.5209    0.1536   -1.6523 H   0  0  0  0  0  0  0  0  0  0  0  0
    4.1401   -2.2529   -0.4564 H   0  0  0  0  0  0  0  0  0  0  0  0
    4.9294    1.9640   -0.2343 H   0  0  0  0  0  0  0  0  0  0  0  0
   -4.7308   -0.5686    2.0631 H   0  0  0  0  0  0  0  0  0  0  0  0
   -3.8542    0.5703   -2.0257 H   0  0  0  0  0  0  0  0  0  0  0  0
    3.2578    3.2573    0.1884 H   0  0  0  0  0  0  0  0  0  0  0  0
    6.1383   -1.3500   -0.7236 H   0  0  0  0  0  0  0  0  0  0  0  0
   -5.7585    1.6880   -1.7284 H   0  0  0  0  0  0  0  0  0  0  0  0
   -7.2849    0.8505   -1.4685 H   0  0  0  0  0  0  0  0  0  0  0  0
   -5.9857   -0.0374   -2.2574 H   0  0  0  0  0  0  0  0  0  0  0  0
  1  7  1  0  0  0  0
  1 11  1  0  0  0  0
  2  8  2  0  0  0  0
  3 12  1  0  0  0  0
  3 31  1  0  0  0  0
  4 20  1  0  0  0  0
  4 21  1  0  0  0  0
  5 17  1  0  0  0  0
  5 32  1  0  0  0  0
  6  7  1  0  0  0  0
  6  8  1  0  0  0  0
  6  9  1  0  0  0  0
  6 22  1  0  0  0  0
  7 23  1  0  0  0  0
  7 24  1  0  0  0  0
  8 10  1  0  0  0  0
  9 13  2  0  0  0  0
  9 14  1  0  0  0  0
 10 11  1  0  0  0  0
 10 12  2  0  0  0  0
 11 15  2  0  0  0  0
 12 16  1  0  0  0  0
 13 18  1  0  0  0  0
 13 25  1  0  0  0  0
 14 19  2  0  0  0  0
 14 26  1  0  0  0  0
 15 17  1  0  0  0  0
 15 27  1  0  0  0  0
 16 17  2  0  0  0  0
 16 28  1  0  0  0  0
 18 20  2  0  0  0  0
 18 29  1  0  0  0  0
 19 20  1  0  0  0  0
 19 30  1  0  0  0  0
 21 33  1  0  0  0  0
 21 34  1  0  0  0  0
 21 35  1  0  0  0  0
M  END
> <PUBCHEM_COMPOUND_CID>
439784

> <PUBCHEM_CONFORMER_RMSD>
0.6

> <PUBCHEM_CONFORMER_DIVERSEORDER>
1
4
2
8
6
5
7
3

> <PUBCHEM_MMFF94_PARTIAL_CHARGES>
29
1 -0.36
10 0.09
11 0.08
12 0.08
13 -0.15
14 -0.15
15 -0.15
16 -0.15
17 0.08
18 -0.15
19 -0.15
2 -0.57
20 0.08
21 0.28
25 0.15
26 0.15
27 0.15
28 0.15
29 0.15
3 -0.53
30 0.15
31 0.45
32 0.45
4 -0.36
5 -0.53
6 0.2
7 0.28
8 0.42
9 -0.14

> <PUBCHEM_EFFECTIVE_ROTOR_COUNT>
2.6

> <PUBCHEM_PHARMACOPHORE_FEATURES>
8
1 1 acceptor
1 2 acceptor
1 3 donor
1 4 acceptor
1 5 donor
6 1 6 7 8 10 11 rings
6 10 11 12 15 16 17 rings
6 9 13 14 18 19 20 rings

> <PUBCHEM_HEAVY_ATOM_COUNT>
21

> <PUBCHEM_ATOM_DEF_STEREO_COUNT>
0

> <PUBCHEM_ATOM_UDEF_STEREO_COUNT>
1

> <PUBCHEM_BOND_DEF_STEREO_COUNT>
0

> <PUBCHEM_BOND_UDEF_STEREO_COUNT>
0

> <PUBCHEM_ISOTOPIC_ATOM_COUNT>
0

> <PUBCHEM_COMPONENT_COUNT>
1

> <PUBCHEM_CACTVS_TAUTO_COUNT>
21

> <PUBCHEM_CONFORMER_ID>
0006B5E800000001

> <PUBCHEM_MMFF94_ENERGY>
70.929

> <PUBCHEM_FEATURE_SELFOVERLAP>
40.624

> <PUBCHEM_SHAPE_FINGERPRINT>
10693767 8 17968376878903546838
11471102 20 18409164411529524522
11595378 159 14548750533533983557
11796584 16 17132112455484791682
12011746 2 18411693301522334198
12236239 1 17240481412144265107
12403259 415 18201152148629428785
12730499 353 18272930535998075715
12838862 33 18336560348087540096
12969540 114 17987817266963774231
13140716 1 18263643957868855258
13288520 33 14634870855906503475
13402501 40 18202288013050627309
13760787 5 18113891646079698121
13836976 161 18187365428332242670
13862211 1 18334574681374345446
14294032 229 16009857511951877257
14386348 63 18060133245775020267
15099037 51 18408881824388477166
15183329 4 18187932828578813333
15196674 1 18336542695186352114
15242439 84 18202562873629534433
15375358 24 18131633383312615611
15788980 27 18413388717754720651
17834072 33 18187931647225189911
18186145 218 18335137557869834362
200 152 18040433312787685193
20612939 158 18334856091325159944
20645477 56 17703791427508081291
20645477 70 18335702779555435527
21033648 29 18059581247672010977
21033650 10 15359350040730738642
21267235 1 18261099781744495522
21641784 216 18198886162940413212
21709351 56 18411700941931725639
21792961 116 18130497639662743750
221357 26 18410018762261498701
22224240 67 10303803260198136508
22289505 5 18341618147870527292
231179 274 18201721743102978762
23402539 116 17240759605518074448
23402655 69 18335706065711370799
23557571 272 17274822484573789205
23559900 14 17346596413001796850
23569943 247 17316179614042955814
2871803 45 18410853300192141616
29717793 49 17240478126156881620
3060560 45 18334012796314273126
335352 9 18408884028091835238
3545911 37 18202281403559714179
4072396 5 18341063986053144570
474 4 18335137557526943130
542803 24 14261632824315500715
602551 16 16558458674113601722
633830 44 17631739252969801202
8272917 22 18261106426386093183

> <PUBCHEM_SHAPE_MULTIPOLES>
402.82
12.41
1.7
1.08
6.38
0.34
-0.03
1.98
3.78
-1.65
-0.09
1.33
0
1.01

> <PUBCHEM_SHAPE_SELFOVERLAP>
889.063

> <PUBCHEM_SHAPE_VOLUME>
215.2

> <PUBCHEM_COORDINATE_TYPE>
2
5
10

$$$$

