56928070
  -OEChem-07051212522D

 46 47  0     1  0  0  0  0  0999 V2000
    4.6650   -0.7497    0.0000 O   0  0  0  0  0  0  0  0  0  0  0  0
    2.0000   -2.7714    0.0000 O   0  0  0  0  0  0  0  0  0  0  0  0
    6.2528    0.1733    0.0000 O   0  0  0  0  0  0  0  0  0  0  0  0
    9.2528   -1.5587    0.0000 O   0  0  0  0  0  0  0  0  0  0  0  0
    7.7528   -2.4247    0.0000 O   0  0  0  0  0  0  0  0  0  0  0  0
    9.7528   -0.6927    0.0000 O   0  0  0  0  0  0  0  0  0  0  0  0
    3.7139   -2.0587    0.0000 N   0  0  0  0  0  0  0  0  0  0  0  0
    8.2528    0.1733    0.0000 N   0  0  0  0  0  0  0  0  0  0  0  0
   10.7528    1.0394    0.0000 N   0  0  0  0  0  0  0  0  0  0  0  0
    3.7139   -1.0587    0.0000 C   0  0  2  0  0  0  0  0  0  0  0  0
    5.2528   -1.5587    0.0000 C   0  0  2  0  0  0  0  0  0  0  0  0
    4.6650   -2.3677    0.0000 C   0  0  0  0  0  0  0  0  0  0  0  0
    2.7056   -1.0546    0.0000 C   0  0  0  0  0  0  0  0  0  0  0  0
    6.2528   -1.5587    0.0000 C   0  0  0  0  0  0  0  0  0  0  0  0
    2.7056   -2.0629    0.0000 C   0  0  0  0  0  0  0  0  0  0  0  0
    6.7528   -0.6927    0.0000 C   0  0  3  0  0  0  0  0  0  0  0  0
    7.7528   -0.6927    0.0000 C   0  0  3  0  0  0  0  0  0  0  0  0
    9.7528    1.0394    0.0000 C   0  0  3  0  0  0  0  0  0  0  0  0
    8.2528   -1.5587    0.0000 C   0  0  0  0  0  0  0  0  0  0  0  0
    9.2528    0.1733    0.0000 C   0  0  0  0  0  0  0  0  0  0  0  0
    9.2528    1.9054    0.0000 C   0  0  0  0  0  0  0  0  0  0  0  0
    9.7528    2.7714    0.0000 C   0  0  0  0  0  0  0  0  0  0  0  0
    8.2528    1.9054    0.0000 C   0  0  0  0  0  0  0  0  0  0  0  0
    3.5827   -0.2189    0.0000 H   0  0  0  0  0  0  0  0  0  0  0  0
    5.5342   -1.0063    0.0000 H   0  0  0  0  0  0  0  0  0  0  0  0
    4.4128   -2.9341    0.0000 H   0  0  0  0  0  0  0  0  0  0  0  0
    5.2019   -2.6777    0.0000 H   0  0  0  0  0  0  0  0  0  0  0  0
    2.7074   -0.4346    0.0000 H   0  0  0  0  0  0  0  0  0  0  0  0
    2.0856   -1.0537    0.0000 H   0  0  0  0  0  0  0  0  0  0  0  0
    6.1451   -2.1693    0.0000 H   0  0  0  0  0  0  0  0  0  0  0  0
    6.8354   -1.7708    0.0000 H   0  0  0  0  0  0  0  0  0  0  0  0
    6.1328   -0.6927    0.0000 H   0  0  0  0  0  0  0  0  0  0  0  0
    7.4428   -0.1558    0.0000 H   0  0  0  0  0  0  0  0  0  0  0  0
    7.9428    0.7103    0.0000 H   0  0  0  0  0  0  0  0  0  0  0  0
    6.5628    0.7103    0.0000 H   0  0  0  0  0  0  0  0  0  0  0  0
   10.0628    0.5024    0.0000 H   0  0  0  0  0  0  0  0  0  0  0  0
    9.8728    1.9054    0.0000 H   0  0  0  0  0  0  0  0  0  0  0  0
   10.2897    2.4614    0.0000 H   0  0  0  0  0  0  0  0  0  0  0  0
   10.0628    3.3084    0.0000 H   0  0  0  0  0  0  0  0  0  0  0  0
    9.2158    3.0814    0.0000 H   0  0  0  0  0  0  0  0  0  0  0  0
    8.2528    2.5254    0.0000 H   0  0  0  0  0  0  0  0  0  0  0  0
    7.6328    1.9054    0.0000 H   0  0  0  0  0  0  0  0  0  0  0  0
    8.2528    1.2854    0.0000 H   0  0  0  0  0  0  0  0  0  0  0  0
   11.0628    1.5763    0.0000 H   0  0  0  0  0  0  0  0  0  0  0  0
   11.0628    0.5024    0.0000 H   0  0  0  0  0  0  0  0  0  0  0  0
    9.5628   -2.0956    0.0000 H   0  0  0  0  0  0  0  0  0  0  0  0
  1 10  1  0  0  0  0
  1 11  1  0  0  0  0
  2 15  2  0  0  0  0
  3 16  1  0  0  0  0
  3 35  1  0  0  0  0
  4 19  1  0  0  0  0
  4 46  1  0  0  0  0
  5 19  2  0  0  0  0
  6 20  2  0  0  0  0
  7 10  1  0  0  0  0
  7 12  1  0  0  0  0
  7 15  1  0  0  0  0
  8 17  1  0  0  0  0
  8 20  1  0  0  0  0
  8 34  1  0  0  0  0
  9 18  1  0  0  0  0
  9 44  1  0  0  0  0
  9 45  1  0  0  0  0
 10 13  1  0  0  0  0
 10 24  1  1  0  0  0
 11 12  1  0  0  0  0
 11 14  1  1  0  0  0
 11 25  1  0  0  0  0
 12 26  1  0  0  0  0
 12 27  1  0  0  0  0
 13 15  1  0  0  0  0
 13 28  1  0  0  0  0
 13 29  1  0  0  0  0
 14 16  1  0  0  0  0
 14 30  1  0  0  0  0
 14 31  1  0  0  0  0
 16 17  1  0  0  0  0
 16 32  1  0  0  0  0
 17 19  1  0  0  0  0
 17 33  1  0  0  0  0
 18 20  1  0  0  0  0
 18 21  1  0  0  0  0
 18 36  1  0  0  0  0
 21 22  1  0  0  0  0
 21 23  1  0  0  0  0
 21 37  1  0  0  0  0
 22 38  1  0  0  0  0
 22 39  1  0  0  0  0
 22 40  1  0  0  0  0
 23 41  1  0  0  0  0
 23 42  1  0  0  0  0
 23 43  1  0  0  0  0
M  END
> <PUBCHEM_COMPOUND_CID>
56928070

> <PUBCHEM_COMPOUND_CANONICALIZED>
1

> <PUBCHEM_CACTVS_COMPLEXITY>
497

> <PUBCHEM_CACTVS_HBOND_ACCEPTOR>
7

> <PUBCHEM_CACTVS_HBOND_DONOR>
4

> <PUBCHEM_CACTVS_ROTATABLE_BOND>
7

> <PUBCHEM_CACTVS_SUBSKEYS>
AAADceBzOAAAAAAAAAAAAAAAAABYAWAAAAAAAAAABYAAAAAAAAAAHgAQCAAADTzhgAYCCAPABgAIAAGQGAAAAAAAAAAAAIGIAAACUB4AgCAfQAAHNgCQAAG4bAxIAAAAAAAAAAAAAAAAAAAAAAAAAAAAAA==

> <PUBCHEM_IUPAC_OPENEYE_NAME>
2-[(2-amino-3-methyl-butanoyl)amino]-3-hydroxy-4-[(3S,5S)-7-oxo-4-oxa-1-azabicyclo[3.2.0]heptan-3-yl]butanoic acid

> <PUBCHEM_IUPAC_CAS_NAME>
2-[(2-amino-3-methyl-1-oxobutyl)amino]-3-hydroxy-4-[(3S,5S)-7-oxo-4-oxa-1-azabicyclo[3.2.0]heptan-3-yl]butanoic acid

> <PUBCHEM_IUPAC_NAME>
2-[(2-amino-3-methylbutanoyl)amino]-3-hydroxy-4-[(3S,5S)-7-oxo-4-oxa-1-azabicyclo[3.2.0]heptan-3-yl]butanoic acid

> <PUBCHEM_IUPAC_SYSTEMATIC_NAME>
2-[(2-azanyl-3-methyl-butanoyl)amino]-3-oxidanyl-4-[(3S,5S)-7-oxidanylidene-4-oxa-1-azabicyclo[3.2.0]heptan-3-yl]butanoic acid

> <PUBCHEM_IUPAC_TRADITIONAL_NAME>
2-[(2-amino-3-methyl-butanoyl)amino]-3-hydroxy-4-[(3S,5S)-7-keto-4-oxa-1-azabicyclo[3.2.0]heptan-3-yl]butyric acid

> <PUBCHEM_IUPAC_INCHI>
InChI=1S/C14H23N3O6/c1-6(2)11(15)13(20)16-12(14(21)22)8(18)3-7-5-17-9(19)4-10(17)23-7/h6-8,10-12,18H,3-5,15H2,1-2H3,(H,16,20)(H,21,22)/t7-,8?,10-,11?,12?/m0/s1

> <PUBCHEM_IUPAC_INCHIKEY>
YCGXMNQNHBKSKZ-JVYUANJDSA-N

> <PUBCHEM_XLOGP3_AA>
-3.9

> <PUBCHEM_EXACT_MASS>
329.158685

> <PUBCHEM_MOLECULAR_FORMULA>
C14H23N3O6

> <PUBCHEM_MOLECULAR_WEIGHT>
329.34892

> <PUBCHEM_OPENEYE_CAN_SMILES>
CC(C)C(C(=O)NC(C(CC1CN2C(O1)CC2=O)O)C(=O)O)N

> <PUBCHEM_OPENEYE_ISO_SMILES>
CC(C)C(C(=O)NC(C(C[C@H]1CN2[C@@H](O1)CC2=O)O)C(=O)O)N

> <PUBCHEM_CACTVS_TPSA>
142

> <PUBCHEM_MONOISOTOPIC_WEIGHT>
329.158685

> <PUBCHEM_TOTAL_CHARGE>
0

> <PUBCHEM_HEAVY_ATOM_COUNT>
23

> <PUBCHEM_ATOM_DEF_STEREO_COUNT>
2

> <PUBCHEM_ATOM_UDEF_STEREO_COUNT>
3

> <PUBCHEM_BOND_DEF_STEREO_COUNT>
0

> <PUBCHEM_BOND_UDEF_STEREO_COUNT>
0

> <PUBCHEM_ISOTOPIC_ATOM_COUNT>
0

> <PUBCHEM_COMPONENT_COUNT>
1

> <PUBCHEM_CACTVS_TAUTO_COUNT>
4

> <PUBCHEM_COORDINATE_TYPE>
1
5
255

> <PUBCHEM_BONDANNOTATIONS>
10  24  5
11  14  5
17  19  3
16  3  3
18  9  3

$$$$

