164697
  -OEChem-07051213093D

 20 19  0     1  0  0  0  0  0999 V2000
    1.5917   -1.0234    1.2459 O   0  0  0  0  0  0  0  0  0  0  0  0
   -3.2738   -1.1330   -0.3802 O   0  0  0  0  0  0  0  0  0  0  0  0
   -2.9251    0.9101    0.5482 O   0  0  0  0  0  0  0  0  0  0  0  0
    2.1173    1.8108   -0.0442 N   0  0  0  0  0  0  0  0  0  0  0  0
    2.9417   -1.1463   -0.6048 N   0  0  0  0  0  0  0  0  0  0  0  0
   -0.1561    0.8702   -0.0153 C   0  0  0  0  0  0  0  0  0  0  0  0
    1.3021    0.6645   -0.4457 C   0  0  2  0  0  0  0  0  0  0  0  0
   -1.0532   -0.2981   -0.4344 C   0  0  0  0  0  0  0  0  0  0  0  0
    1.9475   -0.5756    0.1564 C   0  0  0  0  0  0  0  0  0  0  0  0
   -2.4921   -0.0793   -0.0259 C   0  0  0  0  0  0  0  0  0  0  0  0
   -0.2163    0.9964    1.0742 H   0  0  0  0  0  0  0  0  0  0  0  0
   -0.5428    1.7986   -0.4563 H   0  0  0  0  0  0  0  0  0  0  0  0
    1.3343    0.5804   -1.5392 H   0  0  0  0  0  0  0  0  0  0  0  0
   -1.0244   -0.4129   -1.5237 H   0  0  0  0  0  0  0  0  0  0  0  0
   -0.7188   -1.2309    0.0304 H   0  0  0  0  0  0  0  0  0  0  0  0
    1.7247    2.6650   -0.4383 H   0  0  0  0  0  0  0  0  0  0  0  0
    3.0527    1.7208   -0.4398 H   0  0  0  0  0  0  0  0  0  0  0  0
    3.4302   -1.9773   -0.2882 H   0  0  0  0  0  0  0  0  0  0  0  0
    3.2274   -0.7617   -1.4995 H   0  0  0  0  0  0  0  0  0  0  0  0
   -4.2097   -0.9975   -0.1193 H   0  0  0  0  0  0  0  0  0  0  0  0
  1  9  2  0  0  0  0
  2 10  1  0  0  0  0
  2 20  1  0  0  0  0
  3 10  2  0  0  0  0
  4  7  1  0  0  0  0
  4 16  1  0  0  0  0
  4 17  1  0  0  0  0
  5  9  1  0  0  0  0
  5 18  1  0  0  0  0
  5 19  1  0  0  0  0
  6  7  1  0  0  0  0
  6  8  1  0  0  0  0
  6 11  1  0  0  0  0
  6 12  1  0  0  0  0
  7  9  1  0  0  0  0
  7 13  1  0  0  0  0
  8 10  1  0  0  0  0
  8 14  1  0  0  0  0
  8 15  1  0  0  0  0
M  END
> <PUBCHEM_COMPOUND_CID>
164697

> <PUBCHEM_CONFORMER_RMSD>
0.6

> <PUBCHEM_CONFORMER_DIVERSEORDER>
8
66
13
59
26
64
14
49
38
20
22
46
28
6
56
3
54
21
60
43
30
63
61
11
52
17
57
62
18
10
65
55
51
42
40
15
4
50
1
7
33
29
44
12
32
48
2
45
39
36
27
58
37
5
53
31
34
19
9
16
47
35
24
25
23
41

> <PUBCHEM_MMFF94_PARTIAL_CHARGES>
14
1 -0.57
10 0.66
16 0.36
17 0.36
18 0.37
19 0.37
2 -0.65
20 0.5
3 -0.57
4 -0.99
5 -0.8
7 0.33
8 0.06
9 0.57

> <PUBCHEM_EFFECTIVE_ROTOR_COUNT>
4

> <PUBCHEM_PHARMACOPHORE_FEATURES>
7
1 1 acceptor
1 2 acceptor
1 3 acceptor
1 4 cation
1 4 donor
1 5 donor
3 2 3 10 anion

> <PUBCHEM_HEAVY_ATOM_COUNT>
10

> <PUBCHEM_ATOM_DEF_STEREO_COUNT>
0

> <PUBCHEM_ATOM_UDEF_STEREO_COUNT>
1

> <PUBCHEM_BOND_DEF_STEREO_COUNT>
0

> <PUBCHEM_BOND_UDEF_STEREO_COUNT>
0

> <PUBCHEM_ISOTOPIC_ATOM_COUNT>
0

> <PUBCHEM_COMPONENT_COUNT>
1

> <PUBCHEM_CACTVS_TAUTO_COUNT>
2

> <PUBCHEM_CONFORMER_ID>
0002835900000008

> <PUBCHEM_MMFF94_ENERGY>
9.1528

> <PUBCHEM_FEATURE_SELFOVERLAP>
35.579

> <PUBCHEM_SHAPE_FINGERPRINT>
12897270 3 15554440829526973158
12932764 1 17988646324004782173
14128692 85 18411415137517022204
14325111 11 18408602535444618677
170605 34 18267868281094364332
177051 138 18113902641507420095
20645477 70 18411426081479184855
20653091 64 18411422804091843320
23552333 60 18409167697148091472
23552423 10 18272369754638894989
29004967 10 17346881139147151709
3248919 1 18186810179407890669

> <PUBCHEM_SHAPE_MULTIPOLES>
178.23
5
1.42
0.81
2.52
0.29
-0.12
-1.03
0.15
-0.65
-0.02
-0.19
-0.15
-0.32

> <PUBCHEM_SHAPE_SELFOVERLAP>
338

> <PUBCHEM_SHAPE_VOLUME>
109.2

> <PUBCHEM_COORDINATE_TYPE>
2
5
10

$$$$

