11954203
  -OEChem-07051213073D

 45 46  0     1  0  0  0  0  0999 V2000
   -0.3025    0.5984    0.2373 O   0  0  0  0  0  0  0  0  0  0  0  0
   -1.8306   -0.6217   -1.1033 O   0  0  0  0  0  0  0  0  0  0  0  0
    3.2721    1.1199   -0.3101 O   0  0  0  0  0  0  0  0  0  0  0  0
    0.7476   -2.1179   -0.2096 O   0  0  0  0  0  0  0  0  0  0  0  0
   -1.8207    2.9269   -0.1473 O   0  0  0  0  0  0  0  0  0  0  0  0
   -4.4611    2.0412    0.6400 O   0  0  0  0  0  0  0  0  0  0  0  0
    3.4292   -2.3525    0.8439 O   0  0  0  0  0  0  0  0  0  0  0  0
   -4.4801   -0.7124    1.4579 O   0  0  0  0  0  0  0  0  0  0  0  0
    1.4943    2.5879   -0.6686 O   0  0  0  0  0  0  0  0  0  0  0  0
   -1.9350   -3.3293   -0.7709 O   0  0  0  0  0  0  0  0  0  0  0  0
    5.9382    1.0193    0.3515 O   0  0  0  0  0  0  0  0  0  0  0  0
    0.9925    0.2837   -0.2739 C   0  0  2  0  0  0  0  0  0  0  0  0
    1.4793   -1.0253    0.3481 C   0  0  2  0  0  0  0  0  0  0  0  0
   -1.2722    0.6599   -0.8069 C   0  0  1  0  0  0  0  0  0  0  0  0
   -2.3816    1.6729   -0.5194 C   0  0  1  0  0  0  0  0  0  0  0  0
   -3.3156    1.1878    0.5875 C   0  0  2  0  0  0  0  0  0  0  0  0
    2.9635   -1.2552    0.0626 C   0  0  1  0  0  0  0  0  0  0  0  0
   -3.7922   -0.2380    0.3029 C   0  0  1  0  0  0  0  0  0  0  0  0
   -2.6125   -1.1610   -0.0315 C   0  0  1  0  0  0  0  0  0  0  0  0
    3.7818   -0.0078    0.4039 C   0  0  1  0  0  0  0  0  0  0  0  0
    1.9332    1.4415    0.0595 C   0  0  1  0  0  0  0  0  0  0  0  0
   -3.0763   -2.5468   -0.4719 C   0  0  0  0  0  0  0  0  0  0  0  0
    5.2486   -0.1716    0.0182 C   0  0  0  0  0  0  0  0  0  0  0  0
    0.9745    0.1436   -1.3642 H   0  0  0  0  0  0  0  0  0  0  0  0
    1.2766   -1.0338    1.4262 H   0  0  0  0  0  0  0  0  0  0  0  0
   -0.7922    1.0207   -1.7258 H   0  0  0  0  0  0  0  0  0  0  0  0
   -2.9729    1.8382   -1.4286 H   0  0  0  0  0  0  0  0  0  0  0  0
   -2.8268    1.2565    1.5673 H   0  0  0  0  0  0  0  0  0  0  0  0
    3.0940   -1.5256   -0.9924 H   0  0  0  0  0  0  0  0  0  0  0  0
   -4.5072   -0.2275   -0.5299 H   0  0  0  0  0  0  0  0  0  0  0  0
   -1.9637   -1.2882    0.8454 H   0  0  0  0  0  0  0  0  0  0  0  0
    3.7362    0.2116    1.4794 H   0  0  0  0  0  0  0  0  0  0  0  0
    1.8848    1.6918    1.1269 H   0  0  0  0  0  0  0  0  0  0  0  0
   -3.6919   -2.4943   -1.3760 H   0  0  0  0  0  0  0  0  0  0  0  0
   -3.6465   -3.0499    0.3143 H   0  0  0  0  0  0  0  0  0  0  0  0
    5.3531   -0.3264   -1.0609 H   0  0  0  0  0  0  0  0  0  0  0  0
    5.7130   -1.0072    0.5504 H   0  0  0  0  0  0  0  0  0  0  0  0
    1.0837   -2.9332    0.2006 H   0  0  0  0  0  0  0  0  0  0  0  0
   -1.2491    2.7782    0.6255 H   0  0  0  0  0  0  0  0  0  0  0  0
   -4.9734    1.7992    1.4297 H   0  0  0  0  0  0  0  0  0  0  0  0
    3.3225   -2.1197    1.7820 H   0  0  0  0  0  0  0  0  0  0  0  0
   -5.2993   -0.1972    1.5474 H   0  0  0  0  0  0  0  0  0  0  0  0
    1.8110    3.3704   -0.1862 H   0  0  0  0  0  0  0  0  0  0  0  0
   -1.4311   -2.8645   -1.4607 H   0  0  0  0  0  0  0  0  0  0  0  0
    6.8677    0.8944    0.0943 H   0  0  0  0  0  0  0  0  0  0  0  0
  1 12  1  0  0  0  0
  1 14  1  0  0  0  0
  2 14  1  0  0  0  0
  2 19  1  0  0  0  0
  3 20  1  0  0  0  0
  3 21  1  0  0  0  0
  4 13  1  0  0  0  0
  4 38  1  0  0  0  0
  5 15  1  0  0  0  0
  5 39  1  0  0  0  0
  6 16  1  0  0  0  0
  6 40  1  0  0  0  0
  7 17  1  0  0  0  0
  7 41  1  0  0  0  0
  8 18  1  0  0  0  0
  8 42  1  0  0  0  0
  9 21  1  0  0  0  0
  9 43  1  0  0  0  0
 10 22  1  0  0  0  0
 10 44  1  0  0  0  0
 11 23  1  0  0  0  0
 11 45  1  0  0  0  0
 12 13  1  0  0  0  0
 12 21  1  0  0  0  0
 12 24  1  0  0  0  0
 13 17  1  0  0  0  0
 13 25  1  0  0  0  0
 14 15  1  0  0  0  0
 14 26  1  0  0  0  0
 15 16  1  0  0  0  0
 15 27  1  0  0  0  0
 16 18  1  0  0  0  0
 16 28  1  0  0  0  0
 17 20  1  0  0  0  0
 17 29  1  0  0  0  0
 18 19  1  0  0  0  0
 18 30  1  0  0  0  0
 19 22  1  0  0  0  0
 19 31  1  0  0  0  0
 20 23  1  0  0  0  0
 20 32  1  0  0  0  0
 21 33  1  0  0  0  0
 22 34  1  0  0  0  0
 22 35  1  0  0  0  0
 23 36  1  0  0  0  0
 23 37  1  0  0  0  0
M  END
> <PUBCHEM_COMPOUND_CID>
11954203

> <PUBCHEM_CONFORMER_RMSD>
0.8

> <PUBCHEM_CONFORMER_DIVERSEORDER>
1
72
137
73
85
44
129
92
9
119
89
75
53
86
79
21
52
97
116
25
41
54
81
40
51
101
46
130
27
48
109
106
63
19
102
114
118
110
5
38
34
3
115
100
135
77
49
13
15
125
99
120
8
133
76
138
24
45
93
94
98
128
74
84
108
2
88
131
132
121
36
7
112
104
62
56
111
37
68
65
82
123
107
61
91
105
39
127
18
78
87
11
136
58
22
60
90
17
124
59
4
66
83
134
43
103
6
26
55
42
10
117
69
80
70
95
31
28
67
14
33
96
50
30
126
113
35
29
47
122
16
64
71
57
23
32
12
20

> <PUBCHEM_MMFF94_PARTIAL_CHARGES>
31
1 -0.56
10 -0.68
11 -0.68
12 0.28
13 0.28
14 0.56
15 0.28
16 0.28
17 0.28
18 0.28
19 0.28
2 -0.56
20 0.28
21 0.56
22 0.28
23 0.28
3 -0.56
38 0.4
39 0.4
4 -0.68
40 0.4
41 0.4
42 0.4
43 0.4
44 0.4
45 0.4
5 -0.68
6 -0.68
7 -0.68
8 -0.68
9 -0.68

> <PUBCHEM_EFFECTIVE_ROTOR_COUNT>
6.4

> <PUBCHEM_PHARMACOPHORE_FEATURES>
21
1 1 acceptor
1 10 acceptor
1 10 donor
1 11 acceptor
1 11 donor
1 2 acceptor
1 3 acceptor
1 4 acceptor
1 4 donor
1 5 acceptor
1 5 donor
1 6 acceptor
1 6 donor
1 7 acceptor
1 7 donor
1 8 acceptor
1 8 donor
1 9 acceptor
1 9 donor
6 2 14 15 16 18 19 rings
6 3 12 13 17 20 21 rings

> <PUBCHEM_HEAVY_ATOM_COUNT>
23

> <PUBCHEM_ATOM_DEF_STEREO_COUNT>
9

> <PUBCHEM_ATOM_UDEF_STEREO_COUNT>
1

> <PUBCHEM_BOND_DEF_STEREO_COUNT>
0

> <PUBCHEM_BOND_UDEF_STEREO_COUNT>
0

> <PUBCHEM_ISOTOPIC_ATOM_COUNT>
0

> <PUBCHEM_COMPONENT_COUNT>
1

> <PUBCHEM_CACTVS_TAUTO_COUNT>
1

> <PUBCHEM_CONFORMER_ID>
00B6681B00000001

> <PUBCHEM_MMFF94_ENERGY>
64.7709

> <PUBCHEM_FEATURE_SELFOVERLAP>
106.682

> <PUBCHEM_SHAPE_FINGERPRINT>
10366900 7 17531259369385039603
10493431 412 18336262439874702593
10616163 171 18409449146123220974
11552529 35 17676774150001449487
12166972 35 6483057557950456211
12251169 10 18409727352966838271
12553582 1 18340214007007540431
12633257 1 18337110189035837443
13140716 1 18196085534608335715
14178342 30 18338254690482754834
14341114 176 18339635741348363320
15196674 1 18411419556996327642
15209289 33 18202281385862900066
15442244 35 18339929306827063994
1813 80 17131544020303965724
20261772 1 18410005516276142787
21267235 1 18411973642031748391
21673915 165 18411703158161269282
23402539 116 17060626602918549932
23557571 272 18040150691228740660
23559900 14 18265065643019150441
23566358 27 18199456671624194701
23622692 118 18044383729523539127
2748010 2 17904762533270044839
34934 24 18270969058292486265
350125 39 18337953381078266389
4214541 1 18408886243545899304
5104073 3 18340486780496424920
7097593 13 18411702096977052822

> <PUBCHEM_SHAPE_MULTIPOLES>
408.77
9.92
3.03
0.88
7.46
0.71
-0.05
-0.59
-2.36
-1.84
0.43
-0.54
0.1
-0.72

> <PUBCHEM_SHAPE_SELFOVERLAP>
836.007

> <PUBCHEM_SHAPE_VOLUME>
231.3

> <PUBCHEM_COORDINATE_TYPE>
2
5
10

$$$$

