5792
  -OEChem-06261200533D

 29 31  0     1  0  0  0  0  0999 V2000
    1.2688   -2.2305    1.1981 O   0  0  0  0  0  0  0  0  0  0  0  0
   -1.2079   -1.1235   -0.8728 N   0  0  0  0  0  0  0  0  0  0  0  0
   -0.7068    0.0656    0.9370 N   0  0  0  0  0  0  0  0  0  0  0  0
    1.0830   -1.4131    0.0251 C   0  0  1  0  0  0  0  0  0  0  0  0
   -0.2608   -0.8065    0.0607 C   0  0  0  0  0  0  0  0  0  0  0  0
   -2.3406   -0.4081   -0.5797 C   0  0  0  0  0  0  0  0  0  0  0  0
    2.2277   -0.4029   -0.0923 C   0  0  0  0  0  0  0  0  0  0  0  0
   -2.0025    0.3260    0.5538 C   0  0  0  0  0  0  0  0  0  0  0  0
   -3.5936   -0.3421   -1.1901 C   0  0  0  0  0  0  0  0  0  0  0  0
   -2.9589    1.1819    1.1258 C   0  0  0  0  0  0  0  0  0  0  0  0
    2.6104    0.0149   -1.3456 C   0  0  0  0  0  0  0  0  0  0  0  0
    2.8288    0.0469    1.0602 C   0  0  0  0  0  0  0  0  0  0  0  0
   -4.5332    0.5148   -0.6076 C   0  0  0  0  0  0  0  0  0  0  0  0
   -4.2235    1.2641    0.5298 C   0  0  0  0  0  0  0  0  0  0  0  0
    3.6535    0.9349   -1.4526 C   0  0  0  0  0  0  0  0  0  0  0  0
    3.8717    0.9669    0.9533 C   0  0  0  0  0  0  0  0  0  0  0  0
    4.2840    1.4109   -0.3031 C   0  0  0  0  0  0  0  0  0  0  0  0
    1.1589   -2.1098   -0.8202 H   0  0  0  0  0  0  0  0  0  0  0  0
   -1.0973   -1.7688   -1.6438 H   0  0  0  0  0  0  0  0  0  0  0  0
   -3.8315   -0.9247   -2.0729 H   0  0  0  0  0  0  0  0  0  0  0  0
   -2.7281    1.7683    2.0094 H   0  0  0  0  0  0  0  0  0  0  0  0
    2.1222   -0.3508   -2.2436 H   0  0  0  0  0  0  0  0  0  0  0  0
    2.5148   -0.2740    2.0481 H   0  0  0  0  0  0  0  0  0  0  0  0
   -5.5231    0.5986   -1.0492 H   0  0  0  0  0  0  0  0  0  0  0  0
   -4.9749    1.9215    0.9598 H   0  0  0  0  0  0  0  0  0  0  0  0
    2.1557   -2.6268    1.1446 H   0  0  0  0  0  0  0  0  0  0  0  0
    3.9741    1.2811   -2.4309 H   0  0  0  0  0  0  0  0  0  0  0  0
    4.3606    1.3404    1.8484 H   0  0  0  0  0  0  0  0  0  0  0  0
    5.0954    2.1280   -0.3862 H   0  0  0  0  0  0  0  0  0  0  0  0
  1  4  1  0  0  0  0
  1 26  1  0  0  0  0
  2  5  1  0  0  0  0
  2  6  1  0  0  0  0
  2 19  1  0  0  0  0
  3  5  2  0  0  0  0
  3  8  1  0  0  0  0
  4  5  1  0  0  0  0
  4  7  1  0  0  0  0
  4 18  1  0  0  0  0
  6  8  1  0  0  0  0
  6  9  2  0  0  0  0
  7 11  2  0  0  0  0
  7 12  1  0  0  0  0
  8 10  2  0  0  0  0
  9 13  1  0  0  0  0
  9 20  1  0  0  0  0
 10 14  1  0  0  0  0
 10 21  1  0  0  0  0
 11 15  1  0  0  0  0
 11 22  1  0  0  0  0
 12 16  2  0  0  0  0
 12 23  1  0  0  0  0
 13 14  2  0  0  0  0
 13 24  1  0  0  0  0
 14 25  1  0  0  0  0
 15 17  2  0  0  0  0
 15 27  1  0  0  0  0
 16 17  1  0  0  0  0
 16 28  1  0  0  0  0
 17 29  1  0  0  0  0
M  END
> <PUBCHEM_COMPOUND_CID>
5792

> <PUBCHEM_CONFORMER_RMSD>
0.6

> <PUBCHEM_CONFORMER_DIVERSEORDER>
3
2
4
1

> <PUBCHEM_MMFF94_PARTIAL_CHARGES>
28
1 -0.68
10 -0.15
11 -0.15
12 -0.15
13 -0.15
14 -0.15
15 -0.15
16 -0.15
17 -0.15
19 0.27
2 0.03
20 0.15
21 0.15
22 0.15
23 0.15
24 0.15
25 0.15
26 0.4
27 0.15
28 0.15
29 0.15
3 -0.57
4 0.6
5 0.01
6 -0.15
7 -0.14
8 0.23
9 -0.15

> <PUBCHEM_EFFECTIVE_ROTOR_COUNT>
2

> <PUBCHEM_PHARMACOPHORE_FEATURES>
7
1 1 acceptor
1 1 donor
1 2 donor
3 2 3 5 cation
5 2 3 5 6 8 rings
6 6 8 9 10 13 14 rings
6 7 11 12 15 16 17 rings

> <PUBCHEM_HEAVY_ATOM_COUNT>
17

> <PUBCHEM_ATOM_DEF_STEREO_COUNT>
0

> <PUBCHEM_ATOM_UDEF_STEREO_COUNT>
1

> <PUBCHEM_BOND_DEF_STEREO_COUNT>
0

> <PUBCHEM_BOND_UDEF_STEREO_COUNT>
0

> <PUBCHEM_ISOTOPIC_ATOM_COUNT>
0

> <PUBCHEM_COMPONENT_COUNT>
1

> <PUBCHEM_CACTVS_TAUTO_COUNT>
1

> <PUBCHEM_CONFORMER_ID>
000016A000000003

> <PUBCHEM_MMFF94_ENERGY>
37.3569

> <PUBCHEM_FEATURE_SELFOVERLAP>
35.627

> <PUBCHEM_SHAPE_FINGERPRINT>
10498660 4 17967253130489955961
11543360 7 16732702727047826588
11640471 11 18412548695377037782
12173636 292 17967818301236628093
12186901 62 16877657985521426757
12251169 10 15339115715243907902
12346177 29 11311786033713886187
12363563 72 6988327118556832476
12507560 40 14692576511354804182
12633257 1 15051453761061169648
12670546 177 16732704934777288757
12707595 3 6194839263494157886
12788726 201 17695065501177541714
128620 24 18113338596220936295
12892183 10 14620801478952156292
13581323 91 12823295706061380831
13583140 156 14979964618449623375
13675066 3 13039188113047594429
13705890 14 15357694193546895604
14252887 29 9151173134720282718
14289901 80 17846497075841642659
14341114 176 14836405843856592764
15188451 53 12535341243479147513
15239191 94 7997969072277705493
15342168 16 18059566975564011653
15775835 57 18409730660017868032
15885798 251 10735878374297882143
16752209 62 6988051093872625351
1813 80 17907299111133696202
18186145 218 18272365408053045590
193927 3 9151167688322443285
19862831 5 17676482869423880752
200 152 4967620464206438452
20281475 54 5184348508023662647
20361792 2 7565347517989328882
204376 136 17989203728849716195
20645477 70 4823216125889286012
20671657 53 6699807566256967562
20871999 31 16877949304468033279
21065199 12 14476964475723504420
21501925 9 12247671652163204187
21524375 3 18412266121089347754
21713013 43 15213300785562900052
21756936 100 15623378951091292430
22079108 93 18271794714853487897
22169311 14 14620800400725356788
2255824 54 18196934581103327810
22646028 1 10159697997364472357
22854114 59 16988560208302533365
23402539 116 17749396957809367460
23402655 69 17167573895618306656
23557571 272 17532658935891721087
23559900 14 16733826531237586406
23596394 208 15213022660829238060
2838139 119 17827643557109704120
3472631 163 18261393312657905357
351380 3 8646775508009206532
4028521 119 17966968322396901833
42 15 12895355503465023893
4340502 62 17775282786006111947
465052 167 7853566963618337221
474 4 18272650130024888956
4990 188 16732983136920075036
5281201 14 16515677836508086088
5374978 207 14333402359387123277
5924683 9 15410604827838000761
6049 1 14273748373276099227
633830 44 18411692214278501294
7364860 26 18189618422416263798
90316 7 11671787091572396719
94968 8 6411295737046220548
960060 61 13984660351847120097

> <PUBCHEM_SHAPE_MULTIPOLES>
334.02
9.22
1.52
1.35
1.54
0.15
-0.11
-4.41
-2.04
-0.1
0.35
-0.73
0.09
-0.79

> <PUBCHEM_SHAPE_SELFOVERLAP>
741.386

> <PUBCHEM_SHAPE_VOLUME>
179.8

> <PUBCHEM_COORDINATE_TYPE>
2
5
10

$$$$

