12435
  -OEChem-06261206563D

 17 16  0     0  0  0  0  0  0999 V2000
    0.5123    1.5568   -0.0036 O   0  0  0  0  0  0  0  0  0  0  0  0
   -1.0681   -0.1471   -0.0004 N   0  0  0  0  0  0  0  0  0  0  0  0
    1.2423   -0.6237   -0.0008 N   0  0  0  0  0  0  0  0  0  0  0  0
    0.2479    0.3506   -0.0052 C   0  0  0  0  0  0  0  0  0  0  0  0
   -2.2281    0.7342    0.0066 C   0  0  0  0  0  0  0  0  0  0  0  0
   -1.3552   -1.5795   -0.0024 C   0  0  0  0  0  0  0  0  0  0  0  0
    2.6490   -0.2912    0.0058 C   0  0  0  0  0  0  0  0  0  0  0  0
   -1.9261    1.7844    0.0132 H   0  0  0  0  0  0  0  0  0  0  0  0
   -2.8229    0.5275    0.9011 H   0  0  0  0  0  0  0  0  0  0  0  0
   -2.8246    0.5396   -0.8893 H   0  0  0  0  0  0  0  0  0  0  0  0
   -0.8887   -2.0431   -0.8766 H   0  0  0  0  0  0  0  0  0  0  0  0
   -2.4345   -1.7544   -0.0427 H   0  0  0  0  0  0  0  0  0  0  0  0
   -0.9549   -2.0270    0.9122 H   0  0  0  0  0  0  0  0  0  0  0  0
    1.0051   -1.6070    0.0477 H   0  0  0  0  0  0  0  0  0  0  0  0
    2.8463    0.5030   -0.7190 H   0  0  0  0  0  0  0  0  0  0  0  0
    3.2215   -1.1853   -0.2513 H   0  0  0  0  0  0  0  0  0  0  0  0
    2.9216    0.0521    1.0069 H   0  0  0  0  0  0  0  0  0  0  0  0
  1  4  2  0  0  0  0
  2  4  1  0  0  0  0
  2  5  1  0  0  0  0
  2  6  1  0  0  0  0
  3  4  1  0  0  0  0
  3  7  1  0  0  0  0
  3 14  1  0  0  0  0
  5  8  1  0  0  0  0
  5  9  1  0  0  0  0
  5 10  1  0  0  0  0
  6 11  1  0  0  0  0
  6 12  1  0  0  0  0
  6 13  1  0  0  0  0
  7 15  1  0  0  0  0
  7 16  1  0  0  0  0
  7 17  1  0  0  0  0
M  END
> <PUBCHEM_COMPOUND_CID>
12435

> <PUBCHEM_CONFORMER_RMSD>
0.4

> <PUBCHEM_CONFORMER_DIVERSEORDER>
1

> <PUBCHEM_MMFF94_PARTIAL_CHARGES>
8
1 -0.57
14 0.37
2 -0.66
3 -0.73
4 0.69
5 0.3
6 0.3
7 0.3

> <PUBCHEM_EFFECTIVE_ROTOR_COUNT>
2

> <PUBCHEM_PHARMACOPHORE_FEATURES>
2
1 1 acceptor
1 3 donor

> <PUBCHEM_HEAVY_ATOM_COUNT>
7

> <PUBCHEM_ATOM_DEF_STEREO_COUNT>
0

> <PUBCHEM_ATOM_UDEF_STEREO_COUNT>
0

> <PUBCHEM_BOND_DEF_STEREO_COUNT>
0

> <PUBCHEM_BOND_UDEF_STEREO_COUNT>
0

> <PUBCHEM_ISOTOPIC_ATOM_COUNT>
0

> <PUBCHEM_COMPONENT_COUNT>
1

> <PUBCHEM_CACTVS_TAUTO_COUNT>
2

> <PUBCHEM_CONFORMER_ID>
0000309300000001

> <PUBCHEM_MMFF94_ENERGY>
10.2764

> <PUBCHEM_FEATURE_SELFOVERLAP>
10.148

> <PUBCHEM_SHAPE_FINGERPRINT>
139733 1 9223232948813229698
16714656 1 18339922735252430756
20096714 4 18411981347445618585
21040471 1 18338516468502062309
23552423 10 18128537059288645902
24536 1 18194981650893606857
29004967 10 18410006641694458026
5460574 1 9295280642777473536

> <PUBCHEM_SHAPE_MULTIPOLES>
128.23
3.16
1.42
0.58
1.12
0.11
0
0.19
-0.01
-0.48
0
-0.01
0.01
0

> <PUBCHEM_SHAPE_SELFOVERLAP>
229.224

> <PUBCHEM_SHAPE_VOLUME>
84.9

> <PUBCHEM_COORDINATE_TYPE>
2
5
10

$$$$

