3410
  -OEChem-07051212543D

 49 50  0     1  0  0  0  0  0999 V2000
   -2.8151    3.3368    0.9059 O   0  0  0  0  0  0  0  0  0  0  0  0
    2.8156   -3.3889    0.5834 O   0  0  0  0  0  0  0  0  0  0  0  0
   -2.2576   -2.8257    1.6873 O   0  0  0  0  0  0  0  0  0  0  0  0
   -3.2315   -0.8373   -2.9284 O   0  0  0  0  0  0  0  0  0  0  0  0
    0.5285    2.3873   -0.3861 N   0  0  0  0  0  0  0  0  0  0  0  0
   -2.8740   -2.0869   -0.9507 N   0  0  0  0  0  0  0  0  0  0  0  0
    1.8773    2.9144   -0.1591 C   0  0  1  0  0  0  0  0  0  0  0  0
    2.9019    2.0496   -0.9159 C   0  0  0  0  0  0  0  0  0  0  0  0
   -0.4502    3.1363    0.3842 C   0  0  0  0  0  0  0  0  0  0  0  0
   -1.8637    2.5902    0.1485 C   0  0  1  0  0  0  0  0  0  0  0  0
    1.9033    4.3769   -0.6037 C   0  0  0  0  0  0  0  0  0  0  0  0
    2.8784    0.5942   -0.5143 C   0  0  0  0  0  0  0  0  0  0  0  0
   -1.9713    1.1369    0.5551 C   0  0  0  0  0  0  0  0  0  0  0  0
   -2.3713    0.2002   -0.3822 C   0  0  0  0  0  0  0  0  0  0  0  0
    2.0464   -0.2830   -1.1911 C   0  0  0  0  0  0  0  0  0  0  0  0
    3.6899    0.1629    0.5226 C   0  0  0  0  0  0  0  0  0  0  0  0
   -1.6666    0.7753    1.8560 C   0  0  0  0  0  0  0  0  0  0  0  0
   -2.4699   -1.1396   -0.0069 C   0  0  0  0  0  0  0  0  0  0  0  0
   -1.7649   -0.5646    2.2312 C   0  0  0  0  0  0  0  0  0  0  0  0
    2.0251   -1.6276   -0.8209 C   0  0  0  0  0  0  0  0  0  0  0  0
    3.6688   -1.1819    0.8927 C   0  0  0  0  0  0  0  0  0  0  0  0
   -2.1667   -1.5220    1.2998 C   0  0  0  0  0  0  0  0  0  0  0  0
    2.8363   -2.0772    0.2209 C   0  0  0  0  0  0  0  0  0  0  0  0
   -3.2104   -1.8761   -2.2834 C   0  0  0  0  0  0  0  0  0  0  0  0
    1.9417   -4.2501   -0.1448 C   0  0  0  0  0  0  0  0  0  0  0  0
    2.1172    2.8621    0.9111 H   0  0  0  0  0  0  0  0  0  0  0  0
    2.7373    2.1277   -1.9998 H   0  0  0  0  0  0  0  0  0  0  0  0
    3.9110    2.4508   -0.7512 H   0  0  0  0  0  0  0  0  0  0  0  0
   -0.2031    3.1300    1.4530 H   0  0  0  0  0  0  0  0  0  0  0  0
   -0.4941    4.1912    0.0915 H   0  0  0  0  0  0  0  0  0  0  0  0
    0.2971    2.4313   -1.3784 H   0  0  0  0  0  0  0  0  0  0  0  0
   -2.1295    2.7207   -0.9079 H   0  0  0  0  0  0  0  0  0  0  0  0
    2.9402    4.7281   -0.6655 H   0  0  0  0  0  0  0  0  0  0  0  0
    1.4598    4.5160   -1.5964 H   0  0  0  0  0  0  0  0  0  0  0  0
    1.4038    5.0432    0.1064 H   0  0  0  0  0  0  0  0  0  0  0  0
   -2.5912    0.5581   -1.3776 H   0  0  0  0  0  0  0  0  0  0  0  0
    1.4139    0.0545   -2.0074 H   0  0  0  0  0  0  0  0  0  0  0  0
    4.3396    0.8531    1.0530 H   0  0  0  0  0  0  0  0  0  0  0  0
   -1.3648    1.5075    2.5987 H   0  0  0  0  0  0  0  0  0  0  0  0
   -3.6750    2.8872    0.8390 H   0  0  0  0  0  0  0  0  0  0  0  0
   -1.5298   -0.8554    3.2515 H   0  0  0  0  0  0  0  0  0  0  0  0
    1.3550   -2.2682   -1.3840 H   0  0  0  0  0  0  0  0  0  0  0  0
    4.3022   -1.5260    1.7056 H   0  0  0  0  0  0  0  0  0  0  0  0
   -2.9570   -3.0488   -0.6400 H   0  0  0  0  0  0  0  0  0  0  0  0
   -2.2381   -3.4078    0.9129 H   0  0  0  0  0  0  0  0  0  0  0  0
   -3.4886   -2.8369   -2.7497 H   0  0  0  0  0  0  0  0  0  0  0  0
    0.8927   -3.9630   -0.0133 H   0  0  0  0  0  0  0  0  0  0  0  0
    2.0531   -5.2548    0.2758 H   0  0  0  0  0  0  0  0  0  0  0  0
    2.2256   -4.3119   -1.2009 H   0  0  0  0  0  0  0  0  0  0  0  0
  1 10  1  0  0  0  0
  1 40  1  0  0  0  0
  2 23  1  0  0  0  0
  2 25  1  0  0  0  0
  3 22  1  0  0  0  0
  3 45  1  0  0  0  0
  4 24  2  0  0  0  0
  5  7  1  0  0  0  0
  5  9  1  0  0  0  0
  5 31  1  0  0  0  0
  6 18  1  0  0  0  0
  6 24  1  0  0  0  0
  6 44  1  0  0  0  0
  7  8  1  0  0  0  0
  7 11  1  0  0  0  0
  7 26  1  0  0  0  0
  8 12  1  0  0  0  0
  8 27  1  0  0  0  0
  8 28  1  0  0  0  0
  9 10  1  0  0  0  0
  9 29  1  0  0  0  0
  9 30  1  0  0  0  0
 10 13  1  0  0  0  0
 10 32  1  0  0  0  0
 11 33  1  0  0  0  0
 11 34  1  0  0  0  0
 11 35  1  0  0  0  0
 12 15  2  0  0  0  0
 12 16  1  0  0  0  0
 13 14  2  0  0  0  0
 13 17  1  0  0  0  0
 14 18  1  0  0  0  0
 14 36  1  0  0  0  0
 15 20  1  0  0  0  0
 15 37  1  0  0  0  0
 16 21  2  0  0  0  0
 16 38  1  0  0  0  0
 17 19  2  0  0  0  0
 17 39  1  0  0  0  0
 18 22  2  0  0  0  0
 19 22  1  0  0  0  0
 19 41  1  0  0  0  0
 20 23  2  0  0  0  0
 20 42  1  0  0  0  0
 21 23  1  0  0  0  0
 21 43  1  0  0  0  0
 24 46  1  0  0  0  0
 25 47  1  0  0  0  0
 25 48  1  0  0  0  0
 25 49  1  0  0  0  0
M  END
> <PUBCHEM_COMPOUND_CID>
3410

> <PUBCHEM_CONFORMER_RMSD>
1

> <PUBCHEM_CONFORMER_DIVERSEORDER>
4
126
114
44
10
111
64
16
148
76
30
70
117
82
104
5
130
31
91
48
8
13
110
162
85
136
140
132
112
128
68
25
106
127
22
67
69
87
134
9
54
45
101
113
6
79
160
129
41
123
57
153
52
80
15
49
62
51
75
86
95
108
122
161
156
98
46
26
17
27
61
65
12
137
72
139
29
118
131
96
7
143
124
59
84
159
125
90
115
116
120
165
142
38
83
147
151
155
21
73
133
146
150
71
164
43
36
89
121
93
145
105
78
56
119
94
18
141
103
40
55
144
135
107
154
102
157
58
34
35
47
63
39
66
158
152
100
11
19
20
149
77
53
37
99
50
109
23
138
28
88
92
32
74
163
81
14
60
1
33
3
42
2
24
97

> <PUBCHEM_MMFF94_PARTIAL_CHARGES>
36
1 -0.68
10 0.42
12 -0.14
13 -0.14
14 -0.15
15 -0.15
16 -0.15
17 -0.15
18 0.12
19 -0.15
2 -0.36
20 -0.15
21 -0.15
22 0.08
23 0.08
24 0.57
25 0.28
3 -0.53
31 0.36
36 0.15
37 0.15
38 0.15
39 0.15
4 -0.57
40 0.4
41 0.15
42 0.15
43 0.15
44 0.37
45 0.45
46 0.06
5 -0.9
6 -0.55
7 0.27
8 0.14
9 0.27

> <PUBCHEM_EFFECTIVE_ROTOR_COUNT>
9

> <PUBCHEM_PHARMACOPHORE_FEATURES>
10
1 1 acceptor
1 1 donor
1 2 acceptor
1 3 donor
1 4 acceptor
1 5 cation
1 5 donor
1 6 donor
6 12 15 16 20 21 23 rings
6 13 14 17 18 19 22 rings

> <PUBCHEM_HEAVY_ATOM_COUNT>
25

> <PUBCHEM_ATOM_DEF_STEREO_COUNT>
0

> <PUBCHEM_ATOM_UDEF_STEREO_COUNT>
2

> <PUBCHEM_BOND_DEF_STEREO_COUNT>
0

> <PUBCHEM_BOND_UDEF_STEREO_COUNT>
0

> <PUBCHEM_ISOTOPIC_ATOM_COUNT>
0

> <PUBCHEM_COMPONENT_COUNT>
1

> <PUBCHEM_CACTVS_TAUTO_COUNT>
6

> <PUBCHEM_CONFORMER_ID>
00000D5200000004

> <PUBCHEM_MMFF94_ENERGY>
73.9985

> <PUBCHEM_FEATURE_SELFOVERLAP>
50.747

> <PUBCHEM_SHAPE_FINGERPRINT>
11578080 2 17168997673277824617
12156800 1 16759792649299571920
12422481 6 17974537464444952465
12539773 59 17823113718793094355
12553582 1 18340755040143757432
13122387 1 16397180517898247210
13140716 1 18265034869621056168
13911987 19 17406267729332962213
14251757 17 17773335473376873919
14251757 5 17475483532948383342
17138139 8 16526108632574003199
19026451 147 18046083578484117118
192875 21 18339377278917272242
19930381 70 18269265760399869219
21315764 21 15983149325396756706
22113638 7 18050285070111685284
238 59 18125732179509353390
35225 105 17765984387203597012
463206 1 17829899728460644247
5265222 85 16754630606133566830
5283178 26 16739987215020583614
5309563 4 17908123405224161731
6438754 60 18117582664176425855

> <PUBCHEM_SHAPE_MULTIPOLES>
481.05
6.58
5.5
1.9
0.89
1.28
-0.54
-2.33
-0.95
2.47
0.02
-2.32
-0.93
-1.59

> <PUBCHEM_SHAPE_SELFOVERLAP>
1006.397

> <PUBCHEM_SHAPE_VOLUME>
270.8

> <PUBCHEM_COORDINATE_TYPE>
2
5
10

$$$$

