442745
  -OEChem-07051212593D

 33 34  0     0  0  0  0  0  0999 V2000
   -3.1085    2.0059   -0.1077 O   0  0  0  0  0  0  0  0  0  0  0  0
    2.0437    2.2787   -0.0723 O   0  0  0  0  0  0  0  0  0  0  0  0
    3.9561    0.4774   -0.0097 O   0  0  0  0  0  0  0  0  0  0  0  0
   -1.3208    3.8282    0.3747 O   0  0  0  0  0  0  0  0  0  0  0  0
   -1.6609   -2.6108    0.0307 C   0  0  0  0  0  0  0  0  0  0  0  0
   -1.2903   -1.1608   -0.0052 C   0  0  0  0  0  0  0  0  0  0  0  0
    0.0410   -0.7252   -0.0065 C   0  0  0  0  0  0  0  0  0  0  0  0
    0.2998    0.6490   -0.0420 C   0  0  0  0  0  0  0  0  0  0  0  0
   -2.3369   -0.2366   -0.0391 C   0  0  0  0  0  0  0  0  0  0  0  0
   -0.7443    1.5782   -0.0760 C   0  0  0  0  0  0  0  0  0  0  0  0
    1.1339   -1.6999    0.0284 C   0  0  0  0  0  0  0  0  0  0  0  0
   -2.4354   -3.0459   -1.2252 C   0  0  0  0  0  0  0  0  0  0  0  0
   -2.4567   -2.9783    1.2948 C   0  0  0  0  0  0  0  0  0  0  0  0
   -2.0640    1.1300   -0.0744 C   0  0  0  0  0  0  0  0  0  0  0  0
    2.4296   -1.3541    0.0290 C   0  0  0  0  0  0  0  0  0  0  0  0
    1.6982    1.1078   -0.0437 C   0  0  0  0  0  0  0  0  0  0  0  0
    2.7987    0.0836   -0.0072 C   0  0  0  0  0  0  0  0  0  0  0  0
    3.5459   -2.3498    0.0650 C   0  0  0  0  0  0  0  0  0  0  0  0
   -0.5290    3.0226   -0.1137 C   0  0  0  0  0  0  0  0  0  0  0  0
   -0.8047   -3.2794    0.0560 H   0  0  0  0  0  0  0  0  0  0  0  0
   -3.3746   -0.5607   -0.0389 H   0  0  0  0  0  0  0  0  0  0  0  0
    0.9409   -2.7609    0.0559 H   0  0  0  0  0  0  0  0  0  0  0  0
   -3.4103   -2.5534   -1.3035 H   0  0  0  0  0  0  0  0  0  0  0  0
   -2.6148   -4.1268   -1.2105 H   0  0  0  0  0  0  0  0  0  0  0  0
   -1.8670   -2.8139   -2.1328 H   0  0  0  0  0  0  0  0  0  0  0  0
   -1.9035   -2.6976    2.1981 H   0  0  0  0  0  0  0  0  0  0  0  0
   -2.6364   -4.0585    1.3350 H   0  0  0  0  0  0  0  0  0  0  0  0
   -3.4326   -2.4826    1.3301 H   0  0  0  0  0  0  0  0  0  0  0  0
    3.1788   -3.3812    0.0905 H   0  0  0  0  0  0  0  0  0  0  0  0
    4.1656   -2.1966    0.9546 H   0  0  0  0  0  0  0  0  0  0  0  0
    4.1794   -2.2454   -0.8220 H   0  0  0  0  0  0  0  0  0  0  0  0
    0.3266    3.4115   -0.6806 H   0  0  0  0  0  0  0  0  0  0  0  0
   -2.8069    2.9031   -0.3178 H   0  0  0  0  0  0  0  0  0  0  0  0
  1 14  1  0  0  0  0
  1 33  1  0  0  0  0
  2 16  2  0  0  0  0
  3 17  2  0  0  0  0
  4 19  2  0  0  0  0
  5  6  1  0  0  0  0
  5 12  1  0  0  0  0
  5 13  1  0  0  0  0
  5 20  1  0  0  0  0
  6  7  1  0  0  0  0
  6  9  2  0  0  0  0
  7  8  2  0  0  0  0
  7 11  1  0  0  0  0
  8 10  1  0  0  0  0
  8 16  1  0  0  0  0
  9 14  1  0  0  0  0
  9 21  1  0  0  0  0
 10 14  2  0  0  0  0
 10 19  1  0  0  0  0
 11 15  2  0  0  0  0
 11 22  1  0  0  0  0
 12 23  1  0  0  0  0
 12 24  1  0  0  0  0
 12 25  1  0  0  0  0
 13 26  1  0  0  0  0
 13 27  1  0  0  0  0
 13 28  1  0  0  0  0
 15 17  1  0  0  0  0
 15 18  1  0  0  0  0
 16 17  1  0  0  0  0
 18 29  1  0  0  0  0
 18 30  1  0  0  0  0
 18 31  1  0  0  0  0
 19 32  1  0  0  0  0
M  END
> <PUBCHEM_COMPOUND_CID>
442745

> <PUBCHEM_CONFORMER_RMSD>
0.6

> <PUBCHEM_CONFORMER_DIVERSEORDER>
1

> <PUBCHEM_MMFF94_PARTIAL_CHARGES>
21
1 -0.53
10 0.09
11 -0.18
14 0.08
15 -0.12
16 0.48
17 0.56
18 0.14
19 0.42
2 -0.57
21 0.15
22 0.15
3 -0.57
32 0.06
33 0.45
4 -0.57
5 0.14
6 -0.14
7 0.03
8 0.09
9 -0.15

> <PUBCHEM_EFFECTIVE_ROTOR_COUNT>
2

> <PUBCHEM_PHARMACOPHORE_FEATURES>
7
1 1 donor
1 2 acceptor
1 3 acceptor
1 4 acceptor
3 5 12 13 hydrophobe
6 6 7 8 9 10 14 rings
6 7 8 11 15 16 17 rings

> <PUBCHEM_HEAVY_ATOM_COUNT>
19

> <PUBCHEM_ATOM_DEF_STEREO_COUNT>
0

> <PUBCHEM_ATOM_UDEF_STEREO_COUNT>
0

> <PUBCHEM_BOND_DEF_STEREO_COUNT>
0

> <PUBCHEM_BOND_UDEF_STEREO_COUNT>
0

> <PUBCHEM_ISOTOPIC_ATOM_COUNT>
0

> <PUBCHEM_COMPONENT_COUNT>
1

> <PUBCHEM_CACTVS_TAUTO_COUNT>
54

> <PUBCHEM_CONFORMER_ID>
0006C17900000001

> <PUBCHEM_MMFF94_ENERGY>
61.5505

> <PUBCHEM_FEATURE_SELFOVERLAP>
35.552

> <PUBCHEM_SHAPE_FINGERPRINT>
10411042 1 18194402186913063750
10967382 1 18410856551049880996
11578080 2 17097509596113482171
12553582 1 18122620548612889430
13027679 85 18337670802548265709
13140716 1 18339643343508990784
138480 1 16176788930948220751
14178342 30 18339657689121642218
14790565 3 17905312276252382188
15042514 8 18340203093849407139
15309172 13 18049998093439955161
15442244 35 18267589181440303178
16945 1 18410574024038362852
193761 8 18411138000267311382
19591789 44 17906449183795634571
20028762 73 18044102465511799039
20510252 161 18190181376263557257
20739085 24 17263828197578307377
21041028 32 18196640801229410875
21501502 16 18411985754187760734
21524375 3 17908704278002327159
23184049 29 18411985745576811554
2334 1 18195245507856460060
23388829 49 17903074426265055991
23419403 2 16975114134593650436
23557571 272 18335411353587529302
23559900 14 18335140925894522596
238 59 16475188599835350357
2748010 2 18264776445664607940
3084891 72 17615973648266538514
3091708 16 9348891721904738499
335352 9 18194965377273130734
34934 24 18338805519822448467
352729 6 18338233902735826159
43471831 8 17404583767049794571
54173680 148 18412260661959009282
589210 1 18410573972451295510
6138700 20 16895672662967432710
7364860 26 17545037104711116193
81228 2 18340497706977647275
8809292 202 18340484585900322890
9709674 26 18335139842956349606

> <PUBCHEM_SHAPE_MULTIPOLES>
367.53
5.07
4.43
0.78
2.65
1.96
0.01
-2.85
0
-2.07
0.19
-0.5
-0.47
-0.04

> <PUBCHEM_SHAPE_SELFOVERLAP>
799.607

> <PUBCHEM_SHAPE_VOLUME>
201.7

> <PUBCHEM_COORDINATE_TYPE>
2
5
10

$$$$

