5282359
  -OEChem-07051213043D

 23 24  0     0  0  0  0  0  0999 V2000
    0.5582   -2.7200   -0.1042 Cl  0  0  0  0  0  0  0  0  0  0  0  0
   -0.7148    0.0049    2.5962 Cl  0  0  0  0  0  0  0  0  0  0  0  0
    3.6369    2.7258   -0.0771 Cl  0  0  0  0  0  0  0  0  0  0  0  0
    3.7559   -2.6245   -0.0754 Cl  0  0  0  0  0  0  0  0  0  0  0  0
   -3.9105    0.0250    2.3980 Cl  0  0  0  0  0  0  0  0  0  0  0  0
   -3.5835    0.0199   -2.9569 Cl  0  0  0  0  0  0  0  0  0  0  0  0
    0.6749    2.3901   -0.1077 O   0  0  0  0  0  0  0  0  0  0  0  0
    0.6891   -0.0035   -0.1059 C   0  0  0  0  0  0  0  0  0  0  0  0
   -0.7626    0.0056   -0.1202 C   0  0  0  0  0  0  0  0  0  0  0  0
    1.3716    1.2147   -0.1002 C   0  0  0  0  0  0  0  0  0  0  0  0
    1.4074   -1.2011   -0.0975 C   0  0  0  0  0  0  0  0  0  0  0  0
   -1.5171    0.0098    1.0530 C   0  0  0  0  0  0  0  0  0  0  0  0
   -1.4014    0.0084   -1.3602 C   0  0  0  0  0  0  0  0  0  0  0  0
    2.7663    1.2354   -0.0861 C   0  0  0  0  0  0  0  0  0  0  0  0
    2.8021   -1.1804   -0.0832 C   0  0  0  0  0  0  0  0  0  0  0  0
   -2.9104    0.0170    0.9860 C   0  0  0  0  0  0  0  0  0  0  0  0
   -2.7946    0.0154   -1.4272 C   0  0  0  0  0  0  0  0  0  0  0  0
    3.4815    0.0379   -0.0775 C   0  0  0  0  0  0  0  0  0  0  0  0
   -3.5491    0.0197   -0.2540 C   0  0  0  0  0  0  0  0  0  0  0  0
   -0.8175    0.0052   -2.2790 H   0  0  0  0  0  0  0  0  0  0  0  0
    4.5694    0.0565   -0.0665 H   0  0  0  0  0  0  0  0  0  0  0  0
   -4.6357    0.0256   -0.3101 H   0  0  0  0  0  0  0  0  0  0  0  0
   -0.2836    2.2475   -0.1047 H   0  0  0  0  0  0  0  0  0  0  0  0
  1 11  1  0  0  0  0
  2 12  1  0  0  0  0
  3 14  1  0  0  0  0
  4 15  1  0  0  0  0
  5 16  1  0  0  0  0
  6 17  1  0  0  0  0
  7 10  1  0  0  0  0
  7 23  1  0  0  0  0
  8  9  1  0  0  0  0
  8 10  2  0  0  0  0
  8 11  1  0  0  0  0
  9 12  2  0  0  0  0
  9 13  1  0  0  0  0
 10 14  1  0  0  0  0
 11 15  2  0  0  0  0
 12 16  1  0  0  0  0
 13 17  2  0  0  0  0
 13 20  1  0  0  0  0
 14 18  2  0  0  0  0
 15 18  1  0  0  0  0
 16 19  2  0  0  0  0
 17 19  1  0  0  0  0
 18 21  1  0  0  0  0
 19 22  1  0  0  0  0
M  END
> <PUBCHEM_COMPOUND_CID>
5282359

> <PUBCHEM_CONFORMER_RMSD>
0.6

> <PUBCHEM_CONFORMER_DIVERSEORDER>
1
2

> <PUBCHEM_MMFF94_PARTIAL_CHARGES>
21
1 -0.18
10 0.08
11 0.18
12 0.18
13 -0.15
14 0.18
15 0.18
16 0.18
17 0.18
18 -0.15
19 -0.15
2 -0.18
20 0.15
21 0.15
22 0.15
23 0.45
3 -0.18
4 -0.18
5 -0.18
6 -0.18
7 -0.53

> <PUBCHEM_EFFECTIVE_ROTOR_COUNT>
1

> <PUBCHEM_PHARMACOPHORE_FEATURES>
3
1 7 donor
6 8 10 11 14 15 18 rings
6 9 12 13 16 17 19 rings

> <PUBCHEM_HEAVY_ATOM_COUNT>
19

> <PUBCHEM_ATOM_DEF_STEREO_COUNT>
0

> <PUBCHEM_ATOM_UDEF_STEREO_COUNT>
0

> <PUBCHEM_BOND_DEF_STEREO_COUNT>
0

> <PUBCHEM_BOND_UDEF_STEREO_COUNT>
0

> <PUBCHEM_ISOTOPIC_ATOM_COUNT>
0

> <PUBCHEM_COMPONENT_COUNT>
1

> <PUBCHEM_CACTVS_TAUTO_COUNT>
3

> <PUBCHEM_CONFORMER_ID>
00509A3700000001

> <PUBCHEM_MMFF94_ENERGY>
54.831

> <PUBCHEM_FEATURE_SELFOVERLAP>
15.223

> <PUBCHEM_SHAPE_FINGERPRINT>
10062212 137 17530966908029899535
11582403 64 16981018567674327117
11640471 11 17604408769853313905
11725454 13 17342977821302617997
12236239 1 17676486150699780103
12390115 104 17688856559205296988
12553582 1 18192706959326915918
13009979 54 17458627856147943366
13134695 92 18341900752929727190
13140716 1 18266458699256646928
13464514 151 17413892129648578285
13538477 17 16950279641502987363
13583140 156 18187914063708149961
13965767 371 16160701817287115634
14787075 74 16663773144991160298
15219456 202 17988923353389706445
15309172 13 18340478967940278712
15842332 3 17676488341170050535
16945 1 18410859884171447014
1813 80 17898553531305674846
18186145 218 18335135375978923446
18219364 16 18271808986307190455
18915476 22 18343580720634046956
19049666 15 17631738282338925329
19422 9 17748828522628945015
200 152 18188783849887433767
204376 136 18195807363100051812
20510252 161 16486966276719152245
20645477 70 18342186578212683366
20691752 17 17823151054716906457
21065201 7 16343985827202210250
21639500 275 18409735019330636716
21756936 100 17679561377760463808
22112679 90 17313386750874151057
22182313 1 17846780697795586180
2255824 54 18334290985778152254
22943178 12 17703790322962962479
23175994 123 18128248076930855838
232386 152 16588321483186335079
23419403 2 17988351650266497194
23526113 38 17845382187671758106
23557571 272 16988562407304748885
23559900 14 16701748262749933642
23598288 3 17240754074159463623
23598291 2 17894628171166393621
23728640 28 15386129067222319955
2748010 2 17988925565424354284
3286 77 18200572779364259715
350125 39 17547283403009643152
4340502 62 18191280746906447195
474 4 18115869586194882200
6049 1 17703782643598399685
633830 44 18042668542960823644
7615 1 17676496050615384009
77492 1 17748544844286252645

> <PUBCHEM_SHAPE_MULTIPOLES>
396.36
7.24
2.37
2.15
0.41
0.23
0.09
-0.26
-0.65
-4.02
-0.16
3.97
-0.06
-0.21

> <PUBCHEM_SHAPE_SELFOVERLAP>
808.943

> <PUBCHEM_SHAPE_VOLUME>
235.5

> <PUBCHEM_COORDINATE_TYPE>
2
5
10

$$$$

