13757
  -OEChem-06241222403D

 35 38  0     0  0  0  0  0  0999 V2000
    0.1833   -1.1689    0.0012 N   0  0  0  0  0  0  0  0  0  0  0  0
   -0.3032    1.1745    0.0005 C   0  0  0  0  0  0  0  0  0  0  0  0
    1.0702    1.4423    0.0002 C   0  0  0  0  0  0  0  0  0  0  0  0
   -0.7263   -0.1671    0.0008 C   0  0  0  0  0  0  0  0  0  0  0  0
    2.0005    0.4005   -0.0001 C   0  0  0  0  0  0  0  0  0  0  0  0
   -2.1134   -0.4343    0.0005 C   0  0  0  0  0  0  0  0  0  0  0  0
    1.5051   -0.9106    0.0007 C   0  0  0  0  0  0  0  0  0  0  0  0
   -3.0521    0.6297    0.0000 C   0  0  0  0  0  0  0  0  0  0  0  0
   -1.2345    2.2202    0.0004 C   0  0  0  0  0  0  0  0  0  0  0  0
    3.3860    0.6403   -0.0009 C   0  0  0  0  0  0  0  0  0  0  0  0
   -2.5975    1.9498    0.0001 C   0  0  0  0  0  0  0  0  0  0  0  0
    1.5560    2.8659   -0.0003 C   0  0  0  0  0  0  0  0  0  0  0  0
    4.2835   -0.4231   -0.0015 C   0  0  0  0  0  0  0  0  0  0  0  0
    2.4227   -1.9579    0.0005 C   0  0  0  0  0  0  0  0  0  0  0  0
   -2.6176   -1.7527    0.0004 C   0  0  0  0  0  0  0  0  0  0  0  0
    3.8003   -1.7253   -0.0006 C   0  0  0  0  0  0  0  0  0  0  0  0
   -4.4297    0.3545   -0.0008 C   0  0  0  0  0  0  0  0  0  0  0  0
   -3.9900   -2.0114   -0.0005 C   0  0  0  0  0  0  0  0  0  0  0  0
   -4.8953   -0.9584   -0.0012 C   0  0  0  0  0  0  0  0  0  0  0  0
    5.7520   -0.1678    0.0004 C   0  0  0  0  0  0  0  0  0  0  0  0
   -0.9604    3.2691    0.0297 H   0  0  0  0  0  0  0  0  0  0  0  0
    3.8122    1.6372    0.0295 H   0  0  0  0  0  0  0  0  0  0  0  0
   -3.2989    2.7813    0.0060 H   0  0  0  0  0  0  0  0  0  0  0  0
    2.5154    3.0026   -0.5044 H   0  0  0  0  0  0  0  0  0  0  0  0
    0.9103    3.5340   -0.5771 H   0  0  0  0  0  0  0  0  0  0  0  0
    1.6363    3.2391    1.0255 H   0  0  0  0  0  0  0  0  0  0  0  0
    2.0680   -2.9870    0.0016 H   0  0  0  0  0  0  0  0  0  0  0  0
   -1.9423   -2.6065    0.0008 H   0  0  0  0  0  0  0  0  0  0  0  0
    4.4806   -2.5727    0.0014 H   0  0  0  0  0  0  0  0  0  0  0  0
   -5.1561    1.1650   -0.0012 H   0  0  0  0  0  0  0  0  0  0  0  0
   -4.3481   -3.0368   -0.0007 H   0  0  0  0  0  0  0  0  0  0  0  0
   -5.9628   -1.1571   -0.0019 H   0  0  0  0  0  0  0  0  0  0  0  0
    6.3121   -1.0407   -0.3519 H   0  0  0  0  0  0  0  0  0  0  0  0
    6.0030    0.6647   -0.6657 H   0  0  0  0  0  0  0  0  0  0  0  0
    6.0905    0.0737    1.0129 H   0  0  0  0  0  0  0  0  0  0  0  0
  1  4  2  0  0  0  0
  1  7  1  0  0  0  0
  2  3  2  0  0  0  0
  2  4  1  0  0  0  0
  2  9  1  0  0  0  0
  3  5  1  0  0  0  0
  3 12  1  0  0  0  0
  4  6  1  0  0  0  0
  5  7  2  0  0  0  0
  5 10  1  0  0  0  0
  6  8  1  0  0  0  0
  6 15  2  0  0  0  0
  7 14  1  0  0  0  0
  8 11  1  0  0  0  0
  8 17  2  0  0  0  0
  9 11  2  0  0  0  0
  9 21  1  0  0  0  0
 10 13  2  0  0  0  0
 10 22  1  0  0  0  0
 11 23  1  0  0  0  0
 12 24  1  0  0  0  0
 12 25  1  0  0  0  0
 12 26  1  0  0  0  0
 13 16  1  0  0  0  0
 13 20  1  0  0  0  0
 14 16  2  0  0  0  0
 14 27  1  0  0  0  0
 15 18  1  0  0  0  0
 15 28  1  0  0  0  0
 16 29  1  0  0  0  0
 17 19  1  0  0  0  0
 17 30  1  0  0  0  0
 18 19  2  0  0  0  0
 18 31  1  0  0  0  0
 19 32  1  0  0  0  0
 20 33  1  0  0  0  0
 20 34  1  0  0  0  0
 20 35  1  0  0  0  0
M  END
> <PUBCHEM_COMPOUND_CID>
13757

> <PUBCHEM_CONFORMER_RMSD>
0.6

> <PUBCHEM_CONFORMER_DIVERSEORDER>
1

> <PUBCHEM_MMFF94_PARTIAL_CHARGES>
25
1 -0.62
10 -0.15
11 -0.15
12 0.14
13 -0.14
14 -0.15
15 -0.15
16 -0.15
17 -0.15
18 -0.15
19 -0.15
20 0.14
21 0.15
22 0.15
23 0.15
27 0.15
28 0.15
29 0.15
3 -0.14
30 0.15
31 0.15
32 0.15
4 0.31
7 0.31
9 -0.15

> <PUBCHEM_EFFECTIVE_ROTOR_COUNT>
0

> <PUBCHEM_PHARMACOPHORE_FEATURES>
5
1 1 acceptor
6 1 2 3 4 5 7 rings
6 2 4 6 8 9 11 rings
6 5 7 10 13 14 16 rings
6 6 8 15 17 18 19 rings

> <PUBCHEM_HEAVY_ATOM_COUNT>
20

> <PUBCHEM_ATOM_DEF_STEREO_COUNT>
0

> <PUBCHEM_ATOM_UDEF_STEREO_COUNT>
0

> <PUBCHEM_BOND_DEF_STEREO_COUNT>
0

> <PUBCHEM_BOND_UDEF_STEREO_COUNT>
0

> <PUBCHEM_ISOTOPIC_ATOM_COUNT>
0

> <PUBCHEM_COMPONENT_COUNT>
1

> <PUBCHEM_CACTVS_TAUTO_COUNT>
1

> <PUBCHEM_CONFORMER_ID>
000035BD00000001

> <PUBCHEM_MMFF94_ENERGY>
75.8254

> <PUBCHEM_FEATURE_SELFOVERLAP>
25.458

> <PUBCHEM_SHAPE_FINGERPRINT>
10493431 412 18046055232375261705
10616163 171 18408884061576198351
10967382 1 18266458694107318853
11578080 2 17386871434160057113
11806522 49 18413107260179223924
12107183 9 17620478342973400658
12236239 1 17846498158252522250
12403259 226 18410863148241577545
12553582 1 18337966626710064446
13140716 1 18193839236652927562
13288520 33 18409446994328196716
138480 1 14807977291646710437
13862211 1 18411142428732404714
14787075 74 18272084981491135432
14790565 3 17547284502326728837
15196674 1 18410855481608286020
15352361 1 18410575089016217911
15442244 35 18410009970331152521
15536298 74 18334859363921317616
15927050 60 17614281066348888844
16945 1 18411136956696117253
17492 89 18122907517085140115
17804303 29 18408602556740256405
1813 80 17561361790061300356
19141452 34 18334010584638119935
19591789 44 18265614273403537014
200 152 18187367623239683595
20028762 73 18114748114062173183
20261772 1 17967537843602937183
20510252 161 18189053268811927361
20645477 70 18270125587166658967
21029758 11 18408889559266141009
21033648 29 17313684727131102834
21267235 1 18410566284285970222
21421861 104 17843124959151760954
221490 88 18269549447120816955
2297311 6 18261099799393610044
23366157 5 18059295336284428772
23402539 116 18411706486497166766
23557571 272 18187920737897260900
23559900 14 18337680732338730345
23622692 118 17897457094821897719
2748010 2 18336552736687911044
2871803 45 18342461447466388935
335352 9 18410856573347910485
34934 24 18340773761505183122
350125 39 18410571769038588329
4214541 1 18410575136213274949
4921388 177 16128363836511809187
5104073 3 18336267963255543010
7364860 26 18336548196860441552
8809292 202 18271804592925132867
9709674 26 18411131441989985079

> <PUBCHEM_SHAPE_MULTIPOLES>
406.61
9.83
2.57
0.61
2.58
0.84
0
-3.87
0
-0.38
0
0
0
0

> <PUBCHEM_SHAPE_SELFOVERLAP>
931.014

> <PUBCHEM_SHAPE_VOLUME>
211.6

> <PUBCHEM_COORDINATE_TYPE>
2
5
10

$$$$

