443036
  -OEChem-07051213002D

 39 40  0     0  0  0  0  0  0999 V2000
    2.0000    1.9806    0.0000 Cl  0  0  0  0  0  0  0  0  0  0  0  0
    3.7891    2.0684    0.0000 S   0  0  0  0  0  0  0  0  0  0  0  0
    6.3582    1.7594    0.0000 O   0  0  0  0  0  0  0  0  0  0  0  0
    2.0000   -0.0194    0.0000 O   0  0  0  0  0  0  0  0  0  0  0  0
    3.7320   -0.0194    0.0000 N   0  0  0  0  0  0  0  0  0  0  0  0
    3.7320   -1.0194    0.0000 C   0  0  0  0  0  0  0  0  0  0  0  0
    4.5981    0.4806    0.0000 C   0  0  0  0  0  0  0  0  0  0  0  0
    2.8660   -1.5194    0.0000 C   0  0  0  0  0  0  0  0  0  0  0  0
    4.5981   -1.5194    0.0000 C   0  0  0  0  0  0  0  0  0  0  0  0
    4.5981    1.4806    0.0000 C   0  0  0  0  0  0  0  0  0  0  0  0
    2.8660    0.4806    0.0000 C   0  0  0  0  0  0  0  0  0  0  0  0
    2.8660   -2.5194    0.0000 C   0  0  0  0  0  0  0  0  0  0  0  0
    4.5981   -2.5194    0.0000 C   0  0  0  0  0  0  0  0  0  0  0  0
    2.0000   -1.0194    0.0000 C   0  0  0  0  0  0  0  0  0  0  0  0
    5.4641   -1.0194    0.0000 C   0  0  0  0  0  0  0  0  0  0  0  0
    5.4071    2.0684    0.0000 C   0  0  0  0  0  0  0  0  0  0  0  0
    3.7320   -3.0194    0.0000 C   0  0  0  0  0  0  0  0  0  0  0  0
    2.8660    1.4806    0.0000 C   0  0  0  0  0  0  0  0  0  0  0  0
    5.0981    3.0194    0.0000 C   0  0  0  0  0  0  0  0  0  0  0  0
    4.0981    3.0194    0.0000 C   0  0  0  0  0  0  0  0  0  0  0  0
    7.1013    2.4285    0.0000 C   0  0  0  0  0  0  0  0  0  0  0  0
    4.8101   -0.1020    0.0000 H   0  0  0  0  0  0  0  0  0  0  0  0
    5.2087    0.5882    0.0000 H   0  0  0  0  0  0  0  0  0  0  0  0
    2.3291   -2.8294    0.0000 H   0  0  0  0  0  0  0  0  0  0  0  0
    5.1350   -2.8294    0.0000 H   0  0  0  0  0  0  0  0  0  0  0  0
    2.3100   -0.4825    0.0000 H   0  0  0  0  0  0  0  0  0  0  0  0
    1.4631   -0.7094    0.0000 H   0  0  0  0  0  0  0  0  0  0  0  0
    1.6900   -1.5564    0.0000 H   0  0  0  0  0  0  0  0  0  0  0  0
    5.7741   -1.5564    0.0000 H   0  0  0  0  0  0  0  0  0  0  0  0
    6.0010   -0.7094    0.0000 H   0  0  0  0  0  0  0  0  0  0  0  0
    5.1541   -0.4825    0.0000 H   0  0  0  0  0  0  0  0  0  0  0  0
    3.7320   -3.6394    0.0000 H   0  0  0  0  0  0  0  0  0  0  0  0
    3.4766    1.3729    0.0000 H   0  0  0  0  0  0  0  0  0  0  0  0
    3.0781    2.0632    0.0000 H   0  0  0  0  0  0  0  0  0  0  0  0
    5.4625    3.5210    0.0000 H   0  0  0  0  0  0  0  0  0  0  0  0
    3.7336    3.5210    0.0000 H   0  0  0  0  0  0  0  0  0  0  0  0
    7.5162    1.9677    0.0000 H   0  0  0  0  0  0  0  0  0  0  0  0
    7.5620    2.8433    0.0000 H   0  0  0  0  0  0  0  0  0  0  0  0
    6.6864    2.8892    0.0000 H   0  0  0  0  0  0  0  0  0  0  0  0
  1 18  1  0  0  0  0
  2 10  1  0  0  0  0
  2 20  1  0  0  0  0
  3 16  1  0  0  0  0
  3 21  1  0  0  0  0
  4 11  2  0  0  0  0
  5  6  1  0  0  0  0
  5  7  1  0  0  0  0
  5 11  1  0  0  0  0
  6  8  2  0  0  0  0
  6  9  1  0  0  0  0
  7 10  1  0  0  0  0
  7 22  1  0  0  0  0
  7 23  1  0  0  0  0
  8 12  1  0  0  0  0
  8 14  1  0  0  0  0
  9 13  2  0  0  0  0
  9 15  1  0  0  0  0
 10 16  2  0  0  0  0
 11 18  1  0  0  0  0
 12 17  2  0  0  0  0
 12 24  1  0  0  0  0
 13 17  1  0  0  0  0
 13 25  1  0  0  0  0
 14 26  1  0  0  0  0
 14 27  1  0  0  0  0
 14 28  1  0  0  0  0
 15 29  1  0  0  0  0
 15 30  1  0  0  0  0
 15 31  1  0  0  0  0
 16 19  1  0  0  0  0
 17 32  1  0  0  0  0
 18 33  1  0  0  0  0
 18 34  1  0  0  0  0
 19 20  2  0  0  0  0
 19 35  1  0  0  0  0
 20 36  1  0  0  0  0
 21 37  1  0  0  0  0
 21 38  1  0  0  0  0
 21 39  1  0  0  0  0
M  END
> <PUBCHEM_COMPOUND_CID>
443036

> <PUBCHEM_COMPOUND_CANONICALIZED>
1

> <PUBCHEM_CACTVS_COMPLEXITY>
345

> <PUBCHEM_CACTVS_HBOND_ACCEPTOR>
3

> <PUBCHEM_CACTVS_HBOND_DONOR>
0

> <PUBCHEM_CACTVS_ROTATABLE_BOND>
5

> <PUBCHEM_CACTVS_SUBSKEYS>
AAADceB6MABEAAAAAAAAAAAAAAAAASAAAAAwAAAAAAAAAAABwAAAHgYAAAAADA/F2Eayx4MABAiMAiVSUACDCIAhKBBIiBoOTIhMJCLksZnEIChihgDo6AcQgEAOAAACAAACAAAAAAQAAAQAAAAAAAAAAA==

> <PUBCHEM_IUPAC_OPENEYE_NAME>
2-chloro-N-(2,6-dimethylphenyl)-N-[(3-methoxy-2-thienyl)methyl]acetamide

> <PUBCHEM_IUPAC_CAS_NAME>
2-chloro-N-(2,6-dimethylphenyl)-N-[(3-methoxy-2-thiophenyl)methyl]acetamide

> <PUBCHEM_IUPAC_NAME>
2-chloro-N-(2,6-dimethylphenyl)-N-[(3-methoxythiophen-2-yl)methyl]acetamide

> <PUBCHEM_IUPAC_SYSTEMATIC_NAME>
2-chloranyl-N-(2,6-dimethylphenyl)-N-[(3-methoxythiophen-2-yl)methyl]ethanamide

> <PUBCHEM_IUPAC_TRADITIONAL_NAME>
2-chloro-N-(2,6-dimethylphenyl)-N-[(3-methoxy-2-thienyl)methyl]acetamide

> <PUBCHEM_IUPAC_INCHI>
InChI=1S/C16H18ClNO2S/c1-11-5-4-6-12(2)16(11)18(15(19)9-17)10-14-13(20-3)7-8-21-14/h4-8H,9-10H2,1-3H3

> <PUBCHEM_IUPAC_INCHIKEY>
KDWQYMVPYJGPHS-UHFFFAOYSA-N

> <PUBCHEM_XLOGP3_AA>
3.8

> <PUBCHEM_EXACT_MASS>
323.074678

> <PUBCHEM_MOLECULAR_FORMULA>
C16H18ClNO2S

> <PUBCHEM_MOLECULAR_WEIGHT>
323.83762

> <PUBCHEM_OPENEYE_CAN_SMILES>
CC1=C(C(=CC=C1)C)N(CC2=C(C=CS2)OC)C(=O)CCl

> <PUBCHEM_OPENEYE_ISO_SMILES>
CC1=C(C(=CC=C1)C)N(CC2=C(C=CS2)OC)C(=O)CCl

> <PUBCHEM_CACTVS_TPSA>
57.8

> <PUBCHEM_MONOISOTOPIC_WEIGHT>
323.074678

> <PUBCHEM_TOTAL_CHARGE>
0

> <PUBCHEM_HEAVY_ATOM_COUNT>
21

> <PUBCHEM_ATOM_DEF_STEREO_COUNT>
0

> <PUBCHEM_ATOM_UDEF_STEREO_COUNT>
0

> <PUBCHEM_BOND_DEF_STEREO_COUNT>
0

> <PUBCHEM_BOND_UDEF_STEREO_COUNT>
0

> <PUBCHEM_ISOTOPIC_ATOM_COUNT>
0

> <PUBCHEM_COMPONENT_COUNT>
1

> <PUBCHEM_CACTVS_TAUTO_COUNT>
1

> <PUBCHEM_COORDINATE_TYPE>
1
5
255

> <PUBCHEM_BONDANNOTATIONS>
10  16  8
12  17  8
13  17  8
16  19  8
19  20  8
2  10  8
2  20  8
6  8  8
6  9  8
8  12  8
9  13  8

$$$$

