6932
  -OEChem-06261201353D

 29 29  0     0  0  0  0  0  0999 V2000
    1.2284   -1.7668    0.4171 O   0  0  0  0  0  0  0  0  0  0  0  0
   -3.4579    1.0598   -0.2489 O   0  0  0  0  0  0  0  0  0  0  0  0
    1.4128    1.0583    0.0367 C   0  0  0  0  0  0  0  0  0  0  0  0
    0.0737    0.3029    0.0633 C   0  0  0  0  0  0  0  0  0  0  0  0
    1.2083    2.4965    0.5598 C   0  0  0  0  0  0  0  0  0  0  0  0
    1.9483    1.1158   -1.4106 C   0  0  0  0  0  0  0  0  0  0  0  0
    2.5141    0.4090    0.9051 C   0  0  0  0  0  0  0  0  0  0  0  0
    0.0774   -1.0567    0.2519 C   0  0  0  0  0  0  0  0  0  0  0  0
   -1.0754    1.0362   -0.1060 C   0  0  0  0  0  0  0  0  0  0  0  0
   -1.1459   -1.7268    0.2729 C   0  0  0  0  0  0  0  0  0  0  0  0
   -2.2986    0.3659   -0.0851 C   0  0  0  0  0  0  0  0  0  0  0  0
   -2.3338   -1.0155    0.1043 C   0  0  0  0  0  0  0  0  0  0  0  0
    1.8487   -2.2786   -0.7606 C   0  0  0  0  0  0  0  0  0  0  0  0
    0.7028    2.5105    1.5328 H   0  0  0  0  0  0  0  0  0  0  0  0
    2.1723    3.0037    0.6940 H   0  0  0  0  0  0  0  0  0  0  0  0
    0.6539    3.1329   -0.1384 H   0  0  0  0  0  0  0  0  0  0  0  0
    1.2191    1.5834   -2.0831 H   0  0  0  0  0  0  0  0  0  0  0  0
    2.8668    1.7129   -1.4603 H   0  0  0  0  0  0  0  0  0  0  0  0
    2.1816    0.1338   -1.8232 H   0  0  0  0  0  0  0  0  0  0  0  0
    3.2870    1.1519    1.1462 H   0  0  0  0  0  0  0  0  0  0  0  0
    2.1316    0.0588    1.8708 H   0  0  0  0  0  0  0  0  0  0  0  0
    3.0803   -0.3800    0.4140 H   0  0  0  0  0  0  0  0  0  0  0  0
   -1.0993    2.1033   -0.2858 H   0  0  0  0  0  0  0  0  0  0  0  0
   -1.1807   -2.8029    0.4203 H   0  0  0  0  0  0  0  0  0  0  0  0
   -3.2801   -1.5494    0.1227 H   0  0  0  0  0  0  0  0  0  0  0  0
    2.9247   -2.0929   -0.7423 H   0  0  0  0  0  0  0  0  0  0  0  0
    1.4139   -1.8755   -1.6808 H   0  0  0  0  0  0  0  0  0  0  0  0
    1.7030   -3.3638   -0.7715 H   0  0  0  0  0  0  0  0  0  0  0  0
   -4.2055    0.4390   -0.2068 H   0  0  0  0  0  0  0  0  0  0  0  0
  1  8  1  0  0  0  0
  1 13  1  0  0  0  0
  2 11  1  0  0  0  0
  2 29  1  0  0  0  0
  3  4  1  0  0  0  0
  3  5  1  0  0  0  0
  3  6  1  0  0  0  0
  3  7  1  0  0  0  0
  4  8  2  0  0  0  0
  4  9  1  0  0  0  0
  5 14  1  0  0  0  0
  5 15  1  0  0  0  0
  5 16  1  0  0  0  0
  6 17  1  0  0  0  0
  6 18  1  0  0  0  0
  6 19  1  0  0  0  0
  7 20  1  0  0  0  0
  7 21  1  0  0  0  0
  7 22  1  0  0  0  0
  8 10  1  0  0  0  0
  9 11  2  0  0  0  0
  9 23  1  0  0  0  0
 10 12  2  0  0  0  0
 10 24  1  0  0  0  0
 11 12  1  0  0  0  0
 12 25  1  0  0  0  0
 13 26  1  0  0  0  0
 13 27  1  0  0  0  0
 13 28  1  0  0  0  0
M  END
> <PUBCHEM_COMPOUND_CID>
6932

> <PUBCHEM_CONFORMER_RMSD>
0.6

> <PUBCHEM_CONFORMER_DIVERSEORDER>
1

> <PUBCHEM_MMFF94_PARTIAL_CHARGES>
14
1 -0.36
10 -0.15
11 0.08
12 -0.15
13 0.28
2 -0.53
23 0.15
24 0.15
25 0.15
29 0.45
3 0.14
4 -0.14
8 0.08
9 -0.15

> <PUBCHEM_EFFECTIVE_ROTOR_COUNT>
2

> <PUBCHEM_PHARMACOPHORE_FEATURES>
4
1 1 acceptor
1 2 donor
4 3 5 6 7 hydrophobe
6 4 8 9 10 11 12 rings

> <PUBCHEM_HEAVY_ATOM_COUNT>
13

> <PUBCHEM_ATOM_DEF_STEREO_COUNT>
0

> <PUBCHEM_ATOM_UDEF_STEREO_COUNT>
0

> <PUBCHEM_BOND_DEF_STEREO_COUNT>
0

> <PUBCHEM_BOND_UDEF_STEREO_COUNT>
0

> <PUBCHEM_ISOTOPIC_ATOM_COUNT>
0

> <PUBCHEM_COMPONENT_COUNT>
1

> <PUBCHEM_CACTVS_TAUTO_COUNT>
3

> <PUBCHEM_CONFORMER_ID>
00001B1400000001

> <PUBCHEM_MMFF94_ENERGY>
64.4296

> <PUBCHEM_FEATURE_SELFOVERLAP>
20.297

> <PUBCHEM_SHAPE_FINGERPRINT>
1 1 18336549309166910702
12423570 1 8609094651708864932
12524768 44 18412548734058130099
13380535 21 18340469111354441675
13380535 220 17907851061189692444
13380535 76 18339935835140287803
15490181 7 18119527626682786830
15490181 8 18269836419581826283
15775835 57 18271807848172914808
161256 15 18194688296000471220
16945 1 18336261241446906203
17990270 104 18410577292297731963
193761 8 18411138000578957043
20511035 2 18127699223144262290
20588541 1 18411984684455924480
20871998 184 17400353452007257898
21040471 1 18269556035463466321
21501502 16 18341332214891797443
23211744 41 17680991781941854520
2334 1 17906455428778602145
23402539 116 17034453557300169142
23419403 2 14176147113710981163
23463225 33 18272099283589800000
23552423 10 18272367581343472435
23559900 14 18262503816267444020
241688 4 17905606962241663680
2748010 2 18051704531064630493
3071541 158 18127969921684088982
5084963 1 17825374185665873760
53812653 166 18408043996032434760
7364860 26 18334296482687113090
81228 2 17546154668313537690

> <PUBCHEM_SHAPE_MULTIPOLES>
255.8
3.82
2.47
0.93
1.96
0.61
-0.17
-0.92
-0.19
-0.89
-0.05
-0.58
-0.08
0.32

> <PUBCHEM_SHAPE_SELFOVERLAP>
529.608

> <PUBCHEM_SHAPE_VOLUME>
148.3

> <PUBCHEM_COORDINATE_TYPE>
2
5
10

$$$$

