121965
  -OEChem-07051213022D

 26 28  0     0  0  0  0  0  0999 V2000
    4.6660    1.8100    0.0000 O   0  0  0  0  0  0  0  0  0  0  0  0
    4.6660   -1.1900    0.0000 N   0  0  0  0  0  0  0  0  0  0  0  0
    8.1962    0.8342    0.0000 N   0  0  0  0  0  0  0  0  0  0  0  0
    5.5321    0.3100    0.0000 C   0  0  0  0  0  0  0  0  0  0  0  0
    5.5321   -0.6900    0.0000 C   0  0  0  0  0  0  0  0  0  0  0  0
    3.8000    0.3100    0.0000 C   0  0  0  0  0  0  0  0  0  0  0  0
    3.8000   -0.6900    0.0000 C   0  0  0  0  0  0  0  0  0  0  0  0
    4.6660    0.8100    0.0000 C   0  0  0  0  0  0  0  0  0  0  0  0
    6.4260    0.8447    0.0000 C   0  0  0  0  0  0  0  0  0  0  0  0
    6.4260   -1.2247    0.0000 C   0  0  0  0  0  0  0  0  0  0  0  0
    2.9061    0.8447    0.0000 C   0  0  0  0  0  0  0  0  0  0  0  0
    2.9061   -1.2247    0.0000 C   0  0  0  0  0  0  0  0  0  0  0  0
    7.3321    0.3308    0.0000 C   0  0  0  0  0  0  0  0  0  0  0  0
    7.3321   -0.7108    0.0000 C   0  0  0  0  0  0  0  0  0  0  0  0
    2.0000    0.3308    0.0000 C   0  0  0  0  0  0  0  0  0  0  0  0
    2.0000   -0.7108    0.0000 C   0  0  0  0  0  0  0  0  0  0  0  0
    4.6660   -1.8100    0.0000 H   0  0  0  0  0  0  0  0  0  0  0  0
    6.4188    1.4646    0.0000 H   0  0  0  0  0  0  0  0  0  0  0  0
    6.4188   -1.8446    0.0000 H   0  0  0  0  0  0  0  0  0  0  0  0
    2.9132    1.4646    0.0000 H   0  0  0  0  0  0  0  0  0  0  0  0
    2.9132   -1.8446    0.0000 H   0  0  0  0  0  0  0  0  0  0  0  0
    7.8678   -1.0229    0.0000 H   0  0  0  0  0  0  0  0  0  0  0  0
    1.4643    0.6429    0.0000 H   0  0  0  0  0  0  0  0  0  0  0  0
    1.4643   -1.0229    0.0000 H   0  0  0  0  0  0  0  0  0  0  0  0
    8.7343    0.5262    0.0000 H   0  0  0  0  0  0  0  0  0  0  0  0
    8.1938    1.4542    0.0000 H   0  0  0  0  0  0  0  0  0  0  0  0
  1  8  2  0  0  0  0
  2  5  1  0  0  0  0
  2  7  1  0  0  0  0
  2 17  1  0  0  0  0
  3 13  1  0  0  0  0
  3 25  1  0  0  0  0
  3 26  1  0  0  0  0
  4  5  2  0  0  0  0
  4  8  1  0  0  0  0
  4  9  1  0  0  0  0
  5 10  1  0  0  0  0
  6  7  1  0  0  0  0
  6  8  1  0  0  0  0
  6 11  2  0  0  0  0
  7 12  2  0  0  0  0
  9 13  2  0  0  0  0
  9 18  1  0  0  0  0
 10 14  2  0  0  0  0
 10 19  1  0  0  0  0
 11 15  1  0  0  0  0
 11 20  1  0  0  0  0
 12 16  1  0  0  0  0
 12 21  1  0  0  0  0
 13 14  1  0  0  0  0
 14 22  1  0  0  0  0
 15 16  2  0  0  0  0
 15 23  1  0  0  0  0
 16 24  1  0  0  0  0
M  END
> <PUBCHEM_COMPOUND_CID>
121965

> <PUBCHEM_COMPOUND_CANONICALIZED>
1

> <PUBCHEM_CACTVS_COMPLEXITY>
292

> <PUBCHEM_CACTVS_HBOND_ACCEPTOR>
3

> <PUBCHEM_CACTVS_HBOND_DONOR>
2

> <PUBCHEM_CACTVS_ROTATABLE_BOND>
0

> <PUBCHEM_CACTVS_SUBSKEYS>
AAADccBzIAAAAAAAAAAAAAAAAAAAAAAAAAA8YIAAAAAAAACxQAAAHgAQAAAADAyBmAAwwILAAACIAqRSQACCAAAlAgAIiAEAZMgIIHrAlZGEIYhgkADIyccciMCOAACAQAACAAAAAQCAAAQAAAAAAAAAAA==

> <PUBCHEM_IUPAC_OPENEYE_NAME>
2-amino-10H-acridin-9-one

> <PUBCHEM_IUPAC_CAS_NAME>
2-amino-10H-acridin-9-one

> <PUBCHEM_IUPAC_NAME>
2-amino-10H-acridin-9-one

> <PUBCHEM_IUPAC_SYSTEMATIC_NAME>
2-azanyl-10H-acridin-9-one

> <PUBCHEM_IUPAC_TRADITIONAL_NAME>
2-amino-10H-acridin-9-one

> <PUBCHEM_IUPAC_INCHI>
InChI=1S/C13H10N2O/c14-8-5-6-12-10(7-8)13(16)9-3-1-2-4-11(9)15-12/h1-7H,14H2,(H,15,16)

> <PUBCHEM_IUPAC_INCHIKEY>
PIGCSKVALLVWKU-UHFFFAOYSA-N

> <PUBCHEM_XLOGP3_AA>
2.3

> <PUBCHEM_EXACT_MASS>
210.079313

> <PUBCHEM_MOLECULAR_FORMULA>
C13H10N2O

> <PUBCHEM_MOLECULAR_WEIGHT>
210.2313

> <PUBCHEM_OPENEYE_CAN_SMILES>
C1=CC=C2C(=C1)C(=O)C3=C(N2)C=CC(=C3)N

> <PUBCHEM_OPENEYE_ISO_SMILES>
C1=CC=C2C(=C1)C(=O)C3=C(N2)C=CC(=C3)N

> <PUBCHEM_CACTVS_TPSA>
55.1

> <PUBCHEM_MONOISOTOPIC_WEIGHT>
210.079313

> <PUBCHEM_TOTAL_CHARGE>
0

> <PUBCHEM_HEAVY_ATOM_COUNT>
16

> <PUBCHEM_ATOM_DEF_STEREO_COUNT>
0

> <PUBCHEM_ATOM_UDEF_STEREO_COUNT>
0

> <PUBCHEM_BOND_DEF_STEREO_COUNT>
0

> <PUBCHEM_BOND_UDEF_STEREO_COUNT>
0

> <PUBCHEM_ISOTOPIC_ATOM_COUNT>
0

> <PUBCHEM_COMPONENT_COUNT>
1

> <PUBCHEM_CACTVS_TAUTO_COUNT>
2

> <PUBCHEM_COORDINATE_TYPE>
1
5
255

> <PUBCHEM_BONDANNOTATIONS>
10  14  8
11  15  8
12  16  8
13  14  8
15  16  8
2  5  8
2  7  8
4  5  8
4  8  8
4  9  8
5  10  8
6  11  8
6  7  8
6  8  8
7  12  8
9  13  8

$$$$

