17396376
  -OEChem-06241222562D

 52 55  0     1  0  0  0  0  0999 V2000
    5.4641    3.7500    0.0000 Cl  0  0  0  0  0  0  0  0  0  0  0  0
    2.0000    1.7500    0.0000 Cl  0  0  0  0  0  0  0  0  0  0  0  0
    6.3301   -0.7500    0.0000 S   0  0  0  0  0  0  0  0  0  0  0  0
    4.5506   -2.6567    0.0000 O   0  0  0  0  0  0  0  0  0  0  0  0
    8.0622   -3.7500    0.0000 O   0  0  0  0  0  0  0  0  0  0  0  0
    4.5981    0.2500    0.0000 O   0  0  0  0  0  0  0  0  0  0  0  0
    7.1962   -2.2500    0.0000 N   0  0  0  0  0  0  0  0  0  0  0  0
    8.0622   -0.7500    0.0000 N   0  0  0  0  0  0  0  0  0  0  0  0
    5.4641    1.7500    0.0000 N   0  0  0  0  0  0  0  0  0  0  0  0
    5.4641   -2.2500    0.0000 C   0  0  3  0  0  0  0  0  0  0  0  0
    5.3596   -1.2555    0.0000 C   0  0  0  0  0  0  0  0  0  0  0  0
    4.3814   -1.0476    0.0000 C   0  0  0  0  0  0  0  0  0  0  0  0
    6.3301   -2.7500    0.0000 C   0  0  0  0  0  0  0  0  0  0  0  0
    3.8814   -1.9136    0.0000 C   0  0  0  0  0  0  0  0  0  0  0  0
    7.1962   -1.2500    0.0000 C   0  0  0  0  0  0  0  0  0  0  0  0
    8.0622   -2.7500    0.0000 C   0  0  0  0  0  0  0  0  0  0  0  0
    8.9282   -2.2500    0.0000 C   0  0  0  0  0  0  0  0  0  0  0  0
    8.9282   -1.2500    0.0000 C   0  0  0  0  0  0  0  0  0  0  0  0
    6.3301    0.2500    0.0000 C   0  0  3  0  0  0  0  0  0  0  0  0
    9.8222   -2.7847    0.0000 C   0  0  0  0  0  0  0  0  0  0  0  0
    9.8222   -0.7153    0.0000 C   0  0  0  0  0  0  0  0  0  0  0  0
   10.7282   -2.2708    0.0000 C   0  0  0  0  0  0  0  0  0  0  0  0
    7.1962    0.7500    0.0000 C   0  0  0  0  0  0  0  0  0  0  0  0
    5.4641    0.7500    0.0000 C   0  0  0  0  0  0  0  0  0  0  0  0
   10.7282   -1.2292    0.0000 C   0  0  0  0  0  0  0  0  0  0  0  0
    4.5981    2.2500    0.0000 C   0  0  0  0  0  0  0  0  0  0  0  0
    4.5981    3.2500    0.0000 C   0  0  0  0  0  0  0  0  0  0  0  0
    3.7320    1.7500    0.0000 C   0  0  0  0  0  0  0  0  0  0  0  0
    2.8660    2.2500    0.0000 C   0  0  0  0  0  0  0  0  0  0  0  0
    3.7320    3.7500    0.0000 C   0  0  0  0  0  0  0  0  0  0  0  0
    2.8660    3.2500    0.0000 C   0  0  0  0  0  0  0  0  0  0  0  0
    5.4316   -2.8692    0.0000 H   0  0  0  0  0  0  0  0  0  0  0  0
    5.9796   -1.2555    0.0000 H   0  0  0  0  0  0  0  0  0  0  0  0
    5.4244   -0.6389    0.0000 H   0  0  0  0  0  0  0  0  0  0  0  0
    4.5730   -0.4579    0.0000 H   0  0  0  0  0  0  0  0  0  0  0  0
    3.8150   -0.7954    0.0000 H   0  0  0  0  0  0  0  0  0  0  0  0
    5.9316   -3.2250    0.0000 H   0  0  0  0  0  0  0  0  0  0  0  0
    6.7287   -3.2250    0.0000 H   0  0  0  0  0  0  0  0  0  0  0  0
    3.3798   -1.5492    0.0000 H   0  0  0  0  0  0  0  0  0  0  0  0
    3.4666   -2.3743    0.0000 H   0  0  0  0  0  0  0  0  0  0  0  0
    6.8671   -0.0600    0.0000 H   0  0  0  0  0  0  0  0  0  0  0  0
    9.8150   -3.4046    0.0000 H   0  0  0  0  0  0  0  0  0  0  0  0
    9.8150   -0.0954    0.0000 H   0  0  0  0  0  0  0  0  0  0  0  0
    7.5062    0.2131    0.0000 H   0  0  0  0  0  0  0  0  0  0  0  0
    7.7331    1.0600    0.0000 H   0  0  0  0  0  0  0  0  0  0  0  0
    6.8862    1.2869    0.0000 H   0  0  0  0  0  0  0  0  0  0  0  0
   11.2639   -2.5829    0.0000 H   0  0  0  0  0  0  0  0  0  0  0  0
   11.2639   -0.9171    0.0000 H   0  0  0  0  0  0  0  0  0  0  0  0
    6.0010    2.0600    0.0000 H   0  0  0  0  0  0  0  0  0  0  0  0
    3.7320    1.1300    0.0000 H   0  0  0  0  0  0  0  0  0  0  0  0
    3.7320    4.3700    0.0000 H   0  0  0  0  0  0  0  0  0  0  0  0
    2.3291    3.5600    0.0000 H   0  0  0  0  0  0  0  0  0  0  0  0
  1 27  1  0  0  0  0
  2 29  1  0  0  0  0
  3 15  1  0  0  0  0
  3 19  1  0  0  0  0
  4 10  1  0  0  0  0
  4 14  1  0  0  0  0
  5 16  2  0  0  0  0
  6 24  2  0  0  0  0
  7 13  1  0  0  0  0
  7 15  1  0  0  0  0
  7 16  1  0  0  0  0
  8 15  2  0  0  0  0
  8 18  1  0  0  0  0
  9 24  1  0  0  0  0
  9 26  1  0  0  0  0
  9 49  1  0  0  0  0
 10 11  1  0  0  0  0
 10 13  1  0  0  0  0
 10 32  1  0  0  0  0
 11 12  1  0  0  0  0
 11 33  1  0  0  0  0
 11 34  1  0  0  0  0
 12 14  1  0  0  0  0
 12 35  1  0  0  0  0
 12 36  1  0  0  0  0
 13 37  1  0  0  0  0
 13 38  1  0  0  0  0
 14 39  1  0  0  0  0
 14 40  1  0  0  0  0
 16 17  1  0  0  0  0
 17 18  1  0  0  0  0
 17 20  2  0  0  0  0
 18 21  2  0  0  0  0
 19 23  1  0  0  0  0
 19 24  1  0  0  0  0
 19 41  1  0  0  0  0
 20 22  1  0  0  0  0
 20 42  1  0  0  0  0
 21 25  1  0  0  0  0
 21 43  1  0  0  0  0
 22 25  2  0  0  0  0
 22 47  1  0  0  0  0
 23 44  1  0  0  0  0
 23 45  1  0  0  0  0
 23 46  1  0  0  0  0
 25 48  1  0  0  0  0
 26 27  2  0  0  0  0
 26 28  1  0  0  0  0
 27 30  1  0  0  0  0
 28 29  2  0  0  0  0
 28 50  1  0  0  0  0
 29 31  1  0  0  0  0
 30 31  2  0  0  0  0
 30 51  1  0  0  0  0
 31 52  1  0  0  0  0
M  END
> <PUBCHEM_COMPOUND_CID>
17396376

> <PUBCHEM_COMPOUND_CANONICALIZED>
1

> <PUBCHEM_CACTVS_COMPLEXITY>
710

> <PUBCHEM_CACTVS_HBOND_ACCEPTOR>
5

> <PUBCHEM_CACTVS_HBOND_DONOR>
1

> <PUBCHEM_CACTVS_ROTATABLE_BOND>
6

> <PUBCHEM_CACTVS_SUBSKEYS>
AAADceB7MABGAAAAAAAAAAAAAAAAASAAAAAwYIAAAAAAAACBQAAAHgYQAAAADB7l2CazwIPABAioAiVSdACCEAFlBxAJiAEIZsgKIDrB35HHIYhklgDYyceYmAKOAAAQAAICABAAACAABAQAIAAAAAAAAA==

> <PUBCHEM_IUPAC_OPENEYE_NAME>
N-(2,5-dichlorophenyl)-2-[4-oxo-3-(tetrahydrofuran-2-ylmethyl)quinazolin-2-yl]sulfanyl-propanamide

> <PUBCHEM_IUPAC_CAS_NAME>
N-(2,5-dichlorophenyl)-2-[[4-oxo-3-(2-oxolanylmethyl)-2-quinazolinyl]thio]propanamide

> <PUBCHEM_IUPAC_NAME>
N-(2,5-dichlorophenyl)-2-[4-oxo-3-(oxolan-2-ylmethyl)quinazolin-2-yl]sulfanylpropanamide

> <PUBCHEM_IUPAC_SYSTEMATIC_NAME>
N-[2,5-bis(chloranyl)phenyl]-2-[4-oxidanylidene-3-(oxolan-2-ylmethyl)quinazolin-2-yl]sulfanyl-propanamide

> <PUBCHEM_IUPAC_TRADITIONAL_NAME>
N-(2,5-dichlorophenyl)-2-[[4-keto-3-(tetrahydrofurfuryl)quinazolin-2-yl]thio]propionamide

> <PUBCHEM_IUPAC_INCHI>
InChI=1S/C22H21Cl2N3O3S/c1-13(20(28)25-19-11-14(23)8-9-17(19)24)31-22-26-18-7-3-2-6-16(18)21(29)27(22)12-15-5-4-10-30-15/h2-3,6-9,11,13,15H,4-5,10,12H2,1H3,(H,25,28)

> <PUBCHEM_IUPAC_INCHIKEY>
JSNWBMIKTGHYHR-UHFFFAOYSA-N

> <PUBCHEM_XLOGP3_AA>
4.8

> <PUBCHEM_EXACT_MASS>
477.068068

> <PUBCHEM_MOLECULAR_FORMULA>
C22H21Cl2N3O3S

> <PUBCHEM_MOLECULAR_WEIGHT>
478.39144

> <PUBCHEM_OPENEYE_CAN_SMILES>
CC(C(=O)NC1=C(C=CC(=C1)Cl)Cl)SC2=NC3=CC=CC=C3C(=O)N2CC4CCCO4

> <PUBCHEM_OPENEYE_ISO_SMILES>
CC(C(=O)NC1=C(C=CC(=C1)Cl)Cl)SC2=NC3=CC=CC=C3C(=O)N2CC4CCCO4

> <PUBCHEM_CACTVS_TPSA>
96.3

> <PUBCHEM_MONOISOTOPIC_WEIGHT>
477.068068

> <PUBCHEM_TOTAL_CHARGE>
0

> <PUBCHEM_HEAVY_ATOM_COUNT>
31

> <PUBCHEM_ATOM_DEF_STEREO_COUNT>
0

> <PUBCHEM_ATOM_UDEF_STEREO_COUNT>
2

> <PUBCHEM_BOND_DEF_STEREO_COUNT>
0

> <PUBCHEM_BOND_UDEF_STEREO_COUNT>
0

> <PUBCHEM_ISOTOPIC_ATOM_COUNT>
0

> <PUBCHEM_COMPONENT_COUNT>
1

> <PUBCHEM_CACTVS_TAUTO_COUNT>
3

> <PUBCHEM_COORDINATE_TYPE>
1
5
255

> <PUBCHEM_BONDANNOTATIONS>
10  13  3
16  17  8
17  18  8
17  20  8
18  21  8
19  23  3
20  22  8
21  25  8
22  25  8
26  27  8
26  28  8
27  30  8
28  29  8
29  31  8
30  31  8
7  15  8
7  16  8
8  15  8
8  18  8

$$$$

