44237173
  -OEChem-07051213102D

 40 39  0     1  0  0  0  0  0999 V2000
    2.0000   -3.4050    0.0000 S   0  0  0  0  0  0  0  0  0  0  0  0
    6.3301    4.0950    0.0000 O   0  0  0  0  0  0  0  0  0  0  0  0
    3.7320    2.5950    0.0000 O   0  0  0  0  0  0  0  0  0  0  0  0
    4.5981    4.0950    0.0000 O   0  0  0  0  0  0  0  0  0  0  0  0
    8.0622    3.0950    0.0000 O   0  0  0  0  0  0  0  0  0  0  0  0
    7.1962    1.5950    0.0000 O   0  0  0  0  0  0  0  0  0  0  0  0
    4.5981    1.0950    0.0000 C   0  0  0  0  0  0  0  0  0  0  0  0
    5.4641    1.5950    0.0000 C   0  0  0  0  0  0  0  0  0  0  0  0
    4.5981    0.0950    0.0000 C   0  0  0  0  0  0  0  0  0  0  0  0
    5.4641    2.5950    0.0000 C   0  0  3  0  0  0  0  0  0  0  0  0
    3.7320   -0.4050    0.0000 C   0  0  0  0  0  0  0  0  0  0  0  0
    3.7320   -1.4050    0.0000 C   0  0  0  0  0  0  0  0  0  0  0  0
    6.3301    3.0950    0.0000 C   0  0  3  0  0  0  0  0  0  0  0  0
    2.8660   -1.9050    0.0000 C   0  0  0  0  0  0  0  0  0  0  0  0
    4.5981    3.0950    0.0000 C   0  0  0  0  0  0  0  0  0  0  0  0
    2.8660   -2.9050    0.0000 C   0  0  0  0  0  0  0  0  0  0  0  0
    7.1962    2.5950    0.0000 C   0  0  0  0  0  0  0  0  0  0  0  0
    2.0000   -4.4050    0.0000 C   0  0  0  0  0  0  0  0  0  0  0  0
    4.3860    1.6776    0.0000 H   0  0  0  0  0  0  0  0  0  0  0  0
    3.9875    0.9873    0.0000 H   0  0  0  0  0  0  0  0  0  0  0  0
    5.6762    1.0124    0.0000 H   0  0  0  0  0  0  0  0  0  0  0  0
    6.0747    1.7027    0.0000 H   0  0  0  0  0  0  0  0  0  0  0  0
    4.8101   -0.4876    0.0000 H   0  0  0  0  0  0  0  0  0  0  0  0
    5.2087    0.2027    0.0000 H   0  0  0  0  0  0  0  0  0  0  0  0
    5.4641    3.4450    0.0000 H   0  0  0  0  0  0  0  0  0  0  0  0
    3.5200    0.1776    0.0000 H   0  0  0  0  0  0  0  0  0  0  0  0
    3.1215   -0.5127    0.0000 H   0  0  0  0  0  0  0  0  0  0  0  0
    3.9441   -1.9876    0.0000 H   0  0  0  0  0  0  0  0  0  0  0  0
    4.3426   -1.2973    0.0000 H   0  0  0  0  0  0  0  0  0  0  0  0
    7.0662    3.5200    0.0000 H   0  0  0  0  0  0  0  0  0  0  0  0
    2.6540   -1.3224    0.0000 H   0  0  0  0  0  0  0  0  0  0  0  0
    2.2554   -2.0127    0.0000 H   0  0  0  0  0  0  0  0  0  0  0  0
    3.0781   -3.4876    0.0000 H   0  0  0  0  0  0  0  0  0  0  0  0
    3.4766   -2.7973    0.0000 H   0  0  0  0  0  0  0  0  0  0  0  0
    6.8671    4.4050    0.0000 H   0  0  0  0  0  0  0  0  0  0  0  0
    3.1951    2.9050    0.0000 H   0  0  0  0  0  0  0  0  0  0  0  0
    8.5991    2.7850    0.0000 H   0  0  0  0  0  0  0  0  0  0  0  0
    1.3800   -4.4050    0.0000 H   0  0  0  0  0  0  0  0  0  0  0  0
    2.0000   -5.0250    0.0000 H   0  0  0  0  0  0  0  0  0  0  0  0
    2.6200   -4.4050    0.0000 H   0  0  0  0  0  0  0  0  0  0  0  0
  1 16  1  0  0  0  0
  1 18  1  0  0  0  0
  2 13  1  0  0  0  0
  2 35  1  0  0  0  0
  3 15  1  0  0  0  0
  3 36  1  0  0  0  0
  4 15  2  0  0  0  0
  5 17  1  0  0  0  0
  5 37  1  0  0  0  0
  6 17  2  0  0  0  0
  7  8  1  0  0  0  0
  7  9  1  0  0  0  0
  7 19  1  0  0  0  0
  7 20  1  0  0  0  0
  8 10  1  0  0  0  0
  8 21  1  0  0  0  0
  8 22  1  0  0  0  0
  9 11  1  0  0  0  0
  9 23  1  0  0  0  0
  9 24  1  0  0  0  0
 10 13  1  0  0  0  0
 10 15  1  0  0  0  0
 10 25  1  0  0  0  0
 11 12  1  0  0  0  0
 11 26  1  0  0  0  0
 11 27  1  0  0  0  0
 12 14  1  0  0  0  0
 12 28  1  0  0  0  0
 12 29  1  0  0  0  0
 13 17  1  0  0  0  0
 13 30  1  0  0  0  0
 14 16  1  0  0  0  0
 14 31  1  0  0  0  0
 14 32  1  0  0  0  0
 16 33  1  0  0  0  0
 16 34  1  0  0  0  0
 18 38  1  0  0  0  0
 18 39  1  0  0  0  0
 18 40  1  0  0  0  0
M  END
> <PUBCHEM_COMPOUND_CID>
44237173

> <PUBCHEM_COMPOUND_CANONICALIZED>
1

> <PUBCHEM_CACTVS_COMPLEXITY>
257

> <PUBCHEM_CACTVS_HBOND_ACCEPTOR>
6

> <PUBCHEM_CACTVS_HBOND_DONOR>
3

> <PUBCHEM_CACTVS_ROTATABLE_BOND>
11

> <PUBCHEM_CACTVS_SUBSKEYS>
AAADceBwOABAAAAAAAAAAAAAAAAAAAAAAAAAAAAAAAAAAAAAAAAAGgQACAAADRSkwAKCCAAAAggIAACQCAIAAAAAABAAAAFAAAABEBYgAAAAQAAFIAABAAHLyOCOAAAAAAAAAAAAAAAAAAAAAAAAAAAAAA==

> <PUBCHEM_IUPAC_OPENEYE_NAME>
2-hydroxy-3-(7-methylsulfanylheptyl)butanedioic acid

> <PUBCHEM_IUPAC_CAS_NAME>
2-hydroxy-3-[7-(methylthio)heptyl]butanedioic acid

> <PUBCHEM_IUPAC_NAME>
2-hydroxy-3-(7-methylsulfanylheptyl)butanedioic acid

> <PUBCHEM_IUPAC_SYSTEMATIC_NAME>
2-(7-methylsulfanylheptyl)-3-oxidanyl-butanedioic acid

> <PUBCHEM_IUPAC_TRADITIONAL_NAME>
2-hydroxy-3-[7-(methylthio)heptyl]succinic acid

> <PUBCHEM_IUPAC_INCHI>
InChI=1S/C12H22O5S/c1-18-8-6-4-2-3-5-7-9(11(14)15)10(13)12(16)17/h9-10,13H,2-8H2,1H3,(H,14,15)(H,16,17)

> <PUBCHEM_IUPAC_INCHIKEY>
SXLJFGXGVBWOOB-UHFFFAOYSA-N

> <PUBCHEM_XLOGP3_AA>
2

> <PUBCHEM_EXACT_MASS>
278.118795

> <PUBCHEM_MOLECULAR_FORMULA>
C12H22O5S

> <PUBCHEM_MOLECULAR_WEIGHT>
278.36508

> <PUBCHEM_OPENEYE_CAN_SMILES>
CSCCCCCCCC(C(C(=O)O)O)C(=O)O

> <PUBCHEM_OPENEYE_ISO_SMILES>
CSCCCCCCCC(C(C(=O)O)O)C(=O)O

> <PUBCHEM_CACTVS_TPSA>
120

> <PUBCHEM_MONOISOTOPIC_WEIGHT>
278.118795

> <PUBCHEM_TOTAL_CHARGE>
0

> <PUBCHEM_HEAVY_ATOM_COUNT>
18

> <PUBCHEM_ATOM_DEF_STEREO_COUNT>
0

> <PUBCHEM_ATOM_UDEF_STEREO_COUNT>
2

> <PUBCHEM_BOND_DEF_STEREO_COUNT>
0

> <PUBCHEM_BOND_UDEF_STEREO_COUNT>
0

> <PUBCHEM_ISOTOPIC_ATOM_COUNT>
0

> <PUBCHEM_COMPONENT_COUNT>
1

> <PUBCHEM_CACTVS_TAUTO_COUNT>
1

> <PUBCHEM_COORDINATE_TYPE>
1
5
255

> <PUBCHEM_BONDANNOTATIONS>
10  25  3
13  30  3

$$$$

