227667
  -OEChem-07051213073D

 55 58  0     1  0  0  0  0  0999 V2000
   -0.0813   -2.4067   -0.7130 O   0  0  0  0  0  0  0  0  0  0  0  0
    5.7076   -0.2891   -0.6070 O   0  0  0  0  0  0  0  0  0  0  0  0
   -5.8538    0.3356    0.9987 O   0  0  0  0  0  0  0  0  0  0  0  0
    1.6973    1.0649    0.4113 C   0  0  2  0  0  0  0  0  0  0  0  0
    2.5117   -0.1781   -0.0107 C   0  0  1  0  0  0  0  0  0  0  0  0
    0.3233    1.1340   -0.2671 C   0  0  1  0  0  0  0  0  0  0  0  0
   -0.4991   -0.1348    0.1147 C   0  0  1  0  0  0  0  0  0  0  0  0
   -1.9485   -0.1395   -0.5004 C   0  0  2  0  0  0  0  0  0  0  0  0
    3.8174    0.1032    0.7641 C   0  0  2  0  0  0  0  0  0  0  0  0
    2.6764    2.2165    0.2044 C   0  0  0  0  0  0  0  0  0  0  0  0
    1.7515   -1.4217    0.4518 C   0  0  0  0  0  0  0  0  0  0  0  0
    4.0380    1.6206    0.6013 C   0  0  0  0  0  0  0  0  0  0  0  0
   -0.4367    2.3999    0.1465 C   0  0  0  0  0  0  0  0  0  0  0  0
    0.3453   -1.4077   -0.1364 C   0  0  0  0  0  0  0  0  0  0  0  0
   -2.6217    1.2107   -0.2078 C   0  0  0  0  0  0  0  0  0  0  0  0
    2.7697   -0.2746   -1.5373 C   0  0  0  0  0  0  0  0  0  0  0  0
   -1.8121    2.4511   -0.5043 C   0  0  0  0  0  0  0  0  0  0  0  0
   -2.7679   -1.2874    0.1646 C   0  0  0  0  0  0  0  0  0  0  0  0
   -1.9309   -0.3336   -2.0341 C   0  0  0  0  0  0  0  0  0  0  0  0
    4.9957   -0.6968    0.3025 C   0  0  0  0  0  0  0  0  0  0  0  0
   -4.2783   -1.1687   -0.0496 C   0  0  2  0  0  0  0  0  0  0  0  0
   -3.8700    1.3442    0.2703 C   0  0  0  0  0  0  0  0  0  0  0  0
   -4.7522    0.1724    0.4777 C   0  0  0  0  0  0  0  0  0  0  0  0
    5.2270   -1.9960    1.0171 C   0  0  0  0  0  0  0  0  0  0  0  0
   -5.0084   -2.3183    0.6425 C   0  0  0  0  0  0  0  0  0  0  0  0
    1.5141    1.0093    1.4976 H   0  0  0  0  0  0  0  0  0  0  0  0
    0.4655    1.1714   -1.3527 H   0  0  0  0  0  0  0  0  0  0  0  0
   -0.6239   -0.1139    1.2098 H   0  0  0  0  0  0  0  0  0  0  0  0
    3.6727   -0.0931    1.8356 H   0  0  0  0  0  0  0  0  0  0  0  0
    2.4280    3.0845    0.8235 H   0  0  0  0  0  0  0  0  0  0  0  0
    2.6918    2.5478   -0.8398 H   0  0  0  0  0  0  0  0  0  0  0  0
    1.6576   -1.4643    1.5428 H   0  0  0  0  0  0  0  0  0  0  0  0
    2.2555   -2.3376    0.1263 H   0  0  0  0  0  0  0  0  0  0  0  0
    4.7903    1.8881   -0.1479 H   0  0  0  0  0  0  0  0  0  0  0  0
    4.3773    2.0487    1.5521 H   0  0  0  0  0  0  0  0  0  0  0  0
    0.1250    3.2933   -0.1501 H   0  0  0  0  0  0  0  0  0  0  0  0
   -0.5421    2.4381    1.2386 H   0  0  0  0  0  0  0  0  0  0  0  0
    3.3256    0.5850   -1.9245 H   0  0  0  0  0  0  0  0  0  0  0  0
    3.3473   -1.1743   -1.7790 H   0  0  0  0  0  0  0  0  0  0  0  0
    1.8422   -0.3440   -2.1137 H   0  0  0  0  0  0  0  0  0  0  0  0
   -1.7023    2.5552   -1.5907 H   0  0  0  0  0  0  0  0  0  0  0  0
   -2.3281    3.3563   -0.1613 H   0  0  0  0  0  0  0  0  0  0  0  0
   -2.5687   -1.2949    1.2461 H   0  0  0  0  0  0  0  0  0  0  0  0
   -2.4410   -2.2623   -0.2138 H   0  0  0  0  0  0  0  0  0  0  0  0
   -1.2531    0.3656   -2.5335 H   0  0  0  0  0  0  0  0  0  0  0  0
   -1.6204   -1.3438   -2.3164 H   0  0  0  0  0  0  0  0  0  0  0  0
   -2.9241   -0.1753   -2.4706 H   0  0  0  0  0  0  0  0  0  0  0  0
   -4.5185   -1.2054   -1.1185 H   0  0  0  0  0  0  0  0  0  0  0  0
   -4.3009    2.3178    0.4800 H   0  0  0  0  0  0  0  0  0  0  0  0
    5.3169   -1.8196    2.0918 H   0  0  0  0  0  0  0  0  0  0  0  0
    4.4123   -2.6924    0.8145 H   0  0  0  0  0  0  0  0  0  0  0  0
    6.1614   -2.4410    0.6628 H   0  0  0  0  0  0  0  0  0  0  0  0
   -4.6560   -3.2857    0.2699 H   0  0  0  0  0  0  0  0  0  0  0  0
   -4.8562   -2.2921    1.7273 H   0  0  0  0  0  0  0  0  0  0  0  0
   -6.0871   -2.2626    0.4597 H   0  0  0  0  0  0  0  0  0  0  0  0
  1 14  2  0  0  0  0
  2 20  2  0  0  0  0
  3 23  2  0  0  0  0
  4  5  1  0  0  0  0
  4  6  1  0  0  0  0
  4 10  1  0  0  0  0
  4 26  1  0  0  0  0
  5  9  1  0  0  0  0
  5 11  1  0  0  0  0
  5 16  1  0  0  0  0
  6  7  1  0  0  0  0
  6 13  1  0  0  0  0
  6 27  1  0  0  0  0
  7  8  1  0  0  0  0
  7 14  1  0  0  0  0
  7 28  1  0  0  0  0
  8 15  1  0  0  0  0
  8 18  1  0  0  0  0
  8 19  1  0  0  0  0
  9 12  1  0  0  0  0
  9 20  1  0  0  0  0
  9 29  1  0  0  0  0
 10 12  1  0  0  0  0
 10 30  1  0  0  0  0
 10 31  1  0  0  0  0
 11 14  1  0  0  0  0
 11 32  1  0  0  0  0
 11 33  1  0  0  0  0
 12 34  1  0  0  0  0
 12 35  1  0  0  0  0
 13 17  1  0  0  0  0
 13 36  1  0  0  0  0
 13 37  1  0  0  0  0
 15 17  1  0  0  0  0
 15 22  2  0  0  0  0
 16 38  1  0  0  0  0
 16 39  1  0  0  0  0
 16 40  1  0  0  0  0
 17 41  1  0  0  0  0
 17 42  1  0  0  0  0
 18 21  1  0  0  0  0
 18 43  1  0  0  0  0
 18 44  1  0  0  0  0
 19 45  1  0  0  0  0
 19 46  1  0  0  0  0
 19 47  1  0  0  0  0
 20 24  1  0  0  0  0
 21 23  1  0  0  0  0
 21 25  1  0  0  0  0
 21 48  1  0  0  0  0
 22 23  1  0  0  0  0
 22 49  1  0  0  0  0
 24 50  1  0  0  0  0
 24 51  1  0  0  0  0
 24 52  1  0  0  0  0
 25 53  1  0  0  0  0
 25 54  1  0  0  0  0
 25 55  1  0  0  0  0
M  END
> <PUBCHEM_COMPOUND_CID>
227667

> <PUBCHEM_CONFORMER_RMSD>
0.6

> <PUBCHEM_CONFORMER_DIVERSEORDER>
1
4
3
2

> <PUBCHEM_MMFF94_PARTIAL_CHARGES>
16
1 -0.57
11 0.06
14 0.45
15 -0.28
17 0.14
2 -0.57
20 0.45
21 0.06
22 -0.14
23 0.49
24 0.06
3 -0.57
49 0.15
7 0.06
8 0.14
9 0.06

> <PUBCHEM_EFFECTIVE_ROTOR_COUNT>
2.6

> <PUBCHEM_PHARMACOPHORE_FEATURES>
7
1 1 acceptor
1 2 acceptor
1 3 acceptor
5 4 5 9 10 12 rings
6 4 5 6 7 11 14 rings
6 6 7 8 13 15 17 rings
6 8 15 18 21 22 23 rings

> <PUBCHEM_HEAVY_ATOM_COUNT>
25

> <PUBCHEM_ATOM_DEF_STEREO_COUNT>
7

> <PUBCHEM_ATOM_UDEF_STEREO_COUNT>
0

> <PUBCHEM_BOND_DEF_STEREO_COUNT>
0

> <PUBCHEM_BOND_UDEF_STEREO_COUNT>
0

> <PUBCHEM_ISOTOPIC_ATOM_COUNT>
0

> <PUBCHEM_COMPONENT_COUNT>
1

> <PUBCHEM_CACTVS_TAUTO_COUNT>
45

> <PUBCHEM_CONFORMER_ID>
0003795300000001

> <PUBCHEM_MMFF94_ENERGY>
75.7567

> <PUBCHEM_FEATURE_SELFOVERLAP>
35.619

> <PUBCHEM_SHAPE_FINGERPRINT>
10366900 7 17632578236292394706
11578080 2 16699502045961210663
12011746 2 18411987953564165055
12166972 35 17632292372128269380
12236239 1 17775281703373490652
12403259 226 18341058470956803616
12403259 415 18408613569295210608
12422481 6 17822008726639400990
12592029 89 18336546118206962330
12633257 1 16805327651921739384
12788726 201 17530950372590914296
13140716 1 18408325509685235929
13224815 77 18411985749607852933
13583140 156 17058400070233975520
13675066 3 17967818227720868040
13862211 1 18410300211104194055
14178342 30 18118119414502462544
14223421 5 18339079418793217341
14341114 176 18413669123484989400
14787075 74 18059855030351400923
14790565 3 18337947866298605973
14955137 171 18259699008410312032
15196674 1 18410294679217874457
15209289 33 18342178877325687546
15788980 27 17560804337702856229
15927050 60 17544188281776924749
16945 1 18192713560385343909
17349148 13 17632857542379185754
17492 89 18339929315686329410
1813 80 17489873700044458189
18222031 100 17060343980900559343
19141452 34 17749111071489768239
19591789 44 18410015398905986098
19784866 170 18408320016959705527
200 152 12895354387184931577
20028762 73 18186806837723829783
20261772 1 18260833665576051654
20739085 24 18340199709098699173
21267235 1 18411693275478269155
21682296 61 18041553771277549230
22182313 1 17823694359790342700
22950370 63 18342454824658408673
23402539 116 18261118460631106135
23522609 53 18125690544155408684
23559900 14 18339087093488253632
296302 2 7637401838950791308
3286 77 18343586222307792230
335352 9 18410014372451189061
350125 39 18410572898862770664
392239 28 18411128135265711139
4340502 62 14779263098704422069
465052 167 18412822486836701498
5104073 3 18335143085239790904
7495541 125 18341894082808664488

> <PUBCHEM_SHAPE_MULTIPOLES>
496.88
11.58
2.53
1.09
0.62
0.29
-0.42
-3.74
3.1
-0.33
0.26
0
-0.17
0.06

> <PUBCHEM_SHAPE_SELFOVERLAP>
1068.557

> <PUBCHEM_SHAPE_VOLUME>
272.5

> <PUBCHEM_COORDINATE_TYPE>
2
5
10

$$$$

