3421
  -OEChem-06251223243D

 13 13  0     1  0  0  0  0  0999 V2000
   -1.3008   -0.1207   -0.0695 P   0  0  0  0  0  0  0  0  0  0  0  0
    1.1392    1.1814    0.0674 O   0  0  0  0  0  0  0  0  0  0  0  0
   -1.1971   -1.5850   -0.4852 O   0  5  0  0  0  0  0  0  0  0  0  0
   -2.1132    0.2037    1.1805 O   0  5  0  0  0  0  0  0  0  0  0  0
   -1.2477    0.9327   -1.1718 O   0  0  0  0  0  0  0  0  0  0  0  0
    0.3753    0.0996    0.6157 C   0  0  2  0  0  0  0  0  0  0  0  0
    1.4976   -0.1354   -0.3289 C   0  0  2  0  0  0  0  0  0  0  0  0
    2.8468   -0.5763    0.1918 C   0  0  0  0  0  0  0  0  0  0  0  0
    0.5218   -0.1598    1.6568 H   0  0  0  0  0  0  0  0  0  0  0  0
    1.3047   -0.4394   -1.3470 H   0  0  0  0  0  0  0  0  0  0  0  0
    3.6377   -0.2014   -0.4648 H   0  0  0  0  0  0  0  0  0  0  0  0
    3.0337   -0.2066    1.2051 H   0  0  0  0  0  0  0  0  0  0  0  0
    2.8973   -1.6691    0.2064 H   0  0  0  0  0  0  0  0  0  0  0  0
  1  3  1  0  0  0  0
  1  4  1  0  0  0  0
  1  5  2  0  0  0  0
  1  6  1  0  0  0  0
  2  6  1  0  0  0  0
  2  7  1  0  0  0  0
  6  7  1  0  0  0  0
  6  9  1  0  0  0  0
  7  8  1  0  0  0  0
  7 10  1  0  0  0  0
  8 11  1  0  0  0  0
  8 12  1  0  0  0  0
  8 13  1  0  0  0  0
M  CHG  2   3  -1   4  -1
M  END
> <PUBCHEM_COMPOUND_CID>
3421

> <PUBCHEM_CONFORMER_RMSD>
0.4

> <PUBCHEM_CONFORMER_DIVERSEORDER>
1
3
2
4

> <PUBCHEM_MMFF94_PARTIAL_CHARGES>
10
1 1.21
10 0.1
2 -0.3
3 -1.03
4 -1.03
5 -1.03
6 -0.06
7 -0.05
8 0.09
9 0.1

> <PUBCHEM_EFFECTIVE_ROTOR_COUNT>
1.6

> <PUBCHEM_PHARMACOPHORE_FEATURES>
5
1 2 acceptor
1 3 acceptor
1 4 acceptor
1 5 acceptor
4 1 3 4 5 anion

> <PUBCHEM_HEAVY_ATOM_COUNT>
8

> <PUBCHEM_ATOM_DEF_STEREO_COUNT>
0

> <PUBCHEM_ATOM_UDEF_STEREO_COUNT>
2

> <PUBCHEM_BOND_DEF_STEREO_COUNT>
0

> <PUBCHEM_BOND_UDEF_STEREO_COUNT>
0

> <PUBCHEM_ISOTOPIC_ATOM_COUNT>
0

> <PUBCHEM_COMPONENT_COUNT>
1

> <PUBCHEM_CACTVS_TAUTO_COUNT>
1

> <PUBCHEM_CONFORMER_ID>
00000D5D00000001

> <PUBCHEM_MMFF94_ENERGY>
9.9215

> <PUBCHEM_FEATURE_SELFOVERLAP>
25.412

> <PUBCHEM_SHAPE_FINGERPRINT>
12932764 1 18343586248457404010
15310529 11 17632567275773322598
16714656 1 18273213127080363447
21040471 1 17532071929905310211
24536 1 17822018562045598736
29004967 10 18341046402140211522
369184 2 14634875266226045198
5084963 1 18337681823138772718

> <PUBCHEM_SHAPE_MULTIPOLES>
145.01
3.23
1.12
0.96
1.52
0.18
-0.03
0.43
-0.35
-0.18
0.2
-0.46
-0.11
-0.01

> <PUBCHEM_SHAPE_SELFOVERLAP>
265.876

> <PUBCHEM_SHAPE_VOLUME>
92.8

> <PUBCHEM_COORDINATE_TYPE>
2
5
10

$$$$

