5312889
  -OEChem-07051213083D

 35 34  0     0  0  0  0  0  0999 V2000
    7.5106    0.8935   -0.0025 O   0  0  0  0  0  0  0  0  0  0  0  0
    6.5522   -1.1382    0.3785 O   0  0  0  0  0  0  0  0  0  0  0  0
   -8.2216    0.6652    0.6433 O   0  0  0  0  0  0  0  0  0  0  0  0
    0.0759    0.2206   -0.1893 C   0  0  0  0  0  0  0  0  0  0  0  0
    1.4363   -0.4537    0.0197 C   0  0  0  0  0  0  0  0  0  0  0  0
   -1.1470   -0.6916   -0.0452 C   0  0  0  0  0  0  0  0  0  0  0  0
    2.6195    0.5007   -0.1594 C   0  0  0  0  0  0  0  0  0  0  0  0
   -2.4738    0.0239   -0.3204 C   0  0  0  0  0  0  0  0  0  0  0  0
    3.9773   -0.1775    0.0418 C   0  0  0  0  0  0  0  0  0  0  0  0
   -3.6898   -0.8963   -0.1679 C   0  0  0  0  0  0  0  0  0  0  0  0
    5.1537    0.7865   -0.0638 C   0  0  0  0  0  0  0  0  0  0  0  0
   -4.9841   -0.2137   -0.5071 C   0  0  0  0  0  0  0  0  0  0  0  0
    6.4541    0.0533    0.1227 C   0  0  0  0  0  0  0  0  0  0  0  0
   -6.0169   -0.1320    0.3404 C   0  0  0  0  0  0  0  0  0  0  0  0
   -7.2465    0.5593   -0.0908 C   0  0  0  0  0  0  0  0  0  0  0  0
    0.0605    0.6694   -1.1908 H   0  0  0  0  0  0  0  0  0  0  0  0
   -0.0192    1.0505    0.5223 H   0  0  0  0  0  0  0  0  0  0  0  0
    1.4687   -0.8875    1.0265 H   0  0  0  0  0  0  0  0  0  0  0  0
    1.5345   -1.2864   -0.6874 H   0  0  0  0  0  0  0  0  0  0  0  0
   -1.0446   -1.5376   -0.7359 H   0  0  0  0  0  0  0  0  0  0  0  0
   -1.1629   -1.1099    0.9685 H   0  0  0  0  0  0  0  0  0  0  0  0
    2.5826    0.9405   -1.1636 H   0  0  0  0  0  0  0  0  0  0  0  0
    2.5214    1.3288    0.5533 H   0  0  0  0  0  0  0  0  0  0  0  0
   -2.5741    0.8756    0.3644 H   0  0  0  0  0  0  0  0  0  0  0  0
   -2.4523    0.4375   -1.3368 H   0  0  0  0  0  0  0  0  0  0  0  0
    4.0883   -0.9796   -0.6992 H   0  0  0  0  0  0  0  0  0  0  0  0
    3.9915   -0.6624    1.0266 H   0  0  0  0  0  0  0  0  0  0  0  0
   -3.7168   -1.2937    0.8542 H   0  0  0  0  0  0  0  0  0  0  0  0
   -3.5761   -1.7578   -0.8375 H   0  0  0  0  0  0  0  0  0  0  0  0
    5.0759    1.5600    0.7075 H   0  0  0  0  0  0  0  0  0  0  0  0
    5.1600    1.2600   -1.0514 H   0  0  0  0  0  0  0  0  0  0  0  0
   -5.0590    0.2141   -1.5041 H   0  0  0  0  0  0  0  0  0  0  0  0
   -5.9877   -0.5505    1.3392 H   0  0  0  0  0  0  0  0  0  0  0  0
    8.3650    0.4299    0.1293 H   0  0  0  0  0  0  0  0  0  0  0  0
   -7.2410    0.9765   -1.1116 H   0  0  0  0  0  0  0  0  0  0  0  0
  1 13  1  0  0  0  0
  1 34  1  0  0  0  0
  2 13  2  0  0  0  0
  3 15  2  0  0  0  0
  4  5  1  0  0  0  0
  4  6  1  0  0  0  0
  4 16  1  0  0  0  0
  4 17  1  0  0  0  0
  5  7  1  0  0  0  0
  5 18  1  0  0  0  0
  5 19  1  0  0  0  0
  6  8  1  0  0  0  0
  6 20  1  0  0  0  0
  6 21  1  0  0  0  0
  7  9  1  0  0  0  0
  7 22  1  0  0  0  0
  7 23  1  0  0  0  0
  8 10  1  0  0  0  0
  8 24  1  0  0  0  0
  8 25  1  0  0  0  0
  9 11  1  0  0  0  0
  9 26  1  0  0  0  0
  9 27  1  0  0  0  0
 10 12  1  0  0  0  0
 10 28  1  0  0  0  0
 10 29  1  0  0  0  0
 11 13  1  0  0  0  0
 11 30  1  0  0  0  0
 11 31  1  0  0  0  0
 12 14  2  0  0  0  0
 12 32  1  0  0  0  0
 14 15  1  0  0  0  0
 14 33  1  0  0  0  0
 15 35  1  0  0  0  0
M  END
> <PUBCHEM_COMPOUND_CID>
5312889

> <PUBCHEM_CONFORMER_RMSD>
1

> <PUBCHEM_CONFORMER_DIVERSEORDER>
1
55
24
9
18
2
65
59
46
4
5
27
23
10
15
30
32
61
29
25
87
47
67
19
45
64
40
34
78
79
58
99
56
84
43
89
68
62
7
50
11
81
28
20
22
98
92
93
63
86
37
77
60
44
36
66
41
31
69
74
52
71
39
54
17
85
3
82
13
35
21
53
16
12
57
6
73
49
96
8
26
76
33
97
94
48
88
72
75
42
14
80
70
38
95
90
83
51
91

> <PUBCHEM_MMFF94_PARTIAL_CHARGES>
13
1 -0.65
10 0.14
11 0.06
12 -0.29
13 0.66
14 -0.14
15 0.5
2 -0.57
3 -0.57
32 0.15
33 0.15
34 0.5
35 0.06

> <PUBCHEM_EFFECTIVE_ROTOR_COUNT>
10

> <PUBCHEM_PHARMACOPHORE_FEATURES>
4
1 1 acceptor
1 2 acceptor
1 3 acceptor
3 1 2 13 anion

> <PUBCHEM_HEAVY_ATOM_COUNT>
15

> <PUBCHEM_ATOM_DEF_STEREO_COUNT>
0

> <PUBCHEM_ATOM_UDEF_STEREO_COUNT>
0

> <PUBCHEM_BOND_DEF_STEREO_COUNT>
1

> <PUBCHEM_BOND_UDEF_STEREO_COUNT>
0

> <PUBCHEM_ISOTOPIC_ATOM_COUNT>
0

> <PUBCHEM_COMPONENT_COUNT>
1

> <PUBCHEM_CACTVS_TAUTO_COUNT>
1

> <PUBCHEM_CONFORMER_ID>
0051117900000001

> <PUBCHEM_MMFF94_ENERGY>
4.3865

> <PUBCHEM_FEATURE_SELFOVERLAP>
20.354

> <PUBCHEM_SHAPE_FINGERPRINT>
10968037 39 8142086464457540325
11315181 36 8646766717002065863
12091667 2 16272214081346238535
13073987 5 16343436105747995453
13533116 47 18337397127786299826
14123256 10 7204774791710479429
1420 363 16487256573305234294
14251764 18 18409732854957341343
14251764 46 18410856559639802570
14729087 3 17967250923462094353
15048467 5 18260266352542298133
17834076 25 18410856555350103535
18006028 8 9871749092137415455
20281389 69 18412829087827116236
20621476 8 18409166640353852687
20735858 18 14764349336038955513
21095086 128 12319742470790708128
21130983 4 18413669097572773741
21150785 3 7276830177997969685
220451 1 17346606252787553498
22224240 67 16271928194683624315
22896161 15 10087639303799001471
23035841 295 14692852484499527113
23402539 116 17967538943230252167
23521765 1 18335421265881333773
246663 6 14045741534326680880
28498 318 18186800314168913166
33532 11 12175632780088693264
33684 2 18410294713498251074
42788 4 18343867701590065086
4325135 7 9223231845117547657
8209 1 7204774791140669699

> <PUBCHEM_SHAPE_MULTIPOLES>
291.09
25.11
0.92
0.67
4.99
0.06
-0.01
-4.67
3.09
-0.37
0.02
0.32
0
-0.41

> <PUBCHEM_SHAPE_SELFOVERLAP>
539.836

> <PUBCHEM_SHAPE_VOLUME>
181.7

> <PUBCHEM_COORDINATE_TYPE>
2
5
10

$$$$

