11699
  -OEChem-06261206002D

 17 16  0     0  0  0  0  0  0999 V2000
    2.5369   -0.1270    0.0000 O   0  0  0  0  0  0  0  0  0  0  0  0
    6.0010   -0.1270    0.0000 O   0  0  0  0  0  0  0  0  0  0  0  0
    4.2690   -0.1270    0.0000 C   0  0  0  0  0  0  0  0  0  0  0  0
    3.4030   -0.6270    0.0000 C   0  0  0  0  0  0  0  0  0  0  0  0
    3.7690    0.7390    0.0000 C   0  0  0  0  0  0  0  0  0  0  0  0
    4.7690   -0.9930    0.0000 C   0  0  0  0  0  0  0  0  0  0  0  0
    5.1350    0.3730    0.0000 C   0  0  0  0  0  0  0  0  0  0  0  0
    3.0044   -1.1019    0.0000 H   0  0  0  0  0  0  0  0  0  0  0  0
    3.8015   -1.1019    0.0000 H   0  0  0  0  0  0  0  0  0  0  0  0
    4.3059    1.0490    0.0000 H   0  0  0  0  0  0  0  0  0  0  0  0
    3.4590    1.2760    0.0000 H   0  0  0  0  0  0  0  0  0  0  0  0
    3.2320    0.4290    0.0000 H   0  0  0  0  0  0  0  0  0  0  0  0
    4.2320   -1.3030    0.0000 H   0  0  0  0  0  0  0  0  0  0  0  0
    5.0790   -1.5300    0.0000 H   0  0  0  0  0  0  0  0  0  0  0  0
    5.3059   -0.6830    0.0000 H   0  0  0  0  0  0  0  0  0  0  0  0
    5.1350    0.9930    0.0000 H   0  0  0  0  0  0  0  0  0  0  0  0
    2.0000   -0.4370    0.0000 H   0  0  0  0  0  0  0  0  0  0  0  0
  1  4  1  0  0  0  0
  1 17  1  0  0  0  0
  2  7  2  0  0  0  0
  3  4  1  0  0  0  0
  3  5  1  0  0  0  0
  3  6  1  0  0  0  0
  3  7  1  0  0  0  0
  4  8  1  0  0  0  0
  4  9  1  0  0  0  0
  5 10  1  0  0  0  0
  5 11  1  0  0  0  0
  5 12  1  0  0  0  0
  6 13  1  0  0  0  0
  6 14  1  0  0  0  0
  6 15  1  0  0  0  0
  7 16  1  0  0  0  0
M  END
> <PUBCHEM_COMPOUND_CID>
11699

> <PUBCHEM_COMPOUND_CANONICALIZED>
1

> <PUBCHEM_CACTVS_COMPLEXITY>
66.5

> <PUBCHEM_CACTVS_HBOND_ACCEPTOR>
2

> <PUBCHEM_CACTVS_HBOND_DONOR>
1

> <PUBCHEM_CACTVS_ROTATABLE_BOND>
2

> <PUBCHEM_CACTVS_SUBSKEYS>
AAADccBgMAAAAAAAAAAAAAAAAAAAAAAAAAAAAAAAAAAAAAAAAAAAGgAACAAADgCggAICAAAAAgAIAAgQgAAAAAAAAAAAAAEAAAAAEAQAAAAAQAAAIAAAAAAAAAAAAAAAAAAAAAAAAAAAAAAAAAAAAAAAAA==

> <PUBCHEM_IUPAC_OPENEYE_NAME>
3-hydroxy-2,2-dimethyl-propanal

> <PUBCHEM_IUPAC_CAS_NAME>
3-hydroxy-2,2-dimethylpropanal

> <PUBCHEM_IUPAC_NAME>
3-hydroxy-2,2-dimethylpropanal

> <PUBCHEM_IUPAC_SYSTEMATIC_NAME>
2,2-dimethyl-3-oxidanyl-propanal

> <PUBCHEM_IUPAC_TRADITIONAL_NAME>
3-hydroxy-2,2-dimethyl-propionaldehyde

> <PUBCHEM_IUPAC_INCHI>
InChI=1S/C5H10O2/c1-5(2,3-6)4-7/h3,7H,4H2,1-2H3

> <PUBCHEM_IUPAC_INCHIKEY>
JJMOMMLADQPZNY-UHFFFAOYSA-N

> <PUBCHEM_XLOGP3_AA>
-0.1

> <PUBCHEM_EXACT_MASS>
102.06808

> <PUBCHEM_MOLECULAR_FORMULA>
C5H10O2

> <PUBCHEM_MOLECULAR_WEIGHT>
102.1317

> <PUBCHEM_OPENEYE_CAN_SMILES>
CC(C)(CO)C=O

> <PUBCHEM_OPENEYE_ISO_SMILES>
CC(C)(CO)C=O

> <PUBCHEM_CACTVS_TPSA>
37.3

> <PUBCHEM_MONOISOTOPIC_WEIGHT>
102.06808

> <PUBCHEM_TOTAL_CHARGE>
0

> <PUBCHEM_HEAVY_ATOM_COUNT>
7

> <PUBCHEM_ATOM_DEF_STEREO_COUNT>
0

> <PUBCHEM_ATOM_UDEF_STEREO_COUNT>
0

> <PUBCHEM_BOND_DEF_STEREO_COUNT>
0

> <PUBCHEM_BOND_UDEF_STEREO_COUNT>
0

> <PUBCHEM_ISOTOPIC_ATOM_COUNT>
0

> <PUBCHEM_COMPONENT_COUNT>
1

> <PUBCHEM_CACTVS_TAUTO_COUNT>
1

> <PUBCHEM_COORDINATE_TYPE>
1
5
255

$$$$

