442076
  -OEChem-07051212563D

 61 63  0     1  0  0  0  0  0999 V2000
    1.9071    1.6039   -0.0436 O   0  0  0  0  0  0  0  0  0  0  0  0
   -0.5405   -3.7483   -0.2383 O   0  0  0  0  0  0  0  0  0  0  0  0
   -3.1798    2.0806   -1.8047 O   0  0  0  0  0  0  0  0  0  0  0  0
    3.3329    0.0642    0.9179 O   0  0  0  0  0  0  0  0  0  0  0  0
    5.4526    1.3121   -0.1584 O   0  0  0  0  0  0  0  0  0  0  0  0
   -2.1706   -0.4507    0.4795 C   0  0  1  0  0  0  0  0  0  0  0  0
   -1.6924    0.4698   -0.6859 C   0  0  2  0  0  0  0  0  0  0  0  0
   -0.5378    1.4636   -0.3391 C   0  0  1  0  0  0  0  0  0  0  0  0
   -1.1985   -1.6456    0.8444 C   0  0  2  0  0  0  0  0  0  0  0  0
   -0.9677    2.3030    0.9200 C   0  0  1  0  0  0  0  0  0  0  0  0
   -2.4715    0.4232    1.7394 C   0  0  0  0  0  0  0  0  0  0  0  0
   -3.5152   -0.9937   -0.0794 C   0  0  0  0  0  0  0  0  0  0  0  0
    0.8075    0.6780   -0.0715 C   0  0  1  0  0  0  0  0  0  0  0  0
   -1.3638    1.4042    2.1051 C   0  0  0  0  0  0  0  0  0  0  0  0
   -3.0321    1.0545   -1.1542 C   0  0  0  0  0  0  0  0  0  0  0  0
   -0.4995   -2.3181   -0.3936 C   0  0  1  0  0  0  0  0  0  0  0  0
   -4.1964    0.1777   -0.7759 C   0  0  0  0  0  0  0  0  0  0  0  0
    0.9908   -1.8967   -0.6703 C   0  0  2  0  0  0  0  0  0  0  0  0
    1.1660   -0.4095   -1.1090 C   0  0  0  0  0  0  0  0  0  0  0  0
   -0.3059    2.4261   -1.5399 C   0  0  0  0  0  0  0  0  0  0  0  0
   -1.9016   -2.7006    1.7337 C   0  0  0  0  0  0  0  0  0  0  0  0
    0.0488    3.3438    1.4057 C   0  0  0  0  0  0  0  0  0  0  0  0
    1.5584   -2.7595   -1.8289 C   0  0  0  0  0  0  0  0  0  0  0  0
    1.8686   -2.1820    0.5301 C   0  0  0  0  0  0  0  0  0  0  0  0
    3.1234    1.0534    0.2291 C   0  0  0  0  0  0  0  0  0  0  0  0
    3.1296   -2.6196    0.4480 C   0  0  0  0  0  0  0  0  0  0  0  0
    4.1874    1.8661   -0.4603 C   0  0  0  0  0  0  0  0  0  0  0  0
   -1.4079   -0.1278   -1.5558 H   0  0  0  0  0  0  0  0  0  0  0  0
   -0.4350   -1.2321    1.5014 H   0  0  0  0  0  0  0  0  0  0  0  0
   -1.8648    2.8741    0.6400 H   0  0  0  0  0  0  0  0  0  0  0  0
   -2.6937   -0.1985    2.6115 H   0  0  0  0  0  0  0  0  0  0  0  0
   -3.3819    1.0162    1.5885 H   0  0  0  0  0  0  0  0  0  0  0  0
   -4.1638   -1.4066    0.7009 H   0  0  0  0  0  0  0  0  0  0  0  0
   -3.3389   -1.7903   -0.8126 H   0  0  0  0  0  0  0  0  0  0  0  0
    0.7766    0.2512    0.9284 H   0  0  0  0  0  0  0  0  0  0  0  0
   -1.7251    2.0335    2.9292 H   0  0  0  0  0  0  0  0  0  0  0  0
   -0.4982    0.8672    2.5060 H   0  0  0  0  0  0  0  0  0  0  0  0
   -1.0926   -2.1306   -1.2935 H   0  0  0  0  0  0  0  0  0  0  0  0
   -4.8619    0.7239   -0.1025 H   0  0  0  0  0  0  0  0  0  0  0  0
   -4.7417   -0.1487   -1.6647 H   0  0  0  0  0  0  0  0  0  0  0  0
    0.5837   -0.2572   -2.0254 H   0  0  0  0  0  0  0  0  0  0  0  0
    2.1926   -0.2824   -1.4763 H   0  0  0  0  0  0  0  0  0  0  0  0
   -1.0968    3.1773   -1.6205 H   0  0  0  0  0  0  0  0  0  0  0  0
    0.6265    2.9927   -1.4561 H   0  0  0  0  0  0  0  0  0  0  0  0
   -0.2637    1.8778   -2.4871 H   0  0  0  0  0  0  0  0  0  0  0  0
   -1.1700   -3.4122    2.1341 H   0  0  0  0  0  0  0  0  0  0  0  0
   -2.3949   -2.2540    2.5999 H   0  0  0  0  0  0  0  0  0  0  0  0
   -2.6536   -3.2680    1.1759 H   0  0  0  0  0  0  0  0  0  0  0  0
   -0.4057    3.9826    2.1719 H   0  0  0  0  0  0  0  0  0  0  0  0
    0.9268    2.8778    1.8625 H   0  0  0  0  0  0  0  0  0  0  0  0
    0.3789    4.0018    0.5975 H   0  0  0  0  0  0  0  0  0  0  0  0
    2.5125   -2.3867   -2.2206 H   0  0  0  0  0  0  0  0  0  0  0  0
    1.6874   -3.8150   -1.5602 H   0  0  0  0  0  0  0  0  0  0  0  0
    0.8651   -2.7351   -2.6799 H   0  0  0  0  0  0  0  0  0  0  0  0
    1.4776   -2.0209    1.5296 H   0  0  0  0  0  0  0  0  0  0  0  0
   -0.4885   -4.1461   -1.1236 H   0  0  0  0  0  0  0  0  0  0  0  0
    3.6860   -2.7993    1.3639 H   0  0  0  0  0  0  0  0  0  0  0  0
    3.6690   -2.7999   -0.4717 H   0  0  0  0  0  0  0  0  0  0  0  0
    4.1627    2.8931   -0.0872 H   0  0  0  0  0  0  0  0  0  0  0  0
    4.0370    1.8481   -1.5431 H   0  0  0  0  0  0  0  0  0  0  0  0
    5.4921    0.4310   -0.5683 H   0  0  0  0  0  0  0  0  0  0  0  0
  1 13  1  0  0  0  0
  1 25  1  0  0  0  0
  2 16  1  0  0  0  0
  2 56  1  0  0  0  0
  3 15  2  0  0  0  0
  4 25  2  0  0  0  0
  5 27  1  0  0  0  0
  5 61  1  0  0  0  0
  6  7  1  0  0  0  0
  6  9  1  0  0  0  0
  6 11  1  0  0  0  0
  6 12  1  0  0  0  0
  7  8  1  0  0  0  0
  7 15  1  0  0  0  0
  7 28  1  0  0  0  0
  8 10  1  0  0  0  0
  8 13  1  0  0  0  0
  8 20  1  0  0  0  0
  9 16  1  0  0  0  0
  9 21  1  0  0  0  0
  9 29  1  0  0  0  0
 10 14  1  0  0  0  0
 10 22  1  0  0  0  0
 10 30  1  0  0  0  0
 11 14  1  0  0  0  0
 11 31  1  0  0  0  0
 11 32  1  0  0  0  0
 12 17  1  0  0  0  0
 12 33  1  0  0  0  0
 12 34  1  0  0  0  0
 13 19  1  0  0  0  0
 13 35  1  0  0  0  0
 14 36  1  0  0  0  0
 14 37  1  0  0  0  0
 15 17  1  0  0  0  0
 16 18  1  0  0  0  0
 16 38  1  0  0  0  0
 17 39  1  0  0  0  0
 17 40  1  0  0  0  0
 18 19  1  0  0  0  0
 18 23  1  0  0  0  0
 18 24  1  0  0  0  0
 19 41  1  0  0  0  0
 19 42  1  0  0  0  0
 20 43  1  0  0  0  0
 20 44  1  0  0  0  0
 20 45  1  0  0  0  0
 21 46  1  0  0  0  0
 21 47  1  0  0  0  0
 21 48  1  0  0  0  0
 22 49  1  0  0  0  0
 22 50  1  0  0  0  0
 22 51  1  0  0  0  0
 23 52  1  0  0  0  0
 23 53  1  0  0  0  0
 23 54  1  0  0  0  0
 24 26  2  0  0  0  0
 24 55  1  0  0  0  0
 25 27  1  0  0  0  0
 26 57  1  0  0  0  0
 26 58  1  0  0  0  0
 27 59  1  0  0  0  0
 27 60  1  0  0  0  0
M  END
> <PUBCHEM_COMPOUND_CID>
442076

> <PUBCHEM_CONFORMER_RMSD>
0.8

> <PUBCHEM_CONFORMER_DIVERSEORDER>
1
3
4
2

> <PUBCHEM_MMFF94_PARTIAL_CHARGES>
20
1 -0.43
13 0.28
15 0.45
16 0.28
17 0.06
18 0.14
2 -0.68
24 -0.29
25 0.66
26 -0.3
27 0.34
3 -0.57
4 -0.57
5 -0.68
55 0.15
56 0.4
57 0.15
58 0.15
61 0.4
7 0.06

> <PUBCHEM_EFFECTIVE_ROTOR_COUNT>
6

> <PUBCHEM_PHARMACOPHORE_FEATURES>
9
1 2 acceptor
1 2 donor
1 26 hydrophobe
1 3 acceptor
1 4 acceptor
1 5 acceptor
1 5 donor
5 6 7 12 15 17 rings
6 6 7 8 10 11 14 rings

> <PUBCHEM_HEAVY_ATOM_COUNT>
27

> <PUBCHEM_ATOM_DEF_STEREO_COUNT>
7

> <PUBCHEM_ATOM_UDEF_STEREO_COUNT>
1

> <PUBCHEM_BOND_DEF_STEREO_COUNT>
0

> <PUBCHEM_BOND_UDEF_STEREO_COUNT>
0

> <PUBCHEM_ISOTOPIC_ATOM_COUNT>
0

> <PUBCHEM_COMPONENT_COUNT>
1

> <PUBCHEM_CACTVS_TAUTO_COUNT>
2

> <PUBCHEM_CONFORMER_ID>
0006BEDC00000001

> <PUBCHEM_MMFF94_ENERGY>
123.6672

> <PUBCHEM_FEATURE_SELFOVERLAP>
45.858

> <PUBCHEM_SHAPE_FINGERPRINT>
10675989 125 17907870843873257805
10863032 1 18341342170715381133
10906281 52 18201145599200454693
10948715 1 18130520711614933269
1100329 8 17974281019656362330
11112241 14 16302625288190343856
11578080 2 17772741900027376116
12011746 2 18337392634464004772
12156800 1 16965834312110473515
12422481 6 17833816180637644459
12553582 1 17545027664531508622
12633257 1 18196653119337904522
12788726 201 18113897216616027289
13027679 85 18263079912171278529
13140716 1 17689141319409535091
13224815 77 18334571386569615444
13544592 271 18337105666356257571
13911987 19 18264204725504597924
14223421 5 18262508325011965254
14251757 17 17766860681324204893
14787075 74 18338246994028233751
16945 1 17988065696055582823
17492 54 18193863486471155263
192875 21 18048896369867046362
20691752 17 18058723749130098107
20715895 44 17911540988127551413
20905425 154 18341334392366577863
21857420 4 13163108923265052900
22182313 1 18268410408867266095
2334 1 18411130351220908999
23419403 2 16179397917691285513
23558518 356 18047187737303053728
23559900 14 18124891289648932170
2748010 2 18340750616180022431
3380486 145 18267849602439967035
350125 39 18265892639325026764
484989 97 17760936143370409255
5262128 65 17754738552305183583
6287921 2 17605546867420096558

> <PUBCHEM_SHAPE_MULTIPOLES>
526.3
6.33
4.07
1.69
4.45
1.37
-0.16
-1.78
0.74
1.23
-0.28
-1
-0.29
0.64

> <PUBCHEM_SHAPE_SELFOVERLAP>
1100.979

> <PUBCHEM_SHAPE_VOLUME>
293.8

> <PUBCHEM_COORDINATE_TYPE>
2
5
10

$$$$

