5462440
  -OEChem-07051212582D

 44 47  0     1  0  0  0  0  0999 V2000
    2.0520    1.4746    0.0000 O   0  0  0  0  0  0  0  0  0  0  0  0
    4.4361    1.9437    0.0000 O   0  0  0  0  0  0  0  0  0  0  0  0
    3.8001   -1.5669    0.0000 N   0  0  3  0  0  0  0  0  0  0  0  0
    3.7841   -0.5254    0.0000 C   0  0  2  0  0  0  0  0  0  0  0  0
    4.6501   -0.0254    0.0000 C   0  0  1  0  0  0  0  0  0  0  0  0
    2.9180   -0.0254    0.0000 C   0  0  1  0  0  0  0  0  0  0  0  0
    4.6501    0.9746    0.0000 C   0  0  2  0  0  0  0  0  0  0  0  0
    3.5810   -0.1554    0.0000 C   0  0  0  0  0  0  0  0  0  0  0  0
    2.9180    0.9746    0.0000 C   0  0  1  0  0  0  0  0  0  0  0  0
    3.7841    1.4746    0.0000 C   0  0  0  0  0  0  0  0  0  0  0  0
    5.5599   -0.5134    0.0000 C   0  0  0  0  0  0  0  0  0  0  0  0
    2.0080   -0.5322    0.0000 C   0  0  0  0  0  0  0  0  0  0  0  0
    3.4973    0.6402    0.0000 C   0  0  2  0  0  0  0  0  0  0  0  0
    4.6984   -2.0758    0.0000 C   0  0  0  0  0  0  0  0  0  0  0  0
    4.2282    0.9656    0.0000 C   0  0  0  0  0  0  0  0  0  0  0  0
    2.9021   -2.0946    0.0000 C   0  0  0  0  0  0  0  0  0  0  0  0
    5.5842   -1.5455    0.0000 C   0  0  0  0  0  0  0  0  0  0  0  0
    2.0000   -1.5738    0.0000 C   0  0  0  0  0  0  0  0  0  0  0  0
    3.1553    1.5799    0.0000 C   0  0  0  0  0  0  0  0  0  0  0  0
    5.4488    0.2653    0.0000 H   0  0  0  0  0  0  0  0  0  0  0  0
    2.1819    0.3996    0.0000 H   0  0  0  0  0  0  0  0  0  0  0  0
    5.0751    1.7108    0.0000 H   0  0  0  0  0  0  0  0  0  0  0  0
    2.9862    0.0197    0.0000 H   0  0  0  0  0  0  0  0  0  0  0  0
    4.1726    0.0298    0.0000 H   0  0  0  0  0  0  0  0  0  0  0  0
    2.3811    0.6646    0.0000 H   0  0  0  0  0  0  0  0  0  0  0  0
    4.1826    1.9496    0.0000 H   0  0  0  0  0  0  0  0  0  0  0  0
    3.3855    1.9496    0.0000 H   0  0  0  0  0  0  0  0  0  0  0  0
    6.1730   -0.6051    0.0000 H   0  0  0  0  0  0  0  0  0  0  0  0
    5.7551    0.0751    0.0000 H   0  0  0  0  0  0  0  0  0  0  0  0
    1.8035    0.0531    0.0000 H   0  0  0  0  0  0  0  0  0  0  0  0
    1.3964   -0.6336    0.0000 H   0  0  0  0  0  0  0  0  0  0  0  0
    2.8932    0.5007    0.0000 H   0  0  0  0  0  0  0  0  0  0  0  0
    4.3050   -2.5550    0.0000 H   0  0  0  0  0  0  0  0  0  0  0  0
    5.1032   -2.5454    0.0000 H   0  0  0  0  0  0  0  0  0  0  0  0
    2.5048   -2.5706    0.0000 H   0  0  0  0  0  0  0  0  0  0  0  0
    3.3030   -2.5675    0.0000 H   0  0  0  0  0  0  0  0  0  0  0  0
    5.8069   -2.1241    0.0000 H   0  0  0  0  0  0  0  0  0  0  0  0
    6.1924   -1.4250    0.0000 H   0  0  0  0  0  0  0  0  0  0  0  0
    1.3900   -1.4630    0.0000 H   0  0  0  0  0  0  0  0  0  0  0  0
    1.7864   -2.1559    0.0000 H   0  0  0  0  0  0  0  0  0  0  0  0
    3.7379    1.7919    0.0000 H   0  0  0  0  0  0  0  0  0  0  0  0
    2.9433    2.1625    0.0000 H   0  0  0  0  0  0  0  0  0  0  0  0
    2.5727    1.3678    0.0000 H   0  0  0  0  0  0  0  0  0  0  0  0
    2.0520    2.0946    0.0000 H   0  0  0  0  0  0  0  0  0  0  0  0
  9  1  1  6  0  0  0
  1 44  1  0  0  0  0
  2 15  2  0  0  0  0
  4  3  1  6  0  0  0
  3 14  1  0  0  0  0
  3 16  1  0  0  0  0
  4  5  1  0  0  0  0
  4  6  1  0  0  0  0
  4  8  1  0  0  0  0
  5  7  1  0  0  0  0
  5 11  1  0  0  0  0
  5 20  1  6  0  0  0
  6  9  1  0  0  0  0
  6 12  1  0  0  0  0
  6 21  1  1  0  0  0
  7 10  1  0  0  0  0
  7 15  1  0  0  0  0
  7 22  1  6  0  0  0
  8 13  1  0  0  0  0
  8 23  1  0  0  0  0
  8 24  1  0  0  0  0
  9 10  1  0  0  0  0
  9 25  1  0  0  0  0
 10 26  1  0  0  0  0
 10 27  1  0  0  0  0
 11 17  1  0  0  0  0
 11 28  1  0  0  0  0
 11 29  1  0  0  0  0
 12 18  1  0  0  0  0
 12 30  1  0  0  0  0
 12 31  1  0  0  0  0
 13 15  1  0  0  0  0
 13 19  1  1  0  0  0
 13 32  1  0  0  0  0
 14 17  1  0  0  0  0
 14 33  1  0  0  0  0
 14 34  1  0  0  0  0
 16 18  1  0  0  0  0
 16 35  1  0  0  0  0
 16 36  1  0  0  0  0
 17 37  1  0  0  0  0
 17 38  1  0  0  0  0
 18 39  1  0  0  0  0
 18 40  1  0  0  0  0
 19 41  1  0  0  0  0
 19 42  1  0  0  0  0
 19 43  1  0  0  0  0
M  END
> <PUBCHEM_COMPOUND_CID>
5462440

> <PUBCHEM_COMPOUND_CANONICALIZED>
1

> <PUBCHEM_CACTVS_COMPLEXITY>
410

> <PUBCHEM_CACTVS_HBOND_ACCEPTOR>
3

> <PUBCHEM_CACTVS_HBOND_DONOR>
1

> <PUBCHEM_CACTVS_ROTATABLE_BOND>
0

> <PUBCHEM_CACTVS_SUBSKEYS>
AAADceB6MAAAAAAAAAAAAAAAAAAAAAAAAAA8eIEAAAAYAACwAAAAHgAACAAADZzhgAYCAAMAAgAIAIAQAAAAAAAAAAAAAAEIAAAAEBIAgAAEQAAGAACAAAGe2POOgAAAAAAAAADAAAaEADQAAAAAAAAAAA==

> <PUBCHEM_IUPAC_INCHI>
InChI=1S/C16H25NO2/c1-10-9-16-12-4-2-6-17(16)7-3-5-13(16)14(18)8-11(12)15(10)19/h10-14,18H,2-9H2,1H3/t10-,11+,12-,13-,14-,16-/m1/s1

> <PUBCHEM_IUPAC_INCHIKEY>
KYIYXWHVYGBAKF-NVWMEEMDSA-N

> <PUBCHEM_XLOGP3_AA>
1.6

> <PUBCHEM_EXACT_MASS>
263.188529

> <PUBCHEM_MOLECULAR_FORMULA>
C16H25NO2

> <PUBCHEM_MOLECULAR_WEIGHT>
263.3752

> <PUBCHEM_OPENEYE_CAN_SMILES>
CC1CC23C4CCCN2CCCC3C(CC4C1=O)O

> <PUBCHEM_OPENEYE_ISO_SMILES>
C[C@@H]1C[C@]23[C@@H]4CCCN2CCC[C@@H]3[C@@H](C[C@@H]4C1=O)O

> <PUBCHEM_CACTVS_TPSA>
40.5

> <PUBCHEM_MONOISOTOPIC_WEIGHT>
263.188529

> <PUBCHEM_TOTAL_CHARGE>
0

> <PUBCHEM_HEAVY_ATOM_COUNT>
19

> <PUBCHEM_ATOM_DEF_STEREO_COUNT>
6

> <PUBCHEM_ATOM_UDEF_STEREO_COUNT>
0

> <PUBCHEM_BOND_DEF_STEREO_COUNT>
0

> <PUBCHEM_BOND_UDEF_STEREO_COUNT>
0

> <PUBCHEM_ISOTOPIC_ATOM_COUNT>
0

> <PUBCHEM_COMPONENT_COUNT>
1

> <PUBCHEM_CACTVS_TAUTO_COUNT>
2

> <PUBCHEM_COORDINATE_TYPE>
1
5
255

> <PUBCHEM_BONDANNOTATIONS>
9  1  6
13  19  5
4  3  6
5  20  6
6  21  5
7  22  6

$$$$

