443685
  -OEChem-07051213023D

 61 66  0     1  0  0  0  0  0999 V2000
   -5.0142    2.9567   -0.2810 O   0  0  0  0  0  0  0  0  0  0  0  0
    1.2106    2.9625   -0.6811 O   0  0  0  0  0  0  0  0  0  0  0  0
   -4.7971   -3.0370    0.2866 O   0  0  0  0  0  0  0  0  0  0  0  0
   -3.0801   -4.7224    0.4005 O   0  0  0  0  0  0  0  0  0  0  0  0
    8.6723    0.0820   -0.2445 O   0  0  0  0  0  0  0  0  0  0  0  0
   -0.6786    2.5518    0.6448 N   0  0  0  0  0  0  0  0  0  0  0  0
    0.8769   -0.0842   -0.0490 N   0  0  1  0  0  0  0  0  0  0  0  0
   -1.5129    0.6508   -0.5083 C   0  0  1  0  0  0  0  0  0  0  0  0
   -1.7013    1.5191    0.7759 C   0  0  2  0  0  0  0  0  0  0  0  0
    0.0172    0.8401   -0.8145 C   0  0  1  0  0  0  0  0  0  0  0  0
   -1.8991   -0.8121   -0.2629 C   0  0  0  0  0  0  0  0  0  0  0  0
   -3.1170    2.0915    0.9217 C   0  0  0  0  0  0  0  0  0  0  0  0
    0.2821    2.2542   -0.3158 C   0  0  0  0  0  0  0  0  0  0  0  0
   -2.2969    1.1998   -1.6968 C   0  0  0  0  0  0  0  0  0  0  0  0
    0.5498   -1.4691   -0.4155 C   0  0  0  0  0  0  0  0  0  0  0  0
   -3.5938    2.8424   -0.3270 C   0  0  1  0  0  0  0  0  0  0  0  0
   -0.8985   -1.8131   -0.1889 C   0  0  0  0  0  0  0  0  0  0  0  0
   -3.2115    2.1757   -1.6112 C   0  0  0  0  0  0  0  0  0  0  0  0
    2.3083    0.1367   -0.2899 C   0  0  0  0  0  0  0  0  0  0  0  0
   -3.2485   -1.1911   -0.1064 C   0  0  0  0  0  0  0  0  0  0  0  0
   -0.6171    3.7133    1.5130 C   0  0  0  0  0  0  0  0  0  0  0  0
   -1.2433   -3.1608    0.0266 C   0  0  0  0  0  0  0  0  0  0  0  0
   -3.5499   -2.5195    0.1171 C   0  0  0  0  0  0  0  0  0  0  0  0
    3.1593   -0.7867    0.5826 C   0  0  0  0  0  0  0  0  0  0  0  0
   -2.5736   -3.4790    0.1824 C   0  0  0  0  0  0  0  0  0  0  0  0
    4.6328   -0.5542    0.3613 C   0  0  0  0  0  0  0  0  0  0  0  0
   -5.4441    3.5837    0.9177 C   0  0  0  0  0  0  0  0  0  0  0  0
   -4.4917   -4.4349    0.4677 C   0  0  0  0  0  0  0  0  0  0  0  0
    5.2972   -1.2799   -0.6156 C   0  0  0  0  0  0  0  0  0  0  0  0
    5.2984    0.3809    1.1391 C   0  0  0  0  0  0  0  0  0  0  0  0
    6.6604   -1.0653   -0.8194 C   0  0  0  0  0  0  0  0  0  0  0  0
    6.6615    0.5955    0.9351 C   0  0  0  0  0  0  0  0  0  0  0  0
    7.3425   -0.1275   -0.0442 C   0  0  0  0  0  0  0  0  0  0  0  0
   -1.4471    0.9487    1.6793 H   0  0  0  0  0  0  0  0  0  0  0  0
    0.2310    0.7849   -1.8902 H   0  0  0  0  0  0  0  0  0  0  0  0
   -3.1472    2.7549    1.7950 H   0  0  0  0  0  0  0  0  0  0  0  0
   -3.8120    1.2793    1.1644 H   0  0  0  0  0  0  0  0  0  0  0  0
   -2.0902    0.7714   -2.6755 H   0  0  0  0  0  0  0  0  0  0  0  0
    1.0988   -2.1718    0.2152 H   0  0  0  0  0  0  0  0  0  0  0  0
    0.7981   -1.6782   -1.4646 H   0  0  0  0  0  0  0  0  0  0  0  0
   -3.1689    3.8539   -0.3480 H   0  0  0  0  0  0  0  0  0  0  0  0
   -3.6968    2.5170   -2.5218 H   0  0  0  0  0  0  0  0  0  0  0  0
    2.5555    0.0011   -1.3515 H   0  0  0  0  0  0  0  0  0  0  0  0
    2.5921    1.1601   -0.0277 H   0  0  0  0  0  0  0  0  0  0  0  0
   -4.0546   -0.4689   -0.1713 H   0  0  0  0  0  0  0  0  0  0  0  0
   -0.6429    3.3779    2.5532 H   0  0  0  0  0  0  0  0  0  0  0  0
   -1.4680    4.3671    1.3099 H   0  0  0  0  0  0  0  0  0  0  0  0
    0.3066    4.2712    1.3374 H   0  0  0  0  0  0  0  0  0  0  0  0
   -0.4835   -3.9351    0.0650 H   0  0  0  0  0  0  0  0  0  0  0  0
    2.9920   -1.8487    0.3797 H   0  0  0  0  0  0  0  0  0  0  0  0
    2.9187   -0.6397    1.6440 H   0  0  0  0  0  0  0  0  0  0  0  0
   -6.4810    3.9012    0.7712 H   0  0  0  0  0  0  0  0  0  0  0  0
   -4.8512    4.4753    1.1471 H   0  0  0  0  0  0  0  0  0  0  0  0
   -5.4406    2.8837    1.7581 H   0  0  0  0  0  0  0  0  0  0  0  0
   -5.0048   -5.0102   -0.3115 H   0  0  0  0  0  0  0  0  0  0  0  0
   -4.8688   -4.7528    1.4464 H   0  0  0  0  0  0  0  0  0  0  0  0
    4.7749   -2.0104   -1.2267 H   0  0  0  0  0  0  0  0  0  0  0  0
    4.7762    0.9501    1.9029 H   0  0  0  0  0  0  0  0  0  0  0  0
    7.1791   -1.6345   -1.5861 H   0  0  0  0  0  0  0  0  0  0  0  0
    7.1872    1.3279    1.5418 H   0  0  0  0  0  0  0  0  0  0  0  0
    8.9792   -0.5023   -0.9591 H   0  0  0  0  0  0  0  0  0  0  0  0
  1 16  1  0  0  0  0
  1 27  1  0  0  0  0
  2 13  2  0  0  0  0
  3 23  1  0  0  0  0
  3 28  1  0  0  0  0
  4 25  1  0  0  0  0
  4 28  1  0  0  0  0
  5 33  1  0  0  0  0
  5 61  1  0  0  0  0
  6  9  1  0  0  0  0
  6 13  1  0  0  0  0
  6 21  1  0  0  0  0
  7 10  1  0  0  0  0
  7 15  1  0  0  0  0
  7 19  1  0  0  0  0
  8  9  1  0  0  0  0
  8 10  1  0  0  0  0
  8 11  1  0  0  0  0
  8 14  1  0  0  0  0
  9 12  1  0  0  0  0
  9 34  1  0  0  0  0
 10 13  1  0  0  0  0
 10 35  1  0  0  0  0
 11 17  1  0  0  0  0
 11 20  2  0  0  0  0
 12 16  1  0  0  0  0
 12 36  1  0  0  0  0
 12 37  1  0  0  0  0
 14 18  2  0  0  0  0
 14 38  1  0  0  0  0
 15 17  1  0  0  0  0
 15 39  1  0  0  0  0
 15 40  1  0  0  0  0
 16 18  1  0  0  0  0
 16 41  1  0  0  0  0
 17 22  2  0  0  0  0
 18 42  1  0  0  0  0
 19 24  1  0  0  0  0
 19 43  1  0  0  0  0
 19 44  1  0  0  0  0
 20 23  1  0  0  0  0
 20 45  1  0  0  0  0
 21 46  1  0  0  0  0
 21 47  1  0  0  0  0
 21 48  1  0  0  0  0
 22 25  1  0  0  0  0
 22 49  1  0  0  0  0
 23 25  2  0  0  0  0
 24 26  1  0  0  0  0
 24 50  1  0  0  0  0
 24 51  1  0  0  0  0
 26 29  2  0  0  0  0
 26 30  1  0  0  0  0
 27 52  1  0  0  0  0
 27 53  1  0  0  0  0
 27 54  1  0  0  0  0
 28 55  1  0  0  0  0
 28 56  1  0  0  0  0
 29 31  1  0  0  0  0
 29 57  1  0  0  0  0
 30 32  2  0  0  0  0
 30 58  1  0  0  0  0
 31 33  2  0  0  0  0
 31 59  1  0  0  0  0
 32 33  1  0  0  0  0
 32 60  1  0  0  0  0
M  END
> <PUBCHEM_COMPOUND_CID>
443685

> <PUBCHEM_CONFORMER_RMSD>
0.8

> <PUBCHEM_CONFORMER_DIVERSEORDER>
1
10
3
9
26
12
19
17
16
6
18
22
23
20
5
13
7
4
15
21
14
11
25
8
24
2

> <PUBCHEM_MMFF94_PARTIAL_CHARGES>
41
1 -0.56
10 0.33
11 -0.14
13 0.57
14 -0.29
15 0.41
16 0.42
17 -0.14
18 -0.29
19 0.27
2 -0.57
20 -0.15
21 0.3
22 -0.15
23 0.08
24 0.14
25 0.08
26 -0.14
27 0.28
28 0.56
29 -0.15
3 -0.36
30 -0.15
31 -0.15
32 -0.15
33 0.08
38 0.15
4 -0.36
42 0.15
45 0.15
49 0.15
5 -0.53
57 0.15
58 0.15
59 0.15
6 -0.66
60 0.15
61 0.45
7 -0.81
8 0.28
9 0.3

> <PUBCHEM_EFFECTIVE_ROTOR_COUNT>
5.6

> <PUBCHEM_PHARMACOPHORE_FEATURES>
12
1 1 acceptor
1 2 acceptor
1 3 acceptor
1 4 acceptor
1 5 donor
1 7 cation
5 3 4 23 25 28 rings
5 6 8 9 10 13 rings
6 11 17 20 22 23 25 rings
6 26 29 30 31 32 33 rings
6 7 8 10 11 15 17 rings
6 8 9 12 14 16 18 rings

> <PUBCHEM_HEAVY_ATOM_COUNT>
33

> <PUBCHEM_ATOM_DEF_STEREO_COUNT>
4

> <PUBCHEM_ATOM_UDEF_STEREO_COUNT>
0

> <PUBCHEM_BOND_DEF_STEREO_COUNT>
0

> <PUBCHEM_BOND_UDEF_STEREO_COUNT>
0

> <PUBCHEM_ISOTOPIC_ATOM_COUNT>
0

> <PUBCHEM_COMPONENT_COUNT>
1

> <PUBCHEM_CACTVS_TAUTO_COUNT>
4

> <PUBCHEM_CONFORMER_ID>
0006C52500000001

> <PUBCHEM_MMFF94_ENERGY>
96.6162

> <PUBCHEM_FEATURE_SELFOVERLAP>
61.494

> <PUBCHEM_SHAPE_FINGERPRINT>
10050765 1 18339923693458237220
10290309 65 18054512675124491695
10411042 1 18123469376380670783
10906281 52 18040994111036980868
10940486 97 18273213097164046077
1100329 8 18409445912266145569
11135609 187 18125170570261637581
12293681 160 17899151669620606177
12788726 201 18197764523561648926
13140716 1 18408040701940594913
13540713 5 18058432228098873388
13631057 29 18270967847555106378
13782708 43 17967250889324408958
13911987 19 18126299768323568597
14068700 675 18128820737673835062
14790565 3 17833550480558560696
14840074 17 18057881531966799660
14866123 147 18411416211828928779
15042514 8 18410007723830998652
15064981 194 18337375103036042272
1577012 14 17989486334747640590
15927050 60 18265336295105854991
17686467 74 18057044606740006904
20505436 4 17607254440045247237
21236236 1 18409169917493189606
23559900 14 18339091371523548196
244849 19 17459730679321826566
25147074 1 17916855834188812324
25269216 80 18269815577166265030
255183 313 18340190991090035441
2747138 104 18197496225961431714
335352 9 18341055129888823391
3383291 50 18410294709836696011
4058900 60 17903920303084441089
4073 2 18408322220731777982
4258327 124 18059275631306778244
4403749 210 18270398412580967169
4409770 3 18341339933359699703
469060 322 17274829056111447214
484989 97 18341903936033393111
497634 4 18130793335054600006
5104073 3 18337686269432179762
5171179 24 17751659666412944545
563151 97 17904768031124465877
6698420 124 18044084885403489585

> <PUBCHEM_SHAPE_MULTIPOLES>
639.82
15.47
5.54
1.13
38.1
3.11
0.1
0.85
-1.03
-12.64
-1.33
-0.23
-0.73
0.84

> <PUBCHEM_SHAPE_SELFOVERLAP>
1420.389

> <PUBCHEM_SHAPE_VOLUME>
341.1

> <PUBCHEM_COORDINATE_TYPE>
2
5
10

$$$$

