442962
  -OEChem-07051213002D

 44 47  0     1  0  0  0  0  0999 V2000
    4.8086   -2.0031    0.0000 O   0  0  0  0  0  0  0  0  0  0  0  0
    2.8520   -0.1661    0.0000 N   0  0  3  0  0  0  0  0  0  0  0  0
    7.7826    0.2550    0.0000 N   0  0  3  0  0  0  0  0  0  0  0  0
    5.3007    0.6703    0.0000 C   0  0  2  0  0  0  0  0  0  0  0  0
    5.5596    1.6363    0.0000 C   0  0  1  0  0  0  0  0  0  0  0  0
    3.7656   -0.5728    0.0000 C   0  0  1  0  0  0  0  0  0  0  0  0
    7.4242    1.1886    0.0000 C   0  0  2  0  0  0  0  0  0  0  0  0
    4.8229    2.6189    0.0000 C   0  0  0  0  0  0  0  0  0  0  0  0
    2.9566    0.8285    0.0000 C   0  0  0  0  0  0  0  0  0  0  0  0
    7.0054   -0.3743    0.0000 C   0  0  0  0  0  0  0  0  0  0  0  0
    3.8904   -1.6069    0.0000 C   0  0  2  0  0  0  0  0  0  0  0  0
    8.0672    2.0081    0.0000 C   0  0  0  0  0  0  0  0  0  0  0  0
    2.0000   -0.7653    0.0000 C   0  0  0  0  0  0  0  0  0  0  0  0
    8.8088    0.0762    0.0000 C   0  0  0  0  0  0  0  0  0  0  0  0
    3.0525   -2.2257    0.0000 C   0  0  0  0  0  0  0  0  0  0  0  0
    9.0972    1.8531    0.0000 C   0  0  0  0  0  0  0  0  0  0  0  0
    2.1009   -1.8020    0.0000 C   0  0  0  0  0  0  0  0  0  0  0  0
    9.4705    0.8807    0.0000 C   0  0  0  0  0  0  0  0  0  0  0  0
    5.0807   -0.1507    0.0000 H   0  0  0  0  0  0  0  0  0  0  0  0
    5.7796    2.4573    0.0000 H   0  0  0  0  0  0  0  0  0  0  0  0
    4.5421   -0.9185    0.0000 H   0  0  0  0  0  0  0  0  0  0  0  0
    7.1196    1.9822    0.0000 H   0  0  0  0  0  0  0  0  0  0  0  0
    5.1408    3.1512    0.0000 H   0  0  0  0  0  0  0  0  0  0  0  0
    4.2098    2.7108    0.0000 H   0  0  0  0  0  0  0  0  0  0  0  0
    2.8543    1.4400    0.0000 H   0  0  0  0  0  0  0  0  0  0  0  0
    2.3368    0.8096    0.0000 H   0  0  0  0  0  0  0  0  0  0  0  0
    6.6237   -0.8629    0.0000 H   0  0  0  0  0  0  0  0  0  0  0  0
    7.4476   -0.8089    0.0000 H   0  0  0  0  0  0  0  0  0  0  0  0
    3.9612   -2.2229    0.0000 H   0  0  0  0  0  0  0  0  0  0  0  0
    8.2630    2.5964    0.0000 H   0  0  0  0  0  0  0  0  0  0  0  0
    7.5211    2.3017    0.0000 H   0  0  0  0  0  0  0  0  0  0  0  0
    1.7354   -0.2046    0.0000 H   0  0  0  0  0  0  0  0  0  0  0  0
    1.4023   -0.9300    0.0000 H   0  0  0  0  0  0  0  0  0  0  0  0
    8.5994   -0.5073    0.0000 H   0  0  0  0  0  0  0  0  0  0  0  0
    9.3479   -0.2299    0.0000 H   0  0  0  0  0  0  0  0  0  0  0  0
    2.7071   -2.7406    0.0000 H   0  0  0  0  0  0  0  0  0  0  0  0
    3.5007   -2.6540    0.0000 H   0  0  0  0  0  0  0  0  0  0  0  0
    9.7055    1.9730    0.0000 H   0  0  0  0  0  0  0  0  0  0  0  0
    9.0832    2.4730    0.0000 H   0  0  0  0  0  0  0  0  0  0  0  0
    1.4826   -1.7556    0.0000 H   0  0  0  0  0  0  0  0  0  0  0  0
    1.9494   -2.4032    0.0000 H   0  0  0  0  0  0  0  0  0  0  0  0
    9.8748    0.4107    0.0000 H   0  0  0  0  0  0  0  0  0  0  0  0
   10.0028    1.1986    0.0000 H   0  0  0  0  0  0  0  0  0  0  0  0
    4.8805   -2.6189    0.0000 H   0  0  0  0  0  0  0  0  0  0  0  0
 11  1  1  1  0  0  0
  1 44  1  0  0  0  0
  2  6  1  0  0  0  0
  2  9  1  0  0  0  0
  2 13  1  0  0  0  0
  3  7  1  0  0  0  0
  3 10  1  0  0  0  0
  3 14  1  0  0  0  0
  4  6  1  0  0  0  0
  4  8  1  0  0  0  0
  4 10  1  0  0  0  0
  4 19  1  1  0  0  0
  5  7  1  0  0  0  0
  5  8  1  0  0  0  0
  5  9  1  0  0  0  0
  5 20  1  1  0  0  0
  6 11  1  0  0  0  0
  6 21  1  6  0  0  0
  7 12  1  0  0  0  0
  7 22  1  1  0  0  0
  8 23  1  0  0  0  0
  8 24  1  0  0  0  0
  9 25  1  0  0  0  0
  9 26  1  0  0  0  0
 10 27  1  0  0  0  0
 10 28  1  0  0  0  0
 11 15  1  0  0  0  0
 11 29  1  0  0  0  0
 12 16  1  0  0  0  0
 12 30  1  0  0  0  0
 12 31  1  0  0  0  0
 13 17  1  0  0  0  0
 13 32  1  0  0  0  0
 13 33  1  0  0  0  0
 14 18  1  0  0  0  0
 14 34  1  0  0  0  0
 14 35  1  0  0  0  0
 15 17  1  0  0  0  0
 15 36  1  0  0  0  0
 15 37  1  0  0  0  0
 16 18  1  0  0  0  0
 16 38  1  0  0  0  0
 16 39  1  0  0  0  0
 17 40  1  0  0  0  0
 17 41  1  0  0  0  0
 18 42  1  0  0  0  0
 18 43  1  0  0  0  0
M  END
> <PUBCHEM_COMPOUND_CID>
442962

> <PUBCHEM_COMPOUND_CANONICALIZED>
1

> <PUBCHEM_CACTVS_COMPLEXITY>
322

> <PUBCHEM_CACTVS_HBOND_ACCEPTOR>
3

> <PUBCHEM_CACTVS_HBOND_DONOR>
1

> <PUBCHEM_CACTVS_ROTATABLE_BOND>
0

> <PUBCHEM_CACTVS_SUBSKEYS>
AAADceBzIAAAAAAAAAAAAAAAAAAAAAAAAAAsWLFgAAAWAACwAAAAHgAACAAADTzhgAYAAAMAAgAAAAAAAAAAAAAAAAAAAAAIAAACEAIAwAAEQAAEAACQAAGwwPAOAAAAAAAAAAAAAAAAAAAAAAAAAAAAAA==

> <PUBCHEM_IUPAC_INCHI>
InChI=1S/C15H26N2O/c18-14-5-3-7-17-9-11-8-12(15(14)17)10-16-6-2-1-4-13(11)16/h11-15,18H,1-10H2/t11-,12+,13-,14-,15-/m0/s1

> <PUBCHEM_IUPAC_INCHIKEY>
JMXNBIDTNISOTA-AICCOOGYSA-N

> <PUBCHEM_XLOGP3_AA>
1.6

> <PUBCHEM_EXACT_MASS>
250.204513

> <PUBCHEM_MOLECULAR_FORMULA>
C15H26N2O

> <PUBCHEM_MOLECULAR_WEIGHT>
250.37974

> <PUBCHEM_OPENEYE_CAN_SMILES>
C1CCN2CC3CC(C2C1)CN4C3C(CCC4)O

> <PUBCHEM_OPENEYE_ISO_SMILES>
C1CCN2C[C@H]3C[C@H]([C@@H]2C1)CN4[C@@H]3[C@H](CCC4)O

> <PUBCHEM_CACTVS_TPSA>
26.7

> <PUBCHEM_MONOISOTOPIC_WEIGHT>
250.204513

> <PUBCHEM_TOTAL_CHARGE>
0

> <PUBCHEM_HEAVY_ATOM_COUNT>
18

> <PUBCHEM_ATOM_DEF_STEREO_COUNT>
5

> <PUBCHEM_ATOM_UDEF_STEREO_COUNT>
0

> <PUBCHEM_BOND_DEF_STEREO_COUNT>
0

> <PUBCHEM_BOND_UDEF_STEREO_COUNT>
0

> <PUBCHEM_ISOTOPIC_ATOM_COUNT>
0

> <PUBCHEM_COMPONENT_COUNT>
1

> <PUBCHEM_CACTVS_TAUTO_COUNT>
1

> <PUBCHEM_COORDINATE_TYPE>
1
5
255

> <PUBCHEM_BONDANNOTATIONS>
11  1  5
4  19  5
5  20  5
6  21  6
7  22  5

$$$$

