7543
  -OEChem-07051213003D

 29 30  0     0  0  0  0  0  0999 V2000
   -3.6989    2.4922   -0.0644 Cl  0  0  0  0  0  0  0  0  0  0  0  0
    3.6955    2.4929   -0.0653 Cl  0  0  0  0  0  0  0  0  0  0  0  0
   -4.7752   -0.0283   -1.3885 N   0  0  0  0  0  0  0  0  0  0  0  0
    4.7718   -0.0273   -1.3899 N   0  0  0  0  0  0  0  0  0  0  0  0
   -0.0011   -0.7174    1.6369 C   0  0  0  0  0  0  0  0  0  0  0  0
   -1.2512   -0.5278    0.8463 C   0  0  0  0  0  0  0  0  0  0  0  0
    1.2696   -0.5246    0.8339 C   0  0  0  0  0  0  0  0  0  0  0  0
   -1.8368    0.7352    0.7581 C   0  0  0  0  0  0  0  0  0  0  0  0
    1.8344    0.7354    0.7584 C   0  0  0  0  0  0  0  0  0  0  0  0
   -1.8353   -1.6143    0.1949 C   0  0  0  0  0  0  0  0  0  0  0  0
    1.8335   -1.6142    0.1957 C   0  0  0  0  0  0  0  0  0  0  0  0
   -3.0063    0.9116    0.0185 C   0  0  0  0  0  0  0  0  0  0  0  0
    3.0038    0.9120    0.0187 C   0  0  0  0  0  0  0  0  0  0  0  0
   -3.0045   -1.4380   -0.5446 C   0  0  0  0  0  0  0  0  0  0  0  0
    3.0028   -1.4377   -0.5438 C   0  0  0  0  0  0  0  0  0  0  0  0
   -3.5900   -0.1750   -0.6328 C   0  0  0  0  0  0  0  0  0  0  0  0
    3.5881   -0.1747   -0.6322 C   0  0  0  0  0  0  0  0  0  0  0  0
    0.0044   -0.0353    2.4987 H   0  0  0  0  0  0  0  0  0  0  0  0
    0.0044   -1.7167    2.0944 H   0  0  0  0  0  0  0  0  0  0  0  0
   -1.3801    1.5808    1.2676 H   0  0  0  0  0  0  0  0  0  0  0  0
    1.3744    1.5778    1.2686 H   0  0  0  0  0  0  0  0  0  0  0  0
   -1.3903   -2.6040    0.2558 H   0  0  0  0  0  0  0  0  0  0  0  0
    1.3857   -2.6016    0.2592 H   0  0  0  0  0  0  0  0  0  0  0  0
   -3.4489   -2.2938   -1.0467 H   0  0  0  0  0  0  0  0  0  0  0  0
    3.4470   -2.2934   -1.0461 H   0  0  0  0  0  0  0  0  0  0  0  0
   -5.2117    0.8808   -1.4651 H   0  0  0  0  0  0  0  0  0  0  0  0
   -5.1826   -0.8272   -1.8559 H   0  0  0  0  0  0  0  0  0  0  0  0
    5.2107    0.8809   -1.4627 H   0  0  0  0  0  0  0  0  0  0  0  0
    5.1823   -0.8272   -1.8529 H   0  0  0  0  0  0  0  0  0  0  0  0
  1 12  1  0  0  0  0
  2 13  1  0  0  0  0
  3 16  1  0  0  0  0
  3 26  1  0  0  0  0
  3 27  1  0  0  0  0
  4 17  1  0  0  0  0
  4 28  1  0  0  0  0
  4 29  1  0  0  0  0
  5  6  1  0  0  0  0
  5  7  1  0  0  0  0
  5 18  1  0  0  0  0
  5 19  1  0  0  0  0
  6  8  2  0  0  0  0
  6 10  1  0  0  0  0
  7  9  2  0  0  0  0
  7 11  1  0  0  0  0
  8 12  1  0  0  0  0
  8 20  1  0  0  0  0
  9 13  1  0  0  0  0
  9 21  1  0  0  0  0
 10 14  2  0  0  0  0
 10 22  1  0  0  0  0
 11 15  2  0  0  0  0
 11 23  1  0  0  0  0
 12 16  2  0  0  0  0
 13 17  2  0  0  0  0
 14 16  1  0  0  0  0
 14 24  1  0  0  0  0
 15 17  1  0  0  0  0
 15 25  1  0  0  0  0
M  END
> <PUBCHEM_COMPOUND_CID>
7543

> <PUBCHEM_CONFORMER_RMSD>
0.6

> <PUBCHEM_CONFORMER_DIVERSEORDER>
1
4
7
8
10
11
5
6
9
3
2

> <PUBCHEM_MMFF94_PARTIAL_CHARGES>
27
1 -0.18
10 -0.15
11 -0.15
12 0.18
13 0.18
14 -0.15
15 -0.15
16 0.1
17 0.1
2 -0.18
20 0.15
21 0.15
22 0.15
23 0.15
24 0.15
25 0.15
26 0.4
27 0.4
28 0.4
29 0.4
3 -0.9
4 -0.9
5 0.29
6 -0.14
7 -0.14
8 -0.15
9 -0.15

> <PUBCHEM_EFFECTIVE_ROTOR_COUNT>
2

> <PUBCHEM_PHARMACOPHORE_FEATURES>
6
1 3 cation
1 3 donor
1 4 cation
1 4 donor
6 6 8 10 12 14 16 rings
6 7 9 11 13 15 17 rings

> <PUBCHEM_HEAVY_ATOM_COUNT>
17

> <PUBCHEM_ATOM_DEF_STEREO_COUNT>
0

> <PUBCHEM_ATOM_UDEF_STEREO_COUNT>
0

> <PUBCHEM_BOND_DEF_STEREO_COUNT>
0

> <PUBCHEM_BOND_UDEF_STEREO_COUNT>
0

> <PUBCHEM_ISOTOPIC_ATOM_COUNT>
0

> <PUBCHEM_COMPONENT_COUNT>
1

> <PUBCHEM_CACTVS_TAUTO_COUNT>
1

> <PUBCHEM_CONFORMER_ID>
00001D7700000001

> <PUBCHEM_MMFF94_ENERGY>
63.3393

> <PUBCHEM_FEATURE_SELFOVERLAP>
30.446

> <PUBCHEM_SHAPE_FINGERPRINT>
10498660 4 18059867163982366701
11543360 7 18261114041067430343
11715629 250 18343872108005126961
12173636 292 18412269441204465351
12346177 29 5833715634735090075
12363563 72 14923947872500505594
12553582 1 6627466345468936793
12670546 177 18259702285243297957
12707595 3 15791738502717280979
12892183 10 11167938043963828094
13296908 3 14779269725886711731
13464514 151 18272643589174676410
13675066 3 12535348978667326210
13705890 14 17385720284124266538
14123260 362 17561077003728016647
14250199 8 18411413990597438192
14251764 38 18269556040270928996
15239191 94 13840260377416628598
17804303 29 9150632238864887241
1813 80 4823220540951928394
18186145 218 17703506683301778754
193927 3 5039666036678339031
19862831 5 18186801387272355635
200 152 17312819377078203418
20361792 2 14706929531701268563
20645477 70 17167858664903213078
20671657 53 15936410030907966946
20871999 31 18261114093076393353
21713013 43 17676209039679069263
21864079 5 18272374225821676289
22079108 93 17560788966722045969
221357 26 18334295370602118701
22393880 68 18333165068585828614
22646028 28 5328739677712869463
231179 274 17203612583936104998
23402539 116 18273213114949796556
23402655 69 18337667628498764752
23557571 272 17985264071429257115
23559900 14 17968663830094745938
25 1 18130780209270513794
26918003 58 8718539480939359755
3082319 5 18334576853873182987
4028521 119 18202569475221199765
4280585 95 17319838853206668134
4371632 12 6190055564108470200
474 4 17560796606730205020
5161694 15 17967813889803963965
5281201 14 18334569148860031620
633830 44 17845086458046907771
7832392 63 18412262878009270153
90316 7 9295289486822628435
93112 12 18335419066942604218
9981440 41 18056768620072053488

> <PUBCHEM_SHAPE_MULTIPOLES>
343.63
9.17
2.21
1.19
0.03
1.17
-0.06
2.89
4.3
0
0.04
0
-0.18
0

> <PUBCHEM_SHAPE_SELFOVERLAP>
721.01

> <PUBCHEM_SHAPE_VOLUME>
196

> <PUBCHEM_COORDINATE_TYPE>
2
5
10

$$$$

