11096
  -OEChem-07051213003D

 26 27  0     1  0  0  0  0  0999 V2000
   -2.7840    0.2183    0.0003 O   0  0  0  0  0  0  0  0  0  0  0  0
    1.2288   -0.8181    0.0001 N   0  0  0  0  0  0  0  0  0  0  0  0
    0.6152   -0.2455    1.2086 C   0  0  1  0  0  0  0  0  0  0  0  0
    0.6149   -0.2460   -1.2085 C   0  0  2  0  0  0  0  0  0  0  0  0
    0.9661    1.2563    1.2616 C   0  0  0  0  0  0  0  0  0  0  0  0
    0.9659    1.2559   -1.2621 C   0  0  0  0  0  0  0  0  0  0  0  0
    0.5668    2.0195   -0.0003 C   0  0  0  0  0  0  0  0  0  0  0  0
   -0.8988   -0.4931    1.2927 C   0  0  0  0  0  0  0  0  0  0  0  0
   -0.8991   -0.4937   -1.2928 C   0  0  0  0  0  0  0  0  0  0  0  0
   -1.6174   -0.1759    0.0000 C   0  0  0  0  0  0  0  0  0  0  0  0
    1.2415   -2.2776    0.0003 C   0  0  0  0  0  0  0  0  0  0  0  0
    1.0780   -0.6977    2.0961 H   0  0  0  0  0  0  0  0  0  0  0  0
    1.0777   -0.6984   -2.0958 H   0  0  0  0  0  0  0  0  0  0  0  0
    2.0516    1.3573    1.3978 H   0  0  0  0  0  0  0  0  0  0  0  0
    0.5022    1.7258    2.1373 H   0  0  0  0  0  0  0  0  0  0  0  0
    0.5019    1.7251   -2.1378 H   0  0  0  0  0  0  0  0  0  0  0  0
    2.0514    1.3568   -1.3985 H   0  0  0  0  0  0  0  0  0  0  0  0
   -0.5127    2.2049   -0.0002 H   0  0  0  0  0  0  0  0  0  0  0  0
    1.0412    3.0078   -0.0005 H   0  0  0  0  0  0  0  0  0  0  0  0
   -1.3362    0.1145    2.0931 H   0  0  0  0  0  0  0  0  0  0  0  0
   -1.1017   -1.5445    1.5261 H   0  0  0  0  0  0  0  0  0  0  0  0
   -1.1020   -1.5452   -1.5256 H   0  0  0  0  0  0  0  0  0  0  0  0
   -1.3364    0.1136   -2.0933 H   0  0  0  0  0  0  0  0  0  0  0  0
    0.2427   -2.7247    0.0003 H   0  0  0  0  0  0  0  0  0  0  0  0
    1.7800   -2.6528    0.8776 H   0  0  0  0  0  0  0  0  0  0  0  0
    1.7800   -2.6531   -0.8769 H   0  0  0  0  0  0  0  0  0  0  0  0
  1 10  2  0  0  0  0
  2  3  1  0  0  0  0
  2  4  1  0  0  0  0
  2 11  1  0  0  0  0
  3  5  1  0  0  0  0
  3  8  1  0  0  0  0
  3 12  1  0  0  0  0
  4  6  1  0  0  0  0
  4  9  1  0  0  0  0
  4 13  1  0  0  0  0
  5  7  1  0  0  0  0
  5 14  1  0  0  0  0
  5 15  1  0  0  0  0
  6  7  1  0  0  0  0
  6 16  1  0  0  0  0
  6 17  1  0  0  0  0
  7 18  1  0  0  0  0
  7 19  1  0  0  0  0
  8 10  1  0  0  0  0
  8 20  1  0  0  0  0
  8 21  1  0  0  0  0
  9 10  1  0  0  0  0
  9 22  1  0  0  0  0
  9 23  1  0  0  0  0
 11 24  1  0  0  0  0
 11 25  1  0  0  0  0
 11 26  1  0  0  0  0
M  END
> <PUBCHEM_COMPOUND_CID>
11096

> <PUBCHEM_CONFORMER_RMSD>
0.4

> <PUBCHEM_CONFORMER_DIVERSEORDER>
1
3
2

> <PUBCHEM_MMFF94_PARTIAL_CHARGES>
8
1 -0.57
10 0.45
11 0.27
2 -0.81
3 0.27
4 0.27
8 0.06
9 0.06

> <PUBCHEM_EFFECTIVE_ROTOR_COUNT>
1.2

> <PUBCHEM_PHARMACOPHORE_FEATURES>
4
1 1 acceptor
1 2 cation
6 2 3 4 5 6 7 rings
6 2 3 4 8 9 10 rings

> <PUBCHEM_HEAVY_ATOM_COUNT>
11

> <PUBCHEM_ATOM_DEF_STEREO_COUNT>
0

> <PUBCHEM_ATOM_UDEF_STEREO_COUNT>
2

> <PUBCHEM_BOND_DEF_STEREO_COUNT>
0

> <PUBCHEM_BOND_UDEF_STEREO_COUNT>
0

> <PUBCHEM_ISOTOPIC_ATOM_COUNT>
0

> <PUBCHEM_COMPONENT_COUNT>
1

> <PUBCHEM_CACTVS_TAUTO_COUNT>
2

> <PUBCHEM_CONFORMER_ID>
00002B5800000001

> <PUBCHEM_MMFF94_ENERGY>
15.5757

> <PUBCHEM_FEATURE_SELFOVERLAP>
21.858

> <PUBCHEM_SHAPE_FINGERPRINT>
10702982 57 17828503374442066792
12423570 1 15732263870229582892
12725867 57 18266469878334091541
13024252 1 14685481569000703958
137420 1 5033126218403764706
15557651 10 17628355974097623869
16945 1 17257652746911710790
18185500 45 15723840404248829621
21922407 69 17901696806988587615
5084963 1 17682660836260837029

> <PUBCHEM_SHAPE_MULTIPOLES>
215.52
2.08
1.89
1.5
1.48
0.74
0
-0.61
0
-0.9
0
-0.18
-0.11
0

> <PUBCHEM_SHAPE_SELFOVERLAP>
442.802

> <PUBCHEM_SHAPE_VOLUME>
123.9

> <PUBCHEM_COORDINATE_TYPE>
2
5
10

$$$$

