75810
  -OEChem-07051212502D

 18 18  0     0  0  0  0  0  0999 V2000
    4.0778    2.2520    0.0000 O   0  0  0  0  0  0  0  0  0  0  0  0
    2.4955    1.5475    0.0000 O   0  0  0  0  0  0  0  0  0  0  0  0
    2.8090   -1.8184    0.0000 N   0  0  0  0  0  0  0  0  0  0  0  0
    2.3090   -0.2796    0.0000 N   0  0  0  0  0  0  0  0  0  0  0  0
    3.3090   -0.2796    0.0000 C   0  0  0  0  0  0  0  0  0  0  0  0
    3.6180   -1.2306    0.0000 C   0  0  0  0  0  0  0  0  0  0  0  0
    3.8968    0.5294    0.0000 C   0  0  0  0  0  0  0  0  0  0  0  0
    2.0000   -1.2306    0.0000 C   0  0  0  0  0  0  0  0  0  0  0  0
    2.8090   -2.8184    0.0000 C   0  0  0  0  0  0  0  0  0  0  0  0
    3.4901    1.4430    0.0000 C   0  0  0  0  0  0  0  0  0  0  0  0
    4.3275    0.0835    0.0000 H   0  0  0  0  0  0  0  0  0  0  0  0
    4.4108    0.8761    0.0000 H   0  0  0  0  0  0  0  0  0  0  0  0
    4.2077   -1.4222    0.0000 H   0  0  0  0  0  0  0  0  0  0  0  0
    1.4103   -1.4222    0.0000 H   0  0  0  0  0  0  0  0  0  0  0  0
    2.1890   -2.8184    0.0000 H   0  0  0  0  0  0  0  0  0  0  0  0
    2.8090   -3.4384    0.0000 H   0  0  0  0  0  0  0  0  0  0  0  0
    3.4290   -2.8184    0.0000 H   0  0  0  0  0  0  0  0  0  0  0  0
    3.8257    2.8184    0.0000 H   0  0  0  0  0  0  0  0  0  0  0  0
  1 10  1  0  0  0  0
  1 18  1  0  0  0  0
  2 10  2  0  0  0  0
  3  6  1  0  0  0  0
  3  8  1  0  0  0  0
  3  9  1  0  0  0  0
  4  5  1  0  0  0  0
  4  8  2  0  0  0  0
  5  6  2  0  0  0  0
  5  7  1  0  0  0  0
  6 13  1  0  0  0  0
  7 10  1  0  0  0  0
  7 11  1  0  0  0  0
  7 12  1  0  0  0  0
  8 14  1  0  0  0  0
  9 15  1  0  0  0  0
  9 16  1  0  0  0  0
  9 17  1  0  0  0  0
M  END
> <PUBCHEM_COMPOUND_CID>
75810

> <PUBCHEM_COMPOUND_CANONICALIZED>
1

> <PUBCHEM_CACTVS_COMPLEXITY>
138

> <PUBCHEM_CACTVS_HBOND_ACCEPTOR>
3

> <PUBCHEM_CACTVS_HBOND_DONOR>
1

> <PUBCHEM_CACTVS_ROTATABLE_BOND>
2

> <PUBCHEM_CACTVS_SUBSKEYS>
AAADccBjMAAAAAAAAAAAAAAAAAAAAWAAAAAAAAAAAAAAAAABgAAAHgAACAAACAjBlgQvmBcMEgCoART3bAAAgC0xEqABUAE4cAiAaBhAjQAUQAAOQANAQCAkAAAAAAAAAAAAAAAAAAAAAAAAAAAAAAAAAA==

> <PUBCHEM_IUPAC_OPENEYE_NAME>
2-(1-methylimidazol-4-yl)acetic acid

> <PUBCHEM_IUPAC_CAS_NAME>
2-(1-methyl-4-imidazolyl)acetic acid

> <PUBCHEM_IUPAC_NAME>
2-(1-methylimidazol-4-yl)acetic acid

> <PUBCHEM_IUPAC_SYSTEMATIC_NAME>
2-(1-methylimidazol-4-yl)ethanoic acid

> <PUBCHEM_IUPAC_TRADITIONAL_NAME>
2-(1-methylimidazol-4-yl)acetic acid

> <PUBCHEM_IUPAC_INCHI>
InChI=1S/C6H8N2O2/c1-8-3-5(7-4-8)2-6(9)10/h3-4H,2H2,1H3,(H,9,10)

> <PUBCHEM_IUPAC_INCHIKEY>
ZHCKPJGJQOPTLB-UHFFFAOYSA-N

> <PUBCHEM_XLOGP3_AA>
-0.5

> <PUBCHEM_EXACT_MASS>
140.058578

> <PUBCHEM_MOLECULAR_FORMULA>
C6H8N2O2

> <PUBCHEM_MOLECULAR_WEIGHT>
140.13992

> <PUBCHEM_OPENEYE_CAN_SMILES>
CN1C=C(N=C1)CC(=O)O

> <PUBCHEM_OPENEYE_ISO_SMILES>
CN1C=C(N=C1)CC(=O)O

> <PUBCHEM_CACTVS_TPSA>
55.1

> <PUBCHEM_MONOISOTOPIC_WEIGHT>
140.058578

> <PUBCHEM_TOTAL_CHARGE>
0

> <PUBCHEM_HEAVY_ATOM_COUNT>
10

> <PUBCHEM_ATOM_DEF_STEREO_COUNT>
0

> <PUBCHEM_ATOM_UDEF_STEREO_COUNT>
0

> <PUBCHEM_BOND_DEF_STEREO_COUNT>
0

> <PUBCHEM_BOND_UDEF_STEREO_COUNT>
0

> <PUBCHEM_ISOTOPIC_ATOM_COUNT>
0

> <PUBCHEM_COMPONENT_COUNT>
1

> <PUBCHEM_CACTVS_TAUTO_COUNT>
1

> <PUBCHEM_COORDINATE_TYPE>
1
5
255

> <PUBCHEM_BONDANNOTATIONS>
3  6  8
3  8  8
4  5  8
4  8  8
5  6  8

$$$$

