442730
  -OEChem-07051212592D

 65 68  0     1  0  0  0  0  0999 V2000
   10.8000   -0.1985    0.0000 O   0  0  0  0  0  0  0  0  0  0  0  0
    9.9282    1.2981    0.0000 O   0  0  0  0  0  0  0  0  0  0  0  0
   13.3923    1.3115    0.0000 O   0  0  0  0  0  0  0  0  0  0  0  0
   13.4000   -0.6885    0.0000 O   0  0  0  0  0  0  0  0  0  0  0  0
   11.6564    2.3048    0.0000 O   0  0  0  0  0  0  0  0  0  0  0  0
   10.8077   -2.1985    0.0000 O   0  0  0  0  0  0  0  0  0  0  0  0
    8.1465    2.3086    0.0000 O   0  0  0  0  0  0  0  0  0  0  0  0
    6.3981    2.2740    0.0000 O   0  0  0  0  0  0  0  0  0  0  0  0
    6.3981   -1.7260    0.0000 O   0  0  0  0  0  0  0  0  0  0  0  0
    4.6497    2.3086    0.0000 O   0  0  0  0  0  0  0  0  0  0  0  0
    2.8680    1.2981    0.0000 O   0  0  0  0  0  0  0  0  0  0  0  0
    2.8680   -0.7502    0.0000 O   0  0  0  0  0  0  0  0  0  0  0  0
   12.5282    0.8081    0.0000 C   0  0  1  0  0  0  0  0  0  0  0  0
   12.5320   -0.1919    0.0000 C   0  0  1  0  0  0  0  0  0  0  0  0
   11.6602    1.3048    0.0000 C   0  0  2  0  0  0  0  0  0  0  0  0
   11.6679   -0.6952    0.0000 C   0  0  1  0  0  0  0  0  0  0  0  0
   10.7961    0.8014    0.0000 C   0  0  1  0  0  0  0  0  0  0  0  0
   11.6718   -1.6952    0.0000 C   0  0  0  0  0  0  0  0  0  0  0  0
    9.0641    0.7948    0.0000 C   0  0  0  0  0  0  0  0  0  0  0  0
    8.1580    1.3086    0.0000 C   0  0  0  0  0  0  0  0  0  0  0  0
    9.0641   -0.2469    0.0000 C   0  0  0  0  0  0  0  0  0  0  0  0
    7.2641    0.7740    0.0000 C   0  0  0  0  0  0  0  0  0  0  0  0
    7.2641   -0.2260    0.0000 C   0  0  0  0  0  0  0  0  0  0  0  0
    8.1580   -0.7607    0.0000 C   0  0  0  0  0  0  0  0  0  0  0  0
    6.3981    1.2740    0.0000 C   0  0  0  0  0  0  0  0  0  0  0  0
    5.5320    0.7740    0.0000 C   0  0  0  0  0  0  0  0  0  0  0  0
    5.5320   -0.2260    0.0000 C   0  0  0  0  0  0  0  0  0  0  0  0
    6.3981   -0.7260    0.0000 C   0  0  0  0  0  0  0  0  0  0  0  0
    9.9282   -0.7502    0.0000 C   0  0  0  0  0  0  0  0  0  0  0  0
    4.6381    1.3086    0.0000 C   0  0  0  0  0  0  0  0  0  0  0  0
    4.6381   -0.7607    0.0000 C   0  0  0  0  0  0  0  0  0  0  0  0
    3.7320    0.7948    0.0000 C   0  0  0  0  0  0  0  0  0  0  0  0
    3.7320   -0.2469    0.0000 C   0  0  0  0  0  0  0  0  0  0  0  0
    9.0067    2.8185    0.0000 C   0  0  0  0  0  0  0  0  0  0  0  0
    3.7895    2.8185    0.0000 C   0  0  0  0  0  0  0  0  0  0  0  0
    2.0000    0.8014    0.0000 C   0  0  0  0  0  0  0  0  0  0  0  0
    2.8718   -1.7502    0.0000 C   0  0  0  0  0  0  0  0  0  0  0  0
   12.5258    1.4281    0.0000 H   0  0  0  0  0  0  0  0  0  0  0  0
   12.5344   -0.8119    0.0000 H   0  0  0  0  0  0  0  0  0  0  0  0
   12.1960    1.6168    0.0000 H   0  0  0  0  0  0  0  0  0  0  0  0
   11.1322   -1.0073    0.0000 H   0  0  0  0  0  0  0  0  0  0  0  0
   10.7938    1.4214    0.0000 H   0  0  0  0  0  0  0  0  0  0  0  0
   11.8861   -2.2770    0.0000 H   0  0  0  0  0  0  0  0  0  0  0  0
   12.2820   -1.5852    0.0000 H   0  0  0  0  0  0  0  0  0  0  0  0
   13.9304    1.0035    0.0000 H   0  0  0  0  0  0  0  0  0  0  0  0
   13.4024   -1.3085    0.0000 H   0  0  0  0  0  0  0  0  0  0  0  0
   12.1921    2.6168    0.0000 H   0  0  0  0  0  0  0  0  0  0  0  0
    8.1509   -1.3807    0.0000 H   0  0  0  0  0  0  0  0  0  0  0  0
   10.8101   -2.8185    0.0000 H   0  0  0  0  0  0  0  0  0  0  0  0
    9.6161   -1.2859    0.0000 H   0  0  0  0  0  0  0  0  0  0  0  0
   10.4639   -1.0623    0.0000 H   0  0  0  0  0  0  0  0  0  0  0  0
   10.2403   -0.2145    0.0000 H   0  0  0  0  0  0  0  0  0  0  0  0
    4.6453   -1.3807    0.0000 H   0  0  0  0  0  0  0  0  0  0  0  0
    9.3229    2.2852    0.0000 H   0  0  0  0  0  0  0  0  0  0  0  0
    9.5400    3.1347    0.0000 H   0  0  0  0  0  0  0  0  0  0  0  0
    8.6905    3.3518    0.0000 H   0  0  0  0  0  0  0  0  0  0  0  0
    4.1057    3.3518    0.0000 H   0  0  0  0  0  0  0  0  0  0  0  0
    3.2562    3.1347    0.0000 H   0  0  0  0  0  0  0  0  0  0  0  0
    3.4733    2.2852    0.0000 H   0  0  0  0  0  0  0  0  0  0  0  0
    1.6921    1.3396    0.0000 H   0  0  0  0  0  0  0  0  0  0  0  0
    1.4619    0.4935    0.0000 H   0  0  0  0  0  0  0  0  0  0  0  0
    2.3079    0.2633    0.0000 H   0  0  0  0  0  0  0  0  0  0  0  0
    2.2518   -1.7526    0.0000 H   0  0  0  0  0  0  0  0  0  0  0  0
    2.8742   -2.3702    0.0000 H   0  0  0  0  0  0  0  0  0  0  0  0
    3.4918   -1.7478    0.0000 H   0  0  0  0  0  0  0  0  0  0  0  0
  1 16  1  0  0  0  0
  1 17  1  0  0  0  0
 17  2  1  1  0  0  0
  2 19  1  0  0  0  0
 13  3  1  1  0  0  0
  3 45  1  0  0  0  0
 14  4  1  6  0  0  0
  4 46  1  0  0  0  0
 15  5  1  6  0  0  0
  5 47  1  0  0  0  0
  6 18  1  0  0  0  0
  6 49  1  0  0  0  0
  7 20  1  0  0  0  0
  7 34  1  0  0  0  0
  8 25  2  0  0  0  0
  9 28  2  0  0  0  0
 10 30  1  0  0  0  0
 10 35  1  0  0  0  0
 11 32  1  0  0  0  0
 11 36  1  0  0  0  0
 12 33  1  0  0  0  0
 12 37  1  0  0  0  0
 13 14  1  0  0  0  0
 13 15  1  0  0  0  0
 13 38  1  0  0  0  0
 14 16  1  0  0  0  0
 14 39  1  0  0  0  0
 15 17  1  0  0  0  0
 15 40  1  0  0  0  0
 16 18  1  1  0  0  0
 16 41  1  0  0  0  0
 17 42  1  0  0  0  0
 18 43  1  0  0  0  0
 18 44  1  0  0  0  0
 19 20  2  0  0  0  0
 19 21  1  0  0  0  0
 20 22  1  0  0  0  0
 21 24  2  0  0  0  0
 21 29  1  0  0  0  0
 22 23  2  0  0  0  0
 22 25  1  0  0  0  0
 23 24  1  0  0  0  0
 23 28  1  0  0  0  0
 24 48  1  0  0  0  0
 25 26  1  0  0  0  0
 26 27  1  0  0  0  0
 26 30  2  0  0  0  0
 27 28  1  0  0  0  0
 27 31  2  0  0  0  0
 29 50  1  0  0  0  0
 29 51  1  0  0  0  0
 29 52  1  0  0  0  0
 30 32  1  0  0  0  0
 31 33  1  0  0  0  0
 31 53  1  0  0  0  0
 32 33  2  0  0  0  0
 34 54  1  0  0  0  0
 34 55  1  0  0  0  0
 34 56  1  0  0  0  0
 35 57  1  0  0  0  0
 35 58  1  0  0  0  0
 35 59  1  0  0  0  0
 36 60  1  0  0  0  0
 36 61  1  0  0  0  0
 36 62  1  0  0  0  0
 37 63  1  0  0  0  0
 37 64  1  0  0  0  0
 37 65  1  0  0  0  0
M  END
> <PUBCHEM_COMPOUND_CID>
442730

> <PUBCHEM_COMPOUND_CANONICALIZED>
1

> <PUBCHEM_CACTVS_COMPLEXITY>
824

> <PUBCHEM_CACTVS_HBOND_ACCEPTOR>
12

> <PUBCHEM_CACTVS_HBOND_DONOR>
4

> <PUBCHEM_CACTVS_ROTATABLE_BOND>
7

> <PUBCHEM_CACTVS_SUBSKEYS>
AAADceB4PAAAAAAAAAAAAAAAAAAAAAAAAAA0YMEAAAAAAADBQAAAGgAACAAADBSwmAMyDoAABgCIAqBSAAACCAAkIAAAiAEGiMgdNzaENRqieWKl4BUPqYfL7PzO4AADCAAYQADAAAYQADCAAAAAAAAAAA==

> <PUBCHEM_IUPAC_OPENEYE_NAME>
1,2,3,8-tetramethoxy-6-methyl-7-[(2S,3R,4S,5S,6R)-3,4,5-trihydroxy-6-(hydroxymethyl)tetrahydropyran-2-yl]oxy-anthracene-9,10-dione

> <PUBCHEM_IUPAC_CAS_NAME>
1,2,3,8-tetramethoxy-6-methyl-7-[[(2S,3R,4S,5S,6R)-3,4,5-trihydroxy-6-(hydroxymethyl)-2-oxanyl]oxy]anthracene-9,10-dione

> <PUBCHEM_IUPAC_NAME>
1,2,3,8-tetramethoxy-6-methyl-7-[(2S,3R,4S,5S,6R)-3,4,5-trihydroxy-6-(hydroxymethyl)oxan-2-yl]oxyanthracene-9,10-dione

> <PUBCHEM_IUPAC_SYSTEMATIC_NAME>
2-[(2S,3R,4S,5S,6R)-6-(hydroxymethyl)-3,4,5-tris(oxidanyl)oxan-2-yl]oxy-1,6,7,8-tetramethoxy-3-methyl-anthracene-9,10-dione

> <PUBCHEM_IUPAC_TRADITIONAL_NAME>
1,2,3,8-tetramethoxy-6-methyl-7-[(2S,3R,4S,5S,6R)-3,4,5-trihydroxy-6-methylol-tetrahydropyran-2-yl]oxy-9,10-anthraquinone

> <PUBCHEM_IUPAC_INCHI>
InChI=1S/C25H28O12/c1-9-6-10-14(18(29)15-11(16(10)27)7-12(32-2)22(33-3)24(15)35-5)23(34-4)21(9)37-25-20(31)19(30)17(28)13(8-26)36-25/h6-7,13,17,19-20,25-26,28,30-31H,8H2,1-5H3/t13-,17-,19+,20-,25+/m1/s1

> <PUBCHEM_IUPAC_INCHIKEY>
QBFJCZWBSLFTEE-UWBHIVAPSA-N

> <PUBCHEM_XLOGP3_AA>
1

> <PUBCHEM_EXACT_MASS>
520.158076

> <PUBCHEM_MOLECULAR_FORMULA>
C25H28O12

> <PUBCHEM_MOLECULAR_WEIGHT>
520.48262

> <PUBCHEM_OPENEYE_CAN_SMILES>
CC1=C(C(=C2C(=C1)C(=O)C3=CC(=C(C(=C3C2=O)OC)OC)OC)OC)OC4C(C(C(C(O4)CO)O)O)O

> <PUBCHEM_OPENEYE_ISO_SMILES>
CC1=C(C(=C2C(=C1)C(=O)C3=CC(=C(C(=C3C2=O)OC)OC)OC)OC)O[C@H]4[C@@H]([C@H]([C@@H]([C@H](O4)CO)O)O)O

> <PUBCHEM_CACTVS_TPSA>
170

> <PUBCHEM_MONOISOTOPIC_WEIGHT>
520.158076

> <PUBCHEM_TOTAL_CHARGE>
0

> <PUBCHEM_HEAVY_ATOM_COUNT>
37

> <PUBCHEM_ATOM_DEF_STEREO_COUNT>
5

> <PUBCHEM_ATOM_UDEF_STEREO_COUNT>
0

> <PUBCHEM_BOND_DEF_STEREO_COUNT>
0

> <PUBCHEM_BOND_UDEF_STEREO_COUNT>
0

> <PUBCHEM_ISOTOPIC_ATOM_COUNT>
0

> <PUBCHEM_COMPONENT_COUNT>
1

> <PUBCHEM_CACTVS_TAUTO_COUNT>
4

> <PUBCHEM_COORDINATE_TYPE>
1
5
255

> <PUBCHEM_BONDANNOTATIONS>
16  18  5
19  20  8
19  21  8
17  2  5
20  22  8
21  24  8
22  23  8
23  24  8
26  27  8
26  30  8
27  31  8
13  3  5
30  32  8
31  33  8
32  33  8
14  4  6
15  5  6

$$$$

