11709249
  -OEChem-07051213122D

 40 41  0     0  0  0  0  0  0999 V2000
    6.4641    2.5000    0.0000 Cl  0  0  0  0  0  0  0  0  0  0  0  0
    4.7320   -0.5000    0.0000 O   0  0  0  0  0  0  0  0  0  0  0  0
    3.0000   -0.5000    0.0000 N   0  0  0  0  0  0  0  0  0  0  0  0
    3.8660    1.0000    0.0000 N   0  0  0  0  0  0  0  0  0  0  0  0
    3.0000   -1.5000    0.0000 C   0  0  0  0  0  0  0  0  0  0  0  0
    3.0000   -2.5000    0.0000 C   0  0  0  0  0  0  0  0  0  0  0  0
    4.0000   -1.5000    0.0000 C   0  0  0  0  0  0  0  0  0  0  0  0
    2.0000   -1.5000    0.0000 C   0  0  0  0  0  0  0  0  0  0  0  0
    2.1340   -3.0000    0.0000 C   0  0  0  0  0  0  0  0  0  0  0  0
    3.8660   -3.0000    0.0000 C   0  0  0  0  0  0  0  0  0  0  0  0
    3.8660    0.0000    0.0000 C   0  0  0  0  0  0  0  0  0  0  0  0
    4.7320    1.5000    0.0000 C   0  0  0  0  0  0  0  0  0  0  0  0
    2.1340   -4.0000    0.0000 C   0  0  0  0  0  0  0  0  0  0  0  0
    3.8660   -4.0000    0.0000 C   0  0  0  0  0  0  0  0  0  0  0  0
    3.0000   -4.5000    0.0000 C   0  0  0  0  0  0  0  0  0  0  0  0
    4.7320    2.5000    0.0000 C   0  0  0  0  0  0  0  0  0  0  0  0
    5.5981    3.0000    0.0000 C   0  0  0  0  0  0  0  0  0  0  0  0
    3.8660    3.0000    0.0000 C   0  0  0  0  0  0  0  0  0  0  0  0
    5.5981    4.0000    0.0000 C   0  0  0  0  0  0  0  0  0  0  0  0
    3.8660    4.0000    0.0000 C   0  0  0  0  0  0  0  0  0  0  0  0
    4.7320    4.5000    0.0000 C   0  0  0  0  0  0  0  0  0  0  0  0
    2.0000   -0.8800    0.0000 H   0  0  0  0  0  0  0  0  0  0  0  0
    4.0000   -2.1200    0.0000 H   0  0  0  0  0  0  0  0  0  0  0  0
    4.6200   -1.5000    0.0000 H   0  0  0  0  0  0  0  0  0  0  0  0
    4.0000   -0.8800    0.0000 H   0  0  0  0  0  0  0  0  0  0  0  0
    1.3800   -1.5000    0.0000 H   0  0  0  0  0  0  0  0  0  0  0  0
    2.0000   -2.1200    0.0000 H   0  0  0  0  0  0  0  0  0  0  0  0
    2.4631   -0.1900    0.0000 H   0  0  0  0  0  0  0  0  0  0  0  0
    1.5970   -2.6900    0.0000 H   0  0  0  0  0  0  0  0  0  0  0  0
    4.4030   -2.6900    0.0000 H   0  0  0  0  0  0  0  0  0  0  0  0
    3.3291    1.3100    0.0000 H   0  0  0  0  0  0  0  0  0  0  0  0
    4.9441    0.9174    0.0000 H   0  0  0  0  0  0  0  0  0  0  0  0
    5.3426    1.6077    0.0000 H   0  0  0  0  0  0  0  0  0  0  0  0
    1.5970   -4.3100    0.0000 H   0  0  0  0  0  0  0  0  0  0  0  0
    4.4030   -4.3100    0.0000 H   0  0  0  0  0  0  0  0  0  0  0  0
    3.0000   -5.1200    0.0000 H   0  0  0  0  0  0  0  0  0  0  0  0
    3.3291    2.6900    0.0000 H   0  0  0  0  0  0  0  0  0  0  0  0
    6.1350    4.3100    0.0000 H   0  0  0  0  0  0  0  0  0  0  0  0
    3.3291    4.3100    0.0000 H   0  0  0  0  0  0  0  0  0  0  0  0
    4.7320    5.1200    0.0000 H   0  0  0  0  0  0  0  0  0  0  0  0
  1 17  1  0  0  0  0
  2 11  2  0  0  0  0
  3  5  1  0  0  0  0
  3 11  1  0  0  0  0
  3 28  1  0  0  0  0
  4 11  1  0  0  0  0
  4 12  1  0  0  0  0
  4 31  1  0  0  0  0
  5  6  1  0  0  0  0
  5  7  1  0  0  0  0
  5  8  1  0  0  0  0
  6  9  2  0  0  0  0
  6 10  1  0  0  0  0
  7 23  1  0  0  0  0
  7 24  1  0  0  0  0
  7 25  1  0  0  0  0
  8 22  1  0  0  0  0
  8 26  1  0  0  0  0
  8 27  1  0  0  0  0
  9 13  1  0  0  0  0
  9 29  1  0  0  0  0
 10 14  2  0  0  0  0
 10 30  1  0  0  0  0
 12 16  1  0  0  0  0
 12 32  1  0  0  0  0
 12 33  1  0  0  0  0
 13 15  2  0  0  0  0
 13 34  1  0  0  0  0
 14 15  1  0  0  0  0
 14 35  1  0  0  0  0
 15 36  1  0  0  0  0
 16 17  1  0  0  0  0
 16 18  2  0  0  0  0
 17 19  2  0  0  0  0
 18 20  1  0  0  0  0
 18 37  1  0  0  0  0
 19 21  1  0  0  0  0
 19 38  1  0  0  0  0
 20 21  2  0  0  0  0
 20 39  1  0  0  0  0
 21 40  1  0  0  0  0
M  END
> <PUBCHEM_COMPOUND_CID>
11709249

> <PUBCHEM_COMPOUND_CANONICALIZED>
1

> <PUBCHEM_CACTVS_COMPLEXITY>
340

> <PUBCHEM_CACTVS_HBOND_ACCEPTOR>
1

> <PUBCHEM_CACTVS_HBOND_DONOR>
2

> <PUBCHEM_CACTVS_ROTATABLE_BOND>
4

> <PUBCHEM_CACTVS_SUBSKEYS>
AAADceB7IAAEAAAAAAAAAAAAAAAAAAAAAAAwYAAAAAAAAAABQAAAHgIQAAAADIrBGCQzAILAAACIAiBCEACCAAAgBQAIiIAIBoiIICKBkxGEIAholgIIiAcQgMAOgAAAAAABAAAAAAAAAAIAAAAAAAAAAA==

> <PUBCHEM_IUPAC_OPENEYE_NAME>
1-[(2-chlorophenyl)methyl]-3-(1-methyl-1-phenyl-ethyl)urea

> <PUBCHEM_IUPAC_CAS_NAME>
1-[(2-chlorophenyl)methyl]-3-(2-phenylpropan-2-yl)urea

> <PUBCHEM_IUPAC_NAME>
1-[(2-chlorophenyl)methyl]-3-(2-phenylpropan-2-yl)urea

> <PUBCHEM_IUPAC_SYSTEMATIC_NAME>
1-[(2-chlorophenyl)methyl]-3-(2-phenylpropan-2-yl)urea

> <PUBCHEM_IUPAC_TRADITIONAL_NAME>
1-(2-chlorobenzyl)-3-cumyl-urea

> <PUBCHEM_IUPAC_INCHI>
InChI=1S/C17H19ClN2O/c1-17(2,14-9-4-3-5-10-14)20-16(21)19-12-13-8-6-7-11-15(13)18/h3-11H,12H2,1-2H3,(H2,19,20,21)

> <PUBCHEM_IUPAC_INCHIKEY>
VYNOULHXXDFBLU-UHFFFAOYSA-N

> <PUBCHEM_XLOGP3_AA>
3.6

> <PUBCHEM_EXACT_MASS>
302.118591

> <PUBCHEM_MOLECULAR_FORMULA>
C17H19ClN2O

> <PUBCHEM_MOLECULAR_WEIGHT>
302.79856

> <PUBCHEM_OPENEYE_CAN_SMILES>
CC(C)(C1=CC=CC=C1)NC(=O)NCC2=CC=CC=C2Cl

> <PUBCHEM_OPENEYE_ISO_SMILES>
CC(C)(C1=CC=CC=C1)NC(=O)NCC2=CC=CC=C2Cl

> <PUBCHEM_CACTVS_TPSA>
41.1

> <PUBCHEM_MONOISOTOPIC_WEIGHT>
302.118591

> <PUBCHEM_TOTAL_CHARGE>
0

> <PUBCHEM_HEAVY_ATOM_COUNT>
21

> <PUBCHEM_ATOM_DEF_STEREO_COUNT>
0

> <PUBCHEM_ATOM_UDEF_STEREO_COUNT>
0

> <PUBCHEM_BOND_DEF_STEREO_COUNT>
0

> <PUBCHEM_BOND_UDEF_STEREO_COUNT>
0

> <PUBCHEM_ISOTOPIC_ATOM_COUNT>
0

> <PUBCHEM_COMPONENT_COUNT>
1

> <PUBCHEM_CACTVS_TAUTO_COUNT>
3

> <PUBCHEM_COORDINATE_TYPE>
1
5
255

> <PUBCHEM_BONDANNOTATIONS>
10  14  8
13  15  8
14  15  8
16  17  8
16  18  8
17  19  8
18  20  8
19  21  8
20  21  8
6  10  8
6  9  8
9  13  8

$$$$

