5283167
  -OEChem-07051213063D

 55 54  0     1  0  0  0  0  0999 V2000
    2.4723   -2.3977    2.9361 O   0  0  0  0  0  0  0  0  0  0  0  0
   -4.2449    2.3592    1.2393 O   0  0  0  0  0  0  0  0  0  0  0  0
   -2.1563    1.4582    1.1144 O   0  0  0  0  0  0  0  0  0  0  0  0
    1.6697    1.1453   -2.2955 C   0  0  0  0  0  0  0  0  0  0  0  0
    1.0292   -0.0366   -3.0289 C   0  0  0  0  0  0  0  0  0  0  0  0
    0.5991    2.0552   -1.6885 C   0  0  0  0  0  0  0  0  0  0  0  0
    2.0405   -1.0058   -3.6434 C   0  0  0  0  0  0  0  0  0  0  0  0
    1.2056    3.2386   -0.9883 C   0  0  0  0  0  0  0  0  0  0  0  0
    1.4053   -2.1996   -4.3378 C   0  0  0  0  0  0  0  0  0  0  0  0
    1.5621    3.2141    0.3055 C   0  0  0  0  0  0  0  0  0  0  0  0
    1.4455    2.0783    1.2838 C   0  0  0  0  0  0  0  0  0  0  0  0
    2.5631   -0.7144    1.2192 C   0  0  0  0  0  0  0  0  0  0  0  0
    1.6524   -1.5634    2.1144 C   0  0  1  0  0  0  0  0  0  0  0  0
   -3.0712   -0.3895   -0.8748 C   0  0  0  0  0  0  0  0  0  0  0  0
   -3.2780   -1.4356    0.2221 C   0  0  0  0  0  0  0  0  0  0  0  0
    3.2054    0.4270    1.9526 C   0  0  0  0  0  0  0  0  0  0  0  0
    2.7102    1.6732    1.9836 C   0  0  0  0  0  0  0  0  0  0  0  0
   -3.8005    0.9174   -0.5778 C   0  0  0  0  0  0  0  0  0  0  0  0
    0.7519   -2.4727    1.3267 C   0  0  0  0  0  0  0  0  0  0  0  0
   -2.6131   -2.7355   -0.1306 C   0  0  0  0  0  0  0  0  0  0  0  0
   -0.5045   -2.1575    0.9785 C   0  0  0  0  0  0  0  0  0  0  0  0
   -1.3562   -3.0452    0.2203 C   0  0  0  0  0  0  0  0  0  0  0  0
   -3.2875    1.5871    0.6690 C   0  0  0  0  0  0  0  0  0  0  0  0
    2.3509    0.7782   -1.5217 H   0  0  0  0  0  0  0  0  0  0  0  0
    2.2813    1.7180   -3.0042 H   0  0  0  0  0  0  0  0  0  0  0  0
    0.3926   -0.5898   -2.3266 H   0  0  0  0  0  0  0  0  0  0  0  0
    0.3703    0.3417   -3.8203 H   0  0  0  0  0  0  0  0  0  0  0  0
   -0.0550    2.4347   -2.4839 H   0  0  0  0  0  0  0  0  0  0  0  0
   -0.0574    1.4866   -1.0219 H   0  0  0  0  0  0  0  0  0  0  0  0
    2.7113   -1.3730   -2.8573 H   0  0  0  0  0  0  0  0  0  0  0  0
    2.6649   -0.4663   -4.3655 H   0  0  0  0  0  0  0  0  0  0  0  0
    1.3671    4.1429   -1.5682 H   0  0  0  0  0  0  0  0  0  0  0  0
    2.1776   -2.8532   -4.7549 H   0  0  0  0  0  0  0  0  0  0  0  0
    0.8053   -2.7856   -3.6343 H   0  0  0  0  0  0  0  0  0  0  0  0
    0.7548   -1.8739   -5.1556 H   0  0  0  0  0  0  0  0  0  0  0  0
    1.9859    4.1326    0.7104 H   0  0  0  0  0  0  0  0  0  0  0  0
    2.0203   -0.3726    0.3355 H   0  0  0  0  0  0  0  0  0  0  0  0
    3.3776   -1.3391    0.8268 H   0  0  0  0  0  0  0  0  0  0  0  0
    0.7679    2.4328    2.0741 H   0  0  0  0  0  0  0  0  0  0  0  0
    0.9108    1.2335    0.8509 H   0  0  0  0  0  0  0  0  0  0  0  0
    1.0501   -0.9316    2.7790 H   0  0  0  0  0  0  0  0  0  0  0  0
   -3.4364   -0.7824   -1.8322 H   0  0  0  0  0  0  0  0  0  0  0  0
   -2.0001   -0.1914   -1.0052 H   0  0  0  0  0  0  0  0  0  0  0  0
   -2.9729   -1.0705    1.2068 H   0  0  0  0  0  0  0  0  0  0  0  0
   -4.3528   -1.6372    0.3235 H   0  0  0  0  0  0  0  0  0  0  0  0
    4.1178    0.2150    2.5039 H   0  0  0  0  0  0  0  0  0  0  0  0
    3.2372    2.4318    2.5565 H   0  0  0  0  0  0  0  0  0  0  0  0
   -3.6718    1.6164   -1.4109 H   0  0  0  0  0  0  0  0  0  0  0  0
   -4.8713    0.7144   -0.4618 H   0  0  0  0  0  0  0  0  0  0  0  0
    1.1707   -3.4275    1.0138 H   0  0  0  0  0  0  0  0  0  0  0  0
   -3.1863   -3.4493   -0.7163 H   0  0  0  0  0  0  0  0  0  0  0  0
   -0.8787   -1.1864    1.2830 H   0  0  0  0  0  0  0  0  0  0  0  0
   -0.9502   -4.0066   -0.0825 H   0  0  0  0  0  0  0  0  0  0  0  0
    2.9899   -1.8188    3.5209 H   0  0  0  0  0  0  0  0  0  0  0  0
   -3.9218    2.8017    2.0529 H   0  0  0  0  0  0  0  0  0  0  0  0
  1 13  1  0  0  0  0
  1 54  1  0  0  0  0
  2 23  1  0  0  0  0
  2 55  1  0  0  0  0
  3 23  2  0  0  0  0
  4  5  1  0  0  0  0
  4  6  1  0  0  0  0
  4 24  1  0  0  0  0
  4 25  1  0  0  0  0
  5  7  1  0  0  0  0
  5 26  1  0  0  0  0
  5 27  1  0  0  0  0
  6  8  1  0  0  0  0
  6 28  1  0  0  0  0
  6 29  1  0  0  0  0
  7  9  1  0  0  0  0
  7 30  1  0  0  0  0
  7 31  1  0  0  0  0
  8 10  2  0  0  0  0
  8 32  1  0  0  0  0
  9 33  1  0  0  0  0
  9 34  1  0  0  0  0
  9 35  1  0  0  0  0
 10 11  1  0  0  0  0
 10 36  1  0  0  0  0
 11 17  1  0  0  0  0
 11 39  1  0  0  0  0
 11 40  1  0  0  0  0
 12 13  1  0  0  0  0
 12 16  1  0  0  0  0
 12 37  1  0  0  0  0
 12 38  1  0  0  0  0
 13 19  1  0  0  0  0
 13 41  1  0  0  0  0
 14 15  1  0  0  0  0
 14 18  1  0  0  0  0
 14 42  1  0  0  0  0
 14 43  1  0  0  0  0
 15 20  1  0  0  0  0
 15 44  1  0  0  0  0
 15 45  1  0  0  0  0
 16 17  2  0  0  0  0
 16 46  1  0  0  0  0
 17 47  1  0  0  0  0
 18 23  1  0  0  0  0
 18 48  1  0  0  0  0
 18 49  1  0  0  0  0
 19 21  2  0  0  0  0
 19 50  1  0  0  0  0
 20 22  2  0  0  0  0
 20 51  1  0  0  0  0
 21 22  1  0  0  0  0
 21 52  1  0  0  0  0
 22 53  1  0  0  0  0
M  END
> <PUBCHEM_COMPOUND_CID>
5283167

> <PUBCHEM_CONFORMER_RMSD>
1.2

> <PUBCHEM_CONFORMER_DIVERSEORDER>
3
200
133
187
138
204
36
4
94
129
16
101
113
105
75
152
158
93
146
137
206
49
149
84
163
26
97
83
62
117
2
18
72
77
95
121
198
199
168
58
9
182
169
175
188
7
178
32
67
102
8
89
185
56
203
86
191
78
195
179
155
123
25
51
144
69
31
112
6
54
145
201
189
104
124
151
59
40
140
99
5
70
88
55
171
12
85
22
150
92
61
17
116
134
167
165
80
107
81
157
21
71
119
96
73
194
76
205
39
174
154
11
127
98
74
193
128
37
19
20
161
202
132
57
91
142
48
87
177
38
197
122
147
130
35
125
23
208
106
170
192
47
153
53
1
148
64
79
184
30
120
111
34
115
160
164
136
103
50
131
114
183
68
126
14
66
108
42
24
44
196
162
27
173
181
110
186
52
10
156
82
45
159
190
13
139
60
109
90
29
141
118
41
43
65
15
143
28
166
135
172
46
180
63
176
33
207
100

> <PUBCHEM_MMFF94_PARTIAL_CHARGES>
28
1 -0.68
10 -0.29
11 0.28
12 0.14
13 0.42
15 0.14
16 -0.29
17 -0.29
18 0.06
19 -0.29
2 -0.65
20 -0.29
21 -0.15
22 -0.15
23 0.66
3 -0.57
32 0.15
36 0.15
46 0.15
47 0.15
50 0.15
51 0.15
52 0.15
53 0.15
54 0.4
55 0.5
6 0.14
8 -0.29

> <PUBCHEM_EFFECTIVE_ROTOR_COUNT>
14

> <PUBCHEM_PHARMACOPHORE_FEATURES>
8
1 1 acceptor
1 1 donor
1 2 acceptor
1 3 acceptor
1 9 hydrophobe
3 2 3 23 anion
4 14 15 18 20 hydrophobe
5 4 5 6 7 8 hydrophobe

> <PUBCHEM_HEAVY_ATOM_COUNT>
23

> <PUBCHEM_ATOM_DEF_STEREO_COUNT>
1

> <PUBCHEM_ATOM_UDEF_STEREO_COUNT>
0

> <PUBCHEM_BOND_DEF_STEREO_COUNT>
4

> <PUBCHEM_BOND_UDEF_STEREO_COUNT>
0

> <PUBCHEM_ISOTOPIC_ATOM_COUNT>
0

> <PUBCHEM_COMPONENT_COUNT>
1

> <PUBCHEM_CACTVS_TAUTO_COUNT>
1

> <PUBCHEM_CONFORMER_ID>
00509D5F00000003

> <PUBCHEM_MMFF94_ENERGY>
14.8915

> <PUBCHEM_FEATURE_SELFOVERLAP>
40.651

> <PUBCHEM_SHAPE_FINGERPRINT>
10708813 3 18199487500989070761
11427363 43 17029893173836332150
12539773 59 17465716343092331709
133893 2 15840989940831139407
14251757 17 17832377112662100556
19930381 70 15455681947986195305
20600515 1 18118671352127893420
23419403 2 14857245127844543032
25265897 201 17460885244066976127
35225 105 17546180601041104581
539174 4 16914545337422797126
550186 7 16972215689089699012

> <PUBCHEM_SHAPE_MULTIPOLES>
455.72
6
4.41
4.13
5.51
0.66
3.97
2.5
-1.99
0.58
-0.01
-4.62
-3.65
-0.02

> <PUBCHEM_SHAPE_SELFOVERLAP>
863.84

> <PUBCHEM_SHAPE_VOLUME>
278.8

> <PUBCHEM_COORDINATE_TYPE>
2
5
10

$$$$

