6599
  -OEChem-06261201243D

 13 12  0     0  0  0  0  0  0999 V2000
    1.4881   -1.5310   -0.0020 S   0  0  0  0  0  0  0  0  0  0  0  0
    1.6480    1.4222    0.0108 S   0  0  0  0  0  0  0  0  0  0  0  0
   -0.7353    0.0245   -0.0128 N   0  0  0  0  0  0  0  0  0  0  0  0
   -1.5444    1.2462   -0.0012 C   0  0  0  0  0  0  0  0  0  0  0  0
   -1.5293   -1.2075    0.0134 C   0  0  0  0  0  0  0  0  0  0  0  0
    0.6729    0.0455   -0.0081 C   0  0  0  0  0  0  0  0  0  0  0  0
   -2.1543    1.2479    0.9077 H   0  0  0  0  0  0  0  0  0  0  0  0
   -2.1995    1.2367   -0.8781 H   0  0  0  0  0  0  0  0  0  0  0  0
   -0.9564    2.1634   -0.0242 H   0  0  0  0  0  0  0  0  0  0  0  0
   -1.3780   -1.7042    0.9763 H   0  0  0  0  0  0  0  0  0  0  0  0
   -1.2123   -1.8700   -0.7967 H   0  0  0  0  0  0  0  0  0  0  0  0
   -2.5935   -0.9873   -0.1140 H   0  0  0  0  0  0  0  0  0  0  0  0
    2.7435   -1.0598    0.0094 H   0  0  0  0  0  0  0  0  0  0  0  0
  1  6  1  0  0  0  0
  1 13  1  0  0  0  0
  2  6  2  0  0  0  0
  3  4  1  0  0  0  0
  3  5  1  0  0  0  0
  3  6  1  0  0  0  0
  4  7  1  0  0  0  0
  4  8  1  0  0  0  0
  4  9  1  0  0  0  0
  5 10  1  0  0  0  0
  5 11  1  0  0  0  0
  5 12  1  0  0  0  0
M  END
> <PUBCHEM_COMPOUND_CID>
6599

> <PUBCHEM_CONFORMER_RMSD>
0.4

> <PUBCHEM_CONFORMER_DIVERSEORDER>
1
2

> <PUBCHEM_MMFF94_PARTIAL_CHARGES>
7
1 -0.32
13 0.18
2 -0.38
3 -0.66
4 0.3
5 0.3
6 0.58

> <PUBCHEM_EFFECTIVE_ROTOR_COUNT>
1

> <PUBCHEM_PHARMACOPHORE_FEATURES>
2
1 2 acceptor
3 1 2 6 anion

> <PUBCHEM_HEAVY_ATOM_COUNT>
6

> <PUBCHEM_ATOM_DEF_STEREO_COUNT>
0

> <PUBCHEM_ATOM_UDEF_STEREO_COUNT>
0

> <PUBCHEM_BOND_DEF_STEREO_COUNT>
0

> <PUBCHEM_BOND_UDEF_STEREO_COUNT>
0

> <PUBCHEM_ISOTOPIC_ATOM_COUNT>
0

> <PUBCHEM_COMPONENT_COUNT>
1

> <PUBCHEM_CACTVS_TAUTO_COUNT>
1

> <PUBCHEM_CONFORMER_ID>
000019C700000001

> <PUBCHEM_MMFF94_ENERGY>
17.4861

> <PUBCHEM_FEATURE_SELFOVERLAP>
10.148

> <PUBCHEM_SHAPE_FINGERPRINT>
139733 1 9294127259644111046
16714656 1 17762052142938978804
20096714 4 18410853308349799856
21040471 1 18338797926257011077
23552423 10 18342736303961722126
24536 1 18339096941842943016
29004967 10 17982726381544252123

> <PUBCHEM_SHAPE_MULTIPOLES>
126.2
2.48
1.97
0.63
0.21
0.11
0
-0.13
0.01
-0.45
0.01
-0.05
0
0.01

> <PUBCHEM_SHAPE_SELFOVERLAP>
204.805

> <PUBCHEM_SHAPE_VOLUME>
90.1

> <PUBCHEM_COORDINATE_TYPE>
2
5
10

$$$$

