164672
  -OEChem-07051213102D

 68 71  0     1  0  0  0  0  0999 V2000
    5.6591    1.4774    0.0000 O   0  0  0  0  0  0  0  0  0  0  0  0
    6.5469   -3.0540    0.0000 O   0  0  0  0  0  0  0  0  0  0  0  0
   10.3604    3.5462    0.0000 O   0  0  0  0  0  0  0  0  0  0  0  0
   10.7175    1.8513    0.0000 O   0  0  0  0  0  0  0  0  0  0  0  0
    6.5251   -0.0226    0.0000 C   0  0  1  0  0  0  0  0  0  0  0  0
    6.5251   -1.0226    0.0000 C   0  0  2  0  0  0  0  0  0  0  0  0
    5.6591   -1.5226    0.0000 C   0  0  1  0  0  0  0  0  0  0  0  0
    4.7931   -1.0226    0.0000 C   0  0  1  0  0  0  0  0  0  0  0  0
    3.8831   -1.5294    0.0000 C   0  0  2  0  0  0  0  0  0  0  0  0
    7.4714    0.2821    0.0000 C   0  0  2  0  0  0  0  0  0  0  0  0
    5.6591    0.4774    0.0000 C   0  0  2  0  0  0  0  0  0  0  0  0
    4.7931   -0.0226    0.0000 C   0  0  0  0  0  0  0  0  0  0  0  0
    3.8751   -2.5710    0.0000 C   0  0  2  0  0  0  0  0  0  0  0  0
    7.4714   -1.3273    0.0000 C   0  0  0  0  0  0  0  0  0  0  0  0
    5.6752   -2.5641    0.0000 C   0  0  1  0  0  0  0  0  0  0  0  0
    8.0550   -0.5226    0.0000 C   0  0  0  0  0  0  0  0  0  0  0  0
    4.7771   -3.0918    0.0000 C   0  0  0  0  0  0  0  0  0  0  0  0
    2.9562   -0.9653    0.0000 C   0  0  0  0  0  0  0  0  0  0  0  0
    6.5251    0.9774    0.0000 C   0  0  0  0  0  0  0  0  0  0  0  0
    7.7820    1.2327    0.0000 C   0  0  1  0  0  0  0  0  0  0  0  0
    2.9396   -3.1208    0.0000 C   0  0  0  0  0  0  0  0  0  0  0  0
    3.8908   -0.5295    0.0000 C   0  0  0  0  0  0  0  0  0  0  0  0
    2.0084   -1.4933    0.0000 C   0  0  0  0  0  0  0  0  0  0  0  0
    2.0000   -2.5783    0.0000 C   0  0  0  0  0  0  0  0  0  0  0  0
    8.7605    1.4389    0.0000 C   0  0  0  0  0  0  0  0  0  0  0  0
    7.1142    1.9770    0.0000 C   0  0  0  0  0  0  0  0  0  0  0  0
    9.0712    2.3894    0.0000 C   0  0  0  0  0  0  0  0  0  0  0  0
   10.0497    2.5956    0.0000 C   0  0  0  0  0  0  0  0  0  0  0  0
    6.6151   -1.8678    0.0000 H   0  0  0  0  0  0  0  0  0  0  0  0
    6.3985   -1.9419    0.0000 H   0  0  0  0  0  0  0  0  0  0  0  0
    5.5292   -0.5976    0.0000 H   0  0  0  0  0  0  0  0  0  0  0  0
    8.3111    0.4140    0.0000 H   0  0  0  0  0  0  0  0  0  0  0  0
    6.1960    0.7874    0.0000 H   0  0  0  0  0  0  0  0  0  0  0  0
    4.5810    0.5600    0.0000 H   0  0  0  0  0  0  0  0  0  0  0  0
    4.1825   -0.1302    0.0000 H   0  0  0  0  0  0  0  0  0  0  0  0
    3.8783   -3.4210    0.0000 H   0  0  0  0  0  0  0  0  0  0  0  0
    7.2203   -1.8942    0.0000 H   0  0  0  0  0  0  0  0  0  0  0  0
    8.0087   -1.6365    0.0000 H   0  0  0  0  0  0  0  0  0  0  0  0
    6.2079   -2.2469    0.0000 H   0  0  0  0  0  0  0  0  0  0  0  0
    8.5158   -0.9373    0.0000 H   0  0  0  0  0  0  0  0  0  0  0  0
    8.5158   -0.1079    0.0000 H   0  0  0  0  0  0  0  0  0  0  0  0
    4.3798   -3.5678    0.0000 H   0  0  0  0  0  0  0  0  0  0  0  0
    5.1781   -3.5647    0.0000 H   0  0  0  0  0  0  0  0  0  0  0  0
    3.3645   -0.4987    0.0000 H   0  0  0  0  0  0  0  0  0  0  0  0
    2.5663   -0.4833    0.0000 H   0  0  0  0  0  0  0  0  0  0  0  0
    7.1451    0.9774    0.0000 H   0  0  0  0  0  0  0  0  0  0  0  0
    6.5251    1.5974    0.0000 H   0  0  0  0  0  0  0  0  0  0  0  0
    5.9051    0.9774    0.0000 H   0  0  0  0  0  0  0  0  0  0  0  0
    7.9746    1.8220    0.0000 H   0  0  0  0  0  0  0  0  0  0  0  0
    2.5423   -3.5967    0.0000 H   0  0  0  0  0  0  0  0  0  0  0  0
    3.3406   -3.5936    0.0000 H   0  0  0  0  0  0  0  0  0  0  0  0
    4.5108   -0.5342    0.0000 H   0  0  0  0  0  0  0  0  0  0  0  0
    3.8956    0.0905    0.0000 H   0  0  0  0  0  0  0  0  0  0  0  0
    3.2708   -0.5247    0.0000 H   0  0  0  0  0  0  0  0  0  0  0  0
    1.8038   -0.9080    0.0000 H   0  0  0  0  0  0  0  0  0  0  0  0
    1.3967   -1.5947    0.0000 H   0  0  0  0  0  0  0  0  0  0  0  0
    1.3900   -2.4675    0.0000 H   0  0  0  0  0  0  0  0  0  0  0  0
    1.7864   -3.1603    0.0000 H   0  0  0  0  0  0  0  0  0  0  0  0
    5.1222    1.7874    0.0000 H   0  0  0  0  0  0  0  0  0  0  0  0
    8.7811    0.8192    0.0000 H   0  0  0  0  0  0  0  0  0  0  0  0
    9.3743    1.3515    0.0000 H   0  0  0  0  0  0  0  0  0  0  0  0
    6.5541   -3.6740    0.0000 H   0  0  0  0  0  0  0  0  0  0  0  0
    7.5756    2.3910    0.0000 H   0  0  0  0  0  0  0  0  0  0  0  0
    6.7001    2.4384    0.0000 H   0  0  0  0  0  0  0  0  0  0  0  0
    6.6527    1.5629    0.0000 H   0  0  0  0  0  0  0  0  0  0  0  0
    9.0506    3.0091    0.0000 H   0  0  0  0  0  0  0  0  0  0  0  0
    8.4574    2.4768    0.0000 H   0  0  0  0  0  0  0  0  0  0  0  0
   10.9670    3.6740    0.0000 H   0  0  0  0  0  0  0  0  0  0  0  0
 11  1  1  6  0  0  0
  1 59  1  0  0  0  0
 15  2  1  6  0  0  0
  2 62  1  0  0  0  0
  3 28  1  0  0  0  0
  3 68  1  0  0  0  0
  4 28  2  0  0  0  0
  5  6  1  0  0  0  0
  5 10  1  0  0  0  0
  5 11  1  0  0  0  0
  5 19  1  1  0  0  0
  6  7  1  0  0  0  0
  6 14  1  0  0  0  0
  6 29  1  6  0  0  0
  7  8  1  0  0  0  0
  7 15  1  0  0  0  0
  7 30  1  1  0  0  0
  8  9  1  0  0  0  0
  8 12  1  0  0  0  0
  8 31  1  6  0  0  0
  9 13  1  0  0  0  0
  9 18  1  0  0  0  0
  9 22  1  1  0  0  0
 10 16  1  0  0  0  0
 10 20  1  0  0  0  0
 10 32  1  6  0  0  0
 11 12  1  0  0  0  0
 11 33  1  0  0  0  0
 12 34  1  0  0  0  0
 12 35  1  0  0  0  0
 13 17  1  0  0  0  0
 13 21  1  0  0  0  0
 13 36  1  1  0  0  0
 14 16  1  0  0  0  0
 14 37  1  0  0  0  0
 14 38  1  0  0  0  0
 15 17  1  0  0  0  0
 15 39  1  0  0  0  0
 16 40  1  0  0  0  0
 16 41  1  0  0  0  0
 17 42  1  0  0  0  0
 17 43  1  0  0  0  0
 18 23  1  0  0  0  0
 18 44  1  0  0  0  0
 18 45  1  0  0  0  0
 19 46  1  0  0  0  0
 19 47  1  0  0  0  0
 19 48  1  0  0  0  0
 20 25  1  0  0  0  0
 20 26  1  6  0  0  0
 20 49  1  0  0  0  0
 21 24  1  0  0  0  0
 21 50  1  0  0  0  0
 21 51  1  0  0  0  0
 22 52  1  0  0  0  0
 22 53  1  0  0  0  0
 22 54  1  0  0  0  0
 23 24  1  0  0  0  0
 23 55  1  0  0  0  0
 23 56  1  0  0  0  0
 24 57  1  0  0  0  0
 24 58  1  0  0  0  0
 25 27  1  0  0  0  0
 25 60  1  0  0  0  0
 25 61  1  0  0  0  0
 26 63  1  0  0  0  0
 26 64  1  0  0  0  0
 26 65  1  0  0  0  0
 27 28  1  0  0  0  0
 27 66  1  0  0  0  0
 27 67  1  0  0  0  0
M  END
> <PUBCHEM_COMPOUND_CID>
164672

> <PUBCHEM_COMPOUND_CANONICALIZED>
1

> <PUBCHEM_CACTVS_COMPLEXITY>
605

> <PUBCHEM_CACTVS_HBOND_ACCEPTOR>
4

> <PUBCHEM_CACTVS_HBOND_DONOR>
3

> <PUBCHEM_CACTVS_ROTATABLE_BOND>
4

> <PUBCHEM_CACTVS_SUBSKEYS>
AAADcfB4OAAAAAAAAAAAAAAAAAAAAYAAAAAwYMAAAAAAAGDAAAAAGgAACAAADxSggAICCAAAAgAIAACQCAAAAAAAAAAAAAEAAAAAEBIAAAAAQAAEAAAAAAGI6PSPgAAAAAAAAADAAAYAADAAAQAACAAAAA==

> <PUBCHEM_IUPAC_OPENEYE_NAME>
(4R)-4-[(5S,7R,8R,9S,10S,12S,13R,14S,17R)-7,12-dihydroxy-10,13-dimethyl-2,3,4,5,6,7,8,9,11,12,14,15,16,17-tetradecahydro-1H-cyclopenta[a]phenanthren-17-yl]pentanoic acid

> <PUBCHEM_IUPAC_CAS_NAME>
(4R)-4-[(5S,7R,8R,9S,10S,12S,13R,14S,17R)-7,12-dihydroxy-10,13-dimethyl-2,3,4,5,6,7,8,9,11,12,14,15,16,17-tetradecahydro-1H-cyclopenta[a]phenanthren-17-yl]pentanoic acid

> <PUBCHEM_IUPAC_NAME>
(4R)-4-[(5S,7R,8R,9S,10S,12S,13R,14S,17R)-7,12-dihydroxy-10,13-dimethyl-2,3,4,5,6,7,8,9,11,12,14,15,16,17-tetradecahydro-1H-cyclopenta[a]phenanthren-17-yl]pentanoic acid

> <PUBCHEM_IUPAC_SYSTEMATIC_NAME>
(4R)-4-[(5S,7R,8R,9S,10S,12S,13R,14S,17R)-10,13-dimethyl-7,12-bis(oxidanyl)-2,3,4,5,6,7,8,9,11,12,14,15,16,17-tetradecahydro-1H-cyclopenta[a]phenanthren-17-yl]pentanoic acid

> <PUBCHEM_IUPAC_TRADITIONAL_NAME>
(4R)-4-[(5S,7R,8R,9S,10S,12S,13R,14S,17R)-7,12-dihydroxy-10,13-dimethyl-2,3,4,5,6,7,8,9,11,12,14,15,16,17-tetradecahydro-1H-cyclopenta[a]phenanthren-17-yl]valeric acid

> <PUBCHEM_IUPAC_INCHI>
InChI=1S/C24H40O4/c1-14(7-10-21(27)28)16-8-9-17-22-18(13-20(26)24(16,17)3)23(2)11-5-4-6-15(23)12-19(22)25/h14-20,22,25-26H,4-13H2,1-3H3,(H,27,28)/t14-,15+,16-,17+,18+,19-,20+,22+,23+,24-/m1/s1

> <PUBCHEM_IUPAC_INCHIKEY>
ZHCAAZIHTDCFJX-QLEQUTGBSA-N

> <PUBCHEM_XLOGP3_AA>
5.3

> <PUBCHEM_EXACT_MASS>
392.29266

> <PUBCHEM_MOLECULAR_FORMULA>
C24H40O4

> <PUBCHEM_MOLECULAR_WEIGHT>
392.572

> <PUBCHEM_OPENEYE_CAN_SMILES>
CC(CCC(=O)O)C1CCC2C1(C(CC3C2C(CC4C3(CCCC4)C)O)O)C

> <PUBCHEM_OPENEYE_ISO_SMILES>
C[C@H](CCC(=O)O)[C@H]1CC[C@@H]2[C@@]1([C@H](C[C@H]3[C@H]2[C@@H](C[C@H]4[C@@]3(CCCC4)C)O)O)C

> <PUBCHEM_CACTVS_TPSA>
77.8

> <PUBCHEM_MONOISOTOPIC_WEIGHT>
392.29266

> <PUBCHEM_TOTAL_CHARGE>
0

> <PUBCHEM_HEAVY_ATOM_COUNT>
28

> <PUBCHEM_ATOM_DEF_STEREO_COUNT>
10

> <PUBCHEM_ATOM_UDEF_STEREO_COUNT>
0

> <PUBCHEM_BOND_DEF_STEREO_COUNT>
0

> <PUBCHEM_BOND_UDEF_STEREO_COUNT>
0

> <PUBCHEM_ISOTOPIC_ATOM_COUNT>
0

> <PUBCHEM_COMPONENT_COUNT>
1

> <PUBCHEM_CACTVS_TAUTO_COUNT>
1

> <PUBCHEM_COORDINATE_TYPE>
1
5
255

> <PUBCHEM_BONDANNOTATIONS>
11  1  6
10  32  6
13  36  5
15  2  6
20  26  6
5  19  5
6  29  6
7  30  5
8  31  6
9  22  5

$$$$

