582727
  -OEChem-06241222433D

 42 43  0     1  0  0  0  0  0999 V2000
   -0.9052   -0.7633    0.7753 S   0  0  0  0  0  0  0  0  0  0  0  0
    3.2566    1.7463   -0.5338 O   0  0  0  0  0  0  0  0  0  0  0  0
    2.2999   -1.8655   -0.5289 O   0  0  0  0  0  0  0  0  0  0  0  0
   -0.8684   -0.7608    2.2310 O   0  0  0  0  0  0  0  0  0  0  0  0
   -0.5759   -1.9799    0.0456 O   0  0  0  0  0  0  0  0  0  0  0  0
    2.0416    2.0975    1.4023 O   0  0  0  0  0  0  0  0  0  0  0  0
    2.1070   -1.2566    1.6937 O   0  0  0  0  0  0  0  0  0  0  0  0
    0.0806    0.5067    0.1968 N   0  0  1  0  0  0  0  0  0  0  0  0
    1.5158    0.2749    0.0060 C   0  0  0  0  0  0  0  0  0  0  0  0
    0.5831    0.3106   -1.1665 C   0  0  0  0  0  0  0  0  0  0  0  0
    2.2879    1.4709    0.3817 C   0  0  0  0  0  0  0  0  0  0  0  0
    2.0031   -1.0231    0.4981 C   0  0  0  0  0  0  0  0  0  0  0  0
   -2.4833   -0.2193    0.2632 C   0  0  0  0  0  0  0  0  0  0  0  0
   -2.9754   -0.5866   -0.9892 C   0  0  0  0  0  0  0  0  0  0  0  0
   -3.2520    0.5825    1.1068 C   0  0  0  0  0  0  0  0  0  0  0  0
    4.0600    2.8964   -0.2505 C   0  0  0  0  0  0  0  0  0  0  0  0
    2.7835   -3.1564   -0.1440 C   0  0  0  0  0  0  0  0  0  0  0  0
   -4.2363   -0.1522   -1.3979 C   0  0  0  0  0  0  0  0  0  0  0  0
   -4.5128    1.0170    0.6982 C   0  0  0  0  0  0  0  0  0  0  0  0
   -5.0050    0.6496   -0.5543 C   0  0  0  0  0  0  0  0  0  0  0  0
    5.0829    3.0670   -1.3533 C   0  0  0  0  0  0  0  0  0  0  0  0
    3.0660   -3.9687   -1.3897 C   0  0  0  0  0  0  0  0  0  0  0  0
   -6.3537    1.1131   -0.9906 C   0  0  0  0  0  0  0  0  0  0  0  0
    0.2970   -0.5949   -1.6774 H   0  0  0  0  0  0  0  0  0  0  0  0
    0.5158    1.2163   -1.7544 H   0  0  0  0  0  0  0  0  0  0  0  0
   -2.3925   -1.2065   -1.6645 H   0  0  0  0  0  0  0  0  0  0  0  0
   -2.8860    0.8858    2.0837 H   0  0  0  0  0  0  0  0  0  0  0  0
    4.5697    2.7581    0.7095 H   0  0  0  0  0  0  0  0  0  0  0  0
    3.4203    3.7844   -0.1980 H   0  0  0  0  0  0  0  0  0  0  0  0
    2.0268   -3.6633    0.4653 H   0  0  0  0  0  0  0  0  0  0  0  0
    3.7034   -3.0421    0.4402 H   0  0  0  0  0  0  0  0  0  0  0  0
   -4.6092   -0.4458   -2.3756 H   0  0  0  0  0  0  0  0  0  0  0  0
   -5.1026    1.6409    1.3646 H   0  0  0  0  0  0  0  0  0  0  0  0
    4.5881    3.1882   -2.3225 H   0  0  0  0  0  0  0  0  0  0  0  0
    5.7186    2.1787   -1.4299 H   0  0  0  0  0  0  0  0  0  0  0  0
    5.7157    3.9394   -1.1682 H   0  0  0  0  0  0  0  0  0  0  0  0
    3.8081   -3.4652   -2.0180 H   0  0  0  0  0  0  0  0  0  0  0  0
    2.1586   -4.0757   -1.9933 H   0  0  0  0  0  0  0  0  0  0  0  0
    3.4382   -4.9640   -1.1317 H   0  0  0  0  0  0  0  0  0  0  0  0
   -6.5975    2.0870   -0.5527 H   0  0  0  0  0  0  0  0  0  0  0  0
   -6.3982    1.2313   -2.0786 H   0  0  0  0  0  0  0  0  0  0  0  0
   -7.1164    0.3901   -0.6848 H   0  0  0  0  0  0  0  0  0  0  0  0
  1  4  2  0  0  0  0
  1  5  2  0  0  0  0
  1  8  1  0  0  0  0
  1 13  1  0  0  0  0
  2 11  1  0  0  0  0
  2 16  1  0  0  0  0
  3 12  1  0  0  0  0
  3 17  1  0  0  0  0
  6 11  2  0  0  0  0
  7 12  2  0  0  0  0
  8  9  1  0  0  0  0
  8 10  1  0  0  0  0
  9 10  1  0  0  0  0
  9 11  1  0  0  0  0
  9 12  1  0  0  0  0
 10 24  1  0  0  0  0
 10 25  1  0  0  0  0
 13 14  2  0  0  0  0
 13 15  1  0  0  0  0
 14 18  1  0  0  0  0
 14 26  1  0  0  0  0
 15 19  2  0  0  0  0
 15 27  1  0  0  0  0
 16 21  1  0  0  0  0
 16 28  1  0  0  0  0
 16 29  1  0  0  0  0
 17 22  1  0  0  0  0
 17 30  1  0  0  0  0
 17 31  1  0  0  0  0
 18 20  2  0  0  0  0
 18 32  1  0  0  0  0
 19 20  1  0  0  0  0
 19 33  1  0  0  0  0
 20 23  1  0  0  0  0
 21 34  1  0  0  0  0
 21 35  1  0  0  0  0
 21 36  1  0  0  0  0
 22 37  1  0  0  0  0
 22 38  1  0  0  0  0
 22 39  1  0  0  0  0
 23 40  1  0  0  0  0
 23 41  1  0  0  0  0
 23 42  1  0  0  0  0
M  END
> <PUBCHEM_COMPOUND_CID>
582727

> <PUBCHEM_CONFORMER_RMSD>
0.8

> <PUBCHEM_CONFORMER_DIVERSEORDER>
1
26
20
2
14
51
54
38
47
9
27
48
21
28
53
37
34
11
44
42
41
4
50
49
35
32
40
46
18
52
23
6
55
39
36
29
13
31
33
30
16
12
10
19
7
25
24
5
15
43
45
3
8
22
17

> <PUBCHEM_MMFF94_PARTIAL_CHARGES>
27
1 1.45
10 0.03
11 0.72
12 0.72
13 -0.01
14 -0.15
15 -0.15
16 0.28
17 0.28
18 -0.15
19 -0.15
2 -0.43
20 -0.14
23 0.14
24 0.1
25 0.1
26 0.15
27 0.15
3 -0.43
32 0.15
33 0.15
4 -0.65
5 -0.65
6 -0.57
7 -0.57
8 -0.6
9 0.23

> <PUBCHEM_EFFECTIVE_ROTOR_COUNT>
8.6

> <PUBCHEM_PHARMACOPHORE_FEATURES>
5
1 4 acceptor
1 5 acceptor
1 6 acceptor
1 7 acceptor
6 13 14 15 18 19 20 rings

> <PUBCHEM_HEAVY_ATOM_COUNT>
23

> <PUBCHEM_ATOM_DEF_STEREO_COUNT>
0

> <PUBCHEM_ATOM_UDEF_STEREO_COUNT>
0

> <PUBCHEM_BOND_DEF_STEREO_COUNT>
0

> <PUBCHEM_BOND_UDEF_STEREO_COUNT>
0

> <PUBCHEM_ISOTOPIC_ATOM_COUNT>
0

> <PUBCHEM_COMPONENT_COUNT>
1

> <PUBCHEM_CACTVS_TAUTO_COUNT>
1

> <PUBCHEM_CONFORMER_ID>
0008E44700000001

> <PUBCHEM_MMFF94_ENERGY>
40.0411

> <PUBCHEM_FEATURE_SELFOVERLAP>
25.39

> <PUBCHEM_SHAPE_FINGERPRINT>
105312 117 18055059966376355420
10759866 29 18114467777525335871
12403259 415 17917703635295482905
12730499 353 18338228276528933667
13533116 47 18260835921230369743
13540713 4 18058711551444642147
14251764 38 18128830805351860325
15081414 286 18273209811867570253
15163728 17 18057022632986090900
15842332 3 17532354530253169203
167882 2 18410288112671925414
17492 89 18260555515574734095
17980427 26 17916887784060695179
1813 80 18045503281331892710
18186145 218 17989204889071004923
18335252 98 18340765932993300711
18915476 22 18339344297831933474
19784866 170 17489592208109560556
20554085 129 18042701524336553992
20612939 158 18409729586112578837
20645477 70 18412548747101423983
21033648 29 16630532873434150925
21033650 10 15864334875239233203
21069387 34 17968659453264945899
21304303 282 17174933850640282022
22182313 1 17844504683046379371
22393880 68 17677619657226209037
2255824 54 18335421321785175574
23559900 14 18187092783613522642
2838139 119 18338242548315712532
312423 11 18041273374632327331
46194498 28 18340773748936760495
474 4 18342743996628080905
495365 180 18410583867945059064
5104073 3 17632578271406890593
6025842 7 18409169913145403543
633830 44 18272656796399538963
7970288 3 7709198836049618973
8272917 22 18409733971395461966
9841814 1 18129106795691685802
9971528 1 18115879670387566514
9981440 41 17901407605270656313

> <PUBCHEM_SHAPE_MULTIPOLES>
436.98
10.94
3.58
1.52
11.07
1.72
0.29
-6.92
-4.45
-8.32
-1.34
0.13
0.13
-0.15

> <PUBCHEM_SHAPE_SELFOVERLAP>
895.193

> <PUBCHEM_SHAPE_VOLUME>
254.6

> <PUBCHEM_COORDINATE_TYPE>
2
5
10

$$$$

