5281833
  -OEChem-07051213003D

 75 81  0     1  0  0  0  0  0999 V2000
   -6.4836    2.4564    0.3080 O   0  0  0  0  0  0  0  0  0  0  0  0
   -2.9728    2.5420   -0.1104 O   0  0  0  0  0  0  0  0  0  0  0  0
   -6.9960   -2.0972    1.5756 O   0  0  0  0  0  0  0  0  0  0  0  0
   -0.1565   -1.1483   -1.3338 O   0  0  0  0  0  0  0  0  0  0  0  0
   -5.0738   -3.6470    0.9941 O   0  0  0  0  0  0  0  0  0  0  0  0
    2.2890   -1.3738   -2.4666 O   0  0  0  0  0  0  0  0  0  0  0  0
    4.2266    0.9986    2.6902 O   0  0  0  0  0  0  0  0  0  0  0  0
    6.6441    1.8141    2.7468 O   0  0  0  0  0  0  0  0  0  0  0  0
    9.3668    0.7781   -0.9826 O   0  0  0  0  0  0  0  0  0  0  0  0
   -2.9798   -0.6914   -0.7784 N   0  0  0  0  0  0  0  0  0  0  0  0
    4.6957   -0.6199   -0.9906 N   0  0  0  0  0  0  0  0  0  0  0  0
   -5.2868    3.2095    0.0248 C   0  0  1  0  0  0  0  0  0  0  0  0
   -4.2625    2.2671   -0.6251 C   0  0  2  0  0  0  0  0  0  0  0  0
   -4.7777    0.9412   -0.1730 C   0  0  0  0  0  0  0  0  0  0  0  0
   -5.6508    4.3778   -0.8804 C   0  0  0  0  0  0  0  0  0  0  0  0
   -4.2176   -0.3427   -0.2028 C   0  0  0  0  0  0  0  0  0  0  0  0
   -6.0513    1.1545    0.3636 C   0  0  0  0  0  0  0  0  0  0  0  0
   -4.9755   -1.3567    0.4357 C   0  0  0  0  0  0  0  0  0  0  0  0
   -6.6952    5.2687   -0.2121 C   0  0  0  0  0  0  0  0  0  0  0  0
   -4.4061    5.1856   -1.2404 C   0  0  0  0  0  0  0  0  0  0  0  0
   -6.8163    0.1456    0.9115 C   0  0  0  0  0  0  0  0  0  0  0  0
   -6.2598   -1.1239    0.9667 C   0  0  0  0  0  0  0  0  0  0  0  0
   -2.2988   -1.8909   -0.4637 C   0  0  0  0  0  0  0  0  0  0  0  0
   -4.3999   -2.7164    0.5713 C   0  0  0  0  0  0  0  0  0  0  0  0
   -2.9814   -2.9189    0.2091 C   0  0  0  0  0  0  0  0  0  0  0  0
   -2.4397    0.0998   -1.8846 C   0  0  0  0  0  0  0  0  0  0  0  0
   -0.9445   -2.1133   -0.7728 C   0  0  0  0  0  0  0  0  0  0  0  0
   -2.3543   -4.1294    0.5329 C   0  0  0  0  0  0  0  0  0  0  0  0
   -0.3119   -3.3169   -0.4469 C   0  0  0  0  0  0  0  0  0  0  0  0
   -1.0173   -4.3250    0.2013 C   0  0  0  0  0  0  0  0  0  0  0  0
    0.9525   -0.7519   -0.6342 C   0  0  0  0  0  0  0  0  0  0  0  0
    3.3827   -0.4854   -0.4847 C   0  0  0  0  0  0  0  0  0  0  0  0
    3.1834    0.1007    0.7805 C   0  0  0  0  0  0  0  0  0  0  0  0
    2.2317   -0.8934   -1.1835 C   0  0  0  0  0  0  0  0  0  0  0  0
    5.8112    0.0098   -0.3929 C   0  0  0  0  0  0  0  0  0  0  0  0
    5.6732    0.6084    0.8746 C   0  0  0  0  0  0  0  0  0  0  0  0
    0.7894   -0.1912    0.6267 C   0  0  0  0  0  0  0  0  0  0  0  0
    4.3524    0.5945    1.5414 C   0  0  0  0  0  0  0  0  0  0  0  0
    1.9040    0.2405    1.3371 C   0  0  0  0  0  0  0  0  0  0  0  0
    4.9018   -1.4037   -2.2117 C   0  0  0  0  0  0  0  0  0  0  0  0
    7.0776    0.0945   -1.0002 C   0  0  0  0  0  0  0  0  0  0  0  0
    6.7521    1.2291    1.5203 C   0  0  0  0  0  0  0  0  0  0  0  0
    8.1561    0.7169   -0.3619 C   0  0  0  0  0  0  0  0  0  0  0  0
    7.9950    1.2781    0.8991 C   0  0  0  0  0  0  0  0  0  0  0  0
   10.4247    1.4257   -0.2782 C   0  0  0  0  0  0  0  0  0  0  0  0
   -4.9088    3.5922    0.9847 H   0  0  0  0  0  0  0  0  0  0  0  0
   -4.2694    2.3420   -1.7161 H   0  0  0  0  0  0  0  0  0  0  0  0
   -6.1017    3.9960   -1.8060 H   0  0  0  0  0  0  0  0  0  0  0  0
   -7.6235    4.7225   -0.0160 H   0  0  0  0  0  0  0  0  0  0  0  0
   -6.3280    5.6678    0.7397 H   0  0  0  0  0  0  0  0  0  0  0  0
   -6.9479    6.1182   -0.8560 H   0  0  0  0  0  0  0  0  0  0  0  0
   -3.8817    5.5315   -0.3429 H   0  0  0  0  0  0  0  0  0  0  0  0
   -4.6786    6.0698   -1.8272 H   0  0  0  0  0  0  0  0  0  0  0  0
   -3.7022    4.6081   -1.8470 H   0  0  0  0  0  0  0  0  0  0  0  0
   -7.8009    0.3486    1.3192 H   0  0  0  0  0  0  0  0  0  0  0  0
   -2.8728    2.0977    0.7486 H   0  0  0  0  0  0  0  0  0  0  0  0
   -3.2294    0.6300   -2.4249 H   0  0  0  0  0  0  0  0  0  0  0  0
   -2.0005   -0.5293   -2.6687 H   0  0  0  0  0  0  0  0  0  0  0  0
   -1.7015    0.8286   -1.5375 H   0  0  0  0  0  0  0  0  0  0  0  0
   -2.8892   -4.9233    1.0468 H   0  0  0  0  0  0  0  0  0  0  0  0
    0.7316   -3.4930   -0.6949 H   0  0  0  0  0  0  0  0  0  0  0  0
   -0.5253   -5.2602    0.4516 H   0  0  0  0  0  0  0  0  0  0  0  0
   -6.4944   -2.9224    1.6450 H   0  0  0  0  0  0  0  0  0  0  0  0
   -0.1975   -0.0611    1.0621 H   0  0  0  0  0  0  0  0  0  0  0  0
    1.7588    0.6925    2.3145 H   0  0  0  0  0  0  0  0  0  0  0  0
    4.3238   -2.3347   -2.1980 H   0  0  0  0  0  0  0  0  0  0  0  0
    5.9254   -1.7775   -2.3147 H   0  0  0  0  0  0  0  0  0  0  0  0
    4.6690   -0.8131   -3.1039 H   0  0  0  0  0  0  0  0  0  0  0  0
    7.2592   -0.2963   -1.9974 H   0  0  0  0  0  0  0  0  0  0  0  0
    8.7935    1.7728    1.4419 H   0  0  0  0  0  0  0  0  0  0  0  0
    1.3873   -1.5771   -2.7698 H   0  0  0  0  0  0  0  0  0  0  0  0
    5.7252    1.8081    3.0530 H   0  0  0  0  0  0  0  0  0  0  0  0
   10.6724    0.8996    0.6501 H   0  0  0  0  0  0  0  0  0  0  0  0
   10.2072    2.4860   -0.1104 H   0  0  0  0  0  0  0  0  0  0  0  0
   11.3130    1.3800   -0.9169 H   0  0  0  0  0  0  0  0  0  0  0  0
  1 12  1  0  0  0  0
  1 17  1  0  0  0  0
  2 13  1  0  0  0  0
  2 56  1  0  0  0  0
  3 22  1  0  0  0  0
  3 63  1  0  0  0  0
  4 27  1  0  0  0  0
  4 31  1  0  0  0  0
  5 24  2  0  0  0  0
  6 34  1  0  0  0  0
  6 71  1  0  0  0  0
  7 38  2  0  0  0  0
  8 42  1  0  0  0  0
  8 72  1  0  0  0  0
  9 43  1  0  0  0  0
  9 45  1  0  0  0  0
 10 16  1  0  0  0  0
 10 23  1  0  0  0  0
 10 26  1  0  0  0  0
 11 32  1  0  0  0  0
 11 35  1  0  0  0  0
 11 40  1  0  0  0  0
 12 13  1  0  0  0  0
 12 15  1  0  0  0  0
 12 46  1  0  0  0  0
 13 14  1  0  0  0  0
 13 47  1  0  0  0  0
 14 16  1  0  0  0  0
 14 17  2  0  0  0  0
 15 19  1  0  0  0  0
 15 20  1  0  0  0  0
 15 48  1  0  0  0  0
 16 18  2  0  0  0  0
 17 21  1  0  0  0  0
 18 22  1  0  0  0  0
 18 24  1  0  0  0  0
 19 49  1  0  0  0  0
 19 50  1  0  0  0  0
 19 51  1  0  0  0  0
 20 52  1  0  0  0  0
 20 53  1  0  0  0  0
 20 54  1  0  0  0  0
 21 22  2  0  0  0  0
 21 55  1  0  0  0  0
 23 25  2  0  0  0  0
 23 27  1  0  0  0  0
 24 25  1  0  0  0  0
 25 28  1  0  0  0  0
 26 57  1  0  0  0  0
 26 58  1  0  0  0  0
 26 59  1  0  0  0  0
 27 29  2  0  0  0  0
 28 30  2  0  0  0  0
 28 60  1  0  0  0  0
 29 30  1  0  0  0  0
 29 61  1  0  0  0  0
 30 62  1  0  0  0  0
 31 34  2  0  0  0  0
 31 37  1  0  0  0  0
 32 33  2  0  0  0  0
 32 34  1  0  0  0  0
 33 38  1  0  0  0  0
 33 39  1  0  0  0  0
 35 36  2  0  0  0  0
 35 41  1  0  0  0  0
 36 38  1  0  0  0  0
 36 42  1  0  0  0  0
 37 39  2  0  0  0  0
 37 64  1  0  0  0  0
 39 65  1  0  0  0  0
 40 66  1  0  0  0  0
 40 67  1  0  0  0  0
 40 68  1  0  0  0  0
 41 43  2  0  0  0  0
 41 69  1  0  0  0  0
 42 44  2  0  0  0  0
 43 44  1  0  0  0  0
 44 70  1  0  0  0  0
 45 73  1  0  0  0  0
 45 74  1  0  0  0  0
 45 75  1  0  0  0  0
M  END
> <PUBCHEM_COMPOUND_CID>
5281833

> <PUBCHEM_CONFORMER_RMSD>
1

> <PUBCHEM_CONFORMER_DIVERSEORDER>
1
9
3
5
8
7
4
2
6

> <PUBCHEM_MMFF94_PARTIAL_CHARGES>
54
1 -0.36
10 -0.57
11 -0.57
12 0.28
13 0.42
14 -0.14
16 0.1
17 0.08
18 0.09
2 -0.68
21 -0.15
22 0.08
23 0.1
24 0.4
25 0.09
26 0.37
27 0.08
28 -0.15
29 -0.15
3 -0.53
30 -0.15
31 0.08
32 0.1
33 0.09
34 0.08
35 0.1
36 0.09
37 -0.15
38 0.4
39 -0.15
4 -0.17
40 0.37
41 -0.15
42 0.08
43 0.08
44 -0.15
45 0.28
5 -0.57
55 0.15
56 0.4
6 -0.53
60 0.15
61 0.15
62 0.15
63 0.45
64 0.15
65 0.15
69 0.15
7 -0.57
70 0.15
71 0.45
72 0.45
8 -0.53
9 -0.36

> <PUBCHEM_EFFECTIVE_ROTOR_COUNT>
4.6

> <PUBCHEM_PHARMACOPHORE_FEATURES>
20
1 1 acceptor
1 10 cation
1 11 cation
1 2 acceptor
1 2 donor
1 3 donor
1 4 acceptor
1 5 acceptor
1 6 donor
1 7 acceptor
1 8 donor
1 9 acceptor
3 15 19 20 hydrophobe
5 1 12 13 14 17 rings
6 10 16 18 23 24 25 rings
6 11 32 33 35 36 38 rings
6 14 16 17 18 21 22 rings
6 23 25 27 28 29 30 rings
6 31 32 33 34 37 39 rings
6 35 36 41 42 43 44 rings

> <PUBCHEM_HEAVY_ATOM_COUNT>
45

> <PUBCHEM_ATOM_DEF_STEREO_COUNT>
2

> <PUBCHEM_ATOM_UDEF_STEREO_COUNT>
0

> <PUBCHEM_BOND_DEF_STEREO_COUNT>
0

> <PUBCHEM_BOND_UDEF_STEREO_COUNT>
0

> <PUBCHEM_ISOTOPIC_ATOM_COUNT>
0

> <PUBCHEM_COMPONENT_COUNT>
1

> <PUBCHEM_CACTVS_TAUTO_COUNT>
75

> <PUBCHEM_CONFORMER_ID>
0050982900000001

> <PUBCHEM_MMFF94_ENERGY>
206.5036

> <PUBCHEM_FEATURE_SELFOVERLAP>
101.678

> <PUBCHEM_SHAPE_FINGERPRINT>
10290309 65 18334857272858235735
11434127 23 18040995197974851957
12664476 115 18186236212678829937
12717326 120 8862646994341746540
12717326 135 18268726045955670876
13008946 113 18198060476999714938
13553644 42 18188478195543352606
13560911 23 17775278353252072605
13726171 33 18267298923567112161
14294032 229 18059861692421118876
14395042 24 18059842954248627449
14856354 85 18271807848310389647
15328684 2 17632027407233146224
15328829 1 17275104999107015846
15361156 5 18191025595415041278
15444296 121 18131065991941036752
16728433 281 18336820996235862352
18603816 31 13542459827252302561
19053607 189 18057590161474876645
19304152 47 18411982490471337381
19304671 126 17679580314503517101
21033648 29 18408319990900017871
21133410 127 17913211154748670589
21756936 100 18408889520943991927
21772524 286 18413105082969539092
21792961 116 17821720651379091790
21792965 68 18341058479224576437
21859007 373 18335136488191362878
21927370 108 18122064201021721343
23522609 53 17560225952502260628
23569914 2 17244750802594040280
3525247 154 17822580515536109961
3918712 181 18264774448785195569
4144715 1 18122908634240166162
4403749 210 18271248313383333901
6009941 240 18261106323628975834
6086070 43 15792018823086747914
6691757 9 18131076978552685295
6703917 75 18201148884881961034
9896288 288 18272088267163158491

> <PUBCHEM_SHAPE_MULTIPOLES>
863.29
26.26
5.44
1.74
44.68
3.08
0.21
21.03
4.03
-15.69
-0.56
2.52
0.14
4.15

> <PUBCHEM_SHAPE_SELFOVERLAP>
1957.302

> <PUBCHEM_SHAPE_VOLUME>
449.8

> <PUBCHEM_COORDINATE_TYPE>
2
5
10

$$$$

