5702063
  -OEChem-07051212523D

 22 22  0     0  0  0  0  0  0999 V2000
    0.0307   -2.2984   -0.4019 Cl  0  0  0  0  0  0  0  0  0  0  0  0
    1.8846    2.8158    0.0701 Cl  0  0  0  0  0  0  0  0  0  0  0  0
   -1.3411    0.0622    0.0229 N   0  0  0  0  0  0  0  0  0  0  0  0
   -2.5037    0.7658   -0.2766 N   0  0  0  0  0  0  0  0  0  0  0  0
   -4.8818    0.5414   -0.0735 N   0  0  0  0  0  0  0  0  0  0  0  0
   -3.5000   -1.1133    0.6852 N   0  0  0  0  0  0  0  0  0  0  0  0
    1.0694    0.2164   -0.1491 C   0  0  0  0  0  0  0  0  0  0  0  0
    1.3063   -1.1582   -0.1587 C   0  0  0  0  0  0  0  0  0  0  0  0
    2.1263    1.1049    0.0489 C   0  0  0  0  0  0  0  0  0  0  0  0
    2.6001   -1.6444    0.0295 C   0  0  0  0  0  0  0  0  0  0  0  0
    3.4201    0.6188    0.2370 C   0  0  0  0  0  0  0  0  0  0  0  0
    3.6570   -0.7558    0.2274 C   0  0  0  0  0  0  0  0  0  0  0  0
   -0.2869    0.7261   -0.3439 C   0  0  0  0  0  0  0  0  0  0  0  0
   -3.5811    0.1187    0.0829 C   0  0  0  0  0  0  0  0  0  0  0  0
    2.8022   -2.7125    0.0245 H   0  0  0  0  0  0  0  0  0  0  0  0
    4.2551    1.2972    0.3926 H   0  0  0  0  0  0  0  0  0  0  0  0
    4.6644   -1.1342    0.3739 H   0  0  0  0  0  0  0  0  0  0  0  0
   -0.4030    1.7213   -0.8087 H   0  0  0  0  0  0  0  0  0  0  0  0
   -5.6637   -0.0260    0.2347 H   0  0  0  0  0  0  0  0  0  0  0  0
   -5.0940    1.4349   -0.5041 H   0  0  0  0  0  0  0  0  0  0  0  0
   -2.6037   -1.5526    0.8651 H   0  0  0  0  0  0  0  0  0  0  0  0
   -4.3318   -1.6207    0.9664 H   0  0  0  0  0  0  0  0  0  0  0  0
  1  8  1  0  0  0  0
  2  9  1  0  0  0  0
  3  4  1  0  0  0  0
  3 13  2  0  0  0  0
  4 14  2  0  0  0  0
  5 14  1  0  0  0  0
  5 19  1  0  0  0  0
  5 20  1  0  0  0  0
  6 14  1  0  0  0  0
  6 21  1  0  0  0  0
  6 22  1  0  0  0  0
  7  8  2  0  0  0  0
  7  9  1  0  0  0  0
  7 13  1  0  0  0  0
  8 10  1  0  0  0  0
  9 11  2  0  0  0  0
 10 12  2  0  0  0  0
 10 15  1  0  0  0  0
 11 12  1  0  0  0  0
 11 16  1  0  0  0  0
 12 17  1  0  0  0  0
 13 18  1  0  0  0  0
M  END
> <PUBCHEM_COMPOUND_CID>
5702063

> <PUBCHEM_CONFORMER_RMSD>
0.6

> <PUBCHEM_CONFORMER_DIVERSEORDER>
1
2

> <PUBCHEM_MMFF94_PARTIAL_CHARGES>
22
1 -0.18
10 -0.15
11 -0.15
12 -0.15
13 0.3
14 0.55
15 0.15
16 0.15
17 0.15
18 0.06
19 0.4
2 -0.18
20 0.4
21 0.4
22 0.4
3 -0.45
4 -0.45
5 -0.85
6 -0.85
7 0.09
8 0.18
9 0.18

> <PUBCHEM_EFFECTIVE_ROTOR_COUNT>
2

> <PUBCHEM_PHARMACOPHORE_FEATURES>
5
1 3 acceptor
1 5 donor
1 6 donor
4 4 5 6 14 cation
6 7 8 9 10 11 12 rings

> <PUBCHEM_HEAVY_ATOM_COUNT>
14

> <PUBCHEM_ATOM_DEF_STEREO_COUNT>
0

> <PUBCHEM_ATOM_UDEF_STEREO_COUNT>
0

> <PUBCHEM_BOND_DEF_STEREO_COUNT>
1

> <PUBCHEM_BOND_UDEF_STEREO_COUNT>
0

> <PUBCHEM_ISOTOPIC_ATOM_COUNT>
0

> <PUBCHEM_COMPONENT_COUNT>
1

> <PUBCHEM_CACTVS_TAUTO_COUNT>
2

> <PUBCHEM_CONFORMER_ID>
005701AF00000001

> <PUBCHEM_MMFF94_ENERGY>
45.217

> <PUBCHEM_FEATURE_SELFOVERLAP>
25.426

> <PUBCHEM_SHAPE_FINGERPRINT>
10219947 1 18409166644843946574
10608611 8 18342179977132896269
11471102 20 18410015450435057188
12032990 46 18337951324305967862
12251169 10 18409732850219086942
12346645 6 18335138700120112692
13140716 1 18194412087118064816
13380536 305 18409726227917677740
13922767 16 18410014342344050753
14251717 144 18409169930435996759
14252887 29 18041559247629454374
14325111 11 18410856542649843973
15375358 24 18343021129556216535
15501101 241 18272651255338131772
16945 1 18338529564400647430
18175812 5 18201719539879623559
18186145 218 18259976072381639689
193761 8 18049727309005849350
200 152 18114189640117723125
20201158 50 18341047514500136163
20279233 1 18272928341311718891
20606313 2 18410293635688384564
20645477 70 18409452526742264647
20671657 1 18266454317820890268
20871998 22 18118119401828238822
21501502 16 18120943806555161158
21730867 7 18413107264294908085
221490 88 18341604872110810498
22959321 4 18411135797339478683
23402539 116 18187093857634349966
23402655 69 18335142011613861389
23557571 272 17203333329858433133
23558518 356 17693947297903898968
2748010 2 18121232123636288092
3060560 45 18260265274210335718
33824 294 18412265059842178515
581208 293 18409172103531127991
69090 78 18410297995270379895
7364860 26 18408603626340217356
8809292 202 18202277013734191179
9709674 26 18411412908793537991

> <PUBCHEM_SHAPE_MULTIPOLES>
271.93
7.31
2.33
0.66
8.56
0.41
0
0.49
-0.9
-1.61
0.1
0.02
-0.05
0.19

> <PUBCHEM_SHAPE_SELFOVERLAP>
547.437

> <PUBCHEM_SHAPE_VOLUME>
158.9

> <PUBCHEM_COORDINATE_TYPE>
2
5
10

$$$$

