181811
  -OEChem-07051212552D

 37 38  0     1  0  0  0  0  0999 V2000
    5.1350   -0.2694    0.0000 O   0  0  0  0  0  0  0  0  0  0  0  0
    6.8671   -0.2694    0.0000 O   0  0  0  0  0  0  0  0  0  0  0  0
    5.1350   -3.2694    0.0000 O   0  0  0  0  0  0  0  0  0  0  0  0
    6.8671   -2.2694    0.0000 O   0  0  0  0  0  0  0  0  0  0  0  0
    3.4030   -2.2694    0.0000 O   0  0  0  0  0  0  0  0  0  0  0  0
    6.3671    3.2694    0.0000 O   0  0  0  0  0  0  0  0  0  0  0  0
    2.5369   -0.7694    0.0000 O   0  0  0  0  0  0  0  0  0  0  0  0
    8.7692    0.1125    0.0000 N   0  0  0  0  0  0  0  0  0  0  0  0
    5.1350   -2.2694    0.0000 C   0  0  2  0  0  0  0  0  0  0  0  0
    6.0010   -1.7694    0.0000 C   0  0  2  0  0  0  0  0  0  0  0  0
    4.2690   -1.7694    0.0000 C   0  0  1  0  0  0  0  0  0  0  0  0
    6.0010   -0.7694    0.0000 C   0  0  1  0  0  0  0  0  0  0  0  0
    4.2690   -0.7694    0.0000 C   0  0  1  0  0  0  0  0  0  0  0  0
    6.8671    0.7306    0.0000 C   0  0  2  0  0  0  0  0  0  0  0  0
    7.1761    1.6816    0.0000 C   0  0  0  0  0  0  0  0  0  0  0  0
    3.4030   -0.2694    0.0000 C   0  0  0  0  0  0  0  0  0  0  0  0
    6.3671    2.2694    0.0000 C   0  0  2  0  0  0  0  0  0  0  0  0
    5.8671    0.7306    0.0000 C   0  0  0  0  0  0  0  0  0  0  0  0
    5.5580    1.6816    0.0000 C   0  0  0  0  0  0  0  0  0  0  0  0
    7.8181    0.4216    0.0000 C   0  0  0  0  0  0  0  0  0  0  0  0
    5.6720   -2.5794    0.0000 H   0  0  0  0  0  0  0  0  0  0  0  0
    6.5380   -1.4594    0.0000 H   0  0  0  0  0  0  0  0  0  0  0  0
    4.2690   -2.3894    0.0000 H   0  0  0  0  0  0  0  0  0  0  0  0
    6.5380   -1.0794    0.0000 H   0  0  0  0  0  0  0  0  0  0  0  0
    4.2690   -0.1494    0.0000 H   0  0  0  0  0  0  0  0  0  0  0  0
    7.7425    1.4295    0.0000 H   0  0  0  0  0  0  0  0  0  0  0  0
    7.4861    2.2186    0.0000 H   0  0  0  0  0  0  0  0  0  0  0  0
    5.8146    2.5509    0.0000 H   0  0  0  0  0  0  0  0  0  0  0  0
    3.8015    0.2055    0.0000 H   0  0  0  0  0  0  0  0  0  0  0  0
    3.0044    0.2055    0.0000 H   0  0  0  0  0  0  0  0  0  0  0  0
    5.5026    0.2290    0.0000 H   0  0  0  0  0  0  0  0  0  0  0  0
    4.9684    1.8732    0.0000 H   0  0  0  0  0  0  0  0  0  0  0  0
    4.5981   -3.5794    0.0000 H   0  0  0  0  0  0  0  0  0  0  0  0
    6.8671   -2.8894    0.0000 H   0  0  0  0  0  0  0  0  0  0  0  0
    3.4030   -2.8894    0.0000 H   0  0  0  0  0  0  0  0  0  0  0  0
    5.8301    3.5794    0.0000 H   0  0  0  0  0  0  0  0  0  0  0  0
    2.0000   -0.4594    0.0000 H   0  0  0  0  0  0  0  0  0  0  0  0
  1 12  1  0  0  0  0
  1 13  1  0  0  0  0
 12  2  1  1  0  0  0
 14  2  1  1  0  0  0
  9  3  1  1  0  0  0
  3 33  1  0  0  0  0
 10  4  1  6  0  0  0
  4 34  1  0  0  0  0
 11  5  1  6  0  0  0
  5 35  1  0  0  0  0
 17  6  1  6  0  0  0
  6 36  1  0  0  0  0
  7 16  1  0  0  0  0
  7 37  1  0  0  0  0
  8 20  3  0  0  0  0
  9 10  1  0  0  0  0
  9 11  1  0  0  0  0
  9 21  1  0  0  0  0
 10 12  1  0  0  0  0
 10 22  1  0  0  0  0
 11 13  1  0  0  0  0
 11 23  1  0  0  0  0
 12 24  1  0  0  0  0
 13 16  1  1  0  0  0
 13 25  1  0  0  0  0
 14 15  1  0  0  0  0
 14 18  1  0  0  0  0
 14 20  1  0  0  0  0
 15 17  1  0  0  0  0
 15 26  1  0  0  0  0
 15 27  1  0  0  0  0
 16 29  1  0  0  0  0
 16 30  1  0  0  0  0
 17 19  1  0  0  0  0
 17 28  1  0  0  0  0
 18 19  2  0  0  0  0
 18 31  1  0  0  0  0
 19 32  1  0  0  0  0
M  END
> <PUBCHEM_COMPOUND_CID>
181811

> <PUBCHEM_COMPOUND_CANONICALIZED>
1

> <PUBCHEM_CACTVS_COMPLEXITY>
433

> <PUBCHEM_CACTVS_HBOND_ACCEPTOR>
8

> <PUBCHEM_CACTVS_HBOND_DONOR>
5

> <PUBCHEM_CACTVS_ROTATABLE_BOND>
3

> <PUBCHEM_CACTVS_SUBSKEYS>
AAADceByOAAAAAAAAAAAAAAAAAAAAQAAAAAkAAAAAAAAAAAAAAAAHgAACAAADFSxgAMACAAABgCQBCBCAAAAAAAgAAAICAAAAAgRlAIAIQAiUAAFgAAPMAvAYAwMAAAAAAAAAAAAAAAAAAAAAAAAAAAAAA==

> <PUBCHEM_IUPAC_OPENEYE_NAME>
(1R,4R)-4-hydroxy-1-[(2S,3R,4S,5S,6R)-3,4,5-trihydroxy-6-(hydroxymethyl)tetrahydropyran-2-yl]oxy-cyclopent-2-ene-1-carbonitrile

> <PUBCHEM_IUPAC_CAS_NAME>
(1R,4R)-4-hydroxy-1-[[(2S,3R,4S,5S,6R)-3,4,5-trihydroxy-6-(hydroxymethyl)-2-oxanyl]oxy]-1-cyclopent-2-enecarbonitrile

> <PUBCHEM_IUPAC_NAME>
(1R,4R)-4-hydroxy-1-[(2S,3R,4S,5S,6R)-3,4,5-trihydroxy-6-(hydroxymethyl)oxan-2-yl]oxycyclopent-2-ene-1-carbonitrile

> <PUBCHEM_IUPAC_SYSTEMATIC_NAME>
(1R,4R)-1-[(2S,3R,4S,5S,6R)-6-(hydroxymethyl)-3,4,5-tris(oxidanyl)oxan-2-yl]oxy-4-oxidanyl-cyclopent-2-ene-1-carbonitrile

> <PUBCHEM_IUPAC_TRADITIONAL_NAME>
(1R,4R)-4-hydroxy-1-[(2S,3R,4S,5S,6R)-3,4,5-trihydroxy-6-methylol-tetrahydropyran-2-yl]oxy-cyclopent-2-ene-1-carbonitrile

> <PUBCHEM_IUPAC_INCHI>
InChI=1S/C12H17NO7/c13-5-12(2-1-6(15)3-12)20-11-10(18)9(17)8(16)7(4-14)19-11/h1-2,6-11,14-18H,3-4H2/t6-,7+,8+,9-,10+,11-,12-/m0/s1

> <PUBCHEM_IUPAC_INCHIKEY>
JRCWYCAEAZEYNW-WTMYBKBASA-N

> <PUBCHEM_XLOGP3_AA>
-2.3

> <PUBCHEM_EXACT_MASS>
287.100502

> <PUBCHEM_MOLECULAR_FORMULA>
C12H17NO7

> <PUBCHEM_MOLECULAR_WEIGHT>
287.26588

> <PUBCHEM_OPENEYE_CAN_SMILES>
C1C(C=CC1(C#N)OC2C(C(C(C(O2)CO)O)O)O)O

> <PUBCHEM_OPENEYE_ISO_SMILES>
C1[C@H](C=C[C@]1(C#N)O[C@H]2[C@@H]([C@H]([C@@H]([C@H](O2)CO)O)O)O)O

> <PUBCHEM_CACTVS_TPSA>
143

> <PUBCHEM_MONOISOTOPIC_WEIGHT>
287.100502

> <PUBCHEM_TOTAL_CHARGE>
0

> <PUBCHEM_HEAVY_ATOM_COUNT>
20

> <PUBCHEM_ATOM_DEF_STEREO_COUNT>
7

> <PUBCHEM_ATOM_UDEF_STEREO_COUNT>
0

> <PUBCHEM_BOND_DEF_STEREO_COUNT>
0

> <PUBCHEM_BOND_UDEF_STEREO_COUNT>
0

> <PUBCHEM_ISOTOPIC_ATOM_COUNT>
0

> <PUBCHEM_COMPONENT_COUNT>
1

> <PUBCHEM_CACTVS_TAUTO_COUNT>
1

> <PUBCHEM_COORDINATE_TYPE>
1
5
255

> <PUBCHEM_BONDANNOTATIONS>
13  16  5
12  2  5
14  2  5
9  3  5
10  4  6
11  5  6
17  6  6

$$$$

