17395690
  -OEChem-06241222513D

 51 52  0     1  0  0  0  0  0999 V2000
   -0.3164    0.0371   -0.2074 O   0  0  0  0  0  0  0  0  0  0  0  0
   -2.3095   -1.5135    0.6482 O   0  0  0  0  0  0  0  0  0  0  0  0
    0.6326    2.0922    0.1555 O   0  0  0  0  0  0  0  0  0  0  0  0
    6.2113    0.9302   -0.2676 O   0  0  0  0  0  0  0  0  0  0  0  0
    6.3736   -1.1877    0.5947 O   0  0  0  0  0  0  0  0  0  0  0  0
   -3.9046    0.1466    0.3553 N   0  0  0  0  0  0  0  0  0  0  0  0
    2.1882   -1.1492   -0.2077 N   0  0  0  0  0  0  0  0  0  0  0  0
   -5.0410   -0.6290    0.8002 C   0  0  0  0  0  0  0  0  0  0  0  0
   -5.6634   -1.4108   -0.3616 C   0  0  0  0  0  0  0  0  0  0  0  0
   -6.0798    0.2617    1.4899 C   0  0  0  0  0  0  0  0  0  0  0  0
   -6.4071   -0.5056   -1.3438 C   0  0  0  0  0  0  0  0  0  0  0  0
   -6.8229    1.1641    0.5048 C   0  0  0  0  0  0  0  0  0  0  0  0
   -7.4427    0.3624   -0.6357 C   0  0  0  0  0  0  0  0  0  0  0  0
   -2.6194   -0.3709    0.3176 C   0  0  0  0  0  0  0  0  0  0  0  0
   -1.6031    0.6323   -0.2091 C   0  0  2  0  0  0  0  0  0  0  0  0
   -1.9320    1.0500   -1.6335 C   0  0  0  0  0  0  0  0  0  0  0  0
    2.0474    0.2012   -0.0215 C   0  0  0  0  0  0  0  0  0  0  0  0
    3.3052    0.7379    0.1427 C   0  0  0  0  0  0  0  0  0  0  0  0
    0.7502    0.8826   -0.0119 C   0  0  0  0  0  0  0  0  0  0  0  0
    4.2349   -0.3274    0.0518 C   0  0  0  0  0  0  0  0  0  0  0  0
    3.5169   -1.4825   -0.1655 C   0  0  0  0  0  0  0  0  0  0  0  0
    3.6273    2.1622    0.3721 C   0  0  0  0  0  0  0  0  0  0  0  0
    3.9536   -2.8817   -0.3392 C   0  0  0  0  0  0  0  0  0  0  0  0
    5.6653   -0.2637    0.1591 C   0  0  0  0  0  0  0  0  0  0  0  0
    7.6352    1.0616   -0.1876 C   0  0  0  0  0  0  0  0  0  0  0  0
   -4.6723   -1.3530    1.5377 H   0  0  0  0  0  0  0  0  0  0  0  0
   -6.3708   -2.1460    0.0432 H   0  0  0  0  0  0  0  0  0  0  0  0
   -4.8944   -1.9764   -0.9014 H   0  0  0  0  0  0  0  0  0  0  0  0
   -5.6009    0.8801    2.2588 H   0  0  0  0  0  0  0  0  0  0  0  0
   -6.8108   -0.3754    2.0040 H   0  0  0  0  0  0  0  0  0  0  0  0
   -5.6903    0.1358   -1.8708 H   0  0  0  0  0  0  0  0  0  0  0  0
   -6.9017   -1.1196   -2.1051 H   0  0  0  0  0  0  0  0  0  0  0  0
   -6.1403    1.9177    0.0950 H   0  0  0  0  0  0  0  0  0  0  0  0
   -7.6103    1.7115    1.0357 H   0  0  0  0  0  0  0  0  0  0  0  0
   -7.9072    1.0448   -1.3564 H   0  0  0  0  0  0  0  0  0  0  0  0
   -8.2424   -0.2754   -0.2395 H   0  0  0  0  0  0  0  0  0  0  0  0
   -4.0659    1.0985    0.0422 H   0  0  0  0  0  0  0  0  0  0  0  0
   -1.6405    1.5000    0.4622 H   0  0  0  0  0  0  0  0  0  0  0  0
   -1.9850    0.1750   -2.2917 H   0  0  0  0  0  0  0  0  0  0  0  0
   -1.1530    1.7034   -2.0407 H   0  0  0  0  0  0  0  0  0  0  0  0
   -2.8860    1.5807   -1.7036 H   0  0  0  0  0  0  0  0  0  0  0  0
    1.4268   -1.7983   -0.3537 H   0  0  0  0  0  0  0  0  0  0  0  0
    3.7615    2.6830   -0.5812 H   0  0  0  0  0  0  0  0  0  0  0  0
    2.8458    2.6760    0.9385 H   0  0  0  0  0  0  0  0  0  0  0  0
    4.5400    2.2823    0.9639 H   0  0  0  0  0  0  0  0  0  0  0  0
    4.7518   -2.9487   -1.0856 H   0  0  0  0  0  0  0  0  0  0  0  0
    3.1336   -3.5255   -0.6745 H   0  0  0  0  0  0  0  0  0  0  0  0
    4.3313   -3.2846    0.6060 H   0  0  0  0  0  0  0  0  0  0  0  0
    7.9636    0.9728    0.8521 H   0  0  0  0  0  0  0  0  0  0  0  0
    8.1190    0.3056   -0.8129 H   0  0  0  0  0  0  0  0  0  0  0  0
    7.9065    2.0530   -0.5594 H   0  0  0  0  0  0  0  0  0  0  0  0
  1 15  1  0  0  0  0
  1 19  1  0  0  0  0
  2 14  2  0  0  0  0
  3 19  2  0  0  0  0
  4 24  1  0  0  0  0
  4 25  1  0  0  0  0
  5 24  2  0  0  0  0
  6  8  1  0  0  0  0
  6 14  1  0  0  0  0
  6 37  1  0  0  0  0
  7 17  1  0  0  0  0
  7 21  1  0  0  0  0
  7 42  1  0  0  0  0
  8  9  1  0  0  0  0
  8 10  1  0  0  0  0
  8 26  1  0  0  0  0
  9 11  1  0  0  0  0
  9 27  1  0  0  0  0
  9 28  1  0  0  0  0
 10 12  1  0  0  0  0
 10 29  1  0  0  0  0
 10 30  1  0  0  0  0
 11 13  1  0  0  0  0
 11 31  1  0  0  0  0
 11 32  1  0  0  0  0
 12 13  1  0  0  0  0
 12 33  1  0  0  0  0
 12 34  1  0  0  0  0
 13 35  1  0  0  0  0
 13 36  1  0  0  0  0
 14 15  1  0  0  0  0
 15 16  1  0  0  0  0
 15 38  1  0  0  0  0
 16 39  1  0  0  0  0
 16 40  1  0  0  0  0
 16 41  1  0  0  0  0
 17 18  2  0  0  0  0
 17 19  1  0  0  0  0
 18 20  1  0  0  0  0
 18 22  1  0  0  0  0
 20 21  2  0  0  0  0
 20 24  1  0  0  0  0
 21 23  1  0  0  0  0
 22 43  1  0  0  0  0
 22 44  1  0  0  0  0
 22 45  1  0  0  0  0
 23 46  1  0  0  0  0
 23 47  1  0  0  0  0
 23 48  1  0  0  0  0
 25 49  1  0  0  0  0
 25 50  1  0  0  0  0
 25 51  1  0  0  0  0
M  END
> <PUBCHEM_COMPOUND_CID>
17395690

> <PUBCHEM_CONFORMER_RMSD>
1.2

> <PUBCHEM_CONFORMER_DIVERSEORDER>
1
23
33
2
59
74
13
27
66
47
53
29
71
60
54
41
12
25
58
40
57
69
37
38
42
20
56
8
17
11
72
43
45
67
26
44
35
4
52
70
30
50
49
5
14
61
32
34
21
46
3
68
16
9
51
62
19
55
22
24
65
36
28
73
39
48
18
10
64
7
6
15
31
63

> <PUBCHEM_MMFF94_PARTIAL_CHARGES>
21
1 -0.43
14 0.57
15 0.34
17 -0.24
18 -0.18
19 0.81
2 -0.57
20 -0.09
21 -0.33
22 0.18
23 0.18
24 0.81
25 0.28
3 -0.57
37 0.37
4 -0.43
42 0.27
5 -0.57
6 -0.73
7 0.03
8 0.3

> <PUBCHEM_EFFECTIVE_ROTOR_COUNT>
9.2

> <PUBCHEM_PHARMACOPHORE_FEATURES>
8
1 2 acceptor
1 3 acceptor
1 5 acceptor
1 6 donor
1 7 cation
1 7 donor
5 7 17 18 20 21 rings
6 8 9 10 11 12 13 rings

> <PUBCHEM_HEAVY_ATOM_COUNT>
25

> <PUBCHEM_ATOM_DEF_STEREO_COUNT>
0

> <PUBCHEM_ATOM_UDEF_STEREO_COUNT>
1

> <PUBCHEM_BOND_DEF_STEREO_COUNT>
0

> <PUBCHEM_BOND_UDEF_STEREO_COUNT>
0

> <PUBCHEM_ISOTOPIC_ATOM_COUNT>
0

> <PUBCHEM_COMPONENT_COUNT>
1

> <PUBCHEM_CACTVS_TAUTO_COUNT>
6

> <PUBCHEM_CONFORMER_ID>
01096FEA00000001

> <PUBCHEM_MMFF94_ENERGY>
32.078

> <PUBCHEM_FEATURE_SELFOVERLAP>
40.594

> <PUBCHEM_SHAPE_FINGERPRINT>
10299344 5 18260547818296136566
11089746 13 17458062642714848833
11315181 36 17967813835018961025
11719270 70 18409733971949914938
12091667 2 18113615678021083683
12107183 9 17611452422024645395
12236239 1 17385722495436370394
12516196 113 18186519908069333937
12596602 18 16950283987931114235
12788726 201 14476694039456310293
12838862 33 18337968822007668728
13533116 47 18187645850852210922
14251764 18 18186521007707510129
15183329 4 18410578392494798307
15361156 5 18059569131785306623
15461852 350 16081092563511934797
15849732 13 16515685532994619565
17093844 174 17418093205387135233
17492 89 18121500430486459690
17857418 61 18187366541171799023
18006028 8 18407760335154922473
19141452 34 18341047437380732695
20238998 120 18060701684592158732
21236236 1 18270683181823922261
21267235 1 18335979879126120198
21521721 280 18262237725689202304
21792961 116 18272656796526204588
22224240 67 17894635842526740070
23402539 116 18113618985235793105
23559900 14 18340209575118444337
23622692 88 15936413329522133305
255183 451 17970900297266088230
3004659 81 18273217486646443656
314173 85 17704069608223926685
4073 2 18200870682396036627
4325135 7 17989203733956813572
5104073 3 18191030204194148248
5283156 175 15410901777254850200

> <PUBCHEM_SHAPE_MULTIPOLES>
475.18
21.87
1.94
1
7.85
0.57
-0.12
-0.33
0.37
-2.33
-0.05
1.58
-0.07
-0.14

> <PUBCHEM_SHAPE_SELFOVERLAP>
983.164

> <PUBCHEM_SHAPE_VOLUME>
271.4

> <PUBCHEM_COORDINATE_TYPE>
2
5
10

$$$$

