65085
  -OEChem-07051212552D

 33 35  0     1  0  0  0  0  0999 V2000
    6.8066    0.8252    0.0000 O   0  0  0  0  0  0  0  0  0  0  0  0
    4.2686    1.3296    0.0000 O   0  0  0  0  0  0  0  0  0  0  0  0
    5.5504    3.0874    0.0000 O   0  0  0  0  0  0  0  0  0  0  0  0
    8.5312    2.0032    0.0000 O   0  0  0  0  0  0  0  0  0  0  0  0
    2.0000   -0.2375    0.0000 O   0  0  0  0  0  0  0  0  0  0  0  0
    5.5443   -0.4327    0.0000 N   0  0  0  0  0  0  0  0  0  0  0  0
    5.5443   -2.0422    0.0000 N   0  0  0  0  0  0  0  0  0  0  0  0
    3.7320   -0.2375    0.0000 N   0  0  0  0  0  0  0  0  0  0  0  0
    2.8660   -1.7374    0.0000 N   0  0  0  0  0  0  0  0  0  0  0  0
    3.7320   -3.2374    0.0000 N   0  0  0  0  0  0  0  0  0  0  0  0
    5.2686    1.3278    0.0000 C   0  0  1  0  0  0  0  0  0  0  0  0
    5.8550    0.5178    0.0000 C   0  0  1  0  0  0  0  0  0  0  0  0
    5.8578    2.1358    0.0000 C   0  0  1  0  0  0  0  0  0  0  0  0
    6.8083    1.8252    0.0000 C   0  0  1  0  0  0  0  0  0  0  0  0
    7.6183    2.4116    0.0000 C   0  0  0  0  0  0  0  0  0  0  0  0
    4.5981   -0.7375    0.0000 C   0  0  0  0  0  0  0  0  0  0  0  0
    6.1279   -1.2374    0.0000 C   0  0  0  0  0  0  0  0  0  0  0  0
    4.5981   -1.7374    0.0000 C   0  0  0  0  0  0  0  0  0  0  0  0
    3.7320   -2.2374    0.0000 C   0  0  0  0  0  0  0  0  0  0  0  0
    2.8660   -0.7375    0.0000 C   0  0  0  0  0  0  0  0  0  0  0  0
    4.9861    0.7759    0.0000 H   0  0  0  0  0  0  0  0  0  0  0  0
    6.2926    0.0786    0.0000 H   0  0  0  0  0  0  0  0  0  0  0  0
    5.2456    2.2339    0.0000 H   0  0  0  0  0  0  0  0  0  0  0  0
    7.3602    1.5427    0.0000 H   0  0  0  0  0  0  0  0  0  0  0  0
    7.9659    2.9250    0.0000 H   0  0  0  0  0  0  0  0  0  0  0  0
    7.1731    2.8430    0.0000 H   0  0  0  0  0  0  0  0  0  0  0  0
    3.9595    1.8670    0.0000 H   0  0  0  0  0  0  0  0  0  0  0  0
    6.7479   -1.2374    0.0000 H   0  0  0  0  0  0  0  0  0  0  0  0
    5.9660    3.5474    0.0000 H   0  0  0  0  0  0  0  0  0  0  0  0
    9.0334    2.3668    0.0000 H   0  0  0  0  0  0  0  0  0  0  0  0
    2.3291   -2.0474    0.0000 H   0  0  0  0  0  0  0  0  0  0  0  0
    3.1951   -3.5474    0.0000 H   0  0  0  0  0  0  0  0  0  0  0  0
    4.2690   -3.5474    0.0000 H   0  0  0  0  0  0  0  0  0  0  0  0
  1 12  1  0  0  0  0
  1 14  1  0  0  0  0
 11  2  1  6  0  0  0
  2 27  1  0  0  0  0
 13  3  1  6  0  0  0
  3 29  1  0  0  0  0
  4 15  1  0  0  0  0
  4 30  1  0  0  0  0
  5 20  2  0  0  0  0
 12  6  1  1  0  0  0
  6 16  1  0  0  0  0
  6 17  1  0  0  0  0
  7 17  2  0  0  0  0
  7 18  1  0  0  0  0
  8 16  2  0  0  0  0
  8 20  1  0  0  0  0
  9 19  1  0  0  0  0
  9 20  1  0  0  0  0
  9 31  1  0  0  0  0
 10 19  1  0  0  0  0
 10 32  1  0  0  0  0
 10 33  1  0  0  0  0
 11 12  1  0  0  0  0
 11 13  1  0  0  0  0
 11 21  1  0  0  0  0
 12 22  1  0  0  0  0
 13 14  1  0  0  0  0
 13 23  1  0  0  0  0
 14 15  1  1  0  0  0
 14 24  1  0  0  0  0
 15 25  1  0  0  0  0
 15 26  1  0  0  0  0
 16 18  1  0  0  0  0
 17 28  1  0  0  0  0
 18 19  2  0  0  0  0
M  END
> <PUBCHEM_COMPOUND_CID>
65085

> <PUBCHEM_COMPOUND_CANONICALIZED>
1

> <PUBCHEM_CACTVS_COMPLEXITY>
544

> <PUBCHEM_CACTVS_HBOND_ACCEPTOR>
7

> <PUBCHEM_CACTVS_HBOND_DONOR>
5

> <PUBCHEM_CACTVS_ROTATABLE_BOND>
2

> <PUBCHEM_CACTVS_SUBSKEYS>
AAADccBzuAAAAAAAAAAAAAAAAAAAASIAAAAgAAAAAAAAAEAAAAAAHgAQCAAACBzhgAYBAAPABgCoAAZhdACAAAEAAAABAAAIABCDUAIAiAAeQAAHAQCTAADwMAIAAAAAAAAAAAAAAAAAAAAAAAAAAAAAAA==

> <PUBCHEM_IUPAC_OPENEYE_NAME>
6-amino-9-[(2R,3R,4S,5R)-3,4-dihydroxy-5-(hydroxymethyl)tetrahydrofuran-2-yl]-1H-purin-2-one

> <PUBCHEM_IUPAC_CAS_NAME>
6-amino-9-[(2R,3R,4S,5R)-3,4-dihydroxy-5-(hydroxymethyl)-2-oxolanyl]-1H-purin-2-one

> <PUBCHEM_IUPAC_NAME>
6-amino-9-[(2R,3R,4S,5R)-3,4-dihydroxy-5-(hydroxymethyl)oxolan-2-yl]-1H-purin-2-one

> <PUBCHEM_IUPAC_SYSTEMATIC_NAME>
6-azanyl-9-[(2R,3R,4S,5R)-5-(hydroxymethyl)-3,4-bis(oxidanyl)oxolan-2-yl]-1H-purin-2-one

> <PUBCHEM_IUPAC_TRADITIONAL_NAME>
6-amino-9-[(2R,3R,4S,5R)-3,4-dihydroxy-5-methylol-tetrahydrofuran-2-yl]-1H-purin-2-one

> <PUBCHEM_IUPAC_INCHI>
InChI=1S/C10H13N5O5/c11-7-4-8(14-10(19)13-7)15(2-12-4)9-6(18)5(17)3(1-16)20-9/h2-3,5-6,9,16-18H,1H2,(H3,11,13,14,19)/t3-,5-,6-,9-/m1/s1

> <PUBCHEM_IUPAC_INCHIKEY>
MIKUYHXYGGJMLM-UUOKFMHZSA-N

> <PUBCHEM_XLOGP3_AA>
-3

> <PUBCHEM_EXACT_MASS>
283.091669

> <PUBCHEM_MOLECULAR_FORMULA>
C10H13N5O5

> <PUBCHEM_MOLECULAR_WEIGHT>
283.24072

> <PUBCHEM_OPENEYE_CAN_SMILES>
C1=NC2=C(NC(=O)N=C2N1C3C(C(C(O3)CO)O)O)N

> <PUBCHEM_OPENEYE_ISO_SMILES>
C1=NC2=C(NC(=O)N=C2N1[C@H]3[C@@H]([C@@H]([C@H](O3)CO)O)O)N

> <PUBCHEM_CACTVS_TPSA>
153

> <PUBCHEM_MONOISOTOPIC_WEIGHT>
283.091669

> <PUBCHEM_TOTAL_CHARGE>
0

> <PUBCHEM_HEAVY_ATOM_COUNT>
20

> <PUBCHEM_ATOM_DEF_STEREO_COUNT>
4

> <PUBCHEM_ATOM_UDEF_STEREO_COUNT>
0

> <PUBCHEM_BOND_DEF_STEREO_COUNT>
0

> <PUBCHEM_BOND_UDEF_STEREO_COUNT>
0

> <PUBCHEM_ISOTOPIC_ATOM_COUNT>
0

> <PUBCHEM_COMPONENT_COUNT>
1

> <PUBCHEM_CACTVS_TAUTO_COUNT>
9

> <PUBCHEM_COORDINATE_TYPE>
1
5
255

> <PUBCHEM_BONDANNOTATIONS>
14  15  5
16  18  8
18  19  8
11  2  6
13  3  6
12  6  5
6  16  8
6  17  8
7  17  8
7  18  8
8  16  8
8  20  8
9  19  8
9  20  8

$$$$

