442179
  -OEChem-07051212573D

 52 54  0     1  0  0  0  0  0999 V2000
   -5.8095   -0.2184   -1.1132 Cl  0  0  0  0  0  0  0  0  0  0  0  0
    5.5148   -1.6220    2.4215 Cl  0  0  0  0  0  0  0  0  0  0  0  0
   -1.9981    2.0791    0.2642 O   0  0  0  0  0  0  0  0  0  0  0  0
   -4.1942    0.4449    1.2830 O   0  0  0  0  0  0  0  0  0  0  0  0
   -3.6777   -2.1245    2.1007 O   0  0  0  0  0  0  0  0  0  0  0  0
    2.4529    0.5352   -0.1754 O   0  0  0  0  0  0  0  0  0  0  0  0
   -1.4349    4.3027    0.3944 O   0  0  0  0  0  0  0  0  0  0  0  0
    3.4374   -0.4860   -1.9898 O   0  0  0  0  0  0  0  0  0  0  0  0
    5.6517   -0.9877   -0.6450 O   0  0  0  0  0  0  0  0  0  0  0  0
   -1.9996   -0.3261    0.5229 C   0  0  2  0  0  0  0  0  0  0  0  0
   -1.4679   -1.7439    0.1538 C   0  0  1  0  0  0  0  0  0  0  0  0
   -3.5428   -0.4189    0.3566 C   0  0  1  0  0  0  0  0  0  0  0  0
   -1.3351    0.8727   -0.1745 C   0  0  2  0  0  0  0  0  0  0  0  0
   -3.8314   -1.8857    0.7038 C   0  0  1  0  0  0  0  0  0  0  0  0
   -2.7274   -2.6288   -0.0378 C   0  0  0  0  0  0  0  0  0  0  0  0
    0.1382    1.0852    0.1818 C   0  0  1  0  0  0  0  0  0  0  0  0
   -0.4026   -1.7889   -0.9223 C   0  0  0  0  0  0  0  0  0  0  0  0
    1.1284    0.2457   -0.6396 C   0  0  2  0  0  0  0  0  0  0  0  0
    0.9489   -1.2693   -0.4977 C   0  0  0  0  0  0  0  0  0  0  0  0
   -4.0472   -0.0660   -1.0486 C   0  0  0  0  0  0  0  0  0  0  0  0
    0.2065    2.5729   -0.0112 C   0  0  0  0  0  0  0  0  0  0  0  0
   -1.1386    3.1333    0.2312 C   0  0  0  0  0  0  0  0  0  0  0  0
   -0.5577   -2.2884   -2.1592 C   0  0  0  0  0  0  0  0  0  0  0  0
    1.2062    3.3772   -0.3834 C   0  0  0  0  0  0  0  0  0  0  0  0
    3.4602   -0.1237   -0.8198 C   0  0  0  0  0  0  0  0  0  0  0  0
    4.6364   -0.3484    0.1278 C   0  0  1  0  0  0  0  0  0  0  0  0
    4.2131   -1.3138    1.2411 C   0  0  0  0  0  0  0  0  0  0  0  0
    5.1703    0.9915    0.6348 C   0  0  0  0  0  0  0  0  0  0  0  0
   -1.8199   -0.1825    1.6008 H   0  0  0  0  0  0  0  0  0  0  0  0
   -0.9876   -2.1369    1.0637 H   0  0  0  0  0  0  0  0  0  0  0  0
   -1.4714    0.8085   -1.2625 H   0  0  0  0  0  0  0  0  0  0  0  0
   -4.8248   -2.2452    0.4255 H   0  0  0  0  0  0  0  0  0  0  0  0
   -3.0132   -2.7423   -1.0861 H   0  0  0  0  0  0  0  0  0  0  0  0
   -2.5559   -3.6297    0.3742 H   0  0  0  0  0  0  0  0  0  0  0  0
    0.3043    0.9015    1.2528 H   0  0  0  0  0  0  0  0  0  0  0  0
    1.0567    0.5356   -1.6972 H   0  0  0  0  0  0  0  0  0  0  0  0
    1.1428   -1.5633    0.5434 H   0  0  0  0  0  0  0  0  0  0  0  0
    1.7076   -1.8250   -1.0603 H   0  0  0  0  0  0  0  0  0  0  0  0
   -3.6158   -0.6901   -1.8351 H   0  0  0  0  0  0  0  0  0  0  0  0
   -3.8424    0.9802   -1.2912 H   0  0  0  0  0  0  0  0  0  0  0  0
   -5.1509    0.2836    1.2166 H   0  0  0  0  0  0  0  0  0  0  0  0
   -4.3176   -1.5557    2.5617 H   0  0  0  0  0  0  0  0  0  0  0  0
   -1.4949   -2.6893   -2.5219 H   0  0  0  0  0  0  0  0  0  0  0  0
    0.2688   -2.2968   -2.8636 H   0  0  0  0  0  0  0  0  0  0  0  0
    2.1994    2.9980   -0.5904 H   0  0  0  0  0  0  0  0  0  0  0  0
    1.0645    4.4475   -0.4946 H   0  0  0  0  0  0  0  0  0  0  0  0
    3.3597   -0.9271    1.8070 H   0  0  0  0  0  0  0  0  0  0  0  0
    3.9320   -2.2875    0.8258 H   0  0  0  0  0  0  0  0  0  0  0  0
    5.3109    1.6913   -0.1978 H   0  0  0  0  0  0  0  0  0  0  0  0
    6.1508    0.8827    1.1103 H   0  0  0  0  0  0  0  0  0  0  0  0
    4.4822    1.4589    1.3471 H   0  0  0  0  0  0  0  0  0  0  0  0
    5.9707   -0.3525   -1.3089 H   0  0  0  0  0  0  0  0  0  0  0  0
  1 20  1  0  0  0  0
  2 27  1  0  0  0  0
  3 13  1  0  0  0  0
  3 22  1  0  0  0  0
  4 12  1  0  0  0  0
  4 41  1  0  0  0  0
  5 14  1  0  0  0  0
  5 42  1  0  0  0  0
  6 18  1  0  0  0  0
  6 25  1  0  0  0  0
  7 22  2  0  0  0  0
  8 25  2  0  0  0  0
  9 26  1  0  0  0  0
  9 52  1  0  0  0  0
 10 11  1  0  0  0  0
 10 12  1  0  0  0  0
 10 13  1  0  0  0  0
 10 29  1  0  0  0  0
 11 15  1  0  0  0  0
 11 17  1  0  0  0  0
 11 30  1  0  0  0  0
 12 14  1  0  0  0  0
 12 20  1  0  0  0  0
 13 16  1  0  0  0  0
 13 31  1  0  0  0  0
 14 15  1  0  0  0  0
 14 32  1  0  0  0  0
 15 33  1  0  0  0  0
 15 34  1  0  0  0  0
 16 18  1  0  0  0  0
 16 21  1  0  0  0  0
 16 35  1  0  0  0  0
 17 19  1  0  0  0  0
 17 23  2  0  0  0  0
 18 19  1  0  0  0  0
 18 36  1  0  0  0  0
 19 37  1  0  0  0  0
 19 38  1  0  0  0  0
 20 39  1  0  0  0  0
 20 40  1  0  0  0  0
 21 22  1  0  0  0  0
 21 24  2  0  0  0  0
 23 43  1  0  0  0  0
 23 44  1  0  0  0  0
 24 45  1  0  0  0  0
 24 46  1  0  0  0  0
 25 26  1  0  0  0  0
 26 27  1  0  0  0  0
 26 28  1  0  0  0  0
 27 47  1  0  0  0  0
 27 48  1  0  0  0  0
 28 49  1  0  0  0  0
 28 50  1  0  0  0  0
 28 51  1  0  0  0  0
M  END
> <PUBCHEM_COMPOUND_CID>
442179

> <PUBCHEM_CONFORMER_RMSD>
0.8

> <PUBCHEM_CONFORMER_DIVERSEORDER>
1
58
17
63
49
56
31
62
39
44
61
59
40
45
46
51
12
19
60
26
21
4
57
25
34
35
41
16
53
54
32
37
52
28
22
24
47
55
11
42
7
23
29
38
33
50
6
64
27
43
8
10
30
36
9
13
15
5
20
18
14
2
3
48

> <PUBCHEM_MMFF94_PARTIAL_CHARGES>
32
1 -0.29
11 0.14
12 0.28
13 0.28
14 0.28
16 0.14
17 -0.28
18 0.28
19 0.14
2 -0.29
20 0.29
21 -0.12
22 0.71
23 -0.3
24 -0.3
25 0.66
26 0.34
27 0.29
3 -0.43
4 -0.68
41 0.4
42 0.4
43 0.15
44 0.15
45 0.15
46 0.15
5 -0.68
52 0.4
6 -0.43
7 -0.57
8 -0.57
9 -0.68

> <PUBCHEM_EFFECTIVE_ROTOR_COUNT>
6.2

> <PUBCHEM_PHARMACOPHORE_FEATURES>
11
1 4 acceptor
1 4 donor
1 5 acceptor
1 5 donor
1 7 acceptor
1 8 acceptor
1 9 acceptor
1 9 donor
5 10 11 12 14 15 rings
5 3 13 16 21 22 rings
7 10 11 13 16 17 18 19 rings

> <PUBCHEM_HEAVY_ATOM_COUNT>
28

> <PUBCHEM_ATOM_DEF_STEREO_COUNT>
8

> <PUBCHEM_ATOM_UDEF_STEREO_COUNT>
0

> <PUBCHEM_BOND_DEF_STEREO_COUNT>
0

> <PUBCHEM_BOND_UDEF_STEREO_COUNT>
0

> <PUBCHEM_ISOTOPIC_ATOM_COUNT>
0

> <PUBCHEM_COMPONENT_COUNT>
1

> <PUBCHEM_CACTVS_TAUTO_COUNT>
1

> <PUBCHEM_CONFORMER_ID>
0006BF4300000001

> <PUBCHEM_MMFF94_ENERGY>
87.7764

> <PUBCHEM_FEATURE_SELFOVERLAP>
55.883

> <PUBCHEM_SHAPE_FINGERPRINT>
10319926 262 18191035693563571258
10906281 52 18336815503151343477
10930396 42 17974608816319597850
1100329 8 18338233752591156447
11115154 58 17604166904252430157
11595378 159 18411992356005857330
12035758 1 18339346514699430331
12236239 1 17918269849355639838
12422481 6 18189877885437130651
12553582 1 18337653266059321429
12596602 18 17846498098328767098
12633257 1 18339629075986439835
12788726 201 18341888615389143506
13004483 165 18339094734673091936
13140716 1 18336817581630496345
13583140 156 18129665188595245131
13782708 43 17531799281867622190
14081887 123 18262236745703299192
14420673 8 17690566703777405850
14840074 17 18186239506829088246
15042514 8 18267584792104954992
15420108 30 17245832546474744604
15475509 35 17414417408549926739
15685185 35 17125055579995763068
16728300 4 17987251086578404579
17349148 13 18342178907564447694
17980427 23 17313372389052334497
19319366 153 17698150761053754174
20600515 1 18115291302880815437
21033648 29 17313101951651204786
22182313 1 17969772167568955790
23366157 5 17768245717555376084
23402539 116 18333734641162347605
23557571 272 18115300211175776436
23558518 356 17978786036839179295
23559900 14 18340773632846399648
2748010 2 17973143295773125791
3004659 81 18060420218558023590
335352 9 18410852153705087725
339767 52 18271816713401885578
5104073 3 18337662010823869809
6004065 56 17968392143432859917
633830 44 13984669123172223018
6913067 236 17967544483759403302
7097593 13 17977383828532322574
7226269 152 18342457053688218071
79837 15 17832143097449304176

> <PUBCHEM_SHAPE_MULTIPOLES>
538.88
11.09
3.66
1.59
7.77
3.79
0.14
-5.22
2.64
-1.38
0.42
0.69
-1.18
-0.49

> <PUBCHEM_SHAPE_SELFOVERLAP>
1123.937

> <PUBCHEM_SHAPE_VOLUME>
305.9

> <PUBCHEM_COORDINATE_TYPE>
2
5
10

$$$$

