17395535
  -OEChem-06241222513D

 37 39  0     0  0  0  0  0  0999 V2000
   -8.0794   -0.7401    0.0056 Br  0  0  0  0  0  0  0  0  0  0  0  0
    5.1864    1.7935   -0.0111 O   0  0  0  0  0  0  0  0  0  0  0  0
    6.6657   -0.1089    0.0071 O   0  0  0  0  0  0  0  0  0  0  0  0
    0.4370    1.1779    0.0132 O   0  0  0  0  0  0  0  0  0  0  0  0
   -2.1110    0.3728   -0.0058 N   0  0  0  0  0  0  0  0  0  0  0  0
    1.2439   -1.0334   -0.0033 N   0  0  0  0  0  0  0  0  0  0  0  0
    2.6252   -0.8338   -0.0006 C   0  0  0  0  0  0  0  0  0  0  0  0
    4.5099    0.6126   -0.0039 C   0  0  0  0  0  0  0  0  0  0  0  0
   -3.4818    0.1322   -0.0037 C   0  0  0  0  0  0  0  0  0  0  0  0
    5.3546   -0.4736    0.0065 C   0  0  0  0  0  0  0  0  0  0  0  0
   -1.1149   -0.6576   -0.0131 C   0  0  0  0  0  0  0  0  0  0  0  0
    3.1379    0.4656   -0.0075 C   0  0  0  0  0  0  0  0  0  0  0  0
   -4.3919    1.1893    0.0045 C   0  0  0  0  0  0  0  0  0  0  0  0
    3.4883   -1.9437    0.0099 C   0  0  0  0  0  0  0  0  0  0  0  0
    4.8740   -1.7669    0.0136 C   0  0  0  0  0  0  0  0  0  0  0  0
    0.2706   -0.0371   -0.0133 C   0  0  0  0  0  0  0  0  0  0  0  0
    6.5517    1.3287   -0.0035 C   0  0  0  0  0  0  0  0  0  0  0  0
   -3.9422   -1.1846   -0.0088 C   0  0  0  0  0  0  0  0  0  0  0  0
   -5.7625    0.9296    0.0076 C   0  0  0  0  0  0  0  0  0  0  0  0
   -3.9263    2.6091    0.0098 C   0  0  0  0  0  0  0  0  0  0  0  0
   -5.3125   -1.4443   -0.0057 C   0  0  0  0  0  0  0  0  0  0  0  0
   -6.2226   -0.3873    0.0024 C   0  0  0  0  0  0  0  0  0  0  0  0
   -1.2033   -1.2798   -0.9116 H   0  0  0  0  0  0  0  0  0  0  0  0
   -1.2003   -1.2889    0.8794 H   0  0  0  0  0  0  0  0  0  0  0  0
    2.5583    1.3745   -0.0189 H   0  0  0  0  0  0  0  0  0  0  0  0
   -1.7971    1.3362   -0.0034 H   0  0  0  0  0  0  0  0  0  0  0  0
    3.0855   -2.9539    0.0154 H   0  0  0  0  0  0  0  0  0  0  0  0
    0.9332   -2.0023   -0.0041 H   0  0  0  0  0  0  0  0  0  0  0  0
    5.5429   -2.6200    0.0214 H   0  0  0  0  0  0  0  0  0  0  0  0
    7.0530    1.7270    0.8861 H   0  0  0  0  0  0  0  0  0  0  0  0
    7.0586    1.7143   -0.8954 H   0  0  0  0  0  0  0  0  0  0  0  0
   -3.2702   -2.0377   -0.0151 H   0  0  0  0  0  0  0  0  0  0  0  0
   -6.4731    1.7529    0.0139 H   0  0  0  0  0  0  0  0  0  0  0  0
   -4.7663    3.3126    0.0161 H   0  0  0  0  0  0  0  0  0  0  0  0
   -3.3335    2.8233   -0.8857 H   0  0  0  0  0  0  0  0  0  0  0  0
   -3.3274    2.8147    0.9033 H   0  0  0  0  0  0  0  0  0  0  0  0
   -5.6553   -2.4759   -0.0098 H   0  0  0  0  0  0  0  0  0  0  0  0
  1 22  1  0  0  0  0
  2  8  1  0  0  0  0
  2 17  1  0  0  0  0
  3 10  1  0  0  0  0
  3 17  1  0  0  0  0
  4 16  2  0  0  0  0
  5  9  1  0  0  0  0
  5 11  1  0  0  0  0
  5 26  1  0  0  0  0
  6  7  1  0  0  0  0
  6 16  1  0  0  0  0
  6 28  1  0  0  0  0
  7 12  2  0  0  0  0
  7 14  1  0  0  0  0
  8 10  2  0  0  0  0
  8 12  1  0  0  0  0
  9 13  2  0  0  0  0
  9 18  1  0  0  0  0
 10 15  1  0  0  0  0
 11 16  1  0  0  0  0
 11 23  1  0  0  0  0
 11 24  1  0  0  0  0
 12 25  1  0  0  0  0
 13 19  1  0  0  0  0
 13 20  1  0  0  0  0
 14 15  2  0  0  0  0
 14 27  1  0  0  0  0
 15 29  1  0  0  0  0
 17 30  1  0  0  0  0
 17 31  1  0  0  0  0
 18 21  2  0  0  0  0
 18 32  1  0  0  0  0
 19 22  2  0  0  0  0
 19 33  1  0  0  0  0
 20 34  1  0  0  0  0
 20 35  1  0  0  0  0
 20 36  1  0  0  0  0
 21 22  1  0  0  0  0
 21 37  1  0  0  0  0
M  END
> <PUBCHEM_COMPOUND_CID>
17395535

> <PUBCHEM_CONFORMER_RMSD>
0.8

> <PUBCHEM_CONFORMER_DIVERSEORDER>
1
44
39
12
13
23
32
52
15
11
38
49
46
50
26
6
2
35
33
14
48
30
53
20
4
40
43
3
10
54
37
19
16
21
41
8
47
27
51
24
17
22
29
9
18
45
42
34
28
5
25
7
36
31

> <PUBCHEM_MMFF94_PARTIAL_CHARGES>
30
1 -0.11
10 0.08
11 0.43
12 -0.15
13 -0.14
14 -0.15
15 -0.15
16 0.57
17 0.56
18 -0.15
19 -0.15
2 -0.36
20 0.14
21 -0.15
22 0.11
25 0.15
26 0.4
27 0.15
28 0.37
29 0.15
3 -0.36
32 0.15
33 0.15
37 0.15
4 -0.57
5 -0.87
6 -0.55
7 0.12
8 0.08
9 0.1

> <PUBCHEM_EFFECTIVE_ROTOR_COUNT>
5.6

> <PUBCHEM_PHARMACOPHORE_FEATURES>
10
1 1 hydrophobe
1 2 acceptor
1 3 acceptor
1 4 acceptor
1 5 cation
1 5 donor
1 6 donor
5 2 3 8 10 17 rings
6 7 8 10 12 14 15 rings
6 9 13 18 19 21 22 rings

> <PUBCHEM_HEAVY_ATOM_COUNT>
22

> <PUBCHEM_ATOM_DEF_STEREO_COUNT>
0

> <PUBCHEM_ATOM_UDEF_STEREO_COUNT>
0

> <PUBCHEM_BOND_DEF_STEREO_COUNT>
0

> <PUBCHEM_BOND_UDEF_STEREO_COUNT>
0

> <PUBCHEM_ISOTOPIC_ATOM_COUNT>
0

> <PUBCHEM_COMPONENT_COUNT>
1

> <PUBCHEM_CACTVS_TAUTO_COUNT>
2

> <PUBCHEM_CONFORMER_ID>
01096F4F00000001

> <PUBCHEM_MMFF94_ENERGY>
70.3845

> <PUBCHEM_FEATURE_SELFOVERLAP>
50.898

> <PUBCHEM_SHAPE_FINGERPRINT>
10299344 5 18113898256546199235
10595046 47 18410575110654545867
10835480 77 18339930415065880621
10968037 39 18411702076509862823
11315181 36 18333730213884502161
11524674 6 16008750187356609319
11719270 70 18260270780638594206
12107183 9 17619068773139883139
12166972 35 18411978057327265632
12236239 1 18334012808729435875
12516196 113 18259705601084943233
13073987 5 18340205288513813659
13167372 99 18337672022545759792
13533116 47 17458624562224668286
13785724 45 17688029034992918106
13899415 154 17385441007996959504
14251732 16 18411419488128923911
14251764 18 18260828194478592115
14251764 46 18131071524544592490
14341114 176 18411415120611420581
14461889 52 18341896247425040890
14528608 73 18409165511315465382
14933364 13 18408884044459307745
15183329 4 18410574002410441985
15196674 1 18410574023811431556
15419008 145 18199482111781437232
15716309 27 18260830402018254159
17834072 33 18407761438824029642
17844677 252 18337665412074087404
18335252 98 18411133615981863403
19427546 62 18270115713585789962
20157964 124 18411135840500414562
20281389 69 18343303681994861485
21150785 3 17822011991014641831
21236236 1 18410012178392910861
21267235 1 18413103941103245731
21315763 28 18411139160172459274
220451 1 16515408477676231591
22896161 15 18410575068021448815
23536379 177 18410575110454092363
23559900 14 18338805507760512137
23569943 247 17129591407917967066
239999 70 18261106435350977118
300161 21 18060424633531137731
3004659 81 18341330080741411826
34797466 226 17748819705287887668
3545911 37 18410012130414690306
4073 2 18059569149028914906
4214541 1 18410575132467076741
4325135 7 18410855447264417671
4340502 62 17275106128783778202
4463277 17 18410293613986610319
5104073 3 18342174517865129080

> <PUBCHEM_SHAPE_MULTIPOLES>
431.12
21.93
1.95
0.6
5.67
0.52
0
-0.16
-0.05
-0.1
-0.01
0.11
-0.02
-0.03

> <PUBCHEM_SHAPE_SELFOVERLAP>
921.235

> <PUBCHEM_SHAPE_VOLUME>
245.3

> <PUBCHEM_COORDINATE_TYPE>
2
5
10

$$$$

