441583
  -OEChem-07051212552D

 48 51  0     1  0  0  0  0  0999 V2000
    6.4927    1.3398    0.0000 O   0  0  0  0  0  0  0  0  0  0  0  0
    7.3686   -0.1984    0.0000 O   0  0  0  0  0  0  0  0  0  0  0  0
    6.4749   -1.8042    0.0000 O   0  0  0  0  0  0  0  0  0  0  0  0
    2.8602   -1.7903    0.0000 O   0  0  0  0  0  0  0  0  0  0  0  0
    4.6635   -2.8500    0.0000 O   0  0  0  0  0  0  0  0  0  0  0  0
    2.9044    1.5420    0.0000 N   0  0  3  0  0  0  0  0  0  0  0  0
    3.8506    1.8467    0.0000 C   0  0  1  0  0  0  0  0  0  0  0  0
    4.7166    1.3467    0.0000 C   0  0  1  0  0  0  0  0  0  0  0  0
    5.5827    1.8467    0.0000 C   0  0  1  0  0  0  0  0  0  0  0  0
    3.8506    2.8467    0.0000 C   0  0  0  0  0  0  0  0  0  0  0  0
    2.9044    3.1514    0.0000 C   0  0  0  0  0  0  0  0  0  0  0  0
    5.5827    2.8467    0.0000 C   0  0  0  0  0  0  0  0  0  0  0  0
    2.3208    2.3467    0.0000 C   0  0  0  0  0  0  0  0  0  0  0  0
    4.7006    0.3052    0.0000 C   0  0  0  0  0  0  0  0  0  0  0  0
    4.7166    3.3467    0.0000 C   0  0  0  0  0  0  0  0  0  0  0  0
    5.5986   -0.2226    0.0000 C   0  0  0  0  0  0  0  0  0  0  0  0
    2.5937    0.5914    0.0000 C   0  0  0  0  0  0  0  0  0  0  0  0
    3.7487   -0.2154    0.0000 C   0  0  0  0  0  0  0  0  0  0  0  0
    6.5007    0.2982    0.0000 C   0  0  0  0  0  0  0  0  0  0  0  0
    5.6070   -1.3075    0.0000 C   0  0  0  0  0  0  0  0  0  0  0  0
    3.7319   -1.3003    0.0000 C   0  0  0  0  0  0  0  0  0  0  0  0
    4.6674   -1.8500    0.0000 C   0  0  0  0  0  0  0  0  0  0  0  0
    6.4788   -2.8042    0.0000 C   0  0  0  0  0  0  0  0  0  0  0  0
    2.0000   -1.2803    0.0000 C   0  0  0  0  0  0  0  0  0  0  0  0
    3.7956   -3.3467    0.0000 C   0  0  0  0  0  0  0  0  0  0  0  0
    3.7607    1.0015    0.0000 H   0  0  0  0  0  0  0  0  0  0  0  0
    3.9773    0.9274    0.0000 H   0  0  0  0  0  0  0  0  0  0  0  0
    6.3155    2.2774    0.0000 H   0  0  0  0  0  0  0  0  0  0  0  0
    3.1554    3.7183    0.0000 H   0  0  0  0  0  0  0  0  0  0  0  0
    2.3670    3.4606    0.0000 H   0  0  0  0  0  0  0  0  0  0  0  0
    6.1933    2.7390    0.0000 H   0  0  0  0  0  0  0  0  0  0  0  0
    5.7947    3.4293    0.0000 H   0  0  0  0  0  0  0  0  0  0  0  0
    1.8599    2.7614    0.0000 H   0  0  0  0  0  0  0  0  0  0  0  0
    1.8599    1.9320    0.0000 H   0  0  0  0  0  0  0  0  0  0  0  0
    4.7166    3.9667    0.0000 H   0  0  0  0  0  0  0  0  0  0  0  0
    2.0044    0.7840    0.0000 H   0  0  0  0  0  0  0  0  0  0  0  0
    2.4011    0.0021    0.0000 H   0  0  0  0  0  0  0  0  0  0  0  0
    3.1831    0.3988    0.0000 H   0  0  0  0  0  0  0  0  0  0  0  0
    3.2178    0.1048    0.0000 H   0  0  0  0  0  0  0  0  0  0  0  0
    5.8588   -2.8066    0.0000 H   0  0  0  0  0  0  0  0  0  0  0  0
    6.4812   -3.4242    0.0000 H   0  0  0  0  0  0  0  0  0  0  0  0
    7.0988   -2.8018    0.0000 H   0  0  0  0  0  0  0  0  0  0  0  0
    2.3162   -0.7470    0.0000 H   0  0  0  0  0  0  0  0  0  0  0  0
    1.4667   -0.9641    0.0000 H   0  0  0  0  0  0  0  0  0  0  0  0
    1.6838   -1.8136    0.0000 H   0  0  0  0  0  0  0  0  0  0  0  0
    3.4876   -2.8086    0.0000 H   0  0  0  0  0  0  0  0  0  0  0  0
    3.2574   -3.6546    0.0000 H   0  0  0  0  0  0  0  0  0  0  0  0
    4.1035   -3.8848    0.0000 H   0  0  0  0  0  0  0  0  0  0  0  0
  1  9  1  0  0  0  0
  1 19  1  0  0  0  0
  2 19  2  0  0  0  0
  3 20  1  0  0  0  0
  3 23  1  0  0  0  0
  4 21  1  0  0  0  0
  4 24  1  0  0  0  0
  5 22  1  0  0  0  0
  5 25  1  0  0  0  0
  6  7  1  0  0  0  0
  6 13  1  0  0  0  0
  6 17  1  0  0  0  0
  7  8  1  0  0  0  0
  7 10  1  0  0  0  0
  7 26  1  1  0  0  0
  8  9  1  0  0  0  0
  8 14  1  0  0  0  0
  8 27  1  6  0  0  0
  9 12  1  0  0  0  0
  9 28  1  6  0  0  0
 10 11  1  0  0  0  0
 10 15  2  0  0  0  0
 11 13  1  0  0  0  0
 11 29  1  0  0  0  0
 11 30  1  0  0  0  0
 12 15  1  0  0  0  0
 12 31  1  0  0  0  0
 12 32  1  0  0  0  0
 13 33  1  0  0  0  0
 13 34  1  0  0  0  0
 14 16  1  0  0  0  0
 14 18  2  0  0  0  0
 15 35  1  0  0  0  0
 16 19  1  0  0  0  0
 16 20  2  0  0  0  0
 17 36  1  0  0  0  0
 17 37  1  0  0  0  0
 17 38  1  0  0  0  0
 18 21  1  0  0  0  0
 18 39  1  0  0  0  0
 20 22  1  0  0  0  0
 21 22  2  0  0  0  0
 23 40  1  0  0  0  0
 23 41  1  0  0  0  0
 23 42  1  0  0  0  0
 24 43  1  0  0  0  0
 24 44  1  0  0  0  0
 24 45  1  0  0  0  0
 25 46  1  0  0  0  0
 25 47  1  0  0  0  0
 25 48  1  0  0  0  0
M  END
> <PUBCHEM_COMPOUND_CID>
441583

> <PUBCHEM_COMPOUND_CANONICALIZED>
1

> <PUBCHEM_CACTVS_COMPLEXITY>
564

> <PUBCHEM_CACTVS_HBOND_ACCEPTOR>
6

> <PUBCHEM_CACTVS_HBOND_DONOR>
0

> <PUBCHEM_CACTVS_ROTATABLE_BOND>
3

> <PUBCHEM_CACTVS_SUBSKEYS>
AAADceB6OAAAAAAAAAAAAAAAAAAAAWAAAAA0QIAAAAAAAECRAAAAHgAAAAAADTzhmAYyDoMABACIAiDSCACCCAAkIAAAiAEOiMgNJzaEtRuGMWIn4BWKqQfa/f/eoAABCAAYQABAAAIQADCAAAAAAAAAAA==

> <PUBCHEM_IUPAC_OPENEYE_NAME>
(5aR,11bS,11cS)-8,9,10-trimethoxy-1-methyl-2,3,5,5a,11b,11c-hexahydroisochromeno[3,4-g]indol-7-one

> <PUBCHEM_IUPAC_CAS_NAME>
(5aR,11bS,11cS)-8,9,10-trimethoxy-1-methyl-2,3,5,5a,11b,11c-hexahydro[2]benzopyrano[3,4-g]indol-7-one

> <PUBCHEM_IUPAC_NAME>
(5aR,11bS,11cS)-8,9,10-trimethoxy-1-methyl-2,3,5,5a,11b,11c-hexahydroisochromeno[3,4-g]indol-7-one

> <PUBCHEM_IUPAC_SYSTEMATIC_NAME>
(5aR,11bS,11cS)-8,9,10-trimethoxy-1-methyl-2,3,5,5a,11b,11c-hexahydroisochromeno[3,4-g]indol-7-one

> <PUBCHEM_IUPAC_TRADITIONAL_NAME>
(5aR,11bS,11cS)-8,9,10-trimethoxy-1-methyl-2,3,5,5a,11b,11c-hexahydroisochromen[3,4-g]indol-7-one

> <PUBCHEM_IUPAC_INCHI>
InChI=1S/C19H23NO5/c1-20-8-7-10-5-6-12-14(16(10)20)11-9-13(22-2)17(23-3)18(24-4)15(11)19(21)25-12/h5,9,12,14,16H,6-8H2,1-4H3/t12-,14-,16-/m1/s1

> <PUBCHEM_IUPAC_INCHIKEY>
OXFLPPXWFHSXSK-XNRPHZJLSA-N

> <PUBCHEM_XLOGP3_AA>
1.9

> <PUBCHEM_EXACT_MASS>
345.157623

> <PUBCHEM_MOLECULAR_FORMULA>
C19H23NO5

> <PUBCHEM_MOLECULAR_WEIGHT>
345.38962

> <PUBCHEM_OPENEYE_CAN_SMILES>
CN1CCC2=CCC3C(C21)C4=CC(=C(C(=C4C(=O)O3)OC)OC)OC

> <PUBCHEM_OPENEYE_ISO_SMILES>
CN1CCC2=CC[C@@H]3[C@H]([C@@H]21)C4=CC(=C(C(=C4C(=O)O3)OC)OC)OC

> <PUBCHEM_CACTVS_TPSA>
57.2

> <PUBCHEM_MONOISOTOPIC_WEIGHT>
345.157623

> <PUBCHEM_TOTAL_CHARGE>
0

> <PUBCHEM_HEAVY_ATOM_COUNT>
25

> <PUBCHEM_ATOM_DEF_STEREO_COUNT>
3

> <PUBCHEM_ATOM_UDEF_STEREO_COUNT>
0

> <PUBCHEM_BOND_DEF_STEREO_COUNT>
0

> <PUBCHEM_BOND_UDEF_STEREO_COUNT>
0

> <PUBCHEM_ISOTOPIC_ATOM_COUNT>
0

> <PUBCHEM_COMPONENT_COUNT>
1

> <PUBCHEM_CACTVS_TAUTO_COUNT>
1

> <PUBCHEM_COORDINATE_TYPE>
1
5
255

> <PUBCHEM_BONDANNOTATIONS>
14  16  8
14  18  8
16  20  8
18  21  8
20  22  8
21  22  8
7  26  5
8  27  6
9  28  6

$$$$

