68617
  -OEChem-07051212533D

 37 39  0     1  0  0  0  0  0999 V2000
   -3.2742    0.9409   -2.5357 Cl  0  0  0  0  0  0  0  0  0  0  0  0
   -5.5574   -0.0587   -0.4728 Cl  0  0  0  0  0  0  0  0  0  0  0  0
    2.7887    1.7872   -1.0200 N   0  0  0  0  0  0  0  0  0  0  0  0
    0.2339    0.1242    1.2080 C   0  0  2  0  0  0  0  0  0  0  0  0
    0.7143    1.5897    1.2172 C   0  0  0  0  0  0  0  0  0  0  0  0
    2.9400    0.9883    0.2006 C   0  0  1  0  0  0  0  0  0  0  0  0
    2.2278    1.6699    1.3760 C   0  0  0  0  0  0  0  0  0  0  0  0
    1.1484   -0.8229    0.4352 C   0  0  0  0  0  0  0  0  0  0  0  0
    2.4234   -0.4196   -0.0136 C   0  0  0  0  0  0  0  0  0  0  0  0
   -1.2243    0.0837    0.7682 C   0  0  0  0  0  0  0  0  0  0  0  0
    0.7545   -2.1603    0.2358 C   0  0  0  0  0  0  0  0  0  0  0  0
    3.2423   -1.3415   -0.6912 C   0  0  0  0  0  0  0  0  0  0  0  0
   -1.5674    0.4785   -0.5206 C   0  0  0  0  0  0  0  0  0  0  0  0
   -2.2012   -0.3480    1.6593 C   0  0  0  0  0  0  0  0  0  0  0  0
    1.5796   -3.0634   -0.4348 C   0  0  0  0  0  0  0  0  0  0  0  0
    2.8214   -2.6526   -0.9032 C   0  0  0  0  0  0  0  0  0  0  0  0
    3.2758    3.1397   -0.8087 C   0  0  0  0  0  0  0  0  0  0  0  0
   -2.9024    0.4411   -0.9229 C   0  0  0  0  0  0  0  0  0  0  0  0
   -3.5362   -0.3853    1.2572 C   0  0  0  0  0  0  0  0  0  0  0  0
   -3.8868    0.0092   -0.0341 C   0  0  0  0  0  0  0  0  0  0  0  0
    0.2927   -0.2232    2.2507 H   0  0  0  0  0  0  0  0  0  0  0  0
    0.2294    2.1237    2.0448 H   0  0  0  0  0  0  0  0  0  0  0  0
    0.4230    2.1258    0.3061 H   0  0  0  0  0  0  0  0  0  0  0  0
    4.0062    0.9193    0.4586 H   0  0  0  0  0  0  0  0  0  0  0  0
    2.5448    2.7030    1.5456 H   0  0  0  0  0  0  0  0  0  0  0  0
    2.5032    1.1445    2.3023 H   0  0  0  0  0  0  0  0  0  0  0  0
    3.3337    1.3547   -1.7664 H   0  0  0  0  0  0  0  0  0  0  0  0
   -0.2038   -2.5160    0.6065 H   0  0  0  0  0  0  0  0  0  0  0  0
    4.2223   -1.0391   -1.0535 H   0  0  0  0  0  0  0  0  0  0  0  0
   -0.7998    0.8068   -1.2176 H   0  0  0  0  0  0  0  0  0  0  0  0
   -1.9427   -0.6584    2.6678 H   0  0  0  0  0  0  0  0  0  0  0  0
    1.2528   -4.0882   -0.5854 H   0  0  0  0  0  0  0  0  0  0  0  0
    3.4663   -3.3532   -1.4250 H   0  0  0  0  0  0  0  0  0  0  0  0
    2.5552    3.7632   -0.2714 H   0  0  0  0  0  0  0  0  0  0  0  0
    4.2487    3.1675   -0.3067 H   0  0  0  0  0  0  0  0  0  0  0  0
    3.4082    3.6190   -1.7853 H   0  0  0  0  0  0  0  0  0  0  0  0
   -4.2904   -0.7246    1.9629 H   0  0  0  0  0  0  0  0  0  0  0  0
  1 18  1  0  0  0  0
  2 20  1  0  0  0  0
  3  6  1  0  0  0  0
  3 17  1  0  0  0  0
  3 27  1  0  0  0  0
  4  5  1  0  0  0  0
  4  8  1  0  0  0  0
  4 10  1  0  0  0  0
  4 21  1  0  0  0  0
  5  7  1  0  0  0  0
  5 22  1  0  0  0  0
  5 23  1  0  0  0  0
  6  7  1  0  0  0  0
  6  9  1  0  0  0  0
  6 24  1  0  0  0  0
  7 25  1  0  0  0  0
  7 26  1  0  0  0  0
  8  9  1  0  0  0  0
  8 11  2  0  0  0  0
  9 12  2  0  0  0  0
 10 13  2  0  0  0  0
 10 14  1  0  0  0  0
 11 15  1  0  0  0  0
 11 28  1  0  0  0  0
 12 16  1  0  0  0  0
 12 29  1  0  0  0  0
 13 18  1  0  0  0  0
 13 30  1  0  0  0  0
 14 19  2  0  0  0  0
 14 31  1  0  0  0  0
 15 16  2  0  0  0  0
 15 32  1  0  0  0  0
 16 33  1  0  0  0  0
 17 34  1  0  0  0  0
 17 35  1  0  0  0  0
 17 36  1  0  0  0  0
 18 20  2  0  0  0  0
 19 20  1  0  0  0  0
 19 37  1  0  0  0  0
M  END
> <PUBCHEM_COMPOUND_CID>
68617

> <PUBCHEM_CONFORMER_RMSD>
0.6

> <PUBCHEM_CONFORMER_DIVERSEORDER>
1
13
16
4
7
11
14
15
8
12
3
9
5
10
6
2

> <PUBCHEM_MMFF94_PARTIAL_CHARGES>
26
1 -0.18
10 -0.14
11 -0.15
12 -0.15
13 -0.15
14 -0.15
15 -0.15
16 -0.15
17 0.27
18 0.18
19 -0.15
2 -0.18
20 0.18
27 0.36
28 0.15
29 0.15
3 -0.9
30 0.15
31 0.15
32 0.15
33 0.15
37 0.15
4 0.29
6 0.41
8 -0.14
9 -0.14

> <PUBCHEM_EFFECTIVE_ROTOR_COUNT>
2.8

> <PUBCHEM_PHARMACOPHORE_FEATURES>
5
1 3 cation
1 3 donor
6 10 13 14 18 19 20 rings
6 4 5 6 7 8 9 rings
6 8 9 11 12 15 16 rings

> <PUBCHEM_HEAVY_ATOM_COUNT>
20

> <PUBCHEM_ATOM_DEF_STEREO_COUNT>
2

> <PUBCHEM_ATOM_UDEF_STEREO_COUNT>
0

> <PUBCHEM_BOND_DEF_STEREO_COUNT>
0

> <PUBCHEM_BOND_UDEF_STEREO_COUNT>
0

> <PUBCHEM_ISOTOPIC_ATOM_COUNT>
0

> <PUBCHEM_COMPONENT_COUNT>
1

> <PUBCHEM_CACTVS_TAUTO_COUNT>
1

> <PUBCHEM_CONFORMER_ID>
00010C0900000001

> <PUBCHEM_MMFF94_ENERGY>
52.2012

> <PUBCHEM_FEATURE_SELFOVERLAP>
25.392

> <PUBCHEM_SHAPE_FINGERPRINT>
10165383 225 17978203003529491856
10646746 165 16774086167169026053
11759241 127 18130514011708648967
12236239 1 17095242540232913707
12553582 1 17898004878676220486
12670546 177 18271528607053815423
12730499 353 18337665305100656659
13134695 92 18115316695112389904
13533116 47 18187362130551681043
13836976 161 18408325458366739086
13911987 19 18121204403685984888
14739800 52 15697426716746605060
14863182 85 17894636972024193262
14866123 147 8425600995850091317
15502722 9 18410007736821395612
15961568 22 17130983166331911413
16752209 62 15647053811427603681
16945 1 18333728048466766922
17134986 127 18195798571317730412
1813 80 17606385803677306702
18186145 218 18130229379883437617
19786989 88 18341330002782939688
20361792 2 17750805543362157827
20645477 70 18409171030058530715
20671657 53 18121777493866930726
20715895 44 12749588905735328911
21639500 275 18334016077225870130
22112679 90 16878218770325891675
2255824 54 18040436585800762530
23114952 82 18343577464711414996
23419403 2 17337251586768545698
23526113 38 17987229117677714851
23557571 272 17274240757128961611
23559900 14 17846781836030822795
23598288 3 17242727843059212481
23598291 2 17604692486955777905
238 59 18339657697078755967
2748010 2 18119232988106210842
3060560 45 18262239915405137152
312423 11 17967802895167578529
3323516 105 18410294726858231547
458136 41 18264749000839411034
46194498 28 18343301487387620399
5281201 14 18342741866250351837
6049 1 17988070197070539169
633830 44 17677879146086191440
7471813 234 17896044406625370850
77492 1 17095241436463216027
81228 2 17255400947441125338
8272917 22 18334849537442059913
9981440 41 15074847889429041456

> <PUBCHEM_SHAPE_MULTIPOLES>
410.35
8.12
2.82
1.69
8.8
0.46
-0.38
-0.96
-2.47
-4.71
-0.82
1.18
-0.54
0.85

> <PUBCHEM_SHAPE_SELFOVERLAP>
867.203

> <PUBCHEM_SHAPE_VOLUME>
229.9

> <PUBCHEM_COORDINATE_TYPE>
2
5
10

$$$$

