582861
  -OEChem-06241222442D

 89 92  0     1  0  0  0  0  0999 V2000
    2.8641   -3.7836    0.0000 Si  0  0  0  0  0  0  0  0  0  0  0  0
    3.7282   -4.2869    0.0000 O   0  0  0  0  0  0  0  0  0  0  0  0
   13.3137    0.6393    0.0000 O   0  0  0  0  0  0  0  0  0  0  0  0
   15.2242    3.6971    0.0000 O   0  0  0  0  0  0  0  0  0  0  0  0
   13.5778    4.2352    0.0000 O   0  0  0  0  0  0  0  0  0  0  0  0
   12.9565    2.3342    0.0000 N   0  0  0  0  0  0  0  0  0  0  0  0
    9.1213   -1.2346    0.0000 C   0  0  3  0  0  0  0  0  0  0  0  0
    9.1213   -2.2346    0.0000 C   0  0  3  0  0  0  0  0  0  0  0  0
    8.2552   -2.7346    0.0000 C   0  0  3  0  0  0  0  0  0  0  0  0
    7.3892   -2.2346    0.0000 C   0  0  3  0  0  0  0  0  0  0  0  0
    6.4792   -2.7414    0.0000 C   0  0  3  0  0  0  0  0  0  0  0  0
   10.0675   -0.9298    0.0000 C   0  0  3  0  0  0  0  0  0  0  0  0
    6.4712   -3.7830    0.0000 C   0  0  3  0  0  0  0  0  0  0  0  0
    8.2552   -0.7346    0.0000 C   0  0  0  0  0  0  0  0  0  0  0  0
    7.3892   -1.2346    0.0000 C   0  0  0  0  0  0  0  0  0  0  0  0
   10.0675   -2.5393    0.0000 C   0  0  0  0  0  0  0  0  0  0  0  0
    8.2713   -3.7761    0.0000 C   0  0  0  0  0  0  0  0  0  0  0  0
   10.6511   -1.7346    0.0000 C   0  0  0  0  0  0  0  0  0  0  0  0
    7.3733   -4.3038    0.0000 C   0  0  0  0  0  0  0  0  0  0  0  0
    5.5524   -2.1773    0.0000 C   0  0  0  0  0  0  0  0  0  0  0  0
    9.1213   -0.2346    0.0000 C   0  0  0  0  0  0  0  0  0  0  0  0
    5.5358   -4.3327    0.0000 C   0  0  0  0  0  0  0  0  0  0  0  0
   10.3781    0.0207    0.0000 C   0  0  3  0  0  0  0  0  0  0  0  0
    6.4869   -1.7414    0.0000 C   0  0  0  0  0  0  0  0  0  0  0  0
    4.6045   -2.7053    0.0000 C   0  0  0  0  0  0  0  0  0  0  0  0
    4.5961   -3.7902    0.0000 C   0  0  3  0  0  0  0  0  0  0  0  0
   11.3567    0.2269    0.0000 C   0  0  0  0  0  0  0  0  0  0  0  0
    9.7103    0.7650    0.0000 C   0  0  0  0  0  0  0  0  0  0  0  0
   11.6673    1.1774    0.0000 C   0  0  0  0  0  0  0  0  0  0  0  0
   12.6458    1.3836    0.0000 C   0  0  0  0  0  0  0  0  0  0  0  0
    2.0000   -3.2802    0.0000 C   0  0  0  0  0  0  0  0  0  0  0  0
    2.3608   -4.6476    0.0000 C   0  0  0  0  0  0  0  0  0  0  0  0
    3.3674   -2.9195    0.0000 C   0  0  0  0  0  0  0  0  0  0  0  0
   13.9350    2.5404    0.0000 C   0  0  0  0  0  0  0  0  0  0  0  0
   14.2457    3.4909    0.0000 C   0  0  0  0  0  0  0  0  0  0  0  0
   15.5348    4.6476    0.0000 C   0  0  0  0  0  0  0  0  0  0  0  0
    9.2112   -3.0798    0.0000 H   0  0  0  0  0  0  0  0  0  0  0  0
    8.9946   -3.1539    0.0000 H   0  0  0  0  0  0  0  0  0  0  0  0
    8.1253   -1.8096    0.0000 H   0  0  0  0  0  0  0  0  0  0  0  0
   10.9072   -0.7979    0.0000 H   0  0  0  0  0  0  0  0  0  0  0  0
    6.4745   -4.6330    0.0000 H   0  0  0  0  0  0  0  0  0  0  0  0
    8.6538   -0.2596    0.0000 H   0  0  0  0  0  0  0  0  0  0  0  0
    7.8567   -0.2596    0.0000 H   0  0  0  0  0  0  0  0  0  0  0  0
    7.1772   -0.6520    0.0000 H   0  0  0  0  0  0  0  0  0  0  0  0
    6.7786   -1.3422    0.0000 H   0  0  0  0  0  0  0  0  0  0  0  0
    9.8164   -3.1062    0.0000 H   0  0  0  0  0  0  0  0  0  0  0  0
   10.6049   -2.8485    0.0000 H   0  0  0  0  0  0  0  0  0  0  0  0
    8.4893   -4.3565    0.0000 H   0  0  0  0  0  0  0  0  0  0  0  0
    8.8804   -3.6606    0.0000 H   0  0  0  0  0  0  0  0  0  0  0  0
   11.1120   -2.1493    0.0000 H   0  0  0  0  0  0  0  0  0  0  0  0
   11.1120   -1.3198    0.0000 H   0  0  0  0  0  0  0  0  0  0  0  0
    6.9760   -4.7798    0.0000 H   0  0  0  0  0  0  0  0  0  0  0  0
    7.7742   -4.7767    0.0000 H   0  0  0  0  0  0  0  0  0  0  0  0
    5.9606   -1.7107    0.0000 H   0  0  0  0  0  0  0  0  0  0  0  0
    5.1625   -1.6953    0.0000 H   0  0  0  0  0  0  0  0  0  0  0  0
    9.7413   -0.2346    0.0000 H   0  0  0  0  0  0  0  0  0  0  0  0
    9.1213    0.3854    0.0000 H   0  0  0  0  0  0  0  0  0  0  0  0
    8.5013   -0.2346    0.0000 H   0  0  0  0  0  0  0  0  0  0  0  0
    5.1385   -4.8087    0.0000 H   0  0  0  0  0  0  0  0  0  0  0  0
    5.9367   -4.8056    0.0000 H   0  0  0  0  0  0  0  0  0  0  0  0
   10.6422    0.8286    0.0000 H   0  0  0  0  0  0  0  0  0  0  0  0
    7.1069   -1.7462    0.0000 H   0  0  0  0  0  0  0  0  0  0  0  0
    6.4917   -1.1214    0.0000 H   0  0  0  0  0  0  0  0  0  0  0  0
    5.8669   -1.7367    0.0000 H   0  0  0  0  0  0  0  0  0  0  0  0
    4.3999   -2.1200    0.0000 H   0  0  0  0  0  0  0  0  0  0  0  0
    3.9928   -2.8066    0.0000 H   0  0  0  0  0  0  0  0  0  0  0  0
    4.5945   -4.6402    0.0000 H   0  0  0  0  0  0  0  0  0  0  0  0
   11.3772   -0.3927    0.0000 H   0  0  0  0  0  0  0  0  0  0  0  0
   11.9705    0.1396    0.0000 H   0  0  0  0  0  0  0  0  0  0  0  0
   10.1718    1.1791    0.0000 H   0  0  0  0  0  0  0  0  0  0  0  0
    9.2962    1.2265    0.0000 H   0  0  0  0  0  0  0  0  0  0  0  0
    9.2488    0.3509    0.0000 H   0  0  0  0  0  0  0  0  0  0  0  0
   11.6468    1.7971    0.0000 H   0  0  0  0  0  0  0  0  0  0  0  0
   11.0535    1.2648    0.0000 H   0  0  0  0  0  0  0  0  0  0  0  0
    2.3121   -2.7445    0.0000 H   0  0  0  0  0  0  0  0  0  0  0  0
    1.4643   -2.9682    0.0000 H   0  0  0  0  0  0  0  0  0  0  0  0
    1.6879   -3.8160    0.0000 H   0  0  0  0  0  0  0  0  0  0  0  0
    1.8250   -4.3356    0.0000 H   0  0  0  0  0  0  0  0  0  0  0  0
    2.0487   -5.1834    0.0000 H   0  0  0  0  0  0  0  0  0  0  0  0
    2.8965   -4.9597    0.0000 H   0  0  0  0  0  0  0  0  0  0  0  0
    3.9032   -3.2315    0.0000 H   0  0  0  0  0  0  0  0  0  0  0  0
    3.6795   -2.3837    0.0000 H   0  0  0  0  0  0  0  0  0  0  0  0
    2.8317   -2.6074    0.0000 H   0  0  0  0  0  0  0  0  0  0  0  0
   12.5424    2.7956    0.0000 H   0  0  0  0  0  0  0  0  0  0  0  0
   13.9556    1.9207    0.0000 H   0  0  0  0  0  0  0  0  0  0  0  0
   14.5488    2.4530    0.0000 H   0  0  0  0  0  0  0  0  0  0  0  0
   16.1241    4.4550    0.0000 H   0  0  0  0  0  0  0  0  0  0  0  0
   15.7274    5.2370    0.0000 H   0  0  0  0  0  0  0  0  0  0  0  0
   14.9455    4.8403    0.0000 H   0  0  0  0  0  0  0  0  0  0  0  0
  1  2  1  0  0  0  0
  1 31  1  0  0  0  0
  1 32  1  0  0  0  0
  1 33  1  0  0  0  0
  2 26  1  0  0  0  0
  3 30  2  0  0  0  0
  4 35  1  0  0  0  0
  4 36  1  0  0  0  0
  5 35  2  0  0  0  0
  6 30  1  0  0  0  0
  6 34  1  0  0  0  0
  6 84  1  0  0  0  0
  7  8  1  0  0  0  0
  7 12  1  0  0  0  0
  7 14  1  0  0  0  0
  7 21  1  0  0  0  0
  8  9  1  0  0  0  0
  8 16  1  0  0  0  0
  8 37  1  0  0  0  0
  9 10  1  0  0  0  0
  9 17  1  0  0  0  0
  9 38  1  0  0  0  0
 10 11  1  0  0  0  0
 10 15  1  0  0  0  0
 10 39  1  0  0  0  0
 11 13  1  0  0  0  0
 11 20  1  0  0  0  0
 11 24  1  0  0  0  0
 12 18  1  0  0  0  0
 12 23  1  0  0  0  0
 12 40  1  0  0  0  0
 13 19  1  0  0  0  0
 13 22  1  0  0  0  0
 13 41  1  0  0  0  0
 14 15  1  0  0  0  0
 14 42  1  0  0  0  0
 14 43  1  0  0  0  0
 15 44  1  0  0  0  0
 15 45  1  0  0  0  0
 16 18  1  0  0  0  0
 16 46  1  0  0  0  0
 16 47  1  0  0  0  0
 17 19  1  0  0  0  0
 17 48  1  0  0  0  0
 17 49  1  0  0  0  0
 18 50  1  0  0  0  0
 18 51  1  0  0  0  0
 19 52  1  0  0  0  0
 19 53  1  0  0  0  0
 20 25  1  0  0  0  0
 20 54  1  0  0  0  0
 20 55  1  0  0  0  0
 21 56  1  0  0  0  0
 21 57  1  0  0  0  0
 21 58  1  0  0  0  0
 22 26  1  0  0  0  0
 22 59  1  0  0  0  0
 22 60  1  0  0  0  0
 23 27  1  0  0  0  0
 23 28  1  0  0  0  0
 23 61  1  0  0  0  0
 24 62  1  0  0  0  0
 24 63  1  0  0  0  0
 24 64  1  0  0  0  0
 25 26  1  0  0  0  0
 25 65  1  0  0  0  0
 25 66  1  0  0  0  0
 26 67  1  0  0  0  0
 27 29  1  0  0  0  0
 27 68  1  0  0  0  0
 27 69  1  0  0  0  0
 28 70  1  0  0  0  0
 28 71  1  0  0  0  0
 28 72  1  0  0  0  0
 29 30  1  0  0  0  0
 29 73  1  0  0  0  0
 29 74  1  0  0  0  0
 31 75  1  0  0  0  0
 31 76  1  0  0  0  0
 31 77  1  0  0  0  0
 32 78  1  0  0  0  0
 32 79  1  0  0  0  0
 32 80  1  0  0  0  0
 33 81  1  0  0  0  0
 33 82  1  0  0  0  0
 33 83  1  0  0  0  0
 34 35  1  0  0  0  0
 34 85  1  0  0  0  0
 34 86  1  0  0  0  0
 36 87  1  0  0  0  0
 36 88  1  0  0  0  0
 36 89  1  0  0  0  0
M  END
> <PUBCHEM_COMPOUND_CID>
582861

> <PUBCHEM_COMPOUND_CANONICALIZED>
1

> <PUBCHEM_CACTVS_COMPLEXITY>
811

> <PUBCHEM_CACTVS_HBOND_ACCEPTOR>
4

> <PUBCHEM_CACTVS_HBOND_DONOR>
1

> <PUBCHEM_CACTVS_ROTATABLE_BOND>
9

> <PUBCHEM_CACTVS_SUBSKEYS>
AAADcfB6OAgAAAAAAAAAAAAAAAAAAYAAAAAwYMAAAAAAAGDAAAAAHhAQAEAADxThgAZCCALABAEIAAGQGAAAAAAAAAAAAIGIAAACABIAgCAFAAAEFgCQAAGYyPCPgAAAAAAAAADAAAYAACAAAQAACAAAAA==

> <PUBCHEM_IUPAC_OPENEYE_NAME>
methyl 2-[4-(10,13-dimethyl-3-trimethylsilyloxy-2,3,4,5,6,7,8,9,11,12,14,15,16,17-tetradecahydro-1H-cyclopenta[a]phenanthren-17-yl)pentanoylamino]acetate

> <PUBCHEM_IUPAC_CAS_NAME>
2-[[4-(10,13-dimethyl-3-trimethylsilyloxy-2,3,4,5,6,7,8,9,11,12,14,15,16,17-tetradecahydro-1H-cyclopenta[a]phenanthren-17-yl)-1-oxopentyl]amino]acetic acid methyl ester

> <PUBCHEM_IUPAC_NAME>
methyl 2-[4-(10,13-dimethyl-3-trimethylsilyloxy-2,3,4,5,6,7,8,9,11,12,14,15,16,17-tetradecahydro-1H-cyclopenta[a]phenanthren-17-yl)pentanoylamino]acetate

> <PUBCHEM_IUPAC_SYSTEMATIC_NAME>
methyl 2-[4-(10,13-dimethyl-3-trimethylsilyloxy-2,3,4,5,6,7,8,9,11,12,14,15,16,17-tetradecahydro-1H-cyclopenta[a]phenanthren-17-yl)pentanoylamino]ethanoate

> <PUBCHEM_IUPAC_TRADITIONAL_NAME>
2-[4-(10,13-dimethyl-3-trimethylsilyloxy-2,3,4,5,6,7,8,9,11,12,14,15,16,17-tetradecahydro-1H-cyclopenta[a]phenanthren-17-yl)pentanoylamino]acetic acid methyl ester

> <PUBCHEM_IUPAC_INCHI>
InChI=1S/C30H53NO4Si/c1-20(8-13-27(32)31-19-28(33)34-4)24-11-12-25-23-10-9-21-18-22(35-36(5,6)7)14-16-29(21,2)26(23)15-17-30(24,25)3/h20-26H,8-19H2,1-7H3,(H,31,32)

> <PUBCHEM_IUPAC_INCHIKEY>
QIONXNDQGIJPJY-UHFFFAOYSA-N

> <PUBCHEM_EXACT_MASS>
519.374386

> <PUBCHEM_MOLECULAR_FORMULA>
C30H53NO4Si

> <PUBCHEM_MOLECULAR_WEIGHT>
519.83162

> <PUBCHEM_OPENEYE_CAN_SMILES>
CC(CCC(=O)NCC(=O)OC)C1CCC2C1(CCC3C2CCC4C3(CCC(C4)O[Si](C)(C)C)C)C

> <PUBCHEM_OPENEYE_ISO_SMILES>
CC(CCC(=O)NCC(=O)OC)C1CCC2C1(CCC3C2CCC4C3(CCC(C4)O[Si](C)(C)C)C)C

> <PUBCHEM_CACTVS_TPSA>
64.6

> <PUBCHEM_MONOISOTOPIC_WEIGHT>
519.374386

> <PUBCHEM_TOTAL_CHARGE>
0

> <PUBCHEM_HEAVY_ATOM_COUNT>
36

> <PUBCHEM_ATOM_DEF_STEREO_COUNT>
0

> <PUBCHEM_ATOM_UDEF_STEREO_COUNT>
9

> <PUBCHEM_BOND_DEF_STEREO_COUNT>
0

> <PUBCHEM_BOND_UDEF_STEREO_COUNT>
0

> <PUBCHEM_ISOTOPIC_ATOM_COUNT>
0

> <PUBCHEM_COMPONENT_COUNT>
1

> <PUBCHEM_CACTVS_TAUTO_COUNT>
2

> <PUBCHEM_COORDINATE_TYPE>
1
5
255

> <PUBCHEM_BONDANNOTATIONS>
10  39  3
11  24  3
12  40  3
13  41  3
23  61  3
26  67  3
7  21  3
8  37  3
9  38  3

$$$$

