55004
  -OEChem-07051213142D

  6  5  0     1  0  0  0  0  0999 V2000
    2.0000    0.5000    0.0000 Br  0  0  0  0  0  0  0  0  0  0  0  0
    2.8660   -1.0000    0.0000 Cl  0  0  0  0  0  0  0  0  0  0  0  0
    4.5981    1.0000    0.0000 N   0  0  0  0  0  0  0  0  0  0  0  0
    2.8660    0.0000    0.0000 C   0  0  3  0  0  0  0  0  0  0  0  0
    3.7320    0.5000    0.0000 C   0  0  0  0  0  0  0  0  0  0  0  0
    2.8660    0.6200    0.0000 H   0  0  0  0  0  0  0  0  0  0  0  0
  1  4  1  0  0  0  0
  2  4  1  0  0  0  0
  3  5  3  0  0  0  0
  4  5  1  0  0  0  0
  4  6  1  0  0  0  0
M  END
> <PUBCHEM_COMPOUND_CID>
55004

> <PUBCHEM_COMPOUND_CANONICALIZED>
1

> <PUBCHEM_CACTVS_COMPLEXITY>
63.3

> <PUBCHEM_CACTVS_HBOND_ACCEPTOR>
1

> <PUBCHEM_CACTVS_HBOND_DONOR>
0

> <PUBCHEM_CACTVS_ROTATABLE_BOND>
0

> <PUBCHEM_CACTVS_SUBSKEYS>
AAADcQBCAAAEEAAAAAAAAAAAAAAAAAAAAAAAAAAAAAAAAAAAAAAAHAJAAAABQAOBAEAAAAAAAAAQBAAAAAAAAAAAAAAAAAAAAAAAAAAAAAAAAAAAAAAAAAAAAAAAAAAAAAAAAAAAAAAAAAAAAAAAAAAAAA==

> <PUBCHEM_IUPAC_OPENEYE_NAME>
2-bromo-2-chloro-acetonitrile

> <PUBCHEM_IUPAC_CAS_NAME>
2-bromo-2-chloroacetonitrile

> <PUBCHEM_IUPAC_NAME>
2-bromo-2-chloroacetonitrile

> <PUBCHEM_IUPAC_SYSTEMATIC_NAME>
2-bromanyl-2-chloranyl-ethanenitrile

> <PUBCHEM_IUPAC_TRADITIONAL_NAME>
2-bromo-2-chloro-acetonitrile

> <PUBCHEM_IUPAC_INCHI>
InChI=1S/C2HBrClN/c3-2(4)1-5/h2H

> <PUBCHEM_IUPAC_INCHIKEY>
BMWPPNAUMLRKML-UHFFFAOYSA-N

> <PUBCHEM_XLOGP3_AA>
1.5

> <PUBCHEM_EXACT_MASS>
152.898089

> <PUBCHEM_MOLECULAR_FORMULA>
C2HBrClN

> <PUBCHEM_MOLECULAR_WEIGHT>
154.39304

> <PUBCHEM_OPENEYE_CAN_SMILES>
C(#N)C(Cl)Br

> <PUBCHEM_OPENEYE_ISO_SMILES>
C(#N)C(Cl)Br

> <PUBCHEM_CACTVS_TPSA>
23.8

> <PUBCHEM_MONOISOTOPIC_WEIGHT>
152.898089

> <PUBCHEM_TOTAL_CHARGE>
0

> <PUBCHEM_HEAVY_ATOM_COUNT>
5

> <PUBCHEM_ATOM_DEF_STEREO_COUNT>
0

> <PUBCHEM_ATOM_UDEF_STEREO_COUNT>
1

> <PUBCHEM_BOND_DEF_STEREO_COUNT>
0

> <PUBCHEM_BOND_UDEF_STEREO_COUNT>
0

> <PUBCHEM_ISOTOPIC_ATOM_COUNT>
0

> <PUBCHEM_COMPONENT_COUNT>
1

> <PUBCHEM_CACTVS_TAUTO_COUNT>
1

> <PUBCHEM_COORDINATE_TYPE>
1
5
255

> <PUBCHEM_BONDANNOTATIONS>
4  1  3

$$$$

