13375
  -OEChem-06261209273D

 30 29  0     0  0  0  0  0  0999 V2000
    5.6585   -1.7632    0.0676 S   0  0  0  0  0  0  0  0  0  0  0  0
    5.8990    1.1181   -0.5926 S   0  0  0  0  0  0  0  0  0  0  0  0
   -5.6105    1.8058   -0.2192 S   0  0  0  0  0  0  0  0  0  0  0  0
   -5.9385   -1.0354    0.5652 S   0  0  0  0  0  0  0  0  0  0  0  0
    3.6486   -0.1189    0.3119 N   0  0  0  0  0  0  0  0  0  0  0  0
   -3.6344    0.1069   -0.3287 N   0  0  0  0  0  0  0  0  0  0  0  0
    0.7252    0.0270   -0.1809 C   0  0  0  0  0  0  0  0  0  0  0  0
   -0.7361   -0.0730    0.2629 C   0  0  0  0  0  0  0  0  0  0  0  0
    1.5082    1.0030    0.7023 C   0  0  0  0  0  0  0  0  0  0  0  0
   -1.5087   -1.0792   -0.5952 C   0  0  0  0  0  0  0  0  0  0  0  0
    2.9546    1.1686    0.2488 C   0  0  0  0  0  0  0  0  0  0  0  0
   -2.9735   -1.1916   -0.1862 C   0  0  0  0  0  0  0  0  0  0  0  0
    4.8818   -0.1914   -0.0293 C   0  0  0  0  0  0  0  0  0  0  0  0
   -4.8743    0.2234   -0.0264 C   0  0  0  0  0  0  0  0  0  0  0  0
    1.1835   -0.9680   -0.1385 H   0  0  0  0  0  0  0  0  0  0  0  0
    0.7690    0.3598   -1.2251 H   0  0  0  0  0  0  0  0  0  0  0  0
   -1.1984    0.9186    0.1948 H   0  0  0  0  0  0  0  0  0  0  0  0
   -0.7821   -0.3801    1.3148 H   0  0  0  0  0  0  0  0  0  0  0  0
    1.4897    0.6463    1.7396 H   0  0  0  0  0  0  0  0  0  0  0  0
    1.0188    1.9842    0.6896 H   0  0  0  0  0  0  0  0  0  0  0  0
   -1.0395   -2.0672   -0.5169 H   0  0  0  0  0  0  0  0  0  0  0  0
   -1.4495   -0.7762   -1.6480 H   0  0  0  0  0  0  0  0  0  0  0  0
    3.4396    1.8965    0.9101 H   0  0  0  0  0  0  0  0  0  0  0  0
    2.9632    1.5631   -0.7744 H   0  0  0  0  0  0  0  0  0  0  0  0
   -3.4535   -1.9373   -0.8311 H   0  0  0  0  0  0  0  0  0  0  0  0
   -3.0250   -1.5398    0.8524 H   0  0  0  0  0  0  0  0  0  0  0  0
    6.7918   -1.4570   -0.5778 H   0  0  0  0  0  0  0  0  0  0  0  0
    7.0765    0.4810   -0.5461 H   0  0  0  0  0  0  0  0  0  0  0  0
   -6.8888    1.4449   -0.0453 H   0  0  0  0  0  0  0  0  0  0  0  0
   -6.9773   -0.2631    0.9100 H   0  0  0  0  0  0  0  0  0  0  0  0
  1 13  1  0  0  0  0
  1 27  1  0  0  0  0
  2 13  1  0  0  0  0
  2 28  1  0  0  0  0
  3 14  1  0  0  0  0
  3 29  1  0  0  0  0
  4 14  1  0  0  0  0
  4 30  1  0  0  0  0
  5 11  1  0  0  0  0
  5 13  2  0  0  0  0
  6 12  1  0  0  0  0
  6 14  2  0  0  0  0
  7  8  1  0  0  0  0
  7  9  1  0  0  0  0
  7 15  1  0  0  0  0
  7 16  1  0  0  0  0
  8 10  1  0  0  0  0
  8 17  1  0  0  0  0
  8 18  1  0  0  0  0
  9 11  1  0  0  0  0
  9 19  1  0  0  0  0
  9 20  1  0  0  0  0
 10 12  1  0  0  0  0
 10 21  1  0  0  0  0
 10 22  1  0  0  0  0
 11 23  1  0  0  0  0
 11 24  1  0  0  0  0
 12 25  1  0  0  0  0
 12 26  1  0  0  0  0
M  END
> <PUBCHEM_COMPOUND_CID>
13375

> <PUBCHEM_CONFORMER_RMSD>
0.8

> <PUBCHEM_CONFORMER_DIVERSEORDER>
1
61
185
133
171
10
55
6
102
8
74
56
13
191
11
192
122
184
175
90
52
32
28
182
37
177
113
103
67
99
70
41
5
16
157
12
35
165
188
100
126
160
14
179
30
34
183
58
44
176
25
146
92
108
106
27
76
57
158
86
15
94
178
121
73
49
84
170
109
96
29
142
82
151
54
116
85
63
78
88
155
19
174
9
125
101
166
180
81
186
107
66
3
79
156
39
33
64
75
148
53
189
117
181
24
18
187
93
98
21
161
2
95
115
136
164
135
140
123
65
154
26
193
149
20
159
80
112
139
87
141
68
60
119
50
22
130
128
43
137
134
4
173
83
69
127
23
91
77
51
114
47
45
138
143
167
162
163
17
89
59
31
105
168
62
7
150
120
124
190
46
152
172
144
153
129
97
131
111
72
71
42
118
147
145
104
110
169
48
132
36
40
38

> <PUBCHEM_MMFF94_PARTIAL_CHARGES>
14
1 -0.32
11 0.25
12 0.25
13 0.73
14 0.73
2 -0.32
27 0.18
28 0.18
29 0.18
3 -0.32
30 0.18
4 -0.32
5 -0.7
6 -0.7

> <PUBCHEM_EFFECTIVE_ROTOR_COUNT>
7

> <PUBCHEM_PHARMACOPHORE_FEATURES>
5
1 5 acceptor
1 6 acceptor
3 1 2 13 anion
3 3 4 14 anion
4 7 8 9 10 hydrophobe

> <PUBCHEM_HEAVY_ATOM_COUNT>
14

> <PUBCHEM_ATOM_DEF_STEREO_COUNT>
0

> <PUBCHEM_ATOM_UDEF_STEREO_COUNT>
0

> <PUBCHEM_BOND_DEF_STEREO_COUNT>
0

> <PUBCHEM_BOND_UDEF_STEREO_COUNT>
0

> <PUBCHEM_ISOTOPIC_ATOM_COUNT>
0

> <PUBCHEM_COMPONENT_COUNT>
1

> <PUBCHEM_CACTVS_TAUTO_COUNT>
3

> <PUBCHEM_CONFORMER_ID>
0000343F00000001

> <PUBCHEM_MMFF94_ENERGY>
16.4598

> <PUBCHEM_FEATURE_SELFOVERLAP>
25.371

> <PUBCHEM_SHAPE_FINGERPRINT>
11401426 45 5184349616394321515
11858739 19 17822007653461864854
12916748 109 15841556280088302588
13533116 47 4822946698728299372
13964095 4 18408318895957469268
14123238 8 13110966426510065355
1420 363 11240001173972228289
14251731 8 18186519895179085613
14251752 14 18410857702270090264
14251764 18 18260548892064418719
14848160 23 6338956667599201709
15183329 4 18113897190777059912
15242433 33 18409449159725157774
15501527 16 18409729569439241593
15531645 54 18334015024943038677
15778101 99 18338797918764445857
17834072 8 17967532363261349972
17834076 25 18334856099925293350
19489759 90 13984657057907715523
20281389 69 18410013234501295641
20621476 66 18411415133433538581
20645477 70 18412263961216728438
20765182 114 17169826923972370878
220451 1 17967811617861398526
23218964 4 18335423494974648149
23402539 116 17676213476649415125
23536379 177 18342738520227975016
23559900 14 17023191461839650768
23590187 130 18411418410429892285
300161 21 18114186302901740696
3004659 81 18412543241570529022
3014965 18 18338239366087298502
32948 21 18408605859665078540
4072396 5 17167582717597067070
42788 4 18413389830140518925
4325135 7 10664097856926292890
4463277 17 18411699876869578156
559249 180 17894639149124382255
9996256 80 18336265657132755095

> <PUBCHEM_SHAPE_MULTIPOLES>
293.55
18.12
1.71
0.77
0.08
0.03
0.01
0.22
-0.46
-0.01
-0.04
0.01
0.02
0.12

> <PUBCHEM_SHAPE_SELFOVERLAP>
508.704

> <PUBCHEM_SHAPE_VOLUME>
195.6

> <PUBCHEM_COORDINATE_TYPE>
2
5
10

$$$$

