17395576
  -OEChem-06241222513D

 47 49  0     1  0  0  0  0  0999 V2000
   -0.6242    0.7666   -0.7555 S   0  0  0  0  0  0  0  0  0  0  0  0
   -3.4011    2.5415   -0.2926 O   0  0  0  0  0  0  0  0  0  0  0  0
   -3.9077    0.3037    0.1033 N   0  0  0  0  0  0  0  0  0  0  0  0
    2.0848    0.2352   -0.5872 N   0  0  0  0  0  0  0  0  0  0  0  0
    1.1832    0.7632    1.3353 N   0  0  0  0  0  0  0  0  0  0  0  0
    2.5272    0.5201    1.5367 N   0  0  0  0  0  0  0  0  0  0  0  0
    6.7578    0.5271    0.1884 N   0  0  0  0  0  0  0  0  0  0  0  0
   -5.2770    0.4695   -0.4334 C   0  0  2  0  0  0  0  0  0  0  0  0
   -3.5051   -1.0388    0.5877 C   0  0  2  0  0  0  0  0  0  0  0  0
   -6.2502   -0.5872    0.0965 C   0  0  0  0  0  0  0  0  0  0  0  0
   -4.2464   -2.1524   -0.1607 C   0  0  0  0  0  0  0  0  0  0  0  0
   -5.7675   -2.0216   -0.1073 C   0  0  0  0  0  0  0  0  0  0  0  0
   -5.2685    0.5060   -1.9668 C   0  0  0  0  0  0  0  0  0  0  0  0
   -3.6760   -1.1691    2.1062 C   0  0  0  0  0  0  0  0  0  0  0  0
   -3.0661    1.4259    0.1166 C   0  0  0  0  0  0  0  0  0  0  0  0
   -1.6635    1.2281    0.6374 C   0  0  0  0  0  0  0  0  0  0  0  0
    0.9375    0.5875    0.0565 C   0  0  0  0  0  0  0  0  0  0  0  0
    3.0500    0.2051    0.3731 C   0  0  0  0  0  0  0  0  0  0  0  0
    2.2576   -0.0508   -1.9937 C   0  0  0  0  0  0  0  0  0  0  0  0
    4.4314   -0.1276    0.1225 C   0  0  0  0  0  0  0  0  0  0  0  0
    4.7868   -1.3646   -0.4036 C   0  0  0  0  0  0  0  0  0  0  0  0
    5.4456    0.7752    0.3989 C   0  0  0  0  0  0  0  0  0  0  0  0
    6.1265   -1.6569   -0.6341 C   0  0  0  0  0  0  0  0  0  0  0  0
    7.0649   -0.6857   -0.3241 C   0  0  0  0  0  0  0  0  0  0  0  0
   -5.6391    1.4496   -0.0963 H   0  0  0  0  0  0  0  0  0  0  0  0
   -2.4431   -1.1832    0.3730 H   0  0  0  0  0  0  0  0  0  0  0  0
   -6.4002   -0.4148    1.1694 H   0  0  0  0  0  0  0  0  0  0  0  0
   -7.2406   -0.4645   -0.3585 H   0  0  0  0  0  0  0  0  0  0  0  0
   -3.9312   -2.1329   -1.2118 H   0  0  0  0  0  0  0  0  0  0  0  0
   -3.9487   -3.1375    0.2187 H   0  0  0  0  0  0  0  0  0  0  0  0
   -6.1887   -2.4271   -1.0354 H   0  0  0  0  0  0  0  0  0  0  0  0
   -6.1662   -2.6460    0.7016 H   0  0  0  0  0  0  0  0  0  0  0  0
   -4.6413    1.3226   -2.3392 H   0  0  0  0  0  0  0  0  0  0  0  0
   -6.2806    0.6626   -2.3549 H   0  0  0  0  0  0  0  0  0  0  0  0
   -4.8805   -0.4203   -2.3998 H   0  0  0  0  0  0  0  0  0  0  0  0
   -3.1585   -0.3720    2.6471 H   0  0  0  0  0  0  0  0  0  0  0  0
   -3.2713   -2.1259    2.4534 H   0  0  0  0  0  0  0  0  0  0  0  0
   -4.7239   -1.1250    2.4138 H   0  0  0  0  0  0  0  0  0  0  0  0
   -1.3214    2.1852    1.0479 H   0  0  0  0  0  0  0  0  0  0  0  0
   -1.6001    0.5010    1.4450 H   0  0  0  0  0  0  0  0  0  0  0  0
    3.2719    0.2083   -2.3061 H   0  0  0  0  0  0  0  0  0  0  0  0
    1.5642    0.5535   -2.5827 H   0  0  0  0  0  0  0  0  0  0  0  0
    2.0644   -1.1145   -2.1526 H   0  0  0  0  0  0  0  0  0  0  0  0
    4.0361   -2.1169   -0.6320 H   0  0  0  0  0  0  0  0  0  0  0  0
    5.2350    1.7585    0.8096 H   0  0  0  0  0  0  0  0  0  0  0  0
    6.4271   -2.6154   -1.0416 H   0  0  0  0  0  0  0  0  0  0  0  0
    8.1230   -0.8645   -0.4846 H   0  0  0  0  0  0  0  0  0  0  0  0
  1 16  1  0  0  0  0
  1 17  1  0  0  0  0
  2 15  2  0  0  0  0
  3  8  1  0  0  0  0
  3  9  1  0  0  0  0
  3 15  1  0  0  0  0
  4 17  1  0  0  0  0
  4 18  1  0  0  0  0
  4 19  1  0  0  0  0
  5  6  1  0  0  0  0
  5 17  2  0  0  0  0
  6 18  2  0  0  0  0
  7 22  1  0  0  0  0
  7 24  2  0  0  0  0
  8 10  1  0  0  0  0
  8 13  1  0  0  0  0
  8 25  1  0  0  0  0
  9 11  1  0  0  0  0
  9 14  1  0  0  0  0
  9 26  1  0  0  0  0
 10 12  1  0  0  0  0
 10 27  1  0  0  0  0
 10 28  1  0  0  0  0
 11 12  1  0  0  0  0
 11 29  1  0  0  0  0
 11 30  1  0  0  0  0
 12 31  1  0  0  0  0
 12 32  1  0  0  0  0
 13 33  1  0  0  0  0
 13 34  1  0  0  0  0
 13 35  1  0  0  0  0
 14 36  1  0  0  0  0
 14 37  1  0  0  0  0
 14 38  1  0  0  0  0
 15 16  1  0  0  0  0
 16 39  1  0  0  0  0
 16 40  1  0  0  0  0
 18 20  1  0  0  0  0
 19 41  1  0  0  0  0
 19 42  1  0  0  0  0
 19 43  1  0  0  0  0
 20 21  1  0  0  0  0
 20 22  2  0  0  0  0
 21 23  2  0  0  0  0
 21 44  1  0  0  0  0
 22 45  1  0  0  0  0
 23 24  1  0  0  0  0
 23 46  1  0  0  0  0
 24 47  1  0  0  0  0
M  END
> <PUBCHEM_COMPOUND_CID>
17395576

> <PUBCHEM_CONFORMER_RMSD>
1.2

> <PUBCHEM_CONFORMER_DIVERSEORDER>
1
37
44
31
53
16
54
13
12
65
42
49
21
74
52
68
48
58
20
28
7
24
79
30
59
15
23
18
35
51
78
47
61
50
71
66
39
11
63
69
62
67
73
32
40
9
83
76
5
43
8
2
36
10
84
75
41
26
55
82
77
33
70
45
60
81
57
46
25
19
56
3
27
38
72
14
64
4
29
80
6
22
17
34

> <PUBCHEM_MMFF94_PARTIAL_CHARGES>
23
1 -0.29
15 0.57
16 0.29
17 0.24
18 0.13
19 0.26
2 -0.57
20 0.05
21 -0.15
22 0.16
23 -0.15
24 0.16
3 -0.66
4 0.05
44 0.15
45 0.15
46 0.15
47 0.15
5 -0.34
6 -0.34
7 -0.62
8 0.3
9 0.3

> <PUBCHEM_EFFECTIVE_ROTOR_COUNT>
6.2

> <PUBCHEM_PHARMACOPHORE_FEATURES>
7
1 2 acceptor
1 7 acceptor
3 4 5 17 cation
3 4 6 18 cation
5 4 5 6 17 18 rings
6 3 8 9 10 11 12 rings
6 7 20 21 22 23 24 rings

> <PUBCHEM_HEAVY_ATOM_COUNT>
24

> <PUBCHEM_ATOM_DEF_STEREO_COUNT>
0

> <PUBCHEM_ATOM_UDEF_STEREO_COUNT>
2

> <PUBCHEM_BOND_DEF_STEREO_COUNT>
0

> <PUBCHEM_BOND_UDEF_STEREO_COUNT>
0

> <PUBCHEM_ISOTOPIC_ATOM_COUNT>
0

> <PUBCHEM_COMPONENT_COUNT>
1

> <PUBCHEM_CACTVS_TAUTO_COUNT>
1

> <PUBCHEM_CONFORMER_ID>
01096F7800000001

> <PUBCHEM_MMFF94_ENERGY>
53.9416

> <PUBCHEM_FEATURE_SELFOVERLAP>
38.023

> <PUBCHEM_SHAPE_FINGERPRINT>
10 15 7565335444757144902
11089746 13 16343704326703836660
11315181 36 18411417306781773545
11524674 6 16443346460038364479
12236239 1 17489873747267797561
12516196 113 18409731750855451168
13167372 99 9727636107590701150
13288520 33 18411982451732274537
13402501 40 18187080646204651767
13782708 43 18186523215357753622
14251751 18 18408600340310272086
14251764 18 16081094758102773920
14461889 52 18336273358367339442
14848160 23 18408886226255182398
14849402 71 13912906172201778722
14931854 50 17775016669816906595
15183329 4 15913330182329424202
15352257 5 18334293180263990206
15716309 27 17530965786779470356
17780758 139 17022617572931690883
17844677 252 18334288777985847856
18335252 98 18333729096981949930
18681886 176 18060423469315451800
18927931 339 18410849971756050143
19377110 9 15430032188571946486
19489759 90 18343865532800547981
20281389 69 9727632808528134774
20567600 75 18334573577309034502
20645477 56 9223231845349779465
21054139 6 17917996057637721426
21150785 3 17918270948735119492
21267235 1 18272930484896058211
21623969 137 17458059383193321974
23198884 109 16200435762955719467
23402539 116 16917348143143887284
23522609 53 17023728018861096064
23559900 14 18339369573930910609
24771293 8 17275097311690855596
249057 3 17775568646176255917
25122255 55 18409157835687129407
2838139 119 11600005423181213498
29717793 49 17988920063882471502
3004659 81 17846221029534847293
3009799 131 14979959147220412220
329604 57 18186516597003327512
4073 2 18335978756978794744
4325135 7 18411416181737569620
465052 167 17676486164486677798
5104073 3 6771600195478238013
5718773 13 18189057487261648511
7495541 125 18187364312110406248
9862886 166 18408885122454011538

> <PUBCHEM_SHAPE_MULTIPOLES>
466.98
19.24
1.83
1.41
13.1
0.29
0.07
6.59
2.32
-2.06
0.02
-0.74
0.02
1.3

> <PUBCHEM_SHAPE_SELFOVERLAP>
966.912

> <PUBCHEM_SHAPE_VOLUME>
269.6

> <PUBCHEM_COORDINATE_TYPE>
2
5
10

$$$$

