46173908
  -OEChem-07051213102D

 87 90  0     1  0  0  0  0  0999 V2000
    8.5991    2.5600    0.0000 O   0  0  0  0  0  0  0  0  0  0  0  0
   12.8610    2.0600    0.0000 O   0  0  0  0  0  0  0  0  0  0  0  0
    9.4651    4.0600    0.0000 O   0  0  0  0  0  0  0  0  0  0  0  0
   12.5666    4.0215    0.0000 O   0  0  0  0  0  0  0  0  0  0  0  0
    8.5991   -0.4400    0.0000 O   0  0  0  0  0  0  0  0  0  0  0  0
    7.7331   -1.9400    0.0000 O   0  0  0  0  0  0  0  0  0  0  0  0
    6.0010   -2.9400    0.0000 O   0  0  0  0  0  0  0  0  0  0  0  0
   10.3312   -1.4400    0.0000 O   0  0  0  0  0  0  0  0  0  0  0  0
   10.3312   -3.4400    0.0000 O   0  0  0  0  0  0  0  0  0  0  0  0
    8.5991   -4.4400    0.0000 O   0  0  0  0  0  0  0  0  0  0  0  0
    5.1350   -4.4400    0.0000 O   0  0  0  0  0  0  0  0  0  0  0  0
    7.7331    4.0600    0.0000 O   0  0  0  0  0  0  0  0  0  0  0  0
    4.2690   -1.9400    0.0000 O   0  0  0  0  0  0  0  0  0  0  0  0
    2.5369   -2.9400    0.0000 O   0  0  0  0  0  0  0  0  0  0  0  0
    2.5369   -4.9400    0.0000 O   0  0  0  0  0  0  0  0  0  0  0  0
    3.4030   -6.4400    0.0000 O   0  0  0  0  0  0  0  0  0  0  0  0
   10.3312    2.5600    0.0000 C   0  0  1  0  0  0  0  0  0  0  0  0
   10.3312    1.5600    0.0000 C   0  0  2  0  0  0  0  0  0  0  0  0
   11.2774    2.8647    0.0000 C   0  0  1  0  0  0  0  0  0  0  0  0
   11.8610    2.0600    0.0000 C   0  0  2  0  0  0  0  0  0  0  0  0
   11.2774    1.2553    0.0000 C   0  0  0  0  0  0  0  0  0  0  0  0
    9.4651    3.0600    0.0000 C   0  0  1  0  0  0  0  0  0  0  0  0
    9.4651    1.0600    0.0000 C   0  0  0  0  0  0  0  0  0  0  0  0
   11.5880    3.8152    0.0000 C   0  0  0  0  0  0  0  0  0  0  0  0
    8.5991    1.5600    0.0000 C   0  0  0  0  0  0  0  0  0  0  0  0
    9.4651    0.0600    0.0000 C   0  0  0  0  0  0  0  0  0  0  0  0
    8.5991   -1.4400    0.0000 C   0  0  2  0  0  0  0  0  0  0  0  0
    9.4651   -1.9400    0.0000 C   0  0  1  0  0  0  0  0  0  0  0  0
    9.4651   -2.9400    0.0000 C   0  0  2  0  0  0  0  0  0  0  0  0
    7.7331   -2.9400    0.0000 C   0  0  1  0  0  0  0  0  0  0  0  0
    8.5991    4.5600    0.0000 C   0  0  0  0  0  0  0  0  0  0  0  0
    8.5991   -3.4400    0.0000 C   0  0  1  0  0  0  0  0  0  0  0  0
    6.8671   -3.4400    0.0000 C   0  0  0  0  0  0  0  0  0  0  0  0
    8.5991    5.5600    0.0000 C   0  0  0  0  0  0  0  0  0  0  0  0
    5.1350   -3.4400    0.0000 C   0  0  2  0  0  0  0  0  0  0  0  0
    4.2690   -2.9400    0.0000 C   0  0  1  0  0  0  0  0  0  0  0  0
    3.4030   -3.4400    0.0000 C   0  0  2  0  0  0  0  0  0  0  0  0
    3.4030   -4.4400    0.0000 C   0  0  1  0  0  0  0  0  0  0  0  0
    4.2690   -4.9400    0.0000 C   0  0  1  0  0  0  0  0  0  0  0  0
    7.7331    6.0600    0.0000 C   0  0  0  0  0  0  0  0  0  0  0  0
    4.2690   -5.9400    0.0000 C   0  0  0  0  0  0  0  0  0  0  0  0
    7.7331    7.0600    0.0000 C   0  0  0  0  0  0  0  0  0  0  0  0
    6.8671    5.5600    0.0000 C   0  0  0  0  0  0  0  0  0  0  0  0
   10.4211    3.4052    0.0000 H   0  0  0  0  0  0  0  0  0  0  0  0
   10.4211    0.7148    0.0000 H   0  0  0  0  0  0  0  0  0  0  0  0
   10.8399    3.3041    0.0000 H   0  0  0  0  0  0  0  0  0  0  0  0
   12.1427    1.5077    0.0000 H   0  0  0  0  0  0  0  0  0  0  0  0
   11.0264    0.6884    0.0000 H   0  0  0  0  0  0  0  0  0  0  0  0
   11.8148    0.9460    0.0000 H   0  0  0  0  0  0  0  0  0  0  0  0
   10.0021    3.3700    0.0000 H   0  0  0  0  0  0  0  0  0  0  0  0
   11.5675    4.4349    0.0000 H   0  0  0  0  0  0  0  0  0  0  0  0
   10.9742    3.9026    0.0000 H   0  0  0  0  0  0  0  0  0  0  0  0
    8.0622    1.2500    0.0000 H   0  0  0  0  0  0  0  0  0  0  0  0
    9.6772   -0.5226    0.0000 H   0  0  0  0  0  0  0  0  0  0  0  0
   10.0757    0.1677    0.0000 H   0  0  0  0  0  0  0  0  0  0  0  0
   13.1710    1.5231    0.0000 H   0  0  0  0  0  0  0  0  0  0  0  0
   12.7592    4.6108    0.0000 H   0  0  0  0  0  0  0  0  0  0  0  0
    8.0622   -1.1300    0.0000 H   0  0  0  0  0  0  0  0  0  0  0  0
   10.0021   -2.2500    0.0000 H   0  0  0  0  0  0  0  0  0  0  0  0
    7.1962   -2.6300    0.0000 H   0  0  0  0  0  0  0  0  0  0  0  0
   10.0021   -2.6300    0.0000 H   0  0  0  0  0  0  0  0  0  0  0  0
    8.0622   -3.7500    0.0000 H   0  0  0  0  0  0  0  0  0  0  0  0
    6.4685   -3.9150    0.0000 H   0  0  0  0  0  0  0  0  0  0  0  0
    7.2656   -3.9150    0.0000 H   0  0  0  0  0  0  0  0  0  0  0  0
    9.2097    5.4523    0.0000 H   0  0  0  0  0  0  0  0  0  0  0  0
    8.8112    6.1426    0.0000 H   0  0  0  0  0  0  0  0  0  0  0  0
    5.1350   -2.8200    0.0000 H   0  0  0  0  0  0  0  0  0  0  0  0
    4.8059   -2.6300    0.0000 H   0  0  0  0  0  0  0  0  0  0  0  0
    3.4030   -2.8200    0.0000 H   0  0  0  0  0  0  0  0  0  0  0  0
    3.4030   -5.0600    0.0000 H   0  0  0  0  0  0  0  0  0  0  0  0
    4.8059   -5.2500    0.0000 H   0  0  0  0  0  0  0  0  0  0  0  0
    7.7331    5.4400    0.0000 H   0  0  0  0  0  0  0  0  0  0  0  0
   10.8681   -1.7500    0.0000 H   0  0  0  0  0  0  0  0  0  0  0  0
   10.3312   -4.0600    0.0000 H   0  0  0  0  0  0  0  0  0  0  0  0
    8.0622   -4.7500    0.0000 H   0  0  0  0  0  0  0  0  0  0  0  0
    4.4810   -6.5226    0.0000 H   0  0  0  0  0  0  0  0  0  0  0  0
    4.8796   -5.8323    0.0000 H   0  0  0  0  0  0  0  0  0  0  0  0
    6.5571    6.0969    0.0000 H   0  0  0  0  0  0  0  0  0  0  0  0
    6.3301    5.2500    0.0000 H   0  0  0  0  0  0  0  0  0  0  0  0
    7.1771    5.0231    0.0000 H   0  0  0  0  0  0  0  0  0  0  0  0
    8.3531    7.0600    0.0000 H   0  0  0  0  0  0  0  0  0  0  0  0
    7.7331    7.6800    0.0000 H   0  0  0  0  0  0  0  0  0  0  0  0
    7.1131    7.0600    0.0000 H   0  0  0  0  0  0  0  0  0  0  0  0
    3.7320   -1.6300    0.0000 H   0  0  0  0  0  0  0  0  0  0  0  0
    2.0000   -3.2500    0.0000 H   0  0  0  0  0  0  0  0  0  0  0  0
    2.0000   -4.6300    0.0000 H   0  0  0  0  0  0  0  0  0  0  0  0
    3.4030   -7.0600    0.0000 H   0  0  0  0  0  0  0  0  0  0  0  0
  1 22  1  0  0  0  0
  1 25  1  0  0  0  0
 20  2  1  1  0  0  0
  2 56  1  0  0  0  0
 22  3  1  1  0  0  0
  3 31  1  0  0  0  0
  4 24  1  0  0  0  0
  4 57  1  0  0  0  0
  5 26  1  0  0  0  0
 27  5  1  1  0  0  0
  6 27  1  0  0  0  0
  6 30  1  0  0  0  0
  7 33  1  0  0  0  0
 35  7  1  6  0  0  0
 28  8  1  6  0  0  0
  8 73  1  0  0  0  0
 29  9  1  1  0  0  0
  9 74  1  0  0  0  0
 32 10  1  6  0  0  0
 10 75  1  0  0  0  0
 11 35  1  0  0  0  0
 11 39  1  0  0  0  0
 12 31  2  0  0  0  0
 36 13  1  1  0  0  0
 13 84  1  0  0  0  0
 37 14  1  6  0  0  0
 14 85  1  0  0  0  0
 38 15  1  1  0  0  0
 15 86  1  0  0  0  0
 16 41  1  0  0  0  0
 16 87  1  0  0  0  0
 17 18  1  0  0  0  0
 17 19  1  0  0  0  0
 17 22  1  0  0  0  0
 17 44  1  1  0  0  0
 18 21  1  0  0  0  0
 18 23  1  0  0  0  0
 18 45  1  1  0  0  0
 19 20  1  0  0  0  0
 19 24  1  6  0  0  0
 19 46  1  0  0  0  0
 20 21  1  0  0  0  0
 20 47  1  0  0  0  0
 21 48  1  0  0  0  0
 21 49  1  0  0  0  0
 22 50  1  0  0  0  0
 23 25  2  0  0  0  0
 23 26  1  0  0  0  0
 24 51  1  0  0  0  0
 24 52  1  0  0  0  0
 25 53  1  0  0  0  0
 26 54  1  0  0  0  0
 26 55  1  0  0  0  0
 27 28  1  0  0  0  0
 27 58  1  0  0  0  0
 28 29  1  0  0  0  0
 28 59  1  0  0  0  0
 29 32  1  0  0  0  0
 29 61  1  0  0  0  0
 30 32  1  0  0  0  0
 30 33  1  1  0  0  0
 30 60  1  0  0  0  0
 31 34  1  0  0  0  0
 32 62  1  0  0  0  0
 33 63  1  0  0  0  0
 33 64  1  0  0  0  0
 34 40  1  0  0  0  0
 34 65  1  0  0  0  0
 34 66  1  0  0  0  0
 35 36  1  0  0  0  0
 35 67  1  0  0  0  0
 36 37  1  0  0  0  0
 36 68  1  0  0  0  0
 37 38  1  0  0  0  0
 37 69  1  0  0  0  0
 38 39  1  0  0  0  0
 38 70  1  0  0  0  0
 39 41  1  6  0  0  0
 39 71  1  0  0  0  0
 40 42  1  0  0  0  0
 40 43  1  0  0  0  0
 40 72  1  0  0  0  0
 41 76  1  0  0  0  0
 41 77  1  0  0  0  0
 42 81  1  0  0  0  0
 42 82  1  0  0  0  0
 42 83  1  0  0  0  0
 43 78  1  0  0  0  0
 43 79  1  0  0  0  0
 43 80  1  0  0  0  0
M  END
> <PUBCHEM_COMPOUND_CID>
46173908

> <PUBCHEM_COMPOUND_CANONICALIZED>
1

> <PUBCHEM_CACTVS_COMPLEXITY>
948

> <PUBCHEM_CACTVS_HBOND_ACCEPTOR>
16

> <PUBCHEM_CACTVS_HBOND_DONOR>
9

> <PUBCHEM_CACTVS_ROTATABLE_BOND>
12

> <PUBCHEM_CACTVS_SUBSKEYS>
AAADcfB4PgAAAAAAAAAAAAAAAAAAAYAAAAAkSIAAAAAAAEAAAAAAGgAACAAADRSwgAMCCAAABgCIAgDSCAAACAAgIAAAAAEAAAgRFBIAIQAiQAAFgAAHIAHA4PwOgAAAAAAAAAAAAAAAAAAAAYAADAAAAA==

> <PUBCHEM_IUPAC_OPENEYE_NAME>
[(1S,4aS,6S,7R,7aS)-6-hydroxy-7-(hydroxymethyl)-4-[[(2R,3R,4S,5S,6R)-3,4,5-trihydroxy-6-[[(2R,3R,4S,5S,6R)-3,4,5-trihydroxy-6-(hydroxymethyl)tetrahydropyran-2-yl]oxymethyl]tetrahydropyran-2-yl]oxymethyl]-1,4a,5,6,7,7a-hexahydrocyclopenta[c]pyran-1-yl] 3-methylbutanoate

> <PUBCHEM_IUPAC_CAS_NAME>
3-methylbutanoic acid [(1S,4aS,6S,7R,7aS)-6-hydroxy-7-(hydroxymethyl)-4-[[(2R,3R,4S,5S,6R)-3,4,5-trihydroxy-6-[[(2R,3R,4S,5S,6R)-3,4,5-trihydroxy-6-(hydroxymethyl)-2-oxanyl]oxymethyl]-2-oxanyl]oxymethyl]-1,4a,5,6,7,7a-hexahydrocyclopenta[c]pyran-1-yl] ester

> <PUBCHEM_IUPAC_NAME>
[(1S,4aS,6S,7R,7aS)-6-hydroxy-7-(hydroxymethyl)-4-[[(2R,3R,4S,5S,6R)-3,4,5-trihydroxy-6-[[(2R,3R,4S,5S,6R)-3,4,5-trihydroxy-6-(hydroxymethyl)oxan-2-yl]oxymethyl]oxan-2-yl]oxymethyl]-1,4a,5,6,7,7a-hexahydrocyclopenta[c]pyran-1-yl] 3-methylbutanoate

> <PUBCHEM_IUPAC_SYSTEMATIC_NAME>
[(1S,4aS,6S,7R,7aS)-7-(hydroxymethyl)-4-[[(2R,3R,4S,5S,6R)-6-[[(2R,3R,4S,5S,6R)-6-(hydroxymethyl)-3,4,5-tris(oxidanyl)oxan-2-yl]oxymethyl]-3,4,5-tris(oxidanyl)oxan-2-yl]oxymethyl]-6-oxidanyl-1,4a,5,6,7,7a-hexahydrocyclopenta[c]pyran-1-yl] 3-methylbutanoate

> <PUBCHEM_IUPAC_TRADITIONAL_NAME>
3-methylbutyric acid [(1S,4aS,6S,7R,7aS)-6-hydroxy-7-methylol-4-[[(2R,3R,4S,5S,6R)-3,4,5-trihydroxy-6-[[(2R,3R,4S,5S,6R)-3,4,5-trihydroxy-6-methylol-tetrahydropyran-2-yl]oxymethyl]tetrahydropyran-2-yl]oxymethyl]-1,4a,5,6,7,7a-hexahydrocyclopenta[c]pyran-1-yl] ester

> <PUBCHEM_IUPAC_INCHI>
InChI=1S/C27H44O16/c1-10(2)3-17(31)43-25-18-12(4-14(30)13(18)5-28)11(7-38-25)8-39-26-24(37)22(35)20(33)16(42-26)9-40-27-23(36)21(34)19(32)15(6-29)41-27/h7,10,12-16,18-30,32-37H,3-6,8-9H2,1-2H3/t12-,13-,14+,15-,16-,18+,19-,20-,21+,22+,23-,24-,25+,26-,27-/m1/s1

> <PUBCHEM_IUPAC_INCHIKEY>
AKTRFOPOAKDICT-GHHIWPQQSA-N

> <PUBCHEM_XLOGP3_AA>
-3.3

> <PUBCHEM_EXACT_MASS>
624.262935

> <PUBCHEM_MOLECULAR_FORMULA>
C27H44O16

> <PUBCHEM_MOLECULAR_WEIGHT>
624.62866

> <PUBCHEM_OPENEYE_CAN_SMILES>
CC(C)CC(=O)OC1C2C(CC(C2CO)O)C(=CO1)COC3C(C(C(C(O3)COC4C(C(C(C(O4)CO)O)O)O)O)O)O

> <PUBCHEM_OPENEYE_ISO_SMILES>
CC(C)CC(=O)O[C@H]1[C@H]2[C@H](C[C@@H]([C@H]2CO)O)C(=CO1)CO[C@H]3[C@@H]([C@H]([C@@H]([C@H](O3)CO[C@H]4[C@@H]([C@H]([C@@H]([C@H](O4)CO)O)O)O)O)O)O

> <PUBCHEM_CACTVS_TPSA>
255

> <PUBCHEM_MONOISOTOPIC_WEIGHT>
624.262935

> <PUBCHEM_TOTAL_CHARGE>
0

> <PUBCHEM_HEAVY_ATOM_COUNT>
43

> <PUBCHEM_ATOM_DEF_STEREO_COUNT>
15

> <PUBCHEM_ATOM_UDEF_STEREO_COUNT>
0

> <PUBCHEM_BOND_DEF_STEREO_COUNT>
0

> <PUBCHEM_BOND_UDEF_STEREO_COUNT>
0

> <PUBCHEM_ISOTOPIC_ATOM_COUNT>
0

> <PUBCHEM_COMPONENT_COUNT>
1

> <PUBCHEM_CACTVS_TAUTO_COUNT>
1

> <PUBCHEM_COORDINATE_TYPE>
1
5
255

> <PUBCHEM_BONDANNOTATIONS>
32  10  6
36  13  5
37  14  6
38  15  5
17  44  5
18  45  5
19  24  6
20  2  5
22  3  5
30  33  5
39  41  6
27  5  5
35  7  6
28  8  6
29  9  5

$$$$

