157384
  -OEChem-07051213033D

 68 72  0     1  0  0  0  0  0999 V2000
    2.3972    0.5418   -0.1360 O   0  0  0  0  0  0  0  0  0  0  0  0
    2.9968   -1.9722    0.9910 O   0  0  0  0  0  0  0  0  0  0  0  0
    4.6062    0.9089   -0.9185 O   0  0  0  0  0  0  0  0  0  0  0  0
    6.2932    2.8047    0.4535 O   0  0  0  0  0  0  0  0  0  0  0  0
   -0.3601    1.5127   -1.2554 O   0  0  0  0  0  0  0  0  0  0  0  0
   -1.4664   -3.5029    0.7625 O   0  0  0  0  0  0  0  0  0  0  0  0
   -2.7550    2.1259   -0.8141 O   0  0  0  0  0  0  0  0  0  0  0  0
   -3.8433   -2.7422    1.1003 O   0  0  0  0  0  0  0  0  0  0  0  0
   -5.1770    2.8946   -0.4775 O   0  0  0  0  0  0  0  0  0  0  0  0
    4.1915    3.8036    2.1125 N   0  0  0  0  0  0  0  0  0  0  0  0
    2.5800   -2.5485   -0.2492 C   0  0  2  0  0  0  0  0  0  0  0  0
    2.6645   -1.5054   -1.3746 C   0  0  0  0  0  0  0  0  0  0  0  0
    1.7657   -0.2936   -1.1073 C   0  0  1  0  0  0  0  0  0  0  0  0
    1.1340   -3.0420   -0.0847 C   0  0  0  0  0  0  0  0  0  0  0  0
    0.3752   -0.6722   -0.6551 C   0  0  0  0  0  0  0  0  0  0  0  0
    0.0907   -1.9489   -0.1426 C   0  0  0  0  0  0  0  0  0  0  0  0
    3.5108   -3.7296   -0.5379 C   0  0  0  0  0  0  0  0  0  0  0  0
    3.2978    1.4585   -0.7510 C   0  0  2  0  0  0  0  0  0  0  0  0
    3.3441    2.7558    0.0586 C   0  0  0  0  0  0  0  0  0  0  0  0
    4.0661    2.5374    1.3931 C   0  0  1  0  0  0  0  0  0  0  0  0
    5.4410    1.8974    1.1544 C   0  0  1  0  0  0  0  0  0  0  0  0
    5.2803    0.6220    0.3141 C   0  0  2  0  0  0  0  0  0  0  0  0
   -0.6501    0.2871   -0.7225 C   0  0  0  0  0  0  0  0  0  0  0  0
   -1.2165   -2.2488    0.2771 C   0  0  0  0  0  0  0  0  0  0  0  0
   -1.9468   -0.0181   -0.2939 C   0  0  0  0  0  0  0  0  0  0  0  0
   -2.2301   -1.2866    0.2060 C   0  0  0  0  0  0  0  0  0  0  0  0
    4.9489   -3.2736   -0.6721 C   0  0  0  0  0  0  0  0  0  0  0  0
    6.6213   -0.0115   -0.0409 C   0  0  0  0  0  0  0  0  0  0  0  0
   -3.0049    1.0095   -0.3765 C   0  0  0  0  0  0  0  0  0  0  0  0
   -3.5943   -1.6268    0.6596 C   0  0  0  0  0  0  0  0  0  0  0  0
   -4.3697    0.6709    0.0757 C   0  0  0  0  0  0  0  0  0  0  0  0
   -4.6542   -0.6015    0.5754 C   0  0  0  0  0  0  0  0  0  0  0  0
   -5.3827    1.6343    0.0008 C   0  0  0  0  0  0  0  0  0  0  0  0
   -5.9517   -0.9107    1.0005 C   0  0  0  0  0  0  0  0  0  0  0  0
   -6.6742    1.3222    0.4258 C   0  0  0  0  0  0  0  0  0  0  0  0
   -6.9581    0.0524    0.9246 C   0  0  0  0  0  0  0  0  0  0  0  0
   -5.3704    3.0954   -1.8757 C   0  0  0  0  0  0  0  0  0  0  0  0
    2.3486   -1.9805   -2.3138 H   0  0  0  0  0  0  0  0  0  0  0  0
    3.6887   -1.1672   -1.5232 H   0  0  0  0  0  0  0  0  0  0  0  0
    1.6615    0.2207   -2.0729 H   0  0  0  0  0  0  0  0  0  0  0  0
    1.0606   -3.5643    0.8779 H   0  0  0  0  0  0  0  0  0  0  0  0
    0.9007   -3.7540   -0.8875 H   0  0  0  0  0  0  0  0  0  0  0  0
    3.2083   -4.2533   -1.4524 H   0  0  0  0  0  0  0  0  0  0  0  0
    3.4579   -4.4543    0.2844 H   0  0  0  0  0  0  0  0  0  0  0  0
    2.9436    1.7390   -1.7501 H   0  0  0  0  0  0  0  0  0  0  0  0
    2.3257    3.1205    0.2402 H   0  0  0  0  0  0  0  0  0  0  0  0
    3.8749    3.5192   -0.5252 H   0  0  0  0  0  0  0  0  0  0  0  0
    3.4679    1.8586    2.0136 H   0  0  0  0  0  0  0  0  0  0  0  0
    5.9168    1.6654    2.1152 H   0  0  0  0  0  0  0  0  0  0  0  0
    4.6954   -0.1120    0.8763 H   0  0  0  0  0  0  0  0  0  0  0  0
    2.9512   -2.6585    1.6782 H   0  0  0  0  0  0  0  0  0  0  0  0
    5.1237   -2.6981   -1.5845 H   0  0  0  0  0  0  0  0  0  0  0  0
    5.2793   -2.6979    0.1961 H   0  0  0  0  0  0  0  0  0  0  0  0
    5.6005   -4.1528   -0.7366 H   0  0  0  0  0  0  0  0  0  0  0  0
    7.1848   -0.2789    0.8577 H   0  0  0  0  0  0  0  0  0  0  0  0
    6.4764   -0.9098   -0.6456 H   0  0  0  0  0  0  0  0  0  0  0  0
    7.2328    0.6566   -0.6568 H   0  0  0  0  0  0  0  0  0  0  0  0
    3.2736    4.2363    2.2089 H   0  0  0  0  0  0  0  0  0  0  0  0
    4.7550    4.4550    1.5671 H   0  0  0  0  0  0  0  0  0  0  0  0
    7.2086    2.4980    0.5666 H   0  0  0  0  0  0  0  0  0  0  0  0
    0.5768    1.7254   -1.1224 H   0  0  0  0  0  0  0  0  0  0  0  0
   -0.8689   -4.1529    0.3605 H   0  0  0  0  0  0  0  0  0  0  0  0
   -6.1986   -1.8934    1.3931 H   0  0  0  0  0  0  0  0  0  0  0  0
   -7.4667    2.0643    0.3723 H   0  0  0  0  0  0  0  0  0  0  0  0
   -7.9645   -0.1881    1.2549 H   0  0  0  0  0  0  0  0  0  0  0  0
   -4.8788    2.3167   -2.4678 H   0  0  0  0  0  0  0  0  0  0  0  0
   -4.9420    4.0644   -2.1457 H   0  0  0  0  0  0  0  0  0  0  0  0
   -6.4408    3.1109   -2.1035 H   0  0  0  0  0  0  0  0  0  0  0  0
  1 13  1  0  0  0  0
  1 18  1  0  0  0  0
  2 11  1  0  0  0  0
  2 51  1  0  0  0  0
  3 18  1  0  0  0  0
  3 22  1  0  0  0  0
  4 21  1  0  0  0  0
  4 60  1  0  0  0  0
  5 23  1  0  0  0  0
  5 61  1  0  0  0  0
  6 24  1  0  0  0  0
  6 62  1  0  0  0  0
  7 29  2  0  0  0  0
  8 30  2  0  0  0  0
  9 33  1  0  0  0  0
  9 37  1  0  0  0  0
 10 20  1  0  0  0  0
 10 58  1  0  0  0  0
 10 59  1  0  0  0  0
 11 12  1  0  0  0  0
 11 14  1  0  0  0  0
 11 17  1  0  0  0  0
 12 13  1  0  0  0  0
 12 38  1  0  0  0  0
 12 39  1  0  0  0  0
 13 15  1  0  0  0  0
 13 40  1  0  0  0  0
 14 16  1  0  0  0  0
 14 41  1  0  0  0  0
 14 42  1  0  0  0  0
 15 16  2  0  0  0  0
 15 23  1  0  0  0  0
 16 24  1  0  0  0  0
 17 27  1  0  0  0  0
 17 43  1  0  0  0  0
 17 44  1  0  0  0  0
 18 19  1  0  0  0  0
 18 45  1  0  0  0  0
 19 20  1  0  0  0  0
 19 46  1  0  0  0  0
 19 47  1  0  0  0  0
 20 21  1  0  0  0  0
 20 48  1  0  0  0  0
 21 22  1  0  0  0  0
 21 49  1  0  0  0  0
 22 28  1  0  0  0  0
 22 50  1  0  0  0  0
 23 25  2  0  0  0  0
 24 26  2  0  0  0  0
 25 26  1  0  0  0  0
 25 29  1  0  0  0  0
 26 30  1  0  0  0  0
 27 52  1  0  0  0  0
 27 53  1  0  0  0  0
 27 54  1  0  0  0  0
 28 55  1  0  0  0  0
 28 56  1  0  0  0  0
 28 57  1  0  0  0  0
 29 31  1  0  0  0  0
 30 32  1  0  0  0  0
 31 32  2  0  0  0  0
 31 33  1  0  0  0  0
 32 34  1  0  0  0  0
 33 35  2  0  0  0  0
 34 36  2  0  0  0  0
 34 63  1  0  0  0  0
 35 36  1  0  0  0  0
 35 64  1  0  0  0  0
 36 65  1  0  0  0  0
 37 66  1  0  0  0  0
 37 67  1  0  0  0  0
 37 68  1  0  0  0  0
M  END
> <PUBCHEM_COMPOUND_CID>
157384

> <PUBCHEM_CONFORMER_RMSD>
1

> <PUBCHEM_CONFORMER_DIVERSEORDER>
1
8
6
9
3
2
7
5
4

> <PUBCHEM_MMFF94_PARTIAL_CHARGES>
41
1 -0.56
10 -0.99
11 0.28
13 0.42
14 0.14
15 -0.14
16 -0.14
18 0.56
2 -0.68
20 0.27
21 0.28
22 0.28
23 0.08
24 0.08
25 0.09
26 0.09
29 0.4
3 -0.56
30 0.4
31 0.09
32 0.09
33 0.08
34 -0.15
35 -0.15
36 -0.15
37 0.28
4 -0.68
5 -0.53
51 0.4
58 0.36
59 0.36
6 -0.53
60 0.4
61 0.45
62 0.45
63 0.15
64 0.15
65 0.15
7 -0.57
8 -0.57
9 -0.36

> <PUBCHEM_EFFECTIVE_ROTOR_COUNT>
6

> <PUBCHEM_PHARMACOPHORE_FEATURES>
19
1 1 acceptor
1 10 cation
1 10 donor
1 2 acceptor
1 2 donor
1 27 hydrophobe
1 3 acceptor
1 4 acceptor
1 4 donor
1 5 donor
1 6 donor
1 7 acceptor
1 8 acceptor
1 9 acceptor
6 11 12 13 14 15 16 rings
6 15 16 23 24 25 26 rings
6 25 26 29 30 31 32 rings
6 3 18 19 20 21 22 rings
6 31 32 33 34 35 36 rings

> <PUBCHEM_HEAVY_ATOM_COUNT>
37

> <PUBCHEM_ATOM_DEF_STEREO_COUNT>
6

> <PUBCHEM_ATOM_UDEF_STEREO_COUNT>
0

> <PUBCHEM_BOND_DEF_STEREO_COUNT>
0

> <PUBCHEM_BOND_UDEF_STEREO_COUNT>
0

> <PUBCHEM_ISOTOPIC_ATOM_COUNT>
0

> <PUBCHEM_COMPONENT_COUNT>
1

> <PUBCHEM_CACTVS_TAUTO_COUNT>
27

> <PUBCHEM_CONFORMER_ID>
000266C800000001

> <PUBCHEM_MMFF94_ENERGY>
127.5095

> <PUBCHEM_FEATURE_SELFOVERLAP>
96.535

> <PUBCHEM_SHAPE_FINGERPRINT>
10 15 18272647913790369169
10050765 1 18408885114017856783
10319926 262 18342461396285445368
1100329 8 17614838952504297480
11578080 2 18260827064565018947
12128747 34 18340766056365437901
12403259 415 18200028572800994951
12422481 6 18131920346877793916
12857493 111 17327174858673848998
12925494 130 18410579478430609736
131258 43 17389643496748921094
13140716 1 18271806886395775975
13402501 40 18408603630387479353
14790565 3 17910097032938843068
16112460 7 18191573345600612497
17913733 40 18333729100380170595
21033648 144 18411701019699995175
21033648 29 18043542612325120552
21130935 74 18338223960783731451
21133410 127 17987515922772995292
21452121 103 18411698794374393166
21792934 111 18200868570179091617
21859007 373 17559125482627487125
22122407 14 17096070412517499193
22149856 69 18198316595238135673
22889206 1 18129389348742631122
23559900 14 18342731961744563423
23569914 2 17838944526034207429
2838139 119 18260835877563265677
3298306 158 18334017151062873456
3383291 50 17631438000719096971
3411729 13 18411699877201907074
34797466 226 17821719568572800607
350125 39 18199459029751352135
392239 28 18261382304941328593
4073 2 18200866292844481826
4093350 32 17458616869447306287
4144715 1 18341601664028761867
4340502 62 18410289211687343110
5104073 3 18270952553439705843
5265222 85 18050840019548752276
552612 73 18342176695793596332
6697151 62 17834415770392610815
9896288 288 17763191233534705730

> <PUBCHEM_SHAPE_MULTIPOLES>
703.64
16.93
4.63
1.27
7.17
0.48
0.02
-9.66
3.25
-4.32
0.55
-0.09
-0.73
3.99

> <PUBCHEM_SHAPE_SELFOVERLAP>
1552.707

> <PUBCHEM_SHAPE_VOLUME>
372.3

> <PUBCHEM_COORDINATE_TYPE>
2
5
10

$$$$

