6522
  -OEChem-06261201222D

 36 34  0     0  0  0  0  0  0999 V2000
    3.7321    0.3261    0.0000 Sn  0  3  0  0  0  0  0  0  0  0  0  0
    2.9230    0.9139    0.0000 S   0  5  0  0  0  0  0  0  0  0  0  0
    4.5411    0.9139    0.0000 O   0  0  0  0  0  0  0  0  0  0  0  0
    4.8198    2.6739    0.0000 O   0  0  0  0  0  0  0  0  0  0  0  0
    3.7321   -0.6739    0.0000 C   0  0  0  0  0  0  0  0  0  0  0  0
    4.3198   -0.4829    0.0000 C   0  0  0  0  0  0  0  0  0  0  0  0
    2.8660   -1.1739    0.0000 C   0  0  0  0  0  0  0  0  0  0  0  0
    5.3144   -0.3784    0.0000 C   0  0  0  0  0  0  0  0  0  0  0  0
    3.2321    1.8649    0.0000 C   0  0  0  0  0  0  0  0  0  0  0  0
    4.2321    1.8649    0.0000 C   0  0  0  0  0  0  0  0  0  0  0  0
    2.8660   -2.1739    0.0000 C   0  0  0  0  0  0  0  0  0  0  0  0
    5.9021   -1.1874    0.0000 C   0  0  0  0  0  0  0  0  0  0  0  0
    2.0000   -2.6739    0.0000 C   0  0  0  0  0  0  0  0  0  0  0  0
    6.8967   -1.0829    0.0000 C   0  0  0  0  0  0  0  0  0  0  0  0
    3.3676   -0.1755    0.0000 H   0  0  0  0  0  0  0  0  0  0  0  0
    3.9441   -1.2565    0.0000 H   0  0  0  0  0  0  0  0  0  0  0  0
    4.3426   -0.5663    0.0000 H   0  0  0  0  0  0  0  0  0  0  0  0
    3.7626   -0.7547    0.0000 H   0  0  0  0  0  0  0  0  0  0  0  0
    4.4907   -1.0789    0.0000 H   0  0  0  0  0  0  0  0  0  0  0  0
    5.1307    0.7223    0.0000 H   0  0  0  0  0  0  0  0  0  0  0  0
    2.6540   -0.5913    0.0000 H   0  0  0  0  0  0  0  0  0  0  0  0
    2.2554   -1.2816    0.0000 H   0  0  0  0  0  0  0  0  0  0  0  0
    5.8716   -0.1066    0.0000 H   0  0  0  0  0  0  0  0  0  0  0  0
    5.1435    0.2176    0.0000 H   0  0  0  0  0  0  0  0  0  0  0  0
    3.2969    2.4815    0.0000 H   0  0  0  0  0  0  0  0  0  0  0  0
    2.6256    1.9938    0.0000 H   0  0  0  0  0  0  0  0  0  0  0  0
    3.0781   -2.7565    0.0000 H   0  0  0  0  0  0  0  0  0  0  0  0
    3.4766   -2.0663    0.0000 H   0  0  0  0  0  0  0  0  0  0  0  0
    5.3449   -1.4592    0.0000 H   0  0  0  0  0  0  0  0  0  0  0  0
    6.0730   -1.7834    0.0000 H   0  0  0  0  0  0  0  0  0  0  0  0
    1.4631   -2.9839    0.0000 H   0  0  0  0  0  0  0  0  0  0  0  0
    1.6900   -2.1370    0.0000 H   0  0  0  0  0  0  0  0  0  0  0  0
    2.3100   -3.2109    0.0000 H   0  0  0  0  0  0  0  0  0  0  0  0
    6.8319   -0.4663    0.0000 H   0  0  0  0  0  0  0  0  0  0  0  0
    7.5133   -1.0181    0.0000 H   0  0  0  0  0  0  0  0  0  0  0  0
    6.9615   -1.6995    0.0000 H   0  0  0  0  0  0  0  0  0  0  0  0
  1  5  1  0  0  0  0
  1  6  1  0  0  0  0
  1 15  1  0  0  0  0
  2  9  1  0  0  0  0
  3 10  1  0  0  0  0
  3 20  1  0  0  0  0
  4 10  2  0  0  0  0
  5  7  1  0  0  0  0
  5 16  1  0  0  0  0
  5 17  1  0  0  0  0
  6  8  1  0  0  0  0
  6 18  1  0  0  0  0
  6 19  1  0  0  0  0
  7 11  1  0  0  0  0
  7 21  1  0  0  0  0
  7 22  1  0  0  0  0
  8 12  1  0  0  0  0
  8 23  1  0  0  0  0
  8 24  1  0  0  0  0
  9 10  1  0  0  0  0
  9 25  1  0  0  0  0
  9 26  1  0  0  0  0
 11 13  1  0  0  0  0
 11 27  1  0  0  0  0
 11 28  1  0  0  0  0
 12 14  1  0  0  0  0
 12 29  1  0  0  0  0
 12 30  1  0  0  0  0
 13 31  1  0  0  0  0
 13 32  1  0  0  0  0
 13 33  1  0  0  0  0
 14 34  1  0  0  0  0
 14 35  1  0  0  0  0
 14 36  1  0  0  0  0
M  CHG  2   1   1   2  -1
M  END
> <PUBCHEM_COMPOUND_CID>
6522

> <PUBCHEM_COMPOUND_CANONICALIZED>
1

> <PUBCHEM_CACTVS_COMPLEXITY>
115

> <PUBCHEM_CACTVS_HBOND_ACCEPTOR>
3

> <PUBCHEM_CACTVS_HBOND_DONOR>
1

> <PUBCHEM_CACTVS_ROTATABLE_BOND>
6

> <PUBCHEM_CACTVS_SUBSKEYS>
AAADceBwMABAAAAAAACAAAAAAAAAASAAAAAAAAAAAAAAAAAAAAAAGgQACAAACACEwACCCAAAAgAIAACQCAAAAAAAAAAAAAAAAAAAAAAAAAAAAAAAAAAAAAAAAAAAAAAAAAAAAAAAAAAAAAAAAAAAAAAAAA==

> <PUBCHEM_IUPAC_OPENEYE_NAME>
dibutylstannanylium; 2-hydroxy-2-oxo-ethanethiolate

> <PUBCHEM_IUPAC_CAS_NAME>
dibutylstannanylium; 2-hydroxy-2-oxoethanethiolate

> <PUBCHEM_IUPAC_NAME>
dibutylstannanylium; 2-hydroxy-2-oxoethanethiolate

> <PUBCHEM_IUPAC_SYSTEMATIC_NAME>
dibutylstannanylium; 2-oxidanyl-2-oxidanylidene-ethanethiolate

> <PUBCHEM_IUPAC_TRADITIONAL_NAME>
dibutylstannanylium; 2-hydroxy-2-keto-ethanethiolate

> <PUBCHEM_IUPAC_INCHI>
InChI=1S/2C4H9.C2H4O2S.Sn.H/c2*1-3-4-2;3-2(4)1-5;;/h2*1,3-4H2,2H3;5H,1H2,(H,3,4);;/q;;;+1;/p-1

> <PUBCHEM_IUPAC_INCHIKEY>
DBIRWMACRXKQKI-UHFFFAOYSA-M

> <PUBCHEM_EXACT_MASS>
326.036246

> <PUBCHEM_MOLECULAR_FORMULA>
C10H22O2SSn

> <PUBCHEM_MOLECULAR_WEIGHT>
325.05548

> <PUBCHEM_OPENEYE_CAN_SMILES>
CCCC[SnH+]CCCC.C(C(=O)O)[S-]

> <PUBCHEM_OPENEYE_ISO_SMILES>
CCCC[SnH+]CCCC.C(C(=O)O)[S-]

> <PUBCHEM_CACTVS_TPSA>
38.3

> <PUBCHEM_MONOISOTOPIC_WEIGHT>
326.036246

> <PUBCHEM_TOTAL_CHARGE>
0

> <PUBCHEM_HEAVY_ATOM_COUNT>
14

> <PUBCHEM_ATOM_DEF_STEREO_COUNT>
0

> <PUBCHEM_ATOM_UDEF_STEREO_COUNT>
0

> <PUBCHEM_BOND_DEF_STEREO_COUNT>
0

> <PUBCHEM_BOND_UDEF_STEREO_COUNT>
0

> <PUBCHEM_ISOTOPIC_ATOM_COUNT>
0

> <PUBCHEM_COMPONENT_COUNT>
2

> <PUBCHEM_CACTVS_TAUTO_COUNT>
2

> <PUBCHEM_NONSTANDARDBOND>
1  2  6
1  3  6

> <PUBCHEM_COORDINATE_TYPE>
1
5
255

> <PUBCHEM_BONDANNOTATIONS>
1  2  4
1  3  4

$$$$

