38251
  -OEChem-07051213113D

 22 24  0     0  0  0  0  0  0999 V2000
   -2.0899    3.1362   -0.0002 Cl  0  0  0  0  0  0  0  0  0  0  0  0
   -2.0918   -3.1360   -0.0005 Cl  0  0  0  0  0  0  0  0  0  0  0  0
   -4.8426    1.5742    0.0003 Cl  0  0  0  0  0  0  0  0  0  0  0  0
   -4.8428   -1.5739    0.0003 Cl  0  0  0  0  0  0  0  0  0  0  0  0
    5.2748    1.6172   -0.0003 Cl  0  0  0  0  0  0  0  0  0  0  0  0
    5.2749   -1.6173    0.0005 Cl  0  0  0  0  0  0  0  0  0  0  0  0
    0.2370    1.4269   -0.0001 O   0  0  0  0  0  0  0  0  0  0  0  0
    0.2368   -1.4269   -0.0002 O   0  0  0  0  0  0  0  0  0  0  0  0
   -0.9247    0.6971   -0.0001 C   0  0  0  0  0  0  0  0  0  0  0  0
   -0.9247   -0.6969   -0.0001 C   0  0  0  0  0  0  0  0  0  0  0  0
    1.3986    0.6970   -0.0001 C   0  0  0  0  0  0  0  0  0  0  0  0
    1.3985   -0.6972    0.0000 C   0  0  0  0  0  0  0  0  0  0  0  0
   -2.1297    1.3985    0.0002 C   0  0  0  0  0  0  0  0  0  0  0  0
   -2.1300   -1.3983   -0.0002 C   0  0  0  0  0  0  0  0  0  0  0  0
    2.6039    1.3983   -0.0001 C   0  0  0  0  0  0  0  0  0  0  0  0
    2.6037   -1.3986    0.0001 C   0  0  0  0  0  0  0  0  0  0  0  0
   -3.3364    0.6982    0.0002 C   0  0  0  0  0  0  0  0  0  0  0  0
   -3.3365   -0.6978    0.0000 C   0  0  0  0  0  0  0  0  0  0  0  0
    3.8104    0.6978    0.0001 C   0  0  0  0  0  0  0  0  0  0  0  0
    3.8103   -0.6982    0.0002 C   0  0  0  0  0  0  0  0  0  0  0  0
    2.5929    2.4857   -0.0002 H   0  0  0  0  0  0  0  0  0  0  0  0
    2.5927   -2.4860    0.0002 H   0  0  0  0  0  0  0  0  0  0  0  0
  1 13  1  0  0  0  0
  2 14  1  0  0  0  0
  3 17  1  0  0  0  0
  4 18  1  0  0  0  0
  5 19  1  0  0  0  0
  6 20  1  0  0  0  0
  7  9  1  0  0  0  0
  7 11  1  0  0  0  0
  8 10  1  0  0  0  0
  8 12  1  0  0  0  0
  9 10  2  0  0  0  0
  9 13  1  0  0  0  0
 10 14  1  0  0  0  0
 11 12  1  0  0  0  0
 11 15  2  0  0  0  0
 12 16  2  0  0  0  0
 13 17  2  0  0  0  0
 14 18  2  0  0  0  0
 15 19  1  0  0  0  0
 15 21  1  0  0  0  0
 16 20  1  0  0  0  0
 16 22  1  0  0  0  0
 17 18  1  0  0  0  0
 19 20  2  0  0  0  0
M  END
> <PUBCHEM_COMPOUND_CID>
38251

> <PUBCHEM_CONFORMER_RMSD>
0.6

> <PUBCHEM_CONFORMER_DIVERSEORDER>
1

> <PUBCHEM_MMFF94_PARTIAL_CHARGES>
22
1 -0.18
10 0.08
11 0.08
12 0.08
13 0.18
14 0.18
15 -0.15
16 -0.15
17 0.18
18 0.18
19 0.18
2 -0.18
20 0.18
21 0.15
22 0.15
3 -0.18
4 -0.18
5 -0.18
6 -0.18
7 -0.17
8 -0.17
9 0.08

> <PUBCHEM_EFFECTIVE_ROTOR_COUNT>
0.4

> <PUBCHEM_PHARMACOPHORE_FEATURES>
5
1 7 acceptor
1 8 acceptor
6 11 12 15 16 19 20 rings
6 7 8 9 10 11 12 rings
6 9 10 13 14 17 18 rings

> <PUBCHEM_HEAVY_ATOM_COUNT>
20

> <PUBCHEM_ATOM_DEF_STEREO_COUNT>
0

> <PUBCHEM_ATOM_UDEF_STEREO_COUNT>
0

> <PUBCHEM_BOND_DEF_STEREO_COUNT>
0

> <PUBCHEM_BOND_UDEF_STEREO_COUNT>
0

> <PUBCHEM_ISOTOPIC_ATOM_COUNT>
0

> <PUBCHEM_COMPONENT_COUNT>
1

> <PUBCHEM_CACTVS_TAUTO_COUNT>
1

> <PUBCHEM_CONFORMER_ID>
0000956B00000001

> <PUBCHEM_MMFF94_ENERGY>
57.0921

> <PUBCHEM_FEATURE_SELFOVERLAP>
25.449

> <PUBCHEM_SHAPE_FINGERPRINT>
10319926 262 18264226810916874634
10411042 1 17762336916572704043
10608611 8 18409169922015055536
10616163 171 18337669698694314942
10967382 1 18338799043064266759
11578080 2 17024609792900115171
12107183 9 17764877183753591426
12173636 292 18339082704337905397
12236239 1 17988924482955445350
12390115 104 18188472679618102153
12403259 226 18408328773834026512
13140716 1 18338511941786127579
13167823 11 18341614836877918890
138480 1 17113538675913012903
13862211 1 18409169870839691759
14341114 176 18412257346349628336
14790565 3 18120366812302145649
15042514 8 18412258411844714555
15196674 1 18410856559745284612
15442244 35 18339926025661661626
15536298 74 18408322186007659398
16945 1 18410573989725980295
17492 89 18411419544249225434
17804303 29 18408602573772250644
1813 80 17131834257330347924
18186145 218 17918280861224460158
19591789 44 18339360889079588010
200 152 18113340799438977759
20510252 161 18334574668083034665
20645477 70 18335137609768579998
21065198 57 18410012130931668040
21236236 1 18408323285688170187
21267235 1 18411410704926591546
21279426 13 18338236071514696567
221490 88 18340199679582190562
23402539 116 18334864926468150287
23402655 69 18335141994317934636
23557571 272 18261101933507143860
23559900 14 18335423474275304256
245318 6 16696942027053768924
2748010 2 17975985262948511649
3004659 81 18342454872789213774
335352 9 18338517555049673854
34934 24 18412268324001128882
350125 39 18339077193726091600
3545911 37 18410291372578216700
4214541 1 18410855477334417732
474 4 17417524693129539756
5104073 3 18410573989604661946
559249 180 18341618173851554866
633830 44 17275380993662953248
69090 78 18409732889142778951
77779 3 18410572890288199052
8809292 202 18341610395396607091
9709674 26 18408317787544923838

> <PUBCHEM_SHAPE_MULTIPOLES>
411.07
10.68
2.98
0.62
6.08
0
0
0
0
-1.83
0
-0.01
0
0

> <PUBCHEM_SHAPE_SELFOVERLAP>
860.244

> <PUBCHEM_SHAPE_VOLUME>
237.8

> <PUBCHEM_COORDINATE_TYPE>
2
5
10

$$$$

