5281945
  -OEChem-07051213013D

 43 45  0     0  0  0  0  0  0999 V2000
    1.5449   -0.9750    0.0337 O   0  0  0  0  0  0  0  0  0  0  0  0
   -2.4946    1.5828    0.7793 O   0  0  0  0  0  0  0  0  0  0  0  0
   -2.6343   -3.1724    0.4226 O   0  0  0  0  0  0  0  0  0  0  0  0
    2.5913    2.5576    0.1513 O   0  0  0  0  0  0  0  0  0  0  0  0
   -0.1591    2.6912    0.5436 O   0  0  0  0  0  0  0  0  0  0  0  0
   -2.5702   -0.7818    0.6024 C   0  0  0  0  0  0  0  0  0  0  0  0
   -0.4509    0.3550    0.4072 C   0  0  0  0  0  0  0  0  0  0  0  0
   -1.8343    0.4037    0.5967 C   0  0  0  0  0  0  0  0  0  0  0  0
    0.1916   -0.8676    0.2249 C   0  0  0  0  0  0  0  0  0  0  0  0
   -4.0519   -0.7454    0.8055 C   0  0  0  0  0  0  0  0  0  0  0  0
   -1.9278   -2.0071    0.4196 C   0  0  0  0  0  0  0  0  0  0  0  0
   -0.5464   -2.0515    0.2304 C   0  0  0  0  0  0  0  0  0  0  0  0
    0.3503    1.5885    0.3946 C   0  0  0  0  0  0  0  0  0  0  0  0
    2.3068    0.1828    0.0337 C   0  0  0  0  0  0  0  0  0  0  0  0
    1.8095    1.4233    0.1895 C   0  0  0  0  0  0  0  0  0  0  0  0
   -4.8160   -0.6236   -0.4881 C   0  0  0  0  0  0  0  0  0  0  0  0
    3.7419   -0.0735   -0.1823 C   0  0  0  0  0  0  0  0  0  0  0  0
   -5.6402    0.3688   -0.8749 C   0  0  0  0  0  0  0  0  0  0  0  0
    4.5865   -0.2789    0.9092 C   0  0  0  0  0  0  0  0  0  0  0  0
    4.2572   -0.1108   -1.4784 C   0  0  0  0  0  0  0  0  0  0  0  0
   -6.3733    0.4269   -2.1850 C   0  0  0  0  0  0  0  0  0  0  0  0
   -5.9004    1.5406    0.0341 C   0  0  0  0  0  0  0  0  0  0  0  0
    5.9448   -0.5213    0.7047 C   0  0  0  0  0  0  0  0  0  0  0  0
    5.6155   -0.3536   -1.6829 C   0  0  0  0  0  0  0  0  0  0  0  0
    6.4593   -0.5589   -0.5914 C   0  0  0  0  0  0  0  0  0  0  0  0
   -4.3982   -1.6495    1.3229 H   0  0  0  0  0  0  0  0  0  0  0  0
   -4.2955    0.0318    1.5338 H   0  0  0  0  0  0  0  0  0  0  0  0
   -0.0475   -3.0068    0.0878 H   0  0  0  0  0  0  0  0  0  0  0  0
   -4.6794   -1.4517   -1.1831 H   0  0  0  0  0  0  0  0  0  0  0  0
   -1.8795    2.3308    0.7561 H   0  0  0  0  0  0  0  0  0  0  0  0
    4.2001   -0.2532    1.9252 H   0  0  0  0  0  0  0  0  0  0  0  0
    3.6119    0.0470   -2.3392 H   0  0  0  0  0  0  0  0  0  0  0  0
   -3.5545   -3.0160    0.1601 H   0  0  0  0  0  0  0  0  0  0  0  0
   -6.1650   -0.4532   -2.8022 H   0  0  0  0  0  0  0  0  0  0  0  0
   -7.4541    0.4689   -2.0162 H   0  0  0  0  0  0  0  0  0  0  0  0
   -6.0718    1.3127   -2.7532 H   0  0  0  0  0  0  0  0  0  0  0  0
   -5.2612    1.6174    0.9120 H   0  0  0  0  0  0  0  0  0  0  0  0
   -5.7587    2.4740   -0.5232 H   0  0  0  0  0  0  0  0  0  0  0  0
   -6.9388    1.5135    0.3820 H   0  0  0  0  0  0  0  0  0  0  0  0
    3.5198    2.3135    0.0088 H   0  0  0  0  0  0  0  0  0  0  0  0
    6.6020   -0.6811    1.5544 H   0  0  0  0  0  0  0  0  0  0  0  0
    6.0162   -0.3827   -2.6919 H   0  0  0  0  0  0  0  0  0  0  0  0
    7.5169   -0.7478   -0.7505 H   0  0  0  0  0  0  0  0  0  0  0  0
  1  9  1  0  0  0  0
  1 14  1  0  0  0  0
  2  8  1  0  0  0  0
  2 30  1  0  0  0  0
  3 11  1  0  0  0  0
  3 33  1  0  0  0  0
  4 15  1  0  0  0  0
  4 40  1  0  0  0  0
  5 13  2  0  0  0  0
  6  8  2  0  0  0  0
  6 10  1  0  0  0  0
  6 11  1  0  0  0  0
  7  8  1  0  0  0  0
  7  9  2  0  0  0  0
  7 13  1  0  0  0  0
  9 12  1  0  0  0  0
 10 16  1  0  0  0  0
 10 26  1  0  0  0  0
 10 27  1  0  0  0  0
 11 12  2  0  0  0  0
 12 28  1  0  0  0  0
 13 15  1  0  0  0  0
 14 15  2  0  0  0  0
 14 17  1  0  0  0  0
 16 18  2  0  0  0  0
 16 29  1  0  0  0  0
 17 19  2  0  0  0  0
 17 20  1  0  0  0  0
 18 21  1  0  0  0  0
 18 22  1  0  0  0  0
 19 23  1  0  0  0  0
 19 31  1  0  0  0  0
 20 24  2  0  0  0  0
 20 32  1  0  0  0  0
 21 34  1  0  0  0  0
 21 35  1  0  0  0  0
 21 36  1  0  0  0  0
 22 37  1  0  0  0  0
 22 38  1  0  0  0  0
 22 39  1  0  0  0  0
 23 25  2  0  0  0  0
 23 41  1  0  0  0  0
 24 25  1  0  0  0  0
 24 42  1  0  0  0  0
 25 43  1  0  0  0  0
M  END
> <PUBCHEM_COMPOUND_CID>
5281945

> <PUBCHEM_CONFORMER_RMSD>
0.6

> <PUBCHEM_CONFORMER_DIVERSEORDER>
1
9
8
5
10
14
2
11
6
13
4
7
12
3

> <PUBCHEM_MMFF94_PARTIAL_CHARGES>
35
1 -0.16
10 0.28
11 0.08
12 -0.15
13 0.47
14 0.05
15 0.09
16 -0.29
17 0.03
18 -0.28
19 -0.15
2 -0.53
20 -0.15
21 0.14
22 0.14
23 -0.15
24 -0.15
25 -0.15
28 0.15
29 0.15
3 -0.53
30 0.45
31 0.15
32 0.15
33 0.45
4 -0.53
40 0.45
41 0.15
42 0.15
43 0.15
5 -0.57
6 -0.14
7 0.09
8 0.08
9 0.08

> <PUBCHEM_EFFECTIVE_ROTOR_COUNT>
3

> <PUBCHEM_PHARMACOPHORE_FEATURES>
9
1 1 acceptor
1 2 donor
1 3 donor
1 4 donor
1 5 acceptor
3 18 21 22 hydrophobe
6 1 7 9 13 14 15 rings
6 17 19 20 23 24 25 rings
6 6 7 8 9 11 12 rings

> <PUBCHEM_HEAVY_ATOM_COUNT>
25

> <PUBCHEM_ATOM_DEF_STEREO_COUNT>
0

> <PUBCHEM_ATOM_UDEF_STEREO_COUNT>
0

> <PUBCHEM_BOND_DEF_STEREO_COUNT>
0

> <PUBCHEM_BOND_UDEF_STEREO_COUNT>
0

> <PUBCHEM_ISOTOPIC_ATOM_COUNT>
0

> <PUBCHEM_COMPONENT_COUNT>
1

> <PUBCHEM_CACTVS_TAUTO_COUNT>
24

> <PUBCHEM_CONFORMER_ID>
0050989900000001

> <PUBCHEM_MMFF94_ENERGY>
73.6356

> <PUBCHEM_FEATURE_SELFOVERLAP>
45.697

> <PUBCHEM_SHAPE_FINGERPRINT>
10165383 225 18131635617249465311
10693767 8 18041568051906899191
10835480 77 18338239250350294504
10906281 52 18336529612583989371
11578080 2 17845107177412756164
11796584 16 17846776296029634154
12011746 2 18409730672733984447
12236239 1 17703787007828692666
12555020 224 18335702724237617407
12596602 18 14045738240609329429
12788726 201 18337675333448541801
13140716 1 18335694984621940048
13533116 47 14129052647677323086
13540713 4 18122067499012240419
13862211 1 18408040719309958930
14251752 14 17703794738263137500
15052358 14 18411702093030264815
15099037 51 18411418406134879403
15183329 4 18343023311146395461
15196674 1 18266175037192192122
18222031 100 18114178640574726016
19958102 18 18270963560686940086
200 152 17530965778753940745
20511986 3 18059860524279243086
21267235 1 18337659841570193563
21279426 13 18411420574913944383
21307412 95 18115289159988028382
21521239 73 17895207567108799807
21637258 2 15285366141017870135
21792961 116 18131627907102966219
21859007 373 18129402490994286140
2215653 11 18259701203349564526
22224240 67 16805330985892507982
22393880 68 18338808814690248503
23198884 109 15554446297357801649
23402539 116 18259705605622276045
23536379 177 16343703235644811314
23559900 14 18335140830524508264
23569914 2 15622600470261017989
23569943 247 17461425103902882902
23576562 1 18129657470243128965
2838139 119 17346325912156560391
3004659 81 18273209786408118996
3009799 131 18408327687233226028
335352 9 18410854352432774981
4015057 19 17530970125086817153
4058900 60 17631454630457445675
44062 13 18340484448493310199
484989 97 18268432335624851883
5104073 3 18191294988242430530
6328613 192 18130783430517260236
633830 44 16773238366368050336
7226269 152 18411979174207939305
9709674 26 18050844412456023970

> <PUBCHEM_SHAPE_MULTIPOLES>
485.14
15.34
2.23
1.25
1.02
0.07
0.68
-0.23
6.53
-1.47
-0.57
-0.27
-0.06
0.57

> <PUBCHEM_SHAPE_SELFOVERLAP>
1062.064

> <PUBCHEM_SHAPE_VOLUME>
262.1

> <PUBCHEM_COORDINATE_TYPE>
2
5
10

$$$$

