14023
  -OEChem-06241222412D

 43 40  0     0  0  0  0  0  0999 V2000
    3.9696   -0.0265    0.0000 Sn  0  0  0  0  0  0  0  0  0  0  0  0
    3.6276    0.9132    0.0000 O   0  0  0  0  0  0  0  0  0  0  0  0
    3.9696   -1.0265    0.0000 O   0  0  0  0  0  0  0  0  0  0  0  0
    2.0000    0.3208    0.0000 O   0  0  0  0  0  0  0  0  0  0  0  0
    2.2376   -1.0265    0.0000 O   0  0  0  0  0  0  0  0  0  0  0  0
    4.8356   -0.5265    0.0000 C   0  0  0  0  0  0  0  0  0  0  0  0
    4.8356    0.4735    0.0000 C   0  0  0  0  0  0  0  0  0  0  0  0
    5.7017   -0.0265    0.0000 C   0  0  0  0  0  0  0  0  0  0  0  0
    5.1777    1.4132    0.0000 C   0  0  0  0  0  0  0  0  0  0  0  0
    6.5677   -0.5265    0.0000 C   0  0  0  0  0  0  0  0  0  0  0  0
    6.1625    1.5868    0.0000 C   0  0  0  0  0  0  0  0  0  0  0  0
    3.1036   -1.5265    0.0000 C   0  0  0  0  0  0  0  0  0  0  0  0
    2.6428    1.0868    0.0000 C   0  0  0  0  0  0  0  0  0  0  0  0
    7.4337   -0.0265    0.0000 C   0  0  0  0  0  0  0  0  0  0  0  0
    6.5045    2.5265    0.0000 C   0  0  0  0  0  0  0  0  0  0  0  0
    3.1036   -2.5265    0.0000 C   0  0  0  0  0  0  0  0  0  0  0  0
    2.3008    2.0265    0.0000 C   0  0  0  0  0  0  0  0  0  0  0  0
    4.4371   -1.0015    0.0000 H   0  0  0  0  0  0  0  0  0  0  0  0
    5.2342   -1.0015    0.0000 H   0  0  0  0  0  0  0  0  0  0  0  0
    4.9786   -0.1298    0.0000 H   0  0  0  0  0  0  0  0  0  0  0  0
    5.4546    0.4374    0.0000 H   0  0  0  0  0  0  0  0  0  0  0  0
    5.1777    2.0332    0.0000 H   0  0  0  0  0  0  0  0  0  0  0  0
    4.5671    1.5208    0.0000 H   0  0  0  0  0  0  0  0  0  0  0  0
    6.1002    0.4484    0.0000 H   0  0  0  0  0  0  0  0  0  0  0  0
    5.3031    0.4484    0.0000 H   0  0  0  0  0  0  0  0  0  0  0  0
    4.5066   -1.3365    0.0000 H   0  0  0  0  0  0  0  0  0  0  0  0
    4.0261    1.3881    0.0000 H   0  0  0  0  0  0  0  0  0  0  0  0
    6.1692   -1.0015    0.0000 H   0  0  0  0  0  0  0  0  0  0  0  0
    6.9662   -1.0015    0.0000 H   0  0  0  0  0  0  0  0  0  0  0  0
    6.1625    0.9668    0.0000 H   0  0  0  0  0  0  0  0  0  0  0  0
    6.7730    1.4792    0.0000 H   0  0  0  0  0  0  0  0  0  0  0  0
    7.0871    2.3145    0.0000 H   0  0  0  0  0  0  0  0  0  0  0  0
    6.7165    3.1091    0.0000 H   0  0  0  0  0  0  0  0  0  0  0  0
    5.9219    2.7386    0.0000 H   0  0  0  0  0  0  0  0  0  0  0  0
    7.7437   -0.5635    0.0000 H   0  0  0  0  0  0  0  0  0  0  0  0
    7.9706    0.2835    0.0000 H   0  0  0  0  0  0  0  0  0  0  0  0
    7.1237    0.5104    0.0000 H   0  0  0  0  0  0  0  0  0  0  0  0
    2.8834    2.2386    0.0000 H   0  0  0  0  0  0  0  0  0  0  0  0
    2.0887    2.6091    0.0000 H   0  0  0  0  0  0  0  0  0  0  0  0
    1.7182    1.8145    0.0000 H   0  0  0  0  0  0  0  0  0  0  0  0
    2.4836   -2.5265    0.0000 H   0  0  0  0  0  0  0  0  0  0  0  0
    3.1036   -3.1465    0.0000 H   0  0  0  0  0  0  0  0  0  0  0  0
    3.7236   -2.5265    0.0000 H   0  0  0  0  0  0  0  0  0  0  0  0
  1  6  1  0  0  0  0
  1  7  1  0  0  0  0
  2 13  1  0  0  0  0
  2 27  1  0  0  0  0
  3 12  1  0  0  0  0
  3 26  1  0  0  0  0
  4 13  2  0  0  0  0
  5 12  2  0  0  0  0
  6  8  1  0  0  0  0
  6 18  1  0  0  0  0
  6 19  1  0  0  0  0
  7  9  1  0  0  0  0
  7 20  1  0  0  0  0
  7 21  1  0  0  0  0
  8 10  1  0  0  0  0
  8 24  1  0  0  0  0
  8 25  1  0  0  0  0
  9 11  1  0  0  0  0
  9 22  1  0  0  0  0
  9 23  1  0  0  0  0
 10 14  1  0  0  0  0
 10 28  1  0  0  0  0
 10 29  1  0  0  0  0
 11 15  1  0  0  0  0
 11 30  1  0  0  0  0
 11 31  1  0  0  0  0
 12 16  1  0  0  0  0
 13 17  1  0  0  0  0
 14 35  1  0  0  0  0
 14 36  1  0  0  0  0
 14 37  1  0  0  0  0
 15 32  1  0  0  0  0
 15 33  1  0  0  0  0
 15 34  1  0  0  0  0
 16 41  1  0  0  0  0
 16 42  1  0  0  0  0
 16 43  1  0  0  0  0
 17 38  1  0  0  0  0
 17 39  1  0  0  0  0
 17 40  1  0  0  0  0
M  END
> <PUBCHEM_COMPOUND_CID>
14023

> <PUBCHEM_COMPOUND_CANONICALIZED>
1

> <PUBCHEM_CACTVS_COMPLEXITY>
154

> <PUBCHEM_CACTVS_HBOND_ACCEPTOR>
4

> <PUBCHEM_CACTVS_HBOND_DONOR>
2

> <PUBCHEM_CACTVS_ROTATABLE_BOND>
6

> <PUBCHEM_CACTVS_SUBSKEYS>
AAADceBwOAAAAAAAAACAAAAAAAAAAAAAAAAAAAAAAAAAAAAAAAAAGgAACAAACACAgAACCAAAAgAIAACQCAAAAAAAAAAAAAAAAAAAAAAAAAAAAAAAAAAAAAAAAAAAAAAAAAAAAAAAAAAAAAAAAAAAAAAAAA==

> <PUBCHEM_IUPAC_OPENEYE_NAME>
acetic acid; dibutyltin

> <PUBCHEM_IUPAC_CAS_NAME>
acetic acid; dibutyltin

> <PUBCHEM_IUPAC_NAME>
acetic acid; dibutyltin

> <PUBCHEM_IUPAC_SYSTEMATIC_NAME>
dibutyltin; ethanoic acid

> <PUBCHEM_IUPAC_TRADITIONAL_NAME>
acetic acid; dibutyltin

> <PUBCHEM_IUPAC_INCHI>
InChI=1S/2C4H9.2C2H4O2.Sn/c2*1-3-4-2;2*1-2(3)4;/h2*1,3-4H2,2H3;2*1H3,(H,3,4);

> <PUBCHEM_IUPAC_INCHIKEY>
LDZDQDDROJXUBO-UHFFFAOYSA-N

> <PUBCHEM_EXACT_MASS>
354.085304

> <PUBCHEM_MOLECULAR_FORMULA>
C12H26O4Sn

> <PUBCHEM_MOLECULAR_WEIGHT>
353.04244

> <PUBCHEM_OPENEYE_CAN_SMILES>
CCCC[Sn]CCCC.CC(=O)O.CC(=O)O

> <PUBCHEM_OPENEYE_ISO_SMILES>
CCCC[Sn]CCCC.CC(=O)O.CC(=O)O

> <PUBCHEM_CACTVS_TPSA>
74.6

> <PUBCHEM_MONOISOTOPIC_WEIGHT>
354.085304

> <PUBCHEM_TOTAL_CHARGE>
0

> <PUBCHEM_HEAVY_ATOM_COUNT>
17

> <PUBCHEM_ATOM_DEF_STEREO_COUNT>
0

> <PUBCHEM_ATOM_UDEF_STEREO_COUNT>
0

> <PUBCHEM_BOND_DEF_STEREO_COUNT>
0

> <PUBCHEM_BOND_UDEF_STEREO_COUNT>
0

> <PUBCHEM_ISOTOPIC_ATOM_COUNT>
0

> <PUBCHEM_COMPONENT_COUNT>
3

> <PUBCHEM_CACTVS_TAUTO_COUNT>
3

> <PUBCHEM_NONSTANDARDBOND>
1  2  6
1  3  6

> <PUBCHEM_COORDINATE_TYPE>
1
5
255

$$$$

