164480
  -OEChem-07051213083D

 26 28  0     1  0  0  0  0  0999 V2000
    1.3031    0.6441   -1.6681 O   0  0  0  0  0  0  0  0  0  0  0  0
    3.1405    1.5158    0.0915 O   0  0  0  0  0  0  0  0  0  0  0  0
    0.0418    2.5691    0.3226 O   0  0  0  0  0  0  0  0  0  0  0  0
    1.0272    0.4142   -0.2911 C   0  0  1  0  0  0  0  0  0  0  0  0
    0.3108   -0.9163   -0.1600 C   0  0  0  0  0  0  0  0  0  0  0  0
    2.3046    0.4604    0.5600 C   0  0  1  0  0  0  0  0  0  0  0  0
   -0.0796    1.3793    0.0927 C   0  0  0  0  0  0  0  0  0  0  0  0
   -1.1262   -0.6892   -0.0887 C   0  0  0  0  0  0  0  0  0  0  0  0
   -1.3624    0.6729    0.0879 C   0  0  0  0  0  0  0  0  0  0  0  0
    0.9800   -2.0570    0.0605 C   0  0  0  0  0  0  0  0  0  0  0  0
    3.0526   -0.8560    0.4807 C   0  0  0  0  0  0  0  0  0  0  0  0
    2.4210   -2.0121    0.2071 C   0  0  0  0  0  0  0  0  0  0  0  0
   -2.1907   -1.5749   -0.1267 C   0  0  0  0  0  0  0  0  0  0  0  0
   -2.6315    1.2022    0.2325 C   0  0  0  0  0  0  0  0  0  0  0  0
   -3.4866   -1.0648    0.0100 C   0  0  0  0  0  0  0  0  0  0  0  0
   -3.7048    0.3123    0.1891 C   0  0  0  0  0  0  0  0  0  0  0  0
    2.0764    0.6703    1.6115 H   0  0  0  0  0  0  0  0  0  0  0  0
    0.4827   -3.0069    0.2190 H   0  0  0  0  0  0  0  0  0  0  0  0
    4.1235   -0.8583    0.6597 H   0  0  0  0  0  0  0  0  0  0  0  0
    2.9661   -2.9485    0.1676 H   0  0  0  0  0  0  0  0  0  0  0  0
   -2.0381   -2.6414   -0.2557 H   0  0  0  0  0  0  0  0  0  0  0  0
    0.5274    0.3919   -2.1976 H   0  0  0  0  0  0  0  0  0  0  0  0
   -2.7963    2.2645    0.3709 H   0  0  0  0  0  0  0  0  0  0  0  0
    3.3245    1.3556   -0.8502 H   0  0  0  0  0  0  0  0  0  0  0  0
   -4.3365   -1.7418   -0.0183 H   0  0  0  0  0  0  0  0  0  0  0  0
   -4.7200    0.6848    0.2958 H   0  0  0  0  0  0  0  0  0  0  0  0
  1  4  1  0  0  0  0
  1 22  1  0  0  0  0
  2  6  1  0  0  0  0
  2 24  1  0  0  0  0
  3  7  2  0  0  0  0
  4  5  1  0  0  0  0
  4  6  1  0  0  0  0
  4  7  1  0  0  0  0
  5  8  1  0  0  0  0
  5 10  2  0  0  0  0
  6 11  1  0  0  0  0
  6 17  1  0  0  0  0
  7  9  1  0  0  0  0
  8  9  1  0  0  0  0
  8 13  2  0  0  0  0
  9 14  2  0  0  0  0
 10 12  1  0  0  0  0
 10 18  1  0  0  0  0
 11 12  2  0  0  0  0
 11 19  1  0  0  0  0
 12 20  1  0  0  0  0
 13 15  1  0  0  0  0
 13 21  1  0  0  0  0
 14 16  1  0  0  0  0
 14 23  1  0  0  0  0
 15 16  2  0  0  0  0
 15 25  1  0  0  0  0
 16 26  1  0  0  0  0
M  END
> <PUBCHEM_COMPOUND_CID>
164480

> <PUBCHEM_CONFORMER_RMSD>
0.4

> <PUBCHEM_CONFORMER_DIVERSEORDER>
1

> <PUBCHEM_MMFF94_PARTIAL_CHARGES>
25
1 -0.68
10 -0.15
11 -0.29
12 -0.15
13 -0.15
14 -0.15
15 -0.15
16 -0.15
18 0.15
19 0.15
2 -0.68
20 0.15
21 0.15
22 0.4
23 0.15
24 0.4
25 0.15
26 0.15
3 -0.57
4 0.48
5 -0.17
6 0.42
7 0.42
8 0.03
9 0.09

> <PUBCHEM_EFFECTIVE_ROTOR_COUNT>
0.2

> <PUBCHEM_PHARMACOPHORE_FEATURES>
8
1 1 acceptor
1 1 donor
1 2 acceptor
1 2 donor
1 3 acceptor
5 4 5 7 8 9 rings
6 4 5 6 10 11 12 rings
6 8 9 13 14 15 16 rings

> <PUBCHEM_HEAVY_ATOM_COUNT>
16

> <PUBCHEM_ATOM_DEF_STEREO_COUNT>
2

> <PUBCHEM_ATOM_UDEF_STEREO_COUNT>
0

> <PUBCHEM_BOND_DEF_STEREO_COUNT>
0

> <PUBCHEM_BOND_UDEF_STEREO_COUNT>
0

> <PUBCHEM_ISOTOPIC_ATOM_COUNT>
0

> <PUBCHEM_COMPONENT_COUNT>
1

> <PUBCHEM_CACTVS_TAUTO_COUNT>
1

> <PUBCHEM_CONFORMER_ID>
0002828000000001

> <PUBCHEM_MMFF94_ENERGY>
44.4167

> <PUBCHEM_FEATURE_SELFOVERLAP>
40.775

> <PUBCHEM_SHAPE_FINGERPRINT>
10608611 8 18411425050328096913
10922523 26 18059296568981708317
10967382 1 18337955580191056379
10980938 120 18409730642616543802
11132069 177 18409460188546903482
11471102 20 18411144619318401279
11769659 78 18270687574646739331
11806522 49 18267029366781502399
12251169 10 18337114574055074074
12382932 28 18408604798723578755
12423570 1 14367432922734499220
13132413 78 18335986380561959149
13140716 1 18338515351926922139
14144814 61 18410011031298831499
15196674 1 18410294713883470483
15442244 35 18265334104128604443
15536298 74 18334295379307987370
15775835 57 18334853883590306339
16945 1 18121785190389978098
17804303 29 18192147324787306678
193761 8 17761211415822662411
200 152 18114760269525573335
20559304 39 18340200795983374615
20645477 70 18409454717233692303
21267235 1 18410003360350480459
21501502 16 18409168826682123219
21501925 9 18411427223534108555
22445834 79 18268712881865032579
2334 1 18410012117609176051
23388829 49 18264779769926980175
23402539 116 18042420178092323397
23463225 33 18411702109867294362
23559900 14 18191312778572053978
2748010 2 18409450314438351191
335352 9 17977667833313336111
34934 24 18335991895600264237
5104073 3 18410573989995182059
53812653 166 18261676965208980033
7364860 26 18334855039253143462
8809292 202 18271520996013330795

> <PUBCHEM_SHAPE_MULTIPOLES>
311.66
5.32
2.23
0.79
1.78
0.15
0.2
-0.73
-0.66
-0.56
-0.13
-0.23
0.09
-0.24

> <PUBCHEM_SHAPE_SELFOVERLAP>
703.295

> <PUBCHEM_SHAPE_VOLUME>
164

> <PUBCHEM_COORDINATE_TYPE>
2
5
10

$$$$

