13090
  -OEChem-06261207443D

 28 31  0     0  0  0  0  0  0999 V2000
   -4.6979    1.0975    0.0023 O   0  5  0  0  0  0  0  0  0  0  0  0
   -4.6976   -1.0977    0.0002 O   0  0  0  0  0  0  0  0  0  0  0  0
   -4.0900    0.0000    0.0007 N   0  3  0  0  0  0  0  0  0  0  0  0
    0.1343    0.0000   -0.0004 C   0  0  0  0  0  0  0  0  0  0  0  0
    1.5514   -0.0001    0.0000 C   0  0  0  0  0  0  0  0  0  0  0  0
   -0.5726   -1.2250   -0.0006 C   0  0  0  0  0  0  0  0  0  0  0  0
   -0.5724    1.2252   -0.0007 C   0  0  0  0  0  0  0  0  0  0  0  0
    2.2583    1.2250    0.0001 C   0  0  0  0  0  0  0  0  0  0  0  0
    2.2582   -1.2251    0.0003 C   0  0  0  0  0  0  0  0  0  0  0  0
    0.1444   -2.4289   -0.0003 C   0  0  0  0  0  0  0  0  0  0  0  0
    0.1450    2.4290   -0.0005 C   0  0  0  0  0  0  0  0  0  0  0  0
    1.5412    2.4289   -0.0002 C   0  0  0  0  0  0  0  0  0  0  0  0
    1.5408   -2.4289    0.0003 C   0  0  0  0  0  0  0  0  0  0  0  0
   -1.9751   -1.2081   -0.0010 C   0  0  0  0  0  0  0  0  0  0  0  0
   -1.9748    1.2085   -0.0009 C   0  0  0  0  0  0  0  0  0  0  0  0
   -2.6698    0.0002   -0.0010 C   0  0  0  0  0  0  0  0  0  0  0  0
    3.6607    1.2082    0.0004 C   0  0  0  0  0  0  0  0  0  0  0  0
    3.6606   -1.2085    0.0007 C   0  0  0  0  0  0  0  0  0  0  0  0
    4.3555   -0.0002    0.0007 C   0  0  0  0  0  0  0  0  0  0  0  0
   -0.3773   -3.3838   -0.0005 H   0  0  0  0  0  0  0  0  0  0  0  0
   -0.3767    3.3840   -0.0007 H   0  0  0  0  0  0  0  0  0  0  0  0
    2.0635    3.3835   -0.0002 H   0  0  0  0  0  0  0  0  0  0  0  0
    2.0630   -3.3836    0.0005 H   0  0  0  0  0  0  0  0  0  0  0  0
   -2.5065   -2.1585   -0.0008 H   0  0  0  0  0  0  0  0  0  0  0  0
   -2.5062    2.1589   -0.0008 H   0  0  0  0  0  0  0  0  0  0  0  0
    4.2256    2.1379    0.0004 H   0  0  0  0  0  0  0  0  0  0  0  0
    4.2255   -2.1382    0.0009 H   0  0  0  0  0  0  0  0  0  0  0  0
    5.4417   -0.0002    0.0009 H   0  0  0  0  0  0  0  0  0  0  0  0
  1  3  1  0  0  0  0
  2  3  2  0  0  0  0
  3 16  1  0  0  0  0
  4  5  1  0  0  0  0
  4  6  2  0  0  0  0
  4  7  1  0  0  0  0
  5  8  2  0  0  0  0
  5  9  1  0  0  0  0
  6 10  1  0  0  0  0
  6 14  1  0  0  0  0
  7 11  1  0  0  0  0
  7 15  2  0  0  0  0
  8 12  1  0  0  0  0
  8 17  1  0  0  0  0
  9 13  1  0  0  0  0
  9 18  2  0  0  0  0
 10 13  2  0  0  0  0
 10 20  1  0  0  0  0
 11 12  2  0  0  0  0
 11 21  1  0  0  0  0
 12 22  1  0  0  0  0
 13 23  1  0  0  0  0
 14 16  2  0  0  0  0
 14 24  1  0  0  0  0
 15 16  1  0  0  0  0
 15 25  1  0  0  0  0
 17 19  2  0  0  0  0
 17 26  1  0  0  0  0
 18 19  1  0  0  0  0
 18 27  1  0  0  0  0
 19 28  1  0  0  0  0
M  CHG  2   1  -1   3   1
M  END
> <PUBCHEM_COMPOUND_CID>
13090

> <PUBCHEM_CONFORMER_RMSD>
0.6

> <PUBCHEM_CONFORMER_DIVERSEORDER>
1

> <PUBCHEM_MMFF94_PARTIAL_CHARGES>
22
1 -0.52
10 -0.15
11 -0.15
12 -0.15
13 -0.15
14 -0.15
15 -0.15
16 0.13
17 -0.15
18 -0.15
19 -0.15
2 -0.52
20 0.15
21 0.15
22 0.15
23 0.15
24 0.15
25 0.15
26 0.15
27 0.15
28 0.15
3 0.91

> <PUBCHEM_EFFECTIVE_ROTOR_COUNT>
1

> <PUBCHEM_PHARMACOPHORE_FEATURES>
7
1 1 acceptor
1 1 anion
1 2 acceptor
6 4 5 6 9 10 13 rings
6 4 5 7 8 11 12 rings
6 4 6 7 14 15 16 rings
6 5 8 9 17 18 19 rings

> <PUBCHEM_HEAVY_ATOM_COUNT>
19

> <PUBCHEM_ATOM_DEF_STEREO_COUNT>
0

> <PUBCHEM_ATOM_UDEF_STEREO_COUNT>
0

> <PUBCHEM_BOND_DEF_STEREO_COUNT>
0

> <PUBCHEM_BOND_UDEF_STEREO_COUNT>
0

> <PUBCHEM_ISOTOPIC_ATOM_COUNT>
0

> <PUBCHEM_COMPONENT_COUNT>
1

> <PUBCHEM_CACTVS_TAUTO_COUNT>
1

> <PUBCHEM_CONFORMER_ID>
0000332200000001

> <PUBCHEM_MMFF94_ENERGY>
67.5217

> <PUBCHEM_FEATURE_SELFOVERLAP>
35.734

> <PUBCHEM_SHAPE_FINGERPRINT>
10411042 1 17762337315762056459
10967382 1 18410573989810519238
1100329 8 18338802195950128826
11132069 177 18409454674051488376
11471102 20 18411141337488574989
11578080 2 16842767320091361582
11680986 33 18268425724619819258
11806522 49 18410293601344360087
12011746 2 18410852170605219550
12236239 1 17749107794951797867
12838862 33 18338537278067446056
13140716 1 18267030449139134872
13221675 6 18410856563961260558
13380535 76 18411980239149163322
13862211 1 18410860970888161906
14178342 30 17688888440430459336
14251717 144 18410293609696950279
14790565 3 18339633448010686572
15196674 1 18410575084678903181
15230672 131 13370785899961204027
15536298 74 18333732416189861894
1601671 61 18410572920020888121
16945 1 18410856564340912772
193761 8 17834396005300513568
19591789 44 18410575101938257462
200 152 18186242831524054605
20028762 73 18115027377542221959
20510252 161 18260830449088996800
20645477 70 18336267928969702591
20905425 154 18120372322591439094
21267235 1 18410284835469382006
21421861 104 17770782617403223603
221490 88 18268986488830947955
2334 1 17906170655477608384
23402539 116 18334021587943366982
23463225 33 18412826897778429920
23559900 14 18190454971130794588
238 59 17838381554441282957
25 1 18341617005335256398
2748010 2 18194681462987000166
2871803 45 18340207495921295014
335352 9 18410575119054537686
33824 294 18411983559200814834
34934 24 18337958879290344632
350125 39 18411418458059829640
4072396 5 18269854132206257938
484985 159 14682206205661436442
5104073 3 18410855468818330643
537710 114 18411695483044122964
5939293 188 18336831901162269792
69090 78 18335987488626455310
7364860 26 18335421270508610432
7832392 63 18263930947298704542
8809292 202 18201153269605493058
9709674 26 18411131446395741679

> <PUBCHEM_SHAPE_MULTIPOLES>
374.29
7.32
2.65
0.6
4.98
0
0
0
0
-0.85
0
-0.07
0
0

> <PUBCHEM_SHAPE_SELFOVERLAP>
870.932

> <PUBCHEM_SHAPE_VOLUME>
192.9

> <PUBCHEM_COORDINATE_TYPE>
2
5
10

$$$$

