439160
  -OEChem-07051212443D

 29 29  0     1  0  0  0  0  0999 V2000
    3.4426    0.3002    0.0755 P   0  0  0  0  0  0  0  0  0  0  0  0
   -0.8058    0.4669    0.6737 O   0  0  0  0  0  0  0  0  0  0  0  0
   -1.5394   -0.4740   -2.1018 O   0  0  0  0  0  0  0  0  0  0  0  0
   -2.0870   -2.4224    0.8587 O   0  0  0  0  0  0  0  0  0  0  0  0
   -3.1109    0.2929    1.0894 O   0  0  0  0  0  0  0  0  0  0  0  0
    1.9448    0.0520    0.6377 O   0  0  0  0  0  0  0  0  0  0  0  0
   -2.2892    2.8409    0.3627 O   0  0  0  0  0  0  0  0  0  0  0  0
    3.2046    0.7975   -1.4447 O   0  0  0  0  0  0  0  0  0  0  0  0
    4.0124   -1.2019   -0.1093 O   0  0  0  0  0  0  0  0  0  0  0  0
    4.2951    1.2020    0.9196 O   0  0  0  0  0  0  0  0  0  0  0  0
   -2.1488   -0.7438   -0.8465 C   0  0  1  0  0  0  0  0  0  0  0  0
   -1.2825   -1.7428   -0.1019 C   0  0  1  0  0  0  0  0  0  0  0  0
   -2.1144    0.4737    0.0799 C   0  0  2  0  0  0  0  0  0  0  0  0
   -0.2615   -0.8656    0.6207 C   0  0  1  0  0  0  0  0  0  0  0  0
    1.0759   -0.7884   -0.1021 C   0  0  0  0  0  0  0  0  0  0  0  0
   -2.3361    1.8128   -0.6116 C   0  0  0  0  0  0  0  0  0  0  0  0
   -3.1701   -1.0997   -1.0211 H   0  0  0  0  0  0  0  0  0  0  0  0
   -0.8100   -2.4968   -0.7395 H   0  0  0  0  0  0  0  0  0  0  0  0
   -0.1054   -1.1868    1.6570 H   0  0  0  0  0  0  0  0  0  0  0  0
    0.9509   -0.3624   -1.1021 H   0  0  0  0  0  0  0  0  0  0  0  0
    1.5165   -1.7862   -0.1893 H   0  0  0  0  0  0  0  0  0  0  0  0
   -3.3134    1.8548   -1.1027 H   0  0  0  0  0  0  0  0  0  0  0  0
   -1.5531    2.0251   -1.3455 H   0  0  0  0  0  0  0  0  0  0  0  0
   -1.5568   -1.2975   -2.6186 H   0  0  0  0  0  0  0  0  0  0  0  0
   -2.7448   -2.9453    0.3694 H   0  0  0  0  0  0  0  0  0  0  0  0
   -3.2172   -0.6562    1.2664 H   0  0  0  0  0  0  0  0  0  0  0  0
   -2.9802    2.6534    1.0207 H   0  0  0  0  0  0  0  0  0  0  0  0
    3.9778    1.0797   -1.9783 H   0  0  0  0  0  0  0  0  0  0  0  0
    4.9530   -1.3253   -0.3588 H   0  0  0  0  0  0  0  0  0  0  0  0
  1  6  1  0  0  0  0
  1  8  1  0  0  0  0
  1  9  1  0  0  0  0
  1 10  2  0  0  0  0
  2 13  1  0  0  0  0
  2 14  1  0  0  0  0
  3 11  1  0  0  0  0
  3 24  1  0  0  0  0
  4 12  1  0  0  0  0
  4 25  1  0  0  0  0
  5 13  1  0  0  0  0
  5 26  1  0  0  0  0
  6 15  1  0  0  0  0
  7 16  1  0  0  0  0
  7 27  1  0  0  0  0
  8 28  1  0  0  0  0
  9 29  1  0  0  0  0
 11 12  1  0  0  0  0
 11 13  1  0  0  0  0
 11 17  1  0  0  0  0
 12 14  1  0  0  0  0
 12 18  1  0  0  0  0
 13 16  1  0  0  0  0
 14 15  1  0  0  0  0
 14 19  1  0  0  0  0
 15 20  1  0  0  0  0
 15 21  1  0  0  0  0
 16 22  1  0  0  0  0
 16 23  1  0  0  0  0
M  END
> <PUBCHEM_COMPOUND_CID>
439160

> <PUBCHEM_CONFORMER_RMSD>
0.6

> <PUBCHEM_CONFORMER_DIVERSEORDER>
1
50
20
36
15
46
45
44
38
3
42
41
34
17
23
10
47
18
51
37
27
28
8
12
26
25
31
32
7
40
22
21
24
48
16
43
13
49
19
35
6
4
33
39
9
14
29
11
2
5
30

> <PUBCHEM_MMFF94_PARTIAL_CHARGES>
22
1 1.51
10 -0.7
11 0.28
12 0.28
13 0.56
14 0.28
15 0.28
16 0.28
2 -0.56
24 0.4
25 0.4
26 0.4
27 0.4
28 0.5
29 0.5
3 -0.68
4 -0.68
5 -0.68
6 -0.55
7 -0.68
8 -0.77
9 -0.77

> <PUBCHEM_EFFECTIVE_ROTOR_COUNT>
5

> <PUBCHEM_PHARMACOPHORE_FEATURES>
14
1 10 acceptor
1 2 acceptor
1 3 acceptor
1 3 donor
1 4 acceptor
1 4 donor
1 5 acceptor
1 5 donor
1 7 acceptor
1 7 donor
1 8 acceptor
1 9 acceptor
4 1 8 9 10 anion
5 2 11 12 13 14 rings

> <PUBCHEM_HEAVY_ATOM_COUNT>
16

> <PUBCHEM_ATOM_DEF_STEREO_COUNT>
3

> <PUBCHEM_ATOM_UDEF_STEREO_COUNT>
1

> <PUBCHEM_BOND_DEF_STEREO_COUNT>
0

> <PUBCHEM_BOND_UDEF_STEREO_COUNT>
0

> <PUBCHEM_ISOTOPIC_ATOM_COUNT>
0

> <PUBCHEM_COMPONENT_COUNT>
1

> <PUBCHEM_CACTVS_TAUTO_COUNT>
1

> <PUBCHEM_CONFORMER_ID>
0006B37800000001

> <PUBCHEM_MMFF94_ENERGY>
4.9204

> <PUBCHEM_FEATURE_SELFOVERLAP>
71.137

> <PUBCHEM_SHAPE_FINGERPRINT>
10608611 8 18335423465411082680
10922523 26 18261386780486843062
12173636 292 18411982472468704375
12932764 1 17603865551401610554
13024252 1 12247685980590964935
13296908 3 17603862274378370014
15534591 1 18337676433313453921
16945 1 18341884191425174135
1741750 31 18336829796164058400
18186145 218 17894345592841906680
200 152 13901912159324106355
20112054 60 18340211791189251752
20279233 1 15285358427404448678
20645477 56 18410575093522311896
20645477 70 16950555619517755990
20653085 51 18264486367783896939
21524375 3 18120658186898105981
2306618 200 17632031766049360109
23402539 116 18338811043503799887
23419403 2 17407978595638125295
23557571 272 18268994189675440118
23559900 14 18114187493003613274
305870 269 18056481891954933915
3248919 1 18272657809859034838
4175511 318 17894633664287198772
5706482 22 18341619277647054731

> <PUBCHEM_SHAPE_MULTIPOLES>
280.3
6.6
2.14
1.21
8.4
0.51
-0.49
1.76
0.33
-1.78
0.3
-0.26
-0.01
0.09

> <PUBCHEM_SHAPE_SELFOVERLAP>
551.212

> <PUBCHEM_SHAPE_VOLUME>
169.9

> <PUBCHEM_COORDINATE_TYPE>
2
5
10

$$$$

