443739
  -OEChem-07051213033D

 36 39  0     1  0  0  0  0  0999 V2000
   -0.9810   -1.4332   -0.7694 O   0  0  0  0  0  0  0  0  0  0  0  0
   -3.3951   -1.1718    0.9281 O   0  0  0  0  0  0  0  0  0  0  0  0
    0.7370   -3.6841   -0.3865 O   0  0  0  0  0  0  0  0  0  0  0  0
    2.2821    2.6026   -0.3120 N   0  0  0  0  0  0  0  0  0  0  0  0
   -0.4439    0.8996   -0.2742 C   0  0  1  0  0  0  0  0  0  0  0  0
   -1.3046   -0.0694   -1.1464 C   0  0  2  0  0  0  0  0  0  0  0  0
    0.7062   -0.0297   -0.0380 C   0  0  0  0  0  0  0  0  0  0  0  0
   -0.0683    2.1517   -1.0928 C   0  0  0  0  0  0  0  0  0  0  0  0
   -2.8124    0.1626   -1.0165 C   0  0  0  0  0  0  0  0  0  0  0  0
   -1.1250    1.2616    1.0320 C   0  0  0  0  0  0  0  0  0  0  0  0
    0.3098   -1.3352   -0.3143 C   0  0  0  0  0  0  0  0  0  0  0  0
   -3.2910    0.1618    0.4378 C   0  0  2  0  0  0  0  0  0  0  0  0
    1.9873    0.2423    0.4267 C   0  0  0  0  0  0  0  0  0  0  0  0
    0.9203    3.1262   -0.4408 C   0  0  0  0  0  0  0  0  0  0  0  0
   -2.3797    0.9162    1.3517 C   0  0  0  0  0  0  0  0  0  0  0  0
    2.4325    1.6350    0.7772 C   0  0  0  0  0  0  0  0  0  0  0  0
    1.1446   -2.4178   -0.1239 C   0  0  0  0  0  0  0  0  0  0  0  0
    2.8491   -0.8523    0.6168 C   0  0  0  0  0  0  0  0  0  0  0  0
    2.4321   -2.1662    0.3442 C   0  0  0  0  0  0  0  0  0  0  0  0
   -1.0391    0.0174   -2.2107 H   0  0  0  0  0  0  0  0  0  0  0  0
   -0.9851    2.7119   -1.3234 H   0  0  0  0  0  0  0  0  0  0  0  0
    0.3481    1.8506   -2.0648 H   0  0  0  0  0  0  0  0  0  0  0  0
   -3.3452   -0.6201   -1.5698 H   0  0  0  0  0  0  0  0  0  0  0  0
   -3.0585    1.1287   -1.4744 H   0  0  0  0  0  0  0  0  0  0  0  0
   -0.5507    1.8141    1.7718 H   0  0  0  0  0  0  0  0  0  0  0  0
   -4.2939    0.6023    0.4722 H   0  0  0  0  0  0  0  0  0  0  0  0
    0.9801    4.0040   -1.0966 H   0  0  0  0  0  0  0  0  0  0  0  0
    0.5481    3.5022    0.5189 H   0  0  0  0  0  0  0  0  0  0  0  0
   -2.7673    1.1945    2.3281 H   0  0  0  0  0  0  0  0  0  0  0  0
    1.9336    1.9728    1.6937 H   0  0  0  0  0  0  0  0  0  0  0  0
    3.5019    1.6043    1.0217 H   0  0  0  0  0  0  0  0  0  0  0  0
    2.8999    3.3917   -0.1173 H   0  0  0  0  0  0  0  0  0  0  0  0
    3.8585   -0.6950    0.9907 H   0  0  0  0  0  0  0  0  0  0  0  0
    3.1297   -2.9837    0.5086 H   0  0  0  0  0  0  0  0  0  0  0  0
   -3.7640   -1.1314    1.8273 H   0  0  0  0  0  0  0  0  0  0  0  0
    1.4668   -4.2966   -0.1903 H   0  0  0  0  0  0  0  0  0  0  0  0
  1  6  1  0  0  0  0
  1 11  1  0  0  0  0
  2 12  1  0  0  0  0
  2 35  1  0  0  0  0
  3 17  1  0  0  0  0
  3 36  1  0  0  0  0
  4 14  1  0  0  0  0
  4 16  1  0  0  0  0
  4 32  1  0  0  0  0
  5  6  1  0  0  0  0
  5  7  1  0  0  0  0
  5  8  1  0  0  0  0
  5 10  1  0  0  0  0
  6  9  1  0  0  0  0
  6 20  1  0  0  0  0
  7 11  1  0  0  0  0
  7 13  2  0  0  0  0
  8 14  1  0  0  0  0
  8 21  1  0  0  0  0
  8 22  1  0  0  0  0
  9 12  1  0  0  0  0
  9 23  1  0  0  0  0
  9 24  1  0  0  0  0
 10 15  2  0  0  0  0
 10 25  1  0  0  0  0
 11 17  2  0  0  0  0
 12 15  1  0  0  0  0
 12 26  1  0  0  0  0
 13 16  1  0  0  0  0
 13 18  1  0  0  0  0
 14 27  1  0  0  0  0
 14 28  1  0  0  0  0
 15 29  1  0  0  0  0
 16 30  1  0  0  0  0
 16 31  1  0  0  0  0
 17 19  1  0  0  0  0
 18 19  2  0  0  0  0
 18 33  1  0  0  0  0
 19 34  1  0  0  0  0
M  END
> <PUBCHEM_COMPOUND_CID>
443739

> <PUBCHEM_CONFORMER_RMSD>
0.6

> <PUBCHEM_CONFORMER_DIVERSEORDER>
1

> <PUBCHEM_MMFF94_PARTIAL_CHARGES>
24
1 -0.36
10 -0.29
11 0.08
12 0.42
13 -0.14
14 0.27
15 -0.29
16 0.41
17 0.08
18 -0.15
19 -0.15
2 -0.68
25 0.15
29 0.15
3 -0.53
32 0.36
33 0.15
34 0.15
35 0.4
36 0.45
4 -0.9
5 0.28
6 0.28
7 -0.14

> <PUBCHEM_EFFECTIVE_ROTOR_COUNT>
1.4

> <PUBCHEM_PHARMACOPHORE_FEATURES>
10
1 1 acceptor
1 2 acceptor
1 2 donor
1 3 donor
1 4 cation
1 4 donor
5 1 5 6 7 11 rings
6 5 6 9 10 12 15 rings
6 7 11 13 17 18 19 rings
7 4 5 7 8 13 14 16 rings

> <PUBCHEM_HEAVY_ATOM_COUNT>
19

> <PUBCHEM_ATOM_DEF_STEREO_COUNT>
3

> <PUBCHEM_ATOM_UDEF_STEREO_COUNT>
0

> <PUBCHEM_BOND_DEF_STEREO_COUNT>
0

> <PUBCHEM_BOND_UDEF_STEREO_COUNT>
0

> <PUBCHEM_ISOTOPIC_ATOM_COUNT>
0

> <PUBCHEM_COMPONENT_COUNT>
1

> <PUBCHEM_CACTVS_TAUTO_COUNT>
3

> <PUBCHEM_CONFORMER_ID>
0006C55B00000001

> <PUBCHEM_MMFF94_ENERGY>
49.0598

> <PUBCHEM_FEATURE_SELFOVERLAP>
51.152

> <PUBCHEM_SHAPE_FINGERPRINT>
10967382 1 18338809943886462454
11471102 22 18341889710088826243
11582403 64 16117189430892852877
12035758 1 17619349148711182033
12423570 1 7609655418232060940
12553582 1 18123466343611046258
12696612 119 18189334743788501218
13140716 1 18337402547438765890
13172582 1 18410020926676582532
14223421 5 18410289250626891867
14787075 74 17536032156430610801
14790565 3 18411125936359220716
15309172 13 18268431226483903420
16945 1 18335987561667104247
19591789 44 18196644108454351486
19868273 325 17980197813884927756
21029758 27 18339077219917823630
22112679 90 17240776029921348877
22445834 79 18187928451326325531
2334 1 18193851340108384734
23388829 49 18261119598918758549
23419403 2 17702686434742562917
2748010 2 17686354465491835238
598444 67 16752395315414186791
7364860 26 18410847750714781905
81228 2 17621605342191657184
8272917 22 18410568475399545793
8809292 202 16825027949896911742

> <PUBCHEM_SHAPE_MULTIPOLES>
368.42
4.38
3.41
1.13
1.71
0.22
-0.06
-1.2
-1.24
-2.33
0.61
0.62
0.19
0.06

> <PUBCHEM_SHAPE_SELFOVERLAP>
820.44

> <PUBCHEM_SHAPE_VOLUME>
192.5

> <PUBCHEM_COORDINATE_TYPE>
2
5
10

$$$$

