148524
  -OEChem-07051213083D

 39 40  0     0  0  0  0  0  0999 V2000
    0.1833    0.9333   -1.4923 O   0  5  0  0  0  0  0  0  0  0  0  0
   -3.1786   -3.0184    1.7898 O   0  5  0  0  0  0  0  0  0  0  0  0
   -4.2595    2.9704   -1.7253 O   0  5  0  0  0  0  0  0  0  0  0  0
   -5.2363   -2.3029    1.5202 O   0  0  0  0  0  0  0  0  0  0  0  0
   -5.9909    1.8771   -0.9340 O   0  0  0  0  0  0  0  0  0  0  0  0
    6.0275   -1.7450   -1.2216 O   0  5  0  0  0  0  0  0  0  0  0  0
    4.2052   -2.9064   -1.6083 O   0  0  0  0  0  0  0  0  0  0  0  0
    3.9021    3.1911    1.8669 O   0  5  0  0  0  0  0  0  0  0  0  0
    5.8277    2.4176    1.1508 O   0  0  0  0  0  0  0  0  0  0  0  0
   -0.2342    0.3227   -0.4486 N   0  3  0  0  0  0  0  0  0  0  0  0
    0.5070   -0.1776    0.4673 N   0  0  0  0  0  0  0  0  0  0  0  0
   -4.0005   -2.1804    1.3501 N   0  3  0  0  0  0  0  0  0  0  0  0
   -4.7552    2.0010   -1.1041 N   0  3  0  0  0  0  0  0  0  0  0  0
    4.7875   -1.9046   -1.1301 N   0  3  0  0  0  0  0  0  0  0  0  0
    4.5832    2.3184    1.2763 N   0  3  0  0  0  0  0  0  0  0  0  0
   -4.3875   -0.0907    0.1242 C   0  0  0  0  0  0  0  0  0  0  0  0
   -1.6697    0.1802   -0.2499 C   0  0  0  0  0  0  0  0  0  0  0  0
    2.6323   -1.0472   -0.3328 C   0  0  0  0  0  0  0  0  0  0  0  0
   -3.5140   -1.0515    0.6338 C   0  0  0  0  0  0  0  0  0  0  0  0
   -3.8857    1.0072   -0.5747 C   0  0  0  0  0  0  0  0  0  0  0  0
    1.8961   -0.0639    0.3283 C   0  0  0  0  0  0  0  0  0  0  0  0
   -2.1389   -0.9145    0.4446 C   0  0  0  0  0  0  0  0  0  0  0  0
   -2.5105    1.1442   -0.7640 C   0  0  0  0  0  0  0  0  0  0  0  0
    4.0150   -0.9153   -0.4605 C   0  0  0  0  0  0  0  0  0  0  0  0
    2.5425    1.0512    0.8614 C   0  0  0  0  0  0  0  0  0  0  0  0
    3.9252    1.1830    0.7335 C   0  0  0  0  0  0  0  0  0  0  0  0
    4.6615    0.1997    0.0726 C   0  0  0  0  0  0  0  0  0  0  0  0
   -5.8648   -0.2375    0.3285 C   0  0  0  0  0  0  0  0  0  0  0  0
    1.9303   -2.2411   -0.9021 C   0  0  0  0  0  0  0  0  0  0  0  0
   -1.4475   -1.6623    0.8227 H   0  0  0  0  0  0  0  0  0  0  0  0
   -2.0972    1.9958   -1.2972 H   0  0  0  0  0  0  0  0  0  0  0  0
    1.9454    1.8034    1.3726 H   0  0  0  0  0  0  0  0  0  0  0  0
    5.7393    0.3063   -0.0250 H   0  0  0  0  0  0  0  0  0  0  0  0
   -6.2275    0.4465    1.1028 H   0  0  0  0  0  0  0  0  0  0  0  0
   -6.3784   -0.0788   -0.6261 H   0  0  0  0  0  0  0  0  0  0  0  0
   -6.3551   -1.1924    0.4723 H   0  0  0  0  0  0  0  0  0  0  0  0
    0.8523   -2.2252   -0.7103 H   0  0  0  0  0  0  0  0  0  0  0  0
    2.2627   -3.1706   -0.4269 H   0  0  0  0  0  0  0  0  0  0  0  0
    2.0103   -2.2746   -1.9941 H   0  0  0  0  0  0  0  0  0  0  0  0
  1 10  1  0  0  0  0
  2 12  1  0  0  0  0
  3 13  1  0  0  0  0
  4 12  2  0  0  0  0
  5 13  2  0  0  0  0
  6 14  1  0  0  0  0
  7 14  2  0  0  0  0
  8 15  1  0  0  0  0
  9 15  2  0  0  0  0
 10 11  2  0  0  0  0
 10 17  1  0  0  0  0
 11 21  1  0  0  0  0
 12 19  1  0  0  0  0
 13 20  1  0  0  0  0
 14 24  1  0  0  0  0
 15 26  1  0  0  0  0
 16 19  2  0  0  0  0
 16 20  1  0  0  0  0
 16 28  1  0  0  0  0
 17 22  2  0  0  0  0
 17 23  1  0  0  0  0
 18 21  2  0  0  0  0
 18 24  1  0  0  0  0
 18 29  1  0  0  0  0
 19 22  1  0  0  0  0
 20 23  2  0  0  0  0
 21 25  1  0  0  0  0
 22 30  1  0  0  0  0
 23 31  1  0  0  0  0
 24 27  2  0  0  0  0
 25 26  2  0  0  0  0
 25 32  1  0  0  0  0
 26 27  1  0  0  0  0
 27 33  1  0  0  0  0
 28 34  1  0  0  0  0
 28 35  1  0  0  0  0
 28 36  1  0  0  0  0
 29 37  1  0  0  0  0
 29 38  1  0  0  0  0
 29 39  1  0  0  0  0
M  CHG  8   1  -1   2  -1   3  -1   6  -1   8  -1  10   1  12   1  13   1
M  CHG  2  14   1  15   1
M  END
> <PUBCHEM_COMPOUND_CID>
148524

> <PUBCHEM_CONFORMER_RMSD>
0.8

> <PUBCHEM_CONFORMER_DIVERSEORDER>
3
4
5
1
2

> <PUBCHEM_MMFF94_PARTIAL_CHARGES>
33
1 -0.63
10 0.87
11 -0.39
12 0.91
13 0.91
14 0.91
15 0.91
16 -0.14
17 -0.03
18 -0.14
19 0.13
2 -0.52
20 0.13
21 0.18
22 -0.15
23 -0.15
24 0.13
25 -0.15
26 0.13
27 -0.15
28 0.14
29 0.14
3 -0.52
30 0.15
31 0.15
32 0.15
33 0.15
4 -0.52
5 -0.52
6 -0.52
7 -0.52
8 -0.52
9 -0.52

> <PUBCHEM_EFFECTIVE_ROTOR_COUNT>
6

> <PUBCHEM_PHARMACOPHORE_FEATURES>
15
1 1 anion
1 2 acceptor
1 2 anion
1 3 acceptor
1 3 anion
1 4 acceptor
1 5 acceptor
1 6 acceptor
1 6 anion
1 7 acceptor
1 8 acceptor
1 8 anion
1 9 acceptor
6 16 17 19 20 22 23 rings
6 18 21 24 25 26 27 rings

> <PUBCHEM_HEAVY_ATOM_COUNT>
29

> <PUBCHEM_ATOM_DEF_STEREO_COUNT>
0

> <PUBCHEM_ATOM_UDEF_STEREO_COUNT>
0

> <PUBCHEM_BOND_DEF_STEREO_COUNT>
0

> <PUBCHEM_BOND_UDEF_STEREO_COUNT>
0

> <PUBCHEM_ISOTOPIC_ATOM_COUNT>
0

> <PUBCHEM_COMPONENT_COUNT>
1

> <PUBCHEM_CACTVS_TAUTO_COUNT>
1

> <PUBCHEM_CONFORMER_ID>
0002442C00000003

> <PUBCHEM_MMFF94_ENERGY>
140.8916

> <PUBCHEM_FEATURE_SELFOVERLAP>
76.444

> <PUBCHEM_SHAPE_FINGERPRINT>
10319926 262 18129679559713710120
10369192 42 18122629358361324012
10673678 19 18268415864557063300
10835480 77 18335707147790500001
11045977 3 18410854390792244038
11370993 144 18260820510476144891
11497681 19 17678746631223386647
11545043 162 18341607135505658986
11796584 16 18057881532183278850
12236239 1 15647340766107597519
12403259 415 18411135839893493218
12507560 40 18409449167771636981
12616971 3 16587740953789183877
12730499 353 18261106323839283592
13583140 156 18260270707254267941
13782708 43 18410289215940982703
13955234 65 18040718044230691434
15081414 286 18333730191756389016
15131766 46 17024880247481803185
15961568 22 17774718637498917796
17349148 13 14979966860485875160
17844677 252 18040428918999458328
17913733 40 17895758366541588570
20645477 70 17894912966258449166
21033648 29 18262532424205663649
21033650 10 17560792290298953248
21065201 7 18131351920666983963
21792961 116 18191012595261407430
22122407 14 17313093130231393585
22393880 68 18343581875627452034
23557571 272 18273491264883367829
23559900 14 18343016735250713756
3882209 13 17259912814981767883
4015057 19 18040727973799596561
4073 2 18342737420753387498
5104073 3 18411983576254019217
6697151 62 17972615534983002934
6823239 73 18343578547449329436
90127 26 18410014342465305049
9995097 60 18408886234808102729

> <PUBCHEM_SHAPE_MULTIPOLES>
514.1
15.41
3.24
1.51
1.23
0.17
-0.1
1.78
-0.17
-1.14
-0.38
0.02
0.03
6.2

> <PUBCHEM_SHAPE_SELFOVERLAP>
1120.674

> <PUBCHEM_SHAPE_VOLUME>
280

> <PUBCHEM_COORDINATE_TYPE>
2
5
10

$$$$

