248931
  -OEChem-07051213063D

 53 56  0     1  0  0  0  0  0999 V2000
   -4.7750    1.6864   -0.2830 O   0  0  0  0  0  0  0  0  0  0  0  0
   -4.9295   -0.8371   -1.2588 O   0  0  0  0  0  0  0  0  0  0  0  0
    6.1339   -0.1498   -0.0304 O   0  0  0  0  0  0  0  0  0  0  0  0
   -2.4408    0.8839   -0.1850 C   0  0  1  0  0  0  0  0  0  0  0  0
   -1.8856   -0.4536    0.3494 C   0  0  2  0  0  0  0  0  0  0  0  0
   -0.4187   -0.6553   -0.0283 C   0  0  1  0  0  0  0  0  0  0  0  0
   -3.8968    0.7506    0.3115 C   0  0  2  0  0  0  0  0  0  0  0  0
    0.4191    0.4786    0.6365 C   0  0  2  0  0  0  0  0  0  0  0  0
   -2.9268   -1.4869   -0.0843 C   0  0  0  0  0  0  0  0  0  0  0  0
   -4.2772   -0.7253    0.0050 C   0  0  2  0  0  0  0  0  0  0  0  0
   -1.6438    2.0255    0.4663 C   0  0  0  0  0  0  0  0  0  0  0  0
   -0.1263    1.8744    0.2349 C   0  0  0  0  0  0  0  0  0  0  0  0
    0.1334   -2.0115    0.4060 C   0  0  0  0  0  0  0  0  0  0  0  0
   -2.3873    1.0471   -1.7240 C   0  0  0  0  0  0  0  0  0  0  0  0
    1.9172    0.2809    0.4066 C   0  0  0  0  0  0  0  0  0  0  0  0
    1.5758   -2.1681   -0.0747 C   0  0  0  0  0  0  0  0  0  0  0  0
    2.4280   -0.9287    0.0816 C   0  0  0  0  0  0  0  0  0  0  0  0
   -5.2062   -1.3079    1.0654 C   0  0  0  0  0  0  0  0  0  0  0  0
    2.8108    1.4848    0.6242 C   0  0  0  0  0  0  0  0  0  0  0  0
    3.9069   -1.1642   -0.1363 C   0  0  0  0  0  0  0  0  0  0  0  0
    4.2774    1.2252    0.4626 C   0  0  0  0  0  0  0  0  0  0  0  0
    4.7733    0.0310    0.1133 C   0  0  0  0  0  0  0  0  0  0  0  0
    6.5382    0.1203   -1.3584 C   0  0  0  0  0  0  0  0  0  0  0  0
   -1.9276   -0.4344    1.4517 H   0  0  0  0  0  0  0  0  0  0  0  0
   -0.3127   -0.5952   -1.1193 H   0  0  0  0  0  0  0  0  0  0  0  0
   -3.9234    0.9237    1.3952 H   0  0  0  0  0  0  0  0  0  0  0  0
    0.2826    0.4045    1.7268 H   0  0  0  0  0  0  0  0  0  0  0  0
   -2.7277   -1.8402   -1.1029 H   0  0  0  0  0  0  0  0  0  0  0  0
   -2.9006   -2.3599    0.5771 H   0  0  0  0  0  0  0  0  0  0  0  0
   -1.8263    2.0387    1.5488 H   0  0  0  0  0  0  0  0  0  0  0  0
   -1.9794    2.9978    0.0863 H   0  0  0  0  0  0  0  0  0  0  0  0
    0.1146    2.0798   -0.8147 H   0  0  0  0  0  0  0  0  0  0  0  0
    0.3735    2.6542    0.8225 H   0  0  0  0  0  0  0  0  0  0  0  0
   -0.4681   -2.8317   -0.0018 H   0  0  0  0  0  0  0  0  0  0  0  0
    0.0949   -2.1018    1.4992 H   0  0  0  0  0  0  0  0  0  0  0  0
   -1.3643    1.0605   -2.1096 H   0  0  0  0  0  0  0  0  0  0  0  0
   -2.9048    0.2454   -2.2565 H   0  0  0  0  0  0  0  0  0  0  0  0
   -2.8479    1.9936   -2.0296 H   0  0  0  0  0  0  0  0  0  0  0  0
    1.5711   -2.4462   -1.1364 H   0  0  0  0  0  0  0  0  0  0  0  0
    2.0297   -3.0039    0.4714 H   0  0  0  0  0  0  0  0  0  0  0  0
   -4.7517   -1.2794    2.0609 H   0  0  0  0  0  0  0  0  0  0  0  0
   -6.1502   -0.7526    1.0983 H   0  0  0  0  0  0  0  0  0  0  0  0
   -5.4623   -2.3478    0.8331 H   0  0  0  0  0  0  0  0  0  0  0  0
   -4.9650    1.3899   -1.1890 H   0  0  0  0  0  0  0  0  0  0  0  0
    2.6428    1.8728    1.6359 H   0  0  0  0  0  0  0  0  0  0  0  0
    2.5409    2.2728   -0.0880 H   0  0  0  0  0  0  0  0  0  0  0  0
   -5.0952   -1.7803   -1.4288 H   0  0  0  0  0  0  0  0  0  0  0  0
    4.2375   -1.9690    0.5322 H   0  0  0  0  0  0  0  0  0  0  0  0
    4.0548   -1.5108   -1.1660 H   0  0  0  0  0  0  0  0  0  0  0  0
    4.9514    2.0602    0.6341 H   0  0  0  0  0  0  0  0  0  0  0  0
    6.3217    1.1567   -1.6405 H   0  0  0  0  0  0  0  0  0  0  0  0
    6.0682   -0.5687   -2.0684 H   0  0  0  0  0  0  0  0  0  0  0  0
    7.6212   -0.0239   -1.4198 H   0  0  0  0  0  0  0  0  0  0  0  0
  1  7  1  0  0  0  0
  1 44  1  0  0  0  0
  2 10  1  0  0  0  0
  2 47  1  0  0  0  0
  3 22  1  0  0  0  0
  3 23  1  0  0  0  0
  4  5  1  0  0  0  0
  4  7  1  0  0  0  0
  4 11  1  0  0  0  0
  4 14  1  0  0  0  0
  5  6  1  0  0  0  0
  5  9  1  0  0  0  0
  5 24  1  0  0  0  0
  6  8  1  0  0  0  0
  6 13  1  0  0  0  0
  6 25  1  0  0  0  0
  7 10  1  0  0  0  0
  7 26  1  0  0  0  0
  8 12  1  0  0  0  0
  8 15  1  0  0  0  0
  8 27  1  0  0  0  0
  9 10  1  0  0  0  0
  9 28  1  0  0  0  0
  9 29  1  0  0  0  0
 10 18  1  0  0  0  0
 11 12  1  0  0  0  0
 11 30  1  0  0  0  0
 11 31  1  0  0  0  0
 12 32  1  0  0  0  0
 12 33  1  0  0  0  0
 13 16  1  0  0  0  0
 13 34  1  0  0  0  0
 13 35  1  0  0  0  0
 14 36  1  0  0  0  0
 14 37  1  0  0  0  0
 14 38  1  0  0  0  0
 15 17  2  0  0  0  0
 15 19  1  0  0  0  0
 16 17  1  0  0  0  0
 16 39  1  0  0  0  0
 16 40  1  0  0  0  0
 17 20  1  0  0  0  0
 18 41  1  0  0  0  0
 18 42  1  0  0  0  0
 18 43  1  0  0  0  0
 19 21  1  0  0  0  0
 19 45  1  0  0  0  0
 19 46  1  0  0  0  0
 20 22  1  0  0  0  0
 20 48  1  0  0  0  0
 20 49  1  0  0  0  0
 21 22  2  0  0  0  0
 21 50  1  0  0  0  0
 23 51  1  0  0  0  0
 23 52  1  0  0  0  0
 23 53  1  0  0  0  0
M  END
> <PUBCHEM_COMPOUND_CID>
248931

> <PUBCHEM_CONFORMER_RMSD>
0.6

> <PUBCHEM_CONFORMER_DIVERSEORDER>
1

> <PUBCHEM_MMFF94_PARTIAL_CHARGES>
17
1 -0.68
10 0.28
15 -0.28
16 0.14
17 -0.28
19 0.28
2 -0.68
20 0.28
21 -0.29
22 -0.06
23 0.28
3 -0.36
44 0.4
47 0.4
50 0.15
7 0.28
8 0.14

> <PUBCHEM_EFFECTIVE_ROTOR_COUNT>
2.8

> <PUBCHEM_PHARMACOPHORE_FEATURES>
9
1 1 acceptor
1 1 donor
1 2 acceptor
1 2 donor
1 3 acceptor
5 4 5 7 9 10 rings
6 15 17 19 20 21 22 rings
6 4 5 6 8 11 12 rings
6 6 8 13 15 16 17 rings

> <PUBCHEM_HEAVY_ATOM_COUNT>
23

> <PUBCHEM_ATOM_DEF_STEREO_COUNT>
6

> <PUBCHEM_ATOM_UDEF_STEREO_COUNT>
0

> <PUBCHEM_BOND_DEF_STEREO_COUNT>
0

> <PUBCHEM_BOND_UDEF_STEREO_COUNT>
0

> <PUBCHEM_ISOTOPIC_ATOM_COUNT>
0

> <PUBCHEM_COMPONENT_COUNT>
1

> <PUBCHEM_CACTVS_TAUTO_COUNT>
1

> <PUBCHEM_CONFORMER_ID>
0003CC6300000001

> <PUBCHEM_MMFF94_ENERGY>
73.1857

> <PUBCHEM_FEATURE_SELFOVERLAP>
45.775

> <PUBCHEM_SHAPE_FINGERPRINT>
10366900 7 18343587325903501450
10591671 39 18130493164058882222
10670039 82 18270950350353948924
11488393 25 17460579554049775246
11578080 2 17344078621610246863
11796584 16 4678820545553561388
11963148 33 18200597986375541267
12011746 2 18411144610733799991
12166972 35 17989481905945749556
12236239 1 17632577158751384146
12403259 415 18409172082504996432
12596602 18 15339116823561819468
12788726 201 17604992700621788640
128620 24 18202282515275774834
12954195 1 17968645146918501368
13140716 1 17979070488576567827
13224815 77 18410301327800673571
13288520 33 18408039594260401977
13402501 40 18411136913756792682
13533116 47 5039679132666666540
13862211 1 18408611344354191922
14787075 74 18411984624247293667
14790565 3 18409442570565181632
15183329 4 18338786919437467206
15196674 1 18410013260001690803
15788980 27 5112007244207116466
16988056 13 13956858444730691749
17349148 13 18344148094382879152
17844677 252 18260825981880040080
17980427 23 14907896123737563911
18681886 176 18410014300196413168
19591789 44 18264774263736858107
200 152 18040157318183923969
21267235 1 18337103484776543835
21279426 13 18265049309616986198
21709351 56 18411706477865131869
221357 26 18187365437191104664
2297311 6 18335693940660179892
23402539 116 18407764737490781916
23522609 53 18119496978313822672
23557571 272 18409442587760355318
23559900 14 18261398815122824384
23569914 152 16815459956540969124
2871803 45 18410863165304837131
3004659 81 18271240625945638042
335352 9 18408604759831463789
34934 24 18339366387286190185
350125 39 18411415120421873816
3545911 37 18410291423558616177
4214541 1 18409168822355676369
4325135 7 18343861112872908319
474229 33 18411700976259990650
5104073 3 18410577330983801219
542803 24 17847061086456865440
9709674 26 18408881871164041227

> <PUBCHEM_SHAPE_MULTIPOLES>
455.72
12.66
2.08
1.01
8.91
0.03
0.32
0.58
2.18
-0.77
-0.18
-0.26
-0.12
0.56

> <PUBCHEM_SHAPE_SELFOVERLAP>
974.284

> <PUBCHEM_SHAPE_VOLUME>
251.2

> <PUBCHEM_COORDINATE_TYPE>
2
5
10

$$$$

