15250826
  -OEChem-07051213093D

 82 85  0     1  0  0  0  0  0999 V2000
   -7.9633   -1.0256    0.6826 O   0  0  0  0  0  0  0  0  0  0  0  0
    3.3195   -1.9709    1.1612 O   0  0  0  0  0  0  0  0  0  0  0  0
    2.9938   -2.6258   -0.9864 O   0  0  0  0  0  0  0  0  0  0  0  0
    0.6049    0.0014   -0.1894 C   0  0  1  0  0  0  0  0  0  0  0  0
   -0.2621    1.1635    0.3999 C   0  0  1  0  0  0  0  0  0  0  0  0
    2.0314    0.4417    0.2146 C   0  0  2  0  0  0  0  0  0  0  0  0
   -3.7407   -0.6401   -0.2969 C   0  0  1  0  0  0  0  0  0  0  0  0
    0.5275    2.3924   -0.1013 C   0  0  0  0  0  0  0  0  0  0  0  0
   -4.5563    0.6335    0.1411 C   0  0  2  0  0  0  0  0  0  0  0  0
   -1.7213    0.9741   -0.0054 C   0  0  0  0  0  0  0  0  0  0  0  0
    2.0125    1.9722   -0.0166 C   0  0  0  0  0  0  0  0  0  0  0  0
   -2.2331   -0.4207    0.0350 C   0  0  0  0  0  0  0  0  0  0  0  0
    0.1202   -1.3255    0.4148 C   0  0  0  0  0  0  0  0  0  0  0  0
   -6.1301    0.5304    0.1038 C   0  0  0  0  0  0  0  0  0  0  0  0
   -4.3219   -1.8732    0.4477 C   0  0  0  0  0  0  0  0  0  0  0  0
   -3.9908    1.8993   -0.5389 C   0  0  0  0  0  0  0  0  0  0  0  0
    3.1918   -0.2476   -0.4928 C   0  0  1  0  0  0  0  0  0  0  0  0
    0.5127   -0.1074   -1.7484 C   0  0  0  0  0  0  0  0  0  0  0  0
   -0.2770    1.2494    1.9606 C   0  0  0  0  0  0  0  0  0  0  0  0
   -1.3829   -1.4493    0.2786 C   0  0  0  0  0  0  0  0  0  0  0  0
   -2.5125    2.0118   -0.3280 C   0  0  0  0  0  0  0  0  0  0  0  0
   -6.5656   -0.7769    0.8275 C   0  0  2  0  0  0  0  0  0  0  0  0
   -5.8339   -2.0146    0.3244 C   0  0  0  0  0  0  0  0  0  0  0  0
   -3.7808   -0.9150   -1.8211 C   0  0  0  0  0  0  0  0  0  0  0  0
   -6.7351    1.7283    0.8903 C   0  0  0  0  0  0  0  0  0  0  0  0
   -6.7380    0.6109   -1.3123 C   0  0  0  0  0  0  0  0  0  0  0  0
    4.5351    0.3805   -0.0746 C   0  0  0  0  0  0  0  0  0  0  0  0
    3.1434   -1.7314   -0.1640 C   0  0  0  0  0  0  0  0  0  0  0  0
    5.7720   -0.2031   -0.7791 C   0  0  0  0  0  0  0  0  0  0  0  0
    7.0906    0.4549   -0.4145 C   0  0  0  0  0  0  0  0  0  0  0  0
    7.8822   -0.1730    0.7285 C   0  0  0  0  0  0  0  0  0  0  0  0
    7.5054    1.5306   -1.1068 C   0  0  0  0  0  0  0  0  0  0  0  0
    8.7120    0.8163    1.5579 C   0  0  0  0  0  0  0  0  0  0  0  0
    8.7906   -1.2912    0.2077 C   0  0  0  0  0  0  0  0  0  0  0  0
    2.1556    0.2766    1.2934 H   0  0  0  0  0  0  0  0  0  0  0  0
    0.3406    3.2948    0.4918 H   0  0  0  0  0  0  0  0  0  0  0  0
    0.2722    2.6380   -1.1392 H   0  0  0  0  0  0  0  0  0  0  0  0
   -4.3257    0.7522    1.2152 H   0  0  0  0  0  0  0  0  0  0  0  0
    2.5146    2.2649   -0.9457 H   0  0  0  0  0  0  0  0  0  0  0  0
    2.5131    2.4900    0.8094 H   0  0  0  0  0  0  0  0  0  0  0  0
    0.3961   -1.4269    1.4701 H   0  0  0  0  0  0  0  0  0  0  0  0
    0.5635   -2.1778   -0.1093 H   0  0  0  0  0  0  0  0  0  0  0  0
   -3.8753   -2.8021    0.0723 H   0  0  0  0  0  0  0  0  0  0  0  0
   -4.0658   -1.8122    1.5143 H   0  0  0  0  0  0  0  0  0  0  0  0
   -4.4470    2.7919   -0.0986 H   0  0  0  0  0  0  0  0  0  0  0  0
   -4.2021    1.9285   -1.6118 H   0  0  0  0  0  0  0  0  0  0  0  0
    3.1094   -0.1455   -1.5807 H   0  0  0  0  0  0  0  0  0  0  0  0
    0.9554    0.7551   -2.2565 H   0  0  0  0  0  0  0  0  0  0  0  0
    1.0338   -0.9989   -2.1142 H   0  0  0  0  0  0  0  0  0  0  0  0
   -0.5162   -0.1875   -2.1107 H   0  0  0  0  0  0  0  0  0  0  0  0
    0.7165    1.3986    2.3932 H   0  0  0  0  0  0  0  0  0  0  0  0
   -0.7065    0.3599    2.4327 H   0  0  0  0  0  0  0  0  0  0  0  0
   -0.8837    2.1037    2.2887 H   0  0  0  0  0  0  0  0  0  0  0  0
   -1.7482   -2.4708    0.3092 H   0  0  0  0  0  0  0  0  0  0  0  0
   -2.1051    3.0183   -0.3633 H   0  0  0  0  0  0  0  0  0  0  0  0
   -6.3752   -0.6750    1.9034 H   0  0  0  0  0  0  0  0  0  0  0  0
   -6.1618   -2.8855    0.9072 H   0  0  0  0  0  0  0  0  0  0  0  0
   -6.1203   -2.2473   -0.7074 H   0  0  0  0  0  0  0  0  0  0  0  0
   -4.7717   -1.1883   -2.1804 H   0  0  0  0  0  0  0  0  0  0  0  0
   -3.1274   -1.7574   -2.0834 H   0  0  0  0  0  0  0  0  0  0  0  0
   -3.4388   -0.0589   -2.4113 H   0  0  0  0  0  0  0  0  0  0  0  0
   -6.3002    1.8058    1.8930 H   0  0  0  0  0  0  0  0  0  0  0  0
   -6.5724    2.6805    0.3755 H   0  0  0  0  0  0  0  0  0  0  0  0
   -7.8187    1.6156    1.0128 H   0  0  0  0  0  0  0  0  0  0  0  0
   -6.3530    1.4666   -1.8744 H   0  0  0  0  0  0  0  0  0  0  0  0
   -6.5643   -0.2877   -1.9034 H   0  0  0  0  0  0  0  0  0  0  0  0
   -7.8265    0.7402   -1.2670 H   0  0  0  0  0  0  0  0  0  0  0  0
    4.6717    0.2798    1.0104 H   0  0  0  0  0  0  0  0  0  0  0  0
    4.5245    1.4571   -0.2794 H   0  0  0  0  0  0  0  0  0  0  0  0
   -8.1362   -1.2961   -0.2346 H   0  0  0  0  0  0  0  0  0  0  0  0
    5.8431   -1.2788   -0.5774 H   0  0  0  0  0  0  0  0  0  0  0  0
    5.6212   -0.1251   -1.8646 H   0  0  0  0  0  0  0  0  0  0  0  0
    3.2992   -2.9301    1.3649 H   0  0  0  0  0  0  0  0  0  0  0  0
    7.1581   -0.6190    1.4238 H   0  0  0  0  0  0  0  0  0  0  0  0
    8.4462    2.0250   -0.8953 H   0  0  0  0  0  0  0  0  0  0  0  0
    6.9080    1.9411   -1.9148 H   0  0  0  0  0  0  0  0  0  0  0  0
    9.5519    1.2274    0.9876 H   0  0  0  0  0  0  0  0  0  0  0  0
    9.1285    0.3180    2.4405 H   0  0  0  0  0  0  0  0  0  0  0  0
    8.0933    1.6492    1.9094 H   0  0  0  0  0  0  0  0  0  0  0  0
    8.2144   -2.0537   -0.3276 H   0  0  0  0  0  0  0  0  0  0  0  0
    9.5513   -0.9018   -0.4782 H   0  0  0  0  0  0  0  0  0  0  0  0
    9.3068   -1.7887    1.0360 H   0  0  0  0  0  0  0  0  0  0  0  0
  1 22  1  0  0  0  0
  1 70  1  0  0  0  0
  2 28  1  0  0  0  0
  2 73  1  0  0  0  0
  3 28  2  0  0  0  0
  4  5  1  0  0  0  0
  4  6  1  0  0  0  0
  4 13  1  0  0  0  0
  4 18  1  0  0  0  0
  5  8  1  0  0  0  0
  5 10  1  0  0  0  0
  5 19  1  0  0  0  0
  6 11  1  0  0  0  0
  6 17  1  0  0  0  0
  6 35  1  0  0  0  0
  7  9  1  0  0  0  0
  7 12  1  0  0  0  0
  7 15  1  0  0  0  0
  7 24  1  0  0  0  0
  8 11  1  0  0  0  0
  8 36  1  0  0  0  0
  8 37  1  0  0  0  0
  9 14  1  0  0  0  0
  9 16  1  0  0  0  0
  9 38  1  0  0  0  0
 10 12  1  0  0  0  0
 10 21  2  0  0  0  0
 11 39  1  0  0  0  0
 11 40  1  0  0  0  0
 12 20  2  0  0  0  0
 13 20  1  0  0  0  0
 13 41  1  0  0  0  0
 13 42  1  0  0  0  0
 14 22  1  0  0  0  0
 14 25  1  0  0  0  0
 14 26  1  0  0  0  0
 15 23  1  0  0  0  0
 15 43  1  0  0  0  0
 15 44  1  0  0  0  0
 16 21  1  0  0  0  0
 16 45  1  0  0  0  0
 16 46  1  0  0  0  0
 17 27  1  0  0  0  0
 17 28  1  0  0  0  0
 17 47  1  0  0  0  0
 18 48  1  0  0  0  0
 18 49  1  0  0  0  0
 18 50  1  0  0  0  0
 19 51  1  0  0  0  0
 19 52  1  0  0  0  0
 19 53  1  0  0  0  0
 20 54  1  0  0  0  0
 21 55  1  0  0  0  0
 22 23  1  0  0  0  0
 22 56  1  0  0  0  0
 23 57  1  0  0  0  0
 23 58  1  0  0  0  0
 24 59  1  0  0  0  0
 24 60  1  0  0  0  0
 24 61  1  0  0  0  0
 25 62  1  0  0  0  0
 25 63  1  0  0  0  0
 25 64  1  0  0  0  0
 26 65  1  0  0  0  0
 26 66  1  0  0  0  0
 26 67  1  0  0  0  0
 27 29  1  0  0  0  0
 27 68  1  0  0  0  0
 27 69  1  0  0  0  0
 29 30  1  0  0  0  0
 29 71  1  0  0  0  0
 29 72  1  0  0  0  0
 30 31  1  0  0  0  0
 30 32  2  0  0  0  0
 31 33  1  0  0  0  0
 31 34  1  0  0  0  0
 31 74  1  0  0  0  0
 32 75  1  0  0  0  0
 32 76  1  0  0  0  0
 33 77  1  0  0  0  0
 33 78  1  0  0  0  0
 33 79  1  0  0  0  0
 34 80  1  0  0  0  0
 34 81  1  0  0  0  0
 34 82  1  0  0  0  0
M  END
> <PUBCHEM_COMPOUND_CID>
15250826

> <PUBCHEM_CONFORMER_RMSD>
1

> <PUBCHEM_CONFORMER_DIVERSEORDER>
3
8
6
4
7
1
2
5

> <PUBCHEM_MMFF94_PARTIAL_CHARGES>
24
1 -0.68
10 -0.14
12 -0.14
13 0.14
16 0.14
17 0.06
2 -0.65
20 -0.29
21 -0.29
22 0.28
28 0.66
29 0.14
3 -0.57
30 -0.28
31 0.14
32 -0.3
5 0.14
54 0.15
55 0.15
7 0.14
70 0.4
73 0.5
75 0.15
76 0.15

> <PUBCHEM_EFFECTIVE_ROTOR_COUNT>
7.8

> <PUBCHEM_PHARMACOPHORE_FEATURES>
13
1 1 acceptor
1 1 donor
1 2 acceptor
1 3 acceptor
1 32 hydrophobe
3 14 25 26 hydrophobe
3 2 3 28 anion
3 31 33 34 hydrophobe
5 17 27 29 30 31 hydrophobe
5 4 5 6 8 11 rings
6 4 5 10 12 13 20 rings
6 7 9 10 12 16 21 rings
6 7 9 14 15 22 23 rings

> <PUBCHEM_HEAVY_ATOM_COUNT>
34

> <PUBCHEM_ATOM_DEF_STEREO_COUNT>
7

> <PUBCHEM_ATOM_UDEF_STEREO_COUNT>
0

> <PUBCHEM_BOND_DEF_STEREO_COUNT>
0

> <PUBCHEM_BOND_UDEF_STEREO_COUNT>
0

> <PUBCHEM_ISOTOPIC_ATOM_COUNT>
0

> <PUBCHEM_COMPONENT_COUNT>
1

> <PUBCHEM_CACTVS_TAUTO_COUNT>
1

> <PUBCHEM_CONFORMER_ID>
00E8B58A00000003

> <PUBCHEM_MMFF94_ENERGY>
120.9223

> <PUBCHEM_FEATURE_SELFOVERLAP>
66.144

> <PUBCHEM_SHAPE_FINGERPRINT>
10 15 18259988154952649490
10050765 1 18123188172117852644
10290309 65 18189053251622028719
10299344 5 18130786750732279170
11007060 377 18343011229181826801
11135926 11 18341622529022395694
11315181 36 17095242519290872649
11719270 70 18408886248701093046
12236239 1 17275106141536472893
12516196 113 18334292067888143628
12838862 33 18335998514260950956
13811026 1 18408602582700133406
13914758 101 16845297168077817468
14251764 18 18411136935120703214
14394314 77 18339919424440158193
14856354 85 18131346376534455447
15131766 46 16484981551510651452
15183329 4 18272093794252538241
15301273 46 13984661464718188952
15461852 350 11959723863337383945
15849732 13 17095242505968348372
16087824 20 18338233890743162833
18335252 98 18343014498016195323
18608769 82 18411136922225251835
19841028 212 17774167928729752466
21267235 1 18411976949103773321
21792961 116 18334015038223566588
22224240 67 16298105385077334230
23559900 14 18337957787715017553
23569917 315 18339634638413135106
24771750 20 18054494821384007380
3004659 81 18272651225189016280
3178227 256 18113898235197775120
335352 9 18411421705434784029
3383291 50 18343301427448794362
34797466 226 16226044488753315728
350125 39 18411980273941372797
4073 2 18131061619728159298
4098825 35 17703794729715621892
4325135 7 18272652363856081006

> <PUBCHEM_SHAPE_MULTIPOLES>
682.1
23.84
2.28
1.27
27.89
0.11
0.05
1.33
-3.11
-0.75
-0.07
0.17
-0.07
0.13

> <PUBCHEM_SHAPE_SELFOVERLAP>
1433.109

> <PUBCHEM_SHAPE_VOLUME>
383.9

> <PUBCHEM_COORDINATE_TYPE>
2
5
10

$$$$

