134467
  -OEChem-07051213092D

 27 26  0     1  0  0  0  0  0999 V2000
    2.5369    1.0000    0.0000 O   0  0  0  0  0  0  0  0  0  0  0  0
    6.8671    0.5000    0.0000 O   0  0  0  0  0  0  0  0  0  0  0  0
    6.0010    2.0000    0.0000 O   0  0  0  0  0  0  0  0  0  0  0  0
    5.1350    0.5000    0.0000 C   0  0  3  0  0  0  0  0  0  0  0  0
    4.2690    1.0000    0.0000 C   0  0  0  0  0  0  0  0  0  0  0  0
    5.1350   -0.5000    0.0000 C   0  0  0  0  0  0  0  0  0  0  0  0
    3.4030    0.5000    0.0000 C   0  0  3  0  0  0  0  0  0  0  0  0
    4.2690   -1.0000    0.0000 C   0  0  0  0  0  0  0  0  0  0  0  0
    6.0010    1.0000    0.0000 C   0  0  0  0  0  0  0  0  0  0  0  0
    3.4030   -0.5000    0.0000 C   0  0  0  0  0  0  0  0  0  0  0  0
    4.2690   -2.0000    0.0000 C   0  0  0  0  0  0  0  0  0  0  0  0
    5.1350    1.1200    0.0000 H   0  0  0  0  0  0  0  0  0  0  0  0
    4.6675    1.4750    0.0000 H   0  0  0  0  0  0  0  0  0  0  0  0
    3.8705    1.4750    0.0000 H   0  0  0  0  0  0  0  0  0  0  0  0
    5.3471   -1.0826    0.0000 H   0  0  0  0  0  0  0  0  0  0  0  0
    5.7456   -0.3923    0.0000 H   0  0  0  0  0  0  0  0  0  0  0  0
    3.4030    1.1200    0.0000 H   0  0  0  0  0  0  0  0  0  0  0  0
    4.0569   -0.4174    0.0000 H   0  0  0  0  0  0  0  0  0  0  0  0
    3.6584   -1.1077    0.0000 H   0  0  0  0  0  0  0  0  0  0  0  0
    2.7830   -0.5000    0.0000 H   0  0  0  0  0  0  0  0  0  0  0  0
    3.4030   -1.1200    0.0000 H   0  0  0  0  0  0  0  0  0  0  0  0
    4.0230   -0.5000    0.0000 H   0  0  0  0  0  0  0  0  0  0  0  0
    3.6490   -2.0000    0.0000 H   0  0  0  0  0  0  0  0  0  0  0  0
    4.2690   -2.6200    0.0000 H   0  0  0  0  0  0  0  0  0  0  0  0
    4.8890   -2.0000    0.0000 H   0  0  0  0  0  0  0  0  0  0  0  0
    2.0000    0.6900    0.0000 H   0  0  0  0  0  0  0  0  0  0  0  0
    7.4040    0.8100    0.0000 H   0  0  0  0  0  0  0  0  0  0  0  0
  1  7  1  0  0  0  0
  1 26  1  0  0  0  0
  2  9  1  0  0  0  0
  2 27  1  0  0  0  0
  3  9  2  0  0  0  0
  4  5  1  0  0  0  0
  4  6  1  0  0  0  0
  4  9  1  0  0  0  0
  4 12  1  0  0  0  0
  5  7  1  0  0  0  0
  5 13  1  0  0  0  0
  5 14  1  0  0  0  0
  6  8  1  0  0  0  0
  6 15  1  0  0  0  0
  6 16  1  0  0  0  0
  7 10  1  0  0  0  0
  7 17  1  0  0  0  0
  8 11  1  0  0  0  0
  8 18  1  0  0  0  0
  8 19  1  0  0  0  0
 10 20  1  0  0  0  0
 10 21  1  0  0  0  0
 10 22  1  0  0  0  0
 11 23  1  0  0  0  0
 11 24  1  0  0  0  0
 11 25  1  0  0  0  0
M  END
> <PUBCHEM_COMPOUND_CID>
134467

> <PUBCHEM_COMPOUND_CANONICALIZED>
1

> <PUBCHEM_CACTVS_COMPLEXITY>
123

> <PUBCHEM_CACTVS_HBOND_ACCEPTOR>
3

> <PUBCHEM_CACTVS_HBOND_DONOR>
2

> <PUBCHEM_CACTVS_ROTATABLE_BOND>
5

> <PUBCHEM_CACTVS_SUBSKEYS>
AAADceBwMAAAAAAAAAAAAAAAAAAAAAAAAAAAAAAAAAAAAAAAAAAAGgAACAAADRSggAICCAAAAgAIAACQCAAAAAAAAAAAAAEAAAAAEBIAAAAAQAAEAAAAAAHKwAAOAAAAAAAAAAAAAAAAAAAAAAAAAAAAAA==

> <PUBCHEM_IUPAC_OPENEYE_NAME>
4-hydroxy-2-propyl-pentanoic acid

> <PUBCHEM_IUPAC_CAS_NAME>
4-hydroxy-2-propylpentanoic acid

> <PUBCHEM_IUPAC_NAME>
4-hydroxy-2-propylpentanoic acid

> <PUBCHEM_IUPAC_SYSTEMATIC_NAME>
4-oxidanyl-2-propyl-pentanoic acid

> <PUBCHEM_IUPAC_TRADITIONAL_NAME>
4-hydroxy-2-propyl-valeric acid

> <PUBCHEM_IUPAC_INCHI>
InChI=1S/C8H16O3/c1-3-4-7(8(10)11)5-6(2)9/h6-7,9H,3-5H2,1-2H3,(H,10,11)

> <PUBCHEM_IUPAC_INCHIKEY>
OASKNPCLIHUTTL-UHFFFAOYSA-N

> <PUBCHEM_XLOGP3_AA>
1.3

> <PUBCHEM_EXACT_MASS>
160.109944

> <PUBCHEM_MOLECULAR_FORMULA>
C8H16O3

> <PUBCHEM_MOLECULAR_WEIGHT>
160.21084

> <PUBCHEM_OPENEYE_CAN_SMILES>
CCCC(CC(C)O)C(=O)O

> <PUBCHEM_OPENEYE_ISO_SMILES>
CCCC(CC(C)O)C(=O)O

> <PUBCHEM_CACTVS_TPSA>
57.5

> <PUBCHEM_MONOISOTOPIC_WEIGHT>
160.109944

> <PUBCHEM_TOTAL_CHARGE>
0

> <PUBCHEM_HEAVY_ATOM_COUNT>
11

> <PUBCHEM_ATOM_DEF_STEREO_COUNT>
0

> <PUBCHEM_ATOM_UDEF_STEREO_COUNT>
2

> <PUBCHEM_BOND_DEF_STEREO_COUNT>
0

> <PUBCHEM_BOND_UDEF_STEREO_COUNT>
0

> <PUBCHEM_ISOTOPIC_ATOM_COUNT>
0

> <PUBCHEM_COMPONENT_COUNT>
1

> <PUBCHEM_CACTVS_TAUTO_COUNT>
1

> <PUBCHEM_COORDINATE_TYPE>
1
5
255

> <PUBCHEM_BONDANNOTATIONS>
7  1  3
4  5  3

$$$$

