441485
  -OEChem-07051212552D

 50 53  0     1  0  0  0  0  0999 V2000
    3.0000   -1.9998    0.0000 S   0  0  0  0  0  0  0  0  0  0  0  0
    9.6538    3.3078    0.0000 O   0  0  0  0  0  0  0  0  0  0  0  0
    3.0200    1.0918    0.0000 O   0  0  0  0  0  0  0  0  0  0  0  0
    3.0038   -0.9998    0.0000 O   0  0  0  0  0  0  0  0  0  0  0  0
    2.9961   -2.9998    0.0000 O   0  0  0  0  0  0  0  0  0  0  0  0
    2.0000   -1.9960    0.0000 O   0  0  0  0  0  0  0  0  0  0  0  0
    4.0000   -2.0037    0.0000 O   0  0  0  0  0  0  0  0  0  0  0  0
    8.3969    1.0525    0.0000 C   0  0  1  0  0  0  0  0  0  0  0  0
    8.3969    2.0525    0.0000 C   0  0  2  0  0  0  0  0  0  0  0  0
    7.5309    0.5525    0.0000 C   0  0  1  0  0  0  0  0  0  0  0  0
    6.6649    1.0525    0.0000 C   0  0  1  0  0  0  0  0  0  0  0  0
    7.5309    2.5525    0.0000 C   0  0  0  0  0  0  0  0  0  0  0  0
    9.3432    0.7478    0.0000 C   0  0  0  0  0  0  0  0  0  0  0  0
    6.6649    2.0525    0.0000 C   0  0  0  0  0  0  0  0  0  0  0  0
    7.5470   -0.4890    0.0000 C   0  0  0  0  0  0  0  0  0  0  0  0
    9.3432    2.3572    0.0000 C   0  0  0  0  0  0  0  0  0  0  0  0
    9.9268    1.5525    0.0000 C   0  0  0  0  0  0  0  0  0  0  0  0
    8.3969    3.0525    0.0000 C   0  0  0  0  0  0  0  0  0  0  0  0
    5.7549    0.5456    0.0000 C   0  0  0  0  0  0  0  0  0  0  0  0
    6.6489   -1.0168    0.0000 C   0  0  0  0  0  0  0  0  0  0  0  0
    5.7468   -0.4960    0.0000 C   0  0  0  0  0  0  0  0  0  0  0  0
    4.8280    1.1097    0.0000 C   0  0  0  0  0  0  0  0  0  0  0  0
    4.8114   -1.0457    0.0000 C   0  0  0  0  0  0  0  0  0  0  0  0
    3.8802    0.5818    0.0000 C   0  0  0  0  0  0  0  0  0  0  0  0
    3.8718   -0.5032    0.0000 C   0  0  0  0  0  0  0  0  0  0  0  0
    3.0315    2.0917    0.0000 C   0  0  0  0  0  0  0  0  0  0  0  0
    8.4869    0.2073    0.0000 H   0  0  0  0  0  0  0  0  0  0  0  0
    8.2703    0.1332    0.0000 H   0  0  0  0  0  0  0  0  0  0  0  0
    7.4010    1.4775    0.0000 H   0  0  0  0  0  0  0  0  0  0  0  0
    7.9294    3.0274    0.0000 H   0  0  0  0  0  0  0  0  0  0  0  0
    7.1324    3.0274    0.0000 H   0  0  0  0  0  0  0  0  0  0  0  0
    9.0921    0.1809    0.0000 H   0  0  0  0  0  0  0  0  0  0  0  0
    9.8805    0.4385    0.0000 H   0  0  0  0  0  0  0  0  0  0  0  0
    6.4528    2.6351    0.0000 H   0  0  0  0  0  0  0  0  0  0  0  0
    6.0543    1.9448    0.0000 H   0  0  0  0  0  0  0  0  0  0  0  0
    7.7650   -1.0694    0.0000 H   0  0  0  0  0  0  0  0  0  0  0  0
    8.1561   -0.3735    0.0000 H   0  0  0  0  0  0  0  0  0  0  0  0
   10.3876    1.1378    0.0000 H   0  0  0  0  0  0  0  0  0  0  0  0
   10.3876    1.9672    0.0000 H   0  0  0  0  0  0  0  0  0  0  0  0
    9.0169    3.0525    0.0000 H   0  0  0  0  0  0  0  0  0  0  0  0
    8.3969    3.6725    0.0000 H   0  0  0  0  0  0  0  0  0  0  0  0
    7.7769    3.0525    0.0000 H   0  0  0  0  0  0  0  0  0  0  0  0
    6.2516   -1.4927    0.0000 H   0  0  0  0  0  0  0  0  0  0  0  0
    7.0499   -1.4897    0.0000 H   0  0  0  0  0  0  0  0  0  0  0  0
    4.8400    1.7296    0.0000 H   0  0  0  0  0  0  0  0  0  0  0  0
    4.8138   -1.6657    0.0000 H   0  0  0  0  0  0  0  0  0  0  0  0
    3.6515    2.0845    0.0000 H   0  0  0  0  0  0  0  0  0  0  0  0
    3.0387    2.7117    0.0000 H   0  0  0  0  0  0  0  0  0  0  0  0
    2.4116    2.0989    0.0000 H   0  0  0  0  0  0  0  0  0  0  0  0
    2.4580   -3.3078    0.0000 H   0  0  0  0  0  0  0  0  0  0  0  0
  1  4  1  0  0  0  0
  1  5  1  0  0  0  0
  1  6  2  0  0  0  0
  1  7  2  0  0  0  0
  2 16  2  0  0  0  0
  3 24  1  0  0  0  0
  3 26  1  0  0  0  0
  4 25  1  0  0  0  0
  5 50  1  0  0  0  0
  8  9  1  0  0  0  0
  8 10  1  0  0  0  0
  8 13  1  0  0  0  0
  8 27  1  1  0  0  0
  9 12  1  0  0  0  0
  9 16  1  0  0  0  0
  9 18  1  1  0  0  0
 10 11  1  0  0  0  0
 10 15  1  0  0  0  0
 10 28  1  1  0  0  0
 11 14  1  0  0  0  0
 11 19  1  0  0  0  0
 11 29  1  1  0  0  0
 12 14  1  0  0  0  0
 12 30  1  0  0  0  0
 12 31  1  0  0  0  0
 13 17  1  0  0  0  0
 13 32  1  0  0  0  0
 13 33  1  0  0  0  0
 14 34  1  0  0  0  0
 14 35  1  0  0  0  0
 15 20  1  0  0  0  0
 15 36  1  0  0  0  0
 15 37  1  0  0  0  0
 16 17  1  0  0  0  0
 17 38  1  0  0  0  0
 17 39  1  0  0  0  0
 18 40  1  0  0  0  0
 18 41  1  0  0  0  0
 18 42  1  0  0  0  0
 19 21  1  0  0  0  0
 19 22  2  0  0  0  0
 20 21  1  0  0  0  0
 20 43  1  0  0  0  0
 20 44  1  0  0  0  0
 21 23  2  0  0  0  0
 22 24  1  0  0  0  0
 22 45  1  0  0  0  0
 23 25  1  0  0  0  0
 23 46  1  0  0  0  0
 24 25  2  0  0  0  0
 26 47  1  0  0  0  0
 26 48  1  0  0  0  0
 26 49  1  0  0  0  0
M  END
> <PUBCHEM_COMPOUND_CID>
441485

> <PUBCHEM_COMPOUND_CANONICALIZED>
1

> <PUBCHEM_CACTVS_COMPLEXITY>
670

> <PUBCHEM_CACTVS_HBOND_ACCEPTOR>
6

> <PUBCHEM_CACTVS_HBOND_DONOR>
1

> <PUBCHEM_CACTVS_ROTATABLE_BOND>
3

> <PUBCHEM_CACTVS_SUBSKEYS>
AAADceB4OABAAAAAAAAAAAAAAAAAAYAAAAAwYMAAAAAAAGDBAAAAGgAACAAADwSAmAIyBoAABICIAqBSADACCAAgIAAAiAEGiIgNJjKEMRqAMCIkwBEKqAeIyPCPoAABAAAQQADAAAYAACCAAAAACAAAAA==

> <PUBCHEM_IUPAC_OPENEYE_NAME>
[(8R,9R,13S,14R)-2-methoxy-13-methyl-17-oxo-7,8,9,11,12,14,15,16-octahydro-6H-cyclopenta[a]phenanthren-3-yl] hydrogen sulfate

> <PUBCHEM_IUPAC_CAS_NAME>
sulfuric acid [(8R,9R,13S,14R)-2-methoxy-13-methyl-17-oxo-7,8,9,11,12,14,15,16-octahydro-6H-cyclopenta[a]phenanthren-3-yl] ester

> <PUBCHEM_IUPAC_NAME>
[(8R,9R,13S,14R)-2-methoxy-13-methyl-17-oxo-7,8,9,11,12,14,15,16-octahydro-6H-cyclopenta[a]phenanthren-3-yl] hydrogen sulfate

> <PUBCHEM_IUPAC_SYSTEMATIC_NAME>
[(8R,9R,13S,14R)-2-methoxy-13-methyl-17-oxidanylidene-7,8,9,11,12,14,15,16-octahydro-6H-cyclopenta[a]phenanthren-3-yl] hydrogen sulfate

> <PUBCHEM_IUPAC_TRADITIONAL_NAME>
sulfuric acid [(8R,9R,13S,14R)-17-keto-2-methoxy-13-methyl-7,8,9,11,12,14,15,16-octahydro-6H-cyclopenta[a]phenanthren-3-yl] ester

> <PUBCHEM_IUPAC_INCHI>
InChI=1S/C19H24O6S/c1-19-8-7-12-13(15(19)5-6-18(19)20)4-3-11-9-17(25-26(21,22)23)16(24-2)10-14(11)12/h9-10,12-13,15H,3-8H2,1-2H3,(H,21,22,23)/t12-,13-,15-,19+/m1/s1

> <PUBCHEM_IUPAC_INCHIKEY>
SCVLBAOQZXPGMZ-XXZHDZSNSA-N

> <PUBCHEM_XLOGP3>
2.5

> <PUBCHEM_EXACT_MASS>
380.129359

> <PUBCHEM_MOLECULAR_FORMULA>
C19H24O6S

> <PUBCHEM_MOLECULAR_WEIGHT>
380.45526

> <PUBCHEM_OPENEYE_CAN_SMILES>
CC12CCC3C(C1CCC2=O)CCC4=CC(=C(C=C34)OC)OS(=O)(=O)O

> <PUBCHEM_OPENEYE_ISO_SMILES>
C[C@]12CC[C@@H]3[C@H]([C@H]1CCC2=O)CCC4=CC(=C(C=C34)OC)OS(=O)(=O)O

> <PUBCHEM_CACTVS_TPSA>
98.3

> <PUBCHEM_MONOISOTOPIC_WEIGHT>
380.129359

> <PUBCHEM_TOTAL_CHARGE>
0

> <PUBCHEM_HEAVY_ATOM_COUNT>
26

> <PUBCHEM_ATOM_DEF_STEREO_COUNT>
4

> <PUBCHEM_ATOM_UDEF_STEREO_COUNT>
0

> <PUBCHEM_BOND_DEF_STEREO_COUNT>
0

> <PUBCHEM_BOND_UDEF_STEREO_COUNT>
0

> <PUBCHEM_ISOTOPIC_ATOM_COUNT>
0

> <PUBCHEM_COMPONENT_COUNT>
1

> <PUBCHEM_CACTVS_TAUTO_COUNT>
2

> <PUBCHEM_COORDINATE_TYPE>
1
5
255

> <PUBCHEM_BONDANNOTATIONS>
10  28  5
11  29  5
19  21  8
19  22  8
21  23  8
22  24  8
23  25  8
24  25  8
8  27  5
9  18  5

$$$$

