49787031
  -OEChem-07051213112D

 71 71  0     1  0  0  0  0  0999 V2000
    6.3582   -9.0194    0.0000 Br  0  0  0  0  0  0  0  0  0  0  0  0
    8.9562   -5.5194    0.0000 Cl  0  0  0  0  0  0  0  0  0  0  0  0
    2.0280    4.4806    0.0000 O   0  0  0  0  0  0  0  0  0  0  0  0
    2.0000    7.7594    0.0000 O   0  0  0  0  0  0  0  0  0  0  0  0
    4.6261    5.9806    0.0000 O   0  0  0  0  0  0  0  0  0  0  0  0
    3.7601    1.4806    0.0000 O   0  0  0  0  0  0  0  0  0  0  0  0
    3.7601    7.4806    0.0000 N   0  0  0  0  0  0  0  0  0  0  0  0
    4.6261    2.9806    0.0000 N   0  0  0  0  0  0  0  0  0  0  0  0
    7.2242   -1.5194    0.0000 C   0  0  3  0  0  0  0  0  0  0  0  0
    7.2242   -2.5194    0.0000 C   0  0  0  0  0  0  0  0  0  0  0  0
    8.0902   -3.0194    0.0000 C   0  0  0  0  0  0  0  0  0  0  0  0
    8.0902   -4.0194    0.0000 C   0  0  0  0  0  0  0  0  0  0  0  0
    7.2242   -4.5194    0.0000 C   0  0  0  0  0  0  0  0  0  0  0  0
    6.3582   -1.0194    0.0000 C   0  0  0  0  0  0  0  0  0  0  0  0
    8.0902   -1.0194    0.0000 C   0  0  0  0  0  0  0  0  0  0  0  0
    7.2242   -5.5194    0.0000 C   0  0  0  0  0  0  0  0  0  0  0  0
    6.3582   -0.0194    0.0000 C   0  0  0  0  0  0  0  0  0  0  0  0
    4.5691    8.0684    0.0000 C   0  0  2  0  0  0  0  0  0  0  0  0
    5.4921    0.4806    0.0000 C   0  0  0  0  0  0  0  0  0  0  0  0
    5.4921    1.4806    0.0000 C   0  0  0  0  0  0  0  0  0  0  0  0
    8.9562   -4.5194    0.0000 C   0  0  0  0  0  0  0  0  0  0  0  0
    6.3582   -6.0194    0.0000 C   0  0  0  0  0  0  0  0  0  0  0  0
    4.2601    9.0194    0.0000 C   0  0  0  0  0  0  0  0  0  0  0  0
    5.5202    7.7594    0.0000 C   0  0  0  0  0  0  0  0  0  0  0  0
    2.9511    8.0684    0.0000 C   0  0  0  0  0  0  0  0  0  0  0  0
    3.7601    3.4806    0.0000 C   0  0  0  0  0  0  0  0  0  0  0  0
    3.7601    4.4806    0.0000 C   0  0  0  0  0  0  0  0  0  0  0  0
    4.6261    1.9806    0.0000 C   0  0  0  0  0  0  0  0  0  0  0  0
    3.2601    9.0194    0.0000 C   0  0  0  0  0  0  0  0  0  0  0  0
    3.7601    6.4806    0.0000 C   0  0  0  0  0  0  0  0  0  0  0  0
    2.8940    4.9806    0.0000 C   0  0  0  0  0  0  0  0  0  0  0  0
    2.8940    5.9806    0.0000 C   0  0  0  0  0  0  0  0  0  0  0  0
    6.3582   -7.0194    0.0000 C   0  0  0  0  0  0  0  0  0  0  0  0
    2.0280    3.4806    0.0000 C   0  0  0  0  0  0  0  0  0  0  0  0
    6.3582   -8.0194    0.0000 C   0  0  0  0  0  0  0  0  0  0  0  0
    7.2242   -0.8994    0.0000 H   0  0  0  0  0  0  0  0  0  0  0  0
    6.6136   -2.4118    0.0000 H   0  0  0  0  0  0  0  0  0  0  0  0
    7.0121   -3.1020    0.0000 H   0  0  0  0  0  0  0  0  0  0  0  0
    8.7008   -3.1271    0.0000 H   0  0  0  0  0  0  0  0  0  0  0  0
    8.3023   -2.4368    0.0000 H   0  0  0  0  0  0  0  0  0  0  0  0
    7.0121   -3.9368    0.0000 H   0  0  0  0  0  0  0  0  0  0  0  0
    6.6136   -4.6271    0.0000 H   0  0  0  0  0  0  0  0  0  0  0  0
    5.8212   -1.3294    0.0000 H   0  0  0  0  0  0  0  0  0  0  0  0
    8.4002   -1.5564    0.0000 H   0  0  0  0  0  0  0  0  0  0  0  0
    8.6271   -0.7094    0.0000 H   0  0  0  0  0  0  0  0  0  0  0  0
    7.7802   -0.4825    0.0000 H   0  0  0  0  0  0  0  0  0  0  0  0
    7.4362   -6.1020    0.0000 H   0  0  0  0  0  0  0  0  0  0  0  0
    7.8348   -5.4118    0.0000 H   0  0  0  0  0  0  0  0  0  0  0  0
    6.8951    0.2906    0.0000 H   0  0  0  0  0  0  0  0  0  0  0  0
    4.6661    7.4560    0.0000 H   0  0  0  0  0  0  0  0  0  0  0  0
    4.8815    0.5882    0.0000 H   0  0  0  0  0  0  0  0  0  0  0  0
    5.2801   -0.1020    0.0000 H   0  0  0  0  0  0  0  0  0  0  0  0
    6.1027    1.3729    0.0000 H   0  0  0  0  0  0  0  0  0  0  0  0
    5.7042    2.0632    0.0000 H   0  0  0  0  0  0  0  0  0  0  0  0
    9.4932   -4.2094    0.0000 H   0  0  0  0  0  0  0  0  0  0  0  0
    6.1461   -5.4368    0.0000 H   0  0  0  0  0  0  0  0  0  0  0  0
    5.7476   -6.1271    0.0000 H   0  0  0  0  0  0  0  0  0  0  0  0
    4.6245    9.5210    0.0000 H   0  0  0  0  0  0  0  0  0  0  0  0
    5.3286    7.1697    0.0000 H   0  0  0  0  0  0  0  0  0  0  0  0
    6.1098    7.5678    0.0000 H   0  0  0  0  0  0  0  0  0  0  0  0
    5.7117    8.3490    0.0000 H   0  0  0  0  0  0  0  0  0  0  0  0
    3.1495    3.5882    0.0000 H   0  0  0  0  0  0  0  0  0  0  0  0
    3.5480    2.8980    0.0000 H   0  0  0  0  0  0  0  0  0  0  0  0
    4.3707    4.3729    0.0000 H   0  0  0  0  0  0  0  0  0  0  0  0
    3.9721    5.0632    0.0000 H   0  0  0  0  0  0  0  0  0  0  0  0
    2.8956    9.5210    0.0000 H   0  0  0  0  0  0  0  0  0  0  0  0
    5.1630    3.2906    0.0000 H   0  0  0  0  0  0  0  0  0  0  0  0
    2.3571    6.2906    0.0000 H   0  0  0  0  0  0  0  0  0  0  0  0
    1.4080    3.4806    0.0000 H   0  0  0  0  0  0  0  0  0  0  0  0
    2.0280    2.8606    0.0000 H   0  0  0  0  0  0  0  0  0  0  0  0
    2.6480    3.4806    0.0000 H   0  0  0  0  0  0  0  0  0  0  0  0
  1 35  1  0  0  0  0
  2 21  1  0  0  0  0
  3 31  1  0  0  0  0
  3 34  1  0  0  0  0
  4 25  2  0  0  0  0
  5 30  2  0  0  0  0
  6 28  2  0  0  0  0
  7 18  1  0  0  0  0
  7 25  1  0  0  0  0
  7 30  1  0  0  0  0
  8 26  1  0  0  0  0
  8 28  1  0  0  0  0
  8 67  1  0  0  0  0
  9 10  1  0  0  0  0
  9 14  1  0  0  0  0
  9 15  1  0  0  0  0
  9 36  1  0  0  0  0
 10 11  1  0  0  0  0
 10 37  1  0  0  0  0
 10 38  1  0  0  0  0
 11 12  1  0  0  0  0
 11 39  1  0  0  0  0
 11 40  1  0  0  0  0
 12 13  1  0  0  0  0
 12 21  2  0  0  0  0
 13 16  1  0  0  0  0
 13 41  1  0  0  0  0
 13 42  1  0  0  0  0
 14 17  2  0  0  0  0
 14 43  1  0  0  0  0
 15 44  1  0  0  0  0
 15 45  1  0  0  0  0
 15 46  1  0  0  0  0
 16 22  1  0  0  0  0
 16 47  1  0  0  0  0
 16 48  1  0  0  0  0
 17 19  1  0  0  0  0
 17 49  1  0  0  0  0
 18 23  1  0  0  0  0
 18 24  1  6  0  0  0
 18 50  1  0  0  0  0
 19 20  1  0  0  0  0
 19 51  1  0  0  0  0
 19 52  1  0  0  0  0
 20 28  1  0  0  0  0
 20 53  1  0  0  0  0
 20 54  1  0  0  0  0
 21 55  1  0  0  0  0
 22 33  1  0  0  0  0
 22 56  1  0  0  0  0
 22 57  1  0  0  0  0
 23 29  2  0  0  0  0
 23 58  1  0  0  0  0
 24 59  1  0  0  0  0
 24 60  1  0  0  0  0
 24 61  1  0  0  0  0
 25 29  1  0  0  0  0
 26 27  1  0  0  0  0
 26 62  1  0  0  0  0
 26 63  1  0  0  0  0
 27 31  1  0  0  0  0
 27 64  1  0  0  0  0
 27 65  1  0  0  0  0
 29 66  1  0  0  0  0
 30 32  1  0  0  0  0
 31 32  2  0  0  0  0
 32 68  1  0  0  0  0
 33 35  3  0  0  0  0
 34 69  1  0  0  0  0
 34 70  1  0  0  0  0
 34 71  1  0  0  0  0
M  END
> <PUBCHEM_COMPOUND_CID>
49787031

> <PUBCHEM_COMPOUND_CANONICALIZED>
1

> <PUBCHEM_CACTVS_COMPLEXITY>
911

> <PUBCHEM_CACTVS_HBOND_ACCEPTOR>
4

> <PUBCHEM_CACTVS_HBOND_DONOR>
1

> <PUBCHEM_CACTVS_ROTATABLE_BOND>
15

> <PUBCHEM_CACTVS_SUBSKEYS>
AAADcfB7OAAEEAAAAAAAAAAAAAAAAQAAAAAAAAAAAAAAAAAAAAAAHgJQAAABDS/BgEYCAAPABADIEiFSEAiACAAgIAAICIEIAEgAABIAgQAEAAACliCIAYMAgMAMAAAAAAAAAAAAAAAAAAAAAAAAAAAAAA==

> <PUBCHEM_IUPAC_OPENEYE_NAME>
(E,9E)-14-bromo-9-(chloromethylene)-N-[(E)-3-methoxy-5-[(2S)-2-methyl-5-oxo-2H-pyrrol-1-yl]-5-oxo-pent-3-enyl]-6-methyl-tetradec-4-en-13-ynamide

> <PUBCHEM_IUPAC_CAS_NAME>
(E,9E)-14-bromo-9-(chloromethylidene)-N-[(E)-3-methoxy-5-[(2S)-2-methyl-5-oxo-2H-pyrrol-1-yl]-5-oxopent-3-enyl]-6-methyltetradec-4-en-13-ynamide

> <PUBCHEM_IUPAC_NAME>
(E,9E)-14-bromo-9-(chloromethylidene)-N-[(E)-3-methoxy-5-[(2S)-2-methyl-5-oxo-2H-pyrrol-1-yl]-5-oxopent-3-enyl]-6-methyltetradec-4-en-13-ynamide

> <PUBCHEM_IUPAC_SYSTEMATIC_NAME>
(E,9E)-14-bromanyl-9-(chloranylmethylidene)-N-[(E)-3-methoxy-5-[(2S)-2-methyl-5-oxidanylidene-2H-pyrrol-1-yl]-5-oxidanylidene-pent-3-enyl]-6-methyl-tetradec-4-en-13-ynamide

> <PUBCHEM_IUPAC_TRADITIONAL_NAME>
(E,9E)-14-bromo-9-(chloromethylene)-N-[(E)-5-keto-5-[(5S)-2-keto-5-methyl-3-pyrrolin-1-yl]-3-methoxy-pent-3-enyl]-6-methyl-tetradec-4-en-13-ynamide

> <PUBCHEM_IUPAC_INCHI>
InChI=1S/C27H36BrClN2O4/c1-21(12-14-23(20-29)10-5-4-8-17-28)9-6-7-11-25(32)30-18-16-24(35-3)19-27(34)31-22(2)13-15-26(31)33/h6,9,13,15,19-22H,4-5,7,10-12,14,16,18H2,1-3H3,(H,30,32)/b9-6+,23-20+,24-19+/t21?,22-/m0/s1

> <PUBCHEM_IUPAC_INCHIKEY>
NAIKIJSSBJHCBL-VIPNTUGYSA-N

> <PUBCHEM_XLOGP3_AA>
5.9

> <PUBCHEM_EXACT_MASS>
566.154697

> <PUBCHEM_MOLECULAR_FORMULA>
C27H36BrClN2O4

> <PUBCHEM_MOLECULAR_WEIGHT>
567.94274

> <PUBCHEM_OPENEYE_CAN_SMILES>
CC1C=CC(=O)N1C(=O)C=C(CCNC(=O)CCC=CC(C)CCC(=CCl)CCCC#CBr)OC

> <PUBCHEM_OPENEYE_ISO_SMILES>
C[C@H]1C=CC(=O)N1C(=O)/C=C(\CCNC(=O)CC/C=C/C(C)CC/C(=C/Cl)/CCCC#CBr)/OC

> <PUBCHEM_CACTVS_TPSA>
75.7

> <PUBCHEM_MONOISOTOPIC_WEIGHT>
566.154697

> <PUBCHEM_TOTAL_CHARGE>
0

> <PUBCHEM_HEAVY_ATOM_COUNT>
35

> <PUBCHEM_ATOM_DEF_STEREO_COUNT>
1

> <PUBCHEM_ATOM_UDEF_STEREO_COUNT>
1

> <PUBCHEM_BOND_DEF_STEREO_COUNT>
3

> <PUBCHEM_BOND_UDEF_STEREO_COUNT>
0

> <PUBCHEM_ISOTOPIC_ATOM_COUNT>
0

> <PUBCHEM_COMPONENT_COUNT>
1

> <PUBCHEM_CACTVS_TAUTO_COUNT>
2

> <PUBCHEM_COORDINATE_TYPE>
1
5
255

> <PUBCHEM_BONDANNOTATIONS>
18  24  6
9  15  3

$$$$

