5281957
  -OEChem-07051213023D

 79 82  0     1  0  0  0  0  0999 V2000
    4.2168    0.5582    2.5700 O   0  0  0  0  0  0  0  0  0  0  0  0
   -2.7160    0.3168   -4.8373 O   0  0  0  0  0  0  0  0  0  0  0  0
   -3.3078   -1.8623   -4.6121 O   0  0  0  0  0  0  0  0  0  0  0  0
   -7.0672   -3.1001    1.5735 O   0  0  0  0  0  0  0  0  0  0  0  0
   -5.7966   -3.0880    3.4564 O   0  0  0  0  0  0  0  0  0  0  0  0
    1.4410    3.2147   -2.6109 O   0  0  0  0  0  0  0  0  0  0  0  0
    0.7865   -2.3562    0.3951 N   0  0  0  0  0  0  0  0  0  0  0  0
    3.4442   -0.6081    0.6965 N   0  0  0  0  0  0  0  0  0  0  0  0
   -1.4002    0.5311    0.4687 N   0  0  0  0  0  0  0  0  0  0  0  0
   -0.2707    2.7089   -1.1192 N   0  0  0  0  0  0  0  0  0  0  0  0
    3.9625   -1.5776   -0.2311 C   0  0  2  0  0  0  0  0  0  0  0  0
    3.1367   -2.8695   -0.1998 C   0  0  0  0  0  0  0  0  0  0  0  0
    1.7226   -2.6529   -0.5606 C   0  0  0  0  0  0  0  0  0  0  0  0
    1.0835   -2.6902   -1.7802 C   0  0  0  0  0  0  0  0  0  0  0  0
   -0.2851   -2.4056   -1.5494 C   0  0  0  0  0  0  0  0  0  0  0  0
   -0.4185   -2.2091   -0.2125 C   0  0  0  0  0  0  0  0  0  0  0  0
    5.3693   -1.7383    0.2813 C   0  0  0  0  0  0  0  0  0  0  0  0
   -1.3494   -2.3389   -2.5727 C   0  0  0  0  0  0  0  0  0  0  0  0
    5.6150   -0.9849    1.3664 C   0  0  0  0  0  0  0  0  0  0  0  0
   -1.5338   -1.8916    0.6284 C   0  0  0  0  0  0  0  0  0  0  0  0
   -1.9428   -0.6495    0.9097 C   0  0  0  0  0  0  0  0  0  0  0  0
    4.3680   -0.2360    1.6567 C   0  0  0  0  0  0  0  0  0  0  0  0
   -3.0761   -0.2707    1.7630 C   0  0  0  0  0  0  0  0  0  0  0  0
    1.7130   -2.9735   -3.0865 C   0  0  0  0  0  0  0  0  0  0  0  0
    6.3137   -2.6438   -0.4383 C   0  0  0  0  0  0  0  0  0  0  0  0
   -3.1546    1.0814    1.7901 C   0  0  0  0  0  0  0  0  0  0  0  0
   -1.5544   -0.9414   -3.1910 C   0  0  0  0  0  0  0  0  0  0  0  0
   -2.0745    1.6225    0.9554 C   0  0  0  0  0  0  0  0  0  0  0  0
   -3.9403   -1.2735    2.4460 C   0  0  0  0  0  0  0  0  0  0  0  0
    6.8072   -0.8506    2.1407 C   0  0  0  0  0  0  0  0  0  0  0  0
   -5.1336   -1.6961    1.5967 C   0  0  0  0  0  0  0  0  0  0  0  0
   -4.1277    1.9495    2.5100 C   0  0  0  0  0  0  0  0  0  0  0  0
   -1.8124    2.9139    0.7254 C   0  0  0  0  0  0  0  0  0  0  0  0
   -2.6220   -0.9117   -4.2637 C   0  0  0  0  0  0  0  0  0  0  0  0
   -0.7359    3.3697   -0.1044 C   0  0  0  0  0  0  0  0  0  0  0  0
    7.6122   -1.8746    2.4562 C   0  0  0  0  0  0  0  0  0  0  0  0
   -6.0161   -2.6834    2.3217 C   0  0  0  0  0  0  0  0  0  0  0  0
   -0.0631    4.6533    0.1383 C   0  0  0  0  0  0  0  0  0  0  0  0
    0.8598    4.7089   -0.8306 C   0  0  0  0  0  0  0  0  0  0  0  0
    0.7415    3.4740   -1.6440 C   0  0  0  0  0  0  0  0  0  0  0  0
   -0.3388    5.6018    1.1677 C   0  0  0  0  0  0  0  0  0  0  0  0
    1.8749    5.7435   -1.1524 C   0  0  0  0  0  0  0  0  0  0  0  0
   -0.3312    6.9300    0.9827 C   0  0  0  0  0  0  0  0  0  0  0  0
    3.9566   -1.1209   -1.2275 H   0  0  0  0  0  0  0  0  0  0  0  0
    3.1896   -3.3248    0.7993 H   0  0  0  0  0  0  0  0  0  0  0  0
    3.5802   -3.6055   -0.8824 H   0  0  0  0  0  0  0  0  0  0  0  0
    0.9735   -2.2614    1.3850 H   0  0  0  0  0  0  0  0  0  0  0  0
    2.5163   -0.2004    0.6352 H   0  0  0  0  0  0  0  0  0  0  0  0
   -1.1358   -3.0569   -3.3754 H   0  0  0  0  0  0  0  0  0  0  0  0
   -2.3006   -2.6759   -2.1390 H   0  0  0  0  0  0  0  0  0  0  0  0
   -2.0599   -2.7488    1.0390 H   0  0  0  0  0  0  0  0  0  0  0  0
    2.7900   -2.7792   -3.0704 H   0  0  0  0  0  0  0  0  0  0  0  0
    1.5614   -4.0224   -3.3608 H   0  0  0  0  0  0  0  0  0  0  0  0
    1.2858   -2.3480   -3.8767 H   0  0  0  0  0  0  0  0  0  0  0  0
    6.1963   -2.5221   -1.5207 H   0  0  0  0  0  0  0  0  0  0  0  0
    6.1081   -3.6889   -0.1880 H   0  0  0  0  0  0  0  0  0  0  0  0
    7.3623   -2.4300   -0.2164 H   0  0  0  0  0  0  0  0  0  0  0  0
   -1.8435   -0.2295   -2.4101 H   0  0  0  0  0  0  0  0  0  0  0  0
   -0.6149   -0.5985   -3.6399 H   0  0  0  0  0  0  0  0  0  0  0  0
   -0.5987    0.5903   -0.1409 H   0  0  0  0  0  0  0  0  0  0  0  0
   -4.3092   -0.8459    3.3879 H   0  0  0  0  0  0  0  0  0  0  0  0
   -3.3578   -2.1478    2.7607 H   0  0  0  0  0  0  0  0  0  0  0  0
    7.0507    0.1425    2.5070 H   0  0  0  0  0  0  0  0  0  0  0  0
   -4.7889   -2.1694    0.6702 H   0  0  0  0  0  0  0  0  0  0  0  0
   -5.7454   -0.8233    1.3412 H   0  0  0  0  0  0  0  0  0  0  0  0
   -4.8749    1.3648    3.0547 H   0  0  0  0  0  0  0  0  0  0  0  0
   -4.6685    2.5901    1.8056 H   0  0  0  0  0  0  0  0  0  0  0  0
   -3.6131    2.5861    3.2370 H   0  0  0  0  0  0  0  0  0  0  0  0
   -2.4229    3.6787    1.1966 H   0  0  0  0  0  0  0  0  0  0  0  0
    7.4108   -2.8971    2.1570 H   0  0  0  0  0  0  0  0  0  0  0  0
    8.4986   -1.6992    3.0575 H   0  0  0  0  0  0  0  0  0  0  0  0
   -3.3966    0.3390   -5.5435 H   0  0  0  0  0  0  0  0  0  0  0  0
   -0.5804    5.2121    2.1522 H   0  0  0  0  0  0  0  0  0  0  0  0
    2.0811    6.4064   -0.3078 H   0  0  0  0  0  0  0  0  0  0  0  0
    2.8279    5.2741   -1.4189 H   0  0  0  0  0  0  0  0  0  0  0  0
    1.5453    6.3502   -2.0014 H   0  0  0  0  0  0  0  0  0  0  0  0
   -7.6235   -3.7501    2.0533 H   0  0  0  0  0  0  0  0  0  0  0  0
   -0.5556    7.5922    1.8129 H   0  0  0  0  0  0  0  0  0  0  0  0
   -0.1298    7.3900    0.0219 H   0  0  0  0  0  0  0  0  0  0  0  0
  1 22  2  0  0  0  0
  2 34  1  0  0  0  0
  2 72  1  0  0  0  0
  3 34  2  0  0  0  0
  4 37  1  0  0  0  0
  4 77  1  0  0  0  0
  5 37  2  0  0  0  0
  6 40  2  0  0  0  0
  7 13  1  0  0  0  0
  7 16  1  0  0  0  0
  7 47  1  0  0  0  0
  8 11  1  0  0  0  0
  8 22  1  0  0  0  0
  8 48  1  0  0  0  0
  9 21  1  0  0  0  0
  9 28  1  0  0  0  0
  9 60  1  0  0  0  0
 10 35  2  0  0  0  0
 10 40  1  0  0  0  0
 11 12  1  0  0  0  0
 11 17  1  0  0  0  0
 11 44  1  0  0  0  0
 12 13  1  0  0  0  0
 12 45  1  0  0  0  0
 12 46  1  0  0  0  0
 13 14  2  0  0  0  0
 14 15  1  0  0  0  0
 14 24  1  0  0  0  0
 15 16  2  0  0  0  0
 15 18  1  0  0  0  0
 16 20  1  0  0  0  0
 17 19  2  0  0  0  0
 17 25  1  0  0  0  0
 18 27  1  0  0  0  0
 18 49  1  0  0  0  0
 18 50  1  0  0  0  0
 19 22  1  0  0  0  0
 19 30  1  0  0  0  0
 20 21  2  0  0  0  0
 20 51  1  0  0  0  0
 21 23  1  0  0  0  0
 23 26  2  0  0  0  0
 23 29  1  0  0  0  0
 24 52  1  0  0  0  0
 24 53  1  0  0  0  0
 24 54  1  0  0  0  0
 25 55  1  0  0  0  0
 25 56  1  0  0  0  0
 25 57  1  0  0  0  0
 26 28  1  0  0  0  0
 26 32  1  0  0  0  0
 27 34  1  0  0  0  0
 27 58  1  0  0  0  0
 27 59  1  0  0  0  0
 28 33  2  0  0  0  0
 29 31  1  0  0  0  0
 29 61  1  0  0  0  0
 29 62  1  0  0  0  0
 30 36  2  0  0  0  0
 30 63  1  0  0  0  0
 31 37  1  0  0  0  0
 31 64  1  0  0  0  0
 31 65  1  0  0  0  0
 32 66  1  0  0  0  0
 32 67  1  0  0  0  0
 32 68  1  0  0  0  0
 33 35  1  0  0  0  0
 33 69  1  0  0  0  0
 35 38  1  0  0  0  0
 36 70  1  0  0  0  0
 36 71  1  0  0  0  0
 38 39  2  0  0  0  0
 38 41  1  0  0  0  0
 39 40  1  0  0  0  0
 39 42  1  0  0  0  0
 41 43  2  0  0  0  0
 41 73  1  0  0  0  0
 42 74  1  0  0  0  0
 42 75  1  0  0  0  0
 42 76  1  0  0  0  0
 43 78  1  0  0  0  0
 43 79  1  0  0  0  0
M  END
> <PUBCHEM_COMPOUND_CID>
5281957

> <PUBCHEM_CONFORMER_RMSD>
1.2

> <PUBCHEM_CONFORMER_DIVERSEORDER>
1
33
102
64
73
138
79
32
29
11
132
61
98
75
91
66
34
127
85
16
28
54
25
14
107
104
93
110
52
13
9
10
48
71
97
89
83
5
41
35
19
109
17
82
136
24
69
22
40
90
112
114
50
23
53
139
62
118
101
128
130
115
134
99
80
37
108
20
59
58
129
84
55
26
8
6
135
27
125
21
81
120
106
3
39
68
117
70
36
74
123
72
122
18
94
51
86
95
76
100
57
2
121
116
87
63
137
12
4
7
65
47
111
60
88
77
31
133
126
44
15
38
43
67
42
113
30
119
96
103
49
131
92
45
46
124
56
105
78

> <PUBCHEM_MMFF94_PARTIAL_CHARGES>
56
1 -0.57
10 -0.66
11 0.44
12 0.18
13 -0.33
14 -0.18
15 -0.18
16 -0.2
17 -0.28
18 0.18
19 0.01
2 -0.65
20 -0.11
21 0.1
22 0.62
23 -0.14
24 0.18
25 0.14
26 -0.14
27 0.06
28 0.1
29 0.14
3 -0.57
30 -0.15
31 0.06
32 0.14
33 -0.14
34 0.66
35 0.42
36 -0.3
37 0.66
38 0.01
39 -0.12
4 -0.65
40 0.77
41 -0.15
42 0.14
43 -0.3
47 0.27
48 0.37
5 -0.57
51 0.15
6 -0.57
60 0.4
63 0.15
69 0.15
7 0.03
70 0.15
71 0.15
72 0.5
73 0.15
77 0.5
78 0.15
79 0.15
8 -0.73
9 -0.6

> <PUBCHEM_EFFECTIVE_ROTOR_COUNT>
12.4

> <PUBCHEM_PHARMACOPHORE_FEATURES>
21
1 1 acceptor
1 10 acceptor
1 10 donor
1 2 acceptor
1 3 acceptor
1 36 hydrophobe
1 4 acceptor
1 43 hydrophobe
1 5 acceptor
1 6 acceptor
1 7 cation
1 7 donor
1 8 donor
1 9 cation
1 9 donor
3 2 3 34 anion
3 4 5 37 anion
5 10 35 38 39 40 rings
5 7 13 14 15 16 rings
5 8 11 17 19 22 rings
5 9 21 23 26 28 rings

> <PUBCHEM_HEAVY_ATOM_COUNT>
43

> <PUBCHEM_ATOM_DEF_STEREO_COUNT>
1

> <PUBCHEM_ATOM_UDEF_STEREO_COUNT>
0

> <PUBCHEM_BOND_DEF_STEREO_COUNT>
2

> <PUBCHEM_BOND_UDEF_STEREO_COUNT>
0

> <PUBCHEM_ISOTOPIC_ATOM_COUNT>
0

> <PUBCHEM_COMPONENT_COUNT>
1

> <PUBCHEM_CACTVS_TAUTO_COUNT>
20

> <PUBCHEM_CONFORMER_ID>
005098A500000001

> <PUBCHEM_MMFF94_ENERGY>
90.709

> <PUBCHEM_FEATURE_SELFOVERLAP>
106.726

> <PUBCHEM_SHAPE_FINGERPRINT>
11445158 3 18196934379318661711
14114207 22 17910104712619578941
15968369 153 18262244412605064004
19315092 285 16557027166061908518
19319366 153 17552334597966625588
21716022 299 16523046591791685183
25019877 29 17168141221917050263
376196 1 17038388155259644433
4394409 98 16677295901242364568
469060 322 18263383480396398078
50677037 204 18117854213874319632

> <PUBCHEM_SHAPE_MULTIPOLES>
829.78
13
8.33
4.45
15.3
18.87
-4.97
-15.78
15.32
-4.01
-1.25
-4.78
-3.38
1.16

> <PUBCHEM_SHAPE_SELFOVERLAP>
1787.198

> <PUBCHEM_SHAPE_VOLUME>
460.5

> <PUBCHEM_COORDINATE_TYPE>
2
5
10

$$$$

