10894570
  -OEChem-07051213083D

 73 76  0     1  0  0  0  0  0999 V2000
    7.8596    0.6518   -1.0907 O   0  0  0  0  0  0  0  0  0  0  0  0
   -0.5881   -0.6701    0.6134 C   0  0  1  0  0  0  0  0  0  0  0  0
    0.0451    0.7319    0.5152 C   0  0  1  0  0  0  0  0  0  0  0  0
   -2.0865   -0.2870    0.5396 C   0  0  2  0  0  0  0  0  0  0  0  0
    2.2060   -0.2638   -0.4412 C   0  0  1  0  0  0  0  0  0  0  0  0
   -0.0914   -1.4874   -0.5911 C   0  0  0  0  0  0  0  0  0  0  0  0
   -0.7703    1.5590    1.5134 C   0  0  0  0  0  0  0  0  0  0  0  0
    1.5508    0.7033    0.5494 C   0  0  0  0  0  0  0  0  0  0  0  0
   -2.1915    0.9758    1.4231 C   0  0  0  0  0  0  0  0  0  0  0  0
    3.7751   -0.4633   -0.2238 C   0  0  2  0  0  0  0  0  0  0  0  0
    1.4398   -1.6142   -0.5818 C   0  0  0  0  0  0  0  0  0  0  0  0
   -3.0815   -1.3698    0.9326 C   0  0  1  0  0  0  0  0  0  0  0  0
   -0.2529   -1.3985    1.9387 C   0  0  0  0  0  0  0  0  0  0  0  0
    4.4297    0.7711    0.4112 C   0  0  0  0  0  0  0  0  0  0  0  0
    4.4093   -0.7455   -1.6177 C   0  0  0  0  0  0  0  0  0  0  0  0
    2.2865    1.5642    1.2688 C   0  0  0  0  0  0  0  0  0  0  0  0
    4.0793   -1.6477    0.7278 C   0  0  0  0  0  0  0  0  0  0  0  0
   -4.5474   -0.8987    0.8228 C   0  0  0  0  0  0  0  0  0  0  0  0
    3.7106    1.6713    1.1014 C   0  0  0  0  0  0  0  0  0  0  0  0
    5.9286    0.9150    0.3008 C   0  0  0  0  0  0  0  0  0  0  0  0
    5.9350   -0.6903   -1.6370 C   0  0  0  0  0  0  0  0  0  0  0  0
   -2.8755   -2.6125    0.0585 C   0  0  0  0  0  0  0  0  0  0  0  0
    6.4357    0.6525   -1.1136 C   0  0  2  0  0  0  0  0  0  0  0  0
   -4.9473   -0.4950   -0.6024 C   0  0  0  0  0  0  0  0  0  0  0  0
   -6.4000   -0.0654   -0.6904 C   0  0  0  0  0  0  0  0  0  0  0  0
   -6.6596    1.3829   -1.0906 C   0  0  0  0  0  0  0  0  0  0  0  0
   -7.3720   -0.9494   -0.4063 C   0  0  0  0  0  0  0  0  0  0  0  0
   -6.1392    1.6519   -2.5060 C   0  0  0  0  0  0  0  0  0  0  0  0
   -6.0879    2.4281   -0.1241 C   0  0  0  0  0  0  0  0  0  0  0  0
   -0.1976    1.1485   -0.4776 H   0  0  0  0  0  0  0  0  0  0  0  0
   -2.2814    0.0242   -0.4956 H   0  0  0  0  0  0  0  0  0  0  0  0
    2.0742    0.2437   -1.4103 H   0  0  0  0  0  0  0  0  0  0  0  0
   -0.4016   -1.0129   -1.5309 H   0  0  0  0  0  0  0  0  0  0  0  0
   -0.4781   -2.5053   -0.6118 H   0  0  0  0  0  0  0  0  0  0  0  0
   -0.7603    2.6253    1.2637 H   0  0  0  0  0  0  0  0  0  0  0  0
   -0.3893    1.4553    2.5360 H   0  0  0  0  0  0  0  0  0  0  0  0
   -2.5590    0.7500    2.4305 H   0  0  0  0  0  0  0  0  0  0  0  0
   -2.8798    1.7016    0.9774 H   0  0  0  0  0  0  0  0  0  0  0  0
    1.6975   -2.2953    0.2344 H   0  0  0  0  0  0  0  0  0  0  0  0
    1.7557   -2.1135   -1.5058 H   0  0  0  0  0  0  0  0  0  0  0  0
   -2.9306   -1.6630    1.9789 H   0  0  0  0  0  0  0  0  0  0  0  0
   -0.5859   -2.4405    1.9224 H   0  0  0  0  0  0  0  0  0  0  0  0
    0.8226   -1.4138    2.1417 H   0  0  0  0  0  0  0  0  0  0  0  0
   -0.7229   -0.9219    2.8052 H   0  0  0  0  0  0  0  0  0  0  0  0
    4.0448   -0.0068   -2.3445 H   0  0  0  0  0  0  0  0  0  0  0  0
    4.0866   -1.7256   -1.9895 H   0  0  0  0  0  0  0  0  0  0  0  0
    1.8263    2.2913    1.9293 H   0  0  0  0  0  0  0  0  0  0  0  0
    3.5121   -1.5624    1.6620 H   0  0  0  0  0  0  0  0  0  0  0  0
    3.8373   -2.6111    0.2661 H   0  0  0  0  0  0  0  0  0  0  0  0
    5.1385   -1.7046    1.0017 H   0  0  0  0  0  0  0  0  0  0  0  0
   -4.7184   -0.0561    1.5041 H   0  0  0  0  0  0  0  0  0  0  0  0
   -5.1940   -1.7086    1.1840 H   0  0  0  0  0  0  0  0  0  0  0  0
    4.1886    2.5255    1.5713 H   0  0  0  0  0  0  0  0  0  0  0  0
    6.2595    1.9137    0.6146 H   0  0  0  0  0  0  0  0  0  0  0  0
    6.4104    0.2232    1.0039 H   0  0  0  0  0  0  0  0  0  0  0  0
    6.3598   -1.5137   -1.0500 H   0  0  0  0  0  0  0  0  0  0  0  0
    6.3001   -0.8431   -2.6601 H   0  0  0  0  0  0  0  0  0  0  0  0
   -2.0566   -3.2329    0.4285 H   0  0  0  0  0  0  0  0  0  0  0  0
   -2.7145   -2.3684   -0.9960 H   0  0  0  0  0  0  0  0  0  0  0  0
   -3.7588   -3.2615    0.1046 H   0  0  0  0  0  0  0  0  0  0  0  0
    6.1162    1.4585   -1.7845 H   0  0  0  0  0  0  0  0  0  0  0  0
   -4.7991   -1.3264   -1.3018 H   0  0  0  0  0  0  0  0  0  0  0  0
   -4.3024    0.3130   -0.9537 H   0  0  0  0  0  0  0  0  0  0  0  0
    8.1518   -0.0749   -0.5144 H   0  0  0  0  0  0  0  0  0  0  0  0
   -7.7472    1.5374   -1.1150 H   0  0  0  0  0  0  0  0  0  0  0  0
   -8.4175   -0.6640   -0.4551 H   0  0  0  0  0  0  0  0  0  0  0  0
   -7.1503   -1.9751   -0.1320 H   0  0  0  0  0  0  0  0  0  0  0  0
   -5.0459    1.6442   -2.5606 H   0  0  0  0  0  0  0  0  0  0  0  0
   -6.4744    2.6361   -2.8526 H   0  0  0  0  0  0  0  0  0  0  0  0
   -6.5197    0.9076   -3.2144 H   0  0  0  0  0  0  0  0  0  0  0  0
   -6.4392    2.2441    0.8968 H   0  0  0  0  0  0  0  0  0  0  0  0
   -6.4080    3.4351   -0.4127 H   0  0  0  0  0  0  0  0  0  0  0  0
   -4.9937    2.4177   -0.1119 H   0  0  0  0  0  0  0  0  0  0  0  0
  1 23  1  0  0  0  0
  1 64  1  0  0  0  0
  2  3  1  0  0  0  0
  2  4  1  0  0  0  0
  2  6  1  0  0  0  0
  2 13  1  0  0  0  0
  3  7  1  0  0  0  0
  3  8  1  0  0  0  0
  3 30  1  0  0  0  0
  4  9  1  0  0  0  0
  4 12  1  0  0  0  0
  4 31  1  0  0  0  0
  5  8  1  0  0  0  0
  5 10  1  0  0  0  0
  5 11  1  0  0  0  0
  5 32  1  0  0  0  0
  6 11  1  0  0  0  0
  6 33  1  0  0  0  0
  6 34  1  0  0  0  0
  7  9  1  0  0  0  0
  7 35  1  0  0  0  0
  7 36  1  0  0  0  0
  8 16  2  0  0  0  0
  9 37  1  0  0  0  0
  9 38  1  0  0  0  0
 10 14  1  0  0  0  0
 10 15  1  0  0  0  0
 10 17  1  0  0  0  0
 11 39  1  0  0  0  0
 11 40  1  0  0  0  0
 12 18  1  0  0  0  0
 12 22  1  0  0  0  0
 12 41  1  0  0  0  0
 13 42  1  0  0  0  0
 13 43  1  0  0  0  0
 13 44  1  0  0  0  0
 14 19  2  0  0  0  0
 14 20  1  0  0  0  0
 15 21  1  0  0  0  0
 15 45  1  0  0  0  0
 15 46  1  0  0  0  0
 16 19  1  0  0  0  0
 16 47  1  0  0  0  0
 17 48  1  0  0  0  0
 17 49  1  0  0  0  0
 17 50  1  0  0  0  0
 18 24  1  0  0  0  0
 18 51  1  0  0  0  0
 18 52  1  0  0  0  0
 19 53  1  0  0  0  0
 20 23  1  0  0  0  0
 20 54  1  0  0  0  0
 20 55  1  0  0  0  0
 21 23  1  0  0  0  0
 21 56  1  0  0  0  0
 21 57  1  0  0  0  0
 22 58  1  0  0  0  0
 22 59  1  0  0  0  0
 22 60  1  0  0  0  0
 23 61  1  0  0  0  0
 24 25  1  0  0  0  0
 24 62  1  0  0  0  0
 24 63  1  0  0  0  0
 25 26  1  0  0  0  0
 25 27  2  0  0  0  0
 26 28  1  0  0  0  0
 26 29  1  0  0  0  0
 26 65  1  0  0  0  0
 27 66  1  0  0  0  0
 27 67  1  0  0  0  0
 28 68  1  0  0  0  0
 28 69  1  0  0  0  0
 28 70  1  0  0  0  0
 29 71  1  0  0  0  0
 29 72  1  0  0  0  0
 29 73  1  0  0  0  0
M  END
> <PUBCHEM_COMPOUND_CID>
10894570

> <PUBCHEM_CONFORMER_RMSD>
0.8

> <PUBCHEM_CONFORMER_DIVERSEORDER>
7
20
10
21
3
19
6
13
16
15
12
18
14
4
1
8
17
5
2
11
9

> <PUBCHEM_MMFF94_PARTIAL_CHARGES>
19
1 -0.68
10 0.14
14 -0.28
16 -0.15
19 -0.15
20 0.14
23 0.28
24 0.14
25 -0.28
26 0.14
27 -0.3
3 0.14
47 0.15
5 0.14
53 0.15
64 0.4
66 0.15
67 0.15
8 -0.28

> <PUBCHEM_EFFECTIVE_ROTOR_COUNT>
6.8

> <PUBCHEM_PHARMACOPHORE_FEATURES>
10
1 1 acceptor
1 1 donor
1 22 hydrophobe
1 27 hydrophobe
3 26 28 29 hydrophobe
5 12 18 24 25 26 hydrophobe
5 2 3 4 7 9 rings
6 10 14 15 20 21 23 rings
6 2 3 5 6 8 11 rings
6 5 8 10 14 16 19 rings

> <PUBCHEM_HEAVY_ATOM_COUNT>
29

> <PUBCHEM_ATOM_DEF_STEREO_COUNT>
7

> <PUBCHEM_ATOM_UDEF_STEREO_COUNT>
0

> <PUBCHEM_BOND_DEF_STEREO_COUNT>
0

> <PUBCHEM_BOND_UDEF_STEREO_COUNT>
0

> <PUBCHEM_ISOTOPIC_ATOM_COUNT>
0

> <PUBCHEM_COMPONENT_COUNT>
1

> <PUBCHEM_CACTVS_TAUTO_COUNT>
1

> <PUBCHEM_CONFORMER_ID>
00A63CEA00000007

> <PUBCHEM_MMFF94_ENERGY>
91.2404

> <PUBCHEM_FEATURE_SELFOVERLAP>
50.888

> <PUBCHEM_SHAPE_FINGERPRINT>
10 15 10015579493595015270
10670039 82 18059861675568141453
10763959 59 18412544284409149820
11456790 92 13254806707590569028
12011746 2 18333725798083147762
12236239 1 15554450660933765882
12838862 33 17967822626906790520
13533116 47 18341898536521575938
13668630 136 17167860842351450919
13690498 29 18263649464318161287
13782708 43 6916265134793588629
13914758 101 17703792543904127210
14251764 18 14476958956806580051
14849402 71 13901609806231997007
14931854 50 18334283289307319694
15082195 135 18341040866154805204
15131766 46 17485356778531336100
15183329 4 18334579075062202601
15188451 53 5473135233122958917
15604295 49 17987797394214114244
16728433 281 18270960266527093885
17913733 40 12751241432603385377
18222031 100 17385723603965395826
20028762 73 16732698363683106974
2026 5 16009852001160423670
21033648 29 18341340989488812968
21267235 1 17968363559776729986
21279426 13 18333734611192541347
21424621 283 17203612605453217553
21637258 2 14273458093399835137
21756936 100 16128655254654268553
21792961 116 18412256238185068035
21859007 373 18339377313240633200
22122407 14 16128359472376955453
221357 26 17822004311971988264
2215653 11 18113334202437834914
22224240 67 11815898942764189665
22393880 68 18261120630127978815
23522609 53 14563632311815835082
23559900 14 18187364281470239312
23569914 152 17249771422205472927
23576562 1 18266459797898188069
2838139 119 17132112438120176021
3004659 81 18260548900633144010
3009799 131 18335139782494030195
335352 9 18113612348651445358
3633792 109 17458339741151260704
3882209 13 17470734771792195423
4015057 19 17458346282761031707
4098825 35 17704077330211238150
4325135 7 16515678940135001991
484989 97 17969220049312350003
5104073 3 12103270552763290732
5283173 99 18336551598965014193
5969126 39 16877659093512583665
9953998 17 9439407930699362183

> <PUBCHEM_SHAPE_MULTIPOLES>
590.94
19.47
2.16
1.7
6.23
0.01
-0.37
-5.39
-11.12
1.79
0.21
0.28
-0.34
1.79

> <PUBCHEM_SHAPE_SELFOVERLAP>
1234.958

> <PUBCHEM_SHAPE_VOLUME>
335

> <PUBCHEM_COORDINATE_TYPE>
2
5
10

$$$$

