54731234
  -OEChem-07051213112D

 28 25  0     1  0  0  0  0  0999 V2000
    5.8128    6.1368    0.0000 P   0  0  0  0  0  0  0  0  0  0  0  0
    0.0000    4.6284    0.0000 Na  0  4  0  0  0  0  0  0  0  0  0  0
    4.3534    9.2568    0.0000 Na  0  4  0  0  0  0  0  0  0  0  0  0
    8.7068    4.6284    0.0000 Na  0  4  0  0  0  0  0  0  0  0  0  0
    5.4467    3.0980    0.0000 O   0  0  0  0  0  0  0  0  0  0  0  0
    2.8644    2.3935    0.0000 O   0  0  0  0  0  0  0  0  0  0  0  0
    4.9467    5.6368    0.0000 O   0  0  0  0  0  0  0  0  0  0  0  0
    3.1867    4.3581    0.0000 O   0  0  0  0  0  0  0  0  0  0  0  0
    3.6779    0.5664    0.0000 O   0  0  0  0  0  0  0  0  0  0  0  0
    6.7068    4.3581    0.0000 O   0  0  0  0  0  0  0  0  0  0  0  0
    6.6788    6.6368    0.0000 O   0  0  0  0  0  0  0  0  0  0  0  0
    5.3128    7.0028    0.0000 O   0  0  0  0  0  0  0  0  0  0  0  0
    6.3128    5.2708    0.0000 O   0  0  0  0  0  0  0  0  0  0  0  0
    4.4467    3.0980    0.0000 C   0  0  2  0  0  0  0  0  0  0  0  0
    3.8590    2.2890    0.0000 C   0  0  2  0  0  0  0  0  0  0  0  0
    4.1377    4.0490    0.0000 C   0  0  0  0  0  0  0  0  0  0  0  0
    4.9467    4.6368    0.0000 C   0  0  0  0  0  0  0  0  0  0  0  0
    4.2657    1.3754    0.0000 C   0  0  0  0  0  0  0  0  0  0  0  0
    5.7558    4.0490    0.0000 C   0  0  0  0  0  0  0  0  0  0  0  0
    4.8326    2.3406    0.0000 H   0  0  0  0  0  0  0  0  0  0  0  0
    3.6068    2.8554    0.0000 H   0  0  0  0  0  0  0  0  0  0  0  0
    4.6964    0.9294    0.0000 H   0  0  0  0  0  0  0  0  0  0  0  0
    4.7797    1.7221    0.0000 H   0  0  0  0  0  0  0  0  0  0  0  0
    2.5000    1.8919    0.0000 H   0  0  0  0  0  0  0  0  0  0  0  0
    3.0578    4.9645    0.0000 H   0  0  0  0  0  0  0  0  0  0  0  0
    3.9301    0.0000    0.0000 H   0  0  0  0  0  0  0  0  0  0  0  0
    4.6928    7.0028    0.0000 H   0  0  0  0  0  0  0  0  0  0  0  0
    6.6788    7.2568    0.0000 H   0  0  0  0  0  0  0  0  0  0  0  0
  1  7  1  0  0  0  0
  1 11  1  0  0  0  0
  1 12  1  0  0  0  0
  1 13  2  0  0  0  0
  5 14  1  0  0  0  0
  5 19  1  0  0  0  0
 15  6  1  6  0  0  0
  6 24  1  0  0  0  0
  7 17  1  0  0  0  0
  8 16  1  0  0  0  0
  8 25  1  0  0  0  0
  9 18  1  0  0  0  0
  9 26  1  0  0  0  0
 10 19  2  0  0  0  0
 11 28  1  0  0  0  0
 12 27  1  0  0  0  0
 14 15  1  0  0  0  0
 14 16  1  0  0  0  0
 14 20  1  1  0  0  0
 15 18  1  0  0  0  0
 15 21  1  0  0  0  0
 16 17  2  0  0  0  0
 17 19  1  0  0  0  0
 18 22  1  0  0  0  0
 18 23  1  0  0  0  0
M  RAD  3   2   2   3   2   4   2
M  END
> <PUBCHEM_COMPOUND_CID>
54731234

> <PUBCHEM_COMPOUND_CANONICALIZED>
1

> <PUBCHEM_CACTVS_COMPLEXITY>
368

> <PUBCHEM_CACTVS_HBOND_ACCEPTOR>
9

> <PUBCHEM_CACTVS_HBOND_DONOR>
5

> <PUBCHEM_CACTVS_ROTATABLE_BOND>
4

> <PUBCHEM_CACTVS_SUBSKEYS>
AAADccBgPDIAAAAAAAAAAAAAAAAAAQAAAAAAAAAAAAAAAAAAAAAAGgAACCAACBSggAIACAAABxCIQADQCIIAAAAgIAAACABAAEgBFAAAIAACUAAFwAALIQJAAAAAAAAAAAAAAAAAAAAAAAAAAAAAAAAAAA==

> <PUBCHEM_IUPAC_OPENEYE_NAME>
[(2R)-2-[(1S)-1,2-dihydroxyethyl]-3-hydroxy-5-oxo-2H-furan-4-yl] dihydrogen phosphate; sodium

> <PUBCHEM_IUPAC_CAS_NAME>
[(2R)-2-[(1S)-1,2-dihydroxyethyl]-3-hydroxy-5-oxo-2H-furan-4-yl] dihydrogen phosphate; sodium

> <PUBCHEM_IUPAC_NAME>
[(2R)-2-[(1S)-1,2-dihydroxyethyl]-3-hydroxy-5-oxo-2H-furan-4-yl] dihydrogen phosphate; sodium

> <PUBCHEM_IUPAC_SYSTEMATIC_NAME>
[(2R)-2-[(1S)-1,2-bis(oxidanyl)ethyl]-3-oxidanyl-5-oxidanylidene-2H-furan-4-yl] dihydrogen phosphate; sodium

> <PUBCHEM_IUPAC_TRADITIONAL_NAME>
[(2R)-2-[(1S)-1,2-dihydroxyethyl]-3-hydroxy-5-keto-2H-furan-4-yl] dihydrogen phosphate; sodium

> <PUBCHEM_IUPAC_INCHI>
InChI=1S/C6H9O9P.3Na/c7-1-2(8)4-3(9)5(6(10)14-4)15-16(11,12)13;;;/h2,4,7-9H,1H2,(H2,11,12,13);;;/t2-,4+;;;/m0.../s1

> <PUBCHEM_IUPAC_INCHIKEY>
ABTBLEGNFLLCMG-OFBPEYICSA-N

> <PUBCHEM_EXACT_MASS>
324.967726

> <PUBCHEM_MOLECULAR_FORMULA>
C6H9Na3O9P

> <PUBCHEM_MOLECULAR_WEIGHT>
325.07333

> <PUBCHEM_OPENEYE_CAN_SMILES>
C(C(C1C(=C(C(=O)O1)OP(=O)(O)O)O)O)O.[Na].[Na].[Na]

> <PUBCHEM_OPENEYE_ISO_SMILES>
C([C@@H]([C@@H]1C(=C(C(=O)O1)OP(=O)(O)O)O)O)O.[Na].[Na].[Na]

> <PUBCHEM_CACTVS_TPSA>
154

> <PUBCHEM_MONOISOTOPIC_WEIGHT>
324.967726

> <PUBCHEM_TOTAL_CHARGE>
0

> <PUBCHEM_HEAVY_ATOM_COUNT>
19

> <PUBCHEM_ATOM_DEF_STEREO_COUNT>
2

> <PUBCHEM_ATOM_UDEF_STEREO_COUNT>
0

> <PUBCHEM_BOND_DEF_STEREO_COUNT>
0

> <PUBCHEM_BOND_UDEF_STEREO_COUNT>
0

> <PUBCHEM_ISOTOPIC_ATOM_COUNT>
0

> <PUBCHEM_COMPONENT_COUNT>
4

> <PUBCHEM_CACTVS_TAUTO_COUNT>
6

> <PUBCHEM_COORDINATE_TYPE>
1
5
255

> <PUBCHEM_BONDANNOTATIONS>
14  20  5
15  6  6

$$$$

