7846966
  -OEChem-06241222483D

 46 48  0     1  0  0  0  0  0999 V2000
   -3.6166   -0.4034   -0.9609 S   0  0  0  0  0  0  0  0  0  0  0  0
    2.0207   -1.7213   -1.7508 S   0  0  0  0  0  0  0  0  0  0  0  0
   -4.8707   -0.0656   -1.6012 O   0  0  0  0  0  0  0  0  0  0  0  0
   -2.8902   -1.6168   -1.2724 O   0  0  0  0  0  0  0  0  0  0  0  0
    0.0598    0.8079    0.3500 O   0  0  0  0  0  0  0  0  0  0  0  0
    2.1961    2.2025    0.8202 O   0  0  0  0  0  0  0  0  0  0  0  0
    2.4971    2.4681   -1.4517 O   0  0  0  0  0  0  0  0  0  0  0  0
   -1.4558    2.5645    0.4602 N   0  0  0  0  0  0  0  0  0  0  0  0
    2.5618   -1.1787    0.7120 N   0  0  0  0  0  0  0  0  0  0  0  0
   -2.5920    1.7175    0.2273 C   0  0  1  0  0  0  0  0  0  0  0  0
   -2.5003    0.9843   -1.1103 C   0  0  0  0  0  0  0  0  0  0  0  0
   -2.7288    0.6300    1.2959 C   0  0  0  0  0  0  0  0  0  0  0  0
   -3.8336   -0.3007    0.8097 C   0  0  0  0  0  0  0  0  0  0  0  0
   -1.7543    3.9876    0.6543 C   0  0  0  0  0  0  0  0  0  0  0  0
   -0.1678    2.0118    0.5037 C   0  0  0  0  0  0  0  0  0  0  0  0
    0.9967    2.9445    0.7620 C   0  0  0  0  0  0  0  0  0  0  0  0
    4.1193    1.2230   -0.1348 C   0  0  0  0  0  0  0  0  0  0  0  0
    2.8633    2.0312   -0.3694 C   0  0  0  0  0  0  0  0  0  0  0  0
    4.1081   -0.0914   -0.9168 C   0  0  0  0  0  0  0  0  0  0  0  0
    2.9389   -0.9584   -0.5258 C   0  0  0  0  0  0  0  0  0  0  0  0
    1.0111   -2.4240   -0.5425 C   0  0  0  0  0  0  0  0  0  0  0  0
    1.4570   -2.0177    0.7188 C   0  0  0  0  0  0  0  0  0  0  0  0
   -0.0958   -3.2736   -0.6997 C   0  0  0  0  0  0  0  0  0  0  0  0
    0.7688   -2.4796    1.8617 C   0  0  0  0  0  0  0  0  0  0  0  0
   -0.7589   -3.7162    0.4476 C   0  0  0  0  0  0  0  0  0  0  0  0
   -0.3339   -3.3256    1.7127 C   0  0  0  0  0  0  0  0  0  0  0  0
   -3.5074    2.3252    0.2329 H   0  0  0  0  0  0  0  0  0  0  0  0
   -1.5169    0.5788   -1.3539 H   0  0  0  0  0  0  0  0  0  0  0  0
   -2.8279    1.6180   -1.9393 H   0  0  0  0  0  0  0  0  0  0  0  0
   -1.8190    0.0392    1.4329 H   0  0  0  0  0  0  0  0  0  0  0  0
   -2.9768    1.0559    2.2742 H   0  0  0  0  0  0  0  0  0  0  0  0
   -4.8213    0.1285    1.0019 H   0  0  0  0  0  0  0  0  0  0  0  0
   -3.7668   -1.2979    1.2494 H   0  0  0  0  0  0  0  0  0  0  0  0
   -2.2579    4.3618   -0.2421 H   0  0  0  0  0  0  0  0  0  0  0  0
   -0.8618    4.5877    0.8298 H   0  0  0  0  0  0  0  0  0  0  0  0
   -2.4189    4.0881    1.5178 H   0  0  0  0  0  0  0  0  0  0  0  0
    0.8591    3.4160    1.7402 H   0  0  0  0  0  0  0  0  0  0  0  0
    1.0377    3.7307    0.0007 H   0  0  0  0  0  0  0  0  0  0  0  0
    4.2366    1.0265    0.9380 H   0  0  0  0  0  0  0  0  0  0  0  0
    4.9736    1.8405   -0.4338 H   0  0  0  0  0  0  0  0  0  0  0  0
    4.0890    0.1281   -1.9914 H   0  0  0  0  0  0  0  0  0  0  0  0
    5.0346   -0.6414   -0.7149 H   0  0  0  0  0  0  0  0  0  0  0  0
   -0.4333   -3.5825   -1.6842 H   0  0  0  0  0  0  0  0  0  0  0  0
    1.0916   -2.1796    2.8547 H   0  0  0  0  0  0  0  0  0  0  0  0
   -1.6189   -4.3732    0.3481 H   0  0  0  0  0  0  0  0  0  0  0  0
   -0.8630   -3.6787    2.5936 H   0  0  0  0  0  0  0  0  0  0  0  0
  1  3  2  0  0  0  0
  1  4  2  0  0  0  0
  1 11  1  0  0  0  0
  1 13  1  0  0  0  0
  2 20  1  0  0  0  0
  2 21  1  0  0  0  0
  5 15  2  0  0  0  0
  6 16  1  0  0  0  0
  6 18  1  0  0  0  0
  7 18  2  0  0  0  0
  8 10  1  0  0  0  0
  8 14  1  0  0  0  0
  8 15  1  0  0  0  0
  9 20  2  0  0  0  0
  9 22  1  0  0  0  0
 10 11  1  0  0  0  0
 10 12  1  0  0  0  0
 10 27  1  0  0  0  0
 11 28  1  0  0  0  0
 11 29  1  0  0  0  0
 12 13  1  0  0  0  0
 12 30  1  0  0  0  0
 12 31  1  0  0  0  0
 13 32  1  0  0  0  0
 13 33  1  0  0  0  0
 14 34  1  0  0  0  0
 14 35  1  0  0  0  0
 14 36  1  0  0  0  0
 15 16  1  0  0  0  0
 16 37  1  0  0  0  0
 16 38  1  0  0  0  0
 17 18  1  0  0  0  0
 17 19  1  0  0  0  0
 17 39  1  0  0  0  0
 17 40  1  0  0  0  0
 19 20  1  0  0  0  0
 19 41  1  0  0  0  0
 19 42  1  0  0  0  0
 21 22  1  0  0  0  0
 21 23  2  0  0  0  0
 22 24  2  0  0  0  0
 23 25  1  0  0  0  0
 23 43  1  0  0  0  0
 24 26  1  0  0  0  0
 24 44  1  0  0  0  0
 25 26  2  0  0  0  0
 25 45  1  0  0  0  0
 26 46  1  0  0  0  0
M  END
> <PUBCHEM_COMPOUND_CID>
7846966

> <PUBCHEM_CONFORMER_RMSD>
1.2

> <PUBCHEM_CONFORMER_DIVERSEORDER>
1
151
53
43
121
202
133
114
60
150
211
20
251
135
222
88
7
152
252
201
25
242
63
204
164
90
16
116
29
226
130
180
188
32
243
194
104
217
102
105
184
124
3
149
138
141
59
234
235
129
228
41
89
27
120
67
23
191
253
109
137
196
193
208
71
214
113
22
192
146
147
172
187
225
185
85
55
14
155
13
15
72
161
42
154
162
115
223
210
128
160
46
246
168
100
143
30
125
166
134
18
195
76
117
206
74
2
256
265
49
26
169
268
126
240
238
156
266
95
58
171
159
61
212
11
144
165
62
250
213
190
33
261
218
189
178
145
170
209
9
4
148
259
70
241
207
224
101
182
153
239
186
51
81
38
84
12
183
86
106
142
80
205
99
57
112
45
176
237
64
82
249
123
220
92
5
10
174
21
127
107
139
83
263
54
255
24
219
36
48
77
68
93
175
230
231
260
44
75
173
87
163
197
136
140
52
40
244
79
199
157
34
254
103
216
119
232
78
258
31
65
96
122
267
221
39
247
66
69
177
245
229
56
248
91
17
264
158
262
200
37
19
111
28
203
236
181
110
35
73
198
94
47
118
257
167
108
6
8
233
50
98
97
215
132
227
131
179

> <PUBCHEM_MMFF94_PARTIAL_CHARGES>
29
1 1.09
10 0.3
11 0.11
13 0.11
14 0.3
15 0.57
16 0.34
17 0.06
18 0.66
19 0.18
2 -0.08
20 0.2
21 0.04
22 0.23
23 -0.15
24 -0.15
25 -0.15
26 -0.15
3 -0.65
4 -0.65
43 0.15
44 0.15
45 0.15
46 0.15
5 -0.57
6 -0.43
7 -0.57
8 -0.66
9 -0.57

> <PUBCHEM_EFFECTIVE_ROTOR_COUNT>
8.8

> <PUBCHEM_PHARMACOPHORE_FEATURES>
8
1 3 acceptor
1 4 acceptor
1 5 acceptor
1 7 acceptor
1 9 acceptor
5 1 10 11 12 13 rings
5 2 9 20 21 22 rings
6 21 22 23 24 25 26 rings

> <PUBCHEM_HEAVY_ATOM_COUNT>
26

> <PUBCHEM_ATOM_DEF_STEREO_COUNT>
1

> <PUBCHEM_ATOM_UDEF_STEREO_COUNT>
0

> <PUBCHEM_BOND_DEF_STEREO_COUNT>
0

> <PUBCHEM_BOND_UDEF_STEREO_COUNT>
0

> <PUBCHEM_ISOTOPIC_ATOM_COUNT>
0

> <PUBCHEM_COMPONENT_COUNT>
1

> <PUBCHEM_CACTVS_TAUTO_COUNT>
2

> <PUBCHEM_CONFORMER_ID>
0077BC3600000001

> <PUBCHEM_MMFF94_ENERGY>
47.7758

> <PUBCHEM_FEATURE_SELFOVERLAP>
40.683

> <PUBCHEM_SHAPE_FINGERPRINT>
10119406 146 18195506286515348510
108634 29 18337379458158637406
12156800 1 15150872529751182938
12422481 6 17620164574401966091
12553582 1 18263648518918089673
12596599 1 17677317454504887799
13122387 1 18337667641151454174
13140716 1 18122623856206816384
13402501 40 18124865777395501171
14178342 30 18048612704604799104
14363568 33 15821827372898219017
14931854 50 18410016511313020684
17492 54 18411982433887793278
17980427 23 17696491936824956602
19026451 147 18263950845903539543
19319366 153 16615000282304603786
20764821 26 18123456190366127394
21421861 104 18194676201663067169
238 59 18413392042164708129
35225 105 17761776161114586293
392239 28 18269822169260517139
437795 51 18341331077580357231
463206 1 18263933150753876285

> <PUBCHEM_SHAPE_MULTIPOLES>
503.46
6.83
5.13
1.59
2.12
0.09
-0.06
-1.95
-2.49
-0.46
1.4
0.33
0.84
-0.67

> <PUBCHEM_SHAPE_SELFOVERLAP>
1040.332

> <PUBCHEM_SHAPE_VOLUME>
289.5

> <PUBCHEM_COORDINATE_TYPE>
2
5
10

$$$$

