442472
  -OEChem-07051212583D

 45 48  0     1  0  0  0  0  0999 V2000
   -2.9558    1.7921   -1.0919 O   0  0  0  0  0  0  0  0  0  0  0  0
    0.8157    0.2080   -0.5009 N   0  0  1  0  0  0  0  0  0  0  0  0
   -1.6140    0.1129   -0.1970 N   0  0  0  0  0  0  0  0  0  0  0  0
    0.9997   -0.9357    0.4073 C   0  0  1  0  0  0  0  0  0  0  0  0
   -0.4155    0.9774   -0.2280 C   0  0  1  0  0  0  0  0  0  0  0  0
    1.9885    1.1058   -0.5602 C   0  0  2  0  0  0  0  0  0  0  0  0
   -1.5233   -1.1221    0.5991 C   0  0  2  0  0  0  0  0  0  0  0  0
   -0.2181   -1.8622    0.2974 C   0  0  0  0  0  0  0  0  0  0  0  0
    2.2646   -1.7379    0.0531 C   0  0  0  0  0  0  0  0  0  0  0  0
    3.2752    0.3340   -0.8969 C   0  0  0  0  0  0  0  0  0  0  0  0
    3.5124   -0.8532    0.0394 C   0  0  2  0  0  0  0  0  0  0  0  0
   -0.3299    1.8502    1.0401 C   0  0  0  0  0  0  0  0  0  0  0  0
    2.1542    1.9686    0.7059 C   0  0  0  0  0  0  0  0  0  0  0  0
    0.8877    2.7654    0.9986 C   0  0  0  0  0  0  0  0  0  0  0  0
   -2.7056   -2.0696    0.3988 C   0  0  0  0  0  0  0  0  0  0  0  0
   -2.8329    0.6582   -0.6193 C   0  0  0  0  0  0  0  0  0  0  0  0
   -3.9996   -1.2923    0.5208 C   0  0  0  0  0  0  0  0  0  0  0  0
    4.7423   -1.6498   -0.3908 C   0  0  0  0  0  0  0  0  0  0  0  0
   -4.0455   -0.2497   -0.5756 C   0  0  0  0  0  0  0  0  0  0  0  0
    1.0897   -0.5970    1.4472 H   0  0  0  0  0  0  0  0  0  0  0  0
   -0.5517    1.6587   -1.0787 H   0  0  0  0  0  0  0  0  0  0  0  0
    1.8269    1.7967   -1.4002 H   0  0  0  0  0  0  0  0  0  0  0  0
   -1.5180   -0.8021    1.6496 H   0  0  0  0  0  0  0  0  0  0  0  0
   -0.1061   -2.7072    0.9884 H   0  0  0  0  0  0  0  0  0  0  0  0
   -0.2635   -2.2858   -0.7159 H   0  0  0  0  0  0  0  0  0  0  0  0
    2.1417   -2.2142   -0.9295 H   0  0  0  0  0  0  0  0  0  0  0  0
    2.3988   -2.5498    0.7793 H   0  0  0  0  0  0  0  0  0  0  0  0
    4.1371    1.0122   -0.8671 H   0  0  0  0  0  0  0  0  0  0  0  0
    3.2046   -0.0295   -1.9315 H   0  0  0  0  0  0  0  0  0  0  0  0
    3.6947   -0.4829    1.0556 H   0  0  0  0  0  0  0  0  0  0  0  0
   -0.2838    1.2259    1.9405 H   0  0  0  0  0  0  0  0  0  0  0  0
   -1.2357    2.4604    1.1401 H   0  0  0  0  0  0  0  0  0  0  0  0
    2.9914    2.6646    0.5745 H   0  0  0  0  0  0  0  0  0  0  0  0
    2.3963    1.3498    1.5774 H   0  0  0  0  0  0  0  0  0  0  0  0
    0.9903    3.2973    1.9509 H   0  0  0  0  0  0  0  0  0  0  0  0
    0.7465    3.5259    0.2207 H   0  0  0  0  0  0  0  0  0  0  0  0
   -2.6767   -2.8705    1.1468 H   0  0  0  0  0  0  0  0  0  0  0  0
   -2.6569   -2.5478   -0.5879 H   0  0  0  0  0  0  0  0  0  0  0  0
   -4.0627   -0.8137    1.5054 H   0  0  0  0  0  0  0  0  0  0  0  0
   -4.8567   -1.9683    0.4290 H   0  0  0  0  0  0  0  0  0  0  0  0
    4.6240   -2.0540   -1.4019 H   0  0  0  0  0  0  0  0  0  0  0  0
    5.6361   -1.0173   -0.3816 H   0  0  0  0  0  0  0  0  0  0  0  0
    4.9179   -2.4891    0.2903 H   0  0  0  0  0  0  0  0  0  0  0  0
   -4.9363    0.3744   -0.4407 H   0  0  0  0  0  0  0  0  0  0  0  0
   -4.1256   -0.7330   -1.5566 H   0  0  0  0  0  0  0  0  0  0  0  0
  1 16  2  0  0  0  0
  2  4  1  0  0  0  0
  2  5  1  0  0  0  0
  2  6  1  0  0  0  0
  3  5  1  0  0  0  0
  3  7  1  0  0  0  0
  3 16  1  0  0  0  0
  4  8  1  0  0  0  0
  4  9  1  0  0  0  0
  4 20  1  0  0  0  0
  5 12  1  0  0  0  0
  5 21  1  0  0  0  0
  6 10  1  0  0  0  0
  6 13  1  0  0  0  0
  6 22  1  0  0  0  0
  7  8  1  0  0  0  0
  7 15  1  0  0  0  0
  7 23  1  0  0  0  0
  8 24  1  0  0  0  0
  8 25  1  0  0  0  0
  9 11  1  0  0  0  0
  9 26  1  0  0  0  0
  9 27  1  0  0  0  0
 10 11  1  0  0  0  0
 10 28  1  0  0  0  0
 10 29  1  0  0  0  0
 11 18  1  0  0  0  0
 11 30  1  0  0  0  0
 12 14  1  0  0  0  0
 12 31  1  0  0  0  0
 12 32  1  0  0  0  0
 13 14  1  0  0  0  0
 13 33  1  0  0  0  0
 13 34  1  0  0  0  0
 14 35  1  0  0  0  0
 14 36  1  0  0  0  0
 15 17  1  0  0  0  0
 15 37  1  0  0  0  0
 15 38  1  0  0  0  0
 16 19  1  0  0  0  0
 17 19  1  0  0  0  0
 17 39  1  0  0  0  0
 17 40  1  0  0  0  0
 18 41  1  0  0  0  0
 18 42  1  0  0  0  0
 18 43  1  0  0  0  0
 19 44  1  0  0  0  0
 19 45  1  0  0  0  0
M  END
> <PUBCHEM_COMPOUND_CID>
442472

> <PUBCHEM_CONFORMER_RMSD>
0.6

> <PUBCHEM_CONFORMER_DIVERSEORDER>
1

> <PUBCHEM_MMFF94_PARTIAL_CHARGES>
9
1 -0.57
16 0.57
19 0.06
2 -0.81
3 -0.66
4 0.27
5 0.57
6 0.27
7 0.3

> <PUBCHEM_EFFECTIVE_ROTOR_COUNT>
2

> <PUBCHEM_PHARMACOPHORE_FEATURES>
6
1 1 acceptor
1 2 cation
6 2 3 4 5 7 8 rings
6 2 4 6 9 10 11 rings
6 2 5 6 12 13 14 rings
6 3 7 15 16 17 19 rings

> <PUBCHEM_HEAVY_ATOM_COUNT>
19

> <PUBCHEM_ATOM_DEF_STEREO_COUNT>
5

> <PUBCHEM_ATOM_UDEF_STEREO_COUNT>
0

> <PUBCHEM_BOND_DEF_STEREO_COUNT>
0

> <PUBCHEM_BOND_UDEF_STEREO_COUNT>
0

> <PUBCHEM_ISOTOPIC_ATOM_COUNT>
0

> <PUBCHEM_COMPONENT_COUNT>
1

> <PUBCHEM_CACTVS_TAUTO_COUNT>
1

> <PUBCHEM_CONFORMER_ID>
0006C06800000001

> <PUBCHEM_MMFF94_ENERGY>
25.5464

> <PUBCHEM_FEATURE_SELFOVERLAP>
30.612

> <PUBCHEM_SHAPE_FINGERPRINT>
10062212 137 18340495559446851059
10608611 8 18341336591484389229
108231 29 18408322185606804498
10967382 1 18266177223325238370
1100329 8 17112977924576080834
11680986 33 18337957770513568712
12403259 226 18339364059113254759
12506688 2 18409726266213570210
12507560 14 18040991821708200334
12707595 3 18187640289122419364
13027679 85 18409447011724584025
13134695 92 18041284287749087396
13140716 1 18409727382678240265
14115302 16 18272644675490133540
14223421 5 18123471583555355139
14790565 3 17616810371867498745
14866123 147 17326607506526044418
15196674 1 18341891883279123662
15219456 202 18338521820205490505
15536298 74 18409450245850710698
16945 1 18269271433808560464
17802600 8 18413110537207914559
17804303 29 18413668006883215087
17834072 14 18335994124851912432
18186145 218 18343027713398261589
19049666 15 18410580543846444441
19591789 44 18340202990696436355
200 152 18334295387539349334
20645477 70 18114186289642409949
20671657 53 18260823808773761456
21029758 11 18335422387194910746
21041028 32 18113611292337742081
21267235 1 18342164587896088795
221357 26 18410578392352438551
221490 88 18340762633435057122
22182313 1 18198639747870675805
22802520 49 18341054017085786485
23175994 123 18260826029071308910
2334 1 18339924813995555003
23402539 116 18114749355528435798
23419403 2 18191615058344167580
23493267 7 17131832079676511433
23557571 272 17823976947474981134
23559900 14 18340773658726895308
2748010 2 18339930303027049729
3286 77 18335701598744903525
3323516 105 18339642239744548003
335352 9 18339642347234833671
350125 39 18342172315349038037
5104073 3 18341892991359457864
53812653 166 18265616472495461913
5493415 88 18409449180725058712
6049 1 18341055112350036641
633830 44 13470407828686666950
6438718 38 17314785420102134313
7364860 26 18263083223664559442
81228 2 17825657026722220832
8809292 202 18343299258326233291
9709674 26 18270118981254101019

> <PUBCHEM_SHAPE_MULTIPOLES>
375.18
7.19
2.69
0.97
0.19
0.83
0
-3.32
1.41
-0.64
-0.69
0.12
0.34
0.86

> <PUBCHEM_SHAPE_SELFOVERLAP>
791.853

> <PUBCHEM_SHAPE_VOLUME>
207.8

> <PUBCHEM_COORDINATE_TYPE>
2
5
10

$$$$

