73146
  -OEChem-07051212563D

108113  0     1  0  0  0  0  0999 V2000
   -4.4929   -0.5382    0.4782 O   0  0  0  0  0  0  0  0  0  0  0  0
    7.8693   -2.2475   -0.3889 O   0  0  0  0  0  0  0  0  0  0  0  0
    6.6390   -1.6913    1.4476 O   0  0  0  0  0  0  0  0  0  0  0  0
   -4.9459    1.7325    0.2306 O   0  0  0  0  0  0  0  0  0  0  0  0
   -8.9853    1.0396    0.0211 O   0  0  0  0  0  0  0  0  0  0  0  0
   -7.9274    3.5652   -0.8779 O   0  0  0  0  0  0  0  0  0  0  0  0
   -3.7361    4.1394   -0.2960 O   0  0  0  0  0  0  0  0  0  0  0  0
   -6.5760   -2.4580    1.3846 O   0  0  0  0  0  0  0  0  0  0  0  0
   -7.1313   -1.1686   -0.4720 N   0  0  0  0  0  0  0  0  0  0  0  0
    2.1899   -1.3561   -0.2939 C   0  0  2  0  0  0  0  0  0  0  0  0
    1.2945   -0.4166    0.6030 C   0  0  1  0  0  0  0  0  0  0  0  0
   -0.1900   -0.9087    0.9247 C   0  0  2  0  0  0  0  0  0  0  0  0
    3.5054   -0.5116   -0.7842 C   0  0  1  0  0  0  0  0  0  0  0  0
   -0.8605   -1.2932   -0.4457 C   0  0  2  0  0  0  0  0  0  0  0  0
    1.3612   -1.8583   -1.5090 C   0  0  0  0  0  0  0  0  0  0  0  0
   -2.4157   -1.5417   -0.4172 C   0  0  0  0  0  0  0  0  0  0  0  0
   -0.0361   -2.3805   -1.1657 C   0  0  0  0  0  0  0  0  0  0  0  0
    4.1796    0.1909    0.4058 C   0  0  0  0  0  0  0  0  0  0  0  0
    2.0829    0.0834    1.8318 C   0  0  0  0  0  0  0  0  0  0  0  0
   -0.9849    0.2885    1.5289 C   0  0  0  0  0  0  0  0  0  0  0  0
    5.6450    0.6299    0.3268 C   0  0  1  0  0  0  0  0  0  0  0  0
    4.5261   -1.4546   -1.4859 C   0  0  0  0  0  0  0  0  0  0  0  0
    6.5717   -0.2771   -0.5311 C   0  0  1  0  0  0  0  0  0  0  0  0
    2.6453   -2.6141    0.5047 C   0  0  0  0  0  0  0  0  0  0  0  0
   -3.0996   -0.3157    0.2613 C   0  0  2  0  0  0  0  0  0  0  0  0
    5.8744   -0.8043   -1.7977 C   0  0  0  0  0  0  0  0  0  0  0  0
   -0.2271   -2.0592    1.9624 C   0  0  0  0  0  0  0  0  0  0  0  0
   -2.4924    0.0633    1.6080 C   0  0  0  0  0  0  0  0  0  0  0  0
    3.5117    0.4317    1.5515 C   0  0  0  0  0  0  0  0  0  0  0  0
    3.1184    0.5970   -1.8079 C   0  0  0  0  0  0  0  0  0  0  0  0
    5.7985    2.1088   -0.0860 C   0  0  0  0  0  0  0  0  0  0  0  0
    7.8742    0.4577   -0.9511 C   0  0  0  0  0  0  0  0  0  0  0  0
    7.2287    2.6458    0.1955 C   0  0  0  0  0  0  0  0  0  0  0  0
   -2.9511   -1.6266   -1.8751 C   0  0  0  0  0  0  0  0  0  0  0  0
   -2.8264   -2.8636    0.2613 C   0  0  0  0  0  0  0  0  0  0  0  0
    8.2887    1.5237    0.0636 C   0  0  0  0  0  0  0  0  0  0  0  0
    7.0073   -1.4645    0.3046 C   0  0  0  0  0  0  0  0  0  0  0  0
    7.3014    3.2334    1.6180 C   0  0  0  0  0  0  0  0  0  0  0  0
    7.5357    3.7798   -0.8019 C   0  0  0  0  0  0  0  0  0  0  0  0
   -5.2865    0.4219   -0.2185 C   0  0  2  0  0  0  0  0  0  0  0  0
   -6.7622    0.1235    0.0681 C   0  0  1  0  0  0  0  0  0  0  0  0
   -7.6690    1.2160   -0.5067 C   0  0  2  0  0  0  0  0  0  0  0  0
   -5.6782    2.7560   -0.4457 C   0  0  1  0  0  0  0  0  0  0  0  0
   -7.1703    2.6140   -0.1343 C   0  0  1  0  0  0  0  0  0  0  0  0
   -5.1160    4.0957    0.0190 C   0  0  0  0  0  0  0  0  0  0  0  0
   -7.0042   -2.3484    0.2386 C   0  0  0  0  0  0  0  0  0  0  0  0
   -7.4834   -3.5394   -0.5472 C   0  0  0  0  0  0  0  0  0  0  0  0
    1.1273    0.4843   -0.0023 H   0  0  0  0  0  0  0  0  0  0  0  0
   -0.7550   -0.3937   -1.0762 H   0  0  0  0  0  0  0  0  0  0  0  0
    1.9079   -2.6425   -2.0466 H   0  0  0  0  0  0  0  0  0  0  0  0
    1.2088   -1.0500   -2.2300 H   0  0  0  0  0  0  0  0  0  0  0  0
    0.0323   -3.3019   -0.5819 H   0  0  0  0  0  0  0  0  0  0  0  0
   -0.5069   -2.6617   -2.1121 H   0  0  0  0  0  0  0  0  0  0  0  0
    1.5978    0.9801    2.2340 H   0  0  0  0  0  0  0  0  0  0  0  0
    2.0924   -0.6557    2.6366 H   0  0  0  0  0  0  0  0  0  0  0  0
   -0.6188    0.5180    2.5370 H   0  0  0  0  0  0  0  0  0  0  0  0
   -0.8105    1.1889    0.9249 H   0  0  0  0  0  0  0  0  0  0  0  0
    6.0189    0.5935    1.3614 H   0  0  0  0  0  0  0  0  0  0  0  0
    4.1006   -1.8337   -2.4231 H   0  0  0  0  0  0  0  0  0  0  0  0
    4.7400   -2.3341   -0.8728 H   0  0  0  0  0  0  0  0  0  0  0  0
    3.1071   -3.3606   -0.1504 H   0  0  0  0  0  0  0  0  0  0  0  0
    1.8211   -3.1409    0.9781 H   0  0  0  0  0  0  0  0  0  0  0  0
    3.3673   -2.3751    1.2909 H   0  0  0  0  0  0  0  0  0  0  0  0
   -2.9399    0.5430   -0.4084 H   0  0  0  0  0  0  0  0  0  0  0  0
    5.7297    0.0093   -2.5178 H   0  0  0  0  0  0  0  0  0  0  0  0
    6.5011   -1.5402   -2.3177 H   0  0  0  0  0  0  0  0  0  0  0  0
   -1.1413   -2.0581    2.5599 H   0  0  0  0  0  0  0  0  0  0  0  0
    0.5775   -1.9930    2.6966 H   0  0  0  0  0  0  0  0  0  0  0  0
   -0.1723   -3.0493    1.5075 H   0  0  0  0  0  0  0  0  0  0  0  0
   -2.9667    0.9836    1.9729 H   0  0  0  0  0  0  0  0  0  0  0  0
   -2.7459   -0.6879    2.3637 H   0  0  0  0  0  0  0  0  0  0  0  0
    4.0296    0.9224    2.3734 H   0  0  0  0  0  0  0  0  0  0  0  0
    2.7736    0.1733   -2.7562 H   0  0  0  0  0  0  0  0  0  0  0  0
    2.3424    1.2697   -1.4347 H   0  0  0  0  0  0  0  0  0  0  0  0
    3.9623    1.2367   -2.0730 H   0  0  0  0  0  0  0  0  0  0  0  0
    5.0573    2.7364    0.4256 H   0  0  0  0  0  0  0  0  0  0  0  0
    5.5846    2.2079   -1.1560 H   0  0  0  0  0  0  0  0  0  0  0  0
    7.7270    0.9545   -1.9193 H   0  0  0  0  0  0  0  0  0  0  0  0
    8.7205   -0.2206   -1.1058 H   0  0  0  0  0  0  0  0  0  0  0  0
   -2.5881   -2.5181   -2.3954 H   0  0  0  0  0  0  0  0  0  0  0  0
   -2.6568   -0.7481   -2.4598 H   0  0  0  0  0  0  0  0  0  0  0  0
   -4.0448   -1.6880   -1.8964 H   0  0  0  0  0  0  0  0  0  0  0  0
   -2.7036   -2.8414    1.3443 H   0  0  0  0  0  0  0  0  0  0  0  0
   -2.2549   -3.7114   -0.1291 H   0  0  0  0  0  0  0  0  0  0  0  0
   -3.8845   -3.0872    0.0798 H   0  0  0  0  0  0  0  0  0  0  0  0
    9.2582    1.9478   -0.2260 H   0  0  0  0  0  0  0  0  0  0  0  0
    8.4540    1.0338    1.0322 H   0  0  0  0  0  0  0  0  0  0  0  0
    6.5981    4.0649    1.7404 H   0  0  0  0  0  0  0  0  0  0  0  0
    7.0587    2.4809    2.3761 H   0  0  0  0  0  0  0  0  0  0  0  0
    8.3060    3.6132    1.8361 H   0  0  0  0  0  0  0  0  0  0  0  0
    6.7891    4.5791   -0.7317 H   0  0  0  0  0  0  0  0  0  0  0  0
    8.5180    4.2249   -0.6072 H   0  0  0  0  0  0  0  0  0  0  0  0
    7.5367    3.4146   -1.8346 H   0  0  0  0  0  0  0  0  0  0  0  0
   -5.0843    0.3400   -1.2948 H   0  0  0  0  0  0  0  0  0  0  0  0
    8.1637   -3.0221    0.1359 H   0  0  0  0  0  0  0  0  0  0  0  0
   -6.9073    0.0730    1.1561 H   0  0  0  0  0  0  0  0  0  0  0  0
   -7.7528    1.1214   -1.5964 H   0  0  0  0  0  0  0  0  0  0  0  0
   -5.4906    2.6655   -1.5243 H   0  0  0  0  0  0  0  0  0  0  0  0
   -7.3603    2.8022    0.9293 H   0  0  0  0  0  0  0  0  0  0  0  0
   -7.4453   -1.2102   -1.4376 H   0  0  0  0  0  0  0  0  0  0  0  0
   -5.6176    4.9328   -0.4758 H   0  0  0  0  0  0  0  0  0  0  0  0
   -5.2143    4.2045    1.1043 H   0  0  0  0  0  0  0  0  0  0  0  0
   -8.9368    1.1255    0.9884 H   0  0  0  0  0  0  0  0  0  0  0  0
   -7.7308    3.4346   -1.8212 H   0  0  0  0  0  0  0  0  0  0  0  0
   -3.3984    4.9975    0.0124 H   0  0  0  0  0  0  0  0  0  0  0  0
   -8.5548   -3.4449   -0.7439 H   0  0  0  0  0  0  0  0  0  0  0  0
   -7.3037   -4.4548    0.0233 H   0  0  0  0  0  0  0  0  0  0  0  0
   -6.9416   -3.6030   -1.4952 H   0  0  0  0  0  0  0  0  0  0  0  0
  1 25  1  0  0  0  0
  1 40  1  0  0  0  0
  2 37  1  0  0  0  0
  2 95  1  0  0  0  0
  3 37  2  0  0  0  0
  4 40  1  0  0  0  0
  4 43  1  0  0  0  0
  5 42  1  0  0  0  0
  5103  1  0  0  0  0
  6 44  1  0  0  0  0
  6104  1  0  0  0  0
  7 45  1  0  0  0  0
  7105  1  0  0  0  0
  8 46  2  0  0  0  0
  9 41  1  0  0  0  0
  9 46  1  0  0  0  0
  9100  1  0  0  0  0
 10 11  1  0  0  0  0
 10 13  1  0  0  0  0
 10 15  1  0  0  0  0
 10 24  1  0  0  0  0
 11 12  1  0  0  0  0
 11 19  1  0  0  0  0
 11 48  1  0  0  0  0
 12 14  1  0  0  0  0
 12 20  1  0  0  0  0
 12 27  1  0  0  0  0
 13 18  1  0  0  0  0
 13 22  1  0  0  0  0
 13 30  1  0  0  0  0
 14 16  1  0  0  0  0
 14 17  1  0  0  0  0
 14 49  1  0  0  0  0
 15 17  1  0  0  0  0
 15 50  1  0  0  0  0
 15 51  1  0  0  0  0
 16 25  1  0  0  0  0
 16 34  1  0  0  0  0
 16 35  1  0  0  0  0
 17 52  1  0  0  0  0
 17 53  1  0  0  0  0
 18 21  1  0  0  0  0
 18 29  2  0  0  0  0
 19 29  1  0  0  0  0
 19 54  1  0  0  0  0
 19 55  1  0  0  0  0
 20 28  1  0  0  0  0
 20 56  1  0  0  0  0
 20 57  1  0  0  0  0
 21 23  1  0  0  0  0
 21 31  1  0  0  0  0
 21 58  1  0  0  0  0
 22 26  1  0  0  0  0
 22 59  1  0  0  0  0
 22 60  1  0  0  0  0
 23 26  1  0  0  0  0
 23 32  1  0  0  0  0
 23 37  1  0  0  0  0
 24 61  1  0  0  0  0
 24 62  1  0  0  0  0
 24 63  1  0  0  0  0
 25 28  1  0  0  0  0
 25 64  1  0  0  0  0
 26 65  1  0  0  0  0
 26 66  1  0  0  0  0
 27 67  1  0  0  0  0
 27 68  1  0  0  0  0
 27 69  1  0  0  0  0
 28 70  1  0  0  0  0
 28 71  1  0  0  0  0
 29 72  1  0  0  0  0
 30 73  1  0  0  0  0
 30 74  1  0  0  0  0
 30 75  1  0  0  0  0
 31 33  1  0  0  0  0
 31 76  1  0  0  0  0
 31 77  1  0  0  0  0
 32 36  1  0  0  0  0
 32 78  1  0  0  0  0
 32 79  1  0  0  0  0
 33 36  1  0  0  0  0
 33 38  1  0  0  0  0
 33 39  1  0  0  0  0
 34 80  1  0  0  0  0
 34 81  1  0  0  0  0
 34 82  1  0  0  0  0
 35 83  1  0  0  0  0
 35 84  1  0  0  0  0
 35 85  1  0  0  0  0
 36 86  1  0  0  0  0
 36 87  1  0  0  0  0
 38 88  1  0  0  0  0
 38 89  1  0  0  0  0
 38 90  1  0  0  0  0
 39 91  1  0  0  0  0
 39 92  1  0  0  0  0
 39 93  1  0  0  0  0
 40 41  1  0  0  0  0
 40 94  1  0  0  0  0
 41 42  1  0  0  0  0
 41 96  1  0  0  0  0
 42 44  1  0  0  0  0
 42 97  1  0  0  0  0
 43 44  1  0  0  0  0
 43 45  1  0  0  0  0
 43 98  1  0  0  0  0
 44 99  1  0  0  0  0
 45101  1  0  0  0  0
 45102  1  0  0  0  0
 46 47  1  0  0  0  0
 47106  1  0  0  0  0
 47107  1  0  0  0  0
 47108  1  0  0  0  0
M  END
> <PUBCHEM_COMPOUND_CID>
73146

> <PUBCHEM_CONFORMER_RMSD>
1.2

> <PUBCHEM_CONFORMER_DIVERSEORDER>
2
11
5
8
4
3
1
7
6
9
10

> <PUBCHEM_MMFF94_PARTIAL_CHARGES>
31
1 -0.56
100 0.37
103 0.4
104 0.4
105 0.4
13 0.14
18 -0.28
19 0.14
2 -0.65
21 0.14
23 0.06
25 0.28
29 -0.29
3 -0.57
37 0.66
4 -0.56
40 0.56
41 0.3
42 0.28
43 0.28
44 0.28
45 0.28
46 0.57
47 0.06
5 -0.68
6 -0.68
7 -0.68
72 0.15
8 -0.57
9 -0.73
95 0.5

> <PUBCHEM_EFFECTIVE_ROTOR_COUNT>
9.8

> <PUBCHEM_PHARMACOPHORE_FEATURES>
21
1 1 acceptor
1 2 acceptor
1 3 acceptor
1 4 acceptor
1 5 acceptor
1 5 donor
1 6 acceptor
1 6 donor
1 7 acceptor
1 7 donor
1 8 acceptor
1 9 donor
3 16 34 35 hydrophobe
3 2 3 37 anion
3 33 38 39 hydrophobe
6 10 11 12 14 15 17 rings
6 10 11 13 18 19 29 rings
6 12 14 16 20 25 28 rings
6 13 18 21 22 23 26 rings
6 21 23 31 32 33 36 rings
6 4 40 41 42 43 44 rings

> <PUBCHEM_HEAVY_ATOM_COUNT>
47

> <PUBCHEM_ATOM_DEF_STEREO_COUNT>
13

> <PUBCHEM_ATOM_UDEF_STEREO_COUNT>
0

> <PUBCHEM_BOND_DEF_STEREO_COUNT>
0

> <PUBCHEM_BOND_UDEF_STEREO_COUNT>
0

> <PUBCHEM_ISOTOPIC_ATOM_COUNT>
0

> <PUBCHEM_COMPONENT_COUNT>
1

> <PUBCHEM_CACTVS_TAUTO_COUNT>
2

> <PUBCHEM_CONFORMER_ID>
00011DBA00000002

> <PUBCHEM_MMFF94_ENERGY>
186.4336

> <PUBCHEM_FEATURE_SELFOVERLAP>
106.741

> <PUBCHEM_SHAPE_FINGERPRINT>
10076449 9 17168138980598157707
10190206 1 17822283626037174904
10533779 47 12247404544079621009
10625338 131 18336270149130574424
11007060 377 18342450431439914323
12082328 90 18411421696349042055
12522641 24 17917153922542707378
12664476 115 18113617877255595811
13811026 1 18341892952957881168
13911987 19 17240485849489164311
14512766 119 18342461486823260749
14856354 85 18340486665582866303
150020 25 18260545632147421821
15082195 135 17967530220905976360
15131766 46 18121503454359844244
15183329 4 16805038519086892290
15289351 153 18412833503691384466
15347591 1 18338517551367447851
15510800 12 6988024795809601837
1577012 14 18131637802717957947
15840311 113 18412824682076400662
16758388 162 18341338902904762562
16989713 51 17750526083691000263
16994733 274 18272091595398120545
17686467 74 18201719514811316143
18608769 82 18334857204359843711
19304144 158 18334856134696540855
19611394 137 18127682743840480059
21033648 29 17489587836370566170
21424621 283 18272369784698411010
21814621 53 18201710752846405242
22149856 69 14620524475326297726
23191077 185 18411991264261666730
24771293 8 18131633357263568709
3418910 222 18271231726330568749
3918712 181 18340774857371521669
4073 2 18343581854959756851
4098825 35 18410294726520575890
44280117 145 18042123177473982855
44802255 64 18186800267040746655
44880568 143 18335411404726736197
4616759 239 17489301937751419739
4625314 4 18338233868302130927
5265222 85 18261394408365260591
5776283 40 18261396602919391433
5937810 71 18187640358459984457
9831232 110 18115579478935573182

> <PUBCHEM_SHAPE_MULTIPOLES>
915.3
28.78
4.4
1.56
6.83
3.64
-0.16
14.93
3.16
4.4
0.46
-1.26
-0.41
1.44

> <PUBCHEM_SHAPE_SELFOVERLAP>
1934.363

> <PUBCHEM_SHAPE_VOLUME>
505.3

> <PUBCHEM_COORDINATE_TYPE>
2
5
10

$$$$

