5280598
  -OEChem-07051212482D

 40 39  0     0  0  0  0  0  0999 V2000
    2.0000   -0.4400    0.0000 O   0  0  0  0  0  0  0  0  0  0  0  0
    8.9282   -0.4400    0.0000 C   0  0  0  0  0  0  0  0  0  0  0  0
    8.0622    0.0600    0.0000 C   0  0  0  0  0  0  0  0  0  0  0  0
    6.3301    0.0600    0.0000 C   0  0  0  0  0  0  0  0  0  0  0  0
    9.7942    0.0600    0.0000 C   0  0  0  0  0  0  0  0  0  0  0  0
    5.4641   -0.4400    0.0000 C   0  0  0  0  0  0  0  0  0  0  0  0
    7.1962   -0.4400    0.0000 C   0  0  0  0  0  0  0  0  0  0  0  0
    8.0622    1.0600    0.0000 C   0  0  0  0  0  0  0  0  0  0  0  0
    4.5981    0.0600    0.0000 C   0  0  0  0  0  0  0  0  0  0  0  0
   10.6603   -0.4400    0.0000 C   0  0  0  0  0  0  0  0  0  0  0  0
   11.5263    0.0600    0.0000 C   0  0  0  0  0  0  0  0  0  0  0  0
    4.5981    1.0600    0.0000 C   0  0  0  0  0  0  0  0  0  0  0  0
    3.7320   -0.4400    0.0000 C   0  0  0  0  0  0  0  0  0  0  0  0
   12.3923   -0.4400    0.0000 C   0  0  0  0  0  0  0  0  0  0  0  0
   11.5263    1.0600    0.0000 C   0  0  0  0  0  0  0  0  0  0  0  0
    2.8660    0.0600    0.0000 C   0  0  0  0  0  0  0  0  0  0  0  0
    8.5297   -0.9149    0.0000 H   0  0  0  0  0  0  0  0  0  0  0  0
    9.3267   -0.9149    0.0000 H   0  0  0  0  0  0  0  0  0  0  0  0
    6.7287    0.5349    0.0000 H   0  0  0  0  0  0  0  0  0  0  0  0
    5.9316    0.5349    0.0000 H   0  0  0  0  0  0  0  0  0  0  0  0
   10.1928    0.5349    0.0000 H   0  0  0  0  0  0  0  0  0  0  0  0
    9.3957    0.5349    0.0000 H   0  0  0  0  0  0  0  0  0  0  0  0
    5.0656   -0.9149    0.0000 H   0  0  0  0  0  0  0  0  0  0  0  0
    5.8626   -0.9149    0.0000 H   0  0  0  0  0  0  0  0  0  0  0  0
    7.1962   -1.0600    0.0000 H   0  0  0  0  0  0  0  0  0  0  0  0
    8.6822    1.0600    0.0000 H   0  0  0  0  0  0  0  0  0  0  0  0
    8.0622    1.6800    0.0000 H   0  0  0  0  0  0  0  0  0  0  0  0
    7.4422    1.0600    0.0000 H   0  0  0  0  0  0  0  0  0  0  0  0
   10.6603   -1.0600    0.0000 H   0  0  0  0  0  0  0  0  0  0  0  0
    5.2181    1.0600    0.0000 H   0  0  0  0  0  0  0  0  0  0  0  0
    4.5981    1.6800    0.0000 H   0  0  0  0  0  0  0  0  0  0  0  0
    3.9781    1.0600    0.0000 H   0  0  0  0  0  0  0  0  0  0  0  0
    3.7320   -1.0600    0.0000 H   0  0  0  0  0  0  0  0  0  0  0  0
   12.0823   -0.9769    0.0000 H   0  0  0  0  0  0  0  0  0  0  0  0
   12.9292   -0.7500    0.0000 H   0  0  0  0  0  0  0  0  0  0  0  0
   12.7023    0.0969    0.0000 H   0  0  0  0  0  0  0  0  0  0  0  0
   12.1463    1.0600    0.0000 H   0  0  0  0  0  0  0  0  0  0  0  0
   11.5263    1.6800    0.0000 H   0  0  0  0  0  0  0  0  0  0  0  0
   10.9063    1.0600    0.0000 H   0  0  0  0  0  0  0  0  0  0  0  0
    2.8660    0.6800    0.0000 H   0  0  0  0  0  0  0  0  0  0  0  0
  1 16  2  0  0  0  0
  2  3  1  0  0  0  0
  2  5  1  0  0  0  0
  2 17  1  0  0  0  0
  2 18  1  0  0  0  0
  3  7  2  0  0  0  0
  3  8  1  0  0  0  0
  4  6  1  0  0  0  0
  4  7  1  0  0  0  0
  4 19  1  0  0  0  0
  4 20  1  0  0  0  0
  5 10  1  0  0  0  0
  5 21  1  0  0  0  0
  5 22  1  0  0  0  0
  6  9  1  0  0  0  0
  6 23  1  0  0  0  0
  6 24  1  0  0  0  0
  7 25  1  0  0  0  0
  8 26  1  0  0  0  0
  8 27  1  0  0  0  0
  8 28  1  0  0  0  0
  9 12  1  0  0  0  0
  9 13  2  0  0  0  0
 10 11  2  0  0  0  0
 10 29  1  0  0  0  0
 11 14  1  0  0  0  0
 11 15  1  0  0  0  0
 12 30  1  0  0  0  0
 12 31  1  0  0  0  0
 12 32  1  0  0  0  0
 13 16  1  0  0  0  0
 13 33  1  0  0  0  0
 14 34  1  0  0  0  0
 14 35  1  0  0  0  0
 14 36  1  0  0  0  0
 15 37  1  0  0  0  0
 15 38  1  0  0  0  0
 15 39  1  0  0  0  0
 16 40  1  0  0  0  0
M  END
> <PUBCHEM_COMPOUND_CID>
5280598

> <PUBCHEM_COMPOUND_CANONICALIZED>
1

> <PUBCHEM_CACTVS_COMPLEXITY>
289

> <PUBCHEM_CACTVS_HBOND_ACCEPTOR>
1

> <PUBCHEM_CACTVS_HBOND_DONOR>
0

> <PUBCHEM_CACTVS_ROTATABLE_BOND>
7

> <PUBCHEM_CACTVS_SUBSKEYS>
AAADceBwIAAAAAAAAAAAAAAAAAAAAAAAAAAAAAAAAAAAAAAAAAAAGgAAAAAADACggAICAAAAAACIAihSgAAAAAAgAAAACAAAAEgAAAIAAQAAAAAAgAAIAQIAAAAAAAAAAAAAAAAAAAAAAAAAAAAAAAAAAA==

> <PUBCHEM_IUPAC_OPENEYE_NAME>
(2E,6E)-3,7,11-trimethyldodeca-2,6,10-trienal

> <PUBCHEM_IUPAC_CAS_NAME>
(2E,6E)-3,7,11-trimethyldodeca-2,6,10-trienal

> <PUBCHEM_IUPAC_NAME>
(2E,6E)-3,7,11-trimethyldodeca-2,6,10-trienal

> <PUBCHEM_IUPAC_SYSTEMATIC_NAME>
(2E,6E)-3,7,11-trimethyldodeca-2,6,10-trienal

> <PUBCHEM_IUPAC_TRADITIONAL_NAME>
(2E,6E)-3,7,11-trimethyldodeca-2,6,10-trienal

> <PUBCHEM_IUPAC_INCHI>
InChI=1S/C15H24O/c1-13(2)7-5-8-14(3)9-6-10-15(4)11-12-16/h7,9,11-12H,5-6,8,10H2,1-4H3/b14-9+,15-11+

> <PUBCHEM_IUPAC_INCHIKEY>
YHRUHBBTQZKMEX-YFVJMOTDSA-N

> <PUBCHEM_XLOGP3_AA>
4.9

> <PUBCHEM_EXACT_MASS>
220.182715

> <PUBCHEM_MOLECULAR_FORMULA>
C15H24O

> <PUBCHEM_MOLECULAR_WEIGHT>
220.35046

> <PUBCHEM_OPENEYE_CAN_SMILES>
CC(=CCCC(=CCCC(=CC=O)C)C)C

> <PUBCHEM_OPENEYE_ISO_SMILES>
CC(=CCC/C(=C/CC/C(=C/C=O)/C)/C)C

> <PUBCHEM_CACTVS_TPSA>
17.1

> <PUBCHEM_MONOISOTOPIC_WEIGHT>
220.182715

> <PUBCHEM_TOTAL_CHARGE>
0

> <PUBCHEM_HEAVY_ATOM_COUNT>
16

> <PUBCHEM_ATOM_DEF_STEREO_COUNT>
0

> <PUBCHEM_ATOM_UDEF_STEREO_COUNT>
0

> <PUBCHEM_BOND_DEF_STEREO_COUNT>
2

> <PUBCHEM_BOND_UDEF_STEREO_COUNT>
0

> <PUBCHEM_ISOTOPIC_ATOM_COUNT>
0

> <PUBCHEM_COMPONENT_COUNT>
1

> <PUBCHEM_CACTVS_TAUTO_COUNT>
1

> <PUBCHEM_COORDINATE_TYPE>
1
5
255

$$$$

