442645
  -OEChem-07051212582D

 26 27  0     1  0  0  0  0  0999 V2000
    4.9889   -1.3137    0.0000 O   0  0  0  0  0  0  0  0  0  0  0  0
    6.2619    0.4416    0.0000 O   0  0  0  0  0  0  0  0  0  0  0  0
    3.7320    0.9416    0.0000 N   0  0  3  0  0  0  0  0  0  0  0  0
    3.7320   -0.0584    0.0000 C   0  0  2  0  0  0  0  0  0  0  0  0
    4.6783   -0.3632    0.0000 C   0  0  1  0  0  0  0  0  0  0  0  0
    5.2619    0.4416    0.0000 C   0  0  2  0  0  0  0  0  0  0  0  0
    2.8660   -0.5584    0.0000 C   0  0  0  0  0  0  0  0  0  0  0  0
    4.6783    1.2463    0.0000 C   0  0  0  0  0  0  0  0  0  0  0  0
    2.8660    1.4416    0.0000 C   0  0  0  0  0  0  0  0  0  0  0  0
    2.0000   -0.0584    0.0000 C   0  0  0  0  0  0  0  0  0  0  0  0
    2.0000    0.9416    0.0000 C   0  0  0  0  0  0  0  0  0  0  0  0
    3.8220   -0.9037    0.0000 H   0  0  0  0  0  0  0  0  0  0  0  0
    5.2908   -0.4594    0.0000 H   0  0  0  0  0  0  0  0  0  0  0  0
    5.5436    0.9939    0.0000 H   0  0  0  0  0  0  0  0  0  0  0  0
    2.4675   -1.0334    0.0000 H   0  0  0  0  0  0  0  0  0  0  0  0
    3.2646   -1.0334    0.0000 H   0  0  0  0  0  0  0  0  0  0  0  0
    5.2156    1.5555    0.0000 H   0  0  0  0  0  0  0  0  0  0  0  0
    4.4272    1.8132    0.0000 H   0  0  0  0  0  0  0  0  0  0  0  0
    3.2646    1.9165    0.0000 H   0  0  0  0  0  0  0  0  0  0  0  0
    2.4675    1.9165    0.0000 H   0  0  0  0  0  0  0  0  0  0  0  0
    1.3894    0.0492    0.0000 H   0  0  0  0  0  0  0  0  0  0  0  0
    1.7880   -0.6411    0.0000 H   0  0  0  0  0  0  0  0  0  0  0  0
    1.7880    1.5242    0.0000 H   0  0  0  0  0  0  0  0  0  0  0  0
    1.3894    0.8339    0.0000 H   0  0  0  0  0  0  0  0  0  0  0  0
    5.5956   -1.4416    0.0000 H   0  0  0  0  0  0  0  0  0  0  0  0
    6.5719    0.9785    0.0000 H   0  0  0  0  0  0  0  0  0  0  0  0
  5  1  1  1  0  0  0
  1 25  1  0  0  0  0
  6  2  1  6  0  0  0
  2 26  1  0  0  0  0
  3  4  1  0  0  0  0
  3  8  1  0  0  0  0
  3  9  1  0  0  0  0
  4  5  1  0  0  0  0
  4  7  1  0  0  0  0
  4 12  1  1  0  0  0
  5  6  1  0  0  0  0
  5 13  1  0  0  0  0
  6  8  1  0  0  0  0
  6 14  1  0  0  0  0
  7 10  1  0  0  0  0
  7 15  1  0  0  0  0
  7 16  1  0  0  0  0
  8 17  1  0  0  0  0
  8 18  1  0  0  0  0
  9 11  1  0  0  0  0
  9 19  1  0  0  0  0
  9 20  1  0  0  0  0
 10 11  1  0  0  0  0
 10 21  1  0  0  0  0
 10 22  1  0  0  0  0
 11 23  1  0  0  0  0
 11 24  1  0  0  0  0
M  END
> <PUBCHEM_COMPOUND_CID>
442645

> <PUBCHEM_COMPOUND_CANONICALIZED>
1

> <PUBCHEM_CACTVS_COMPLEXITY>
151

> <PUBCHEM_CACTVS_HBOND_ACCEPTOR>
3

> <PUBCHEM_CACTVS_HBOND_DONOR>
2

> <PUBCHEM_CACTVS_ROTATABLE_BOND>
0

> <PUBCHEM_CACTVS_SUBSKEYS>
AAADccByMAAAAAAAAAAAAAAAAAAAAWAAAAAsAAAAAAAAAFgAAAAAHgAACAAACDzhgAYAAAMAAgAAAAAAAAAAAAAAAAAAAAAIAAADEAIAgAAEQAAGAACRAAGQwKAAAAAAAAAAAAAAAAAAAAAAAAAAAAAAAA==

> <PUBCHEM_IUPAC_OPENEYE_NAME>
(1S,2S,8aS)-1,2,3,5,6,7,8,8a-octahydroindolizine-1,2-diol

> <PUBCHEM_IUPAC_CAS_NAME>
(1S,2S,8aS)-1,2,3,5,6,7,8,8a-octahydroindolizine-1,2-diol

> <PUBCHEM_IUPAC_NAME>
(1S,2S,8aS)-1,2,3,5,6,7,8,8a-octahydroindolizine-1,2-diol

> <PUBCHEM_IUPAC_SYSTEMATIC_NAME>
(1S,2S,8aS)-1,2,3,5,6,7,8,8a-octahydroindolizine-1,2-diol

> <PUBCHEM_IUPAC_TRADITIONAL_NAME>
(1S,2S,8aS)-indolizidine-1,2-diol

> <PUBCHEM_IUPAC_INCHI>
InChI=1S/C8H15NO2/c10-7-5-9-4-2-1-3-6(9)8(7)11/h6-8,10-11H,1-5H2/t6-,7-,8-/m0/s1

> <PUBCHEM_IUPAC_INCHIKEY>
SQECYPINZNWUTE-FXQIFTODSA-N

> <PUBCHEM_XLOGP3_AA>
-0.3

> <PUBCHEM_EXACT_MASS>
157.110279

> <PUBCHEM_MOLECULAR_FORMULA>
C8H15NO2

> <PUBCHEM_MOLECULAR_WEIGHT>
157.2102

> <PUBCHEM_OPENEYE_CAN_SMILES>
C1CCN2CC(C(C2C1)O)O

> <PUBCHEM_OPENEYE_ISO_SMILES>
C1CCN2C[C@@H]([C@H]([C@@H]2C1)O)O

> <PUBCHEM_CACTVS_TPSA>
43.7

> <PUBCHEM_MONOISOTOPIC_WEIGHT>
157.110279

> <PUBCHEM_TOTAL_CHARGE>
0

> <PUBCHEM_HEAVY_ATOM_COUNT>
11

> <PUBCHEM_ATOM_DEF_STEREO_COUNT>
3

> <PUBCHEM_ATOM_UDEF_STEREO_COUNT>
0

> <PUBCHEM_BOND_DEF_STEREO_COUNT>
0

> <PUBCHEM_BOND_UDEF_STEREO_COUNT>
0

> <PUBCHEM_ISOTOPIC_ATOM_COUNT>
0

> <PUBCHEM_COMPONENT_COUNT>
1

> <PUBCHEM_CACTVS_TAUTO_COUNT>
1

> <PUBCHEM_COORDINATE_TYPE>
1
5
255

> <PUBCHEM_BONDANNOTATIONS>
5  1  5
6  2  6
4  12  5

$$$$

