185384
  -OEChem-07051212502D

 74 77  0     1  0  0  0  0  0999 V2000
    8.6430   -1.9994    0.0000 O   0  0  0  0  0  0  0  0  0  0  0  0
    5.0294   -3.8889    0.0000 O   0  0  0  0  0  0  0  0  0  0  0  0
    3.6080   -0.3617    0.0000 N   0  0  0  0  0  0  0  0  0  0  0  0
    7.0970    0.0487    0.0000 N   0  0  3  0  0  0  0  0  0  0  0  0
    7.0852   -2.3900    0.0000 N   0  0  0  0  0  0  0  0  0  0  0  0
    5.3020    2.7679    0.0000 C   0  0  2  0  0  0  0  0  0  0  0  0
    3.5099    1.7332    0.0000 C   0  0  2  0  0  0  0  0  0  0  0  0
    4.4040    3.2956    0.0000 C   0  0  0  0  0  0  0  0  0  0  0  0
    5.2859    1.7264    0.0000 C   0  0  0  0  0  0  0  0  0  0  0  0
    3.5019    2.7748    0.0000 C   0  0  0  0  0  0  0  0  0  0  0  0
    4.4199    1.2264    0.0000 C   0  0  0  0  0  0  0  0  0  0  0  0
    5.8120    3.6281    0.0000 C   0  0  0  0  0  0  0  0  0  0  0  0
    6.3019    2.7563    0.0000 C   0  0  0  0  0  0  0  0  0  0  0  0
    4.4199    0.2264    0.0000 C   0  0  0  0  0  0  0  0  0  0  0  0
    6.1520    1.2264    0.0000 C   0  0  0  0  0  0  0  0  0  0  0  0
    5.2859   -0.2736    0.0000 C   0  0  0  0  0  0  0  0  0  0  0  0
    3.0200    0.8615    0.0000 C   0  0  0  0  0  0  0  0  0  0  0  0
    6.1520    0.2264    0.0000 C   0  0  0  0  0  0  0  0  0  0  0  0
    2.5100    1.7217    0.0000 C   0  0  0  0  0  0  0  0  0  0  0  0
    5.3220    4.4998    0.0000 C   0  0  0  0  0  0  0  0  0  0  0  0
    6.8119    3.6165    0.0000 C   0  0  0  0  0  0  0  0  0  0  0  0
    4.9673   -1.1808    0.0000 C   0  0  0  0  0  0  0  0  0  0  0  0
    7.7091   -0.6928    0.0000 C   0  0  1  0  0  0  0  0  0  0  0  0
    3.9714   -1.2960    0.0000 C   0  0  0  0  0  0  0  0  0  0  0  0
    5.3034   -2.0817    0.0000 C   0  0  0  0  0  0  0  0  0  0  0  0
    6.1385   -2.5585    0.0000 C   0  0  1  0  0  0  0  0  0  0  0  0
    8.6510   -0.3569    0.0000 C   0  0  0  0  0  0  0  0  0  0  0  0
    2.0000    2.5819    0.0000 C   0  0  0  0  0  0  0  0  0  0  0  0
    7.7044   -1.6544    0.0000 C   0  0  0  0  0  0  0  0  0  0  0  0
    7.6053    0.9099    0.0000 C   0  0  0  0  0  0  0  0  0  0  0  0
    5.9680   -3.5439    0.0000 C   0  0  0  0  0  0  0  0  0  0  0  0
    9.4129   -1.0046    0.0000 C   0  0  0  0  0  0  0  0  0  0  0  0
    8.8310    0.6268    0.0000 C   0  0  0  0  0  0  0  0  0  0  0  0
    4.8049    3.7685    0.0000 H   0  0  0  0  0  0  0  0  0  0  0  0
    4.0067    3.7716    0.0000 H   0  0  0  0  0  0  0  0  0  0  0  0
    3.2883    3.3569    0.0000 H   0  0  0  0  0  0  0  0  0  0  0  0
    2.8919    2.6640    0.0000 H   0  0  0  0  0  0  0  0  0  0  0  0
    5.1920    3.6352    0.0000 H   0  0  0  0  0  0  0  0  0  0  0  0
    6.2948    2.1364    0.0000 H   0  0  0  0  0  0  0  0  0  0  0  0
    6.9219    2.7492    0.0000 H   0  0  0  0  0  0  0  0  0  0  0  0
    6.3091    3.3763    0.0000 H   0  0  0  0  0  0  0  0  0  0  0  0
    6.6889    1.5364    0.0000 H   0  0  0  0  0  0  0  0  0  0  0  0
    2.4795    1.1652    0.0000 H   0  0  0  0  0  0  0  0  0  0  0  0
    2.7162    0.3210    0.0000 H   0  0  0  0  0  0  0  0  0  0  0  0
    3.5604    0.5577    0.0000 H   0  0  0  0  0  0  0  0  0  0  0  0
    2.2062    1.1812    0.0000 H   0  0  0  0  0  0  0  0  0  0  0  0
    5.8625    4.8036    0.0000 H   0  0  0  0  0  0  0  0  0  0  0  0
    5.0183    5.0403    0.0000 H   0  0  0  0  0  0  0  0  0  0  0  0
    4.7815    4.1961    0.0000 H   0  0  0  0  0  0  0  0  0  0  0  0
    6.8047    2.9966    0.0000 H   0  0  0  0  0  0  0  0  0  0  0  0
    7.4319    3.6094    0.0000 H   0  0  0  0  0  0  0  0  0  0  0  0
    6.8191    4.2365    0.0000 H   0  0  0  0  0  0  0  0  0  0  0  0
    3.0133   -0.1865    0.0000 H   0  0  0  0  0  0  0  0  0  0  0  0
    7.8739   -0.0951    0.0000 H   0  0  0  0  0  0  0  0  0  0  0  0
    3.6514   -1.8270    0.0000 H   0  0  0  0  0  0  0  0  0  0  0  0
    4.6848   -2.1221    0.0000 H   0  0  0  0  0  0  0  0  0  0  0  0
    5.1640   -2.6859    0.0000 H   0  0  0  0  0  0  0  0  0  0  0  0
    6.5780   -2.9958    0.0000 H   0  0  0  0  0  0  0  0  0  0  0  0
    8.5394   -0.9668    0.0000 H   0  0  0  0  0  0  0  0  0  0  0  0
    2.3038    3.1223    0.0000 H   0  0  0  0  0  0  0  0  0  0  0  0
    1.3800    2.5747    0.0000 H   0  0  0  0  0  0  0  0  0  0  0  0
    8.1392    0.5947    0.0000 H   0  0  0  0  0  0  0  0  0  0  0  0
    7.9205    1.4438    0.0000 H   0  0  0  0  0  0  0  0  0  0  0  0
    7.0714    1.2251    0.0000 H   0  0  0  0  0  0  0  0  0  0  0  0
    7.3952   -2.9269    0.0000 H   0  0  0  0  0  0  0  0  0  0  0  0
    6.0776   -4.1541    0.0000 H   0  0  0  0  0  0  0  0  0  0  0  0
    6.5880   -3.5419    0.0000 H   0  0  0  0  0  0  0  0  0  0  0  0
    9.0113   -1.4770    0.0000 H   0  0  0  0  0  0  0  0  0  0  0  0
    9.8852   -1.4062    0.0000 H   0  0  0  0  0  0  0  0  0  0  0  0
    9.8145   -0.5322    0.0000 H   0  0  0  0  0  0  0  0  0  0  0  0
    9.4408    0.5152    0.0000 H   0  0  0  0  0  0  0  0  0  0  0  0
    8.9426    1.2367    0.0000 H   0  0  0  0  0  0  0  0  0  0  0  0
    8.2211    0.7384    0.0000 H   0  0  0  0  0  0  0  0  0  0  0  0
    4.9238   -4.4998    0.0000 H   0  0  0  0  0  0  0  0  0  0  0  0
  1 29  2  0  0  0  0
  2 31  1  0  0  0  0
  2 74  1  0  0  0  0
  3 14  1  0  0  0  0
  3 24  1  0  0  0  0
  3 53  1  0  0  0  0
  4 18  1  0  0  0  0
  4 23  1  0  0  0  0
  4 30  1  0  0  0  0
  5 26  1  0  0  0  0
  5 29  1  0  0  0  0
  5 65  1  0  0  0  0
  6  8  1  0  0  0  0
  6  9  1  0  0  0  0
  6 12  1  0  0  0  0
  6 13  1  6  0  0  0
  7 10  1  0  0  0  0
  7 11  1  0  0  0  0
  7 17  1  6  0  0  0
  7 19  1  0  0  0  0
  8 10  1  0  0  0  0
  8 34  1  0  0  0  0
  8 35  1  0  0  0  0
  9 11  1  0  0  0  0
  9 15  2  0  0  0  0
 10 36  1  0  0  0  0
 10 37  1  0  0  0  0
 11 14  2  0  0  0  0
 12 20  1  0  0  0  0
 12 21  1  0  0  0  0
 12 38  1  0  0  0  0
 13 39  1  0  0  0  0
 13 40  1  0  0  0  0
 13 41  1  0  0  0  0
 14 16  1  0  0  0  0
 15 18  1  0  0  0  0
 15 42  1  0  0  0  0
 16 18  2  0  0  0  0
 16 22  1  0  0  0  0
 17 43  1  0  0  0  0
 17 44  1  0  0  0  0
 17 45  1  0  0  0  0
 19 28  2  0  0  0  0
 19 46  1  0  0  0  0
 20 47  1  0  0  0  0
 20 48  1  0  0  0  0
 20 49  1  0  0  0  0
 21 50  1  0  0  0  0
 21 51  1  0  0  0  0
 21 52  1  0  0  0  0
 22 24  2  0  0  0  0
 22 25  1  0  0  0  0
 23 27  1  1  0  0  0
 23 29  1  0  0  0  0
 23 54  1  0  0  0  0
 24 55  1  0  0  0  0
 25 26  1  0  0  0  0
 25 56  1  0  0  0  0
 25 57  1  0  0  0  0
 26 31  1  6  0  0  0
 26 58  1  0  0  0  0
 27 32  1  0  0  0  0
 27 33  1  0  0  0  0
 27 59  1  0  0  0  0
 28 60  1  0  0  0  0
 28 61  1  0  0  0  0
 30 62  1  0  0  0  0
 30 63  1  0  0  0  0
 30 64  1  0  0  0  0
 31 66  1  0  0  0  0
 31 67  1  0  0  0  0
 32 68  1  0  0  0  0
 32 69  1  0  0  0  0
 32 70  1  0  0  0  0
 33 71  1  0  0  0  0
 33 72  1  0  0  0  0
 33 73  1  0  0  0  0
M  END
> <PUBCHEM_COMPOUND_CID>
185384

> <PUBCHEM_COMPOUND_CANONICALIZED>
1

> <PUBCHEM_CACTVS_COMPLEXITY>
753

> <PUBCHEM_CACTVS_HBOND_ACCEPTOR>
3

> <PUBCHEM_CACTVS_HBOND_DONOR>
3

> <PUBCHEM_CACTVS_ROTATABLE_BOND>
4

> <PUBCHEM_CACTVS_SUBSKEYS>
AAADcfB7MAAAAAAAAAAAAAAAAAAAAWAAAAAwYAAAAAAAAFjB8AAAHgAQCAAADyjhngY+wPPJkgCoAzV3VACCgCAxAiAI2aGoZJgKcHLA0fGUZAhklgDYyAeQ0PIPyAACQAQSAACQAASACCQAAAAAAAAAAA==

> <PUBCHEM_IUPAC_INCHI>
InChI=1S/C28H41N3O2/c1-9-27(6)10-11-28(7,17(4)5)20-13-21-22-18(14-29-24(22)23(20)27)12-19(15-32)30-26(33)25(16(2)3)31(21)8/h9,13-14,16-17,19,25,29,32H,1,10-12,15H2,2-8H3,(H,30,33)/t19-,25-,27-,28-/m0/s1

> <PUBCHEM_IUPAC_INCHIKEY>
PEYTUVXFLCCGCC-VCJXGGRGSA-N

> <PUBCHEM_XLOGP3_AA>
6.5

> <PUBCHEM_EXACT_MASS>
451.319878

> <PUBCHEM_MOLECULAR_FORMULA>
C28H41N3O2

> <PUBCHEM_MOLECULAR_WEIGHT>
451.64404

> <PUBCHEM_OPENEYE_CAN_SMILES>
CC(C)C1C(=O)NC(CC2=CNC3=C4C(=CC(=C23)N1C)C(CCC4(C)C=C)(C)C(C)C)CO

> <PUBCHEM_OPENEYE_ISO_SMILES>
CC(C)[C@H]1C(=O)N[C@@H](CC2=CNC3=C4C(=CC(=C23)N1C)[C@](CC[C@]4(C)C=C)(C)C(C)C)CO

> <PUBCHEM_CACTVS_TPSA>
68.4

> <PUBCHEM_MONOISOTOPIC_WEIGHT>
451.319878

> <PUBCHEM_TOTAL_CHARGE>
0

> <PUBCHEM_HEAVY_ATOM_COUNT>
33

> <PUBCHEM_ATOM_DEF_STEREO_COUNT>
4

> <PUBCHEM_ATOM_UDEF_STEREO_COUNT>
0

> <PUBCHEM_BOND_DEF_STEREO_COUNT>
0

> <PUBCHEM_BOND_UDEF_STEREO_COUNT>
0

> <PUBCHEM_ISOTOPIC_ATOM_COUNT>
0

> <PUBCHEM_COMPONENT_COUNT>
1

> <PUBCHEM_CACTVS_TAUTO_COUNT>
3

> <PUBCHEM_COORDINATE_TYPE>
1
5
255

> <PUBCHEM_BONDANNOTATIONS>
11  14  8
14  16  8
15  18  8
16  18  8
16  22  8
22  24  8
23  27  5
26  31  6
3  14  8
3  24  8
6  13  6
7  17  6
9  11  8
9  15  8

$$$$

