9543463
  -OEChem-07051213082D

 34 38  0     1  0  0  0  0  0999 V2000
    6.2719   -0.7339    0.0000 O   0  0  0  0  0  0  0  0  0  0  0  0
    6.4811    2.2379    0.0000 O   0  0  0  0  0  0  0  0  0  0  0  0
    4.7490    1.2379    0.0000 O   0  0  0  0  0  0  0  0  0  0  0  0
    2.2123   -0.7507    0.0000 O   0  0  0  0  0  0  0  0  0  0  0  0
    2.8914   -2.2725    0.0000 O   0  0  0  0  0  0  0  0  0  0  0  0
   10.0112    2.2620    0.0000 O   0  0  0  0  0  0  0  0  0  0  0  0
    5.6151    0.7379    0.0000 C   0  0  2  0  0  0  0  0  0  0  0  0
    6.4811    0.2379    0.0000 C   0  0  1  0  0  0  0  0  0  0  0  0
    4.8780    0.0708    0.0000 C   0  0  0  0  0  0  0  0  0  0  0  0
    5.6151    1.7379    0.0000 C   0  0  0  0  0  0  0  0  0  0  0  0
    7.3471    0.7379    0.0000 C   0  0  0  0  0  0  0  0  0  0  0  0
    5.2832   -0.8370    0.0000 C   0  0  0  0  0  0  0  0  0  0  0  0
    7.3471    1.7379    0.0000 C   0  0  0  0  0  0  0  0  0  0  0  0
    3.8499    0.1940    0.0000 C   0  0  0  0  0  0  0  0  0  0  0  0
    4.6882   -1.6845    0.0000 C   0  0  0  0  0  0  0  0  0  0  0  0
    3.2356   -0.6395    0.0000 C   0  0  0  0  0  0  0  0  0  0  0  0
    8.2410    0.2032    0.0000 C   0  0  0  0  0  0  0  0  0  0  0  0
    3.6576   -1.5851    0.0000 C   0  0  0  0  0  0  0  0  0  0  0  0
    8.2410    2.2725    0.0000 C   0  0  0  0  0  0  0  0  0  0  0  0
    9.1471    0.7171    0.0000 C   0  0  0  0  0  0  0  0  0  0  0  0
    9.1471    1.7587    0.0000 C   0  0  0  0  0  0  0  0  0  0  0  0
    2.0000   -1.7579    0.0000 C   0  0  0  0  0  0  0  0  0  0  0  0
    7.1681   -0.2626    0.0000 H   0  0  0  0  0  0  0  0  0  0  0  0
    5.4030    2.3205    0.0000 H   0  0  0  0  0  0  0  0  0  0  0  0
    5.0045    1.6302    0.0000 H   0  0  0  0  0  0  0  0  0  0  0  0
    3.6038    0.7631    0.0000 H   0  0  0  0  0  0  0  0  0  0  0  0
    4.7490    1.8579    0.0000 H   0  0  0  0  0  0  0  0  0  0  0  0
    4.9474   -2.2477    0.0000 H   0  0  0  0  0  0  0  0  0  0  0  0
    8.2339   -0.4167    0.0000 H   0  0  0  0  0  0  0  0  0  0  0  0
    8.2339    2.8925    0.0000 H   0  0  0  0  0  0  0  0  0  0  0  0
    9.6828    0.4050    0.0000 H   0  0  0  0  0  0  0  0  0  0  0  0
    1.4101   -1.5670    0.0000 H   0  0  0  0  0  0  0  0  0  0  0  0
    1.7482   -2.3244    0.0000 H   0  0  0  0  0  0  0  0  0  0  0  0
   10.5493    1.9541    0.0000 H   0  0  0  0  0  0  0  0  0  0  0  0
  1  8  1  0  0  0  0
  1 12  1  0  0  0  0
  2 10  1  0  0  0  0
  2 13  1  0  0  0  0
  7  3  1  6  0  0  0
  3 27  1  0  0  0  0
  4 16  1  0  0  0  0
  4 22  1  0  0  0  0
  5 18  1  0  0  0  0
  5 22  1  0  0  0  0
  6 21  1  0  0  0  0
  6 34  1  0  0  0  0
  7  8  1  0  0  0  0
  7  9  1  0  0  0  0
  7 10  1  0  0  0  0
  8 11  1  0  0  0  0
  8 23  1  6  0  0  0
  9 12  1  0  0  0  0
  9 14  2  0  0  0  0
 10 24  1  0  0  0  0
 10 25  1  0  0  0  0
 11 13  2  0  0  0  0
 11 17  1  0  0  0  0
 12 15  2  0  0  0  0
 13 19  1  0  0  0  0
 14 16  1  0  0  0  0
 14 26  1  0  0  0  0
 15 18  1  0  0  0  0
 15 28  1  0  0  0  0
 16 18  2  0  0  0  0
 17 20  2  0  0  0  0
 17 29  1  0  0  0  0
 19 21  2  0  0  0  0
 19 30  1  0  0  0  0
 20 21  1  0  0  0  0
 20 31  1  0  0  0  0
 22 32  1  0  0  0  0
 22 33  1  0  0  0  0
M  END
> <PUBCHEM_COMPOUND_CID>
9543463

> <PUBCHEM_COMPOUND_CANONICALIZED>
1

> <PUBCHEM_CACTVS_COMPLEXITY>
458

> <PUBCHEM_CACTVS_HBOND_ACCEPTOR>
6

> <PUBCHEM_CACTVS_HBOND_DONOR>
2

> <PUBCHEM_CACTVS_ROTATABLE_BOND>
0

> <PUBCHEM_CACTVS_SUBSKEYS>
AAADccB4OAAAAAAAAAAAAAAAAAAAASJAAAA0YIAAAAAAAEiRQAAAGgAACAAADFSgmAMwDoAABgCAAiBCAAACCAAgIAAIiAAGiIgdJyKGMRqieCKlwBUPuAfA4PwOoQABCAAIQABCAAIQABCAAAAAAAAAAA==

> <PUBCHEM_IUPAC_INCHI>
InChI=1S/C16H12O6/c17-8-1-2-9-11(3-8)19-6-16(18)10-4-13-14(21-7-20-13)5-12(10)22-15(9)16/h1-5,15,17-18H,6-7H2/t15-,16+/m1/s1

> <PUBCHEM_IUPAC_INCHIKEY>
GLMPLZUBQDAZEN-CVEARBPZSA-N

> <PUBCHEM_XLOGP3_AA>
1.4

> <PUBCHEM_EXACT_MASS>
300.063388

> <PUBCHEM_MOLECULAR_FORMULA>
C16H12O6

> <PUBCHEM_MOLECULAR_WEIGHT>
300.26288

> <PUBCHEM_OPENEYE_CAN_SMILES>
C1C2(C(C3=C(O1)C=C(C=C3)O)OC4=CC5=C(C=C42)OCO5)O

> <PUBCHEM_OPENEYE_ISO_SMILES>
C1[C@]2([C@@H](C3=C(O1)C=C(C=C3)O)OC4=CC5=C(C=C42)OCO5)O

> <PUBCHEM_CACTVS_TPSA>
77.4

> <PUBCHEM_MONOISOTOPIC_WEIGHT>
300.063388

> <PUBCHEM_TOTAL_CHARGE>
0

> <PUBCHEM_HEAVY_ATOM_COUNT>
22

> <PUBCHEM_ATOM_DEF_STEREO_COUNT>
2

> <PUBCHEM_ATOM_UDEF_STEREO_COUNT>
0

> <PUBCHEM_BOND_DEF_STEREO_COUNT>
0

> <PUBCHEM_BOND_UDEF_STEREO_COUNT>
0

> <PUBCHEM_ISOTOPIC_ATOM_COUNT>
0

> <PUBCHEM_COMPONENT_COUNT>
1

> <PUBCHEM_CACTVS_TAUTO_COUNT>
3

> <PUBCHEM_COORDINATE_TYPE>
1
5
255

> <PUBCHEM_BONDANNOTATIONS>
11  13  8
11  17  8
12  15  8
13  19  8
14  16  8
15  18  8
16  18  8
17  20  8
19  21  8
20  21  8
7  3  6
8  23  6
9  12  8
9  14  8

$$$$

