11289
  -OEChem-06261205293D

 48 50  0     0  0  0  0  0  0999 V2000
    0.8210   -3.0863    0.1910 Cl  0  0  0  0  0  0  0  0  0  0  0  0
    6.3727   -0.4337    0.4014 O   0  0  0  0  0  0  0  0  0  0  0  0
   -2.0293    4.4658   -0.4109 O   0  0  0  0  0  0  0  0  0  0  0  0
   -5.5262   -1.8532   -0.3399 O   0  0  0  0  0  0  0  0  0  0  0  0
    0.7805   -0.3643    0.0282 C   0  0  0  0  0  0  0  0  0  0  0  0
    2.2316   -0.3820    0.1257 C   0  0  0  0  0  0  0  0  0  0  0  0
    0.0296    0.9272   -0.0898 C   0  0  0  0  0  0  0  0  0  0  0  0
    0.0561   -1.5272    0.0434 C   0  0  0  0  0  0  0  0  0  0  0  0
   -1.4107   -1.6125   -0.0580 C   0  0  0  0  0  0  0  0  0  0  0  0
    2.8482   -0.3269    1.3755 C   0  0  0  0  0  0  0  0  0  0  0  0
   -0.2181    1.4274   -1.3444 C   0  0  0  0  0  0  0  0  0  0  0  0
    3.0066   -0.4542   -1.0318 C   0  0  0  0  0  0  0  0  0  0  0  0
   -0.3777    1.5529    1.0630 C   0  0  0  0  0  0  0  0  0  0  0  0
    4.2398   -0.3442    1.4680 C   0  0  0  0  0  0  0  0  0  0  0  0
   -0.9173    2.6295   -1.4533 C   0  0  0  0  0  0  0  0  0  0  0  0
    4.3983   -0.4715   -0.9395 C   0  0  0  0  0  0  0  0  0  0  0  0
   -1.0770    2.7549    0.9542 C   0  0  0  0  0  0  0  0  0  0  0  0
   -2.0006   -1.7219   -1.3069 C   0  0  0  0  0  0  0  0  0  0  0  0
   -2.1733   -1.5821    1.0988 C   0  0  0  0  0  0  0  0  0  0  0  0
    5.0150   -0.4166    0.3105 C   0  0  0  0  0  0  0  0  0  0  0  0
   -1.3468    3.2933   -0.3040 C   0  0  0  0  0  0  0  0  0  0  0  0
   -3.3899   -1.8029   -1.4019 C   0  0  0  0  0  0  0  0  0  0  0  0
   -3.5626   -1.6633    1.0039 C   0  0  0  0  0  0  0  0  0  0  0  0
   -4.1709   -1.7737   -0.2466 C   0  0  0  0  0  0  0  0  0  0  0  0
    7.1047   -0.5088   -0.8212 C   0  0  0  0  0  0  0  0  0  0  0  0
   -2.4392    5.0919    0.8040 C   0  0  0  0  0  0  0  0  0  0  0  0
   -6.2646   -1.8176    0.8807 C   0  0  0  0  0  0  0  0  0  0  0  0
    2.2591   -0.2717    2.2878 H   0  0  0  0  0  0  0  0  0  0  0  0
    0.1117    0.9178   -2.2449 H   0  0  0  0  0  0  0  0  0  0  0  0
    2.5410   -0.4990   -2.0137 H   0  0  0  0  0  0  0  0  0  0  0  0
   -0.1721    1.1405    2.0465 H   0  0  0  0  0  0  0  0  0  0  0  0
    4.7145   -0.3015    2.4445 H   0  0  0  0  0  0  0  0  0  0  0  0
   -1.1248    3.0438   -2.4361 H   0  0  0  0  0  0  0  0  0  0  0  0
    4.9394   -0.5291   -1.8778 H   0  0  0  0  0  0  0  0  0  0  0  0
   -1.3814    3.2173    1.8870 H   0  0  0  0  0  0  0  0  0  0  0  0
   -1.4035   -1.7464   -2.2148 H   0  0  0  0  0  0  0  0  0  0  0  0
   -1.7106   -1.4970    2.0787 H   0  0  0  0  0  0  0  0  0  0  0  0
   -3.8580   -1.8887   -2.3787 H   0  0  0  0  0  0  0  0  0  0  0  0
   -4.1086   -1.6347    1.9406 H   0  0  0  0  0  0  0  0  0  0  0  0
    6.9316    0.3723   -1.4484 H   0  0  0  0  0  0  0  0  0  0  0  0
    6.9027   -1.4440   -1.3543 H   0  0  0  0  0  0  0  0  0  0  0  0
    8.1683   -0.5123   -0.5614 H   0  0  0  0  0  0  0  0  0  0  0  0
   -1.5791    5.3862    1.4150 H   0  0  0  0  0  0  0  0  0  0  0  0
   -2.9674    6.0114    0.5315 H   0  0  0  0  0  0  0  0  0  0  0  0
   -3.1483    4.4680    1.3587 H   0  0  0  0  0  0  0  0  0  0  0  0
   -6.0316   -2.6780    1.5171 H   0  0  0  0  0  0  0  0  0  0  0  0
   -7.3253   -1.8914    0.6191 H   0  0  0  0  0  0  0  0  0  0  0  0
   -6.1299   -0.8652    1.4046 H   0  0  0  0  0  0  0  0  0  0  0  0
  1  8  1  0  0  0  0
  2 20  1  0  0  0  0
  2 25  1  0  0  0  0
  3 21  1  0  0  0  0
  3 26  1  0  0  0  0
  4 24  1  0  0  0  0
  4 27  1  0  0  0  0
  5  6  1  0  0  0  0
  5  7  1  0  0  0  0
  5  8  2  0  0  0  0
  6 10  2  0  0  0  0
  6 12  1  0  0  0  0
  7 11  2  0  0  0  0
  7 13  1  0  0  0  0
  8  9  1  0  0  0  0
  9 18  2  0  0  0  0
  9 19  1  0  0  0  0
 10 14  1  0  0  0  0
 10 28  1  0  0  0  0
 11 15  1  0  0  0  0
 11 29  1  0  0  0  0
 12 16  2  0  0  0  0
 12 30  1  0  0  0  0
 13 17  2  0  0  0  0
 13 31  1  0  0  0  0
 14 20  2  0  0  0  0
 14 32  1  0  0  0  0
 15 21  2  0  0  0  0
 15 33  1  0  0  0  0
 16 20  1  0  0  0  0
 16 34  1  0  0  0  0
 17 21  1  0  0  0  0
 17 35  1  0  0  0  0
 18 22  1  0  0  0  0
 18 36  1  0  0  0  0
 19 23  2  0  0  0  0
 19 37  1  0  0  0  0
 22 24  2  0  0  0  0
 22 38  1  0  0  0  0
 23 24  1  0  0  0  0
 23 39  1  0  0  0  0
 25 40  1  0  0  0  0
 25 41  1  0  0  0  0
 25 42  1  0  0  0  0
 26 43  1  0  0  0  0
 26 44  1  0  0  0  0
 26 45  1  0  0  0  0
 27 46  1  0  0  0  0
 27 47  1  0  0  0  0
 27 48  1  0  0  0  0
M  END
> <PUBCHEM_COMPOUND_CID>
11289

> <PUBCHEM_CONFORMER_RMSD>
0.8

> <PUBCHEM_CONFORMER_DIVERSEORDER>
1
2

> <PUBCHEM_MMFF94_PARTIAL_CHARGES>
39
1 -0.14
10 -0.15
11 -0.15
12 -0.15
13 -0.15
14 -0.15
15 -0.15
16 -0.15
17 -0.15
18 -0.15
19 -0.15
2 -0.36
20 0.08
21 0.08
22 -0.15
23 -0.15
24 0.08
25 0.28
26 0.28
27 0.28
28 0.15
29 0.15
3 -0.36
30 0.15
31 0.15
32 0.15
33 0.15
34 0.15
35 0.15
36 0.15
37 0.15
38 0.15
39 0.15
4 -0.36
5 -0.06
6 0.03
7 0.03
8 0.11
9 0.03

> <PUBCHEM_EFFECTIVE_ROTOR_COUNT>
6

> <PUBCHEM_PHARMACOPHORE_FEATURES>
6
1 2 acceptor
1 3 acceptor
1 4 acceptor
6 6 10 12 14 16 20 rings
6 7 11 13 15 17 21 rings
6 9 18 19 22 23 24 rings

> <PUBCHEM_HEAVY_ATOM_COUNT>
27

> <PUBCHEM_ATOM_DEF_STEREO_COUNT>
0

> <PUBCHEM_ATOM_UDEF_STEREO_COUNT>
0

> <PUBCHEM_BOND_DEF_STEREO_COUNT>
0

> <PUBCHEM_BOND_UDEF_STEREO_COUNT>
0

> <PUBCHEM_ISOTOPIC_ATOM_COUNT>
0

> <PUBCHEM_COMPONENT_COUNT>
1

> <PUBCHEM_CACTVS_TAUTO_COUNT>
1

> <PUBCHEM_CONFORMER_ID>
00002C1900000001

> <PUBCHEM_MMFF94_ENERGY>
119.389

> <PUBCHEM_FEATURE_SELFOVERLAP>
30.446

> <PUBCHEM_SHAPE_FINGERPRINT>
10050765 1 18194680595789462286
102385 1 17978794832875042947
104564 63 18411703218206266015
10930396 42 18051161141156965936
11101153 10 18270672062259218188
11265709 11 18341049627444489721
11421498 54 18131360721155564635
11578080 2 17971738120292720422
11582403 64 14759596353441424109
11646440 116 18340480076443255283
12236239 1 17489594463489545686
12293681 4 18201429260600154411
12516196 113 18340208475163821611
12741549 16 17846224311185228893
12788726 201 18342465854271640210
13004483 165 18337673014203209133
13134695 92 18194686960624422981
13140716 1 18411700950590400753
13540713 4 17970061361050601878
13540713 5 17986681578794932530
13583140 156 14706925150950989122
13590594 115 18337108969866499289
13911987 19 18129648691552216638
14068700 675 18341054021612655068
14294032 229 18266730475306627505
14347332 77 18337957891596222262
14955137 171 18267580200542673435
15021287 119 18189897505724081271
15081414 286 18121789326654870569
15131766 46 15649327425401363360
15198563 99 18411135865737949941
15238133 3 18272079492734213735
15420108 30 17320715859357149656
15849732 13 17968374555505236319
16087824 20 18338516461152571469
16752209 62 18342189872959157282
17357779 13 18263097564370515295
17980427 23 14851877011904829739
1813 80 18335413517771102503
18365409 1 18266743670311409221
19301679 30 18340203089333309683
19427546 62 17545884188553753553
20600515 1 18190445078734038518
21033648 29 17676214546286520875
21041028 32 18340206293879279749
21236236 1 18411136974287137814
21285901 2 18041543802478886582
21304303 172 18408880742194186961
21424621 283 11167677498294881174
21641784 216 18201991144995218916
229495 10 14057547067914951180
23175994 123 18272090435952304543
23419403 2 17459211615101785321
23558518 356 18056196006015493226
23559900 14 15864353497912317554
23845131 108 17833272300286366713
266924 87 18339087102252846278
283562 15 18413390959896655810
3027735 51 18340208595444109090
345986 75 18059033729715303051
350125 39 18265894838422687570
3552219 110 17988064617755509164
469060 322 18271798047257758833
508180 173 18049760423773447277
513202 73 18265603450128824626
5171179 24 17969239853380445017
5969126 39 18408326579416494084
7226269 152 18342461443334887063
7495541 125 17630886002494435995
7808743 9 18268146647111202408
81228 2 18341893029987769512
9658208 31 17902780092114297092

> <PUBCHEM_SHAPE_MULTIPOLES>
539.91
11.73
4.73
1.39
11.81
8.11
-0.07
-8.13
0.48
-7.31
0.25
0
0.09
-0.11

> <PUBCHEM_SHAPE_SELFOVERLAP>
1163.48

> <PUBCHEM_SHAPE_VOLUME>
300.2

> <PUBCHEM_COORDINATE_TYPE>
2
5
10

$$$$

