71988
  -OEChem-07051213022D

 53 55  0     0  0  0  0  0  0999 V2000
    5.4364    0.9571    0.0000 O   0  0  0  0  0  0  0  0  0  0  0  0
    8.0345    4.4571    0.0000 N   0  0  0  0  0  0  0  0  0  0  0  0
    3.7044   -2.0429    0.0000 N   0  0  0  0  0  0  0  0  0  0  0  0
    4.5134   -3.6307    0.0000 N   0  0  0  0  0  0  0  0  0  0  0  0
    2.8954   -3.6307    0.0000 N   0  0  0  0  0  0  0  0  0  0  0  0
    4.2044   -4.5817    0.0000 N   0  0  0  0  0  0  0  0  0  0  0  0
    2.6166   -5.3907    0.0000 N   0  0  0  0  0  0  0  0  0  0  0  0
    8.9005    3.9571    0.0000 C   0  0  0  0  0  0  0  0  0  0  0  0
    8.0345    5.4571    0.0000 C   0  0  0  0  0  0  0  0  0  0  0  0
    9.7666    4.4571    0.0000 C   0  0  0  0  0  0  0  0  0  0  0  0
    8.9005    5.9571    0.0000 C   0  0  0  0  0  0  0  0  0  0  0  0
    9.7666    5.4571    0.0000 C   0  0  0  0  0  0  0  0  0  0  0  0
    7.1685    3.9571    0.0000 C   0  0  0  0  0  0  0  0  0  0  0  0
    7.1685    2.9571    0.0000 C   0  0  0  0  0  0  0  0  0  0  0  0
    6.3025    2.4571    0.0000 C   0  0  0  0  0  0  0  0  0  0  0  0
    8.0345    2.4571    0.0000 C   0  0  0  0  0  0  0  0  0  0  0  0
    6.3025    1.4571    0.0000 C   0  0  0  0  0  0  0  0  0  0  0  0
    8.0345    1.4571    0.0000 C   0  0  0  0  0  0  0  0  0  0  0  0
    7.1685    0.9571    0.0000 C   0  0  0  0  0  0  0  0  0  0  0  0
    4.5704   -0.5429    0.0000 C   0  0  0  0  0  0  0  0  0  0  0  0
    5.4364   -0.0429    0.0000 C   0  0  0  0  0  0  0  0  0  0  0  0
    4.5704   -1.5429    0.0000 C   0  0  0  0  0  0  0  0  0  0  0  0
    3.7044   -3.0429    0.0000 C   0  0  0  0  0  0  0  0  0  0  0  0
    5.4645   -3.3216    0.0000 C   0  0  0  0  0  0  0  0  0  0  0  0
    3.2044   -4.5817    0.0000 C   0  0  0  0  0  0  0  0  0  0  0  0
    7.8225    6.0397    0.0000 H   0  0  0  0  0  0  0  0  0  0  0  0
    7.4239    5.3495    0.0000 H   0  0  0  0  0  0  0  0  0  0  0  0
    8.5020    3.4822    0.0000 H   0  0  0  0  0  0  0  0  0  0  0  0
    9.2991    3.4822    0.0000 H   0  0  0  0  0  0  0  0  0  0  0  0
    9.9786    3.8745    0.0000 H   0  0  0  0  0  0  0  0  0  0  0  0
   10.3771    4.5648    0.0000 H   0  0  0  0  0  0  0  0  0  0  0  0
    9.2991    6.4321    0.0000 H   0  0  0  0  0  0  0  0  0  0  0  0
    8.5020    6.4321    0.0000 H   0  0  0  0  0  0  0  0  0  0  0  0
   10.3771    5.3495    0.0000 H   0  0  0  0  0  0  0  0  0  0  0  0
    9.9786    6.0397    0.0000 H   0  0  0  0  0  0  0  0  0  0  0  0
    6.9564    4.5397    0.0000 H   0  0  0  0  0  0  0  0  0  0  0  0
    6.5579    3.8495    0.0000 H   0  0  0  0  0  0  0  0  0  0  0  0
    5.7655    2.7671    0.0000 H   0  0  0  0  0  0  0  0  0  0  0  0
    8.5714    2.7671    0.0000 H   0  0  0  0  0  0  0  0  0  0  0  0
    8.5714    1.1471    0.0000 H   0  0  0  0  0  0  0  0  0  0  0  0
    7.1685    0.3371    0.0000 H   0  0  0  0  0  0  0  0  0  0  0  0
    4.3584    0.0397    0.0000 H   0  0  0  0  0  0  0  0  0  0  0  0
    3.9598   -0.6505    0.0000 H   0  0  0  0  0  0  0  0  0  0  0  0
    5.6485   -0.6255    0.0000 H   0  0  0  0  0  0  0  0  0  0  0  0
    6.0470    0.0648    0.0000 H   0  0  0  0  0  0  0  0  0  0  0  0
    4.7825   -2.1255    0.0000 H   0  0  0  0  0  0  0  0  0  0  0  0
    5.1810   -1.4352    0.0000 H   0  0  0  0  0  0  0  0  0  0  0  0
    3.1674   -1.7329    0.0000 H   0  0  0  0  0  0  0  0  0  0  0  0
    5.6560   -3.9113    0.0000 H   0  0  0  0  0  0  0  0  0  0  0  0
    6.0541   -3.1301    0.0000 H   0  0  0  0  0  0  0  0  0  0  0  0
    5.2729   -2.7320    0.0000 H   0  0  0  0  0  0  0  0  0  0  0  0
    2.8688   -5.9571    0.0000 H   0  0  0  0  0  0  0  0  0  0  0  0
    2.0000   -5.3259    0.0000 H   0  0  0  0  0  0  0  0  0  0  0  0
  1 17  1  0  0  0  0
  1 21  1  0  0  0  0
  2  8  1  0  0  0  0
  2  9  1  0  0  0  0
  2 13  1  0  0  0  0
  3 22  1  0  0  0  0
  3 23  1  0  0  0  0
  3 48  1  0  0  0  0
  4  6  1  0  0  0  0
  4 23  1  0  0  0  0
  4 24  1  0  0  0  0
  5 23  2  0  0  0  0
  5 25  1  0  0  0  0
  6 25  2  0  0  0  0
  7 25  1  0  0  0  0
  7 52  1  0  0  0  0
  7 53  1  0  0  0  0
  8 10  1  0  0  0  0
  8 28  1  0  0  0  0
  8 29  1  0  0  0  0
  9 11  1  0  0  0  0
  9 26  1  0  0  0  0
  9 27  1  0  0  0  0
 10 12  1  0  0  0  0
 10 30  1  0  0  0  0
 10 31  1  0  0  0  0
 11 12  1  0  0  0  0
 11 32  1  0  0  0  0
 11 33  1  0  0  0  0
 12 34  1  0  0  0  0
 12 35  1  0  0  0  0
 13 14  1  0  0  0  0
 13 36  1  0  0  0  0
 13 37  1  0  0  0  0
 14 15  2  0  0  0  0
 14 16  1  0  0  0  0
 15 17  1  0  0  0  0
 15 38  1  0  0  0  0
 16 18  2  0  0  0  0
 16 39  1  0  0  0  0
 17 19  2  0  0  0  0
 18 19  1  0  0  0  0
 18 40  1  0  0  0  0
 19 41  1  0  0  0  0
 20 21  1  0  0  0  0
 20 22  1  0  0  0  0
 20 42  1  0  0  0  0
 20 43  1  0  0  0  0
 21 44  1  0  0  0  0
 21 45  1  0  0  0  0
 22 46  1  0  0  0  0
 22 47  1  0  0  0  0
 24 49  1  0  0  0  0
 24 50  1  0  0  0  0
 24 51  1  0  0  0  0
M  END
> <PUBCHEM_COMPOUND_CID>
71988

> <PUBCHEM_COMPOUND_CANONICALIZED>
1

> <PUBCHEM_CACTVS_COMPLEXITY>
379

> <PUBCHEM_CACTVS_HBOND_ACCEPTOR>
6

> <PUBCHEM_CACTVS_HBOND_DONOR>
2

> <PUBCHEM_CACTVS_ROTATABLE_BOND>
8

> <PUBCHEM_CACTVS_SUBSKEYS>
AAADceB7oAAAAAAAAAAAAAAAAAAAAWAAAAA8QAAAAAAAAAABwAAAHgAYAAAADAThmAYzFofIFACiAiBCJACSCAsgoIANyIAODIiMLiKEuRuGOCj+0BOIqAewwBAOAAABAAAAAAAAAAIAAAAAAAAAAAAAAA==

> <PUBCHEM_IUPAC_OPENEYE_NAME>
1-methyl-N5-[3-[3-(1-piperidylmethyl)phenoxy]propyl]-1,2,4-triazole-3,5-diamine

> <PUBCHEM_IUPAC_CAS_NAME>
1-methyl-N5-[3-[3-(1-piperidinylmethyl)phenoxy]propyl]-1,2,4-triazole-3,5-diamine

> <PUBCHEM_IUPAC_NAME>
1-methyl-5-N-[3-[3-(piperidin-1-ylmethyl)phenoxy]propyl]-1,2,4-triazole-3,5-diamine

> <PUBCHEM_IUPAC_SYSTEMATIC_NAME>
1-methyl-N5-[3-[3-(piperidin-1-ylmethyl)phenoxy]propyl]-1,2,4-triazole-3,5-diamine

> <PUBCHEM_IUPAC_TRADITIONAL_NAME>
(5-amino-2-methyl-1,2,4-triazol-3-yl)-[3-[3-(piperidinomethyl)phenoxy]propyl]amine

> <PUBCHEM_IUPAC_INCHI>
InChI=1S/C18H28N6O/c1-23-18(21-17(19)22-23)20-9-6-12-25-16-8-5-7-15(13-16)14-24-10-3-2-4-11-24/h5,7-8,13H,2-4,6,9-12,14H2,1H3,(H3,19,20,21,22)

> <PUBCHEM_IUPAC_INCHIKEY>
NRIGRKAXOLMTSK-UHFFFAOYSA-N

> <PUBCHEM_XLOGP3_AA>
2.7

> <PUBCHEM_EXACT_MASS>
344.23246

> <PUBCHEM_MOLECULAR_FORMULA>
C18H28N6O

> <PUBCHEM_MOLECULAR_WEIGHT>
344.45452

> <PUBCHEM_OPENEYE_CAN_SMILES>
CN1C(=NC(=N1)N)NCCCOC2=CC=CC(=C2)CN3CCCCC3

> <PUBCHEM_OPENEYE_ISO_SMILES>
CN1C(=NC(=N1)N)NCCCOC2=CC=CC(=C2)CN3CCCCC3

> <PUBCHEM_CACTVS_TPSA>
81.2

> <PUBCHEM_MONOISOTOPIC_WEIGHT>
344.23246

> <PUBCHEM_TOTAL_CHARGE>
0

> <PUBCHEM_HEAVY_ATOM_COUNT>
25

> <PUBCHEM_ATOM_DEF_STEREO_COUNT>
0

> <PUBCHEM_ATOM_UDEF_STEREO_COUNT>
0

> <PUBCHEM_BOND_DEF_STEREO_COUNT>
0

> <PUBCHEM_BOND_UDEF_STEREO_COUNT>
0

> <PUBCHEM_ISOTOPIC_ATOM_COUNT>
0

> <PUBCHEM_COMPONENT_COUNT>
1

> <PUBCHEM_CACTVS_TAUTO_COUNT>
5

> <PUBCHEM_COORDINATE_TYPE>
1
5
255

> <PUBCHEM_BONDANNOTATIONS>
14  15  8
14  16  8
15  17  8
16  18  8
17  19  8
18  19  8
4  23  8
4  6  8
5  23  8
5  25  8
6  25  8

$$$$

