5280937
  -OEChem-07051212513D

 55 55  0     1  0  0  0  0  0999 V2000
    3.1551   -3.4179   -0.9191 O   0  0  0  0  0  0  0  0  0  0  0  0
    4.5809    0.8174    0.5302 O   0  0  0  0  0  0  0  0  0  0  0  0
   -1.8961   -4.0525   -0.6179 O   0  0  0  0  0  0  0  0  0  0  0  0
   -2.7926    2.3801   -1.8557 O   0  0  0  0  0  0  0  0  0  0  0  0
   -0.7184    1.4658   -1.9564 O   0  0  0  0  0  0  0  0  0  0  0  0
    1.9804   -1.5232    0.0276 C   0  0  2  0  0  0  0  0  0  0  0  0
    2.3285   -0.0432    0.2485 C   0  0  2  0  0  0  0  0  0  0  0  0
    3.0411   -2.0047   -0.9714 C   0  0  1  0  0  0  0  0  0  0  0  0
    4.3361   -1.3455   -0.5023 C   0  0  0  0  0  0  0  0  0  0  0  0
    3.8398   -0.0786    0.1452 C   0  0  0  0  0  0  0  0  0  0  0  0
    1.8491    0.4956    1.5849 C   0  0  0  0  0  0  0  0  0  0  0  0
    0.5831   -1.7178   -0.4677 C   0  0  0  0  0  0  0  0  0  0  0  0
    2.2180    1.9164    1.9199 C   0  0  0  0  0  0  0  0  0  0  0  0
   -0.3372   -2.4596    0.1657 C   0  0  0  0  0  0  0  0  0  0  0  0
   -1.7382   -2.6608   -0.3404 C   0  0  2  0  0  0  0  0  0  0  0  0
    1.5405    3.0266    1.5903 C   0  0  0  0  0  0  0  0  0  0  0  0
   -2.7953   -2.2413    0.6904 C   0  0  0  0  0  0  0  0  0  0  0  0
    0.2608    3.0176    0.8060 C   0  0  0  0  0  0  0  0  0  0  0  0
    0.3439    3.7897   -0.5181 C   0  0  0  0  0  0  0  0  0  0  0  0
   -2.6928   -0.7910    1.0653 C   0  0  0  0  0  0  0  0  0  0  0  0
   -0.9648    3.8017   -1.3140 C   0  0  0  0  0  0  0  0  0  0  0  0
   -3.6749    0.1004    0.8670 C   0  0  0  0  0  0  0  0  0  0  0  0
   -1.4409    2.4255   -1.7254 C   0  0  0  0  0  0  0  0  0  0  0  0
   -4.9969   -0.2405    0.2465 C   0  0  0  0  0  0  0  0  0  0  0  0
   -6.0093   -0.6603    1.3009 C   0  0  0  0  0  0  0  0  0  0  0  0
    2.1136   -2.0813    0.9667 H   0  0  0  0  0  0  0  0  0  0  0  0
    1.9609    0.5759   -0.5803 H   0  0  0  0  0  0  0  0  0  0  0  0
    2.7979   -1.7033   -1.9979 H   0  0  0  0  0  0  0  0  0  0  0  0
    4.8669   -1.9543    0.2355 H   0  0  0  0  0  0  0  0  0  0  0  0
    4.9938   -1.1191   -1.3453 H   0  0  0  0  0  0  0  0  0  0  0  0
    0.7646    0.3630    1.6731 H   0  0  0  0  0  0  0  0  0  0  0  0
    2.2634   -0.1257    2.3919 H   0  0  0  0  0  0  0  0  0  0  0  0
    0.3138   -1.2248   -1.3989 H   0  0  0  0  0  0  0  0  0  0  0  0
    3.8888   -3.6719   -1.5046 H   0  0  0  0  0  0  0  0  0  0  0  0
    3.1349    2.0456    2.4920 H   0  0  0  0  0  0  0  0  0  0  0  0
   -0.0705   -2.9621    1.0927 H   0  0  0  0  0  0  0  0  0  0  0  0
   -1.9080   -2.1177   -1.2782 H   0  0  0  0  0  0  0  0  0  0  0  0
    1.9275    3.9914    1.9073 H   0  0  0  0  0  0  0  0  0  0  0  0
   -3.7825   -2.5383    0.3248 H   0  0  0  0  0  0  0  0  0  0  0  0
   -2.6625   -2.8348    1.6060 H   0  0  0  0  0  0  0  0  0  0  0  0
   -0.0868    2.0008    0.6073 H   0  0  0  0  0  0  0  0  0  0  0  0
   -0.5132    3.4793    1.4323 H   0  0  0  0  0  0  0  0  0  0  0  0
    1.1370    3.3516   -1.1378 H   0  0  0  0  0  0  0  0  0  0  0  0
    0.6391    4.8271   -0.3167 H   0  0  0  0  0  0  0  0  0  0  0  0
   -1.2616   -4.2886   -1.3164 H   0  0  0  0  0  0  0  0  0  0  0  0
   -1.7813   -0.4505    1.5494 H   0  0  0  0  0  0  0  0  0  0  0  0
   -0.8422    4.3973   -2.2249 H   0  0  0  0  0  0  0  0  0  0  0  0
   -1.7434    4.2725   -0.7022 H   0  0  0  0  0  0  0  0  0  0  0  0
   -3.5238    1.1265    1.1916 H   0  0  0  0  0  0  0  0  0  0  0  0
   -4.9111   -1.0028   -0.5338 H   0  0  0  0  0  0  0  0  0  0  0  0
   -5.3685    0.6548   -0.2675 H   0  0  0  0  0  0  0  0  0  0  0  0
   -6.1493    0.1250    2.0517 H   0  0  0  0  0  0  0  0  0  0  0  0
   -6.9800   -0.8554    0.8338 H   0  0  0  0  0  0  0  0  0  0  0  0
   -5.6949   -1.5733    1.8172 H   0  0  0  0  0  0  0  0  0  0  0  0
   -3.1031    1.4926   -2.1358 H   0  0  0  0  0  0  0  0  0  0  0  0
  1  8  1  0  0  0  0
  1 34  1  0  0  0  0
  2 10  2  0  0  0  0
  3 15  1  0  0  0  0
  3 45  1  0  0  0  0
  4 23  1  0  0  0  0
  4 55  1  0  0  0  0
  5 23  2  0  0  0  0
  6  7  1  0  0  0  0
  6  8  1  0  0  0  0
  6 12  1  0  0  0  0
  6 26  1  0  0  0  0
  7 10  1  0  0  0  0
  7 11  1  0  0  0  0
  7 27  1  0  0  0  0
  8  9  1  0  0  0  0
  8 28  1  0  0  0  0
  9 10  1  0  0  0  0
  9 29  1  0  0  0  0
  9 30  1  0  0  0  0
 11 13  1  0  0  0  0
 11 31  1  0  0  0  0
 11 32  1  0  0  0  0
 12 14  2  0  0  0  0
 12 33  1  0  0  0  0
 13 16  2  0  0  0  0
 13 35  1  0  0  0  0
 14 15  1  0  0  0  0
 14 36  1  0  0  0  0
 15 17  1  0  0  0  0
 15 37  1  0  0  0  0
 16 18  1  0  0  0  0
 16 38  1  0  0  0  0
 17 20  1  0  0  0  0
 17 39  1  0  0  0  0
 17 40  1  0  0  0  0
 18 19  1  0  0  0  0
 18 41  1  0  0  0  0
 18 42  1  0  0  0  0
 19 21  1  0  0  0  0
 19 43  1  0  0  0  0
 19 44  1  0  0  0  0
 20 22  2  0  0  0  0
 20 46  1  0  0  0  0
 21 23  1  0  0  0  0
 21 47  1  0  0  0  0
 21 48  1  0  0  0  0
 22 24  1  0  0  0  0
 22 49  1  0  0  0  0
 24 25  1  0  0  0  0
 24 50  1  0  0  0  0
 24 51  1  0  0  0  0
 25 52  1  0  0  0  0
 25 53  1  0  0  0  0
 25 54  1  0  0  0  0
M  END
> <PUBCHEM_COMPOUND_CID>
5280937

> <PUBCHEM_CONFORMER_RMSD>
1.2

> <PUBCHEM_CONFORMER_DIVERSEORDER>
1
196
31
94
59
327
77
241
95
150
79
48
350
358
6
354
112
161
189
88
153
136
115
185
352
305
271
190
90
187
105
3
300
74
262
19
64
107
68
342
75
25
9
299
333
20
345
194
219
223
82
14
216
98
165
49
123
73
293
302
122
208
228
134
286
26
274
54
325
132
159
337
99
199
12
211
209
50
42
284
315
97
264
247
142
16
268
297
244
101
166
55
83
256
126
238
249
226
158
329
231
81
205
188
335
10
197
332
276
198
129
65
263
281
7
164
339
283
275
108
80
46
119
361
13
89
141
348
113
11
365
102
151
35
212
344
111
169
207
323
181
100
178
109
183
240
259
131
272
52
310
353
237
311
221
180
96
22
340
251
8
308
200
220
162
280
137
182
4
78
218
84
195
154
32
313
40
317
175
318
140
184
170
322
356
38
267
60
5
349
118
320
278
148
104
261
145
224
66
298
254
321
334
248
319
277
76
125
258
39
222
57
130
292
172
291
176
58
252
146
135
179
304
312
359
214
128
213
201
326
93
288
72
106
270
355
364
204
227
71
331
56
239
285
309
193
289
253
120
236
85
62
290
363
357
295
347
87
351
265
287
157
171
266
21
121
51
33
191
230
314
152
156
225
282
147
203
328
91
43
110
44
366
269
17
47
69
160
127
360
346
336
234
306
174
61
139
167
341
243
296
29
246
144
338
215
116
367
229
143
186
316
2
27
294
307
173
30
138
301
368
330
202
23
242
124
233
117
41
235
133
18
37
114
155
303
67
28
255
168
149
34
70
177
232
279
15
36
210
343
53
63
250
86
362
103
192
245
324
45
257
217
24
92
273
163
260
206

> <PUBCHEM_MMFF94_PARTIAL_CHARGES>
32
1 -0.68
10 0.45
11 0.14
12 -0.29
13 -0.29
14 -0.29
15 0.42
16 -0.29
17 0.14
18 0.14
2 -0.57
20 -0.29
21 0.06
22 -0.29
23 0.66
24 0.14
3 -0.68
33 0.15
34 0.4
35 0.15
36 0.15
38 0.15
4 -0.65
45 0.4
46 0.15
49 0.15
5 -0.57
55 0.5
6 0.14
7 0.06
8 0.28
9 0.06

> <PUBCHEM_EFFECTIVE_ROTOR_COUNT>
11.8

> <PUBCHEM_PHARMACOPHORE_FEATURES>
11
1 1 acceptor
1 1 donor
1 2 acceptor
1 25 hydrophobe
1 3 acceptor
1 3 donor
1 4 acceptor
1 5 acceptor
3 4 5 23 anion
4 16 18 19 21 hydrophobe
5 6 7 8 9 10 rings

> <PUBCHEM_HEAVY_ATOM_COUNT>
25

> <PUBCHEM_ATOM_DEF_STEREO_COUNT>
4

> <PUBCHEM_ATOM_UDEF_STEREO_COUNT>
0

> <PUBCHEM_BOND_DEF_STEREO_COUNT>
3

> <PUBCHEM_BOND_UDEF_STEREO_COUNT>
0

> <PUBCHEM_ISOTOPIC_ATOM_COUNT>
0

> <PUBCHEM_COMPONENT_COUNT>
1

> <PUBCHEM_CACTVS_TAUTO_COUNT>
3

> <PUBCHEM_CONFORMER_ID>
005094A900000001

> <PUBCHEM_MMFF94_ENERGY>
26.7864

> <PUBCHEM_FEATURE_SELFOVERLAP>
55.876

> <PUBCHEM_SHAPE_FINGERPRINT>
10688039 33 18271515498333346280
11513181 2 17393032946813447174
12156800 1 17248315543903466917
12422481 6 18050027505830205768
12633257 1 18336278842033183066
13402501 40 18411419552970333689
13965767 371 16965795662121920200
15210252 30 18198326391473234812
17357779 13 18340775913684900517
20764821 26 18122632918255533881
21033648 29 18334018298346390067
23536364 44 17469026118158982902
238 59 17691147232266162765
35225 105 17343259416680746677
3524813 1 18410576214561367851
4409770 3 18267307723638232474
5282274 181 18194128417154752201
5283178 26 18334570270041772053
6287921 2 17832419796073851162

> <PUBCHEM_SHAPE_MULTIPOLES>
485.14
8.65
5.41
1.71
6.71
1.95
0.13
-4.08
-2.36
-0.22
1.89
0.27
1.48
2.48

> <PUBCHEM_SHAPE_SELFOVERLAP>
958.671

> <PUBCHEM_SHAPE_VOLUME>
288.4

> <PUBCHEM_COORDINATE_TYPE>
2
5
10

$$$$

