10613
  -OEChem-06261204453D

 18 18  0     0  0  0  0  0  0999 V2000
   -0.4549    1.9340    0.0006 O   0  0  0  0  0  0  0  0  0  0  0  0
    2.5018   -1.8404   -0.0003 O   0  0  0  0  0  0  0  0  0  0  0  0
    3.3143    0.4622    0.0004 O   0  5  0  0  0  0  0  0  0  0  0  0
    1.9549    2.1858   -0.0004 O   0  0  0  0  0  0  0  0  0  0  0  0
   -3.6334   -0.5907   -0.0012 O   0  5  0  0  0  0  0  0  0  0  0  0
   -2.8557    1.4621    0.0001 O   0  0  0  0  0  0  0  0  0  0  0  0
    2.1608    0.9503   -0.0001 N   0  3  0  0  0  0  0  0  0  0  0  0
   -2.6781    0.2211   -0.0003 N   0  3  0  0  0  0  0  0  0  0  0  0
    1.0422    0.0682   -0.0006 C   0  0  0  0  0  0  0  0  0  0  0  0
   -0.2542    0.5827    0.0002 C   0  0  0  0  0  0  0  0  0  0  0  0
   -1.3481   -0.2828    0.0009 C   0  0  0  0  0  0  0  0  0  0  0  0
    1.2449   -1.3119   -0.0006 C   0  0  0  0  0  0  0  0  0  0  0  0
   -1.1455   -1.6630    0.0011 C   0  0  0  0  0  0  0  0  0  0  0  0
    0.1510   -2.1775    0.0002 C   0  0  0  0  0  0  0  0  0  0  0  0
   -1.9712   -2.3700    0.0016 H   0  0  0  0  0  0  0  0  0  0  0  0
    0.3022   -3.2535    0.0004 H   0  0  0  0  0  0  0  0  0  0  0  0
   -1.2935    2.1497   -0.4360 H   0  0  0  0  0  0  0  0  0  0  0  0
    3.1261   -1.2265   -0.4169 H   0  0  0  0  0  0  0  0  0  0  0  0
  1 10  1  0  0  0  0
  1 17  1  0  0  0  0
  2 12  1  0  0  0  0
  2 18  1  0  0  0  0
  3  7  1  0  0  0  0
  4  7  2  0  0  0  0
  5  8  1  0  0  0  0
  6  8  2  0  0  0  0
  7  9  1  0  0  0  0
  8 11  1  0  0  0  0
  9 10  1  0  0  0  0
  9 12  2  0  0  0  0
 10 11  2  0  0  0  0
 11 13  1  0  0  0  0
 12 14  1  0  0  0  0
 13 14  2  0  0  0  0
 13 15  1  0  0  0  0
 14 16  1  0  0  0  0
M  CHG  4   3  -1   5  -1   7   1   8   1
M  END
> <PUBCHEM_COMPOUND_CID>
10613

> <PUBCHEM_CONFORMER_RMSD>
0.6

> <PUBCHEM_CONFORMER_DIVERSEORDER>
1

> <PUBCHEM_MMFF94_PARTIAL_CHARGES>
18
1 -0.53
10 0.08
11 0.13
12 0.08
13 -0.15
14 -0.15
15 0.15
16 0.15
17 0.45
18 0.45
2 -0.53
3 -0.52
4 -0.52
5 -0.52
6 -0.52
7 0.91
8 0.91
9 0.13

> <PUBCHEM_EFFECTIVE_ROTOR_COUNT>
2

> <PUBCHEM_PHARMACOPHORE_FEATURES>
9
1 1 donor
1 2 donor
1 3 acceptor
1 3 anion
1 4 acceptor
1 5 acceptor
1 5 anion
1 6 acceptor
6 9 10 11 12 13 14 rings

> <PUBCHEM_HEAVY_ATOM_COUNT>
14

> <PUBCHEM_ATOM_DEF_STEREO_COUNT>
0

> <PUBCHEM_ATOM_UDEF_STEREO_COUNT>
0

> <PUBCHEM_BOND_DEF_STEREO_COUNT>
0

> <PUBCHEM_BOND_UDEF_STEREO_COUNT>
0

> <PUBCHEM_ISOTOPIC_ATOM_COUNT>
0

> <PUBCHEM_COMPONENT_COUNT>
1

> <PUBCHEM_CACTVS_TAUTO_COUNT>
17

> <PUBCHEM_CONFORMER_ID>
0000297500000001

> <PUBCHEM_MMFF94_ENERGY>
56.6771

> <PUBCHEM_FEATURE_SELFOVERLAP>
45.833

> <PUBCHEM_SHAPE_FINGERPRINT>
10967382 1 18410575058903837638
11206711 2 18052532458977782799
11471102 20 18339084899218901341
12423570 1 7618655341996643842
13380535 76 18411140190827655154
13897977 150 18410576154247111719
14325111 11 18410856581378409121
16945 1 18338517434817027846
193761 8 18410856589741756742
20588541 1 18411979122393998954
20645477 70 18336551616155413503
21040471 1 18338797806055754178
21501502 16 18338797934983881393
2334 1 18410856577046505573
23402655 69 18264221351992420005
23463225 33 18413393137471117210
23552423 10 18340769363769940779
23559900 14 17253431718359868782
241688 4 17328862604605366914
2748010 2 18411416224149133303
5084963 1 18042127720325288483
528862 383 18342747329095376194
528886 8 18410016494149013954
53812653 166 18261958427326974200
7364860 26 18334295396408793710

> <PUBCHEM_SHAPE_MULTIPOLES>
242.94
4.4
2.31
0.56
1.27
0.06
0
-0.78
0
-0.65
0
0
0.04
0

> <PUBCHEM_SHAPE_SELFOVERLAP>
523.378

> <PUBCHEM_SHAPE_VOLUME>
133.1

> <PUBCHEM_COORDINATE_TYPE>
2
5
10

$$$$

