7610
  -OEChem-07051213143D

 21 21  0     0  0  0  0  0  0999 V2000
    2.4645   -0.7117    0.0000 O   0  0  0  0  0  0  0  0  0  0  0  0
   -2.7938    1.1037   -0.0003 N   0  0  0  0  0  0  0  0  0  0  0  0
   -1.1938   -0.7392    0.0002 C   0  0  0  0  0  0  0  0  0  0  0  0
   -1.4636    0.6293   -0.0001 C   0  0  0  0  0  0  0  0  0  0  0  0
    0.1262   -1.1900    0.0006 C   0  0  0  0  0  0  0  0  0  0  0  0
    1.1765   -0.2722    0.0007 C   0  0  0  0  0  0  0  0  0  0  0  0
   -0.4131    1.5471    0.0001 C   0  0  0  0  0  0  0  0  0  0  0  0
    0.9069    1.0964    0.0004 C   0  0  0  0  0  0  0  0  0  0  0  0
   -2.2994   -1.7443   -0.0006 C   0  0  0  0  0  0  0  0  0  0  0  0
    3.4896    0.2809   -0.0010 C   0  0  0  0  0  0  0  0  0  0  0  0
    0.3484   -2.2544    0.0005 H   0  0  0  0  0  0  0  0  0  0  0  0
   -0.6103    2.6163   -0.0001 H   0  0  0  0  0  0  0  0  0  0  0  0
    1.6740    1.8632    0.0005 H   0  0  0  0  0  0  0  0  0  0  0  0
   -1.9162   -2.7708    0.0000 H   0  0  0  0  0  0  0  0  0  0  0  0
   -2.9222   -1.6312    0.8930 H   0  0  0  0  0  0  0  0  0  0  0  0
   -2.9205   -1.6317   -0.8954 H   0  0  0  0  0  0  0  0  0  0  0  0
   -2.9693    2.1000   -0.0011 H   0  0  0  0  0  0  0  0  0  0  0  0
   -3.5752    0.4633   -0.0011 H   0  0  0  0  0  0  0  0  0  0  0  0
    3.4601    0.8907    0.9085 H   0  0  0  0  0  0  0  0  0  0  0  0
    3.4588    0.8903   -0.9106 H   0  0  0  0  0  0  0  0  0  0  0  0
    4.4495   -0.2458   -0.0016 H   0  0  0  0  0  0  0  0  0  0  0  0
  1  6  1  0  0  0  0
  1 10  1  0  0  0  0
  2  4  1  0  0  0  0
  2 17  1  0  0  0  0
  2 18  1  0  0  0  0
  3  4  2  0  0  0  0
  3  5  1  0  0  0  0
  3  9  1  0  0  0  0
  4  7  1  0  0  0  0
  5  6  2  0  0  0  0
  5 11  1  0  0  0  0
  6  8  1  0  0  0  0
  7  8  2  0  0  0  0
  7 12  1  0  0  0  0
  8 13  1  0  0  0  0
  9 14  1  0  0  0  0
  9 15  1  0  0  0  0
  9 16  1  0  0  0  0
 10 19  1  0  0  0  0
 10 20  1  0  0  0  0
 10 21  1  0  0  0  0
M  END
> <PUBCHEM_COMPOUND_CID>
7610

> <PUBCHEM_CONFORMER_RMSD>
0.4

> <PUBCHEM_CONFORMER_DIVERSEORDER>
1
2

> <PUBCHEM_MMFF94_PARTIAL_CHARGES>
15
1 -0.36
10 0.28
11 0.15
12 0.15
13 0.15
17 0.4
18 0.4
2 -0.9
3 -0.14
4 0.1
5 -0.15
6 0.08
7 -0.15
8 -0.15
9 0.14

> <PUBCHEM_EFFECTIVE_ROTOR_COUNT>
1

> <PUBCHEM_PHARMACOPHORE_FEATURES>
4
1 1 acceptor
1 2 cation
1 2 donor
6 3 4 5 6 7 8 rings

> <PUBCHEM_HEAVY_ATOM_COUNT>
10

> <PUBCHEM_ATOM_DEF_STEREO_COUNT>
0

> <PUBCHEM_ATOM_UDEF_STEREO_COUNT>
0

> <PUBCHEM_BOND_DEF_STEREO_COUNT>
0

> <PUBCHEM_BOND_UDEF_STEREO_COUNT>
0

> <PUBCHEM_ISOTOPIC_ATOM_COUNT>
0

> <PUBCHEM_COMPONENT_COUNT>
1

> <PUBCHEM_CACTVS_TAUTO_COUNT>
1

> <PUBCHEM_CONFORMER_ID>
00001DBA00000001

> <PUBCHEM_MMFF94_ENERGY>
44.5546

> <PUBCHEM_FEATURE_SELFOVERLAP>
20.297

> <PUBCHEM_SHAPE_FINGERPRINT>
10857977 72 18336558118255494330
12423570 1 15014261362490030222
12932764 1 17489313018302851284
14128692 85 18266172842569320814
14325111 11 18410855469103205248
16945 1 18338799030026533477
193761 8 18050567344126204197
20871998 184 18187362103943211335
21040471 1 18266460004082861153
23235685 24 18336834202890207009
23402655 69 18049460415902818181
23552423 10 18200876158325831510
241688 4 18340771438138989721
2748010 2 18337677390801173069
29004967 10 16805318903352730830
369184 2 18060140976631672608
5084963 1 18188206481554745931
528886 8 18410017658058738393
6333449 129 18335144188966964980

> <PUBCHEM_SHAPE_MULTIPOLES>
194.94
4.16
1.69
0.6
2.31
0.03
0
-0.34
0
-0.95
0
0
0
0

> <PUBCHEM_SHAPE_SELFOVERLAP>
401.367

> <PUBCHEM_SHAPE_VOLUME>
113.7

> <PUBCHEM_COORDINATE_TYPE>
2
5
10

$$$$

