9860663
  -OEChem-07051213083D

 35 37  0     1  0  0  0  0  0999 V2000
   -1.1674    0.2751   -1.6439 O   0  0  0  0  0  0  0  0  0  0  0  0
   -1.3241    2.6357   -1.5423 O   0  0  0  0  0  0  0  0  0  0  0  0
   -0.4774    1.2100    2.2901 O   0  0  0  0  0  0  0  0  0  0  0  0
    5.1862   -1.1763    0.0499 O   0  0  0  0  0  0  0  0  0  0  0  0
   -5.1172   -2.0823   -0.5067 O   0  0  0  0  0  0  0  0  0  0  0  0
    0.2105    1.5293    0.0075 C   0  0  2  0  0  0  0  0  0  0  0  0
   -0.4760    1.4958   -1.3673 C   0  0  1  0  0  0  0  0  0  0  0  0
    1.5435    0.8043    0.0190 C   0  0  0  0  0  0  0  0  0  0  0  0
   -0.7112    1.0233    1.1000 C   0  0  0  0  0  0  0  0  0  0  0  0
   -1.8966    0.2510    0.6775 C   0  0  0  0  0  0  0  0  0  0  0  0
   -2.0509   -0.0906   -0.6663 C   0  0  0  0  0  0  0  0  0  0  0  0
    2.7117    1.5061    0.3055 C   0  0  0  0  0  0  0  0  0  0  0  0
    1.5928   -0.5600   -0.2570 C   0  0  0  0  0  0  0  0  0  0  0  0
   -2.8317   -0.1775    1.6242 C   0  0  0  0  0  0  0  0  0  0  0  0
   -3.1267   -0.8878   -1.0612 C   0  0  0  0  0  0  0  0  0  0  0  0
    3.9370    0.8397    0.3158 C   0  0  0  0  0  0  0  0  0  0  0  0
    2.8182   -1.2265   -0.2465 C   0  0  0  0  0  0  0  0  0  0  0  0
   -3.9174   -0.9557    1.2211 C   0  0  0  0  0  0  0  0  0  0  0  0
   -4.0624   -1.3140   -0.1186 C   0  0  0  0  0  0  0  0  0  0  0  0
    3.9903   -0.5266    0.0399 C   0  0  0  0  0  0  0  0  0  0  0  0
    5.1689   -2.5731   -0.2407 C   0  0  0  0  0  0  0  0  0  0  0  0
    0.3878    2.5875    0.2499 H   0  0  0  0  0  0  0  0  0  0  0  0
    0.2841    1.5916   -2.1511 H   0  0  0  0  0  0  0  0  0  0  0  0
    2.6864    2.5704    0.5224 H   0  0  0  0  0  0  0  0  0  0  0  0
    0.6971   -1.1323   -0.4736 H   0  0  0  0  0  0  0  0  0  0  0  0
   -2.7290    0.0771    2.6755 H   0  0  0  0  0  0  0  0  0  0  0  0
   -3.2416   -1.1714   -2.1046 H   0  0  0  0  0  0  0  0  0  0  0  0
   -1.7680    2.8174   -0.6972 H   0  0  0  0  0  0  0  0  0  0  0  0
    4.8468    1.3901    0.5395 H   0  0  0  0  0  0  0  0  0  0  0  0
    2.7875   -2.2879   -0.4674 H   0  0  0  0  0  0  0  0  0  0  0  0
   -4.6394   -1.2843    1.9641 H   0  0  0  0  0  0  0  0  0  0  0  0
   -5.6625   -2.2856    0.2726 H   0  0  0  0  0  0  0  0  0  0  0  0
    4.8147   -2.7679   -1.2587 H   0  0  0  0  0  0  0  0  0  0  0  0
    4.6018   -3.1333    0.5105 H   0  0  0  0  0  0  0  0  0  0  0  0
    6.2039   -2.9269   -0.1892 H   0  0  0  0  0  0  0  0  0  0  0  0
  1  7  1  0  0  0  0
  1 11  1  0  0  0  0
  2  7  1  0  0  0  0
  2 28  1  0  0  0  0
  3  9  2  0  0  0  0
  4 20  1  0  0  0  0
  4 21  1  0  0  0  0
  5 19  1  0  0  0  0
  5 32  1  0  0  0  0
  6  7  1  0  0  0  0
  6  8  1  0  0  0  0
  6  9  1  0  0  0  0
  6 22  1  0  0  0  0
  7 23  1  0  0  0  0
  8 12  2  0  0  0  0
  8 13  1  0  0  0  0
  9 10  1  0  0  0  0
 10 11  2  0  0  0  0
 10 14  1  0  0  0  0
 11 15  1  0  0  0  0
 12 16  1  0  0  0  0
 12 24  1  0  0  0  0
 13 17  2  0  0  0  0
 13 25  1  0  0  0  0
 14 18  2  0  0  0  0
 14 26  1  0  0  0  0
 15 19  2  0  0  0  0
 15 27  1  0  0  0  0
 16 20  2  0  0  0  0
 16 29  1  0  0  0  0
 17 20  1  0  0  0  0
 17 30  1  0  0  0  0
 18 19  1  0  0  0  0
 18 31  1  0  0  0  0
 21 33  1  0  0  0  0
 21 34  1  0  0  0  0
 21 35  1  0  0  0  0
M  END
> <PUBCHEM_COMPOUND_CID>
9860663

> <PUBCHEM_CONFORMER_RMSD>
0.6

> <PUBCHEM_CONFORMER_DIVERSEORDER>
4
10
14
7
6
12
3
11
1
15
5
9
13
2
8

> <PUBCHEM_MMFF94_PARTIAL_CHARGES>
30
1 -0.36
10 0.09
11 0.08
12 -0.15
13 -0.15
14 -0.15
15 -0.15
16 -0.15
17 -0.15
18 -0.15
19 0.08
2 -0.68
20 0.08
21 0.28
24 0.15
25 0.15
26 0.15
27 0.15
28 0.4
29 0.15
3 -0.57
30 0.15
31 0.15
32 0.45
4 -0.36
5 -0.53
6 0.2
7 0.56
8 -0.14
9 0.42

> <PUBCHEM_EFFECTIVE_ROTOR_COUNT>
2.6

> <PUBCHEM_PHARMACOPHORE_FEATURES>
9
1 1 acceptor
1 2 acceptor
1 2 donor
1 3 acceptor
1 4 acceptor
1 5 donor
6 1 6 7 9 10 11 rings
6 10 11 14 15 18 19 rings
6 8 12 13 16 17 20 rings

> <PUBCHEM_HEAVY_ATOM_COUNT>
21

> <PUBCHEM_ATOM_DEF_STEREO_COUNT>
0

> <PUBCHEM_ATOM_UDEF_STEREO_COUNT>
2

> <PUBCHEM_BOND_DEF_STEREO_COUNT>
0

> <PUBCHEM_BOND_UDEF_STEREO_COUNT>
0

> <PUBCHEM_ISOTOPIC_ATOM_COUNT>
0

> <PUBCHEM_COMPONENT_COUNT>
1

> <PUBCHEM_CACTVS_TAUTO_COUNT>
9

> <PUBCHEM_CONFORMER_ID>
0096763700000004

> <PUBCHEM_MMFF94_ENERGY>
67.1769

> <PUBCHEM_FEATURE_SELFOVERLAP>
45.735

> <PUBCHEM_SHAPE_FINGERPRINT>
10610426 29 18334857182420881249
10948715 1 9511473225086351669
11132069 177 14562522977539582953
11578080 2 18042145205507137089
12236239 1 17822284639517216969
12363563 72 17917986166011182964
12633257 1 14057014814404388258
12916754 54 18411136970087187540
13103583 49 17603574210721744379
13544653 18 18410006615766385625
13583140 156 16153997953158715106
14341114 328 17385712574067425547
14787075 74 17460596909732562480
15209289 33 18113897182620012266
15375462 189 17677052339079752256
15475509 35 17682678424785709739
15475509 8 17775292694542928853
15848702 151 18271807861474223305
16752209 62 16200161992475351696
16945 1 18263919930438675313
17357779 13 17917994962130624556
17780758 139 17605841541522241858
17870717 6 16630521851720075939
1813 80 18336813234923178668
18186145 218 15626221282389572757
193927 3 18336253587720726338
19862831 5 14692567719614803824
200 152 18333736818483977994
20028762 73 17967534566944492902
20871999 31 16200152109755272446
21065198 48 17895186684270775249
21637258 2 18334865991325023603
221490 88 18340209682808708956
22620623 9 17988371467609845197
23175994 123 17846214419770147941
23402539 116 17131833200525844900
23557571 272 17774735181237875740
23559900 14 16056603102187255076
23598288 3 17386564798948512296
2838139 119 9727366700923862379
2871803 45 18059860571144309098
3286 77 18333730204519302376
4072396 5 16588295078223063373
5104073 3 17821446876461286970
76465 3 18270969041666544306
7970288 3 18334576884440017054
83771 10 18335139773745930881
90316 7 17240751900484272857

> <PUBCHEM_SHAPE_MULTIPOLES>
402.82
9.63
2.21
1.47
4.9
0.17
-0.23
8.33
-0.37
0.85
0.49
-1.38
-0.56
0.24

> <PUBCHEM_SHAPE_SELFOVERLAP>
886.035

> <PUBCHEM_SHAPE_VOLUME>
214.7

> <PUBCHEM_COORDINATE_TYPE>
2
5
10

$$$$

