656874
  -OEChem-07051213043D

 25 26  0     1  0  0  0  0  0999 V2000
    0.5322   -0.5979   -0.3349 O   0  0  0  0  0  0  0  0  0  0  0  0
    2.4213   -0.5144   -1.7212 O   0  0  0  0  0  0  0  0  0  0  0  0
    2.2314   -0.1022    1.7862 O   0  0  0  0  0  0  0  0  0  0  0  0
    3.6403   -1.2909    0.4452 O   0  0  0  0  0  0  0  0  0  0  0  0
   -3.1374   -2.2146   -0.4743 O   0  0  0  0  0  0  0  0  0  0  0  0
   -1.0496   -2.6462    0.3140 O   0  0  0  0  0  0  0  0  0  0  0  0
    1.8264   -0.0224   -0.5264 C   0  0  1  0  0  0  0  0  0  0  0  0
   -0.5320    0.2337   -0.1213 C   0  0  0  0  0  0  0  0  0  0  0  0
   -0.4245    1.6257   -0.0608 C   0  0  0  0  0  0  0  0  0  0  0  0
    1.9296    1.4726   -0.4578 C   0  0  0  0  0  0  0  0  0  0  0  0
    0.8728    2.2577   -0.2355 C   0  0  0  0  0  0  0  0  0  0  0  0
   -1.7751   -0.3823    0.0445 C   0  0  0  0  0  0  0  0  0  0  0  0
   -1.5708    2.3964    0.1662 C   0  0  0  0  0  0  0  0  0  0  0  0
   -2.9135    0.3904    0.2698 C   0  0  0  0  0  0  0  0  0  0  0  0
   -2.8116    1.7788    0.3309 C   0  0  0  0  0  0  0  0  0  0  0  0
    2.6772   -0.5523    0.5878 C   0  0  0  0  0  0  0  0  0  0  0  0
   -1.9168   -1.8320   -0.0125 C   0  0  0  0  0  0  0  0  0  0  0  0
    2.9049    1.9317   -0.5996 H   0  0  0  0  0  0  0  0  0  0  0  0
    0.9643    3.3361   -0.1902 H   0  0  0  0  0  0  0  0  0  0  0  0
   -1.5109    3.4810    0.2177 H   0  0  0  0  0  0  0  0  0  0  0  0
   -3.8923   -0.0589    0.4161 H   0  0  0  0  0  0  0  0  0  0  0  0
   -3.6974    2.3813    0.5099 H   0  0  0  0  0  0  0  0  0  0  0  0
    2.6101   -1.4605   -1.5997 H   0  0  0  0  0  0  0  0  0  0  0  0
    2.7753   -0.4392    2.5297 H   0  0  0  0  0  0  0  0  0  0  0  0
   -3.2253   -3.1910   -0.5088 H   0  0  0  0  0  0  0  0  0  0  0  0
  1  7  1  0  0  0  0
  1  8  1  0  0  0  0
  2  7  1  0  0  0  0
  2 23  1  0  0  0  0
  3 16  1  0  0  0  0
  3 24  1  0  0  0  0
  4 16  2  0  0  0  0
  5 17  1  0  0  0  0
  5 25  1  0  0  0  0
  6 17  2  0  0  0  0
  7 10  1  0  0  0  0
  7 16  1  0  0  0  0
  8  9  2  0  0  0  0
  8 12  1  0  0  0  0
  9 11  1  0  0  0  0
  9 13  1  0  0  0  0
 10 11  2  0  0  0  0
 10 18  1  0  0  0  0
 11 19  1  0  0  0  0
 12 14  2  0  0  0  0
 12 17  1  0  0  0  0
 13 15  2  0  0  0  0
 13 20  1  0  0  0  0
 14 15  1  0  0  0  0
 14 21  1  0  0  0  0
 15 22  1  0  0  0  0
M  END
> <PUBCHEM_COMPOUND_CID>
656874

> <PUBCHEM_CONFORMER_RMSD>
0.6

> <PUBCHEM_CONFORMER_DIVERSEORDER>
1
2
3
4

> <PUBCHEM_MMFF94_PARTIAL_CHARGES>
25
1 -0.36
10 -0.29
11 -0.18
12 0.09
13 -0.15
14 -0.15
15 -0.15
16 0.66
17 0.63
18 0.15
19 0.15
2 -0.68
20 0.15
21 0.15
22 0.15
23 0.4
24 0.5
25 0.5
3 -0.65
4 -0.57
5 -0.65
6 -0.57
7 0.76
8 0.08
9 0.03

> <PUBCHEM_EFFECTIVE_ROTOR_COUNT>
2.4

> <PUBCHEM_PHARMACOPHORE_FEATURES>
11
1 1 acceptor
1 2 acceptor
1 2 donor
1 3 acceptor
1 4 acceptor
1 5 acceptor
1 6 acceptor
3 3 4 16 anion
3 5 6 17 anion
6 1 7 8 9 10 11 rings
6 8 9 12 13 14 15 rings

> <PUBCHEM_HEAVY_ATOM_COUNT>
17

> <PUBCHEM_ATOM_DEF_STEREO_COUNT>
0

> <PUBCHEM_ATOM_UDEF_STEREO_COUNT>
1

> <PUBCHEM_BOND_DEF_STEREO_COUNT>
0

> <PUBCHEM_BOND_UDEF_STEREO_COUNT>
0

> <PUBCHEM_ISOTOPIC_ATOM_COUNT>
0

> <PUBCHEM_COMPONENT_COUNT>
1

> <PUBCHEM_CACTVS_TAUTO_COUNT>
1

> <PUBCHEM_CONFORMER_ID>
000A05EA00000001

> <PUBCHEM_MMFF94_ENERGY>
47.0468

> <PUBCHEM_FEATURE_SELFOVERLAP>
56.028

> <PUBCHEM_SHAPE_FINGERPRINT>
10967382 1 18122903406774239101
11680611 10 18343869896102186040
12251169 10 18410857689401103744
12382932 28 18334859432688111336
12553582 1 18121213173929835287
13083527 12 17759271525065840713
13140716 1 18410005512366135137
13172582 1 18339921640167931433
13538477 17 18272083911464114516
1420 336 18412823564641351715
15001771 113 18341614763346432137
15309172 13 18194670699699223593
15375462 175 18122323925243951116
15375462 189 17917714634216137314
15669948 3 18412254051861617308
16752209 62 18269843167307887661
16945 1 18337385054042172349
17804303 29 18190743227137535858
17990270 104 18262789649543488468
1813 80 16843035588734895154
193761 8 18338513011138285317
20510252 161 18116432733342343777
20600515 1 18263363762555313876
20645476 183 17559082515436683407
20645477 70 16894269093720082007
21197605 99 4717960333420226698
21501502 16 18338230462387952765
22112679 90 18201433718427872140
23184049 29 18339081488561142039
232386 152 18342455963119920390
2334 1 18194115227330986349
23388829 49 17757284677605976253
23402539 116 18262253225761871933
23419403 2 17470223181262673893
23463225 33 18056194919451472992
23552423 10 18055626227190522293
23559900 14 18117271678880402854
257057 1 18120105987237238127
2748010 2 18265328417903153885
34934 24 17831300502111189287
43471831 8 17909265020432294267
465052 167 17844218875112273081
568465 68 17313108570485593946
6338986 31 18118981186836937039
7364860 26 18118964685530459064
74978 22 18413107260010711301
77492 1 17703500095164597550
81228 2 18408317774870589715

> <PUBCHEM_SHAPE_MULTIPOLES>
314.64
4.92
2.72
0.97
1.06
0.25
-0.05
1.35
-0.4
-1.72
0.05
0.76
0.1
-0.48

> <PUBCHEM_SHAPE_SELFOVERLAP>
693.401

> <PUBCHEM_SHAPE_VOLUME>
167.4

> <PUBCHEM_COORDINATE_TYPE>
2
5
10

$$$$

