441075
  -OEChem-07051212513D

 45 48  0     1  0  0  0  0  0999 V2000
   -0.0618    1.6302    2.4497 O   0  0  0  0  0  0  0  0  0  0  0  0
    2.3058   -3.6052    0.6695 O   0  0  0  0  0  0  0  0  0  0  0  0
   -1.4074    0.6891   -0.9100 N   0  0  1  0  0  0  0  0  0  0  0  0
    3.5433    1.5480   -0.9042 N   0  0  0  0  0  0  0  0  0  0  0  0
   -3.6563    0.4454    0.3701 C   0  0  2  0  0  0  0  0  0  0  0  0
   -1.3157    1.3758    0.4060 C   0  0  1  0  0  0  0  0  0  0  0  0
   -2.6359    1.2485    1.2004 C   0  0  0  0  0  0  0  0  0  0  0  0
   -3.0171   -0.9390    0.1101 C   0  0  2  0  0  0  0  0  0  0  0  0
   -3.8505    1.1978   -0.9594 C   0  0  0  0  0  0  0  0  0  0  0  0
   -1.7475   -0.7447   -0.7474 C   0  0  0  0  0  0  0  0  0  0  0  0
   -2.5010    1.3221   -1.6842 C   0  0  0  0  0  0  0  0  0  0  0  0
   -0.1112    0.9053    1.2250 C   0  0  1  0  0  0  0  0  0  0  0  0
   -3.9747   -1.9028   -0.5239 C   0  0  0  0  0  0  0  0  0  0  0  0
    1.1841    1.0941    0.4765 C   0  0  0  0  0  0  0  0  0  0  0  0
    2.0331    0.0238    0.1928 C   0  0  0  0  0  0  0  0  0  0  0  0
   -4.3833   -3.0644    0.0011 C   0  0  0  0  0  0  0  0  0  0  0  0
    1.5013    2.3794    0.0794 C   0  0  0  0  0  0  0  0  0  0  0  0
    3.2234    0.3003   -0.5120 C   0  0  0  0  0  0  0  0  0  0  0  0
    1.7307   -1.2908    0.5865 C   0  0  0  0  0  0  0  0  0  0  0  0
    2.6873    2.5518   -0.6050 C   0  0  0  0  0  0  0  0  0  0  0  0
    4.0762   -0.7620   -0.7992 C   0  0  0  0  0  0  0  0  0  0  0  0
    2.6015   -2.3341    0.2859 C   0  0  0  0  0  0  0  0  0  0  0  0
    3.7757   -2.0690   -0.4078 C   0  0  0  0  0  0  0  0  0  0  0  0
   -4.6053    0.3582    0.9109 H   0  0  0  0  0  0  0  0  0  0  0  0
   -1.1936    2.4512    0.2158 H   0  0  0  0  0  0  0  0  0  0  0  0
   -3.0389    2.2462    1.4153 H   0  0  0  0  0  0  0  0  0  0  0  0
   -2.5011    0.7447    2.1637 H   0  0  0  0  0  0  0  0  0  0  0  0
   -2.7067   -1.3509    1.0813 H   0  0  0  0  0  0  0  0  0  0  0  0
   -4.2561    2.1978   -0.7624 H   0  0  0  0  0  0  0  0  0  0  0  0
   -4.5765    0.6832   -1.5980 H   0  0  0  0  0  0  0  0  0  0  0  0
   -0.9163   -1.2935   -0.2992 H   0  0  0  0  0  0  0  0  0  0  0  0
   -1.8588   -1.1954   -1.7432 H   0  0  0  0  0  0  0  0  0  0  0  0
   -2.5664    0.8641   -2.6792 H   0  0  0  0  0  0  0  0  0  0  0  0
   -2.2671    2.3785   -1.8669 H   0  0  0  0  0  0  0  0  0  0  0  0
   -0.2887   -0.1220    1.5330 H   0  0  0  0  0  0  0  0  0  0  0  0
   -4.3625   -1.6432   -1.5067 H   0  0  0  0  0  0  0  0  0  0  0  0
   -0.7050    1.2428    3.0660 H   0  0  0  0  0  0  0  0  0  0  0  0
   -5.0757   -3.7001   -0.5398 H   0  0  0  0  0  0  0  0  0  0  0  0
   -4.0363   -3.3978    0.9727 H   0  0  0  0  0  0  0  0  0  0  0  0
    0.8776    3.2382    0.2979 H   0  0  0  0  0  0  0  0  0  0  0  0
    0.8457   -1.5673    1.1452 H   0  0  0  0  0  0  0  0  0  0  0  0
    2.9978    3.5358   -0.9410 H   0  0  0  0  0  0  0  0  0  0  0  0
    5.0023   -0.5805   -1.3416 H   0  0  0  0  0  0  0  0  0  0  0  0
    4.4699   -2.8685   -0.6526 H   0  0  0  0  0  0  0  0  0  0  0  0
    3.0202   -4.1969    0.3772 H   0  0  0  0  0  0  0  0  0  0  0  0
  1 12  1  0  0  0  0
  1 37  1  0  0  0  0
  2 22  1  0  0  0  0
  2 45  1  0  0  0  0
  3  6  1  0  0  0  0
  3 10  1  0  0  0  0
  3 11  1  0  0  0  0
  4 18  2  0  0  0  0
  4 20  1  0  0  0  0
  5  7  1  0  0  0  0
  5  8  1  0  0  0  0
  5  9  1  0  0  0  0
  5 24  1  0  0  0  0
  6  7  1  0  0  0  0
  6 12  1  0  0  0  0
  6 25  1  0  0  0  0
  7 26  1  0  0  0  0
  7 27  1  0  0  0  0
  8 10  1  0  0  0  0
  8 13  1  0  0  0  0
  8 28  1  0  0  0  0
  9 11  1  0  0  0  0
  9 29  1  0  0  0  0
  9 30  1  0  0  0  0
 10 31  1  0  0  0  0
 10 32  1  0  0  0  0
 11 33  1  0  0  0  0
 11 34  1  0  0  0  0
 12 14  1  0  0  0  0
 12 35  1  0  0  0  0
 13 16  2  0  0  0  0
 13 36  1  0  0  0  0
 14 15  2  0  0  0  0
 14 17  1  0  0  0  0
 15 18  1  0  0  0  0
 15 19  1  0  0  0  0
 16 38  1  0  0  0  0
 16 39  1  0  0  0  0
 17 20  2  0  0  0  0
 17 40  1  0  0  0  0
 18 21  1  0  0  0  0
 19 22  2  0  0  0  0
 19 41  1  0  0  0  0
 20 42  1  0  0  0  0
 21 23  2  0  0  0  0
 21 43  1  0  0  0  0
 22 23  1  0  0  0  0
 23 44  1  0  0  0  0
M  END
> <PUBCHEM_COMPOUND_CID>
441075

> <PUBCHEM_CONFORMER_RMSD>
0.8

> <PUBCHEM_CONFORMER_DIVERSEORDER>
2
7
4
3
5
6
1

> <PUBCHEM_MMFF94_PARTIAL_CHARGES>
29
1 -0.68
10 0.27
11 0.27
12 0.42
13 -0.29
14 -0.14
16 -0.3
17 -0.15
18 0.31
19 -0.15
2 -0.53
20 0.16
21 -0.15
22 0.08
23 -0.15
3 -0.81
36 0.15
37 0.4
38 0.15
39 0.15
4 -0.62
40 0.15
41 0.15
42 0.15
43 0.15
44 0.15
45 0.45
6 0.27
8 0.14

> <PUBCHEM_EFFECTIVE_ROTOR_COUNT>
4.2

> <PUBCHEM_PHARMACOPHORE_FEATURES>
9
1 1 acceptor
1 1 donor
1 16 hydrophobe
1 2 donor
1 3 cation
1 4 acceptor
6 15 18 19 21 22 23 rings
6 4 14 15 17 18 20 rings
8 3 5 6 7 8 9 10 11 rings

> <PUBCHEM_HEAVY_ATOM_COUNT>
23

> <PUBCHEM_ATOM_DEF_STEREO_COUNT>
3

> <PUBCHEM_ATOM_UDEF_STEREO_COUNT>
1

> <PUBCHEM_BOND_DEF_STEREO_COUNT>
0

> <PUBCHEM_BOND_UDEF_STEREO_COUNT>
0

> <PUBCHEM_ISOTOPIC_ATOM_COUNT>
0

> <PUBCHEM_COMPONENT_COUNT>
1

> <PUBCHEM_CACTVS_TAUTO_COUNT>
3

> <PUBCHEM_CONFORMER_ID>
0006BAF300000002

> <PUBCHEM_MMFF94_ENERGY>
77.0559

> <PUBCHEM_FEATURE_SELFOVERLAP>
45.7

> <PUBCHEM_SHAPE_FINGERPRINT>
10498660 4 13470685944956520359
10616163 171 18335416876683804983
11578080 2 17825974760050799896
12363563 72 16661224640204911193
12553582 1 18050844713362151802
12596599 1 18189037849953194038
12633257 1 18040983065040173307
12788726 201 17532079678327590881
13004483 165 17479750750286272850
13009979 54 17896591972312133410
13103583 49 17315892414058968195
13224815 77 18335707121730013273
13911987 19 18057575769461421948
14178342 30 18336560381682238616
15664445 248 17701271217855531309
16752209 62 17313668273327980753
19422 9 18333723602906635365
19930381 70 18198904704066264365
20281475 54 18335137587955763025
20291156 8 18262798600503330834
20626108 58 18129403590837632562
20775530 9 18410297969601212167
21634736 98 18409163333667092286
21713013 43 18413390921331205405
221490 88 18341044142866432162
22393880 68 18411978070596477884
2255824 54 18412820275176450844
23379529 103 18187915235939608574
235170 7 17631188402372231303
23557571 272 16486387929081089361
23559900 14 18338248114761431665
23598288 3 17749379412615139241
238 59 18059286544549086170
2838139 119 16199567123253149110
2871803 45 18269278958876366111
3323516 105 18272365373603396008
3737641 26 18194106435628572299
4280585 95 18051410975099940086
46194498 28 17847053393827781604
6287921 2 17915448411554593452
633830 44 16630520747982020301
6433294 58 18338798905568155055
9709674 26 18272367529809120307

> <PUBCHEM_SHAPE_MULTIPOLES>
451.63
8.4
3.38
1.32
2.2
2.2
0.32
3.97
-2.18
-0.84
0.22
0.4
-0.66
-0.35

> <PUBCHEM_SHAPE_SELFOVERLAP>
991.124

> <PUBCHEM_SHAPE_VOLUME>
239.1

> <PUBCHEM_COORDINATE_TYPE>
2
5
10

$$$$

