52940204
  -OEChem-07051213153D

 65 67  0     1  0  0  0  0  0999 V2000
    0.6824   -0.7308   -1.1938 O   0  0  0  0  0  0  0  0  0  0  0  0
   -2.1138    0.4121    0.9189 O   0  0  0  0  0  0  0  0  0  0  0  0
    2.3148   -0.3838    0.4934 O   0  0  0  0  0  0  0  0  0  0  0  0
   -3.7300    0.0890   -0.7327 O   0  0  0  0  0  0  0  0  0  0  0  0
    6.2915    0.6021    0.2089 O   0  0  0  0  0  0  0  0  0  0  0  0
   -1.3102   -2.0005    2.2149 O   0  0  0  0  0  0  0  0  0  0  0  0
    0.0643   -3.2113    0.1197 O   0  0  0  0  0  0  0  0  0  0  0  0
    3.0872    2.1659   -0.6282 O   0  0  0  0  0  0  0  0  0  0  0  0
   -4.1632    1.0113    2.7761 O   0  0  0  0  0  0  0  0  0  0  0  0
    4.3132   -2.4471   -0.1625 O   0  0  0  0  0  0  0  0  0  0  0  0
   -6.5571    2.1100    1.4560 O   0  0  0  0  0  0  0  0  0  0  0  0
   -7.3786    0.4070   -0.7305 O   0  0  0  0  0  0  0  0  0  0  0  0
    6.9389   -1.6212    0.4941 O   0  0  0  0  0  0  0  0  0  0  0  0
    7.2173    3.0811   -0.5343 O   0  0  0  0  0  0  0  0  0  0  0  0
   -4.2744   -1.3249   -3.0260 O   0  0  0  0  0  0  0  0  0  0  0  0
   -1.2403   -0.5325    0.3051 C   0  0  2  0  0  0  0  0  0  0  0  0
   -0.4325   -1.2197    1.4068 C   0  0  2  0  0  0  0  0  0  0  0  0
    0.6582   -2.1112    0.8110 C   0  0  2  0  0  0  0  0  0  0  0  0
   -0.2968    0.1759   -0.6768 C   0  0  2  0  0  0  0  0  0  0  0  0
    1.5087   -1.3353   -0.1931 C   0  0  1  0  0  0  0  0  0  0  0  0
    3.5502   -0.1579   -0.1872 C   0  0  1  0  0  0  0  0  0  0  0  0
   -3.4822    0.0908    0.6713 C   0  0  2  0  0  0  0  0  0  0  0  0
    3.9715    1.2897    0.0657 C   0  0  1  0  0  0  0  0  0  0  0  0
   -4.3461    1.1430    1.3667 C   0  0  1  0  0  0  0  0  0  0  0  0
    4.6028   -1.1389    0.3294 C   0  0  2  0  0  0  0  0  0  0  0  0
   -5.8256    0.9603    1.0276 C   0  0  2  0  0  0  0  0  0  0  0  0
    5.4039    1.5307   -0.4166 C   0  0  1  0  0  0  0  0  0  0  0  0
   -6.0326    0.8023   -0.4788 C   0  0  1  0  0  0  0  0  0  0  0  0
   -5.0807   -0.2511   -1.0504 C   0  0  1  0  0  0  0  0  0  0  0  0
    6.0041   -0.7497   -0.1411 C   0  0  1  0  0  0  0  0  0  0  0  0
   -1.0463    0.7529   -1.8746 C   0  0  0  0  0  0  0  0  0  0  0  0
    5.8880    2.9349   -0.0694 C   0  0  0  0  0  0  0  0  0  0  0  0
   -5.1867   -0.3433   -2.5693 C   0  0  0  0  0  0  0  0  0  0  0  0
   -1.7999   -1.3135   -0.2297 H   0  0  0  0  0  0  0  0  0  0  0  0
    0.0123   -0.4604    2.0620 H   0  0  0  0  0  0  0  0  0  0  0  0
    1.2733   -2.5237    1.6189 H   0  0  0  0  0  0  0  0  0  0  0  0
    0.2147    1.0089   -0.1775 H   0  0  0  0  0  0  0  0  0  0  0  0
    2.1167   -2.0609   -0.7386 H   0  0  0  0  0  0  0  0  0  0  0  0
    3.3972   -0.2903   -1.2682 H   0  0  0  0  0  0  0  0  0  0  0  0
   -3.6824   -0.9055    1.0889 H   0  0  0  0  0  0  0  0  0  0  0  0
    3.8817    1.5131    1.1358 H   0  0  0  0  0  0  0  0  0  0  0  0
   -4.0119    2.1519    1.0973 H   0  0  0  0  0  0  0  0  0  0  0  0
    4.5634   -1.1957    1.4237 H   0  0  0  0  0  0  0  0  0  0  0  0
   -6.2499    0.1084    1.5718 H   0  0  0  0  0  0  0  0  0  0  0  0
   -5.8769    1.7678   -0.9755 H   0  0  0  0  0  0  0  0  0  0  0  0
    5.4798    1.4054   -1.5054 H   0  0  0  0  0  0  0  0  0  0  0  0
   -5.2962   -1.2448   -0.6345 H   0  0  0  0  0  0  0  0  0  0  0  0
    6.1115   -0.8877   -1.2246 H   0  0  0  0  0  0  0  0  0  0  0  0
   -1.5828   -0.0310   -2.4195 H   0  0  0  0  0  0  0  0  0  0  0  0
   -0.3372    1.1924   -2.5853 H   0  0  0  0  0  0  0  0  0  0  0  0
   -1.7498    1.5345   -1.5750 H   0  0  0  0  0  0  0  0  0  0  0  0
   -0.7713   -2.4293    2.9014 H   0  0  0  0  0  0  0  0  0  0  0  0
    5.2651    3.7021   -0.5391 H   0  0  0  0  0  0  0  0  0  0  0  0
    5.8952    3.0880    1.0149 H   0  0  0  0  0  0  0  0  0  0  0  0
   -6.1951   -0.6263   -2.8856 H   0  0  0  0  0  0  0  0  0  0  0  0
   -4.9135    0.6084   -3.0373 H   0  0  0  0  0  0  0  0  0  0  0  0
    0.7837   -3.7897   -0.1860 H   0  0  0  0  0  0  0  0  0  0  0  0
    3.1641    1.9802   -1.5796 H   0  0  0  0  0  0  0  0  0  0  0  0
   -4.4529    0.1201    3.0358 H   0  0  0  0  0  0  0  0  0  0  0  0
    4.3934   -2.4292   -1.1316 H   0  0  0  0  0  0  0  0  0  0  0  0
   -6.1909    2.8880    1.0020 H   0  0  0  0  0  0  0  0  0  0  0  0
   -7.5228   -0.4556   -0.3055 H   0  0  0  0  0  0  0  0  0  0  0  0
    7.7333   -1.6443   -0.0660 H   0  0  0  0  0  0  0  0  0  0  0  0
    7.5063    3.9794   -0.2998 H   0  0  0  0  0  0  0  0  0  0  0  0
   -4.3524   -1.3611   -3.9945 H   0  0  0  0  0  0  0  0  0  0  0  0
  1 19  1  0  0  0  0
  1 20  1  0  0  0  0
  2 16  1  0  0  0  0
  2 22  1  0  0  0  0
  3 20  1  0  0  0  0
  3 21  1  0  0  0  0
  4 22  1  0  0  0  0
  4 29  1  0  0  0  0
  5 27  1  0  0  0  0
  5 30  1  0  0  0  0
  6 17  1  0  0  0  0
  6 52  1  0  0  0  0
  7 18  1  0  0  0  0
  7 57  1  0  0  0  0
  8 23  1  0  0  0  0
  8 58  1  0  0  0  0
  9 24  1  0  0  0  0
  9 59  1  0  0  0  0
 10 25  1  0  0  0  0
 10 60  1  0  0  0  0
 11 26  1  0  0  0  0
 11 61  1  0  0  0  0
 12 28  1  0  0  0  0
 12 62  1  0  0  0  0
 13 30  1  0  0  0  0
 13 63  1  0  0  0  0
 14 32  1  0  0  0  0
 14 64  1  0  0  0  0
 15 33  1  0  0  0  0
 15 65  1  0  0  0  0
 16 17  1  0  0  0  0
 16 19  1  0  0  0  0
 16 34  1  0  0  0  0
 17 18  1  0  0  0  0
 17 35  1  0  0  0  0
 18 20  1  0  0  0  0
 18 36  1  0  0  0  0
 19 31  1  0  0  0  0
 19 37  1  0  0  0  0
 20 38  1  0  0  0  0
 21 23  1  0  0  0  0
 21 25  1  0  0  0  0
 21 39  1  0  0  0  0
 22 24  1  0  0  0  0
 22 40  1  0  0  0  0
 23 27  1  0  0  0  0
 23 41  1  0  0  0  0
 24 26  1  0  0  0  0
 24 42  1  0  0  0  0
 25 30  1  0  0  0  0
 25 43  1  0  0  0  0
 26 28  1  0  0  0  0
 26 44  1  0  0  0  0
 27 32  1  0  0  0  0
 27 46  1  0  0  0  0
 28 29  1  0  0  0  0
 28 45  1  0  0  0  0
 29 33  1  0  0  0  0
 29 47  1  0  0  0  0
 30 48  1  0  0  0  0
 31 49  1  0  0  0  0
 31 50  1  0  0  0  0
 31 51  1  0  0  0  0
 32 53  1  0  0  0  0
 32 54  1  0  0  0  0
 33 55  1  0  0  0  0
 33 56  1  0  0  0  0
M  END
> <PUBCHEM_COMPOUND_CID>
52940204

> <PUBCHEM_CONFORMER_RMSD>
1

> <PUBCHEM_CONFORMER_DIVERSEORDER>
1
58
119
66
42
85
120
11
92
72
43
123
128
109
46
101
7
39
77
37
84
102
114
80
64
121
47
129
117
61
50
6
112
57
23
17
89
122
110
54
96
70
60
20
44
56
98
62
45
12
71
104
118
88
90
29
26
74
108
79
41
115
105
16
97
21
33
59
2
15
24
18
55
53
87
13
93
4
73
91
32
113
106
51
36
125
86
8
76
35
48
107
52
68
126
40
28
78
124
22
34
14
49
65
81
9
127
27
5
94
38
82
75
25
10
19
63
69
100
103
111
30
99
31
95
116
83
3
67

> <PUBCHEM_MMFF94_PARTIAL_CHARGES>
42
1 -0.56
10 -0.68
11 -0.68
12 -0.68
13 -0.68
14 -0.68
15 -0.68
16 0.28
17 0.28
18 0.28
19 0.28
2 -0.56
20 0.56
21 0.28
22 0.56
23 0.28
24 0.28
25 0.28
26 0.28
27 0.28
28 0.28
29 0.28
3 -0.56
30 0.56
32 0.28
33 0.28
4 -0.56
5 -0.56
52 0.4
57 0.4
58 0.4
59 0.4
6 -0.68
60 0.4
61 0.4
62 0.4
63 0.4
64 0.4
65 0.4
7 -0.68
8 -0.68
9 -0.68

> <PUBCHEM_EFFECTIVE_ROTOR_COUNT>
9.6

> <PUBCHEM_PHARMACOPHORE_FEATURES>
28
1 1 acceptor
1 10 acceptor
1 10 donor
1 11 acceptor
1 11 donor
1 12 acceptor
1 12 donor
1 13 acceptor
1 13 donor
1 14 acceptor
1 14 donor
1 15 acceptor
1 15 donor
1 2 acceptor
1 3 acceptor
1 4 acceptor
1 5 acceptor
1 6 acceptor
1 6 donor
1 7 acceptor
1 7 donor
1 8 acceptor
1 8 donor
1 9 acceptor
1 9 donor
6 1 16 17 18 19 20 rings
6 4 22 24 26 28 29 rings
6 5 21 23 25 27 30 rings

> <PUBCHEM_HEAVY_ATOM_COUNT>
33

> <PUBCHEM_ATOM_DEF_STEREO_COUNT>
15

> <PUBCHEM_ATOM_UDEF_STEREO_COUNT>
0

> <PUBCHEM_BOND_DEF_STEREO_COUNT>
0

> <PUBCHEM_BOND_UDEF_STEREO_COUNT>
0

> <PUBCHEM_ISOTOPIC_ATOM_COUNT>
0

> <PUBCHEM_COMPONENT_COUNT>
1

> <PUBCHEM_CACTVS_TAUTO_COUNT>
1

> <PUBCHEM_CONFORMER_ID>
0327CDAC00000001

> <PUBCHEM_MMFF94_ENERGY>
97.5963

> <PUBCHEM_FEATURE_SELFOVERLAP>
142.259

> <PUBCHEM_SHAPE_FINGERPRINT>
10 15 16271922688477671268
10319926 262 15267058134265189013
10554248 39 18410289216779097094
11273773 42 18260828142739109492
12035758 1 16988836173237370269
12236239 1 18040156227278048509
12403259 415 17632579378664063367
12516196 113 9511456719300257802
13685833 64 7493282244649939905
14415360 78 18124041131075129860
15183329 4 17168137931961252520
15419008 47 16917069983692344445
15461852 350 16950565459572699582
1577012 14 18186236212958735812
20157964 124 18410009949114876258
20511986 3 18187654647720653857
21033648 144 18272654515128528166
21033648 29 17060625498795209975
21859007 373 17060074669561433804
22182313 1 16916502700507368911
22224240 67 18060418019476603099
23081809 10 18114186323822702476
23559900 14 18202282481506834826
249057 25 17894906390731863736
2838139 119 18412828014211509504
335352 9 18411414034718314158
394071 54 18201435857659559740
397830 11 17488730177934149408
5104073 3 18130505224659294394
6608658 132 17676757734541772105

> <PUBCHEM_SHAPE_MULTIPOLES>
591.08
19.47
2.62
1.92
4.42
0.17
-0.4
10.51
-1.22
4.53
0.38
-4.5
-0.18
-1.92

> <PUBCHEM_SHAPE_SELFOVERLAP>
1221.013

> <PUBCHEM_SHAPE_VOLUME>
330

> <PUBCHEM_COORDINATE_TYPE>
2
5
10

$$$$

