586280
  -OEChem-06241222463D

 34 35  0     0  0  0  0  0  0999 V2000
    0.4718    0.8324   -0.5644 O   0  0  0  0  0  0  0  0  0  0  0  0
   -0.9686   -1.5163   -0.9276 O   0  0  0  0  0  0  0  0  0  0  0  0
    4.7438    0.2824   -0.3316 O   0  0  0  0  0  0  0  0  0  0  0  0
    3.7419    2.2465   -0.8950 O   0  5  0  0  0  0  0  0  0  0  0  0
   -5.7363   -0.2820    0.3029 O   0  0  0  0  0  0  0  0  0  0  0  0
    3.6068    1.1454   -0.3168 N   0  3  0  0  0  0  0  0  0  0  0  0
    4.3925   -0.8743    0.3547 N   0  0  0  0  0  0  0  0  0  0  0  0
    1.3197    1.1796    0.5285 C   0  0  0  0  0  0  0  0  0  0  0  0
    2.6554    0.5223    0.3402 C   0  0  0  0  0  0  0  0  0  0  0  0
   -0.8681    0.7977   -0.3216 C   0  0  0  0  0  0  0  0  0  0  0  0
   -1.5912   -0.3809   -0.5047 C   0  0  0  0  0  0  0  0  0  0  0  0
    3.1308   -0.7010    0.7468 C   0  0  0  0  0  0  0  0  0  0  0  0
   -1.5169    1.9535    0.1132 C   0  0  0  0  0  0  0  0  0  0  0  0
   -2.9629   -0.4039   -0.2525 C   0  0  0  0  0  0  0  0  0  0  0  0
   -3.6116    0.7519    0.1823 C   0  0  0  0  0  0  0  0  0  0  0  0
   -2.8886    1.9306    0.3652 C   0  0  0  0  0  0  0  0  0  0  0  0
    2.4494   -1.7584    1.5099 C   0  0  0  0  0  0  0  0  0  0  0  0
   -1.0290   -2.6492   -0.0631 C   0  0  0  0  0  0  0  0  0  0  0  0
   -0.2973   -3.8044   -0.7125 C   0  0  0  0  0  0  0  0  0  0  0  0
   -5.0416    0.7280    0.4459 C   0  0  0  0  0  0  0  0  0  0  0  0
    0.8859    0.8538    1.4826 H   0  0  0  0  0  0  0  0  0  0  0  0
    1.4297    2.2699    0.5642 H   0  0  0  0  0  0  0  0  0  0  0  0
   -0.9685    2.8812    0.2521 H   0  0  0  0  0  0  0  0  0  0  0  0
   -3.5276   -1.3184   -0.4142 H   0  0  0  0  0  0  0  0  0  0  0  0
   -3.3801    2.8397    0.7018 H   0  0  0  0  0  0  0  0  0  0  0  0
    2.2741   -2.6349    0.8786 H   0  0  0  0  0  0  0  0  0  0  0  0
    3.0568   -2.0720    2.3656 H   0  0  0  0  0  0  0  0  0  0  0  0
    1.4835   -1.4238    1.8989 H   0  0  0  0  0  0  0  0  0  0  0  0
   -0.5624   -2.4032    0.8969 H   0  0  0  0  0  0  0  0  0  0  0  0
   -2.0666   -2.9496    0.1171 H   0  0  0  0  0  0  0  0  0  0  0  0
   -0.3033   -4.6854   -0.0647 H   0  0  0  0  0  0  0  0  0  0  0  0
   -0.7636   -4.0660   -1.6682 H   0  0  0  0  0  0  0  0  0  0  0  0
    0.7403   -3.5321   -0.9308 H   0  0  0  0  0  0  0  0  0  0  0  0
   -5.4978    1.6724    0.7881 H   0  0  0  0  0  0  0  0  0  0  0  0
  1  8  1  0  0  0  0
  1 10  1  0  0  0  0
  2 11  1  0  0  0  0
  2 18  1  0  0  0  0
  3  6  1  0  0  0  0
  3  7  1  0  0  0  0
  4  6  1  0  0  0  0
  5 20  2  0  0  0  0
  6  9  2  0  0  0  0
  7 12  2  0  0  0  0
  8  9  1  0  0  0  0
  8 21  1  0  0  0  0
  8 22  1  0  0  0  0
  9 12  1  0  0  0  0
 10 11  2  0  0  0  0
 10 13  1  0  0  0  0
 11 14  1  0  0  0  0
 12 17  1  0  0  0  0
 13 16  2  0  0  0  0
 13 23  1  0  0  0  0
 14 15  2  0  0  0  0
 14 24  1  0  0  0  0
 15 16  1  0  0  0  0
 15 20  1  0  0  0  0
 16 25  1  0  0  0  0
 17 26  1  0  0  0  0
 17 27  1  0  0  0  0
 17 28  1  0  0  0  0
 18 19  1  0  0  0  0
 18 29  1  0  0  0  0
 18 30  1  0  0  0  0
 19 31  1  0  0  0  0
 19 32  1  0  0  0  0
 19 33  1  0  0  0  0
 20 34  1  0  0  0  0
M  CHG  2   4  -1   6   1
M  END
> <PUBCHEM_COMPOUND_CID>
586280

> <PUBCHEM_CONFORMER_RMSD>
0.8

> <PUBCHEM_CONFORMER_DIVERSEORDER>
1
34
40
43
55
18
91
72
66
61
77
92
38
26
90
33
84
45
30
22
105
59
71
108
79
82
35
19
99
102
63
53
57
8
80
27
58
97
21
28
85
20
74
24
36
107
75
68
11
54
52
100
17
70
6
29
9
39
48
49
86
88
62
67
64
4
13
106
69
25
3
12
95
73
78
83
98
89
14
7
87
101
46
51
42
56
41
37
50
76
10
23
2
81
93
32
104
15
47
5
31
103
94
96
44
65
16
60

> <PUBCHEM_MMFF94_PARTIAL_CHARGES>
23
1 -0.36
10 0.08
11 0.08
12 0.11
13 -0.15
14 -0.15
15 0.09
16 -0.15
17 0.18
18 0.28
2 -0.36
20 0.42
23 0.15
24 0.15
25 0.15
3 -0.12
34 0.06
4 -0.63
5 -0.57
6 0.95
7 -0.41
8 0.46
9 -0.26

> <PUBCHEM_EFFECTIVE_ROTOR_COUNT>
6

> <PUBCHEM_PHARMACOPHORE_FEATURES>
7
1 1 acceptor
1 2 acceptor
1 4 anion
1 5 acceptor
1 7 acceptor
5 3 6 7 9 12 rings
6 10 11 13 14 15 16 rings

> <PUBCHEM_HEAVY_ATOM_COUNT>
20

> <PUBCHEM_ATOM_DEF_STEREO_COUNT>
0

> <PUBCHEM_ATOM_UDEF_STEREO_COUNT>
0

> <PUBCHEM_BOND_DEF_STEREO_COUNT>
0

> <PUBCHEM_BOND_UDEF_STEREO_COUNT>
0

> <PUBCHEM_ISOTOPIC_ATOM_COUNT>
0

> <PUBCHEM_COMPONENT_COUNT>
1

> <PUBCHEM_CACTVS_TAUTO_COUNT>
1

> <PUBCHEM_CONFORMER_ID>
0008F22800000001

> <PUBCHEM_MMFF94_ENERGY>
51.5917

> <PUBCHEM_FEATURE_SELFOVERLAP>
35.525

> <PUBCHEM_SHAPE_FINGERPRINT>
10616163 171 18337953381521631566
11578080 2 17243307019441107834
12107183 9 17550110702470852769
12173636 292 18335711545557286924
12236239 1 18343300383386333000
12553582 1 18339376209539084728
12592029 89 18336262457070734123
12788726 201 17973734579763760855
12839892 36 18335991951778263267
14790565 3 18408315593027904905
15006816 218 18191024714503679094
15042514 8 18336825274223125335
15279307 12 18342742892800230834
15375462 189 18271253810661378136
16752209 62 18261972811256857301
20028762 73 17895761678188922367
20645477 70 18271807968658404186
20681677 155 18334576807177058416
21267235 1 18412537743294725072
23366157 5 17981877859405347047
23402539 116 18113344107102301413
23558518 356 17764311639376444892
23559900 14 17832425672042857879
2637199 183 18340762732520108810
43471831 8 18337110193494393535
44154327 71 18411700997613312886
465052 167 18131062736846397891
474229 33 18409728452847887015
5312544 6 18341617027052978235

> <PUBCHEM_SHAPE_MULTIPOLES>
372.28
9.52
2.99
0.93
1.56
2.88
0.13
-2.78
1.26
-0.29
-0.57
-0.45
0.22
-1.13

> <PUBCHEM_SHAPE_SELFOVERLAP>
782.186

> <PUBCHEM_SHAPE_VOLUME>
212

> <PUBCHEM_COORDINATE_TYPE>
2
5
10

$$$$

