3083811
  -OEChem-07051213093D

 25 26  0     0  0  0  0  0  0999 V2000
   -0.5683   -1.4028    0.4632 O   0  0  0  0  0  0  0  0  0  0  0  0
    1.0293   -2.7608   -0.3993 O   0  0  0  0  0  0  0  0  0  0  0  0
    1.1706    0.7808    0.3054 C   0  0  0  0  0  0  0  0  0  0  0  0
    1.5964   -0.4819   -0.1171 C   0  0  0  0  0  0  0  0  0  0  0  0
   -0.1768    0.9494    0.8257 C   0  0  0  0  0  0  0  0  0  0  0  0
   -0.9809   -0.1183    0.8861 C   0  0  0  0  0  0  0  0  0  0  0  0
    2.0482    1.8681    0.2224 C   0  0  0  0  0  0  0  0  0  0  0  0
    2.8910   -0.6575   -0.6195 C   0  0  0  0  0  0  0  0  0  0  0  0
    0.6811   -1.6444   -0.0367 C   0  0  0  0  0  0  0  0  0  0  0  0
   -2.3822   -0.0697    1.4000 C   0  0  0  0  0  0  0  0  0  0  0  0
    3.3389    1.6922   -0.2784 C   0  0  0  0  0  0  0  0  0  0  0  0
    3.7591    0.4316   -0.6985 C   0  0  0  0  0  0  0  0  0  0  0  0
   -3.3099    0.2180    0.3048 C   0  0  0  0  0  0  0  0  0  0  0  0
   -4.0799    0.4539   -0.5864 C   0  0  0  0  0  0  0  0  0  0  0  0
   -5.0166    0.7414   -1.6717 C   0  0  0  0  0  0  0  0  0  0  0  0
   -0.5019    1.9308    1.1518 H   0  0  0  0  0  0  0  0  0  0  0  0
    1.7385    2.8592    0.5453 H   0  0  0  0  0  0  0  0  0  0  0  0
    3.2402   -1.6309   -0.9528 H   0  0  0  0  0  0  0  0  0  0  0  0
   -2.4765    0.7002    2.1755 H   0  0  0  0  0  0  0  0  0  0  0  0
   -2.6389   -1.0207    1.8810 H   0  0  0  0  0  0  0  0  0  0  0  0
    4.0164    2.5388   -0.3408 H   0  0  0  0  0  0  0  0  0  0  0  0
    4.7640    0.2969   -1.0881 H   0  0  0  0  0  0  0  0  0  0  0  0
   -5.6168   -0.1413   -1.9120 H   0  0  0  0  0  0  0  0  0  0  0  0
   -4.4821    1.0451   -2.5769 H   0  0  0  0  0  0  0  0  0  0  0  0
   -5.6988    1.5502   -1.3930 H   0  0  0  0  0  0  0  0  0  0  0  0
  1  6  1  0  0  0  0
  1  9  1  0  0  0  0
  2  9  2  0  0  0  0
  3  4  1  0  0  0  0
  3  5  1  0  0  0  0
  3  7  2  0  0  0  0
  4  8  2  0  0  0  0
  4  9  1  0  0  0  0
  5  6  2  0  0  0  0
  5 16  1  0  0  0  0
  6 10  1  0  0  0  0
  7 11  1  0  0  0  0
  7 17  1  0  0  0  0
  8 12  1  0  0  0  0
  8 18  1  0  0  0  0
 10 13  1  0  0  0  0
 10 19  1  0  0  0  0
 10 20  1  0  0  0  0
 11 12  2  0  0  0  0
 11 21  1  0  0  0  0
 12 22  1  0  0  0  0
 13 14  3  0  0  0  0
 14 15  1  0  0  0  0
 15 23  1  0  0  0  0
 15 24  1  0  0  0  0
 15 25  1  0  0  0  0
M  END
> <PUBCHEM_COMPOUND_CID>
3083811

> <PUBCHEM_CONFORMER_RMSD>
0.4

> <PUBCHEM_CONFORMER_DIVERSEORDER>
1
8
7
2
3
6
4
5

> <PUBCHEM_MMFF94_PARTIAL_CHARGES>
20
1 -0.23
10 0.34
11 -0.15
12 -0.15
13 -0.2
14 -0.2
15 0.2
16 0.15
17 0.15
18 0.15
2 -0.57
21 0.15
22 0.15
3 0.03
4 0.09
5 -0.18
6 -0.06
7 -0.15
8 -0.15
9 0.63

> <PUBCHEM_EFFECTIVE_ROTOR_COUNT>
1

> <PUBCHEM_PHARMACOPHORE_FEATURES>
4
1 15 hydrophobe
1 2 acceptor
6 1 3 4 5 6 9 rings
6 3 4 7 8 11 12 rings

> <PUBCHEM_HEAVY_ATOM_COUNT>
15

> <PUBCHEM_ATOM_DEF_STEREO_COUNT>
0

> <PUBCHEM_ATOM_UDEF_STEREO_COUNT>
0

> <PUBCHEM_BOND_DEF_STEREO_COUNT>
0

> <PUBCHEM_BOND_UDEF_STEREO_COUNT>
0

> <PUBCHEM_ISOTOPIC_ATOM_COUNT>
0

> <PUBCHEM_COMPONENT_COUNT>
1

> <PUBCHEM_CACTVS_TAUTO_COUNT>
1

> <PUBCHEM_CONFORMER_ID>
002F0E2300000001

> <PUBCHEM_MMFF94_ENERGY>
36.0046

> <PUBCHEM_FEATURE_SELFOVERLAP>
20.323

> <PUBCHEM_SHAPE_FINGERPRINT>
10498660 4 17130442383437940557
11471102 20 18409445903654520732
11543360 7 15357688665649997712
12119455 92 18272657822374561164
12500047 106 17489583433264184034
12654215 9 18342737433664688976
12730499 353 18272367599229957243
13380535 76 18188759562248236330
13583140 156 17560516201121288761
14251717 144 18334293192784414398
14252887 29 10447938269121171928
14576447 43 17821739329511399799
14911166 2 18335406968478589484
16945 1 18263623191311439434
17357990 137 13613945760610551051
18186145 218 18335405851286049464
18915474 69 17095529482898106261
200 152 17894346700490022281
20645477 70 18410284848064244107
21499 59 18336824204179714819
21501502 16 18122055665918722081
21639500 275 18407758131730847409
23114952 82 18198627829262466215
231179 274 17988925565282104657
23402539 116 17632303354069442541
23402655 69 18334859437410554349
23419403 2 17405197187374693858
23557571 272 17489574663663463267
23598291 2 17678731474219871067
25 1 18411975875546390449
257057 1 17547573042576843378
2748010 2 18119508965297714794
3060560 45 18408889533448533468
4028521 119 17988932197413463845
4072396 5 18270414879115672186
53917941 68 18045233643516638788
603831 33 17748827445008767985
633830 44 17897135040355584625
81539 233 18273494580645807426

> <PUBCHEM_SHAPE_MULTIPOLES>
296.95
7.72
1.92
1.16
7.75
0.87
-0.08
-3.18
-3.88
-1.49
-0.17
1.2
-0.15
0.61

> <PUBCHEM_SHAPE_SELFOVERLAP>
634.652

> <PUBCHEM_SHAPE_VOLUME>
163.2

> <PUBCHEM_COORDINATE_TYPE>
2
5
10

$$$$

