443781
  -OEChem-07051213032D

 34 34  0     1  0  0  0  0  0999 V2000
    5.3979    0.1342    0.0000 P   0  0  3  0  0  0  0  0  0  0  0  0
    4.2389    1.4213    0.0000 P   0  0  3  0  0  0  0  0  0  0  0  0
    3.0800    2.7085    0.0000 P   0  0  0  0  0  0  0  0  0  0  0  0
    8.3169   -0.8742    0.0000 O   0  0  0  0  0  0  0  0  0  0  0  0
    7.2292   -3.2221    0.0000 O   0  0  0  0  0  0  0  0  0  0  0  0
    6.3490   -0.1748    0.0000 O   0  0  0  0  0  0  0  0  0  0  0  0
   10.0770   -1.1530    0.0000 O   0  0  0  0  0  0  0  0  0  0  0  0
    4.4468    0.4432    0.0000 O   0  0  0  0  0  0  0  0  0  0  0  0
    5.7069    1.0852    0.0000 O   0  0  0  0  0  0  0  0  0  0  0  0
    5.0889   -0.8169    0.0000 O   0  0  0  0  0  0  0  0  0  0  0  0
    4.0310    2.3995    0.0000 O   0  0  0  0  0  0  0  0  0  0  0  0
    3.2608    1.2134    0.0000 O   0  0  0  0  0  0  0  0  0  0  0  0
    5.2171    1.6293    0.0000 O   0  0  0  0  0  0  0  0  0  0  0  0
    2.1289    3.0175    0.0000 O   0  0  0  0  0  0  0  0  0  0  0  0
    3.3890    3.6596    0.0000 O   0  0  0  0  0  0  0  0  0  0  0  0
    2.7709    1.7574    0.0000 O   0  0  0  0  0  0  0  0  0  0  0  0
    7.5079   -1.4620    0.0000 C   0  0  1  0  0  0  0  0  0  0  0  0
    7.8169   -2.4131    0.0000 C   0  0  2  0  0  0  0  0  0  0  0  0
    8.8169   -2.4131    0.0000 C   0  0  0  0  0  0  0  0  0  0  0  0
    9.1260   -1.4620    0.0000 C   0  0  1  0  0  0  0  0  0  0  0  0
    6.5569   -1.1530    0.0000 C   0  0  0  0  0  0  0  0  0  0  0  0
    7.4109   -0.8496    0.0000 H   0  0  0  0  0  0  0  0  0  0  0  0
    7.2046   -2.3161    0.0000 H   0  0  0  0  0  0  0  0  0  0  0  0
    8.7521   -3.0297    0.0000 H   0  0  0  0  0  0  0  0  0  0  0  0
    9.4234   -2.5420    0.0000 H   0  0  0  0  0  0  0  0  0  0  0  0
    9.2230   -0.8496    0.0000 H   0  0  0  0  0  0  0  0  0  0  0  0
    5.9372   -1.1746    0.0000 H   0  0  0  0  0  0  0  0  0  0  0  0
    6.4706   -1.7670    0.0000 H   0  0  0  0  0  0  0  0  0  0  0  0
    7.4813   -3.7885    0.0000 H   0  0  0  0  0  0  0  0  0  0  0  0
   10.5378   -1.5678    0.0000 H   0  0  0  0  0  0  0  0  0  0  0  0
    6.3134    1.2141    0.0000 H   0  0  0  0  0  0  0  0  0  0  0  0
    3.0692    0.6238    0.0000 H   0  0  0  0  0  0  0  0  0  0  0  0
    2.0000    3.6240    0.0000 H   0  0  0  0  0  0  0  0  0  0  0  0
    3.9954    3.7885    0.0000 H   0  0  0  0  0  0  0  0  0  0  0  0
  1  6  1  0  0  0  0
  1  8  1  0  0  0  0
  1  9  1  0  0  0  0
  1 10  2  0  0  0  0
  2  8  1  0  0  0  0
  2 11  1  0  0  0  0
  2 12  1  0  0  0  0
  2 13  2  0  0  0  0
  3 11  1  0  0  0  0
  3 14  1  0  0  0  0
  3 15  1  0  0  0  0
  3 16  2  0  0  0  0
  4 17  1  0  0  0  0
  4 20  1  0  0  0  0
 18  5  1  6  0  0  0
  5 29  1  0  0  0  0
  6 21  1  0  0  0  0
 20  7  1  1  0  0  0
  7 30  1  0  0  0  0
  9 31  1  0  0  0  0
 12 32  1  0  0  0  0
 14 33  1  0  0  0  0
 15 34  1  0  0  0  0
 17 18  1  0  0  0  0
 17 21  1  1  0  0  0
 17 22  1  0  0  0  0
 18 19  1  0  0  0  0
 18 23  1  0  0  0  0
 19 20  1  0  0  0  0
 19 24  1  0  0  0  0
 19 25  1  0  0  0  0
 20 26  1  0  0  0  0
 21 27  1  0  0  0  0
 21 28  1  0  0  0  0
M  END
> <PUBCHEM_COMPOUND_CID>
443781

> <PUBCHEM_COMPOUND_CANONICALIZED>
1

> <PUBCHEM_CACTVS_COMPLEXITY>
498

> <PUBCHEM_CACTVS_HBOND_ACCEPTOR>
13

> <PUBCHEM_CACTVS_HBOND_DONOR>
6

> <PUBCHEM_CACTVS_ROTATABLE_BOND>
7

> <PUBCHEM_CACTVS_SUBSKEYS>
AAADccBgPAMAAAAAAAAAAAAAAAAAASAAAAAAAAAAAAAAAAAAAAAAGgAACCAACBSwgAMACAAABxAAQAAAAIAAAAAAAAAAAAAAAAAREAIAAAACQAAFAAAHAADAIAAAAAAAAAAAAAAAAAAAAAAAAAAAAAAAAA==

> <PUBCHEM_IUPAC_OPENEYE_NAME>
[[(2R,3S,5R)-3,5-dihydroxytetrahydrofuran-2-yl]methoxy-hydroxy-phosphoryl] phosphono hydrogen phosphate

> <PUBCHEM_IUPAC_CAS_NAME>
[[(2R,3S,5R)-3,5-dihydroxy-2-oxolanyl]methoxy-hydroxyphosphoryl] phosphono hydrogen phosphate

> <PUBCHEM_IUPAC_NAME>
[[(2R,3S,5R)-3,5-dihydroxyoxolan-2-yl]methoxy-hydroxyphosphoryl] phosphono hydrogen phosphate

> <PUBCHEM_IUPAC_SYSTEMATIC_NAME>
[[(2R,3S,5R)-3,5-bis(oxidanyl)oxolan-2-yl]methoxy-oxidanyl-phosphoryl] phosphono hydrogen phosphate

> <PUBCHEM_IUPAC_TRADITIONAL_NAME>
[[(2R,3S,5R)-3,5-dihydroxytetrahydrofuran-2-yl]methoxy-hydroxy-phosphoryl] phosphono hydrogen phosphate

> <PUBCHEM_IUPAC_INCHI>
InChI=1S/C5H13O13P3/c6-3-1-5(7)16-4(3)2-15-20(11,12)18-21(13,14)17-19(8,9)10/h3-7H,1-2H2,(H,11,12)(H,13,14)(H2,8,9,10)/t3-,4+,5+/m0/s1

> <PUBCHEM_IUPAC_INCHIKEY>
VGYGUKCLUFVVQO-VPENINKCSA-N

> <PUBCHEM_XLOGP3_AA>
-4.8

> <PUBCHEM_EXACT_MASS>
373.9569

> <PUBCHEM_MOLECULAR_FORMULA>
C5H13O13P3

> <PUBCHEM_MOLECULAR_WEIGHT>
374.070206

> <PUBCHEM_OPENEYE_CAN_SMILES>
C1C(C(OC1O)COP(=O)(O)OP(=O)(O)OP(=O)(O)O)O

> <PUBCHEM_OPENEYE_ISO_SMILES>
C1[C@@H]([C@H](O[C@H]1O)COP(=O)(O)OP(=O)(O)OP(=O)(O)O)O

> <PUBCHEM_CACTVS_TPSA>
210

> <PUBCHEM_MONOISOTOPIC_WEIGHT>
373.9569

> <PUBCHEM_TOTAL_CHARGE>
0

> <PUBCHEM_HEAVY_ATOM_COUNT>
21

> <PUBCHEM_ATOM_DEF_STEREO_COUNT>
3

> <PUBCHEM_ATOM_UDEF_STEREO_COUNT>
0

> <PUBCHEM_BOND_DEF_STEREO_COUNT>
0

> <PUBCHEM_BOND_UDEF_STEREO_COUNT>
0

> <PUBCHEM_ISOTOPIC_ATOM_COUNT>
0

> <PUBCHEM_COMPONENT_COUNT>
1

> <PUBCHEM_CACTVS_TAUTO_COUNT>
1

> <PUBCHEM_COORDINATE_TYPE>
1
5
255

> <PUBCHEM_BONDANNOTATIONS>
17  21  5
18  5  6
20  7  5

$$$$

