47326
  -OEChem-07051213112D

 49 51  0     1  0  0  0  0  0999 V2000
    5.4641    1.8170    0.0000 O   0  0  0  0  0  0  0  0  0  0  0  0
    4.5981    3.3170    0.0000 O   0  0  0  0  0  0  0  0  0  0  0  0
    2.8660   -1.6830    0.0000 O   0  0  0  0  0  0  0  0  0  0  0  0
    2.8660    2.3170    0.0000 N   0  0  0  0  0  0  0  0  0  0  0  0
    7.3301    3.3170    0.0000 C   0  0  0  0  0  0  0  0  0  0  0  0
    6.8301    4.1830    0.0000 C   0  0  0  0  0  0  0  0  0  0  0  0
    6.3301    3.3170    0.0000 C   0  0  0  0  0  0  0  0  0  0  0  0
    8.1962    3.8170    0.0000 C   0  0  0  0  0  0  0  0  0  0  0  0
    7.3301    2.3170    0.0000 C   0  0  0  0  0  0  0  0  0  0  0  0
    5.9641    4.6830    0.0000 C   0  0  0  0  0  0  0  0  0  0  0  0
    7.6962    4.6830    0.0000 C   0  0  0  0  0  0  0  0  0  0  0  0
    5.4641    2.8170    0.0000 C   0  0  0  0  0  0  0  0  0  0  0  0
    4.5981    1.3170    0.0000 C   0  0  3  0  0  0  0  0  0  0  0  0
    4.5981    0.3170    0.0000 C   0  0  0  0  0  0  0  0  0  0  0  0
    3.7320    1.8170    0.0000 C   0  0  0  0  0  0  0  0  0  0  0  0
    3.7320   -0.1830    0.0000 C   0  0  0  0  0  0  0  0  0  0  0  0
    5.4641   -0.1830    0.0000 C   0  0  0  0  0  0  0  0  0  0  0  0
    3.7320   -1.1830    0.0000 C   0  0  0  0  0  0  0  0  0  0  0  0
    5.4641   -1.1830    0.0000 C   0  0  0  0  0  0  0  0  0  0  0  0
    4.5981   -1.6830    0.0000 C   0  0  0  0  0  0  0  0  0  0  0  0
    2.8660   -2.6830    0.0000 C   0  0  0  0  0  0  0  0  0  0  0  0
    2.0000   -3.1830    0.0000 C   0  0  0  0  0  0  0  0  0  0  0  0
    3.7320   -3.1830    0.0000 C   0  0  0  0  0  0  0  0  0  0  0  0
    2.0000   -4.1830    0.0000 C   0  0  0  0  0  0  0  0  0  0  0  0
    3.7320   -4.1830    0.0000 C   0  0  0  0  0  0  0  0  0  0  0  0
    2.8660   -4.6830    0.0000 C   0  0  0  0  0  0  0  0  0  0  0  0
    5.8917    3.7554    0.0000 H   0  0  0  0  0  0  0  0  0  0  0  0
    8.0062    4.1461    0.0000 H   0  0  0  0  0  0  0  0  0  0  0  0
    8.2331    4.9930    0.0000 H   0  0  0  0  0  0  0  0  0  0  0  0
    7.3862    5.2200    0.0000 H   0  0  0  0  0  0  0  0  0  0  0  0
    6.2741    5.2200    0.0000 H   0  0  0  0  0  0  0  0  0  0  0  0
    5.4272    4.9930    0.0000 H   0  0  0  0  0  0  0  0  0  0  0  0
    5.6541    4.1461    0.0000 H   0  0  0  0  0  0  0  0  0  0  0  0
    6.7101    2.3170    0.0000 H   0  0  0  0  0  0  0  0  0  0  0  0
    7.3301    1.6970    0.0000 H   0  0  0  0  0  0  0  0  0  0  0  0
    7.9501    2.3170    0.0000 H   0  0  0  0  0  0  0  0  0  0  0  0
    8.5062    3.2800    0.0000 H   0  0  0  0  0  0  0  0  0  0  0  0
    8.7331    4.1270    0.0000 H   0  0  0  0  0  0  0  0  0  0  0  0
    7.8862    4.3539    0.0000 H   0  0  0  0  0  0  0  0  0  0  0  0
    4.5981    2.1670    0.0000 H   0  0  0  0  0  0  0  0  0  0  0  0
    3.1951    0.1270    0.0000 H   0  0  0  0  0  0  0  0  0  0  0  0
    6.0010    0.1270    0.0000 H   0  0  0  0  0  0  0  0  0  0  0  0
    6.0010   -1.4930    0.0000 H   0  0  0  0  0  0  0  0  0  0  0  0
    4.5981   -2.3030    0.0000 H   0  0  0  0  0  0  0  0  0  0  0  0
    1.4631   -2.8730    0.0000 H   0  0  0  0  0  0  0  0  0  0  0  0
    4.2690   -2.8730    0.0000 H   0  0  0  0  0  0  0  0  0  0  0  0
    1.4631   -4.4930    0.0000 H   0  0  0  0  0  0  0  0  0  0  0  0
    4.2690   -4.4930    0.0000 H   0  0  0  0  0  0  0  0  0  0  0  0
    2.8660   -5.3030    0.0000 H   0  0  0  0  0  0  0  0  0  0  0  0
  1 12  1  0  0  0  0
  1 13  1  0  0  0  0
  2 12  2  0  0  0  0
  3 18  1  0  0  0  0
  3 21  1  0  0  0  0
  4 15  3  0  0  0  0
  5  6  1  0  0  0  0
  5  7  1  0  0  0  0
  5  8  1  0  0  0  0
  5  9  1  0  0  0  0
  6  7  1  0  0  0  0
  6 10  1  0  0  0  0
  6 11  1  0  0  0  0
  7 12  1  0  0  0  0
  7 27  1  0  0  0  0
  8 37  1  0  0  0  0
  8 38  1  0  0  0  0
  8 39  1  0  0  0  0
  9 34  1  0  0  0  0
  9 35  1  0  0  0  0
  9 36  1  0  0  0  0
 10 31  1  0  0  0  0
 10 32  1  0  0  0  0
 10 33  1  0  0  0  0
 11 28  1  0  0  0  0
 11 29  1  0  0  0  0
 11 30  1  0  0  0  0
 13 14  1  0  0  0  0
 13 15  1  0  0  0  0
 13 40  1  0  0  0  0
 14 16  2  0  0  0  0
 14 17  1  0  0  0  0
 16 18  1  0  0  0  0
 16 41  1  0  0  0  0
 17 19  2  0  0  0  0
 17 42  1  0  0  0  0
 18 20  2  0  0  0  0
 19 20  1  0  0  0  0
 19 43  1  0  0  0  0
 20 44  1  0  0  0  0
 21 22  2  0  0  0  0
 21 23  1  0  0  0  0
 22 24  1  0  0  0  0
 22 45  1  0  0  0  0
 23 25  2  0  0  0  0
 23 46  1  0  0  0  0
 24 26  2  0  0  0  0
 24 47  1  0  0  0  0
 25 26  1  0  0  0  0
 25 48  1  0  0  0  0
 26 49  1  0  0  0  0
M  END
> <PUBCHEM_COMPOUND_CID>
47326

> <PUBCHEM_COMPOUND_CANONICALIZED>
1

> <PUBCHEM_CACTVS_COMPLEXITY>
553

> <PUBCHEM_CACTVS_HBOND_ACCEPTOR>
4

> <PUBCHEM_CACTVS_HBOND_DONOR>
0

> <PUBCHEM_CACTVS_ROTATABLE_BOND>
6

> <PUBCHEM_CACTVS_SUBSKEYS>
AAADceB6MAAAAAAAAAAAAAAAGAAAAAAAAAAwYAAAAAAAAAABQAAAHgAAAAAADxShmAIyDoAABACYBiDSCAACCAAgIAAIiAEGCIgMpjKEMRqCOCCkwBEIqA/IwLAPgAABAAAAAAAAAAIAAAAAAAAAAAAAAA==

> <PUBCHEM_IUPAC_OPENEYE_NAME>
[cyano-(3-phenoxyphenyl)methyl] 2,2,3,3-tetramethylcyclopropanecarboxylate

> <PUBCHEM_IUPAC_CAS_NAME>
2,2,3,3-tetramethyl-1-cyclopropanecarboxylic acid [cyano-(3-phenoxyphenyl)methyl] ester

> <PUBCHEM_IUPAC_NAME>
[cyano-(3-phenoxyphenyl)methyl] 2,2,3,3-tetramethylcyclopropane-1-carboxylate

> <PUBCHEM_IUPAC_SYSTEMATIC_NAME>
[cyano-(3-phenoxyphenyl)methyl] 2,2,3,3-tetramethylcyclopropane-1-carboxylate

> <PUBCHEM_IUPAC_TRADITIONAL_NAME>
2,2,3,3-tetramethylcyclopropanecarboxylic acid [cyano-(3-phenoxyphenyl)methyl] ester

> <PUBCHEM_IUPAC_INCHI>
InChI=1S/C22H23NO3/c1-21(2)19(22(21,3)4)20(24)26-18(14-23)15-9-8-12-17(13-15)25-16-10-6-5-7-11-16/h5-13,18-19H,1-4H3

> <PUBCHEM_IUPAC_INCHIKEY>
XQUXKZZNEFRCAW-UHFFFAOYSA-N

> <PUBCHEM_XLOGP3>
5.7

> <PUBCHEM_EXACT_MASS>
349.167794

> <PUBCHEM_MOLECULAR_FORMULA>
C22H23NO3

> <PUBCHEM_MOLECULAR_WEIGHT>
349.42292

> <PUBCHEM_OPENEYE_CAN_SMILES>
CC1(C(C1(C)C)C(=O)OC(C#N)C2=CC(=CC=C2)OC3=CC=CC=C3)C

> <PUBCHEM_OPENEYE_ISO_SMILES>
CC1(C(C1(C)C)C(=O)OC(C#N)C2=CC(=CC=C2)OC3=CC=CC=C3)C

> <PUBCHEM_CACTVS_TPSA>
59.3

> <PUBCHEM_MONOISOTOPIC_WEIGHT>
349.167794

> <PUBCHEM_TOTAL_CHARGE>
0

> <PUBCHEM_HEAVY_ATOM_COUNT>
26

> <PUBCHEM_ATOM_DEF_STEREO_COUNT>
0

> <PUBCHEM_ATOM_UDEF_STEREO_COUNT>
1

> <PUBCHEM_BOND_DEF_STEREO_COUNT>
0

> <PUBCHEM_BOND_UDEF_STEREO_COUNT>
0

> <PUBCHEM_ISOTOPIC_ATOM_COUNT>
0

> <PUBCHEM_COMPONENT_COUNT>
1

> <PUBCHEM_CACTVS_TAUTO_COUNT>
1

> <PUBCHEM_COORDINATE_TYPE>
1
5
255

> <PUBCHEM_BONDANNOTATIONS>
13  40  3
14  16  8
14  17  8
16  18  8
17  19  8
18  20  8
19  20  8
21  22  8
21  23  8
22  24  8
23  25  8
24  26  8
25  26  8

$$$$

