13605
  -OEChem-06241222392D

 19 17  0     0  0  0  0  0  0999 V2000
    4.3660    1.4330    0.0000 Cl  0  5  0  0  0  0  0  0  0  0  0  0
    3.3660    1.4330    0.0000 Mg  0  2  0  0  0  0  0  0  0  0  0  0
    2.8660    0.5670    0.0000 C   0  5  0  0  0  0  0  0  0  0  0  0
    2.0000    0.0670    0.0000 C   0  0  0  0  0  0  0  0  0  0  0  0
    3.7320    0.0670    0.0000 C   0  0  0  0  0  0  0  0  0  0  0  0
    3.7320   -0.9330    0.0000 C   0  0  0  0  0  0  0  0  0  0  0  0
    2.0000   -0.9330    0.0000 C   0  0  0  0  0  0  0  0  0  0  0  0
    2.8660   -1.4330    0.0000 C   0  0  0  0  0  0  0  0  0  0  0  0
    2.5560    1.1039    0.0000 H   0  0  0  0  0  0  0  0  0  0  0  0
    1.7880    0.6496    0.0000 H   0  0  0  0  0  0  0  0  0  0  0  0
    4.3426   -0.0407    0.0000 H   0  0  0  0  0  0  0  0  0  0  0  0
    3.9441    0.6496    0.0000 H   0  0  0  0  0  0  0  0  0  0  0  0
    1.3894   -0.0407    0.0000 H   0  0  0  0  0  0  0  0  0  0  0  0
    3.9441   -1.5156    0.0000 H   0  0  0  0  0  0  0  0  0  0  0  0
    4.3426   -0.8254    0.0000 H   0  0  0  0  0  0  0  0  0  0  0  0
    1.3894   -0.8254    0.0000 H   0  0  0  0  0  0  0  0  0  0  0  0
    1.7880   -1.5156    0.0000 H   0  0  0  0  0  0  0  0  0  0  0  0
    2.4675   -1.9080    0.0000 H   0  0  0  0  0  0  0  0  0  0  0  0
    3.2646   -1.9080    0.0000 H   0  0  0  0  0  0  0  0  0  0  0  0
  3  4  1  0  0  0  0
  3  5  1  0  0  0  0
  3  9  1  0  0  0  0
  4  7  1  0  0  0  0
  4 10  1  0  0  0  0
  4 13  1  0  0  0  0
  5  6  1  0  0  0  0
  5 11  1  0  0  0  0
  5 12  1  0  0  0  0
  6  8  1  0  0  0  0
  6 14  1  0  0  0  0
  6 15  1  0  0  0  0
  7  8  1  0  0  0  0
  7 16  1  0  0  0  0
  7 17  1  0  0  0  0
  8 18  1  0  0  0  0
  8 19  1  0  0  0  0
M  CHG  3   1  -1   2   2   3  -1
M  END
> <PUBCHEM_COMPOUND_CID>
13605

> <PUBCHEM_COMPOUND_CANONICALIZED>
1

> <PUBCHEM_CACTVS_COMPLEXITY>
35.5

> <PUBCHEM_CACTVS_HBOND_ACCEPTOR>
2

> <PUBCHEM_CACTVS_HBOND_DONOR>
0

> <PUBCHEM_CACTVS_ROTATABLE_BOND>
0

> <PUBCHEM_CACTVS_SUBSKEYS>
AAADccBgAAAEACAAAAAAAAAAAAAAAAAAAAAwAAAAAAAAAAAAAAAAGAAAAAAACACAAAAAAAAAAAAAAAAAAAAAAAAAAAAAAAAAAAAAAAIAAAAAAAAAAAAAAAEAAAAAAAAAAAAAAAAAAAAAAAAAAAAAAAAAAA==

> <PUBCHEM_IUPAC_OPENEYE_NAME>
magnesium cyclohexane chloride

> <PUBCHEM_IUPAC_CAS_NAME>
magnesium cyclohexane chloride

> <PUBCHEM_IUPAC_NAME>
magnesium cyclohexane chloride

> <PUBCHEM_IUPAC_SYSTEMATIC_NAME>
magnesium cyclohexane chloride

> <PUBCHEM_IUPAC_TRADITIONAL_NAME>
magnesium cyclohexane chloride

> <PUBCHEM_IUPAC_INCHI>
InChI=1S/C6H11.ClH.Mg/c1-2-4-6-5-3-1;;/h1H,2-6H2;1H;/q-1;;+2/p-1

> <PUBCHEM_IUPAC_INCHIKEY>
DEDWWARPYWCXMG-UHFFFAOYSA-M

> <PUBCHEM_EXACT_MASS>
142.03997

> <PUBCHEM_MOLECULAR_FORMULA>
C6H11ClMg

> <PUBCHEM_MOLECULAR_WEIGHT>
142.90954

> <PUBCHEM_OPENEYE_CAN_SMILES>
C1CC[CH-]CC1.[Mg+2].[Cl-]

> <PUBCHEM_OPENEYE_ISO_SMILES>
C1CC[CH-]CC1.[Mg+2].[Cl-]

> <PUBCHEM_CACTVS_TPSA>
0

> <PUBCHEM_MONOISOTOPIC_WEIGHT>
142.03997

> <PUBCHEM_TOTAL_CHARGE>
0

> <PUBCHEM_HEAVY_ATOM_COUNT>
8

> <PUBCHEM_ATOM_DEF_STEREO_COUNT>
0

> <PUBCHEM_ATOM_UDEF_STEREO_COUNT>
0

> <PUBCHEM_BOND_DEF_STEREO_COUNT>
0

> <PUBCHEM_BOND_UDEF_STEREO_COUNT>
0

> <PUBCHEM_ISOTOPIC_ATOM_COUNT>
0

> <PUBCHEM_COMPONENT_COUNT>
3

> <PUBCHEM_CACTVS_TAUTO_COUNT>
1

> <PUBCHEM_NONSTANDARDBOND>
1  2  7
2  3  7

> <PUBCHEM_COORDINATE_TYPE>
1
5
255

$$$$

