443187
  -OEChem-07051213013D

 28 28  0     1  0  0  0  0  0999 V2000
   -0.7503    1.5310    0.1637 O   0  0  0  0  0  0  0  0  0  0  0  0
   -2.9105    1.3355   -0.4054 O   0  0  0  0  0  0  0  0  0  0  0  0
    1.1619    0.0838   -0.3353 C   0  0  1  0  0  0  0  0  0  0  0  0
    0.5838   -1.3366   -0.3250 C   0  0  0  0  0  0  0  0  0  0  0  0
   -0.9047   -1.4130   -0.6659 C   0  0  0  0  0  0  0  0  0  0  0  0
   -1.7982   -0.6786    0.3397 C   0  0  1  0  0  0  0  0  0  0  0  0
    0.4814    0.9919    0.6886 C   0  0  0  0  0  0  0  0  0  0  0  0
    2.6374    0.0334   -0.0702 C   0  0  0  0  0  0  0  0  0  0  0  0
   -1.8810    0.8020    0.0016 C   0  0  0  0  0  0  0  0  0  0  0  0
   -3.2064   -1.2881    0.3196 C   0  0  0  0  0  0  0  0  0  0  0  0
    3.0517   -0.5171    1.2621 C   0  0  0  0  0  0  0  0  0  0  0  0
    3.5348    0.4558   -0.9731 C   0  0  0  0  0  0  0  0  0  0  0  0
    0.9809    0.5015   -1.3357 H   0  0  0  0  0  0  0  0  0  0  0  0
    0.7233   -1.8105    0.6545 H   0  0  0  0  0  0  0  0  0  0  0  0
    1.1301   -1.9564   -1.0486 H   0  0  0  0  0  0  0  0  0  0  0  0
   -1.0669   -1.0235   -1.6792 H   0  0  0  0  0  0  0  0  0  0  0  0
   -1.1756   -2.4762   -0.6933 H   0  0  0  0  0  0  0  0  0  0  0  0
   -1.4332   -0.7928    1.3660 H   0  0  0  0  0  0  0  0  0  0  0  0
    0.2941    0.5059    1.6524 H   0  0  0  0  0  0  0  0  0  0  0  0
    1.1056    1.8687    0.8991 H   0  0  0  0  0  0  0  0  0  0  0  0
   -3.6512   -1.2378   -0.6808 H   0  0  0  0  0  0  0  0  0  0  0  0
   -3.1793   -2.3390    0.6267 H   0  0  0  0  0  0  0  0  0  0  0  0
   -3.8724   -0.7566    1.0083 H   0  0  0  0  0  0  0  0  0  0  0  0
    2.5823    0.0249    2.0880 H   0  0  0  0  0  0  0  0  0  0  0  0
    2.8068   -1.5793    1.3507 H   0  0  0  0  0  0  0  0  0  0  0  0
    4.1349   -0.4317    1.4080 H   0  0  0  0  0  0  0  0  0  0  0  0
    4.6001    0.4143   -0.7721 H   0  0  0  0  0  0  0  0  0  0  0  0
    3.2266    0.8525   -1.9347 H   0  0  0  0  0  0  0  0  0  0  0  0
  1  7  1  0  0  0  0
  1  9  1  0  0  0  0
  2  9  2  0  0  0  0
  3  4  1  0  0  0  0
  3  7  1  0  0  0  0
  3  8  1  0  0  0  0
  3 13  1  0  0  0  0
  4  5  1  0  0  0  0
  4 14  1  0  0  0  0
  4 15  1  0  0  0  0
  5  6  1  0  0  0  0
  5 16  1  0  0  0  0
  5 17  1  0  0  0  0
  6  9  1  0  0  0  0
  6 10  1  0  0  0  0
  6 18  1  0  0  0  0
  7 19  1  0  0  0  0
  7 20  1  0  0  0  0
  8 11  1  0  0  0  0
  8 12  2  0  0  0  0
 10 21  1  0  0  0  0
 10 22  1  0  0  0  0
 10 23  1  0  0  0  0
 11 24  1  0  0  0  0
 11 25  1  0  0  0  0
 11 26  1  0  0  0  0
 12 27  1  0  0  0  0
 12 28  1  0  0  0  0
M  END
> <PUBCHEM_COMPOUND_CID>
443187

> <PUBCHEM_CONFORMER_RMSD>
0.6

> <PUBCHEM_CONFORMER_DIVERSEORDER>
1
5
4
3
2
9
6
10
8
7

> <PUBCHEM_MMFF94_PARTIAL_CHARGES>
11
1 -0.43
11 0.14
12 -0.3
2 -0.57
27 0.15
28 0.15
3 0.14
6 0.06
7 0.28
8 -0.28
9 0.66

> <PUBCHEM_EFFECTIVE_ROTOR_COUNT>
2.2

> <PUBCHEM_PHARMACOPHORE_FEATURES>
2
1 2 acceptor
7 1 3 4 5 6 7 9 rings

> <PUBCHEM_HEAVY_ATOM_COUNT>
12

> <PUBCHEM_ATOM_DEF_STEREO_COUNT>
2

> <PUBCHEM_ATOM_UDEF_STEREO_COUNT>
0

> <PUBCHEM_BOND_DEF_STEREO_COUNT>
0

> <PUBCHEM_BOND_UDEF_STEREO_COUNT>
0

> <PUBCHEM_ISOTOPIC_ATOM_COUNT>
0

> <PUBCHEM_COMPONENT_COUNT>
1

> <PUBCHEM_CACTVS_TAUTO_COUNT>
1

> <PUBCHEM_CONFORMER_ID>
0006C33300000001

> <PUBCHEM_MMFF94_ENERGY>
25.3841

> <PUBCHEM_FEATURE_SELFOVERLAP>
10.148

> <PUBCHEM_SHAPE_FINGERPRINT>
10857977 72 18261114049594029051
11206711 2 18409173181937113341
12032990 46 18260819371898653318
12138202 97 18271534194853461151
12186901 62 18337653283423859326
12932764 1 17676490536188761886
13380535 21 18191009287234047431
13380535 76 18265903634362202799
14325111 11 18411979174181545924
15310529 11 17846217739283878504
15775835 57 18130782382539770108
16945 1 18186241722958288071
17844478 74 18337941299540926235
17846911 113 18188782754591677945
18186145 218 16298103190027408910
19026448 5 17418376895664838402
19422 9 17989489623648363826
20201158 50 18260268581108104895
20279233 1 17676213480796357902
20645464 45 17458357320584427634
20645476 183 18130497570347174710
20711983 171 18202280320647681148
20715346 28 17749394732631108442
20871998 184 18260827077323073151
22802520 49 17678437870023401878
23235685 24 18335987574721012509
23402655 69 18117007770335847973
23463225 33 18270685375934648634
23552423 10 18054229825826798564
23559900 14 18113896083783026820
2748010 2 18260829319047899805
3248919 1 16917068832814700744
369184 2 17060338539087259232
5084963 1 17968652718407624475
53812653 166 18186805806999379657

> <PUBCHEM_SHAPE_MULTIPOLES>
235.22
5.41
1.55
0.95
1.27
0.07
0.11
-0.17
-0.01
-1
-0.06
0.64
-0.08
-0.08

> <PUBCHEM_SHAPE_SELFOVERLAP>
464.907

> <PUBCHEM_SHAPE_VOLUME>
139.7

> <PUBCHEM_COORDINATE_TYPE>
2
5
10

$$$$

