23724477
  -OEChem-07051212493D

 74 76  0     1  0  0  0  0  0999 V2000
    5.2658   -2.5378   -0.2637 S   0  0  0  0  0  0  0  0  0  0  0  0
    0.3732   -3.3647   -1.8593 S   0  0  0  0  0  0  0  0  0  0  0  0
    0.2358    3.5126    0.7905 P   0  0  1  0  0  0  0  0  0  0  0  0
   -1.2262    2.9441   -1.6989 P   0  0  2  0  0  0  0  0  0  0  0  0
    2.1825    1.3546   -1.3364 O   0  0  0  0  0  0  0  0  0  0  0  0
   -4.1999   -0.1413   -1.1494 O   0  0  0  0  0  0  0  0  0  0  0  0
    3.9247   -1.8774   -0.9148 O   0  0  0  0  0  0  0  0  0  0  0  0
    1.6626    3.0666    0.1837 O   0  0  0  0  0  0  0  0  0  0  0  0
    2.6200   -0.9470    1.3557 O   0  0  0  0  0  0  0  0  0  0  0  0
   -7.0609    0.7534   -1.2130 O   0  0  0  0  0  0  0  0  0  0  0  0
   -6.7399   -0.0301    1.3796 O   0  0  0  0  0  0  0  0  0  0  0  0
    1.5260   -2.2025   -1.8879 O   0  0  0  0  0  0  0  0  0  0  0  0
   -2.5226    1.9934   -1.8792 O   0  0  0  0  0  0  0  0  0  0  0  0
   -0.8567    2.7626   -0.1358 O   0  0  0  0  0  0  0  0  0  0  0  0
    0.1281    2.7266    2.2006 O   0  0  0  0  0  0  0  0  0  0  0  0
    5.2373   -4.0771   -0.8029 O   0  0  0  0  0  0  0  0  0  0  0  0
    0.0404    4.9975    0.8928 O   0  0  0  0  0  0  0  0  0  0  0  0
    5.2872    2.3108    2.6702 O   0  0  0  0  0  0  0  0  0  0  0  0
    5.1275   -2.5682    1.1805 O   0  0  0  0  0  0  0  0  0  0  0  0
    6.4083   -1.8825   -0.8728 O   0  0  0  0  0  0  0  0  0  0  0  0
   -1.8317    4.4430   -1.7577 O   0  0  0  0  0  0  0  0  0  0  0  0
   -5.2575   -2.9920    1.6148 O   0  0  0  0  0  0  0  0  0  0  0  0
   -0.0900    2.6820   -2.6437 O   0  0  0  0  0  0  0  0  0  0  0  0
    1.1860   -4.7182   -2.2697 O   0  0  0  0  0  0  0  0  0  0  0  0
   -0.0645   -3.5178   -0.4843 O   0  0  0  0  0  0  0  0  0  0  0  0
   -0.5939   -3.0903   -2.9058 O   0  0  0  0  0  0  0  0  0  0  0  0
   -0.9451   -2.8522    3.2363 O   0  0  0  0  0  0  0  0  0  0  0  0
    4.3161    2.2132    0.5566 N   0  0  0  0  0  0  0  0  0  0  0  0
   -3.8466   -1.2919    0.8546 N   0  0  0  0  0  0  0  0  0  0  0  0
   -3.1098   -2.9203    2.4217 N   0  0  0  0  0  0  0  0  0  0  0  0
    3.5943   -0.1224    0.7179 C   0  0  2  0  0  0  0  0  0  0  0  0
    3.2023    1.3493    0.8893 C   0  0  2  0  0  0  0  0  0  0  0  0
    3.6889   -0.4831   -0.7687 C   0  0  2  0  0  0  0  0  0  0  0  0
    2.4711   -0.0258   -1.5860 C   0  0  1  0  0  0  0  0  0  0  0  0
    1.9663    1.6802    0.0371 C   0  0  2  0  0  0  0  0  0  0  0  0
   -5.9576    1.3060   -0.4954 C   0  0  1  0  0  0  0  0  0  0  0  0
   -5.5987    0.4205    0.6790 C   0  0  2  0  0  0  0  0  0  0  0  0
   -4.7198    1.1875   -1.3742 C   0  0  1  0  0  0  0  0  0  0  0  0
   -4.8441   -0.7106    0.0021 C   0  0  1  0  0  0  0  0  0  0  0  0
    1.2187   -0.8915   -1.4493 C   0  0  0  0  0  0  0  0  0  0  0  0
   -3.6302    2.1899   -1.0177 C   0  0  0  0  0  0  0  0  0  0  0  0
    5.2639    2.6189    1.4814 C   0  0  0  0  0  0  0  0  0  0  0  0
   -4.1564   -2.4374    1.6249 C   0  0  0  0  0  0  0  0  0  0  0  0
   -2.5777   -0.7284    0.9223 C   0  0  0  0  0  0  0  0  0  0  0  0
    6.3251    3.4912    0.8662 C   0  0  0  0  0  0  0  0  0  0  0  0
   -1.5904   -1.2000    1.6866 C   0  0  0  0  0  0  0  0  0  0  0  0
   -1.8317   -2.3934    2.5222 C   0  0  0  0  0  0  0  0  0  0  0  0
    4.5468   -0.2878    1.2284 H   0  0  0  0  0  0  0  0  0  0  0  0
    2.9469    1.5429    1.9393 H   0  0  0  0  0  0  0  0  0  0  0  0
    4.5561    0.0507   -1.1814 H   0  0  0  0  0  0  0  0  0  0  0  0
    2.7670   -0.0902   -2.6418 H   0  0  0  0  0  0  0  0  0  0  0  0
    1.1114    1.0990    0.3975 H   0  0  0  0  0  0  0  0  0  0  0  0
   -6.2158    2.3319   -0.2184 H   0  0  0  0  0  0  0  0  0  0  0  0
   -4.9548    0.9651    1.3803 H   0  0  0  0  0  0  0  0  0  0  0  0
   -4.9581    1.2566   -2.4416 H   0  0  0  0  0  0  0  0  0  0  0  0
   -5.5300   -1.4926   -0.3457 H   0  0  0  0  0  0  0  0  0  0  0  0
    0.4127   -0.4771   -2.0663 H   0  0  0  0  0  0  0  0  0  0  0  0
    0.8488   -0.9256   -0.4223 H   0  0  0  0  0  0  0  0  0  0  0  0
    4.4309    2.4844   -0.4160 H   0  0  0  0  0  0  0  0  0  0  0  0
   -4.0125    3.2066   -1.1568 H   0  0  0  0  0  0  0  0  0  0  0  0
   -3.3061    2.0884    0.0207 H   0  0  0  0  0  0  0  0  0  0  0  0
    2.5931   -0.6980    2.2952 H   0  0  0  0  0  0  0  0  0  0  0  0
   -7.8184    0.7303   -0.6038 H   0  0  0  0  0  0  0  0  0  0  0  0
   -7.2131    0.7555    1.7027 H   0  0  0  0  0  0  0  0  0  0  0  0
   -2.3782    0.1432    0.3172 H   0  0  0  0  0  0  0  0  0  0  0  0
    6.9024    3.9806    1.6555 H   0  0  0  0  0  0  0  0  0  0  0  0
    6.9939    2.8759    0.2584 H   0  0  0  0  0  0  0  0  0  0  0  0
    5.8681    4.2620    0.2388 H   0  0  0  0  0  0  0  0  0  0  0  0
   -3.3101   -3.7429    2.9837 H   0  0  0  0  0  0  0  0  0  0  0  0
   -0.6133   -0.7336    1.7147 H   0  0  0  0  0  0  0  0  0  0  0  0
    0.6005    3.0865    2.9813 H   0  0  0  0  0  0  0  0  0  0  0  0
    4.3714   -4.5396   -0.7112 H   0  0  0  0  0  0  0  0  0  0  0  0
   -2.0648    4.8263   -2.6299 H   0  0  0  0  0  0  0  0  0  0  0  0
    1.7778   -4.6330   -3.0537 H   0  0  0  0  0  0  0  0  0  0  0  0
  1  7  1  0  0  0  0
  1 16  1  0  0  0  0
  1 19  2  0  0  0  0
  1 20  2  0  0  0  0
  2 12  1  0  0  0  0
  2 24  1  0  0  0  0
  2 25  2  0  0  0  0
  2 26  2  0  0  0  0
  3  8  1  0  0  0  0
  3 14  1  0  0  0  0
  3 15  1  0  0  0  0
  3 17  2  0  0  0  0
  4 13  1  0  0  0  0
  4 14  1  0  0  0  0
  4 21  1  0  0  0  0
  4 23  2  0  0  0  0
  5 34  1  0  0  0  0
  5 35  1  0  0  0  0
  6 38  1  0  0  0  0
  6 39  1  0  0  0  0
  7 33  1  0  0  0  0
  8 35  1  0  0  0  0
  9 31  1  0  0  0  0
  9 62  1  0  0  0  0
 10 36  1  0  0  0  0
 10 63  1  0  0  0  0
 11 37  1  0  0  0  0
 11 64  1  0  0  0  0
 12 40  1  0  0  0  0
 13 41  1  0  0  0  0
 15 71  1  0  0  0  0
 16 72  1  0  0  0  0
 18 42  2  0  0  0  0
 21 73  1  0  0  0  0
 22 43  2  0  0  0  0
 24 74  1  0  0  0  0
 27 47  2  0  0  0  0
 28 32  1  0  0  0  0
 28 42  1  0  0  0  0
 28 59  1  0  0  0  0
 29 39  1  0  0  0  0
 29 43  1  0  0  0  0
 29 44  1  0  0  0  0
 30 43  1  0  0  0  0
 30 47  1  0  0  0  0
 30 69  1  0  0  0  0
 31 32  1  0  0  0  0
 31 33  1  0  0  0  0
 31 48  1  0  0  0  0
 32 35  1  0  0  0  0
 32 49  1  0  0  0  0
 33 34  1  0  0  0  0
 33 50  1  0  0  0  0
 34 40  1  0  0  0  0
 34 51  1  0  0  0  0
 35 52  1  0  0  0  0
 36 37  1  0  0  0  0
 36 38  1  0  0  0  0
 36 53  1  0  0  0  0
 37 39  1  0  0  0  0
 37 54  1  0  0  0  0
 38 41  1  0  0  0  0
 38 55  1  0  0  0  0
 39 56  1  0  0  0  0
 40 57  1  0  0  0  0
 40 58  1  0  0  0  0
 41 60  1  0  0  0  0
 41 61  1  0  0  0  0
 42 45  1  0  0  0  0
 44 46  2  0  0  0  0
 44 65  1  0  0  0  0
 45 66  1  0  0  0  0
 45 67  1  0  0  0  0
 45 68  1  0  0  0  0
 46 47  1  0  0  0  0
 46 70  1  0  0  0  0
M  END
> <PUBCHEM_COMPOUND_CID>
23724477

> <PUBCHEM_CONFORMER_RMSD>
1.4

> <PUBCHEM_CONFORMER_DIVERSEORDER>
1
152
3
160
109
87
213
86
84
98
130
168
53
81
181
58
100
41
175
204
147
165
39
178
71
207
10
209
148
157
161
22
43
12
126
182
40
8
27
216
18
66
136
65
32
153
169
199
82
115
118
93
97
102
144
174
159
193
128
218
202
119
210
33
110
170
129
155
68
121
107
184
99
189
215
26
54
186
167
28
74
35
70
133
185
31
149
212
125
19
197
95
132
106
16
179
173
172
166
131
63
48
20
188
59
96
163
47
180
80
137
21
120
143
176
85
150
101
29
38
88
15
9
191
162
158
55
36
34
164
194
73
52
79
140
108
151
142
206
154
56
171
135
203
205
187
57
112
104
134
105
190
42
17
208
69
91
146
192
127
103
114
122
23
139
77
196
111
123
78
37
64
61
92
49
83
14
76
25
46
138
89
2
51
200
90
75
50
116
5
183
45
4
30
195
211
11
217
117
24
13
156
145
214
177
201
6
124
113
94
67
141
7
72
198
60
44
62

> <PUBCHEM_MMFF94_PARTIAL_CHARGES>
58
1 1.67
10 -0.68
11 -0.68
12 -0.46
13 -0.55
14 -0.54
15 -0.77
16 -0.68
17 -0.7
18 -0.57
19 -0.65
2 1.67
20 -0.65
21 -0.77
22 -0.57
23 -0.7
24 -0.68
25 -0.65
26 -0.65
27 -0.57
28 -0.73
29 -0.47
3 1.51
30 -0.49
31 0.28
32 0.3
33 0.28
34 0.28
35 0.56
36 0.28
37 0.28
38 0.28
39 0.58
4 1.51
40 0.28
41 0.28
42 0.57
43 0.69
44 -0.04
45 0.06
46 -0.14
47 0.62
5 -0.56
59 0.37
6 -0.56
62 0.4
63 0.4
64 0.4
65 0.15
69 0.37
7 -0.46
70 0.15
71 0.5
72 0.5
73 0.5
74 0.5
8 -0.55
9 -0.68

> <PUBCHEM_EFFECTIVE_ROTOR_COUNT>
17.2

> <PUBCHEM_PHARMACOPHORE_FEATURES>
28
1 10 acceptor
1 10 donor
1 11 acceptor
1 11 donor
1 15 acceptor
1 16 acceptor
1 17 acceptor
1 18 acceptor
1 19 acceptor
1 20 acceptor
1 21 acceptor
1 22 acceptor
1 23 acceptor
1 24 acceptor
1 25 acceptor
1 26 acceptor
1 27 acceptor
1 28 donor
1 30 donor
1 5 acceptor
1 6 acceptor
1 9 acceptor
1 9 donor
4 1 16 19 20 anion
4 2 24 25 26 anion
5 6 36 37 38 39 rings
6 29 30 43 44 46 47 rings
6 5 31 32 33 34 35 rings

> <PUBCHEM_HEAVY_ATOM_COUNT>
47

> <PUBCHEM_ATOM_DEF_STEREO_COUNT>
9

> <PUBCHEM_ATOM_UDEF_STEREO_COUNT>
0

> <PUBCHEM_BOND_DEF_STEREO_COUNT>
0

> <PUBCHEM_BOND_UDEF_STEREO_COUNT>
0

> <PUBCHEM_ISOTOPIC_ATOM_COUNT>
0

> <PUBCHEM_COMPONENT_COUNT>
1

> <PUBCHEM_CACTVS_TAUTO_COUNT>
6

> <PUBCHEM_CONFORMER_ID>
016A01BD00000001

> <PUBCHEM_MMFF94_ENERGY>
58.3378

> <PUBCHEM_FEATURE_SELFOVERLAP>
142.244

> <PUBCHEM_SHAPE_FINGERPRINT>
10169797 241 18187638133571005124
10838868 49 17772782427133007345
10864689 126 18059302092768840045
11828532 37 17774140324911487547
12128747 34 18129659837087418294
12202916 173 18270137720707713919
13402501 40 18413105091463391373
1361 2 18260277321809703285
13751561 76 18408603656462815804
13947930 73 18342472442941161474
14017579 153 18190737541138899804
14725015 67 18199189666671644959
14747282 125 18272654566969518059
150020 26 18267005177578100987
15351339 4 17770508835214021755
17809404 112 18337382726095779234
19311894 1 16607156435604419767
20764821 26 18187943775759010822
21033648 29 18189885431705140545
23572383 38 18411982433882440904

> <PUBCHEM_SHAPE_MULTIPOLES>
832.7
14.4
6.42
2.76
2.86
0.33
-0.33
-0.34
-3.32
-4.1
0.8
0.7
-1.33
5.51

> <PUBCHEM_SHAPE_SELFOVERLAP>
1677.251

> <PUBCHEM_SHAPE_VOLUME>
487.9

> <PUBCHEM_COORDINATE_TYPE>
2
5
10

$$$$

