442358
  -OEChem-07051212572D

 39 41  0     1  0  0  0  0  0999 V2000
    6.3301    0.2327    0.0000 O   0  0  0  0  0  0  0  0  0  0  0  0
    9.8602    0.2085    0.0000 O   0  0  0  0  0  0  0  0  0  0  0  0
    2.0000   -1.2673    0.0000 O   0  0  0  0  0  0  0  0  0  0  0  0
    2.0000    0.7327    0.0000 O   0  0  0  0  0  0  0  0  0  0  0  0
    5.4641    0.7327    0.0000 C   0  0  1  0  0  0  0  0  0  0  0  0
    5.4641    1.7327    0.0000 C   0  0  0  0  0  0  0  0  0  0  0  0
    6.3301    2.2327    0.0000 C   0  0  0  0  0  0  0  0  0  0  0  0
    7.1962    1.7327    0.0000 C   0  0  0  0  0  0  0  0  0  0  0  0
    7.1962    0.7327    0.0000 C   0  0  0  0  0  0  0  0  0  0  0  0
    4.5981    0.2327    0.0000 C   0  0  0  0  0  0  0  0  0  0  0  0
    8.0901    0.1980    0.0000 C   0  0  0  0  0  0  0  0  0  0  0  0
    8.0901    2.2673    0.0000 C   0  0  0  0  0  0  0  0  0  0  0  0
    3.7320    0.7327    0.0000 C   0  0  0  0  0  0  0  0  0  0  0  0
    4.5981   -0.7673    0.0000 C   0  0  0  0  0  0  0  0  0  0  0  0
    8.9962    0.7119    0.0000 C   0  0  0  0  0  0  0  0  0  0  0  0
    8.9962    1.7535    0.0000 C   0  0  0  0  0  0  0  0  0  0  0  0
    8.0785   -0.8019    0.0000 C   0  0  0  0  0  0  0  0  0  0  0  0
    2.8660    0.2327    0.0000 C   0  0  0  0  0  0  0  0  0  0  0  0
    3.7320   -1.2673    0.0000 C   0  0  0  0  0  0  0  0  0  0  0  0
    2.8660   -0.7673    0.0000 C   0  0  0  0  0  0  0  0  0  0  0  0
    2.0000   -2.2673    0.0000 C   0  0  0  0  0  0  0  0  0  0  0  0
    5.4641    0.1127    0.0000 H   0  0  0  0  0  0  0  0  0  0  0  0
    5.2520    2.3153    0.0000 H   0  0  0  0  0  0  0  0  0  0  0  0
    4.8535    1.6250    0.0000 H   0  0  0  0  0  0  0  0  0  0  0  0
    6.7287    2.7076    0.0000 H   0  0  0  0  0  0  0  0  0  0  0  0
    5.9316    2.7076    0.0000 H   0  0  0  0  0  0  0  0  0  0  0  0
    8.0829    2.8873    0.0000 H   0  0  0  0  0  0  0  0  0  0  0  0
    3.7320    1.3527    0.0000 H   0  0  0  0  0  0  0  0  0  0  0  0
    5.1350   -1.0773    0.0000 H   0  0  0  0  0  0  0  0  0  0  0  0
    9.5319    2.0656    0.0000 H   0  0  0  0  0  0  0  0  0  0  0  0
    7.4586   -0.7948    0.0000 H   0  0  0  0  0  0  0  0  0  0  0  0
    8.0714   -1.4219    0.0000 H   0  0  0  0  0  0  0  0  0  0  0  0
    8.6985   -0.8091    0.0000 H   0  0  0  0  0  0  0  0  0  0  0  0
    3.7320   -1.8873    0.0000 H   0  0  0  0  0  0  0  0  0  0  0  0
   10.3984    0.5164    0.0000 H   0  0  0  0  0  0  0  0  0  0  0  0
    2.0000    1.3527    0.0000 H   0  0  0  0  0  0  0  0  0  0  0  0
    1.3800   -2.2673    0.0000 H   0  0  0  0  0  0  0  0  0  0  0  0
    2.0000   -2.8873    0.0000 H   0  0  0  0  0  0  0  0  0  0  0  0
    2.6200   -2.2673    0.0000 H   0  0  0  0  0  0  0  0  0  0  0  0
  1  5  1  0  0  0  0
  1  9  1  0  0  0  0
  2 15  1  0  0  0  0
  2 35  1  0  0  0  0
  3 20  1  0  0  0  0
  3 21  1  0  0  0  0
  4 18  1  0  0  0  0
  4 36  1  0  0  0  0
  5  6  1  0  0  0  0
  5 10  1  6  0  0  0
  5 22  1  0  0  0  0
  6  7  1  0  0  0  0
  6 23  1  0  0  0  0
  6 24  1  0  0  0  0
  7  8  1  0  0  0  0
  7 25  1  0  0  0  0
  7 26  1  0  0  0  0
  8  9  2  0  0  0  0
  8 12  1  0  0  0  0
  9 11  1  0  0  0  0
 10 13  2  0  0  0  0
 10 14  1  0  0  0  0
 11 15  2  0  0  0  0
 11 17  1  0  0  0  0
 12 16  2  0  0  0  0
 12 27  1  0  0  0  0
 13 18  1  0  0  0  0
 13 28  1  0  0  0  0
 14 19  2  0  0  0  0
 14 29  1  0  0  0  0
 15 16  1  0  0  0  0
 16 30  1  0  0  0  0
 17 31  1  0  0  0  0
 17 32  1  0  0  0  0
 17 33  1  0  0  0  0
 18 20  2  0  0  0  0
 19 20  1  0  0  0  0
 19 34  1  0  0  0  0
 21 37  1  0  0  0  0
 21 38  1  0  0  0  0
 21 39  1  0  0  0  0
M  END
> <PUBCHEM_COMPOUND_CID>
442358

> <PUBCHEM_COMPOUND_CANONICALIZED>
1

> <PUBCHEM_CACTVS_COMPLEXITY>
348

> <PUBCHEM_CACTVS_HBOND_ACCEPTOR>
4

> <PUBCHEM_CACTVS_HBOND_DONOR>
2

> <PUBCHEM_CACTVS_ROTATABLE_BOND>
2

> <PUBCHEM_CACTVS_SUBSKEYS>
AAADceB4OAAAAAAAAAAAAAAAAAAAAAAAAAA0YIAAAAAAAACRQAAAGgAACAAADBSgmAIyBoAABgCAAiBCAAACCAAgIAAIiAAGiIgNJyKGMRqCeCOlwBULuAfA4PwOIAADCAAIQABAAAYQABCAAAAAAAAAAA==

> <PUBCHEM_IUPAC_OPENEYE_NAME>
(2S)-2-(3-hydroxy-4-methoxy-phenyl)-8-methyl-chroman-7-ol

> <PUBCHEM_IUPAC_CAS_NAME>
(2S)-2-(3-hydroxy-4-methoxyphenyl)-8-methyl-3,4-dihydro-2H-1-benzopyran-7-ol

> <PUBCHEM_IUPAC_NAME>
(2S)-2-(3-hydroxy-4-methoxyphenyl)-8-methyl-3,4-dihydro-2H-chromen-7-ol

> <PUBCHEM_IUPAC_SYSTEMATIC_NAME>
(2S)-2-(4-methoxy-3-oxidanyl-phenyl)-8-methyl-3,4-dihydro-2H-chromen-7-ol

> <PUBCHEM_IUPAC_TRADITIONAL_NAME>
(2S)-2-(3-hydroxy-4-methoxy-phenyl)-8-methyl-chroman-7-ol

> <PUBCHEM_IUPAC_INCHI>
InChI=1S/C17H18O4/c1-10-13(18)6-3-11-4-7-15(21-17(10)11)12-5-8-16(20-2)14(19)9-12/h3,5-6,8-9,15,18-19H,4,7H2,1-2H3/t15-/m0/s1

> <PUBCHEM_IUPAC_INCHIKEY>
XVHKLOFEZNFSRF-HNNXBMFYSA-N

> <PUBCHEM_XLOGP3_AA>
3.4

> <PUBCHEM_EXACT_MASS>
286.120509

> <PUBCHEM_MOLECULAR_FORMULA>
C17H18O4

> <PUBCHEM_MOLECULAR_WEIGHT>
286.32242

> <PUBCHEM_OPENEYE_CAN_SMILES>
CC1=C(C=CC2=C1OC(CC2)C3=CC(=C(C=C3)OC)O)O

> <PUBCHEM_OPENEYE_ISO_SMILES>
CC1=C(C=CC2=C1O[C@@H](CC2)C3=CC(=C(C=C3)OC)O)O

> <PUBCHEM_CACTVS_TPSA>
58.9

> <PUBCHEM_MONOISOTOPIC_WEIGHT>
286.120509

> <PUBCHEM_TOTAL_CHARGE>
0

> <PUBCHEM_HEAVY_ATOM_COUNT>
21

> <PUBCHEM_ATOM_DEF_STEREO_COUNT>
1

> <PUBCHEM_ATOM_UDEF_STEREO_COUNT>
0

> <PUBCHEM_BOND_DEF_STEREO_COUNT>
0

> <PUBCHEM_BOND_UDEF_STEREO_COUNT>
0

> <PUBCHEM_ISOTOPIC_ATOM_COUNT>
0

> <PUBCHEM_COMPONENT_COUNT>
1

> <PUBCHEM_CACTVS_TAUTO_COUNT>
8

> <PUBCHEM_COORDINATE_TYPE>
1
5
255

> <PUBCHEM_BONDANNOTATIONS>
10  13  8
10  14  8
11  15  8
12  16  8
13  18  8
14  19  8
15  16  8
18  20  8
19  20  8
5  10  6
8  12  8
8  9  8
9  11  8

$$$$

