65523
  -OEChem-07051213082D

 32 31  0     0  0  0  0  0  0999 V2000
    7.7331    0.0600    0.0000 N   0  0  0  0  0  0  0  0  0  0  0  0
    2.5369    0.0600    0.0000 N   0  0  0  0  0  0  0  0  0  0  0  0
   11.1972    0.0600    0.0000 N   0  0  0  0  0  0  0  0  0  0  0  0
    6.0010    0.0600    0.0000 C   0  0  0  0  0  0  0  0  0  0  0  0
    5.1350    0.5600    0.0000 C   0  0  0  0  0  0  0  0  0  0  0  0
    6.8671    0.5600    0.0000 C   0  0  0  0  0  0  0  0  0  0  0  0
    4.2690    0.0600    0.0000 C   0  0  0  0  0  0  0  0  0  0  0  0
    8.5991    0.5600    0.0000 C   0  0  0  0  0  0  0  0  0  0  0  0
    9.4651    0.0600    0.0000 C   0  0  0  0  0  0  0  0  0  0  0  0
    3.4030    0.5600    0.0000 C   0  0  0  0  0  0  0  0  0  0  0  0
   10.3312    0.5600    0.0000 C   0  0  0  0  0  0  0  0  0  0  0  0
    5.6025   -0.4149    0.0000 H   0  0  0  0  0  0  0  0  0  0  0  0
    6.3996   -0.4149    0.0000 H   0  0  0  0  0  0  0  0  0  0  0  0
    5.5335    1.0350    0.0000 H   0  0  0  0  0  0  0  0  0  0  0  0
    4.7365    1.0350    0.0000 H   0  0  0  0  0  0  0  0  0  0  0  0
    7.2656    1.0350    0.0000 H   0  0  0  0  0  0  0  0  0  0  0  0
    6.4685    1.0350    0.0000 H   0  0  0  0  0  0  0  0  0  0  0  0
    3.8705   -0.4149    0.0000 H   0  0  0  0  0  0  0  0  0  0  0  0
    4.6675   -0.4149    0.0000 H   0  0  0  0  0  0  0  0  0  0  0  0
    8.9976    1.0350    0.0000 H   0  0  0  0  0  0  0  0  0  0  0  0
    8.2006    1.0350    0.0000 H   0  0  0  0  0  0  0  0  0  0  0  0
    7.7331   -0.5600    0.0000 H   0  0  0  0  0  0  0  0  0  0  0  0
    9.0666   -0.4149    0.0000 H   0  0  0  0  0  0  0  0  0  0  0  0
    9.8637   -0.4149    0.0000 H   0  0  0  0  0  0  0  0  0  0  0  0
    3.8015    1.0350    0.0000 H   0  0  0  0  0  0  0  0  0  0  0  0
    3.0044    1.0350    0.0000 H   0  0  0  0  0  0  0  0  0  0  0  0
   10.7297    1.0350    0.0000 H   0  0  0  0  0  0  0  0  0  0  0  0
    9.9326    1.0350    0.0000 H   0  0  0  0  0  0  0  0  0  0  0  0
    2.0000    0.3700    0.0000 H   0  0  0  0  0  0  0  0  0  0  0  0
    2.5369   -0.5600    0.0000 H   0  0  0  0  0  0  0  0  0  0  0  0
   11.7341    0.3700    0.0000 H   0  0  0  0  0  0  0  0  0  0  0  0
   11.1972   -0.5600    0.0000 H   0  0  0  0  0  0  0  0  0  0  0  0
  1  6  1  0  0  0  0
  1  8  1  0  0  0  0
  1 22  1  0  0  0  0
  2 10  1  0  0  0  0
  2 29  1  0  0  0  0
  2 30  1  0  0  0  0
  3 11  1  0  0  0  0
  3 31  1  0  0  0  0
  3 32  1  0  0  0  0
  4  5  1  0  0  0  0
  4  6  1  0  0  0  0
  4 12  1  0  0  0  0
  4 13  1  0  0  0  0
  5  7  1  0  0  0  0
  5 14  1  0  0  0  0
  5 15  1  0  0  0  0
  6 16  1  0  0  0  0
  6 17  1  0  0  0  0
  7 10  1  0  0  0  0
  7 18  1  0  0  0  0
  7 19  1  0  0  0  0
  8  9  1  0  0  0  0
  8 20  1  0  0  0  0
  8 21  1  0  0  0  0
  9 11  1  0  0  0  0
  9 23  1  0  0  0  0
  9 24  1  0  0  0  0
 10 25  1  0  0  0  0
 10 26  1  0  0  0  0
 11 27  1  0  0  0  0
 11 28  1  0  0  0  0
M  END
> <PUBCHEM_COMPOUND_CID>
65523

> <PUBCHEM_COMPOUND_CANONICALIZED>
1

> <PUBCHEM_CACTVS_COMPLEXITY>
66.4

> <PUBCHEM_CACTVS_HBOND_ACCEPTOR>
3

> <PUBCHEM_CACTVS_HBOND_DONOR>
3

> <PUBCHEM_CACTVS_ROTATABLE_BOND>
8

> <PUBCHEM_CACTVS_SUBSKEYS>
AAADceBzAAAAAAAAAAAAAAAAAAAAAAAAAAAAAAAAAAAAAAAAAAAAHAAQAAAACADBAAQAAALAAAAAAAAAAAAAAAAAAAAAAIAIAAAAAAIAwAAEAAAAEACAAAAQAAAAAAAAAAAAAAAAAAAAAAAAAAAAAAAAAA==

> <PUBCHEM_IUPAC_OPENEYE_NAME>
N'-(3-aminopropyl)pentane-1,5-diamine

> <PUBCHEM_IUPAC_CAS_NAME>
N'-(3-aminopropyl)pentane-1,5-diamine

> <PUBCHEM_IUPAC_NAME>
N'-(3-aminopropyl)pentane-1,5-diamine

> <PUBCHEM_IUPAC_SYSTEMATIC_NAME>
N'-(3-azanylpropyl)pentane-1,5-diamine

> <PUBCHEM_IUPAC_TRADITIONAL_NAME>
5-aminopentyl(3-aminopropyl)amine

> <PUBCHEM_IUPAC_INCHI>
InChI=1S/C8H21N3/c9-5-2-1-3-7-11-8-4-6-10/h11H,1-10H2

> <PUBCHEM_IUPAC_INCHIKEY>
QZBYOYPROVGOGE-UHFFFAOYSA-N

> <PUBCHEM_XLOGP3_AA>
-0.7

> <PUBCHEM_EXACT_MASS>
159.173548

> <PUBCHEM_MOLECULAR_FORMULA>
C8H21N3

> <PUBCHEM_MOLECULAR_WEIGHT>
159.27244

> <PUBCHEM_OPENEYE_CAN_SMILES>
C(CCN)CCNCCCN

> <PUBCHEM_OPENEYE_ISO_SMILES>
C(CCN)CCNCCCN

> <PUBCHEM_CACTVS_TPSA>
64.1

> <PUBCHEM_MONOISOTOPIC_WEIGHT>
159.173548

> <PUBCHEM_TOTAL_CHARGE>
0

> <PUBCHEM_HEAVY_ATOM_COUNT>
11

> <PUBCHEM_ATOM_DEF_STEREO_COUNT>
0

> <PUBCHEM_ATOM_UDEF_STEREO_COUNT>
0

> <PUBCHEM_BOND_DEF_STEREO_COUNT>
0

> <PUBCHEM_BOND_UDEF_STEREO_COUNT>
0

> <PUBCHEM_ISOTOPIC_ATOM_COUNT>
0

> <PUBCHEM_COMPONENT_COUNT>
1

> <PUBCHEM_CACTVS_TAUTO_COUNT>
1

> <PUBCHEM_COORDINATE_TYPE>
1
5
255

$$$$

