439615
  -OEChem-07051212463D

 31 32  0     0  0  0  0  0  0999 V2000
    4.5742   -2.8520   -0.0026 Cl  0  0  0  0  0  0  0  0  0  0  0  0
   -0.4807    1.7786   -0.0004 S   0  0  0  0  0  0  0  0  0  0  0  0
   -0.5956    2.5010   -1.2596 O   0  0  0  0  0  0  0  0  0  0  0  0
   -0.5118    2.5108    1.2592 O   0  0  0  0  0  0  0  0  0  0  0  0
    1.0786    0.9353   -0.0017 C   0  0  0  0  0  0  0  0  0  0  0  0
   -1.7554    0.5856    0.0006 C   0  0  0  0  0  0  0  0  0  0  0  0
    1.6690    0.6166    1.2062 C   0  0  0  0  0  0  0  0  0  0  0  0
    1.6682    0.6162   -1.2099 C   0  0  0  0  0  0  0  0  0  0  0  0
   -2.2633    0.1094    1.2093 C   0  0  0  0  0  0  0  0  0  0  0  0
   -2.2660    0.1086   -1.2068 C   0  0  0  0  0  0  0  0  0  0  0  0
    3.5092   -0.3784   -0.0021 C   0  0  0  0  0  0  0  0  0  0  0  0
   -3.7920   -1.3211    0.0037 C   0  0  0  0  0  0  0  0  0  0  0  0
    2.8961   -0.0466    1.2060 C   0  0  0  0  0  0  0  0  0  0  0  0
    2.8953   -0.0470   -1.2100 C   0  0  0  0  0  0  0  0  0  0  0  0
   -3.2814   -0.8440    1.2109 C   0  0  0  0  0  0  0  0  0  0  0  0
   -3.2843   -0.8448   -1.2052 C   0  0  0  0  0  0  0  0  0  0  0  0
    4.8210   -1.0880   -0.0026 C   0  0  0  0  0  0  0  0  0  0  0  0
   -4.8811   -2.3401    0.0050 C   0  0  0  0  0  0  0  0  0  0  0  0
    1.2041    0.8567    2.1572 H   0  0  0  0  0  0  0  0  0  0  0  0
    1.2016    0.8596   -2.1592 H   0  0  0  0  0  0  0  0  0  0  0  0
   -1.8765    0.4631    2.1609 H   0  0  0  0  0  0  0  0  0  0  0  0
   -1.8814    0.4585   -2.1607 H   0  0  0  0  0  0  0  0  0  0  0  0
    3.3625   -0.3024    2.1537 H   0  0  0  0  0  0  0  0  0  0  0  0
    3.3615   -0.3027   -2.1579 H   0  0  0  0  0  0  0  0  0  0  0  0
   -3.6691   -1.2069    2.1590 H   0  0  0  0  0  0  0  0  0  0  0  0
   -3.6739   -1.2089   -2.1521 H   0  0  0  0  0  0  0  0  0  0  0  0
    5.4160   -0.8283    0.8793 H   0  0  0  0  0  0  0  0  0  0  0  0
    5.4154   -0.8281   -0.8848 H   0  0  0  0  0  0  0  0  0  0  0  0
   -4.8124   -2.9925   -0.8721 H   0  0  0  0  0  0  0  0  0  0  0  0
   -4.8188   -2.9843    0.8887 H   0  0  0  0  0  0  0  0  0  0  0  0
   -5.8577   -1.8460   -0.0006 H   0  0  0  0  0  0  0  0  0  0  0  0
  1 17  1  0  0  0  0
  2  3  2  0  0  0  0
  2  4  2  0  0  0  0
  2  5  1  0  0  0  0
  2  6  1  0  0  0  0
  5  7  2  0  0  0  0
  5  8  1  0  0  0  0
  6  9  2  0  0  0  0
  6 10  1  0  0  0  0
  7 13  1  0  0  0  0
  7 19  1  0  0  0  0
  8 14  2  0  0  0  0
  8 20  1  0  0  0  0
  9 15  1  0  0  0  0
  9 21  1  0  0  0  0
 10 16  2  0  0  0  0
 10 22  1  0  0  0  0
 11 13  2  0  0  0  0
 11 14  1  0  0  0  0
 11 17  1  0  0  0  0
 12 15  2  0  0  0  0
 12 16  1  0  0  0  0
 12 18  1  0  0  0  0
 13 23  1  0  0  0  0
 14 24  1  0  0  0  0
 15 25  1  0  0  0  0
 16 26  1  0  0  0  0
 17 27  1  0  0  0  0
 17 28  1  0  0  0  0
 18 29  1  0  0  0  0
 18 30  1  0  0  0  0
 18 31  1  0  0  0  0
M  END
> <PUBCHEM_COMPOUND_CID>
439615

> <PUBCHEM_CONFORMER_RMSD>
0.6

> <PUBCHEM_CONFORMER_DIVERSEORDER>
1
2

> <PUBCHEM_MMFF94_PARTIAL_CHARGES>
26
1 -0.29
10 -0.15
11 -0.14
12 -0.14
13 -0.15
14 -0.15
15 -0.15
16 -0.15
17 0.43
18 0.14
19 0.15
2 1.32
20 0.15
21 0.15
22 0.15
23 0.15
24 0.15
25 0.15
26 0.15
3 -0.65
4 -0.65
5 -0.01
6 -0.01
7 -0.15
8 -0.15
9 -0.15

> <PUBCHEM_EFFECTIVE_ROTOR_COUNT>
3

> <PUBCHEM_PHARMACOPHORE_FEATURES>
4
1 3 acceptor
1 4 acceptor
6 5 7 8 11 13 14 rings
6 6 9 10 12 15 16 rings

> <PUBCHEM_HEAVY_ATOM_COUNT>
18

> <PUBCHEM_ATOM_DEF_STEREO_COUNT>
0

> <PUBCHEM_ATOM_UDEF_STEREO_COUNT>
0

> <PUBCHEM_BOND_DEF_STEREO_COUNT>
0

> <PUBCHEM_BOND_UDEF_STEREO_COUNT>
0

> <PUBCHEM_ISOTOPIC_ATOM_COUNT>
0

> <PUBCHEM_COMPONENT_COUNT>
1

> <PUBCHEM_CACTVS_TAUTO_COUNT>
1

> <PUBCHEM_CONFORMER_ID>
0006B53F00000001

> <PUBCHEM_MMFF94_ENERGY>
31.6638

> <PUBCHEM_FEATURE_SELFOVERLAP>
20.315

> <PUBCHEM_SHAPE_FINGERPRINT>
10498660 4 10952057749128631359
10618630 7 18409164411313311556
11046707 91 18408603681952862830
11578080 2 18337400352901193489
11640471 11 8934723223599024173
122479 349 8934991581987939528
12251169 10 15719387313505438261
12363563 72 18411981338681513231
12633257 1 16008752372608777567
12824470 246 18336827597457171098
12892183 10 15502640633519122895
13103583 49 17676756630755866475
13296908 3 18410018701931314281
13533116 47 18046625604269326227
13544653 18 18408045095733927392
13675066 3 5112003929024886396
13911987 19 17125610862519807836
13965767 371 6050180907915577650
14123255 52 8646771096956123446
1420 369 18409445899381126678
14251764 30 17845354601751496563
14341114 328 15068622626195981523
14848178 5 18198918092054293354
14957384 54 8574425396833908686
15209294 21 5905749048275848678
15342168 16 9367354725643523291
15342816 4 18263066765270766732
17834072 32 9223226351738733998
1798214 55 8574440841230297923
1813 80 18335406946545161589
18186145 218 15267340699878847245
193927 3 18272926124586601690
19784866 240 18411697643755648575
19862831 5 16917351441383280428
200 152 17489585666910914952
20281475 54 18410006645899864792
20291156 8 18410856546797280587
20361792 2 18340206297873709581
20388580 30 18271521983860778285
20645477 70 18057609755041450559
20671657 53 18131630058459627381
20871999 31 16773803584538834053
21713013 43 16917064413304253475
21731228 192 5833993862289419285
22620623 9 17632029640383485909
22646028 28 18412825780760086730
22907989 373 12462127001425135488
23402539 116 18342737442470738984
23402655 69 14189585142993682766
23403322 49 18342177786419987367
23503958 8 18264489662472245018
23559900 14 18339938116153154304
25 1 12895081750855589036
270888 7 9367350327191375743
27216 239 7709446247713459887
2838139 119 10663230321648358462
3082319 5 15626233402734300441
3286 77 17894912905965168818
3472631 163 10231761076281833819
463206 1 18341052921780306603
465052 167 18196643009280794943
633830 44 16126379381543393830
76465 3 18409168835472751722
7808743 9 9367052359761456822
7970288 3 18411135805619229291

> <PUBCHEM_SHAPE_MULTIPOLES>
364.41
9.41
2.5
1.4
1.92
0.33
0
9.49
0
0.06
0
-0.25
-0.33
0.02

> <PUBCHEM_SHAPE_SELFOVERLAP>
754.864

> <PUBCHEM_SHAPE_VOLUME>
210.1

> <PUBCHEM_COORDINATE_TYPE>
2
5
10

$$$$

