440494
  -OEChem-07051212493D

 21 21  0     1  0  0  0  0  0999 V2000
    0.5222    2.2841   -0.0495 O   0  0  0  0  0  0  0  0  0  0  0  0
    3.4306   -0.7163   -0.4308 O   0  0  0  0  0  0  0  0  0  0  0  0
   -2.9806   -1.0621   -0.1846 O   0  0  0  0  0  0  0  0  0  0  0  0
   -2.0647    1.5581   -0.2031 O   0  0  0  0  0  0  0  0  0  0  0  0
    1.1529   -0.0436   -0.1706 C   0  0  2  0  0  0  0  0  0  0  0  0
    0.1949    0.9899    0.4279 C   0  0  2  0  0  0  0  0  0  0  0  0
    0.7485   -1.4584    0.2666 C   0  0  0  0  0  0  0  0  0  0  0  0
    2.6075    0.2391    0.2099 C   0  0  0  0  0  0  0  0  0  0  0  0
   -1.2406    0.6763    0.0323 C   0  0  0  0  0  0  0  0  0  0  0  0
   -0.7218   -1.7119    0.1174 C   0  0  0  0  0  0  0  0  0  0  0  0
   -1.6489   -0.7552   -0.0154 C   0  0  0  0  0  0  0  0  0  0  0  0
    1.0857   -0.0017   -1.2682 H   0  0  0  0  0  0  0  0  0  0  0  0
    0.2522    1.0063    1.5220 H   0  0  0  0  0  0  0  0  0  0  0  0
    1.0283   -1.6408    1.3113 H   0  0  0  0  0  0  0  0  0  0  0  0
    1.2808   -2.1973   -0.3444 H   0  0  0  0  0  0  0  0  0  0  0  0
    2.7698    0.1893    1.2920 H   0  0  0  0  0  0  0  0  0  0  0  0
    2.9179    1.2300   -0.1351 H   0  0  0  0  0  0  0  0  0  0  0  0
   -1.0272   -2.7556    0.1127 H   0  0  0  0  0  0  0  0  0  0  0  0
    0.5284    2.2552   -1.0215 H   0  0  0  0  0  0  0  0  0  0  0  0
    3.3816   -1.5429    0.0783 H   0  0  0  0  0  0  0  0  0  0  0  0
   -3.0756   -2.0301   -0.1911 H   0  0  0  0  0  0  0  0  0  0  0  0
  1  6  1  0  0  0  0
  1 19  1  0  0  0  0
  2  8  1  0  0  0  0
  2 20  1  0  0  0  0
  3 11  1  0  0  0  0
  3 21  1  0  0  0  0
  4  9  2  0  0  0  0
  5  6  1  0  0  0  0
  5  7  1  0  0  0  0
  5  8  1  0  0  0  0
  5 12  1  0  0  0  0
  6  9  1  0  0  0  0
  6 13  1  0  0  0  0
  7 10  1  0  0  0  0
  7 14  1  0  0  0  0
  7 15  1  0  0  0  0
  8 16  1  0  0  0  0
  8 17  1  0  0  0  0
  9 11  1  0  0  0  0
 10 11  2  0  0  0  0
 10 18  1  0  0  0  0
M  END
> <PUBCHEM_COMPOUND_CID>
440494

> <PUBCHEM_CONFORMER_RMSD>
0.4

> <PUBCHEM_CONFORMER_DIVERSEORDER>
2
5
3
6
1
4

> <PUBCHEM_MMFF94_PARTIAL_CHARGES>
14
1 -0.68
10 -0.29
11 0.09
18 0.15
19 0.4
2 -0.68
20 0.4
21 0.45
3 -0.53
4 -0.57
6 0.34
7 0.14
8 0.28
9 0.49

> <PUBCHEM_EFFECTIVE_ROTOR_COUNT>
1.6

> <PUBCHEM_PHARMACOPHORE_FEATURES>
7
1 1 acceptor
1 1 donor
1 2 acceptor
1 2 donor
1 3 donor
1 4 acceptor
6 5 6 7 9 10 11 rings

> <PUBCHEM_HEAVY_ATOM_COUNT>
11

> <PUBCHEM_ATOM_DEF_STEREO_COUNT>
2

> <PUBCHEM_ATOM_UDEF_STEREO_COUNT>
0

> <PUBCHEM_BOND_DEF_STEREO_COUNT>
0

> <PUBCHEM_BOND_UDEF_STEREO_COUNT>
0

> <PUBCHEM_ISOTOPIC_ATOM_COUNT>
0

> <PUBCHEM_COMPONENT_COUNT>
1

> <PUBCHEM_CACTVS_TAUTO_COUNT>
24

> <PUBCHEM_CONFORMER_ID>
0006B8AE00000002

> <PUBCHEM_MMFF94_ENERGY>
12.2868

> <PUBCHEM_FEATURE_SELFOVERLAP>
35.527

> <PUBCHEM_SHAPE_FINGERPRINT>
11206711 2 18341338837741593023
12032990 46 18410004421022734250
12423570 1 16742860286385758191
12524768 44 17979361850034990211
12716758 59 18337673117556484002
12897270 3 18337111279973127606
14128692 85 18335699377946163468
14325111 11 18411136969923527242
16945 1 18340491062515696571
18185500 45 18339927129030406819
193761 8 17474389075937477410
21040471 1 18267027347666474624
22802520 49 17898275345883438134
23402655 69 18193295185610988237
23552423 10 17983299226912308662
23559900 14 18262517113522751486
241688 4 18410576179879986641
2748010 2 18337953522865012711
5084963 1 18187364281454512107
528886 8 18338523065524440841
66348 1 18337959011737985617

> <PUBCHEM_SHAPE_MULTIPOLES>
202.9
3.78
1.97
0.63
1.36
0.51
0.02
-0.76
-0.48
-0.44
0.02
0.07
-0.02
0.09

> <PUBCHEM_SHAPE_SELFOVERLAP>
411.292

> <PUBCHEM_SHAPE_VOLUME>
116

> <PUBCHEM_COORDINATE_TYPE>
2
5
10

$$$$

