51090956
  -OEChem-06241223012D

 43 44  0     1  0  0  0  0  0999 V2000
    2.8890    3.8575    0.0000 S   0  0  0  0  0  0  0  0  0  0  0  0
    2.0000   -4.6007    0.0000 F   0  0  0  0  0  0  0  0  0  0  0  0
    3.0084    0.2540    0.0000 O   0  0  0  0  0  0  0  0  0  0  0  0
    3.5581    4.6007    0.0000 O   0  0  0  0  0  0  0  0  0  0  0  0
    2.2199    3.1144    0.0000 O   0  0  0  0  0  0  0  0  0  0  0  0
    4.7026   -0.1062    0.0000 N   0  0  0  0  0  0  0  0  0  0  0  0
    3.6321    3.1884    0.0000 N   0  0  0  0  0  0  0  0  0  0  0  0
    4.5981   -1.1007    0.0000 C   0  0  3  0  0  0  0  0  0  0  0  0
    5.5116   -1.5074    0.0000 C   0  0  0  0  0  0  0  0  0  0  0  0
    6.1808   -0.7643    0.0000 C   0  0  0  0  0  0  0  0  0  0  0  0
    5.6808    0.1018    0.0000 C   0  0  0  0  0  0  0  0  0  0  0  0
    3.7320   -1.6007    0.0000 C   0  0  0  0  0  0  0  0  0  0  0  0
    3.9595    0.5630    0.0000 C   0  0  0  0  0  0  0  0  0  0  0  0
    3.7320   -2.6007    0.0000 C   0  0  0  0  0  0  0  0  0  0  0  0
    4.1674    1.5411    0.0000 C   0  0  0  0  0  0  0  0  0  0  0  0
    3.4242    2.2102    0.0000 C   0  0  0  0  0  0  0  0  0  0  0  0
    2.8660   -3.1007    0.0000 C   0  0  0  0  0  0  0  0  0  0  0  0
    4.5981   -3.1007    0.0000 C   0  0  0  0  0  0  0  0  0  0  0  0
    2.8660   -4.1007    0.0000 C   0  0  0  0  0  0  0  0  0  0  0  0
    4.5981   -4.1007    0.0000 C   0  0  0  0  0  0  0  0  0  0  0  0
    3.7320   -4.6007    0.0000 C   0  0  0  0  0  0  0  0  0  0  0  0
    2.1458    4.5267    0.0000 C   0  0  0  0  0  0  0  0  0  0  0  0
    4.0781   -0.7630    0.0000 H   0  0  0  0  0  0  0  0  0  0  0  0
    5.2016   -2.0444    0.0000 H   0  0  0  0  0  0  0  0  0  0  0  0
    6.0132   -1.8718    0.0000 H   0  0  0  0  0  0  0  0  0  0  0  0
    6.5956   -1.2250    0.0000 H   0  0  0  0  0  0  0  0  0  0  0  0
    6.6823   -0.3998    0.0000 H   0  0  0  0  0  0  0  0  0  0  0  0
    6.2472    0.3539    0.0000 H   0  0  0  0  0  0  0  0  0  0  0  0
    5.4892    0.6914    0.0000 H   0  0  0  0  0  0  0  0  0  0  0  0
    3.5200   -1.0181    0.0000 H   0  0  0  0  0  0  0  0  0  0  0  0
    3.1215   -1.7083    0.0000 H   0  0  0  0  0  0  0  0  0  0  0  0
    4.7422    1.3089    0.0000 H   0  0  0  0  0  0  0  0  0  0  0  0
    4.4959    2.0669    0.0000 H   0  0  0  0  0  0  0  0  0  0  0  0
    2.8494    2.4425    0.0000 H   0  0  0  0  0  0  0  0  0  0  0  0
    3.0957    1.6845    0.0000 H   0  0  0  0  0  0  0  0  0  0  0  0
    2.3291   -2.7907    0.0000 H   0  0  0  0  0  0  0  0  0  0  0  0
    5.1350   -2.7907    0.0000 H   0  0  0  0  0  0  0  0  0  0  0  0
    4.2218    3.3800    0.0000 H   0  0  0  0  0  0  0  0  0  0  0  0
    5.1350   -4.4107    0.0000 H   0  0  0  0  0  0  0  0  0  0  0  0
    3.7320   -5.2207    0.0000 H   0  0  0  0  0  0  0  0  0  0  0  0
    2.5607    4.9874    0.0000 H   0  0  0  0  0  0  0  0  0  0  0  0
    1.6851    4.9415    0.0000 H   0  0  0  0  0  0  0  0  0  0  0  0
    1.7310    4.0659    0.0000 H   0  0  0  0  0  0  0  0  0  0  0  0
  1  4  2  0  0  0  0
  1  5  2  0  0  0  0
  1  7  1  0  0  0  0
  1 22  1  0  0  0  0
  2 19  1  0  0  0  0
  3 13  2  0  0  0  0
  6  8  1  0  0  0  0
  6 11  1  0  0  0  0
  6 13  1  0  0  0  0
  7 16  1  0  0  0  0
  7 38  1  0  0  0  0
  8  9  1  0  0  0  0
  8 12  1  0  0  0  0
  8 23  1  0  0  0  0
  9 10  1  0  0  0  0
  9 24  1  0  0  0  0
  9 25  1  0  0  0  0
 10 11  1  0  0  0  0
 10 26  1  0  0  0  0
 10 27  1  0  0  0  0
 11 28  1  0  0  0  0
 11 29  1  0  0  0  0
 12 14  1  0  0  0  0
 12 30  1  0  0  0  0
 12 31  1  0  0  0  0
 13 15  1  0  0  0  0
 14 17  2  0  0  0  0
 14 18  1  0  0  0  0
 15 16  1  0  0  0  0
 15 32  1  0  0  0  0
 15 33  1  0  0  0  0
 16 34  1  0  0  0  0
 16 35  1  0  0  0  0
 17 19  1  0  0  0  0
 17 36  1  0  0  0  0
 18 20  2  0  0  0  0
 18 37  1  0  0  0  0
 19 21  2  0  0  0  0
 20 21  1  0  0  0  0
 20 39  1  0  0  0  0
 21 40  1  0  0  0  0
 22 41  1  0  0  0  0
 22 42  1  0  0  0  0
 22 43  1  0  0  0  0
M  END
> <PUBCHEM_COMPOUND_CID>
51090956

> <PUBCHEM_COMPOUND_CANONICALIZED>
1

> <PUBCHEM_CACTVS_COMPLEXITY>
478

> <PUBCHEM_CACTVS_HBOND_ACCEPTOR>
5

> <PUBCHEM_CACTVS_HBOND_DONOR>
1

> <PUBCHEM_CACTVS_ROTATABLE_BOND>
6

> <PUBCHEM_CACTVS_SUBSKEYS>
AAADceBzMQBAAAAAAAAAAAAAAAAAAWAAAAAwAAAAAAAAAAABAAAAHwQQQAAADCjBmAyyAINAAAKIAiFSEHACAAAgAAAIiIEIAIgIICqA0RGEIAAglgCIiAcQgMAOAAAAAAAAAAAAAAAAAAAAAAAAAAAAAA==

> <PUBCHEM_IUPAC_OPENEYE_NAME>
N-[3-[2-[(3-fluorophenyl)methyl]pyrrolidin-1-yl]-3-oxo-propyl]methanesulfonamide

> <PUBCHEM_IUPAC_CAS_NAME>
N-[3-[2-[(3-fluorophenyl)methyl]-1-pyrrolidinyl]-3-oxopropyl]methanesulfonamide

> <PUBCHEM_IUPAC_NAME>
N-[3-[2-[(3-fluorophenyl)methyl]pyrrolidin-1-yl]-3-oxopropyl]methanesulfonamide

> <PUBCHEM_IUPAC_SYSTEMATIC_NAME>
N-[3-[2-[(3-fluorophenyl)methyl]pyrrolidin-1-yl]-3-oxidanylidene-propyl]methanesulfonamide

> <PUBCHEM_IUPAC_TRADITIONAL_NAME>
N-[3-[2-(3-fluorobenzyl)pyrrolidino]-3-keto-propyl]methanesulfonamide

> <PUBCHEM_IUPAC_INCHI>
InChI=1S/C15H21FN2O3S/c1-22(20,21)17-8-7-15(19)18-9-3-6-14(18)11-12-4-2-5-13(16)10-12/h2,4-5,10,14,17H,3,6-9,11H2,1H3

> <PUBCHEM_IUPAC_INCHIKEY>
UPWBBPXXFRJXLK-UHFFFAOYSA-N

> <PUBCHEM_XLOGP3_AA>
1.4

> <PUBCHEM_EXACT_MASS>
328.125692

> <PUBCHEM_MOLECULAR_FORMULA>
C15H21FN2O3S

> <PUBCHEM_MOLECULAR_WEIGHT>
328.402243

> <PUBCHEM_OPENEYE_CAN_SMILES>
CS(=O)(=O)NCCC(=O)N1CCCC1CC2=CC(=CC=C2)F

> <PUBCHEM_OPENEYE_ISO_SMILES>
CS(=O)(=O)NCCC(=O)N1CCCC1CC2=CC(=CC=C2)F

> <PUBCHEM_CACTVS_TPSA>
74.9

> <PUBCHEM_MONOISOTOPIC_WEIGHT>
328.125692

> <PUBCHEM_TOTAL_CHARGE>
0

> <PUBCHEM_HEAVY_ATOM_COUNT>
22

> <PUBCHEM_ATOM_DEF_STEREO_COUNT>
0

> <PUBCHEM_ATOM_UDEF_STEREO_COUNT>
1

> <PUBCHEM_BOND_DEF_STEREO_COUNT>
0

> <PUBCHEM_BOND_UDEF_STEREO_COUNT>
0

> <PUBCHEM_ISOTOPIC_ATOM_COUNT>
0

> <PUBCHEM_COMPONENT_COUNT>
1

> <PUBCHEM_CACTVS_TAUTO_COUNT>
1

> <PUBCHEM_COORDINATE_TYPE>
1
5
255

> <PUBCHEM_BONDANNOTATIONS>
14  17  8
14  18  8
17  19  8
18  20  8
19  21  8
20  21  8
8  12  3

$$$$

