656724
  -OEChem-07051213043D

 20 20  0     1  0  0  0  0  0999 V2000
    2.6035   -0.0659    0.3284 O   0  0  0  0  0  0  0  0  0  0  0  0
   -0.1571   -2.1571    0.0152 O   0  0  0  0  0  0  0  0  0  0  0  0
   -1.6235    1.0051    1.5929 O   0  0  0  0  0  0  0  0  0  0  0  0
   -2.9731   -0.2902    0.3104 O   0  0  0  0  0  0  0  0  0  0  0  0
    1.9913   -1.3342    0.4015 N   0  0  0  0  0  0  0  0  0  0  0  0
   -1.4454   -0.0343   -1.8735 N   0  0  0  0  0  0  0  0  0  0  0  0
    0.3858    0.1513   -0.2606 C   0  0  0  0  0  0  0  0  0  0  0  0
   -0.9447    0.6437   -0.6771 C   0  0  2  0  0  0  0  0  0  0  0  0
    1.5606    0.7570   -0.0764 C   0  0  0  0  0  0  0  0  0  0  0  0
    0.6636   -1.2561    0.0583 C   0  0  0  0  0  0  0  0  0  0  0  0
    1.8977    2.1953   -0.2478 C   0  0  0  0  0  0  0  0  0  0  0  0
   -1.9587    0.3854    0.4287 C   0  0  0  0  0  0  0  0  0  0  0  0
   -0.9388    1.7198   -0.8763 H   0  0  0  0  0  0  0  0  0  0  0  0
    2.6820    2.3115   -1.0024 H   0  0  0  0  0  0  0  0  0  0  0  0
    2.2645    2.6116    0.6958 H   0  0  0  0  0  0  0  0  0  0  0  0
    1.0378    2.7918   -0.5642 H   0  0  0  0  0  0  0  0  0  0  0  0
    2.5395   -2.1376    0.6806 H   0  0  0  0  0  0  0  0  0  0  0  0
   -2.3465    0.3609   -2.1406 H   0  0  0  0  0  0  0  0  0  0  0  0
   -1.6158   -1.0201   -1.6759 H   0  0  0  0  0  0  0  0  0  0  0  0
   -2.2835    0.8368    2.2988 H   0  0  0  0  0  0  0  0  0  0  0  0
  1  5  1  0  0  0  0
  1  9  1  0  0  0  0
  2 10  2  0  0  0  0
  3 12  1  0  0  0  0
  3 20  1  0  0  0  0
  4 12  2  0  0  0  0
  5 10  1  0  0  0  0
  5 17  1  0  0  0  0
  6  8  1  0  0  0  0
  6 18  1  0  0  0  0
  6 19  1  0  0  0  0
  7  8  1  0  0  0  0
  7  9  2  0  0  0  0
  7 10  1  0  0  0  0
  8 12  1  0  0  0  0
  8 13  1  0  0  0  0
  9 11  1  0  0  0  0
 11 14  1  0  0  0  0
 11 15  1  0  0  0  0
 11 16  1  0  0  0  0
M  END
> <PUBCHEM_COMPOUND_CID>
656724

> <PUBCHEM_CONFORMER_RMSD>
0.6

> <PUBCHEM_CONFORMER_DIVERSEORDER>
1
6
8
9
4
7
5
2
3

> <PUBCHEM_MMFF94_PARTIAL_CHARGES>
16
1 -0.11
10 0.62
11 0.14
12 0.66
17 0.37
18 0.36
19 0.36
2 -0.57
20 0.5
3 -0.65
4 -0.57
5 -0.39
6 -0.99
7 -0.12
8 0.47
9 -0.06

> <PUBCHEM_EFFECTIVE_ROTOR_COUNT>
2

> <PUBCHEM_PHARMACOPHORE_FEATURES>
8
1 2 acceptor
1 3 acceptor
1 4 acceptor
1 5 donor
1 6 cation
1 6 donor
3 3 4 12 anion
5 1 5 7 9 10 rings

> <PUBCHEM_HEAVY_ATOM_COUNT>
12

> <PUBCHEM_ATOM_DEF_STEREO_COUNT>
1

> <PUBCHEM_ATOM_UDEF_STEREO_COUNT>
0

> <PUBCHEM_BOND_DEF_STEREO_COUNT>
0

> <PUBCHEM_BOND_UDEF_STEREO_COUNT>
0

> <PUBCHEM_ISOTOPIC_ATOM_COUNT>
0

> <PUBCHEM_COMPONENT_COUNT>
1

> <PUBCHEM_CACTVS_TAUTO_COUNT>
2

> <PUBCHEM_CONFORMER_ID>
000A055400000001

> <PUBCHEM_MMFF94_ENERGY>
13.7573

> <PUBCHEM_FEATURE_SELFOVERLAP>
40.653

> <PUBCHEM_SHAPE_FINGERPRINT>
12423570 1 9642452431569800991
16945 1 18341063946981460286
17834069 17 18054481669766196504
21040471 1 18339358544338375436
21061003 4 18126844022067428994
21922407 69 18261658368316911145
2748010 2 18052554441131937484
29004967 10 18199468951114788394
5084963 1 18260835907559490632
528862 383 18342458110408616936

> <PUBCHEM_SHAPE_MULTIPOLES>
213.52
3.36
1.81
1.1
0.55
0.24
-0.19
-0.59
0.52
-1
0.08
0.71
-0.23
-0.31

> <PUBCHEM_SHAPE_SELFOVERLAP>
442.295

> <PUBCHEM_SHAPE_VOLUME>
123.1

> <PUBCHEM_COORDINATE_TYPE>
2
5
10

$$$$

