12565
  -OEChem-06261207052D

 32 33  0     0  0  0  0  0  0999 V2000
    5.4920   -1.0347    0.0000 O   0  0  0  0  0  0  0  0  0  0  0  0
    2.0000   -1.0000    0.0000 O   0  0  0  0  0  0  0  0  0  0  0  0
    2.0000    1.0000    0.0000 O   0  0  0  0  0  0  0  0  0  0  0  0
    6.3981   -0.5208    0.0000 C   0  0  0  0  0  0  0  0  0  0  0  0
    6.3981    0.5208    0.0000 C   0  0  0  0  0  0  0  0  0  0  0  0
    4.5981   -0.5000    0.0000 C   0  0  0  0  0  0  0  0  0  0  0  0
    4.5981    0.5000    0.0000 C   0  0  0  0  0  0  0  0  0  0  0  0
    7.3981   -0.5247    0.0000 C   0  0  0  0  0  0  0  0  0  0  0  0
    6.8947   -1.3888    0.0000 C   0  0  0  0  0  0  0  0  0  0  0  0
    5.4920    1.0347    0.0000 C   0  0  0  0  0  0  0  0  0  0  0  0
    3.7320   -1.0000    0.0000 C   0  0  0  0  0  0  0  0  0  0  0  0
    3.7320    1.0000    0.0000 C   0  0  0  0  0  0  0  0  0  0  0  0
    2.8660   -0.5000    0.0000 C   0  0  0  0  0  0  0  0  0  0  0  0
    2.8660    0.5000    0.0000 C   0  0  0  0  0  0  0  0  0  0  0  0
    2.0000   -2.0000    0.0000 C   0  0  0  0  0  0  0  0  0  0  0  0
    2.0000    2.0000    0.0000 C   0  0  0  0  0  0  0  0  0  0  0  0
    6.9338    0.8329    0.0000 H   0  0  0  0  0  0  0  0  0  0  0  0
    6.3566   -1.6967    0.0000 H   0  0  0  0  0  0  0  0  0  0  0  0
    7.2027   -1.9269    0.0000 H   0  0  0  0  0  0  0  0  0  0  0  0
    7.4329   -1.0808    0.0000 H   0  0  0  0  0  0  0  0  0  0  0  0
    7.3957   -1.1447    0.0000 H   0  0  0  0  0  0  0  0  0  0  0  0
    8.0181   -0.5271    0.0000 H   0  0  0  0  0  0  0  0  0  0  0  0
    7.4005    0.0953    0.0000 H   0  0  0  0  0  0  0  0  0  0  0  0
    5.4848    1.6546    0.0000 H   0  0  0  0  0  0  0  0  0  0  0  0
    3.7320   -1.6200    0.0000 H   0  0  0  0  0  0  0  0  0  0  0  0
    3.7320    1.6200    0.0000 H   0  0  0  0  0  0  0  0  0  0  0  0
    1.3800   -2.0000    0.0000 H   0  0  0  0  0  0  0  0  0  0  0  0
    2.0000   -2.6200    0.0000 H   0  0  0  0  0  0  0  0  0  0  0  0
    2.6200   -2.0000    0.0000 H   0  0  0  0  0  0  0  0  0  0  0  0
    2.6200    2.0000    0.0000 H   0  0  0  0  0  0  0  0  0  0  0  0
    2.0000    2.6200    0.0000 H   0  0  0  0  0  0  0  0  0  0  0  0
    1.3800    2.0000    0.0000 H   0  0  0  0  0  0  0  0  0  0  0  0
  1  4  1  0  0  0  0
  1  6  1  0  0  0  0
  2 13  1  0  0  0  0
  2 15  1  0  0  0  0
  3 14  1  0  0  0  0
  3 16  1  0  0  0  0
  4  5  1  0  0  0  0
  4  8  1  0  0  0  0
  4  9  1  0  0  0  0
  5 10  2  0  0  0  0
  5 17  1  0  0  0  0
  6  7  1  0  0  0  0
  6 11  2  0  0  0  0
  7 10  1  0  0  0  0
  7 12  2  0  0  0  0
  8 21  1  0  0  0  0
  8 22  1  0  0  0  0
  8 23  1  0  0  0  0
  9 18  1  0  0  0  0
  9 19  1  0  0  0  0
  9 20  1  0  0  0  0
 10 24  1  0  0  0  0
 11 13  1  0  0  0  0
 11 25  1  0  0  0  0
 12 14  1  0  0  0  0
 12 26  1  0  0  0  0
 13 14  2  0  0  0  0
 15 27  1  0  0  0  0
 15 28  1  0  0  0  0
 15 29  1  0  0  0  0
 16 30  1  0  0  0  0
 16 31  1  0  0  0  0
 16 32  1  0  0  0  0
M  END
> <PUBCHEM_COMPOUND_CID>
12565

> <PUBCHEM_COMPOUND_CANONICALIZED>
1

> <PUBCHEM_CACTVS_COMPLEXITY>
272

> <PUBCHEM_CACTVS_HBOND_ACCEPTOR>
3

> <PUBCHEM_CACTVS_HBOND_DONOR>
0

> <PUBCHEM_CACTVS_ROTATABLE_BOND>
2

> <PUBCHEM_CACTVS_SUBSKEYS>
AAADceBwMAAAAAAAAAAAAAAAAAAAAAAAAAAwQAAAAAAAAACBAAAAGgAAAAAADESAmAIyBoAABACAAiBCAAACCAAgIAAIiAAGiIgNJyKEMRqCOCKlwBUKqAfA4DwOIQABCAAIQABCAAIQABCAAAAAAAAAAA==

> <PUBCHEM_IUPAC_OPENEYE_NAME>
6,7-dimethoxy-2,2-dimethyl-chromene

> <PUBCHEM_IUPAC_CAS_NAME>
6,7-dimethoxy-2,2-dimethyl-1-benzopyran

> <PUBCHEM_IUPAC_NAME>
6,7-dimethoxy-2,2-dimethylchromene

> <PUBCHEM_IUPAC_SYSTEMATIC_NAME>
6,7-dimethoxy-2,2-dimethyl-chromene

> <PUBCHEM_IUPAC_TRADITIONAL_NAME>
6,7-dimethoxy-2,2-dimethyl-chromene

> <PUBCHEM_IUPAC_INCHI>
InChI=1S/C13H16O3/c1-13(2)6-5-9-7-11(14-3)12(15-4)8-10(9)16-13/h5-8H,1-4H3

> <PUBCHEM_IUPAC_INCHIKEY>
PTIDGSWTMLSGAH-UHFFFAOYSA-N

> <PUBCHEM_XLOGP3>
3.3

> <PUBCHEM_EXACT_MASS>
220.109944

> <PUBCHEM_MOLECULAR_FORMULA>
C13H16O3

> <PUBCHEM_MOLECULAR_WEIGHT>
220.26434

> <PUBCHEM_OPENEYE_CAN_SMILES>
CC1(C=CC2=CC(=C(C=C2O1)OC)OC)C

> <PUBCHEM_OPENEYE_ISO_SMILES>
CC1(C=CC2=CC(=C(C=C2O1)OC)OC)C

> <PUBCHEM_CACTVS_TPSA>
27.7

> <PUBCHEM_MONOISOTOPIC_WEIGHT>
220.109944

> <PUBCHEM_TOTAL_CHARGE>
0

> <PUBCHEM_HEAVY_ATOM_COUNT>
16

> <PUBCHEM_ATOM_DEF_STEREO_COUNT>
0

> <PUBCHEM_ATOM_UDEF_STEREO_COUNT>
0

> <PUBCHEM_BOND_DEF_STEREO_COUNT>
0

> <PUBCHEM_BOND_UDEF_STEREO_COUNT>
0

> <PUBCHEM_ISOTOPIC_ATOM_COUNT>
0

> <PUBCHEM_COMPONENT_COUNT>
1

> <PUBCHEM_CACTVS_TAUTO_COUNT>
1

> <PUBCHEM_COORDINATE_TYPE>
1
5
255

> <PUBCHEM_BONDANNOTATIONS>
11  13  8
12  14  8
13  14  8
6  11  8
6  7  8
7  12  8

$$$$

