39230
  -OEChem-07051213013D

 31 32  0     0  0  0  0  0  0999 V2000
    3.1225    0.9101   -2.6579 Cl  0  0  0  0  0  0  0  0  0  0  0  0
    5.4766   -1.9981    1.2174 Cl  0  0  0  0  0  0  0  0  0  0  0  0
    1.3623    1.8629   -0.4159 O   0  0  0  0  0  0  0  0  0  0  0  0
   -1.9941   -2.3289    0.3533 O   0  0  0  0  0  0  0  0  0  0  0  0
   -2.6071   -1.7554   -1.7901 O   0  0  0  0  0  0  0  0  0  0  0  0
   -4.7097    1.3456    1.0016 O   0  5  0  0  0  0  0  0  0  0  0  0
   -4.3600   -0.6658    0.1831 O   0  0  0  0  0  0  0  0  0  0  0  0
   -3.9603    0.4808    0.4917 N   0  3  0  0  0  0  0  0  0  0  0  0
   -1.7184   -0.1084   -0.3128 C   0  0  0  0  0  0  0  0  0  0  0  0
    0.0637    1.5189   -0.1970 C   0  0  0  0  0  0  0  0  0  0  0  0
   -2.5981    0.8149    0.2524 C   0  0  0  0  0  0  0  0  0  0  0  0
   -0.3874    0.2436   -0.5375 C   0  0  0  0  0  0  0  0  0  0  0  0
   -0.8163    2.4421    0.3682 C   0  0  0  0  0  0  0  0  0  0  0  0
   -2.1471    2.0900    0.5930 C   0  0  0  0  0  0  0  0  0  0  0  0
    2.3396    0.9515   -0.0529 C   0  0  0  0  0  0  0  0  0  0  0  0
   -2.1532   -1.4504   -0.6817 C   0  0  0  0  0  0  0  0  0  0  0  0
    3.2103    0.4415   -1.0002 C   0  0  0  0  0  0  0  0  0  0  0  0
    2.4138    0.5737    1.2771 C   0  0  0  0  0  0  0  0  0  0  0  0
    4.1854   -0.4748   -0.6059 C   0  0  0  0  0  0  0  0  0  0  0  0
    3.3889   -0.3424    1.6713 C   0  0  0  0  0  0  0  0  0  0  0  0
    4.2747   -0.8667    0.7299 C   0  0  0  0  0  0  0  0  0  0  0  0
   -2.3861   -3.6847    0.1128 C   0  0  0  0  0  0  0  0  0  0  0  0
    0.2804   -0.4820   -0.9958 H   0  0  0  0  0  0  0  0  0  0  0  0
   -0.4698    3.4366    0.6358 H   0  0  0  0  0  0  0  0  0  0  0  0
   -2.7999    2.8382    1.0354 H   0  0  0  0  0  0  0  0  0  0  0  0
    1.7385    0.9821    2.0234 H   0  0  0  0  0  0  0  0  0  0  0  0
    4.8769   -0.8845   -1.3391 H   0  0  0  0  0  0  0  0  0  0  0  0
    3.4482   -0.6371    2.7159 H   0  0  0  0  0  0  0  0  0  0  0  0
   -3.4524   -3.7325   -0.1268 H   0  0  0  0  0  0  0  0  0  0  0  0
   -2.2038   -4.2586    1.0251 H   0  0  0  0  0  0  0  0  0  0  0  0
   -1.7882   -4.1115   -0.6979 H   0  0  0  0  0  0  0  0  0  0  0  0
  1 17  1  0  0  0  0
  2 21  1  0  0  0  0
  3 10  1  0  0  0  0
  3 15  1  0  0  0  0
  4 16  1  0  0  0  0
  4 22  1  0  0  0  0
  5 16  2  0  0  0  0
  6  8  1  0  0  0  0
  7  8  2  0  0  0  0
  8 11  1  0  0  0  0
  9 11  2  0  0  0  0
  9 12  1  0  0  0  0
  9 16  1  0  0  0  0
 10 12  2  0  0  0  0
 10 13  1  0  0  0  0
 11 14  1  0  0  0  0
 12 23  1  0  0  0  0
 13 14  2  0  0  0  0
 13 24  1  0  0  0  0
 14 25  1  0  0  0  0
 15 17  2  0  0  0  0
 15 18  1  0  0  0  0
 17 19  1  0  0  0  0
 18 20  2  0  0  0  0
 18 26  1  0  0  0  0
 19 21  2  0  0  0  0
 19 27  1  0  0  0  0
 20 21  1  0  0  0  0
 20 28  1  0  0  0  0
 22 29  1  0  0  0  0
 22 30  1  0  0  0  0
 22 31  1  0  0  0  0
M  CHG  2   6  -1   8   1
M  END
> <PUBCHEM_COMPOUND_CID>
39230

> <PUBCHEM_CONFORMER_RMSD>
0.8

> <PUBCHEM_CONFORMER_DIVERSEORDER>
1
15
23
14
11
18
2
5
10
6
12
24
16
9
3
8
22
13
17
4
7
21
19
20

> <PUBCHEM_MMFF94_PARTIAL_CHARGES>
28
1 -0.18
10 0.08
11 0.13
12 -0.15
13 -0.15
14 -0.15
15 0.08
16 0.63
17 0.18
18 -0.15
19 -0.15
2 -0.18
20 -0.15
21 0.18
22 0.28
23 0.15
24 0.15
25 0.15
26 0.15
27 0.15
28 0.15
3 -0.17
4 -0.43
5 -0.57
6 -0.52
7 -0.52
8 0.91
9 0.09

> <PUBCHEM_EFFECTIVE_ROTOR_COUNT>
5

> <PUBCHEM_PHARMACOPHORE_FEATURES>
7
1 3 acceptor
1 5 acceptor
1 6 acceptor
1 6 anion
1 7 acceptor
6 15 17 18 19 20 21 rings
6 9 10 11 12 13 14 rings

> <PUBCHEM_HEAVY_ATOM_COUNT>
22

> <PUBCHEM_ATOM_DEF_STEREO_COUNT>
0

> <PUBCHEM_ATOM_UDEF_STEREO_COUNT>
0

> <PUBCHEM_BOND_DEF_STEREO_COUNT>
0

> <PUBCHEM_BOND_UDEF_STEREO_COUNT>
0

> <PUBCHEM_ISOTOPIC_ATOM_COUNT>
0

> <PUBCHEM_COMPONENT_COUNT>
1

> <PUBCHEM_CACTVS_TAUTO_COUNT>
1

> <PUBCHEM_CONFORMER_ID>
0000993E00000001

> <PUBCHEM_MMFF94_ENERGY>
81.4216

> <PUBCHEM_FEATURE_SELFOVERLAP>
35.603

> <PUBCHEM_SHAPE_FINGERPRINT>
10366900 7 17168148944494717768
12236239 1 18131062771106175500
12346177 29 18187376414963957325
12363563 72 18117286860650719318
12403259 327 17822584892602447602
12553582 1 18342747320827032440
12633257 1 17749116607871365920
12788726 201 18263066834017305704
13004483 165 16591434067539828367
13140716 1 18262521394444661217
13551218 46 18265335195066453218
13726171 33 17901630866382793452
13911987 19 15122353694568432034
14022347 108 18189032300686895916
16752209 62 18340217396116850453
17349148 13 18260547788827438773
17804303 29 18260265252377017032
17977361 122 18411989078207611259
1813 80 17559388266270391886
18186145 218 11959193920239085668
19049666 15 16734941479215414996
20281475 54 18271529684726421518
20291156 8 18341614759172621786
20600515 1 18186800287856381592
20645477 70 16630519644671056700
21713013 43 15841546375355615522
23366157 5 18051412872837252565
23559900 14 17894899733712474356
23728640 28 18335140895149464603
238 59 15482128088994136314
2838139 119 4821554644051224011
338550 245 18270395139145584742
4340502 62 14490474179853237973
465052 167 18130771366238787041
5104073 3 18261106340513050201
5385378 56 17903067078309664761
559249 180 17985834958687787696
5924683 9 17459490899703047551
602551 16 18261393381935895048

> <PUBCHEM_SHAPE_MULTIPOLES>
422.16
9.7
2.9
1.59
3.69
2.15
0.8
3.74
-2.22
-2.17
-0.12
1.6
-0.16
-2.13

> <PUBCHEM_SHAPE_SELFOVERLAP>
896.012

> <PUBCHEM_SHAPE_VOLUME>
237.7

> <PUBCHEM_COORDINATE_TYPE>
2
5
10

$$$$

