440944
  -OEChem-07051212513D

 20 20  0     0  0  0  0  0  0999 V2000
   -0.1529    2.3923   -0.4365 O   0  0  0  0  0  0  0  0  0  0  0  0
   -0.1450   -2.4028   -0.4002 O   0  0  0  0  0  0  0  0  0  0  0  0
    3.5398   -0.0428   -0.0828 O   0  0  0  0  0  0  0  0  0  0  0  0
    1.8586    0.0785    1.4393 O   0  0  0  0  0  0  0  0  0  0  0  0
   -0.1176   -0.0051   -0.4291 C   0  0  0  0  0  0  0  0  0  0  0  0
    1.2979   -0.0059   -0.9098 C   0  0  0  0  0  0  0  0  0  0  0  0
   -0.7799    1.2034   -0.2135 C   0  0  0  0  0  0  0  0  0  0  0  0
   -0.7760   -1.2125   -0.1963 C   0  0  0  0  0  0  0  0  0  0  0  0
   -2.1008    1.2046    0.2347 C   0  0  0  0  0  0  0  0  0  0  0  0
   -2.0969   -1.2114    0.2517 C   0  0  0  0  0  0  0  0  0  0  0  0
   -2.7593   -0.0029    0.4672 C   0  0  0  0  0  0  0  0  0  0  0  0
    2.2322    0.0045    0.2753 C   0  0  0  0  0  0  0  0  0  0  0  0
    1.5160    0.8437   -1.5648 H   0  0  0  0  0  0  0  0  0  0  0  0
    1.5032   -0.9057   -1.5015 H   0  0  0  0  0  0  0  0  0  0  0  0
   -2.6227    2.1424    0.4045 H   0  0  0  0  0  0  0  0  0  0  0  0
   -2.6223   -2.1444    0.4373 H   0  0  0  0  0  0  0  0  0  0  0  0
   -3.7878   -0.0020    0.8162 H   0  0  0  0  0  0  0  0  0  0  0  0
    0.8092    2.2865   -0.3728 H   0  0  0  0  0  0  0  0  0  0  0  0
   -0.7572   -3.1276   -0.1865 H   0  0  0  0  0  0  0  0  0  0  0  0
    4.1339   -0.0199    0.6975 H   0  0  0  0  0  0  0  0  0  0  0  0
  1  7  1  0  0  0  0
  1 18  1  0  0  0  0
  2  8  1  0  0  0  0
  2 19  1  0  0  0  0
  3 12  1  0  0  0  0
  3 20  1  0  0  0  0
  4 12  2  0  0  0  0
  5  6  1  0  0  0  0
  5  7  2  0  0  0  0
  5  8  1  0  0  0  0
  6 12  1  0  0  0  0
  6 13  1  0  0  0  0
  6 14  1  0  0  0  0
  7  9  1  0  0  0  0
  8 10  2  0  0  0  0
  9 11  2  0  0  0  0
  9 15  1  0  0  0  0
 10 11  1  0  0  0  0
 10 16  1  0  0  0  0
 11 17  1  0  0  0  0
M  END
> <PUBCHEM_COMPOUND_CID>
440944

> <PUBCHEM_CONFORMER_RMSD>
0.6

> <PUBCHEM_CONFORMER_DIVERSEORDER>
1
3
2

> <PUBCHEM_MMFF94_PARTIAL_CHARGES>
18
1 -0.53
10 -0.15
11 -0.15
12 0.66
15 0.15
16 0.15
17 0.15
18 0.45
19 0.45
2 -0.53
20 0.5
3 -0.65
4 -0.57
5 -0.14
6 0.2
7 0.08
8 0.08
9 -0.15

> <PUBCHEM_EFFECTIVE_ROTOR_COUNT>
2

> <PUBCHEM_PHARMACOPHORE_FEATURES>
6
1 1 donor
1 2 donor
1 3 acceptor
1 4 acceptor
3 3 4 12 anion
6 5 7 8 9 10 11 rings

> <PUBCHEM_HEAVY_ATOM_COUNT>
12

> <PUBCHEM_ATOM_DEF_STEREO_COUNT>
0

> <PUBCHEM_ATOM_UDEF_STEREO_COUNT>
0

> <PUBCHEM_BOND_DEF_STEREO_COUNT>
0

> <PUBCHEM_BOND_UDEF_STEREO_COUNT>
0

> <PUBCHEM_ISOTOPIC_ATOM_COUNT>
0

> <PUBCHEM_COMPONENT_COUNT>
1

> <PUBCHEM_CACTVS_TAUTO_COUNT>
5

> <PUBCHEM_CONFORMER_ID>
0006BA7000000001

> <PUBCHEM_MMFF94_ENERGY>
27.4784

> <PUBCHEM_FEATURE_SELFOVERLAP>
30.504

> <PUBCHEM_SHAPE_FINGERPRINT>
10857977 72 18409449172087735777
12423570 1 8709912785569383599
13024252 1 15554733286877302469
14993402 34 18340769256295395447
15076042 46 18127985310773437082
15775835 57 18336262439600493730
16945 1 18338504301271137005
193761 8 17690839386253401965
20645464 45 17894917321428919106
20653085 51 14201399352526498728
20871998 184 18334570192442463895
21040471 1 18266447888180455957
23552423 10 17550378541010397941
2748010 2 18051395564598071439
369184 2 18409455786178992569
5084963 1 18040709255925639651
53812653 166 18188484804415819001
54338 74 18194420908532419687

> <PUBCHEM_SHAPE_MULTIPOLES>
223.48
3.86
1.88
0.88
1.97
0.01
-0.14
0.02
-0.8
-0.75
0.31
0.3
-0.01
0.02

> <PUBCHEM_SHAPE_SELFOVERLAP>
470.56

> <PUBCHEM_SHAPE_VOLUME>
125

> <PUBCHEM_COORDINATE_TYPE>
2
5
10

$$$$

