5281717
  -OEChem-07051212593D

 30 31  0     0  0  0  0  0  0999 V2000
   -2.1249   -1.1340    1.9747 O   0  0  0  0  0  0  0  0  0  0  0  0
    4.9126   -2.1101   -0.6497 O   0  0  0  0  0  0  0  0  0  0  0  0
    4.2428    2.4115    0.7261 O   0  0  0  0  0  0  0  0  0  0  0  0
   -6.0760   -0.1158   -0.4799 O   0  0  0  0  0  0  0  0  0  0  0  0
   -1.9775    0.2849    0.0407 C   0  0  0  0  0  0  0  0  0  0  0  0
    1.8559   -0.1695   -0.2343 C   0  0  0  0  0  0  0  0  0  0  0  0
   -0.5380    0.4415    0.2010 C   0  0  0  0  0  0  0  0  0  0  0  0
    0.3998   -0.3402   -0.3814 C   0  0  0  0  0  0  0  0  0  0  0  0
   -2.7203   -0.4935    0.9283 C   0  0  0  0  0  0  0  0  0  0  0  0
    2.3567    1.0535    0.1814 C   0  0  0  0  0  0  0  0  0  0  0  0
    2.6958   -1.2347   -0.5156 C   0  0  0  0  0  0  0  0  0  0  0  0
   -2.6119    0.9289   -1.0217 C   0  0  0  0  0  0  0  0  0  0  0  0
    4.0744   -1.0726   -0.3775 C   0  0  0  0  0  0  0  0  0  0  0  0
    3.7353    1.2156    0.3196 C   0  0  0  0  0  0  0  0  0  0  0  0
   -4.0976   -0.6281    0.7536 C   0  0  0  0  0  0  0  0  0  0  0  0
   -3.9892    0.7942   -1.1964 C   0  0  0  0  0  0  0  0  0  0  0  0
   -4.7321    0.0157   -0.3089 C   0  0  0  0  0  0  0  0  0  0  0  0
    4.5941    0.1526    0.0401 C   0  0  0  0  0  0  0  0  0  0  0  0
   -0.2677    1.2585    0.8639 H   0  0  0  0  0  0  0  0  0  0  0  0
    0.0797   -1.1650   -1.0153 H   0  0  0  0  0  0  0  0  0  0  0  0
    1.7222    1.9102    0.3871 H   0  0  0  0  0  0  0  0  0  0  0  0
    2.2928   -2.1912   -0.8400 H   0  0  0  0  0  0  0  0  0  0  0  0
   -2.0482    1.5402   -1.7225 H   0  0  0  0  0  0  0  0  0  0  0  0
   -4.6714   -1.2363    1.4486 H   0  0  0  0  0  0  0  0  0  0  0  0
   -4.4779    1.2982   -2.0258 H   0  0  0  0  0  0  0  0  0  0  0  0
    5.6695    0.2722    0.1456 H   0  0  0  0  0  0  0  0  0  0  0  0
   -1.1742   -0.9415    2.0022 H   0  0  0  0  0  0  0  0  0  0  0  0
    4.3840   -2.8790   -0.9246 H   0  0  0  0  0  0  0  0  0  0  0  0
    5.2123    2.3451    0.7666 H   0  0  0  0  0  0  0  0  0  0  0  0
   -6.4289   -0.6879    0.2231 H   0  0  0  0  0  0  0  0  0  0  0  0
  1  9  1  0  0  0  0
  1 27  1  0  0  0  0
  2 13  1  0  0  0  0
  2 28  1  0  0  0  0
  3 14  1  0  0  0  0
  3 29  1  0  0  0  0
  4 17  1  0  0  0  0
  4 30  1  0  0  0  0
  5  7  1  0  0  0  0
  5  9  2  0  0  0  0
  5 12  1  0  0  0  0
  6  8  1  0  0  0  0
  6 10  2  0  0  0  0
  6 11  1  0  0  0  0
  7  8  2  0  0  0  0
  7 19  1  0  0  0  0
  8 20  1  0  0  0  0
  9 15  1  0  0  0  0
 10 14  1  0  0  0  0
 10 21  1  0  0  0  0
 11 13  2  0  0  0  0
 11 22  1  0  0  0  0
 12 16  2  0  0  0  0
 12 23  1  0  0  0  0
 13 18  1  0  0  0  0
 14 18  2  0  0  0  0
 15 17  2  0  0  0  0
 15 24  1  0  0  0  0
 16 17  1  0  0  0  0
 16 25  1  0  0  0  0
 18 26  1  0  0  0  0
M  END
> <PUBCHEM_COMPOUND_CID>
5281717

> <PUBCHEM_CONFORMER_RMSD>
0.6

> <PUBCHEM_CONFORMER_DIVERSEORDER>
2
1
3

> <PUBCHEM_MMFF94_PARTIAL_CHARGES>
30
1 -0.53
10 -0.15
11 -0.15
12 -0.15
13 0.08
14 0.08
15 -0.15
16 -0.15
17 0.08
18 -0.15
19 0.15
2 -0.53
20 0.15
21 0.15
22 0.15
23 0.15
24 0.15
25 0.15
26 0.15
27 0.45
28 0.45
29 0.45
3 -0.53
30 0.45
4 -0.53
5 0.03
6 0.03
7 -0.18
8 -0.18
9 0.08

> <PUBCHEM_EFFECTIVE_ROTOR_COUNT>
2

> <PUBCHEM_PHARMACOPHORE_FEATURES>
6
1 1 donor
1 2 donor
1 3 donor
1 4 donor
6 5 9 12 15 16 17 rings
6 6 10 11 13 14 18 rings

> <PUBCHEM_HEAVY_ATOM_COUNT>
18

> <PUBCHEM_ATOM_DEF_STEREO_COUNT>
0

> <PUBCHEM_ATOM_UDEF_STEREO_COUNT>
0

> <PUBCHEM_BOND_DEF_STEREO_COUNT>
1

> <PUBCHEM_BOND_UDEF_STEREO_COUNT>
0

> <PUBCHEM_ISOTOPIC_ATOM_COUNT>
0

> <PUBCHEM_COMPONENT_COUNT>
1

> <PUBCHEM_CACTVS_TAUTO_COUNT>
75

> <PUBCHEM_CONFORMER_ID>
005097B500000002

> <PUBCHEM_MMFF94_ENERGY>
54.1097

> <PUBCHEM_FEATURE_SELFOVERLAP>
30.446

> <PUBCHEM_SHAPE_FINGERPRINT>
10366900 7 18271516589624453866
10912923 1 17167859751350642691
11287383 113 18409451362589505029
11471102 20 18334012796503806572
11615757 297 17603301548774877048
12236239 1 16805322201787348405
12403259 415 18130510816063199989
12616971 3 17458349649582920085
13167823 11 18113904861720669199
13533116 47 17968096438633502250
13675066 3 18201154369196001450
13760787 5 17821449062261945253
13955234 65 18187652388636051642
14386348 63 18272366464472257193
14573314 32 18059856198550889414
15242439 84 18130785689432407894
15375358 24 18273215278943400819
15880784 105 18260829276504752895
15961568 22 17202761493491901516
17834072 33 17894916200363314263
17844677 252 18334290998162056501
17870717 6 17846205700823305447
18186145 218 18202280337785553616
19489759 90 17632581556623886885
200 152 17967535696482804865
20279233 1 18273209798486081227
20369508 70 18340492270166514722
20645477 56 17703791414354219061
20645477 70 18334012830652866974
21033648 29 18339657688526218376
21065201 7 17489588969598198162
22646028 1 16950565501477815822
2297311 6 17703781553103896613
23048698 100 17821726130770833354
23402539 116 17560808702054462287
23536379 177 18114181960816476505
23557571 272 17917995005038457196
23559900 14 17988920076719997846
26918003 58 18410855460286443594
29717793 49 17386002909587963693
312423 11 17822838875388326064
351380 180 18342741810267888725
3545911 37 18410011001271035628
474 4 17097228129637236816
5104073 3 18411418444531298417
5281201 14 18411980286652318716
5283173 99 18270970158216025677
542803 24 16950279602974940561
573450 72 15841276977832404065
9709674 26 18130219350839577891
9971528 1 18273494567929795460

> <PUBCHEM_SHAPE_MULTIPOLES>
346.95
12.54
1.55
1.09
2.76
0.18
-0.23
-0.6
1.26
-2.33
-0.11
0.79
-0.13
1.77

> <PUBCHEM_SHAPE_SELFOVERLAP>
752.872

> <PUBCHEM_SHAPE_VOLUME>
189.9

> <PUBCHEM_COORDINATE_TYPE>
2
5
10

$$$$

