54675760
  -OEChem-07051212473D

 47 49  0     1  0  0  0  0  0999 V2000
    3.0027    1.0721    2.0871 O   0  0  0  0  0  0  0  0  0  0  0  0
    2.2597    0.7368   -2.5597 O   0  0  0  0  0  0  0  0  0  0  0  0
    5.2810    0.5294    0.3710 O   0  0  0  0  0  0  0  0  0  0  0  0
    0.9214    1.4765   -0.7816 N   0  0  0  0  0  0  0  0  0  0  0  0
   -3.2857    2.3943    0.9526 N   0  0  0  0  0  0  0  0  0  0  0  0
    1.0441    1.5999    0.6487 C   0  0  1  0  0  0  0  0  0  0  0  0
   -0.0112    0.7717    1.3661 C   0  0  0  0  0  0  0  0  0  0  0  0
   -1.4067    1.2140    1.0119 C   0  0  0  0  0  0  0  0  0  0  0  0
   -2.3094    0.5688    0.1210 C   0  0  0  0  0  0  0  0  0  0  0  0
    2.4374    1.0934    0.8421 C   0  0  0  0  0  0  0  0  0  0  0  0
   -3.4805    1.3294    0.1021 C   0  0  0  0  0  0  0  0  0  0  0  0
   -2.2425   -0.5932   -0.6732 C   0  0  0  0  0  0  0  0  0  0  0  0
   -2.0356    2.3330    1.5074 C   0  0  0  0  0  0  0  0  0  0  0  0
    3.0378    0.7124   -0.2935 C   0  0  0  0  0  0  0  0  0  0  0  0
    2.0606    0.9560   -1.3770 C   0  0  0  0  0  0  0  0  0  0  0  0
   -1.0339   -1.4745   -0.7215 C   0  0  0  0  0  0  0  0  0  0  0  0
   -4.5924    0.9848   -0.6747 C   0  0  0  0  0  0  0  0  0  0  0  0
   -3.3471   -0.9503   -1.4551 C   0  0  0  0  0  0  0  0  0  0  0  0
   -4.5030   -0.1719   -1.4542 C   0  0  0  0  0  0  0  0  0  0  0  0
    4.3869    0.1907   -0.4183 C   0  0  0  0  0  0  0  0  0  0  0  0
   -1.2150   -2.7555    0.0519 C   0  0  0  0  0  0  0  0  0  0  0  0
   -0.2786   -3.4691    0.7061 C   0  0  0  0  0  0  0  0  0  0  0  0
    4.6821   -0.7897   -1.5339 C   0  0  0  0  0  0  0  0  0  0  0  0
   -0.5291   -4.7438    1.4607 C   0  0  0  0  0  0  0  0  0  0  0  0
    1.1571   -3.0153    0.7141 C   0  0  0  0  0  0  0  0  0  0  0  0
    0.9732    2.6641    0.9006 H   0  0  0  0  0  0  0  0  0  0  0  0
    0.1074    0.9460    2.4465 H   0  0  0  0  0  0  0  0  0  0  0  0
    0.1353   -0.3027    1.2784 H   0  0  0  0  0  0  0  0  0  0  0  0
    0.1064    1.7729   -1.3099 H   0  0  0  0  0  0  0  0  0  0  0  0
   -1.7072    3.0917    2.2041 H   0  0  0  0  0  0  0  0  0  0  0  0
   -3.9675    3.1164    1.1399 H   0  0  0  0  0  0  0  0  0  0  0  0
   -0.9024   -1.7704   -1.7736 H   0  0  0  0  0  0  0  0  0  0  0  0
   -0.1149   -0.9452   -0.5097 H   0  0  0  0  0  0  0  0  0  0  0  0
   -5.4926    1.5901   -0.6748 H   0  0  0  0  0  0  0  0  0  0  0  0
   -3.3189   -1.8419   -2.0776 H   0  0  0  0  0  0  0  0  0  0  0  0
   -5.3492   -0.4675   -2.0693 H   0  0  0  0  0  0  0  0  0  0  0  0
   -2.2269   -3.1606    0.0667 H   0  0  0  0  0  0  0  0  0  0  0  0
    2.3621    1.4596    2.7077 H   0  0  0  0  0  0  0  0  0  0  0  0
    4.9666   -0.2431   -2.4362 H   0  0  0  0  0  0  0  0  0  0  0  0
    3.8120   -1.4217   -1.7322 H   0  0  0  0  0  0  0  0  0  0  0  0
    5.5040   -1.4438   -1.2282 H   0  0  0  0  0  0  0  0  0  0  0  0
    1.4056   -2.2969   -0.0699 H   0  0  0  0  0  0  0  0  0  0  0  0
   -1.5880   -5.0219    1.4415 H   0  0  0  0  0  0  0  0  0  0  0  0
   -0.2322   -4.6308    2.5083 H   0  0  0  0  0  0  0  0  0  0  0  0
    0.0412   -5.5682    1.0209 H   0  0  0  0  0  0  0  0  0  0  0  0
    1.8206   -3.8729    0.5537 H   0  0  0  0  0  0  0  0  0  0  0  0
    1.4064   -2.5728    1.6840 H   0  0  0  0  0  0  0  0  0  0  0  0
  1 10  1  0  0  0  0
  1 38  1  0  0  0  0
  2 15  2  0  0  0  0
  3 20  2  0  0  0  0
  4  6  1  0  0  0  0
  4 15  1  0  0  0  0
  4 29  1  0  0  0  0
  5 11  1  0  0  0  0
  5 13  1  0  0  0  0
  5 31  1  0  0  0  0
  6  7  1  0  0  0  0
  6 10  1  0  0  0  0
  6 26  1  0  0  0  0
  7  8  1  0  0  0  0
  7 27  1  0  0  0  0
  7 28  1  0  0  0  0
  8  9  1  0  0  0  0
  8 13  2  0  0  0  0
  9 11  1  0  0  0  0
  9 12  2  0  0  0  0
 10 14  2  0  0  0  0
 11 17  2  0  0  0  0
 12 16  1  0  0  0  0
 12 18  1  0  0  0  0
 13 30  1  0  0  0  0
 14 15  1  0  0  0  0
 14 20  1  0  0  0  0
 16 21  1  0  0  0  0
 16 32  1  0  0  0  0
 16 33  1  0  0  0  0
 17 19  1  0  0  0  0
 17 34  1  0  0  0  0
 18 19  2  0  0  0  0
 18 35  1  0  0  0  0
 19 36  1  0  0  0  0
 20 23  1  0  0  0  0
 21 22  2  0  0  0  0
 21 37  1  0  0  0  0
 22 24  1  0  0  0  0
 22 25  1  0  0  0  0
 23 39  1  0  0  0  0
 23 40  1  0  0  0  0
 23 41  1  0  0  0  0
 24 43  1  0  0  0  0
 24 44  1  0  0  0  0
 24 45  1  0  0  0  0
 25 42  1  0  0  0  0
 25 46  1  0  0  0  0
 25 47  1  0  0  0  0
M  END
> <PUBCHEM_COMPOUND_CID>
54675760

> <PUBCHEM_CONFORMER_RMSD>
0.8

> <PUBCHEM_CONFORMER_DIVERSEORDER>
5
62
37
10
64
60
27
7
16
46
52
19
48
77
49
23
41
14
56
63
70
40
59
25
58
74
34
65
33
50
66
71
73
20
53
31
43
32
24
35
9
72
18
15
76
61
55
30
42
75
8
13
6
68
47
29
36
39
12
22
78
45
1
51
44
26
54
17
3
21
2
38
69
79
28
11
57
67
4

> <PUBCHEM_MMFF94_PARTIAL_CHARGES>
32
1 -0.53
10 -0.06
11 -0.15
12 -0.14
13 -0.3
14 0.03
15 0.62
16 0.28
17 -0.15
18 -0.15
19 -0.15
2 -0.57
20 0.49
21 -0.29
22 -0.28
23 0.06
24 0.14
25 0.14
29 0.37
3 -0.57
30 0.15
31 0.27
34 0.15
35 0.15
36 0.15
37 0.15
38 0.45
4 -0.73
5 0.03
6 0.44
7 0.18
8 -0.18

> <PUBCHEM_EFFECTIVE_ROTOR_COUNT>
5.4

> <PUBCHEM_PHARMACOPHORE_FEATURES>
11
1 1 donor
1 14 anion
1 2 acceptor
1 3 acceptor
1 4 donor
1 5 cation
1 5 donor
3 22 24 25 hydrophobe
5 4 6 10 14 15 rings
5 5 8 9 11 13 rings
6 9 11 12 17 18 19 rings

> <PUBCHEM_HEAVY_ATOM_COUNT>
25

> <PUBCHEM_ATOM_DEF_STEREO_COUNT>
1

> <PUBCHEM_ATOM_UDEF_STEREO_COUNT>
0

> <PUBCHEM_BOND_DEF_STEREO_COUNT>
0

> <PUBCHEM_BOND_UDEF_STEREO_COUNT>
0

> <PUBCHEM_ISOTOPIC_ATOM_COUNT>
0

> <PUBCHEM_COMPONENT_COUNT>
1

> <PUBCHEM_CACTVS_TAUTO_COUNT>
20

> <PUBCHEM_CONFORMER_ID>
0342493000000005

> <PUBCHEM_MMFF94_ENERGY>
46.6281

> <PUBCHEM_FEATURE_SELFOVERLAP>
55.909

> <PUBCHEM_SHAPE_FINGERPRINT>
10190108 129 18340192005151028643
10366900 7 17604144818749469176
10369192 42 13468117383654240590
108634 29 18119256064443356430
121448 382 18334856117168485697
12592029 89 18130792286982085939
12788726 201 17554044334231569394
133893 2 17912930770898425947
13941206 138 18343302578125372402
14251757 17 17168418367434155716
14840074 17 17773897448684254874
14931854 50 18334581260509629342
15163728 17 17344367772237016349
15420108 30 17104796415678616704
16752209 62 18198627631451799483
20600515 1 18047221594836573721
20645476 183 18131076982947086731
21781051 124 18199739264205395371
22393880 68 18116157842650497069
23558518 356 18114737123488392585
23559900 14 17749117660075634416
25147074 1 17898581028066117953
3380486 145 17027129787535560819
5282940 2 18194120952401443011
81228 2 17968929782885783561
9709674 26 17895480206689065428

> <PUBCHEM_SHAPE_MULTIPOLES>
486.92
8.45
3.91
1.81
4
6.35
0.29
-3.52
3.27
-1.32
-2.43
0.5
-0.21
-0.52

> <PUBCHEM_SHAPE_SELFOVERLAP>
1051.101

> <PUBCHEM_SHAPE_VOLUME>
268.9

> <PUBCHEM_COORDINATE_TYPE>
2
5
10

$$$$

