8053
  -OEChem-07051212533D

 19 18  0     0  0  0  0  0  0999 V2000
   -1.5374   -0.0443   -0.4471 O   0  0  0  0  0  0  0  0  0  0  0  0
   -3.7606   -0.0226    0.0241 O   0  0  0  0  0  0  0  0  0  0  0  0
   -2.5383    0.0430    0.5600 N   0  0  0  0  0  0  0  0  0  0  0  0
    2.2482   -0.0152   -0.3587 C   0  0  0  0  0  0  0  0  0  0  0  0
    0.8127   -0.0636   -0.9066 C   0  0  0  0  0  0  0  0  0  0  0  0
    2.4641    1.2850    0.4194 C   0  0  0  0  0  0  0  0  0  0  0  0
    2.5706   -1.2124    0.5366 C   0  0  0  0  0  0  0  0  0  0  0  0
   -0.2594    0.0301    0.1724 C   0  0  0  0  0  0  0  0  0  0  0  0
    2.9350   -0.0289   -1.2141 H   0  0  0  0  0  0  0  0  0  0  0  0
    0.6679   -0.9878   -1.4809 H   0  0  0  0  0  0  0  0  0  0  0  0
    0.6649    0.7506   -1.6283 H   0  0  0  0  0  0  0  0  0  0  0  0
    3.5269    1.4066    0.6573 H   0  0  0  0  0  0  0  0  0  0  0  0
    1.9201    1.3007    1.3691 H   0  0  0  0  0  0  0  0  0  0  0  0
    2.1586    2.1547   -0.1718 H   0  0  0  0  0  0  0  0  0  0  0  0
    1.9933   -1.2032    1.4662 H   0  0  0  0  0  0  0  0  0  0  0  0
    3.6315   -1.2074    0.8101 H   0  0  0  0  0  0  0  0  0  0  0  0
    2.3662   -2.1533    0.0151 H   0  0  0  0  0  0  0  0  0  0  0  0
   -0.1597   -0.7955    0.8863 H   0  0  0  0  0  0  0  0  0  0  0  0
   -0.1858    0.9816    0.7107 H   0  0  0  0  0  0  0  0  0  0  0  0
  1  3  1  0  0  0  0
  1  8  1  0  0  0  0
  2  3  2  0  0  0  0
  4  5  1  0  0  0  0
  4  6  1  0  0  0  0
  4  7  1  0  0  0  0
  4  9  1  0  0  0  0
  5  8  1  0  0  0  0
  5 10  1  0  0  0  0
  5 11  1  0  0  0  0
  6 12  1  0  0  0  0
  6 13  1  0  0  0  0
  6 14  1  0  0  0  0
  7 15  1  0  0  0  0
  7 16  1  0  0  0  0
  7 17  1  0  0  0  0
  8 18  1  0  0  0  0
  8 19  1  0  0  0  0
M  END
> <PUBCHEM_COMPOUND_CID>
8053

> <PUBCHEM_CONFORMER_RMSD>
0.6

> <PUBCHEM_CONFORMER_DIVERSEORDER>
1
9
7
10
3
5
2
6
8
4
11
12

> <PUBCHEM_MMFF94_PARTIAL_CHARGES>
4
1 -0.09
2 -0.3
3 0.12
8 0.28

> <PUBCHEM_EFFECTIVE_ROTOR_COUNT>
4

> <PUBCHEM_PHARMACOPHORE_FEATURES>
1
3 4 6 7 hydrophobe

> <PUBCHEM_HEAVY_ATOM_COUNT>
8

> <PUBCHEM_ATOM_DEF_STEREO_COUNT>
0

> <PUBCHEM_ATOM_UDEF_STEREO_COUNT>
0

> <PUBCHEM_BOND_DEF_STEREO_COUNT>
0

> <PUBCHEM_BOND_UDEF_STEREO_COUNT>
0

> <PUBCHEM_ISOTOPIC_ATOM_COUNT>
0

> <PUBCHEM_COMPONENT_COUNT>
1

> <PUBCHEM_CACTVS_TAUTO_COUNT>
1

> <PUBCHEM_CONFORMER_ID>
00001F7500000001

> <PUBCHEM_MMFF94_ENERGY>
6.4413

> <PUBCHEM_FEATURE_SELFOVERLAP>
5.074

> <PUBCHEM_SHAPE_FINGERPRINT>
12932764 1 18411702084123767175
14325111 11 18411135823061861615
14390081 3 14056720170873071803
23552333 60 18187362138687772760
23552449 11 18411422842894144402
29004967 10 17703792518065771188
3248919 1 17240761796125455607
5460574 1 15482669070115777263

> <PUBCHEM_SHAPE_MULTIPOLES>
147.92
5.38
1.02
0.83
5.24
0.04
0.07
-0.07
-0.85
-1.07
-0.2
-0.2
-0.02
-0.04

> <PUBCHEM_SHAPE_SELFOVERLAP>
259.177

> <PUBCHEM_SHAPE_VOLUME>
98.3

> <PUBCHEM_COORDINATE_TYPE>
2
5
10

$$$$

