46173824
  -OEChem-07051213092D

 90 93  0     1  0  0  0  0  0999 V2000
    8.7320   -2.7216    0.0000 Br  0  0  0  0  0  0  0  0  0  0  0  0
   11.7321   -0.9895    0.0000 Br  0  0  0  0  0  0  0  0  0  0  0  0
    4.7320   -0.2575    0.0000 O   0  0  0  0  0  0  0  0  0  0  0  0
    4.7320   -1.2574    0.0000 O   0  0  0  0  0  0  0  0  0  0  0  0
    3.7508    2.0071    0.0000 O   0  0  0  0  0  0  0  0  0  0  0  0
    5.0742   -3.1971    0.0000 O   0  0  0  0  0  0  0  0  0  0  0  0
    7.9406   -0.0286    0.0000 O   0  0  0  0  0  0  0  0  0  0  0  0
    8.1966   -2.0184    0.0000 O   0  0  0  0  0  0  0  0  0  0  0  0
    4.9393    3.6235    0.0000 O   0  0  0  0  0  0  0  0  0  0  0  0
    6.9660   -1.6323    0.0000 O   0  0  0  0  0  0  0  0  0  0  0  0
    8.8356    2.6294    0.0000 O   0  0  0  0  0  0  0  0  0  0  0  0
   10.7321    0.7425    0.0000 O   0  0  0  0  0  0  0  0  0  0  0  0
    3.8660   -0.7575    0.0000 C   0  0  1  0  0  0  0  0  0  0  0  0
    3.0000   -1.2574    0.0000 C   0  0  0  0  0  0  0  0  0  0  0  0
    3.0000   -0.2575    0.0000 C   0  0  0  0  0  0  0  0  0  0  0  0
    3.0000   -2.2574    0.0000 C   0  0  0  0  0  0  0  0  0  0  0  0
    3.8660   -2.7574    0.0000 C   0  0  2  0  0  0  0  0  0  0  0  0
    4.7320    0.7425    0.0000 C   0  0  1  0  0  0  0  0  0  0  0  0
    3.8660    1.2426    0.0000 C   0  0  2  0  0  0  0  0  0  0  0  0
    3.0000    0.7425    0.0000 C   0  0  3  0  0  0  0  0  0  0  0  0
    4.7320   -2.2574    0.0000 C   0  0  2  0  0  0  0  0  0  0  0  0
    2.0000   -1.2574    0.0000 C   0  0  0  0  0  0  0  0  0  0  0  0
    2.2340   -0.6147    0.0000 C   0  0  0  0  0  0  0  0  0  0  0  0
    5.7320    0.7425    0.0000 C   0  0  2  0  0  0  0  0  0  0  0  0
    6.2026   -2.2395    0.0000 C   0  0  0  0  0  0  0  0  0  0  0  0
    3.3660   -3.6235    0.0000 C   0  0  0  0  0  0  0  0  0  0  0  0
    4.4410    2.2385    0.0000 C   0  0  0  0  0  0  0  0  0  0  0  0
    6.2320   -0.1235    0.0000 C   0  0  0  0  0  0  0  0  0  0  0  0
    6.2320    1.6086    0.0000 C   0  0  0  0  0  0  0  0  0  0  0  0
    7.2320   -0.1235    0.0000 C   0  0  0  0  0  0  0  0  0  0  0  0
    7.4105   -1.4004    0.0000 C   0  0  0  0  0  0  0  0  0  0  0  0
    5.0814    2.6336    0.0000 C   0  0  0  0  0  0  0  0  0  0  0  0
    6.5345    2.4068    0.0000 C   0  0  0  0  0  0  0  0  0  0  0  0
    7.7320   -0.9895    0.0000 C   0  0  1  0  0  0  0  0  0  0  0  0
    7.6108    1.4046    0.0000 C   0  0  2  0  0  0  0  0  0  0  0  0
    8.5768    1.6634    0.0000 C   0  0  1  0  0  0  0  0  0  0  0  0
    8.7320   -0.9895    0.0000 C   0  0  0  0  0  0  0  0  0  0  0  0
    9.2839    0.9563    0.0000 C   0  0  0  0  0  0  0  0  0  0  0  0
    9.2320   -0.1235    0.0000 C   0  0  0  0  0  0  0  0  0  0  0  0
    9.2320   -1.8555    0.0000 C   0  0  0  0  0  0  0  0  0  0  0  0
    7.1398   -2.6171    0.0000 C   0  0  0  0  0  0  0  0  0  0  0  0
   10.2321   -0.1235    0.0000 C   0  0  0  0  0  0  0  0  0  0  0  0
   10.2321   -1.8555    0.0000 C   0  0  0  0  0  0  0  0  0  0  0  0
   10.7321   -0.9895    0.0000 C   0  0  0  0  0  0  0  0  0  0  0  0
    2.3894   -0.1498    0.0000 H   0  0  0  0  0  0  0  0  0  0  0  0
    2.7880   -0.8401    0.0000 H   0  0  0  0  0  0  0  0  0  0  0  0
    2.3894   -2.1498    0.0000 H   0  0  0  0  0  0  0  0  0  0  0  0
    2.7880   -2.8401    0.0000 H   0  0  0  0  0  0  0  0  0  0  0  0
    4.1760   -3.2944    0.0000 H   0  0  0  0  0  0  0  0  0  0  0  0
    5.1570    1.4787    0.0000 H   0  0  0  0  0  0  0  0  0  0  0  0
    3.2834    1.4546    0.0000 H   0  0  0  0  0  0  0  0  0  0  0  0
    2.4021    0.9067    0.0000 H   0  0  0  0  0  0  0  0  0  0  0  0
    2.6325   -0.1397    0.0000 H   0  0  0  0  0  0  0  0  0  0  0  0
    1.7590   -0.2161    0.0000 H   0  0  0  0  0  0  0  0  0  0  0  0
    1.8354   -1.0896    0.0000 H   0  0  0  0  0  0  0  0  0  0  0  0
    2.0000   -0.6375    0.0000 H   0  0  0  0  0  0  0  0  0  0  0  0
    1.3800   -1.2574    0.0000 H   0  0  0  0  0  0  0  0  0  0  0  0
    2.0000   -1.8774    0.0000 H   0  0  0  0  0  0  0  0  0  0  0  0
    6.3520    0.7425    0.0000 H   0  0  0  0  0  0  0  0  0  0  0  0
    6.0117   -2.8293    0.0000 H   0  0  0  0  0  0  0  0  0  0  0  0
    6.0137   -1.6490    0.0000 H   0  0  0  0  0  0  0  0  0  0  0  0
    2.8291   -3.3135    0.0000 H   0  0  0  0  0  0  0  0  0  0  0  0
    3.0560   -4.1604    0.0000 H   0  0  0  0  0  0  0  0  0  0  0  0
    3.9030   -3.9335    0.0000 H   0  0  0  0  0  0  0  0  0  0  0  0
    4.9780    1.9285    0.0000 H   0  0  0  0  0  0  0  0  0  0  0  0
    4.7510    2.7754    0.0000 H   0  0  0  0  0  0  0  0  0  0  0  0
    3.9041    2.5485    0.0000 H   0  0  0  0  0  0  0  0  0  0  0  0
    5.6494   -0.3355    0.0000 H   0  0  0  0  0  0  0  0  0  0  0  0
    6.3397   -0.7341    0.0000 H   0  0  0  0  0  0  0  0  0  0  0  0
    6.7690    1.2986    0.0000 H   0  0  0  0  0  0  0  0  0  0  0  0
    6.5420    2.1455    0.0000 H   0  0  0  0  0  0  0  0  0  0  0  0
    5.6951    1.9186    0.0000 H   0  0  0  0  0  0  0  0  0  0  0  0
    5.6847   -3.3048    0.0000 H   0  0  0  0  0  0  0  0  0  0  0  0
    7.8147    0.0886    0.0000 H   0  0  0  0  0  0  0  0  0  0  0  0
    7.1244    0.4871    0.0000 H   0  0  0  0  0  0  0  0  0  0  0  0
    7.0799    2.7018    0.0000 H   0  0  0  0  0  0  0  0  0  0  0  0
    6.2636    1.8492    0.0000 H   0  0  0  0  0  0  0  0  0  0  0  0
    7.9441   -1.5721    0.0000 H   0  0  0  0  0  0  0  0  0  0  0  0
    7.8308    2.2257    0.0000 H   0  0  0  0  0  0  0  0  0  0  0  0
    9.1756    1.8239    0.0000 H   0  0  0  0  0  0  0  0  0  0  0  0
    8.8455    0.5179    0.0000 H   0  0  0  0  0  0  0  0  0  0  0  0
    9.7223    0.5179    0.0000 H   0  0  0  0  0  0  0  0  0  0  0  0
    9.7223    1.3947    0.0000 H   0  0  0  0  0  0  0  0  0  0  0  0
    8.9220    0.4135    0.0000 H   0  0  0  0  0  0  0  0  0  0  0  0
    9.4345    2.7898    0.0000 H   0  0  0  0  0  0  0  0  0  0  0  0
    6.5292   -2.7248    0.0000 H   0  0  0  0  0  0  0  0  0  0  0  0
    7.2474   -3.2277    0.0000 H   0  0  0  0  0  0  0  0  0  0  0  0
    7.7503   -2.5094    0.0000 H   0  0  0  0  0  0  0  0  0  0  0  0
   10.5421   -2.3925    0.0000 H   0  0  0  0  0  0  0  0  0  0  0  0
   11.3521    0.7425    0.0000 H   0  0  0  0  0  0  0  0  0  0  0  0
  1 40  1  0  0  0  0
  2 44  1  0  0  0  0
 13  3  1  1  0  0  0
  3 18  1  0  0  0  0
  4 13  1  0  0  0  0
  4 21  1  0  0  0  0
  5 20  1  0  0  0  0
  5 32  1  0  0  0  0
 21  6  1  6  0  0  0
  6 73  1  0  0  0  0
  7 31  1  0  0  0  0
  7 35  1  0  0  0  0
  8 31  2  0  0  0  0
  9 32  2  0  0  0  0
 34 10  1  1  0  0  0
 10 41  1  0  0  0  0
 36 11  1  6  0  0  0
 11 85  1  0  0  0  0
 12 42  1  0  0  0  0
 12 90  1  0  0  0  0
 13 14  1  0  0  0  0
 13 15  1  0  0  0  0
 14 16  1  0  0  0  0
 14 22  1  0  0  0  0
 14 23  1  0  0  0  0
 15 20  1  0  0  0  0
 15 45  1  0  0  0  0
 15 46  1  0  0  0  0
 16 17  1  0  0  0  0
 16 47  1  0  0  0  0
 16 48  1  0  0  0  0
 17 21  1  0  0  0  0
 17 26  1  6  0  0  0
 17 49  1  0  0  0  0
 18 19  1  0  0  0  0
 18 24  1  0  0  0  0
 18 50  1  6  0  0  0
 19 20  1  0  0  0  0
 19 27  1  6  0  0  0
 19 51  1  0  0  0  0
 20 52  1  0  0  0  0
 21 25  1  0  0  0  0
 22 56  1  0  0  0  0
 22 57  1  0  0  0  0
 22 58  1  0  0  0  0
 23 53  1  0  0  0  0
 23 54  1  0  0  0  0
 23 55  1  0  0  0  0
 24 28  1  0  0  0  0
 24 29  1  1  0  0  0
 24 59  1  0  0  0  0
 25 31  1  0  0  0  0
 25 60  1  0  0  0  0
 25 61  1  0  0  0  0
 26 62  1  0  0  0  0
 26 63  1  0  0  0  0
 26 64  1  0  0  0  0
 27 65  1  0  0  0  0
 27 66  1  0  0  0  0
 27 67  1  0  0  0  0
 28 30  1  0  0  0  0
 28 68  1  0  0  0  0
 28 69  1  0  0  0  0
 29 70  1  0  0  0  0
 29 71  1  0  0  0  0
 29 72  1  0  0  0  0
 30 34  1  0  0  0  0
 30 74  1  0  0  0  0
 30 75  1  0  0  0  0
 32 33  1  0  0  0  0
 33 35  1  0  0  0  0
 33 76  1  0  0  0  0
 33 77  1  0  0  0  0
 34 37  1  0  0  0  0
 34 78  1  0  0  0  0
 35 36  1  0  0  0  0
 35 79  1  1  0  0  0
 36 38  1  0  0  0  0
 36 80  1  0  0  0  0
 37 39  2  0  0  0  0
 37 40  1  0  0  0  0
 38 81  1  0  0  0  0
 38 82  1  0  0  0  0
 38 83  1  0  0  0  0
 39 42  1  0  0  0  0
 39 84  1  0  0  0  0
 40 43  2  0  0  0  0
 41 86  1  0  0  0  0
 41 87  1  0  0  0  0
 41 88  1  0  0  0  0
 42 44  2  0  0  0  0
 43 44  1  0  0  0  0
 43 89  1  0  0  0  0
M  END
> <PUBCHEM_COMPOUND_CID>
46173824

> <PUBCHEM_COMPOUND_CANONICALIZED>
1

> <PUBCHEM_CACTVS_COMPLEXITY>
1030

> <PUBCHEM_CACTVS_HBOND_ACCEPTOR>
10

> <PUBCHEM_CACTVS_HBOND_DONOR>
3

> <PUBCHEM_CACTVS_ROTATABLE_BOND>
7

> <PUBCHEM_CACTVS_SUBSKEYS>
AAADcfB8PAAAGAAAAAAAAAAAAAAAAAAAAAA0SIAAAAAAAAABAAAAGgBACAABrxSgmAIyDoAABgCIAiDSCAACAAAgIAQAiAEGCKgZNjaCMRqicAAl4BEPuhfK6PyPAhABAAAghAAEIAIAAEEIAAAAAAAAAA==

> <PUBCHEM_IUPAC_INCHI>
InChI=1S/C32H46Br2O10/c1-16(8-9-24(40-7)20-10-23(36)22(34)11-21(20)33)29-18(3)26-14-32(43-29)30(5,6)13-17(2)31(39,44-32)15-28(38)41-25(19(4)35)12-27(37)42-26/h10-11,16-19,24-26,29,35-36,39H,8-9,12-15H2,1-7H3/t16-,17+,18-,19+,24-,25+,26?,29+,31-,32-/m0/s1

> <PUBCHEM_IUPAC_INCHIKEY>
PIULICRFTROOFA-IPNHEGHDSA-N

> <PUBCHEM_XLOGP3_AA>
5.5

> <PUBCHEM_EXACT_MASS>
750.143725

> <PUBCHEM_MOLECULAR_FORMULA>
C32H46Br2O10

> <PUBCHEM_MOLECULAR_WEIGHT>
750.50964

> <PUBCHEM_OPENEYE_CAN_SMILES>
CC1CC(C23CC(C(C(O2)C(C)CCC(C4=CC(=C(C=C4Br)Br)O)OC)C)OC(=O)CC(OC(=O)CC1(O3)O)C(C)O)(C)C

> <PUBCHEM_OPENEYE_ISO_SMILES>
C[C@@H]1CC([C@@]23CC([C@@H]([C@H](O2)[C@@H](C)CC[C@@H](C4=CC(=C(C=C4Br)Br)O)OC)C)OC(=O)C[C@@H](OC(=O)C[C@@]1(O3)O)[C@@H](C)O)(C)C

> <PUBCHEM_CACTVS_TPSA>
141

> <PUBCHEM_MONOISOTOPIC_WEIGHT>
748.145772

> <PUBCHEM_TOTAL_CHARGE>
0

> <PUBCHEM_HEAVY_ATOM_COUNT>
44

> <PUBCHEM_ATOM_DEF_STEREO_COUNT>
9

> <PUBCHEM_ATOM_UDEF_STEREO_COUNT>
1

> <PUBCHEM_BOND_DEF_STEREO_COUNT>
0

> <PUBCHEM_BOND_UDEF_STEREO_COUNT>
0

> <PUBCHEM_ISOTOPIC_ATOM_COUNT>
0

> <PUBCHEM_COMPONENT_COUNT>
1

> <PUBCHEM_CACTVS_TAUTO_COUNT>
3

> <PUBCHEM_COORDINATE_TYPE>
1
5
255

> <PUBCHEM_BONDANNOTATIONS>
34  10  5
36  11  6
20  15  3
17  26  6
18  50  6
19  27  6
24  29  5
13  3  5
35  79  5
37  39  8
37  40  8
39  42  8
40  43  8
42  44  8
43  44  8
21  6  6

$$$$

