31423
  -OEChem-07051213053D

 26 29  0     0  0  0  0  0  0999 V2000
    0.7085    0.0000    0.0000 C   0  0  0  0  0  0  0  0  0  0  0  0
   -0.7085    0.0000    0.0000 C   0  0  0  0  0  0  0  0  0  0  0  0
    1.4154    1.2251    0.0000 C   0  0  0  0  0  0  0  0  0  0  0  0
   -1.4154    1.2250    0.0000 C   0  0  0  0  0  0  0  0  0  0  0  0
    1.4154   -1.2250    0.0000 C   0  0  0  0  0  0  0  0  0  0  0  0
   -1.4154   -1.2251    0.0000 C   0  0  0  0  0  0  0  0  0  0  0  0
    0.6981    2.4290    0.0000 C   0  0  0  0  0  0  0  0  0  0  0  0
   -0.6982    2.4290    0.0000 C   0  0  0  0  0  0  0  0  0  0  0  0
    0.6982   -2.4290    0.0000 C   0  0  0  0  0  0  0  0  0  0  0  0
   -0.6981   -2.4290    0.0000 C   0  0  0  0  0  0  0  0  0  0  0  0
    2.8178    1.2084   -0.0001 C   0  0  0  0  0  0  0  0  0  0  0  0
   -2.8178    1.2083    0.0000 C   0  0  0  0  0  0  0  0  0  0  0  0
    2.8178   -1.2083    0.0000 C   0  0  0  0  0  0  0  0  0  0  0  0
   -2.8178   -1.2084    0.0000 C   0  0  0  0  0  0  0  0  0  0  0  0
    3.5126    0.0000    0.0000 C   0  0  0  0  0  0  0  0  0  0  0  0
   -3.5126    0.0000    0.0000 C   0  0  0  0  0  0  0  0  0  0  0  0
    1.2203    3.3836    0.0000 H   0  0  0  0  0  0  0  0  0  0  0  0
   -1.2205    3.3836    0.0000 H   0  0  0  0  0  0  0  0  0  0  0  0
    1.2205   -3.3836    0.0000 H   0  0  0  0  0  0  0  0  0  0  0  0
   -1.2203   -3.3836    0.0000 H   0  0  0  0  0  0  0  0  0  0  0  0
    3.3827    2.1382   -0.0001 H   0  0  0  0  0  0  0  0  0  0  0  0
   -3.3829    2.1380    0.0001 H   0  0  0  0  0  0  0  0  0  0  0  0
    3.3828   -2.1380    0.0001 H   0  0  0  0  0  0  0  0  0  0  0  0
   -3.3827   -2.1382   -0.0001 H   0  0  0  0  0  0  0  0  0  0  0  0
    4.5989    0.0001    0.0000 H   0  0  0  0  0  0  0  0  0  0  0  0
   -4.5989    0.0000    0.0000 H   0  0  0  0  0  0  0  0  0  0  0  0
  1  2  1  0  0  0  0
  1  3  2  0  0  0  0
  1  5  1  0  0  0  0
  2  4  2  0  0  0  0
  2  6  1  0  0  0  0
  3  7  1  0  0  0  0
  3 11  1  0  0  0  0
  4  8  1  0  0  0  0
  4 12  1  0  0  0  0
  5  9  1  0  0  0  0
  5 13  2  0  0  0  0
  6 10  1  0  0  0  0
  6 14  2  0  0  0  0
  7  8  2  0  0  0  0
  7 17  1  0  0  0  0
  8 18  1  0  0  0  0
  9 10  2  0  0  0  0
  9 19  1  0  0  0  0
 10 20  1  0  0  0  0
 11 15  2  0  0  0  0
 11 21  1  0  0  0  0
 12 16  2  0  0  0  0
 12 22  1  0  0  0  0
 13 15  1  0  0  0  0
 13 23  1  0  0  0  0
 14 16  1  0  0  0  0
 14 24  1  0  0  0  0
 15 25  1  0  0  0  0
 16 26  1  0  0  0  0
M  END
> <PUBCHEM_COMPOUND_CID>
31423

> <PUBCHEM_CONFORMER_RMSD>
0.4

> <PUBCHEM_CONFORMER_DIVERSEORDER>
1

> <PUBCHEM_MMFF94_PARTIAL_CHARGES>
20
10 -0.15
11 -0.15
12 -0.15
13 -0.15
14 -0.15
15 -0.15
16 -0.15
17 0.15
18 0.15
19 0.15
20 0.15
21 0.15
22 0.15
23 0.15
24 0.15
25 0.15
26 0.15
7 -0.15
8 -0.15
9 -0.15

> <PUBCHEM_EFFECTIVE_ROTOR_COUNT>
0

> <PUBCHEM_PHARMACOPHORE_FEATURES>
4
6 1 2 3 4 7 8 rings
6 1 2 5 6 9 10 rings
6 1 3 5 11 13 15 rings
6 2 4 6 12 14 16 rings

> <PUBCHEM_HEAVY_ATOM_COUNT>
16

> <PUBCHEM_ATOM_DEF_STEREO_COUNT>
0

> <PUBCHEM_ATOM_UDEF_STEREO_COUNT>
0

> <PUBCHEM_BOND_DEF_STEREO_COUNT>
0

> <PUBCHEM_BOND_UDEF_STEREO_COUNT>
0

> <PUBCHEM_ISOTOPIC_ATOM_COUNT>
0

> <PUBCHEM_COMPONENT_COUNT>
1

> <PUBCHEM_CACTVS_TAUTO_COUNT>
1

> <PUBCHEM_CONFORMER_ID>
00007ABF00000001

> <PUBCHEM_MMFF94_ENERGY>
55.2043

> <PUBCHEM_FEATURE_SELFOVERLAP>
20.429

> <PUBCHEM_SHAPE_FINGERPRINT>
10967382 1 18410855451548861159
11132069 177 18409173224696933928
11471102 20 18411142446075473053
11680986 33 18050849914245443185
12382932 28 18409730676928660128
13140716 1 18410574032396091856
13221675 6 18410855460128207270
13380535 76 18410857659151800611
13897977 150 18338801216454946589
14614273 12 18128823134281046797
14790565 3 18338776975370325988
15196674 1 18410855460128161796
15536298 74 18333169466468529670
16945 1 18410575084663078918
193761 8 17762056944480157700
19591789 44 18410851066377209126
20510252 161 18260830435987804120
20588541 1 18410571790423169388
20905425 154 18047751782599781478
21267235 1 18410846668330464166
21501502 16 18410574015216235208
22721475 48 18410852165888395173
2334 1 18410573959381647367
23402539 116 18334869311371465510
23419403 2 16023747421998971433
23463225 33 18413390951343261024
23559900 14 18262510396173204452
238 59 17767169519415934197
2748010 2 18410573976561516655
2897 32 18340204197339029756
335352 9 18050287260502327742
5104073 3 18410855464423130088
528886 8 18410016528540394338
53812653 166 18335423452146424640
589210 1 17690279313595740001
8809292 202 18343860013356246114

> <PUBCHEM_SHAPE_MULTIPOLES>
329.27
4.83
2.83
0.62
0
0
0
0
0
0
0
0
0
0

> <PUBCHEM_SHAPE_SELFOVERLAP>
771.543

> <PUBCHEM_SHAPE_VOLUME>
150.6

> <PUBCHEM_COORDINATE_TYPE>
2
5
10

$$$$

