441200
  -OEChem-07051212523D

 19 19  0     1  0  0  0  0  0999 V2000
    1.2510   -0.6149   -1.9460 O   0  0  0  0  0  0  0  0  0  0  0  0
    0.4850   -1.4864    1.5069 O   0  0  0  0  0  0  0  0  0  0  0  0
    1.9664    1.0896    1.1802 O   0  0  0  0  0  0  0  0  0  0  0  0
   -2.3853    1.4282   -0.0630 O   0  0  0  0  0  0  0  0  0  0  0  0
   -2.1278   -1.2954   -0.0046 O   0  0  0  0  0  0  0  0  0  0  0  0
    1.3881   -0.5139   -0.5288 C   0  0  2  0  0  0  0  0  0  0  0  0
    0.2652   -1.3214    0.1163 C   0  0  2  0  0  0  0  0  0  0  0  0
    1.3794    0.9606   -0.1121 C   0  0  1  0  0  0  0  0  0  0  0  0
   -1.0847   -0.6419   -0.0078 C   0  0  0  0  0  0  0  0  0  0  0  0
    0.0005    1.5514   -0.0777 C   0  0  0  0  0  0  0  0  0  0  0  0
   -1.1378    0.8440   -0.0634 C   0  0  0  0  0  0  0  0  0  0  0  0
    2.3540   -0.9578   -0.2575 H   0  0  0  0  0  0  0  0  0  0  0  0
    0.1897   -2.3101   -0.3499 H   0  0  0  0  0  0  0  0  0  0  0  0
    1.9826    1.5451   -0.8171 H   0  0  0  0  0  0  0  0  0  0  0  0
   -0.0536    2.6378   -0.0781 H   0  0  0  0  0  0  0  0  0  0  0  0
    1.3276   -1.5549   -2.1833 H   0  0  0  0  0  0  0  0  0  0  0  0
    0.6373   -0.6120    1.9033 H   0  0  0  0  0  0  0  0  0  0  0  0
    2.8853    0.7773    1.1184 H   0  0  0  0  0  0  0  0  0  0  0  0
   -2.2680    2.3935   -0.0911 H   0  0  0  0  0  0  0  0  0  0  0  0
  1  6  1  0  0  0  0
  1 16  1  0  0  0  0
  2  7  1  0  0  0  0
  2 17  1  0  0  0  0
  3  8  1  0  0  0  0
  3 18  1  0  0  0  0
  4 11  1  0  0  0  0
  4 19  1  0  0  0  0
  5  9  2  0  0  0  0
  6  7  1  0  0  0  0
  6  8  1  0  0  0  0
  6 12  1  0  0  0  0
  7  9  1  0  0  0  0
  7 13  1  0  0  0  0
  8 10  1  0  0  0  0
  8 14  1  0  0  0  0
  9 11  1  0  0  0  0
 10 11  2  0  0  0  0
 10 15  1  0  0  0  0
M  END
> <PUBCHEM_COMPOUND_CID>
441200

> <PUBCHEM_CONFORMER_RMSD>
0.4

> <PUBCHEM_CONFORMER_DIVERSEORDER>
2
1

> <PUBCHEM_MMFF94_PARTIAL_CHARGES>
16
1 -0.68
10 -0.29
11 0.09
15 0.15
16 0.4
17 0.4
18 0.4
19 0.45
2 -0.68
3 -0.68
4 -0.53
5 -0.57
6 0.28
7 0.34
8 0.42
9 0.49

> <PUBCHEM_EFFECTIVE_ROTOR_COUNT>
0.6

> <PUBCHEM_PHARMACOPHORE_FEATURES>
9
1 1 acceptor
1 1 donor
1 2 acceptor
1 2 donor
1 3 acceptor
1 3 donor
1 4 donor
1 5 acceptor
6 6 7 8 9 10 11 rings

> <PUBCHEM_HEAVY_ATOM_COUNT>
11

> <PUBCHEM_ATOM_DEF_STEREO_COUNT>
3

> <PUBCHEM_ATOM_UDEF_STEREO_COUNT>
0

> <PUBCHEM_BOND_DEF_STEREO_COUNT>
0

> <PUBCHEM_BOND_UDEF_STEREO_COUNT>
0

> <PUBCHEM_ISOTOPIC_ATOM_COUNT>
0

> <PUBCHEM_COMPONENT_COUNT>
1

> <PUBCHEM_CACTVS_TAUTO_COUNT>
21

> <PUBCHEM_CONFORMER_ID>
0006BB7000000002

> <PUBCHEM_MMFF94_ENERGY>
13.6966

> <PUBCHEM_FEATURE_SELFOVERLAP>
45.673

> <PUBCHEM_SHAPE_FINGERPRINT>
12423570 1 17825107000029584606
13024252 1 17409692820001448552
137420 1 6811404818390154870
16945 1 18047761398862466076
18185500 45 17912643797957407195
21040471 1 18269552904611792069
21922407 69 15051155784471688237
241688 4 18339065060311410369
2748010 2 18409164407092171469
29004967 10 17168412891598792574
5084963 1 18190457169114248280

> <PUBCHEM_SHAPE_MULTIPOLES>
197.03
2.42
1.8
1.16
0.85
0.08
0.14
0.45
0.03
0.28
-0.28
-0.68
-0.32
0.27

> <PUBCHEM_SHAPE_SELFOVERLAP>
405.53

> <PUBCHEM_SHAPE_VOLUME>
111.7

> <PUBCHEM_COORDINATE_TYPE>
2
5
10

$$$$

