453619
  -OEChem-07051212453D

 29 29  0     1  0  0  0  0  0999 V2000
   -3.2001   -0.0440    0.0541 S   0  0  0  0  0  0  0  0  0  0  0  0
    1.5919   -1.2069    0.1917 O   0  0  0  0  0  0  0  0  0  0  0  0
   -0.4112    2.3745    0.2384 O   0  0  0  0  0  0  0  0  0  0  0  0
    2.4285    2.3400   -0.2525 O   0  0  0  0  0  0  0  0  0  0  0  0
   -0.3933   -2.4001   -0.0483 O   0  0  0  0  0  0  0  0  0  0  0  0
    4.3182   -1.4792    0.0271 O   0  0  0  0  0  0  0  0  0  0  0  0
   -2.9742   -1.2644    1.1123 O   0  0  0  0  0  0  0  0  0  0  0  0
   -4.2874   -0.4219   -0.8299 O   0  0  0  0  0  0  0  0  0  0  0  0
   -3.2793    1.1868    0.8192 O   0  0  0  0  0  0  0  0  0  0  0  0
   -1.7447    0.0078   -0.8464 N   0  0  0  0  0  0  0  0  0  0  0  0
   -0.5009   -0.0041   -0.1045 C   0  0  2  0  0  0  0  0  0  0  0  0
    0.2849    1.2838   -0.3683 C   0  0  2  0  0  0  0  0  0  0  0  0
    1.6966    1.2111    0.2177 C   0  0  1  0  0  0  0  0  0  0  0  0
    2.3891   -0.0883   -0.2012 C   0  0  1  0  0  0  0  0  0  0  0  0
    0.3271   -1.2417   -0.4674 C   0  0  1  0  0  0  0  0  0  0  0  0
    3.7548   -0.2535    0.4579 C   0  0  0  0  0  0  0  0  0  0  0  0
   -0.7128   -0.0420    0.9727 H   0  0  0  0  0  0  0  0  0  0  0  0
    0.3319    1.5005   -1.4428 H   0  0  0  0  0  0  0  0  0  0  0  0
    1.6371    1.2830    1.3113 H   0  0  0  0  0  0  0  0  0  0  0  0
    2.5310   -0.1228   -1.2899 H   0  0  0  0  0  0  0  0  0  0  0  0
    0.4792   -1.3138   -1.5521 H   0  0  0  0  0  0  0  0  0  0  0  0
   -1.7310   -0.4454   -1.7687 H   0  0  0  0  0  0  0  0  0  0  0  0
    3.6725   -0.2875    1.5493 H   0  0  0  0  0  0  0  0  0  0  0  0
    4.4416    0.5504    0.1803 H   0  0  0  0  0  0  0  0  0  0  0  0
   -0.4627    2.2064    1.1946 H   0  0  0  0  0  0  0  0  0  0  0  0
    3.2508    2.3960    0.2622 H   0  0  0  0  0  0  0  0  0  0  0  0
   -0.0886   -3.1403   -0.6001 H   0  0  0  0  0  0  0  0  0  0  0  0
    3.7028   -2.1897    0.2767 H   0  0  0  0  0  0  0  0  0  0  0  0
   -2.7679   -2.1398    0.7083 H   0  0  0  0  0  0  0  0  0  0  0  0
  1  7  1  0  0  0  0
  1  8  2  0  0  0  0
  1  9  2  0  0  0  0
  1 10  1  0  0  0  0
  2 14  1  0  0  0  0
  2 15  1  0  0  0  0
  3 12  1  0  0  0  0
  3 25  1  0  0  0  0
  4 13  1  0  0  0  0
  4 26  1  0  0  0  0
  5 15  1  0  0  0  0
  5 27  1  0  0  0  0
  6 16  1  0  0  0  0
  6 28  1  0  0  0  0
  7 29  1  0  0  0  0
 10 11  1  0  0  0  0
 10 22  1  0  0  0  0
 11 12  1  0  0  0  0
 11 15  1  0  0  0  0
 11 17  1  0  0  0  0
 12 13  1  0  0  0  0
 12 18  1  0  0  0  0
 13 14  1  0  0  0  0
 13 19  1  0  0  0  0
 14 16  1  0  0  0  0
 14 20  1  0  0  0  0
 15 21  1  0  0  0  0
 16 23  1  0  0  0  0
 16 24  1  0  0  0  0
M  END
> <PUBCHEM_COMPOUND_CID>
453619

> <PUBCHEM_CONFORMER_RMSD>
0.6

> <PUBCHEM_CONFORMER_DIVERSEORDER>
1
31
37
25
38
13
19
34
40
24
27
5
30
32
22
7
29
44
33
16
9
21
39
3
15
42
26
41
28
8
36
18
20
12
4
17
6
10
43
35
2
23
11
14

> <PUBCHEM_MMFF94_PARTIAL_CHARGES>
22
1 1.62
10 -0.91
11 0.36
12 0.28
13 0.28
14 0.28
15 0.56
16 0.28
2 -0.56
22 0.42
25 0.4
26 0.4
27 0.4
28 0.4
29 0.5
3 -0.68
4 -0.68
5 -0.68
6 -0.68
7 -0.68
8 -0.65
9 -0.65

> <PUBCHEM_EFFECTIVE_ROTOR_COUNT>
4.2

> <PUBCHEM_PHARMACOPHORE_FEATURES>
15
1 10 donor
1 2 acceptor
1 3 acceptor
1 3 donor
1 4 acceptor
1 4 donor
1 5 acceptor
1 5 donor
1 6 acceptor
1 6 donor
1 7 acceptor
1 8 acceptor
1 9 acceptor
4 1 7 8 9 anion
6 2 11 12 13 14 15 rings

> <PUBCHEM_HEAVY_ATOM_COUNT>
16

> <PUBCHEM_ATOM_DEF_STEREO_COUNT>
4

> <PUBCHEM_ATOM_UDEF_STEREO_COUNT>
1

> <PUBCHEM_BOND_DEF_STEREO_COUNT>
0

> <PUBCHEM_BOND_UDEF_STEREO_COUNT>
0

> <PUBCHEM_ISOTOPIC_ATOM_COUNT>
0

> <PUBCHEM_COMPONENT_COUNT>
1

> <PUBCHEM_CACTVS_TAUTO_COUNT>
1

> <PUBCHEM_CONFORMER_ID>
0006EBF300000001

> <PUBCHEM_MMFF94_ENERGY>
32.9649

> <PUBCHEM_FEATURE_SELFOVERLAP>
76.236

> <PUBCHEM_SHAPE_FINGERPRINT>
10130415 120 18412266129552415536
10219947 1 18409730651227434471
11132069 177 18260269680530094354
11471102 20 18412269423713164908
11471102 22 18340472409667701275
12032990 46 18412260653453425214
124424 183 18202847660237241211
13140716 1 18267031565878370882
13380535 21 18125716786536494620
13690532 89 18410579508817218374
13862211 1 18338525230652701246
14251717 144 18409173199111804991
14325111 11 18338797810556540813
14993402 34 18409449176208655798
15219456 202 18129943364925763529
15442244 35 18337391543637373814
15848702 151 17749387134681364750
16945 1 18410860970998509606
18175812 5 17988645168637526159
18186145 218 18409726253202236933
193761 8 17906175044812969654
200 152 18186813461221860439
20201158 50 18343865541321930331
20645477 70 18340214007155227319
20671657 1 18268705013817379140
21029758 27 18271519884133343468
21501502 16 18122066407790080918
2334 1 18050571742373097550
23402539 116 18261966248863522222
23463225 33 18411136930994735892
23557571 272 13984652647081823923
2748010 2 18194401087522053854
53655031 270 18336545031268675104
8809292 202 18130782360996316523

> <PUBCHEM_SHAPE_MULTIPOLES>
281.19
6.73
2.15
0.8
1
0.43
-0.04
-1.38
-0.55
-0.76
-0.08
0.45
-0.04
-0.14

> <PUBCHEM_SHAPE_SELFOVERLAP>
550.548

> <PUBCHEM_SHAPE_VOLUME>
169.4

> <PUBCHEM_COORDINATE_TYPE>
2
5
10

$$$$

