21327
  -OEChem-07051212493D

 23 24  0     1  0  0  0  0  0999 V2000
    5.0289    0.7093   -0.0664 O   0  0  0  0  0  0  0  0  0  0  0  0
    1.7835   -0.4498    0.3093 O   0  0  0  0  0  0  0  0  0  0  0  0
   -4.2247    1.3132   -0.0356 O   0  5  0  0  0  0  0  0  0  0  0  0
   -4.4495   -0.8655   -0.2381 O   0  0  0  0  0  0  0  0  0  0  0  0
   -3.7394    0.1581   -0.0929 N   0  3  0  0  0  0  0  0  0  0  0  0
    3.9119    0.0638   -0.6603 C   0  0  1  0  0  0  0  0  0  0  0  0
    4.7903   -0.6571    0.2952 C   0  0  0  0  0  0  0  0  0  0  0  0
    2.5916    0.6222   -0.1737 C   0  0  0  0  0  0  0  0  0  0  0  0
    0.4341   -0.3013    0.2111 C   0  0  0  0  0  0  0  0  0  0  0  0
   -0.1336    0.9714    0.2716 C   0  0  0  0  0  0  0  0  0  0  0  0
   -0.3809   -1.4217    0.0499 C   0  0  0  0  0  0  0  0  0  0  0  0
   -2.3317    0.0032    0.0097 C   0  0  0  0  0  0  0  0  0  0  0  0
   -1.5165    1.1236    0.1709 C   0  0  0  0  0  0  0  0  0  0  0  0
   -1.7638   -1.2694   -0.0508 C   0  0  0  0  0  0  0  0  0  0  0  0
    3.9385   -0.1985   -1.7073 H   0  0  0  0  0  0  0  0  0  0  0  0
    4.4354   -0.8525    1.2988 H   0  0  0  0  0  0  0  0  0  0  0  0
    5.4709   -1.4020   -0.0964 H   0  0  0  0  0  0  0  0  0  0  0  0
    2.1295    1.1345   -1.0269 H   0  0  0  0  0  0  0  0  0  0  0  0
    2.7495    1.3420    0.6384 H   0  0  0  0  0  0  0  0  0  0  0  0
    0.4623    1.8664    0.4234 H   0  0  0  0  0  0  0  0  0  0  0  0
    0.0563   -2.4153    0.0020 H   0  0  0  0  0  0  0  0  0  0  0  0
   -1.9243    2.1297    0.2281 H   0  0  0  0  0  0  0  0  0  0  0  0
   -2.3671   -2.1651   -0.1757 H   0  0  0  0  0  0  0  0  0  0  0  0
  1  6  1  0  0  0  0
  1  7  1  0  0  0  0
  2  8  1  0  0  0  0
  2  9  1  0  0  0  0
  3  5  1  0  0  0  0
  4  5  2  0  0  0  0
  5 12  1  0  0  0  0
  6  7  1  0  0  0  0
  6  8  1  0  0  0  0
  6 15  1  0  0  0  0
  7 16  1  0  0  0  0
  7 17  1  0  0  0  0
  8 18  1  0  0  0  0
  8 19  1  0  0  0  0
  9 10  2  0  0  0  0
  9 11  1  0  0  0  0
 10 13  1  0  0  0  0
 10 20  1  0  0  0  0
 11 14  2  0  0  0  0
 11 21  1  0  0  0  0
 12 13  2  0  0  0  0
 12 14  1  0  0  0  0
 13 22  1  0  0  0  0
 14 23  1  0  0  0  0
M  CHG  2   3  -1   5   1
M  END
> <PUBCHEM_COMPOUND_CID>
21327

> <PUBCHEM_CONFORMER_RMSD>
0.6

> <PUBCHEM_CONFORMER_DIVERSEORDER>
2
11
6
7
12
1
4
5
9
13
3
10
8

> <PUBCHEM_MMFF94_PARTIAL_CHARGES>
21
1 -0.3
10 -0.15
11 -0.15
12 0.13
13 -0.15
14 -0.15
15 0.1
16 0.1
17 0.1
2 -0.36
20 0.15
21 0.15
22 0.15
23 0.15
3 -0.52
4 -0.52
5 0.91
6 -0.05
7 -0.05
8 0.38
9 0.08

> <PUBCHEM_EFFECTIVE_ROTOR_COUNT>
4.6

> <PUBCHEM_PHARMACOPHORE_FEATURES>
6
1 1 acceptor
1 2 acceptor
1 3 acceptor
1 3 anion
1 4 acceptor
6 9 10 11 12 13 14 rings

> <PUBCHEM_HEAVY_ATOM_COUNT>
14

> <PUBCHEM_ATOM_DEF_STEREO_COUNT>
0

> <PUBCHEM_ATOM_UDEF_STEREO_COUNT>
1

> <PUBCHEM_BOND_DEF_STEREO_COUNT>
0

> <PUBCHEM_BOND_UDEF_STEREO_COUNT>
0

> <PUBCHEM_ISOTOPIC_ATOM_COUNT>
0

> <PUBCHEM_COMPONENT_COUNT>
1

> <PUBCHEM_CACTVS_TAUTO_COUNT>
1

> <PUBCHEM_CONFORMER_ID>
0000534F00000002

> <PUBCHEM_MMFF94_ENERGY>
45.3209

> <PUBCHEM_FEATURE_SELFOVERLAP>
30.526

> <PUBCHEM_SHAPE_FINGERPRINT>
11401426 45 18334579044280071629
12119455 92 14333414432181483274
12236239 1 18131915966517391770
13380535 76 18410570699792172214
13690532 89 18412825789560764544
14123238 8 5256400600292945112
14911166 2 18335707130757765197
14943859 89 18412825780844404970
14993402 34 18343587326209371733
18186145 218 17060063597219958046
187816 3 17748826323642333273
200 152 16660642964320315954
20279233 1 17603577526726270374
20300324 65 18186520999249379305
20645477 56 18411419484335252932
20645477 70 17604139428887286334
21119208 17 18272931618107917716
22485316 2 17022905653145999094
23402539 116 18333737926490634140
23402655 69 18261115222542230469
23559900 14 18260830385122916248
265663 24 17917713508781757098
293599 30 18335980978041746441
366044 4 18411138034711835611
42788 4 18411136935474157076
4990 188 18113333124248082494
5104073 3 18412262818285546992
69090 78 18260550013351667406

> <PUBCHEM_SHAPE_MULTIPOLES>
259.66
9.61
1.3
0.65
5.29
0.08
0.01
-0.69
0.74
-0.68
-0.03
0.19
0.01
-0.21

> <PUBCHEM_SHAPE_SELFOVERLAP>
542.944

> <PUBCHEM_SHAPE_VOLUME>
148.9

> <PUBCHEM_COORDINATE_TYPE>
2
5
10

$$$$

