10473088
  -OEChem-07051213113D

 55 54  0     1  0  0  0  0  0999 V2000
    3.6511   -3.6151    0.2251 O   0  0  0  0  0  0  0  0  0  0  0  0
   -0.3332    3.7067    0.3103 O   0  0  0  0  0  0  0  0  0  0  0  0
   -6.2840   -1.7546    0.2729 O   0  0  0  0  0  0  0  0  0  0  0  0
    6.3179    2.3649    1.1032 O   0  0  0  0  0  0  0  0  0  0  0  0
    6.3812    0.9228   -0.6517 O   0  0  0  0  0  0  0  0  0  0  0  0
    3.1668   -1.4210    1.0543 C   0  0  0  0  0  0  0  0  0  0  0  0
    4.3287   -0.6994    0.3531 C   0  0  0  0  0  0  0  0  0  0  0  0
    2.6142   -2.6331    0.2846 C   0  0  1  0  0  0  0  0  0  0  0  0
    4.8310    0.4999    1.1531 C   0  0  0  0  0  0  0  0  0  0  0  0
    2.0653   -2.4164   -1.1050 C   0  0  0  0  0  0  0  0  0  0  0  0
   -0.7614    2.4498   -0.2154 C   0  0  2  0  0  0  0  0  0  0  0  0
   -5.0759   -1.2843    0.8678 C   0  0  2  0  0  0  0  0  0  0  0  0
    5.9150    1.2595    0.4289 C   0  0  0  0  0  0  0  0  0  0  0  0
   -5.2835    0.1450    1.3994 C   0  0  0  0  0  0  0  0  0  0  0  0
    0.1095    2.0948   -1.4257 C   0  0  0  0  0  0  0  0  0  0  0  0
    0.7935   -2.1526   -1.4455 C   0  0  0  0  0  0  0  0  0  0  0  0
   -2.2299    2.5272   -0.5364 C   0  0  0  0  0  0  0  0  0  0  0  0
   -5.5746    1.1535    0.3192 C   0  0  0  0  0  0  0  0  0  0  0  0
   -3.9073   -1.3950   -0.0807 C   0  0  0  0  0  0  0  0  0  0  0  0
    1.6027    2.0083   -1.1341 C   0  0  0  0  0  0  0  0  0  0  0  0
   -0.2730   -2.0356   -0.4731 C   0  0  0  0  0  0  0  0  0  0  0  0
   -3.2205    1.8174    0.0271 C   0  0  0  0  0  0  0  0  0  0  0  0
   -4.6291    1.8922   -0.2814 C   0  0  0  0  0  0  0  0  0  0  0  0
   -2.6355   -1.6589    0.2611 C   0  0  0  0  0  0  0  0  0  0  0  0
   -1.5690   -1.7759   -0.7110 C   0  0  0  0  0  0  0  0  0  0  0  0
    2.3521   -0.7066    1.2251 H   0  0  0  0  0  0  0  0  0  0  0  0
    3.5156   -1.7524    2.0408 H   0  0  0  0  0  0  0  0  0  0  0  0
    4.0042   -0.3621   -0.6389 H   0  0  0  0  0  0  0  0  0  0  0  0
    5.1562   -1.4007    0.1896 H   0  0  0  0  0  0  0  0  0  0  0  0
    1.8423   -3.0959    0.9085 H   0  0  0  0  0  0  0  0  0  0  0  0
    5.2334    0.1635    2.1147 H   0  0  0  0  0  0  0  0  0  0  0  0
    4.0020    1.1924    1.3376 H   0  0  0  0  0  0  0  0  0  0  0  0
    2.7936   -2.4574   -1.9138 H   0  0  0  0  0  0  0  0  0  0  0  0
   -0.5883    1.7016    0.5678 H   0  0  0  0  0  0  0  0  0  0  0  0
   -4.8866   -1.9406    1.7268 H   0  0  0  0  0  0  0  0  0  0  0  0
   -6.1557    0.1471    2.0675 H   0  0  0  0  0  0  0  0  0  0  0  0
   -4.4441    0.4450    2.0353 H   0  0  0  0  0  0  0  0  0  0  0  0
   -0.0296    2.8524   -2.2079 H   0  0  0  0  0  0  0  0  0  0  0  0
   -0.2231    1.1382   -1.8468 H   0  0  0  0  0  0  0  0  0  0  0  0
    3.9169   -3.8234    1.1371 H   0  0  0  0  0  0  0  0  0  0  0  0
    0.5405   -2.0087   -2.4919 H   0  0  0  0  0  0  0  0  0  0  0  0
   -2.4943    3.2404   -1.3167 H   0  0  0  0  0  0  0  0  0  0  0  0
   -6.6090    1.2681    0.0063 H   0  0  0  0  0  0  0  0  0  0  0  0
   -4.1460   -1.2443   -1.1330 H   0  0  0  0  0  0  0  0  0  0  0  0
    2.1492    1.7131   -2.0353 H   0  0  0  0  0  0  0  0  0  0  0  0
    1.9984    2.9717   -0.7985 H   0  0  0  0  0  0  0  0  0  0  0  0
    1.8011    1.2652   -0.3564 H   0  0  0  0  0  0  0  0  0  0  0  0
    0.0005   -2.1564    0.5722 H   0  0  0  0  0  0  0  0  0  0  0  0
   -2.9096    1.1395    0.8146 H   0  0  0  0  0  0  0  0  0  0  0  0
   -4.9297    2.5906   -1.0582 H   0  0  0  0  0  0  0  0  0  0  0  0
   -2.3780   -1.8059    1.3062 H   0  0  0  0  0  0  0  0  0  0  0  0
   -1.8703   -1.6379   -1.7493 H   0  0  0  0  0  0  0  0  0  0  0  0
   -0.8692    3.8951    1.0998 H   0  0  0  0  0  0  0  0  0  0  0  0
   -6.9832   -1.7059    0.9470 H   0  0  0  0  0  0  0  0  0  0  0  0
    7.0207    2.8515    0.6221 H   0  0  0  0  0  0  0  0  0  0  0  0
  1  8  1  0  0  0  0
  1 40  1  0  0  0  0
  2 11  1  0  0  0  0
  2 53  1  0  0  0  0
  3 12  1  0  0  0  0
  3 54  1  0  0  0  0
  4 13  1  0  0  0  0
  4 55  1  0  0  0  0
  5 13  2  0  0  0  0
  6  7  1  0  0  0  0
  6  8  1  0  0  0  0
  6 26  1  0  0  0  0
  6 27  1  0  0  0  0
  7  9  1  0  0  0  0
  7 28  1  0  0  0  0
  7 29  1  0  0  0  0
  8 10  1  0  0  0  0
  8 30  1  0  0  0  0
  9 13  1  0  0  0  0
  9 31  1  0  0  0  0
  9 32  1  0  0  0  0
 10 16  2  0  0  0  0
 10 33  1  0  0  0  0
 11 15  1  0  0  0  0
 11 17  1  0  0  0  0
 11 34  1  0  0  0  0
 12 14  1  0  0  0  0
 12 19  1  0  0  0  0
 12 35  1  0  0  0  0
 14 18  1  0  0  0  0
 14 36  1  0  0  0  0
 14 37  1  0  0  0  0
 15 20  1  0  0  0  0
 15 38  1  0  0  0  0
 15 39  1  0  0  0  0
 16 21  1  0  0  0  0
 16 41  1  0  0  0  0
 17 22  2  0  0  0  0
 17 42  1  0  0  0  0
 18 23  2  0  0  0  0
 18 43  1  0  0  0  0
 19 24  2  0  0  0  0
 19 44  1  0  0  0  0
 20 45  1  0  0  0  0
 20 46  1  0  0  0  0
 20 47  1  0  0  0  0
 21 25  2  0  0  0  0
 21 48  1  0  0  0  0
 22 23  1  0  0  0  0
 22 49  1  0  0  0  0
 23 50  1  0  0  0  0
 24 25  1  0  0  0  0
 24 51  1  0  0  0  0
 25 52  1  0  0  0  0
M  END
> <PUBCHEM_COMPOUND_CID>
10473088

> <PUBCHEM_CONFORMER_RMSD>
1.2

> <PUBCHEM_CONFORMER_DIVERSEORDER>
1
23
28
52
135
95
58
121
64
36
131
25
154
79
80
55
127
105
76
113
96
24
53
40
93
128
143
104
7
112
106
92
141
48
32
88
2
147
68
20
140
122
13
97
126
56
61
136
51
82
16
98
155
129
107
9
26
37
102
138
151
35
66
84
60
145
124
59
109
91
65
103
100
50
46
71
158
63
77
110
125
86
146
148
89
49
114
139
90
149
47
30
115
85
72
22
153
75
31
108
99
81
94
119
116
3
142
12
8
11
54
117
43
111
156
67
62
34
78
70
33
14
19
74
137
44
17
101
38
42
69
134
132
130
39
29
83
150
73
152
133
15
41
118
27
6
10
123
87
5
157
120
4
21
45
144
18
57

> <PUBCHEM_MMFF94_PARTIAL_CHARGES>
35
1 -0.68
10 -0.29
11 0.42
12 0.42
13 0.66
14 0.14
16 -0.15
17 -0.29
18 -0.29
19 -0.29
2 -0.68
21 -0.15
22 -0.15
23 -0.15
24 -0.15
25 -0.15
3 -0.68
33 0.15
4 -0.65
40 0.4
41 0.15
42 0.15
43 0.15
44 0.15
48 0.15
49 0.15
5 -0.57
50 0.15
51 0.15
52 0.15
53 0.4
54 0.4
55 0.5
8 0.42
9 0.06

> <PUBCHEM_EFFECTIVE_ROTOR_COUNT>
13

> <PUBCHEM_PHARMACOPHORE_FEATURES>
10
1 1 acceptor
1 1 donor
1 2 acceptor
1 2 donor
1 20 hydrophobe
1 3 acceptor
1 3 donor
1 4 acceptor
1 5 acceptor
3 4 5 13 anion

> <PUBCHEM_HEAVY_ATOM_COUNT>
25

> <PUBCHEM_ATOM_DEF_STEREO_COUNT>
3

> <PUBCHEM_ATOM_UDEF_STEREO_COUNT>
0

> <PUBCHEM_BOND_DEF_STEREO_COUNT>
5

> <PUBCHEM_BOND_UDEF_STEREO_COUNT>
0

> <PUBCHEM_ISOTOPIC_ATOM_COUNT>
0

> <PUBCHEM_COMPONENT_COUNT>
1

> <PUBCHEM_CACTVS_TAUTO_COUNT>
1

> <PUBCHEM_CONFORMER_ID>
009FCE8000000001

> <PUBCHEM_MMFF94_ENERGY>
29.4153

> <PUBCHEM_FEATURE_SELFOVERLAP>
50.801

> <PUBCHEM_SHAPE_FINGERPRINT>
10939801 23 18196934358334695068
12422481 6 18412830204491999152
12596602 18 17632863044032150651
13402501 40 18408323297771342505
14040221 97 18131352990441402380
14251764 38 18118404187781473650
14394314 77 18408599284355732321
14790565 3 18267303123913024300
14840074 17 18339358557339341352
15264996 154 18129643219774528414
15961568 22 18410007741095257590
20721686 56 18413106178227533331
21302155 148 18409446998654994372
21623110 236 18261953071977750249
338550 245 18270961229010607420
373842 8 18341050804333996732
392239 28 18122905588649443115
437795 139 15338259144357416377

> <PUBCHEM_SHAPE_MULTIPOLES>
485.14
15.17
4.43
1.23
5.26
0.49
-0.08
2.67
6
1.47
-0.6
0.43
0
0.89

> <PUBCHEM_SHAPE_SELFOVERLAP>
932.794

> <PUBCHEM_SHAPE_VOLUME>
292.9

> <PUBCHEM_COORDINATE_TYPE>
2
5
10

$$$$

