174656
  -OEChem-07051213132D

 41 43  0     1  0  0  0  0  0999 V2000
    5.4641   -4.6012    0.0000 Cl  0  0  0  0  0  0  0  0  0  0  0  0
    2.0000   -4.6012    0.0000 Cl  0  0  0  0  0  0  0  0  0  0  0  0
    8.1097    2.9920    0.0000 O   0  0  0  0  0  0  0  0  0  0  0  0
    5.4641    1.3988    0.0000 O   0  0  0  0  0  0  0  0  0  0  0  0
    5.4641    3.3988    0.0000 O   0  0  0  0  0  0  0  0  0  0  0  0
    5.4641   -2.6012    0.0000 O   0  0  0  0  0  0  0  0  0  0  0  0
    7.1962    3.3988    0.0000 N   0  0  0  0  0  0  0  0  0  0  0  0
    3.7320   -2.6012    0.0000 N   0  0  0  0  0  0  0  0  0  0  0  0
    7.3007    4.3933    0.0000 C   0  0  0  0  0  0  0  0  0  0  0  0
    8.2788    4.6012    0.0000 C   0  0  0  0  0  0  0  0  0  0  0  0
    8.7788    3.7352    0.0000 C   0  0  0  0  0  0  0  0  0  0  0  0
    6.3301    2.8988    0.0000 C   0  0  0  0  0  0  0  0  0  0  0  0
    6.3301    1.8988    0.0000 C   0  0  3  0  0  0  0  0  0  0  0  0
    7.1962    1.3988    0.0000 C   0  0  0  0  0  0  0  0  0  0  0  0
    5.4641    0.3988    0.0000 C   0  0  0  0  0  0  0  0  0  0  0  0
    4.5981   -0.1012    0.0000 C   0  0  0  0  0  0  0  0  0  0  0  0
    6.3301   -0.1012    0.0000 C   0  0  0  0  0  0  0  0  0  0  0  0
    5.4641   -1.6012    0.0000 C   0  0  0  0  0  0  0  0  0  0  0  0
    4.5981   -1.1012    0.0000 C   0  0  0  0  0  0  0  0  0  0  0  0
    6.3301   -1.1012    0.0000 C   0  0  0  0  0  0  0  0  0  0  0  0
    4.5981   -3.1012    0.0000 C   0  0  0  0  0  0  0  0  0  0  0  0
    4.5981   -4.1012    0.0000 C   0  0  0  0  0  0  0  0  0  0  0  0
    3.7320   -4.6012    0.0000 C   0  0  0  0  0  0  0  0  0  0  0  0
    2.8660   -4.1012    0.0000 C   0  0  0  0  0  0  0  0  0  0  0  0
    2.8660   -3.1012    0.0000 C   0  0  0  0  0  0  0  0  0  0  0  0
    7.2359    5.0099    0.0000 H   0  0  0  0  0  0  0  0  0  0  0  0
    6.6807    4.3933    0.0000 H   0  0  0  0  0  0  0  0  0  0  0  0
    8.8452    4.8534    0.0000 H   0  0  0  0  0  0  0  0  0  0  0  0
    8.0872    5.1909    0.0000 H   0  0  0  0  0  0  0  0  0  0  0  0
    9.1937    3.2744    0.0000 H   0  0  0  0  0  0  0  0  0  0  0  0
    9.2804    4.0996    0.0000 H   0  0  0  0  0  0  0  0  0  0  0  0
    5.7932    2.2088    0.0000 H   0  0  0  0  0  0  0  0  0  0  0  0
    6.8862    0.8618    0.0000 H   0  0  0  0  0  0  0  0  0  0  0  0
    7.7331    1.0888    0.0000 H   0  0  0  0  0  0  0  0  0  0  0  0
    7.5062    1.9357    0.0000 H   0  0  0  0  0  0  0  0  0  0  0  0
    4.0611    0.2088    0.0000 H   0  0  0  0  0  0  0  0  0  0  0  0
    6.8671    0.2088    0.0000 H   0  0  0  0  0  0  0  0  0  0  0  0
    4.0611   -1.4112    0.0000 H   0  0  0  0  0  0  0  0  0  0  0  0
    6.8671   -1.4112    0.0000 H   0  0  0  0  0  0  0  0  0  0  0  0
    3.7320   -5.2212    0.0000 H   0  0  0  0  0  0  0  0  0  0  0  0
    2.3291   -2.7912    0.0000 H   0  0  0  0  0  0  0  0  0  0  0  0
  1 22  1  0  0  0  0
  2 24  1  0  0  0  0
  3  7  1  0  0  0  0
  3 11  1  0  0  0  0
  4 13  1  0  0  0  0
  4 15  1  0  0  0  0
  5 12  2  0  0  0  0
  6 18  1  0  0  0  0
  6 21  1  0  0  0  0
  7  9  1  0  0  0  0
  7 12  1  0  0  0  0
  8 21  1  0  0  0  0
  8 25  2  0  0  0  0
  9 10  1  0  0  0  0
  9 26  1  0  0  0  0
  9 27  1  0  0  0  0
 10 11  1  0  0  0  0
 10 28  1  0  0  0  0
 10 29  1  0  0  0  0
 11 30  1  0  0  0  0
 11 31  1  0  0  0  0
 12 13  1  0  0  0  0
 13 14  1  0  0  0  0
 13 32  1  0  0  0  0
 14 33  1  0  0  0  0
 14 34  1  0  0  0  0
 14 35  1  0  0  0  0
 15 16  2  0  0  0  0
 15 17  1  0  0  0  0
 16 19  1  0  0  0  0
 16 36  1  0  0  0  0
 17 20  2  0  0  0  0
 17 37  1  0  0  0  0
 18 19  2  0  0  0  0
 18 20  1  0  0  0  0
 19 38  1  0  0  0  0
 20 39  1  0  0  0  0
 21 22  2  0  0  0  0
 22 23  1  0  0  0  0
 23 24  2  0  0  0  0
 23 40  1  0  0  0  0
 24 25  1  0  0  0  0
 25 41  1  0  0  0  0
M  END
> <PUBCHEM_COMPOUND_CID>
174656

> <PUBCHEM_COMPOUND_CANONICALIZED>
1

> <PUBCHEM_CACTVS_COMPLEXITY>
448

> <PUBCHEM_CACTVS_HBOND_ACCEPTOR>
5

> <PUBCHEM_CACTVS_HBOND_DONOR>
0

> <PUBCHEM_CACTVS_ROTATABLE_BOND>
5

> <PUBCHEM_CACTVS_SUBSKEYS>
AAADceB7OAAGAAAAAAAAAAAAAAAAAWAAAAA8QAAAAAAAAAABwAAAHgIEAAAACBbhkiY+hpIYFACoADF3VAKCiCAxJWAo2CFuT5gOJuPFs5/POCjmxhHY6AfQUAAAAQAAAAAAAAACAAAAAAAAAAAAAAAAAA==

> <PUBCHEM_IUPAC_OPENEYE_NAME>
2-[4-[(3,5-dichloro-2-pyridyl)oxy]phenoxy]-1-isoxazolidin-2-yl-propan-1-one

> <PUBCHEM_IUPAC_CAS_NAME>
2-[4-[(3,5-dichloro-2-pyridinyl)oxy]phenoxy]-1-(2-isoxazolidinyl)-1-propanone

> <PUBCHEM_IUPAC_NAME>
2-[4-(3,5-dichloropyridin-2-yl)oxyphenoxy]-1-(1,2-oxazolidin-2-yl)propan-1-one

> <PUBCHEM_IUPAC_SYSTEMATIC_NAME>
2-[4-[3,5-bis(chloranyl)pyridin-2-yl]oxyphenoxy]-1-(1,2-oxazolidin-2-yl)propan-1-one

> <PUBCHEM_IUPAC_TRADITIONAL_NAME>
2-[4-[(3,5-dichloro-2-pyridyl)oxy]phenoxy]-1-isoxazolidin-2-yl-propan-1-one

> <PUBCHEM_IUPAC_INCHI>
InChI=1S/C17H16Cl2N2O4/c1-11(17(22)21-7-2-8-23-21)24-13-3-5-14(6-4-13)25-16-15(19)9-12(18)10-20-16/h3-6,9-11H,2,7-8H2,1H3

> <PUBCHEM_IUPAC_INCHIKEY>
ANFHKXSOSRDDRQ-UHFFFAOYSA-N

> <PUBCHEM_XLOGP3_AA>
4

> <PUBCHEM_EXACT_MASS>
382.048712

> <PUBCHEM_MOLECULAR_FORMULA>
C17H16Cl2N2O4

> <PUBCHEM_MOLECULAR_WEIGHT>
383.22594

> <PUBCHEM_OPENEYE_CAN_SMILES>
CC(C(=O)N1CCCO1)OC2=CC=C(C=C2)OC3=C(C=C(C=N3)Cl)Cl

> <PUBCHEM_OPENEYE_ISO_SMILES>
CC(C(=O)N1CCCO1)OC2=CC=C(C=C2)OC3=C(C=C(C=N3)Cl)Cl

> <PUBCHEM_CACTVS_TPSA>
60.9

> <PUBCHEM_MONOISOTOPIC_WEIGHT>
382.048712

> <PUBCHEM_TOTAL_CHARGE>
0

> <PUBCHEM_HEAVY_ATOM_COUNT>
25

> <PUBCHEM_ATOM_DEF_STEREO_COUNT>
0

> <PUBCHEM_ATOM_UDEF_STEREO_COUNT>
1

> <PUBCHEM_BOND_DEF_STEREO_COUNT>
0

> <PUBCHEM_BOND_UDEF_STEREO_COUNT>
0

> <PUBCHEM_ISOTOPIC_ATOM_COUNT>
0

> <PUBCHEM_COMPONENT_COUNT>
1

> <PUBCHEM_CACTVS_TAUTO_COUNT>
1

> <PUBCHEM_COORDINATE_TYPE>
1
5
255

> <PUBCHEM_BONDANNOTATIONS>
13  14  3
15  16  8
15  17  8
16  19  8
17  20  8
18  19  8
18  20  8
21  22  8
22  23  8
23  24  8
24  25  8
8  21  8
8  25  8

$$$$

