10432
  -OEChem-06261204322D

 11 11  0     0  0  0  0  0  0999 V2000
    5.5201   -0.1807    0.0000 S   0  0  0  0  0  0  0  0  0  0  0  0
    2.0000   -0.1807    0.0000 O   0  0  0  0  0  0  0  0  0  0  0  0
    3.7601   -0.4594    0.0000 N   0  0  0  0  0  0  0  0  0  0  0  0
    4.2601    1.0794    0.0000 N   0  0  0  0  0  0  0  0  0  0  0  0
    3.2601    1.0794    0.0000 C   0  0  0  0  0  0  0  0  0  0  0  0
    2.9511    0.1284    0.0000 C   0  0  0  0  0  0  0  0  0  0  0  0
    4.5691    0.1284    0.0000 C   0  0  0  0  0  0  0  0  0  0  0  0
    3.3249    1.6960    0.0000 H   0  0  0  0  0  0  0  0  0  0  0  0
    2.6536    1.2083    0.0000 H   0  0  0  0  0  0  0  0  0  0  0  0
    3.7601   -1.0794    0.0000 H   0  0  0  0  0  0  0  0  0  0  0  0
    5.9809    0.2342    0.0000 H   0  0  0  0  0  0  0  0  0  0  0  0
  1  7  1  0  0  0  0
  1 11  1  0  0  0  0
  2  6  2  0  0  0  0
  3  6  1  0  0  0  0
  3  7  1  0  0  0  0
  3 10  1  0  0  0  0
  4  5  1  0  0  0  0
  4  7  2  0  0  0  0
  5  6  1  0  0  0  0
  5  8  1  0  0  0  0
  5  9  1  0  0  0  0
M  END
> <PUBCHEM_COMPOUND_CID>
10432

> <PUBCHEM_COMPOUND_CANONICALIZED>
1

> <PUBCHEM_CACTVS_COMPLEXITY>
131

> <PUBCHEM_CACTVS_HBOND_ACCEPTOR>
3

> <PUBCHEM_CACTVS_HBOND_DONOR>
2

> <PUBCHEM_CACTVS_ROTATABLE_BOND>
0

> <PUBCHEM_CACTVS_SUBSKEYS>
AAADcYBDIABAAAAAAAAAAAAAAAAAAQAAAAAAAAAAAAAAAAAAAAAAHgQQAAAAAADBgAQBAALAAAQoAAEQNAAAEAEAAAABAACAAAAAQAAACAAQAAAAEAAAAAAAAAAAAAAAAAAAAAAAAAAAAAAAAAAAAAAAAA==

> <PUBCHEM_IUPAC_OPENEYE_NAME>
2-sulfanyl-1,4-dihydroimidazol-5-one

> <PUBCHEM_IUPAC_CAS_NAME>
2-mercapto-1,4-dihydroimidazol-5-one

> <PUBCHEM_IUPAC_NAME>
2-sulfanyl-1,4-dihydroimidazol-5-one

> <PUBCHEM_IUPAC_SYSTEMATIC_NAME>
2-sulfanyl-1,4-dihydroimidazol-5-one

> <PUBCHEM_IUPAC_TRADITIONAL_NAME>
2-mercapto-2-imidazolin-4-one

> <PUBCHEM_IUPAC_INCHI>
InChI=1S/C3H4N2OS/c6-2-1-4-3(7)5-2/h1H2,(H2,4,5,6,7)

> <PUBCHEM_IUPAC_INCHIKEY>
UGWULZWUXSCWPX-UHFFFAOYSA-N

> <PUBCHEM_XLOGP3_AA>
-0.2

> <PUBCHEM_EXACT_MASS>
116.004434

> <PUBCHEM_MOLECULAR_FORMULA>
C3H4N2OS

> <PUBCHEM_MOLECULAR_WEIGHT>
116.14166

> <PUBCHEM_OPENEYE_CAN_SMILES>
C1C(=O)NC(=N1)S

> <PUBCHEM_OPENEYE_ISO_SMILES>
C1C(=O)NC(=N1)S

> <PUBCHEM_CACTVS_TPSA>
42.5

> <PUBCHEM_MONOISOTOPIC_WEIGHT>
116.004434

> <PUBCHEM_TOTAL_CHARGE>
0

> <PUBCHEM_HEAVY_ATOM_COUNT>
7

> <PUBCHEM_ATOM_DEF_STEREO_COUNT>
0

> <PUBCHEM_ATOM_UDEF_STEREO_COUNT>
0

> <PUBCHEM_BOND_DEF_STEREO_COUNT>
0

> <PUBCHEM_BOND_UDEF_STEREO_COUNT>
0

> <PUBCHEM_ISOTOPIC_ATOM_COUNT>
0

> <PUBCHEM_COMPONENT_COUNT>
1

> <PUBCHEM_CACTVS_TAUTO_COUNT>
5

> <PUBCHEM_COORDINATE_TYPE>
1
5
255

$$$$

