105014
  -OEChem-07051213012D

114117  0     1  0  0  0  0  0999 V2000
    8.9282   -2.0000    0.0000 O   0  0  0  0  0  0  0  0  0  0  0  0
    3.7320   -2.0000    0.0000 O   0  0  0  0  0  0  0  0  0  0  0  0
    7.1962    1.0000    0.0000 O   0  0  0  0  0  0  0  0  0  0  0  0
    8.9282    2.0000    0.0000 O   0  0  0  0  0  0  0  0  0  0  0  0
    5.4641   -1.0000    0.0000 O   0  0  0  0  0  0  0  0  0  0  0  0
    7.1962   -1.0000    0.0000 O   0  0  0  0  0  0  0  0  0  0  0  0
    6.3301   -0.5000    0.0000 O   0  0  0  0  0  0  0  0  0  0  0  0
    8.0622   -0.5000    0.0000 O   0  0  0  0  0  0  0  0  0  0  0  0
    4.5981   -3.5000    0.0000 O   0  0  0  0  0  0  0  0  0  0  0  0
    4.5981    0.5000    0.0000 N   0  0  0  0  0  0  0  0  0  0  0  0
    9.7942    0.5000    0.0000 N   0  0  0  0  0  0  0  0  0  0  0  0
    6.3301   -2.5000    0.0000 N   0  0  0  0  0  0  0  0  0  0  0  0
    8.0622    0.5000    0.0000 C   0  0  3  0  0  0  0  0  0  0  0  0
    3.7320   -1.0000    0.0000 C   0  0  3  0  0  0  0  0  0  0  0  0
    8.0622   -2.5000    0.0000 C   0  0  3  0  0  0  0  0  0  0  0  0
    5.4641   -2.0000    0.0000 C   0  0  3  0  0  0  0  0  0  0  0  0
    9.7942   -0.5000    0.0000 C   0  0  3  0  0  0  0  0  0  0  0  0
    5.4641    1.0000    0.0000 C   0  0  3  0  0  0  0  0  0  0  0  0
    8.0622   -3.5000    0.0000 C   0  0  0  0  0  0  0  0  0  0  0  0
    2.8660   -0.5000    0.0000 C   0  0  0  0  0  0  0  0  0  0  0  0
    8.7050   -0.2660    0.0000 C   0  0  0  0  0  0  0  0  0  0  0  0
    8.9282    1.0000    0.0000 C   0  0  0  0  0  0  0  0  0  0  0  0
    4.5981   -0.5000    0.0000 C   0  0  0  0  0  0  0  0  0  0  0  0
    7.1962   -2.0000    0.0000 C   0  0  0  0  0  0  0  0  0  0  0  0
    5.4641    2.0000    0.0000 C   0  0  0  0  0  0  0  0  0  0  0  0
   10.6603   -1.0000    0.0000 C   0  0  0  0  0  0  0  0  0  0  0  0
    4.5244   -1.6580    0.0000 C   0  0  0  0  0  0  0  0  0  0  0  0
    6.3301    0.5000    0.0000 C   0  0  0  0  0  0  0  0  0  0  0  0
    8.9282   -1.0000    0.0000 C   0  0  0  0  0  0  0  0  0  0  0  0
    4.5981   -2.5000    0.0000 C   0  0  0  0  0  0  0  0  0  0  0  0
    8.9282   -4.0000    0.0000 C   0  0  0  0  0  0  0  0  0  0  0  0
    7.1962   -4.0000    0.0000 C   0  0  0  0  0  0  0  0  0  0  0  0
    2.0000   -1.0000    0.0000 C   0  0  0  0  0  0  0  0  0  0  0  0
    2.8660    0.5000    0.0000 C   0  0  0  0  0  0  0  0  0  0  0  0
    8.3633   -1.2057    0.0000 C   0  0  0  0  0  0  0  0  0  0  0  0
    9.7857    0.1276    0.0000 C   0  0  0  0  0  0  0  0  0  0  0  0
    6.3301   -3.5000    0.0000 C   0  0  0  0  0  0  0  0  0  0  0  0
   10.6603    1.0000    0.0000 C   0  0  0  0  0  0  0  0  0  0  0  0
    3.7320    1.0000    0.0000 C   0  0  0  0  0  0  0  0  0  0  0  0
    3.7584   -2.3008    0.0000 C   0  0  0  0  0  0  0  0  0  0  0  0
   11.5263   -0.5000    0.0000 C   0  0  0  0  0  0  0  0  0  0  0  0
    4.5981    2.5000    0.0000 C   0  0  0  0  0  0  0  0  0  0  0  0
    4.5981    3.5000    0.0000 C   0  0  0  0  0  0  0  0  0  0  0  0
   12.3923   -1.0000    0.0000 C   0  0  0  0  0  0  0  0  0  0  0  0
    2.8187   -1.9588    0.0000 C   0  0  0  0  0  0  0  0  0  0  0  0
    3.7320    2.0000    0.0000 C   0  0  0  0  0  0  0  0  0  0  0  0
   11.5263    0.5000    0.0000 C   0  0  0  0  0  0  0  0  0  0  0  0
    3.9320   -3.2855    0.0000 C   0  0  0  0  0  0  0  0  0  0  0  0
    2.0526   -2.6015    0.0000 C   0  0  0  0  0  0  0  0  0  0  0  0
   13.2583   -0.5000    0.0000 C   0  0  0  0  0  0  0  0  0  0  0  0
    3.7320    4.0000    0.0000 C   0  0  0  0  0  0  0  0  0  0  0  0
    3.1659   -3.9283    0.0000 C   0  0  0  0  0  0  0  0  0  0  0  0
   12.3923    1.0000    0.0000 C   0  0  0  0  0  0  0  0  0  0  0  0
    2.8660    2.5000    0.0000 C   0  0  0  0  0  0  0  0  0  0  0  0
    2.2263   -3.5863    0.0000 C   0  0  0  0  0  0  0  0  0  0  0  0
   13.2583    0.5000    0.0000 C   0  0  0  0  0  0  0  0  0  0  0  0
    2.8660    3.5000    0.0000 C   0  0  0  0  0  0  0  0  0  0  0  0
    8.5991   -2.8100    0.0000 H   0  0  0  0  0  0  0  0  0  0  0  0
    3.1951   -1.3100    0.0000 H   0  0  0  0  0  0  0  0  0  0  0  0
    7.6637    0.0250    0.0000 H   0  0  0  0  0  0  0  0  0  0  0  0
    5.7261   -1.4381    0.0000 H   0  0  0  0  0  0  0  0  0  0  0  0
   10.3312   -0.1900    0.0000 H   0  0  0  0  0  0  0  0  0  0  0  0
    4.9272    1.3100    0.0000 H   0  0  0  0  0  0  0  0  0  0  0  0
    8.0622   -4.1200    0.0000 H   0  0  0  0  0  0  0  0  0  0  0  0
    2.8660   -1.1200    0.0000 H   0  0  0  0  0  0  0  0  0  0  0  0
    9.1436   -0.7043    0.0000 H   0  0  0  0  0  0  0  0  0  0  0  0
    4.8344   -1.1210    0.0000 H   0  0  0  0  0  0  0  0  0  0  0  0
    4.0495   -1.2594    0.0000 H   0  0  0  0  0  0  0  0  0  0  0  0
   10.2617   -1.4750    0.0000 H   0  0  0  0  0  0  0  0  0  0  0  0
   11.0588   -1.4750    0.0000 H   0  0  0  0  0  0  0  0  0  0  0  0
    6.0747    1.8923    0.0000 H   0  0  0  0  0  0  0  0  0  0  0  0
    5.6762    2.5826    0.0000 H   0  0  0  0  0  0  0  0  0  0  0  0
    9.9978   -0.4550    0.0000 H   0  0  0  0  0  0  0  0  0  0  0  0
   10.3682    0.3398    0.0000 H   0  0  0  0  0  0  0  0  0  0  0  0
    9.5735    0.7102    0.0000 H   0  0  0  0  0  0  0  0  0  0  0  0
    7.7806   -0.9938    0.0000 H   0  0  0  0  0  0  0  0  0  0  0  0
    8.1514   -1.7883    0.0000 H   0  0  0  0  0  0  0  0  0  0  0  0
    8.9460   -1.4176    0.0000 H   0  0  0  0  0  0  0  0  0  0  0  0
    3.4860    0.5000    0.0000 H   0  0  0  0  0  0  0  0  0  0  0  0
    2.8660    1.1200    0.0000 H   0  0  0  0  0  0  0  0  0  0  0  0
    2.2460    0.5000    0.0000 H   0  0  0  0  0  0  0  0  0  0  0  0
    1.6900   -0.4631    0.0000 H   0  0  0  0  0  0  0  0  0  0  0  0
    1.4631   -1.3100    0.0000 H   0  0  0  0  0  0  0  0  0  0  0  0
    2.3100   -1.5369    0.0000 H   0  0  0  0  0  0  0  0  0  0  0  0
    6.8862   -3.4631    0.0000 H   0  0  0  0  0  0  0  0  0  0  0  0
    6.6592   -4.3100    0.0000 H   0  0  0  0  0  0  0  0  0  0  0  0
    7.5062   -4.5369    0.0000 H   0  0  0  0  0  0  0  0  0  0  0  0
    8.6182   -4.5369    0.0000 H   0  0  0  0  0  0  0  0  0  0  0  0
    9.4651   -4.3100    0.0000 H   0  0  0  0  0  0  0  0  0  0  0  0
    9.2382   -3.4631    0.0000 H   0  0  0  0  0  0  0  0  0  0  0  0
    4.0420    1.5369    0.0000 H   0  0  0  0  0  0  0  0  0  0  0  0
    3.1951    1.3100    0.0000 H   0  0  0  0  0  0  0  0  0  0  0  0
    3.4220    0.4631    0.0000 H   0  0  0  0  0  0  0  0  0  0  0  0
   10.9703    0.4631    0.0000 H   0  0  0  0  0  0  0  0  0  0  0  0
   11.1972    1.3100    0.0000 H   0  0  0  0  0  0  0  0  0  0  0  0
   10.3503    1.5369    0.0000 H   0  0  0  0  0  0  0  0  0  0  0  0
    5.7101   -3.5000    0.0000 H   0  0  0  0  0  0  0  0  0  0  0  0
    6.3301   -4.1200    0.0000 H   0  0  0  0  0  0  0  0  0  0  0  0
    6.9501   -3.5000    0.0000 H   0  0  0  0  0  0  0  0  0  0  0  0
    5.1350    3.8100    0.0000 H   0  0  0  0  0  0  0  0  0  0  0  0
   12.3923   -1.6200    0.0000 H   0  0  0  0  0  0  0  0  0  0  0  0
    2.7110   -1.3482    0.0000 H   0  0  0  0  0  0  0  0  0  0  0  0
    3.7320    1.3800    0.0000 H   0  0  0  0  0  0  0  0  0  0  0  0
   10.9893    0.8100    0.0000 H   0  0  0  0  0  0  0  0  0  0  0  0
    4.5146   -3.4976    0.0000 H   0  0  0  0  0  0  0  0  0  0  0  0
    1.4700   -2.3895    0.0000 H   0  0  0  0  0  0  0  0  0  0  0  0
   13.7953   -0.8100    0.0000 H   0  0  0  0  0  0  0  0  0  0  0  0
    3.7320    4.6200    0.0000 H   0  0  0  0  0  0  0  0  0  0  0  0
    3.2736   -4.5389    0.0000 H   0  0  0  0  0  0  0  0  0  0  0  0
   12.3923    1.6200    0.0000 H   0  0  0  0  0  0  0  0  0  0  0  0
    2.3291    2.1900    0.0000 H   0  0  0  0  0  0  0  0  0  0  0  0
    2.3291    3.8100    0.0000 H   0  0  0  0  0  0  0  0  0  0  0  0
   13.7953    0.8100    0.0000 H   0  0  0  0  0  0  0  0  0  0  0  0
    1.7513   -3.9849    0.0000 H   0  0  0  0  0  0  0  0  0  0  0  0
  1 15  1  0  0  0  0
  1 29  1  0  0  0  0
  2 14  1  0  0  0  0
  2 30  1  0  0  0  0
  3 13  1  0  0  0  0
  3 28  1  0  0  0  0
  4 22  2  0  0  0  0
  5 23  2  0  0  0  0
  6 24  2  0  0  0  0
  7 28  2  0  0  0  0
  8 29  2  0  0  0  0
  9 30  2  0  0  0  0
 10 18  1  0  0  0  0
 10 23  1  0  0  0  0
 10 39  1  0  0  0  0
 11 17  1  0  0  0  0
 11 22  1  0  0  0  0
 11 38  1  0  0  0  0
 12 16  1  0  0  0  0
 12 24  1  0  0  0  0
 12 37  1  0  0  0  0
 13 21  1  0  0  0  0
 13 22  1  0  0  0  0
 13 60  1  0  0  0  0
 14 20  1  0  0  0  0
 14 23  1  0  0  0  0
 14 59  1  0  0  0  0
 15 19  1  0  0  0  0
 15 24  1  0  0  0  0
 15 58  1  0  0  0  0
 16 27  1  0  0  0  0
 16 30  1  0  0  0  0
 16 61  1  0  0  0  0
 17 26  1  0  0  0  0
 17 29  1  0  0  0  0
 17 62  1  0  0  0  0
 18 25  1  0  0  0  0
 18 28  1  0  0  0  0
 18 63  1  0  0  0  0
 19 31  1  0  0  0  0
 19 32  1  0  0  0  0
 19 64  1  0  0  0  0
 20 33  1  0  0  0  0
 20 34  1  0  0  0  0
 20 65  1  0  0  0  0
 21 35  1  0  0  0  0
 21 36  1  0  0  0  0
 21 66  1  0  0  0  0
 25 42  1  0  0  0  0
 25 71  1  0  0  0  0
 25 72  1  0  0  0  0
 26 41  1  0  0  0  0
 26 69  1  0  0  0  0
 26 70  1  0  0  0  0
 27 40  1  0  0  0  0
 27 67  1  0  0  0  0
 27 68  1  0  0  0  0
 31 88  1  0  0  0  0
 31 89  1  0  0  0  0
 31 90  1  0  0  0  0
 32 85  1  0  0  0  0
 32 86  1  0  0  0  0
 32 87  1  0  0  0  0
 33 82  1  0  0  0  0
 33 83  1  0  0  0  0
 33 84  1  0  0  0  0
 34 79  1  0  0  0  0
 34 80  1  0  0  0  0
 34 81  1  0  0  0  0
 35 76  1  0  0  0  0
 35 77  1  0  0  0  0
 35 78  1  0  0  0  0
 36 73  1  0  0  0  0
 36 74  1  0  0  0  0
 36 75  1  0  0  0  0
 37 97  1  0  0  0  0
 37 98  1  0  0  0  0
 37 99  1  0  0  0  0
 38 94  1  0  0  0  0
 38 95  1  0  0  0  0
 38 96  1  0  0  0  0
 39 91  1  0  0  0  0
 39 92  1  0  0  0  0
 39 93  1  0  0  0  0
 40 45  2  0  0  0  0
 40 48  1  0  0  0  0
 41 44  2  0  0  0  0
 41 47  1  0  0  0  0
 42 43  2  0  0  0  0
 42 46  1  0  0  0  0
 43 51  1  0  0  0  0
 43100  1  0  0  0  0
 44 50  1  0  0  0  0
 44101  1  0  0  0  0
 45 49  1  0  0  0  0
 45102  1  0  0  0  0
 46 54  2  0  0  0  0
 46103  1  0  0  0  0
 47 53  2  0  0  0  0
 47104  1  0  0  0  0
 48 52  2  0  0  0  0
 48105  1  0  0  0  0
 49 55  2  0  0  0  0
 49106  1  0  0  0  0
 50 56  2  0  0  0  0
 50107  1  0  0  0  0
 51 57  2  0  0  0  0
 51108  1  0  0  0  0
 52 55  1  0  0  0  0
 52109  1  0  0  0  0
 53 56  1  0  0  0  0
 53110  1  0  0  0  0
 54 57  1  0  0  0  0
 54111  1  0  0  0  0
 55114  1  0  0  0  0
 56113  1  0  0  0  0
 57112  1  0  0  0  0
M  END
> <PUBCHEM_COMPOUND_CID>
105014

> <PUBCHEM_COMPOUND_CANONICALIZED>
1

> <PUBCHEM_CACTVS_COMPLEXITY>
1200

> <PUBCHEM_CACTVS_HBOND_ACCEPTOR>
9

> <PUBCHEM_CACTVS_HBOND_DONOR>
0

> <PUBCHEM_CACTVS_ROTATABLE_BOND>
9

> <PUBCHEM_CACTVS_SUBSKEYS>
AAADcfB/PAAAAAAAAAAAAAAAAAAAAAAAAAAwYMAAAAAAAAABUAAAHgAAAAAADTzhmAYyCIMABACIAiHSGAICAAAgAAAIiAHIAIgKIDKAkTWHIAAkhgCYiAeYyKCOAAAAAAAAAAAAAAAAAAAAAAAAAAAAAA==

> <PUBCHEM_IUPAC_OPENEYE_NAME>
3,9,15-tribenzyl-6,12,18-triisopropyl-4,10,16-trimethyl-1,7,13-trioxa-4,10,16-triazacyclooctadecane-2,5,8,11,14,17-hexone

> <PUBCHEM_IUPAC_CAS_NAME>
4,10,16-trimethyl-3,9,15-tris(phenylmethyl)-6,12,18-tri(propan-2-yl)-1,7,13-trioxa-4,10,16-triazacyclooctadecane-2,5,8,11,14,17-hexone

> <PUBCHEM_IUPAC_NAME>
3,9,15-tribenzyl-4,10,16-trimethyl-6,12,18-tri(propan-2-yl)-1,7,13-trioxa-4,10,16-triazacyclooctadecane-2,5,8,11,14,17-hexone

> <PUBCHEM_IUPAC_SYSTEMATIC_NAME>
4,10,16-trimethyl-3,9,15-tris(phenylmethyl)-6,12,18-tri(propan-2-yl)-1,7,13-trioxa-4,10,16-triazacyclooctadecane-2,5,8,11,14,17-hexone

> <PUBCHEM_IUPAC_TRADITIONAL_NAME>
3,9,15-tribenzyl-6,12,18-triisopropyl-4,10,16-trimethyl-1,7,13-trioxa-4,10,16-triazacyclooctadecane-2,5,8,11,14,17-triquinone

> <PUBCHEM_IUPAC_INCHI>
InChI=1S/C45H57N3O9/c1-28(2)37-40(49)46(7)35(26-32-21-15-11-16-22-32)44(53)56-39(30(5)6)42(51)48(9)36(27-33-23-17-12-18-24-33)45(54)57-38(29(3)4)41(50)47(8)34(43(52)55-37)25-31-19-13-10-14-20-31/h10-24,28-30,34-39H,25-27H2,1-9H3

> <PUBCHEM_IUPAC_INCHIKEY>
GYSCAQFHASJXRS-UHFFFAOYSA-N

> <PUBCHEM_XLOGP3_AA>
8.4

> <PUBCHEM_EXACT_MASS>
783.40948

> <PUBCHEM_MOLECULAR_FORMULA>
C45H57N3O9

> <PUBCHEM_MOLECULAR_WEIGHT>
783.94878

> <PUBCHEM_OPENEYE_CAN_SMILES>
CC(C)C1C(=O)N(C(C(=O)OC(C(=O)N(C(C(=O)OC(C(=O)N(C(C(=O)O1)CC2=CC=CC=C2)C)C(C)C)CC3=CC=CC=C3)C)C(C)C)CC4=CC=CC=C4)C

> <PUBCHEM_OPENEYE_ISO_SMILES>
CC(C)C1C(=O)N(C(C(=O)OC(C(=O)N(C(C(=O)OC(C(=O)N(C(C(=O)O1)CC2=CC=CC=C2)C)C(C)C)CC3=CC=CC=C3)C)C(C)C)CC4=CC=CC=C4)C

> <PUBCHEM_CACTVS_TPSA>
140

> <PUBCHEM_MONOISOTOPIC_WEIGHT>
783.40948

> <PUBCHEM_TOTAL_CHARGE>
0

> <PUBCHEM_HEAVY_ATOM_COUNT>
57

> <PUBCHEM_ATOM_DEF_STEREO_COUNT>
0

> <PUBCHEM_ATOM_UDEF_STEREO_COUNT>
6

> <PUBCHEM_BOND_DEF_STEREO_COUNT>
0

> <PUBCHEM_BOND_UDEF_STEREO_COUNT>
0

> <PUBCHEM_ISOTOPIC_ATOM_COUNT>
0

> <PUBCHEM_COMPONENT_COUNT>
1

> <PUBCHEM_CACTVS_TAUTO_COUNT>
24

> <PUBCHEM_COORDINATE_TYPE>
1
5
255

> <PUBCHEM_BONDANNOTATIONS>
13  21  3
14  20  3
15  19  3
16  27  3
17  26  3
18  25  3
40  45  8
40  48  8
41  44  8
41  47  8
42  43  8
42  46  8
43  51  8
44  50  8
45  49  8
46  54  8
47  53  8
48  52  8
49  55  8
50  56  8
51  57  8
52  55  8
53  56  8
54  57  8

$$$$

