46174032
  -OEChem-07051213112D

 70 72  0     1  0  0  0  0  0999 V2000
   12.8865    0.3963    0.0000 P   0  0  0  0  0  0  0  0  0  0  0  0
    6.3100   -0.3175    0.0000 O   0  0  0  0  0  0  0  0  0  0  0  0
    8.0420    0.6825    0.0000 O   0  0  0  0  0  0  0  0  0  0  0  0
    4.8100   -1.1836    0.0000 O   0  0  0  0  0  0  0  0  0  0  0  0
    9.8216    0.7757    0.0000 O   0  0  0  0  0  0  0  0  0  0  0  0
    9.7741   -0.3175    0.0000 O   0  0  0  0  0  0  0  0  0  0  0  0
    8.2695    2.8461    0.0000 O   0  0  0  0  0  0  0  0  0  0  0  0
    3.3100    1.4146    0.0000 O   0  0  0  0  0  0  0  0  0  0  0  0
   10.3975    3.2985    0.0000 O   0  0  0  0  0  0  0  0  0  0  0  0
    2.3100   -0.3175    0.0000 O   0  0  0  0  0  0  0  0  0  0  0  0
   11.8920    0.5008    0.0000 O   0  0  0  0  0  0  0  0  0  0  0  0
   13.8811    0.2918    0.0000 O   0  0  0  0  0  0  0  0  0  0  0  0
   12.7820   -0.5982    0.0000 O   0  0  0  0  0  0  0  0  0  0  0  0
   12.9911    1.3908    0.0000 O   0  0  0  0  0  0  0  0  0  0  0  0
    6.6760   -2.6835    0.0000 N   0  0  0  0  0  0  0  0  0  0  0  0
    9.7741   -2.3175    0.0000 N   0  0  0  0  0  0  0  0  0  0  0  0
    5.3100    1.4145    0.0000 N   0  0  0  0  0  0  0  0  0  0  0  0
    3.8101   -2.9156    0.0000 N   0  0  0  0  0  0  0  0  0  0  0  0
    7.1760   -0.8175    0.0000 C   0  0  1  0  0  0  0  0  0  0  0  0
    8.0420   -0.3175    0.0000 C   0  0  1  0  0  0  0  0  0  0  0  0
    7.1760   -1.8175    0.0000 C   0  0  2  0  0  0  0  0  0  0  0  0
    8.9081   -0.8175    0.0000 C   0  0  2  0  0  0  0  0  0  0  0  0
    8.9081   -1.8175    0.0000 C   0  0  1  0  0  0  0  0  0  0  0  0
    8.0420   -2.3175    0.0000 C   0  0  0  0  0  0  0  0  0  0  0  0
    5.3100   -0.3175    0.0000 C   0  0  1  0  0  0  0  0  0  0  0  0
    8.9081    1.1825    0.0000 C   0  0  2  0  0  0  0  0  0  0  0  0
    4.8101    0.5486    0.0000 C   0  0  1  0  0  0  0  0  0  0  0  0
    9.0126    2.1770    0.0000 C   0  0  1  0  0  0  0  0  0  0  0  0
    3.8100    0.5486    0.0000 C   0  0  2  0  0  0  0  0  0  0  0  0
    9.9908    2.3849    0.0000 C   0  0  1  0  0  0  0  0  0  0  0  0
    3.3100   -0.3175    0.0000 C   0  0  1  0  0  0  0  0  0  0  0  0
    3.8100   -1.1836    0.0000 C   0  0  1  0  0  0  0  0  0  0  0  0
   10.4908    1.5189    0.0000 C   0  0  1  0  0  0  0  0  0  0  0  0
    3.3100   -2.0496    0.0000 C   0  0  0  0  0  0  0  0  0  0  0  0
   11.4853    1.4144    0.0000 C   0  0  0  0  0  0  0  0  0  0  0  0
    7.1760   -0.1975    0.0000 H   0  0  0  0  0  0  0  0  0  0  0  0
    8.5790   -0.0075    0.0000 H   0  0  0  0  0  0  0  0  0  0  0  0
    6.5772   -1.6570    0.0000 H   0  0  0  0  0  0  0  0  0  0  0  0
    8.9081   -0.1975    0.0000 H   0  0  0  0  0  0  0  0  0  0  0  0
    8.9081   -2.4375    0.0000 H   0  0  0  0  0  0  0  0  0  0  0  0
    7.6435   -2.7925    0.0000 H   0  0  0  0  0  0  0  0  0  0  0  0
    8.4406   -2.7925    0.0000 H   0  0  0  0  0  0  0  0  0  0  0  0
    5.6200    0.2194    0.0000 H   0  0  0  0  0  0  0  0  0  0  0  0
    8.3881    1.5202    0.0000 H   0  0  0  0  0  0  0  0  0  0  0  0
    5.4300    0.5486    0.0000 H   0  0  0  0  0  0  0  0  0  0  0  0
    8.4338    1.9548    0.0000 H   0  0  0  0  0  0  0  0  0  0  0  0
    3.1900    0.5486    0.0000 H   0  0  0  0  0  0  0  0  0  0  0  0
   10.6099    2.4174    0.0000 H   0  0  0  0  0  0  0  0  0  0  0  0
    3.0000    0.2195    0.0000 H   0  0  0  0  0  0  0  0  0  0  0  0
    4.1200   -1.7205    0.0000 H   0  0  0  0  0  0  0  0  0  0  0  0
   10.7129    0.9401    0.0000 H   0  0  0  0  0  0  0  0  0  0  0  0
    6.9860   -3.2205    0.0000 H   0  0  0  0  0  0  0  0  0  0  0  0
    6.0560   -2.6835    0.0000 H   0  0  0  0  0  0  0  0  0  0  0  0
    9.7741   -2.9375    0.0000 H   0  0  0  0  0  0  0  0  0  0  0  0
   10.3110   -2.0075    0.0000 H   0  0  0  0  0  0  0  0  0  0  0  0
   10.3110   -0.6275    0.0000 H   0  0  0  0  0  0  0  0  0  0  0  0
    2.8351   -1.6511    0.0000 H   0  0  0  0  0  0  0  0  0  0  0  0
    2.8351   -2.4481    0.0000 H   0  0  0  0  0  0  0  0  0  0  0  0
   12.0869    1.5643    0.0000 H   0  0  0  0  0  0  0  0  0  0  0  0
   11.4420    2.0328    0.0000 H   0  0  0  0  0  0  0  0  0  0  0  0
    5.0000    1.9515    0.0000 H   0  0  0  0  0  0  0  0  0  0  0  0
    5.9300    1.4145    0.0000 H   0  0  0  0  0  0  0  0  0  0  0  0
    8.3984    3.4526    0.0000 H   0  0  0  0  0  0  0  0  0  0  0  0
    2.6900    1.4146    0.0000 H   0  0  0  0  0  0  0  0  0  0  0  0
   11.0141    3.3633    0.0000 H   0  0  0  0  0  0  0  0  0  0  0  0
    2.0000   -0.8544    0.0000 H   0  0  0  0  0  0  0  0  0  0  0  0
    3.5001   -3.4526    0.0000 H   0  0  0  0  0  0  0  0  0  0  0  0
    4.4301   -2.9156    0.0000 H   0  0  0  0  0  0  0  0  0  0  0  0
   14.1332   -0.2746    0.0000 H   0  0  0  0  0  0  0  0  0  0  0  0
   12.2156   -0.8504    0.0000 H   0  0  0  0  0  0  0  0  0  0  0  0
  1 11  1  0  0  0  0
  1 12  1  0  0  0  0
  1 13  1  0  0  0  0
  1 14  2  0  0  0  0
 19  2  1  1  0  0  0
 25  2  1  1  0  0  0
 20  3  1  6  0  0  0
 26  3  1  1  0  0  0
  4 25  1  0  0  0  0
  4 32  1  0  0  0  0
  5 26  1  0  0  0  0
  5 33  1  0  0  0  0
 22  6  1  1  0  0  0
  6 56  1  0  0  0  0
 28  7  1  6  0  0  0
  7 63  1  0  0  0  0
 29  8  1  6  0  0  0
  8 64  1  0  0  0  0
 30  9  1  6  0  0  0
  9 65  1  0  0  0  0
 31 10  1  1  0  0  0
 10 66  1  0  0  0  0
 11 35  1  0  0  0  0
 12 69  1  0  0  0  0
 13 70  1  0  0  0  0
 21 15  1  6  0  0  0
 15 52  1  0  0  0  0
 15 53  1  0  0  0  0
 23 16  1  6  0  0  0
 16 54  1  0  0  0  0
 16 55  1  0  0  0  0
 27 17  1  1  0  0  0
 17 61  1  0  0  0  0
 17 62  1  0  0  0  0
 18 34  1  0  0  0  0
 18 67  1  0  0  0  0
 18 68  1  0  0  0  0
 19 20  1  0  0  0  0
 19 21  1  0  0  0  0
 19 36  1  0  0  0  0
 20 22  1  0  0  0  0
 20 37  1  0  0  0  0
 21 24  1  0  0  0  0
 21 38  1  0  0  0  0
 22 23  1  0  0  0  0
 22 39  1  0  0  0  0
 23 24  1  0  0  0  0
 23 40  1  0  0  0  0
 24 41  1  0  0  0  0
 24 42  1  0  0  0  0
 25 27  1  0  0  0  0
 25 43  1  0  0  0  0
 26 28  1  0  0  0  0
 26 44  1  0  0  0  0
 27 29  1  0  0  0  0
 27 45  1  0  0  0  0
 28 30  1  0  0  0  0
 28 46  1  0  0  0  0
 29 31  1  0  0  0  0
 29 47  1  0  0  0  0
 30 33  1  0  0  0  0
 30 48  1  0  0  0  0
 31 32  1  0  0  0  0
 31 49  1  0  0  0  0
 32 34  1  6  0  0  0
 32 50  1  0  0  0  0
 33 35  1  1  0  0  0
 33 51  1  0  0  0  0
 34 57  1  0  0  0  0
 34 58  1  0  0  0  0
 35 59  1  0  0  0  0
 35 60  1  0  0  0  0
M  END
> <PUBCHEM_COMPOUND_CID>
46174032

> <PUBCHEM_COMPOUND_CANONICALIZED>
1

> <PUBCHEM_CACTVS_COMPLEXITY>
751

> <PUBCHEM_CACTVS_HBOND_ACCEPTOR>
17

> <PUBCHEM_CACTVS_HBOND_DONOR>
11

> <PUBCHEM_CACTVS_ROTATABLE_BOND>
8

> <PUBCHEM_CACTVS_SUBSKEYS>
AAADcfB7vAIAAAAAAAAAAAAAAAAAASAAAAA0QAAAAAAAAAAAAAAAHgAQCCAACDzxgAcACABABxAAQAAAAIAAAAAAAAAAAIAAAAATEAIAwAAjQAAHEAAHAAHwcA0AAAAAAAAAAAAAgAAUCACgAAAAAAAAAA==

> <PUBCHEM_IUPAC_OPENEYE_NAME>
[(2R,3S,4R,5S)-5-[(1R,2R,3S,5R,6S)-3,5-diamino-2-[(2R,3R,4R,5S,6R)-3-amino-6-(aminomethyl)-4,5-dihydroxy-tetrahydropyran-2-yl]oxy-6-hydroxy-cyclohexoxy]-3,4-dihydroxy-tetrahydrofuran-2-yl]methyl dihydrogen phosphate

> <PUBCHEM_IUPAC_CAS_NAME>
[(2R,3S,4R,5S)-5-[(1R,2R,3S,5R,6S)-3,5-diamino-2-[[(2R,3R,4R,5S,6R)-3-amino-6-(aminomethyl)-4,5-dihydroxy-2-oxanyl]oxy]-6-hydroxycyclohexyl]oxy-3,4-dihydroxy-2-oxolanyl]methyl dihydrogen phosphate

> <PUBCHEM_IUPAC_NAME>
[(2R,3S,4R,5S)-5-[(1R,2R,3S,5R,6S)-3,5-diamino-2-[(2R,3R,4R,5S,6R)-3-amino-6-(aminomethyl)-4,5-dihydroxyoxan-2-yl]oxy-6-hydroxycyclohexyl]oxy-3,4-dihydroxyoxolan-2-yl]methyl dihydrogen phosphate

> <PUBCHEM_IUPAC_SYSTEMATIC_NAME>
[(2R,3S,4R,5S)-5-[(1R,2R,3S,5R,6S)-2-[(2R,3R,4R,5S,6R)-6-(aminomethyl)-3-azanyl-4,5-bis(oxidanyl)oxan-2-yl]oxy-3,5-bis(azanyl)-6-oxidanyl-cyclohexyl]oxy-3,4-bis(oxidanyl)oxolan-2-yl]methyl dihydrogen phosphate

> <PUBCHEM_IUPAC_TRADITIONAL_NAME>
[(2R,3S,4R,5S)-5-[(1R,2R,3S,5R,6S)-3,5-diamino-2-[(2R,3R,4R,5S,6R)-3-amino-6-(aminomethyl)-4,5-dihydroxy-tetrahydropyran-2-yl]oxy-6-hydroxy-cyclohexoxy]-3,4-dihydroxy-tetrahydrofuran-2-yl]methyl dihydrogen phosphate

> <PUBCHEM_IUPAC_INCHI>
InChI=1S/C17H35N4O13P/c18-2-6-10(23)12(25)8(21)16(31-6)33-14-5(20)1-4(19)9(22)15(14)34-17-13(26)11(24)7(32-17)3-30-35(27,28)29/h4-17,22-26H,1-3,18-21H2,(H2,27,28,29)/t4-,5+,6-,7-,8-,9+,10-,11-,12-,13-,14-,15-,16-,17+/m1/s1

> <PUBCHEM_IUPAC_INCHIKEY>
YSYVVCNYHFEBSE-VVPCINPTSA-N

> <PUBCHEM_XLOGP3_AA>
-10.3

> <PUBCHEM_EXACT_MASS>
534.193824

> <PUBCHEM_MOLECULAR_FORMULA>
C17H35N4O13P

> <PUBCHEM_MOLECULAR_WEIGHT>
534.452562

> <PUBCHEM_OPENEYE_CAN_SMILES>
C1C(C(C(C(C1N)OC2C(C(C(C(O2)CN)O)O)N)OC3C(C(C(O3)COP(=O)(O)O)O)O)O)N

> <PUBCHEM_OPENEYE_ISO_SMILES>
C1[C@H]([C@@H]([C@H]([C@@H]([C@H]1N)O[C@@H]2[C@@H]([C@H]([C@@H]([C@H](O2)CN)O)O)N)O[C@H]3[C@@H]([C@@H]([C@H](O3)COP(=O)(O)O)O)O)O)N

> <PUBCHEM_CACTVS_TPSA>
309

> <PUBCHEM_MONOISOTOPIC_WEIGHT>
534.193824

> <PUBCHEM_TOTAL_CHARGE>
0

> <PUBCHEM_HEAVY_ATOM_COUNT>
35

> <PUBCHEM_ATOM_DEF_STEREO_COUNT>
14

> <PUBCHEM_ATOM_UDEF_STEREO_COUNT>
0

> <PUBCHEM_BOND_DEF_STEREO_COUNT>
0

> <PUBCHEM_BOND_UDEF_STEREO_COUNT>
0

> <PUBCHEM_ISOTOPIC_ATOM_COUNT>
0

> <PUBCHEM_COMPONENT_COUNT>
1

> <PUBCHEM_CACTVS_TAUTO_COUNT>
1

> <PUBCHEM_COORDINATE_TYPE>
1
5
255

> <PUBCHEM_BONDANNOTATIONS>
31  10  5
21  15  6
23  16  6
27  17  5
19  2  5
25  2  5
20  3  6
26  3  5
32  34  6
33  35  5
22  6  5
28  7  6
29  8  6
30  9  6

$$$$

