29029
  -OEChem-07051212523D

 60 61  0     1  0  0  0  0  0999 V2000
   -2.1527   -2.7249    2.3838 Cl  0  0  0  0  0  0  0  0  0  0  0  0
   -1.8730    2.6586    1.5618 S   0  0  0  0  0  0  0  0  0  0  0  0
   -1.3847    0.7421   -0.3159 O   0  0  0  0  0  0  0  0  0  0  0  0
   -3.4272   -0.7861   -1.6918 O   0  0  0  0  0  0  0  0  0  0  0  0
   -5.5234    0.7873   -0.7758 O   0  0  0  0  0  0  0  0  0  0  0  0
   -4.0913    3.2511   -0.4658 O   0  0  0  0  0  0  0  0  0  0  0  0
    1.1344   -1.5746   -1.6268 O   0  0  0  0  0  0  0  0  0  0  0  0
    3.5331   -1.7738   -0.4983 N   0  0  1  0  0  0  0  0  0  0  0  0
    0.0978   -1.4134    0.4512 N   0  0  0  0  0  0  0  0  0  0  0  0
    4.0378    0.4850   -0.5293 C   0  0  2  0  0  0  0  0  0  0  0  0
    2.4696   -1.1563    0.3026 C   0  0  1  0  0  0  0  0  0  0  0  0
    2.7964    0.3380    0.3487 C   0  0  0  0  0  0  0  0  0  0  0  0
    4.6929   -0.8839   -0.4098 C   0  0  0  0  0  0  0  0  0  0  0  0
   -2.0927   -0.3611    0.2708 C   0  0  2  0  0  0  0  0  0  0  0  0
   -1.2640   -1.6147    0.0084 C   0  0  2  0  0  0  0  0  0  0  0  0
   -3.5112   -0.4714   -0.2997 C   0  0  1  0  0  0  0  0  0  0  0  0
    4.9467    1.6267   -0.1075 C   0  0  0  0  0  0  0  0  0  0  0  0
   -4.2608    0.8502   -0.1170 C   0  0  1  0  0  0  0  0  0  0  0  0
    1.1807   -1.4112   -0.4104 C   0  0  0  0  0  0  0  0  0  0  0  0
   -3.4463    2.0041   -0.7018 C   0  0  2  0  0  0  0  0  0  0  0  0
   -2.0125    2.0207   -0.1516 C   0  0  1  0  0  0  0  0  0  0  0  0
   -1.8923   -2.8854    0.6175 C   0  0  1  0  0  0  0  0  0  0  0  0
    3.8488   -3.1328   -0.0795 C   0  0  0  0  0  0  0  0  0  0  0  0
    4.2111    2.9656   -0.1260 C   0  0  0  0  0  0  0  0  0  0  0  0
   -1.0602   -4.1370    0.3521 C   0  0  0  0  0  0  0  0  0  0  0  0
    5.1285    4.1119    0.2685 C   0  0  0  0  0  0  0  0  0  0  0  0
   -0.0856    2.4854    1.7416 C   0  0  0  0  0  0  0  0  0  0  0  0
    3.7183    0.6423   -1.5696 H   0  0  0  0  0  0  0  0  0  0  0  0
    2.4387   -1.5556    1.3246 H   0  0  0  0  0  0  0  0  0  0  0  0
    3.0162    0.6269    1.3840 H   0  0  0  0  0  0  0  0  0  0  0  0
    1.9814    0.9713   -0.0177 H   0  0  0  0  0  0  0  0  0  0  0  0
    5.2151   -0.9894    0.5501 H   0  0  0  0  0  0  0  0  0  0  0  0
    5.4042   -1.0635   -1.2223 H   0  0  0  0  0  0  0  0  0  0  0  0
   -2.1479   -0.1764    1.3492 H   0  0  0  0  0  0  0  0  0  0  0  0
   -1.2128   -1.7705   -1.0767 H   0  0  0  0  0  0  0  0  0  0  0  0
   -4.0896   -1.2701    0.1732 H   0  0  0  0  0  0  0  0  0  0  0  0
    5.8113    1.6695   -0.7813 H   0  0  0  0  0  0  0  0  0  0  0  0
    5.3418    1.4445    0.9000 H   0  0  0  0  0  0  0  0  0  0  0  0
   -4.4655    1.0343    0.9442 H   0  0  0  0  0  0  0  0  0  0  0  0
   -3.4021    1.8893   -1.7922 H   0  0  0  0  0  0  0  0  0  0  0  0
    0.2500   -1.2576    1.4435 H   0  0  0  0  0  0  0  0  0  0  0  0
   -1.4402    2.7309   -0.7594 H   0  0  0  0  0  0  0  0  0  0  0  0
   -2.8803   -3.0602    0.1817 H   0  0  0  0  0  0  0  0  0  0  0  0
    2.9707   -3.7803   -0.1774 H   0  0  0  0  0  0  0  0  0  0  0  0
    4.1950   -3.1786    0.9593 H   0  0  0  0  0  0  0  0  0  0  0  0
    4.6295   -3.5570   -0.7202 H   0  0  0  0  0  0  0  0  0  0  0  0
    3.8095    3.1562   -1.1282 H   0  0  0  0  0  0  0  0  0  0  0  0
    3.3625    2.9523    0.5665 H   0  0  0  0  0  0  0  0  0  0  0  0
   -1.5788   -5.0320    0.7135 H   0  0  0  0  0  0  0  0  0  0  0  0
   -0.8897   -4.2665   -0.7220 H   0  0  0  0  0  0  0  0  0  0  0  0
   -0.0842   -4.0969    0.8477 H   0  0  0  0  0  0  0  0  0  0  0  0
   -2.7799   -0.1895   -2.1036 H   0  0  0  0  0  0  0  0  0  0  0  0
   -6.0145    0.0391   -0.3956 H   0  0  0  0  0  0  0  0  0  0  0  0
    5.5207    3.9698    1.2806 H   0  0  0  0  0  0  0  0  0  0  0  0
    4.5820    5.0599    0.2459 H   0  0  0  0  0  0  0  0  0  0  0  0
    5.9753    4.1916   -0.4205 H   0  0  0  0  0  0  0  0  0  0  0  0
   -4.9983    3.1798   -0.8094 H   0  0  0  0  0  0  0  0  0  0  0  0
    0.2240    2.9441    2.6846 H   0  0  0  0  0  0  0  0  0  0  0  0
    0.4386    2.9907    0.9263 H   0  0  0  0  0  0  0  0  0  0  0  0
    0.1973    1.4308    1.7699 H   0  0  0  0  0  0  0  0  0  0  0  0
  1 22  1  0  0  0  0
  2 21  1  0  0  0  0
  2 27  1  0  0  0  0
  3 14  1  0  0  0  0
  3 21  1  0  0  0  0
  4 16  1  0  0  0  0
  4 52  1  0  0  0  0
  5 18  1  0  0  0  0
  5 53  1  0  0  0  0
  6 20  1  0  0  0  0
  6 57  1  0  0  0  0
  7 19  2  0  0  0  0
  8 11  1  0  0  0  0
  8 13  1  0  0  0  0
  8 23  1  0  0  0  0
  9 15  1  0  0  0  0
  9 19  1  0  0  0  0
  9 41  1  0  0  0  0
 10 12  1  0  0  0  0
 10 13  1  0  0  0  0
 10 17  1  0  0  0  0
 10 28  1  0  0  0  0
 11 12  1  0  0  0  0
 11 19  1  0  0  0  0
 11 29  1  0  0  0  0
 12 30  1  0  0  0  0
 12 31  1  0  0  0  0
 13 32  1  0  0  0  0
 13 33  1  0  0  0  0
 14 15  1  0  0  0  0
 14 16  1  0  0  0  0
 14 34  1  0  0  0  0
 15 22  1  0  0  0  0
 15 35  1  0  0  0  0
 16 18  1  0  0  0  0
 16 36  1  0  0  0  0
 17 24  1  0  0  0  0
 17 37  1  0  0  0  0
 17 38  1  0  0  0  0
 18 20  1  0  0  0  0
 18 39  1  0  0  0  0
 20 21  1  0  0  0  0
 20 40  1  0  0  0  0
 21 42  1  0  0  0  0
 22 25  1  0  0  0  0
 22 43  1  0  0  0  0
 23 44  1  0  0  0  0
 23 45  1  0  0  0  0
 23 46  1  0  0  0  0
 24 26  1  0  0  0  0
 24 47  1  0  0  0  0
 24 48  1  0  0  0  0
 25 49  1  0  0  0  0
 25 50  1  0  0  0  0
 25 51  1  0  0  0  0
 26 54  1  0  0  0  0
 26 55  1  0  0  0  0
 26 56  1  0  0  0  0
 27 58  1  0  0  0  0
 27 59  1  0  0  0  0
 27 60  1  0  0  0  0
M  END
> <PUBCHEM_COMPOUND_CID>
29029

> <PUBCHEM_CONFORMER_RMSD>
1

> <PUBCHEM_CONFORMER_DIVERSEORDER>
1
153
209
155
272
160
64
307
218
11
84
157
193
174
93
219
131
150
246
213
252
186
269
210
300
306
33
242
27
83
208
151
175
121
177
190
49
201
256
243
311
185
191
231
253
42
91
250
46
247
154
244
303
308
222
22
288
104
234
117
30
239
229
291
183
223
225
75
14
132
21
312
238
221
211
284
135
111
71
278
90
145
7
45
99
171
189
133
101
226
194
266
217
277
261
52
309
127
125
116
138
254
192
282
179
51
264
136
67
295
18
166
89
86
146
314
39
302
54
227
188
80
173
88
48
65
200
310
260
245
70
230
134
59
81
299
297
82
220
108
258
144
286
143
271
305
140
20
273
115
205
98
180
172
237
34
25
26
207
187
203
283
292
162
228
106
68
280
170
197
102
240
92
79
159
176
35
199
276
290
107
5
56
47
156
85
279
122
287
139
24
78
263
109
195
13
275
265
113
105
142
32
181
72
149
120
6
15
28
167
110
112
96
95
123
76
53
215
204
40
206
289
41
141
38
251
198
249
31
274
124
23
214
29
44
19
233
3
281
69
129
178
294
255
147
36
224
100
77
66
9
236
267
182
10
63
119
262
169
62
259
202
55
73
232
130
97
216
37
293
248
270
241
304
114
165
61
43
152
313
184
8
16
158
50
298
4
161
94
12
74
196
148
212
296
118
87
163
2
17
103
137
126
168
128
60
301
235
57
268
164
285
257
58

> <PUBCHEM_MMFF94_PARTIAL_CHARGES>
25
1 -0.29
11 0.33
13 0.27
14 0.28
15 0.3
16 0.28
18 0.28
19 0.57
2 -0.46
20 0.28
21 0.51
22 0.29
23 0.27
27 0.23
3 -0.56
4 -0.68
41 0.37
5 -0.68
52 0.4
53 0.4
57 0.4
6 -0.68
7 -0.57
8 -0.81
9 -0.73

> <PUBCHEM_EFFECTIVE_ROTOR_COUNT>
10.2

> <PUBCHEM_PHARMACOPHORE_FEATURES>
14
1 26 hydrophobe
1 27 hydrophobe
1 3 acceptor
1 4 acceptor
1 4 donor
1 5 acceptor
1 5 donor
1 6 acceptor
1 6 donor
1 7 acceptor
1 8 cation
1 9 donor
5 8 10 11 12 13 rings
6 3 14 16 18 20 21 rings

> <PUBCHEM_HEAVY_ATOM_COUNT>
27

> <PUBCHEM_ATOM_DEF_STEREO_COUNT>
7

> <PUBCHEM_ATOM_UDEF_STEREO_COUNT>
2

> <PUBCHEM_BOND_DEF_STEREO_COUNT>
0

> <PUBCHEM_BOND_UDEF_STEREO_COUNT>
0

> <PUBCHEM_ISOTOPIC_ATOM_COUNT>
0

> <PUBCHEM_COMPONENT_COUNT>
1

> <PUBCHEM_CACTVS_TAUTO_COUNT>
2

> <PUBCHEM_CONFORMER_ID>
0000716500000001

> <PUBCHEM_MMFF94_ENERGY>
60.5203

> <PUBCHEM_FEATURE_SELFOVERLAP>
71.057

> <PUBCHEM_SHAPE_FINGERPRINT>
10498660 4 18263638477342794648
10675989 125 18050574233407598377
11112241 14 16373838483025836528
11405975 8 18202003218570761250
12403260 363 18191029099786685374
12788726 201 17676478484220775873
13583140 156 17845641672806291138
13590594 115 16393515845537771059
14251764 38 18335135444735790980
14363568 33 17185584720393453505
14466204 15 17836091439478018090
14787075 74 18335707161102124165
14790565 3 18264201590621511737
14955137 171 16030116270827632515
15420108 30 16098534481018237578
20510252 161 18411131450859397379
21033648 29 17346329231522838381
21049683 118 17632587092810579465
21521721 280 18410852171185520257
21623110 236 18335132111836115625
22956985 138 15538110483695263386
23227448 37 18339924809758675212
23557571 272 18267851818432263726
23558518 356 17755003530433621521
23559900 14 18410294748581299626
3380486 145 17980185397478042331
469060 322 17766535981474698568
474 4 18123185981188854491
50150288 127 16590517195064918256
5104073 3 18059298652362763074
633830 44 18267313203784497967
9709674 26 18409443704847815990
9981440 41 18411143540870783938

> <PUBCHEM_SHAPE_MULTIPOLES>
522.06
10.74
5.2
1.35
7.07
0.12
0.54
7.08
-2.35
1.44
1.34
-1.15
-0.16
1.44

> <PUBCHEM_SHAPE_SELFOVERLAP>
1027.012

> <PUBCHEM_SHAPE_VOLUME>
316.8

> <PUBCHEM_COORDINATE_TYPE>
2
5
10

$$$$

