17395497
  -OEChem-06241222503D

 36 38  0     0  0  0  0  0  0999 V2000
   -2.0702   -3.0375    0.0119 S   0  0  0  0  0  0  0  0  0  0  0  0
    0.1536   -2.4089   -1.9790 S   0  0  0  0  0  0  0  0  0  0  0  0
    4.9174    1.2951    0.4892 F   0  0  0  0  0  0  0  0  0  0  0  0
   -0.4652    2.3170   -0.3291 N   0  0  0  0  0  0  0  0  0  0  0  0
   -1.3211    0.3237    0.4588 N   0  0  0  0  0  0  0  0  0  0  0  0
   -3.6986    0.0001    0.4306 N   0  0  0  0  0  0  0  0  0  0  0  0
   -2.7576    2.0536   -0.3788 N   0  0  0  0  0  0  0  0  0  0  0  0
    0.5737   -2.9437    0.5150 N   0  0  0  0  0  0  0  0  0  0  0  0
   -5.0773    1.7092   -0.3921 N   0  0  0  0  0  0  0  0  0  0  0  0
    0.9051    2.0573   -0.1205 C   0  0  0  0  0  0  0  0  0  0  0  0
   -2.2603   -1.7436    1.2761 C   0  0  0  0  0  0  0  0  0  0  0  0
   -2.4380   -0.3871    0.6836 C   0  0  0  0  0  0  0  0  0  0  0  0
   -1.5579    1.5335   -0.0734 C   0  0  0  0  0  0  0  0  0  0  0  0
    1.8501    2.5215   -1.0354 C   0  0  0  0  0  0  0  0  0  0  0  0
    1.3153    1.3356    1.0004 C   0  0  0  0  0  0  0  0  0  0  0  0
   -0.3667   -2.8107   -0.3939 C   0  0  0  0  0  0  0  0  0  0  0  0
   -3.7815    1.2309   -0.0998 C   0  0  0  0  0  0  0  0  0  0  0  0
    3.2054    2.2641   -0.8293 C   0  0  0  0  0  0  0  0  0  0  0  0
    2.6706    1.0781    1.2064 C   0  0  0  0  0  0  0  0  0  0  0  0
    1.8009   -2.7129   -0.0755 C   0  0  0  0  0  0  0  0  0  0  0  0
    3.6156    1.5424    0.2916 C   0  0  0  0  0  0  0  0  0  0  0  0
    1.7750   -2.4088   -1.4204 C   0  0  0  0  0  0  0  0  0  0  0  0
    3.0117   -2.8088    0.7637 C   0  0  0  0  0  0  0  0  0  0  0  0
   -3.1444   -1.9952    1.8726 H   0  0  0  0  0  0  0  0  0  0  0  0
   -1.4098   -1.7536    1.9667 H   0  0  0  0  0  0  0  0  0  0  0  0
   -0.6610    3.1502   -0.8736 H   0  0  0  0  0  0  0  0  0  0  0  0
    1.5429    3.0839   -1.9134 H   0  0  0  0  0  0  0  0  0  0  0  0
    0.6182    0.9954    1.7599 H   0  0  0  0  0  0  0  0  0  0  0  0
    3.9415    2.6248   -1.5416 H   0  0  0  0  0  0  0  0  0  0  0  0
    2.9917    0.5237    2.0834 H   0  0  0  0  0  0  0  0  0  0  0  0
    2.6013   -2.1921   -2.0827 H   0  0  0  0  0  0  0  0  0  0  0  0
    2.8077   -2.4566    1.7800 H   0  0  0  0  0  0  0  0  0  0  0  0
    3.3506   -3.8476    0.8224 H   0  0  0  0  0  0  0  0  0  0  0  0
    3.8280   -2.2028    0.3577 H   0  0  0  0  0  0  0  0  0  0  0  0
   -5.1885    2.6305   -0.7923 H   0  0  0  0  0  0  0  0  0  0  0  0
   -5.8784    1.1241   -0.1987 H   0  0  0  0  0  0  0  0  0  0  0  0
  1 11  1  0  0  0  0
  1 16  1  0  0  0  0
  2 16  1  0  0  0  0
  2 22  1  0  0  0  0
  3 21  1  0  0  0  0
  4 10  1  0  0  0  0
  4 13  1  0  0  0  0
  4 26  1  0  0  0  0
  5 12  1  0  0  0  0
  5 13  2  0  0  0  0
  6 12  2  0  0  0  0
  6 17  1  0  0  0  0
  7 13  1  0  0  0  0
  7 17  2  0  0  0  0
  8 16  2  0  0  0  0
  8 20  1  0  0  0  0
  9 17  1  0  0  0  0
  9 35  1  0  0  0  0
  9 36  1  0  0  0  0
 10 14  2  0  0  0  0
 10 15  1  0  0  0  0
 11 12  1  0  0  0  0
 11 24  1  0  0  0  0
 11 25  1  0  0  0  0
 14 18  1  0  0  0  0
 14 27  1  0  0  0  0
 15 19  2  0  0  0  0
 15 28  1  0  0  0  0
 18 21  2  0  0  0  0
 18 29  1  0  0  0  0
 19 21  1  0  0  0  0
 19 30  1  0  0  0  0
 20 22  2  0  0  0  0
 20 23  1  0  0  0  0
 22 31  1  0  0  0  0
 23 32  1  0  0  0  0
 23 33  1  0  0  0  0
 23 34  1  0  0  0  0
M  END
> <PUBCHEM_COMPOUND_CID>
17395497

> <PUBCHEM_CONFORMER_RMSD>
1

> <PUBCHEM_CONFORMER_DIVERSEORDER>
1
73
92
41
118
67
32
87
50
57
69
68
52
15
66
39
37
110
45
78
74
115
18
75
58
107
116
7
2
102
86
12
38
53
114
77
30
81
101
43
47
9
55
96
120
111
89
25
83
85
104
4
82
103
108
27
29
49
112
63
99
88
19
21
14
109
80
93
26
24
91
10
35
113
97
60
64
56
76
94
90
13
71
46
119
31
40
3
70
11
62
95
28
54
100
65
44
36
105
72
34
79
106
5
48
84
42
22
16
61
33
98
20
51
23
117
6
8
17
59

> <PUBCHEM_MMFF94_PARTIAL_CHARGES>
31
1 -0.29
10 0.1
11 0.37
12 0.48
13 0.72
14 -0.15
15 -0.15
16 0.43
17 0.72
18 -0.15
19 -0.15
2 -0.08
20 0.05
21 0.19
22 -0.11
23 0.18
26 0.4
27 0.15
28 0.15
29 0.15
3 -0.19
30 0.15
31 0.15
35 0.4
36 0.4
4 -0.6
5 -0.62
6 -0.62
7 -0.62
8 -0.57
9 -0.9

> <PUBCHEM_EFFECTIVE_ROTOR_COUNT>
5

> <PUBCHEM_PHARMACOPHORE_FEATURES>
8
1 4 donor
1 8 acceptor
1 9 donor
4 4 5 7 13 cation
4 6 7 9 17 cation
5 2 8 16 20 22 rings
6 10 14 15 18 19 21 rings
6 5 6 7 12 13 17 rings

> <PUBCHEM_HEAVY_ATOM_COUNT>
23

> <PUBCHEM_ATOM_DEF_STEREO_COUNT>
0

> <PUBCHEM_ATOM_UDEF_STEREO_COUNT>
0

> <PUBCHEM_BOND_DEF_STEREO_COUNT>
0

> <PUBCHEM_BOND_UDEF_STEREO_COUNT>
0

> <PUBCHEM_ISOTOPIC_ATOM_COUNT>
0

> <PUBCHEM_COMPONENT_COUNT>
1

> <PUBCHEM_CACTVS_TAUTO_COUNT>
9

> <PUBCHEM_CONFORMER_ID>
01096F2900000001

> <PUBCHEM_MMFF94_ENERGY>
55.9247

> <PUBCHEM_FEATURE_SELFOVERLAP>
40.64

> <PUBCHEM_SHAPE_FINGERPRINT>
104564 63 18048885095720319062
10616163 171 18269554953105308265
10871710 139 17905325126377332902
11370993 70 18408886200585858724
11524674 6 17967542255446576740
11578080 2 16844467083294725854
12422481 6 18265638571041327418
12553582 1 16825025140755983716
12592029 89 18339631236138673187
12788726 201 17761488089121011884
13140716 1 18267011942251741507
133893 2 18120909927526180337
13402501 40 18194406821235004114
14081887 123 17035015403542246448
14251751 93 18266458702971482138
14251757 17 17898534706437233798
14251757 5 17619324543344326412
14790565 3 15887435970515794040
15006816 218 18410851066381957713
15664445 248 17539402546401754703
16752209 62 18048324344600073815
17093844 170 18411416250161829004
17492 54 18196348524763326974
18785283 64 18196350723749840929
20905425 154 18335691702829549870
22182313 1 18270666641862115219
23227448 37 18408888446833006455
23419403 2 17842293736802929733
23559900 14 18340487879944975637
3027735 51 18117847603486978575
3052486 1 18269826524604742444
3298306 158 18409727357019459501
338550 245 18341329981329176438
35225 105 17681545940112876660
508706 21 18265321829223115486
5265222 85 18122330291372382396
532947 4 18338799034870211565
6438718 38 17393026354107089238
6443956 14 17974855273964232737
81228 2 17035573950905833962
90525 40 18124027936264793465
9862522 239 18263371295658516570

> <PUBCHEM_SHAPE_MULTIPOLES>
443.87
7
4.85
1.28
1.09
2.9
-0.3
-4.71
0.85
-0.88
-0.93
-0.42
0.59
0.29

> <PUBCHEM_SHAPE_SELFOVERLAP>
928.536

> <PUBCHEM_SHAPE_VOLUME>
255.6

> <PUBCHEM_COORDINATE_TYPE>
2
5
10

$$$$

