11388
  -OEChem-06261205373D

 24 25  0     1  0  0  0  0  0999 V2000
   -1.3727    0.7996   -0.9289 N   0  0  0  0  0  0  0  0  0  0  0  0
    2.9805    0.7360    0.8158 N   0  0  0  0  0  0  0  0  0  0  0  0
   -0.7436    0.2583    0.2899 C   0  0  1  0  0  0  0  0  0  0  0  0
   -1.4120   -1.0713    0.7087 C   0  0  0  0  0  0  0  0  0  0  0  0
    0.7584    0.1058    0.1231 C   0  0  0  0  0  0  0  0  0  0  0  0
   -2.7972    1.0829   -0.7040 C   0  0  0  0  0  0  0  0  0  0  0  0
   -2.9104   -0.9936    0.6603 C   0  0  0  0  0  0  0  0  0  0  0  0
   -3.5421    0.0040    0.0275 C   0  0  0  0  0  0  0  0  0  0  0  0
    1.2824   -0.7571   -0.8277 C   0  0  0  0  0  0  0  0  0  0  0  0
    1.6349    0.8241    0.9137 C   0  0  0  0  0  0  0  0  0  0  0  0
    2.6617   -0.8751   -0.9583 C   0  0  0  0  0  0  0  0  0  0  0  0
    3.4600   -0.1135   -0.1201 C   0  0  0  0  0  0  0  0  0  0  0  0
   -0.9115    0.9885    1.0953 H   0  0  0  0  0  0  0  0  0  0  0  0
   -1.1009   -1.3217    1.7306 H   0  0  0  0  0  0  0  0  0  0  0  0
   -1.1002   -1.9058    0.0691 H   0  0  0  0  0  0  0  0  0  0  0  0
   -1.2917    0.1157   -1.6820 H   0  0  0  0  0  0  0  0  0  0  0  0
   -3.2699    1.2431   -1.6795 H   0  0  0  0  0  0  0  0  0  0  0  0
   -2.8973    2.0229   -0.1490 H   0  0  0  0  0  0  0  0  0  0  0  0
   -3.4839   -1.7675    1.1602 H   0  0  0  0  0  0  0  0  0  0  0  0
   -4.6270    0.0440    0.0334 H   0  0  0  0  0  0  0  0  0  0  0  0
    0.6392   -1.3422   -1.4785 H   0  0  0  0  0  0  0  0  0  0  0  0
    1.2835    1.5144    1.6740 H   0  0  0  0  0  0  0  0  0  0  0  0
    3.0982   -1.5411   -1.6938 H   0  0  0  0  0  0  0  0  0  0  0  0
    4.5418   -0.1689   -0.1824 H   0  0  0  0  0  0  0  0  0  0  0  0
  1  3  1  0  0  0  0
  1  6  1  0  0  0  0
  1 16  1  0  0  0  0
  2 10  1  0  0  0  0
  2 12  2  0  0  0  0
  3  4  1  0  0  0  0
  3  5  1  0  0  0  0
  3 13  1  0  0  0  0
  4  7  1  0  0  0  0
  4 14  1  0  0  0  0
  4 15  1  0  0  0  0
  5  9  1  0  0  0  0
  5 10  2  0  0  0  0
  6  8  1  0  0  0  0
  6 17  1  0  0  0  0
  6 18  1  0  0  0  0
  7  8  2  0  0  0  0
  7 19  1  0  0  0  0
  8 20  1  0  0  0  0
  9 11  2  0  0  0  0
  9 21  1  0  0  0  0
 10 22  1  0  0  0  0
 11 12  1  0  0  0  0
 11 23  1  0  0  0  0
 12 24  1  0  0  0  0
M  END
> <PUBCHEM_COMPOUND_CID>
11388

> <PUBCHEM_CONFORMER_RMSD>
0.4

> <PUBCHEM_CONFORMER_DIVERSEORDER>
1
9
4
5
3
2
10
7
6
8

> <PUBCHEM_MMFF94_PARTIAL_CHARGES>
19
1 -0.9
10 0.16
11 -0.15
12 0.16
16 0.36
19 0.15
2 -0.62
20 0.15
21 0.15
22 0.15
23 0.15
24 0.15
3 0.41
4 0.14
5 -0.14
6 0.41
7 -0.29
8 -0.29
9 -0.15

> <PUBCHEM_EFFECTIVE_ROTOR_COUNT>
1.8

> <PUBCHEM_PHARMACOPHORE_FEATURES>
5
1 1 cation
1 1 donor
1 2 acceptor
6 1 3 4 6 7 8 rings
6 2 5 9 10 11 12 rings

> <PUBCHEM_HEAVY_ATOM_COUNT>
12

> <PUBCHEM_ATOM_DEF_STEREO_COUNT>
1

> <PUBCHEM_ATOM_UDEF_STEREO_COUNT>
0

> <PUBCHEM_BOND_DEF_STEREO_COUNT>
0

> <PUBCHEM_BOND_UDEF_STEREO_COUNT>
0

> <PUBCHEM_ISOTOPIC_ATOM_COUNT>
0

> <PUBCHEM_COMPONENT_COUNT>
1

> <PUBCHEM_CACTVS_TAUTO_COUNT>
1

> <PUBCHEM_CONFORMER_ID>
00002C7C00000001

> <PUBCHEM_MMFF94_ENERGY>
22.6614

> <PUBCHEM_FEATURE_SELFOVERLAP>
25.371

> <PUBCHEM_SHAPE_FINGERPRINT>
10219947 1 17458343044018053556
10608611 8 18408890632881448913
124424 183 18410864290939709634
12932764 1 18410575089021655107
13296908 3 18334573546727220451
13581323 91 17704356562866600867
14144814 61 15841834451507162073
14993402 34 16128655245215111799
15219456 202 18334858307432981928
15775835 57 16343702161902968029
16945 1 17917710197557066107
17844478 74 18335414669012209121
18175812 5 18408885113837456455
18186145 218 18335982072841370129
190213 19 16056880229955000563
19422 9 16056878039585002843
200 152 17023190439558228039
20201158 50 18333447659694886118
20279233 1 18408605863690903575
20645464 45 18410578379282809723
20645477 70 17749673007598942182
20715346 28 18408040688891493507
21639500 275 17241060794437118808
23402539 116 18201169805260958389
23559900 14 18271527598010761862
3248919 1 18407758140210116065
474 4 15720826514428874386
6333449 129 18342741823358492935
69090 78 18260553299233945807
77492 1 15357696392079579723

> <PUBCHEM_SHAPE_MULTIPOLES>
236.99
6.12
1.15
1.05
0.24
0.05
-0.04
0.07
-0.11
0.23
0
-0.12
-0.02
1.01

> <PUBCHEM_SHAPE_SELFOVERLAP>
495.988

> <PUBCHEM_SHAPE_VOLUME>
132

> <PUBCHEM_COORDINATE_TYPE>
2
5
10

$$$$

