11953940
  -OEChem-07051212583D

 79 80  0     1  0  0  0  0  0999 V2000
   -2.3442   -1.6696    0.8218 O   0  0  0  0  0  0  0  0  0  0  0  0
    0.5811    2.0721    1.0481 O   0  0  0  0  0  0  0  0  0  0  0  0
   -1.1739    0.6547   -3.1100 O   0  0  0  0  0  0  0  0  0  0  0  0
    1.2031    1.7998   -3.0316 O   0  0  0  0  0  0  0  0  0  0  0  0
   -0.6350   -0.0068    1.1371 C   0  0  2  0  0  0  0  0  0  0  0  0
    0.4794   -0.9795    1.5504 C   0  0  0  0  0  0  0  0  0  0  0  0
   -1.3555    0.5246    2.3878 C   0  0  0  0  0  0  0  0  0  0  0  0
   -1.6520   -0.7877    0.3069 C   0  0  0  0  0  0  0  0  0  0  0  0
    0.0262    1.1673    0.4240 C   0  0  0  0  0  0  0  0  0  0  0  0
   -1.8014   -0.5010   -1.1536 C   0  0  0  0  0  0  0  0  0  0  0  0
    0.0320    1.1431   -1.0691 C   0  0  0  0  0  0  0  0  0  0  0  0
   -1.0010    0.3924   -1.7582 C   0  0  0  0  0  0  0  0  0  0  0  0
    1.1553   -1.5754    0.3481 C   0  0  0  0  0  0  0  0  0  0  0  0
   -2.4135    1.5134    2.0120 C   0  0  0  0  0  0  0  0  0  0  0  0
   -2.8789   -1.2753   -1.8614 C   0  0  0  0  0  0  0  0  0  0  0  0
    1.2444   -2.8751    0.0032 C   0  0  0  0  0  0  0  0  0  0  0  0
    1.0434    1.7998   -1.6609 C   0  0  0  0  0  0  0  0  0  0  0  0
   -3.7288    1.4577    2.2953 C   0  0  0  0  0  0  0  0  0  0  0  0
    1.9869   -3.4030   -1.2065 C   0  0  0  0  0  0  0  0  0  0  0  0
   -4.2129   -0.6083   -1.7358 C   0  0  0  0  0  0  0  0  0  0  0  0
    0.6143   -3.9290    0.8782 C   0  0  0  0  0  0  0  0  0  0  0  0
    2.0676    2.5482   -0.9124 C   0  0  0  0  0  0  0  0  0  0  0  0
    3.4534   -3.7612   -0.9326 C   0  0  0  0  0  0  0  0  0  0  0  0
   -4.2903    0.3081    3.0889 C   0  0  0  0  0  0  0  0  0  0  0  0
   -4.7453    2.4865    1.8883 C   0  0  0  0  0  0  0  0  0  0  0  0
   -5.3210   -1.0873   -1.1383 C   0  0  0  0  0  0  0  0  0  0  0  0
    3.2347    1.9074   -0.4964 C   0  0  0  0  0  0  0  0  0  0  0  0
    1.8706    3.8977   -0.6194 C   0  0  0  0  0  0  0  0  0  0  0  0
    4.2625   -2.5826   -0.4670 C   0  0  0  0  0  0  0  0  0  0  0  0
   -5.3086   -2.4425   -0.4823 C   0  0  0  0  0  0  0  0  0  0  0  0
   -6.6354   -0.3653   -1.0454 C   0  0  0  0  0  0  0  0  0  0  0  0
    4.2046    2.6159    0.2127 C   0  0  0  0  0  0  0  0  0  0  0  0
    2.8407    4.6062    0.0897 C   0  0  0  0  0  0  0  0  0  0  0  0
    4.8415   -2.3926    0.7338 C   0  0  0  0  0  0  0  0  0  0  0  0
    4.0077    3.9652    0.5057 C   0  0  0  0  0  0  0  0  0  0  0  0
    5.6398   -1.1850    1.1343 C   0  0  0  0  0  0  0  0  0  0  0  0
    4.7087   -3.4326    1.8147 C   0  0  0  0  0  0  0  0  0  0  0  0
    0.0659   -1.7481    2.2102 H   0  0  0  0  0  0  0  0  0  0  0  0
    1.2452   -0.4558    2.1378 H   0  0  0  0  0  0  0  0  0  0  0  0
   -0.6413    1.0437    3.0416 H   0  0  0  0  0  0  0  0  0  0  0  0
   -1.7351   -0.3041    2.9912 H   0  0  0  0  0  0  0  0  0  0  0  0
    1.6885   -0.8775   -0.2912 H   0  0  0  0  0  0  0  0  0  0  0  0
   -2.0761    2.3922    1.4650 H   0  0  0  0  0  0  0  0  0  0  0  0
   -2.8671   -2.3043   -1.4936 H   0  0  0  0  0  0  0  0  0  0  0  0
   -2.6579   -1.4044   -2.9273 H   0  0  0  0  0  0  0  0  0  0  0  0
    1.9479   -2.6474   -2.0035 H   0  0  0  0  0  0  0  0  0  0  0  0
    1.4616   -4.2774   -1.6106 H   0  0  0  0  0  0  0  0  0  0  0  0
   -4.2827    0.3762   -2.1979 H   0  0  0  0  0  0  0  0  0  0  0  0
   -0.4494   -4.0329    0.6425 H   0  0  0  0  0  0  0  0  0  0  0  0
    1.0881   -4.9033    0.7125 H   0  0  0  0  0  0  0  0  0  0  0  0
    0.7350   -3.7211    1.9449 H   0  0  0  0  0  0  0  0  0  0  0  0
   -2.0389    0.3418   -3.4135 H   0  0  0  0  0  0  0  0  0  0  0  0
    3.5064   -4.6130   -0.2494 H   0  0  0  0  0  0  0  0  0  0  0  0
    3.9003   -4.1169   -1.8700 H   0  0  0  0  0  0  0  0  0  0  0  0
   -5.3042    0.0747    2.7427 H   0  0  0  0  0  0  0  0  0  0  0  0
   -3.7311   -0.6238    2.9910 H   0  0  0  0  0  0  0  0  0  0  0  0
   -4.3526    0.5766    4.1482 H   0  0  0  0  0  0  0  0  0  0  0  0
   -5.2416    2.9023    2.7710 H   0  0  0  0  0  0  0  0  0  0  0  0
   -5.5027    2.0389    1.2368 H   0  0  0  0  0  0  0  0  0  0  0  0
   -4.2834    3.3155    1.3423 H   0  0  0  0  0  0  0  0  0  0  0  0
    1.9936    2.3228   -3.2504 H   0  0  0  0  0  0  0  0  0  0  0  0
    3.4066    0.8579   -0.7211 H   0  0  0  0  0  0  0  0  0  0  0  0
    0.9669    4.4115   -0.9381 H   0  0  0  0  0  0  0  0  0  0  0  0
    4.3860   -1.7967   -1.2114 H   0  0  0  0  0  0  0  0  0  0  0  0
   -4.5719   -3.1384   -0.8859 H   0  0  0  0  0  0  0  0  0  0  0  0
   -6.2787   -2.9334   -0.6243 H   0  0  0  0  0  0  0  0  0  0  0  0
   -5.1453   -2.3366    0.5951 H   0  0  0  0  0  0  0  0  0  0  0  0
   -6.9218   -0.2300    0.0026 H   0  0  0  0  0  0  0  0  0  0  0  0
   -6.5835    0.6259   -1.5077 H   0  0  0  0  0  0  0  0  0  0  0  0
   -7.4213   -0.9319   -1.5549 H   0  0  0  0  0  0  0  0  0  0  0  0
    5.1139    2.1179    0.5358 H   0  0  0  0  0  0  0  0  0  0  0  0
    2.6874    5.6569    0.3178 H   0  0  0  0  0  0  0  0  0  0  0  0
    4.7630    4.5169    1.0577 H   0  0  0  0  0  0  0  0  0  0  0  0
    5.1485   -0.6561    1.9571 H   0  0  0  0  0  0  0  0  0  0  0  0
    5.7491   -0.4829    0.3014 H   0  0  0  0  0  0  0  0  0  0  0  0
    6.6440   -1.4802    1.4547 H   0  0  0  0  0  0  0  0  0  0  0  0
    5.6133   -4.0475    1.8580 H   0  0  0  0  0  0  0  0  0  0  0  0
    4.5858   -2.9453    2.7891 H   0  0  0  0  0  0  0  0  0  0  0  0
    3.8424   -4.0878    1.7044 H   0  0  0  0  0  0  0  0  0  0  0  0
  1  8  2  0  0  0  0
  2  9  2  0  0  0  0
  3 12  1  0  0  0  0
  3 52  1  0  0  0  0
  4 17  1  0  0  0  0
  4 61  1  0  0  0  0
  5  6  1  0  0  0  0
  5  7  1  0  0  0  0
  5  8  1  0  0  0  0
  5  9  1  0  0  0  0
  6 13  1  0  0  0  0
  6 38  1  0  0  0  0
  6 39  1  0  0  0  0
  7 14  1  0  0  0  0
  7 40  1  0  0  0  0
  7 41  1  0  0  0  0
  8 10  1  0  0  0  0
  9 11  1  0  0  0  0
 10 12  2  0  0  0  0
 10 15  1  0  0  0  0
 11 12  1  0  0  0  0
 11 17  2  0  0  0  0
 13 16  2  0  0  0  0
 13 42  1  0  0  0  0
 14 18  2  0  0  0  0
 14 43  1  0  0  0  0
 15 20  1  0  0  0  0
 15 44  1  0  0  0  0
 15 45  1  0  0  0  0
 16 19  1  0  0  0  0
 16 21  1  0  0  0  0
 17 22  1  0  0  0  0
 18 24  1  0  0  0  0
 18 25  1  0  0  0  0
 19 23  1  0  0  0  0
 19 46  1  0  0  0  0
 19 47  1  0  0  0  0
 20 26  2  0  0  0  0
 20 48  1  0  0  0  0
 21 49  1  0  0  0  0
 21 50  1  0  0  0  0
 21 51  1  0  0  0  0
 22 27  2  0  0  0  0
 22 28  1  0  0  0  0
 23 29  1  0  0  0  0
 23 53  1  0  0  0  0
 23 54  1  0  0  0  0
 24 55  1  0  0  0  0
 24 56  1  0  0  0  0
 24 57  1  0  0  0  0
 25 58  1  0  0  0  0
 25 59  1  0  0  0  0
 25 60  1  0  0  0  0
 26 30  1  0  0  0  0
 26 31  1  0  0  0  0
 27 32  1  0  0  0  0
 27 62  1  0  0  0  0
 28 33  2  0  0  0  0
 28 63  1  0  0  0  0
 29 34  2  0  0  0  0
 29 64  1  0  0  0  0
 30 65  1  0  0  0  0
 30 66  1  0  0  0  0
 30 67  1  0  0  0  0
 31 68  1  0  0  0  0
 31 69  1  0  0  0  0
 31 70  1  0  0  0  0
 32 35  2  0  0  0  0
 32 71  1  0  0  0  0
 33 35  1  0  0  0  0
 33 72  1  0  0  0  0
 34 36  1  0  0  0  0
 34 37  1  0  0  0  0
 35 73  1  0  0  0  0
 36 74  1  0  0  0  0
 36 75  1  0  0  0  0
 36 76  1  0  0  0  0
 37 77  1  0  0  0  0
 37 78  1  0  0  0  0
 37 79  1  0  0  0  0
M  END
> <PUBCHEM_COMPOUND_CID>
11953940

> <PUBCHEM_CONFORMER_RMSD>
1.2

> <PUBCHEM_CONFORMER_DIVERSEORDER>
3
74
57
41
29
54
86
7
53
12
38
31
88
65
18
70
82
77
79
67
4
73
37
63
75
17
55
13
24
21
76
85
26
78
58
30
83
56
33
46
9
49
62
71
5
15
42
61
2
47
69
35
59
72
81
6
28
34
48
19
80
39
51
89
40
36
66
23
64
1
84
50
10
27
68
20
14
25
87
16
43
8
11
32
22
45
44
60
52

> <PUBCHEM_MMFF94_PARTIAL_CHARGES>
48
1 -0.57
10 -0.12
11 0.01
12 0.08
13 -0.29
14 -0.29
15 0.28
16 -0.28
17 0.05
18 -0.28
19 0.14
2 -0.57
20 -0.29
21 0.14
22 0.03
23 0.14
24 0.14
25 0.14
26 -0.28
27 -0.15
28 -0.15
29 -0.29
3 -0.53
30 0.14
31 0.14
32 -0.15
33 -0.15
34 -0.28
35 -0.15
36 0.14
37 0.14
4 -0.53
42 0.15
43 0.15
48 0.15
5 0.12
52 0.45
6 0.14
61 0.45
62 0.15
63 0.15
64 0.15
7 0.14
71 0.15
72 0.15
73 0.15
8 0.49
9 0.49

> <PUBCHEM_EFFECTIVE_ROTOR_COUNT>
10.2

> <PUBCHEM_PHARMACOPHORE_FEATURES>
11
1 1 acceptor
1 2 acceptor
1 21 hydrophobe
1 3 donor
1 4 donor
3 18 24 25 hydrophobe
3 26 30 31 hydrophobe
3 34 36 37 hydrophobe
4 16 19 23 29 hydrophobe
6 22 27 28 32 33 35 rings
6 5 8 9 10 11 12 rings

> <PUBCHEM_HEAVY_ATOM_COUNT>
37

> <PUBCHEM_ATOM_DEF_STEREO_COUNT>
1

> <PUBCHEM_ATOM_UDEF_STEREO_COUNT>
0

> <PUBCHEM_BOND_DEF_STEREO_COUNT>
2

> <PUBCHEM_BOND_UDEF_STEREO_COUNT>
0

> <PUBCHEM_ISOTOPIC_ATOM_COUNT>
0

> <PUBCHEM_COMPONENT_COUNT>
1

> <PUBCHEM_CACTVS_TAUTO_COUNT>
11

> <PUBCHEM_CONFORMER_ID>
00B6671400000003

> <PUBCHEM_MMFF94_ENERGY>
92.3754

> <PUBCHEM_FEATURE_SELFOVERLAP>
55.834

> <PUBCHEM_SHAPE_FINGERPRINT>
11135609 187 18265341599152809424
11421498 54 17970066643770445079
11582403 64 17751050601311380209
12788726 201 17386559146866197313
133893 2 18201142283179272462
14028597 1 17897158027410702707
14400156 266 17968374657982642837
144659 39 15141264134218128178
15219462 58 17979036494068759939
15328829 1 18040433287265749243
15406563 5 17386587832799598563
16114785 44 17252048506302237920
17980427 23 18261387905467827995
17980427 26 18120343567564222917
21927370 108 18266458896177224994
23419403 2 17631997728607592843
244849 19 17632853114716251339
266924 1 18113897139627712625
3380486 145 18052257594298553746
404807 14 18124044686901479234
469060 322 18194411214775980346
5265222 85 17408235872885382012
77296 10 18335421283647226617

> <PUBCHEM_SHAPE_MULTIPOLES>
737.97
11.17
5.69
2.68
6.62
1.3
-0.16
-3.94
-1.79
-9.03
-0.09
2.69
0.6
-3.03

> <PUBCHEM_SHAPE_SELFOVERLAP>
1534.479

> <PUBCHEM_SHAPE_VOLUME>
418

> <PUBCHEM_COORDINATE_TYPE>
2
5
10

$$$$

