42027
  -OEChem-07051213053D

 33 37  0     0  0  0  0  0  0999 V2000
    5.5483    0.6185   -0.0002 O   0  0  0  0  0  0  0  0  0  0  0  0
    0.0183   -0.2507   -0.0001 C   0  0  0  0  0  0  0  0  0  0  0  0
    1.4251   -0.0327    0.0000 C   0  0  0  0  0  0  0  0  0  0  0  0
   -0.8911    0.8405   -0.0001 C   0  0  0  0  0  0  0  0  0  0  0  0
   -0.4650   -1.5771   -0.0001 C   0  0  0  0  0  0  0  0  0  0  0  0
   -2.3062    0.5832   -0.0001 C   0  0  0  0  0  0  0  0  0  0  0  0
    1.9401    1.2815    0.0000 C   0  0  0  0  0  0  0  0  0  0  0  0
    2.3225   -1.1284    0.0001 C   0  0  0  0  0  0  0  0  0  0  0  0
   -2.7635   -0.7579   -0.0002 C   0  0  0  0  0  0  0  0  0  0  0  0
   -1.8429   -1.8109   -0.0003 C   0  0  0  0  0  0  0  0  0  0  0  0
   -0.3294    2.1378    0.0000 C   0  0  0  0  0  0  0  0  0  0  0  0
    0.4365   -2.6501    0.0002 C   0  0  0  0  0  0  0  0  0  0  0  0
    1.0508    2.3555    0.0000 C   0  0  0  0  0  0  0  0  0  0  0  0
    1.8124   -2.4296    0.0002 C   0  0  0  0  0  0  0  0  0  0  0  0
    3.3279    1.4875    0.0001 C   0  0  0  0  0  0  0  0  0  0  0  0
    3.7055   -0.8948    0.0002 C   0  0  0  0  0  0  0  0  0  0  0  0
   -3.3010    1.5941    0.0001 C   0  0  0  0  0  0  0  0  0  0  0  0
    4.2041    0.4054    0.0001 C   0  0  0  0  0  0  0  0  0  0  0  0
   -4.1401   -1.0441   -0.0001 C   0  0  0  0  0  0  0  0  0  0  0  0
   -4.6663    1.2964    0.0003 C   0  0  0  0  0  0  0  0  0  0  0  0
   -5.0862   -0.0241    0.0001 C   0  0  0  0  0  0  0  0  0  0  0  0
   -2.2073   -2.8388   -0.0002 H   0  0  0  0  0  0  0  0  0  0  0  0
   -0.9594    3.0237    0.0000 H   0  0  0  0  0  0  0  0  0  0  0  0
    0.0752   -3.6768    0.0003 H   0  0  0  0  0  0  0  0  0  0  0  0
    1.4172    3.3802    0.0001 H   0  0  0  0  0  0  0  0  0  0  0  0
    2.4800   -3.2887    0.0003 H   0  0  0  0  0  0  0  0  0  0  0  0
    3.7329    2.4979    0.0000 H   0  0  0  0  0  0  0  0  0  0  0  0
    4.3977   -1.7350    0.0002 H   0  0  0  0  0  0  0  0  0  0  0  0
   -3.0325    2.6474    0.0003 H   0  0  0  0  0  0  0  0  0  0  0  0
   -4.4906   -2.0748   -0.0002 H   0  0  0  0  0  0  0  0  0  0  0  0
   -5.3963    2.1006    0.0005 H   0  0  0  0  0  0  0  0  0  0  0  0
   -6.1455   -0.2619    0.0003 H   0  0  0  0  0  0  0  0  0  0  0  0
    6.0047   -0.2404   -0.0002 H   0  0  0  0  0  0  0  0  0  0  0  0
  1 18  1  0  0  0  0
  1 33  1  0  0  0  0
  2  3  1  0  0  0  0
  2  4  2  0  0  0  0
  2  5  1  0  0  0  0
  3  7  2  0  0  0  0
  3  8  1  0  0  0  0
  4  6  1  0  0  0  0
  4 11  1  0  0  0  0
  5 10  2  0  0  0  0
  5 12  1  0  0  0  0
  6  9  1  0  0  0  0
  6 17  2  0  0  0  0
  7 13  1  0  0  0  0
  7 15  1  0  0  0  0
  8 14  1  0  0  0  0
  8 16  2  0  0  0  0
  9 10  1  0  0  0  0
  9 19  2  0  0  0  0
 10 22  1  0  0  0  0
 11 13  2  0  0  0  0
 11 23  1  0  0  0  0
 12 14  2  0  0  0  0
 12 24  1  0  0  0  0
 13 25  1  0  0  0  0
 14 26  1  0  0  0  0
 15 18  2  0  0  0  0
 15 27  1  0  0  0  0
 16 18  1  0  0  0  0
 16 28  1  0  0  0  0
 17 20  1  0  0  0  0
 17 29  1  0  0  0  0
 19 21  1  0  0  0  0
 19 30  1  0  0  0  0
 20 21  2  0  0  0  0
 20 31  1  0  0  0  0
 21 32  1  0  0  0  0
M  END
> <PUBCHEM_COMPOUND_CID>
42027

> <PUBCHEM_CONFORMER_RMSD>
0.6

> <PUBCHEM_CONFORMER_DIVERSEORDER>
1

> <PUBCHEM_MMFF94_PARTIAL_CHARGES>
25
1 -0.53
10 -0.15
11 -0.15
12 -0.15
13 -0.15
14 -0.15
15 -0.15
16 -0.15
17 -0.15
18 0.08
19 -0.15
20 -0.15
21 -0.15
22 0.15
23 0.15
24 0.15
25 0.15
26 0.15
27 0.15
28 0.15
29 0.15
30 0.15
31 0.15
32 0.15
33 0.45

> <PUBCHEM_EFFECTIVE_ROTOR_COUNT>
0

> <PUBCHEM_PHARMACOPHORE_FEATURES>
6
1 1 donor
6 2 3 4 7 11 13 rings
6 2 3 5 8 12 14 rings
6 2 4 5 6 9 10 rings
6 3 7 8 15 16 18 rings
6 6 9 17 19 20 21 rings

> <PUBCHEM_HEAVY_ATOM_COUNT>
21

> <PUBCHEM_ATOM_DEF_STEREO_COUNT>
0

> <PUBCHEM_ATOM_UDEF_STEREO_COUNT>
0

> <PUBCHEM_BOND_DEF_STEREO_COUNT>
0

> <PUBCHEM_BOND_UDEF_STEREO_COUNT>
0

> <PUBCHEM_ISOTOPIC_ATOM_COUNT>
0

> <PUBCHEM_COMPONENT_COUNT>
1

> <PUBCHEM_CACTVS_TAUTO_COUNT>
3

> <PUBCHEM_CONFORMER_ID>
0000A42B00000001

> <PUBCHEM_MMFF94_ENERGY>
76.3933

> <PUBCHEM_FEATURE_SELFOVERLAP>
30.598

> <PUBCHEM_SHAPE_FINGERPRINT>
10411042 1 17113537572349439687
10616163 171 18410009893122273271
10906281 52 18340749495351482304
10967382 1 18410856594004841670
1100329 8 18337391513672894632
11112241 14 16590581954686983824
11471102 20 18410858775885131935
11578080 2 16914830390138550495
12011746 2 18410573985183132428
12236239 1 17749390390841171753
12403814 3 17632581556312748381
12592029 89 18413106169088999003
12838862 33 18338254703141309704
13132413 78 18408604772969709661
13140716 1 18267023843015307352
138480 1 17834395996336857603
13862211 1 18410860962203145354
14790565 3 18339635651392005044
15099037 51 18410291385109606396
15196674 1 18410855490214200774
15442244 35 18193275423817235515
15536298 74 18334294300875518215
1601671 61 18411138047675663832
16945 1 18122063375274111878
19591789 44 18338798918452413775
200 152 18113058229483002929
20028762 73 18043250137457571687
20905425 154 18192429894885329822
21267235 1 18410565180505664462
21279426 13 18266176317134579604
21421861 104 17843124963319770410
221490 88 18341043009158434075
23227448 37 18335422327092190903
2334 1 18338797814582287818
23402539 116 18333738991958917678
23559900 14 18263928920058524358
23566358 2 18265898144935050053
2748010 2 18338513045592592454
3004659 81 18343297103123004374
335352 9 18410856564435904214
34934 24 18410016562905556727
350125 39 18339074866270197841
3545911 37 18410573985668532753
3680242 22 18270120239858614034
474 4 18202560657400061863
5104073 3 18411699919465603307
6138700 20 18339076099153054902
7364860 26 18335983176511094582
9709674 26 18410568487979012327
9981440 41 17189817844719628472

> <PUBCHEM_SHAPE_MULTIPOLES>
426.3
8.98
2.65
0.61
1.41
0.48
0
-1.81
0
-0.44
0
0.02
0
0

> <PUBCHEM_SHAPE_SELFOVERLAP>
1004.716

> <PUBCHEM_SHAPE_VOLUME>
216.3

> <PUBCHEM_COORDINATE_TYPE>
2
5
10

$$$$

