11972301
  -OEChem-07051213102D

 58 60  0     1  0  0  0  0  0999 V2000
    4.2690    0.9050    0.0000 O   0  0  0  0  0  0  0  0  0  0  0  0
    6.0010    0.9050    0.0000 O   0  0  0  0  0  0  0  0  0  0  0  0
    5.1350   -1.5950    0.0000 O   0  0  0  0  0  0  0  0  0  0  0  0
    6.0010   -0.0950    0.0000 O   0  0  0  0  0  0  0  0  0  0  0  0
    2.5369   -0.0950    0.0000 O   0  0  0  0  0  0  0  0  0  0  0  0
    2.5369   -2.0950    0.0000 O   0  0  0  0  0  0  0  0  0  0  0  0
    4.2690    2.9050    0.0000 O   0  0  0  0  0  0  0  0  0  0  0  0
    6.0010    3.9050    0.0000 O   0  0  0  0  0  0  0  0  0  0  0  0
    7.7331    2.9050    0.0000 O   0  0  0  0  0  0  0  0  0  0  0  0
    5.1350   -3.5950    0.0000 O   0  0  0  0  0  0  0  0  0  0  0  0
    7.7331   -0.0950    0.0000 O   0  0  0  0  0  0  0  0  0  0  0  0
    4.2690   -0.0950    0.0000 C   0  0  2  0  0  0  0  0  0  0  0  0
    3.4030   -0.5950    0.0000 C   0  0  2  0  0  0  0  0  0  0  0  0
    5.1350    1.4050    0.0000 C   0  0  2  0  0  0  0  0  0  0  0  0
    3.4030   -1.5950    0.0000 C   0  0  1  0  0  0  0  0  0  0  0  0
    5.1350    2.4050    0.0000 C   0  0  1  0  0  0  0  0  0  0  0  0
    5.1350   -0.5950    0.0000 C   0  0  1  0  0  0  0  0  0  0  0  0
    6.0010    2.9050    0.0000 C   0  0  2  0  0  0  0  0  0  0  0  0
    4.2690   -2.0950    0.0000 C   0  0  1  0  0  0  0  0  0  0  0  0
    6.8671    2.4050    0.0000 C   0  0  1  0  0  0  0  0  0  0  0  0
    6.8671    1.4050    0.0000 C   0  0  1  0  0  0  0  0  0  0  0  0
    4.2690   -3.0950    0.0000 C   0  0  0  0  0  0  0  0  0  0  0  0
    7.7331    0.9050    0.0000 C   0  0  0  0  0  0  0  0  0  0  0  0
    6.8671   -0.5950    0.0000 C   0  0  0  0  0  0  0  0  0  0  0  0
    6.8671   -1.5950    0.0000 C   0  0  0  0  0  0  0  0  0  0  0  0
    7.7331   -2.0950    0.0000 C   0  0  0  0  0  0  0  0  0  0  0  0
    6.0010   -2.0950    0.0000 C   0  0  0  0  0  0  0  0  0  0  0  0
    7.7331   -3.0950    0.0000 C   0  0  0  0  0  0  0  0  0  0  0  0
    6.0010   -3.0950    0.0000 C   0  0  0  0  0  0  0  0  0  0  0  0
    6.8671   -3.5950    0.0000 C   0  0  0  0  0  0  0  0  0  0  0  0
    4.8059    0.2150    0.0000 H   0  0  0  0  0  0  0  0  0  0  0  0
    3.4030    0.0250    0.0000 H   0  0  0  0  0  0  0  0  0  0  0  0
    5.1350    0.7850    0.0000 H   0  0  0  0  0  0  0  0  0  0  0  0
    3.4030   -2.2150    0.0000 H   0  0  0  0  0  0  0  0  0  0  0  0
    5.1350    3.0250    0.0000 H   0  0  0  0  0  0  0  0  0  0  0  0
    5.1350    0.0250    0.0000 H   0  0  0  0  0  0  0  0  0  0  0  0
    6.5380    3.2150    0.0000 H   0  0  0  0  0  0  0  0  0  0  0  0
    4.8059   -2.4050    0.0000 H   0  0  0  0  0  0  0  0  0  0  0  0
    7.4040    2.0950    0.0000 H   0  0  0  0  0  0  0  0  0  0  0  0
    6.8671    0.7850    0.0000 H   0  0  0  0  0  0  0  0  0  0  0  0
    3.6584   -2.9873    0.0000 H   0  0  0  0  0  0  0  0  0  0  0  0
    4.0569   -3.6776    0.0000 H   0  0  0  0  0  0  0  0  0  0  0  0
    8.3437    0.7973    0.0000 H   0  0  0  0  0  0  0  0  0  0  0  0
    7.9451    1.4876    0.0000 H   0  0  0  0  0  0  0  0  0  0  0  0
    2.0000   -0.4050    0.0000 H   0  0  0  0  0  0  0  0  0  0  0  0
    2.5369   -2.7150    0.0000 H   0  0  0  0  0  0  0  0  0  0  0  0
    4.2690    3.5250    0.0000 H   0  0  0  0  0  0  0  0  0  0  0  0
    6.5380    4.2150    0.0000 H   0  0  0  0  0  0  0  0  0  0  0  0
    8.2700    2.5950    0.0000 H   0  0  0  0  0  0  0  0  0  0  0  0
    7.4776   -0.7027    0.0000 H   0  0  0  0  0  0  0  0  0  0  0  0
    7.0791   -0.0124    0.0000 H   0  0  0  0  0  0  0  0  0  0  0  0
    5.1350   -4.2150    0.0000 H   0  0  0  0  0  0  0  0  0  0  0  0
    8.2700   -0.4050    0.0000 H   0  0  0  0  0  0  0  0  0  0  0  0
    8.2700   -1.7850    0.0000 H   0  0  0  0  0  0  0  0  0  0  0  0
    5.4641   -1.7850    0.0000 H   0  0  0  0  0  0  0  0  0  0  0  0
    8.2700   -3.4050    0.0000 H   0  0  0  0  0  0  0  0  0  0  0  0
    5.4641   -3.4050    0.0000 H   0  0  0  0  0  0  0  0  0  0  0  0
    6.8671   -4.2150    0.0000 H   0  0  0  0  0  0  0  0  0  0  0  0
 12  1  1  1  0  0  0
 14  1  1  1  0  0  0
  2 14  1  0  0  0  0
  2 21  1  0  0  0  0
  3 17  1  0  0  0  0
  3 19  1  0  0  0  0
 17  4  1  6  0  0  0
  4 24  1  0  0  0  0
 13  5  1  6  0  0  0
  5 45  1  0  0  0  0
 15  6  1  1  0  0  0
  6 46  1  0  0  0  0
 16  7  1  6  0  0  0
  7 47  1  0  0  0  0
 18  8  1  1  0  0  0
  8 48  1  0  0  0  0
 20  9  1  6  0  0  0
  9 49  1  0  0  0  0
 10 22  1  0  0  0  0
 10 52  1  0  0  0  0
 11 23  1  0  0  0  0
 11 53  1  0  0  0  0
 12 13  1  0  0  0  0
 12 17  1  0  0  0  0
 12 31  1  0  0  0  0
 13 15  1  0  0  0  0
 13 32  1  0  0  0  0
 14 16  1  0  0  0  0
 14 33  1  0  0  0  0
 15 19  1  0  0  0  0
 15 34  1  0  0  0  0
 16 18  1  0  0  0  0
 16 35  1  0  0  0  0
 17 36  1  0  0  0  0
 18 20  1  0  0  0  0
 18 37  1  0  0  0  0
 19 22  1  6  0  0  0
 19 38  1  0  0  0  0
 20 21  1  0  0  0  0
 20 39  1  0  0  0  0
 21 23  1  1  0  0  0
 21 40  1  0  0  0  0
 22 41  1  0  0  0  0
 22 42  1  0  0  0  0
 23 43  1  0  0  0  0
 23 44  1  0  0  0  0
 24 25  1  0  0  0  0
 24 50  1  0  0  0  0
 24 51  1  0  0  0  0
 25 26  2  0  0  0  0
 25 27  1  0  0  0  0
 26 28  1  0  0  0  0
 26 54  1  0  0  0  0
 27 29  2  0  0  0  0
 27 55  1  0  0  0  0
 28 30  2  0  0  0  0
 28 56  1  0  0  0  0
 29 30  1  0  0  0  0
 29 57  1  0  0  0  0
 30 58  1  0  0  0  0
M  END
> <PUBCHEM_COMPOUND_CID>
11972301

> <PUBCHEM_COMPOUND_CANONICALIZED>
1

> <PUBCHEM_CACTVS_COMPLEXITY>
517

> <PUBCHEM_CACTVS_HBOND_ACCEPTOR>
11

> <PUBCHEM_CACTVS_HBOND_DONOR>
7

> <PUBCHEM_CACTVS_ROTATABLE_BOND>
7

> <PUBCHEM_CACTVS_SUBSKEYS>
AAADceB4PAAAAAAAAAAAAAAAAAAAAAAAAAA0SIAAAAAAAAABAAAAGgAACAAADBSwmAMwCIAABgCAAiBCAAACAAAgAAAIiAAACIgZNiKAMRiicAAlwAEPqAfA4CwOAAAAAAAAAAAAAAAAAAAAAAAAAAAAAA==

> <PUBCHEM_IUPAC_OPENEYE_NAME>
(2S,3R,4S,5S,6R)-2-[(2R,3R,4S,5S,6R)-2-benzyloxy-4,5-dihydroxy-6-(hydroxymethyl)tetrahydropyran-3-yl]oxy-6-(hydroxymethyl)tetrahydropyran-3,4,5-triol

> <PUBCHEM_IUPAC_CAS_NAME>
(2S,3R,4S,5S,6R)-2-[[(2R,3R,4S,5S,6R)-4,5-dihydroxy-6-(hydroxymethyl)-2-phenylmethoxy-3-oxanyl]oxy]-6-(hydroxymethyl)oxane-3,4,5-triol

> <PUBCHEM_IUPAC_NAME>
(2S,3R,4S,5S,6R)-2-[(2R,3R,4S,5S,6R)-4,5-dihydroxy-6-(hydroxymethyl)-2-phenylmethoxyoxan-3-yl]oxy-6-(hydroxymethyl)oxane-3,4,5-triol

> <PUBCHEM_IUPAC_SYSTEMATIC_NAME>
(2R,3S,4S,5R,6S)-2-(hydroxymethyl)-6-[(2R,3R,4S,5S,6R)-6-(hydroxymethyl)-4,5-bis(oxidanyl)-2-phenylmethoxy-oxan-3-yl]oxy-oxane-3,4,5-triol

> <PUBCHEM_IUPAC_TRADITIONAL_NAME>
(2S,3R,4S,5S,6R)-2-[(2R,3R,4S,5S,6R)-2-benzoxy-4,5-dihydroxy-6-methylol-tetrahydropyran-3-yl]oxy-6-methylol-tetrahydropyran-3,4,5-triol

> <PUBCHEM_IUPAC_INCHI>
InChI=1S/C19H28O11/c20-6-10-12(22)14(24)16(26)18(28-10)30-17-15(25)13(23)11(7-21)29-19(17)27-8-9-4-2-1-3-5-9/h1-5,10-26H,6-8H2/t10-,11-,12-,13-,14+,15+,16-,17-,18+,19-/m1/s1

> <PUBCHEM_IUPAC_INCHIKEY>
WKXRKKUZTXIFJY-UELUTJGDSA-N

> <PUBCHEM_XLOGP3>
-2.3

> <PUBCHEM_EXACT_MASS>
432.163162

> <PUBCHEM_MOLECULAR_FORMULA>
C19H28O11

> <PUBCHEM_MOLECULAR_WEIGHT>
432.41902

> <PUBCHEM_OPENEYE_CAN_SMILES>
C1=CC=C(C=C1)COC2C(C(C(C(O2)CO)O)O)OC3C(C(C(C(O3)CO)O)O)O

> <PUBCHEM_OPENEYE_ISO_SMILES>
C1=CC=C(C=C1)CO[C@H]2[C@@H]([C@H]([C@@H]([C@H](O2)CO)O)O)O[C@H]3[C@@H]([C@H]([C@@H]([C@H](O3)CO)O)O)O

> <PUBCHEM_CACTVS_TPSA>
179

> <PUBCHEM_MONOISOTOPIC_WEIGHT>
432.163162

> <PUBCHEM_TOTAL_CHARGE>
0

> <PUBCHEM_HEAVY_ATOM_COUNT>
30

> <PUBCHEM_ATOM_DEF_STEREO_COUNT>
10

> <PUBCHEM_ATOM_UDEF_STEREO_COUNT>
0

> <PUBCHEM_BOND_DEF_STEREO_COUNT>
0

> <PUBCHEM_BOND_UDEF_STEREO_COUNT>
0

> <PUBCHEM_ISOTOPIC_ATOM_COUNT>
0

> <PUBCHEM_COMPONENT_COUNT>
1

> <PUBCHEM_CACTVS_TAUTO_COUNT>
1

> <PUBCHEM_COORDINATE_TYPE>
1
5
255

> <PUBCHEM_BONDANNOTATIONS>
12  1  5
14  1  5
19  22  6
21  23  5
25  26  8
25  27  8
26  28  8
27  29  8
28  30  8
29  30  8
17  4  6
13  5  6
15  6  5
16  7  6
18  8  5
20  9  6

$$$$

