13999
  -OEChem-06241222413D

 49 52  0     0  0  0  0  0  0999 V2000
    1.9616    4.6157    0.0478 Cl  0  0  0  0  0  0  0  0  0  0  0  0
   -6.2023    0.1823   -1.6300 O   0  0  0  0  0  0  0  0  0  0  0  0
   -0.5075   -2.7152    2.4399 O   0  0  0  0  0  0  0  0  0  0  0  0
   -3.7284   -0.7317   -0.5597 N   0  0  0  0  0  0  0  0  0  0  0  0
   -0.6242   -0.5842    1.5044 N   0  0  0  0  0  0  0  0  0  0  0  0
    2.2841   -1.4583    1.5207 N   0  0  0  0  0  0  0  0  0  0  0  0
   -2.3061   -0.5714   -0.2644 C   0  0  0  0  0  0  0  0  0  0  0  0
   -4.5214    0.3054    0.1149 C   0  0  0  0  0  0  0  0  0  0  0  0
   -3.9688   -0.6864   -2.0087 C   0  0  0  0  0  0  0  0  0  0  0  0
   -2.0549   -0.7198    1.2307 C   0  0  0  0  0  0  0  0  0  0  0  0
   -5.9997    0.1244   -0.2176 C   0  0  0  0  0  0  0  0  0  0  0  0
   -5.4601   -0.8429   -2.2916 C   0  0  0  0  0  0  0  0  0  0  0  0
    0.0257    0.6377    1.1147 C   0  0  0  0  0  0  0  0  0  0  0  0
    1.3920    0.7084    0.7720 C   0  0  0  0  0  0  0  0  0  0  0  0
    0.0152   -1.6271    2.1848 C   0  0  0  0  0  0  0  0  0  0  0  0
    1.4143   -1.3468    2.6725 C   0  0  0  0  0  0  0  0  0  0  0  0
    2.2544   -0.5049    0.6520 C   0  0  0  0  0  0  0  0  0  0  0  0
   -0.7239    1.8293    1.0527 C   0  0  0  0  0  0  0  0  0  0  0  0
    1.9864    1.9451    0.4608 C   0  0  0  0  0  0  0  0  0  0  0  0
    3.1306   -0.6512   -0.5462 C   0  0  0  0  0  0  0  0  0  0  0  0
   -0.1308    3.0505    0.7224 C   0  0  0  0  0  0  0  0  0  0  0  0
    1.2264    3.1104    0.4388 C   0  0  0  0  0  0  0  0  0  0  0  0
    2.7381   -0.0917   -1.7560 C   0  0  0  0  0  0  0  0  0  0  0  0
    4.3298   -1.3449   -0.4394 C   0  0  0  0  0  0  0  0  0  0  0  0
    3.5575   -0.2284   -2.8767 C   0  0  0  0  0  0  0  0  0  0  0  0
    5.1492   -1.4813   -1.5601 C   0  0  0  0  0  0  0  0  0  0  0  0
    4.7629   -0.9230   -2.7787 C   0  0  0  0  0  0  0  0  0  0  0  0
   -1.9500    0.3797   -0.6723 H   0  0  0  0  0  0  0  0  0  0  0  0
   -1.7401   -1.3564   -0.7843 H   0  0  0  0  0  0  0  0  0  0  0  0
   -4.1939    1.3047   -0.1998 H   0  0  0  0  0  0  0  0  0  0  0  0
   -4.4484    0.2446    1.2034 H   0  0  0  0  0  0  0  0  0  0  0  0
   -3.4254   -1.4952   -2.5105 H   0  0  0  0  0  0  0  0  0  0  0  0
   -3.6183    0.2678   -2.4236 H   0  0  0  0  0  0  0  0  0  0  0  0
   -2.4111   -1.7041    1.5575 H   0  0  0  0  0  0  0  0  0  0  0  0
   -2.5691    0.0042    1.8672 H   0  0  0  0  0  0  0  0  0  0  0  0
   -6.3892   -0.8252    0.1694 H   0  0  0  0  0  0  0  0  0  0  0  0
   -6.5855    0.9311    0.2347 H   0  0  0  0  0  0  0  0  0  0  0  0
   -5.6475   -0.7485   -3.3660 H   0  0  0  0  0  0  0  0  0  0  0  0
   -5.8312   -1.8255   -1.9754 H   0  0  0  0  0  0  0  0  0  0  0  0
    1.4857   -0.3858    3.1937 H   0  0  0  0  0  0  0  0  0  0  0  0
    1.6890   -2.1149    3.4038 H   0  0  0  0  0  0  0  0  0  0  0  0
   -1.7803    1.8607    1.3037 H   0  0  0  0  0  0  0  0  0  0  0  0
    3.0497    2.0038    0.2356 H   0  0  0  0  0  0  0  0  0  0  0  0
   -0.7438    3.9482    0.7056 H   0  0  0  0  0  0  0  0  0  0  0  0
    1.7910    0.4254   -1.8781 H   0  0  0  0  0  0  0  0  0  0  0  0
    4.6558   -1.7805    0.5010 H   0  0  0  0  0  0  0  0  0  0  0  0
    3.2533    0.1994   -3.8276 H   0  0  0  0  0  0  0  0  0  0  0  0
    6.0887   -2.0207   -1.4837 H   0  0  0  0  0  0  0  0  0  0  0  0
    5.4003   -1.0305   -3.6515 H   0  0  0  0  0  0  0  0  0  0  0  0
  1 22  1  0  0  0  0
  2 11  1  0  0  0  0
  2 12  1  0  0  0  0
  3 15  2  0  0  0  0
  4  7  1  0  0  0  0
  4  8  1  0  0  0  0
  4  9  1  0  0  0  0
  5 10  1  0  0  0  0
  5 13  1  0  0  0  0
  5 15  1  0  0  0  0
  6 16  1  0  0  0  0
  6 17  2  0  0  0  0
  7 10  1  0  0  0  0
  7 28  1  0  0  0  0
  7 29  1  0  0  0  0
  8 11  1  0  0  0  0
  8 30  1  0  0  0  0
  8 31  1  0  0  0  0
  9 12  1  0  0  0  0
  9 32  1  0  0  0  0
  9 33  1  0  0  0  0
 10 34  1  0  0  0  0
 10 35  1  0  0  0  0
 11 36  1  0  0  0  0
 11 37  1  0  0  0  0
 12 38  1  0  0  0  0
 12 39  1  0  0  0  0
 13 14  2  0  0  0  0
 13 18  1  0  0  0  0
 14 17  1  0  0  0  0
 14 19  1  0  0  0  0
 15 16  1  0  0  0  0
 16 40  1  0  0  0  0
 16 41  1  0  0  0  0
 17 20  1  0  0  0  0
 18 21  2  0  0  0  0
 18 42  1  0  0  0  0
 19 22  2  0  0  0  0
 19 43  1  0  0  0  0
 20 23  2  0  0  0  0
 20 24  1  0  0  0  0
 21 22  1  0  0  0  0
 21 44  1  0  0  0  0
 23 25  1  0  0  0  0
 23 45  1  0  0  0  0
 24 26  2  0  0  0  0
 24 46  1  0  0  0  0
 25 27  2  0  0  0  0
 25 47  1  0  0  0  0
 26 27  1  0  0  0  0
 26 48  1  0  0  0  0
 27 49  1  0  0  0  0
M  END
> <PUBCHEM_COMPOUND_CID>
13999

> <PUBCHEM_CONFORMER_RMSD>
0.8

> <PUBCHEM_CONFORMER_DIVERSEORDER>
2
8
17
6
16
10
19
20
4
3
5
22
18
23
15
13
9
12
14
21
1
11
7

> <PUBCHEM_MMFF94_PARTIAL_CHARGES>
35
1 -0.18
10 0.3
11 0.28
12 0.28
13 0.12
14 0.09
15 0.57
16 0.31
17 0.28
18 -0.15
19 -0.15
2 -0.56
20 0.09
21 -0.15
22 0.18
23 -0.15
24 -0.15
25 -0.15
26 -0.15
27 -0.15
3 -0.57
4 -0.81
42 0.15
43 0.15
44 0.15
45 0.15
46 0.15
47 0.15
48 0.15
49 0.15
5 -0.48
6 -0.7
7 0.27
8 0.27
9 0.27

> <PUBCHEM_EFFECTIVE_ROTOR_COUNT>
5.6

> <PUBCHEM_PHARMACOPHORE_FEATURES>
8
1 2 acceptor
1 3 acceptor
1 4 cation
1 6 acceptor
6 13 14 18 19 21 22 rings
6 2 4 8 9 11 12 rings
6 20 23 24 25 26 27 rings
7 5 6 13 14 15 16 17 rings

> <PUBCHEM_HEAVY_ATOM_COUNT>
27

> <PUBCHEM_ATOM_DEF_STEREO_COUNT>
0

> <PUBCHEM_ATOM_UDEF_STEREO_COUNT>
0

> <PUBCHEM_BOND_DEF_STEREO_COUNT>
0

> <PUBCHEM_BOND_UDEF_STEREO_COUNT>
0

> <PUBCHEM_ISOTOPIC_ATOM_COUNT>
0

> <PUBCHEM_COMPONENT_COUNT>
1

> <PUBCHEM_CACTVS_TAUTO_COUNT>
1

> <PUBCHEM_CONFORMER_ID>
000036AF00000002

> <PUBCHEM_MMFF94_ENERGY>
96.404

> <PUBCHEM_FEATURE_SELFOVERLAP>
40.606

> <PUBCHEM_SHAPE_FINGERPRINT>
10165383 225 17418081131801621019
10906281 52 18267020553524864624
11445158 3 16767547354534309097
11477941 20 17541041742435787076
11578080 2 17415833605675769276
11796584 16 16660643020271273279
12293681 160 18059563711863588120
12553582 1 18266433534616134882
12617007 42 18187653487346046580
12788726 201 18198053883902824576
12895836 83 16701445784718390686
12895837 130 15408893953306542934
13009979 54 17554349272551035858
13149001 5 18198892635260182426
13757389 114 17537692758107443920
14114206 34 18271228534362635717
14251751 18 16588024636595512239
14347329 18 16773793658911806363
14739800 52 13183028397457506077
14848178 5 16515400793932246823
15475509 8 18115016541507720193
15664445 248 18333455352302813336
17909252 39 17822011947780801537
1813 80 18040999565539451500
18365409 1 16900215810510765989
19438510 23 14692277397137528004
20465049 17 18411138022533951843
20775438 99 18118136778754657463
22182313 1 17912912894759185264
22620623 9 17825089652957590280
23419403 2 17836893764900915408
23536364 44 18198626720813055957
23559900 14 17676498211748864463
2838139 119 15339113516178870534
340366 18 18040438759296801447
376196 1 17690294715423187664
4017518 198 17390507399556439668
4280585 95 18259984886087171550
44802255 64 15911320271549652354
46194498 28 18048027476614139751
465052 167 5112003954230382658
469060 322 17750495434265565046
484985 159 15652083123272992822
5081480 168 18342179955837772373
633830 44 18340215090204319425
7808743 9 15913042089156283179

> <PUBCHEM_SHAPE_MULTIPOLES>
530.84
11.11
3.34
2.86
14.13
5.45
-0.7
-7.33
10.14
-3.03
0.78
-0.89
-2.17
-0.01

> <PUBCHEM_SHAPE_SELFOVERLAP>
1138.512

> <PUBCHEM_SHAPE_VOLUME>
292.5

> <PUBCHEM_COORDINATE_TYPE>
2
5
10

$$$$

