17395285
  -OEChem-06241222492D

 52 53  0     0  0  0  0  0  0999 V2000
    8.1097    2.6683    0.0000 S   0  0  0  0  0  0  0  0  0  0  0  0
    6.3301    2.5750    0.0000 S   0  0  0  0  0  0  0  0  0  0  0  0
    5.4641   -1.9250    0.0000 O   0  0  0  0  0  0  0  0  0  0  0  0
    4.5981    1.5750    0.0000 O   0  0  0  0  0  0  0  0  0  0  0  0
    9.7734    3.3069    0.0000 N   0  0  0  0  0  0  0  0  0  0  0  0
    3.7320   -1.9250    0.0000 N   0  0  0  0  0  0  0  0  0  0  0  0
    8.2788    4.2775    0.0000 N   0  0  0  0  0  0  0  0  0  0  0  0
    7.3007    4.0696    0.0000 N   0  0  0  0  0  0  0  0  0  0  0  0
    5.4641    0.0750    0.0000 N   0  0  0  0  0  0  0  0  0  0  0  0
   10.3611    4.1159    0.0000 C   0  0  0  0  0  0  0  0  0  0  0  0
   10.9489    4.9250    0.0000 C   0  0  0  0  0  0  0  0  0  0  0  0
   11.1702    3.5282    0.0000 C   0  0  0  0  0  0  0  0  0  0  0  0
    9.5521    4.7037    0.0000 C   0  0  0  0  0  0  0  0  0  0  0  0
    8.7788    3.4114    0.0000 C   0  0  0  0  0  0  0  0  0  0  0  0
    2.8660   -3.4250    0.0000 C   0  0  0  0  0  0  0  0  0  0  0  0
    3.7320   -2.9250    0.0000 C   0  0  0  0  0  0  0  0  0  0  0  0
    2.8660   -4.4250    0.0000 C   0  0  0  0  0  0  0  0  0  0  0  0
    4.5981   -3.4250    0.0000 C   0  0  0  0  0  0  0  0  0  0  0  0
    3.7320   -4.9250    0.0000 C   0  0  0  0  0  0  0  0  0  0  0  0
    2.0000   -2.9250    0.0000 C   0  0  0  0  0  0  0  0  0  0  0  0
    4.5981   -4.4250    0.0000 C   0  0  0  0  0  0  0  0  0  0  0  0
    7.1962    3.0750    0.0000 C   0  0  0  0  0  0  0  0  0  0  0  0
    2.0000   -4.9250    0.0000 C   0  0  0  0  0  0  0  0  0  0  0  0
    4.5981   -0.4250    0.0000 C   0  0  0  0  0  0  0  0  0  0  0  0
    4.5981   -1.4250    0.0000 C   0  0  0  0  0  0  0  0  0  0  0  0
    6.3301    1.5750    0.0000 C   0  0  0  0  0  0  0  0  0  0  0  0
    5.4641    1.0750    0.0000 C   0  0  0  0  0  0  0  0  0  0  0  0
    9.9165    5.2053    0.0000 H   0  0  0  0  0  0  0  0  0  0  0  0
    9.0505    5.0682    0.0000 H   0  0  0  0  0  0  0  0  0  0  0  0
    9.1877    4.2021    0.0000 H   0  0  0  0  0  0  0  0  0  0  0  0
   10.8057    3.0266    0.0000 H   0  0  0  0  0  0  0  0  0  0  0  0
   11.6717    3.1637    0.0000 H   0  0  0  0  0  0  0  0  0  0  0  0
   11.5346    4.0298    0.0000 H   0  0  0  0  0  0  0  0  0  0  0  0
   11.4505    4.5605    0.0000 H   0  0  0  0  0  0  0  0  0  0  0  0
   11.3133    5.4266    0.0000 H   0  0  0  0  0  0  0  0  0  0  0  0
   10.4473    5.2894    0.0000 H   0  0  0  0  0  0  0  0  0  0  0  0
   10.0255    2.7405    0.0000 H   0  0  0  0  0  0  0  0  0  0  0  0
    5.1350   -3.1150    0.0000 H   0  0  0  0  0  0  0  0  0  0  0  0
    3.7320   -5.5450    0.0000 H   0  0  0  0  0  0  0  0  0  0  0  0
    3.1951   -1.6150    0.0000 H   0  0  0  0  0  0  0  0  0  0  0  0
    2.3100   -2.3880    0.0000 H   0  0  0  0  0  0  0  0  0  0  0  0
    1.4631   -2.6150    0.0000 H   0  0  0  0  0  0  0  0  0  0  0  0
    1.6900   -3.4619    0.0000 H   0  0  0  0  0  0  0  0  0  0  0  0
    5.1350   -4.7350    0.0000 H   0  0  0  0  0  0  0  0  0  0  0  0
    1.6900   -4.3880    0.0000 H   0  0  0  0  0  0  0  0  0  0  0  0
    1.4631   -5.2350    0.0000 H   0  0  0  0  0  0  0  0  0  0  0  0
    2.3100   -5.4619    0.0000 H   0  0  0  0  0  0  0  0  0  0  0  0
    4.3860    0.1577    0.0000 H   0  0  0  0  0  0  0  0  0  0  0  0
    3.9875   -0.5326    0.0000 H   0  0  0  0  0  0  0  0  0  0  0  0
    6.5422    0.9924    0.0000 H   0  0  0  0  0  0  0  0  0  0  0  0
    6.9407    1.6827    0.0000 H   0  0  0  0  0  0  0  0  0  0  0  0
    6.0010   -0.2350    0.0000 H   0  0  0  0  0  0  0  0  0  0  0  0
  1 14  1  0  0  0  0
  1 22  1  0  0  0  0
  2 22  1  0  0  0  0
  2 26  1  0  0  0  0
  3 25  2  0  0  0  0
  4 27  2  0  0  0  0
  5 10  1  0  0  0  0
  5 14  1  0  0  0  0
  5 37  1  0  0  0  0
  6 16  1  0  0  0  0
  6 25  1  0  0  0  0
  6 40  1  0  0  0  0
  7  8  1  0  0  0  0
  7 14  2  0  0  0  0
  8 22  2  0  0  0  0
  9 24  1  0  0  0  0
  9 27  1  0  0  0  0
  9 52  1  0  0  0  0
 10 11  1  0  0  0  0
 10 12  1  0  0  0  0
 10 13  1  0  0  0  0
 11 34  1  0  0  0  0
 11 35  1  0  0  0  0
 11 36  1  0  0  0  0
 12 31  1  0  0  0  0
 12 32  1  0  0  0  0
 12 33  1  0  0  0  0
 13 28  1  0  0  0  0
 13 29  1  0  0  0  0
 13 30  1  0  0  0  0
 15 16  1  0  0  0  0
 15 17  2  0  0  0  0
 15 20  1  0  0  0  0
 16 18  2  0  0  0  0
 17 19  1  0  0  0  0
 17 23  1  0  0  0  0
 18 21  1  0  0  0  0
 18 38  1  0  0  0  0
 19 21  2  0  0  0  0
 19 39  1  0  0  0  0
 20 41  1  0  0  0  0
 20 42  1  0  0  0  0
 20 43  1  0  0  0  0
 21 44  1  0  0  0  0
 23 45  1  0  0  0  0
 23 46  1  0  0  0  0
 23 47  1  0  0  0  0
 24 25  1  0  0  0  0
 24 48  1  0  0  0  0
 24 49  1  0  0  0  0
 26 27  1  0  0  0  0
 26 50  1  0  0  0  0
 26 51  1  0  0  0  0
M  END
> <PUBCHEM_COMPOUND_CID>
17395285

> <PUBCHEM_COMPOUND_CANONICALIZED>
1

> <PUBCHEM_CACTVS_COMPLEXITY>
515

> <PUBCHEM_CACTVS_HBOND_ACCEPTOR>
7

> <PUBCHEM_CACTVS_HBOND_DONOR>
3

> <PUBCHEM_CACTVS_ROTATABLE_BOND>
8

> <PUBCHEM_CACTVS_SUBSKEYS>
AAADceB7sABgAAAAAAAAAAAAAAAAAWAAAAAwAAAAAAAAAAABwAAAHgQYAAAADIjF2ASz0ILAAAiuAiVScACSAQJhAhkNiICIZIiIYCLAmbGUIAhwlgLIyAcQgIAOgAAAQAASAAAAAACAACQAAAAAAAAAAA==

> <PUBCHEM_IUPAC_OPENEYE_NAME>
2-[[2-[[5-(tert-butylamino)-1,3,4-thiadiazol-2-yl]sulfanyl]acetyl]amino]-N-(2,3-dimethylphenyl)acetamide

> <PUBCHEM_IUPAC_CAS_NAME>
2-[[2-[[5-(tert-butylamino)-1,3,4-thiadiazol-2-yl]thio]-1-oxoethyl]amino]-N-(2,3-dimethylphenyl)acetamide

> <PUBCHEM_IUPAC_NAME>
2-[[2-[[5-(tert-butylamino)-1,3,4-thiadiazol-2-yl]sulfanyl]acetyl]amino]-N-(2,3-dimethylphenyl)acetamide

> <PUBCHEM_IUPAC_SYSTEMATIC_NAME>
2-[2-[[5-(tert-butylamino)-1,3,4-thiadiazol-2-yl]sulfanyl]ethanoylamino]-N-(2,3-dimethylphenyl)ethanamide

> <PUBCHEM_IUPAC_TRADITIONAL_NAME>
2-[[2-[[5-(tert-butylamino)-1,3,4-thiadiazol-2-yl]thio]acetyl]amino]-N-(2,3-dimethylphenyl)acetamide

> <PUBCHEM_IUPAC_INCHI>
InChI=1S/C18H25N5O2S2/c1-11-7-6-8-13(12(11)2)20-14(24)9-19-15(25)10-26-17-23-22-16(27-17)21-18(3,4)5/h6-8H,9-10H2,1-5H3,(H,19,25)(H,20,24)(H,21,22)

> <PUBCHEM_IUPAC_INCHIKEY>
VXYCMUUXBKYNIQ-UHFFFAOYSA-N

> <PUBCHEM_XLOGP3_AA>
3.5

> <PUBCHEM_EXACT_MASS>
407.144967

> <PUBCHEM_MOLECULAR_FORMULA>
C18H25N5O2S2

> <PUBCHEM_MOLECULAR_WEIGHT>
407.5534

> <PUBCHEM_OPENEYE_CAN_SMILES>
CC1=C(C(=CC=C1)NC(=O)CNC(=O)CSC2=NN=C(S2)NC(C)(C)C)C

> <PUBCHEM_OPENEYE_ISO_SMILES>
CC1=C(C(=CC=C1)NC(=O)CNC(=O)CSC2=NN=C(S2)NC(C)(C)C)C

> <PUBCHEM_CACTVS_TPSA>
150

> <PUBCHEM_MONOISOTOPIC_WEIGHT>
407.144967

> <PUBCHEM_TOTAL_CHARGE>
0

> <PUBCHEM_HEAVY_ATOM_COUNT>
27

> <PUBCHEM_ATOM_DEF_STEREO_COUNT>
0

> <PUBCHEM_ATOM_UDEF_STEREO_COUNT>
0

> <PUBCHEM_BOND_DEF_STEREO_COUNT>
0

> <PUBCHEM_BOND_UDEF_STEREO_COUNT>
0

> <PUBCHEM_ISOTOPIC_ATOM_COUNT>
0

> <PUBCHEM_COMPONENT_COUNT>
1

> <PUBCHEM_CACTVS_TAUTO_COUNT>
12

> <PUBCHEM_COORDINATE_TYPE>
1
5
255

> <PUBCHEM_BONDANNOTATIONS>
1  14  8
1  22  8
15  16  8
15  17  8
16  18  8
17  19  8
18  21  8
19  21  8
7  14  8
7  8  8
8  22  8

$$$$

