7728
  -OEChem-06261202163D

 20 20  0     0  0  0  0  0  0999 V2000
   -1.1074    1.1945   -0.0202 N   0  0  0  0  0  0  0  0  0  0  0  0
    0.9686   -0.0144   -0.2922 C   0  0  0  0  0  0  0  0  0  0  0  0
    2.4414    0.0199   -0.4965 C   0  0  0  0  0  0  0  0  0  0  0  0
    0.2882   -1.2221   -0.1828 C   0  0  0  0  0  0  0  0  0  0  0  0
    0.2312    1.1555   -0.2049 C   0  0  0  0  0  0  0  0  0  0  0  0
    3.2141    0.0510    0.8214 C   0  0  0  0  0  0  0  0  0  0  0  0
   -1.7344    0.0010    0.0818 C   0  0  0  0  0  0  0  0  0  0  0  0
   -1.0892   -1.2230    0.0079 C   0  0  0  0  0  0  0  0  0  0  0  0
   -3.2125    0.0377    0.2855 C   0  0  0  0  0  0  0  0  0  0  0  0
    2.7580   -0.8524   -1.0819 H   0  0  0  0  0  0  0  0  0  0  0  0
    2.7149    0.8958   -1.0980 H   0  0  0  0  0  0  0  0  0  0  0  0
    0.8202   -2.1676   -0.2429 H   0  0  0  0  0  0  0  0  0  0  0  0
    0.7053    2.1292   -0.2810 H   0  0  0  0  0  0  0  0  0  0  0  0
    2.9535    0.9361    1.4117 H   0  0  0  0  0  0  0  0  0  0  0  0
    4.2909    0.0758    0.6273 H   0  0  0  0  0  0  0  0  0  0  0  0
    2.9971   -0.8347    1.4280 H   0  0  0  0  0  0  0  0  0  0  0  0
   -1.6310   -2.1587    0.0950 H   0  0  0  0  0  0  0  0  0  0  0  0
   -3.5789    1.0688    0.3238 H   0  0  0  0  0  0  0  0  0  0  0  0
   -3.7230   -0.4715   -0.5382 H   0  0  0  0  0  0  0  0  0  0  0  0
   -3.4791   -0.4504    1.2283 H   0  0  0  0  0  0  0  0  0  0  0  0
  1  5  1  0  0  0  0
  1  7  2  0  0  0  0
  2  3  1  0  0  0  0
  2  4  1  0  0  0  0
  2  5  2  0  0  0  0
  3  6  1  0  0  0  0
  3 10  1  0  0  0  0
  3 11  1  0  0  0  0
  4  8  2  0  0  0  0
  4 12  1  0  0  0  0
  5 13  1  0  0  0  0
  6 14  1  0  0  0  0
  6 15  1  0  0  0  0
  6 16  1  0  0  0  0
  7  8  1  0  0  0  0
  7  9  1  0  0  0  0
  8 17  1  0  0  0  0
  9 18  1  0  0  0  0
  9 19  1  0  0  0  0
  9 20  1  0  0  0  0
M  END
> <PUBCHEM_COMPOUND_CID>
7728

> <PUBCHEM_CONFORMER_RMSD>
0.4

> <PUBCHEM_CONFORMER_DIVERSEORDER>
2
1
4
3

> <PUBCHEM_MMFF94_PARTIAL_CHARGES>
11
1 -0.62
12 0.15
13 0.15
17 0.15
2 -0.14
3 0.14
4 -0.15
5 0.16
7 0.17
8 -0.15
9 0.14

> <PUBCHEM_EFFECTIVE_ROTOR_COUNT>
1

> <PUBCHEM_PHARMACOPHORE_FEATURES>
3
1 1 acceptor
1 6 hydrophobe
6 1 2 4 5 7 8 rings

> <PUBCHEM_HEAVY_ATOM_COUNT>
9

> <PUBCHEM_ATOM_DEF_STEREO_COUNT>
0

> <PUBCHEM_ATOM_UDEF_STEREO_COUNT>
0

> <PUBCHEM_BOND_DEF_STEREO_COUNT>
0

> <PUBCHEM_BOND_UDEF_STEREO_COUNT>
0

> <PUBCHEM_ISOTOPIC_ATOM_COUNT>
0

> <PUBCHEM_COMPONENT_COUNT>
1

> <PUBCHEM_CACTVS_TAUTO_COUNT>
1

> <PUBCHEM_CONFORMER_ID>
00001E3000000002

> <PUBCHEM_MMFF94_ENERGY>
17.4189

> <PUBCHEM_FEATURE_SELFOVERLAP>
15.223

> <PUBCHEM_SHAPE_FINGERPRINT>
10857977 72 18410013212751743336
11062470 55 16805039618756554721
14325111 11 18409445907701509708
15310529 11 16630807686061744084
16945 1 18411131437604781983
20645464 45 17894917317302737354
21040471 1 18338508746092880966
23235685 24 18409449193388381965
23402655 69 18193573374990679333
23552423 10 17769650910663776916
2748010 2 18123463053797583295
29004967 10 18271794735800848745
369184 2 18408895026901563306
5084963 1 18263071257832905684

> <PUBCHEM_SHAPE_MULTIPOLES>
180.23
4.35
1.22
0.74
0.61
0.06
-0.05
-0.17
-0.96
-0.25
0.06
0.3
0
0

> <PUBCHEM_SHAPE_SELFOVERLAP>
364.138

> <PUBCHEM_SHAPE_VOLUME>
106.2

> <PUBCHEM_COORDINATE_TYPE>
2
5
10

$$$$

