440894
  -OEChem-07051212513D

 23 22  0     1  0  0  0  0  0999 V2000
   -1.4111    1.6789   -0.3545 O   0  0  0  0  0  0  0  0  0  0  0  0
   -1.9166   -1.7797    0.4519 O   0  0  0  0  0  0  0  0  0  0  0  0
   -2.3263    0.1213    1.6265 O   0  0  0  0  0  0  0  0  0  0  0  0
    2.5141   -1.6308   -0.1921 O   0  0  0  0  0  0  0  0  0  0  0  0
    3.5174    0.4026   -0.0280 O   0  0  0  0  0  0  0  0  0  0  0  0
    1.1895    1.6104    0.6927 N   0  0  0  0  0  0  0  0  0  0  0  0
   -1.3138    0.2781   -0.5887 C   0  0  2  0  0  0  0  0  0  0  0  0
    0.1665   -0.0989   -0.8068 C   0  0  0  0  0  0  0  0  0  0  0  0
    1.1129    0.1857    0.3762 C   0  0  1  0  0  0  0  0  0  0  0  0
   -2.1401   -0.0429   -1.8369 C   0  0  0  0  0  0  0  0  0  0  0  0
   -1.9057   -0.4329    0.6201 C   0  0  0  0  0  0  0  0  0  0  0  0
    2.5132   -0.2917    0.0397 C   0  0  0  0  0  0  0  0  0  0  0  0
    0.5433    0.4445   -1.6856 H   0  0  0  0  0  0  0  0  0  0  0  0
    0.2235   -1.1642   -1.0665 H   0  0  0  0  0  0  0  0  0  0  0  0
    0.7875   -0.3503    1.2744 H   0  0  0  0  0  0  0  0  0  0  0  0
   -1.8130    0.5655   -2.6877 H   0  0  0  0  0  0  0  0  0  0  0  0
   -2.0673   -1.0989   -2.1175 H   0  0  0  0  0  0  0  0  0  0  0  0
   -3.1996    0.1881   -1.6746 H   0  0  0  0  0  0  0  0  0  0  0  0
    1.5236    2.1315   -0.1169 H   0  0  0  0  0  0  0  0  0  0  0  0
    1.8645    1.7657    1.4402 H   0  0  0  0  0  0  0  0  0  0  0  0
   -2.3534    1.9164   -0.3158 H   0  0  0  0  0  0  0  0  0  0  0  0
   -2.2975   -2.2422    1.2286 H   0  0  0  0  0  0  0  0  0  0  0  0
    3.4098   -1.9623   -0.4158 H   0  0  0  0  0  0  0  0  0  0  0  0
  1  7  1  0  0  0  0
  1 21  1  0  0  0  0
  2 11  1  0  0  0  0
  2 22  1  0  0  0  0
  3 11  2  0  0  0  0
  4 12  1  0  0  0  0
  4 23  1  0  0  0  0
  5 12  2  0  0  0  0
  6  9  1  0  0  0  0
  6 19  1  0  0  0  0
  6 20  1  0  0  0  0
  7  8  1  0  0  0  0
  7 10  1  0  0  0  0
  7 11  1  0  0  0  0
  8  9  1  0  0  0  0
  8 13  1  0  0  0  0
  8 14  1  0  0  0  0
  9 12  1  0  0  0  0
  9 15  1  0  0  0  0
 10 16  1  0  0  0  0
 10 17  1  0  0  0  0
 10 18  1  0  0  0  0
M  END
> <PUBCHEM_COMPOUND_CID>
440894

> <PUBCHEM_CONFORMER_RMSD>
0.6

> <PUBCHEM_CONFORMER_DIVERSEORDER>
1
6
22
3
13
17
18
12
11
21
4
19
8
15
20
16
10
9
14
7
2
5

> <PUBCHEM_MMFF94_PARTIAL_CHARGES>
15
1 -0.68
11 0.66
12 0.66
19 0.36
2 -0.65
20 0.36
21 0.4
22 0.5
23 0.5
3 -0.57
4 -0.65
5 -0.57
6 -0.99
7 0.34
9 0.33

> <PUBCHEM_EFFECTIVE_ROTOR_COUNT>
4

> <PUBCHEM_PHARMACOPHORE_FEATURES>
10
1 1 acceptor
1 1 donor
1 2 acceptor
1 3 acceptor
1 4 acceptor
1 5 acceptor
1 6 cation
1 6 donor
3 2 3 11 anion
3 4 5 12 anion

> <PUBCHEM_HEAVY_ATOM_COUNT>
12

> <PUBCHEM_ATOM_DEF_STEREO_COUNT>
2

> <PUBCHEM_ATOM_UDEF_STEREO_COUNT>
0

> <PUBCHEM_BOND_DEF_STEREO_COUNT>
0

> <PUBCHEM_BOND_UDEF_STEREO_COUNT>
0

> <PUBCHEM_ISOTOPIC_ATOM_COUNT>
0

> <PUBCHEM_COMPONENT_COUNT>
1

> <PUBCHEM_CACTVS_TAUTO_COUNT>
1

> <PUBCHEM_CONFORMER_ID>
0006BA3E00000001

> <PUBCHEM_MMFF94_ENERGY>
15.0755

> <PUBCHEM_FEATURE_SELFOVERLAP>
50.87

> <PUBCHEM_SHAPE_FINGERPRINT>
12138202 97 17774463640631017863
12716758 59 16629692884366205446
12932741 1 18059027106722692780
12932764 1 17822015324057021388
13024252 1 16845578621268351311
15775835 57 14274002377388614435
16945 1 18411140221087286764
20201158 50 18413396431748131834
20279233 1 18271815626690769894
20711985 344 16702036244385560181
21028194 46 5039405353469535371
29004967 10 18408886248162464168
3248919 1 18201166537197073260
369184 2 18334579065918392991
5084963 1 17386305206597643812

> <PUBCHEM_SHAPE_MULTIPOLES>
212.63
4.43
1.4
1.28
2.92
0.06
0.13
0.63
-0.03
0.03
-0.16
-1.18
-0.03
0.38

> <PUBCHEM_SHAPE_SELFOVERLAP>
415.002

> <PUBCHEM_SHAPE_VOLUME>
127.5

> <PUBCHEM_COORDINATE_TYPE>
2
5
10

$$$$

