792
  -OEChem-07051212452D

 23 23  0     0  0  0  0  0  0999 V2000
    7.9575    0.1036    0.0000 P   0  0  0  0  0  0  0  0  0  0  0  0
    7.0064    0.4126    0.0000 O   0  0  0  0  0  0  0  0  0  0  0  0
    5.1043    1.0306    0.0000 O   0  0  0  0  0  0  0  0  0  0  0  0
    8.9086   -0.2054    0.0000 O   0  0  0  0  0  0  0  0  0  0  0  0
    8.2665    1.0546    0.0000 O   0  0  0  0  0  0  0  0  0  0  0  0
    7.6485   -0.8475    0.0000 O   0  0  0  0  0  0  0  0  0  0  0  0
    2.8090   -0.8954    0.0000 N   0  0  0  0  0  0  0  0  0  0  0  0
    2.3090    0.6434    0.0000 N   0  0  0  0  0  0  0  0  0  0  0  0
    4.5691   -0.6166    0.0000 C   0  0  0  0  0  0  0  0  0  0  0  0
    3.6180   -0.3076    0.0000 C   0  0  0  0  0  0  0  0  0  0  0  0
    5.3122    0.0525    0.0000 C   0  0  0  0  0  0  0  0  0  0  0  0
    6.2633   -0.2565    0.0000 C   0  0  0  0  0  0  0  0  0  0  0  0
    3.3090    0.6434    0.0000 C   0  0  0  0  0  0  0  0  0  0  0  0
    2.0000   -0.3076    0.0000 C   0  0  0  0  0  0  0  0  0  0  0  0
    4.2780   -1.1641    0.0000 H   0  0  0  0  0  0  0  0  0  0  0  0
    5.0577   -0.9983    0.0000 H   0  0  0  0  0  0  0  0  0  0  0  0
    5.9722   -0.8039    0.0000 H   0  0  0  0  0  0  0  0  0  0  0  0
    6.7519   -0.6382    0.0000 H   0  0  0  0  0  0  0  0  0  0  0  0
    2.8090   -1.5154    0.0000 H   0  0  0  0  0  0  0  0  0  0  0  0
    3.6734    1.1450    0.0000 H   0  0  0  0  0  0  0  0  0  0  0  0
    1.4103   -0.4992    0.0000 H   0  0  0  0  0  0  0  0  0  0  0  0
    9.3693    0.2094    0.0000 H   0  0  0  0  0  0  0  0  0  0  0  0
    7.8516    1.5154    0.0000 H   0  0  0  0  0  0  0  0  0  0  0  0
  1  2  1  0  0  0  0
  1  4  1  0  0  0  0
  1  5  1  0  0  0  0
  1  6  2  0  0  0  0
  2 12  1  0  0  0  0
  3 11  2  0  0  0  0
  4 22  1  0  0  0  0
  5 23  1  0  0  0  0
  7 10  1  0  0  0  0
  7 14  1  0  0  0  0
  7 19  1  0  0  0  0
  8 13  1  0  0  0  0
  8 14  2  0  0  0  0
  9 10  1  0  0  0  0
  9 11  1  0  0  0  0
  9 15  1  0  0  0  0
  9 16  1  0  0  0  0
 10 13  2  0  0  0  0
 11 12  1  0  0  0  0
 12 17  1  0  0  0  0
 12 18  1  0  0  0  0
 13 20  1  0  0  0  0
 14 21  1  0  0  0  0
M  END
> <PUBCHEM_COMPOUND_CID>
792

> <PUBCHEM_COMPOUND_CANONICALIZED>
1

> <PUBCHEM_CACTVS_COMPLEXITY>
253

> <PUBCHEM_CACTVS_HBOND_ACCEPTOR>
6

> <PUBCHEM_CACTVS_HBOND_DONOR>
3

> <PUBCHEM_CACTVS_ROTATABLE_BOND>
5

> <PUBCHEM_CACTVS_SUBSKEYS>
AAADccBjOAIAAAAAAAAAAAAAAAAAAWAAAAAAAAAAAAAAAAABgAAAHgAQCCAACAzhlgYtkBbJkRCoQZR3ZIIAgC2xEqABUYF4cAiAaBpAnQCUAAAMkAJAQCC0EAIAAAAAAAAAAAAAAAAAAAAAAAAAAAAAAA==

> <PUBCHEM_IUPAC_OPENEYE_NAME>
[3-(1H-imidazol-5-yl)-2-oxo-propyl] dihydrogen phosphate

> <PUBCHEM_IUPAC_CAS_NAME>
[3-(1H-imidazol-5-yl)-2-oxopropyl] dihydrogen phosphate

> <PUBCHEM_IUPAC_NAME>
[3-(1H-imidazol-5-yl)-2-oxopropyl] dihydrogen phosphate

> <PUBCHEM_IUPAC_SYSTEMATIC_NAME>
[3-(1H-imidazol-5-yl)-2-oxidanylidene-propyl] dihydrogen phosphate

> <PUBCHEM_IUPAC_TRADITIONAL_NAME>
[3-(1H-imidazol-5-yl)-2-keto-propyl] dihydrogen phosphate

> <PUBCHEM_IUPAC_INCHI>
InChI=1S/C6H9N2O5P/c9-6(3-13-14(10,11)12)1-5-2-7-4-8-5/h2,4H,1,3H2,(H,7,8)(H2,10,11,12)

> <PUBCHEM_IUPAC_INCHIKEY>
YCFFMSOLUMRAMD-UHFFFAOYSA-N

> <PUBCHEM_XLOGP3_AA>
-2

> <PUBCHEM_EXACT_MASS>
220.024908

> <PUBCHEM_MOLECULAR_FORMULA>
C6H9N2O5P

> <PUBCHEM_MOLECULAR_WEIGHT>
220.119822

> <PUBCHEM_OPENEYE_CAN_SMILES>
C1=C(NC=N1)CC(=O)COP(=O)(O)O

> <PUBCHEM_OPENEYE_ISO_SMILES>
C1=C(NC=N1)CC(=O)COP(=O)(O)O

> <PUBCHEM_CACTVS_TPSA>
113

> <PUBCHEM_MONOISOTOPIC_WEIGHT>
220.024908

> <PUBCHEM_TOTAL_CHARGE>
0

> <PUBCHEM_HEAVY_ATOM_COUNT>
14

> <PUBCHEM_ATOM_DEF_STEREO_COUNT>
0

> <PUBCHEM_ATOM_UDEF_STEREO_COUNT>
0

> <PUBCHEM_BOND_DEF_STEREO_COUNT>
0

> <PUBCHEM_BOND_UDEF_STEREO_COUNT>
0

> <PUBCHEM_ISOTOPIC_ATOM_COUNT>
0

> <PUBCHEM_COMPONENT_COUNT>
1

> <PUBCHEM_CACTVS_TAUTO_COUNT>
6

> <PUBCHEM_COORDINATE_TYPE>
1
5
255

> <PUBCHEM_BONDANNOTATIONS>
10  13  8
7  10  8
7  14  8
8  13  8
8  14  8

$$$$

