442656
  -OEChem-07051212593D

 92 98  0     1  0  0  0  0  0999 V2000
   -2.3718   -2.7405   -2.2967 O   0  0  0  0  0  0  0  0  0  0  0  0
    2.4223   -3.6804   -1.0121 O   0  0  0  0  0  0  0  0  0  0  0  0
   -3.3768   -0.8600   -1.3739 N   0  0  0  0  0  0  0  0  0  0  0  0
    3.3557   -1.5570   -0.8787 N   0  0  0  0  0  0  0  0  0  0  0  0
   -5.3787    2.1793    1.5732 N   0  0  0  0  0  0  0  0  0  0  0  0
    4.5835    2.8879   -0.0630 N   0  0  0  0  0  0  0  0  0  0  0  0
    0.1340   -0.9927   -1.1006 C   0  0  0  0  0  0  0  0  0  0  0  0
   -0.2593   -2.9022   -0.2494 C   0  0  0  0  0  0  0  0  0  0  0  0
   -1.1329   -1.6610   -0.5270 C   0  0  0  0  0  0  0  0  0  0  0  0
    0.9503   -1.9455   -0.2025 C   0  0  0  0  0  0  0  0  0  0  0  0
    0.2895    0.5337   -0.9149 C   0  0  0  0  0  0  0  0  0  0  0  0
   -0.5538   -3.7626    0.9916 C   0  0  0  0  0  0  0  0  0  0  0  0
   -2.3347   -1.8079   -1.4781 C   0  0  0  0  0  0  0  0  0  0  0  0
    2.2959   -2.4786   -0.7280 C   0  0  0  0  0  0  0  0  0  0  0  0
    0.6031    1.0554    0.3401 C   0  0  0  0  0  0  0  0  0  0  0  0
    0.4902   -4.1675    1.8234 C   0  0  0  0  0  0  0  0  0  0  0  0
    0.1162    1.3898   -2.0026 C   0  0  0  0  0  0  0  0  0  0  0  0
   -1.8649   -4.1376    1.2852 C   0  0  0  0  0  0  0  0  0  0  0  0
   -4.4789   -0.9237   -2.3465 C   0  0  0  0  0  0  0  0  0  0  0  0
    4.4123   -1.8614   -1.8565 C   0  0  0  0  0  0  0  0  0  0  0  0
   -3.3690    0.1947   -0.4711 C   0  0  0  0  0  0  0  0  0  0  0  0
    3.5142   -0.4306   -0.0828 C   0  0  0  0  0  0  0  0  0  0  0  0
   -5.7932   -0.4139   -1.7708 C   0  0  0  0  0  0  0  0  0  0  0  0
    5.0412   -0.6052   -2.4436 C   0  0  0  0  0  0  0  0  0  0  0  0
   -4.3658    1.0914   -0.3645 C   0  0  0  0  0  0  0  0  0  0  0  0
    4.5174    0.4525   -0.2329 C   0  0  0  0  0  0  0  0  0  0  0  0
   -5.6220    0.9857   -1.1885 C   0  0  0  0  0  0  0  0  0  0  0  0
    5.5336    0.3215   -1.3364 C   0  0  0  0  0  0  0  0  0  0  0  0
   -4.2926    2.2501    0.5849 C   0  0  1  0  0  0  0  0  0  0  0  0
    4.6850    1.6265    0.6854 C   0  0  1  0  0  0  0  0  0  0  0  0
    0.7437    2.4331    0.5074 C   0  0  0  0  0  0  0  0  0  0  0  0
    0.2230   -4.9473    2.9487 C   0  0  0  0  0  0  0  0  0  0  0  0
    0.2570    2.7674   -1.8353 C   0  0  0  0  0  0  0  0  0  0  0  0
   -2.1320   -4.9173    2.4106 C   0  0  0  0  0  0  0  0  0  0  0  0
   -4.3550    3.5729   -0.1955 C   0  0  0  0  0  0  0  0  0  0  0  0
    6.0358    1.5351    1.4131 C   0  0  0  0  0  0  0  0  0  0  0  0
    0.5706    3.2890   -0.5803 C   0  0  0  0  0  0  0  0  0  0  0  0
   -1.0882   -5.3221    3.2422 C   0  0  0  0  0  0  0  0  0  0  0  0
   -4.3380    4.7767    0.7426 C   0  0  0  0  0  0  0  0  0  0  0  0
    6.2666    2.7428    2.3173 C   0  0  0  0  0  0  0  0  0  0  0  0
   -5.3291    3.2972    2.5176 C   0  0  0  0  0  0  0  0  0  0  0  0
    4.7387    4.0529    0.8103 C   0  0  0  0  0  0  0  0  0  0  0  0
   -5.4241    4.6420    1.8030 C   0  0  0  0  0  0  0  0  0  0  0  0
    6.0811    4.0375    1.5355 C   0  0  0  0  0  0  0  0  0  0  0  0
    0.2741   -1.2670   -2.1607 H   0  0  0  0  0  0  0  0  0  0  0  0
   -0.2075   -3.5535   -1.1384 H   0  0  0  0  0  0  0  0  0  0  0  0
   -1.4247   -1.2551    0.4513 H   0  0  0  0  0  0  0  0  0  0  0  0
    1.0784   -1.5880    0.8287 H   0  0  0  0  0  0  0  0  0  0  0  0
    0.6999    0.4283    1.2193 H   0  0  0  0  0  0  0  0  0  0  0  0
    1.5207   -3.8967    1.6183 H   0  0  0  0  0  0  0  0  0  0  0  0
   -0.1309    0.9944   -2.9840 H   0  0  0  0  0  0  0  0  0  0  0  0
   -2.6886   -3.8355    0.6451 H   0  0  0  0  0  0  0  0  0  0  0  0
   -4.1768   -0.3239   -3.2142 H   0  0  0  0  0  0  0  0  0  0  0  0
   -4.6091   -1.9537   -2.6959 H   0  0  0  0  0  0  0  0  0  0  0  0
    5.1663   -2.4677   -1.3393 H   0  0  0  0  0  0  0  0  0  0  0  0
    3.9930   -2.4796   -2.6587 H   0  0  0  0  0  0  0  0  0  0  0  0
   -2.5034    0.3215    0.1604 H   0  0  0  0  0  0  0  0  0  0  0  0
    2.8233   -0.3253    0.7398 H   0  0  0  0  0  0  0  0  0  0  0  0
   -6.1290   -1.0960   -0.9786 H   0  0  0  0  0  0  0  0  0  0  0  0
   -6.5710   -0.4098   -2.5423 H   0  0  0  0  0  0  0  0  0  0  0  0
    5.8681   -0.8695   -3.1119 H   0  0  0  0  0  0  0  0  0  0  0  0
    4.2933   -0.0772   -3.0497 H   0  0  0  0  0  0  0  0  0  0  0  0
   -5.5748    1.7092   -2.0113 H   0  0  0  0  0  0  0  0  0  0  0  0
   -6.5147    1.2197   -0.5987 H   0  0  0  0  0  0  0  0  0  0  0  0
    6.4648   -0.0836   -0.9224 H   0  0  0  0  0  0  0  0  0  0  0  0
    5.7709    1.2916   -1.7862 H   0  0  0  0  0  0  0  0  0  0  0  0
   -3.3370    2.2189    1.1272 H   0  0  0  0  0  0  0  0  0  0  0  0
    3.8882    1.6146    1.4422 H   0  0  0  0  0  0  0  0  0  0  0  0
    0.9794    2.8404    1.4862 H   0  0  0  0  0  0  0  0  0  0  0  0
    1.0358   -5.2640    3.5958 H   0  0  0  0  0  0  0  0  0  0  0  0
    0.1210    3.4340   -2.6817 H   0  0  0  0  0  0  0  0  0  0  0  0
   -3.1527   -5.2104    2.6385 H   0  0  0  0  0  0  0  0  0  0  0  0
   -3.5074    3.6444   -0.8887 H   0  0  0  0  0  0  0  0  0  0  0  0
   -5.2669    3.6339   -0.8031 H   0  0  0  0  0  0  0  0  0  0  0  0
    6.0808    0.6195    2.0162 H   0  0  0  0  0  0  0  0  0  0  0  0
    6.8690    1.4857    0.7005 H   0  0  0  0  0  0  0  0  0  0  0  0
    0.6786    4.3617   -0.4493 H   0  0  0  0  0  0  0  0  0  0  0  0
   -1.2961   -5.9298    4.1181 H   0  0  0  0  0  0  0  0  0  0  0  0
   -5.3017    1.3068    2.0965 H   0  0  0  0  0  0  0  0  0  0  0  0
    3.6711    2.9387   -0.5166 H   0  0  0  0  0  0  0  0  0  0  0  0
   -3.3571    4.8478    1.2284 H   0  0  0  0  0  0  0  0  0  0  0  0
   -4.4820    5.7007    0.1718 H   0  0  0  0  0  0  0  0  0  0  0  0
    5.5575    2.7143    3.1538 H   0  0  0  0  0  0  0  0  0  0  0  0
    7.2734    2.7039    2.7474 H   0  0  0  0  0  0  0  0  0  0  0  0
   -6.1663    3.2039    3.2180 H   0  0  0  0  0  0  0  0  0  0  0  0
   -4.4083    3.2470    3.1115 H   0  0  0  0  0  0  0  0  0  0  0  0
    4.6707    4.9610    0.2014 H   0  0  0  0  0  0  0  0  0  0  0  0
    3.9157    4.0916    1.5345 H   0  0  0  0  0  0  0  0  0  0  0  0
   -5.3348    5.4565    2.5306 H   0  0  0  0  0  0  0  0  0  0  0  0
   -6.4101    4.7401    1.3314 H   0  0  0  0  0  0  0  0  0  0  0  0
    6.8948    4.1450    0.8072 H   0  0  0  0  0  0  0  0  0  0  0  0
    6.1455    4.8939    2.2161 H   0  0  0  0  0  0  0  0  0  0  0  0
  1 13  2  0  0  0  0
  2 14  2  0  0  0  0
  3 13  1  0  0  0  0
  3 19  1  0  0  0  0
  3 21  1  0  0  0  0
  4 14  1  0  0  0  0
  4 20  1  0  0  0  0
  4 22  1  0  0  0  0
  5 29  1  0  0  0  0
  5 41  1  0  0  0  0
  5 79  1  0  0  0  0
  6 30  1  0  0  0  0
  6 42  1  0  0  0  0
  6 80  1  0  0  0  0
  7  9  1  0  0  0  0
  7 10  1  0  0  0  0
  7 11  1  0  0  0  0
  7 45  1  0  0  0  0
  8  9  1  0  0  0  0
  8 10  1  0  0  0  0
  8 12  1  0  0  0  0
  8 46  1  0  0  0  0
  9 13  1  0  0  0  0
  9 47  1  0  0  0  0
 10 14  1  0  0  0  0
 10 48  1  0  0  0  0
 11 15  2  0  0  0  0
 11 17  1  0  0  0  0
 12 16  2  0  0  0  0
 12 18  1  0  0  0  0
 15 31  1  0  0  0  0
 15 49  1  0  0  0  0
 16 32  1  0  0  0  0
 16 50  1  0  0  0  0
 17 33  2  0  0  0  0
 17 51  1  0  0  0  0
 18 34  2  0  0  0  0
 18 52  1  0  0  0  0
 19 23  1  0  0  0  0
 19 53  1  0  0  0  0
 19 54  1  0  0  0  0
 20 24  1  0  0  0  0
 20 55  1  0  0  0  0
 20 56  1  0  0  0  0
 21 25  2  0  0  0  0
 21 57  1  0  0  0  0
 22 26  2  0  0  0  0
 22 58  1  0  0  0  0
 23 27  1  0  0  0  0
 23 59  1  0  0  0  0
 23 60  1  0  0  0  0
 24 28  1  0  0  0  0
 24 61  1  0  0  0  0
 24 62  1  0  0  0  0
 25 27  1  0  0  0  0
 25 29  1  0  0  0  0
 26 28  1  0  0  0  0
 26 30  1  0  0  0  0
 27 63  1  0  0  0  0
 27 64  1  0  0  0  0
 28 65  1  0  0  0  0
 28 66  1  0  0  0  0
 29 35  1  0  0  0  0
 29 67  1  0  0  0  0
 30 36  1  0  0  0  0
 30 68  1  0  0  0  0
 31 37  2  0  0  0  0
 31 69  1  0  0  0  0
 32 38  2  0  0  0  0
 32 70  1  0  0  0  0
 33 37  1  0  0  0  0
 33 71  1  0  0  0  0
 34 38  1  0  0  0  0
 34 72  1  0  0  0  0
 35 39  1  0  0  0  0
 35 73  1  0  0  0  0
 35 74  1  0  0  0  0
 36 40  1  0  0  0  0
 36 75  1  0  0  0  0
 36 76  1  0  0  0  0
 37 77  1  0  0  0  0
 38 78  1  0  0  0  0
 39 43  1  0  0  0  0
 39 81  1  0  0  0  0
 39 82  1  0  0  0  0
 40 44  1  0  0  0  0
 40 83  1  0  0  0  0
 40 84  1  0  0  0  0
 41 43  1  0  0  0  0
 41 85  1  0  0  0  0
 41 86  1  0  0  0  0
 42 44  1  0  0  0  0
 42 87  1  0  0  0  0
 42 88  1  0  0  0  0
 43 89  1  0  0  0  0
 43 90  1  0  0  0  0
 44 91  1  0  0  0  0
 44 92  1  0  0  0  0
M  END
> <PUBCHEM_COMPOUND_CID>
442656

> <PUBCHEM_CONFORMER_RMSD>
1.2

> <PUBCHEM_CONFORMER_DIVERSEORDER>
1
78
109
50
100
41
97
38
68
82
66
21
106
53
80
85
70
26
24
105
5
46
94
37
63
16
45
81
91
13
113
111
99
77
34
11
35
102
47
56
93
32
28
42
87
51
7
74
98
49
57
114
3
27
61
76
67
101
23
2
65
8
90
36
55
88
25
89
30
103
48
95
4
75
17
107
84
31
115
40
6
79
60
54
73
112
72
33
9
43
39
52
22
71
96
18
58
10
104
108
59
12
69
19
62
64
92
83
110
29
86
20
15
14
44

> <PUBCHEM_MMFF94_PARTIAL_CHARGES>
50
1 -0.57
10 0.05
11 -0.11
12 -0.11
13 0.58
14 0.58
15 -0.15
16 -0.15
17 -0.15
18 -0.15
19 0.3
2 -0.57
20 0.3
21 -0.04
22 -0.04
25 -0.28
26 -0.28
27 0.14
28 0.14
29 0.41
3 -0.47
30 0.41
31 -0.15
32 -0.15
33 -0.15
34 -0.15
37 -0.15
38 -0.15
4 -0.47
41 0.27
42 0.27
49 0.15
5 -0.9
50 0.15
51 0.15
52 0.15
57 0.15
58 0.15
6 -0.9
69 0.15
7 0.11
70 0.15
71 0.15
72 0.15
77 0.15
78 0.15
79 0.36
8 0.11
80 0.36
9 0.05

> <PUBCHEM_EFFECTIVE_ROTOR_COUNT>
12.8

> <PUBCHEM_PHARMACOPHORE_FEATURES>
13
1 1 acceptor
1 2 acceptor
1 5 cation
1 5 donor
1 6 cation
1 6 donor
4 7 8 9 10 rings
6 11 15 17 31 33 37 rings
6 12 16 18 32 34 38 rings
6 3 19 21 23 25 27 rings
6 4 20 22 24 26 28 rings
6 5 29 35 39 41 43 rings
6 6 30 36 40 42 44 rings

> <PUBCHEM_HEAVY_ATOM_COUNT>
44

> <PUBCHEM_ATOM_DEF_STEREO_COUNT>
2

> <PUBCHEM_ATOM_UDEF_STEREO_COUNT>
0

> <PUBCHEM_BOND_DEF_STEREO_COUNT>
0

> <PUBCHEM_BOND_UDEF_STEREO_COUNT>
0

> <PUBCHEM_ISOTOPIC_ATOM_COUNT>
0

> <PUBCHEM_COMPONENT_COUNT>
1

> <PUBCHEM_CACTVS_TAUTO_COUNT>
1

> <PUBCHEM_CONFORMER_ID>
0006C12000000001

> <PUBCHEM_MMFF94_ENERGY>
79.0886

> <PUBCHEM_FEATURE_SELFOVERLAP>
65.967

> <PUBCHEM_SHAPE_FINGERPRINT>
10190108 129 17338407405106523655
10305334 12 17771654285849276730
10581848 31 18269826528467180325
11007060 377 18333732394968661953
11399510 152 17339248515034521673
12128747 34 17895481314944232244
14004853 49 18200036277709060192
14020679 6 18270665537496636643
14705955 166 17982456996990430538
14790565 3 18261392316520534629
15347590 135 18340487760703977643
15781502 593 18196391233564541360
15968369 153 18046337535689381575
16112460 7 18409173211796766384
19319366 153 18056187218855271015
21796203 349 17051043500401240963
22223350 30 18131067109139617930
22889206 1 17910385427445152745
24893989 43 5130960613400869225
376196 1 18261953045817868014
4616759 239 17693685639754208680
50677037 204 18335425647139275677
508180 173 17822843312358782382
79837 15 18342168913270514873

> <PUBCHEM_SHAPE_MULTIPOLES>
873.84
14.32
8.42
2.85
5.19
4.36
-0.96
-19.1
-1.99
-4.01
-8.48
-0.75
2.04
0.98

> <PUBCHEM_SHAPE_SELFOVERLAP>
1870.452

> <PUBCHEM_SHAPE_VOLUME>
477.8

> <PUBCHEM_COORDINATE_TYPE>
2
5
10

$$$$

