443821
  -OEChem-07051213033D

 42 44  0     0  0  0  0  0  0999 V2000
    0.7217    2.1747   -0.5081 O   0  0  0  0  0  0  0  0  0  0  0  0
   -1.7877    2.3644   -0.1481 O   0  0  0  0  0  0  0  0  0  0  0  0
   -2.3602   -2.9476   -0.0284 O   0  0  0  0  0  0  0  0  0  0  0  0
   -4.2956    2.7305    0.2085 O   0  0  0  0  0  0  0  0  0  0  0  0
    3.3847    0.8019   -1.9663 O   0  0  0  0  0  0  0  0  0  0  0  0
    4.3665   -3.5234    0.3611 O   0  0  0  0  0  0  0  0  0  0  0  0
    3.0071   -2.2395    1.6486 O   0  0  0  0  0  0  0  0  0  0  0  0
    3.8626    3.2510   -0.1213 O   0  0  0  0  0  0  0  0  0  0  0  0
   -0.7443    0.2629   -0.2823 C   0  0  0  0  0  0  0  0  0  0  0  0
   -0.8947   -1.1251   -0.2521 C   0  0  0  0  0  0  0  0  0  0  0  0
    1.4870   -1.3891   -0.5934 C   0  0  0  0  0  0  0  0  0  0  0  0
    1.6372   -0.0041   -0.6234 C   0  0  0  0  0  0  0  0  0  0  0  0
    0.5250    0.8237   -0.4682 C   0  0  0  0  0  0  0  0  0  0  0  0
    0.2240   -1.9523   -0.4080 C   0  0  0  0  0  0  0  0  0  0  0  0
   -3.2497    0.5421    0.0745 C   0  0  0  0  0  0  0  0  0  0  0  0
   -3.4001   -0.8459    0.1049 C   0  0  0  0  0  0  0  0  0  0  0  0
   -1.9164    1.1472   -0.1202 C   0  0  0  0  0  0  0  0  0  0  0  0
   -2.2279   -1.7303   -0.0566 C   0  0  0  0  0  0  0  0  0  0  0  0
    2.6612   -2.2985   -0.7612 C   0  0  0  0  0  0  0  0  0  0  0  0
    2.9611    0.5795   -0.8183 C   0  0  0  0  0  0  0  0  0  0  0  0
   -4.3688    1.3690    0.2286 C   0  0  0  0  0  0  0  0  0  0  0  0
   -4.6695   -1.4069    0.2892 C   0  0  0  0  0  0  0  0  0  0  0  0
    3.8377    0.8899    0.3996 C   0  0  0  0  0  0  0  0  0  0  0  0
   -5.6320    0.8059    0.4119 C   0  0  0  0  0  0  0  0  0  0  0  0
   -5.7821   -0.5791    0.4420 C   0  0  0  0  0  0  0  0  0  0  0  0
    3.3334   -2.6599    0.5471 C   0  0  0  0  0  0  0  0  0  0  0  0
    4.2352    2.3381    0.6135 C   0  0  0  0  0  0  0  0  0  0  0  0
    5.0844    2.6209    1.8262 C   0  0  0  0  0  0  0  0  0  0  0  0
    0.1177   -3.0343   -0.3839 H   0  0  0  0  0  0  0  0  0  0  0  0
    3.4108   -1.8676   -1.4333 H   0  0  0  0  0  0  0  0  0  0  0  0
    2.3312   -3.2334   -1.2324 H   0  0  0  0  0  0  0  0  0  0  0  0
   -4.8130   -2.4837    0.3165 H   0  0  0  0  0  0  0  0  0  0  0  0
    4.7474    0.2863    0.3069 H   0  0  0  0  0  0  0  0  0  0  0  0
    3.3082    0.5636    1.3019 H   0  0  0  0  0  0  0  0  0  0  0  0
   -6.5056    1.4413    0.5320 H   0  0  0  0  0  0  0  0  0  0  0  0
   -6.7667   -1.0151    0.5848 H   0  0  0  0  0  0  0  0  0  0  0  0
    1.6341    2.3992   -0.7473 H   0  0  0  0  0  0  0  0  0  0  0  0
   -3.3816    3.0245    0.0802 H   0  0  0  0  0  0  0  0  0  0  0  0
    5.9982    2.0233    1.7809 H   0  0  0  0  0  0  0  0  0  0  0  0
    5.3588    3.6793    1.8462 H   0  0  0  0  0  0  0  0  0  0  0  0
    4.5210    2.3813    2.7313 H   0  0  0  0  0  0  0  0  0  0  0  0
    4.8035   -3.7575    1.2076 H   0  0  0  0  0  0  0  0  0  0  0  0
  1 13  1  0  0  0  0
  1 37  1  0  0  0  0
  2 17  2  0  0  0  0
  3 18  2  0  0  0  0
  4 21  1  0  0  0  0
  4 38  1  0  0  0  0
  5 20  2  0  0  0  0
  6 26  1  0  0  0  0
  6 42  1  0  0  0  0
  7 26  2  0  0  0  0
  8 27  2  0  0  0  0
  9 10  2  0  0  0  0
  9 13  1  0  0  0  0
  9 17  1  0  0  0  0
 10 14  1  0  0  0  0
 10 18  1  0  0  0  0
 11 12  1  0  0  0  0
 11 14  2  0  0  0  0
 11 19  1  0  0  0  0
 12 13  2  0  0  0  0
 12 20  1  0  0  0  0
 14 29  1  0  0  0  0
 15 16  2  0  0  0  0
 15 17  1  0  0  0  0
 15 21  1  0  0  0  0
 16 18  1  0  0  0  0
 16 22  1  0  0  0  0
 19 26  1  0  0  0  0
 19 30  1  0  0  0  0
 19 31  1  0  0  0  0
 20 23  1  0  0  0  0
 21 24  2  0  0  0  0
 22 25  2  0  0  0  0
 22 32  1  0  0  0  0
 23 27  1  0  0  0  0
 23 33  1  0  0  0  0
 23 34  1  0  0  0  0
 24 25  1  0  0  0  0
 24 35  1  0  0  0  0
 25 36  1  0  0  0  0
 27 28  1  0  0  0  0
 28 39  1  0  0  0  0
 28 40  1  0  0  0  0
 28 41  1  0  0  0  0
M  END
> <PUBCHEM_COMPOUND_CID>
443821

> <PUBCHEM_CONFORMER_RMSD>
0.8

> <PUBCHEM_CONFORMER_DIVERSEORDER>
1
2
25
15
20
24
8
22
14
10
27
12
26
7
23
4
21
9
16
3
6
19
11
18
5
17
13

> <PUBCHEM_MMFF94_PARTIAL_CHARGES>
35
1 -0.53
10 0.09
11 -0.14
12 0.09
13 0.08
14 -0.15
15 0.09
16 0.09
17 0.4
18 0.4
19 0.2
2 -0.57
20 0.42
21 0.08
22 -0.15
23 0.12
24 -0.15
25 -0.15
26 0.66
27 0.45
28 0.06
29 0.15
3 -0.57
32 0.15
35 0.15
36 0.15
37 0.45
38 0.45
4 -0.53
42 0.5
5 -0.57
6 -0.65
7 -0.57
8 -0.57
9 0.09

> <PUBCHEM_EFFECTIVE_ROTOR_COUNT>
5

> <PUBCHEM_PHARMACOPHORE_FEATURES>
13
1 1 donor
1 2 acceptor
1 23 anion
1 3 acceptor
1 4 donor
1 5 acceptor
1 6 acceptor
1 7 acceptor
1 8 acceptor
3 6 7 26 anion
6 15 16 21 22 24 25 rings
6 9 10 11 12 13 14 rings
6 9 10 15 16 17 18 rings

> <PUBCHEM_HEAVY_ATOM_COUNT>
28

> <PUBCHEM_ATOM_DEF_STEREO_COUNT>
0

> <PUBCHEM_ATOM_UDEF_STEREO_COUNT>
0

> <PUBCHEM_BOND_DEF_STEREO_COUNT>
0

> <PUBCHEM_BOND_UDEF_STEREO_COUNT>
0

> <PUBCHEM_ISOTOPIC_ATOM_COUNT>
0

> <PUBCHEM_COMPONENT_COUNT>
1

> <PUBCHEM_CACTVS_TAUTO_COUNT>
492

> <PUBCHEM_CONFORMER_ID>
0006C5AD00000001

> <PUBCHEM_MMFF94_ENERGY>
82.9683

> <PUBCHEM_FEATURE_SELFOVERLAP>
66.068

> <PUBCHEM_SHAPE_FINGERPRINT>
10006869 2 18187086186765198057
10319926 262 18335712594394243416
1100329 8 18122623031114133369
11112241 14 16227468239186854176
12107183 9 17978506761044265921
12403259 226 18054509376895440292
12422481 6 18200334176956884384
12788726 201 17313376868334044281
13140716 1 18339643472263148175
13533116 47 18413105091062854227
14178342 30 18197500632164846990
14466204 15 18265057929379427336
14739800 52 18041570156587956544
14790565 3 18118673551816138073
14849402 71 18342174467238059448
14955137 171 18118403080376815214
15196674 1 18411694426882912879
15420108 30 18116163177326997926
15927050 60 18263645057602470806
17492 89 18413102875229546835
1813 80 16845572036624694038
20511986 3 18339657663309926063
20691752 17 17275098470213309238
20739085 24 18272362122265829991
21033648 29 17751651944695041656
21267235 1 18268697476360907391
21315764 268 18341334495888722925
21421861 104 18272941526697865746
21452121 103 18408044009423608754
21792934 111 18341614871707227337
21859007 373 17486511548548790229
22182313 1 17917163791459032125
22393880 68 18334845096245702158
23559900 14 18188767395836373214
239999 70 18114732777223757428
3004659 81 18271798090128511887
335352 9 18196648725765617767
3411729 13 18409169883718734394
34797466 226 17168134629626910445
34934 24 18336264531429109703
350125 39 18340201994427053974
3680242 22 18411133628033283297
5104073 3 18339070584335510507
9981440 41 18195530294453773978

> <PUBCHEM_SHAPE_MULTIPOLES>
529.27
11.77
3.82
1.06
5.77
0.54
0.08
-3.87
3.51
-4.19
0.75
-1.44
-0.14
0.35

> <PUBCHEM_SHAPE_SELFOVERLAP>
1173.808

> <PUBCHEM_SHAPE_VOLUME>
280.7

> <PUBCHEM_COORDINATE_TYPE>
2
5
10

$$$$

