441792
  -OEChem-07051212562D

 56 59  0     1  0  0  0  0  0999 V2000
    7.7925   -1.9203    0.0000 O   0  0  0  0  0  0  0  0  0  0  0  0
    4.3198    1.1112    0.0000 O   0  0  0  0  0  0  0  0  0  0  0  0
    2.5381    0.1008    0.0000 O   0  0  0  0  0  0  0  0  0  0  0  0
    6.9464    2.6459    0.0000 O   0  0  0  0  0  0  0  0  0  0  0  0
    5.1804    1.6081    0.0000 O   0  0  0  0  0  0  0  0  0  0  0  0
    9.5140   -1.9531    0.0000 O   0  0  0  0  0  0  0  0  0  0  0  0
    6.9343   -0.4234    0.0000 C   0  0  1  0  0  0  0  0  0  0  0  0
    5.2022   -0.4234    0.0000 C   0  0  2  0  0  0  0  0  0  0  0  0
    6.0682    0.0766    0.0000 C   0  0  1  0  0  0  0  0  0  0  0  0
    5.2022   -1.4234    0.0000 C   0  0  1  0  0  0  0  0  0  0  0  0
    6.9343   -1.4234    0.0000 C   0  0  1  0  0  0  0  0  0  0  0  0
    7.8443    0.0835    0.0000 C   0  0  2  0  0  0  0  0  0  0  0  0
    6.0682   -1.9234    0.0000 C   0  0  0  0  0  0  0  0  0  0  0  0
    4.3083    0.1113    0.0000 C   0  0  1  0  0  0  0  0  0  0  0  0
    4.3083   -1.9580    0.0000 C   0  0  1  0  0  0  0  0  0  0  0  0
    7.8523    1.1251    0.0000 C   0  0  2  0  0  0  0  0  0  0  0  0
    6.0522    1.1181    0.0000 C   0  0  0  0  0  0  0  0  0  0  0  0
    6.9343    0.5766    0.0000 C   0  0  0  0  0  0  0  0  0  0  0  0
    5.2022    0.5766    0.0000 C   0  0  0  0  0  0  0  0  0  0  0  0
    3.4022   -0.4025    0.0000 C   0  0  2  0  0  0  0  0  0  0  0  0
    6.9502    1.6459    0.0000 C   0  0  1  0  0  0  0  0  0  0  0  0
    3.4022   -1.4442    0.0000 C   0  0  0  0  0  0  0  0  0  0  0  0
    8.6836   -0.4447    0.0000 C   0  0  0  0  0  0  0  0  0  0  0  0
    4.3198   -2.9580    0.0000 C   0  0  0  0  0  0  0  0  0  0  0  0
    8.6580   -1.4361    0.0000 C   0  0  0  0  0  0  0  0  0  0  0  0
    8.7202    1.6217    0.0000 C   0  0  0  0  0  0  0  0  0  0  0  0
    6.8011    0.5073    0.0000 H   0  0  0  0  0  0  0  0  0  0  0  0
    5.2088   -2.2733    0.0000 H   0  0  0  0  0  0  0  0  0  0  0  0
    6.9337   -2.2734    0.0000 H   0  0  0  0  0  0  0  0  0  0  0  0
    8.5900    0.4915    0.0000 H   0  0  0  0  0  0  0  0  0  0  0  0
    5.6697   -2.3983    0.0000 H   0  0  0  0  0  0  0  0  0  0  0  0
    6.4668   -2.3983    0.0000 H   0  0  0  0  0  0  0  0  0  0  0  0
    3.7744    0.4265    0.0000 H   0  0  0  0  0  0  0  0  0  0  0  0
    3.7744   -2.2732    0.0000 H   0  0  0  0  0  0  0  0  0  0  0  0
    8.3874    0.8120    0.0000 H   0  0  0  0  0  0  0  0  0  0  0  0
    7.5543    0.5766    0.0000 H   0  0  0  0  0  0  0  0  0  0  0  0
    6.9343    1.1966    0.0000 H   0  0  0  0  0  0  0  0  0  0  0  0
    6.3143    0.5766    0.0000 H   0  0  0  0  0  0  0  0  0  0  0  0
    5.8222    0.5766    0.0000 H   0  0  0  0  0  0  0  0  0  0  0  0
    5.2022    1.1966    0.0000 H   0  0  0  0  0  0  0  0  0  0  0  0
    4.5822    0.5766    0.0000 H   0  0  0  0  0  0  0  0  0  0  0  0
    2.8647   -0.7115    0.0000 H   0  0  0  0  0  0  0  0  0  0  0  0
    6.4115    1.9528    0.0000 H   0  0  0  0  0  0  0  0  0  0  0  0
    2.7914   -1.3381    0.0000 H   0  0  0  0  0  0  0  0  0  0  0  0
    3.1932   -2.0279    0.0000 H   0  0  0  0  0  0  0  0  0  0  0  0
    9.2907   -0.5706    0.0000 H   0  0  0  0  0  0  0  0  0  0  0  0
    8.9154    0.1303    0.0000 H   0  0  0  0  0  0  0  0  0  0  0  0
    3.6999   -2.9651    0.0000 H   0  0  0  0  0  0  0  0  0  0  0  0
    4.3270   -3.5779    0.0000 H   0  0  0  0  0  0  0  0  0  0  0  0
    4.9398   -2.9508    0.0000 H   0  0  0  0  0  0  0  0  0  0  0  0
    9.0282    1.0836    0.0000 H   0  0  0  0  0  0  0  0  0  0  0  0
    9.2584    1.9297    0.0000 H   0  0  0  0  0  0  0  0  0  0  0  0
    8.4123    2.1599    0.0000 H   0  0  0  0  0  0  0  0  0  0  0  0
    3.7865    1.4274    0.0000 H   0  0  0  0  0  0  0  0  0  0  0  0
    2.0000   -0.2071    0.0000 H   0  0  0  0  0  0  0  0  0  0  0  0
    7.4821    2.9580    0.0000 H   0  0  0  0  0  0  0  0  0  0  0  0
  1 11  1  0  0  0  0
  1 25  1  0  0  0  0
 14  2  1  1  0  0  0
  2 54  1  0  0  0  0
 20  3  1  6  0  0  0
  3 55  1  0  0  0  0
 21  4  1  1  0  0  0
  4 56  1  0  0  0  0
  5 17  2  0  0  0  0
  6 25  2  0  0  0  0
  7  9  1  0  0  0  0
  7 11  1  0  0  0  0
  7 12  1  0  0  0  0
  7 18  1  1  0  0  0
  8  9  1  0  0  0  0
  8 10  1  0  0  0  0
  8 14  1  0  0  0  0
  8 19  1  1  0  0  0
  9 17  1  0  0  0  0
  9 27  1  6  0  0  0
 10 13  1  0  0  0  0
 10 15  1  0  0  0  0
 10 28  1  6  0  0  0
 11 13  1  0  0  0  0
 11 29  1  1  0  0  0
 12 16  1  0  0  0  0
 12 23  1  0  0  0  0
 12 30  1  1  0  0  0
 13 31  1  0  0  0  0
 13 32  1  0  0  0  0
 14 20  1  0  0  0  0
 14 33  1  0  0  0  0
 15 22  1  0  0  0  0
 15 24  1  6  0  0  0
 15 34  1  0  0  0  0
 16 21  1  0  0  0  0
 16 26  1  6  0  0  0
 16 35  1  0  0  0  0
 17 21  1  0  0  0  0
 18 36  1  0  0  0  0
 18 37  1  0  0  0  0
 18 38  1  0  0  0  0
 19 39  1  0  0  0  0
 19 40  1  0  0  0  0
 19 41  1  0  0  0  0
 20 22  1  0  0  0  0
 20 42  1  0  0  0  0
 21 43  1  0  0  0  0
 22 44  1  0  0  0  0
 22 45  1  0  0  0  0
 23 25  1  0  0  0  0
 23 46  1  0  0  0  0
 23 47  1  0  0  0  0
 24 48  1  0  0  0  0
 24 49  1  0  0  0  0
 24 50  1  0  0  0  0
 26 51  1  0  0  0  0
 26 52  1  0  0  0  0
 26 53  1  0  0  0  0
M  END
> <PUBCHEM_COMPOUND_CID>
441792

> <PUBCHEM_COMPOUND_CANONICALIZED>
1

> <PUBCHEM_CACTVS_COMPLEXITY>
648

> <PUBCHEM_CACTVS_HBOND_ACCEPTOR>
6

> <PUBCHEM_CACTVS_HBOND_DONOR>
3

> <PUBCHEM_CACTVS_ROTATABLE_BOND>
0

> <PUBCHEM_CACTVS_SUBSKEYS>
AAADceB4OAAAAAAAAAAAAAAAAAAAAAAAAAA0YMEAAAAAAADQAAAAGgAACAAADxSggAICCAAABgAIAICQCAIAAAAAAAAAAAFAAAABEBIAAAACQAAEAAABAAGK7PzPgAAAAAAAAADAAAYAADCAAAAAAAAAAA==

> <PUBCHEM_IUPAC_INCHI>
InChI=1S/C20H30O6/c1-8-5-12(21)18(25)20(4)10(8)6-13-19(3)11(7-14(22)26-13)9(2)15(23)16(24)17(19)20/h8-13,15,17-18,21,23,25H,5-7H2,1-4H3/t8-,9-,10+,11+,12+,13-,15+,17+,18-,19-,20+/m1/s1

> <PUBCHEM_IUPAC_INCHIKEY>
KBORUIMKALHADL-DXKQOFSOSA-N

> <PUBCHEM_XLOGP3_AA>
1.3

> <PUBCHEM_EXACT_MASS>
366.204239

> <PUBCHEM_MOLECULAR_FORMULA>
C20H30O6

> <PUBCHEM_MOLECULAR_WEIGHT>
366.4486

> <PUBCHEM_OPENEYE_CAN_SMILES>
CC1CC(C(C2(C1CC3C4(C2C(=O)C(C(C4CC(=O)O3)C)O)C)C)O)O

> <PUBCHEM_OPENEYE_ISO_SMILES>
C[C@@H]1C[C@@H]([C@H]([C@]2([C@H]1C[C@@H]3[C@@]4([C@@H]2C(=O)[C@H]([C@@H]([C@@H]4CC(=O)O3)C)O)C)C)O)O

> <PUBCHEM_CACTVS_TPSA>
104

> <PUBCHEM_MONOISOTOPIC_WEIGHT>
366.204239

> <PUBCHEM_TOTAL_CHARGE>
0

> <PUBCHEM_HEAVY_ATOM_COUNT>
26

> <PUBCHEM_ATOM_DEF_STEREO_COUNT>
11

> <PUBCHEM_ATOM_UDEF_STEREO_COUNT>
0

> <PUBCHEM_BOND_DEF_STEREO_COUNT>
0

> <PUBCHEM_BOND_UDEF_STEREO_COUNT>
0

> <PUBCHEM_ISOTOPIC_ATOM_COUNT>
0

> <PUBCHEM_COMPONENT_COUNT>
1

> <PUBCHEM_CACTVS_TAUTO_COUNT>
10

> <PUBCHEM_COORDINATE_TYPE>
1
5
255

> <PUBCHEM_BONDANNOTATIONS>
10  28  6
11  29  5
12  30  5
15  24  6
16  26  6
14  2  5
20  3  6
21  4  5
7  18  5
8  19  5
9  27  6

$$$$

