5460107
  -OEChem-07051212493D

 55 56  0     1  0  0  0  0  0999 V2000
   -3.4465    0.8331   -0.7218 O   0  0  0  0  0  0  0  0  0  0  0  0
   -0.8704    1.8741    2.4853 O   0  0  0  0  0  0  0  0  0  0  0  0
    3.7297    1.8619   -0.4168 O   0  0  0  0  0  0  0  0  0  0  0  0
   -2.8279   -1.0873    2.2208 O   0  0  0  0  0  0  0  0  0  0  0  0
   -4.9368   -1.7455    1.6878 O   0  0  0  0  0  0  0  0  0  0  0  0
   -1.3383    1.8667   -1.1269 C   0  0  1  0  0  0  0  0  0  0  0  0
   -2.7504    2.0851   -0.5935 C   0  0  2  0  0  0  0  0  0  0  0  0
   -0.5411    1.4499    0.1181 C   0  0  2  0  0  0  0  0  0  0  0  0
   -1.1059    2.3888    1.1858 C   0  0  1  0  0  0  0  0  0  0  0  0
   -2.6070    2.4497    0.8852 C   0  0  0  0  0  0  0  0  0  0  0  0
   -1.5213    0.7870   -2.1671 C   0  0  0  0  0  0  0  0  0  0  0  0
   -2.7359    0.0888   -1.6521 C   0  0  0  0  0  0  0  0  0  0  0  0
    0.9348    1.5845   -0.0723 C   0  0  0  0  0  0  0  0  0  0  0  0
   -3.1040   -1.1530   -1.9815 C   0  0  0  0  0  0  0  0  0  0  0  0
    1.7927    0.5684    0.0850 C   0  0  0  0  0  0  0  0  0  0  0  0
   -4.3314   -1.8346   -1.4498 C   0  0  0  0  0  0  0  0  0  0  0  0
    3.2558    0.7692   -0.1136 C   0  0  0  0  0  0  0  0  0  0  0  0
   -3.9659   -3.0862   -0.6455 C   0  0  0  0  0  0  0  0  0  0  0  0
    4.1403   -0.4450    0.0888 C   0  0  0  0  0  0  0  0  0  0  0  0
   -3.0696   -2.7706    0.5486 C   0  0  0  0  0  0  0  0  0  0  0  0
    5.6234   -0.1164   -0.0597 C   0  0  0  0  0  0  0  0  0  0  0  0
    6.5197   -1.3436    0.1275 C   0  0  0  0  0  0  0  0  0  0  0  0
    7.9947   -0.9857   -0.0580 C   0  0  0  0  0  0  0  0  0  0  0  0
   -3.7260   -1.8326    1.5302 C   0  0  0  0  0  0  0  0  0  0  0  0
    8.8875   -2.2068    0.0956 C   0  0  0  0  0  0  0  0  0  0  0  0
   -0.9271    2.7880   -1.5583 H   0  0  0  0  0  0  0  0  0  0  0  0
   -3.3040    2.8444   -1.1572 H   0  0  0  0  0  0  0  0  0  0  0  0
   -0.7760    0.4132    0.4005 H   0  0  0  0  0  0  0  0  0  0  0  0
   -0.6606    3.3893    1.1188 H   0  0  0  0  0  0  0  0  0  0  0  0
   -3.1833    1.7799    1.5331 H   0  0  0  0  0  0  0  0  0  0  0  0
   -2.9685    3.4681    1.0676 H   0  0  0  0  0  0  0  0  0  0  0  0
   -1.7426    1.2315   -3.1438 H   0  0  0  0  0  0  0  0  0  0  0  0
   -0.6509    0.1314   -2.2602 H   0  0  0  0  0  0  0  0  0  0  0  0
    1.3028    2.5702   -0.3476 H   0  0  0  0  0  0  0  0  0  0  0  0
   -1.3157    2.4640    3.1172 H   0  0  0  0  0  0  0  0  0  0  0  0
   -2.5034   -1.7101   -2.6966 H   0  0  0  0  0  0  0  0  0  0  0  0
    1.4559   -0.4251    0.3598 H   0  0  0  0  0  0  0  0  0  0  0  0
   -4.9544   -1.1580   -0.8561 H   0  0  0  0  0  0  0  0  0  0  0  0
   -4.9491   -2.1363   -2.3046 H   0  0  0  0  0  0  0  0  0  0  0  0
   -3.4548   -3.8090   -1.2936 H   0  0  0  0  0  0  0  0  0  0  0  0
   -4.8901   -3.5680   -0.3038 H   0  0  0  0  0  0  0  0  0  0  0  0
    3.9517   -0.8450    1.0917 H   0  0  0  0  0  0  0  0  0  0  0  0
    3.8528   -1.2017   -0.6500 H   0  0  0  0  0  0  0  0  0  0  0  0
   -2.8387   -3.6964    1.0876 H   0  0  0  0  0  0  0  0  0  0  0  0
   -2.1184   -2.3407    0.2175 H   0  0  0  0  0  0  0  0  0  0  0  0
    5.8036    0.3150   -1.0527 H   0  0  0  0  0  0  0  0  0  0  0  0
    5.9032    0.6538    0.6703 H   0  0  0  0  0  0  0  0  0  0  0  0
    6.3637   -1.7632    1.1286 H   0  0  0  0  0  0  0  0  0  0  0  0
    6.2351   -2.1172   -0.5960 H   0  0  0  0  0  0  0  0  0  0  0  0
    8.2893   -0.2284    0.6777 H   0  0  0  0  0  0  0  0  0  0  0  0
    8.1508   -0.5508   -1.0521 H   0  0  0  0  0  0  0  0  0  0  0  0
    8.6399   -2.9700   -0.6491 H   0  0  0  0  0  0  0  0  0  0  0  0
    9.9373   -1.9282   -0.0395 H   0  0  0  0  0  0  0  0  0  0  0  0
    8.7788   -2.6493    1.0909 H   0  0  0  0  0  0  0  0  0  0  0  0
   -3.2658   -0.4777    2.8523 H   0  0  0  0  0  0  0  0  0  0  0  0
  1  7  1  0  0  0  0
  1 12  1  0  0  0  0
  2  9  1  0  0  0  0
  2 35  1  0  0  0  0
  3 17  2  0  0  0  0
  4 24  1  0  0  0  0
  4 55  1  0  0  0  0
  5 24  2  0  0  0  0
  6  7  1  0  0  0  0
  6  8  1  0  0  0  0
  6 11  1  0  0  0  0
  6 26  1  0  0  0  0
  7 10  1  0  0  0  0
  7 27  1  0  0  0  0
  8  9  1  0  0  0  0
  8 13  1  0  0  0  0
  8 28  1  0  0  0  0
  9 10  1  0  0  0  0
  9 29  1  0  0  0  0
 10 30  1  0  0  0  0
 10 31  1  0  0  0  0
 11 12  1  0  0  0  0
 11 32  1  0  0  0  0
 11 33  1  0  0  0  0
 12 14  2  0  0  0  0
 13 15  2  0  0  0  0
 13 34  1  0  0  0  0
 14 16  1  0  0  0  0
 14 36  1  0  0  0  0
 15 17  1  0  0  0  0
 15 37  1  0  0  0  0
 16 18  1  0  0  0  0
 16 38  1  0  0  0  0
 16 39  1  0  0  0  0
 17 19  1  0  0  0  0
 18 20  1  0  0  0  0
 18 40  1  0  0  0  0
 18 41  1  0  0  0  0
 19 21  1  0  0  0  0
 19 42  1  0  0  0  0
 19 43  1  0  0  0  0
 20 24  1  0  0  0  0
 20 44  1  0  0  0  0
 20 45  1  0  0  0  0
 21 22  1  0  0  0  0
 21 46  1  0  0  0  0
 21 47  1  0  0  0  0
 22 23  1  0  0  0  0
 22 48  1  0  0  0  0
 22 49  1  0  0  0  0
 23 25  1  0  0  0  0
 23 50  1  0  0  0  0
 23 51  1  0  0  0  0
 25 52  1  0  0  0  0
 25 53  1  0  0  0  0
 25 54  1  0  0  0  0
M  END
> <PUBCHEM_COMPOUND_CID>
5460107

> <PUBCHEM_CONFORMER_RMSD>
1

> <PUBCHEM_CONFORMER_DIVERSEORDER>
1
107
140
116
101
55
123
72
59
60
95
133
122
96
131
20
132
86
150
25
145
24
134
112
45
47
53
28
146
75
143
84
108
110
98
154
118
57
147
21
153
77
85
69
97
90
135
56
144
127
142
94
67
120
39
137
139
66
114
40
100
125
130
19
46
63
81
22
89
79
111
50
23
42
151
106
7
68
30
10
115
99
126
41
70
80
64
78
26
62
37
104
109
76
54
91
33
88
149
61
52
93
117
92
113
17
121
49
103
13
15
58
83
87
51
73
128
34
155
152
136
9
36
148
141
11
138
29
71
14
119
18
32
3
74
27
65
105
2
102
82
8
129
5
38
48
16
44
12
124
35
4
31
43
6

> <PUBCHEM_MMFF94_PARTIAL_CHARGES>
23
1 -0.36
11 0.14
12 -0.06
13 -0.29
14 -0.29
15 -0.14
16 0.14
17 0.49
19 0.06
2 -0.68
20 0.06
24 0.66
3 -0.57
34 0.15
35 0.4
36 0.15
37 0.15
4 -0.65
5 -0.57
55 0.5
7 0.28
8 0.14
9 0.28

> <PUBCHEM_EFFECTIVE_ROTOR_COUNT>
11

> <PUBCHEM_PHARMACOPHORE_FEATURES>
12
1 1 acceptor
1 2 acceptor
1 2 donor
1 25 hydrophobe
1 3 acceptor
1 4 acceptor
1 5 acceptor
3 4 5 24 anion
4 14 16 18 20 hydrophobe
4 19 21 22 23 hydrophobe
5 1 6 7 11 12 rings
5 6 7 8 9 10 rings

> <PUBCHEM_HEAVY_ATOM_COUNT>
25

> <PUBCHEM_ATOM_DEF_STEREO_COUNT>
4

> <PUBCHEM_ATOM_UDEF_STEREO_COUNT>
0

> <PUBCHEM_BOND_DEF_STEREO_COUNT>
2

> <PUBCHEM_BOND_UDEF_STEREO_COUNT>
0

> <PUBCHEM_ISOTOPIC_ATOM_COUNT>
0

> <PUBCHEM_COMPONENT_COUNT>
1

> <PUBCHEM_CACTVS_TAUTO_COUNT>
5

> <PUBCHEM_CONFORMER_ID>
0053508B00000001

> <PUBCHEM_MMFF94_ENERGY>
34.2363

> <PUBCHEM_FEATURE_SELFOVERLAP>
61.396

> <PUBCHEM_SHAPE_FINGERPRINT>
10291535 26 7925908166983412185
10369192 42 12463293665272707725
105312 117 11959734901535131784
10674148 151 17917723383370629837
11273773 118 9655574132939098706
11315181 36 18041287659873473164
12633257 1 17171209878035251955
12760667 363 18409731724974948999
13103583 49 17678440979922751555
13544653 18 18266458702918949197
13631057 29 18408612461203970470
13941219 33 18187074079136164307
14211702 104 18261954150547726854
14251740 79 18131072619054780922
14251764 30 17985540062017976715
14844126 61 17822019726113663605
14950920 106 16009605559583429742
17492 54 9943260151892850267
17780758 139 17967814976641751520
18927931 339 18113899381658735188
19377110 9 17531528668847404232
21475661 188 10628364266200673799
22907989 373 12247679336276648989
23466295 7 17917139486408279075
23559900 14 17969243199539854416
25122255 55 18410292519498242686
2838139 119 9006246528137174271
328310 18 12751517384093566262
4073 2 18188771773283487606
445580 182 15791721997332159202
484985 159 18408045104719657047
5104073 3 17676492726980993816
531348 171 16843899761728793142
5372103 7 10776493659845507123
5486654 36 18411696582318607745
6327066 14 10159714507292975359
6431902 208 18409731759904594438
999808 66 18335421279631808630

> <PUBCHEM_SHAPE_MULTIPOLES>
485.14
16.96
3.45
1.9
53.66
0.86
-0.35
16.2
-0.24
-3.73
-0.69
-3.38
0.08
0.12

> <PUBCHEM_SHAPE_SELFOVERLAP>
981.376

> <PUBCHEM_SHAPE_VOLUME>
284.1

> <PUBCHEM_COORDINATE_TYPE>
2
5
10

$$$$

