159795
  -OEChem-07051212573D

 92 98  0     1  0  0  0  0  0999 V2000
   -1.2787   -0.3553   -0.8645 O   0  0  0  0  0  0  0  0  0  0  0  0
   -3.6067   -1.8962   -0.4923 O   0  0  0  0  0  0  0  0  0  0  0  0
   -1.7600   -0.4028    1.9919 O   0  0  0  0  0  0  0  0  0  0  0  0
   -0.6162   -2.3501    3.4924 O   0  0  0  0  0  0  0  0  0  0  0  0
   -6.0110   -0.6433   -0.0808 O   0  0  0  0  0  0  0  0  0  0  0  0
    4.2793    1.6112   -0.4498 O   0  0  0  0  0  0  0  0  0  0  0  0
    4.9054    4.1802    0.1049 O   0  0  0  0  0  0  0  0  0  0  0  0
   -1.5531    3.8685   -1.2810 N   0  0  2  0  0  0  0  0  0  0  0  0
    1.8009   -4.2341   -1.8870 N   0  0  2  0  0  0  0  0  0  0  0  0
   -1.2987    2.4947   -0.7860 C   0  0  2  0  0  0  0  0  0  0  0  0
    1.7251   -4.2192   -0.4040 C   0  0  2  0  0  0  0  0  0  0  0  0
   -2.5594    1.6485   -0.6165 C   0  0  0  0  0  0  0  0  0  0  0  0
    0.6917   -3.2575    0.1902 C   0  0  0  0  0  0  0  0  0  0  0  0
    0.0215   -2.3219   -0.6193 C   0  0  0  0  0  0  0  0  0  0  0  0
   -2.6422    4.5236   -0.5476 C   0  0  0  0  0  0  0  0  0  0  0  0
   -3.8129    2.2678   -0.4562 C   0  0  0  0  0  0  0  0  0  0  0  0
    0.2243   -2.3771   -2.1096 C   0  0  0  0  0  0  0  0  0  0  0  0
    0.5687   -3.7998   -2.5447 C   0  0  0  0  0  0  0  0  0  0  0  0
   -3.9671    3.7609   -0.5894 C   0  0  0  0  0  0  0  0  0  0  0  0
   -0.5116    2.5415    0.5508 C   0  0  0  0  0  0  0  0  0  0  0  0
    3.1491   -3.9192    0.1695 C   0  0  0  0  0  0  0  0  0  0  0  0
   -2.4914    0.2389   -0.5919 C   0  0  0  0  0  0  0  0  0  0  0  0
   -0.8029   -1.3459   -0.0296 C   0  0  0  0  0  0  0  0  0  0  0  0
    0.4346   -3.2708    1.5700 C   0  0  0  0  0  0  0  0  0  0  0  0
   -4.9601    1.4821   -0.2660 C   0  0  0  0  0  0  0  0  0  0  0  0
   -1.7649    3.9032   -2.7282 C   0  0  0  0  0  0  0  0  0  0  0  0
    2.2107   -5.5443   -2.3985 C   0  0  0  0  0  0  0  0  0  0  0  0
   -3.6453   -0.5342   -0.4253 C   0  0  0  0  0  0  0  0  0  0  0  0
    0.9219    2.9922    0.3981 C   0  0  0  0  0  0  0  0  0  0  0  0
   -1.0121   -1.3475    1.3527 C   0  0  0  0  0  0  0  0  0  0  0  0
    3.5909   -2.4748    0.0332 C   0  0  0  0  0  0  0  0  0  0  0  0
   -0.4141   -2.3254    2.1442 C   0  0  0  0  0  0  0  0  0  0  0  0
   -4.8750    0.0910   -0.2450 C   0  0  0  0  0  0  0  0  0  0  0  0
    1.9011    2.0756   -0.0141 C   0  0  0  0  0  0  0  0  0  0  0  0
    1.2973    4.3098    0.6821 C   0  0  0  0  0  0  0  0  0  0  0  0
    3.5783   -1.6285    1.1526 C   0  0  0  0  0  0  0  0  0  0  0  0
    3.9527   -1.9434   -1.2129 C   0  0  0  0  0  0  0  0  0  0  0  0
    3.2476    2.4556   -0.0850 C   0  0  0  0  0  0  0  0  0  0  0  0
    4.0985    0.2621   -0.2501 C   0  0  0  0  0  0  0  0  0  0  0  0
    3.8424   -0.2661    1.0168 C   0  0  0  0  0  0  0  0  0  0  0  0
    4.2030   -0.5784   -1.3568 C   0  0  0  0  0  0  0  0  0  0  0  0
    2.6327    4.7002    0.5716 C   0  0  0  0  0  0  0  0  0  0  0  0
    3.6065    3.7762    0.1916 C   0  0  0  0  0  0  0  0  0  0  0  0
   -3.8060   -2.4860   -1.7744 C   0  0  0  0  0  0  0  0  0  0  0  0
   -1.1026    0.3774    2.9874 C   0  0  0  0  0  0  0  0  0  0  0  0
   -1.7227   -3.1137    3.9669 C   0  0  0  0  0  0  0  0  0  0  0  0
   -6.3680   -0.9946    1.2544 C   0  0  0  0  0  0  0  0  0  0  0  0
    5.6983    4.0686    1.2849 C   0  0  0  0  0  0  0  0  0  0  0  0
   -0.6606    1.9955   -1.5285 H   0  0  0  0  0  0  0  0  0  0  0  0
    1.4203   -5.2207   -0.0673 H   0  0  0  0  0  0  0  0  0  0  0  0
   -2.7937    5.5439   -0.9223 H   0  0  0  0  0  0  0  0  0  0  0  0
   -2.3415    4.6575    0.4984 H   0  0  0  0  0  0  0  0  0  0  0  0
   -0.6899   -2.0755   -2.6325 H   0  0  0  0  0  0  0  0  0  0  0  0
    1.0183   -1.6762   -2.3937 H   0  0  0  0  0  0  0  0  0  0  0  0
   -0.2609   -4.4842   -2.3203 H   0  0  0  0  0  0  0  0  0  0  0  0
    0.7051   -3.7965   -3.6332 H   0  0  0  0  0  0  0  0  0  0  0  0
   -4.4713    3.9638   -1.5428 H   0  0  0  0  0  0  0  0  0  0  0  0
   -4.6152    4.1367    0.2116 H   0  0  0  0  0  0  0  0  0  0  0  0
   -0.4467    1.5307    0.9416 H   0  0  0  0  0  0  0  0  0  0  0  0
   -1.0222    3.1269    1.3236 H   0  0  0  0  0  0  0  0  0  0  0  0
    3.9071   -4.5605   -0.2973 H   0  0  0  0  0  0  0  0  0  0  0  0
    3.1714   -4.1983    1.2317 H   0  0  0  0  0  0  0  0  0  0  0  0
    0.9231   -4.0055    2.2061 H   0  0  0  0  0  0  0  0  0  0  0  0
   -5.9306    1.9616   -0.1565 H   0  0  0  0  0  0  0  0  0  0  0  0
   -1.9111    4.9338   -3.0702 H   0  0  0  0  0  0  0  0  0  0  0  0
   -2.6257    3.3092   -3.0525 H   0  0  0  0  0  0  0  0  0  0  0  0
   -0.8778    3.5284   -3.2511 H   0  0  0  0  0  0  0  0  0  0  0  0
    3.1688   -5.8589   -1.9731 H   0  0  0  0  0  0  0  0  0  0  0  0
    2.3553   -5.5037   -3.4840 H   0  0  0  0  0  0  0  0  0  0  0  0
    1.4672   -6.3197   -2.1808 H   0  0  0  0  0  0  0  0  0  0  0  0
    1.5935    1.0627   -0.2617 H   0  0  0  0  0  0  0  0  0  0  0  0
    0.5542    5.0382    0.9962 H   0  0  0  0  0  0  0  0  0  0  0  0
    3.3260   -2.0188    2.1355 H   0  0  0  0  0  0  0  0  0  0  0  0
    4.0062   -2.5807   -2.0914 H   0  0  0  0  0  0  0  0  0  0  0  0
    3.8045    0.3758    1.8923 H   0  0  0  0  0  0  0  0  0  0  0  0
    4.4405   -0.1752   -2.3372 H   0  0  0  0  0  0  0  0  0  0  0  0
    2.9087    5.7280    0.7929 H   0  0  0  0  0  0  0  0  0  0  0  0
   -4.8580   -2.4087   -2.0653 H   0  0  0  0  0  0  0  0  0  0  0  0
   -3.5378   -3.5441   -1.7099 H   0  0  0  0  0  0  0  0  0  0  0  0
   -3.1748   -2.0112   -2.5321 H   0  0  0  0  0  0  0  0  0  0  0  0
   -0.0186    0.4380    2.8387 H   0  0  0  0  0  0  0  0  0  0  0  0
   -1.3180   -0.0297    3.9798 H   0  0  0  0  0  0  0  0  0  0  0  0
   -1.5252    1.3858    2.9672 H   0  0  0  0  0  0  0  0  0  0  0  0
   -1.5974   -4.1699    3.7086 H   0  0  0  0  0  0  0  0  0  0  0  0
   -2.6612   -2.7340    3.5503 H   0  0  0  0  0  0  0  0  0  0  0  0
   -1.7610   -3.0216    5.0557 H   0  0  0  0  0  0  0  0  0  0  0  0
   -5.5809   -1.5983    1.7175 H   0  0  0  0  0  0  0  0  0  0  0  0
   -7.2873   -1.5854    1.2194 H   0  0  0  0  0  0  0  0  0  0  0  0
   -6.5515   -0.0952    1.8507 H   0  0  0  0  0  0  0  0  0  0  0  0
    5.7482    3.0280    1.6208 H   0  0  0  0  0  0  0  0  0  0  0  0
    5.2917    4.7007    2.0807 H   0  0  0  0  0  0  0  0  0  0  0  0
    6.7106    4.4091    1.0508 H   0  0  0  0  0  0  0  0  0  0  0  0
  1 22  1  0  0  0  0
  1 23  1  0  0  0  0
  2 28  1  0  0  0  0
  2 44  1  0  0  0  0
  3 30  1  0  0  0  0
  3 45  1  0  0  0  0
  4 32  1  0  0  0  0
  4 46  1  0  0  0  0
  5 33  1  0  0  0  0
  5 47  1  0  0  0  0
  6 38  1  0  0  0  0
  6 39  1  0  0  0  0
  7 43  1  0  0  0  0
  7 48  1  0  0  0  0
  8 10  1  0  0  0  0
  8 15  1  0  0  0  0
  8 26  1  0  0  0  0
  9 11  1  0  0  0  0
  9 18  1  0  0  0  0
  9 27  1  0  0  0  0
 10 12  1  0  0  0  0
 10 20  1  0  0  0  0
 10 49  1  0  0  0  0
 11 13  1  0  0  0  0
 11 21  1  0  0  0  0
 11 50  1  0  0  0  0
 12 16  1  0  0  0  0
 12 22  2  0  0  0  0
 13 14  1  0  0  0  0
 13 24  2  0  0  0  0
 14 17  1  0  0  0  0
 14 23  2  0  0  0  0
 15 19  1  0  0  0  0
 15 51  1  0  0  0  0
 15 52  1  0  0  0  0
 16 19  1  0  0  0  0
 16 25  2  0  0  0  0
 17 18  1  0  0  0  0
 17 53  1  0  0  0  0
 17 54  1  0  0  0  0
 18 55  1  0  0  0  0
 18 56  1  0  0  0  0
 19 57  1  0  0  0  0
 19 58  1  0  0  0  0
 20 29  1  0  0  0  0
 20 59  1  0  0  0  0
 20 60  1  0  0  0  0
 21 31  1  0  0  0  0
 21 61  1  0  0  0  0
 21 62  1  0  0  0  0
 22 28  1  0  0  0  0
 23 30  1  0  0  0  0
 24 32  1  0  0  0  0
 24 63  1  0  0  0  0
 25 33  1  0  0  0  0
 25 64  1  0  0  0  0
 26 65  1  0  0  0  0
 26 66  1  0  0  0  0
 26 67  1  0  0  0  0
 27 68  1  0  0  0  0
 27 69  1  0  0  0  0
 27 70  1  0  0  0  0
 28 33  2  0  0  0  0
 29 34  2  0  0  0  0
 29 35  1  0  0  0  0
 30 32  2  0  0  0  0
 31 36  2  0  0  0  0
 31 37  1  0  0  0  0
 34 38  1  0  0  0  0
 34 71  1  0  0  0  0
 35 42  2  0  0  0  0
 35 72  1  0  0  0  0
 36 40  1  0  0  0  0
 36 73  1  0  0  0  0
 37 41  2  0  0  0  0
 37 74  1  0  0  0  0
 38 43  2  0  0  0  0
 39 40  2  0  0  0  0
 39 41  1  0  0  0  0
 40 75  1  0  0  0  0
 41 76  1  0  0  0  0
 42 43  1  0  0  0  0
 42 77  1  0  0  0  0
 44 78  1  0  0  0  0
 44 79  1  0  0  0  0
 44 80  1  0  0  0  0
 45 81  1  0  0  0  0
 45 82  1  0  0  0  0
 45 83  1  0  0  0  0
 46 84  1  0  0  0  0
 46 85  1  0  0  0  0
 46 86  1  0  0  0  0
 47 87  1  0  0  0  0
 47 88  1  0  0  0  0
 47 89  1  0  0  0  0
 48 90  1  0  0  0  0
 48 91  1  0  0  0  0
 48 92  1  0  0  0  0
M  END
> <PUBCHEM_COMPOUND_CID>
159795

> <PUBCHEM_CONFORMER_RMSD>
1

> <PUBCHEM_CONFORMER_DIVERSEORDER>
1
6
3
4
5
2

> <PUBCHEM_MMFF94_PARTIAL_CHARGES>
57
1 -0.17
10 0.41
11 0.41
12 -0.14
13 -0.14
14 -0.14
15 0.27
16 -0.14
17 0.14
18 0.27
19 0.14
2 -0.36
20 0.14
21 0.14
22 0.08
23 0.08
24 -0.15
25 -0.15
26 0.27
27 0.27
28 0.08
29 -0.14
3 -0.36
30 0.08
31 -0.14
32 0.08
33 0.08
34 -0.15
35 -0.15
36 -0.15
37 -0.15
38 0.08
39 0.08
4 -0.36
40 -0.15
41 -0.15
42 -0.15
43 0.08
44 0.28
45 0.28
46 0.28
47 0.28
48 0.28
5 -0.36
6 -0.17
63 0.15
64 0.15
7 -0.36
71 0.15
72 0.15
73 0.15
74 0.15
75 0.15
76 0.15
77 0.15
8 -0.81
9 -0.81

> <PUBCHEM_EFFECTIVE_ROTOR_COUNT>
7

> <PUBCHEM_PHARMACOPHORE_FEATURES>
15
1 1 acceptor
1 2 acceptor
1 3 acceptor
1 4 acceptor
1 5 acceptor
1 6 acceptor
1 7 acceptor
1 8 cation
1 9 cation
6 12 16 22 25 28 33 rings
6 13 14 23 24 30 32 rings
6 29 34 35 38 42 43 rings
6 31 36 37 39 40 41 rings
6 8 10 12 15 16 19 rings
6 9 11 13 14 17 18 rings

> <PUBCHEM_HEAVY_ATOM_COUNT>
48

> <PUBCHEM_ATOM_DEF_STEREO_COUNT>
2

> <PUBCHEM_ATOM_UDEF_STEREO_COUNT>
0

> <PUBCHEM_BOND_DEF_STEREO_COUNT>
0

> <PUBCHEM_BOND_UDEF_STEREO_COUNT>
0

> <PUBCHEM_ISOTOPIC_ATOM_COUNT>
0

> <PUBCHEM_COMPONENT_COUNT>
1

> <PUBCHEM_CACTVS_TAUTO_COUNT>
1

> <PUBCHEM_CONFORMER_ID>
0002703300000001

> <PUBCHEM_MMFF94_ENERGY>
225.2961

> <PUBCHEM_FEATURE_SELFOVERLAP>
76.182

> <PUBCHEM_SHAPE_FINGERPRINT>
10653451 467 18057038004942808721
11513181 2 18261958431864671524
12156800 1 16455809424465428174
1361 2 18264493871197212791
14725015 67 18201168735972539264
15200665 1 17904488406682346913
15320467 1 17977391529751881196
15351339 4 17983300618592917968
19311894 1 17472696304961859447
20764821 26 17260189896047814972
21133410 32 16840455980048267730
23559900 14 17395866817770278095
3383291 50 17832432990118179195
354706 132 17415821738021819110
463206 1 17691406730075048108
5265222 85 18339911616094727540
5776283 40 18339065018374782716

> <PUBCHEM_SHAPE_MULTIPOLES>
936.77
10.06
8.48
2.59
5.19
4.37
-1.63
3
0.92
-7.11
1.66
0.57
-3.02
3.6

> <PUBCHEM_SHAPE_SELFOVERLAP>
2056.335

> <PUBCHEM_SHAPE_VOLUME>
505.9

> <PUBCHEM_COORDINATE_TYPE>
2
5
10

$$$$

