441713
  -OEChem-07051212552D

 99105  0     1  0  0  0  0  0999 V2000
    6.8475   -1.2887    0.0000 O   0  0  0  0  0  0  0  0  0  0  0  0
    8.3651   -2.4575    0.0000 O   0  0  0  0  0  0  0  0  0  0  0  0
   10.1877    1.3043    0.0000 O   0  0  0  0  0  0  0  0  0  0  0  0
    6.4713    1.0528    0.0000 O   0  0  0  0  0  0  0  0  0  0  0  0
    8.0625    2.6162    0.0000 O   0  0  0  0  0  0  0  0  0  0  0  0
    6.0701    1.7623    0.0000 O   0  0  0  0  0  0  0  0  0  0  0  0
   11.0538   -2.9309    0.0000 O   0  0  0  0  0  0  0  0  0  0  0  0
    5.1633   -0.8844    0.0000 O   0  0  0  0  0  0  0  0  0  0  0  0
    5.4743   -0.3636    0.0000 O   0  0  0  0  0  0  0  0  0  0  0  0
    2.1138    0.9429    0.0000 O   0  0  0  0  0  0  0  0  0  0  0  0
    2.2931    2.9349    0.0000 O   0  0  0  0  0  0  0  0  0  0  0  0
   11.3831   -0.5247    0.0000 N   0  0  3  0  0  0  0  0  0  0  0  0
    9.4364   -0.1295    0.0000 C   0  0  1  0  0  0  0  0  0  0  0  0
    9.4364   -0.9971    0.0000 C   0  0  2  0  0  0  0  0  0  0  0  0
    8.7581    0.4114    0.0000 C   0  0  1  0  0  0  0  0  0  0  0  0
   10.4384   -0.2355    0.0000 C   0  0  3  0  0  0  0  0  0  0  0  0
    7.9123   -1.3450    0.0000 C   0  0  1  0  0  0  0  0  0  0  0  0
    7.9123    0.2184    0.0000 C   0  0  1  0  0  0  0  0  0  0  0  0
    7.5358   -0.5633    0.0000 C   0  0  1  0  0  0  0  0  0  0  0  0
    8.7581   -1.5380    0.0000 C   0  0  2  0  0  0  0  0  0  0  0  0
   10.1877   -1.4309    0.0000 C   0  0  2  0  0  0  0  0  0  0  0  0
   10.1877    0.3043    0.0000 C   0  0  2  0  0  0  0  0  0  0  0  0
    8.8359    1.2755    0.0000 C   0  0  0  0  0  0  0  0  0  0  0  0
    8.0381    1.6165    0.0000 C   0  0  2  0  0  0  0  0  0  0  0  0
    7.4673    0.9631    0.0000 C   0  0  2  0  0  0  0  0  0  0  0  0
    6.8910   -0.2934    0.0000 C   0  0  0  0  0  0  0  0  0  0  0  0
   11.3831   -1.2766    0.0000 C   0  0  0  0  0  0  0  0  0  0  0  0
   10.9391   -0.9971    0.0000 C   0  0  0  0  0  0  0  0  0  0  0  0
    6.8910    1.1912    0.0000 C   0  0  2  0  0  0  0  0  0  0  0  0
   10.9391   -0.1295    0.0000 C   0  0  0  0  0  0  0  0  0  0  0  0
   10.1877   -2.4309    0.0000 C   0  0  0  0  0  0  0  0  0  0  0  0
   12.1870    0.0699    0.0000 C   0  0  0  0  0  0  0  0  0  0  0  0
    5.8887   -1.5727    0.0000 C   0  0  0  0  0  0  0  0  0  0  0  0
    8.9649   -3.2577    0.0000 C   0  0  0  0  0  0  0  0  0  0  0  0
   13.1040   -0.3290    0.0000 C   0  0  0  0  0  0  0  0  0  0  0  0
   11.0538    1.8043    0.0000 C   0  0  0  0  0  0  0  0  0  0  0  0
    5.5640    0.6324    0.0000 C   0  0  0  0  0  0  0  0  0  0  0  0
    6.1542    2.7587    0.0000 C   0  0  0  0  0  0  0  0  0  0  0  0
    5.6553   -2.5451    0.0000 C   0  0  0  0  0  0  0  0  0  0  0  0
   11.0538   -3.9309    0.0000 C   0  0  0  0  0  0  0  0  0  0  0  0
    4.7462    1.2080    0.0000 C   0  0  0  0  0  0  0  0  0  0  0  0
    3.8389    0.7877    0.0000 C   0  0  0  0  0  0  0  0  0  0  0  0
    4.8359    2.2040    0.0000 C   0  0  0  0  0  0  0  0  0  0  0  0
    3.0212    1.3633    0.0000 C   0  0  0  0  0  0  0  0  0  0  0  0
    4.0182    2.7796    0.0000 C   0  0  0  0  0  0  0  0  0  0  0  0
    3.1108    2.3593    0.0000 C   0  0  0  0  0  0  0  0  0  0  0  0
    1.2961    1.5186    0.0000 C   0  0  0  0  0  0  0  0  0  0  0  0
    2.3827    3.9309    0.0000 C   0  0  0  0  0  0  0  0  0  0  0  0
    9.4999   -1.8447    0.0000 H   0  0  0  0  0  0  0  0  0  0  0  0
    9.5397    0.7455    0.0000 H   0  0  0  0  0  0  0  0  0  0  0  0
   10.5623    0.3719    0.0000 H   0  0  0  0  0  0  0  0  0  0  0  0
    7.3823   -2.0095    0.0000 H   0  0  0  0  0  0  0  0  0  0  0  0
    7.0631    0.1802    0.0000 H   0  0  0  0  0  0  0  0  0  0  0  0
    8.9585   -2.1247    0.0000 H   0  0  0  0  0  0  0  0  0  0  0  0
    9.6508    0.6143    0.0000 H   0  0  0  0  0  0  0  0  0  0  0  0
    9.0186    1.8680    0.0000 H   0  0  0  0  0  0  0  0  0  0  0  0
    9.4442    1.1557    0.0000 H   0  0  0  0  0  0  0  0  0  0  0  0
    7.2365    1.5386    0.0000 H   0  0  0  0  0  0  0  0  0  0  0  0
    6.7290   -0.8918    0.0000 H   0  0  0  0  0  0  0  0  0  0  0  0
    6.2764   -0.2117    0.0000 H   0  0  0  0  0  0  0  0  0  0  0  0
   12.0025   -1.2501    0.0000 H   0  0  0  0  0  0  0  0  0  0  0  0
   11.4360   -1.8944    0.0000 H   0  0  0  0  0  0  0  0  0  0  0  0
   11.5497   -0.8894    0.0000 H   0  0  0  0  0  0  0  0  0  0  0  0
   11.1511   -1.5797    0.0000 H   0  0  0  0  0  0  0  0  0  0  0  0
    6.9691    1.8062    0.0000 H   0  0  0  0  0  0  0  0  0  0  0  0
   11.1511    0.4531    0.0000 H   0  0  0  0  0  0  0  0  0  0  0  0
   11.5497   -0.2372    0.0000 H   0  0  0  0  0  0  0  0  0  0  0  0
    9.9757   -3.0135    0.0000 H   0  0  0  0  0  0  0  0  0  0  0  0
    9.5772   -2.3232    0.0000 H   0  0  0  0  0  0  0  0  0  0  0  0
   11.7374    0.4968    0.0000 H   0  0  0  0  0  0  0  0  0  0  0  0
   12.5293    0.5869    0.0000 H   0  0  0  0  0  0  0  0  0  0  0  0
    7.5333    2.9392    0.0000 H   0  0  0  0  0  0  0  0  0  0  0  0
    9.4610   -2.8858    0.0000 H   0  0  0  0  0  0  0  0  0  0  0  0
    9.3368   -3.7538    0.0000 H   0  0  0  0  0  0  0  0  0  0  0  0
    8.4688   -3.6296    0.0000 H   0  0  0  0  0  0  0  0  0  0  0  0
   13.3513    0.2396    0.0000 H   0  0  0  0  0  0  0  0  0  0  0  0
   13.6726   -0.5763    0.0000 H   0  0  0  0  0  0  0  0  0  0  0  0
   12.8567   -0.8975    0.0000 H   0  0  0  0  0  0  0  0  0  0  0  0
   10.7438    2.3412    0.0000 H   0  0  0  0  0  0  0  0  0  0  0  0
   11.5907    2.1143    0.0000 H   0  0  0  0  0  0  0  0  0  0  0  0
   11.3638    1.2674    0.0000 H   0  0  0  0  0  0  0  0  0  0  0  0
    5.5364    2.8109    0.0000 H   0  0  0  0  0  0  0  0  0  0  0  0
    6.2064    3.3765    0.0000 H   0  0  0  0  0  0  0  0  0  0  0  0
    6.7720    2.7065    0.0000 H   0  0  0  0  0  0  0  0  0  0  0  0
    6.2582   -2.6898    0.0000 H   0  0  0  0  0  0  0  0  0  0  0  0
    5.5106   -3.1480    0.0000 H   0  0  0  0  0  0  0  0  0  0  0  0
    5.0524   -2.4004    0.0000 H   0  0  0  0  0  0  0  0  0  0  0  0
   11.6738   -3.9309    0.0000 H   0  0  0  0  0  0  0  0  0  0  0  0
   11.0538   -4.5509    0.0000 H   0  0  0  0  0  0  0  0  0  0  0  0
   10.4338   -3.9309    0.0000 H   0  0  0  0  0  0  0  0  0  0  0  0
    3.7833    0.1702    0.0000 H   0  0  0  0  0  0  0  0  0  0  0  0
    5.3984    2.4646    0.0000 H   0  0  0  0  0  0  0  0  0  0  0  0
    4.0737    3.3971    0.0000 H   0  0  0  0  0  0  0  0  0  0  0  0
    0.9392    1.0116    0.0000 H   0  0  0  0  0  0  0  0  0  0  0  0
    0.7891    1.8754    0.0000 H   0  0  0  0  0  0  0  0  0  0  0  0
    1.6530    2.0255    0.0000 H   0  0  0  0  0  0  0  0  0  0  0  0
    1.7652    3.9864    0.0000 H   0  0  0  0  0  0  0  0  0  0  0  0
    2.4383    4.5484    0.0000 H   0  0  0  0  0  0  0  0  0  0  0  0
    3.0002    3.8753    0.0000 H   0  0  0  0  0  0  0  0  0  0  0  0
 19  1  1  6  0  0  0
  1 33  1  0  0  0  0
 20  2  1  1  0  0  0
  2 34  1  0  0  0  0
 22  3  1  1  0  0  0
  3 36  1  0  0  0  0
 25  4  1  1  0  0  0
  4 37  1  0  0  0  0
 24  5  1  6  0  0  0
  5 72  1  0  0  0  0
 29  6  1  6  0  0  0
  6 38  1  0  0  0  0
  7 31  1  0  0  0  0
  7 40  1  0  0  0  0
  8 33  2  0  0  0  0
  9 37  2  0  0  0  0
 10 44  1  0  0  0  0
 10 47  1  0  0  0  0
 11 46  1  0  0  0  0
 11 48  1  0  0  0  0
 12 16  1  0  0  0  0
 12 27  1  0  0  0  0
 12 32  1  0  0  0  0
 13 14  1  0  0  0  0
 13 15  1  0  0  0  0
 13 16  1  0  0  0  0
 13 22  1  6  0  0  0
 14 20  1  0  0  0  0
 14 21  1  0  0  0  0
 14 49  1  6  0  0  0
 15 18  1  0  0  0  0
 15 23  1  0  0  0  0
 15 50  1  6  0  0  0
 16 17  1  0  0  0  0
 16 51  1  0  0  0  0
 17 19  1  0  0  0  0
 17 20  1  0  0  0  0
 17 52  1  1  0  0  0
 18 19  1  0  0  0  0
 18 25  1  0  0  0  0
 18 53  1  6  0  0  0
 19 26  1  0  0  0  0
 20 54  1  0  0  0  0
 21 27  1  0  0  0  0
 21 28  1  0  0  0  0
 21 31  1  6  0  0  0
 22 30  1  0  0  0  0
 22 55  1  0  0  0  0
 23 24  1  0  0  0  0
 23 56  1  0  0  0  0
 23 57  1  0  0  0  0
 24 25  1  0  0  0  0
 24 29  1  0  0  0  0
 25 58  1  0  0  0  0
 26 29  1  0  0  0  0
 26 59  1  0  0  0  0
 26 60  1  0  0  0  0
 27 61  1  0  0  0  0
 27 62  1  0  0  0  0
 28 30  1  0  0  0  0
 28 63  1  0  0  0  0
 28 64  1  0  0  0  0
 29 65  1  0  0  0  0
 30 66  1  0  0  0  0
 30 67  1  0  0  0  0
 31 68  1  0  0  0  0
 31 69  1  0  0  0  0
 32 35  1  0  0  0  0
 32 70  1  0  0  0  0
 32 71  1  0  0  0  0
 33 39  1  0  0  0  0
 34 73  1  0  0  0  0
 34 74  1  0  0  0  0
 34 75  1  0  0  0  0
 35 76  1  0  0  0  0
 35 77  1  0  0  0  0
 35 78  1  0  0  0  0
 36 79  1  0  0  0  0
 36 80  1  0  0  0  0
 36 81  1  0  0  0  0
 37 41  1  0  0  0  0
 38 82  1  0  0  0  0
 38 83  1  0  0  0  0
 38 84  1  0  0  0  0
 39 85  1  0  0  0  0
 39 86  1  0  0  0  0
 39 87  1  0  0  0  0
 40 88  1  0  0  0  0
 40 89  1  0  0  0  0
 40 90  1  0  0  0  0
 41 42  2  0  0  0  0
 41 43  1  0  0  0  0
 42 44  1  0  0  0  0
 42 91  1  0  0  0  0
 43 45  2  0  0  0  0
 43 92  1  0  0  0  0
 44 46  2  0  0  0  0
 45 46  1  0  0  0  0
 45 93  1  0  0  0  0
 47 94  1  0  0  0  0
 47 95  1  0  0  0  0
 47 96  1  0  0  0  0
 48 97  1  0  0  0  0
 48 98  1  0  0  0  0
 48 99  1  0  0  0  0
M  END
> <PUBCHEM_COMPOUND_CID>
441713

> <PUBCHEM_COMPOUND_CANONICALIZED>
1

> <PUBCHEM_CACTVS_COMPLEXITY>
1250

> <PUBCHEM_CACTVS_HBOND_ACCEPTOR>
12

> <PUBCHEM_CACTVS_HBOND_DONOR>
1

> <PUBCHEM_CACTVS_ROTATABLE_BOND>
13

> <PUBCHEM_CACTVS_SUBSKEYS>
AAADcfB+PAAAAAAAAAAAAAAAAAAAAYMAAAA8YMGCB4gWAGABAAAAHgAACAAAD3zhmAYyDoMABgCIAiDSCAACCAAkIAAIiAEOiMgNJjKEtRqGcSInwBGLqYf6/P/PoAABAAAAQADSAAaUADSAAaEADSAAAA==

> <PUBCHEM_IUPAC_INCHI>
InChI=1S/C36H51NO11/c1-9-37-17-33(18-41-3)13-12-24(44-6)36-21-15-34(40)25(45-7)16-35(48-19(2)38,27(30(36)37)28(46-8)29(33)36)26(21)31(34)47-32(39)20-10-11-22(42-4)23(14-20)43-5/h10-11,14,21,24-31,40H,9,12-13,15-18H2,1-8H3/t21-,24+,25+,26-,27+,28+,29-,30?,31-,33+,34+,35-,36+/m1/s1

> <PUBCHEM_IUPAC_INCHIKEY>
CYIFGHJXUWZGSW-GRXCUHEDSA-N

> <PUBCHEM_XLOGP3_AA>
2.2

> <PUBCHEM_EXACT_MASS>
673.346211

> <PUBCHEM_MOLECULAR_FORMULA>
C36H51NO11

> <PUBCHEM_MOLECULAR_WEIGHT>
673.79024

> <PUBCHEM_OPENEYE_CAN_SMILES>
CCN1CC2(CCC(C34C2C(C(C31)C5(CC(C6(CC4C5C6OC(=O)C7=CC(=C(C=C7)OC)OC)O)OC)OC(=O)C)OC)OC)COC

> <PUBCHEM_OPENEYE_ISO_SMILES>
CCN1C[C@@]2(CC[C@@H]([C@@]34[C@@H]2[C@H]([C@@H](C31)[C@]5(C[C@@H]([C@]6(C[C@@H]4[C@@H]5[C@H]6OC(=O)C7=CC(=C(C=C7)OC)OC)O)OC)OC(=O)C)OC)OC)COC

> <PUBCHEM_CACTVS_TPSA>
131

> <PUBCHEM_MONOISOTOPIC_WEIGHT>
673.346211

> <PUBCHEM_TOTAL_CHARGE>
0

> <PUBCHEM_HEAVY_ATOM_COUNT>
48

> <PUBCHEM_ATOM_DEF_STEREO_COUNT>
12

> <PUBCHEM_ATOM_UDEF_STEREO_COUNT>
1

> <PUBCHEM_BOND_DEF_STEREO_COUNT>
0

> <PUBCHEM_BOND_UDEF_STEREO_COUNT>
0

> <PUBCHEM_ISOTOPIC_ATOM_COUNT>
0

> <PUBCHEM_COMPONENT_COUNT>
1

> <PUBCHEM_CACTVS_TAUTO_COUNT>
1

> <PUBCHEM_COORDINATE_TYPE>
1
5
255

> <PUBCHEM_BONDANNOTATIONS>
19  1  6
16  12  3
13  22  6
14  49  6
15  50  6
17  52  5
18  53  6
20  2  5
21  31  6
22  3  5
25  4  5
41  42  8
41  43  8
42  44  8
43  45  8
44  46  8
45  46  8
24  5  6
29  6  6

$$$$

