444885
  -OEChem-07051213153D

 40 40  0     1  0  0  0  0  0999 V2000
    0.2172    1.1819   -0.7342 O   0  0  0  0  0  0  0  0  0  0  0  0
    2.9798   -1.8783   -0.4313 O   0  0  0  0  0  0  0  0  0  0  0  0
   -1.7224   -0.6437   -1.5925 O   0  0  0  0  0  0  0  0  0  0  0  0
    1.8896    2.6210   -1.4825 O   0  0  0  0  0  0  0  0  0  0  0  0
   -2.3959    1.5142    1.2861 O   0  0  0  0  0  0  0  0  0  0  0  0
    3.0476    2.7203    0.8872 O   0  0  0  0  0  0  0  0  0  0  0  0
   -4.7537    2.0088   -0.0498 O   0  0  0  0  0  0  0  0  0  0  0  0
    0.9554    2.3013    1.6892 O   0  0  0  0  0  0  0  0  0  0  0  0
   -0.2723   -3.7948   -0.8730 O   0  0  0  0  0  0  0  0  0  0  0  0
    0.3222   -2.2280    0.7426 N   0  0  0  0  0  0  0  0  0  0  0  0
    0.6825   -1.1501   -0.1510 C   0  0  1  0  0  0  0  0  0  0  0  0
   -0.1975    0.0867    0.0905 C   0  0  2  0  0  0  0  0  0  0  0  0
    2.1640   -0.7997    0.0199 C   0  0  2  0  0  0  0  0  0  0  0  0
    2.5221    0.4357   -0.7988 C   0  0  0  0  0  0  0  0  0  0  0  0
   -1.6626   -0.1820   -0.2458 C   0  0  1  0  0  0  0  0  0  0  0  0
    1.5596    1.5931   -0.5482 C   0  0  2  0  0  0  0  0  0  0  0  0
   -2.5513    1.0541   -0.0612 C   0  0  1  0  0  0  0  0  0  0  0  0
    1.7872    2.2298    0.7969 C   0  0  0  0  0  0  0  0  0  0  0  0
   -4.0404    0.7967   -0.2802 C   0  0  0  0  0  0  0  0  0  0  0  0
   -0.1254   -3.4604    0.2997 C   0  0  0  0  0  0  0  0  0  0  0  0
   -0.4057   -4.4064    1.4364 C   0  0  0  0  0  0  0  0  0  0  0  0
    0.5535   -1.4981   -1.1838 H   0  0  0  0  0  0  0  0  0  0  0  0
   -0.1416    0.3611    1.1481 H   0  0  0  0  0  0  0  0  0  0  0  0
    2.4013   -0.6308    1.0769 H   0  0  0  0  0  0  0  0  0  0  0  0
    3.5671    0.7179   -0.6178 H   0  0  0  0  0  0  0  0  0  0  0  0
    2.4931    0.1749   -1.8670 H   0  0  0  0  0  0  0  0  0  0  0  0
   -2.0386   -0.9888    0.3942 H   0  0  0  0  0  0  0  0  0  0  0  0
   -2.2396    1.8716   -0.7211 H   0  0  0  0  0  0  0  0  0  0  0  0
    0.4107   -2.0649    1.7417 H   0  0  0  0  0  0  0  0  0  0  0  0
    2.7611   -2.0555   -1.3620 H   0  0  0  0  0  0  0  0  0  0  0  0
   -4.4189    0.0494    0.4250 H   0  0  0  0  0  0  0  0  0  0  0  0
   -4.2381    0.4631   -1.3033 H   0  0  0  0  0  0  0  0  0  0  0  0
   -1.4014    0.0734   -2.1657 H   0  0  0  0  0  0  0  0  0  0  0  0
    1.3946    3.4204   -1.2344 H   0  0  0  0  0  0  0  0  0  0  0  0
   -2.6790    0.7987    1.8810 H   0  0  0  0  0  0  0  0  0  0  0  0
   -0.9251   -5.2918    1.0595 H   0  0  0  0  0  0  0  0  0  0  0  0
    0.5371   -4.7117    1.8984 H   0  0  0  0  0  0  0  0  0  0  0  0
   -1.0387   -3.9212    2.1849 H   0  0  0  0  0  0  0  0  0  0  0  0
    3.2158    3.1401    1.7576 H   0  0  0  0  0  0  0  0  0  0  0  0
   -5.6956    1.8162   -0.1957 H   0  0  0  0  0  0  0  0  0  0  0  0
  1 12  1  0  0  0  0
  1 16  1  0  0  0  0
  2 13  1  0  0  0  0
  2 30  1  0  0  0  0
  3 15  1  0  0  0  0
  3 33  1  0  0  0  0
  4 16  1  0  0  0  0
  4 34  1  0  0  0  0
  5 17  1  0  0  0  0
  5 35  1  0  0  0  0
  6 18  1  0  0  0  0
  6 39  1  0  0  0  0
  7 19  1  0  0  0  0
  7 40  1  0  0  0  0
  8 18  2  0  0  0  0
  9 20  2  0  0  0  0
 10 11  1  0  0  0  0
 10 20  1  0  0  0  0
 10 29  1  0  0  0  0
 11 12  1  0  0  0  0
 11 13  1  0  0  0  0
 11 22  1  0  0  0  0
 12 15  1  0  0  0  0
 12 23  1  0  0  0  0
 13 14  1  0  0  0  0
 13 24  1  0  0  0  0
 14 16  1  0  0  0  0
 14 25  1  0  0  0  0
 14 26  1  0  0  0  0
 15 17  1  0  0  0  0
 15 27  1  0  0  0  0
 16 18  1  0  0  0  0
 17 19  1  0  0  0  0
 17 28  1  0  0  0  0
 19 31  1  0  0  0  0
 19 32  1  0  0  0  0
 20 21  1  0  0  0  0
 21 36  1  0  0  0  0
 21 37  1  0  0  0  0
 21 38  1  0  0  0  0
M  END
> <PUBCHEM_COMPOUND_CID>
444885

> <PUBCHEM_CONFORMER_RMSD>
0.8

> <PUBCHEM_CONFORMER_DIVERSEORDER>
1
47
44
8
48
25
19
32
5
41
24
31
22
29
33
43
28
18
35
26
2
16
17
3
40
36
6
15
37
12
39
34
7
30
21
9
14
38
27
46
10
13
11
42
4
23
20
45

> <PUBCHEM_MMFF94_PARTIAL_CHARGES>
27
1 -0.56
10 -0.73
11 0.3
12 0.28
13 0.28
15 0.28
16 0.62
17 0.28
18 0.66
19 0.28
2 -0.68
20 0.57
21 0.06
29 0.37
3 -0.68
30 0.4
33 0.4
34 0.4
35 0.4
39 0.5
4 -0.68
40 0.4
5 -0.68
6 -0.65
7 -0.68
8 -0.57
9 -0.57

> <PUBCHEM_EFFECTIVE_ROTOR_COUNT>
7.2

> <PUBCHEM_PHARMACOPHORE_FEATURES>
17
1 1 acceptor
1 10 donor
1 2 acceptor
1 2 donor
1 3 acceptor
1 3 donor
1 4 acceptor
1 4 donor
1 5 acceptor
1 5 donor
1 6 acceptor
1 7 acceptor
1 7 donor
1 8 acceptor
1 9 acceptor
3 6 8 18 anion
6 1 11 12 13 14 16 rings

> <PUBCHEM_HEAVY_ATOM_COUNT>
21

> <PUBCHEM_ATOM_DEF_STEREO_COUNT>
6

> <PUBCHEM_ATOM_UDEF_STEREO_COUNT>
0

> <PUBCHEM_BOND_DEF_STEREO_COUNT>
0

> <PUBCHEM_BOND_UDEF_STEREO_COUNT>
0

> <PUBCHEM_ISOTOPIC_ATOM_COUNT>
0

> <PUBCHEM_COMPONENT_COUNT>
1

> <PUBCHEM_CACTVS_TAUTO_COUNT>
2

> <PUBCHEM_CONFORMER_ID>
0006C9D500000001

> <PUBCHEM_MMFF94_ENERGY>
44.658

> <PUBCHEM_FEATURE_SELFOVERLAP>
86.396

> <PUBCHEM_SHAPE_FINGERPRINT>
10064457 181 18341603776883405661
1100329 8 18409736200373212386
12553582 1 17187556690804490027
12788726 201 17192068557953280768
13140716 1 18412269445346230923
13149001 5 18265872744978814870
14178342 30 18053390890139268384
15490181 8 18124042238711708548
15852999 172 17764346901052365380
16945 1 18054772138536248125
20510252 161 17328580623133874864
20559304 39 18192714677182192857
20600515 1 16188928557041397160
21041028 32 17402055990039232879
21524375 3 18334290968408249165
2255824 54 18341327889827984629
2334 1 18339640023557253999
23419403 2 15619683638086141924
23558518 356 18267874877948119695
23559900 14 18189878857155391588
257057 1 17476083904602967209
2748010 2 18270952462638925479
283562 15 17835230526437396918
3060560 45 18340769354937471943
3250762 1 18193546771319448134
350125 39 18268698442321977315
495365 180 18340217366252480929
7097593 13 17977097191717033305
7364860 26 18265054819901543783
81228 2 17765998290218708563
8272917 22 18196645427230695061
84936 182 18333456451830895777
9981440 41 17536618226098294728

> <PUBCHEM_SHAPE_MULTIPOLES>
374.37
5.06
4.92
1.25
2.71
5.72
0.14
-5.2
-0.21
1.75
1.32
-0.21
-0.13
0.52

> <PUBCHEM_SHAPE_SELFOVERLAP>
759.964

> <PUBCHEM_SHAPE_VOLUME>
214.6

> <PUBCHEM_COORDINATE_TYPE>
2
5
10

$$$$

