10163
  -OEChem-07051212593D

 30 32  0     0  0  0  0  0  0999 V2000
    1.9138   -2.3341   -0.2163 O   0  0  0  0  0  0  0  0  0  0  0  0
    3.7677    2.0523   -0.1566 O   0  0  0  0  0  0  0  0  0  0  0  0
   -0.6445   -2.5319   -0.1187 O   0  0  0  0  0  0  0  0  0  0  0  0
   -1.2039    2.7795    0.0686 O   0  0  0  0  0  0  0  0  0  0  0  0
    4.6913   -0.9729    1.0558 O   0  0  0  0  0  0  0  0  0  0  0  0
    0.4317   -0.4265   -0.0977 C   0  0  0  0  0  0  0  0  0  0  0  0
    0.2779    0.9605   -0.0486 C   0  0  0  0  0  0  0  0  0  0  0  0
   -2.0968   -0.7101   -0.0044 C   0  0  0  0  0  0  0  0  0  0  0  0
   -2.2505    0.6771    0.0447 C   0  0  0  0  0  0  0  0  0  0  0  0
    1.7137   -0.9849   -0.1668 C   0  0  0  0  0  0  0  0  0  0  0  0
   -0.7500   -1.3126   -0.0773 C   0  0  0  0  0  0  0  0  0  0  0  0
   -1.0688    1.5630    0.0244 C   0  0  0  0  0  0  0  0  0  0  0  0
    2.8354   -0.1554   -0.1866 C   0  0  0  0  0  0  0  0  0  0  0  0
    1.4062    1.7893   -0.0686 C   0  0  0  0  0  0  0  0  0  0  0  0
    2.6819    1.2287   -0.1376 C   0  0  0  0  0  0  0  0  0  0  0  0
   -3.2251   -1.5388    0.0155 C   0  0  0  0  0  0  0  0  0  0  0  0
   -3.5325    1.2355    0.1137 C   0  0  0  0  0  0  0  0  0  0  0  0
    4.2076   -0.7467   -0.2609 C   0  0  0  0  0  0  0  0  0  0  0  0
   -4.5008   -0.9781    0.0841 C   0  0  0  0  0  0  0  0  0  0  0  0
   -4.6542    0.4061    0.1332 C   0  0  0  0  0  0  0  0  0  0  0  0
    1.2979    2.8705   -0.0309 H   0  0  0  0  0  0  0  0  0  0  0  0
   -3.1343   -2.6211   -0.0216 H   0  0  0  0  0  0  0  0  0  0  0  0
   -3.6789    2.3116    0.1528 H   0  0  0  0  0  0  0  0  0  0  0  0
    4.2368   -1.6815   -0.8308 H   0  0  0  0  0  0  0  0  0  0  0  0
    4.9019   -0.0697   -0.7714 H   0  0  0  0  0  0  0  0  0  0  0  0
   -5.3758   -1.6216    0.0995 H   0  0  0  0  0  0  0  0  0  0  0  0
   -5.6485    0.8400    0.1866 H   0  0  0  0  0  0  0  0  0  0  0  0
    2.7435   -2.5630    0.2334 H   0  0  0  0  0  0  0  0  0  0  0  0
    3.4677    2.9765   -0.1161 H   0  0  0  0  0  0  0  0  0  0  0  0
    5.5855   -1.3456    0.9715 H   0  0  0  0  0  0  0  0  0  0  0  0
  1 10  1  0  0  0  0
  1 28  1  0  0  0  0
  2 15  1  0  0  0  0
  2 29  1  0  0  0  0
  3 11  2  0  0  0  0
  4 12  2  0  0  0  0
  5 18  1  0  0  0  0
  5 30  1  0  0  0  0
  6  7  1  0  0  0  0
  6 10  2  0  0  0  0
  6 11  1  0  0  0  0
  7 12  1  0  0  0  0
  7 14  2  0  0  0  0
  8  9  1  0  0  0  0
  8 11  1  0  0  0  0
  8 16  2  0  0  0  0
  9 12  1  0  0  0  0
  9 17  2  0  0  0  0
 10 13  1  0  0  0  0
 13 15  2  0  0  0  0
 13 18  1  0  0  0  0
 14 15  1  0  0  0  0
 14 21  1  0  0  0  0
 16 19  1  0  0  0  0
 16 22  1  0  0  0  0
 17 20  1  0  0  0  0
 17 23  1  0  0  0  0
 18 24  1  0  0  0  0
 18 25  1  0  0  0  0
 19 20  2  0  0  0  0
 19 26  1  0  0  0  0
 20 27  1  0  0  0  0
M  END
> <PUBCHEM_COMPOUND_CID>
10163

> <PUBCHEM_CONFORMER_RMSD>
0.6

> <PUBCHEM_CONFORMER_DIVERSEORDER>
1

> <PUBCHEM_MMFF94_PARTIAL_CHARGES>
28
1 -0.53
10 0.08
11 0.4
12 0.4
13 -0.14
14 -0.15
15 0.08
16 -0.15
17 -0.15
18 0.42
19 -0.15
2 -0.53
20 -0.15
21 0.15
22 0.15
23 0.15
26 0.15
27 0.15
28 0.45
29 0.45
3 -0.57
30 0.4
4 -0.57
5 -0.68
6 0.09
7 0.09
8 0.09
9 0.09

> <PUBCHEM_EFFECTIVE_ROTOR_COUNT>
1

> <PUBCHEM_PHARMACOPHORE_FEATURES>
9
1 1 donor
1 2 donor
1 3 acceptor
1 4 acceptor
1 5 acceptor
1 5 donor
6 6 7 10 13 14 15 rings
6 6 7 8 9 11 12 rings
6 8 9 16 17 19 20 rings

> <PUBCHEM_HEAVY_ATOM_COUNT>
20

> <PUBCHEM_ATOM_DEF_STEREO_COUNT>
0

> <PUBCHEM_ATOM_UDEF_STEREO_COUNT>
0

> <PUBCHEM_BOND_DEF_STEREO_COUNT>
0

> <PUBCHEM_BOND_UDEF_STEREO_COUNT>
0

> <PUBCHEM_ISOTOPIC_ATOM_COUNT>
0

> <PUBCHEM_COMPONENT_COUNT>
1

> <PUBCHEM_CACTVS_TAUTO_COUNT>
12

> <PUBCHEM_CONFORMER_ID>
000027B300000001

> <PUBCHEM_MMFF94_ENERGY>
62.484

> <PUBCHEM_FEATURE_SELFOVERLAP>
45.711

> <PUBCHEM_SHAPE_FINGERPRINT>
10062212 137 18409454665509331719
10608611 8 18410856559924957549
10616163 171 18408600392203307407
10759866 29 18058721404357659460
10967382 1 18410008797657316173
11132069 177 18260830418633484411
11471102 20 18410294679249399621
12236239 1 17846495972240931574
12403259 226 18410860987999504820
13140716 1 18338803290998218194
13221675 6 18409729581701625399
13862211 1 18410579487189667367
14178342 30 18048039854925781792
14790565 3 18337942398868528764
15196674 1 18410572855859992869
15442244 35 18411419514199447008
15536298 74 18334854995997463388
16945 1 18338228374943857820
17802600 8 18410295825905414688
17804303 29 18408601470261087180
1813 80 17418093247883127846
18186145 218 17846786186874624983
19591789 44 18338234860582221815
200 152 18113622278937457127
20028762 73 18042405742861314143
20510252 161 18188208835175790289
21267235 1 18410564089826746311
21421861 104 17986393514578702211
21501502 16 18410292467478379140
221490 88 18269264686388629755
2334 1 18193835938112704303
23402539 116 18334303067088502879
23463225 33 18412261714215343373
23559900 14 18262799691667857646
2748010 2 18337950069769023717
2871803 45 18413109463465830877
335352 9 18410572932910857341
34934 24 18265054617985528260
350125 39 18411138031092172940
474 4 17416398762994577756
5104073 3 18410571760522059473
69090 78 18408042892347048375
7364860 26 18335135423287094502
8809292 202 18271802406501923067
9709674 26 18409441509713566679
9981440 41 17333933049927750896

> <PUBCHEM_SHAPE_MULTIPOLES>
382.24
8.32
2.49
0.65
0.08
0.25
0.04
-0.83
0.76
0.28
-0.05
0.2
-0.05
-0.22

> <PUBCHEM_SHAPE_SELFOVERLAP>
864.059

> <PUBCHEM_SHAPE_VOLUME>
199.4

> <PUBCHEM_COORDINATE_TYPE>
2
5
10

$$$$

