23724528
  -OEChem-07051213032D

 42 41  0     0  0  0  0  0  0999 V2000
    6.5803    5.1200    0.0000 Na  0  3  0  0  0  0  0  0  0  0  0  0
    5.3409   11.7380    0.0000 O   0  0  0  0  0  0  0  0  0  0  0  0
    3.6088    8.7380    0.0000 O   0  0  0  0  0  0  0  0  0  0  0  0
    6.5803    4.1200    0.0000 O   0  5  0  0  0  0  0  0  0  0  0  0
    4.8483    4.1200    0.0000 O   0  0  0  0  0  0  0  0  0  0  0  0
    0.5369    5.7916    0.0000 O   0  0  0  0  0  0  0  0  0  0  0  0
    5.3409    8.7380    0.0000 N   0  0  0  0  0  0  0  0  0  0  0  0
    7.1531   10.5428    0.0000 N   0  0  0  0  0  0  0  0  0  0  0  0
    4.4749   10.2380    0.0000 N   0  0  0  0  0  0  0  0  0  0  0  0
    7.1531    8.9333    0.0000 N   0  0  0  0  0  0  0  0  0  0  0  0
    6.2069   10.2380    0.0000 C   0  0  0  0  0  0  0  0  0  0  0  0
    6.2069    9.2380    0.0000 C   0  0  0  0  0  0  0  0  0  0  0  0
    5.3409   10.7380    0.0000 C   0  0  0  0  0  0  0  0  0  0  0  0
    4.4749    9.2380    0.0000 C   0  0  0  0  0  0  0  0  0  0  0  0
    7.7367    9.7380    0.0000 C   0  0  0  0  0  0  0  0  0  0  0  0
    5.3409    7.7380    0.0000 C   0  0  0  0  0  0  0  0  0  0  0  0
    7.4638   11.4933    0.0000 C   0  0  0  0  0  0  0  0  0  0  0  0
    3.6088   10.7380    0.0000 C   0  0  0  0  0  0  0  0  0  0  0  0
    5.7143    2.6200    0.0000 C   0  0  0  0  0  0  0  0  0  0  0  0
    4.8483    2.1200    0.0000 C   0  0  0  0  0  0  0  0  0  0  0  0
    6.5803    2.1200    0.0000 C   0  0  0  0  0  0  0  0  0  0  0  0
    4.8483    1.1200    0.0000 C   0  0  0  0  0  0  0  0  0  0  0  0
    6.5803    1.1200    0.0000 C   0  0  0  0  0  0  0  0  0  0  0  0
    5.7143    0.6200    0.0000 C   0  0  0  0  0  0  0  0  0  0  0  0
    5.7143    3.6200    0.0000 C   0  0  0  0  0  0  0  0  0  0  0  0
    8.3567    9.7380    0.0000 H   0  0  0  0  0  0  0  0  0  0  0  0
    4.7209    7.7380    0.0000 H   0  0  0  0  0  0  0  0  0  0  0  0
    5.3409    7.1180    0.0000 H   0  0  0  0  0  0  0  0  0  0  0  0
    5.9609    7.7380    0.0000 H   0  0  0  0  0  0  0  0  0  0  0  0
    8.0531   11.3007    0.0000 H   0  0  0  0  0  0  0  0  0  0  0  0
    7.6564   12.0826    0.0000 H   0  0  0  0  0  0  0  0  0  0  0  0
    6.8745   11.6859    0.0000 H   0  0  0  0  0  0  0  0  0  0  0  0
    3.9188   11.2750    0.0000 H   0  0  0  0  0  0  0  0  0  0  0  0
    3.0719   11.0480    0.0000 H   0  0  0  0  0  0  0  0  0  0  0  0
    3.2988   10.2011    0.0000 H   0  0  0  0  0  0  0  0  0  0  0  0
    4.3114    2.4300    0.0000 H   0  0  0  0  0  0  0  0  0  0  0  0
    7.1173    2.4300    0.0000 H   0  0  0  0  0  0  0  0  0  0  0  0
    4.3114    0.8100    0.0000 H   0  0  0  0  0  0  0  0  0  0  0  0
    7.1173    0.8100    0.0000 H   0  0  0  0  0  0  0  0  0  0  0  0
    5.7143    0.0000    0.0000 H   0  0  0  0  0  0  0  0  0  0  0  0
    1.0739    6.1015    0.0000 H   0  0  0  0  0  0  0  0  0  0  0  0
    0.0000    6.1015    0.0000 H   0  0  0  0  0  0  0  0  0  0  0  0
  2 13  2  0  0  0  0
  3 14  2  0  0  0  0
  4 25  1  0  0  0  0
  5 25  2  0  0  0  0
  6 41  1  0  0  0  0
  6 42  1  0  0  0  0
  7 12  1  0  0  0  0
  7 14  1  0  0  0  0
  7 16  1  0  0  0  0
  8 11  1  0  0  0  0
  8 15  1  0  0  0  0
  8 17  1  0  0  0  0
  9 13  1  0  0  0  0
  9 14  1  0  0  0  0
  9 18  1  0  0  0  0
 10 12  1  0  0  0  0
 10 15  2  0  0  0  0
 11 12  2  0  0  0  0
 11 13  1  0  0  0  0
 15 26  1  0  0  0  0
 16 27  1  0  0  0  0
 16 28  1  0  0  0  0
 16 29  1  0  0  0  0
 17 30  1  0  0  0  0
 17 31  1  0  0  0  0
 17 32  1  0  0  0  0
 18 33  1  0  0  0  0
 18 34  1  0  0  0  0
 18 35  1  0  0  0  0
 19 20  2  0  0  0  0
 19 21  1  0  0  0  0
 19 25  1  0  0  0  0
 20 22  1  0  0  0  0
 20 36  1  0  0  0  0
 21 23  2  0  0  0  0
 21 37  1  0  0  0  0
 22 24  2  0  0  0  0
 22 38  1  0  0  0  0
 23 24  1  0  0  0  0
 23 39  1  0  0  0  0
 24 40  1  0  0  0  0
M  CHG  2   1   1   4  -1
M  END
> <PUBCHEM_COMPOUND_CID>
23724528

> <PUBCHEM_COMPOUND_CANONICALIZED>
1

> <PUBCHEM_CACTVS_COMPLEXITY>
401

> <PUBCHEM_CACTVS_HBOND_ACCEPTOR>
6

> <PUBCHEM_CACTVS_HBOND_DONOR>
1

> <PUBCHEM_CACTVS_ROTATABLE_BOND>
1

> <PUBCHEM_CACTVS_SUBSKEYS>
AAADceBzuCAAAAAAAAAAAAAAAAAAAWAAAAA8QAAAAAAAAFgBwAAAHgAACAAADAiBngQ3uJcMEACoAyfzfACCgC03EKAJ2AGoXMiIbjrAXTCUMYgsxyNIieeIyCCOAAAAAAAAAAAAAAAAAAAAAAAAAAAAAA==

> <PUBCHEM_IUPAC_OPENEYE_NAME>
sodium 1,3,7-trimethylpurine-2,6-dione benzoate hydrate

> <PUBCHEM_IUPAC_CAS_NAME>
sodium 1,3,7-trimethylpurine-2,6-dione benzoate hydrate

> <PUBCHEM_IUPAC_NAME>
sodium 1,3,7-trimethylpurine-2,6-dione benzoate hydrate

> <PUBCHEM_IUPAC_SYSTEMATIC_NAME>
sodium 1,3,7-trimethylpurine-2,6-dione benzoate hydrate

> <PUBCHEM_IUPAC_TRADITIONAL_NAME>
sodium caffeine benzoate hydrate

> <PUBCHEM_IUPAC_INCHI>
InChI=1S/C8H10N4O2.C7H6O2.Na.H2O/c1-10-4-9-6-5(10)7(13)12(3)8(14)11(6)2;8-7(9)6-4-2-1-3-5-6;;/h4H,1-3H3;1-5H,(H,8,9);;1H2/q;;+1;/p-1

> <PUBCHEM_IUPAC_INCHIKEY>
HTHKREDUAUMZTC-UHFFFAOYSA-M

> <PUBCHEM_EXACT_MASS>
356.109664

> <PUBCHEM_MOLECULAR_FORMULA>
C15H17N4NaO5

> <PUBCHEM_MOLECULAR_WEIGHT>
356.309049

> <PUBCHEM_OPENEYE_CAN_SMILES>
CN1C=NC2=C1C(=O)N(C(=O)N2C)C.C1=CC=C(C=C1)C(=O)[O-].O.[Na+]

> <PUBCHEM_OPENEYE_ISO_SMILES>
CN1C=NC2=C1C(=O)N(C(=O)N2C)C.C1=CC=C(C=C1)C(=O)[O-].O.[Na+]

> <PUBCHEM_CACTVS_TPSA>
99.6

> <PUBCHEM_MONOISOTOPIC_WEIGHT>
356.109664

> <PUBCHEM_TOTAL_CHARGE>
0

> <PUBCHEM_HEAVY_ATOM_COUNT>
25

> <PUBCHEM_ATOM_DEF_STEREO_COUNT>
0

> <PUBCHEM_ATOM_UDEF_STEREO_COUNT>
0

> <PUBCHEM_BOND_DEF_STEREO_COUNT>
0

> <PUBCHEM_BOND_UDEF_STEREO_COUNT>
0

> <PUBCHEM_ISOTOPIC_ATOM_COUNT>
0

> <PUBCHEM_COMPONENT_COUNT>
4

> <PUBCHEM_CACTVS_TAUTO_COUNT>
1

> <PUBCHEM_NONSTANDARDBOND>
1  4  7

> <PUBCHEM_COORDINATE_TYPE>
1
5
255

> <PUBCHEM_BONDANNOTATIONS>
10  12  8
10  15  8
11  12  8
11  13  8
19  20  8
19  21  8
20  22  8
21  23  8
22  24  8
23  24  8
7  12  8
7  14  8
8  11  8
8  15  8
9  13  8
9  14  8

$$$$

