10303
  -OEChem-06261204273D

 35 36  0     0  0  0  0  0  0999 V2000
   -3.3205   -2.6689    0.7195 O   0  0  0  0  0  0  0  0  0  0  0  0
   -1.6171   -2.2081   -0.7131 O   0  0  0  0  0  0  0  0  0  0  0  0
    5.1428   -0.0786   -0.1547 N   0  0  0  0  0  0  0  0  0  0  0  0
   -0.3718    0.5198    0.6045 N   0  0  0  0  0  0  0  0  0  0  0  0
   -0.9616    0.4780   -0.5000 N   0  0  0  0  0  0  0  0  0  0  0  0
    3.7536    0.0724    0.0365 C   0  0  0  0  0  0  0  0  0  0  0  0
    3.1819    1.3447    0.0240 C   0  0  0  0  0  0  0  0  0  0  0  0
    2.9511   -1.0507    0.2378 C   0  0  0  0  0  0  0  0  0  0  0  0
    1.0125    0.3702    0.4136 C   0  0  0  0  0  0  0  0  0  0  0  0
    1.8079    1.4940    0.2132 C   0  0  0  0  0  0  0  0  0  0  0  0
    1.5773   -0.9014    0.4269 C   0  0  0  0  0  0  0  0  0  0  0  0
    6.0591    0.9624    0.2668 C   0  0  0  0  0  0  0  0  0  0  0  0
    5.6734   -1.2828   -0.7622 C   0  0  0  0  0  0  0  0  0  0  0  0
   -2.3412    0.6267   -0.3093 C   0  0  0  0  0  0  0  0  0  0  0  0
   -3.1605   -0.4838   -0.1062 C   0  0  0  0  0  0  0  0  0  0  0  0
   -2.8938    1.9075   -0.3245 C   0  0  0  0  0  0  0  0  0  0  0  0
   -4.5322   -0.3135    0.0820 C   0  0  0  0  0  0  0  0  0  0  0  0
   -4.2653    2.0778   -0.1361 C   0  0  0  0  0  0  0  0  0  0  0  0
   -5.0845    0.9674    0.0670 C   0  0  0  0  0  0  0  0  0  0  0  0
   -2.6110   -1.8330   -0.0856 C   0  0  0  0  0  0  0  0  0  0  0  0
    3.7762    2.2387   -0.1420 H   0  0  0  0  0  0  0  0  0  0  0  0
    3.3656   -2.0544    0.2660 H   0  0  0  0  0  0  0  0  0  0  0  0
    1.3700    2.4885    0.2004 H   0  0  0  0  0  0  0  0  0  0  0  0
    0.9610   -1.7815    0.5890 H   0  0  0  0  0  0  0  0  0  0  0  0
    6.0825    1.7779   -0.4637 H   0  0  0  0  0  0  0  0  0  0  0  0
    7.0802    0.5761    0.3612 H   0  0  0  0  0  0  0  0  0  0  0  0
    5.7836    1.3663    1.2476 H   0  0  0  0  0  0  0  0  0  0  0  0
    6.6882   -1.1193   -1.1421 H   0  0  0  0  0  0  0  0  0  0  0  0
    5.0661   -1.6028   -1.6165 H   0  0  0  0  0  0  0  0  0  0  0  0
    5.7228   -2.0969   -0.0315 H   0  0  0  0  0  0  0  0  0  0  0  0
   -2.2647    2.7797   -0.4830 H   0  0  0  0  0  0  0  0  0  0  0  0
   -5.1994   -1.1588    0.2294 H   0  0  0  0  0  0  0  0  0  0  0  0
   -4.6956    3.0749   -0.1487 H   0  0  0  0  0  0  0  0  0  0  0  0
   -6.1529    1.1002    0.2104 H   0  0  0  0  0  0  0  0  0  0  0  0
   -2.9437   -3.5746    0.7281 H   0  0  0  0  0  0  0  0  0  0  0  0
  1 20  1  0  0  0  0
  1 35  1  0  0  0  0
  2 20  2  0  0  0  0
  3  6  1  0  0  0  0
  3 12  1  0  0  0  0
  3 13  1  0  0  0  0
  4  5  2  0  0  0  0
  4  9  1  0  0  0  0
  5 14  1  0  0  0  0
  6  7  2  0  0  0  0
  6  8  1  0  0  0  0
  7 10  1  0  0  0  0
  7 21  1  0  0  0  0
  8 11  2  0  0  0  0
  8 22  1  0  0  0  0
  9 10  2  0  0  0  0
  9 11  1  0  0  0  0
 10 23  1  0  0  0  0
 11 24  1  0  0  0  0
 12 25  1  0  0  0  0
 12 26  1  0  0  0  0
 12 27  1  0  0  0  0
 13 28  1  0  0  0  0
 13 29  1  0  0  0  0
 13 30  1  0  0  0  0
 14 15  1  0  0  0  0
 14 16  2  0  0  0  0
 15 17  2  0  0  0  0
 15 20  1  0  0  0  0
 16 18  1  0  0  0  0
 16 31  1  0  0  0  0
 17 19  1  0  0  0  0
 17 32  1  0  0  0  0
 18 19  2  0  0  0  0
 18 33  1  0  0  0  0
 19 34  1  0  0  0  0
M  END
> <PUBCHEM_COMPOUND_CID>
10303

> <PUBCHEM_CONFORMER_RMSD>
0.6

> <PUBCHEM_CONFORMER_DIVERSEORDER>
1
5
11
10
8
7
12
3
2
9
4
6

> <PUBCHEM_MMFF94_PARTIAL_CHARGES>
29
1 -0.65
10 -0.15
11 -0.15
12 0.37
13 0.37
14 0.18
15 0.09
16 -0.15
17 -0.15
18 -0.15
19 -0.15
2 -0.57
20 0.63
21 0.15
22 0.15
23 0.15
24 0.15
3 -0.84
31 0.15
32 0.15
33 0.15
34 0.15
35 0.5
4 -0.18
5 -0.18
6 0.1
7 -0.15
8 -0.15
9 0.18

> <PUBCHEM_EFFECTIVE_ROTOR_COUNT>
4

> <PUBCHEM_PHARMACOPHORE_FEATURES>
6
1 1 acceptor
1 2 acceptor
1 3 cation
3 1 2 20 anion
6 14 15 16 17 18 19 rings
6 6 7 8 9 10 11 rings

> <PUBCHEM_HEAVY_ATOM_COUNT>
20

> <PUBCHEM_ATOM_DEF_STEREO_COUNT>
0

> <PUBCHEM_ATOM_UDEF_STEREO_COUNT>
0

> <PUBCHEM_BOND_DEF_STEREO_COUNT>
0

> <PUBCHEM_BOND_UDEF_STEREO_COUNT>
0

> <PUBCHEM_ISOTOPIC_ATOM_COUNT>
0

> <PUBCHEM_COMPONENT_COUNT>
1

> <PUBCHEM_CACTVS_TAUTO_COUNT>
1

> <PUBCHEM_CONFORMER_ID>
0000283F00000001

> <PUBCHEM_MMFF94_ENERGY>
74.3464

> <PUBCHEM_FEATURE_SELFOVERLAP>
30.503

> <PUBCHEM_SHAPE_FINGERPRINT>
10616163 171 18411419484087709867
11405975 8 18409732837534879336
12107183 9 17620197971465817880
12166972 35 5328446116977730867
12236239 1 17846498144871845676
12596602 18 6555399882977729086
12616971 3 16989124236651390540
12788726 201 17678459881509514577
13167823 11 18341614793912252658
13675066 3 18113624456575709368
14341114 176 18410569595922013780
14617045 38 18412538838379854531
15042514 8 18268144267820444907
15196674 1 18409730634359002942
15242433 33 18411420643707339082
15788980 27 18343016701265475880
17844677 252 18410004438629981768
18222031 100 5689591693747720578
19489759 90 7997971271364102220
200 152 17967253095887195632
20645477 56 18412548729942725233
20645477 70 17168140200151988582
20681677 155 18412829105027688529
21065198 57 18336266756132426592
21267235 1 18412537700508530411
221490 88 18267018363048526696
23175994 123 17240198828828823545
23402539 116 16845297141975756228
23402655 69 18413108368560478040
23557571 272 18335416902427209060
23559900 14 18335428932430171184
300161 21 18341902908591995744
3004659 81 18340766053046702318
3545911 37 18410575101864378473
4073 2 18201153261817281962
4214541 1 18410856564082742257
4921388 177 17131545046917356475
5104073 3 18410578353465676880
542803 24 17060335236531864724
559249 180 18338520845237559594
633830 44 17632015252327524072
77779 3 18411419488271543604
9709674 26 18407758140563790983

> <PUBCHEM_SHAPE_MULTIPOLES>
384.91
13.13
2.22
0.73
10.28
0.75
0.01
-1.33
0.8
-1.98
0.01
0.1
0.1
0.64

> <PUBCHEM_SHAPE_SELFOVERLAP>
824.207

> <PUBCHEM_SHAPE_VOLUME>
214.2

> <PUBCHEM_COORDINATE_TYPE>
2
5
10

$$$$

