10911986
  -OEChem-07051213102D

 43 44  0     1  0  0  0  0  0999 V2000
    9.6448   -0.8988    0.0000 O   0  0  0  0  0  0  0  0  0  0  0  0
    2.5000   -1.6012    0.0000 O   0  0  0  0  0  0  0  0  0  0  0  0
    5.3147   -0.3988    0.0000 N   0  0  0  0  0  0  0  0  0  0  0  0
    6.1808    0.1012    0.0000 C   0  0  2  0  0  0  0  0  0  0  0  0
    6.1808    1.1012    0.0000 C   0  0  1  0  0  0  0  0  0  0  0  0
    5.3147    1.6012    0.0000 C   0  0  0  0  0  0  0  0  0  0  0  0
    4.4487    0.1012    0.0000 C   0  0  1  0  0  0  0  0  0  0  0  0
    4.4487    1.1012    0.0000 C   0  0  0  0  0  0  0  0  0  0  0  0
    7.0468   -0.3988    0.0000 C   0  0  0  0  0  0  0  0  0  0  0  0
    7.9128    0.1012    0.0000 C   0  0  0  0  0  0  0  0  0  0  0  0
    7.0468    1.6012    0.0000 C   0  0  0  0  0  0  0  0  0  0  0  0
    8.7788   -0.3988    0.0000 C   0  0  0  0  0  0  0  0  0  0  0  0
    3.5827   -0.3988    0.0000 C   0  0  0  0  0  0  0  0  0  0  0  0
    9.2788    0.4672    0.0000 C   0  0  0  0  0  0  0  0  0  0  0  0
    8.2788   -1.2648    0.0000 C   0  0  0  0  0  0  0  0  0  0  0  0
    2.6691    0.0080    0.0000 C   0  0  0  0  0  0  0  0  0  0  0  0
    3.4782   -1.3933    0.0000 C   0  0  0  0  0  0  0  0  0  0  0  0
    2.0000   -0.7352    0.0000 C   0  0  0  0  0  0  0  0  0  0  0  0
    6.1808   -0.5188    0.0000 H   0  0  0  0  0  0  0  0  0  0  0  0
    6.1808    1.7212    0.0000 H   0  0  0  0  0  0  0  0  0  0  0  0
    5.7133    2.0762    0.0000 H   0  0  0  0  0  0  0  0  0  0  0  0
    4.9162    2.0762    0.0000 H   0  0  0  0  0  0  0  0  0  0  0  0
    3.9118    0.4112    0.0000 H   0  0  0  0  0  0  0  0  0  0  0  0
    4.2366    1.6838    0.0000 H   0  0  0  0  0  0  0  0  0  0  0  0
    3.8381    0.9936    0.0000 H   0  0  0  0  0  0  0  0  0  0  0  0
    6.6482   -0.8737    0.0000 H   0  0  0  0  0  0  0  0  0  0  0  0
    7.4453   -0.8737    0.0000 H   0  0  0  0  0  0  0  0  0  0  0  0
    5.3147   -1.0188    0.0000 H   0  0  0  0  0  0  0  0  0  0  0  0
    8.3113    0.5762    0.0000 H   0  0  0  0  0  0  0  0  0  0  0  0
    7.5143    0.5762    0.0000 H   0  0  0  0  0  0  0  0  0  0  0  0
    7.3568    1.0643    0.0000 H   0  0  0  0  0  0  0  0  0  0  0  0
    7.5837    1.9112    0.0000 H   0  0  0  0  0  0  0  0  0  0  0  0
    6.7368    2.1382    0.0000 H   0  0  0  0  0  0  0  0  0  0  0  0
    9.8158    0.1572    0.0000 H   0  0  0  0  0  0  0  0  0  0  0  0
    9.5888    1.0042    0.0000 H   0  0  0  0  0  0  0  0  0  0  0  0
    8.7419    0.7772    0.0000 H   0  0  0  0  0  0  0  0  0  0  0  0
    7.7419   -0.9548    0.0000 H   0  0  0  0  0  0  0  0  0  0  0  0
    7.9688   -1.8017    0.0000 H   0  0  0  0  0  0  0  0  0  0  0  0
    8.8158   -1.5748    0.0000 H   0  0  0  0  0  0  0  0  0  0  0  0
    2.5402    0.6144    0.0000 H   0  0  0  0  0  0  0  0  0  0  0  0
    3.9389   -1.8082    0.0000 H   0  0  0  0  0  0  0  0  0  0  0  0
   10.1818   -0.5888    0.0000 H   0  0  0  0  0  0  0  0  0  0  0  0
    1.3834   -0.6704    0.0000 H   0  0  0  0  0  0  0  0  0  0  0  0
  1 12  1  0  0  0  0
  1 42  1  0  0  0  0
  2 17  1  0  0  0  0
  2 18  1  0  0  0  0
  3  4  1  0  0  0  0
  3  7  1  0  0  0  0
  3 28  1  0  0  0  0
  4  5  1  0  0  0  0
  4  9  1  6  0  0  0
  4 19  1  0  0  0  0
  5  6  1  0  0  0  0
  5 11  1  1  0  0  0
  5 20  1  0  0  0  0
  6  8  1  0  0  0  0
  6 21  1  0  0  0  0
  6 22  1  0  0  0  0
  7  8  1  0  0  0  0
  7 13  1  6  0  0  0
  7 23  1  0  0  0  0
  8 24  1  0  0  0  0
  8 25  1  0  0  0  0
  9 10  1  0  0  0  0
  9 26  1  0  0  0  0
  9 27  1  0  0  0  0
 10 12  1  0  0  0  0
 10 29  1  0  0  0  0
 10 30  1  0  0  0  0
 11 31  1  0  0  0  0
 11 32  1  0  0  0  0
 11 33  1  0  0  0  0
 12 14  1  0  0  0  0
 12 15  1  0  0  0  0
 13 16  1  0  0  0  0
 13 17  2  0  0  0  0
 14 34  1  0  0  0  0
 14 35  1  0  0  0  0
 14 36  1  0  0  0  0
 15 37  1  0  0  0  0
 15 38  1  0  0  0  0
 15 39  1  0  0  0  0
 16 18  2  0  0  0  0
 16 40  1  0  0  0  0
 17 41  1  0  0  0  0
 18 43  1  0  0  0  0
M  END
> <PUBCHEM_COMPOUND_CID>
10911986

> <PUBCHEM_COMPOUND_CANONICALIZED>
1

> <PUBCHEM_CACTVS_COMPLEXITY>
267

> <PUBCHEM_CACTVS_HBOND_ACCEPTOR>
3

> <PUBCHEM_CACTVS_HBOND_DONOR>
2

> <PUBCHEM_CACTVS_ROTATABLE_BOND>
4

> <PUBCHEM_CACTVS_SUBSKEYS>
AAADceByMAAAAAAAAAAAAAAAAAAAASAAAAAsAAAAAAAAAAABgAAAHgAQCAAADWzhmAYyBILABkCIAihSgACCCAAkIAAIiIEODMgMJhoEtQuGWSjm0BGIKYO8yPCOAAAAAAAAAAAAAAAAAAAAAAAAAAAAAA==

> <PUBCHEM_IUPAC_OPENEYE_NAME>
4-[(2S,3R,6S)-6-(3-furyl)-3-methyl-2-piperidyl]-2-methyl-butan-2-ol

> <PUBCHEM_IUPAC_CAS_NAME>
4-[(2S,3R,6S)-6-(3-furanyl)-3-methyl-2-piperidinyl]-2-methyl-2-butanol

> <PUBCHEM_IUPAC_NAME>
4-[(2S,3R,6S)-6-(furan-3-yl)-3-methylpiperidin-2-yl]-2-methylbutan-2-ol

> <PUBCHEM_IUPAC_SYSTEMATIC_NAME>
4-[(2S,3R,6S)-6-(furan-3-yl)-3-methyl-piperidin-2-yl]-2-methyl-butan-2-ol

> <PUBCHEM_IUPAC_TRADITIONAL_NAME>
4-[(2S,3R,6S)-6-(3-furyl)-3-methyl-2-piperidyl]-2-methyl-butan-2-ol

> <PUBCHEM_IUPAC_INCHI>
InChI=1S/C15H25NO2/c1-11-4-5-14(12-7-9-18-10-12)16-13(11)6-8-15(2,3)17/h7,9-11,13-14,16-17H,4-6,8H2,1-3H3/t11-,13+,14+/m1/s1

> <PUBCHEM_IUPAC_INCHIKEY>
BHBDCRJVCZOPFM-XBFCOCLRSA-N

> <PUBCHEM_XLOGP3_AA>
2.4

> <PUBCHEM_EXACT_MASS>
251.188529

> <PUBCHEM_MOLECULAR_FORMULA>
C15H25NO2

> <PUBCHEM_MOLECULAR_WEIGHT>
251.3645

> <PUBCHEM_OPENEYE_CAN_SMILES>
CC1CCC(NC1CCC(C)(C)O)C2=COC=C2

> <PUBCHEM_OPENEYE_ISO_SMILES>
C[C@@H]1CC[C@H](N[C@H]1CCC(C)(C)O)C2=COC=C2

> <PUBCHEM_CACTVS_TPSA>
45.4

> <PUBCHEM_MONOISOTOPIC_WEIGHT>
251.188529

> <PUBCHEM_TOTAL_CHARGE>
0

> <PUBCHEM_HEAVY_ATOM_COUNT>
18

> <PUBCHEM_ATOM_DEF_STEREO_COUNT>
3

> <PUBCHEM_ATOM_UDEF_STEREO_COUNT>
0

> <PUBCHEM_BOND_DEF_STEREO_COUNT>
0

> <PUBCHEM_BOND_UDEF_STEREO_COUNT>
0

> <PUBCHEM_ISOTOPIC_ATOM_COUNT>
0

> <PUBCHEM_COMPONENT_COUNT>
1

> <PUBCHEM_CACTVS_TAUTO_COUNT>
1

> <PUBCHEM_COORDINATE_TYPE>
1
5
255

> <PUBCHEM_BONDANNOTATIONS>
13  16  8
13  17  8
16  18  8
2  17  8
2  18  8
4  9  6
5  11  5
7  13  6

$$$$

