441097
  -OEChem-07051213023D

 58 60  0     1  0  0  0  0  0999 V2000
   -0.7655   -3.2632   -1.1012 P   0  0  2  0  0  0  0  0  0  0  0  0
   -2.7565   -1.1203   -1.4184 P   0  0  1  0  0  0  0  0  0  0  0  0
    3.0654   -1.7230    0.1471 O   0  0  0  0  0  0  0  0  0  0  0  0
    3.8402   -2.3433    3.0431 O   0  0  0  0  0  0  0  0  0  0  0  0
    0.7254   -3.1332   -0.4868 O   0  0  0  0  0  0  0  0  0  0  0  0
   -1.4361    1.0146    1.2012 O   0  0  0  0  0  0  0  0  0  0  0  0
   -2.8231    0.2529   -0.5737 O   0  0  0  0  0  0  0  0  0  0  0  0
   -1.3008   -1.7381   -1.0829 O   0  0  0  0  0  0  0  0  0  0  0  0
   -4.9511   -0.0251    1.1797 O   0  0  0  0  0  0  0  0  0  0  0  0
    4.9577    1.9391    0.4188 O   0  0  0  0  0  0  0  0  0  0  0  0
   -1.6155   -3.9612    0.0851 O   0  0  0  0  0  0  0  0  0  0  0  0
   -5.0757    2.7026    1.1008 O   0  0  0  0  0  0  0  0  0  0  0  0
   -0.8629   -3.9433   -2.4355 O   0  0  0  0  0  0  0  0  0  0  0  0
    1.9598    3.5578   -2.6699 O   0  0  0  0  0  0  0  0  0  0  0  0
   -3.7698   -2.1211   -0.6510 O   0  0  0  0  0  0  0  0  0  0  0  0
   -3.0348   -0.9622   -2.8852 O   0  0  0  0  0  0  0  0  0  0  0  0
    3.1318    0.5977   -0.1443 N   0  0  0  0  0  0  0  0  0  0  0  0
    3.4543    2.7345   -1.1197 N   0  0  0  0  0  0  0  0  0  0  0  0
    2.6388   -1.8243    2.4771 C   0  0  2  0  0  0  0  0  0  0  0  0
    2.3637   -2.4968    1.1394 C   0  0  1  0  0  0  0  0  0  0  0  0
    2.8394   -0.3755    2.0970 C   0  0  0  0  0  0  0  0  0  0  0  0
    3.4909   -0.4821    0.7278 C   0  0  1  0  0  0  0  0  0  0  0  0
    0.8857   -2.5008    0.7709 C   0  0  0  0  0  0  0  0  0  0  0  0
    1.9793    0.4753   -0.9096 C   0  0  0  0  0  0  0  0  0  0  0  0
    3.9241    1.7626   -0.2294 C   0  0  0  0  0  0  0  0  0  0  0  0
   -1.5811    2.4048    0.8780 C   0  0  1  0  0  0  0  0  0  0  0  0
   -2.5766    0.2315    0.8314 C   0  0  2  0  0  0  0  0  0  0  0  0
   -3.8145    0.7008    1.5925 C   0  0  1  0  0  0  0  0  0  0  0  0
   -2.7566    3.0200    1.6341 C   0  0  0  0  0  0  0  0  0  0  0  0
    1.5325    1.4072   -1.7606 C   0  0  0  0  0  0  0  0  0  0  0  0
   -3.9940    2.1923    1.3797 C   0  0  0  0  0  0  0  0  0  0  0  0
    2.3142    2.6639   -1.9060 C   0  0  0  0  0  0  0  0  0  0  0  0
   -0.2774    3.1005    1.2458 C   0  0  0  0  0  0  0  0  0  0  0  0
    0.2883    1.2555   -2.5755 C   0  0  0  0  0  0  0  0  0  0  0  0
    1.8410   -1.9622    3.2129 H   0  0  0  0  0  0  0  0  0  0  0  0
    2.7650   -3.5151    1.0909 H   0  0  0  0  0  0  0  0  0  0  0  0
    3.4663    0.1848    2.7977 H   0  0  0  0  0  0  0  0  0  0  0  0
    1.8676    0.1292    2.0338 H   0  0  0  0  0  0  0  0  0  0  0  0
    4.5816   -0.5276    0.8314 H   0  0  0  0  0  0  0  0  0  0  0  0
    0.4629   -1.4940    0.7401 H   0  0  0  0  0  0  0  0  0  0  0  0
    0.3387   -3.0719    1.5276 H   0  0  0  0  0  0  0  0  0  0  0  0
    3.6896   -3.2858    3.2297 H   0  0  0  0  0  0  0  0  0  0  0  0
    1.4093   -0.4348   -0.8155 H   0  0  0  0  0  0  0  0  0  0  0  0
   -1.7339    2.5012   -0.2035 H   0  0  0  0  0  0  0  0  0  0  0  0
   -2.3576   -0.7979    1.1359 H   0  0  0  0  0  0  0  0  0  0  0  0
   -3.6697    0.5487    2.6689 H   0  0  0  0  0  0  0  0  0  0  0  0
   -2.5822    3.0147    2.7161 H   0  0  0  0  0  0  0  0  0  0  0  0
   -2.9305    4.0513    1.3110 H   0  0  0  0  0  0  0  0  0  0  0  0
    4.0089    3.5824   -1.1977 H   0  0  0  0  0  0  0  0  0  0  0  0
   -0.0765    3.0122    2.3193 H   0  0  0  0  0  0  0  0  0  0  0  0
    0.5687    2.6344    0.7351 H   0  0  0  0  0  0  0  0  0  0  0  0
   -0.3050    4.1618    0.9810 H   0  0  0  0  0  0  0  0  0  0  0  0
   -0.4457    2.0193   -2.3011 H   0  0  0  0  0  0  0  0  0  0  0  0
   -0.1760    0.2760   -2.4352 H   0  0  0  0  0  0  0  0  0  0  0  0
    0.5151    1.3598   -3.6416 H   0  0  0  0  0  0  0  0  0  0  0  0
   -5.6935    0.2447    1.7468 H   0  0  0  0  0  0  0  0  0  0  0  0
   -1.7012   -3.5101    0.9514 H   0  0  0  0  0  0  0  0  0  0  0  0
   -3.9920   -2.9813   -1.0667 H   0  0  0  0  0  0  0  0  0  0  0  0
  1  5  1  0  0  0  0
  1  8  1  0  0  0  0
  1 11  1  0  0  0  0
  1 13  2  0  0  0  0
  2  7  1  0  0  0  0
  2  8  1  0  0  0  0
  2 15  1  0  0  0  0
  2 16  2  0  0  0  0
  3 20  1  0  0  0  0
  3 22  1  0  0  0  0
  4 19  1  0  0  0  0
  4 42  1  0  0  0  0
  5 23  1  0  0  0  0
  6 26  1  0  0  0  0
  6 27  1  0  0  0  0
  7 27  1  0  0  0  0
  9 28  1  0  0  0  0
  9 56  1  0  0  0  0
 10 25  2  0  0  0  0
 11 57  1  0  0  0  0
 12 31  2  0  0  0  0
 14 32  2  0  0  0  0
 15 58  1  0  0  0  0
 17 22  1  0  0  0  0
 17 24  1  0  0  0  0
 17 25  1  0  0  0  0
 18 25  1  0  0  0  0
 18 32  1  0  0  0  0
 18 49  1  0  0  0  0
 19 20  1  0  0  0  0
 19 21  1  0  0  0  0
 19 35  1  0  0  0  0
 20 23  1  0  0  0  0
 20 36  1  0  0  0  0
 21 22  1  0  0  0  0
 21 37  1  0  0  0  0
 21 38  1  0  0  0  0
 22 39  1  0  0  0  0
 23 40  1  0  0  0  0
 23 41  1  0  0  0  0
 24 30  2  0  0  0  0
 24 43  1  0  0  0  0
 26 29  1  0  0  0  0
 26 33  1  0  0  0  0
 26 44  1  0  0  0  0
 27 28  1  0  0  0  0
 27 45  1  0  0  0  0
 28 31  1  0  0  0  0
 28 46  1  0  0  0  0
 29 31  1  0  0  0  0
 29 47  1  0  0  0  0
 29 48  1  0  0  0  0
 30 32  1  0  0  0  0
 30 34  1  0  0  0  0
 33 50  1  0  0  0  0
 33 51  1  0  0  0  0
 33 52  1  0  0  0  0
 34 53  1  0  0  0  0
 34 54  1  0  0  0  0
 34 55  1  0  0  0  0
M  END
> <PUBCHEM_COMPOUND_CID>
441097

> <PUBCHEM_CONFORMER_RMSD>
1.6

> <PUBCHEM_CONFORMER_DIVERSEORDER>
1
6
83
38
14
91
57
101
31
29
61
68
48
108
43
23
102
73
65
79
33
86
82
27
39
46
25
64
41
32
93
100
47
20
99
36
77
80
107
18
89
94
62
9
54
21
90
81
59
95
105
52
49
66
26
104
92
70
87
22
103
44
60
50
19
58
88
76
35
55
53
24
17
78
40
2
106
67
74
3
45
84
75
15
109
30
98
34
37
97
16
28
8
63
110
69
51
72
96
7
10
42
85
71
12
5
4
11
56
13

> <PUBCHEM_MMFF94_PARTIAL_CHARGES>
38
1 1.51
10 -0.57
11 -0.77
12 -0.57
13 -0.7
14 -0.57
15 -0.77
16 -0.7
17 -0.47
18 -0.49
19 0.28
2 1.51
20 0.28
22 0.58
23 0.28
24 -0.04
25 0.69
26 0.28
27 0.56
28 0.34
29 0.06
3 -0.56
30 -0.12
31 0.45
32 0.62
34 0.14
4 -0.68
42 0.4
43 0.15
49 0.37
5 -0.55
56 0.4
57 0.5
58 0.5
6 -0.56
7 -0.55
8 -0.54
9 -0.68

> <PUBCHEM_EFFECTIVE_ROTOR_COUNT>
10

> <PUBCHEM_PHARMACOPHORE_FEATURES>
17
1 10 acceptor
1 11 acceptor
1 12 acceptor
1 13 acceptor
1 14 acceptor
1 15 acceptor
1 16 acceptor
1 18 donor
1 3 acceptor
1 4 acceptor
1 4 donor
1 6 acceptor
1 9 acceptor
1 9 donor
5 3 19 20 21 22 rings
6 17 18 24 25 30 32 rings
6 6 26 27 28 29 31 rings

> <PUBCHEM_HEAVY_ATOM_COUNT>
34

> <PUBCHEM_ATOM_DEF_STEREO_COUNT>
6

> <PUBCHEM_ATOM_UDEF_STEREO_COUNT>
0

> <PUBCHEM_BOND_DEF_STEREO_COUNT>
0

> <PUBCHEM_BOND_UDEF_STEREO_COUNT>
0

> <PUBCHEM_ISOTOPIC_ATOM_COUNT>
0

> <PUBCHEM_COMPONENT_COUNT>
1

> <PUBCHEM_CACTVS_TAUTO_COUNT>
15

> <PUBCHEM_CONFORMER_ID>
0006BB0900000001

> <PUBCHEM_MMFF94_ENERGY>
27.5876

> <PUBCHEM_FEATURE_SELFOVERLAP>
86.296

> <PUBCHEM_SHAPE_FINGERPRINT>
10708813 3 18200887153843107782
11513181 2 17967816097676234958
12539773 59 18120951515710670038
12788726 201 17975678503599608559
13009979 54 18194147156334903058
13583140 156 17274834557537590547
13965767 371 18341327889828036684
15274700 34 18199189667479422561
15297060 5 17967802864871056378
15420108 30 18339365283611905800
19319366 153 18056188086142817723
20511986 3 18411138026243831009
20764821 26 17545601154155144785
21860390 5 17844509179992766976
23559900 14 17757533524238229193
3052486 1 18113905931198953361
35225 105 17458635531111686620
469060 322 17910705333225069375
474144 1 18342171155169674681
50150288 127 16610477535845208405
513202 73 17264995247546734666
6287921 2 18262794210778164279

> <PUBCHEM_SHAPE_MULTIPOLES>
615.27
8.46
5.23
2.87
3.01
1.8
-0.63
-3.7
3.91
-0.13
-1.33
-0.71
0.07
-4.88

> <PUBCHEM_SHAPE_SELFOVERLAP>
1254.708

> <PUBCHEM_SHAPE_VOLUME>
357.3

> <PUBCHEM_COORDINATE_TYPE>
2
5
10

$$$$

