236416
  -OEChem-07051213073D

 62 65  0     1  0  0  0  0  0999 V2000
   -4.2237    0.5977   -0.2068 O   0  0  0  0  0  0  0  0  0  0  0  0
    6.6477    0.7093    1.1225 O   0  0  0  0  0  0  0  0  0  0  0  0
   -5.6663   -0.4611    1.2497 O   0  0  0  0  0  0  0  0  0  0  0  0
    0.5374   -0.8409   -0.1299 C   0  0  2  0  0  0  0  0  0  0  0  0
    1.1929    0.5334    0.2229 C   0  0  1  0  0  0  0  0  0  0  0  0
   -0.9102   -0.8372    0.3773 C   0  0  1  0  0  0  0  0  0  0  0  0
    2.6957    0.6093   -0.2410 C   0  0  2  0  0  0  0  0  0  0  0  0
   -1.7606    0.2859   -0.2482 C   0  0  2  0  0  0  0  0  0  0  0  0
    3.4566   -0.6290    0.3500 C   0  0  1  0  0  0  0  0  0  0  0  0
    0.3252    1.7348   -0.2449 C   0  0  0  0  0  0  0  0  0  0  0  0
    1.3325   -2.0013    0.4852 C   0  0  0  0  0  0  0  0  0  0  0  0
   -1.1525    1.6294    0.1716 C   0  0  0  0  0  0  0  0  0  0  0  0
    2.8137   -2.0101    0.0807 C   0  0  1  0  0  0  0  0  0  0  0  0
   -1.7700   -2.0847    0.1832 C   0  0  0  0  0  0  0  0  0  0  0  0
   -3.1187   -0.0368    0.4075 C   0  0  2  0  0  0  0  0  0  0  0  0
    3.3742    1.8775    0.3681 C   0  0  0  0  0  0  0  0  0  0  0  0
   -3.2140   -1.5738    0.3399 C   0  0  0  0  0  0  0  0  0  0  0  0
    4.9618   -0.6118    0.0493 C   0  0  0  0  0  0  0  0  0  0  0  0
    2.7900    0.7177   -1.7812 C   0  0  0  0  0  0  0  0  0  0  0  0
   -1.8687    0.2267   -1.7927 C   0  0  0  0  0  0  0  0  0  0  0  0
    4.8764    1.9592    0.1077 C   0  0  0  0  0  0  0  0  0  0  0  0
    3.0078   -2.5817   -1.3256 C   0  0  0  0  0  0  0  0  0  0  0  0
    5.5743    0.6865    0.5214 C   0  0  0  0  0  0  0  0  0  0  0  0
   -5.4590    0.2985    0.3135 C   0  0  0  0  0  0  0  0  0  0  0  0
   -6.5233    1.0528   -0.4483 C   0  0  0  0  0  0  0  0  0  0  0  0
   -7.9190    0.7497    0.0680 C   0  0  0  0  0  0  0  0  0  0  0  0
    0.5278   -0.9824   -1.2147 H   0  0  0  0  0  0  0  0  0  0  0  0
    1.2036    0.5941    1.3230 H   0  0  0  0  0  0  0  0  0  0  0  0
   -0.8618   -0.6703    1.4667 H   0  0  0  0  0  0  0  0  0  0  0  0
    3.3862   -0.5095    1.4450 H   0  0  0  0  0  0  0  0  0  0  0  0
    0.3803    1.8445   -1.3324 H   0  0  0  0  0  0  0  0  0  0  0  0
    0.7200    2.6654    0.1771 H   0  0  0  0  0  0  0  0  0  0  0  0
    1.2726   -1.9346    1.5801 H   0  0  0  0  0  0  0  0  0  0  0  0
    0.8748   -2.9604    0.2142 H   0  0  0  0  0  0  0  0  0  0  0  0
   -1.2155    1.7483    1.2612 H   0  0  0  0  0  0  0  0  0  0  0  0
   -1.7186    2.4626   -0.2620 H   0  0  0  0  0  0  0  0  0  0  0  0
    3.3119   -2.7249    0.7523 H   0  0  0  0  0  0  0  0  0  0  0  0
   -1.5405   -2.8597    0.9216 H   0  0  0  0  0  0  0  0  0  0  0  0
   -1.6249   -2.5209   -0.8114 H   0  0  0  0  0  0  0  0  0  0  0  0
   -3.0902    0.2738    1.4621 H   0  0  0  0  0  0  0  0  0  0  0  0
    3.2080    1.8881    1.4538 H   0  0  0  0  0  0  0  0  0  0  0  0
    2.9141    2.7919   -0.0237 H   0  0  0  0  0  0  0  0  0  0  0  0
   -3.8354   -1.9195   -0.4939 H   0  0  0  0  0  0  0  0  0  0  0  0
   -3.6508   -1.9766    1.2603 H   0  0  0  0  0  0  0  0  0  0  0  0
    5.1855   -0.7247   -1.0148 H   0  0  0  0  0  0  0  0  0  0  0  0
    5.4550   -1.4334    0.5819 H   0  0  0  0  0  0  0  0  0  0  0  0
    3.7969    0.5204   -2.1575 H   0  0  0  0  0  0  0  0  0  0  0  0
    2.1112    0.0372   -2.2968 H   0  0  0  0  0  0  0  0  0  0  0  0
    2.5262    1.7265   -2.1200 H   0  0  0  0  0  0  0  0  0  0  0  0
   -0.8983    0.2963   -2.2906 H   0  0  0  0  0  0  0  0  0  0  0  0
   -2.3395   -0.6978   -2.1417 H   0  0  0  0  0  0  0  0  0  0  0  0
   -2.4797    1.0571   -2.1658 H   0  0  0  0  0  0  0  0  0  0  0  0
    5.2987    2.7936    0.6784 H   0  0  0  0  0  0  0  0  0  0  0  0
    5.0896    2.1395   -0.9507 H   0  0  0  0  0  0  0  0  0  0  0  0
    4.0653   -2.6244   -1.6010 H   0  0  0  0  0  0  0  0  0  0  0  0
    2.6289   -3.6097   -1.3659 H   0  0  0  0  0  0  0  0  0  0  0  0
    2.4757   -2.0207   -2.0936 H   0  0  0  0  0  0  0  0  0  0  0  0
   -6.3240    2.1251   -0.3505 H   0  0  0  0  0  0  0  0  0  0  0  0
   -6.4582    0.7704   -1.5044 H   0  0  0  0  0  0  0  0  0  0  0  0
   -8.0169    1.0270    1.1229 H   0  0  0  0  0  0  0  0  0  0  0  0
   -8.6666    1.3082   -0.5036 H   0  0  0  0  0  0  0  0  0  0  0  0
   -8.1475   -0.3177   -0.0201 H   0  0  0  0  0  0  0  0  0  0  0  0
  1 15  1  0  0  0  0
  1 24  1  0  0  0  0
  2 23  2  0  0  0  0
  3 24  2  0  0  0  0
  4  5  1  0  0  0  0
  4  6  1  0  0  0  0
  4 11  1  0  0  0  0
  4 27  1  0  0  0  0
  5  7  1  0  0  0  0
  5 10  1  0  0  0  0
  5 28  1  0  0  0  0
  6  8  1  0  0  0  0
  6 14  1  0  0  0  0
  6 29  1  0  0  0  0
  7  9  1  0  0  0  0
  7 16  1  0  0  0  0
  7 19  1  0  0  0  0
  8 12  1  0  0  0  0
  8 15  1  0  0  0  0
  8 20  1  0  0  0  0
  9 13  1  0  0  0  0
  9 18  1  0  0  0  0
  9 30  1  0  0  0  0
 10 12  1  0  0  0  0
 10 31  1  0  0  0  0
 10 32  1  0  0  0  0
 11 13  1  0  0  0  0
 11 33  1  0  0  0  0
 11 34  1  0  0  0  0
 12 35  1  0  0  0  0
 12 36  1  0  0  0  0
 13 22  1  0  0  0  0
 13 37  1  0  0  0  0
 14 17  1  0  0  0  0
 14 38  1  0  0  0  0
 14 39  1  0  0  0  0
 15 17  1  0  0  0  0
 15 40  1  0  0  0  0
 16 21  1  0  0  0  0
 16 41  1  0  0  0  0
 16 42  1  0  0  0  0
 17 43  1  0  0  0  0
 17 44  1  0  0  0  0
 18 23  1  0  0  0  0
 18 45  1  0  0  0  0
 18 46  1  0  0  0  0
 19 47  1  0  0  0  0
 19 48  1  0  0  0  0
 19 49  1  0  0  0  0
 20 50  1  0  0  0  0
 20 51  1  0  0  0  0
 20 52  1  0  0  0  0
 21 23  1  0  0  0  0
 21 53  1  0  0  0  0
 21 54  1  0  0  0  0
 22 55  1  0  0  0  0
 22 56  1  0  0  0  0
 22 57  1  0  0  0  0
 24 25  1  0  0  0  0
 25 26  1  0  0  0  0
 25 58  1  0  0  0  0
 25 59  1  0  0  0  0
 26 60  1  0  0  0  0
 26 61  1  0  0  0  0
 26 62  1  0  0  0  0
M  END
> <PUBCHEM_COMPOUND_CID>
236416

> <PUBCHEM_CONFORMER_RMSD>
0.8

> <PUBCHEM_CONFORMER_DIVERSEORDER>
1
2

> <PUBCHEM_MMFF94_PARTIAL_CHARGES>
9
1 -0.43
15 0.28
18 0.06
2 -0.57
21 0.06
23 0.45
24 0.66
25 0.06
3 -0.57

> <PUBCHEM_EFFECTIVE_ROTOR_COUNT>
5

> <PUBCHEM_PHARMACOPHORE_FEATURES>
7
1 2 acceptor
1 26 hydrophobe
1 3 acceptor
5 6 8 14 15 17 rings
6 4 5 6 8 10 12 rings
6 4 5 7 9 11 13 rings
6 7 9 16 18 21 23 rings

> <PUBCHEM_HEAVY_ATOM_COUNT>
26

> <PUBCHEM_ATOM_DEF_STEREO_COUNT>
8

> <PUBCHEM_ATOM_UDEF_STEREO_COUNT>
0

> <PUBCHEM_BOND_DEF_STEREO_COUNT>
0

> <PUBCHEM_BOND_UDEF_STEREO_COUNT>
0

> <PUBCHEM_ISOTOPIC_ATOM_COUNT>
0

> <PUBCHEM_COMPONENT_COUNT>
1

> <PUBCHEM_CACTVS_TAUTO_COUNT>
3

> <PUBCHEM_CONFORMER_ID>
00039B8000000001

> <PUBCHEM_MMFF94_ENERGY>
85.4409

> <PUBCHEM_FEATURE_SELFOVERLAP>
35.611

> <PUBCHEM_SHAPE_FINGERPRINT>
10 15 18131635560803304888
10366900 7 6338962173926506614
10411042 1 17833550476802352146
10906281 52 18270666585594900018
11089746 13 17530969055376475713
12236239 1 17675926512519617375
12616971 3 16773795849065545783
12788726 201 17240757428154434793
12838862 33 18339379507778614568
13140716 1 18195808462136789680
13402501 40 18342176657059496264
13533116 47 17894631508435324531
14170010 4 18411981381963502126
14251764 18 18409167689122314743
14790565 3 17764862498981688604
15142383 8 17275110547972517293
15196674 1 18339923714589597698
17980427 23 17986958449423842004
1813 80 16917063360825951495
19141452 34 18342458102024436615
20157964 124 18334293197443527983
21150785 3 16732707130138352253
21267235 1 18339356474570496050
21279426 13 18195528314916994365
21421861 104 17916880113538976274
21623969 137 18342168960552182371
21792934 111 18268723859822293497
21859007 373 17630902679635707917
22149856 69 18266997571702749611
22182313 1 17987807430707606949
22224240 67 18260838068550351104
23402539 116 18335146336914804340
23522609 53 9582395148030513527
23557571 272 17060342958730017692
23559900 14 18335424525983467128
255183 451 17679856287637879358
300161 21 18334296461539545107
3004659 81 18273492394523018118
335352 9 18411136935674643438
34797466 226 16949997028386635141
34934 24 18408325462519411479
350125 39 18343864411835286748
3545911 37 18412544314309773288
3633792 109 18262236737646211977
4073 2 17988357070605272987
4093350 32 17531242902380427407
42630746 31 18409447007535040326
4340502 62 18342175570126984055
5104073 3 18270955860411686049
9709674 26 18409726283662887086

> <PUBCHEM_SHAPE_MULTIPOLES>
517.46
15.43
2.24
1.08
17.9
0.78
-0.42
-5.41
2.73
-1.83
-0.11
-0.3
0.05
0.85

> <PUBCHEM_SHAPE_SELFOVERLAP>
1088.604

> <PUBCHEM_SHAPE_VOLUME>
288.3

> <PUBCHEM_COORDINATE_TYPE>
2
5
10

$$$$

