6326996
  -OEChem-07051212502D

  5  4  0     0  0  0  0  0  0999 V2000
    2.8660    0.0600    0.0000 P   0  3  0  0  0  0  0  0  0  0  0  0
    3.7320    0.5600    0.0000 O   0  0  0  0  0  0  0  0  0  0  0  0
    2.0000    0.5600    0.0000 O   0  0  0  0  0  0  0  0  0  0  0  0
    2.8660   -0.5600    0.0000 H   0  0  0  0  0  0  0  0  0  0  0  0
    4.2690    0.2500    0.0000 H   0  0  0  0  0  0  0  0  0  0  0  0
  1  2  1  0  0  0  0
  1  3  2  0  0  0  0
  1  4  1  0  0  0  0
  2  5  1  0  0  0  0
M  CHG  1   1   1
M  END
> <PUBCHEM_COMPOUND_CID>
6326996

> <PUBCHEM_COMPOUND_CANONICALIZED>
1

> <PUBCHEM_CACTVS_COMPLEXITY>
10.3

> <PUBCHEM_CACTVS_HBOND_ACCEPTOR>
2

> <PUBCHEM_CACTVS_HBOND_DONOR>
1

> <PUBCHEM_CACTVS_ROTATABLE_BOND>
0

> <PUBCHEM_CACTVS_SUBSKEYS>
AAADcQAAMAIAAAAAAAAAAAAAAAAAAAAAAAAAAAAAAAAAAAAAAAAAAAAACCAQAAAAAAAAAAAAABAAQAAAAIAAAAAAAAAAAAAAAAAAAAAAAAAAAAAAAAAAAAAAAAAAAAAAAAAAAAAAAAAAAAAAAAAAAAAAAA==

> <PUBCHEM_IUPAC_OPENEYE_NAME>
hydroxy(oxo)phosphonium

> <PUBCHEM_IUPAC_CAS_NAME>
hydroxy(oxo)phosphonium

> <PUBCHEM_IUPAC_NAME>
hydroxy(oxo)phosphanium

> <PUBCHEM_IUPAC_SYSTEMATIC_NAME>
oxidanyl(oxidanylidene)phosphanium

> <PUBCHEM_IUPAC_TRADITIONAL_NAME>
hydroxy(keto)phosphonium

> <PUBCHEM_IUPAC_INCHI>
InChI=1S/HO2P/c1-3-2/h3H/p+1

> <PUBCHEM_IUPAC_INCHIKEY>
GFYXELHUDBJJEV-UHFFFAOYSA-O

> <PUBCHEM_XLOGP3_AA>
-0.7

> <PUBCHEM_EXACT_MASS>
64.979241

> <PUBCHEM_MOLECULAR_FORMULA>
H2O2P+

> <PUBCHEM_MOLECULAR_WEIGHT>
64.988442

> <PUBCHEM_OPENEYE_CAN_SMILES>
O[PH+]=O

> <PUBCHEM_OPENEYE_ISO_SMILES>
O[PH+]=O

> <PUBCHEM_CACTVS_TPSA>
37.3

> <PUBCHEM_MONOISOTOPIC_WEIGHT>
64.979241

> <PUBCHEM_TOTAL_CHARGE>
1

> <PUBCHEM_HEAVY_ATOM_COUNT>
3

> <PUBCHEM_ATOM_DEF_STEREO_COUNT>
0

> <PUBCHEM_ATOM_UDEF_STEREO_COUNT>
0

> <PUBCHEM_BOND_DEF_STEREO_COUNT>
0

> <PUBCHEM_BOND_UDEF_STEREO_COUNT>
0

> <PUBCHEM_ISOTOPIC_ATOM_COUNT>
0

> <PUBCHEM_COMPONENT_COUNT>
1

> <PUBCHEM_CACTVS_TAUTO_COUNT>
1

> <PUBCHEM_COORDINATE_TYPE>
1
5
255

$$$$

