165531
  -OEChem-07051213083D

 81 84  0     1  0  0  0  0  0999 V2000
   -0.0954    0.3818    1.7718 O   0  0  0  0  0  0  0  0  0  0  0  0
   -2.4161    1.1396   -2.3052 O   0  0  0  0  0  0  0  0  0  0  0  0
   -5.2954    3.7767    0.7435 O   0  0  0  0  0  0  0  0  0  0  0  0
    5.8641   -0.5757   -1.5704 O   0  0  0  0  0  0  0  0  0  0  0  0
    7.1121    1.0436    2.0963 O   0  0  0  0  0  0  0  0  0  0  0  0
    6.0104    3.5611   -1.1559 O   0  0  0  0  0  0  0  0  0  0  0  0
   -0.0709   -1.5251    0.2116 C   0  0  1  0  0  0  0  0  0  0  0  0
   -0.7399   -0.7553   -0.9512 C   0  0  2  0  0  0  0  0  0  0  0  0
   -2.2712   -0.8843   -0.9581 C   0  0  1  0  0  0  0  0  0  0  0  0
   -2.8334   -0.3281    0.3935 C   0  0  1  0  0  0  0  0  0  0  0  0
   -4.4067   -0.4314    0.4569 C   0  0  2  0  0  0  0  0  0  0  0  0
    1.4143   -1.2454   -0.1388 C   0  0  2  0  0  0  0  0  0  0  0  0
   -0.5730   -0.9446    1.5492 C   0  0  2  0  0  0  0  0  0  0  0  0
   -2.1145   -0.9511    1.6274 C   0  0  0  0  0  0  0  0  0  0  0  0
   -5.0238    0.3128   -0.7741 C   0  0  2  0  0  0  0  0  0  0  0  0
    0.0350   -1.2184   -2.1842 C   0  0  0  0  0  0  0  0  0  0  0  0
   -2.9097   -0.1904   -2.1771 C   0  0  1  0  0  0  0  0  0  0  0  0
    1.4715   -1.4278   -1.6730 C   0  0  0  0  0  0  0  0  0  0  0  0
   -4.4394   -0.1822   -2.1125 C   0  0  0  0  0  0  0  0  0  0  0  0
   -4.9963    0.1864    1.7595 C   0  0  0  0  0  0  0  0  0  0  0  0
   -0.3632   -3.0507    0.1915 C   0  0  0  0  0  0  0  0  0  0  0  0
    2.4526   -2.0806    0.5965 C   0  0  1  0  0  0  0  0  0  0  0  0
   -4.9271    1.8489   -0.6580 C   0  0  0  0  0  0  0  0  0  0  0  0
   -4.8738   -1.9119    0.4442 C   0  0  0  0  0  0  0  0  0  0  0  0
   -4.8570    1.7000    1.8483 C   0  0  0  0  0  0  0  0  0  0  0  0
   -5.5119    2.3727    0.6500 C   0  0  1  0  0  0  0  0  0  0  0  0
    3.8962   -1.7840    0.1358 C   0  0  0  0  0  0  0  0  0  0  0  0
    2.2989   -1.9271    2.1122 C   0  0  0  0  0  0  0  0  0  0  0  0
    4.3388   -0.3184    0.2735 C   0  0  0  0  0  0  0  0  0  0  0  0
    5.7795   -0.1094   -0.2219 C   0  0  2  0  0  0  0  0  0  0  0  0
    6.2754    1.3557   -0.1676 C   0  0  0  0  0  0  0  0  0  0  0  0
    6.3322    1.9010    1.2722 C   0  0  0  0  0  0  0  0  0  0  0  0
    5.4377    2.2615   -1.0859 C   0  0  0  0  0  0  0  0  0  0  0  0
   -0.5010    0.3124   -0.8258 H   0  0  0  0  0  0  0  0  0  0  0  0
   -2.5273   -1.9453   -1.0393 H   0  0  0  0  0  0  0  0  0  0  0  0
   -2.5741    0.7371    0.4352 H   0  0  0  0  0  0  0  0  0  0  0  0
    1.6097   -0.1840    0.0646 H   0  0  0  0  0  0  0  0  0  0  0  0
   -0.2301   -1.5381    2.3979 H   0  0  0  0  0  0  0  0  0  0  0  0
   -2.4079   -0.3976    2.5263 H   0  0  0  0  0  0  0  0  0  0  0  0
   -2.4508   -1.9828    1.7683 H   0  0  0  0  0  0  0  0  0  0  0  0
   -6.0994    0.0828   -0.8010 H   0  0  0  0  0  0  0  0  0  0  0  0
    0.0053   -0.4754   -2.9877 H   0  0  0  0  0  0  0  0  0  0  0  0
   -0.3687   -2.1547   -2.5851 H   0  0  0  0  0  0  0  0  0  0  0  0
   -2.6121   -0.7142   -3.0926 H   0  0  0  0  0  0  0  0  0  0  0  0
    1.8188   -2.4267   -1.9609 H   0  0  0  0  0  0  0  0  0  0  0  0
    2.1541   -0.7000   -2.1254 H   0  0  0  0  0  0  0  0  0  0  0  0
   -4.8009   -1.2007   -2.2993 H   0  0  0  0  0  0  0  0  0  0  0  0
   -4.8350    0.4386   -2.9264 H   0  0  0  0  0  0  0  0  0  0  0  0
   -6.0686   -0.0508    1.8128 H   0  0  0  0  0  0  0  0  0  0  0  0
   -4.5569   -0.2745    2.6505 H   0  0  0  0  0  0  0  0  0  0  0  0
    0.0877   -3.5576    1.0502 H   0  0  0  0  0  0  0  0  0  0  0  0
   -1.4324   -3.2744    0.2362 H   0  0  0  0  0  0  0  0  0  0  0  0
    0.0215   -3.5407   -0.7083 H   0  0  0  0  0  0  0  0  0  0  0  0
    2.2954   -3.1433    0.3691 H   0  0  0  0  0  0  0  0  0  0  0  0
   -5.4555    2.3195   -1.4973 H   0  0  0  0  0  0  0  0  0  0  0  0
   -3.9000    2.2104   -0.7314 H   0  0  0  0  0  0  0  0  0  0  0  0
   -5.9682   -1.9731    0.4055 H   0  0  0  0  0  0  0  0  0  0  0  0
   -4.4974   -2.4745   -0.4131 H   0  0  0  0  0  0  0  0  0  0  0  0
   -4.5609   -2.4411    1.3499 H   0  0  0  0  0  0  0  0  0  0  0  0
   -5.3263    2.0597    2.7724 H   0  0  0  0  0  0  0  0  0  0  0  0
   -3.8031    1.9930    1.9250 H   0  0  0  0  0  0  0  0  0  0  0  0
   -6.5947    2.2004    0.6625 H   0  0  0  0  0  0  0  0  0  0  0  0
   -0.4247    0.6737    2.6387 H   0  0  0  0  0  0  0  0  0  0  0  0
    4.5875   -2.4171    0.7076 H   0  0  0  0  0  0  0  0  0  0  0  0
    4.0010   -2.1026   -0.9081 H   0  0  0  0  0  0  0  0  0  0  0  0
   -2.1617    1.4870   -1.4374 H   0  0  0  0  0  0  0  0  0  0  0  0
    1.5003   -2.5556    2.5087 H   0  0  0  0  0  0  0  0  0  0  0  0
    3.2076   -2.2744    2.6189 H   0  0  0  0  0  0  0  0  0  0  0  0
    2.1500   -0.8870    2.4150 H   0  0  0  0  0  0  0  0  0  0  0  0
    3.6691    0.3034   -0.3263 H   0  0  0  0  0  0  0  0  0  0  0  0
    4.2474   -0.0025    1.3172 H   0  0  0  0  0  0  0  0  0  0  0  0
   -5.6938    4.0808    1.5768 H   0  0  0  0  0  0  0  0  0  0  0  0
    6.4498   -0.7488    0.3638 H   0  0  0  0  0  0  0  0  0  0  0  0
    7.3057    1.3603   -0.5514 H   0  0  0  0  0  0  0  0  0  0  0  0
    6.7905   -0.4894   -1.8533 H   0  0  0  0  0  0  0  0  0  0  0  0
    5.3365    2.0112    1.7140 H   0  0  0  0  0  0  0  0  0  0  0  0
    6.8082    2.8867    1.2855 H   0  0  0  0  0  0  0  0  0  0  0  0
    4.4176    2.3796   -0.7089 H   0  0  0  0  0  0  0  0  0  0  0  0
    5.3806    1.8681   -2.1055 H   0  0  0  0  0  0  0  0  0  0  0  0
    6.5647    0.2729    2.3223 H   0  0  0  0  0  0  0  0  0  0  0  0
    6.9115    3.4652   -1.5083 H   0  0  0  0  0  0  0  0  0  0  0  0
  1 13  1  0  0  0  0
  1 63  1  0  0  0  0
  2 17  1  0  0  0  0
  2 66  1  0  0  0  0
  3 26  1  0  0  0  0
  3 72  1  0  0  0  0
  4 30  1  0  0  0  0
  4 75  1  0  0  0  0
  5 32  1  0  0  0  0
  5 80  1  0  0  0  0
  6 33  1  0  0  0  0
  6 81  1  0  0  0  0
  7  8  1  0  0  0  0
  7 12  1  0  0  0  0
  7 13  1  0  0  0  0
  7 21  1  0  0  0  0
  8  9  1  0  0  0  0
  8 16  1  0  0  0  0
  8 34  1  0  0  0  0
  9 10  1  0  0  0  0
  9 17  1  0  0  0  0
  9 35  1  0  0  0  0
 10 11  1  0  0  0  0
 10 14  1  0  0  0  0
 10 36  1  0  0  0  0
 11 15  1  0  0  0  0
 11 20  1  0  0  0  0
 11 24  1  0  0  0  0
 12 18  1  0  0  0  0
 12 22  1  0  0  0  0
 12 37  1  0  0  0  0
 13 14  1  0  0  0  0
 13 38  1  0  0  0  0
 14 39  1  0  0  0  0
 14 40  1  0  0  0  0
 15 19  1  0  0  0  0
 15 23  1  0  0  0  0
 15 41  1  0  0  0  0
 16 18  1  0  0  0  0
 16 42  1  0  0  0  0
 16 43  1  0  0  0  0
 17 19  1  0  0  0  0
 17 44  1  0  0  0  0
 18 45  1  0  0  0  0
 18 46  1  0  0  0  0
 19 47  1  0  0  0  0
 19 48  1  0  0  0  0
 20 25  1  0  0  0  0
 20 49  1  0  0  0  0
 20 50  1  0  0  0  0
 21 51  1  0  0  0  0
 21 52  1  0  0  0  0
 21 53  1  0  0  0  0
 22 27  1  0  0  0  0
 22 28  1  0  0  0  0
 22 54  1  0  0  0  0
 23 26  1  0  0  0  0
 23 55  1  0  0  0  0
 23 56  1  0  0  0  0
 24 57  1  0  0  0  0
 24 58  1  0  0  0  0
 24 59  1  0  0  0  0
 25 26  1  0  0  0  0
 25 60  1  0  0  0  0
 25 61  1  0  0  0  0
 26 62  1  0  0  0  0
 27 29  1  0  0  0  0
 27 64  1  0  0  0  0
 27 65  1  0  0  0  0
 28 67  1  0  0  0  0
 28 68  1  0  0  0  0
 28 69  1  0  0  0  0
 29 30  1  0  0  0  0
 29 70  1  0  0  0  0
 29 71  1  0  0  0  0
 30 31  1  0  0  0  0
 30 73  1  0  0  0  0
 31 32  1  0  0  0  0
 31 33  1  0  0  0  0
 31 74  1  0  0  0  0
 32 76  1  0  0  0  0
 32 77  1  0  0  0  0
 33 78  1  0  0  0  0
 33 79  1  0  0  0  0
M  END
> <PUBCHEM_COMPOUND_CID>
165531

> <PUBCHEM_CONFORMER_RMSD>
1

> <PUBCHEM_CONFORMER_DIVERSEORDER>
1
4
17
11
3
8
14
5
12
15
13
7
6
2
16
9
10

> <PUBCHEM_MMFF94_PARTIAL_CHARGES>
18
1 -0.68
13 0.28
17 0.28
2 -0.68
26 0.28
3 -0.68
30 0.28
32 0.28
33 0.28
4 -0.68
5 -0.68
6 -0.68
63 0.4
66 0.4
72 0.4
75 0.4
80 0.4
81 0.4

> <PUBCHEM_EFFECTIVE_ROTOR_COUNT>
9.2

> <PUBCHEM_PHARMACOPHORE_FEATURES>
17
1 1 acceptor
1 1 donor
1 2 acceptor
1 2 donor
1 28 hydrophobe
1 3 acceptor
1 3 donor
1 4 acceptor
1 4 donor
1 5 acceptor
1 5 donor
1 6 acceptor
1 6 donor
5 7 8 12 16 18 rings
6 11 15 20 23 25 26 rings
6 7 8 9 10 13 14 rings
6 9 10 11 15 17 19 rings

> <PUBCHEM_HEAVY_ATOM_COUNT>
33

> <PUBCHEM_ATOM_DEF_STEREO_COUNT>
12

> <PUBCHEM_ATOM_UDEF_STEREO_COUNT>
0

> <PUBCHEM_BOND_DEF_STEREO_COUNT>
0

> <PUBCHEM_BOND_UDEF_STEREO_COUNT>
0

> <PUBCHEM_ISOTOPIC_ATOM_COUNT>
0

> <PUBCHEM_COMPONENT_COUNT>
1

> <PUBCHEM_CACTVS_TAUTO_COUNT>
1

> <PUBCHEM_CONFORMER_ID>
0002869B00000001

> <PUBCHEM_MMFF94_ENERGY>
118.8811

> <PUBCHEM_FEATURE_SELFOVERLAP>
86.385

> <PUBCHEM_SHAPE_FINGERPRINT>
10 15 16128369385372139406
10319926 262 15410624730632138298
10554248 39 17242176961847705870
10692045 39 17274555316671562858
12422481 6 18343577469086043252
1361 4 9654705496461193856
13690498 29 16010177292865973535
13782708 43 8646767781420667088
14211702 104 11023816293120461088
14251764 30 9295286119003168366
14840074 17 18113613473980589980
14856354 85 17749671775555595943
15183329 4 18202003205511759684
15361156 5 6050451435105066699
15475509 35 11167638968253590156
15575132 122 17821728346826531472
15840311 113 18340762771190535029
17349148 13 12031204278638473507
17913733 40 17846504755043149826
18393751 57 18059850654286615851
19958102 18 14345787275684816396
20567600 247 8718822072681680380
20691028 202 18409729594597447185
21033648 29 18202282511508594658
21298829 104 18334579015112690648
21599406 157 15430031041948138460
22122407 14 18412255126015411392
22393880 68 15502956189309500855
23559900 14 16055479568417496538
23569914 152 6697025656084373249
23569914 2 17905091153982373424
2748736 6 18411423882487558176
2838139 119 18259990344990598176
392239 28 17418374692283546357
4058900 60 17822846601860860239
4173938 77 18116430341504879264
4258327 124 18186802517898910901
474113 269 13398628317339537521
5104073 3 16199596933676852138
6608658 132 17240755220367424840

> <PUBCHEM_SHAPE_MULTIPOLES>
643.91
17.25
3.12
2.27
19.51
2.09
-0.28
15.03
2.22
0.75
0.35
-0.67
0.06
-1.02

> <PUBCHEM_SHAPE_SELFOVERLAP>
1332.278

> <PUBCHEM_SHAPE_VOLUME>
364.6

> <PUBCHEM_COORDINATE_TYPE>
2
5
10

$$$$

