12830
  -OEChem-06261207252D

 28 29  0     0  0  0  0  0  0999 V2000
    4.2788    1.5794    0.0000 O   0  0  0  0  0  0  0  0  0  0  0  0
    6.3479   -1.2685    0.0000 O   0  0  0  0  0  0  0  0  0  0  0  0
    7.2614    0.5003    0.0000 O   0  0  0  0  0  0  0  0  0  0  0  0
    4.5878   -0.9897    0.0000 N   0  0  0  0  0  0  0  0  0  0  0  0
    5.5388    0.3193    0.0000 N   0  0  0  0  0  0  0  0  0  0  0  0
    4.0000   -0.1807    0.0000 C   0  0  0  0  0  0  0  0  0  0  0  0
    3.5000   -1.0467    0.0000 C   0  0  0  0  0  0  0  0  0  0  0  0
    3.5000    0.6853    0.0000 C   0  0  0  0  0  0  0  0  0  0  0  0
    2.5000   -1.0467    0.0000 C   0  0  0  0  0  0  0  0  0  0  0  0
    2.5000    0.6853    0.0000 C   0  0  0  0  0  0  0  0  0  0  0  0
    2.0000   -0.1807    0.0000 C   0  0  0  0  0  0  0  0  0  0  0  0
    4.5878    0.6283    0.0000 C   0  0  0  0  0  0  0  0  0  0  0  0
    5.5388   -0.6807    0.0000 C   0  0  0  0  0  0  0  0  0  0  0  0
    6.3479    0.9071    0.0000 C   0  0  0  0  0  0  0  0  0  0  0  0
    3.3923   -1.6573    0.0000 H   0  0  0  0  0  0  0  0  0  0  0  0
    4.0826   -1.2588    0.0000 H   0  0  0  0  0  0  0  0  0  0  0  0
    4.0826    0.8974    0.0000 H   0  0  0  0  0  0  0  0  0  0  0  0
    3.3923    1.2959    0.0000 H   0  0  0  0  0  0  0  0  0  0  0  0
    1.9174   -1.2588    0.0000 H   0  0  0  0  0  0  0  0  0  0  0  0
    2.6077   -1.6573    0.0000 H   0  0  0  0  0  0  0  0  0  0  0  0
    2.6077    1.2959    0.0000 H   0  0  0  0  0  0  0  0  0  0  0  0
    1.9174    0.8974    0.0000 H   0  0  0  0  0  0  0  0  0  0  0  0
    1.5250    0.2178    0.0000 H   0  0  0  0  0  0  0  0  0  0  0  0
    1.5250   -0.5792    0.0000 H   0  0  0  0  0  0  0  0  0  0  0  0
    4.3962   -1.5794    0.0000 H   0  0  0  0  0  0  0  0  0  0  0  0
    6.6946    1.4211    0.0000 H   0  0  0  0  0  0  0  0  0  0  0  0
    5.9019    1.3378    0.0000 H   0  0  0  0  0  0  0  0  0  0  0  0
    7.7630    0.8648    0.0000 H   0  0  0  0  0  0  0  0  0  0  0  0
  1 12  2  0  0  0  0
  2 13  2  0  0  0  0
  3 14  1  0  0  0  0
  3 28  1  0  0  0  0
  4  6  1  0  0  0  0
  4 13  1  0  0  0  0
  4 25  1  0  0  0  0
  5 12  1  0  0  0  0
  5 13  1  0  0  0  0
  5 14  1  0  0  0  0
  6  7  1  0  0  0  0
  6  8  1  0  0  0  0
  6 12  1  0  0  0  0
  7  9  1  0  0  0  0
  7 15  1  0  0  0  0
  7 16  1  0  0  0  0
  8 10  1  0  0  0  0
  8 17  1  0  0  0  0
  8 18  1  0  0  0  0
  9 11  1  0  0  0  0
  9 19  1  0  0  0  0
  9 20  1  0  0  0  0
 10 11  1  0  0  0  0
 10 21  1  0  0  0  0
 10 22  1  0  0  0  0
 11 23  1  0  0  0  0
 11 24  1  0  0  0  0
 14 26  1  0  0  0  0
 14 27  1  0  0  0  0
M  END
> <PUBCHEM_COMPOUND_CID>
12830

> <PUBCHEM_COMPOUND_CANONICALIZED>
1

> <PUBCHEM_CACTVS_COMPLEXITY>
271

> <PUBCHEM_CACTVS_HBOND_ACCEPTOR>
3

> <PUBCHEM_CACTVS_HBOND_DONOR>
2

> <PUBCHEM_CACTVS_ROTATABLE_BOND>
1

> <PUBCHEM_CACTVS_SUBSKEYS>
AAADccBzMAAAAAAAAAAAAAAAAAAAAWAAAAAwAAAAAAAAAAAAAAAAHgAQCAAADIiBgAYBAAPAAgAIAAEQEAAAAAAAAAAAAAGIAACAUBIAgCAUAAAIFyIAAAEYiACOAAAAAAAAAAAAAAAAAAAAAAAAAAAAAA==

> <PUBCHEM_IUPAC_OPENEYE_NAME>
3-(hydroxymethyl)-1,3-diazaspiro[4.5]decane-2,4-dione

> <PUBCHEM_IUPAC_CAS_NAME>
3-(hydroxymethyl)-1,3-diazaspiro[4.5]decane-2,4-dione

> <PUBCHEM_IUPAC_NAME>
3-(hydroxymethyl)-1,3-diazaspiro[4.5]decane-2,4-dione

> <PUBCHEM_IUPAC_SYSTEMATIC_NAME>
3-(hydroxymethyl)-1,3-diazaspiro[4.5]decane-2,4-dione

> <PUBCHEM_IUPAC_TRADITIONAL_NAME>
3-methylol-1,3-diazaspiro[4.5]decane-2,4-quinone

> <PUBCHEM_IUPAC_INCHI>
InChI=1S/C9H14N2O3/c12-6-11-7(13)9(10-8(11)14)4-2-1-3-5-9/h12H,1-6H2,(H,10,14)

> <PUBCHEM_IUPAC_INCHIKEY>
FGVDKIGUEQOVMW-UHFFFAOYSA-N

> <PUBCHEM_XLOGP3_AA>
0.7

> <PUBCHEM_EXACT_MASS>
198.100442

> <PUBCHEM_MOLECULAR_FORMULA>
C9H14N2O3

> <PUBCHEM_MOLECULAR_WEIGHT>
198.21906

> <PUBCHEM_OPENEYE_CAN_SMILES>
C1CCC2(CC1)C(=O)N(C(=O)N2)CO

> <PUBCHEM_OPENEYE_ISO_SMILES>
C1CCC2(CC1)C(=O)N(C(=O)N2)CO

> <PUBCHEM_CACTVS_TPSA>
69.6

> <PUBCHEM_MONOISOTOPIC_WEIGHT>
198.100442

> <PUBCHEM_TOTAL_CHARGE>
0

> <PUBCHEM_HEAVY_ATOM_COUNT>
14

> <PUBCHEM_ATOM_DEF_STEREO_COUNT>
0

> <PUBCHEM_ATOM_UDEF_STEREO_COUNT>
0

> <PUBCHEM_BOND_DEF_STEREO_COUNT>
0

> <PUBCHEM_BOND_UDEF_STEREO_COUNT>
0

> <PUBCHEM_ISOTOPIC_ATOM_COUNT>
0

> <PUBCHEM_COMPONENT_COUNT>
1

> <PUBCHEM_CACTVS_TAUTO_COUNT>
2

> <PUBCHEM_COORDINATE_TYPE>
1
5
255

$$$$

