2484
  -OEChem-07051212543D

 51 53  0     1  0  0  0  0  0999 V2000
   -0.4864    0.9275   -0.6259 N   0  0  2  0  0  0  0  0  0  0  0  0
    5.6086   -0.6959    0.6535 C   0  0  0  0  0  0  0  0  0  0  0  0
    4.3181   -0.2201    0.0777 C   0  0  0  0  0  0  0  0  0  0  0  0
    6.0535   -2.0447    0.0076 C   0  0  0  0  0  0  0  0  0  0  0  0
    5.4909   -0.9276    2.1921 C   0  0  0  0  0  0  0  0  0  0  0  0
    6.8236    0.2734    0.4709 C   0  0  0  0  0  0  0  0  0  0  0  0
    0.6129    1.1454   -1.5754 C   0  0  0  0  0  0  0  0  0  0  0  0
    1.9141    0.6659   -0.9943 C   0  0  0  0  0  0  0  0  0  0  0  0
    3.1728   -1.0088    0.1871 C   0  0  0  0  0  0  0  0  0  0  0  0
    4.2560    1.0135   -0.5702 C   0  0  0  0  0  0  0  0  0  0  0  0
   -1.7545    1.3133   -1.2005 C   0  0  0  0  0  0  0  0  0  0  0  0
    1.9653   -0.5638   -0.3513 C   0  0  0  0  0  0  0  0  0  0  0  0
    3.0487    1.4586   -1.1086 C   0  0  0  0  0  0  0  0  0  0  0  0
   -2.8758    1.0315   -0.2487 C   0  0  0  0  0  0  0  0  0  0  0  0
   -3.5543   -0.1982   -0.2405 C   0  0  0  0  0  0  0  0  0  0  0  0
   -0.2225    1.6650    0.6166 C   0  0  0  0  0  0  0  0  0  0  0  0
   -4.6058   -0.4022    0.6845 C   0  0  0  0  0  0  0  0  0  0  0  0
   -3.2292    2.0456    0.6421 C   0  0  0  0  0  0  0  0  0  0  0  0
   -3.2122   -1.2299   -1.1299 C   0  0  0  0  0  0  0  0  0  0  0  0
   -4.9478    0.6293    1.5741 C   0  0  0  0  0  0  0  0  0  0  0  0
   -4.2630    1.8448    1.5520 C   0  0  0  0  0  0  0  0  0  0  0  0
   -5.2843   -1.6318    0.6929 C   0  0  0  0  0  0  0  0  0  0  0  0
   -3.8972   -2.4451   -1.1077 C   0  0  0  0  0  0  0  0  0  0  0  0
   -4.9314   -2.6456   -0.1981 C   0  0  0  0  0  0  0  0  0  0  0  0
    7.0164   -2.3809    0.4095 H   0  0  0  0  0  0  0  0  0  0  0  0
    5.3291   -2.8455    0.1925 H   0  0  0  0  0  0  0  0  0  0  0  0
    6.1603   -1.9396   -1.0785 H   0  0  0  0  0  0  0  0  0  0  0  0
    4.7517   -1.6990    2.4343 H   0  0  0  0  0  0  0  0  0  0  0  0
    6.4467   -1.2500    2.6212 H   0  0  0  0  0  0  0  0  0  0  0  0
    5.1865   -0.0061    2.7022 H   0  0  0  0  0  0  0  0  0  0  0  0
    7.0412    0.4495   -0.5891 H   0  0  0  0  0  0  0  0  0  0  0  0
    6.6428    1.2399    0.9557 H   0  0  0  0  0  0  0  0  0  0  0  0
    7.7331   -0.1446    0.9193 H   0  0  0  0  0  0  0  0  0  0  0  0
    0.6776    2.2065   -1.8514 H   0  0  0  0  0  0  0  0  0  0  0  0
    0.4336    0.5792   -2.4984 H   0  0  0  0  0  0  0  0  0  0  0  0
   -1.9276    0.8291   -2.1679 H   0  0  0  0  0  0  0  0  0  0  0  0
   -1.7583    2.3854   -1.4502 H   0  0  0  0  0  0  0  0  0  0  0  0
    3.1935   -1.9747    0.6834 H   0  0  0  0  0  0  0  0  0  0  0  0
    5.1147    1.6659   -0.6839 H   0  0  0  0  0  0  0  0  0  0  0  0
    1.0900   -1.2020   -0.2684 H   0  0  0  0  0  0  0  0  0  0  0  0
    3.0129    2.4207   -1.6119 H   0  0  0  0  0  0  0  0  0  0  0  0
   -0.3014    2.7503    0.4795 H   0  0  0  0  0  0  0  0  0  0  0  0
    0.7694    1.4741    1.0385 H   0  0  0  0  0  0  0  0  0  0  0  0
   -0.8898    1.3483    1.4242 H   0  0  0  0  0  0  0  0  0  0  0  0
   -2.7260    3.0088    0.6319 H   0  0  0  0  0  0  0  0  0  0  0  0
   -2.4048   -1.1428   -1.8501 H   0  0  0  0  0  0  0  0  0  0  0  0
   -5.7534    0.4948    2.2931 H   0  0  0  0  0  0  0  0  0  0  0  0
   -4.5407    2.6359    2.2424 H   0  0  0  0  0  0  0  0  0  0  0  0
   -6.0955   -1.8108    1.3955 H   0  0  0  0  0  0  0  0  0  0  0  0
   -3.6206   -3.2369   -1.7979 H   0  0  0  0  0  0  0  0  0  0  0  0
   -5.4635   -3.5924   -0.1807 H   0  0  0  0  0  0  0  0  0  0  0  0
  1  7  1  0  0  0  0
  1 11  1  0  0  0  0
  1 16  1  0  0  0  0
  2  3  1  0  0  0  0
  2  4  1  0  0  0  0
  2  5  1  0  0  0  0
  2  6  1  0  0  0  0
  3  9  2  0  0  0  0
  3 10  1  0  0  0  0
  4 25  1  0  0  0  0
  4 26  1  0  0  0  0
  4 27  1  0  0  0  0
  5 28  1  0  0  0  0
  5 29  1  0  0  0  0
  5 30  1  0  0  0  0
  6 31  1  0  0  0  0
  6 32  1  0  0  0  0
  6 33  1  0  0  0  0
  7  8  1  0  0  0  0
  7 34  1  0  0  0  0
  7 35  1  0  0  0  0
  8 12  2  0  0  0  0
  8 13  1  0  0  0  0
  9 12  1  0  0  0  0
  9 38  1  0  0  0  0
 10 13  2  0  0  0  0
 10 39  1  0  0  0  0
 11 14  1  0  0  0  0
 11 36  1  0  0  0  0
 11 37  1  0  0  0  0
 12 40  1  0  0  0  0
 13 41  1  0  0  0  0
 14 15  1  0  0  0  0
 14 18  2  0  0  0  0
 15 17  1  0  0  0  0
 15 19  2  0  0  0  0
 16 42  1  0  0  0  0
 16 43  1  0  0  0  0
 16 44  1  0  0  0  0
 17 20  1  0  0  0  0
 17 22  2  0  0  0  0
 18 21  1  0  0  0  0
 18 45  1  0  0  0  0
 19 23  1  0  0  0  0
 19 46  1  0  0  0  0
 20 21  2  0  0  0  0
 20 47  1  0  0  0  0
 21 48  1  0  0  0  0
 22 24  1  0  0  0  0
 22 49  1  0  0  0  0
 23 24  2  0  0  0  0
 23 50  1  0  0  0  0
 24 51  1  0  0  0  0
M  END
> <PUBCHEM_COMPOUND_CID>
2484

> <PUBCHEM_CONFORMER_RMSD>
0.8

> <PUBCHEM_CONFORMER_DIVERSEORDER>
9
30
8
11
22
2
18
21
1
29
13
16
27
5
23
14
17
19
20
31
24
6
12
26
7
3
4
25
28
10
15

> <PUBCHEM_MMFF94_PARTIAL_CHARGES>
30
1 -0.81
10 -0.15
11 0.41
12 -0.15
13 -0.15
14 -0.14
16 0.27
18 -0.15
19 -0.15
2 0.14
20 -0.15
21 -0.15
22 -0.15
23 -0.15
24 -0.15
3 -0.14
38 0.15
39 0.15
40 0.15
41 0.15
45 0.15
46 0.15
47 0.15
48 0.15
49 0.15
50 0.15
51 0.15
7 0.41
8 -0.14
9 -0.15

> <PUBCHEM_EFFECTIVE_ROTOR_COUNT>
5

> <PUBCHEM_PHARMACOPHORE_FEATURES>
5
1 1 cation
4 2 4 5 6 hydrophobe
6 14 15 17 18 20 21 rings
6 15 17 19 22 23 24 rings
6 3 8 9 10 12 13 rings

> <PUBCHEM_HEAVY_ATOM_COUNT>
24

> <PUBCHEM_ATOM_DEF_STEREO_COUNT>
0

> <PUBCHEM_ATOM_UDEF_STEREO_COUNT>
0

> <PUBCHEM_BOND_DEF_STEREO_COUNT>
0

> <PUBCHEM_BOND_UDEF_STEREO_COUNT>
0

> <PUBCHEM_ISOTOPIC_ATOM_COUNT>
0

> <PUBCHEM_COMPONENT_COUNT>
1

> <PUBCHEM_CACTVS_TAUTO_COUNT>
1

> <PUBCHEM_CONFORMER_ID>
000009B400000009

> <PUBCHEM_MMFF94_ENERGY>
91.2484

> <PUBCHEM_FEATURE_SELFOVERLAP>
25.398

> <PUBCHEM_SHAPE_FINGERPRINT>
10 15 16877662348743969432
10319926 262 17894901971057567516
11036077 4 18334853952990180603
11089746 13 9439400225417393102
11315181 36 18409449172314751405
12236239 1 18342734109149057437
12422481 6 18261673783013156606
12523318 42 18040434382767376275
12596602 18 18260550035179782816
12616971 3 18201711864520104868
12633257 1 17314208000920259881
12839892 36 18334576853894587702
13103583 49 18335696169658743585
13167823 11 18413385436431335708
13383661 66 16266555788130092195
13583140 156 17676780845702236205
14251751 18 18334296457028105536
14341114 176 18187643669715439628
14341114 328 18334005090768390964
14844126 61 18259985942902632459
14849402 71 18264488387374302224
14950920 106 18187368722430013128
15081414 286 4751161826455089304
15163728 17 10159712321238933233
15183329 4 17489870432181027010
15188451 53 18335707113657127847
15250474 111 18410573950850261567
15326921 28 17976540834355016777
15348495 7 17749114387473468058
15788980 27 17632858637416706124
16992828 155 7853040237499037355
17349148 13 17917989482000287560
17780758 139 18334013895804528777
17857418 61 18202004321801771378
17870717 6 13758355566405364177
17913733 40 15864066594164945590
1813 80 17846483851352515333
18927931 339 17131826607898725533
19319366 153 16826144439931271487
19377110 9 18338233761218430044
19841028 212 17986955146705598987
20028762 73 18342178860658255354
20554085 129 17605275284749873697
21033648 29 15791996910026122185
21315759 148 17822004320430242518
22061861 79 15339120152061214850
23402539 116 17274823583816820172
23522609 53 17984670485970635572
23559900 14 18263935341440911337
2748736 6 6699511806947225698
312425 54 18260832648096265754
314194 84 17632577171683836816
339767 52 18410015421013929383
3459 110 16154284784255036175
351380 3 18131912676198091434
3663271 9 18334294262806388400
392239 28 17968093092748120355
397830 11 17968107382705746368
4015057 19 16916494870544754764
4258327 124 14418430849365062497
439807 62 17987234427096432803
4409770 3 18198346354661341349
46194498 28 13398043398127379350
484985 159 18271817821973193471
4938544 92 18261955245141888217
5104073 3 18187645777990845376
5364581 5 17531822237607989225
559249 180 18343865537591244573
5924683 9 18334013874461522239
6431902 208 17561083618020078146
7495541 125 18260269612264662328
9953998 17 18260551138416717504

> <PUBCHEM_SHAPE_MULTIPOLES>
488.93
16.82
2.44
1.53
14.5
0.83
-0.34
7.45
-6.31
-2.76
0.14
-0.04
-0.21
-2.15

> <PUBCHEM_SHAPE_SELFOVERLAP>
1053.647

> <PUBCHEM_SHAPE_VOLUME>
270.5

> <PUBCHEM_COORDINATE_TYPE>
2
5
10

$$$$

