13435
  -OEChem-06261214103D

 19 19  0     0  0  0  0  0  0999 V2000
    5.1581   -0.0007   -0.7864 Cl  0  0  0  0  0  0  0  0  0  0  0  0
   -0.4794    0.0012    0.9848 N   0  0  0  0  0  0  0  0  0  0  0  0
   -1.2398    0.0007   -0.0092 N   0  0  0  0  0  0  0  0  0  0  0  0
   -3.7123    2.2025   -0.5742 N   0  0  0  0  0  0  0  0  0  0  0  0
   -3.7096   -2.2041   -0.5742 N   0  0  0  0  0  0  0  0  0  0  0  0
    0.8549    0.0007    0.5657 C   0  0  0  0  0  0  0  0  0  0  0  0
    1.5204    1.2085    0.3561 C   0  0  0  0  0  0  0  0  0  0  0  0
    1.5201   -1.2075    0.3574 C   0  0  0  0  0  0  0  0  0  0  0  0
    2.8511    1.2080   -0.0622 C   0  0  0  0  0  0  0  0  0  0  0  0
    2.8509   -1.2078   -0.0606 C   0  0  0  0  0  0  0  0  0  0  0  0
    3.5163   -0.0001   -0.2704 C   0  0  0  0  0  0  0  0  0  0  0  0
   -2.6492   -0.0001    0.3810 C   0  0  0  0  0  0  0  0  0  0  0  0
   -3.2415    1.2284   -0.1539 C   0  0  0  0  0  0  0  0  0  0  0  0
   -3.2401   -1.2296   -0.1538 C   0  0  0  0  0  0  0  0  0  0  0  0
    1.0108    2.1551    0.5164 H   0  0  0  0  0  0  0  0  0  0  0  0
    1.0103   -2.1538    0.5188 H   0  0  0  0  0  0  0  0  0  0  0  0
    3.3570    2.1567   -0.2215 H   0  0  0  0  0  0  0  0  0  0  0  0
    3.3567   -2.1569   -0.2189 H   0  0  0  0  0  0  0  0  0  0  0  0
   -2.7675   -0.0002    1.4731 H   0  0  0  0  0  0  0  0  0  0  0  0
  1 11  1  0  0  0  0
  2  3  2  0  0  0  0
  2  6  1  0  0  0  0
  3 12  1  0  0  0  0
  4 13  3  0  0  0  0
  5 14  3  0  0  0  0
  6  7  2  0  0  0  0
  6  8  1  0  0  0  0
  7  9  1  0  0  0  0
  7 15  1  0  0  0  0
  8 10  2  0  0  0  0
  8 16  1  0  0  0  0
  9 11  2  0  0  0  0
  9 17  1  0  0  0  0
 10 11  1  0  0  0  0
 10 18  1  0  0  0  0
 12 13  1  0  0  0  0
 12 14  1  0  0  0  0
 12 19  1  0  0  0  0
M  END
> <PUBCHEM_COMPOUND_CID>
13435

> <PUBCHEM_CONFORMER_RMSD>
0.6

> <PUBCHEM_CONFORMER_DIVERSEORDER>
1
4
2
3

> <PUBCHEM_MMFF94_PARTIAL_CHARGES>
18
1 -0.18
10 -0.15
11 0.18
12 0.65
13 0.36
14 0.36
15 0.15
16 0.15
17 0.15
18 0.15
2 -0.18
3 -0.25
4 -0.56
5 -0.56
6 0.18
7 -0.15
8 -0.15
9 -0.15

> <PUBCHEM_EFFECTIVE_ROTOR_COUNT>
2

> <PUBCHEM_PHARMACOPHORE_FEATURES>
3
1 4 acceptor
1 5 acceptor
6 6 7 8 9 10 11 rings

> <PUBCHEM_HEAVY_ATOM_COUNT>
14

> <PUBCHEM_ATOM_DEF_STEREO_COUNT>
0

> <PUBCHEM_ATOM_UDEF_STEREO_COUNT>
0

> <PUBCHEM_BOND_DEF_STEREO_COUNT>
0

> <PUBCHEM_BOND_UDEF_STEREO_COUNT>
0

> <PUBCHEM_ISOTOPIC_ATOM_COUNT>
0

> <PUBCHEM_COMPONENT_COUNT>
1

> <PUBCHEM_CACTVS_TAUTO_COUNT>
1

> <PUBCHEM_CONFORMER_ID>
0000347B00000001

> <PUBCHEM_MMFF94_ENERGY>
22.1045

> <PUBCHEM_FEATURE_SELFOVERLAP>
15.223

> <PUBCHEM_SHAPE_FINGERPRINT>
10608611 8 18411704261720042113
10680689 15 18412256225231146067
11401426 45 18408604782102813696
12500047 106 18338241560831105701
12670543 26 18269260413856162550
12932764 1 18410572885966858395
13296908 3 17530689779375223001
13705890 14 17894627033374417888
13760787 19 18412544344369535970
14576447 43 18335704893069761182
18186145 218 18186799175517153176
1986462 14 18335417958962309229
20645477 56 18340486759544125761
20645477 70 18262797513818992174
20871999 31 18410016533341789743
21709351 56 18341895177993748372
221490 88 18192144906694241514
22485316 2 18409167744582486106
23402539 116 17846780719782164412
23402655 69 18341611568107152172
23557571 272 18335976519554268637
2871803 45 18337963268520600575
3312278 4 18260828223941989763
4028521 119 17917440881833672669
4990 188 18260820506460784830
6049 1 17895768292042334449
633830 44 17203602731217935058
93112 12 18409733980054052521

> <PUBCHEM_SHAPE_MULTIPOLES>
270.06
9.18
1.83
0.8
1.26
0
-0.02
0
2.79
-2.03
0.31
0.09
0
0

> <PUBCHEM_SHAPE_SELFOVERLAP>
549.491

> <PUBCHEM_SHAPE_VOLUME>
153.7

> <PUBCHEM_COORDINATE_TYPE>
2
5
10

$$$$

