17395431
  -OEChem-06241222502D

 55 57  0     0  0  0  0  0  0999 V2000
    8.0622   -1.2500    0.0000 O   0  0  0  0  0  0  0  0  0  0  0  0
   11.5263    2.7500    0.0000 O   0  0  0  0  0  0  0  0  0  0  0  0
    2.0000    0.2500    0.0000 O   0  0  0  0  0  0  0  0  0  0  0  0
    5.4641    1.2500    0.0000 O   0  0  0  0  0  0  0  0  0  0  0  0
    2.0000   -1.7500    0.0000 O   0  0  0  0  0  0  0  0  0  0  0  0
    8.9282    0.2500    0.0000 N   0  0  0  0  0  0  0  0  0  0  0  0
   11.5263   -0.2500    0.0000 N   0  0  0  0  0  0  0  0  0  0  0  0
   10.6603    1.2500    0.0000 N   0  0  0  0  0  0  0  0  0  0  0  0
    6.3301   -0.2500    0.0000 N   0  0  0  0  0  0  0  0  0  0  0  0
    9.7942   -0.2500    0.0000 C   0  0  0  0  0  0  0  0  0  0  0  0
    8.9282    1.2500    0.0000 C   0  0  0  0  0  0  0  0  0  0  0  0
   10.6603    0.2500    0.0000 C   0  0  0  0  0  0  0  0  0  0  0  0
    8.0622   -0.2500    0.0000 C   0  0  0  0  0  0  0  0  0  0  0  0
   12.3923    0.2500    0.0000 C   0  0  0  0  0  0  0  0  0  0  0  0
    7.1962    0.2500    0.0000 C   0  0  0  0  0  0  0  0  0  0  0  0
   12.3923    1.2500    0.0000 C   0  0  0  0  0  0  0  0  0  0  0  0
    8.0622    1.7500    0.0000 C   0  0  0  0  0  0  0  0  0  0  0  0
   11.5263    1.7500    0.0000 C   0  0  0  0  0  0  0  0  0  0  0  0
   13.2862   -0.2847    0.0000 C   0  0  0  0  0  0  0  0  0  0  0  0
   13.2862    1.7847    0.0000 C   0  0  0  0  0  0  0  0  0  0  0  0
    5.4641    0.2500    0.0000 C   0  0  0  0  0  0  0  0  0  0  0  0
   14.1923    0.2292    0.0000 C   0  0  0  0  0  0  0  0  0  0  0  0
    4.5981   -0.2500    0.0000 C   0  0  0  0  0  0  0  0  0  0  0  0
   14.1923    1.2708    0.0000 C   0  0  0  0  0  0  0  0  0  0  0  0
    3.7320    0.2500    0.0000 C   0  0  0  0  0  0  0  0  0  0  0  0
    4.5981   -1.2500    0.0000 C   0  0  0  0  0  0  0  0  0  0  0  0
    2.8660   -0.2500    0.0000 C   0  0  0  0  0  0  0  0  0  0  0  0
    2.8660   -1.2500    0.0000 C   0  0  0  0  0  0  0  0  0  0  0  0
    3.7320   -1.7500    0.0000 C   0  0  0  0  0  0  0  0  0  0  0  0
    2.0000    1.2500    0.0000 C   0  0  0  0  0  0  0  0  0  0  0  0
    2.0000   -2.7500    0.0000 C   0  0  0  0  0  0  0  0  0  0  0  0
    9.3957   -0.7249    0.0000 H   0  0  0  0  0  0  0  0  0  0  0  0
   10.1928   -0.7249    0.0000 H   0  0  0  0  0  0  0  0  0  0  0  0
    9.5388    1.1423    0.0000 H   0  0  0  0  0  0  0  0  0  0  0  0
    9.1403    1.8326    0.0000 H   0  0  0  0  0  0  0  0  0  0  0  0
   11.5263   -0.8700    0.0000 H   0  0  0  0  0  0  0  0  0  0  0  0
    7.5947    0.7249    0.0000 H   0  0  0  0  0  0  0  0  0  0  0  0
    6.7976    0.7249    0.0000 H   0  0  0  0  0  0  0  0  0  0  0  0
    8.3722    2.2869    0.0000 H   0  0  0  0  0  0  0  0  0  0  0  0
    7.5252    2.0600    0.0000 H   0  0  0  0  0  0  0  0  0  0  0  0
    7.7522    1.2131    0.0000 H   0  0  0  0  0  0  0  0  0  0  0  0
   13.2791   -0.9046    0.0000 H   0  0  0  0  0  0  0  0  0  0  0  0
    6.3301   -0.8700    0.0000 H   0  0  0  0  0  0  0  0  0  0  0  0
   13.2791    2.4046    0.0000 H   0  0  0  0  0  0  0  0  0  0  0  0
   14.7281   -0.0829    0.0000 H   0  0  0  0  0  0  0  0  0  0  0  0
   14.7281    1.5829    0.0000 H   0  0  0  0  0  0  0  0  0  0  0  0
    3.7320    0.8700    0.0000 H   0  0  0  0  0  0  0  0  0  0  0  0
    5.1350   -1.5600    0.0000 H   0  0  0  0  0  0  0  0  0  0  0  0
    3.7320   -2.3700    0.0000 H   0  0  0  0  0  0  0  0  0  0  0  0
    2.6200    1.2500    0.0000 H   0  0  0  0  0  0  0  0  0  0  0  0
    2.0000    1.8700    0.0000 H   0  0  0  0  0  0  0  0  0  0  0  0
    1.3800    1.2500    0.0000 H   0  0  0  0  0  0  0  0  0  0  0  0
    1.3800   -2.7500    0.0000 H   0  0  0  0  0  0  0  0  0  0  0  0
    2.0000   -3.3700    0.0000 H   0  0  0  0  0  0  0  0  0  0  0  0
    2.6200   -2.7500    0.0000 H   0  0  0  0  0  0  0  0  0  0  0  0
  1 13  2  0  0  0  0
  2 18  2  0  0  0  0
  3 27  1  0  0  0  0
  3 30  1  0  0  0  0
  4 21  2  0  0  0  0
  5 28  1  0  0  0  0
  5 31  1  0  0  0  0
  6 10  1  0  0  0  0
  6 11  1  0  0  0  0
  6 13  1  0  0  0  0
  7 12  1  0  0  0  0
  7 14  1  0  0  0  0
  7 36  1  0  0  0  0
  8 12  2  0  0  0  0
  8 18  1  0  0  0  0
  9 15  1  0  0  0  0
  9 21  1  0  0  0  0
  9 43  1  0  0  0  0
 10 12  1  0  0  0  0
 10 32  1  0  0  0  0
 10 33  1  0  0  0  0
 11 17  1  0  0  0  0
 11 34  1  0  0  0  0
 11 35  1  0  0  0  0
 13 15  1  0  0  0  0
 14 16  1  0  0  0  0
 14 19  2  0  0  0  0
 15 37  1  0  0  0  0
 15 38  1  0  0  0  0
 16 18  1  0  0  0  0
 16 20  2  0  0  0  0
 17 39  1  0  0  0  0
 17 40  1  0  0  0  0
 17 41  1  0  0  0  0
 19 22  1  0  0  0  0
 19 42  1  0  0  0  0
 20 24  1  0  0  0  0
 20 44  1  0  0  0  0
 21 23  1  0  0  0  0
 22 24  2  0  0  0  0
 22 45  1  0  0  0  0
 23 25  2  0  0  0  0
 23 26  1  0  0  0  0
 24 46  1  0  0  0  0
 25 27  1  0  0  0  0
 25 47  1  0  0  0  0
 26 29  2  0  0  0  0
 26 48  1  0  0  0  0
 27 28  2  0  0  0  0
 28 29  1  0  0  0  0
 29 49  1  0  0  0  0
 30 50  1  0  0  0  0
 30 51  1  0  0  0  0
 30 52  1  0  0  0  0
 31 53  1  0  0  0  0
 31 54  1  0  0  0  0
 31 55  1  0  0  0  0
M  END
> <PUBCHEM_COMPOUND_CID>
17395431

> <PUBCHEM_COMPOUND_CANONICALIZED>
1

> <PUBCHEM_CACTVS_COMPLEXITY>
697

> <PUBCHEM_CACTVS_HBOND_ACCEPTOR>
5

> <PUBCHEM_CACTVS_HBOND_DONOR>
2

> <PUBCHEM_CACTVS_ROTATABLE_BOND>
8

> <PUBCHEM_CACTVS_SUBSKEYS>
AAADceB7uAAAAAAAAAAAAAAAAAAAAAAAAAAwYIAAAAAAAACBQAAAHgAQAAAADAzBmAYzxoPABACoAidydACCCAElIgAJiIGe7MgNZjrE/buUMapk1hHK6ce63BLOIAABAAACQABAAAIAAASAAAAAAAAAAA==

> <PUBCHEM_IUPAC_OPENEYE_NAME>
N-[2-[ethyl-[(4-oxo-1H-quinazolin-2-yl)methyl]amino]-2-oxo-ethyl]-3,4-dimethoxy-benzamide

> <PUBCHEM_IUPAC_CAS_NAME>
N-[2-[ethyl-[(4-oxo-1H-quinazolin-2-yl)methyl]amino]-2-oxoethyl]-3,4-dimethoxybenzamide

> <PUBCHEM_IUPAC_NAME>
N-[2-[ethyl-[(4-oxo-1H-quinazolin-2-yl)methyl]amino]-2-oxoethyl]-3,4-dimethoxybenzamide

> <PUBCHEM_IUPAC_SYSTEMATIC_NAME>
N-[2-[ethyl-[(4-oxidanylidene-1H-quinazolin-2-yl)methyl]amino]-2-oxidanylidene-ethyl]-3,4-dimethoxy-benzamide

> <PUBCHEM_IUPAC_TRADITIONAL_NAME>
N-[2-[ethyl-[(4-keto-1H-quinazolin-2-yl)methyl]amino]-2-keto-ethyl]-3,4-dimethoxy-benzamide

> <PUBCHEM_IUPAC_INCHI>
InChI=1S/C22H24N4O5/c1-4-26(13-19-24-16-8-6-5-7-15(16)22(29)25-19)20(27)12-23-21(28)14-9-10-17(30-2)18(11-14)31-3/h5-11H,4,12-13H2,1-3H3,(H,23,28)(H,24,25,29)

> <PUBCHEM_IUPAC_INCHIKEY>
BPNQYVQQFJNBLO-UHFFFAOYSA-N

> <PUBCHEM_XLOGP3_AA>
1.5

> <PUBCHEM_EXACT_MASS>
424.17467

> <PUBCHEM_MOLECULAR_FORMULA>
C22H24N4O5

> <PUBCHEM_MOLECULAR_WEIGHT>
424.44976

> <PUBCHEM_OPENEYE_CAN_SMILES>
CCN(CC1=NC(=O)C2=CC=CC=C2N1)C(=O)CNC(=O)C3=CC(=C(C=C3)OC)OC

> <PUBCHEM_OPENEYE_ISO_SMILES>
CCN(CC1=NC(=O)C2=CC=CC=C2N1)C(=O)CNC(=O)C3=CC(=C(C=C3)OC)OC

> <PUBCHEM_CACTVS_TPSA>
109

> <PUBCHEM_MONOISOTOPIC_WEIGHT>
424.17467

> <PUBCHEM_TOTAL_CHARGE>
0

> <PUBCHEM_HEAVY_ATOM_COUNT>
31

> <PUBCHEM_ATOM_DEF_STEREO_COUNT>
0

> <PUBCHEM_ATOM_UDEF_STEREO_COUNT>
0

> <PUBCHEM_BOND_DEF_STEREO_COUNT>
0

> <PUBCHEM_BOND_UDEF_STEREO_COUNT>
0

> <PUBCHEM_ISOTOPIC_ATOM_COUNT>
0

> <PUBCHEM_COMPONENT_COUNT>
1

> <PUBCHEM_CACTVS_TAUTO_COUNT>
20

> <PUBCHEM_COORDINATE_TYPE>
1
5
255

> <PUBCHEM_BONDANNOTATIONS>
14  16  8
14  19  8
16  18  8
16  20  8
19  22  8
20  24  8
22  24  8
23  25  8
23  26  8
25  27  8
26  29  8
27  28  8
28  29  8
7  12  8
7  14  8
8  12  8
8  18  8

$$$$

