24892758
  -OEChem-07051212503D

 61 64  0     1  0  0  0  0  0999 V2000
    3.8391   -0.4889    1.7731 P   0  0  2  0  0  0  0  0  0  0  0  0
    3.6349    1.3718   -0.4970 P   0  0  1  0  0  0  0  0  0  0  0  0
   -0.0878   -3.2350    0.3006 O   0  0  0  0  0  0  0  0  0  0  0  0
    0.4115   -2.5972   -3.2096 O   0  0  0  0  0  0  0  0  0  0  0  0
    1.8837   -4.3662   -1.7020 O   0  0  0  0  0  0  0  0  0  0  0  0
    3.1618   -1.7375    0.9989 O   0  0  0  0  0  0  0  0  0  0  0  0
    0.7535    2.5388    0.7365 O   0  0  0  0  0  0  0  0  0  0  0  0
    2.5795    2.5699   -0.7366 O   0  0  0  0  0  0  0  0  0  0  0  0
    3.2697    0.7912    0.9669 O   0  0  0  0  0  0  0  0  0  0  0  0
    0.7285    4.6074   -1.1897 O   0  0  0  0  0  0  0  0  0  0  0  0
   -1.7700    3.9837   -2.2162 O   0  0  0  0  0  0  0  0  0  0  0  0
    5.3905   -0.5445    1.3181 O   0  0  0  0  0  0  0  0  0  0  0  0
   -2.4780    3.6776    0.3892 O   0  0  0  0  0  0  0  0  0  0  0  0
    3.6149   -0.4432    3.2563 O   0  0  0  0  0  0  0  0  0  0  0  0
    3.1480    0.1949   -1.4946 O   0  0  0  0  0  0  0  0  0  0  0  0
   -5.3676    0.4496    0.1975 O   0  0  0  0  0  0  0  0  0  0  0  0
    5.0740    1.7667   -0.6610 O   0  0  0  0  0  0  0  0  0  0  0  0
   -1.8551   -2.1408   -0.9799 N   0  0  0  0  0  0  0  0  0  0  0  0
   -2.1006   -1.6459    1.3887 N   0  0  0  0  0  0  0  0  0  0  0  0
   -3.6471   -1.0019   -1.7070 N   0  0  0  0  0  0  0  0  0  0  0  0
   -3.9922   -0.2654    1.9206 N   0  0  0  0  0  0  0  0  0  0  0  0
   -2.5204   -1.0554    3.5835 N   0  0  0  0  0  0  0  0  0  0  0  0
    0.5215   -2.3734   -1.8181 C   0  0  2  0  0  0  0  0  0  0  0  0
    1.7394   -3.0362   -1.2061 C   0  0  1  0  0  0  0  0  0  0  0  0
   -0.6163   -3.0039   -1.0217 C   0  0  1  0  0  0  0  0  0  0  0  0
    1.3525   -3.1227    0.2648 C   0  0  1  0  0  0  0  0  0  0  0  0
    1.7544   -1.8889    1.0614 C   0  0  0  0  0  0  0  0  0  0  0  0
   -2.4482   -1.5829    0.1007 C   0  0  0  0  0  0  0  0  0  0  0  0
   -2.6211   -1.7586   -2.0584 C   0  0  0  0  0  0  0  0  0  0  0  0
   -3.5356   -0.8930   -0.3494 C   0  0  0  0  0  0  0  0  0  0  0  0
    0.4299    3.2563   -1.5556 C   0  0  1  0  0  0  0  0  0  0  0  0
    1.1831    2.3186   -0.6094 C   0  0  2  0  0  0  0  0  0  0  0  0
   -1.0742    3.0197   -1.4547 C   0  0  1  0  0  0  0  0  0  0  0  0
   -0.6193    2.2214    0.9421 C   0  0  2  0  0  0  0  0  0  0  0  0
   -1.4840    3.0634    0.0081 C   0  0  0  0  0  0  0  0  0  0  0  0
   -4.3868   -0.1770    0.5798 C   0  0  0  0  0  0  0  0  0  0  0  0
   -2.9235   -0.9550    2.2759 C   0  0  0  0  0  0  0  0  0  0  0  0
   -0.9425    2.4827    2.4045 C   0  0  0  0  0  0  0  0  0  0  0  0
    0.5535   -1.2908   -1.6440 H   0  0  0  0  0  0  0  0  0  0  0  0
    2.6717   -2.5099   -1.4178 H   0  0  0  0  0  0  0  0  0  0  0  0
   -0.9571   -3.9579   -1.4421 H   0  0  0  0  0  0  0  0  0  0  0  0
    1.7743   -4.0177    0.7364 H   0  0  0  0  0  0  0  0  0  0  0  0
    1.4434   -1.9992    2.1063 H   0  0  0  0  0  0  0  0  0  0  0  0
    1.2643   -0.9883    0.6757 H   0  0  0  0  0  0  0  0  0  0  0  0
    1.2227   -2.2571   -3.6242 H   0  0  0  0  0  0  0  0  0  0  0  0
    2.6560   -4.7593   -1.2606 H   0  0  0  0  0  0  0  0  0  0  0  0
   -2.3855   -2.0643   -3.0684 H   0  0  0  0  0  0  0  0  0  0  0  0
    0.7742    3.1361   -2.5883 H   0  0  0  0  0  0  0  0  0  0  0  0
    0.9784    1.2763   -0.8811 H   0  0  0  0  0  0  0  0  0  0  0  0
   -1.3265    2.0255   -1.8418 H   0  0  0  0  0  0  0  0  0  0  0  0
   -0.7907    1.1627    0.7163 H   0  0  0  0  0  0  0  0  0  0  0  0
   -1.2918   -2.1569    1.7265 H   0  0  0  0  0  0  0  0  0  0  0  0
   -0.7664    3.5327    2.6638 H   0  0  0  0  0  0  0  0  0  0  0  0
   -0.2952    1.8821    3.0525 H   0  0  0  0  0  0  0  0  0  0  0  0
   -1.9856    2.2432    2.6334 H   0  0  0  0  0  0  0  0  0  0  0  0
    0.5328    4.7164   -0.2436 H   0  0  0  0  0  0  0  0  0  0  0  0
   -2.7139    3.7511   -2.1909 H   0  0  0  0  0  0  0  0  0  0  0  0
    5.6057   -0.5630    0.3613 H   0  0  0  0  0  0  0  0  0  0  0  0
   -3.0343   -0.5965    4.3276 H   0  0  0  0  0  0  0  0  0  0  0  0
   -1.6957   -1.5851    3.8436 H   0  0  0  0  0  0  0  0  0  0  0  0
    3.7495   -0.5629   -1.6538 H   0  0  0  0  0  0  0  0  0  0  0  0
  1  6  1  0  0  0  0
  1  9  1  0  0  0  0
  1 12  1  0  0  0  0
  1 14  2  0  0  0  0
  2  8  1  0  0  0  0
  2  9  1  0  0  0  0
  2 15  1  0  0  0  0
  2 17  2  0  0  0  0
  3 25  1  0  0  0  0
  3 26  1  0  0  0  0
  4 23  1  0  0  0  0
  4 45  1  0  0  0  0
  5 24  1  0  0  0  0
  5 46  1  0  0  0  0
  6 27  1  0  0  0  0
  7 32  1  0  0  0  0
  7 34  1  0  0  0  0
  8 32  1  0  0  0  0
 10 31  1  0  0  0  0
 10 56  1  0  0  0  0
 11 33  1  0  0  0  0
 11 57  1  0  0  0  0
 12 58  1  0  0  0  0
 13 35  2  0  0  0  0
 15 61  1  0  0  0  0
 16 36  2  0  0  0  0
 18 25  1  0  0  0  0
 18 28  1  0  0  0  0
 18 29  1  0  0  0  0
 19 28  1  0  0  0  0
 19 37  1  0  0  0  0
 19 52  1  0  0  0  0
 20 29  2  0  0  0  0
 20 30  1  0  0  0  0
 21 36  1  0  0  0  0
 21 37  2  0  0  0  0
 22 37  1  0  0  0  0
 22 59  1  0  0  0  0
 22 60  1  0  0  0  0
 23 24  1  0  0  0  0
 23 25  1  0  0  0  0
 23 39  1  0  0  0  0
 24 26  1  0  0  0  0
 24 40  1  0  0  0  0
 25 41  1  0  0  0  0
 26 27  1  0  0  0  0
 26 42  1  0  0  0  0
 27 43  1  0  0  0  0
 27 44  1  0  0  0  0
 28 30  2  0  0  0  0
 29 47  1  0  0  0  0
 30 36  1  0  0  0  0
 31 32  1  0  0  0  0
 31 33  1  0  0  0  0
 31 48  1  0  0  0  0
 32 49  1  0  0  0  0
 33 35  1  0  0  0  0
 33 50  1  0  0  0  0
 34 35  1  0  0  0  0
 34 38  1  0  0  0  0
 34 51  1  0  0  0  0
 38 53  1  0  0  0  0
 38 54  1  0  0  0  0
 38 55  1  0  0  0  0
M  END
> <PUBCHEM_COMPOUND_CID>
24892758

> <PUBCHEM_CONFORMER_RMSD>
1.6

> <PUBCHEM_CONFORMER_DIVERSEORDER>
1
164
148
2
143
119
82
12
128
118
54
60
114
165
81
141
33
123
124
110
157
57
137
113
13
32
99
92
109
14
108
46
138
6
67
125
142
122
115
68
30
31
102
55
147
155
156
3
73
160
159
106
42
144
131
77
112
48
97
37
62
121
79
75
117
35
153
98
44
136
135
120
5
126
71
151
96
69
58
45
52
26
93
22
130
49
139
53
34
39
158
43
84
129
17
94
95
83
47
85
40
101
20
76
134
63
86
36
154
41
161
104
50
51
88
56
133
167
65
16
132
87
89
72
80
21
28
18
23
105
162
90
64
116
15
59
29
111
66
9
149
10
146
70
91
78
100
140
19
61
127
24
74
145
38
103
4
150
27
166
152
11
25
107
7
163
8

> <PUBCHEM_MMFF94_PARTIAL_CHARGES>
47
1 1.51
10 -0.68
11 -0.68
12 -0.77
13 -0.57
14 -0.7
15 -0.77
16 -0.57
17 -0.7
18 0.05
19 -0.53
2 1.51
20 -0.57
21 -0.66
22 -0.85
23 0.28
24 0.28
25 0.54
26 0.28
27 0.28
28 -0.07
29 0.04
3 -0.56
30 0.14
31 0.28
32 0.56
33 0.34
34 0.34
35 0.45
36 0.87
37 0.55
4 -0.68
45 0.4
46 0.4
47 0.15
5 -0.68
52 0.4
56 0.4
57 0.4
58 0.5
59 0.4
6 -0.55
60 0.4
61 0.5
7 -0.56
8 -0.55
9 -0.54

> <PUBCHEM_EFFECTIVE_ROTOR_COUNT>
10

> <PUBCHEM_PHARMACOPHORE_FEATURES>
24
1 10 acceptor
1 10 donor
1 11 acceptor
1 11 donor
1 12 acceptor
1 13 acceptor
1 14 acceptor
1 15 acceptor
1 16 acceptor
1 17 acceptor
1 19 donor
1 21 donor
1 22 donor
1 3 acceptor
1 4 acceptor
1 4 donor
1 5 acceptor
1 5 donor
1 7 acceptor
3 18 20 29 cation
5 18 20 28 29 30 rings
5 3 23 24 25 26 rings
6 19 21 28 30 36 37 rings
6 7 31 32 33 34 35 rings

> <PUBCHEM_HEAVY_ATOM_COUNT>
38

> <PUBCHEM_ATOM_DEF_STEREO_COUNT>
8

> <PUBCHEM_ATOM_UDEF_STEREO_COUNT>
0

> <PUBCHEM_BOND_DEF_STEREO_COUNT>
0

> <PUBCHEM_BOND_UDEF_STEREO_COUNT>
0

> <PUBCHEM_ISOTOPIC_ATOM_COUNT>
0

> <PUBCHEM_COMPONENT_COUNT>
1

> <PUBCHEM_CACTVS_TAUTO_COUNT>
42

> <PUBCHEM_CONFORMER_ID>
017BD55600000001

> <PUBCHEM_MMFF94_ENERGY>
50.5677

> <PUBCHEM_FEATURE_SELFOVERLAP>
122.081

> <PUBCHEM_SHAPE_FINGERPRINT>
10119406 146 15597779536573707135
11513181 2 17605543560832796927
12156800 1 17484524790992321427
12422481 6 18337114591234683777
12539773 59 17752199496778807991
12788726 201 18335424504930662604
13122387 1 16824742076646616046
14279260 333 17631469998256704202
14840074 17 18410851023585434792
15276724 80 18338809944888814922
15297060 5 17751058259485742378
19311894 1 17689418400945724220
19319366 153 16973063412121379025
20764821 26 18192711365393013092
24941158 1 16372426989468508310
25265897 201 16009851858709271759
3027735 51 18335146418266215821
35225 105 17192895884755750839
42626532 9 17768215223325128490
445580 8 18334290942168953202
469060 322 18266200411954058706

> <PUBCHEM_SHAPE_MULTIPOLES>
676.78
7.86
5.94
2.89
1.84
2.6
1.13
-0.35
3.08
0.65
-3.56
-0.39
-0.74
-0.33

> <PUBCHEM_SHAPE_SELFOVERLAP>
1414.805

> <PUBCHEM_SHAPE_VOLUME>
385.2

> <PUBCHEM_COORDINATE_TYPE>
2
5
10

$$$$

