6534
  -OEChem-06261201223D

 25 24  0     0  0  0  0  0  0999 V2000
   -0.0402    0.4917   -0.5114 P   0  0  0  0  0  0  0  0  0  0  0  0
    1.3162   -0.3869   -0.6034 O   0  0  0  0  0  0  0  0  0  0  0  0
   -1.1831   -0.5988   -0.1577 O   0  0  0  0  0  0  0  0  0  0  0  0
   -0.3142    1.3008   -1.7467 O   0  0  0  0  0  0  0  0  0  0  0  0
    0.1346    1.4733    0.9664 C   0  0  0  0  0  0  0  0  0  0  0  0
    1.2733    2.4664    0.8686 C   0  0  0  0  0  0  0  0  0  0  0  0
    1.6701   -1.2891    0.4296 C   0  0  0  0  0  0  0  0  0  0  0  0
   -2.4769   -0.1476    0.2021 C   0  0  0  0  0  0  0  0  0  0  0  0
    2.9771   -1.9629    0.0694 C   0  0  0  0  0  0  0  0  0  0  0  0
   -3.3569   -1.3469    0.4831 C   0  0  0  0  0  0  0  0  0  0  0  0
   -0.7899    2.0372    1.1290 H   0  0  0  0  0  0  0  0  0  0  0  0
    0.2711    0.8355    1.8447 H   0  0  0  0  0  0  0  0  0  0  0  0
    1.3389    3.0691    1.7792 H   0  0  0  0  0  0  0  0  0  0  0  0
    2.2277    1.9508    0.7265 H   0  0  0  0  0  0  0  0  0  0  0  0
    1.1289    3.1398    0.0181 H   0  0  0  0  0  0  0  0  0  0  0  0
    1.7881   -0.7488    1.3722 H   0  0  0  0  0  0  0  0  0  0  0  0
    0.8823   -2.0392    0.5464 H   0  0  0  0  0  0  0  0  0  0  0  0
   -2.4191    0.4740    1.0993 H   0  0  0  0  0  0  0  0  0  0  0  0
   -2.8925    0.4474   -0.6169 H   0  0  0  0  0  0  0  0  0  0  0  0
    3.2804   -2.6688    0.8476 H   0  0  0  0  0  0  0  0  0  0  0  0
    2.8846   -2.5013   -0.8796 H   0  0  0  0  0  0  0  0  0  0  0  0
    3.7704   -1.2196   -0.0624 H   0  0  0  0  0  0  0  0  0  0  0  0
   -4.3662   -1.0339    0.7644 H   0  0  0  0  0  0  0  0  0  0  0  0
   -3.4202   -1.9935   -0.3984 H   0  0  0  0  0  0  0  0  0  0  0  0
   -2.9360   -1.9529    1.2923 H   0  0  0  0  0  0  0  0  0  0  0  0
  1  2  1  0  0  0  0
  1  3  1  0  0  0  0
  1  4  2  0  0  0  0
  1  5  1  0  0  0  0
  2  7  1  0  0  0  0
  3  8  1  0  0  0  0
  5  6  1  0  0  0  0
  5 11  1  0  0  0  0
  5 12  1  0  0  0  0
  6 13  1  0  0  0  0
  6 14  1  0  0  0  0
  6 15  1  0  0  0  0
  7  9  1  0  0  0  0
  7 16  1  0  0  0  0
  7 17  1  0  0  0  0
  8 10  1  0  0  0  0
  8 18  1  0  0  0  0
  8 19  1  0  0  0  0
  9 20  1  0  0  0  0
  9 21  1  0  0  0  0
  9 22  1  0  0  0  0
 10 23  1  0  0  0  0
 10 24  1  0  0  0  0
 10 25  1  0  0  0  0
M  END
> <PUBCHEM_COMPOUND_CID>
6534

> <PUBCHEM_CONFORMER_RMSD>
0.6

> <PUBCHEM_CONFORMER_DIVERSEORDER>
1
12
21
17
6
22
20
2
7
8
24
9
27
23
13
14
25
19
18
4
11
26
16
10
15
3
5

> <PUBCHEM_MMFF94_PARTIAL_CHARGES>
6
1 1.24
2 -0.55
3 -0.55
4 -0.7
7 0.28
8 0.28

> <PUBCHEM_EFFECTIVE_ROTOR_COUNT>
5

> <PUBCHEM_PHARMACOPHORE_FEATURES>
1
1 4 acceptor

> <PUBCHEM_HEAVY_ATOM_COUNT>
10

> <PUBCHEM_ATOM_DEF_STEREO_COUNT>
0

> <PUBCHEM_ATOM_UDEF_STEREO_COUNT>
0

> <PUBCHEM_BOND_DEF_STEREO_COUNT>
0

> <PUBCHEM_BOND_UDEF_STEREO_COUNT>
0

> <PUBCHEM_ISOTOPIC_ATOM_COUNT>
0

> <PUBCHEM_COMPONENT_COUNT>
1

> <PUBCHEM_CACTVS_TAUTO_COUNT>
1

> <PUBCHEM_CONFORMER_ID>
0000198600000001

> <PUBCHEM_MMFF94_ENERGY>
-0.5051

> <PUBCHEM_FEATURE_SELFOVERLAP>
5.074

> <PUBCHEM_SHAPE_FINGERPRINT>
12932764 1 18190446170299154071
14128692 85 18131058376879832670
14817 1 12995937998319410300
170605 34 17099447987736689617
17841504 4 18335419045736799835
20653091 64 18188478091170796017
20711978 78 18263100841340988597
20711985 344 16486427597615014279
21061003 4 18188221999530101274
23552449 11 18261107431365975851
3250762 1 18269574838910007309
528862 383 18115878403414080880
76951 1 17902195989430969452

> <PUBCHEM_SHAPE_MULTIPOLES>
192.04
4.13
2.47
1.12
2.17
0.87
0.37
-3.59
-0.89
-1.73
-0.64
0.02
0.52
0.42

> <PUBCHEM_SHAPE_SELFOVERLAP>
329.236

> <PUBCHEM_SHAPE_VOLUME>
128.8

> <PUBCHEM_COORDINATE_TYPE>
2
5
10

$$$$

