586053
  -OEChem-06241222452D

 31 32  0     1  0  0  0  0  0999 V2000
    4.8801   -2.4545    0.0000 O   0  0  0  0  0  0  0  0  0  0  0  0
    2.9659   -1.0708    0.0000 O   0  0  0  0  0  0  0  0  0  0  0  0
    3.6730   -0.3637    0.0000 N   0  0  0  0  0  0  0  0  0  0  0  0
    6.3932    1.4600    0.0000 C   0  0  0  0  0  0  0  0  0  0  0  0
    6.8710   -0.4886    0.0000 C   0  0  3  0  0  0  0  0  0  0  0  0
    7.1298    0.4774    0.0000 C   0  0  3  0  0  0  0  0  0  0  0  0
    8.7030   -1.2474    0.0000 C   0  0  0  0  0  0  0  0  0  0  0  0
    8.9618   -0.2815    0.0000 C   0  0  0  0  0  0  0  0  0  0  0  0
    5.1390   -1.4886    0.0000 C   0  0  0  0  0  0  0  0  0  0  0  0
    4.6390   -0.6225    0.0000 C   0  0  0  0  0  0  0  0  0  0  0  0
    5.4797    1.8667    0.0000 C   0  0  0  0  0  0  0  0  0  0  0  0
    6.4977    2.4545    0.0000 C   0  0  0  0  0  0  0  0  0  0  0  0
    6.6122   -1.4545    0.0000 C   0  0  0  0  0  0  0  0  0  0  0  0
    2.0000   -0.8120    0.0000 C   0  0  0  0  0  0  0  0  0  0  0  0
    7.1370   -0.1426    0.0000 H   0  0  0  0  0  0  0  0  0  0  0  0
    9.2943   -1.4338    0.0000 H   0  0  0  0  0  0  0  0  0  0  0  0
    8.4909   -1.8300    0.0000 H   0  0  0  0  0  0  0  0  0  0  0  0
    9.1738    0.3011    0.0000 H   0  0  0  0  0  0  0  0  0  0  0  0
    9.5531   -0.4679    0.0000 H   0  0  0  0  0  0  0  0  0  0  0  0
    5.2275    1.3003    0.0000 H   0  0  0  0  0  0  0  0  0  0  0  0
    4.9133    2.1189    0.0000 H   0  0  0  0  0  0  0  0  0  0  0  0
    5.7318    2.4331    0.0000 H   0  0  0  0  0  0  0  0  0  0  0  0
    5.8811    2.5193    0.0000 H   0  0  0  0  0  0  0  0  0  0  0  0
    6.5625    3.0711    0.0000 H   0  0  0  0  0  0  0  0  0  0  0  0
    7.1143    2.3897    0.0000 H   0  0  0  0  0  0  0  0  0  0  0  0
    7.2111   -1.6150    0.0000 H   0  0  0  0  0  0  0  0  0  0  0  0
    6.4517   -2.0534    0.0000 H   0  0  0  0  0  0  0  0  0  0  0  0
    6.0133   -1.2940    0.0000 H   0  0  0  0  0  0  0  0  0  0  0  0
    1.8395   -1.4109    0.0000 H   0  0  0  0  0  0  0  0  0  0  0  0
    1.4011   -0.6515    0.0000 H   0  0  0  0  0  0  0  0  0  0  0  0
    2.1605   -0.2131    0.0000 H   0  0  0  0  0  0  0  0  0  0  0  0
  1  9  2  0  0  0  0
  2  3  1  0  0  0  0
  2 14  1  0  0  0  0
  3 10  2  3  0  0  0
  4  5  1  0  0  0  0
  4  6  1  0  0  0  0
  4 11  1  0  0  0  0
  4 12  1  0  0  0  0
  5  7  1  0  0  0  0
  5  9  1  0  0  0  0
  5 13  1  0  0  0  0
  6  8  1  0  0  0  0
  6 10  1  0  0  0  0
  6 15  1  0  0  0  0
  7  8  1  0  0  0  0
  7 16  1  0  0  0  0
  7 17  1  0  0  0  0
  8 18  1  0  0  0  0
  8 19  1  0  0  0  0
  9 10  1  0  0  0  0
 11 20  1  0  0  0  0
 11 21  1  0  0  0  0
 11 22  1  0  0  0  0
 12 23  1  0  0  0  0
 12 24  1  0  0  0  0
 12 25  1  0  0  0  0
 13 26  1  0  0  0  0
 13 27  1  0  0  0  0
 13 28  1  0  0  0  0
 14 29  1  0  0  0  0
 14 30  1  0  0  0  0
 14 31  1  0  0  0  0
M  END
> <PUBCHEM_COMPOUND_CID>
586053

> <PUBCHEM_COMPOUND_CANONICALIZED>
1

> <PUBCHEM_CACTVS_COMPLEXITY>
319

> <PUBCHEM_CACTVS_HBOND_ACCEPTOR>
3

> <PUBCHEM_CACTVS_HBOND_DONOR>
0

> <PUBCHEM_CACTVS_ROTATABLE_BOND>
1

> <PUBCHEM_CACTVS_SUBSKEYS>
AAADceByMAAAAAAAAAAAAAAAAAAAAYMAAAAwAAAAAAAAAAAAAAAAHgAEAAAADwyBgAICAAAQAAAoAYAwAAAAAAAAAAAAAAEwAAAAABIAAAAAAAAAAAAAAAEIiMCPgAAAAAAAAACAAAAAAAAAAQAACAAAAA==

> <PUBCHEM_IUPAC_OPENEYE_NAME>
3-methoxyimino-1,7,7-trimethyl-norbornan-2-one

> <PUBCHEM_IUPAC_CAS_NAME>
2-methoxyimino-4,7,7-trimethyl-3-bicyclo[2.2.1]heptanone

> <PUBCHEM_IUPAC_NAME>
2-methoxyimino-4,7,7-trimethylbicyclo[2.2.1]heptan-3-one

> <PUBCHEM_IUPAC_SYSTEMATIC_NAME>
2-methoxyimino-4,7,7-trimethyl-bicyclo[2.2.1]heptan-3-one

> <PUBCHEM_IUPAC_TRADITIONAL_NAME>
1,7,7-trimethyl-3-methyloximino-norbornan-2-one

> <PUBCHEM_IUPAC_INCHI>
InChI=1S/C11H17NO2/c1-10(2)7-5-6-11(10,3)9(13)8(7)12-14-4/h7H,5-6H2,1-4H3

> <PUBCHEM_IUPAC_INCHIKEY>
SCQZCOSFJUMXOP-UHFFFAOYSA-N

> <PUBCHEM_XLOGP3>
2.1

> <PUBCHEM_EXACT_MASS>
195.125929

> <PUBCHEM_MOLECULAR_FORMULA>
C11H17NO2

> <PUBCHEM_MOLECULAR_WEIGHT>
195.25818

> <PUBCHEM_OPENEYE_CAN_SMILES>
CC1(C2CCC1(C(=O)C2=NOC)C)C

> <PUBCHEM_OPENEYE_ISO_SMILES>
CC1(C2CCC1(C(=O)C2=NOC)C)C

> <PUBCHEM_CACTVS_TPSA>
38.7

> <PUBCHEM_MONOISOTOPIC_WEIGHT>
195.125929

> <PUBCHEM_TOTAL_CHARGE>
0

> <PUBCHEM_HEAVY_ATOM_COUNT>
14

> <PUBCHEM_ATOM_DEF_STEREO_COUNT>
0

> <PUBCHEM_ATOM_UDEF_STEREO_COUNT>
2

> <PUBCHEM_BOND_DEF_STEREO_COUNT>
0

> <PUBCHEM_BOND_UDEF_STEREO_COUNT>
1

> <PUBCHEM_ISOTOPIC_ATOM_COUNT>
0

> <PUBCHEM_COMPONENT_COUNT>
1

> <PUBCHEM_CACTVS_TAUTO_COUNT>
1

> <PUBCHEM_COORDINATE_TYPE>
1
5
255

> <PUBCHEM_BONDANNOTATIONS>
3  10  1
5  13  3
6  15  3

$$$$

