86296
  -OEChem-07051213003D

 30 31  0     0  0  0  0  0  0999 V2000
   -1.1199   -1.4138    0.0651 N   0  0  0  0  0  0  0  0  0  0  0  0
    1.0599   -2.2822    0.0683 N   0  0  0  0  0  0  0  0  0  0  0  0
    0.6752    0.0953   -0.0113 N   0  0  0  0  0  0  0  0  0  0  0  0
   -2.2285   -0.5420    0.0475 C   0  0  0  0  0  0  0  0  0  0  0  0
    0.2703   -1.1897    0.0394 C   0  0  0  0  0  0  0  0  0  0  0  0
    2.3851   -2.0310    0.0424 C   0  0  0  0  0  0  0  0  0  0  0  0
   -3.4308   -0.9537   -0.5276 C   0  0  0  0  0  0  0  0  0  0  0  0
   -2.1223    0.7323    0.6049 C   0  0  0  0  0  0  0  0  0  0  0  0
    2.9242   -0.7618   -0.0099 C   0  0  0  0  0  0  0  0  0  0  0  0
    2.0123    0.2736   -0.0349 C   0  0  0  0  0  0  0  0  0  0  0  0
   -4.5268   -0.0911   -0.5456 C   0  0  0  0  0  0  0  0  0  0  0  0
   -3.2184    1.5948    0.5870 C   0  0  0  0  0  0  0  0  0  0  0  0
    3.2927   -3.2147    0.0729 C   0  0  0  0  0  0  0  0  0  0  0  0
   -4.4207    1.1831    0.0117 C   0  0  0  0  0  0  0  0  0  0  0  0
    2.4352    1.6340   -0.0887 C   0  0  0  0  0  0  0  0  0  0  0  0
    2.7911    2.7854   -0.1336 C   0  0  0  0  0  0  0  0  0  0  0  0
    3.2215    4.1816   -0.1877 C   0  0  0  0  0  0  0  0  0  0  0  0
   -1.3585   -2.3961   -0.0333 H   0  0  0  0  0  0  0  0  0  0  0  0
   -3.5263   -1.9438   -0.9660 H   0  0  0  0  0  0  0  0  0  0  0  0
   -1.2217    1.0784    1.1011 H   0  0  0  0  0  0  0  0  0  0  0  0
    3.9945   -0.5929   -0.0297 H   0  0  0  0  0  0  0  0  0  0  0  0
   -5.4630   -0.4117   -0.9931 H   0  0  0  0  0  0  0  0  0  0  0  0
   -3.1395    2.5834    1.0298 H   0  0  0  0  0  0  0  0  0  0  0  0
    3.9161   -3.2400   -0.8266 H   0  0  0  0  0  0  0  0  0  0  0  0
    3.9394   -3.1762    0.9554 H   0  0  0  0  0  0  0  0  0  0  0  0
    2.7212   -4.1479    0.1139 H   0  0  0  0  0  0  0  0  0  0  0  0
   -5.2748    1.8539   -0.0001 H   0  0  0  0  0  0  0  0  0  0  0  0
    4.2934    4.2665    0.0149 H   0  0  0  0  0  0  0  0  0  0  0  0
    3.0276    4.6106   -1.1753 H   0  0  0  0  0  0  0  0  0  0  0  0
    2.6872    4.7826    0.5544 H   0  0  0  0  0  0  0  0  0  0  0  0
  1  4  1  0  0  0  0
  1  5  1  0  0  0  0
  1 18  1  0  0  0  0
  2  5  2  0  0  0  0
  2  6  1  0  0  0  0
  3  5  1  0  0  0  0
  3 10  2  0  0  0  0
  4  7  2  0  0  0  0
  4  8  1  0  0  0  0
  6  9  2  0  0  0  0
  6 13  1  0  0  0  0
  7 11  1  0  0  0  0
  7 19  1  0  0  0  0
  8 12  2  0  0  0  0
  8 20  1  0  0  0  0
  9 10  1  0  0  0  0
  9 21  1  0  0  0  0
 10 15  1  0  0  0  0
 11 14  2  0  0  0  0
 11 22  1  0  0  0  0
 12 14  1  0  0  0  0
 12 23  1  0  0  0  0
 13 24  1  0  0  0  0
 13 25  1  0  0  0  0
 13 26  1  0  0  0  0
 14 27  1  0  0  0  0
 15 16  3  0  0  0  0
 16 17  1  0  0  0  0
 17 28  1  0  0  0  0
 17 29  1  0  0  0  0
 17 30  1  0  0  0  0
M  END
> <PUBCHEM_COMPOUND_CID>
86296

> <PUBCHEM_CONFORMER_RMSD>
0.6

> <PUBCHEM_CONFORMER_DIVERSEORDER>
1
6
2
7
4
3
5
8

> <PUBCHEM_MMFF94_PARTIAL_CHARGES>
24
1 -0.6
10 0.38
11 -0.15
12 -0.15
13 0.14
14 -0.15
15 -0.07
16 -0.2
17 0.2
18 0.4
19 0.15
2 -0.62
20 0.15
21 0.15
22 0.15
23 0.15
27 0.15
3 -0.62
4 0.1
5 0.72
6 0.17
7 -0.15
8 -0.15
9 -0.15

> <PUBCHEM_EFFECTIVE_ROTOR_COUNT>
2

> <PUBCHEM_PHARMACOPHORE_FEATURES>
6
1 1 donor
1 17 hydrophobe
1 3 acceptor
4 1 2 3 5 cation
6 2 3 5 6 9 10 rings
6 4 7 8 11 12 14 rings

> <PUBCHEM_HEAVY_ATOM_COUNT>
17

> <PUBCHEM_ATOM_DEF_STEREO_COUNT>
0

> <PUBCHEM_ATOM_UDEF_STEREO_COUNT>
0

> <PUBCHEM_BOND_DEF_STEREO_COUNT>
0

> <PUBCHEM_BOND_UDEF_STEREO_COUNT>
0

> <PUBCHEM_ISOTOPIC_ATOM_COUNT>
0

> <PUBCHEM_COMPONENT_COUNT>
1

> <PUBCHEM_CACTVS_TAUTO_COUNT>
3

> <PUBCHEM_CONFORMER_ID>
0001511800000001

> <PUBCHEM_MMFF94_ENERGY>
46.7646

> <PUBCHEM_FEATURE_SELFOVERLAP>
30.446

> <PUBCHEM_SHAPE_FINGERPRINT>
10608611 8 18413671314097495823
12173636 292 17762338011962743212
12788726 201 17551507074101997610
12916754 54 18411419549044670479
13134695 92 18269274741218507550
13590594 115 18123461945801944800
138480 1 18338797935174071232
14123255 52 18194964028743524924
14250199 8 18409729586349897039
15295992 7 18129362951962371441
15442244 35 18264487475822116835
15536298 74 18334297608042612099
17492 89 18409168805503614823
18186145 218 17775005738898057347
18335252 114 17836095837989064973
20671657 1 18411132541501106414
21478907 32 17474952502996798114
21524375 3 18044091255277864868
221490 88 18412256238179910131
2255824 54 18409729586260557598
23366157 5 18272652346428376426
23558518 356 17843118108689713282
23559900 14 18409174341367630723
3071541 12 18410852153515118286
3091708 16 9255739984740662170
345986 75 16983236566528183226
4409770 3 17118046664928037652
474 4 18340492166338109408
5104073 3 18336546114186178867
53777708 50 18334294258432377291
5939293 188 18338517559756246790
7364860 26 18409729569243841910
74978 22 18411133671162355827
7832392 63 18120936380387725937
84936 182 18261393291404504592
9709674 26 18411134745115319323
9971528 1 18263932210045625730
9981440 41 18051418374800323840

> <PUBCHEM_SHAPE_MULTIPOLES>
334.91
8.41
4.02
0.69
7.23
2.48
0
2.53
0.65
-7.01
0.11
0.25
0.06
-0.67

> <PUBCHEM_SHAPE_SELFOVERLAP>
708.621

> <PUBCHEM_SHAPE_VOLUME>
183.2

> <PUBCHEM_COORDINATE_TYPE>
2
5
10

$$$$

