17396546
  -OEChem-06241222572D

 32 32  0     0  0  0  0  0  0999 V2000
    8.7481   -2.5984    0.0000 Cl  0  0  0  0  0  0  0  0  0  0  0  0
    6.6381   -1.0022    0.0000 O   0  0  0  0  0  0  0  0  0  0  0  0
    2.5878    1.9405    0.0000 O   0  0  0  0  0  0  0  0  0  0  0  0
    7.1733    0.6450    0.0000 O   0  0  0  0  0  0  0  0  0  0  0  0
    3.9890    2.9585    0.0000 O   0  0  0  0  0  0  0  0  0  0  0  0
    4.6701   -0.3029    0.0000 N   0  0  0  0  0  0  0  0  0  0  0  0
    5.1701    1.2360    0.0000 C   0  0  0  0  0  0  0  0  0  0  0  0
    4.1701    1.2360    0.0000 C   0  0  0  0  0  0  0  0  0  0  0  0
    3.8611    0.2849    0.0000 C   0  0  0  0  0  0  0  0  0  0  0  0
    5.4791    0.2849    0.0000 C   0  0  0  0  0  0  0  0  0  0  0  0
    5.7579    2.0450    0.0000 C   0  0  0  0  0  0  0  0  0  0  0  0
    2.9100   -0.0241    0.0000 C   0  0  0  0  0  0  0  0  0  0  0  0
    6.4302   -0.0241    0.0000 C   0  0  0  0  0  0  0  0  0  0  0  0
    3.5823    2.0450    0.0000 C   0  0  0  0  0  0  0  0  0  0  0  0
    7.5891   -1.3113    0.0000 C   0  0  0  0  0  0  0  0  0  0  0  0
    2.0000    2.7495    0.0000 C   0  0  0  0  0  0  0  0  0  0  0  0
    7.7970   -2.2894    0.0000 C   0  0  0  0  0  0  0  0  0  0  0  0
    7.0539   -2.9585    0.0000 C   0  0  0  0  0  0  0  0  0  0  0  0
    4.6701   -0.9229    0.0000 H   0  0  0  0  0  0  0  0  0  0  0  0
    6.2595    1.6806    0.0000 H   0  0  0  0  0  0  0  0  0  0  0  0
    6.1223    2.5466    0.0000 H   0  0  0  0  0  0  0  0  0  0  0  0
    5.2563    2.4094    0.0000 H   0  0  0  0  0  0  0  0  0  0  0  0
    2.7184    0.5656    0.0000 H   0  0  0  0  0  0  0  0  0  0  0  0
    2.3204   -0.2157    0.0000 H   0  0  0  0  0  0  0  0  0  0  0  0
    3.1016   -0.6138    0.0000 H   0  0  0  0  0  0  0  0  0  0  0  0
    8.2088   -1.2896    0.0000 H   0  0  0  0  0  0  0  0  0  0  0  0
    7.6754   -0.6973    0.0000 H   0  0  0  0  0  0  0  0  0  0  0  0
    2.5016    3.1139    0.0000 H   0  0  0  0  0  0  0  0  0  0  0  0
    1.6356    3.2511    0.0000 H   0  0  0  0  0  0  0  0  0  0  0  0
    1.4984    2.3851    0.0000 H   0  0  0  0  0  0  0  0  0  0  0  0
    6.4642   -2.7670    0.0000 H   0  0  0  0  0  0  0  0  0  0  0  0
    7.1828   -3.5650    0.0000 H   0  0  0  0  0  0  0  0  0  0  0  0
  1 17  1  0  0  0  0
  2 13  1  0  0  0  0
  2 15  1  0  0  0  0
  3 14  1  0  0  0  0
  3 16  1  0  0  0  0
  4 13  2  0  0  0  0
  5 14  2  0  0  0  0
  6  9  1  0  0  0  0
  6 10  1  0  0  0  0
  6 19  1  0  0  0  0
  7  8  1  0  0  0  0
  7 10  2  0  0  0  0
  7 11  1  0  0  0  0
  8  9  2  0  0  0  0
  8 14  1  0  0  0  0
  9 12  1  0  0  0  0
 10 13  1  0  0  0  0
 11 20  1  0  0  0  0
 11 21  1  0  0  0  0
 11 22  1  0  0  0  0
 12 23  1  0  0  0  0
 12 24  1  0  0  0  0
 12 25  1  0  0  0  0
 15 17  1  0  0  0  0
 15 26  1  0  0  0  0
 15 27  1  0  0  0  0
 16 28  1  0  0  0  0
 16 29  1  0  0  0  0
 16 30  1  0  0  0  0
 17 18  2  0  0  0  0
 18 31  1  0  0  0  0
 18 32  1  0  0  0  0
M  END
> <PUBCHEM_COMPOUND_CID>
17396546

> <PUBCHEM_COMPOUND_CANONICALIZED>
1

> <PUBCHEM_CACTVS_COMPLEXITY>
358

> <PUBCHEM_CACTVS_HBOND_ACCEPTOR>
4

> <PUBCHEM_CACTVS_HBOND_DONOR>
1

> <PUBCHEM_CACTVS_ROTATABLE_BOND>
6

> <PUBCHEM_CACTVS_SUBSKEYS>
AAADccByOAAEAAAAAAAAAAAAAAAAAWAAAAAAAAAAAAAAAAABgAAAHgIQAAAADAqhngICiJLJlACoAwTyTASCgCAnACAAmSGwTdgKJnrAtbmHEYhm0AHY6Ue8fwkegAAAAAAAAAAAAAAAAAAAAAAAAAAAAA==

> <PUBCHEM_IUPAC_OPENEYE_NAME>
O2-(2-chloroallyl) O4-methyl 3,5-dimethyl-1H-pyrrole-2,4-dicarboxylate

> <PUBCHEM_IUPAC_CAS_NAME>
3,5-dimethyl-1H-pyrrole-2,4-dicarboxylic acid O2-(2-chloroprop-2-enyl) ester O4-methyl ester

> <PUBCHEM_IUPAC_NAME>
2-O-(2-chloroprop-2-enyl) 4-O-methyl 3,5-dimethyl-1H-pyrrole-2,4-dicarboxylate

> <PUBCHEM_IUPAC_SYSTEMATIC_NAME>
O2-(2-chloranylprop-2-enyl) O4-methyl 3,5-dimethyl-1H-pyrrole-2,4-dicarboxylate

> <PUBCHEM_IUPAC_TRADITIONAL_NAME>
3,5-dimethyl-1H-pyrrole-2,4-dicarboxylic acid O2-(2-chloroallyl) ester O4-methyl ester

> <PUBCHEM_IUPAC_INCHI>
InChI=1S/C12H14ClNO4/c1-6(13)5-18-12(16)10-7(2)9(8(3)14-10)11(15)17-4/h14H,1,5H2,2-4H3

> <PUBCHEM_IUPAC_INCHIKEY>
AHBRWKFVZVPQQS-UHFFFAOYSA-N

> <PUBCHEM_XLOGP3_AA>
2.6

> <PUBCHEM_EXACT_MASS>
271.061136

> <PUBCHEM_MOLECULAR_FORMULA>
C12H14ClNO4

> <PUBCHEM_MOLECULAR_WEIGHT>
271.69686

> <PUBCHEM_OPENEYE_CAN_SMILES>
CC1=C(NC(=C1C(=O)OC)C)C(=O)OCC(=C)Cl

> <PUBCHEM_OPENEYE_ISO_SMILES>
CC1=C(NC(=C1C(=O)OC)C)C(=O)OCC(=C)Cl

> <PUBCHEM_CACTVS_TPSA>
68.4

> <PUBCHEM_MONOISOTOPIC_WEIGHT>
271.061136

> <PUBCHEM_TOTAL_CHARGE>
0

> <PUBCHEM_HEAVY_ATOM_COUNT>
18

> <PUBCHEM_ATOM_DEF_STEREO_COUNT>
0

> <PUBCHEM_ATOM_UDEF_STEREO_COUNT>
0

> <PUBCHEM_BOND_DEF_STEREO_COUNT>
0

> <PUBCHEM_BOND_UDEF_STEREO_COUNT>
0

> <PUBCHEM_ISOTOPIC_ATOM_COUNT>
0

> <PUBCHEM_COMPONENT_COUNT>
1

> <PUBCHEM_CACTVS_TAUTO_COUNT>
10

> <PUBCHEM_COORDINATE_TYPE>
1
5
255

> <PUBCHEM_BONDANNOTATIONS>
6  10  8
6  9  8
7  10  8
7  8  8
8  9  8

$$$$

