443812
  -OEChem-07051213032D

 57 61  0     1  0  0  0  0  0999 V2000
    5.5263    3.1643    0.0000 O   0  0  0  0  0  0  0  0  0  0  0  0
    2.9224    4.6542    0.0000 O   0  0  0  0  0  0  0  0  0  0  0  0
    4.6506    5.6609    0.0000 O   0  0  0  0  0  0  0  0  0  0  0  0
    4.3367   -5.9691    0.0000 O   0  0  0  0  0  0  0  0  0  0  0  0
    2.8963    1.6231    0.0000 O   0  0  0  0  0  0  0  0  0  0  0  0
    5.6083   -2.9538    0.0000 O   0  0  0  0  0  0  0  0  0  0  0  0
    5.5161   -1.9083    0.0000 O   0  0  0  0  0  0  0  0  0  0  0  0
    2.0520    0.0917    0.0000 O   0  0  0  0  0  0  0  0  0  0  0  0
    4.6622    2.6609    0.0000 C   0  0  2  0  0  0  0  0  0  0  0  0
    3.7942    3.1576    0.0000 C   0  0  0  0  0  0  0  0  0  0  0  0
    3.7904    4.1576    0.0000 C   0  0  2  0  0  0  0  0  0  0  0  0
    4.6545    4.6609    0.0000 C   0  0  1  0  0  0  0  0  0  0  0  0
    5.5224    4.1643    0.0000 C   0  0  1  0  0  0  0  0  0  0  0  0
    3.8334   -5.1050    0.0000 C   0  0  2  0  0  0  0  0  0  0  0  0
    2.8937   -4.5625    0.0000 C   0  0  0  0  0  0  0  0  0  0  0  0
    4.6660    1.6610    0.0000 C   0  0  0  0  0  0  0  0  0  0  0  0
    4.7688   -4.5553    0.0000 C   0  0  0  0  0  0  0  0  0  0  0  0
    2.9021   -3.4776    0.0000 C   0  0  0  0  0  0  0  0  0  0  0  0
    3.8001   -2.9498    0.0000 C   0  0  0  0  0  0  0  0  0  0  0  0
    3.7841   -1.9083    0.0000 C   0  0  0  0  0  0  0  0  0  0  0  0
    4.7520   -3.4704    0.0000 C   0  0  0  0  0  0  0  0  0  0  0  0
    3.7841    0.0917    0.0000 C   0  0  0  0  0  0  0  0  0  0  0  0
    3.7680    1.1332    0.0000 C   0  0  0  0  0  0  0  0  0  0  0  0
    2.9180   -1.4083    0.0000 C   0  0  0  0  0  0  0  0  0  0  0  0
    6.3865    4.6676    0.0000 C   0  0  0  0  0  0  0  0  0  0  0  0
    4.6501   -0.4083    0.0000 C   0  0  0  0  0  0  0  0  0  0  0  0
    3.3367   -5.9730    0.0000 C   0  0  0  0  0  0  0  0  0  0  0  0
    5.5681    1.1401    0.0000 C   0  0  0  0  0  0  0  0  0  0  0  0
    4.6501   -1.4083    0.0000 C   0  0  0  0  0  0  0  0  0  0  0  0
    2.0000   -2.9568    0.0000 C   0  0  0  0  0  0  0  0  0  0  0  0
    2.9180   -0.4083    0.0000 C   0  0  0  0  0  0  0  0  0  0  0  0
    5.5601    0.0985    0.0000 C   0  0  0  0  0  0  0  0  0  0  0  0
    2.0080   -1.9152    0.0000 C   0  0  0  0  0  0  0  0  0  0  0  0
    5.3999    2.2388    0.0000 H   0  0  0  0  0  0  0  0  0  0  0  0
    3.1832    3.2629    0.0000 H   0  0  0  0  0  0  0  0  0  0  0  0
    3.5844    2.5742    0.0000 H   0  0  0  0  0  0  0  0  0  0  0  0
    3.2546    3.8455    0.0000 H   0  0  0  0  0  0  0  0  0  0  0  0
    5.1902    4.9730    0.0000 H   0  0  0  0  0  0  0  0  0  0  0  0
    6.0605    3.8563    0.0000 H   0  0  0  0  0  0  0  0  0  0  0  0
    2.2837   -4.4517    0.0000 H   0  0  0  0  0  0  0  0  0  0  0  0
    2.6802   -5.1446    0.0000 H   0  0  0  0  0  0  0  0  0  0  0  0
    4.9868   -5.1357    0.0000 H   0  0  0  0  0  0  0  0  0  0  0  0
    5.3779   -4.4398    0.0000 H   0  0  0  0  0  0  0  0  0  0  0  0
    6.6986    4.1319    0.0000 H   0  0  0  0  0  0  0  0  0  0  0  0
    6.9222    4.9797    0.0000 H   0  0  0  0  0  0  0  0  0  0  0  0
    6.0744    5.2033    0.0000 H   0  0  0  0  0  0  0  0  0  0  0  0
    2.7986   -5.6650    0.0000 H   0  0  0  0  0  0  0  0  0  0  0  0
    3.0288   -6.5111    0.0000 H   0  0  0  0  0  0  0  0  0  0  0  0
    3.8748   -6.2809    0.0000 H   0  0  0  0  0  0  0  0  0  0  0  0
    6.1062    1.4481    0.0000 H   0  0  0  0  0  0  0  0  0  0  0  0
    1.4619   -3.2647    0.0000 H   0  0  0  0  0  0  0  0  0  0  0  0
    6.0934   -0.2177    0.0000 H   0  0  0  0  0  0  0  0  0  0  0  0
    1.4747   -1.5990    0.0000 H   0  0  0  0  0  0  0  0  0  0  0  0
    2.9200    5.2742    0.0000 H   0  0  0  0  0  0  0  0  0  0  0  0
    5.1864    5.9730    0.0000 H   0  0  0  0  0  0  0  0  0  0  0  0
    4.9567   -5.9667    0.0000 H   0  0  0  0  0  0  0  0  0  0  0  0
    2.3629    1.3070    0.0000 H   0  0  0  0  0  0  0  0  0  0  0  0
  1  9  1  0  0  0  0
  1 13  1  0  0  0  0
 11  2  1  1  0  0  0
  2 54  1  0  0  0  0
 12  3  1  6  0  0  0
  3 55  1  0  0  0  0
 14  4  1  6  0  0  0
  4 56  1  0  0  0  0
  5 23  1  0  0  0  0
  5 57  1  0  0  0  0
  6 21  2  0  0  0  0
  7 29  2  0  0  0  0
  8 31  2  0  0  0  0
  9 10  1  0  0  0  0
  9 16  1  0  0  0  0
  9 34  1  6  0  0  0
 10 11  1  0  0  0  0
 10 35  1  0  0  0  0
 10 36  1  0  0  0  0
 11 12  1  0  0  0  0
 11 37  1  0  0  0  0
 12 13  1  0  0  0  0
 12 38  1  0  0  0  0
 13 25  1  1  0  0  0
 13 39  1  0  0  0  0
 14 15  1  0  0  0  0
 14 17  1  0  0  0  0
 14 27  1  0  0  0  0
 15 18  1  0  0  0  0
 15 40  1  0  0  0  0
 15 41  1  0  0  0  0
 16 23  2  0  0  0  0
 16 28  1  0  0  0  0
 17 21  1  0  0  0  0
 17 42  1  0  0  0  0
 17 43  1  0  0  0  0
 18 19  2  0  0  0  0
 18 30  1  0  0  0  0
 19 20  1  0  0  0  0
 19 21  1  0  0  0  0
 20 24  2  0  0  0  0
 20 29  1  0  0  0  0
 22 23  1  0  0  0  0
 22 26  2  0  0  0  0
 22 31  1  0  0  0  0
 24 31  1  0  0  0  0
 24 33  1  0  0  0  0
 25 44  1  0  0  0  0
 25 45  1  0  0  0  0
 25 46  1  0  0  0  0
 26 29  1  0  0  0  0
 26 32  1  0  0  0  0
 27 47  1  0  0  0  0
 27 48  1  0  0  0  0
 27 49  1  0  0  0  0
 28 32  2  0  0  0  0
 28 50  1  0  0  0  0
 30 33  2  0  0  0  0
 30 51  1  0  0  0  0
 32 52  1  0  0  0  0
 33 53  1  0  0  0  0
M  END
> <PUBCHEM_COMPOUND_CID>
443812

> <PUBCHEM_COMPOUND_CANONICALIZED>
1

> <PUBCHEM_CACTVS_COMPLEXITY>
842

> <PUBCHEM_CACTVS_HBOND_ACCEPTOR>
8

> <PUBCHEM_CACTVS_HBOND_DONOR>
4

> <PUBCHEM_CACTVS_ROTATABLE_BOND>
1

> <PUBCHEM_CACTVS_SUBSKEYS>
AAADceB4PAAAAAAAAAAAAAAAAAAAAAAAAAA0YMGCAAAAAADBQAAAGgAACAAADFSgmAIyBoAABgCIAqBSAAACAAAkIAAIiAEECMgJNzaCNRqCcUAl4BELuYfL7vTuwAADAAAYAADAAAYAADAAAAAAAAAAAA==

> <PUBCHEM_IUPAC_OPENEYE_NAME>
(3R)-9-[(2R,4R,5S,6R)-4,5-dihydroxy-6-methyl-tetrahydropyran-2-yl]-3,8-dihydroxy-3-methyl-2,4-dihydrobenzo[a]anthracene-1,7,12-trione

> <PUBCHEM_IUPAC_CAS_NAME>
(3R)-9-[(2R,4R,5S,6R)-4,5-dihydroxy-6-methyl-2-oxanyl]-3,8-dihydroxy-3-methyl-2,4-dihydrobenzo[a]anthracene-1,7,12-trione

> <PUBCHEM_IUPAC_NAME>
(3R)-9-[(2R,4R,5S,6R)-4,5-dihydroxy-6-methyloxan-2-yl]-3,8-dihydroxy-3-methyl-2,4-dihydrobenzo[a]anthracene-1,7,12-trione

> <PUBCHEM_IUPAC_SYSTEMATIC_NAME>
(3R)-3-methyl-9-[(2R,4R,5S,6R)-6-methyl-4,5-bis(oxidanyl)oxan-2-yl]-3,8-bis(oxidanyl)-2,4-dihydrobenzo[a]anthracene-1,7,12-trione

> <PUBCHEM_IUPAC_TRADITIONAL_NAME>
(3R)-9-[(2R,4R,5S,6R)-4,5-dihydroxy-6-methyl-tetrahydropyran-2-yl]-3,8-dihydroxy-3-methyl-2,4-dihydrobenz[a]anthracene-1,7,12-trione

> <PUBCHEM_IUPAC_INCHI>
InChI=1S/C25H24O8/c1-10-21(28)15(26)7-17(33-10)12-5-6-14-20(22(12)29)24(31)13-4-3-11-8-25(2,32)9-16(27)18(11)19(13)23(14)30/h3-6,10,15,17,21,26,28-29,32H,7-9H2,1-2H3/t10-,15-,17-,21-,25-/m1/s1

> <PUBCHEM_IUPAC_INCHIKEY>
RWSPXLDDWKEOIW-VLIDSJQPSA-N

> <PUBCHEM_XLOGP3_AA>
1.4

> <PUBCHEM_EXACT_MASS>
452.147118

> <PUBCHEM_MOLECULAR_FORMULA>
C25H24O8

> <PUBCHEM_MOLECULAR_WEIGHT>
452.45326

> <PUBCHEM_OPENEYE_CAN_SMILES>
CC1C(C(CC(O1)C2=C(C3=C(C=C2)C(=O)C4=C(C3=O)C=CC5=C4C(=O)CC(C5)(C)O)O)O)O

> <PUBCHEM_OPENEYE_ISO_SMILES>
C[C@@H]1[C@H]([C@@H](C[C@@H](O1)C2=C(C3=C(C=C2)C(=O)C4=C(C3=O)C=CC5=C4C(=O)C[C@](C5)(C)O)O)O)O

> <PUBCHEM_CACTVS_TPSA>
141

> <PUBCHEM_MONOISOTOPIC_WEIGHT>
452.147118

> <PUBCHEM_TOTAL_CHARGE>
0

> <PUBCHEM_HEAVY_ATOM_COUNT>
33

> <PUBCHEM_ATOM_DEF_STEREO_COUNT>
5

> <PUBCHEM_ATOM_UDEF_STEREO_COUNT>
0

> <PUBCHEM_BOND_DEF_STEREO_COUNT>
0

> <PUBCHEM_BOND_UDEF_STEREO_COUNT>
0

> <PUBCHEM_ISOTOPIC_ATOM_COUNT>
0

> <PUBCHEM_COMPONENT_COUNT>
1

> <PUBCHEM_CACTVS_TAUTO_COUNT>
53

> <PUBCHEM_COORDINATE_TYPE>
1
5
255

> <PUBCHEM_BONDANNOTATIONS>
13  25  5
16  23  8
16  28  8
18  19  8
18  30  8
19  20  8
11  2  5
20  24  8
22  23  8
22  26  8
24  33  8
26  32  8
28  32  8
12  3  6
30  33  8
14  4  6
9  34  6

$$$$

