9336
  -OEChem-06261203372D

 29 28  0     0  0  0  0  0  0999 V2000
    5.3520    2.5785    0.0000 Br  0  5  0  0  0  0  0  0  0  0  0  0
    0.0000    0.6200    0.0000 O   0  0  0  0  0  0  0  0  0  0  0  0
    1.7320    3.6200    0.0000 N   0  3  0  0  0  0  0  0  0  0  0  0
    1.7320    4.6200    0.0000 C   0  0  0  0  0  0  0  0  0  0  0  0
    1.7320    2.6200    0.0000 C   0  0  0  0  0  0  0  0  0  0  0  0
    2.7320    3.6200    0.0000 C   0  0  0  0  0  0  0  0  0  0  0  0
    0.7321    3.6200    0.0000 C   0  0  0  0  0  0  0  0  0  0  0  0
    2.5981    5.1200    0.0000 C   0  0  0  0  0  0  0  0  0  0  0  0
    0.8660    2.1200    0.0000 C   0  0  0  0  0  0  0  0  0  0  0  0
    2.5981    2.1200    0.0000 C   0  0  0  0  0  0  0  0  0  0  0  0
    0.8660    1.1200    0.0000 C   0  0  0  0  0  0  0  0  0  0  0  0
    2.5981    1.1200    0.0000 C   0  0  0  0  0  0  0  0  0  0  0  0
    1.7320    0.6200    0.0000 C   0  0  0  0  0  0  0  0  0  0  0  0
    1.5200    5.2026    0.0000 H   0  0  0  0  0  0  0  0  0  0  0  0
    1.1215    4.5123    0.0000 H   0  0  0  0  0  0  0  0  0  0  0  0
    2.7320    3.0000    0.0000 H   0  0  0  0  0  0  0  0  0  0  0  0
    3.3520    3.6200    0.0000 H   0  0  0  0  0  0  0  0  0  0  0  0
    2.7320    4.2400    0.0000 H   0  0  0  0  0  0  0  0  0  0  0  0
    0.7321    4.2400    0.0000 H   0  0  0  0  0  0  0  0  0  0  0  0
    0.1121    3.6200    0.0000 H   0  0  0  0  0  0  0  0  0  0  0  0
    0.7321    3.0000    0.0000 H   0  0  0  0  0  0  0  0  0  0  0  0
    2.9081    4.5831    0.0000 H   0  0  0  0  0  0  0  0  0  0  0  0
    3.1350    5.4300    0.0000 H   0  0  0  0  0  0  0  0  0  0  0  0
    2.2881    5.6569    0.0000 H   0  0  0  0  0  0  0  0  0  0  0  0
    0.3291    2.4300    0.0000 H   0  0  0  0  0  0  0  0  0  0  0  0
    3.1350    2.4300    0.0000 H   0  0  0  0  0  0  0  0  0  0  0  0
    3.1350    0.8100    0.0000 H   0  0  0  0  0  0  0  0  0  0  0  0
    1.7320    0.0000    0.0000 H   0  0  0  0  0  0  0  0  0  0  0  0
    0.0000    0.0000    0.0000 H   0  0  0  0  0  0  0  0  0  0  0  0
  2 11  1  0  0  0  0
  2 29  1  0  0  0  0
  3  4  1  0  0  0  0
  3  5  1  0  0  0  0
  3  6  1  0  0  0  0
  3  7  1  0  0  0  0
  4  8  1  0  0  0  0
  4 14  1  0  0  0  0
  4 15  1  0  0  0  0
  5  9  2  0  0  0  0
  5 10  1  0  0  0  0
  6 16  1  0  0  0  0
  6 17  1  0  0  0  0
  6 18  1  0  0  0  0
  7 19  1  0  0  0  0
  7 20  1  0  0  0  0
  7 21  1  0  0  0  0
  8 22  1  0  0  0  0
  8 23  1  0  0  0  0
  8 24  1  0  0  0  0
  9 11  1  0  0  0  0
  9 25  1  0  0  0  0
 10 12  2  0  0  0  0
 10 26  1  0  0  0  0
 11 13  2  0  0  0  0
 12 13  1  0  0  0  0
 12 27  1  0  0  0  0
 13 28  1  0  0  0  0
M  CHG  2   1  -1   3   1
M  END
> <PUBCHEM_COMPOUND_CID>
9336

> <PUBCHEM_COMPOUND_CANONICALIZED>
1

> <PUBCHEM_CACTVS_COMPLEXITY>
145

> <PUBCHEM_CACTVS_HBOND_ACCEPTOR>
2

> <PUBCHEM_CACTVS_HBOND_DONOR>
1

> <PUBCHEM_CACTVS_ROTATABLE_BOND>
2

> <PUBCHEM_CACTVS_SUBSKEYS>
AAADceByIAAAEAAAAAAAAAAAAAAAAAAAAAAwAAAAAAAAAAABAAAAHgAACAAACAzBkAQyxoMAAgCAACRCQACCAAAhIgAIiAAObIgIJiLCkZOEcAhmwBnI2AeQUAMAAAAAAgAAAAAAAAAEAAAAAAAAAAAAAA==

> <PUBCHEM_IUPAC_OPENEYE_NAME>
ethyl-(3-hydroxyphenyl)-dimethyl-ammonium bromide

> <PUBCHEM_IUPAC_CAS_NAME>
ethyl-(3-hydroxyphenyl)-dimethylammonium bromide

> <PUBCHEM_IUPAC_NAME>
ethyl-(3-hydroxyphenyl)-dimethylazanium bromide

> <PUBCHEM_IUPAC_SYSTEMATIC_NAME>
ethyl-(3-hydroxyphenyl)-dimethyl-azanium bromide

> <PUBCHEM_IUPAC_TRADITIONAL_NAME>
ethyl-(3-hydroxyphenyl)-dimethyl-ammonium bromide

> <PUBCHEM_IUPAC_INCHI>
InChI=1S/C10H15NO.BrH/c1-4-11(2,3)9-6-5-7-10(12)8-9;/h5-8H,4H2,1-3H3;1H

> <PUBCHEM_IUPAC_INCHIKEY>
CAEPIUXAUPYIIJ-UHFFFAOYSA-N

> <PUBCHEM_EXACT_MASS>
245.041526

> <PUBCHEM_MOLECULAR_FORMULA>
C10H16BrNO

> <PUBCHEM_MOLECULAR_WEIGHT>
246.14414

> <PUBCHEM_OPENEYE_CAN_SMILES>
CC[N+](C)(C)C1=CC(=CC=C1)O.[Br-]

> <PUBCHEM_OPENEYE_ISO_SMILES>
CC[N+](C)(C)C1=CC(=CC=C1)O.[Br-]

> <PUBCHEM_CACTVS_TPSA>
20.2

> <PUBCHEM_MONOISOTOPIC_WEIGHT>
245.041526

> <PUBCHEM_TOTAL_CHARGE>
0

> <PUBCHEM_HEAVY_ATOM_COUNT>
13

> <PUBCHEM_ATOM_DEF_STEREO_COUNT>
0

> <PUBCHEM_ATOM_UDEF_STEREO_COUNT>
0

> <PUBCHEM_BOND_DEF_STEREO_COUNT>
0

> <PUBCHEM_BOND_UDEF_STEREO_COUNT>
0

> <PUBCHEM_ISOTOPIC_ATOM_COUNT>
0

> <PUBCHEM_COMPONENT_COUNT>
2

> <PUBCHEM_CACTVS_TAUTO_COUNT>
3

> <PUBCHEM_COORDINATE_TYPE>
1
5
255

> <PUBCHEM_BONDANNOTATIONS>
10  12  8
11  13  8
12  13  8
5  10  8
5  9  8
9  11  8

$$$$

