10379
  -OEChem-06261204302D

 24 25  0     0  0  0  0  0  0999 V2000
    2.8660   -2.8450    0.0000 O   0  0  0  0  0  0  0  0  0  0  0  0
    6.3301    3.1550    0.0000 O   0  0  0  0  0  0  0  0  0  0  0  0
    2.8660    1.1550    0.0000 N   0  0  0  0  0  0  0  0  0  0  0  0
    2.8660    0.1550    0.0000 C   0  0  0  0  0  0  0  0  0  0  0  0
    3.7320    1.6550    0.0000 C   0  0  0  0  0  0  0  0  0  0  0  0
    2.0000   -0.3450    0.0000 C   0  0  0  0  0  0  0  0  0  0  0  0
    3.7320   -0.3450    0.0000 C   0  0  0  0  0  0  0  0  0  0  0  0
    2.0000   -1.3450    0.0000 C   0  0  0  0  0  0  0  0  0  0  0  0
    3.7320   -1.3450    0.0000 C   0  0  0  0  0  0  0  0  0  0  0  0
    2.8660   -1.8450    0.0000 C   0  0  0  0  0  0  0  0  0  0  0  0
    4.5981    1.1550    0.0000 C   0  0  0  0  0  0  0  0  0  0  0  0
    3.7320    2.6550    0.0000 C   0  0  0  0  0  0  0  0  0  0  0  0
    5.4641    1.6550    0.0000 C   0  0  0  0  0  0  0  0  0  0  0  0
    4.5981    3.1550    0.0000 C   0  0  0  0  0  0  0  0  0  0  0  0
    5.4641    2.6550    0.0000 C   0  0  0  0  0  0  0  0  0  0  0  0
    1.4631   -0.0350    0.0000 H   0  0  0  0  0  0  0  0  0  0  0  0
    4.2690   -0.0350    0.0000 H   0  0  0  0  0  0  0  0  0  0  0  0
    1.4631   -1.6550    0.0000 H   0  0  0  0  0  0  0  0  0  0  0  0
    4.2690   -1.6550    0.0000 H   0  0  0  0  0  0  0  0  0  0  0  0
    4.5981    0.5350    0.0000 H   0  0  0  0  0  0  0  0  0  0  0  0
    3.1951    2.9650    0.0000 H   0  0  0  0  0  0  0  0  0  0  0  0
    6.0010    1.3450    0.0000 H   0  0  0  0  0  0  0  0  0  0  0  0
    4.5981    3.7750    0.0000 H   0  0  0  0  0  0  0  0  0  0  0  0
    2.3291   -3.1550    0.0000 H   0  0  0  0  0  0  0  0  0  0  0  0
  1 10  1  0  0  0  0
  1 24  1  0  0  0  0
  2 15  2  0  0  0  0
  3  4  1  0  0  0  0
  3  5  2  0  0  0  0
  4  6  2  0  0  0  0
  4  7  1  0  0  0  0
  5 11  1  0  0  0  0
  5 12  1  0  0  0  0
  6  8  1  0  0  0  0
  6 16  1  0  0  0  0
  7  9  2  0  0  0  0
  7 17  1  0  0  0  0
  8 10  2  0  0  0  0
  8 18  1  0  0  0  0
  9 10  1  0  0  0  0
  9 19  1  0  0  0  0
 11 13  2  0  0  0  0
 11 20  1  0  0  0  0
 12 14  2  0  0  0  0
 12 21  1  0  0  0  0
 13 15  1  0  0  0  0
 13 22  1  0  0  0  0
 14 15  1  0  0  0  0
 14 23  1  0  0  0  0
M  END
> <PUBCHEM_COMPOUND_CID>
10379

> <PUBCHEM_COMPOUND_CANONICALIZED>
1

> <PUBCHEM_CACTVS_COMPLEXITY>
316

> <PUBCHEM_CACTVS_HBOND_ACCEPTOR>
3

> <PUBCHEM_CACTVS_HBOND_DONOR>
1

> <PUBCHEM_CACTVS_ROTATABLE_BOND>
1

> <PUBCHEM_CACTVS_SUBSKEYS>
AAADccByMAAAAAAAAAAAAAAAAAAAAAAAAAAwQAAAAAAAAAABAAAAHgAACAAACAyBkAAwxoIAAgCoAaRyRACCAAAgIgAIiAAWbNgIJiKCkZOAcABkwBEI2YewQAAAAEAAAAAAAAAAgAAAAAAAAAAAAAAAAA==

> <PUBCHEM_IUPAC_OPENEYE_NAME>
4-(4-hydroxyphenyl)iminocyclohexa-2,5-dien-1-one

> <PUBCHEM_IUPAC_CAS_NAME>
4-(4-hydroxyphenyl)imino-1-cyclohexa-2,5-dienone

> <PUBCHEM_IUPAC_NAME>
4-(4-hydroxyphenyl)iminocyclohexa-2,5-dien-1-one

> <PUBCHEM_IUPAC_SYSTEMATIC_NAME>
4-(4-hydroxyphenyl)iminocyclohexa-2,5-dien-1-one

> <PUBCHEM_IUPAC_TRADITIONAL_NAME>
4-(4-hydroxyphenyl)iminocyclohexa-2,5-dien-1-one

> <PUBCHEM_IUPAC_INCHI>
InChI=1S/C12H9NO2/c14-11-5-1-9(2-6-11)13-10-3-7-12(15)8-4-10/h1-8,14H

> <PUBCHEM_IUPAC_INCHIKEY>
RSAZYXZUJROYKR-UHFFFAOYSA-N

> <PUBCHEM_XLOGP3>
1.5

> <PUBCHEM_EXACT_MASS>
199.063329

> <PUBCHEM_MOLECULAR_FORMULA>
C12H9NO2

> <PUBCHEM_MOLECULAR_WEIGHT>
199.20536

> <PUBCHEM_OPENEYE_CAN_SMILES>
C1=CC(=O)C=CC1=NC2=CC=C(C=C2)O

> <PUBCHEM_OPENEYE_ISO_SMILES>
C1=CC(=O)C=CC1=NC2=CC=C(C=C2)O

> <PUBCHEM_CACTVS_TPSA>
49.7

> <PUBCHEM_MONOISOTOPIC_WEIGHT>
199.063329

> <PUBCHEM_TOTAL_CHARGE>
0

> <PUBCHEM_HEAVY_ATOM_COUNT>
15

> <PUBCHEM_ATOM_DEF_STEREO_COUNT>
0

> <PUBCHEM_ATOM_UDEF_STEREO_COUNT>
0

> <PUBCHEM_BOND_DEF_STEREO_COUNT>
0

> <PUBCHEM_BOND_UDEF_STEREO_COUNT>
0

> <PUBCHEM_ISOTOPIC_ATOM_COUNT>
0

> <PUBCHEM_COMPONENT_COUNT>
1

> <PUBCHEM_CACTVS_TAUTO_COUNT>
2

> <PUBCHEM_COORDINATE_TYPE>
1
5
255

> <PUBCHEM_BONDANNOTATIONS>
4  6  8
4  7  8
6  8  8
7  9  8
8  10  8
9  10  8

$$$$

