9552083
  -OEChem-07051212553D

 89 90  0     1  0  0  0  0  0999 V2000
   -3.1317    0.1411    1.0954 S   0  0  1  0  0  0  0  0  0  0  0  0
    1.6883   -2.1986   -1.4921 O   0  0  0  0  0  0  0  0  0  0  0  0
   -3.4314    0.6743   -1.7926 O   0  0  0  0  0  0  0  0  0  0  0  0
    1.9074    0.7843    1.8463 O   0  0  0  0  0  0  0  0  0  0  0  0
    5.2994    0.3939   -1.1093 O   0  0  0  0  0  0  0  0  0  0  0  0
    0.2966    3.0841   -2.0910 O   0  0  0  0  0  0  0  0  0  0  0  0
    0.8857   -2.9666    1.0030 O   0  0  0  0  0  0  0  0  0  0  0  0
   -5.1745   -0.8393    3.2666 O   0  0  0  0  0  0  0  0  0  0  0  0
   -2.6645    0.5235    2.4675 O   0  0  0  0  0  0  0  0  0  0  0  0
    6.8728   -2.5425    0.2287 O   0  0  0  0  0  0  0  0  0  0  0  0
    8.7349   -1.5818    1.0990 O   0  0  0  0  0  0  0  0  0  0  0  0
   -6.3651   -3.1297   -0.5022 O   0  0  0  0  0  0  0  0  0  0  0  0
   -8.5127   -2.4825   -0.1288 O   0  0  0  0  0  0  0  0  0  0  0  0
    2.6272    0.7476   -0.3620 N   0  0  0  0  0  0  0  0  0  0  0  0
    0.1606    2.6143    0.1816 N   0  0  0  0  0  0  0  0  0  0  0  0
    5.2483   -0.6382    0.9766 N   0  0  0  0  0  0  0  0  0  0  0  0
   -2.4905    3.4324   -1.9859 N   0  0  0  0  0  0  0  0  0  0  0  0
   -7.7306    0.1186   -0.7308 N   0  0  0  0  0  0  0  0  0  0  0  0
    2.9353   -1.4570   -1.5891 C   0  0  1  0  0  0  0  0  0  0  0  0
    3.2514   -0.5709   -0.3466 C   0  0  1  0  0  0  0  0  0  0  0  0
    3.9745   -2.6025   -1.6662 C   0  0  0  0  0  0  0  0  0  0  0  0
    1.5739    2.7580    0.4916 C   0  0  1  0  0  0  0  0  0  0  0  0
    2.9908   -0.7082   -2.9310 C   0  0  0  0  0  0  0  0  0  0  0  0
    1.7658    3.6532    1.7070 C   0  0  0  0  0  0  0  0  0  0  0  0
    2.0678    1.3417    0.7622 C   0  0  0  0  0  0  0  0  0  0  0  0
   -1.8377    2.4033   -1.1726 C   0  0  1  0  0  0  0  0  0  0  0  0
   -2.0430    1.0116   -1.8038 C   0  0  1  0  0  0  0  0  0  0  0  0
    4.7016   -0.2049   -0.2191 C   0  0  0  0  0  0  0  0  0  0  0  0
   -1.2897   -0.0744   -1.0632 C   0  0  0  0  0  0  0  0  0  0  0  0
    0.6036   -1.5866   -0.9383 C   0  0  0  0  0  0  0  0  0  0  0  0
    3.9193   -3.4549   -0.4225 C   0  0  0  0  0  0  0  0  0  0  0  0
   -0.3533    2.7539   -1.1007 C   0  0  0  0  0  0  0  0  0  0  0  0
   -0.1504   -0.6514   -1.6456 C   0  0  0  0  0  0  0  0  0  0  0  0
   -1.6751   -0.4812    0.2232 C   0  0  0  0  0  0  0  0  0  0  0  0
    3.2390    3.7098    2.1119 C   0  0  0  0  0  0  0  0  0  0  0  0
    1.2344    5.0605    1.4336 C   0  0  0  0  0  0  0  0  0  0  0  0
    0.1904   -2.0107    0.3252 C   0  0  0  0  0  0  0  0  0  0  0  0
   -0.9435   -1.4510    0.9086 C   0  0  0  0  0  0  0  0  0  0  0  0
   -3.9970   -1.4426    1.2412 C   0  0  0  0  0  0  0  0  0  0  0  0
   -5.3550   -1.3254    1.9342 C   0  0  2  0  0  0  0  0  0  0  0  0
   -6.3958   -0.4289    1.2438 C   0  0  0  0  0  0  0  0  0  0  0  0
    6.6333   -0.4316    1.3333 C   0  0  0  0  0  0  0  0  0  0  0  0
   -2.7259    4.6307   -1.1993 C   0  0  0  0  0  0  0  0  0  0  0  0
   -6.7325   -0.8136   -0.2006 C   0  0  1  0  0  0  0  0  0  0  0  0
    7.5286   -1.5588    0.8872 C   0  0  0  0  0  0  0  0  0  0  0  0
   -7.3309   -2.2032   -0.2744 C   0  0  0  0  0  0  0  0  0  0  0  0
    2.9074   -1.0743    0.5620 H   0  0  0  0  0  0  0  0  0  0  0  0
    3.7496   -3.2507   -2.5241 H   0  0  0  0  0  0  0  0  0  0  0  0
    4.9899   -2.2249   -1.8261 H   0  0  0  0  0  0  0  0  0  0  0  0
    2.0998    3.1785   -0.3737 H   0  0  0  0  0  0  0  0  0  0  0  0
    3.9929   -0.3307   -3.1541 H   0  0  0  0  0  0  0  0  0  0  0  0
    2.3020    0.1397   -2.9626 H   0  0  0  0  0  0  0  0  0  0  0  0
    2.6900   -1.3700   -3.7522 H   0  0  0  0  0  0  0  0  0  0  0  0
    2.7294    1.3081   -1.2026 H   0  0  0  0  0  0  0  0  0  0  0  0
    1.2031    3.2513    2.5608 H   0  0  0  0  0  0  0  0  0  0  0  0
   -2.2812    2.4252   -0.1728 H   0  0  0  0  0  0  0  0  0  0  0  0
   -1.7285    1.0251   -2.8554 H   0  0  0  0  0  0  0  0  0  0  0  0
   -0.4529    2.3034    0.9294 H   0  0  0  0  0  0  0  0  0  0  0  0
    2.9682   -3.9896   -0.3401 H   0  0  0  0  0  0  0  0  0  0  0  0
    4.6925   -4.2295   -0.4872 H   0  0  0  0  0  0  0  0  0  0  0  0
    4.0894   -2.9256    0.5128 H   0  0  0  0  0  0  0  0  0  0  0  0
    0.1429   -0.3620   -2.6501 H   0  0  0  0  0  0  0  0  0  0  0  0
    3.3800    4.3947    2.9554 H   0  0  0  0  0  0  0  0  0  0  0  0
    3.6191    2.7332    2.4264 H   0  0  0  0  0  0  0  0  0  0  0  0
    3.8634    4.0667    1.2854 H   0  0  0  0  0  0  0  0  0  0  0  0
    1.4014    5.7116    2.2986 H   0  0  0  0  0  0  0  0  0  0  0  0
    0.1574    5.0534    1.2371 H   0  0  0  0  0  0  0  0  0  0  0  0
    1.7351    5.5141    0.5713 H   0  0  0  0  0  0  0  0  0  0  0  0
   -1.2230   -1.7691    1.9099 H   0  0  0  0  0  0  0  0  0  0  0  0
    4.6648   -1.1158    1.6563 H   0  0  0  0  0  0  0  0  0  0  0  0
   -3.3895    3.0808   -2.3163 H   0  0  0  0  0  0  0  0  0  0  0  0
   -4.1023   -1.8716    0.2411 H   0  0  0  0  0  0  0  0  0  0  0  0
   -3.3807   -2.1198    1.8397 H   0  0  0  0  0  0  0  0  0  0  0  0
   -5.7661   -2.3366    2.0352 H   0  0  0  0  0  0  0  0  0  0  0  0
   -3.5221   -0.2405   -2.1104 H   0  0  0  0  0  0  0  0  0  0  0  0
   -6.0595    0.6158    1.2843 H   0  0  0  0  0  0  0  0  0  0  0  0
   -7.3123   -0.4494    1.8517 H   0  0  0  0  0  0  0  0  0  0  0  0
    6.9872    0.4966    0.8751 H   0  0  0  0  0  0  0  0  0  0  0  0
    6.6799   -0.3578    2.4233 H   0  0  0  0  0  0  0  0  0  0  0  0
   -1.7936    5.0709   -0.8313 H   0  0  0  0  0  0  0  0  0  0  0  0
   -3.2097    5.3847   -1.8285 H   0  0  0  0  0  0  0  0  0  0  0  0
   -3.3898    4.4367   -0.3500 H   0  0  0  0  0  0  0  0  0  0  0  0
   -5.8503   -0.7597   -0.8462 H   0  0  0  0  0  0  0  0  0  0  0  0
    0.4533   -3.1300    1.8586 H   0  0  0  0  0  0  0  0  0  0  0  0
   -6.0404   -0.8599    3.7087 H   0  0  0  0  0  0  0  0  0  0  0  0
   -7.3625    1.0687   -0.6968 H   0  0  0  0  0  0  0  0  0  0  0  0
   -7.8981   -0.0845   -1.7158 H   0  0  0  0  0  0  0  0  0  0  0  0
    7.4759   -3.2631   -0.0525 H   0  0  0  0  0  0  0  0  0  0  0  0
   -6.7318   -4.0388   -0.5395 H   0  0  0  0  0  0  0  0  0  0  0  0
  1  9  2  0  0  0  0
  1 34  1  0  0  0  0
  1 39  1  0  0  0  0
  2 19  1  0  0  0  0
  2 30  1  0  0  0  0
  3 27  1  0  0  0  0
  3 75  1  0  0  0  0
  4 25  2  0  0  0  0
  5 28  2  0  0  0  0
  6 32  2  0  0  0  0
  7 37  1  0  0  0  0
  7 84  1  0  0  0  0
  8 40  1  0  0  0  0
  8 85  1  0  0  0  0
 10 45  1  0  0  0  0
 10 88  1  0  0  0  0
 11 45  2  0  0  0  0
 12 46  1  0  0  0  0
 12 89  1  0  0  0  0
 13 46  2  0  0  0  0
 14 20  1  0  0  0  0
 14 25  1  0  0  0  0
 14 54  1  0  0  0  0
 15 22  1  0  0  0  0
 15 32  1  0  0  0  0
 15 58  1  0  0  0  0
 16 28  1  0  0  0  0
 16 42  1  0  0  0  0
 16 70  1  0  0  0  0
 17 26  1  0  0  0  0
 17 43  1  0  0  0  0
 17 71  1  0  0  0  0
 18 44  1  0  0  0  0
 18 86  1  0  0  0  0
 18 87  1  0  0  0  0
 19 20  1  0  0  0  0
 19 21  1  0  0  0  0
 19 23  1  0  0  0  0
 20 28  1  0  0  0  0
 20 47  1  0  0  0  0
 21 31  1  0  0  0  0
 21 48  1  0  0  0  0
 21 49  1  0  0  0  0
 22 24  1  0  0  0  0
 22 25  1  0  0  0  0
 22 50  1  0  0  0  0
 23 51  1  0  0  0  0
 23 52  1  0  0  0  0
 23 53  1  0  0  0  0
 24 35  1  0  0  0  0
 24 36  1  0  0  0  0
 24 55  1  0  0  0  0
 26 27  1  0  0  0  0
 26 32  1  0  0  0  0
 26 56  1  0  0  0  0
 27 29  1  0  0  0  0
 27 57  1  0  0  0  0
 29 33  2  0  0  0  0
 29 34  1  0  0  0  0
 30 33  1  0  0  0  0
 30 37  2  0  0  0  0
 31 59  1  0  0  0  0
 31 60  1  0  0  0  0
 31 61  1  0  0  0  0
 33 62  1  0  0  0  0
 34 38  2  0  0  0  0
 35 63  1  0  0  0  0
 35 64  1  0  0  0  0
 35 65  1  0  0  0  0
 36 66  1  0  0  0  0
 36 67  1  0  0  0  0
 36 68  1  0  0  0  0
 37 38  1  0  0  0  0
 38 69  1  0  0  0  0
 39 40  1  0  0  0  0
 39 72  1  0  0  0  0
 39 73  1  0  0  0  0
 40 41  1  0  0  0  0
 40 74  1  0  0  0  0
 41 44  1  0  0  0  0
 41 76  1  0  0  0  0
 41 77  1  0  0  0  0
 42 45  1  0  0  0  0
 42 78  1  0  0  0  0
 42 79  1  0  0  0  0
 43 80  1  0  0  0  0
 43 81  1  0  0  0  0
 43 82  1  0  0  0  0
 44 46  1  0  0  0  0
 44 83  1  0  0  0  0
M  END
> <PUBCHEM_COMPOUND_CID>
9552083

> <PUBCHEM_CONFORMER_RMSD>
1.4

> <PUBCHEM_CONFORMER_DIVERSEORDER>
1
4
2
3

> <PUBCHEM_MMFF94_PARTIAL_CHARGES>
52
1 0.24
10 -0.65
11 -0.57
12 -0.65
13 -0.57
14 -0.73
15 -0.73
16 -0.73
17 -0.9
18 -0.99
19 0.28
2 -0.36
20 0.36
22 0.36
25 0.57
26 0.33
27 0.42
28 0.57
29 -0.14
3 -0.68
30 0.08
32 0.57
33 -0.15
34 0.06
37 0.08
38 -0.15
39 0.19
4 -0.57
40 0.28
42 0.36
43 0.27
44 0.33
45 0.66
46 0.66
5 -0.57
54 0.37
58 0.37
6 -0.57
62 0.15
69 0.15
7 -0.53
70 0.37
71 0.36
75 0.4
8 -0.68
84 0.45
85 0.4
86 0.36
87 0.36
88 0.5
89 0.5
9 -0.5

> <PUBCHEM_EFFECTIVE_ROTOR_COUNT>
14.6

> <PUBCHEM_PHARMACOPHORE_FEATURES>
26
1 10 acceptor
1 11 acceptor
1 12 acceptor
1 13 acceptor
1 14 donor
1 15 donor
1 16 donor
1 17 cation
1 17 donor
1 18 cation
1 18 donor
1 2 acceptor
1 3 acceptor
1 3 donor
1 31 hydrophobe
1 4 acceptor
1 5 acceptor
1 6 acceptor
1 7 donor
1 8 acceptor
1 8 donor
1 9 acceptor
3 10 11 45 anion
3 12 13 46 anion
3 24 35 36 hydrophobe
6 29 30 33 34 37 38 rings

> <PUBCHEM_HEAVY_ATOM_COUNT>
46

> <PUBCHEM_ATOM_DEF_STEREO_COUNT>
8

> <PUBCHEM_ATOM_UDEF_STEREO_COUNT>
0

> <PUBCHEM_BOND_DEF_STEREO_COUNT>
0

> <PUBCHEM_BOND_UDEF_STEREO_COUNT>
0

> <PUBCHEM_ISOTOPIC_ATOM_COUNT>
0

> <PUBCHEM_COMPONENT_COUNT>
1

> <PUBCHEM_CACTVS_TAUTO_COUNT>
24

> <PUBCHEM_CONFORMER_ID>
0091C0D300000001

> <PUBCHEM_MMFF94_ENERGY>
125.7054

> <PUBCHEM_FEATURE_SELFOVERLAP>
132.056

> <PUBCHEM_SHAPE_FINGERPRINT>
11828532 37 17773867611198705315
12539747 91 18410302436145062941
12608794 3 18041853821939842142
13383668 251 18189352177641011626
13782708 43 18272365378009588003
13811026 1 18410016575779805438
14068700 675 18335136475886528225
14725015 67 18341901778899409600
15328829 1 16732983111756939493
18608769 82 18340774831400751381
22223350 30 17984692316661432762
23559900 14 18129368338146830747
3380486 145 18115036306783647484
4112364 45 14923948895066661250
4149490 64 18191861229375813171
469060 322 17914872430923557592
5171179 24 18408602583127466013
6004065 56 18260545597993567802
6086070 43 18336829796918159617

> <PUBCHEM_SHAPE_MULTIPOLES>
855.17
18.01
5.21
2.43
8.64
6.34
-0.06
-18.02
-5.93
-1.19
-0.05
0.54
0.81
2.69

> <PUBCHEM_SHAPE_SELFOVERLAP>
1751.22

> <PUBCHEM_SHAPE_VOLUME>
493.7

> <PUBCHEM_COORDINATE_TYPE>
2
5
10

$$$$

