23724626
  -OEChem-07051213083D

 58 59  0     1  0  0  0  0  0999 V2000
   -0.5411    2.7548    0.3573 S   0  0  0  0  0  0  0  0  0  0  0  0
    4.1609    0.1256   -0.7358 P   0  0  2  0  0  0  0  0  0  0  0  0
    3.0344   -0.2501    1.9555 P   0  0  0  0  0  0  0  0  0  0  0  0
   -2.3431    0.9437    2.3138 O   0  0  0  0  0  0  0  0  0  0  0  0
    2.9091    1.0102   -1.2548 O   0  0  0  0  0  0  0  0  0  0  0  0
    4.1184    0.2666    0.8741 O   0  0  0  0  0  0  0  0  0  0  0  0
    5.4645    0.9898   -1.1493 O   0  0  0  0  0  0  0  0  0  0  0  0
    4.1763   -1.2922   -1.2290 O   0  0  0  0  0  0  0  0  0  0  0  0
    3.1571   -1.8593    1.8674 O   0  0  0  0  0  0  0  0  0  0  0  0
    3.7300    0.1053    3.3705 O   0  0  0  0  0  0  0  0  0  0  0  0
    1.6512    0.2990    1.7669 O   0  0  0  0  0  0  0  0  0  0  0  0
   -1.4688    0.8465   -0.9774 N   0  3  0  0  0  0  0  0  0  0  0  0
   -2.0393   -3.8916   -0.4878 N   0  0  0  0  0  0  0  0  0  0  0  0
   -0.2767   -2.6618    0.6021 N   0  0  0  0  0  0  0  0  0  0  0  0
   -3.5965   -2.7679   -1.8795 N   0  0  0  0  0  0  0  0  0  0  0  0
   -2.8565    1.3418    1.0261 C   0  0  2  0  0  0  0  0  0  0  0  0
   -1.7223    1.5425    0.1098 C   0  0  0  0  0  0  0  0  0  0  0  0
   -3.7646    2.5964    1.2363 C   0  0  0  0  0  0  0  0  0  0  0  0
   -0.3396    1.2296   -1.6664 C   0  0  0  0  0  0  0  0  0  0  0  0
    0.2769    2.2678   -1.0553 C   0  0  0  0  0  0  0  0  0  0  0  0
   -2.3221   -0.2373   -1.4099 C   0  0  0  0  0  0  0  0  0  0  0  0
    1.5354    2.9961   -1.4639 C   0  0  0  0  0  0  0  0  0  0  0  0
   -4.3672    3.0762   -0.0876 C   0  0  0  0  0  0  0  0  0  0  0  0
   -4.8928    2.3344    2.2425 C   0  0  0  0  0  0  0  0  0  0  0  0
    0.0119    0.5017   -2.8947 C   0  0  0  0  0  0  0  0  0  0  0  0
   -1.8475   -1.5285   -0.8014 C   0  0  0  0  0  0  0  0  0  0  0  0
    2.7851    2.3645   -0.8565 C   0  0  0  0  0  0  0  0  0  0  0  0
   -2.4621   -2.7313   -1.0315 C   0  0  0  0  0  0  0  0  0  0  0  0
   -0.7537   -1.5393    0.0251 C   0  0  0  0  0  0  0  0  0  0  0  0
   -0.9574   -3.7856    0.3070 C   0  0  0  0  0  0  0  0  0  0  0  0
   -0.4600   -5.0475    0.9265 C   0  0  0  0  0  0  0  0  0  0  0  0
   -3.5010    0.5168    0.7179 H   0  0  0  0  0  0  0  0  0  0  0  0
   -3.1619    3.4125    1.6558 H   0  0  0  0  0  0  0  0  0  0  0  0
   -2.3029   -0.3170   -2.5020 H   0  0  0  0  0  0  0  0  0  0  0  0
   -3.3710   -0.0420   -1.1687 H   0  0  0  0  0  0  0  0  0  0  0  0
    1.4795    4.0526   -1.1751 H   0  0  0  0  0  0  0  0  0  0  0  0
    1.6135    2.9755   -2.5578 H   0  0  0  0  0  0  0  0  0  0  0  0
   -5.0159    3.9441    0.0728 H   0  0  0  0  0  0  0  0  0  0  0  0
   -3.5924    3.3789   -0.7985 H   0  0  0  0  0  0  0  0  0  0  0  0
   -4.9681    2.2885   -0.5550 H   0  0  0  0  0  0  0  0  0  0  0  0
   -4.4955    2.1189    3.2393 H   0  0  0  0  0  0  0  0  0  0  0  0
   -5.5120    1.4871    1.9295 H   0  0  0  0  0  0  0  0  0  0  0  0
   -5.5421    3.2116    2.3362 H   0  0  0  0  0  0  0  0  0  0  0  0
    0.1070   -0.5743   -2.7245 H   0  0  0  0  0  0  0  0  0  0  0  0
    0.9752    0.8348   -3.2944 H   0  0  0  0  0  0  0  0  0  0  0  0
   -0.7278    0.6776   -3.6822 H   0  0  0  0  0  0  0  0  0  0  0  0
    3.6679    2.9171   -1.1941 H   0  0  0  0  0  0  0  0  0  0  0  0
    2.7484    2.4188    0.2362 H   0  0  0  0  0  0  0  0  0  0  0  0
   -3.0609    0.4952    2.7920 H   0  0  0  0  0  0  0  0  0  0  0  0
   -0.1696   -0.6722    0.2890 H   0  0  0  0  0  0  0  0  0  0  0  0
   -4.0260   -3.6748   -2.0174 H   0  0  0  0  0  0  0  0  0  0  0  0
   -3.6607   -2.1019   -2.6388 H   0  0  0  0  0  0  0  0  0  0  0  0
   -0.3594   -5.8282    0.1663 H   0  0  0  0  0  0  0  0  0  0  0  0
    0.5176   -4.9005    1.3962 H   0  0  0  0  0  0  0  0  0  0  0  0
   -1.1643   -5.3883    1.6912 H   0  0  0  0  0  0  0  0  0  0  0  0
    5.7866    0.9488   -2.0749 H   0  0  0  0  0  0  0  0  0  0  0  0
    2.5278   -2.4122    2.3779 H   0  0  0  0  0  0  0  0  0  0  0  0
    3.2228   -0.0368    4.1980 H   0  0  0  0  0  0  0  0  0  0  0  0
  1 17  1  0  0  0  0
  1 20  1  0  0  0  0
  2  5  1  0  0  0  0
  2  6  1  0  0  0  0
  2  7  1  0  0  0  0
  2  8  2  0  0  0  0
  3  6  1  0  0  0  0
  3  9  1  0  0  0  0
  3 10  1  0  0  0  0
  3 11  2  0  0  0  0
  4 16  1  0  0  0  0
  4 49  1  0  0  0  0
  5 27  1  0  0  0  0
  7 56  1  0  0  0  0
  9 57  1  0  0  0  0
 10 58  1  0  0  0  0
 12 17  2  0  0  0  0
 12 19  1  0  0  0  0
 12 21  1  0  0  0  0
 13 28  2  0  0  0  0
 13 30  1  0  0  0  0
 14 29  1  0  0  0  0
 14 30  2  0  0  0  0
 15 28  1  0  0  0  0
 15 51  1  0  0  0  0
 15 52  1  0  0  0  0
 16 17  1  0  0  0  0
 16 18  1  0  0  0  0
 16 32  1  0  0  0  0
 18 23  1  0  0  0  0
 18 24  1  0  0  0  0
 18 33  1  0  0  0  0
 19 20  2  0  0  0  0
 19 25  1  0  0  0  0
 20 22  1  0  0  0  0
 21 26  1  0  0  0  0
 21 34  1  0  0  0  0
 21 35  1  0  0  0  0
 22 27  1  0  0  0  0
 22 36  1  0  0  0  0
 22 37  1  0  0  0  0
 23 38  1  0  0  0  0
 23 39  1  0  0  0  0
 23 40  1  0  0  0  0
 24 41  1  0  0  0  0
 24 42  1  0  0  0  0
 24 43  1  0  0  0  0
 25 44  1  0  0  0  0
 25 45  1  0  0  0  0
 25 46  1  0  0  0  0
 26 28  1  0  0  0  0
 26 29  2  0  0  0  0
 27 47  1  0  0  0  0
 27 48  1  0  0  0  0
 29 50  1  0  0  0  0
 30 31  1  0  0  0  0
 31 53  1  0  0  0  0
 31 54  1  0  0  0  0
 31 55  1  0  0  0  0
M  CHG  1  12   1
M  END
> <PUBCHEM_COMPOUND_CID>
23724626

> <PUBCHEM_CONFORMER_RMSD>
1

> <PUBCHEM_CONFORMER_DIVERSEORDER>
1
166
241
173
303
262
250
40
252
189
162
365
351
266
209
337
121
203
386
312
221
112
190
311
217
305
258
69
383
234
206
86
283
367
330
59
280
301
180
41
93
205
379
268
285
282
239
227
310
341
6
233
156
214
88
223
25
232
273
372
378
45
294
276
322
324
284
271
63
168
15
314
345
272
349
23
328
327
161
242
220
237
226
313
106
95
286
381
102
172
33
136
130
175
208
385
366
18
4
150
218
76
269
219
306
85
128
62
200
100
290
299
132
165
235
91
56
228
12
152
355
380
155
231
292
229
376
238
129
204
82
28
196
348
373
230
89
21
261
247
342
98
270
307
140
193
346
335
255
256
302
263
83
20
316
264
279
126
344
117
382
197
323
304
171
22
158
240
14
133
318
148
259
81
296
52
43
138
32
332
257
34
79
326
160
141
377
300
325
149
347
111
72
201
236
321
319
30
115
176
329
183
57
146
215
127
358
144
120
317
195
254
289
169
99
356
353
185
182
26
333
245
163
212
225
274
340
19
361
339
123
211
178
199
36
364
315
375
10
362
147
48
2
153
278
44
60
16
142
179
135
110
122
369
139
374
58
114
277
134
188
124
90
50
54
384
198
352
164
308
68
31
187
118
13
368
64
55
267
320
202
293
65
8
94
224
137
73
336
275
119
75
80
49
297
35
359
67
113
210
246
157
143
78
244
84
29
5
194
7
167
363
191
42
3
213
354
92
46
96
248
334
145
61
287
103
192
371
370
251
9
253
184
39
207
104
216
77
181
11
53
249
309
260
37
338
125
107
47
109
298
51
24
159
186
70
66
360
357
131
295
154
350
116
101
343
291
27
222
71
331
265
17
288
281
87
105
74
177
174
170
38
243
108
151
97

> <PUBCHEM_MMFF94_PARTIAL_CHARGES>
35
1 -0.08
10 -0.77
11 -0.7
12 -0.18
13 -0.62
14 -0.62
15 -0.9
16 0.46
17 0.19
19 0.15
2 1.51
20 -0.14
21 0.66
22 0.18
25 0.18
26 -0.14
27 0.28
28 0.41
29 0.16
3 1.51
30 0.48
31 0.14
4 -0.68
49 0.4
5 -0.55
50 0.15
51 0.4
52 0.4
56 0.5
57 0.5
58 0.5
6 -0.54
7 -0.77
8 -0.7
9 -0.77

> <PUBCHEM_EFFECTIVE_ROTOR_COUNT>
10

> <PUBCHEM_PHARMACOPHORE_FEATURES>
14
1 10 acceptor
1 11 acceptor
1 15 donor
1 4 acceptor
1 4 donor
1 7 acceptor
1 8 acceptor
1 9 acceptor
3 13 14 30 cation
3 13 15 28 cation
3 18 23 24 hydrophobe
4 3 9 10 11 anion
5 1 12 17 19 20 rings
6 13 14 26 28 29 30 rings

> <PUBCHEM_HEAVY_ATOM_COUNT>
31

> <PUBCHEM_ATOM_DEF_STEREO_COUNT>
0

> <PUBCHEM_ATOM_UDEF_STEREO_COUNT>
1

> <PUBCHEM_BOND_DEF_STEREO_COUNT>
0

> <PUBCHEM_BOND_UDEF_STEREO_COUNT>
0

> <PUBCHEM_ISOTOPIC_ATOM_COUNT>
0

> <PUBCHEM_COMPONENT_COUNT>
1

> <PUBCHEM_CACTVS_TAUTO_COUNT>
3

> <PUBCHEM_CONFORMER_ID>
016A025200000001

> <PUBCHEM_MMFF94_ENERGY>
17.3399

> <PUBCHEM_FEATURE_SELFOVERLAP>
71.223

> <PUBCHEM_SHAPE_FINGERPRINT>
11578080 2 15431419656656499419
12596599 1 18340774736985037780
12633257 1 18412828014670530380
12717326 69 17628315447835804665
12788726 201 18118684323155675247
12839892 36 18268690828046607969
14468879 13 16298971795349182768
14705955 166 17603582993597153107
14866123 147 18410002239289994559
150020 26 17330569051231369194
15420108 30 18045211907098870285
15840311 113 13613101422012912565
17974551 9 17604144934744981572
20600515 1 17692285978156761835
20764821 26 18270409424623997846
20905425 154 17407689410978781894
21033648 29 17970915685142470536
23557571 272 18118138974004704354
23558518 356 17767383713545959500
23559900 14 17837218069228465300
27425 322 17677065628015210545
35225 105 17823114775433969003

> <PUBCHEM_SHAPE_MULTIPOLES>
582.64
8.23
5.43
2.6
4.57
6.85
-0.97
-4.74
-2.67
-4.22
0.05
0.76
-0.43
-3.06

> <PUBCHEM_SHAPE_SELFOVERLAP>
1163.162

> <PUBCHEM_SHAPE_VOLUME>
349.2

> <PUBCHEM_COORDINATE_TYPE>
2
5
10

$$$$

