361185
  -OEChem-07051213113D

 31 35  0     0  0  0  0  0  0999 V2000
   -2.8337   -1.1812   -0.0004 O   0  0  0  0  0  0  0  0  0  0  0  0
   -5.0717   -1.6708   -0.0002 O   0  0  0  0  0  0  0  0  0  0  0  0
    0.5726    0.2944   -0.0005 C   0  0  0  0  0  0  0  0  0  0  0  0
    1.9315   -0.1138   -0.0003 C   0  0  0  0  0  0  0  0  0  0  0  0
   -0.4595   -0.6729   -0.0005 C   0  0  0  0  0  0  0  0  0  0  0  0
    0.2543    1.6751   -0.0005 C   0  0  0  0  0  0  0  0  0  0  0  0
    2.2590   -1.4895   -0.0001 C   0  0  0  0  0  0  0  0  0  0  0  0
    2.9632    0.8545    0.0000 C   0  0  0  0  0  0  0  0  0  0  0  0
   -1.7935   -0.2185   -0.0003 C   0  0  0  0  0  0  0  0  0  0  0  0
   -2.1185    1.1358    0.0000 C   0  0  0  0  0  0  0  0  0  0  0  0
   -1.0906    2.0795   -0.0002 C   0  0  0  0  0  0  0  0  0  0  0  0
   -0.1082   -2.0357   -0.0003 C   0  0  0  0  0  0  0  0  0  0  0  0
    1.2908    2.6177   -0.0003 C   0  0  0  0  0  0  0  0  0  0  0  0
    1.2289   -2.4366   -0.0001 C   0  0  0  0  0  0  0  0  0  0  0  0
    2.6267    2.2137   -0.0002 C   0  0  0  0  0  0  0  0  0  0  0  0
    3.6069   -1.8776    0.0003 C   0  0  0  0  0  0  0  0  0  0  0  0
    4.3018    0.4354    0.0007 C   0  0  0  0  0  0  0  0  0  0  0  0
    4.6200   -0.9212    0.0009 C   0  0  0  0  0  0  0  0  0  0  0  0
   -3.5176    1.5320    0.0008 C   0  0  0  0  0  0  0  0  0  0  0  0
   -4.4831    0.6104    0.0010 C   0  0  0  0  0  0  0  0  0  0  0  0
   -4.1792   -0.8305    0.0004 C   0  0  0  0  0  0  0  0  0  0  0  0
   -1.3347    3.1411    0.0000 H   0  0  0  0  0  0  0  0  0  0  0  0
   -0.8749   -2.8078   -0.0002 H   0  0  0  0  0  0  0  0  0  0  0  0
    1.0692    3.6832   -0.0002 H   0  0  0  0  0  0  0  0  0  0  0  0
    1.4552   -3.5010    0.0002 H   0  0  0  0  0  0  0  0  0  0  0  0
    3.4029    2.9762    0.0001 H   0  0  0  0  0  0  0  0  0  0  0  0
    3.8801   -2.9308    0.0004 H   0  0  0  0  0  0  0  0  0  0  0  0
    5.1103    1.1635    0.0010 H   0  0  0  0  0  0  0  0  0  0  0  0
    5.6603   -1.2337    0.0014 H   0  0  0  0  0  0  0  0  0  0  0  0
   -3.7643    2.5881    0.0011 H   0  0  0  0  0  0  0  0  0  0  0  0
   -5.5275    0.9023    0.0015 H   0  0  0  0  0  0  0  0  0  0  0  0
  1  9  1  0  0  0  0
  1 21  1  0  0  0  0
  2 21  2  0  0  0  0
  3  4  1  0  0  0  0
  3  5  2  0  0  0  0
  3  6  1  0  0  0  0
  4  7  1  0  0  0  0
  4  8  2  0  0  0  0
  5  9  1  0  0  0  0
  5 12  1  0  0  0  0
  6 11  2  0  0  0  0
  6 13  1  0  0  0  0
  7 14  1  0  0  0  0
  7 16  2  0  0  0  0
  8 15  1  0  0  0  0
  8 17  1  0  0  0  0
  9 10  2  0  0  0  0
 10 11  1  0  0  0  0
 10 19  1  0  0  0  0
 11 22  1  0  0  0  0
 12 14  2  0  0  0  0
 12 23  1  0  0  0  0
 13 15  2  0  0  0  0
 13 24  1  0  0  0  0
 14 25  1  0  0  0  0
 15 26  1  0  0  0  0
 16 18  1  0  0  0  0
 16 27  1  0  0  0  0
 17 18  2  0  0  0  0
 17 28  1  0  0  0  0
 18 29  1  0  0  0  0
 19 20  2  0  0  0  0
 19 30  1  0  0  0  0
 20 21  1  0  0  0  0
 20 31  1  0  0  0  0
M  END
> <PUBCHEM_COMPOUND_CID>
361185

> <PUBCHEM_CONFORMER_RMSD>
0.6

> <PUBCHEM_CONFORMER_DIVERSEORDER>
1

> <PUBCHEM_MMFF94_PARTIAL_CHARGES>
25
1 -0.23
10 0.03
11 -0.15
12 -0.15
13 -0.15
14 -0.15
15 -0.15
16 -0.15
17 -0.15
18 -0.15
19 -0.18
2 -0.57
20 -0.14
21 0.71
22 0.15
23 0.15
24 0.15
25 0.15
26 0.15
27 0.15
28 0.15
29 0.15
30 0.15
31 0.15
9 0.08

> <PUBCHEM_EFFECTIVE_ROTOR_COUNT>
0

> <PUBCHEM_PHARMACOPHORE_FEATURES>
6
1 2 acceptor
6 1 9 10 19 20 21 rings
6 3 4 5 7 12 14 rings
6 3 4 6 8 13 15 rings
6 3 5 6 9 10 11 rings
6 4 7 8 16 17 18 rings

> <PUBCHEM_HEAVY_ATOM_COUNT>
21

> <PUBCHEM_ATOM_DEF_STEREO_COUNT>
0

> <PUBCHEM_ATOM_UDEF_STEREO_COUNT>
0

> <PUBCHEM_BOND_DEF_STEREO_COUNT>
0

> <PUBCHEM_BOND_UDEF_STEREO_COUNT>
0

> <PUBCHEM_ISOTOPIC_ATOM_COUNT>
0

> <PUBCHEM_COMPONENT_COUNT>
1

> <PUBCHEM_CACTVS_TAUTO_COUNT>
1

> <PUBCHEM_CONFORMER_ID>
000582E100000001

> <PUBCHEM_MMFF94_ENERGY>
77.3994

> <PUBCHEM_FEATURE_SELFOVERLAP>
30.602

> <PUBCHEM_SHAPE_FINGERPRINT>
10062212 137 18335708247375441551
10411042 1 18266458896435577070
10616163 171 18336545010110284743
10967382 1 18338516343953324452
1100329 8 18339083670837558426
11471102 20 18411141354694895892
11578080 2 16843050985374714662
11680986 33 18198054785740279746
11806522 49 18411981372919906332
12011746 2 18411415129254115966
12236239 1 17821445742853475619
12403259 226 18412550937271163340
13140716 1 18337672022023605008
138480 1 18410575063442229536
13862211 1 18411142441474966242
14178342 30 18120945155307053616
14787075 74 18272083903090646058
14790565 3 18339633431015420716
15196674 1 18410575097569138276
15230672 131 13082270758966915107
15442244 35 18337389451935644185
15536298 74 18334576841125444048
1601671 61 18337389439214051640
16945 1 18266459802562309088
17492 89 18409448107079024671
1813 80 17489868245536186596
19591789 44 18410575063219975471
200 152 18187087252153957521
20028762 73 18187088304210943079
20645477 70 18342461396026923745
20691752 17 17704069620417757865
20905425 154 18048597311631686718
21267235 1 18410003342964701031
21421861 104 17699287981724126211
221490 88 18341044138508005571
2334 1 18410575119513427692
23402539 116 18336273422048309686
23463225 33 18411699911012921764
23559900 14 18337678610545355488
2748010 2 18338521957939862572
2871803 45 18342181085017959903
335352 9 18266458896255748733
34934 24 18267871768771007659
350125 39 18410853252615666165
4214541 1 18410574024307557057
5104073 3 18409730681271146369
7364860 26 18336266760585701432
9709674 26 18411694387748633451
9981440 41 17474115302090830488

> <PUBCHEM_SHAPE_MULTIPOLES>
420.43
8.63
2.79
0.61
4.36
0.31
0
-2.13
0
-0.68
0
-0.03
0.01
0

> <PUBCHEM_SHAPE_SELFOVERLAP>
987.939

> <PUBCHEM_SHAPE_VOLUME>
212.4

> <PUBCHEM_COORDINATE_TYPE>
2
5
10

$$$$

