643181
  -OEChem-07051213113D

 22 23  0     0  0  0  0  0  0999 V2000
    2.6142   -1.7465   -0.1326 O   0  0  0  0  0  0  0  0  0  0  0  0
    3.8612    0.3011    0.1122 O   0  0  0  0  0  0  0  0  0  0  0  0
   -4.5735   -1.4221    0.3191 O   0  0  0  0  0  0  0  0  0  0  0  0
   -4.5598    0.7797   -0.2780 O   0  0  0  0  0  0  0  0  0  0  0  0
    1.8062   -0.6527   -0.0758 C   0  0  0  0  0  0  0  0  0  0  0  0
    2.5183    0.5164    0.0641 C   0  0  0  0  0  0  0  0  0  0  0  0
   -0.2312    0.5692   -0.0666 C   0  0  0  0  0  0  0  0  0  0  0  0
    0.4281   -0.6598   -0.1445 C   0  0  0  0  0  0  0  0  0  0  0  0
    1.8917    1.7431    0.1432 C   0  0  0  0  0  0  0  0  0  0  0  0
    3.9148   -1.1344   -0.0135 C   0  0  0  0  0  0  0  0  0  0  0  0
    0.4965    1.7638    0.0764 C   0  0  0  0  0  0  0  0  0  0  0  0
   -1.6838    0.6149   -0.1339 C   0  0  0  0  0  0  0  0  0  0  0  0
   -2.5100   -0.4259    0.1112 C   0  0  0  0  0  0  0  0  0  0  0  0
   -3.9727   -0.2470    0.0188 C   0  0  0  0  0  0  0  0  0  0  0  0
   -0.0863   -1.6055   -0.2727 H   0  0  0  0  0  0  0  0  0  0  0  0
    2.4564    2.6617    0.2540 H   0  0  0  0  0  0  0  0  0  0  0  0
    4.5043   -1.3872   -0.9023 H   0  0  0  0  0  0  0  0  0  0  0  0
    4.4164   -1.5456    0.8700 H   0  0  0  0  0  0  0  0  0  0  0  0
   -0.0157    2.7216    0.1386 H   0  0  0  0  0  0  0  0  0  0  0  0
   -2.1092    1.5820   -0.3943 H   0  0  0  0  0  0  0  0  0  0  0  0
   -2.1517   -1.4075    0.3997 H   0  0  0  0  0  0  0  0  0  0  0  0
   -5.5512   -1.3575    0.2717 H   0  0  0  0  0  0  0  0  0  0  0  0
  1  5  1  0  0  0  0
  1 10  1  0  0  0  0
  2  6  1  0  0  0  0
  2 10  1  0  0  0  0
  3 14  1  0  0  0  0
  3 22  1  0  0  0  0
  4 14  2  0  0  0  0
  5  6  2  0  0  0  0
  5  8  1  0  0  0  0
  6  9  1  0  0  0  0
  7  8  2  0  0  0  0
  7 11  1  0  0  0  0
  7 12  1  0  0  0  0
  8 15  1  0  0  0  0
  9 11  2  0  0  0  0
  9 16  1  0  0  0  0
 10 17  1  0  0  0  0
 10 18  1  0  0  0  0
 11 19  1  0  0  0  0
 12 13  2  0  0  0  0
 12 20  1  0  0  0  0
 13 14  1  0  0  0  0
 13 21  1  0  0  0  0
M  END
> <PUBCHEM_COMPOUND_CID>
643181

> <PUBCHEM_CONFORMER_RMSD>
0.6

> <PUBCHEM_CONFORMER_DIVERSEORDER>
1
2

> <PUBCHEM_MMFF94_PARTIAL_CHARGES>
20
1 -0.36
10 0.56
11 -0.15
12 -0.18
13 -0.14
14 0.71
15 0.15
16 0.15
19 0.15
2 -0.36
20 0.15
21 0.15
22 0.5
3 -0.65
4 -0.57
5 0.08
6 0.08
7 0.03
8 -0.15
9 -0.15

> <PUBCHEM_EFFECTIVE_ROTOR_COUNT>
2.6

> <PUBCHEM_PHARMACOPHORE_FEATURES>
7
1 1 acceptor
1 2 acceptor
1 3 acceptor
1 4 acceptor
3 3 4 14 anion
5 1 2 5 6 10 rings
6 5 6 7 8 9 11 rings

> <PUBCHEM_HEAVY_ATOM_COUNT>
14

> <PUBCHEM_ATOM_DEF_STEREO_COUNT>
0

> <PUBCHEM_ATOM_UDEF_STEREO_COUNT>
0

> <PUBCHEM_BOND_DEF_STEREO_COUNT>
1

> <PUBCHEM_BOND_UDEF_STEREO_COUNT>
0

> <PUBCHEM_ISOTOPIC_ATOM_COUNT>
0

> <PUBCHEM_COMPONENT_COUNT>
1

> <PUBCHEM_CACTVS_TAUTO_COUNT>
1

> <PUBCHEM_CONFORMER_ID>
0009D06D00000001

> <PUBCHEM_MMFF94_ENERGY>
35.4592

> <PUBCHEM_FEATURE_SELFOVERLAP>
35.731

> <PUBCHEM_SHAPE_FINGERPRINT>
10219947 1 18187081767079820006
11471102 20 18409733954131281052
11543360 7 16200136682349016854
11806522 49 18411699872189222642
12032990 46 18409727400158795942
13296908 3 18342176648701650531
14251717 144 18409730651148514487
14252887 29 17967525796588735350
15196674 1 18411136930831023659
15477762 27 18411135822940444908
15501101 241 18341613698236974804
16945 1 18334869307382446580
17834074 16 18342174432372263195
18186145 218 17775011184889948509
200 152 18040723567352794973
20201158 50 18341891900416768962
20281475 54 18413383250514437037
20645477 70 18408888451280597415
20871998 22 18115863173802992718
21267235 1 18336537296412603966
21501925 9 18408609175332163560
221490 88 18269829809753920883
22485316 2 18412547621719577223
23402539 116 18131639992702840238
23402655 69 18408887343178885557
26918003 58 18409452500803330867
2748010 2 18119539975272932204
33824 294 18412266125278846154
4047638 21 8574711308253074348
42 15 18410571786629316537
4214541 1 18411138061167233645
5104073 3 18410011027077737513
7364860 26 18263926549162808448
77779 3 18411980248176655381
8809292 202 18201433653913783075
9709674 26 18270396075696550723

> <PUBCHEM_SHAPE_MULTIPOLES>
264.64
8.3
1.65
0.61
7.28
0.19
0
-2.62
-0.2
-0.74
-0.04
0.03
0.01
0.29

> <PUBCHEM_SHAPE_SELFOVERLAP>
573.607

> <PUBCHEM_SHAPE_VOLUME>
145.2

> <PUBCHEM_COORDINATE_TYPE>
2
5
10

$$$$

