582781
  -OEChem-06241222442D

 40 43  0     1  0  0  0  0  0999 V2000
    6.0771   -1.0550    0.0000 P   0  0  3  0  0  0  0  0  0  0  0  0
    4.4809    1.0550    0.0000 P   0  0  3  0  0  0  0  0  0  0  0  0
    5.4893   -1.8640    0.0000 O   0  0  0  0  0  0  0  0  0  0  0  0
    5.0687    1.8640    0.0000 O   0  0  0  0  0  0  0  0  0  0  0  0
    7.0281   -1.3640    0.0000 N   0  0  3  0  0  0  0  0  0  0  0  0
    3.5298    1.3640    0.0000 N   0  0  3  0  0  0  0  0  0  0  0  0
    7.0281   -2.3640    0.0000 C   0  0  3  0  0  0  0  0  0  0  0  0
    3.5298    2.3640    0.0000 C   0  0  3  0  0  0  0  0  0  0  0  0
    7.9743   -2.6688    0.0000 C   0  0  0  0  0  0  0  0  0  0  0  0
    2.5836    2.6688    0.0000 C   0  0  0  0  0  0  0  0  0  0  0  0
    7.9743   -1.0593    0.0000 C   0  0  0  0  0  0  0  0  0  0  0  0
    2.5836    1.0593    0.0000 C   0  0  0  0  0  0  0  0  0  0  0  0
    8.5580   -1.8640    0.0000 C   0  0  0  0  0  0  0  0  0  0  0  0
    2.0000    1.8640    0.0000 C   0  0  0  0  0  0  0  0  0  0  0  0
    6.0771   -2.6730    0.0000 C   0  0  0  0  0  0  0  0  0  0  0  0
    4.4809    2.6730    0.0000 C   0  0  0  0  0  0  0  0  0  0  0  0
    5.7680   -0.1040    0.0000 C   0  0  0  0  0  0  0  0  0  0  0  0
    4.7899    0.1040    0.0000 C   0  0  0  0  0  0  0  0  0  0  0  0
    7.0289   -2.9840    0.0000 H   0  0  0  0  0  0  0  0  0  0  0  0
    3.5290    2.9840    0.0000 H   0  0  0  0  0  0  0  0  0  0  0  0
    2.8346    3.2357    0.0000 H   0  0  0  0  0  0  0  0  0  0  0  0
    2.0462    2.9780    0.0000 H   0  0  0  0  0  0  0  0  0  0  0  0
    7.7233   -3.2357    0.0000 H   0  0  0  0  0  0  0  0  0  0  0  0
    8.5117   -2.9780    0.0000 H   0  0  0  0  0  0  0  0  0  0  0  0
    2.0462    0.7501    0.0000 H   0  0  0  0  0  0  0  0  0  0  0  0
    2.8346    0.4924    0.0000 H   0  0  0  0  0  0  0  0  0  0  0  0
    8.5117   -0.7501    0.0000 H   0  0  0  0  0  0  0  0  0  0  0  0
    7.7233   -0.4924    0.0000 H   0  0  0  0  0  0  0  0  0  0  0  0
    1.5391    2.2788    0.0000 H   0  0  0  0  0  0  0  0  0  0  0  0
    1.5391    1.4493    0.0000 H   0  0  0  0  0  0  0  0  0  0  0  0
    9.0188   -2.2788    0.0000 H   0  0  0  0  0  0  0  0  0  0  0  0
    9.0188   -1.4493    0.0000 H   0  0  0  0  0  0  0  0  0  0  0  0
    5.5401   -2.9830    0.0000 H   0  0  0  0  0  0  0  0  0  0  0  0
    6.3292   -3.2394    0.0000 H   0  0  0  0  0  0  0  0  0  0  0  0
    5.0178    2.9830    0.0000 H   0  0  0  0  0  0  0  0  0  0  0  0
    4.2287    3.2394    0.0000 H   0  0  0  0  0  0  0  0  0  0  0  0
    6.3820   -0.0177    0.0000 H   0  0  0  0  0  0  0  0  0  0  0  0
    5.7897    0.5157    0.0000 H   0  0  0  0  0  0  0  0  0  0  0  0
    4.1759    0.0177    0.0000 H   0  0  0  0  0  0  0  0  0  0  0  0
    4.7683   -0.5157    0.0000 H   0  0  0  0  0  0  0  0  0  0  0  0
  1  3  1  0  0  0  0
  1  5  1  0  0  0  0
  1 17  1  0  0  0  0
  2  4  1  0  0  0  0
  2  6  1  0  0  0  0
  2 18  1  0  0  0  0
  3 15  1  0  0  0  0
  4 16  1  0  0  0  0
  5  7  1  0  0  0  0
  5 11  1  0  0  0  0
  6  8  1  0  0  0  0
  6 12  1  0  0  0  0
  7  9  1  0  0  0  0
  7 15  1  0  0  0  0
  7 19  1  0  0  0  0
  8 10  1  0  0  0  0
  8 16  1  0  0  0  0
  8 20  1  0  0  0  0
  9 13  1  0  0  0  0
  9 23  1  0  0  0  0
  9 24  1  0  0  0  0
 10 14  1  0  0  0  0
 10 21  1  0  0  0  0
 10 22  1  0  0  0  0
 11 13  1  0  0  0  0
 11 27  1  0  0  0  0
 11 28  1  0  0  0  0
 12 14  1  0  0  0  0
 12 25  1  0  0  0  0
 12 26  1  0  0  0  0
 13 31  1  0  0  0  0
 13 32  1  0  0  0  0
 14 29  1  0  0  0  0
 14 30  1  0  0  0  0
 15 33  1  0  0  0  0
 15 34  1  0  0  0  0
 16 35  1  0  0  0  0
 16 36  1  0  0  0  0
 17 18  1  0  0  0  0
 17 37  1  0  0  0  0
 17 38  1  0  0  0  0
 18 39  1  0  0  0  0
 18 40  1  0  0  0  0
M  END
> <PUBCHEM_COMPOUND_CID>
582781

> <PUBCHEM_COMPOUND_CANONICALIZED>
1

> <PUBCHEM_CACTVS_COMPLEXITY>
291

> <PUBCHEM_CACTVS_HBOND_ACCEPTOR>
4

> <PUBCHEM_CACTVS_HBOND_DONOR>
0

> <PUBCHEM_CACTVS_ROTATABLE_BOND>
3

> <PUBCHEM_CACTVS_SUBSKEYS>
AAADceBzMAMAAAAAAAAAAAAAAAAAAWLFiwAAAAAAAAAWLAAAAAAAHggAgCAACCjpgAYAAAIAAQAAAAAAAAAAAAAAAAAAAAAIAAACAAIAgAAEAAAEAACQAACQEAAAAAAAAAAAAAAAAAAAAAAAAAAAAAAAAA==

> <PUBCHEM_IUPAC_OPENEYE_NAME>
1-[2-(3a,4,5,6-tetrahydro-3H-pyrrolo[1,2-c][1,3,2]oxazaphosphol-1-yl)ethyl]-3a,4,5,6-tetrahydro-3H-pyrrolo[1,2-c][1,3,2]oxazaphosphole

> <PUBCHEM_IUPAC_CAS_NAME>
1-[2-(3a,4,5,6-tetrahydro-3H-pyrrolo[1,2-c][1,3,2]oxazaphosphol-1-yl)ethyl]-3a,4,5,6-tetrahydro-3H-pyrrolo[1,2-c][1,3,2]oxazaphosphole

> <PUBCHEM_IUPAC_NAME>
1-[2-(3a,4,5,6-tetrahydro-3H-pyrrolo[1,2-c][1,3,2]oxazaphosphol-1-yl)ethyl]-3a,4,5,6-tetrahydro-3H-pyrrolo[1,2-c][1,3,2]oxazaphosphole

> <PUBCHEM_IUPAC_SYSTEMATIC_NAME>
1-[2-(3a,4,5,6-tetrahydro-3H-pyrrolo[1,2-c][1,3,2]oxazaphosphol-1-yl)ethyl]-3a,4,5,6-tetrahydro-3H-pyrrolo[1,2-c][1,3,2]oxazaphosphole

> <PUBCHEM_IUPAC_TRADITIONAL_NAME>
1-[2-(3a,4,5,6-tetrahydro-3H-pyrrolo[1,2-c][1,3,2]oxazaphosphol-1-yl)ethyl]-3a,4,5,6-tetrahydro-3H-pyrrolo[1,2-c][1,3,2]oxazaphosphole

> <PUBCHEM_IUPAC_INCHI>
InChI=1S/C12H22N2O2P2/c1-3-11-9-15-17(13(11)5-1)7-8-18-14-6-2-4-12(14)10-16-18/h11-12H,1-10H2

> <PUBCHEM_IUPAC_INCHIKEY>
ATXJGVLAIFGTDF-UHFFFAOYSA-N

> <PUBCHEM_XLOGP3_AA>
0.9

> <PUBCHEM_EXACT_MASS>
288.115651

> <PUBCHEM_MOLECULAR_FORMULA>
C12H22N2O2P2

> <PUBCHEM_MOLECULAR_WEIGHT>
288.262804

> <PUBCHEM_OPENEYE_CAN_SMILES>
C1CC2COP(N2C1)CCP3N4CCCC4CO3

> <PUBCHEM_OPENEYE_ISO_SMILES>
C1CC2COP(N2C1)CCP3N4CCCC4CO3

> <PUBCHEM_CACTVS_TPSA>
24.9

> <PUBCHEM_MONOISOTOPIC_WEIGHT>
288.115651

> <PUBCHEM_TOTAL_CHARGE>
0

> <PUBCHEM_HEAVY_ATOM_COUNT>
18

> <PUBCHEM_ATOM_DEF_STEREO_COUNT>
0

> <PUBCHEM_ATOM_UDEF_STEREO_COUNT>
4

> <PUBCHEM_BOND_DEF_STEREO_COUNT>
0

> <PUBCHEM_BOND_UDEF_STEREO_COUNT>
0

> <PUBCHEM_ISOTOPIC_ATOM_COUNT>
0

> <PUBCHEM_COMPONENT_COUNT>
1

> <PUBCHEM_CACTVS_TAUTO_COUNT>
1

> <PUBCHEM_COORDINATE_TYPE>
1
5
255

> <PUBCHEM_BONDANNOTATIONS>
1  17  3
2  18  3
7  9  3
8  10  3

$$$$

