65253
  -OEChem-07051212453D

 28 29  0     1  0  0  0  0  0999 V2000
   -4.9099    0.2939   -0.3698 O   0  0  0  0  0  0  0  0  0  0  0  0
   -3.1806   -0.3373    1.6048 O   0  0  0  0  0  0  0  0  0  0  0  0
    1.3472    2.5120    0.5091 O   0  0  0  0  0  0  0  0  0  0  0  0
    0.4914   -2.0638   -0.2021 N   0  0  0  0  0  0  0  0  0  0  0  0
   -0.4839    0.4877    0.3504 N   0  0  0  0  0  0  0  0  0  0  0  0
    2.7188   -1.1292   -0.2772 N   0  0  0  0  0  0  0  0  0  0  0  0
    3.1508    1.1603    0.0786 N   0  0  0  0  0  0  0  0  0  0  0  0
    4.8845   -0.3630   -0.3744 N   0  0  0  0  0  0  0  0  0  0  0  0
   -0.9347   -1.9481   -0.0300 C   0  0  0  0  0  0  0  0  0  0  0  0
   -1.2998   -0.5155    0.2615 C   0  0  0  0  0  0  0  0  0  0  0  0
    1.3600   -0.9987   -0.1085 C   0  0  0  0  0  0  0  0  0  0  0  0
    0.8527    0.2245    0.1603 C   0  0  0  0  0  0  0  0  0  0  0  0
   -2.7449   -0.2271    0.4680 C   0  0  0  0  0  0  0  0  0  0  0  0
   -3.5534    0.1381   -0.7567 C   0  0  2  0  0  0  0  0  0  0  0  0
    1.7987    1.3953    0.2645 C   0  0  0  0  0  0  0  0  0  0  0  0
    3.5641   -0.0524   -0.1786 C   0  0  0  0  0  0  0  0  0  0  0  0
   -3.0609    1.4233   -1.4000 C   0  0  0  0  0  0  0  0  0  0  0  0
   -1.2643   -2.5767    0.8029 H   0  0  0  0  0  0  0  0  0  0  0  0
   -1.4487   -2.2708   -0.9405 H   0  0  0  0  0  0  0  0  0  0  0  0
    0.8965   -2.9710   -0.4051 H   0  0  0  0  0  0  0  0  0  0  0  0
   -3.5091   -0.6931   -1.4669 H   0  0  0  0  0  0  0  0  0  0  0  0
    3.0680   -2.0597   -0.4776 H   0  0  0  0  0  0  0  0  0  0  0  0
   -2.0613    1.3041   -1.8285 H   0  0  0  0  0  0  0  0  0  0  0  0
   -3.7425    1.7391   -2.1970 H   0  0  0  0  0  0  0  0  0  0  0  0
   -3.0236    2.2398   -0.6700 H   0  0  0  0  0  0  0  0  0  0  0  0
   -4.9717    1.0779    0.2023 H   0  0  0  0  0  0  0  0  0  0  0  0
    5.1809   -1.3121   -0.5738 H   0  0  0  0  0  0  0  0  0  0  0  0
    5.6042    0.3499   -0.3267 H   0  0  0  0  0  0  0  0  0  0  0  0
  1 14  1  0  0  0  0
  1 26  1  0  0  0  0
  2 13  2  0  0  0  0
  3 15  2  0  0  0  0
  4  9  1  0  0  0  0
  4 11  1  0  0  0  0
  4 20  1  0  0  0  0
  5 10  2  0  0  0  0
  5 12  1  0  0  0  0
  6 11  1  0  0  0  0
  6 16  1  0  0  0  0
  6 22  1  0  0  0  0
  7 15  1  0  0  0  0
  7 16  2  0  0  0  0
  8 16  1  0  0  0  0
  8 27  1  0  0  0  0
  8 28  1  0  0  0  0
  9 10  1  0  0  0  0
  9 18  1  0  0  0  0
  9 19  1  0  0  0  0
 10 13  1  0  0  0  0
 11 12  2  0  0  0  0
 12 15  1  0  0  0  0
 13 14  1  0  0  0  0
 14 17  1  0  0  0  0
 14 21  1  0  0  0  0
 17 23  1  0  0  0  0
 17 24  1  0  0  0  0
 17 25  1  0  0  0  0
M  END
> <PUBCHEM_COMPOUND_CID>
65253

> <PUBCHEM_CONFORMER_RMSD>
0.6

> <PUBCHEM_CONFORMER_DIVERSEORDER>
1
18
13
7
14
6
2
17
8
15
3
5
9
10
16
11
12
4

> <PUBCHEM_MMFF94_PARTIAL_CHARGES>
21
1 -0.68
10 0.39
11 0.2
12 0.19
13 0.51
14 0.34
15 0.77
16 0.55
2 -0.57
20 0.4
22 0.4
26 0.4
27 0.4
28 0.4
3 -0.57
4 -0.87
5 -0.62
6 -0.55
7 -0.66
8 -0.85
9 0.43

> <PUBCHEM_EFFECTIVE_ROTOR_COUNT>
2.4

> <PUBCHEM_PHARMACOPHORE_FEATURES>
12
1 1 acceptor
1 1 donor
1 2 acceptor
1 3 acceptor
1 4 cation
1 4 donor
1 5 acceptor
1 6 donor
1 7 donor
1 8 donor
6 4 5 9 10 11 12 rings
6 6 7 11 12 15 16 rings

> <PUBCHEM_HEAVY_ATOM_COUNT>
17

> <PUBCHEM_ATOM_DEF_STEREO_COUNT>
1

> <PUBCHEM_ATOM_UDEF_STEREO_COUNT>
0

> <PUBCHEM_BOND_DEF_STEREO_COUNT>
0

> <PUBCHEM_BOND_UDEF_STEREO_COUNT>
0

> <PUBCHEM_ISOTOPIC_ATOM_COUNT>
0

> <PUBCHEM_COMPONENT_COUNT>
1

> <PUBCHEM_CACTVS_TAUTO_COUNT>
187

> <PUBCHEM_CONFORMER_ID>
0000FEE500000001

> <PUBCHEM_MMFF94_ENERGY>
44.6115

> <PUBCHEM_FEATURE_SELFOVERLAP>
61.094

> <PUBCHEM_SHAPE_FINGERPRINT>
10608611 8 18340489950134906617
11401426 45 18260272945095655362
11471102 20 18408041805867866068
11543360 7 14924230382785731210
11578080 2 13612841653537002823
12236239 1 17168143451252242393
12403259 226 18339367344758052397
12403259 415 18412268307164436837
124424 183 18273215309124261922
12500047 106 17561365071553789235
12654215 9 18412831312925760460
12730499 353 18271810185589535687
13464514 151 18054796349467485677
13862211 1 18335138743724413470
13922767 16 18409451375458634688
14251717 144 18333733532712742327
14911166 2 18407758140515960854
14993402 34 18260828206941663278
15099037 51 18409729569249246774
15219456 202 18343581837267502153
15279308 100 18412549786224748028
15653759 3 17704068473914522113
16945 1 18334852831407877282
18175812 5 18059855039215680927
18186145 218 18260263031878509082
18219364 16 18411408501887593123
200 152 17894634759973123573
20233049 118 18272090513293130660
20645477 70 18336829813534273334
21029758 11 18186802487259003496
21501502 16 18119524328437975854
21524375 3 18412545388278944311
21639500 275 18260839167608531817
221357 26 18336836385134760869
231179 274 18272656757064442214
23402539 116 17676766569494428576
23402655 69 18262526999914981341
23493267 7 17704355484914368297
23557571 272 17774994675294236107
23559900 14 18115300078606861452
25 1 18340211885499340215
2748010 2 18119242861940352090
3060560 45 18333737930822667766
3071541 158 18341891866484499900
34934 24 18336836312394369666
3524813 1 18272098209621629549
4072396 5 18268165295489547162
69090 78 18335707104830017695
74978 22 18262237694801296738
77492 1 17240198850440582339
81228 2 16608862877181151627

> <PUBCHEM_SHAPE_MULTIPOLES>
307.34
7.8
1.87
0.93
0.58
0.18
-0.05
1.13
1.27
-0.52
0.04
0.84
0.15
0.84

> <PUBCHEM_SHAPE_SELFOVERLAP>
656.059

> <PUBCHEM_SHAPE_VOLUME>
167.2

> <PUBCHEM_COORDINATE_TYPE>
2
5
10

$$$$

