6190
  -OEChem-06261201103D

 87 90  0     1  0  0  0  0  0999 V2000
   -4.4709   -0.9636    0.2703 N   0  3  0  0  0  0  0  0  0  0  0  0
    4.4305   -1.4279    0.2748 N   0  3  0  0  0  0  0  0  0  0  0  0
   -2.6391    0.7188   -0.1667 C   0  0  1  0  0  0  0  0  0  0  0  0
   -1.6166    0.8214   -1.3227 C   0  0  1  0  0  0  0  0  0  0  0  0
   -0.3277    1.5950   -0.9649 C   0  0  1  0  0  0  0  0  0  0  0  0
    0.3298    1.1086    0.3558 C   0  0  1  0  0  0  0  0  0  0  0  0
    1.6492    1.9036    0.6979 C   0  0  2  0  0  0  0  0  0  0  0  0
   -3.5942   -0.3469   -0.7445 C   0  0  1  0  0  0  0  0  0  0  0  0
    2.6222    1.8600   -0.5276 C   0  0  2  0  0  0  0  0  0  0  0  0
   -1.9453    0.2764    1.1425 C   0  0  0  0  0  0  0  0  0  0  0  0
   -0.7149    1.1157    1.4902 C   0  0  0  0  0  0  0  0  0  0  0  0
   -1.4155   -0.6385   -1.7783 C   0  0  0  0  0  0  0  0  0  0  0  0
    0.6621    1.5891   -2.1393 C   0  0  0  0  0  0  0  0  0  0  0  0
   -2.6942   -1.3910   -1.3957 C   0  0  0  0  0  0  0  0  0  0  0  0
    1.9469    2.3453   -1.8203 C   0  0  0  0  0  0  0  0  0  0  0  0
    2.3895    1.3168    1.9373 C   0  0  0  0  0  0  0  0  0  0  0  0
    3.2505    0.4640   -0.7422 C   0  0  0  0  0  0  0  0  0  0  0  0
   -3.3846    2.0457    0.0530 C   0  0  0  0  0  0  0  0  0  0  0  0
    3.9351   -0.0471    0.5202 C   0  0  1  0  0  0  0  0  0  0  0  0
    2.9870   -0.0689    1.7110 C   0  0  0  0  0  0  0  0  0  0  0  0
    1.3362    3.3822    1.0492 C   0  0  0  0  0  0  0  0  0  0  0  0
   -5.3733   -2.0384   -0.3582 C   0  0  0  0  0  0  0  0  0  0  0  0
   -5.3797    0.0877    0.9288 C   0  0  0  0  0  0  0  0  0  0  0  0
   -3.6451   -1.6333    1.3812 C   0  0  0  0  0  0  0  0  0  0  0  0
    3.2637   -2.3763   -0.0275 C   0  0  0  0  0  0  0  0  0  0  0  0
    5.3920   -1.4539   -0.9198 C   0  0  0  0  0  0  0  0  0  0  0  0
    5.1769   -1.9622    1.5035 C   0  0  0  0  0  0  0  0  0  0  0  0
   -6.2561   -1.3972   -1.4064 C   0  0  0  0  0  0  0  0  0  0  0  0
   -6.2776   -0.5923    1.9389 C   0  0  0  0  0  0  0  0  0  0  0  0
    3.8058   -3.7626   -0.2991 C   0  0  0  0  0  0  0  0  0  0  0  0
    6.5577   -0.5303   -0.6413 C   0  0  0  0  0  0  0  0  0  0  0  0
   -2.0941    1.3510   -2.1618 H   0  0  0  0  0  0  0  0  0  0  0  0
   -0.6286    2.6397   -0.8190 H   0  0  0  0  0  0  0  0  0  0  0  0
    0.6130    0.0602    0.2063 H   0  0  0  0  0  0  0  0  0  0  0  0
   -4.2120    0.1302   -1.5137 H   0  0  0  0  0  0  0  0  0  0  0  0
    3.4566    2.5478   -0.3258 H   0  0  0  0  0  0  0  0  0  0  0  0
   -1.5245   -0.7262    1.0840 H   0  0  0  0  0  0  0  0  0  0  0  0
   -2.5804    0.4386    2.0122 H   0  0  0  0  0  0  0  0  0  0  0  0
   -0.2838    0.7154    2.4135 H   0  0  0  0  0  0  0  0  0  0  0  0
   -1.0336    2.1417    1.7067 H   0  0  0  0  0  0  0  0  0  0  0  0
   -1.2340   -0.6911   -2.8575 H   0  0  0  0  0  0  0  0  0  0  0  0
   -0.5589   -1.1087   -1.2843 H   0  0  0  0  0  0  0  0  0  0  0  0
    0.1905    2.0506   -3.0159 H   0  0  0  0  0  0  0  0  0  0  0  0
    0.9077    0.5636   -2.4342 H   0  0  0  0  0  0  0  0  0  0  0  0
   -3.1720   -1.7671   -2.3096 H   0  0  0  0  0  0  0  0  0  0  0  0
   -2.4292   -2.2815   -0.8260 H   0  0  0  0  0  0  0  0  0  0  0  0
    2.6405    2.2505   -2.6648 H   0  0  0  0  0  0  0  0  0  0  0  0
    1.7221    3.4155   -1.7395 H   0  0  0  0  0  0  0  0  0  0  0  0
    1.7340    1.2919    2.8144 H   0  0  0  0  0  0  0  0  0  0  0  0
    3.2120    1.9927    2.2126 H   0  0  0  0  0  0  0  0  0  0  0  0
    2.4611   -0.1957   -1.0954 H   0  0  0  0  0  0  0  0  0  0  0  0
    3.9638    0.5774   -1.5646 H   0  0  0  0  0  0  0  0  0  0  0  0
    4.7808    0.5991    0.7811 H   0  0  0  0  0  0  0  0  0  0  0  0
   -3.6489    2.2488    1.0937 H   0  0  0  0  0  0  0  0  0  0  0  0
   -4.2757    2.1461   -0.5747 H   0  0  0  0  0  0  0  0  0  0  0  0
   -2.7441    2.8922   -0.2216 H   0  0  0  0  0  0  0  0  0  0  0  0
    2.1430   -0.7509    1.6027 H   0  0  0  0  0  0  0  0  0  0  0  0
    3.5073   -0.3522    2.6325 H   0  0  0  0  0  0  0  0  0  0  0  0
    2.2618    3.9542    1.1855 H   0  0  0  0  0  0  0  0  0  0  0  0
    0.7575    3.8924    0.2756 H   0  0  0  0  0  0  0  0  0  0  0  0
    0.7757    3.4615    1.9867 H   0  0  0  0  0  0  0  0  0  0  0  0
   -5.9620   -2.5418    0.4139 H   0  0  0  0  0  0  0  0  0  0  0  0
   -4.7328   -2.8053   -0.8066 H   0  0  0  0  0  0  0  0  0  0  0  0
   -5.9193    0.6664    0.1762 H   0  0  0  0  0  0  0  0  0  0  0  0
   -4.7607    0.7475    1.5267 H   0  0  0  0  0  0  0  0  0  0  0  0
   -4.2432   -2.4915    1.7230 H   0  0  0  0  0  0  0  0  0  0  0  0
   -3.5729   -1.0407    2.2915 H   0  0  0  0  0  0  0  0  0  0  0  0
   -2.7433   -2.1303    1.0368 H   0  0  0  0  0  0  0  0  0  0  0  0
    2.5983   -2.4439    0.8341 H   0  0  0  0  0  0  0  0  0  0  0  0
    2.7156   -2.0541   -0.9125 H   0  0  0  0  0  0  0  0  0  0  0  0
    5.8069   -2.4619   -1.0141 H   0  0  0  0  0  0  0  0  0  0  0  0
    4.8601   -1.2259   -1.8473 H   0  0  0  0  0  0  0  0  0  0  0  0
    5.7350   -1.1436    1.9689 H   0  0  0  0  0  0  0  0  0  0  0  0
    5.8752   -2.7499    1.2055 H   0  0  0  0  0  0  0  0  0  0  0  0
    4.4535   -2.3596    2.2225 H   0  0  0  0  0  0  0  0  0  0  0  0
   -6.8954   -2.1819   -1.8309 H   0  0  0  0  0  0  0  0  0  0  0  0
   -6.9463   -0.6454   -1.0192 H   0  0  0  0  0  0  0  0  0  0  0  0
   -5.7104   -0.9861   -2.2582 H   0  0  0  0  0  0  0  0  0  0  0  0
   -6.7812    0.1863    2.5263 H   0  0  0  0  0  0  0  0  0  0  0  0
   -7.0880   -1.1595    1.4721 H   0  0  0  0  0  0  0  0  0  0  0  0
   -5.7722   -1.2288    2.6676 H   0  0  0  0  0  0  0  0  0  0  0  0
    4.4373   -4.1706    0.4928 H   0  0  0  0  0  0  0  0  0  0  0  0
    4.3247   -3.8430   -1.2584 H   0  0  0  0  0  0  0  0  0  0  0  0
    2.9549   -4.4511   -0.3806 H   0  0  0  0  0  0  0  0  0  0  0  0
    7.2981   -0.6574   -1.4406 H   0  0  0  0  0  0  0  0  0  0  0  0
    7.0847   -0.7410    0.2921 H   0  0  0  0  0  0  0  0  0  0  0  0
    6.2827    0.5275   -0.6657 H   0  0  0  0  0  0  0  0  0  0  0  0
  1  8  1  0  0  0  0
  1 22  1  0  0  0  0
  1 23  1  0  0  0  0
  1 24  1  0  0  0  0
  2 19  1  0  0  0  0
  2 25  1  0  0  0  0
  2 26  1  0  0  0  0
  2 27  1  0  0  0  0
  3  4  1  0  0  0  0
  3  8  1  0  0  0  0
  3 10  1  0  0  0  0
  3 18  1  0  0  0  0
  4  5  1  0  0  0  0
  4 12  1  0  0  0  0
  4 32  1  0  0  0  0
  5  6  1  0  0  0  0
  5 13  1  0  0  0  0
  5 33  1  0  0  0  0
  6  7  1  0  0  0  0
  6 11  1  0  0  0  0
  6 34  1  0  0  0  0
  7  9  1  0  0  0  0
  7 16  1  0  0  0  0
  7 21  1  0  0  0  0
  8 14  1  0  0  0  0
  8 35  1  0  0  0  0
  9 15  1  0  0  0  0
  9 17  1  0  0  0  0
  9 36  1  0  0  0  0
 10 11  1  0  0  0  0
 10 37  1  0  0  0  0
 10 38  1  0  0  0  0
 11 39  1  0  0  0  0
 11 40  1  0  0  0  0
 12 14  1  0  0  0  0
 12 41  1  0  0  0  0
 12 42  1  0  0  0  0
 13 15  1  0  0  0  0
 13 43  1  0  0  0  0
 13 44  1  0  0  0  0
 14 45  1  0  0  0  0
 14 46  1  0  0  0  0
 15 47  1  0  0  0  0
 15 48  1  0  0  0  0
 16 20  1  0  0  0  0
 16 49  1  0  0  0  0
 16 50  1  0  0  0  0
 17 19  1  0  0  0  0
 17 51  1  0  0  0  0
 17 52  1  0  0  0  0
 18 54  1  0  0  0  0
 18 55  1  0  0  0  0
 18 56  1  0  0  0  0
 19 20  1  0  0  0  0
 19 53  1  0  0  0  0
 20 57  1  0  0  0  0
 20 58  1  0  0  0  0
 21 59  1  0  0  0  0
 21 60  1  0  0  0  0
 21 61  1  0  0  0  0
 22 28  1  0  0  0  0
 22 62  1  0  0  0  0
 22 63  1  0  0  0  0
 23 29  1  0  0  0  0
 23 64  1  0  0  0  0
 23 65  1  0  0  0  0
 24 66  1  0  0  0  0
 24 67  1  0  0  0  0
 24 68  1  0  0  0  0
 25 30  1  0  0  0  0
 25 69  1  0  0  0  0
 25 70  1  0  0  0  0
 26 31  1  0  0  0  0
 26 71  1  0  0  0  0
 26 72  1  0  0  0  0
 27 73  1  0  0  0  0
 27 74  1  0  0  0  0
 27 75  1  0  0  0  0
 28 76  1  0  0  0  0
 28 77  1  0  0  0  0
 28 78  1  0  0  0  0
 29 79  1  0  0  0  0
 29 80  1  0  0  0  0
 29 81  1  0  0  0  0
 30 82  1  0  0  0  0
 30 83  1  0  0  0  0
 30 84  1  0  0  0  0
 31 85  1  0  0  0  0
 31 86  1  0  0  0  0
 31 87  1  0  0  0  0
M  CHG  2   1   1   2   1
M  END
> <PUBCHEM_COMPOUND_CID>
6190

> <PUBCHEM_CONFORMER_RMSD>
1

> <PUBCHEM_CONFORMER_DIVERSEORDER>
3
13
15
22
2
12
23
9
21
1
19
10
16
8
7
14
4
24
20
6
18
5
11
17

> <PUBCHEM_MMFF94_PARTIAL_CHARGES>
10
1 -1.01
19 0.5
2 -1.01
22 0.5
23 0.5
24 0.5
25 0.5
26 0.5
27 0.5
8 0.5

> <PUBCHEM_EFFECTIVE_ROTOR_COUNT>
8.2

> <PUBCHEM_PHARMACOPHORE_FEATURES>
6
1 1 cation
1 2 cation
5 3 4 8 12 14 rings
6 3 4 5 6 10 11 rings
6 5 6 7 9 13 15 rings
6 7 9 16 17 19 20 rings

> <PUBCHEM_HEAVY_ATOM_COUNT>
31

> <PUBCHEM_ATOM_DEF_STEREO_COUNT>
5

> <PUBCHEM_ATOM_UDEF_STEREO_COUNT>
3

> <PUBCHEM_BOND_DEF_STEREO_COUNT>
0

> <PUBCHEM_BOND_UDEF_STEREO_COUNT>
0

> <PUBCHEM_ISOTOPIC_ATOM_COUNT>
0

> <PUBCHEM_COMPONENT_COUNT>
1

> <PUBCHEM_CACTVS_TAUTO_COUNT>
1

> <PUBCHEM_CONFORMER_ID>
0000182E00000003

> <PUBCHEM_MMFF94_ENERGY>
177.0261

> <PUBCHEM_FEATURE_SELFOVERLAP>
30.678

> <PUBCHEM_SHAPE_FINGERPRINT>
10319926 262 16732974319642256607
10498660 4 11815895686593358260
10692045 39 13768196221016910588
10928967 22 18269572653009205922
117089 54 18267580385052875954
11961588 58 12679455357512245296
11991303 11 17838051864078311101
12107183 9 18113889507845472097
12422481 6 15936403472714555369
12553582 1 18187939412562834854
12596602 18 16877946005511721962
12633257 1 16732704934771728020
13103583 49 17312827086850338062
13402501 40 18273492368959625130
13533116 47 18336270024929300773
13583140 156 17677354743506560024
13911987 19 16843854587674315414
13914758 101 18260274049703889541
14705955 166 15068892135578766930
15082195 135 11095883714370259169
15475509 35 18188211979535183443
15484559 13 5276159159399366035
15537594 2 18186521033868100518
15664445 248 15338837500047123228
17857418 61 18407762521525105391
1813 80 18202289121257600060
19315092 285 17750239102085842555
20567600 254 6483353292012678978
20775530 9 18266185118003376782
21033648 29 14129324188405227147
21421861 104 18113613456885051800
21475661 188 8790593832514700298
21521721 280 18337387120749759664
21792934 111 14490733660814225643
22907989 373 13326575198341156749
23559900 14 17988362564174100269
239999 70 17131273433132978388
25222932 49 17246683559573355775
2838139 119 9871749078820081326
345986 75 18042127707625022938
3472631 163 9367348141347550761
34797466 226 16988003770178877181
3737641 26 18116431630290018702
376196 1 15837311954240909964
3886686 26 17246656458498678419
392239 28 6555409803787640938
439807 62 17417813984292737874
46194498 28 17703785886652168948
463206 1 18337111163767028234
474113 269 17822585923986027615
484985 159 17473264752821702766
5104073 3 17459181890318561539
6086070 43 17967542276879741165
6823239 73 17131557141381685665
7097593 13 17823432512598305508
7970288 3 18336833082157574042
86090 222 17917988348261525299

> <PUBCHEM_SHAPE_MULTIPOLES>
628
13.97
3.2
1.98
5.16
0.52
0.03
10.97
1.49
-2.84
-0.11
0.49
-0.36
-0.41

> <PUBCHEM_SHAPE_SELFOVERLAP>
1294.67

> <PUBCHEM_SHAPE_VOLUME>
358.7

> <PUBCHEM_COORDINATE_TYPE>
2
5
10

$$$$

