442761
  -OEChem-07051212593D

 54 57  0     1  0  0  0  0  0999 V2000
    2.6120   -0.6506   -0.2505 O   0  0  0  0  0  0  0  0  0  0  0  0
    2.0633    1.2629    0.9667 O   0  0  0  0  0  0  0  0  0  0  0  0
    6.5914   -0.2642    0.6884 O   0  0  0  0  0  0  0  0  0  0  0  0
    5.7908   -1.9661   -1.5067 O   0  0  0  0  0  0  0  0  0  0  0  0
    4.7811    2.0493    0.9133 O   0  0  0  0  0  0  0  0  0  0  0  0
    1.6263   -2.4438   -2.0861 O   0  0  0  0  0  0  0  0  0  0  0  0
    0.3715   -0.7916    1.4749 O   0  0  0  0  0  0  0  0  0  0  0  0
   -1.9832   -1.7410    1.2411 O   0  0  0  0  0  0  0  0  0  0  0  0
   -3.6668    2.5912   -1.3959 O   0  0  0  0  0  0  0  0  0  0  0  0
   -4.2916   -2.8371    1.0911 O   0  0  0  0  0  0  0  0  0  0  0  0
    5.4161   -0.0493   -0.0945 C   0  0  1  0  0  0  0  0  0  0  0  0
    4.8937   -1.4128   -0.5474 C   0  0  1  0  0  0  0  0  0  0  0  0
    4.3745    0.6916    0.7441 C   0  0  2  0  0  0  0  0  0  0  0  0
    3.5028   -1.2812   -1.1724 C   0  0  1  0  0  0  0  0  0  0  0  0
    3.0052    0.6830    0.0646 C   0  0  1  0  0  0  0  0  0  0  0  0
    2.9114   -2.6423   -1.5256 C   0  0  0  0  0  0  0  0  0  0  0  0
    0.7686    1.3412    0.5429 C   0  0  0  0  0  0  0  0  0  0  0  0
   -0.1127    0.2902    0.7981 C   0  0  0  0  0  0  0  0  0  0  0  0
    0.3289    2.4710   -0.1439 C   0  0  0  0  0  0  0  0  0  0  0  0
   -1.4412    0.3701    0.3634 C   0  0  0  0  0  0  0  0  0  0  0  0
   -1.8818    1.5023   -0.3252 C   0  0  0  0  0  0  0  0  0  0  0  0
   -0.9940    2.5548   -0.5787 C   0  0  0  0  0  0  0  0  0  0  0  0
   -2.3673   -0.7476    0.6376 C   0  0  0  0  0  0  0  0  0  0  0  0
   -3.2804    1.5992   -0.7903 C   0  0  0  0  0  0  0  0  0  0  0  0
   -3.7658   -0.6508    0.1721 C   0  0  0  0  0  0  0  0  0  0  0  0
   -4.2063    0.4815   -0.5165 C   0  0  0  0  0  0  0  0  0  0  0  0
    1.2604    3.6043   -0.4249 C   0  0  0  0  0  0  0  0  0  0  0  0
   -4.6534   -1.7034    0.4251 C   0  0  0  0  0  0  0  0  0  0  0  0
   -5.5345    0.5609   -0.9521 C   0  0  0  0  0  0  0  0  0  0  0  0
   -5.9762   -1.6202   -0.0108 C   0  0  0  0  0  0  0  0  0  0  0  0
   -6.4156   -0.4905   -0.6980 C   0  0  0  0  0  0  0  0  0  0  0  0
    0.2728   -0.7610    2.8961 C   0  0  0  0  0  0  0  0  0  0  0  0
    5.7219    0.5599   -0.9540 H   0  0  0  0  0  0  0  0  0  0  0  0
    4.8695   -2.0886    0.3176 H   0  0  0  0  0  0  0  0  0  0  0  0
    4.3146    0.2469    1.7453 H   0  0  0  0  0  0  0  0  0  0  0  0
    3.5406   -0.6790   -2.0904 H   0  0  0  0  0  0  0  0  0  0  0  0
    3.0311    1.2884   -0.8511 H   0  0  0  0  0  0  0  0  0  0  0  0
    2.7951   -3.2719   -0.6373 H   0  0  0  0  0  0  0  0  0  0  0  0
    3.5198   -3.1762   -2.2603 H   0  0  0  0  0  0  0  0  0  0  0  0
    7.2265   -0.7482    0.1331 H   0  0  0  0  0  0  0  0  0  0  0  0
    5.5841   -2.9115   -1.5970 H   0  0  0  0  0  0  0  0  0  0  0  0
    4.0916    2.4971    1.4330 H   0  0  0  0  0  0  0  0  0  0  0  0
   -1.3264    3.4396   -1.1161 H   0  0  0  0  0  0  0  0  0  0  0  0
    1.0897   -1.9665   -1.4303 H   0  0  0  0  0  0  0  0  0  0  0  0
    1.9153    3.8022    0.4302 H   0  0  0  0  0  0  0  0  0  0  0  0
    1.8740    3.3821   -1.3032 H   0  0  0  0  0  0  0  0  0  0  0  0
    0.7119    4.5326   -0.6196 H   0  0  0  0  0  0  0  0  0  0  0  0
   -5.9018    1.4308   -1.4898 H   0  0  0  0  0  0  0  0  0  0  0  0
   -6.6789   -2.4281    0.1768 H   0  0  0  0  0  0  0  0  0  0  0  0
   -7.4459   -0.4280   -1.0365 H   0  0  0  0  0  0  0  0  0  0  0  0
   -0.7137   -0.4205    3.2274 H   0  0  0  0  0  0  0  0  0  0  0  0
    1.0458   -0.1049    3.3082 H   0  0  0  0  0  0  0  0  0  0  0  0
    0.4391   -1.7738    3.2733 H   0  0  0  0  0  0  0  0  0  0  0  0
   -5.0555   -3.4352    1.1574 H   0  0  0  0  0  0  0  0  0  0  0  0
  1 14  1  0  0  0  0
  1 15  1  0  0  0  0
  2 15  1  0  0  0  0
  2 17  1  0  0  0  0
  3 11  1  0  0  0  0
  3 40  1  0  0  0  0
  4 12  1  0  0  0  0
  4 41  1  0  0  0  0
  5 13  1  0  0  0  0
  5 42  1  0  0  0  0
  6 16  1  0  0  0  0
  6 44  1  0  0  0  0
  7 18  1  0  0  0  0
  7 32  1  0  0  0  0
  8 23  2  0  0  0  0
  9 24  2  0  0  0  0
 10 28  1  0  0  0  0
 10 54  1  0  0  0  0
 11 12  1  0  0  0  0
 11 13  1  0  0  0  0
 11 33  1  0  0  0  0
 12 14  1  0  0  0  0
 12 34  1  0  0  0  0
 13 15  1  0  0  0  0
 13 35  1  0  0  0  0
 14 16  1  0  0  0  0
 14 36  1  0  0  0  0
 15 37  1  0  0  0  0
 16 38  1  0  0  0  0
 16 39  1  0  0  0  0
 17 18  2  0  0  0  0
 17 19  1  0  0  0  0
 18 20  1  0  0  0  0
 19 22  2  0  0  0  0
 19 27  1  0  0  0  0
 20 21  2  0  0  0  0
 20 23  1  0  0  0  0
 21 22  1  0  0  0  0
 21 24  1  0  0  0  0
 22 43  1  0  0  0  0
 23 25  1  0  0  0  0
 24 26  1  0  0  0  0
 25 26  2  0  0  0  0
 25 28  1  0  0  0  0
 26 29  1  0  0  0  0
 27 45  1  0  0  0  0
 27 46  1  0  0  0  0
 27 47  1  0  0  0  0
 28 30  2  0  0  0  0
 29 31  2  0  0  0  0
 29 48  1  0  0  0  0
 30 31  1  0  0  0  0
 30 49  1  0  0  0  0
 31 50  1  0  0  0  0
 32 51  1  0  0  0  0
 32 52  1  0  0  0  0
 32 53  1  0  0  0  0
M  END
> <PUBCHEM_COMPOUND_CID>
442761

> <PUBCHEM_CONFORMER_RMSD>
0.8

> <PUBCHEM_CONFORMER_DIVERSEORDER>
3
9
26
5
31
23
29
34
17
25
2
32
12
4
28
10
1
13
24
8
35
11
33
14
27
20
18
19
22
21
30
7
6
16
15

> <PUBCHEM_MMFF94_PARTIAL_CHARGES>
41
1 -0.56
10 -0.53
11 0.28
12 0.28
13 0.28
14 0.28
15 0.56
16 0.28
17 0.08
18 0.08
19 -0.14
2 -0.36
20 0.09
21 0.09
22 -0.15
23 0.4
24 0.4
25 0.09
26 0.09
27 0.14
28 0.08
29 -0.15
3 -0.68
30 -0.15
31 -0.15
32 0.28
4 -0.68
40 0.4
41 0.4
42 0.4
43 0.15
44 0.4
48 0.15
49 0.15
5 -0.68
50 0.15
54 0.45
6 -0.68
7 -0.36
8 -0.57
9 -0.57

> <PUBCHEM_EFFECTIVE_ROTOR_COUNT>
5.2

> <PUBCHEM_PHARMACOPHORE_FEATURES>
18
1 1 acceptor
1 10 donor
1 2 acceptor
1 3 acceptor
1 3 donor
1 4 acceptor
1 4 donor
1 5 acceptor
1 5 donor
1 6 acceptor
1 6 donor
1 7 acceptor
1 8 acceptor
1 9 acceptor
6 1 11 12 13 14 15 rings
6 17 18 19 20 21 22 rings
6 20 21 23 24 25 26 rings
6 25 26 28 29 30 31 rings

> <PUBCHEM_HEAVY_ATOM_COUNT>
32

> <PUBCHEM_ATOM_DEF_STEREO_COUNT>
5

> <PUBCHEM_ATOM_UDEF_STEREO_COUNT>
0

> <PUBCHEM_BOND_DEF_STEREO_COUNT>
0

> <PUBCHEM_BOND_UDEF_STEREO_COUNT>
0

> <PUBCHEM_ISOTOPIC_ATOM_COUNT>
0

> <PUBCHEM_COMPONENT_COUNT>
1

> <PUBCHEM_CACTVS_TAUTO_COUNT>
5

> <PUBCHEM_CONFORMER_ID>
0006C18900000003

> <PUBCHEM_MMFF94_ENERGY>
119.4561

> <PUBCHEM_FEATURE_SELFOVERLAP>
91.467

> <PUBCHEM_SHAPE_FINGERPRINT>
10906281 52 18128520601359758744
11828532 37 17773306830536142659
11963148 33 18409739439169496054
12236239 1 16415487059829956457
12954195 1 18341332296854930689
13402501 40 18409166610299942839
13544653 18 18040148530691658560
13583140 156 16443346507082362593
1361 2 18335140835188597468
13782708 43 18113904861567727070
14251757 17 18338233872744836635
14294032 229 16915673690336371229
14790565 3 17329709237729535053
14840074 17 17458062663983704030
15082195 135 18271512114775376028
15131766 46 15649898063331141441
15183329 4 18202006542183864811
15361156 5 18270394984853569765
15510800 12 18115303514243420006
19319366 153 17060349556232782331
20567600 247 17676498215864730615
20642791 13 18337387253139540856
21033650 10 17560230474296051988
21267235 1 18130508527647166051
21279426 13 18272941501228949949
21285901 2 18412263964688633516
21623969 137 18040435490673844422
21781051 124 16988266583580949923
22393880 68 18271531999560728593
23557571 272 18412826910389278608
23559900 14 18339931424478140497
23569914 152 17398420970802077071
23572383 38 18410572911505027758
244849 19 17532679959867801713
2838139 119 13830133901126543759
3004659 81 17989209222524415644
335352 9 18272941501497812989
4280585 95 18273218590342229845
4340502 62 17313112912955830768
437815 12 18334295362180989089
46194498 28 18340488859303124933
463206 1 18041847190473680263
5283173 99 18271528696868560924
6823239 73 18412553093428940945
86090 222 17531512257524360670
9709674 26 18199186179474763785

> <PUBCHEM_SHAPE_MULTIPOLES>
599.85
14.13
3.21
1.58
0.84
1.04
0.46
-6.33
-2.88
0.22
-0.95
0.65
-0.82
2.81

> <PUBCHEM_SHAPE_SELFOVERLAP>
1323.012

> <PUBCHEM_SHAPE_VOLUME>
318

> <PUBCHEM_COORDINATE_TYPE>
2
5
10

$$$$

