5281534
  -OEChem-07051212583D

 38 37  0     0  0  0  0  0  0999 V2000
    1.7265    2.7511    0.2220 O   0  0  0  0  0  0  0  0  0  0  0  0
   -3.3012   -0.2465    0.4798 C   0  0  0  0  0  0  0  0  0  0  0  0
   -2.2969   -1.2539   -0.0477 C   0  0  0  0  0  0  0  0  0  0  0  0
   -2.9446    1.2061    0.1312 C   0  0  0  0  0  0  0  0  0  0  0  0
   -1.2245   -1.5850    0.6978 C   0  0  0  0  0  0  0  0  0  0  0  0
   -0.1104   -2.5246    0.3406 C   0  0  0  0  0  0  0  0  0  0  0  0
   -2.5900   -1.8027   -1.4163 C   0  0  0  0  0  0  0  0  0  0  0  0
   -1.5940    1.6080    0.6632 C   0  0  0  0  0  0  0  0  0  0  0  0
    0.9745   -1.8176   -0.4236 C   0  0  0  0  0  0  0  0  0  0  0  0
   -0.5380    2.0399   -0.0475 C   0  0  0  0  0  0  0  0  0  0  0  0
    2.0828   -1.2264    0.0694 C   0  0  0  0  0  0  0  0  0  0  0  0
   -0.4482    2.2155   -1.5302 C   0  0  0  0  0  0  0  0  0  0  0  0
    2.4058   -1.1595    1.5391 C   0  0  0  0  0  0  0  0  0  0  0  0
    0.6888    2.3510    0.7371 C   0  0  0  0  0  0  0  0  0  0  0  0
    3.0140   -0.5922   -0.8617 C   0  0  0  0  0  0  0  0  0  0  0  0
    4.1551    0.0369   -0.5531 C   0  0  0  0  0  0  0  0  0  0  0  0
   -4.3000   -0.4812    0.0912 H   0  0  0  0  0  0  0  0  0  0  0  0
   -3.3837   -0.3455    1.5710 H   0  0  0  0  0  0  0  0  0  0  0  0
   -3.6963    1.8675    0.5791 H   0  0  0  0  0  0  0  0  0  0  0  0
   -3.0240    1.3467   -0.9503 H   0  0  0  0  0  0  0  0  0  0  0  0
   -1.1161   -1.1197    1.6770 H   0  0  0  0  0  0  0  0  0  0  0  0
    0.2752   -2.9918    1.2531 H   0  0  0  0  0  0  0  0  0  0  0  0
   -0.4795   -3.3642   -0.2594 H   0  0  0  0  0  0  0  0  0  0  0  0
   -1.8139   -2.4758   -1.7882 H   0  0  0  0  0  0  0  0  0  0  0  0
   -2.6807   -0.9841   -2.1381 H   0  0  0  0  0  0  0  0  0  0  0  0
   -3.5331   -2.3586   -1.4044 H   0  0  0  0  0  0  0  0  0  0  0  0
   -1.5087    1.5371    1.7472 H   0  0  0  0  0  0  0  0  0  0  0  0
    0.8090   -1.7985   -1.5014 H   0  0  0  0  0  0  0  0  0  0  0  0
   -1.3536    1.9144   -2.0604 H   0  0  0  0  0  0  0  0  0  0  0  0
   -0.2577    3.2657   -1.7751 H   0  0  0  0  0  0  0  0  0  0  0  0
    0.3740    1.6140   -1.9331 H   0  0  0  0  0  0  0  0  0  0  0  0
    2.5263   -0.1192    1.8614 H   0  0  0  0  0  0  0  0  0  0  0  0
    1.6263   -1.5882    2.1736 H   0  0  0  0  0  0  0  0  0  0  0  0
    3.3322   -1.7033    1.7535 H   0  0  0  0  0  0  0  0  0  0  0  0
    0.6193    2.2000    1.8276 H   0  0  0  0  0  0  0  0  0  0  0  0
    2.7501   -0.6360   -1.9174 H   0  0  0  0  0  0  0  0  0  0  0  0
    4.7634    0.4709   -1.3402 H   0  0  0  0  0  0  0  0  0  0  0  0
    4.5161    0.1400    0.4636 H   0  0  0  0  0  0  0  0  0  0  0  0
  1 14  2  0  0  0  0
  2  3  1  0  0  0  0
  2  4  1  0  0  0  0
  2 17  1  0  0  0  0
  2 18  1  0  0  0  0
  3  5  2  0  0  0  0
  3  7  1  0  0  0  0
  4  8  1  0  0  0  0
  4 19  1  0  0  0  0
  4 20  1  0  0  0  0
  5  6  1  0  0  0  0
  5 21  1  0  0  0  0
  6  9  1  0  0  0  0
  6 22  1  0  0  0  0
  6 23  1  0  0  0  0
  7 24  1  0  0  0  0
  7 25  1  0  0  0  0
  7 26  1  0  0  0  0
  8 10  2  0  0  0  0
  8 27  1  0  0  0  0
  9 11  2  0  0  0  0
  9 28  1  0  0  0  0
 10 12  1  0  0  0  0
 10 14  1  0  0  0  0
 11 13  1  0  0  0  0
 11 15  1  0  0  0  0
 12 29  1  0  0  0  0
 12 30  1  0  0  0  0
 12 31  1  0  0  0  0
 13 32  1  0  0  0  0
 13 33  1  0  0  0  0
 13 34  1  0  0  0  0
 14 35  1  0  0  0  0
 15 16  2  0  0  0  0
 15 36  1  0  0  0  0
 16 37  1  0  0  0  0
 16 38  1  0  0  0  0
M  END
> <PUBCHEM_COMPOUND_CID>
5281534

> <PUBCHEM_CONFORMER_RMSD>
0.8

> <PUBCHEM_CONFORMER_DIVERSEORDER>
1
155
15
190
212
153
230
49
257
128
196
159
57
207
132
9
118
19
164
142
55
246
178
74
253
133
158
141
251
154
167
182
129
130
135
31
33
39
78
144
215
235
146
53
108
59
211
85
96
140
43
40
93
219
166
213
52
202
99
117
204
80
197
100
79
256
110
76
107
54
95
6
101
249
175
4
34
16
176
64
177
70
258
145
86
46
23
195
81
148
41
94
44
2
56
174
77
92
106
193
214
169
241
10
188
105
35
120
223
134
243
12
191
138
161
20
163
200
187
111
198
229
119
221
143
216
75
206
109
156
22
242
151
171
203
26
150
11
38
189
97
60
137
123
231
233
139
126
122
162
250
13
210
147
183
61
98
220
62
125
21
240
170
115
72
245
180
255
83
259
149
121
102
179
104
248
234
69
225
103
192
73
227
65
82
184
217
116
90
30
47
236
3
168
209
224
112
88
32
124
84
67
208
237
136
28
254
205
238
185
239
27
172
173
24
181
68
232
113
222
14
152
25
91
89
199
218
66
50
37
165
247
157
226
87
51
127
201
71
244
5
114
17
58
131
18
186
36
48
252
160
29
194
63
45
228
8
42
7

> <PUBCHEM_MMFF94_PARTIAL_CHARGES>
23
1 -0.57
10 -0.12
11 -0.14
12 0.14
13 0.14
14 0.5
15 -0.15
16 -0.3
2 0.14
21 0.15
27 0.15
28 0.15
3 -0.28
35 0.06
36 0.15
37 0.15
38 0.15
4 0.14
5 -0.29
6 0.28
7 0.14
8 -0.29
9 -0.29

> <PUBCHEM_EFFECTIVE_ROTOR_COUNT>
7

> <PUBCHEM_PHARMACOPHORE_FEATURES>
6
1 1 acceptor
1 12 hydrophobe
1 13 hydrophobe
1 16 hydrophobe
1 7 hydrophobe
4 2 3 4 8 hydrophobe

> <PUBCHEM_HEAVY_ATOM_COUNT>
16

> <PUBCHEM_ATOM_DEF_STEREO_COUNT>
0

> <PUBCHEM_ATOM_UDEF_STEREO_COUNT>
0

> <PUBCHEM_BOND_DEF_STEREO_COUNT>
3

> <PUBCHEM_BOND_UDEF_STEREO_COUNT>
0

> <PUBCHEM_ISOTOPIC_ATOM_COUNT>
0

> <PUBCHEM_COMPONENT_COUNT>
1

> <PUBCHEM_CACTVS_TAUTO_COUNT>
1

> <PUBCHEM_CONFORMER_ID>
005096FE00000001

> <PUBCHEM_MMFF94_ENERGY>
17.1766

> <PUBCHEM_FEATURE_SELFOVERLAP>
30.453

> <PUBCHEM_SHAPE_FINGERPRINT>
10498660 4 18339075020345773143
10730089 88 17754702191650080758
10759866 29 17916860365511294674
10989021 7 18262806142656079543
11132069 177 18336548308560720042
12596599 1 17677315165461392486
13027679 85 18335415772977430089
1420 336 18337108973391339667
14251711 518 18409733967037502707
14251745 187 18265614286700129640
14251751 93 17910386522662150766
16945 1 18261679267733365723
17492 54 18272928327793769061
20691752 17 18058745610376497857
20905425 154 17831851361399506006
21141583 151 18262789791820643516
21249577 28 18413384350078812308
2334 1 18265901246207431481
23402539 116 18334579049303377214
23419403 2 16889270945418310681
2748010 2 18267591208511548417
2897 32 18267018354237117225
44154327 71 17833256898290433009
537710 114 18268984457363936901
9925002 15 17101176398082210366

> <PUBCHEM_SHAPE_MULTIPOLES>
323.4
5.46
3.42
1.24
2.46
1.33
-0.15
-0.9
-0.51
-0.39
-0.07
0.1
-0.04
-0.4

> <PUBCHEM_SHAPE_SELFOVERLAP>
618.405

> <PUBCHEM_SHAPE_VOLUME>
197.7

> <PUBCHEM_COORDINATE_TYPE>
2
5
10

$$$$

