71339
  -OEChem-07051213013D

 42 45  0     1  0  0  0  0  0999 V2000
    1.3388   -0.3690   -1.5670 S   0  0  0  0  0  0  0  0  0  0  0  0
   -3.6116    2.0957   -0.4796 O   0  0  0  0  0  0  0  0  0  0  0  0
   -4.5812   -0.2814    2.0940 O   0  0  0  0  0  0  0  0  0  0  0  0
   -0.5873    2.9139   -1.4953 O   0  5  0  0  0  0  0  0  0  0  0  0
    0.5562    2.6782    0.4721 O   0  0  0  0  0  0  0  0  0  0  0  0
   -1.9368    0.6263    0.2911 N   0  0  0  0  0  0  0  0  0  0  0  0
    4.3862   -0.8110   -0.1288 N   0  3  0  0  0  0  0  0  0  0  0  0
    3.6537   -0.2848    0.9416 N   0  0  0  0  0  0  0  0  0  0  0  0
    5.6080    0.7287    0.9998 N   0  0  0  0  0  0  0  0  0  0  0  0
   -2.2184   -0.8215    0.3187 C   0  0  1  0  0  0  0  0  0  0  0  0
   -3.6667   -0.4358   -0.1223 C   0  0  2  0  0  0  0  0  0  0  0  0
   -1.0845   -1.4316   -0.5292 C   0  0  2  0  0  0  0  0  0  0  0  0
   -3.1658    1.0255   -0.1325 C   0  0  0  0  0  0  0  0  0  0  0  0
   -0.1823   -0.2358   -0.7780 C   0  0  0  0  0  0  0  0  0  0  0  0
   -0.7431    0.8898   -0.3172 C   0  0  0  0  0  0  0  0  0  0  0  0
   -4.8715   -0.6763    0.7518 C   0  0  1  0  0  0  0  0  0  0  0  0
   -1.5570   -2.1333   -1.7919 C   0  0  0  0  0  0  0  0  0  0  0  0
    2.2006   -1.5019   -0.4144 C   0  0  1  0  0  0  0  0  0  0  0  0
   -5.3015   -2.1405    0.7589 C   0  0  0  0  0  0  0  0  0  0  0  0
    3.6624   -1.7518   -0.9115 C   0  0  0  0  0  0  0  0  0  0  0  0
    2.3208   -0.8381    0.9917 C   0  0  0  0  0  0  0  0  0  0  0  0
   -0.2047    2.3005   -0.4611 C   0  0  0  0  0  0  0  0  0  0  0  0
    5.5844   -0.1812   -0.0876 C   0  0  0  0  0  0  0  0  0  0  0  0
    4.4012    0.6354    1.5965 C   0  0  0  0  0  0  0  0  0  0  0  0
   -2.1727   -1.2016    1.3494 H   0  0  0  0  0  0  0  0  0  0  0  0
   -3.8945   -0.7589   -1.1485 H   0  0  0  0  0  0  0  0  0  0  0  0
   -0.5576   -2.1631    0.0958 H   0  0  0  0  0  0  0  0  0  0  0  0
   -5.7110   -0.0637    0.4026 H   0  0  0  0  0  0  0  0  0  0  0  0
   -0.7267   -2.6283   -2.3060 H   0  0  0  0  0  0  0  0  0  0  0  0
   -2.3045   -2.8963   -1.5498 H   0  0  0  0  0  0  0  0  0  0  0  0
   -2.0161   -1.4314   -2.4968 H   0  0  0  0  0  0  0  0  0  0  0  0
    1.6475   -2.4447   -0.3774 H   0  0  0  0  0  0  0  0  0  0  0  0
   -4.5044   -2.7777    1.1578 H   0  0  0  0  0  0  0  0  0  0  0  0
   -6.1768   -2.2843    1.4010 H   0  0  0  0  0  0  0  0  0  0  0  0
   -5.5434   -2.4860   -0.2508 H   0  0  0  0  0  0  0  0  0  0  0  0
    3.9955   -2.7572   -0.6345 H   0  0  0  0  0  0  0  0  0  0  0  0
    3.8145   -1.5921   -1.9818 H   0  0  0  0  0  0  0  0  0  0  0  0
    1.6102   -0.0487    1.2366 H   0  0  0  0  0  0  0  0  0  0  0  0
    2.3307   -1.5983    1.7788 H   0  0  0  0  0  0  0  0  0  0  0  0
   -5.3866   -0.4201    2.6211 H   0  0  0  0  0  0  0  0  0  0  0  0
    6.4100   -0.3179   -0.7666 H   0  0  0  0  0  0  0  0  0  0  0  0
    4.0685    1.1995    2.4555 H   0  0  0  0  0  0  0  0  0  0  0  0
  1 14  1  0  0  0  0
  1 18  1  0  0  0  0
  2 13  2  0  0  0  0
  3 16  1  0  0  0  0
  3 40  1  0  0  0  0
  4 22  1  0  0  0  0
  5 22  2  0  0  0  0
  6 10  1  0  0  0  0
  6 13  1  0  0  0  0
  6 15  1  0  0  0  0
  7  8  1  0  0  0  0
  7 20  1  0  0  0  0
  7 23  2  0  0  0  0
  8 21  1  0  0  0  0
  8 24  1  0  0  0  0
  9 23  1  0  0  0  0
  9 24  2  0  0  0  0
 10 11  1  0  0  0  0
 10 12  1  0  0  0  0
 10 25  1  0  0  0  0
 11 13  1  0  0  0  0
 11 16  1  0  0  0  0
 11 26  1  0  0  0  0
 12 14  1  0  0  0  0
 12 17  1  0  0  0  0
 12 27  1  0  0  0  0
 14 15  2  0  0  0  0
 15 22  1  0  0  0  0
 16 19  1  0  0  0  0
 16 28  1  0  0  0  0
 17 29  1  0  0  0  0
 17 30  1  0  0  0  0
 17 31  1  0  0  0  0
 18 20  1  0  0  0  0
 18 21  1  0  0  0  0
 18 32  1  0  0  0  0
 19 33  1  0  0  0  0
 19 34  1  0  0  0  0
 19 35  1  0  0  0  0
 20 36  1  0  0  0  0
 20 37  1  0  0  0  0
 21 38  1  0  0  0  0
 21 39  1  0  0  0  0
 23 41  1  0  0  0  0
 24 42  1  0  0  0  0
M  CHG  2   4  -1   7   1
M  END
> <PUBCHEM_COMPOUND_CID>
71339

> <PUBCHEM_CONFORMER_RMSD>
0.8

> <PUBCHEM_CONFORMER_DIVERSEORDER>
1
8
6
7
9
5
10
4
3
2

> <PUBCHEM_MMFF94_PARTIAL_CHARGES>
25
1 -0.33
10 0.22
11 0.05
12 0.14
13 0.58
14 -0.04
15 -0.14
16 0.28
18 0.23
2 -0.57
20 0.51
21 0.26
22 1.05
23 0.41
24 0.04
3 -0.68
4 -0.9
40 0.4
41 0.15
42 0.15
5 -0.9
6 -0.39
7 -0.26
8 0.31
9 -0.57

> <PUBCHEM_EFFECTIVE_ROTOR_COUNT>
5

> <PUBCHEM_PHARMACOPHORE_FEATURES>
11
1 2 acceptor
1 3 acceptor
1 3 donor
1 4 acceptor
1 5 acceptor
3 4 5 22 anion
3 7 9 23 cation
3 8 9 24 cation
5 7 8 18 20 21 rings
5 7 8 9 23 24 rings
7 6 10 11 12 13 14 15 rings

> <PUBCHEM_HEAVY_ATOM_COUNT>
24

> <PUBCHEM_ATOM_DEF_STEREO_COUNT>
4

> <PUBCHEM_ATOM_UDEF_STEREO_COUNT>
1

> <PUBCHEM_BOND_DEF_STEREO_COUNT>
0

> <PUBCHEM_BOND_UDEF_STEREO_COUNT>
0

> <PUBCHEM_ISOTOPIC_ATOM_COUNT>
0

> <PUBCHEM_COMPONENT_COUNT>
1

> <PUBCHEM_CACTVS_TAUTO_COUNT>
1

> <PUBCHEM_CONFORMER_ID>
000116AB00000001

> <PUBCHEM_MMFF94_ENERGY>
99.9297

> <PUBCHEM_FEATURE_SELFOVERLAP>
58.516

> <PUBCHEM_SHAPE_FINGERPRINT>
10319926 262 18196948866812965938
105312 117 6771869528756300643
10906281 52 18194680604395228045
11552529 35 17096102272263465390
11595378 159 18201731690553165442
11796584 16 16988555789203634259
12011746 2 18113627814892189692
12035758 1 18199736103257171753
12166972 35 16773798104556320342
12236239 1 17489868250168672590
12403259 415 18114736148287683943
12596602 18 17275386504285426608
12633257 1 17603875532847948034
12969540 114 18120679038822021037
13140716 1 18192141600039084243
13583140 156 18059590099910565311
14251751 18 16343413995425336947
14341114 176 17822004303150061954
14787075 74 18059570256971760170
14955137 171 18261100829679391251
15163728 17 5327923801731171395
15183329 4 8358269128711037922
17349148 13 16200145547535841418
17980427 23 17241329067085054469
1813 80 17988923357927507676
18785283 64 18195243317355249488
19784866 170 18335421274941046254
200 152 14692573225541597606
21033648 29 17822868557827882721
22182313 1 18189042265585594343
2297311 6 18337661010391908006
23557571 272 18410567418489477006
23559900 14 18196367254867843470
23845131 108 17255387744622818297
25147074 1 17899132716193069127
2748010 2 17974268118323880103
3009799 131 18342189868943408087
439807 62 14835543741168145195
5104073 3 18337110197615405170
5161694 15 9583509941419882266
633830 44 16371559431586043951
6442390 28 18408604760475736822

> <PUBCHEM_SHAPE_MULTIPOLES>
454.36
11.32
2.48
1.48
4.7
1.27
0.07
-2.84
5.52
-1.18
-0.86
-0.1
-0.1
1.15

> <PUBCHEM_SHAPE_SELFOVERLAP>
964.161

> <PUBCHEM_SHAPE_VOLUME>
258.8

> <PUBCHEM_COORDINATE_TYPE>
2
5
10

$$$$

