442746
  -OEChem-07051212593D

 51 54  0     1  0  0  0  0  0999 V2000
    1.1794   -0.2513   -0.0091 O   0  0  0  0  0  0  0  0  0  0  0  0
   -0.9335   -1.6301   -0.7970 O   0  0  0  0  0  0  0  0  0  0  0  0
    0.3490    2.3577    0.0982 O   0  0  0  0  0  0  0  0  0  0  0  0
    2.5001    2.9119    0.3890 O   0  0  0  0  0  0  0  0  0  0  0  0
   -1.0038   -3.2782    0.8232 O   0  0  0  0  0  0  0  0  0  0  0  0
   -3.7458    0.4438    0.1731 N   0  0  1  0  0  0  0  0  0  0  0  0
   -2.4882   -0.2359    0.5274 C   0  0  2  0  0  0  0  0  0  0  0  0
   -1.4746    0.8854    0.8101 C   0  0  2  0  0  0  0  0  0  0  0  0
   -2.2987   -1.2661   -0.5792 C   0  0  1  0  0  0  0  0  0  0  0  0
   -2.3847    1.8843    1.5334 C   0  0  0  0  0  0  0  0  0  0  0  0
   -3.7268    1.7684    0.8105 C   0  0  0  0  0  0  0  0  0  0  0  0
   -3.8177    0.4931   -1.2925 C   0  0  0  0  0  0  0  0  0  0  0  0
   -2.8898   -0.6017   -1.8154 C   0  0  0  0  0  0  0  0  0  0  0  0
    1.7944   -1.4335    0.5137 C   0  0  2  0  0  0  0  0  0  0  0  0
    2.1284    0.7013   -0.4779 C   0  0  2  0  0  0  0  0  0  0  0  0
    3.4576    0.2238    0.1446 C   0  0  1  0  0  0  0  0  0  0  0  0
   -0.7852    1.5697   -0.3826 C   0  0  0  0  0  0  0  0  0  0  0  0
    3.2745   -1.2920    0.1711 C   0  0  0  0  0  0  0  0  0  0  0  0
    1.1137   -2.6313   -0.1653 C   0  0  0  0  0  0  0  0  0  0  0  0
    1.6766    2.0654    0.0399 C   0  0  0  0  0  0  0  0  0  0  0  0
   -0.3949   -2.5871    0.0174 C   0  0  0  0  0  0  0  0  0  0  0  0
    1.5819   -1.4584    2.0334 C   0  0  0  0  0  0  0  0  0  0  0  0
    2.1469    0.7132   -2.0100 C   0  0  0  0  0  0  0  0  0  0  0  0
    4.7412    0.6476   -0.5559 C   0  0  0  0  0  0  0  0  0  0  0  0
   -2.6423   -0.7782    1.4712 H   0  0  0  0  0  0  0  0  0  0  0  0
   -0.7126    0.5377    1.5154 H   0  0  0  0  0  0  0  0  0  0  0  0
   -2.8967   -2.1632   -0.3657 H   0  0  0  0  0  0  0  0  0  0  0  0
   -1.9987    2.9085    1.5304 H   0  0  0  0  0  0  0  0  0  0  0  0
   -2.5056    1.5765    2.5801 H   0  0  0  0  0  0  0  0  0  0  0  0
   -4.5510    1.8520    1.5269 H   0  0  0  0  0  0  0  0  0  0  0  0
   -3.8434    2.5885    0.0926 H   0  0  0  0  0  0  0  0  0  0  0  0
   -3.5025    1.4545   -1.7141 H   0  0  0  0  0  0  0  0  0  0  0  0
   -4.8489    0.3192   -1.6175 H   0  0  0  0  0  0  0  0  0  0  0  0
   -3.4410   -1.3340   -2.4162 H   0  0  0  0  0  0  0  0  0  0  0  0
   -2.1115   -0.1812   -2.4620 H   0  0  0  0  0  0  0  0  0  0  0  0
    3.5185    0.5806    1.1818 H   0  0  0  0  0  0  0  0  0  0  0  0
   -0.4734    0.8691   -1.1514 H   0  0  0  0  0  0  0  0  0  0  0  0
   -1.4511    2.2852   -0.8754 H   0  0  0  0  0  0  0  0  0  0  0  0
    3.4900   -1.7171   -0.8169 H   0  0  0  0  0  0  0  0  0  0  0  0
    3.9349   -1.7870    0.8906 H   0  0  0  0  0  0  0  0  0  0  0  0
    1.4904   -3.5809    0.2308 H   0  0  0  0  0  0  0  0  0  0  0  0
    1.3062   -2.6385   -1.2456 H   0  0  0  0  0  0  0  0  0  0  0  0
    2.0275   -2.3523    2.4817 H   0  0  0  0  0  0  0  0  0  0  0  0
    2.0199   -0.5771    2.5143 H   0  0  0  0  0  0  0  0  0  0  0  0
    0.5182   -1.4356    2.2917 H   0  0  0  0  0  0  0  0  0  0  0  0
    2.8626    1.4454   -2.3982 H   0  0  0  0  0  0  0  0  0  0  0  0
    2.3957   -0.2735   -2.4146 H   0  0  0  0  0  0  0  0  0  0  0  0
    1.1730    0.9743   -2.4333 H   0  0  0  0  0  0  0  0  0  0  0  0
    5.6127    0.2927    0.0050 H   0  0  0  0  0  0  0  0  0  0  0  0
    4.8154    0.2337   -1.5665 H   0  0  0  0  0  0  0  0  0  0  0  0
    4.8092    1.7376   -0.6254 H   0  0  0  0  0  0  0  0  0  0  0  0
  1 14  1  0  0  0  0
  1 15  1  0  0  0  0
  2  9  1  0  0  0  0
  2 21  1  0  0  0  0
  3 17  1  0  0  0  0
  3 20  1  0  0  0  0
  4 20  2  0  0  0  0
  5 21  2  0  0  0  0
  6  7  1  0  0  0  0
  6 11  1  0  0  0  0
  6 12  1  0  0  0  0
  7  8  1  0  0  0  0
  7  9  1  0  0  0  0
  7 25  1  0  0  0  0
  8 10  1  0  0  0  0
  8 17  1  0  0  0  0
  8 26  1  0  0  0  0
  9 13  1  0  0  0  0
  9 27  1  0  0  0  0
 10 11  1  0  0  0  0
 10 28  1  0  0  0  0
 10 29  1  0  0  0  0
 11 30  1  0  0  0  0
 11 31  1  0  0  0  0
 12 13  1  0  0  0  0
 12 32  1  0  0  0  0
 12 33  1  0  0  0  0
 13 34  1  0  0  0  0
 13 35  1  0  0  0  0
 14 18  1  0  0  0  0
 14 19  1  0  0  0  0
 14 22  1  0  0  0  0
 15 16  1  0  0  0  0
 15 20  1  0  0  0  0
 15 23  1  0  0  0  0
 16 18  1  0  0  0  0
 16 24  1  0  0  0  0
 16 36  1  0  0  0  0
 17 37  1  0  0  0  0
 17 38  1  0  0  0  0
 18 39  1  0  0  0  0
 18 40  1  0  0  0  0
 19 21  1  0  0  0  0
 19 41  1  0  0  0  0
 19 42  1  0  0  0  0
 22 43  1  0  0  0  0
 22 44  1  0  0  0  0
 22 45  1  0  0  0  0
 23 46  1  0  0  0  0
 23 47  1  0  0  0  0
 23 48  1  0  0  0  0
 24 49  1  0  0  0  0
 24 50  1  0  0  0  0
 24 51  1  0  0  0  0
M  END
> <PUBCHEM_COMPOUND_CID>
442746

> <PUBCHEM_CONFORMER_RMSD>
0.6

> <PUBCHEM_CONFORMER_DIVERSEORDER>
1
4
2
3

> <PUBCHEM_MMFF94_PARTIAL_CHARGES>
16
1 -0.56
11 0.27
12 0.27
14 0.28
15 0.34
17 0.28
19 0.06
2 -0.43
20 0.66
21 0.66
3 -0.43
4 -0.57
5 -0.57
6 -0.81
7 0.27
9 0.28

> <PUBCHEM_EFFECTIVE_ROTOR_COUNT>
2.2

> <PUBCHEM_PHARMACOPHORE_FEATURES>
7
1 1 acceptor
1 4 acceptor
1 5 acceptor
1 6 cation
5 1 14 15 16 18 rings
5 6 7 8 10 11 rings
5 6 7 9 12 13 rings

> <PUBCHEM_HEAVY_ATOM_COUNT>
24

> <PUBCHEM_ATOM_DEF_STEREO_COUNT>
5

> <PUBCHEM_ATOM_UDEF_STEREO_COUNT>
1

> <PUBCHEM_BOND_DEF_STEREO_COUNT>
0

> <PUBCHEM_BOND_UDEF_STEREO_COUNT>
0

> <PUBCHEM_ISOTOPIC_ATOM_COUNT>
0

> <PUBCHEM_COMPONENT_COUNT>
1

> <PUBCHEM_CACTVS_TAUTO_COUNT>
1

> <PUBCHEM_CONFORMER_ID>
0006C17A00000001

> <PUBCHEM_MMFF94_ENERGY>
85.2283

> <PUBCHEM_FEATURE_SELFOVERLAP>
35.875

> <PUBCHEM_SHAPE_FINGERPRINT>
104564 63 17982456193715111148
10967382 1 18338515351953146114
11244481 83 15864938429375621097
11370993 70 18339093587558173221
11578080 2 17974041549381679472
11640471 11 18411701006192639623
12035759 4 18187942676801316077
12156800 1 5894735587612467033
12553582 1 18338797926415377144
12592029 89 18264753519799225281
12788726 201 17822280336234897721
13140716 1 18267586801890966152
13224815 77 18272367598343655765
13583140 156 16559037081617325907
14790565 3 18339346557275323004
15209289 33 18408036312699795980
16752209 62 17822866372032634133
16945 1 18336535028500767778
17492 54 18343023280838868958
18219364 16 18060423555515510671
192875 21 18263947555678612851
20510252 161 17693096262597423594
20691752 17 18341629082967948009
20775438 99 16021737360167916902
2334 1 17906734696241953116
23402539 116 18187646929558603324
23557571 272 16733277767819703847
23558518 356 18116987785119965297
23559900 14 16950558943231988772
238 59 17768011736516507167
2748010 2 18050284761132125862
34934 24 18338513157109216152
350125 39 18127682725885143518
4409770 3 15959232245826655520
44154327 71 18119244210607432475
469060 322 17125065461733275923
474 4 18267305511745931843
484989 97 18053954948569591263
6438718 38 18040150712587753750
7064713 232 17971202666287327384
90525 40 18261385697975801097
9981440 41 17688601455227284928

> <PUBCHEM_SHAPE_MULTIPOLES>
459.58
6.8
3.15
1.47
0.08
0.83
0.14
-2.27
0.86
0.48
-0.68
-0.43
0.04
-1.11

> <PUBCHEM_SHAPE_SELFOVERLAP>
982.064

> <PUBCHEM_SHAPE_VOLUME>
255.7

> <PUBCHEM_COORDINATE_TYPE>
2
5
10

$$$$

