7495
  -OEChem-06261202063D

 21 21  0     0  0  0  0  0  0999 V2000
    2.6000    0.4174   -0.3818 O   0  0  0  0  0  0  0  0  0  0  0  0
   -3.6262    0.8896    0.2526 O   0  5  0  0  0  0  0  0  0  0  0  0
   -3.4182   -1.2909    0.1073 O   0  0  0  0  0  0  0  0  0  0  0  0
   -2.9197   -0.1395    0.1247 N   0  3  0  0  0  0  0  0  0  0  0  0
    1.2514    0.2812   -0.2582 C   0  0  0  0  0  0  0  0  0  0  0  0
   -1.5129    0.0033   -0.0050 C   0  0  0  0  0  0  0  0  0  0  0  0
    0.4467    1.4117   -0.1158 C   0  0  0  0  0  0  0  0  0  0  0  0
    0.6738   -0.9885   -0.2740 C   0  0  0  0  0  0  0  0  0  0  0  0
    3.4087   -0.6461    0.1185 C   0  0  0  0  0  0  0  0  0  0  0  0
   -0.9354    1.2728    0.0108 C   0  0  0  0  0  0  0  0  0  0  0  0
   -0.7085   -1.1274   -0.1474 C   0  0  0  0  0  0  0  0  0  0  0  0
    4.7403   -0.0836    0.5682 C   0  0  0  0  0  0  0  0  0  0  0  0
    0.8916    2.4031   -0.1026 H   0  0  0  0  0  0  0  0  0  0  0  0
    1.2612   -1.8917   -0.4105 H   0  0  0  0  0  0  0  0  0  0  0  0
    2.9487   -1.1354    0.9863 H   0  0  0  0  0  0  0  0  0  0  0  0
    3.5671   -1.3827   -0.6769 H   0  0  0  0  0  0  0  0  0  0  0  0
   -1.5308    2.1756    0.1201 H   0  0  0  0  0  0  0  0  0  0  0  0
   -1.1245   -2.1314   -0.1699 H   0  0  0  0  0  0  0  0  0  0  0  0
    5.3916   -0.8754    0.9490 H   0  0  0  0  0  0  0  0  0  0  0  0
    5.2461    0.4203   -0.2621 H   0  0  0  0  0  0  0  0  0  0  0  0
    4.5972    0.6650    1.3545 H   0  0  0  0  0  0  0  0  0  0  0  0
  1  5  1  0  0  0  0
  1  9  1  0  0  0  0
  2  4  1  0  0  0  0
  3  4  2  0  0  0  0
  4  6  1  0  0  0  0
  5  7  2  0  0  0  0
  5  8  1  0  0  0  0
  6 10  2  0  0  0  0
  6 11  1  0  0  0  0
  7 10  1  0  0  0  0
  7 13  1  0  0  0  0
  8 11  2  0  0  0  0
  8 14  1  0  0  0  0
  9 12  1  0  0  0  0
  9 15  1  0  0  0  0
  9 16  1  0  0  0  0
 10 17  1  0  0  0  0
 11 18  1  0  0  0  0
 12 19  1  0  0  0  0
 12 20  1  0  0  0  0
 12 21  1  0  0  0  0
M  CHG  2   2  -1   4   1
M  END
> <PUBCHEM_COMPOUND_CID>
7495

> <PUBCHEM_CONFORMER_RMSD>
0.6

> <PUBCHEM_CONFORMER_DIVERSEORDER>
1
2

> <PUBCHEM_MMFF94_PARTIAL_CHARGES>
15
1 -0.36
10 -0.15
11 -0.15
13 0.15
14 0.15
17 0.15
18 0.15
2 -0.52
3 -0.52
4 0.91
5 0.08
6 0.13
7 -0.15
8 -0.15
9 0.28

> <PUBCHEM_EFFECTIVE_ROTOR_COUNT>
3

> <PUBCHEM_PHARMACOPHORE_FEATURES>
5
1 1 acceptor
1 2 acceptor
1 2 anion
1 3 acceptor
6 5 6 7 8 10 11 rings

> <PUBCHEM_HEAVY_ATOM_COUNT>
12

> <PUBCHEM_ATOM_DEF_STEREO_COUNT>
0

> <PUBCHEM_ATOM_UDEF_STEREO_COUNT>
0

> <PUBCHEM_BOND_DEF_STEREO_COUNT>
0

> <PUBCHEM_BOND_UDEF_STEREO_COUNT>
0

> <PUBCHEM_ISOTOPIC_ATOM_COUNT>
0

> <PUBCHEM_COMPONENT_COUNT>
1

> <PUBCHEM_CACTVS_TAUTO_COUNT>
1

> <PUBCHEM_CONFORMER_ID>
00001D4700000001

> <PUBCHEM_MMFF94_ENERGY>
37.7746

> <PUBCHEM_FEATURE_SELFOVERLAP>
25.453

> <PUBCHEM_SHAPE_FINGERPRINT>
10130415 120 18272088284089007408
11062470 55 16081088182001363522
11132069 177 18335980947391023092
11401426 45 18408329895030974125
12032990 46 18410285917605903414
12119455 92 16950288433527882716
124424 183 18202849850765293311
13214271 11 18260552229385740301
13690532 89 18342740693328640766
14325111 11 18410852140181869029
16945 1 18334844030919505109
18186145 218 11455891347348789790
19026448 4 16008739230003278380
193761 8 17617095806813598870
20510252 161 18187365493015318824
20645476 183 17701234972431328638
21119208 17 7997969090042935818
21501925 9 18410014290851909422
22485316 2 18342744030802949530
23380061 330 18334296452764844991
23402539 116 18260840301258183358
23402655 69 18191600842471897245
23463225 33 18341893013140222710
23559900 14 18333728048973130126
42 15 18342178899407165986
43471831 8 18270965772975262706
53655031 270 18342458187765332186

> <PUBCHEM_SHAPE_MULTIPOLES>
224.37
6.88
1.34
0.65
3.71
0.09
0
-0.83
1.4
-0.57
-0.03
0.18
0
-0.07

> <PUBCHEM_SHAPE_SELFOVERLAP>
461.32

> <PUBCHEM_SHAPE_VOLUME>
129.7

> <PUBCHEM_COORDINATE_TYPE>
2
5
10

$$$$

