17395325
  -OEChem-06241222493D

 44 46  0     0  0  0  0  0  0999 V2000
   -6.3653   -1.5087   -0.0934 S   0  0  0  0  0  0  0  0  0  0  0  0
    3.9046   -3.6065    0.0861 O   0  0  0  0  0  0  0  0  0  0  0  0
   -0.5519    2.2564    0.0363 O   0  0  0  0  0  0  0  0  0  0  0  0
   -3.3875   -1.8348   -0.0432 O   0  0  0  0  0  0  0  0  0  0  0  0
    3.5487   -0.8205   -0.0192 N   0  0  0  0  0  0  0  0  0  0  0  0
    1.0676    0.5507    0.0131 N   0  0  0  0  0  0  0  0  0  0  0  0
    3.5892   -1.5157    1.2746 C   0  0  0  0  0  0  0  0  0  0  0  0
    4.1991   -1.5269   -1.1283 C   0  0  0  0  0  0  0  0  0  0  0  0
    3.4983    0.5772   -0.0164 C   0  0  0  0  0  0  0  0  0  0  0  0
    3.1329   -2.9595    1.0978 C   0  0  0  0  0  0  0  0  0  0  0  0
    3.7108   -2.9705   -1.1768 C   0  0  0  0  0  0  0  0  0  0  0  0
    2.2771    1.2513   -0.0007 C   0  0  0  0  0  0  0  0  0  0  0  0
    4.6925    1.2980   -0.0296 C   0  0  0  0  0  0  0  0  0  0  0  0
    2.2503    2.6460    0.0021 C   0  0  0  0  0  0  0  0  0  0  0  0
    4.6655    2.6926   -0.0269 C   0  0  0  0  0  0  0  0  0  0  0  0
   -1.2716   -0.0461    0.0406 C   0  0  0  0  0  0  0  0  0  0  0  0
    3.4445    3.3665   -0.0111 C   0  0  0  0  0  0  0  0  0  0  0  0
   -0.2347    1.0717    0.0295 C   0  0  0  0  0  0  0  0  0  0  0  0
   -2.7130    0.4618    0.0586 C   0  0  0  0  0  0  0  0  0  0  0  0
   -3.7525   -0.6582   -0.0071 C   0  0  0  0  0  0  0  0  0  0  0  0
   -5.1761   -0.2789   -0.0206 C   0  0  0  0  0  0  0  0  0  0  0  0
   -5.7354    0.9795    0.0186 C   0  0  0  0  0  0  0  0  0  0  0  0
   -7.1592    0.9332   -0.0115 C   0  0  0  0  0  0  0  0  0  0  0  0
   -7.6338   -0.3585   -0.0725 C   0  0  0  0  0  0  0  0  0  0  0  0
    2.9445   -1.0207    2.0102 H   0  0  0  0  0  0  0  0  0  0  0  0
    4.6181   -1.4938    1.6541 H   0  0  0  0  0  0  0  0  0  0  0  0
    3.9792   -1.0378   -2.0844 H   0  0  0  0  0  0  0  0  0  0  0  0
    5.2851   -1.5115   -0.9758 H   0  0  0  0  0  0  0  0  0  0  0  0
    3.2715   -3.5121    2.0324 H   0  0  0  0  0  0  0  0  0  0  0  0
    2.0694   -3.0125    0.8349 H   0  0  0  0  0  0  0  0  0  0  0  0
    2.6505   -3.0238   -1.4525 H   0  0  0  0  0  0  0  0  0  0  0  0
    4.2770   -3.5311   -1.9272 H   0  0  0  0  0  0  0  0  0  0  0  0
    5.6538    0.7905   -0.0357 H   0  0  0  0  0  0  0  0  0  0  0  0
    1.1573   -0.4633    0.0081 H   0  0  0  0  0  0  0  0  0  0  0  0
    1.3523    3.2459    0.0141 H   0  0  0  0  0  0  0  0  0  0  0  0
    5.5953    3.2539   -0.0355 H   0  0  0  0  0  0  0  0  0  0  0  0
   -1.0885   -0.6761    0.9198 H   0  0  0  0  0  0  0  0  0  0  0  0
   -1.1070   -0.6677   -0.8484 H   0  0  0  0  0  0  0  0  0  0  0  0
    3.4253    4.4526   -0.0087 H   0  0  0  0  0  0  0  0  0  0  0  0
   -2.8846    1.0388    0.9750 H   0  0  0  0  0  0  0  0  0  0  0  0
   -2.8745    1.1256   -0.7992 H   0  0  0  0  0  0  0  0  0  0  0  0
   -5.1650    1.8982    0.0669 H   0  0  0  0  0  0  0  0  0  0  0  0
   -7.8026    1.8031    0.0107 H   0  0  0  0  0  0  0  0  0  0  0  0
   -8.6646   -0.6819   -0.1058 H   0  0  0  0  0  0  0  0  0  0  0  0
  1 21  1  0  0  0  0
  1 24  1  0  0  0  0
  2 10  1  0  0  0  0
  2 11  1  0  0  0  0
  3 18  2  0  0  0  0
  4 20  2  0  0  0  0
  5  7  1  0  0  0  0
  5  8  1  0  0  0  0
  5  9  1  0  0  0  0
  6 12  1  0  0  0  0
  6 18  1  0  0  0  0
  6 34  1  0  0  0  0
  7 10  1  0  0  0  0
  7 25  1  0  0  0  0
  7 26  1  0  0  0  0
  8 11  1  0  0  0  0
  8 27  1  0  0  0  0
  8 28  1  0  0  0  0
  9 12  1  0  0  0  0
  9 13  2  0  0  0  0
 10 29  1  0  0  0  0
 10 30  1  0  0  0  0
 11 31  1  0  0  0  0
 11 32  1  0  0  0  0
 12 14  2  0  0  0  0
 13 15  1  0  0  0  0
 13 33  1  0  0  0  0
 14 17  1  0  0  0  0
 14 35  1  0  0  0  0
 15 17  2  0  0  0  0
 15 36  1  0  0  0  0
 16 18  1  0  0  0  0
 16 19  1  0  0  0  0
 16 37  1  0  0  0  0
 16 38  1  0  0  0  0
 17 39  1  0  0  0  0
 19 20  1  0  0  0  0
 19 40  1  0  0  0  0
 19 41  1  0  0  0  0
 20 21  1  0  0  0  0
 21 22  2  0  0  0  0
 22 23  1  0  0  0  0
 22 42  1  0  0  0  0
 23 24  2  0  0  0  0
 23 43  1  0  0  0  0
 24 44  1  0  0  0  0
M  END
> <PUBCHEM_COMPOUND_CID>
17395325

> <PUBCHEM_CONFORMER_RMSD>
1

> <PUBCHEM_CONFORMER_DIVERSEORDER>
1
84
55
64
85
104
102
26
31
28
73
77
115
34
9
11
49
44
35
54
43
112
12
113
114
22
59
45
111
5
116
33
39
20
19
36
107
74
56
7
98
82
86
72
110
90
87
38
117
29
83
106
92
48
52
65
99
61
118
4
27
108
30
97
21
32
57
95
80
88
51
105
94
50
89
101
62
2
67
109
3
13
100
58
69
78
6
79
60
46
53
81
68
24
15
91
17
103
16
71
8
47
42
75
76
40
23
63
18
25
37
96
10
70
93
119
14
66
41

> <PUBCHEM_MMFF94_PARTIAL_CHARGES>
32
1 -0.08
10 0.28
11 0.28
12 0.12
13 -0.15
14 -0.15
15 -0.15
16 0.06
17 -0.15
18 0.57
19 0.06
2 -0.56
20 0.59
21 -0.05
22 -0.15
23 -0.15
24 -0.11
3 -0.57
33 0.15
34 0.37
35 0.15
36 0.15
39 0.15
4 -0.57
42 0.15
43 0.15
44 0.15
5 -0.84
6 -0.55
7 0.37
8 0.37
9 0.1

> <PUBCHEM_EFFECTIVE_ROTOR_COUNT>
8.2

> <PUBCHEM_PHARMACOPHORE_FEATURES>
8
1 2 acceptor
1 3 acceptor
1 4 acceptor
1 5 cation
1 6 donor
5 1 21 22 23 24 rings
6 2 5 7 8 10 11 rings
6 9 12 13 14 15 17 rings

> <PUBCHEM_HEAVY_ATOM_COUNT>
24

> <PUBCHEM_ATOM_DEF_STEREO_COUNT>
0

> <PUBCHEM_ATOM_UDEF_STEREO_COUNT>
0

> <PUBCHEM_BOND_DEF_STEREO_COUNT>
0

> <PUBCHEM_BOND_UDEF_STEREO_COUNT>
0

> <PUBCHEM_ISOTOPIC_ATOM_COUNT>
0

> <PUBCHEM_COMPONENT_COUNT>
1

> <PUBCHEM_CACTVS_TAUTO_COUNT>
4

> <PUBCHEM_CONFORMER_ID>
01096E7D00000001

> <PUBCHEM_MMFF94_ENERGY>
71.7644

> <PUBCHEM_FEATURE_SELFOVERLAP>
40.594

> <PUBCHEM_SHAPE_FINGERPRINT>
10411042 1 18122907792522079842
10554248 39 18336838554467577797
10595046 47 18335702698721001625
114674 6 18272652355298204514
11719270 70 18337676317855888760
12107183 9 17975124650424194577
12730499 353 18270676468193504464
12788726 201 17603293861179277633
13073987 5 18410008815649711689
13533116 47 18334013895677960873
1361 2 18410011048199743011
1361 4 18336828568737835215
13617811 41 15985106315019400887
13785724 45 17973436891048013990
15183329 4 18335700555558610289
15250474 111 18116166484399263471
15324115 91 15841273748106785922
15419008 42 17827082020062568605
15664445 248 17561075878826926492
17492 89 18336547243382521804
17844677 252 18412260675213293153
19427546 62 18052256198693366308
20157964 124 18410573955398091897
20511986 3 17895766084170752389
20554085 129 17896610484085760760
20645477 70 18410856555629684948
21279426 13 18270687592639070013
21315759 148 17988634152579116811
21344244 78 18115321067426346152
21421861 104 18412273835029712642
21641784 216 15267347370505988271
220451 1 17894909582346147287
2303208 19 17775276171830023691
23081809 10 17822012000332719437
23559900 14 18410576154331813184
239999 70 18408037408190925646
255183 451 18116423929402886998
3004659 81 18412543223367033095
3014965 18 18411141363965195613
3421961 26 18410013269166553752
4073 2 18200590272971752075
4874694 18 18340216181004816795
6025842 7 18410854326821486580
6299153 45 18189888894245802041
8272917 22 18410573955598519580
8988823 20 18411983567716766660

> <PUBCHEM_SHAPE_MULTIPOLES>
470.19
18.21
3.84
0.84
36.8
1.07
0.02
1.88
-0.8
-7.98
-0.01
-0.85
0.54
0

> <PUBCHEM_SHAPE_SELFOVERLAP>
980.64

> <PUBCHEM_SHAPE_VOLUME>
266.2

> <PUBCHEM_COORDINATE_TYPE>
2
5
10

$$$$

