51090890
  -OEChem-06241223003D

 45 47  0     0  0  0  0  0  0999 V2000
   -1.8591    2.4513   -1.4582 O   0  0  0  0  0  0  0  0  0  0  0  0
    3.4471   -0.2902   -0.0325 N   0  0  0  0  0  0  0  0  0  0  0  0
   -0.3506    1.5476    0.0829 N   0  0  0  0  0  0  0  0  0  0  0  0
   -4.3935   -3.5267   -1.2370 N   0  0  0  0  0  0  0  0  0  0  0  0
    2.3553    0.5821    0.3995 C   0  0  0  0  0  0  0  0  0  0  0  0
    1.9701    1.5444   -0.7328 C   0  0  0  0  0  0  0  0  0  0  0  0
    1.1457   -0.2610    0.8274 C   0  0  0  0  0  0  0  0  0  0  0  0
    4.5798    0.5081   -0.5216 C   0  0  0  0  0  0  0  0  0  0  0  0
    3.8579   -1.1803    1.0624 C   0  0  0  0  0  0  0  0  0  0  0  0
    0.7632    2.3962   -0.3411 C   0  0  0  0  0  0  0  0  0  0  0  0
   -0.0386    0.6334    1.1897 C   0  0  0  0  0  0  0  0  0  0  0  0
    4.9662   -2.1335    0.6124 C   0  0  0  0  0  0  0  0  0  0  0  0
    5.7118   -0.3897   -1.0231 C   0  0  0  0  0  0  0  0  0  0  0  0
    6.1616   -1.3697    0.0545 C   0  0  0  0  0  0  0  0  0  0  0  0
   -1.5971    1.6859   -0.5314 C   0  0  0  0  0  0  0  0  0  0  0  0
   -2.7019    0.8457   -0.0530 C   0  0  0  0  0  0  0  0  0  0  0  0
   -2.9270   -0.4052   -0.6278 C   0  0  0  0  0  0  0  0  0  0  0  0
   -3.5273    1.2989    0.9762 C   0  0  0  0  0  0  0  0  0  0  0  0
   -3.9771   -1.2030   -0.1733 C   0  0  0  0  0  0  0  0  0  0  0  0
   -4.5773    0.5010    1.4309 C   0  0  0  0  0  0  0  0  0  0  0  0
   -4.8024   -0.7498    0.8560 C   0  0  0  0  0  0  0  0  0  0  0  0
   -4.2068   -2.4852   -0.7602 C   0  0  0  0  0  0  0  0  0  0  0  0
    2.6770    1.1850    1.2615 H   0  0  0  0  0  0  0  0  0  0  0  0
    2.7666    2.2575   -0.9660 H   0  0  0  0  0  0  0  0  0  0  0  0
    1.7354    0.9835   -1.6470 H   0  0  0  0  0  0  0  0  0  0  0  0
    0.8515   -0.9418    0.0178 H   0  0  0  0  0  0  0  0  0  0  0  0
    1.3495   -0.8652    1.7161 H   0  0  0  0  0  0  0  0  0  0  0  0
    3.0450   -1.8340    1.3886 H   0  0  0  0  0  0  0  0  0  0  0  0
    4.1957   -0.6051    1.9343 H   0  0  0  0  0  0  0  0  0  0  0  0
    4.9569    1.1832    0.2577 H   0  0  0  0  0  0  0  0  0  0  0  0
    4.3137    1.1117   -1.3933 H   0  0  0  0  0  0  0  0  0  0  0  0
    0.1984    1.2509    2.0644 H   0  0  0  0  0  0  0  0  0  0  0  0
    0.4689    3.0320   -1.1822 H   0  0  0  0  0  0  0  0  0  0  0  0
    1.0119    3.0562    0.4985 H   0  0  0  0  0  0  0  0  0  0  0  0
   -0.8952    0.0109    1.4564 H   0  0  0  0  0  0  0  0  0  0  0  0
    5.3757   -0.9483   -1.9062 H   0  0  0  0  0  0  0  0  0  0  0  0
    6.5618    0.2259   -1.3391 H   0  0  0  0  0  0  0  0  0  0  0  0
    5.2872   -2.7544    1.4566 H   0  0  0  0  0  0  0  0  0  0  0  0
    4.5774   -2.8143   -0.1557 H   0  0  0  0  0  0  0  0  0  0  0  0
    6.6559   -0.8205    0.8653 H   0  0  0  0  0  0  0  0  0  0  0  0
    6.8973   -2.0696   -0.3564 H   0  0  0  0  0  0  0  0  0  0  0  0
   -2.2797   -0.7550   -1.4298 H   0  0  0  0  0  0  0  0  0  0  0  0
   -3.3606    2.2718    1.4313 H   0  0  0  0  0  0  0  0  0  0  0  0
   -5.2195    0.8538    2.2325 H   0  0  0  0  0  0  0  0  0  0  0  0
   -5.6248   -1.3602    1.2215 H   0  0  0  0  0  0  0  0  0  0  0  0
  1 15  2  0  0  0  0
  2  5  1  0  0  0  0
  2  8  1  0  0  0  0
  2  9  1  0  0  0  0
  3 10  1  0  0  0  0
  3 11  1  0  0  0  0
  3 15  1  0  0  0  0
  4 22  3  0  0  0  0
  5  6  1  0  0  0  0
  5  7  1  0  0  0  0
  5 23  1  0  0  0  0
  6 10  1  0  0  0  0
  6 24  1  0  0  0  0
  6 25  1  0  0  0  0
  7 11  1  0  0  0  0
  7 26  1  0  0  0  0
  7 27  1  0  0  0  0
  8 13  1  0  0  0  0
  8 30  1  0  0  0  0
  8 31  1  0  0  0  0
  9 12  1  0  0  0  0
  9 28  1  0  0  0  0
  9 29  1  0  0  0  0
 10 33  1  0  0  0  0
 10 34  1  0  0  0  0
 11 32  1  0  0  0  0
 11 35  1  0  0  0  0
 12 14  1  0  0  0  0
 12 38  1  0  0  0  0
 12 39  1  0  0  0  0
 13 14  1  0  0  0  0
 13 36  1  0  0  0  0
 13 37  1  0  0  0  0
 14 40  1  0  0  0  0
 14 41  1  0  0  0  0
 15 16  1  0  0  0  0
 16 17  1  0  0  0  0
 16 18  2  0  0  0  0
 17 19  2  0  0  0  0
 17 42  1  0  0  0  0
 18 20  1  0  0  0  0
 18 43  1  0  0  0  0
 19 21  1  0  0  0  0
 19 22  1  0  0  0  0
 20 21  2  0  0  0  0
 20 44  1  0  0  0  0
 21 45  1  0  0  0  0
M  END
> <PUBCHEM_COMPOUND_CID>
51090890

> <PUBCHEM_CONFORMER_RMSD>
0.8

> <PUBCHEM_CONFORMER_DIVERSEORDER>
1
24
15
27
25
30
13
20
11
10
14
6
32
31
17
12
16
7
26
22
29
9
23
33
21
34
19
8
18
28
5
3
2
4
35

> <PUBCHEM_MMFF94_PARTIAL_CHARGES>
21
1 -0.57
10 0.3
11 0.3
15 0.54
16 0.09
17 -0.15
18 -0.15
19 0.07
2 -0.81
20 -0.15
21 -0.15
22 0.48
3 -0.66
4 -0.56
42 0.15
43 0.15
44 0.15
45 0.15
5 0.27
8 0.27
9 0.27

> <PUBCHEM_EFFECTIVE_ROTOR_COUNT>
5.4

> <PUBCHEM_PHARMACOPHORE_FEATURES>
6
1 1 acceptor
1 2 cation
1 4 acceptor
6 16 17 18 19 20 21 rings
6 2 8 9 12 13 14 rings
6 3 5 6 7 10 11 rings

> <PUBCHEM_HEAVY_ATOM_COUNT>
22

> <PUBCHEM_ATOM_DEF_STEREO_COUNT>
0

> <PUBCHEM_ATOM_UDEF_STEREO_COUNT>
0

> <PUBCHEM_BOND_DEF_STEREO_COUNT>
0

> <PUBCHEM_BOND_UDEF_STEREO_COUNT>
0

> <PUBCHEM_ISOTOPIC_ATOM_COUNT>
0

> <PUBCHEM_COMPONENT_COUNT>
1

> <PUBCHEM_CACTVS_TAUTO_COUNT>
1

> <PUBCHEM_CONFORMER_ID>
030B95CA00000001

> <PUBCHEM_MMFF94_ENERGY>
41.4077

> <PUBCHEM_FEATURE_SELFOVERLAP>
30.446

> <PUBCHEM_SHAPE_FINGERPRINT>
10042902 136 18335703780277475895
10291535 26 9871459937800962133
10622 236 17972613086878440735
10928967 22 18342182188761817082
10968037 57 18410015399549700735
11036077 4 18040146336744027435
11045515 52 18059854025873301756
11089746 13 9943515290087669794
11524674 6 17167865300575308687
11796584 16 18187361077751709598
12107183 9 18335409219258348009
12553582 1 18059583477160633401
12596602 18 17749108872798887194
12633257 1 17458891649292390203
13009979 54 18262227812603833841
13103583 49 18040704879501853425
13167823 11 18272087257760485898
13288520 33 18341326773031102897
13675066 3 15864069888230806984
14466204 15 9367347016187977814
14576447 43 18343023264086254462
14739800 52 10519417434528237838
14767858 380 17917415511762080980
15188451 53 17095533851191160695
15209294 21 8070026662173549520
15250474 111 18410580599581195170
15348495 7 17458631107522199626
15537594 2 18342452659958169787
15880784 105 18114460072163790968
17349148 13 17489582411758319024
17492 89 18048880693880318879
17780758 139 17967814976546708849
17857418 61 18413111662600109458
1813 80 18129645474616053933
19141452 34 18336543906478016289
200 152 18130782404288965224
20281475 54 18409450250108858625
20621476 21 17894899768304295686
21315759 148 17313099748749524390
21315763 191 18261387884161452290
21401589 2 9655305886203346791
22393880 68 17632306725914435340
22950370 63 18410289224873048656
23379529 103 18338514114887137558
23402539 116 17703787058962124656
235170 7 15482675701392762786
23522609 53 18124278762645985156
23559900 14 18115318765513883057
270888 7 9871486321732976455
2838139 119 11239997837183624454
312425 54 17967814946323864378
312425 83 12463029756474880737
314194 84 18343297059529603842
341906 21 10879991337633328958
34797466 226 14476664322113338938
351380 3 18343016705233519258
441001 317 10231752284187768691
46194498 28 15122928605050796198
463206 1 18342451513402485298
5104073 3 17749389226256175913
5486654 36 18335976481226487419
559249 180 18410574016102471657
7495541 125 18260832601189118560
7808743 9 10879726381312114615
7970288 3 18410862018607416455

> <PUBCHEM_SHAPE_MULTIPOLES>
431.94
13.8
2.82
1.24
10.35
1.24
-0.05
9.68
0.06
-2.45
1.11
-0.62
0.05
-1.77

> <PUBCHEM_SHAPE_SELFOVERLAP>
907.445

> <PUBCHEM_SHAPE_VOLUME>
239.6

> <PUBCHEM_COORDINATE_TYPE>
2
5
10

$$$$

