4748
  -OEChem-07051212533D

 53 56  0     0  0  0  0  0  0999 V2000
    2.2203   -4.8841   -0.2752 Cl  0  0  0  0  0  0  0  0  0  0  0  0
    5.0903    0.7149   -0.3992 S   0  0  0  0  0  0  0  0  0  0  0  0
   -8.8792   -0.1118   -1.1046 O   0  0  0  0  0  0  0  0  0  0  0  0
   -2.6932   -0.4739    0.6765 N   0  0  0  0  0  0  0  0  0  0  0  0
   -5.3185    0.3041   -0.2514 N   0  0  0  0  0  0  0  0  0  0  0  0
    2.2057    0.2112    0.6447 N   0  0  0  0  0  0  0  0  0  0  0  0
   -3.8905   -0.7072    1.4933 C   0  0  0  0  0  0  0  0  0  0  0  0
   -2.8808    0.7002   -0.1846 C   0  0  0  0  0  0  0  0  0  0  0  0
   -5.1316   -0.8705    0.6091 C   0  0  0  0  0  0  0  0  0  0  0  0
   -4.1215    0.5355   -1.0691 C   0  0  0  0  0  0  0  0  0  0  0  0
   -1.5113   -0.3144    1.5215 C   0  0  0  0  0  0  0  0  0  0  0  0
   -0.2352   -0.1352    0.6933 C   0  0  0  0  0  0  0  0  0  0  0  0
   -6.5012    0.1463   -1.0955 C   0  0  0  0  0  0  0  0  0  0  0  0
    1.0459   -0.0114    1.5175 C   0  0  0  0  0  0  0  0  0  0  0  0
   -7.7551    0.0222   -0.2448 C   0  0  0  0  0  0  0  0  0  0  0  0
    2.8980   -0.9333    0.1742 C   0  0  0  0  0  0  0  0  0  0  0  0
    2.5041    1.5496    0.2838 C   0  0  0  0  0  0  0  0  0  0  0  0
    4.2034   -0.8295   -0.3457 C   0  0  0  0  0  0  0  0  0  0  0  0
    3.7705    1.8993   -0.2250 C   0  0  0  0  0  0  0  0  0  0  0  0
    2.3063   -2.2155    0.1692 C   0  0  0  0  0  0  0  0  0  0  0  0
    1.5452    2.5817    0.3809 C   0  0  0  0  0  0  0  0  0  0  0  0
    4.8823   -1.9665   -0.8188 C   0  0  0  0  0  0  0  0  0  0  0  0
    4.0587    3.2268   -0.5887 C   0  0  0  0  0  0  0  0  0  0  0  0
    2.9838   -3.3415   -0.3069 C   0  0  0  0  0  0  0  0  0  0  0  0
    1.8352    3.8985    0.0133 C   0  0  0  0  0  0  0  0  0  0  0  0
    4.2742   -3.2174   -0.7986 C   0  0  0  0  0  0  0  0  0  0  0  0
    3.0943    4.2219   -0.4692 C   0  0  0  0  0  0  0  0  0  0  0  0
   -4.0479    0.1176    2.2018 H   0  0  0  0  0  0  0  0  0  0  0  0
   -3.7639   -1.6238    2.0824 H   0  0  0  0  0  0  0  0  0  0  0  0
   -2.0506    0.8286   -0.8845 H   0  0  0  0  0  0  0  0  0  0  0  0
   -2.9654    1.6195    0.4102 H   0  0  0  0  0  0  0  0  0  0  0  0
   -5.9670   -1.0023    1.3025 H   0  0  0  0  0  0  0  0  0  0  0  0
   -5.0446   -1.7884    0.0120 H   0  0  0  0  0  0  0  0  0  0  0  0
   -3.9651   -0.2904   -1.7764 H   0  0  0  0  0  0  0  0  0  0  0  0
   -4.2478    1.4513   -1.6595 H   0  0  0  0  0  0  0  0  0  0  0  0
   -1.6259    0.5396    2.2018 H   0  0  0  0  0  0  0  0  0  0  0  0
   -1.3884   -1.2089    2.1449 H   0  0  0  0  0  0  0  0  0  0  0  0
   -0.1629   -0.9762   -0.0054 H   0  0  0  0  0  0  0  0  0  0  0  0
   -0.3198    0.7390    0.0494 H   0  0  0  0  0  0  0  0  0  0  0  0
   -6.4146   -0.7224   -1.7619 H   0  0  0  0  0  0  0  0  0  0  0  0
   -6.6170    1.0192   -1.7513 H   0  0  0  0  0  0  0  0  0  0  0  0
    1.1831   -0.8985    2.1498 H   0  0  0  0  0  0  0  0  0  0  0  0
    0.9482    0.8016    2.2498 H   0  0  0  0  0  0  0  0  0  0  0  0
   -7.9000    0.9095    0.3806 H   0  0  0  0  0  0  0  0  0  0  0  0
   -7.7585   -0.8674    0.3885 H   0  0  0  0  0  0  0  0  0  0  0  0
    1.3043   -2.3793    0.5528 H   0  0  0  0  0  0  0  0  0  0  0  0
    0.5497    2.4223    0.7799 H   0  0  0  0  0  0  0  0  0  0  0  0
    5.8950   -1.8889   -1.2094 H   0  0  0  0  0  0  0  0  0  0  0  0
    5.0405    3.5000   -0.9702 H   0  0  0  0  0  0  0  0  0  0  0  0
   -9.6675   -0.1716   -0.5384 H   0  0  0  0  0  0  0  0  0  0  0  0
    1.0763    4.6691    0.1137 H   0  0  0  0  0  0  0  0  0  0  0  0
    4.8188   -4.0810   -1.1702 H   0  0  0  0  0  0  0  0  0  0  0  0
    3.3260    5.2440   -0.7524 H   0  0  0  0  0  0  0  0  0  0  0  0
  1 24  1  0  0  0  0
  2 18  1  0  0  0  0
  2 19  1  0  0  0  0
  3 15  1  0  0  0  0
  3 50  1  0  0  0  0
  4  7  1  0  0  0  0
  4  8  1  0  0  0  0
  4 11  1  0  0  0  0
  5  9  1  0  0  0  0
  5 10  1  0  0  0  0
  5 13  1  0  0  0  0
  6 14  1  0  0  0  0
  6 16  1  0  0  0  0
  6 17  1  0  0  0  0
  7  9  1  0  0  0  0
  7 28  1  0  0  0  0
  7 29  1  0  0  0  0
  8 10  1  0  0  0  0
  8 30  1  0  0  0  0
  8 31  1  0  0  0  0
  9 32  1  0  0  0  0
  9 33  1  0  0  0  0
 10 34  1  0  0  0  0
 10 35  1  0  0  0  0
 11 12  1  0  0  0  0
 11 36  1  0  0  0  0
 11 37  1  0  0  0  0
 12 14  1  0  0  0  0
 12 38  1  0  0  0  0
 12 39  1  0  0  0  0
 13 15  1  0  0  0  0
 13 40  1  0  0  0  0
 13 41  1  0  0  0  0
 14 42  1  0  0  0  0
 14 43  1  0  0  0  0
 15 44  1  0  0  0  0
 15 45  1  0  0  0  0
 16 18  2  0  0  0  0
 16 20  1  0  0  0  0
 17 19  1  0  0  0  0
 17 21  2  0  0  0  0
 18 22  1  0  0  0  0
 19 23  2  0  0  0  0
 20 24  2  0  0  0  0
 20 46  1  0  0  0  0
 21 25  1  0  0  0  0
 21 47  1  0  0  0  0
 22 26  2  0  0  0  0
 22 48  1  0  0  0  0
 23 27  1  0  0  0  0
 23 49  1  0  0  0  0
 24 26  1  0  0  0  0
 25 27  2  0  0  0  0
 25 51  1  0  0  0  0
 26 52  1  0  0  0  0
 27 53  1  0  0  0  0
M  END
> <PUBCHEM_COMPOUND_CID>
4748

> <PUBCHEM_CONFORMER_RMSD>
0.8

> <PUBCHEM_CONFORMER_DIVERSEORDER>
1
3
61
105
65
25
42
9
100
38
97
21
108
112
35
72
66
45
98
24
49
30
91
103
80
54
67
85
19
37
59
39
87
22
17
50
88
14
83
71
111
7
51
93
41
110
20
104
76
107
47
84
99
69
90
32
102
52
8
96
56
13
57
63
73
62
101
33
68
64
74
60
31
53
29
40
27
5
16
78
86
6
43
46
81
44
106
94
2
4
48
28
109
79
82
26
23
36
92
55
15
10
11
58
70
95
12
75
77
18
34
89

> <PUBCHEM_MMFF94_PARTIAL_CHARGES>
34
1 -0.18
10 0.27
11 0.27
13 0.27
14 0.37
15 0.28
16 0.1
17 0.1
18 0.1
19 0.1
2 -0.2
20 -0.15
21 -0.15
22 -0.15
23 -0.15
24 0.18
25 -0.15
26 -0.15
27 -0.15
3 -0.68
4 -0.81
46 0.15
47 0.15
48 0.15
49 0.15
5 -0.81
50 0.4
51 0.15
52 0.15
53 0.15
6 -0.57
7 0.27
8 0.27
9 0.27

> <PUBCHEM_EFFECTIVE_ROTOR_COUNT>
7.6

> <PUBCHEM_PHARMACOPHORE_FEATURES>
9
1 3 acceptor
1 3 donor
1 4 cation
1 5 cation
1 6 cation
6 16 18 20 22 24 26 rings
6 17 19 21 23 25 27 rings
6 2 6 16 17 18 19 rings
6 4 5 7 8 9 10 rings

> <PUBCHEM_HEAVY_ATOM_COUNT>
27

> <PUBCHEM_ATOM_DEF_STEREO_COUNT>
0

> <PUBCHEM_ATOM_UDEF_STEREO_COUNT>
0

> <PUBCHEM_BOND_DEF_STEREO_COUNT>
0

> <PUBCHEM_BOND_UDEF_STEREO_COUNT>
0

> <PUBCHEM_ISOTOPIC_ATOM_COUNT>
0

> <PUBCHEM_COMPONENT_COUNT>
1

> <PUBCHEM_CACTVS_TAUTO_COUNT>
1

> <PUBCHEM_CONFORMER_ID>
0000128C00000001

> <PUBCHEM_MMFF94_ENERGY>
79.4894

> <PUBCHEM_FEATURE_SELFOVERLAP>
45.702

> <PUBCHEM_SHAPE_FINGERPRINT>
10411042 1 18194402432306266470
10693767 8 18041548244276982574
11135609 127 18263934249859978121
11135609 149 18122086430927777518
11719270 70 18337957792711468608
12107183 9 17973432497945342905
12730499 353 18269547256550346168
13533116 47 18334579036349779841
1361 2 18409450292926877167
13773456 30 18339082558266637394
13911987 19 18197751411764674230
14117953 113 18409722955695741956
15183329 4 18410009957857791953
15483637 11 18121779422191877679
15484559 13 18336538344796081462
15950262 2 15264495061497843694
16989378 47 17460567390717587390
17844677 252 18409724097672102969
17899979 129 18339917104683135996
19311894 1 17763186143260286297
20157964 124 18410856534255250573
20642791 105 17685777926989506712
20645477 70 18412539908053272586
21033648 29 17417249810621855305
21304303 282 16959594442606582608
221357 26 18341896320212669853
22289505 5 18343584031975211064
23522609 53 17749930208460031545
23559900 14 18411419501325283571
25147074 1 17750219439756859833
255183 451 18116426136573153766
3004659 81 18113904887754353179
34797466 226 18343869905588711313
3882209 13 17408262703124632482
44317340 157 18336264531977443553
46194498 28 18342461447566551117
5309563 4 18192708067333350942
6025842 7 18409166589041072254
9658208 31 16988838346385120235

> <PUBCHEM_SHAPE_MULTIPOLES>
540.55
16.96
5.06
1.16
46.31
0.64
0.22
1.4
-6.67
-11.38
-1.13
1
0.12
0.82

> <PUBCHEM_SHAPE_SELFOVERLAP>
1123.15

> <PUBCHEM_SHAPE_VOLUME>
308.9

> <PUBCHEM_COORDINATE_TYPE>
2
5
10

$$$$

