7846971
  -OEChem-06241222483D

 37 38  0     1  0  0  0  0  0999 V2000
    2.9636    1.7416    0.6024 S   0  0  0  0  0  0  0  0  0  0  0  0
   -1.8708    2.1195    0.7110 O   0  0  0  0  0  0  0  0  0  0  0  0
   -1.2917    1.4990   -1.4341 O   0  0  0  0  0  0  0  0  0  0  0  0
   -1.1493   -0.5173    0.9170 O   0  0  0  0  0  0  0  0  0  0  0  0
   -1.8147   -3.0312   -0.1669 O   0  0  0  0  0  0  0  0  0  0  0  0
    1.5184    0.5231   -1.1523 N   0  0  0  0  0  0  0  0  0  0  0  0
   -3.1469   -1.1130   -0.1270 N   0  0  0  0  0  0  0  0  0  0  0  0
   -3.9233   -3.0603   -1.0794 N   0  0  0  0  0  0  0  0  0  0  0  0
    1.1772    2.9688   -1.0948 C   0  0  0  0  0  0  0  0  0  0  0  0
   -0.0904    3.2832   -0.2988 C   0  0  0  0  0  0  0  0  0  0  0  0
    1.8106    1.6786   -0.6408 C   0  0  0  0  0  0  0  0  0  0  0  0
   -2.8968    1.1411    0.7278 C   0  0  2  0  0  0  0  0  0  0  0  0
    3.1309    0.0295    0.4864 C   0  0  0  0  0  0  0  0  0  0  0  0
    2.2748   -0.4469   -0.5110 C   0  0  0  0  0  0  0  0  0  0  0  0
   -1.1322    2.1972   -0.4425 C   0  0  0  0  0  0  0  0  0  0  0  0
   -3.6136    1.2267    2.0658 C   0  0  0  0  0  0  0  0  0  0  0  0
    3.9601   -0.8302    1.2248 C   0  0  0  0  0  0  0  0  0  0  0  0
    2.2496   -1.8333   -0.7768 C   0  0  0  0  0  0  0  0  0  0  0  0
   -2.2788   -0.2354    0.5235 C   0  0  0  0  0  0  0  0  0  0  0  0
    3.9158   -2.1976    0.9419 C   0  0  0  0  0  0  0  0  0  0  0  0
    3.0723   -2.6948   -0.0455 C   0  0  0  0  0  0  0  0  0  0  0  0
   -2.8647   -2.4483   -0.4308 C   0  0  0  0  0  0  0  0  0  0  0  0
    0.9350    2.8805   -2.1615 H   0  0  0  0  0  0  0  0  0  0  0  0
    1.8838    3.8026   -1.0054 H   0  0  0  0  0  0  0  0  0  0  0  0
   -0.5329    4.2222   -0.6475 H   0  0  0  0  0  0  0  0  0  0  0  0
    0.1621    3.3986    0.7622 H   0  0  0  0  0  0  0  0  0  0  0  0
   -3.6107    1.3653   -0.0744 H   0  0  0  0  0  0  0  0  0  0  0  0
   -2.9205    1.0380    2.8935 H   0  0  0  0  0  0  0  0  0  0  0  0
   -4.4264    0.4966    2.1299 H   0  0  0  0  0  0  0  0  0  0  0  0
   -4.0263    2.2296    2.2184 H   0  0  0  0  0  0  0  0  0  0  0  0
    4.6209   -0.4490    1.9973 H   0  0  0  0  0  0  0  0  0  0  0  0
    1.5934   -2.2325   -1.5452 H   0  0  0  0  0  0  0  0  0  0  0  0
    4.5494   -2.8803    1.5020 H   0  0  0  0  0  0  0  0  0  0  0  0
    3.0509   -3.7615   -0.2513 H   0  0  0  0  0  0  0  0  0  0  0  0
   -4.0633   -0.7678   -0.3994 H   0  0  0  0  0  0  0  0  0  0  0  0
   -3.8715   -4.0320   -1.3667 H   0  0  0  0  0  0  0  0  0  0  0  0
   -4.7816   -2.5618   -1.2885 H   0  0  0  0  0  0  0  0  0  0  0  0
  1 11  1  0  0  0  0
  1 13  1  0  0  0  0
  2 12  1  0  0  0  0
  2 15  1  0  0  0  0
  3 15  2  0  0  0  0
  4 19  2  0  0  0  0
  5 22  2  0  0  0  0
  6 11  2  0  0  0  0
  6 14  1  0  0  0  0
  7 19  1  0  0  0  0
  7 22  1  0  0  0  0
  7 35  1  0  0  0  0
  8 22  1  0  0  0  0
  8 36  1  0  0  0  0
  8 37  1  0  0  0  0
  9 10  1  0  0  0  0
  9 11  1  0  0  0  0
  9 23  1  0  0  0  0
  9 24  1  0  0  0  0
 10 15  1  0  0  0  0
 10 25  1  0  0  0  0
 10 26  1  0  0  0  0
 12 16  1  0  0  0  0
 12 19  1  0  0  0  0
 12 27  1  0  0  0  0
 13 14  1  0  0  0  0
 13 17  2  0  0  0  0
 14 18  2  0  0  0  0
 16 28  1  0  0  0  0
 16 29  1  0  0  0  0
 16 30  1  0  0  0  0
 17 20  1  0  0  0  0
 17 31  1  0  0  0  0
 18 21  1  0  0  0  0
 18 32  1  0  0  0  0
 20 21  2  0  0  0  0
 20 33  1  0  0  0  0
 21 34  1  0  0  0  0
M  END
> <PUBCHEM_COMPOUND_CID>
7846971

> <PUBCHEM_CONFORMER_RMSD>
1

> <PUBCHEM_CONFORMER_DIVERSEORDER>
1
205
118
63
410
366
87
259
112
213
361
36
310
399
9
129
312
79
204
347
168
206
44
402
320
32
346
356
72
55
91
243
301
397
286
160
287
241
203
282
77
121
344
41
175
162
81
377
336
331
28
110
43
40
181
323
391
345
270
65
137
61
326
249
66
123
45
209
150
300
362
155
58
273
56
164
14
35
222
393
48
33
280
302
339
18
80
151
414
384
199
93
10
64
59
281
111
15
232
187
295
296
167
113
208
4
31
120
378
415
305
22
265
186
103
386
98
325
12
8
192
233
403
170
144
207
253
69
266
165
74
388
284
292
125
381
156
185
354
147
254
240
53
184
258
19
42
328
182
178
277
189
11
34
76
67
379
195
133
341
23
95
334
73
130
217
389
88
236
127
109
3
308
104
191
17
315
152
214
139
237
275
2
242
412
246
122
322
25
16
62
283
126
360
394
338
99
183
163
288
256
75
100
71
396
353
38
298
46
54
333
392
317
335
86
85
369
244
153
115
226
352
84
124
180
271
117
371
223
78
52
390
224
230
404
196
297
60
257
92
141
411
291
355
37
272
303
382
267
169
24
57
385
387
285
314
363
228
350
365
149
27
218
148
97
116
161
202
128
173
368
398
82
400
255
372
197
210
311
407
50
142
201
146
20
157
49
313
119
264
413
245
227
321
194
159
268
136
221
383
211
342
290
238
380
337
357
70
349
318
278
405
248
89
269
307
96
289
364
329
229
276
166
247
198
408
134
261
239
340
375
370
171
101
83
332
306
373
114
172
316
200
304
131
174
21
190
263
231
108
7
30
324
309
358
212
68
401
215
293
374
154
235
29
343
177
250
216
251
135
376
179
138
406
219
395
94
260
348
143
102
193
409
6
319
5
105
274
234
294
145
262
51
188
176
252
327
158
140
132
279
26
330
107
106
220
351
359
225
367
39
13
47
90
299

> <PUBCHEM_MMFF94_PARTIAL_CHARGES>
28
1 -0.08
10 0.06
11 0.2
12 0.34
13 0.04
14 0.23
15 0.66
17 -0.15
18 -0.15
19 0.57
2 -0.43
20 -0.15
21 -0.15
22 0.69
3 -0.57
31 0.15
32 0.15
33 0.15
34 0.15
35 0.37
36 0.37
37 0.37
4 -0.57
5 -0.57
6 -0.57
7 -0.49
8 -0.8
9 0.18

> <PUBCHEM_EFFECTIVE_ROTOR_COUNT>
8

> <PUBCHEM_PHARMACOPHORE_FEATURES>
8
1 3 acceptor
1 4 acceptor
1 5 acceptor
1 6 acceptor
1 7 donor
1 8 donor
5 1 6 11 13 14 rings
6 13 14 17 18 20 21 rings

> <PUBCHEM_HEAVY_ATOM_COUNT>
22

> <PUBCHEM_ATOM_DEF_STEREO_COUNT>
1

> <PUBCHEM_ATOM_UDEF_STEREO_COUNT>
0

> <PUBCHEM_BOND_DEF_STEREO_COUNT>
0

> <PUBCHEM_BOND_UDEF_STEREO_COUNT>
0

> <PUBCHEM_ISOTOPIC_ATOM_COUNT>
0

> <PUBCHEM_COMPONENT_COUNT>
1

> <PUBCHEM_CACTVS_TAUTO_COUNT>
10

> <PUBCHEM_CONFORMER_ID>
0077BC3B00000001

> <PUBCHEM_MMFF94_ENERGY>
37.5627

> <PUBCHEM_FEATURE_SELFOVERLAP>
40.724

> <PUBCHEM_SHAPE_FINGERPRINT>
11552529 35 18114187444867396802
12403259 327 17531242906733651209
12422481 6 18122873617640665345
12553582 1 18341319080818236670
12633257 1 18188487003185711248
13083527 12 18196108667702949512
13140716 1 18411692214315424707
14081887 123 18337685225348925040
14178342 30 18335419006792385600
14251757 17 17700169623041997255
14251757 5 17760342772089719270
17138139 8 16239841945761971807
17492 89 18409729521567698386
19026451 147 18049737221411450255
19141452 34 18336828714085546305
20442098 301 18340763853369124032
20775530 9 18410858732941227562
21421861 104 18049700955139385811
23184049 29 18412262848123528878
23419403 2 17827677718645878613
257057 1 18340775861744431333
3797600 57 17241885381129601344
392239 28 17536039857154382024
463206 1 17324367307498348527
5283178 26 17464236593683562982
56633871 153 18265889345085565859
7097593 13 18337942433322920353

> <PUBCHEM_SHAPE_MULTIPOLES>
418.18
7.44
4.31
1.35
0.02
0.66
-0.29
4.77
-2.43
-1.3
1.26
-0.49
-0.27
-1.52

> <PUBCHEM_SHAPE_SELFOVERLAP>
870.343

> <PUBCHEM_SHAPE_VOLUME>
237.6

> <PUBCHEM_COORDINATE_TYPE>
2
5
10

$$$$

