22856234
  -OEChem-07051212482D

 20 20  0     1  0  0  0  0  0999 V2000
    4.2690    1.1550    0.0000 O   0  0  0  0  0  0  0  0  0  0  0  0
    6.0010   -0.8450    0.0000 O   0  0  0  0  0  0  0  0  0  0  0  0
    4.2690   -1.8450    0.0000 O   0  0  0  0  0  0  0  0  0  0  0  0
    2.5369   -0.8450    0.0000 O   0  0  0  0  0  0  0  0  0  0  0  0
    2.5369    1.1550    0.0000 O   0  0  0  0  0  0  0  0  0  0  0  0
    6.0010    2.1550    0.0000 O   0  0  0  0  0  0  0  0  0  0  0  0
    5.1350   -0.3450    0.0000 C   0  0  1  0  0  0  0  0  0  0  0  0
    4.2690   -0.8450    0.0000 C   0  0  1  0  0  0  0  0  0  0  0  0
    5.1350    0.6550    0.0000 C   0  0  2  0  0  0  0  0  0  0  0  0
    3.4030   -0.3450    0.0000 C   0  0  1  0  0  0  0  0  0  0  0  0
    3.4030    0.6550    0.0000 C   0  0  0  0  0  0  0  0  0  0  0  0
    6.0010    1.1550    0.0000 C   0  0  0  0  0  0  0  0  0  0  0  0
    5.1350   -0.9650    0.0000 H   0  0  0  0  0  0  0  0  0  0  0  0
    4.8059   -1.1550    0.0000 H   0  0  0  0  0  0  0  0  0  0  0  0
    5.1350    1.2750    0.0000 H   0  0  0  0  0  0  0  0  0  0  0  0
    3.4030   -0.9650    0.0000 H   0  0  0  0  0  0  0  0  0  0  0  0
    6.5380    0.8450    0.0000 H   0  0  0  0  0  0  0  0  0  0  0  0
    3.7320   -2.1550    0.0000 H   0  0  0  0  0  0  0  0  0  0  0  0
    6.0010   -1.4650    0.0000 H   0  0  0  0  0  0  0  0  0  0  0  0
    2.0000   -0.5350    0.0000 H   0  0  0  0  0  0  0  0  0  0  0  0
  1  9  1  0  0  0  0
  1 11  1  0  0  0  0
  7  2  1  1  0  0  0
  2 19  1  0  0  0  0
  8  3  1  6  0  0  0
  3 18  1  0  0  0  0
 10  4  1  6  0  0  0
  4 20  1  0  0  0  0
  5 11  2  0  0  0  0
  6 12  2  0  0  0  0
  7  8  1  0  0  0  0
  7  9  1  0  0  0  0
  7 13  1  0  0  0  0
  8 10  1  0  0  0  0
  8 14  1  0  0  0  0
  9 12  1  1  0  0  0
  9 15  1  0  0  0  0
 10 11  1  0  0  0  0
 10 16  1  0  0  0  0
 12 17  1  0  0  0  0
M  END
> <PUBCHEM_COMPOUND_CID>
22856234

> <PUBCHEM_COMPOUND_CANONICALIZED>
1

> <PUBCHEM_CACTVS_COMPLEXITY>
202

> <PUBCHEM_CACTVS_HBOND_ACCEPTOR>
6

> <PUBCHEM_CACTVS_HBOND_DONOR>
3

> <PUBCHEM_CACTVS_ROTATABLE_BOND>
1

> <PUBCHEM_CACTVS_SUBSKEYS>
AAADccBgOAAAAAAAAAAAAAAAAAAAAAAAAAAkAAAAAAAAAAAAAAAAGgAACAAACBSggAIACAAABgAIAAiQiAIAAAAAAAAAAAFAAAABEBYAAAQCQAAFIAADAAHKTABAAAAAAAAAAAAAAAAAAAAAAAAAAAAAAA==

> <PUBCHEM_IUPAC_OPENEYE_NAME>
(2R,3S,4S,5S)-3,4,5-trihydroxy-6-oxo-tetrahydropyran-2-carbaldehyde

> <PUBCHEM_IUPAC_CAS_NAME>
(2R,3S,4S,5S)-3,4,5-trihydroxy-6-oxo-2-oxanecarboxaldehyde

> <PUBCHEM_IUPAC_NAME>
(2R,3S,4S,5S)-3,4,5-trihydroxy-6-oxooxane-2-carbaldehyde

> <PUBCHEM_IUPAC_SYSTEMATIC_NAME>
(2R,3S,4S,5S)-3,4,5-tris(oxidanyl)-6-oxidanylidene-oxane-2-carbaldehyde

> <PUBCHEM_IUPAC_TRADITIONAL_NAME>
(2R,3S,4S,5S)-3,4,5-trihydroxy-6-keto-tetrahydropyran-2-carbaldehyde

> <PUBCHEM_IUPAC_INCHI>
InChI=1S/C6H8O6/c7-1-2-3(8)4(9)5(10)6(11)12-2/h1-5,8-10H/t2-,3+,4-,5-/m0/s1

> <PUBCHEM_IUPAC_INCHIKEY>
JBQGSJDKHSBLDG-QTBDOELSSA-N

> <PUBCHEM_XLOGP3_AA>
-1.8

> <PUBCHEM_EXACT_MASS>
176.032088

> <PUBCHEM_MOLECULAR_FORMULA>
C6H8O6

> <PUBCHEM_MOLECULAR_WEIGHT>
176.12412

> <PUBCHEM_OPENEYE_CAN_SMILES>
C(=O)C1C(C(C(C(=O)O1)O)O)O

> <PUBCHEM_OPENEYE_ISO_SMILES>
C(=O)[C@H]1[C@H]([C@@H]([C@@H](C(=O)O1)O)O)O

> <PUBCHEM_CACTVS_TPSA>
104

> <PUBCHEM_MONOISOTOPIC_WEIGHT>
176.032088

> <PUBCHEM_TOTAL_CHARGE>
0

> <PUBCHEM_HEAVY_ATOM_COUNT>
12

> <PUBCHEM_ATOM_DEF_STEREO_COUNT>
4

> <PUBCHEM_ATOM_UDEF_STEREO_COUNT>
0

> <PUBCHEM_BOND_DEF_STEREO_COUNT>
0

> <PUBCHEM_BOND_UDEF_STEREO_COUNT>
0

> <PUBCHEM_ISOTOPIC_ATOM_COUNT>
0

> <PUBCHEM_COMPONENT_COUNT>
1

> <PUBCHEM_CACTVS_TAUTO_COUNT>
15

> <PUBCHEM_COORDINATE_TYPE>
1
5
255

> <PUBCHEM_BONDANNOTATIONS>
7  2  5
8  3  6
10  4  6
9  12  5

$$$$

