9147
  -OEChem-06261203273D

 25 28  0     0  0  0  0  0  0999 V2000
    0.6749   -0.0319    0.0008 C   0  0  0  0  0  0  0  0  0  0  0  0
   -0.6750   -0.0318    0.0007 C   0  0  0  0  0  0  0  0  0  0  0  0
    0.0000   -2.3000    0.0002 C   0  0  0  0  0  0  0  0  0  0  0  0
    1.1586   -1.3249    0.0004 C   0  0  0  0  0  0  0  0  0  0  0  0
   -1.1587   -1.3248    0.0004 C   0  0  0  0  0  0  0  0  0  0  0  0
    1.4362    1.1325    0.0003 C   0  0  0  0  0  0  0  0  0  0  0  0
   -1.4362    1.1326    0.0003 C   0  0  0  0  0  0  0  0  0  0  0  0
    2.5241   -1.5196   -0.0004 C   0  0  0  0  0  0  0  0  0  0  0  0
   -2.5241   -1.5197   -0.0004 C   0  0  0  0  0  0  0  0  0  0  0  0
    0.7092    2.3512    0.0000 C   0  0  0  0  0  0  0  0  0  0  0  0
   -0.7090    2.3513    0.0001 C   0  0  0  0  0  0  0  0  0  0  0  0
    2.8304    0.9276   -0.0003 C   0  0  0  0  0  0  0  0  0  0  0  0
   -2.8303    0.9277   -0.0005 C   0  0  0  0  0  0  0  0  0  0  0  0
    3.3588   -0.3852   -0.0008 C   0  0  0  0  0  0  0  0  0  0  0  0
   -3.3588   -0.3851   -0.0008 C   0  0  0  0  0  0  0  0  0  0  0  0
   -0.0002   -2.9102   -0.9070 H   0  0  0  0  0  0  0  0  0  0  0  0
    0.0000   -2.9106    0.9072 H   0  0  0  0  0  0  0  0  0  0  0  0
    2.9512   -2.5164   -0.0010 H   0  0  0  0  0  0  0  0  0  0  0  0
   -2.9513   -2.5164   -0.0008 H   0  0  0  0  0  0  0  0  0  0  0  0
    1.2394    3.3007   -0.0005 H   0  0  0  0  0  0  0  0  0  0  0  0
   -1.2391    3.3008   -0.0004 H   0  0  0  0  0  0  0  0  0  0  0  0
    3.5102    1.7758   -0.0008 H   0  0  0  0  0  0  0  0  0  0  0  0
   -3.5101    1.7759   -0.0011 H   0  0  0  0  0  0  0  0  0  0  0  0
    4.4380   -0.5202   -0.0015 H   0  0  0  0  0  0  0  0  0  0  0  0
   -4.4380   -0.5201   -0.0015 H   0  0  0  0  0  0  0  0  0  0  0  0
  1  2  1  0  0  0  0
  1  4  1  0  0  0  0
  1  6  2  0  0  0  0
  2  5  1  0  0  0  0
  2  7  2  0  0  0  0
  3  4  1  0  0  0  0
  3  5  1  0  0  0  0
  3 16  1  0  0  0  0
  3 17  1  0  0  0  0
  4  8  2  0  0  0  0
  5  9  2  0  0  0  0
  6 10  1  0  0  0  0
  6 12  1  0  0  0  0
  7 11  1  0  0  0  0
  7 13  1  0  0  0  0
  8 14  1  0  0  0  0
  8 18  1  0  0  0  0
  9 15  1  0  0  0  0
  9 19  1  0  0  0  0
 10 11  2  0  0  0  0
 10 20  1  0  0  0  0
 11 21  1  0  0  0  0
 12 14  2  0  0  0  0
 12 22  1  0  0  0  0
 13 15  2  0  0  0  0
 13 23  1  0  0  0  0
 14 24  1  0  0  0  0
 15 25  1  0  0  0  0
M  END
> <PUBCHEM_COMPOUND_CID>
9147

> <PUBCHEM_CONFORMER_RMSD>
0.4

> <PUBCHEM_CONFORMER_DIVERSEORDER>
1

> <PUBCHEM_MMFF94_PARTIAL_CHARGES>
19
10 -0.15
11 -0.15
12 -0.15
13 -0.15
14 -0.15
15 -0.15
18 0.15
19 0.15
20 0.15
21 0.15
22 0.15
23 0.15
24 0.15
25 0.15
3 0.29
4 -0.14
5 -0.14
8 -0.15
9 -0.15

> <PUBCHEM_EFFECTIVE_ROTOR_COUNT>
0.2

> <PUBCHEM_PHARMACOPHORE_FEATURES>
4
5 1 2 3 4 5 rings
6 1 2 6 7 10 11 rings
6 1 4 6 8 12 14 rings
6 2 5 7 9 13 15 rings

> <PUBCHEM_HEAVY_ATOM_COUNT>
15

> <PUBCHEM_ATOM_DEF_STEREO_COUNT>
0

> <PUBCHEM_ATOM_UDEF_STEREO_COUNT>
0

> <PUBCHEM_BOND_DEF_STEREO_COUNT>
0

> <PUBCHEM_BOND_UDEF_STEREO_COUNT>
0

> <PUBCHEM_ISOTOPIC_ATOM_COUNT>
0

> <PUBCHEM_COMPONENT_COUNT>
1

> <PUBCHEM_CACTVS_TAUTO_COUNT>
1

> <PUBCHEM_CONFORMER_ID>
000023BB00000001

> <PUBCHEM_MMFF94_ENERGY>
61.0076

> <PUBCHEM_FEATURE_SELFOVERLAP>
20.654

> <PUBCHEM_SHAPE_FINGERPRINT>
10608611 8 18410579487004895109
10967382 1 18410855417194378055
11132069 177 18408891758230997640
11471102 20 18411142433227422975
12032990 46 18410848867353680739
12382932 28 18409452487696941440
12423570 1 14816380811814555094
13140716 1 18410575131918275651
14614273 12 18057048123268592397
15196674 1 18410575084663091908
15536298 74 18261392226500079856
16945 1 18410573993741431204
193761 8 17690279730207671623
20510252 161 18260831552753043664
20588541 1 18410571790423162892
21267235 1 18410846668330542119
21501502 16 18410572894229757954
22721475 48 18410852161593388900
22802520 49 17826500356335407182
2334 1 18410856529580306247
23402539 116 18334870427952238174
23419403 2 16023184472035033075
23463225 33 18413108372559922802
23559900 14 18262800787385522126
238 59 15756578633596864693
25 1 18055370269073284485
2748010 2 18410576184174706815
335352 9 18050287269113367821
528886 8 18410016541351443194
53812653 166 18334580096742355144
7364860 26 18191023391822491928
8809292 202 18272082799104833083

> <PUBCHEM_SHAPE_MULTIPOLES>
308.69
4.62
2.55
0.62
0
0.44
0
-0.65
0
0
0
0
0
0

> <PUBCHEM_SHAPE_SELFOVERLAP>
727.368

> <PUBCHEM_SHAPE_VOLUME>
141.2

> <PUBCHEM_COORDINATE_TYPE>
2
5
10

$$$$

