160529
  -OEChem-07051213002D

 65 66  0     0  0  0  0  0  0999 V2000
    4.3117   -3.3123    0.0000 O   0  0  0  0  0  0  0  0  0  0  0  0
   10.3469    1.7519    0.0000 O   0  0  0  0  0  0  0  0  0  0  0  0
    6.8828    1.7519    0.0000 O   0  0  0  0  0  0  0  0  0  0  0  0
    4.9132    0.0993    0.0000 O   0  0  0  0  0  0  0  0  0  0  0  0
    8.6148   -1.2481    0.0000 O   0  0  0  0  0  0  0  0  0  0  0  0
    7.5668   -2.1274    0.0000 O   0  0  0  0  0  0  0  0  0  0  0  0
    7.7488    3.2519    0.0000 O   0  0  0  0  0  0  0  0  0  0  0  0
    3.2856   -0.4932    0.0000 O   0  0  0  0  0  0  0  0  0  0  0  0
    6.8828   -0.2481    0.0000 C   0  0  0  0  0  0  0  0  0  0  0  0
    7.7488    0.2519    0.0000 C   0  0  0  0  0  0  0  0  0  0  0  0
    6.2401   -1.0142    0.0000 C   0  0  0  0  0  0  0  0  0  0  0  0
    8.6148    1.7519    0.0000 C   0  0  0  0  0  0  0  0  0  0  0  0
    4.6124   -1.6066    0.0000 C   0  0  0  0  0  0  0  0  0  0  0  0
    7.7488    1.2519    0.0000 C   0  0  0  0  0  0  0  0  0  0  0  0
    5.2552   -0.8405    0.0000 C   0  0  0  0  0  0  0  0  0  0  0  0
    6.5820   -1.9538    0.0000 C   0  0  0  0  0  0  0  0  0  0  0  0
    8.6148   -0.2481    0.0000 C   0  0  0  0  0  0  0  0  0  0  0  0
    5.9392   -2.7198    0.0000 C   0  0  0  0  0  0  0  0  0  0  0  0
    9.4808    0.2519    0.0000 C   0  0  0  0  0  0  0  0  0  0  0  0
    9.4808    1.2519    0.0000 C   0  0  0  0  0  0  0  0  0  0  0  0
    4.9545   -2.5463    0.0000 C   0  0  0  0  0  0  0  0  0  0  0  0
    9.4808    3.2519    0.0000 C   0  0  0  0  0  0  0  0  0  0  0  0
    2.9848   -2.1990    0.0000 C   0  0  0  0  0  0  0  0  0  0  0  0
    8.6148    2.7519    0.0000 C   0  0  0  0  0  0  0  0  0  0  0  0
    3.6276   -1.4329    0.0000 C   0  0  0  0  0  0  0  0  0  0  0  0
   10.3469   -0.2481    0.0000 C   0  0  0  0  0  0  0  0  0  0  0  0
    6.2812   -3.6595    0.0000 C   0  0  0  0  0  0  0  0  0  0  0  0
    2.0000   -2.0253    0.0000 C   0  0  0  0  0  0  0  0  0  0  0  0
    3.3269   -3.1387    0.0000 C   0  0  0  0  0  0  0  0  0  0  0  0
    9.4808    4.2519    0.0000 C   0  0  0  0  0  0  0  0  0  0  0  0
   10.3469    2.7519    0.0000 C   0  0  0  0  0  0  0  0  0  0  0  0
    4.6536   -4.2519    0.0000 C   0  0  0  0  0  0  0  0  0  0  0  0
   11.2129    1.2519    0.0000 C   0  0  0  0  0  0  0  0  0  0  0  0
    6.8108    0.3677    0.0000 H   0  0  0  0  0  0  0  0  0  0  0  0
    7.2813   -0.7230    0.0000 H   0  0  0  0  0  0  0  0  0  0  0  0
   10.0178    3.5619    0.0000 H   0  0  0  0  0  0  0  0  0  0  0  0
    2.5863   -2.6739    0.0000 H   0  0  0  0  0  0  0  0  0  0  0  0
   10.0369   -0.7850    0.0000 H   0  0  0  0  0  0  0  0  0  0  0  0
   10.8838   -0.5581    0.0000 H   0  0  0  0  0  0  0  0  0  0  0  0
   10.6569    0.2889    0.0000 H   0  0  0  0  0  0  0  0  0  0  0  0
    5.6986   -3.8716    0.0000 H   0  0  0  0  0  0  0  0  0  0  0  0
    6.4933   -4.2422    0.0000 H   0  0  0  0  0  0  0  0  0  0  0  0
    6.8638   -3.4475    0.0000 H   0  0  0  0  0  0  0  0  0  0  0  0
    2.1077   -1.4147    0.0000 H   0  0  0  0  0  0  0  0  0  0  0  0
    1.3894   -1.9176    0.0000 H   0  0  0  0  0  0  0  0  0  0  0  0
    1.8923   -2.6359    0.0000 H   0  0  0  0  0  0  0  0  0  0  0  0
    2.7443   -3.3507    0.0000 H   0  0  0  0  0  0  0  0  0  0  0  0
    3.5389   -3.7213    0.0000 H   0  0  0  0  0  0  0  0  0  0  0  0
    3.9095   -2.9266    0.0000 H   0  0  0  0  0  0  0  0  0  0  0  0
   10.1009    4.2519    0.0000 H   0  0  0  0  0  0  0  0  0  0  0  0
    9.4808    4.8719    0.0000 H   0  0  0  0  0  0  0  0  0  0  0  0
    8.8608    4.2519    0.0000 H   0  0  0  0  0  0  0  0  0  0  0  0
   10.0369    2.2150    0.0000 H   0  0  0  0  0  0  0  0  0  0  0  0
   10.8838    2.4419    0.0000 H   0  0  0  0  0  0  0  0  0  0  0  0
   10.6569    3.2889    0.0000 H   0  0  0  0  0  0  0  0  0  0  0  0
    5.3117    0.5742    0.0000 H   0  0  0  0  0  0  0  0  0  0  0  0
    6.3458    1.4419    0.0000 H   0  0  0  0  0  0  0  0  0  0  0  0
    7.9653   -1.6525    0.0000 H   0  0  0  0  0  0  0  0  0  0  0  0
    9.1518   -1.5581    0.0000 H   0  0  0  0  0  0  0  0  0  0  0  0
    4.0710   -4.4640    0.0000 H   0  0  0  0  0  0  0  0  0  0  0  0
    4.8657   -4.8346    0.0000 H   0  0  0  0  0  0  0  0  0  0  0  0
    5.2363   -4.0399    0.0000 H   0  0  0  0  0  0  0  0  0  0  0  0
   10.9029    0.7150    0.0000 H   0  0  0  0  0  0  0  0  0  0  0  0
   11.7498    0.9419    0.0000 H   0  0  0  0  0  0  0  0  0  0  0  0
   11.5229    1.7889    0.0000 H   0  0  0  0  0  0  0  0  0  0  0  0
  1 21  1  0  0  0  0
  1 32  1  0  0  0  0
  2 20  1  0  0  0  0
  2 33  1  0  0  0  0
  3 14  1  0  0  0  0
  3 57  1  0  0  0  0
  4 15  1  0  0  0  0
  4 56  1  0  0  0  0
  5 17  1  0  0  0  0
  5 59  1  0  0  0  0
  6 16  1  0  0  0  0
  6 58  1  0  0  0  0
  7 24  2  0  0  0  0
  8 25  2  0  0  0  0
  9 10  1  0  0  0  0
  9 11  1  0  0  0  0
  9 34  1  0  0  0  0
  9 35  1  0  0  0  0
 10 14  2  0  0  0  0
 10 17  1  0  0  0  0
 11 15  2  0  0  0  0
 11 16  1  0  0  0  0
 12 14  1  0  0  0  0
 12 20  2  0  0  0  0
 12 24  1  0  0  0  0
 13 15  1  0  0  0  0
 13 21  2  0  0  0  0
 13 25  1  0  0  0  0
 16 18  2  0  0  0  0
 17 19  2  0  0  0  0
 18 21  1  0  0  0  0
 18 27  1  0  0  0  0
 19 20  1  0  0  0  0
 19 26  1  0  0  0  0
 22 24  1  0  0  0  0
 22 30  1  0  0  0  0
 22 31  1  0  0  0  0
 22 36  1  0  0  0  0
 23 25  1  0  0  0  0
 23 28  1  0  0  0  0
 23 29  1  0  0  0  0
 23 37  1  0  0  0  0
 26 38  1  0  0  0  0
 26 39  1  0  0  0  0
 26 40  1  0  0  0  0
 27 41  1  0  0  0  0
 27 42  1  0  0  0  0
 27 43  1  0  0  0  0
 28 44  1  0  0  0  0
 28 45  1  0  0  0  0
 28 46  1  0  0  0  0
 29 47  1  0  0  0  0
 29 48  1  0  0  0  0
 29 49  1  0  0  0  0
 30 50  1  0  0  0  0
 30 51  1  0  0  0  0
 30 52  1  0  0  0  0
 31 53  1  0  0  0  0
 31 54  1  0  0  0  0
 31 55  1  0  0  0  0
 32 60  1  0  0  0  0
 32 61  1  0  0  0  0
 32 62  1  0  0  0  0
 33 63  1  0  0  0  0
 33 64  1  0  0  0  0
 33 65  1  0  0  0  0
M  END
> <PUBCHEM_COMPOUND_CID>
160529

> <PUBCHEM_COMPOUND_CANONICALIZED>
1

> <PUBCHEM_CACTVS_COMPLEXITY>
623

> <PUBCHEM_CACTVS_HBOND_ACCEPTOR>
8

> <PUBCHEM_CACTVS_HBOND_DONOR>
4

> <PUBCHEM_CACTVS_ROTATABLE_BOND>
8

> <PUBCHEM_CACTVS_SUBSKEYS>
AAADcfB4PAAAAAAAAAAAAAAAAAAAAAAAAAAwYAAAAAAAAAABQAAAGgAACAAADQSAmAICBoAABgCIAoBQAAACCAAkIAAAiAEECMgMJzaGNBqAcWAl4BUIuQeI7OzOIAACCAAIAABAAAQQABAAAAAAAAAAAA==

> <PUBCHEM_IUPAC_OPENEYE_NAME>
1-[3-[[2,6-dihydroxy-4-methoxy-3-methyl-5-(2-methylpropanoyl)phenyl]methyl]-2,4-dihydroxy-6-methoxy-5-methyl-phenyl]-2-methyl-propan-1-one

> <PUBCHEM_IUPAC_CAS_NAME>
1-[3-[[2,6-dihydroxy-4-methoxy-3-methyl-5-(2-methyl-1-oxopropyl)phenyl]methyl]-2,4-dihydroxy-6-methoxy-5-methylphenyl]-2-methyl-1-propanone

> <PUBCHEM_IUPAC_NAME>
1-[3-[[2,6-dihydroxy-4-methoxy-3-methyl-5-(2-methylpropanoyl)phenyl]methyl]-2,4-dihydroxy-6-methoxy-5-methylphenyl]-2-methylpropan-1-one

> <PUBCHEM_IUPAC_SYSTEMATIC_NAME>
1-[2-methoxy-5-[[4-methoxy-3-methyl-5-(2-methylpropanoyl)-2,6-bis(oxidanyl)phenyl]methyl]-3-methyl-4,6-bis(oxidanyl)phenyl]-2-methyl-propan-1-one

> <PUBCHEM_IUPAC_TRADITIONAL_NAME>
1-[3-(2,6-dihydroxy-3-isobutyryl-4-methoxy-5-methyl-benzyl)-2,4-dihydroxy-6-methoxy-5-methyl-phenyl]-2-methyl-propan-1-one

> <PUBCHEM_IUPAC_INCHI>
InChI=1S/C25H32O8/c1-10(2)18(26)16-22(30)14(20(28)12(5)24(16)32-7)9-15-21(29)13(6)25(33-8)17(23(15)31)19(27)11(3)4/h10-11,28-31H,9H2,1-8H3

> <PUBCHEM_IUPAC_INCHIKEY>
KPKGKOASFCAMGD-UHFFFAOYSA-N

> <PUBCHEM_XLOGP3_AA>
5.6

> <PUBCHEM_EXACT_MASS>
460.209718

> <PUBCHEM_MOLECULAR_FORMULA>
C25H32O8

> <PUBCHEM_MOLECULAR_WEIGHT>
460.51678

> <PUBCHEM_OPENEYE_CAN_SMILES>
CC1=C(C(=C(C(=C1OC)C(=O)C(C)C)O)CC2=C(C(=C(C(=C2O)C)OC)C(=O)C(C)C)O)O

> <PUBCHEM_OPENEYE_ISO_SMILES>
CC1=C(C(=C(C(=C1OC)C(=O)C(C)C)O)CC2=C(C(=C(C(=C2O)C)OC)C(=O)C(C)C)O)O

> <PUBCHEM_CACTVS_TPSA>
134

> <PUBCHEM_MONOISOTOPIC_WEIGHT>
460.209718

> <PUBCHEM_TOTAL_CHARGE>
0

> <PUBCHEM_HEAVY_ATOM_COUNT>
33

> <PUBCHEM_ATOM_DEF_STEREO_COUNT>
0

> <PUBCHEM_ATOM_UDEF_STEREO_COUNT>
0

> <PUBCHEM_BOND_DEF_STEREO_COUNT>
0

> <PUBCHEM_BOND_UDEF_STEREO_COUNT>
0

> <PUBCHEM_ISOTOPIC_ATOM_COUNT>
0

> <PUBCHEM_COMPONENT_COUNT>
1

> <PUBCHEM_CACTVS_TAUTO_COUNT>
231

> <PUBCHEM_COORDINATE_TYPE>
1
5
255

> <PUBCHEM_BONDANNOTATIONS>
10  14  8
10  17  8
11  15  8
11  16  8
12  14  8
12  20  8
13  15  8
13  21  8
16  18  8
17  19  8
18  21  8
19  20  8

$$$$

