5128
  -OEChem-06261200323D

 15 15  0     0  0  0  0  0  0999 V2000
    2.6497   -1.1814    0.0002 I   0  0  0  0  0  0  0  0  0  0  0  0
    0.3402    0.8382   -0.0001 C   0  0  0  0  0  0  0  0  0  0  0  0
    0.6654   -0.5182   -0.0001 C   0  0  0  0  0  0  0  0  0  0  0  0
   -0.9971    1.2348    0.0001 C   0  0  0  0  0  0  0  0  0  0  0  0
    1.3817    1.9110   -0.0001 C   0  0  0  0  0  0  0  0  0  0  0  0
   -0.3467   -1.4780   -0.0002 C   0  0  0  0  0  0  0  0  0  0  0  0
   -2.0093    0.2750    0.0002 C   0  0  0  0  0  0  0  0  0  0  0  0
   -1.6840   -1.0814    0.0000 C   0  0  0  0  0  0  0  0  0  0  0  0
   -1.2714    2.2864    0.0002 H   0  0  0  0  0  0  0  0  0  0  0  0
    2.0066    1.8482    0.8967 H   0  0  0  0  0  0  0  0  0  0  0  0
    2.0071    1.8478   -0.8966 H   0  0  0  0  0  0  0  0  0  0  0  0
    0.9336    2.9114   -0.0004 H   0  0  0  0  0  0  0  0  0  0  0  0
   -0.1189   -2.5410   -0.0003 H   0  0  0  0  0  0  0  0  0  0  0  0
   -3.0506    0.5836    0.0004 H   0  0  0  0  0  0  0  0  0  0  0  0
   -2.4722   -1.8285    0.0001 H   0  0  0  0  0  0  0  0  0  0  0  0
  1  3  1  0  0  0  0
  2  3  1  0  0  0  0
  2  4  2  0  0  0  0
  2  5  1  0  0  0  0
  3  6  2  0  0  0  0
  4  7  1  0  0  0  0
  4  9  1  0  0  0  0
  5 10  1  0  0  0  0
  5 11  1  0  0  0  0
  5 12  1  0  0  0  0
  6  8  1  0  0  0  0
  6 13  1  0  0  0  0
  7  8  2  0  0  0  0
  7 14  1  0  0  0  0
  8 15  1  0  0  0  0
M  END
> <PUBCHEM_COMPOUND_CID>
5128

> <PUBCHEM_CONFORMER_RMSD>
0.4

> <PUBCHEM_CONFORMER_DIVERSEORDER>
1

> <PUBCHEM_MMFF94_PARTIAL_CHARGES>
12
1 -0.08
13 0.15
14 0.15
15 0.15
2 -0.14
3 0.08
4 -0.15
5 0.14
6 -0.15
7 -0.15
8 -0.15
9 0.15

> <PUBCHEM_EFFECTIVE_ROTOR_COUNT>
0

> <PUBCHEM_PHARMACOPHORE_FEATURES>
2
1 1 hydrophobe
6 2 3 4 6 7 8 rings

> <PUBCHEM_HEAVY_ATOM_COUNT>
8

> <PUBCHEM_ATOM_DEF_STEREO_COUNT>
0

> <PUBCHEM_ATOM_UDEF_STEREO_COUNT>
0

> <PUBCHEM_BOND_DEF_STEREO_COUNT>
0

> <PUBCHEM_BOND_UDEF_STEREO_COUNT>
0

> <PUBCHEM_ISOTOPIC_ATOM_COUNT>
0

> <PUBCHEM_COMPONENT_COUNT>
1

> <PUBCHEM_CACTVS_TAUTO_COUNT>
1

> <PUBCHEM_CONFORMER_ID>
0000140800000001

> <PUBCHEM_MMFF94_ENERGY>
20.3868

> <PUBCHEM_FEATURE_SELFOVERLAP>
10.148

> <PUBCHEM_SHAPE_FINGERPRINT>
10857977 72 18337403741571393530
14128692 85 18408600349174389750
16714656 1 18194118744740500590
16945 1 18338797917672195335
18185500 45 18268711790948425490
21040471 1 18194683653140973605
23552423 10 18198902522295912118
241688 4 18412547625708596209
2748010 2 18339927008876772143
369184 2 18268715094073785690
5084963 1 18187369839200234835

> <PUBCHEM_SHAPE_MULTIPOLES>
176.57
3.17
1.99
0.66
1.61
0.67
0
-0.91
0
0.2
0
0.11
-0.03
0

> <PUBCHEM_SHAPE_SELFOVERLAP>
340.975

> <PUBCHEM_SHAPE_VOLUME>
111.7

> <PUBCHEM_COORDINATE_TYPE>
2
5
10

$$$$

