7348
  -OEChem-06261202013D

 48 47  0     0  0  0  0  0  0999 V2000
    3.6525    1.1696   -0.9960 O   0  0  0  0  0  0  0  0  0  0  0  0
    6.0102    0.5306    1.6240 O   0  0  0  0  0  0  0  0  0  0  0  0
    7.8854    1.0733    0.4678 O   0  0  0  0  0  0  0  0  0  0  0  0
    4.8430   -0.7164   -0.3599 N   0  0  0  0  0  0  0  0  0  0  0  0
   -2.7248   -0.3705    0.1933 C   0  0  0  0  0  0  0  0  0  0  0  0
   -4.0023    0.4060   -0.1411 C   0  0  0  0  0  0  0  0  0  0  0  0
   -1.4503    0.3278   -0.2874 C   0  0  0  0  0  0  0  0  0  0  0  0
   -5.2813   -0.3254    0.2728 C   0  0  0  0  0  0  0  0  0  0  0  0
   -0.1763   -0.4762   -0.0065 C   0  0  0  0  0  0  0  0  0  0  0  0
   -6.5278    0.4564   -0.1478 C   0  0  0  0  0  0  0  0  0  0  0  0
    1.1353    0.1819   -0.4455 C   0  0  0  0  0  0  0  0  0  0  0  0
   -7.8069   -0.2571    0.2934 C   0  0  0  0  0  0  0  0  0  0  0  0
    2.3671   -0.6917   -0.1987 C   0  0  0  0  0  0  0  0  0  0  0  0
   -9.0513    0.5403   -0.0967 C   0  0  0  0  0  0  0  0  0  0  0  0
    3.6677    0.0166   -0.5572 C   0  0  0  0  0  0  0  0  0  0  0  0
  -10.3234   -0.1495    0.3696 C   0  0  0  0  0  0  0  0  0  0  0  0
    6.1622   -0.1734   -0.6595 C   0  0  0  0  0  0  0  0  0  0  0  0
    4.8369   -2.0813    0.1614 C   0  0  0  0  0  0  0  0  0  0  0  0
    6.7840    0.5390    0.5139 C   0  0  0  0  0  0  0  0  0  0  0  0
   -2.6683   -0.5239    1.2779 H   0  0  0  0  0  0  0  0  0  0  0  0
   -2.7812   -1.3657   -0.2650 H   0  0  0  0  0  0  0  0  0  0  0  0
   -3.9672    1.3861    0.3503 H   0  0  0  0  0  0  0  0  0  0  0  0
   -4.0305    0.5942   -1.2217 H   0  0  0  0  0  0  0  0  0  0  0  0
   -1.5226    0.5128   -1.3662 H   0  0  0  0  0  0  0  0  0  0  0  0
   -1.3711    1.3082    0.1977 H   0  0  0  0  0  0  0  0  0  0  0  0
   -5.3009   -1.3206   -0.1874 H   0  0  0  0  0  0  0  0  0  0  0  0
   -5.2818   -0.4711    1.3598 H   0  0  0  0  0  0  0  0  0  0  0  0
   -0.1207   -0.6830    1.0698 H   0  0  0  0  0  0  0  0  0  0  0  0
   -0.2627   -1.4507   -0.5040 H   0  0  0  0  0  0  0  0  0  0  0  0
   -6.4965    1.4597    0.2945 H   0  0  0  0  0  0  0  0  0  0  0  0
   -6.5340    0.5831   -1.2372 H   0  0  0  0  0  0  0  0  0  0  0  0
    1.2463    1.1353    0.0863 H   0  0  0  0  0  0  0  0  0  0  0  0
    1.0747    0.4282   -1.5131 H   0  0  0  0  0  0  0  0  0  0  0  0
   -7.7900   -0.4004    1.3807 H   0  0  0  0  0  0  0  0  0  0  0  0
   -7.8492   -1.2535   -0.1630 H   0  0  0  0  0  0  0  0  0  0  0  0
    2.2825   -1.6063   -0.7959 H   0  0  0  0  0  0  0  0  0  0  0  0
    2.3958   -0.9509    0.8656 H   0  0  0  0  0  0  0  0  0  0  0  0
   -9.0053    1.5428    0.3445 H   0  0  0  0  0  0  0  0  0  0  0  0
   -9.0868    0.6659   -1.1850 H   0  0  0  0  0  0  0  0  0  0  0  0
  -10.3337   -0.2595    1.4586 H   0  0  0  0  0  0  0  0  0  0  0  0
  -11.2007    0.4367    0.0791 H   0  0  0  0  0  0  0  0  0  0  0  0
  -10.4164   -1.1445   -0.0774 H   0  0  0  0  0  0  0  0  0  0  0  0
    6.0609    0.5586   -1.4675 H   0  0  0  0  0  0  0  0  0  0  0  0
    6.8219   -0.9838   -0.9847 H   0  0  0  0  0  0  0  0  0  0  0  0
    5.1751   -2.7503   -0.6362 H   0  0  0  0  0  0  0  0  0  0  0  0
    3.8670   -2.4304    0.5113 H   0  0  0  0  0  0  0  0  0  0  0  0
    5.5393   -2.1450    0.9983 H   0  0  0  0  0  0  0  0  0  0  0  0
    6.4368    0.9990    2.3729 H   0  0  0  0  0  0  0  0  0  0  0  0
  1 15  2  0  0  0  0
  2 19  1  0  0  0  0
  2 48  1  0  0  0  0
  3 19  2  0  0  0  0
  4 15  1  0  0  0  0
  4 17  1  0  0  0  0
  4 18  1  0  0  0  0
  5  6  1  0  0  0  0
  5  7  1  0  0  0  0
  5 20  1  0  0  0  0
  5 21  1  0  0  0  0
  6  8  1  0  0  0  0
  6 22  1  0  0  0  0
  6 23  1  0  0  0  0
  7  9  1  0  0  0  0
  7 24  1  0  0  0  0
  7 25  1  0  0  0  0
  8 10  1  0  0  0  0
  8 26  1  0  0  0  0
  8 27  1  0  0  0  0
  9 11  1  0  0  0  0
  9 28  1  0  0  0  0
  9 29  1  0  0  0  0
 10 12  1  0  0  0  0
 10 30  1  0  0  0  0
 10 31  1  0  0  0  0
 11 13  1  0  0  0  0
 11 32  1  0  0  0  0
 11 33  1  0  0  0  0
 12 14  1  0  0  0  0
 12 34  1  0  0  0  0
 12 35  1  0  0  0  0
 13 15  1  0  0  0  0
 13 36  1  0  0  0  0
 13 37  1  0  0  0  0
 14 16  1  0  0  0  0
 14 38  1  0  0  0  0
 14 39  1  0  0  0  0
 16 40  1  0  0  0  0
 16 41  1  0  0  0  0
 16 42  1  0  0  0  0
 17 19  1  0  0  0  0
 17 43  1  0  0  0  0
 17 44  1  0  0  0  0
 18 45  1  0  0  0  0
 18 46  1  0  0  0  0
 18 47  1  0  0  0  0
M  END
> <PUBCHEM_COMPOUND_CID>
7348

> <PUBCHEM_CONFORMER_RMSD>
1.4

> <PUBCHEM_CONFORMER_DIVERSEORDER>
1
28
8
20
41
35
17
5
16
22
37
27
10
39
3
47
48
46
19
45
31
26
7
18
38
49
14
23
13
44
42
15
11
9
12
36
29
33
40
24
43
34
25
6
4
21
30
32
2

> <PUBCHEM_MMFF94_PARTIAL_CHARGES>
10
1 -0.57
13 0.06
15 0.57
17 0.36
18 0.3
19 0.66
2 -0.65
3 -0.57
4 -0.66
48 0.5

> <PUBCHEM_EFFECTIVE_ROTOR_COUNT>
13

> <PUBCHEM_PHARMACOPHORE_FEATURES>
5
1 1 acceptor
1 16 hydrophobe
1 2 acceptor
1 3 acceptor
3 2 3 19 anion

> <PUBCHEM_HEAVY_ATOM_COUNT>
19

> <PUBCHEM_ATOM_DEF_STEREO_COUNT>
0

> <PUBCHEM_ATOM_UDEF_STEREO_COUNT>
0

> <PUBCHEM_BOND_DEF_STEREO_COUNT>
0

> <PUBCHEM_BOND_UDEF_STEREO_COUNT>
0

> <PUBCHEM_ISOTOPIC_ATOM_COUNT>
0

> <PUBCHEM_COMPONENT_COUNT>
1

> <PUBCHEM_CACTVS_TAUTO_COUNT>
1

> <PUBCHEM_CONFORMER_ID>
00001CB400000001

> <PUBCHEM_MMFF94_ENERGY>
15.5257

> <PUBCHEM_FEATURE_SELFOVERLAP>
25.43

> <PUBCHEM_SHAPE_FINGERPRINT>
11315181 36 17167859756579494547
11638347 137 17989210378071052914
13533116 47 18114181995129333206
14123256 10 18334294275807171957
14251764 18 17312820485606936625
14251764 46 18131350808903300875
14428016 248 16008743598818345363
155225 1 17458348499555435192
16120349 18 18335423430624615329
20621476 8 9511463316881376731
21095086 128 11600005445093659585
21150785 3 14996282518199852585
21362267 313 18262799713416786747
220451 1 14779552308922598532
22224240 67 18260830397623164191
23035841 295 15051730885325206113
23521765 1 18335419076323667247
246663 6 10663820784860662045
28498 318 12247683772893157947
33684 2 14836404732018907173
4325135 7 14273454773342870169
67123 10 17894349974040844935
8209 1 7276831277873568391

> <PUBCHEM_SHAPE_MULTIPOLES>
368.42
32.37
1.09
0.85
50.26
0.35
0.14
-3.37
5.17
-1.79
0.01
-1.09
-0.11
0.55

> <PUBCHEM_SHAPE_SELFOVERLAP>
683.902

> <PUBCHEM_SHAPE_VOLUME>
231.2

> <PUBCHEM_COORDINATE_TYPE>
2
5
10

$$$$

