92095
  -OEChem-07051212493D

 74 79  0     1  0  0  0  0  0999 V2000
   -3.2712    1.0887    0.3677 O   0  0  0  0  0  0  0  0  0  0  0  0
   -4.8496    0.0159   -1.0718 O   0  0  0  0  0  0  0  0  0  0  0  0
    8.0778    0.7134   -0.1359 O   0  0  0  0  0  0  0  0  0  0  0  0
   -0.5003   -0.8504    0.0607 C   0  0  1  0  0  0  0  0  0  0  0  0
    0.1785    0.4766   -0.3482 C   0  0  2  0  0  0  0  0  0  0  0  0
   -1.9122   -0.6399   -0.5622 C   0  0  2  0  0  0  0  0  0  0  0  0
    1.6138    0.6235    0.1662 C   0  0  1  0  0  0  0  0  0  0  0  0
    2.4716   -0.5795   -0.3190 C   0  0  1  0  0  0  0  0  0  0  0  0
   -2.1459    0.8839   -0.4809 C   0  0  2  0  0  0  0  0  0  0  0  0
    3.9523   -0.5176    0.2520 C   0  0  2  0  0  0  0  0  0  0  0  0
   -0.8587    1.5252    0.0395 C   0  0  0  0  0  0  0  0  0  0  0  0
    0.3072   -1.9862   -0.5867 C   0  0  0  0  0  0  0  0  0  0  0  0
    1.7768   -1.9572   -0.1337 C   0  0  0  0  0  0  0  0  0  0  0  0
   -3.1425   -1.2384    0.1291 C   0  0  1  0  0  0  0  0  0  0  0  0
    4.3595    0.9621    0.5833 C   0  0  2  0  0  0  0  0  0  0  0  0
    2.2227    1.9550   -0.3221 C   0  0  0  0  0  0  0  0  0  0  0  0
   -4.1325   -0.0556    0.1696 C   0  0  1  0  0  0  0  0  0  0  0  0
    3.7486    1.9379   -0.4261 C   0  0  0  0  0  0  0  0  0  0  0  0
   -0.5501   -1.0549    1.5959 C   0  0  0  0  0  0  0  0  0  0  0  0
    4.8921   -1.1318   -0.8282 C   0  0  0  0  0  0  0  0  0  0  0  0
    5.8767    1.1749    0.7237 C   0  0  0  0  0  0  0  0  0  0  0  0
    4.0981   -1.3360    1.5587 C   0  0  0  0  0  0  0  0  0  0  0  0
   -3.6510   -2.4928   -0.5719 C   0  0  0  0  0  0  0  0  0  0  0  0
    6.3772   -0.9098   -0.5718 C   0  0  0  0  0  0  0  0  0  0  0  0
   -5.1087   -0.1702    1.3465 C   0  0  0  0  0  0  0  0  0  0  0  0
    6.6884    0.5711   -0.4147 C   0  0  2  0  0  0  0  0  0  0  0  0
   -6.1602    0.9380    1.3119 C   0  0  0  0  0  0  0  0  0  0  0  0
   -5.7498    1.1204   -1.1489 C   0  0  0  0  0  0  0  0  0  0  0  0
   -6.8251    1.0504   -0.0638 C   0  0  1  0  0  0  0  0  0  0  0  0
   -7.7833   -0.1168   -0.3189 C   0  0  0  0  0  0  0  0  0  0  0  0
    0.2428    0.4989   -1.4501 H   0  0  0  0  0  0  0  0  0  0  0  0
   -1.8847   -0.9200   -1.6243 H   0  0  0  0  0  0  0  0  0  0  0  0
    1.6126    0.6413    1.2624 H   0  0  0  0  0  0  0  0  0  0  0  0
    2.5393   -0.4496   -1.4107 H   0  0  0  0  0  0  0  0  0  0  0  0
   -2.3876    1.2811   -1.4752 H   0  0  0  0  0  0  0  0  0  0  0  0
   -0.8952    1.7082    1.1183 H   0  0  0  0  0  0  0  0  0  0  0  0
   -0.6743    2.4873   -0.4493 H   0  0  0  0  0  0  0  0  0  0  0  0
    0.2765   -1.9004   -1.6805 H   0  0  0  0  0  0  0  0  0  0  0  0
   -0.1349   -2.9590   -0.3402 H   0  0  0  0  0  0  0  0  0  0  0  0
    1.8072   -2.2686    0.9144 H   0  0  0  0  0  0  0  0  0  0  0  0
    2.3290   -2.7206   -0.6947 H   0  0  0  0  0  0  0  0  0  0  0  0
   -2.9123   -1.5155    1.1606 H   0  0  0  0  0  0  0  0  0  0  0  0
    3.9341    1.2285    1.5626 H   0  0  0  0  0  0  0  0  0  0  0  0
    1.9164    2.7489    0.3713 H   0  0  0  0  0  0  0  0  0  0  0  0
    1.8193    2.2394   -1.3021 H   0  0  0  0  0  0  0  0  0  0  0  0
    4.0416    1.6610   -1.4461 H   0  0  0  0  0  0  0  0  0  0  0  0
    4.1231    2.9559   -0.2649 H   0  0  0  0  0  0  0  0  0  0  0  0
   -0.9246   -2.0555    1.8410 H   0  0  0  0  0  0  0  0  0  0  0  0
    0.4305   -0.9720    2.0713 H   0  0  0  0  0  0  0  0  0  0  0  0
   -1.1979   -0.3253    2.0924 H   0  0  0  0  0  0  0  0  0  0  0  0
    4.6610   -0.6975   -1.8099 H   0  0  0  0  0  0  0  0  0  0  0  0
    4.7055   -2.2086   -0.9228 H   0  0  0  0  0  0  0  0  0  0  0  0
    6.1083    2.2443    0.8110 H   0  0  0  0  0  0  0  0  0  0  0  0
    6.2205    0.7437    1.6732 H   0  0  0  0  0  0  0  0  0  0  0  0
    3.9846   -2.4107    1.3811 H   0  0  0  0  0  0  0  0  0  0  0  0
    5.0807   -1.2033    2.0218 H   0  0  0  0  0  0  0  0  0  0  0  0
    3.3495   -1.0303    2.2982 H   0  0  0  0  0  0  0  0  0  0  0  0
   -4.5594   -2.8681   -0.0905 H   0  0  0  0  0  0  0  0  0  0  0  0
   -3.8781   -2.3095   -1.6271 H   0  0  0  0  0  0  0  0  0  0  0  0
   -2.8961   -3.2851   -0.5284 H   0  0  0  0  0  0  0  0  0  0  0  0
    6.7064   -1.4651    0.3151 H   0  0  0  0  0  0  0  0  0  0  0  0
    6.9599   -1.3229   -1.4046 H   0  0  0  0  0  0  0  0  0  0  0  0
   -4.5698   -0.1127    2.2998 H   0  0  0  0  0  0  0  0  0  0  0  0
   -5.6207   -1.1387    1.3159 H   0  0  0  0  0  0  0  0  0  0  0  0
    6.4809    1.1072   -1.3479 H   0  0  0  0  0  0  0  0  0  0  0  0
   -6.9105    0.7656    2.0922 H   0  0  0  0  0  0  0  0  0  0  0  0
   -5.6763    1.8938    1.5506 H   0  0  0  0  0  0  0  0  0  0  0  0
   -6.2088    1.1037   -2.1433 H   0  0  0  0  0  0  0  0  0  0  0  0
   -5.1828    2.0560   -1.0766 H   0  0  0  0  0  0  0  0  0  0  0  0
   -7.4160    1.9743   -0.0932 H   0  0  0  0  0  0  0  0  0  0  0  0
    8.5683    0.3348   -0.8854 H   0  0  0  0  0  0  0  0  0  0  0  0
   -8.5432   -0.1727    0.4676 H   0  0  0  0  0  0  0  0  0  0  0  0
   -8.3032    0.0178   -1.2737 H   0  0  0  0  0  0  0  0  0  0  0  0
   -7.2642   -1.0795   -0.3582 H   0  0  0  0  0  0  0  0  0  0  0  0
  1  9  1  0  0  0  0
  1 17  1  0  0  0  0
  2 17  1  0  0  0  0
  2 28  1  0  0  0  0
  3 26  1  0  0  0  0
  3 71  1  0  0  0  0
  4  5  1  0  0  0  0
  4  6  1  0  0  0  0
  4 12  1  0  0  0  0
  4 19  1  0  0  0  0
  5  7  1  0  0  0  0
  5 11  1  0  0  0  0
  5 31  1  0  0  0  0
  6  9  1  0  0  0  0
  6 14  1  0  0  0  0
  6 32  1  0  0  0  0
  7  8  1  0  0  0  0
  7 16  1  0  0  0  0
  7 33  1  0  0  0  0
  8 10  1  0  0  0  0
  8 13  1  0  0  0  0
  8 34  1  0  0  0  0
  9 11  1  0  0  0  0
  9 35  1  0  0  0  0
 10 15  1  0  0  0  0
 10 20  1  0  0  0  0
 10 22  1  0  0  0  0
 11 36  1  0  0  0  0
 11 37  1  0  0  0  0
 12 13  1  0  0  0  0
 12 38  1  0  0  0  0
 12 39  1  0  0  0  0
 13 40  1  0  0  0  0
 13 41  1  0  0  0  0
 14 17  1  0  0  0  0
 14 23  1  0  0  0  0
 14 42  1  0  0  0  0
 15 18  1  0  0  0  0
 15 21  1  0  0  0  0
 15 43  1  0  0  0  0
 16 18  1  0  0  0  0
 16 44  1  0  0  0  0
 16 45  1  0  0  0  0
 17 25  1  0  0  0  0
 18 46  1  0  0  0  0
 18 47  1  0  0  0  0
 19 48  1  0  0  0  0
 19 49  1  0  0  0  0
 19 50  1  0  0  0  0
 20 24  1  0  0  0  0
 20 51  1  0  0  0  0
 20 52  1  0  0  0  0
 21 26  1  0  0  0  0
 21 53  1  0  0  0  0
 21 54  1  0  0  0  0
 22 55  1  0  0  0  0
 22 56  1  0  0  0  0
 22 57  1  0  0  0  0
 23 58  1  0  0  0  0
 23 59  1  0  0  0  0
 23 60  1  0  0  0  0
 24 26  1  0  0  0  0
 24 61  1  0  0  0  0
 24 62  1  0  0  0  0
 25 27  1  0  0  0  0
 25 63  1  0  0  0  0
 25 64  1  0  0  0  0
 26 65  1  0  0  0  0
 27 29  1  0  0  0  0
 27 66  1  0  0  0  0
 27 67  1  0  0  0  0
 28 29  1  0  0  0  0
 28 68  1  0  0  0  0
 28 69  1  0  0  0  0
 29 30  1  0  0  0  0
 29 70  1  0  0  0  0
 30 72  1  0  0  0  0
 30 73  1  0  0  0  0
 30 74  1  0  0  0  0
M  END
> <PUBCHEM_COMPOUND_CID>
92095

> <PUBCHEM_CONFORMER_RMSD>
0.8

> <PUBCHEM_CONFORMER_DIVERSEORDER>
2
1

> <PUBCHEM_MMFF94_PARTIAL_CHARGES>
8
1 -0.56
17 0.56
2 -0.56
26 0.28
28 0.28
3 -0.68
71 0.4
9 0.28

> <PUBCHEM_EFFECTIVE_ROTOR_COUNT>
3.2

> <PUBCHEM_PHARMACOPHORE_FEATURES>
10
1 1 acceptor
1 2 acceptor
1 3 acceptor
1 3 donor
5 1 6 9 14 17 rings
5 4 5 6 9 11 rings
6 10 15 20 21 24 26 rings
6 2 17 25 27 28 29 rings
6 4 5 7 8 12 13 rings
6 7 8 10 15 16 18 rings

> <PUBCHEM_HEAVY_ATOM_COUNT>
30

> <PUBCHEM_ATOM_DEF_STEREO_COUNT>
12

> <PUBCHEM_ATOM_UDEF_STEREO_COUNT>
0

> <PUBCHEM_BOND_DEF_STEREO_COUNT>
0

> <PUBCHEM_BOND_UDEF_STEREO_COUNT>
0

> <PUBCHEM_ISOTOPIC_ATOM_COUNT>
0

> <PUBCHEM_COMPONENT_COUNT>
1

> <PUBCHEM_CACTVS_TAUTO_COUNT>
1

> <PUBCHEM_CONFORMER_ID>
000167BF00000002

> <PUBCHEM_MMFF94_ENERGY>
116.8667

> <PUBCHEM_FEATURE_SELFOVERLAP>
51.172

> <PUBCHEM_SHAPE_FINGERPRINT>
10 15 18131071528064275352
106641 1 14476955667146292396
10906281 52 18341034273010285514
11089746 13 17167582683063300857
11315181 36 17313103030135920753
11578080 2 4822117623911121353
12011746 2 18411698790617060950
12166972 35 17530965787101705080
12236239 1 17530684316145206269
12516196 113 18040437689475748633
12788726 201 18340207500227377528
12838862 33 18337971037789189996
13533116 47 16588300644421986982
13914758 101 16298658473284800512
14170010 4 18411699885707536636
14251764 18 18410295800610325671
14341114 176 18412260653521802068
14856354 85 15791736291758845317
15142383 8 17775571956804619972
15183329 4 18261111889278187697
15196674 1 18337391543584652422
15361156 5 18200587004010983964
15461852 350 16660647328276205485
15788980 27 17918275350897295007
15849732 13 18131348609394872628
15927050 60 18272934907711262090
18608769 82 17632290146955369298
18681886 176 18187936040333084010
20105231 36 18272075115730379810
21033648 29 18042418958532614858
21150785 3 15068622677925304729
21236236 1 18335140839520819407
21267235 1 18410287034117850940
21792934 111 18338811116940100728
23559900 14 18335426724948667832
23569917 315 18186795873236994663
23569943 247 17975406129290430674
249057 3 18408322168231776037
255183 451 17826505863117146406
3004659 81 18413109459250257528
3178227 256 18343291574476584880
335352 9 18410011018039338108
34797466 226 17821444664294484172
34934 24 18410862070705692895
350125 39 18410855473272033308
3545911 37 18410012143616129397
3633792 109 17676479600848370855
397830 11 17202469010207723873
4017518 198 17385715886600619854
4073 2 18201435810193074626
4093350 32 17240758527565900374
4325135 7 18259987076003443261
5104073 3 18338802212676538827
6086070 43 17530972332657867451
7226269 152 18342739632957100025

> <PUBCHEM_SHAPE_MULTIPOLES>
599.78
19.53
2
1.12
2.23
0.39
0.3
-4.66
-0.45
-0.46
-0.19
0.47
0.14
-0.07

> <PUBCHEM_SHAPE_SELFOVERLAP>
1286.801

> <PUBCHEM_SHAPE_VOLUME>
330.6

> <PUBCHEM_COORDINATE_TYPE>
2
5
10

$$$$

