441049
  -OEChem-07051212513D

 57 59  0     1  0  0  0  0  0999 V2000
    7.3242   -0.9370    1.1229 O   0  0  0  0  0  0  0  0  0  0  0  0
    1.3128   -1.6987   -0.6302 O   0  0  0  0  0  0  0  0  0  0  0  0
   -8.6613    1.0942    1.2592 O   0  0  0  0  0  0  0  0  0  0  0  0
    7.2452    0.8596   -0.2907 N   0  0  0  0  0  0  0  0  0  0  0  0
   -9.9447    0.6190    1.5004 N   0  0  0  0  0  0  0  0  0  0  0  0
   -3.4281   -0.4371   -0.2778 C   0  0  0  0  0  0  0  0  0  0  0  0
   -4.4799    0.6274   -0.5977 C   0  0  0  0  0  0  0  0  0  0  0  0
   -2.0365    0.0004   -0.7373 C   0  0  0  0  0  0  0  0  0  0  0  0
   -5.8778    0.1727   -0.1666 C   0  0  0  0  0  0  0  0  0  0  0  0
   -0.9921   -1.0757   -0.4484 C   0  0  0  0  0  0  0  0  0  0  0  0
    8.6249    0.7403    0.2091 C   0  0  2  0  0  0  0  0  0  0  0  0
   -6.9646    1.2189   -0.4386 C   0  0  0  0  0  0  0  0  0  0  0  0
    0.3883   -0.6656   -0.9415 C   0  0  0  0  0  0  0  0  0  0  0  0
    8.5272   -0.2246    1.3733 C   0  0  0  0  0  0  0  0  0  0  0  0
    9.1621    2.1029    0.6038 C   0  0  0  0  0  0  0  0  0  0  0  0
    6.6449   -0.1540    0.2501 C   0  0  0  0  0  0  0  0  0  0  0  0
   -8.3393    0.7763   -0.0019 C   0  0  0  0  0  0  0  0  0  0  0  0
    5.2501   -0.5577    0.0211 C   0  0  0  0  0  0  0  0  0  0  0  0
    9.2149    3.0523   -0.5821 C   0  0  0  0  0  0  0  0  0  0  0  0
    2.6128   -1.3211   -0.4142 C   0  0  0  0  0  0  0  0  0  0  0  0
   -9.3227    0.1155   -0.6318 C   0  0  0  0  0  0  0  0  0  0  0  0
    4.4458    0.1781   -0.8489 C   0  0  0  0  0  0  0  0  0  0  0  0
    4.7313   -1.6767    0.6727 C   0  0  0  0  0  0  0  0  0  0  0  0
    3.1223   -0.2048   -1.0673 C   0  0  0  0  0  0  0  0  0  0  0  0
    3.4079   -2.0597    0.4541 C   0  0  0  0  0  0  0  0  0  0  0  0
  -10.3189    0.0385    0.3569 C   0  0  0  0  0  0  0  0  0  0  0  0
  -11.6488   -0.5832    0.2514 C   0  0  0  0  0  0  0  0  0  0  0  0
   -3.4155   -0.6306    0.8017 H   0  0  0  0  0  0  0  0  0  0  0  0
   -3.6982   -1.3783   -0.7721 H   0  0  0  0  0  0  0  0  0  0  0  0
   -4.2243    1.5630   -0.0859 H   0  0  0  0  0  0  0  0  0  0  0  0
   -4.4812    0.8362   -1.6743 H   0  0  0  0  0  0  0  0  0  0  0  0
   -1.7574    0.9318   -0.2300 H   0  0  0  0  0  0  0  0  0  0  0  0
   -2.0562    0.2118   -1.8134 H   0  0  0  0  0  0  0  0  0  0  0  0
   -6.1332   -0.7594   -0.6870 H   0  0  0  0  0  0  0  0  0  0  0  0
   -5.8672   -0.0645    0.9051 H   0  0  0  0  0  0  0  0  0  0  0  0
   -1.2790   -2.0220   -0.9239 H   0  0  0  0  0  0  0  0  0  0  0  0
   -0.9490   -1.2822    0.6283 H   0  0  0  0  0  0  0  0  0  0  0  0
    9.2444    0.3068   -0.5866 H   0  0  0  0  0  0  0  0  0  0  0  0
   -6.7117    2.1553    0.0740 H   0  0  0  0  0  0  0  0  0  0  0  0
   -6.9931    1.4462   -1.5115 H   0  0  0  0  0  0  0  0  0  0  0  0
    0.6530    0.2780   -0.4464 H   0  0  0  0  0  0  0  0  0  0  0  0
    0.3700   -0.5149   -2.0271 H   0  0  0  0  0  0  0  0  0  0  0  0
    9.3735   -0.9175    1.4019 H   0  0  0  0  0  0  0  0  0  0  0  0
    8.4441    0.2716    2.3464 H   0  0  0  0  0  0  0  0  0  0  0  0
    8.5348    2.5519    1.3837 H   0  0  0  0  0  0  0  0  0  0  0  0
   10.1696    1.9944    1.0223 H   0  0  0  0  0  0  0  0  0  0  0  0
    9.8297    2.6407   -1.3890 H   0  0  0  0  0  0  0  0  0  0  0  0
    8.2162    3.2579   -0.9797 H   0  0  0  0  0  0  0  0  0  0  0  0
    9.6543    4.0079   -0.2781 H   0  0  0  0  0  0  0  0  0  0  0  0
   -9.3399   -0.2612   -1.6436 H   0  0  0  0  0  0  0  0  0  0  0  0
    4.8307    1.0494   -1.3721 H   0  0  0  0  0  0  0  0  0  0  0  0
    5.3287   -2.2734    1.3563 H   0  0  0  0  0  0  0  0  0  0  0  0
    2.5388    0.3777   -1.7735 H   0  0  0  0  0  0  0  0  0  0  0  0
    3.0072   -2.9318    0.9630 H   0  0  0  0  0  0  0  0  0  0  0  0
  -12.4371    0.1565    0.4253 H   0  0  0  0  0  0  0  0  0  0  0  0
  -11.8088   -1.0159   -0.7416 H   0  0  0  0  0  0  0  0  0  0  0  0
  -11.7610   -1.3854    0.9881 H   0  0  0  0  0  0  0  0  0  0  0  0
  1 14  1  0  0  0  0
  1 16  1  0  0  0  0
  2 13  1  0  0  0  0
  2 20  1  0  0  0  0
  3  5  1  0  0  0  0
  3 17  1  0  0  0  0
  4 11  1  0  0  0  0
  4 16  2  0  0  0  0
  5 26  2  0  0  0  0
  6  7  1  0  0  0  0
  6  8  1  0  0  0  0
  6 28  1  0  0  0  0
  6 29  1  0  0  0  0
  7  9  1  0  0  0  0
  7 30  1  0  0  0  0
  7 31  1  0  0  0  0
  8 10  1  0  0  0  0
  8 32  1  0  0  0  0
  8 33  1  0  0  0  0
  9 12  1  0  0  0  0
  9 34  1  0  0  0  0
  9 35  1  0  0  0  0
 10 13  1  0  0  0  0
 10 36  1  0  0  0  0
 10 37  1  0  0  0  0
 11 14  1  0  0  0  0
 11 15  1  0  0  0  0
 11 38  1  0  0  0  0
 12 17  1  0  0  0  0
 12 39  1  0  0  0  0
 12 40  1  0  0  0  0
 13 41  1  0  0  0  0
 13 42  1  0  0  0  0
 14 43  1  0  0  0  0
 14 44  1  0  0  0  0
 15 19  1  0  0  0  0
 15 45  1  0  0  0  0
 15 46  1  0  0  0  0
 16 18  1  0  0  0  0
 17 21  2  0  0  0  0
 18 22  2  0  0  0  0
 18 23  1  0  0  0  0
 19 47  1  0  0  0  0
 19 48  1  0  0  0  0
 19 49  1  0  0  0  0
 20 24  2  0  0  0  0
 20 25  1  0  0  0  0
 21 26  1  0  0  0  0
 21 50  1  0  0  0  0
 22 24  1  0  0  0  0
 22 51  1  0  0  0  0
 23 25  2  0  0  0  0
 23 52  1  0  0  0  0
 24 53  1  0  0  0  0
 25 54  1  0  0  0  0
 26 27  1  0  0  0  0
 27 55  1  0  0  0  0
 27 56  1  0  0  0  0
 27 57  1  0  0  0  0
M  END
> <PUBCHEM_COMPOUND_CID>
441049

> <PUBCHEM_CONFORMER_RMSD>
1.2

> <PUBCHEM_CONFORMER_DIVERSEORDER>
1
82
238
94
54
24
148
35
38
308
187
170
8
65
287
37
230
139
413
300
67
21
156
53
404
229
285
247
18
52
523
540
174
270
13
210
539
158
177
63
30
258
39
92
175
191
64
348
31
154
200
100
47
587
190
326
23
438
252
357
226
562
450
4
448
34
144
114
282
255
291
83
294
436
480
216
292
68
134
338
195
89
32
546
409
122
70
2
28
11
146
6
153
477
449
3
137
311
48
453
214
380
521
19
378
250
42
529
290
532
5
457
389
9
579
33
465
14
316
314
218
56
12
129
518
72
522

> <PUBCHEM_MMFF94_PARTIAL_CHARGES>
25
1 -0.43
11 0.25
12 0.18
13 0.28
14 0.28
16 0.51
17 -0.04
18 0.09
2 -0.36
20 0.08
21 -0.15
22 -0.15
23 -0.15
24 -0.15
25 -0.15
26 0.11
27 0.18
3 -0.02
4 -0.7
5 -0.41
50 0.15
51 0.15
52 0.15
53 0.15
54 0.15

> <PUBCHEM_EFFECTIVE_ROTOR_COUNT>
11.6

> <PUBCHEM_PHARMACOPHORE_FEATURES>
8
1 19 hydrophobe
1 2 acceptor
1 5 acceptor
3 6 8 10 hydrophobe
3 7 9 12 hydrophobe
5 1 4 11 14 16 rings
5 3 5 17 21 26 rings
6 18 20 22 23 24 25 rings

> <PUBCHEM_HEAVY_ATOM_COUNT>
27

> <PUBCHEM_ATOM_DEF_STEREO_COUNT>
0

> <PUBCHEM_ATOM_UDEF_STEREO_COUNT>
1

> <PUBCHEM_BOND_DEF_STEREO_COUNT>
0

> <PUBCHEM_BOND_UDEF_STEREO_COUNT>
0

> <PUBCHEM_ISOTOPIC_ATOM_COUNT>
0

> <PUBCHEM_COMPONENT_COUNT>
1

> <PUBCHEM_CACTVS_TAUTO_COUNT>
1

> <PUBCHEM_CONFORMER_ID>
0006BAD900000001

> <PUBCHEM_MMFF94_ENERGY>
47.0492

> <PUBCHEM_FEATURE_SELFOVERLAP>
40.594

> <PUBCHEM_SHAPE_FINGERPRINT>
10054150 59 11308734979686084744
10162869 55 18131351895672783455
106641 1 18344146999493207839
11534866 41 15267068064783453376
11638347 137 16988846115817641962
12089408 11 17894355496941890399
12539745 222 14117527566568460007
12559415 86 13984926456106088731
12592606 108 10519979370716408573
13740195 50 18131068217435683651
14026016 60 5472875731785173660
14202775 3 9079108986784885485
14251764 46 18409167718876057391
14428016 248 17822008714318806337
14617042 71 18409728439789438124
15061470 23 18411420649353130197
15065858 18 17560806559024056607
15247644 1 14117514355555110129
15510794 2 15698002955376331591
155225 1 17967816033567742184
15690457 1 13470687053010505706
15706992 2 18186515492842791228
15773216 30 14779815118087785164
15840311 113 18342174471765220228
16728433 110 18343865516011238093
16992610 120 16660361463304939461
1754911 235 5256399496860922377
19315958 150 18412262865219788070
20812841 46 18130791157875406356
21057603 238 14997394021983651084
21095123 145 16805329878065148879
21130991 4 8285937757264932844
212700 22 14476957896471930689
21362267 313 18192713560432719491
21792961 116 9799696996169297063
28498 318 9151170957077060839
4173938 188 18201998807923951595
42767 2 8790886281401533593
44389302 135 13398639350652377368
6081469 158 6699808683280462418
67123 10 18410293619141563631
9663363 56 11167938057207868206
9937071 3 10015864292913732708
9962374 69 14189566412625785895

> <PUBCHEM_SHAPE_MULTIPOLES>
528.08
46.77
1.87
1.08
75.41
0.71
-0.17
21.07
-14.05
-5.46
-0.01
0.02
0.02
-1.07

> <PUBCHEM_SHAPE_SELFOVERLAP>
1093.403

> <PUBCHEM_SHAPE_VOLUME>
304.2

> <PUBCHEM_COORDINATE_TYPE>
2
5
10

$$$$

