17395749
  -OEChem-06241222523D

 44 46  0     0  0  0  0  0  0999 V2000
   -2.6314   -2.1580   -0.7559 O   0  0  0  0  0  0  0  0  0  0  0  0
    3.5550   -1.6090    1.3495 O   0  0  0  0  0  0  0  0  0  0  0  0
   -3.1454   -0.1429    0.2288 N   0  0  0  0  0  0  0  0  0  0  0  0
   -0.9246   -0.6237   -0.4012 N   0  0  0  0  0  0  0  0  0  0  0  0
    1.8961   -0.0020   -0.2423 N   0  0  0  0  0  0  0  0  0  0  0  0
   -4.5524   -0.4223    0.3767 C   0  0  0  0  0  0  0  0  0  0  0  0
   -5.3545    0.0836   -0.8154 C   0  0  0  0  0  0  0  0  0  0  0  0
   -5.1642    0.3424    1.5445 C   0  0  0  0  0  0  0  0  0  0  0  0
   -5.5652    1.5686   -0.5337 C   0  0  0  0  0  0  0  0  0  0  0  0
   -5.4850    1.7274    0.9849 C   0  0  0  0  0  0  0  0  0  0  0  0
   -0.4519    0.6780    0.0803 C   0  0  0  0  0  0  0  0  0  0  0  0
    0.0887   -1.5074   -0.9727 C   0  0  0  0  0  0  0  0  0  0  0  0
    0.9194    1.0637   -0.4763 C   0  0  0  0  0  0  0  0  0  0  0  0
    1.4192   -1.3881   -0.2331 C   0  0  0  0  0  0  0  0  0  0  0  0
   -2.2623   -1.0548   -0.3419 C   0  0  0  0  0  0  0  0  0  0  0  0
    3.2528    0.2797   -0.0994 C   0  0  0  0  0  0  0  0  0  0  0  0
    4.0664   -0.5277    0.6955 C   0  0  0  0  0  0  0  0  0  0  0  0
    3.7961    1.3815   -0.7602 C   0  0  0  0  0  0  0  0  0  0  0  0
    5.4232   -0.2332    0.8297 C   0  0  0  0  0  0  0  0  0  0  0  0
    5.1532    1.6759   -0.6266 C   0  0  0  0  0  0  0  0  0  0  0  0
    5.9667    0.8685    0.1687 C   0  0  0  0  0  0  0  0  0  0  0  0
   -4.6841   -1.5017    0.5074 H   0  0  0  0  0  0  0  0  0  0  0  0
   -6.3293   -0.4188   -0.8447 H   0  0  0  0  0  0  0  0  0  0  0  0
   -4.8610   -0.0833   -1.7781 H   0  0  0  0  0  0  0  0  0  0  0  0
   -4.5095    0.3963    2.4202 H   0  0  0  0  0  0  0  0  0  0  0  0
   -6.0984   -0.1431    1.8534 H   0  0  0  0  0  0  0  0  0  0  0  0
   -6.5226    1.9200   -0.9314 H   0  0  0  0  0  0  0  0  0  0  0  0
   -4.7752    2.1612   -1.0097 H   0  0  0  0  0  0  0  0  0  0  0  0
   -6.4208    2.1137    1.4017 H   0  0  0  0  0  0  0  0  0  0  0  0
   -4.6933    2.4398    1.2439 H   0  0  0  0  0  0  0  0  0  0  0  0
   -2.8153    0.7547    0.5604 H   0  0  0  0  0  0  0  0  0  0  0  0
   -1.1668    1.4584   -0.1980 H   0  0  0  0  0  0  0  0  0  0  0  0
   -0.4197    0.6196    1.1747 H   0  0  0  0  0  0  0  0  0  0  0  0
   -0.2570   -2.5462   -0.9533 H   0  0  0  0  0  0  0  0  0  0  0  0
    0.2051   -1.2215   -2.0252 H   0  0  0  0  0  0  0  0  0  0  0  0
    0.8439    1.2532   -1.5542 H   0  0  0  0  0  0  0  0  0  0  0  0
    1.2266    1.9975    0.0104 H   0  0  0  0  0  0  0  0  0  0  0  0
    1.2615   -1.7201    0.7998 H   0  0  0  0  0  0  0  0  0  0  0  0
    2.1359   -2.0571   -0.7247 H   0  0  0  0  0  0  0  0  0  0  0  0
    3.1953    2.0216   -1.4003 H   0  0  0  0  0  0  0  0  0  0  0  0
    6.0690   -0.8535    1.4456 H   0  0  0  0  0  0  0  0  0  0  0  0
    5.5775    2.5312   -1.1443 H   0  0  0  0  0  0  0  0  0  0  0  0
    7.0234    1.0971    0.2721 H   0  0  0  0  0  0  0  0  0  0  0  0
    4.2673   -2.0457    1.8472 H   0  0  0  0  0  0  0  0  0  0  0  0
  1 15  2  0  0  0  0
  2 17  1  0  0  0  0
  2 44  1  0  0  0  0
  3  6  1  0  0  0  0
  3 15  1  0  0  0  0
  3 31  1  0  0  0  0
  4 11  1  0  0  0  0
  4 12  1  0  0  0  0
  4 15  1  0  0  0  0
  5 13  1  0  0  0  0
  5 14  1  0  0  0  0
  5 16  1  0  0  0  0
  6  7  1  0  0  0  0
  6  8  1  0  0  0  0
  6 22  1  0  0  0  0
  7  9  1  0  0  0  0
  7 23  1  0  0  0  0
  7 24  1  0  0  0  0
  8 10  1  0  0  0  0
  8 25  1  0  0  0  0
  8 26  1  0  0  0  0
  9 10  1  0  0  0  0
  9 27  1  0  0  0  0
  9 28  1  0  0  0  0
 10 29  1  0  0  0  0
 10 30  1  0  0  0  0
 11 13  1  0  0  0  0
 11 32  1  0  0  0  0
 11 33  1  0  0  0  0
 12 14  1  0  0  0  0
 12 34  1  0  0  0  0
 12 35  1  0  0  0  0
 13 36  1  0  0  0  0
 13 37  1  0  0  0  0
 14 38  1  0  0  0  0
 14 39  1  0  0  0  0
 16 17  1  0  0  0  0
 16 18  2  0  0  0  0
 17 19  2  0  0  0  0
 18 20  1  0  0  0  0
 18 40  1  0  0  0  0
 19 21  1  0  0  0  0
 19 41  1  0  0  0  0
 20 21  2  0  0  0  0
 20 42  1  0  0  0  0
 21 43  1  0  0  0  0
M  END
> <PUBCHEM_COMPOUND_CID>
17395749

> <PUBCHEM_CONFORMER_RMSD>
0.8

> <PUBCHEM_CONFORMER_DIVERSEORDER>
1
33
13
15
16
28
20
32
25
12
26
21
30
24
19
6
18
9
8
14
31
5
29
17
27
22
7
3
10
11
23
4
2

> <PUBCHEM_MMFF94_PARTIAL_CHARGES>
23
1 -0.57
11 0.3
12 0.3
13 0.37
14 0.37
15 0.69
16 0.1
17 0.08
18 -0.15
19 -0.15
2 -0.53
20 -0.15
21 -0.15
3 -0.73
31 0.37
4 -0.66
40 0.15
41 0.15
42 0.15
43 0.15
44 0.45
5 -0.84
6 0.3

> <PUBCHEM_EFFECTIVE_ROTOR_COUNT>
6.2

> <PUBCHEM_PHARMACOPHORE_FEATURES>
7
1 1 acceptor
1 2 donor
1 3 donor
1 5 cation
5 6 7 8 9 10 rings
6 16 17 18 19 20 21 rings
6 4 5 11 12 13 14 rings

> <PUBCHEM_HEAVY_ATOM_COUNT>
21

> <PUBCHEM_ATOM_DEF_STEREO_COUNT>
0

> <PUBCHEM_ATOM_UDEF_STEREO_COUNT>
0

> <PUBCHEM_BOND_DEF_STEREO_COUNT>
0

> <PUBCHEM_BOND_UDEF_STEREO_COUNT>
0

> <PUBCHEM_ISOTOPIC_ATOM_COUNT>
0

> <PUBCHEM_COMPONENT_COUNT>
1

> <PUBCHEM_CACTVS_TAUTO_COUNT>
6

> <PUBCHEM_CONFORMER_ID>
0109702500000001

> <PUBCHEM_MMFF94_ENERGY>
60.9392

> <PUBCHEM_FEATURE_SELFOVERLAP>
35.52

> <PUBCHEM_SHAPE_FINGERPRINT>
10 15 18341601630333395545
10906281 52 18339063947988675196
11089746 13 17748834003001868336
117890 112 18261110785424308176
12107183 9 17766286752991048976
12236239 1 18411139121660035570
12596602 18 17989202646992666337
12616971 3 18202290178093627422
12788726 201 18114459054188444544
12969540 114 16008755735810744133
13167372 99 18411982494239134768
13533116 47 16950839319261431422
13631057 29 18041850489805453927
13675066 3 17203609298312724831
13740256 8 10663810876313172477
13785724 45 17907301305883161650
14251764 18 18412543202720384657
14341114 176 17846777420835850340
14341114 328 18343305842727440930
14528608 73 4823213905153706384
14573314 32 16008740320898656109
14790565 3 18338232657274444740
15142383 8 17418103151671783804
15183329 4 18409730659791294309
15348495 7 16773506686134590753
1601671 61 18187363229293084372
17844677 252 14549016581014618735
18222031 100 8142087528982013678
18785283 64 15840410489766036708
18927931 339 11167943567835167841
19489759 90 16950563281491329313
19784866 9 18412263939071719290
20281389 69 18410856542666051505
20511986 3 18337969920949629656
21150785 3 15936416615356776821
21267235 1 18130790101450484850
21315759 148 16558743525267046049
21421861 104 18129389353111106690
21623969 137 17346594175223245490
2303208 19 14979963587889503138
23402539 116 17748830708973020373
23559900 14 17604133875283147188
2767999 5 18040999552928888609
2838139 119 17894634764052131577
293599 30 18187359917693775854
300161 21 18335425642764257766
312425 54 16415476082331567089
314173 85 14620797098233317919
34797466 226 15213306274805092337
34934 24 18335423478016702015
4340502 62 16917068850274106192
465052 167 11095882683498999712
5104073 3 18200882751691462274
542803 24 18409446977148353401
6328613 192 18336544919932399920
7062679 6 18333445448008398201
7226269 152 18040150730089558377
7495541 125 11743834751065709934
8272917 22 18343865537375414938

> <PUBCHEM_SHAPE_MULTIPOLES>
405.49
15.99
1.81
1.1
4.01
0.14
0.23
-6.79
2.96
0.26
-0.24
0.45
0.04
-1.32

> <PUBCHEM_SHAPE_SELFOVERLAP>
852.602

> <PUBCHEM_SHAPE_VOLUME>
227.8

> <PUBCHEM_COORDINATE_TYPE>
2
5
10

$$$$

