443325
  -OEChem-07051213022D

 50 54  0     1  0  0  0  0  0999 V2000
    3.4685   -2.9277    0.0000 O   0  0  0  0  0  0  0  0  0  0  0  0
    6.6555   -1.8921    0.0000 O   0  0  0  0  0  0  0  0  0  0  0  0
    7.0156   -0.1979    0.0000 O   0  0  0  0  0  0  0  0  0  0  0  0
    2.6254   -0.1502    0.0000 N   0  0  3  0  0  0  0  0  0  0  0  0
    5.7049    0.8504    0.0000 N   0  0  0  0  0  0  0  0  0  0  0  0
    3.5397   -0.3445    0.0000 C   0  0  2  0  0  0  0  0  0  0  0  0
    4.1652    0.3501    0.0000 C   0  0  2  0  0  0  0  0  0  0  0  0
    3.8286   -1.2335    0.0000 C   0  0  1  0  0  0  0  0  0  0  0  0
    3.7801    1.3857    0.0000 C   0  0  0  0  0  0  0  0  0  0  0  0
    5.0795    0.1558    0.0000 C   0  0  0  0  0  0  0  0  0  0  0  0
    2.3366    0.7388    0.0000 C   0  0  0  0  0  0  0  0  0  0  0  0
    4.7429   -1.4278    0.0000 C   0  0  0  0  0  0  0  0  0  0  0  0
    4.5018    1.9337    0.0000 C   0  0  0  0  0  0  0  0  0  0  0  0
    4.1376   -2.1845    0.0000 C   0  0  3  0  0  0  0  0  0  0  0  0
    5.3683   -0.7332    0.0000 C   0  0  0  0  0  0  0  0  0  0  0  0
    3.2031   -1.9281    0.0000 C   0  0  0  0  0  0  0  0  0  0  0  0
    2.0000   -0.8448    0.0000 C   0  0  0  0  0  0  0  0  0  0  0  0
    5.4161    1.7394    0.0000 C   0  0  0  0  0  0  0  0  0  0  0  0
    2.2888   -1.7338    0.0000 C   0  0  0  0  0  0  0  0  0  0  0  0
    4.2129    2.8227    0.0000 C   0  0  0  0  0  0  0  0  0  0  0  0
    5.1157   -2.3924    0.0000 C   0  0  0  0  0  0  0  0  0  0  0  0
    6.3465   -0.9411    0.0000 C   0  0  0  0  0  0  0  0  0  0  0  0
    6.0415    2.4340    0.0000 C   0  0  0  0  0  0  0  0  0  0  0  0
    4.8384    3.5173    0.0000 C   0  0  0  0  0  0  0  0  0  0  0  0
    5.7527    3.3230    0.0000 C   0  0  0  0  0  0  0  0  0  0  0  0
    7.6336   -2.1000    0.0000 C   0  0  0  0  0  0  0  0  0  0  0  0
    3.2771    0.4639    0.0000 H   0  0  0  0  0  0  0  0  0  0  0  0
    4.3564    1.6144    0.0000 H   0  0  0  0  0  0  0  0  0  0  0  0
    3.5389    1.9569    0.0000 H   0  0  0  0  0  0  0  0  0  0  0  0
    2.1034    1.3133    0.0000 H   0  0  0  0  0  0  0  0  0  0  0  0
    1.7542    0.5263    0.0000 H   0  0  0  0  0  0  0  0  0  0  0  0
    4.5106   -2.0027    0.0000 H   0  0  0  0  0  0  0  0  0  0  0  0
    5.2687   -1.7564    0.0000 H   0  0  0  0  0  0  0  0  0  0  0  0
    4.3292   -2.7742    0.0000 H   0  0  0  0  0  0  0  0  0  0  0  0
    3.3947   -2.5178    0.0000 H   0  0  0  0  0  0  0  0  0  0  0  0
    1.6183   -0.3562    0.0000 H   0  0  0  0  0  0  0  0  0  0  0  0
    1.4526   -1.1359    0.0000 H   0  0  0  0  0  0  0  0  0  0  0  0
    6.3114    0.7215    0.0000 H   0  0  0  0  0  0  0  0  0  0  0  0
    1.8740   -2.1945    0.0000 H   0  0  0  0  0  0  0  0  0  0  0  0
    3.6065    2.9516    0.0000 H   0  0  0  0  0  0  0  0  0  0  0  0
    4.9868   -2.9989    0.0000 H   0  0  0  0  0  0  0  0  0  0  0  0
    5.7222   -2.5213    0.0000 H   0  0  0  0  0  0  0  0  0  0  0  0
    5.2446   -1.7860    0.0000 H   0  0  0  0  0  0  0  0  0  0  0  0
    6.6480    2.3051    0.0000 H   0  0  0  0  0  0  0  0  0  0  0  0
    3.6601   -3.5173    0.0000 H   0  0  0  0  0  0  0  0  0  0  0  0
    4.6468    4.1070    0.0000 H   0  0  0  0  0  0  0  0  0  0  0  0
    6.1676    3.7837    0.0000 H   0  0  0  0  0  0  0  0  0  0  0  0
    7.5047   -2.7065    0.0000 H   0  0  0  0  0  0  0  0  0  0  0  0
    8.2401   -2.2290    0.0000 H   0  0  0  0  0  0  0  0  0  0  0  0
    7.7625   -1.4936    0.0000 H   0  0  0  0  0  0  0  0  0  0  0  0
  1 14  1  0  0  0  0
  1 45  1  0  0  0  0
  2 22  1  0  0  0  0
  2 26  1  0  0  0  0
  3 22  2  0  0  0  0
  4  6  1  0  0  0  0
  4 11  1  0  0  0  0
  4 17  1  0  0  0  0
  5 10  1  0  0  0  0
  5 18  1  0  0  0  0
  5 38  1  0  0  0  0
  6  7  1  0  0  0  0
  6  8  1  0  0  0  0
  6 27  1  1  0  0  0
  7  9  1  6  0  0  0
  7 10  1  0  0  0  0
  7 13  1  0  0  0  0
  8 12  1  0  0  0  0
  8 14  1  1  0  0  0
  8 16  1  0  0  0  0
  9 11  1  0  0  0  0
  9 28  1  0  0  0  0
  9 29  1  0  0  0  0
 10 15  2  0  0  0  0
 11 30  1  0  0  0  0
 11 31  1  0  0  0  0
 12 15  1  0  0  0  0
 12 32  1  0  0  0  0
 12 33  1  0  0  0  0
 13 18  1  0  0  0  0
 13 20  2  0  0  0  0
 14 21  1  0  0  0  0
 14 34  1  0  0  0  0
 15 22  1  0  0  0  0
 16 19  2  0  0  0  0
 16 35  1  0  0  0  0
 17 19  1  0  0  0  0
 17 36  1  0  0  0  0
 17 37  1  0  0  0  0
 18 23  2  0  0  0  0
 19 39  1  0  0  0  0
 20 24  1  0  0  0  0
 20 40  1  0  0  0  0
 21 41  1  0  0  0  0
 21 42  1  0  0  0  0
 21 43  1  0  0  0  0
 23 25  1  0  0  0  0
 23 44  1  0  0  0  0
 24 25  2  0  0  0  0
 24 46  1  0  0  0  0
 25 47  1  0  0  0  0
 26 48  1  0  0  0  0
 26 49  1  0  0  0  0
 26 50  1  0  0  0  0
M  END
> <PUBCHEM_COMPOUND_CID>
443325

> <PUBCHEM_COMPOUND_CANONICALIZED>
1

> <PUBCHEM_CACTVS_COMPLEXITY>
701

> <PUBCHEM_CACTVS_HBOND_ACCEPTOR>
5

> <PUBCHEM_CACTVS_HBOND_DONOR>
2

> <PUBCHEM_CACTVS_ROTATABLE_BOND>
3

> <PUBCHEM_CACTVS_SUBSKEYS>
AAADceB7MAAAAAAAAAAAAAAAAAAAAWLAAAAwQIAAAAAAAFiBAAAAHgAQCAAADjzhmAYyyIPABgCIAiTSSACCAAAhAgAIiAEIZMgINDLA8ZGEcAhm0ADI6UeY/f/fgAAAAAACAAAAAAAAAAQAAAAAAAAAAA==

> <PUBCHEM_IUPAC_INCHI>
InChI=1S/C21H24N2O3/c1-13(24)20-8-5-10-23-11-9-21(19(20)23)15-6-3-4-7-16(15)22-17(21)14(12-20)18(25)26-2/h3-8,13,19,22,24H,9-12H2,1-2H3/t13?,19-,20-,21-/m0/s1

> <PUBCHEM_IUPAC_INCHIKEY>
XDGRXQNYJMQLPU-VFZBCNBRSA-N

> <PUBCHEM_XLOGP3_AA>
2.2

> <PUBCHEM_EXACT_MASS>
352.178693

> <PUBCHEM_MOLECULAR_FORMULA>
C21H24N2O3

> <PUBCHEM_MOLECULAR_WEIGHT>
352.42686

> <PUBCHEM_OPENEYE_CAN_SMILES>
CC(C12CC(=C3C4(C1N(CC4)CC=C2)C5=CC=CC=C5N3)C(=O)OC)O

> <PUBCHEM_OPENEYE_ISO_SMILES>
CC([C@]12CC(=C3[C@@]4([C@H]1N(CC4)CC=C2)C5=CC=CC=C5N3)C(=O)OC)O

> <PUBCHEM_CACTVS_TPSA>
61.8

> <PUBCHEM_MONOISOTOPIC_WEIGHT>
352.178693

> <PUBCHEM_TOTAL_CHARGE>
0

> <PUBCHEM_HEAVY_ATOM_COUNT>
26

> <PUBCHEM_ATOM_DEF_STEREO_COUNT>
3

> <PUBCHEM_ATOM_UDEF_STEREO_COUNT>
1

> <PUBCHEM_BOND_DEF_STEREO_COUNT>
0

> <PUBCHEM_BOND_UDEF_STEREO_COUNT>
0

> <PUBCHEM_ISOTOPIC_ATOM_COUNT>
0

> <PUBCHEM_COMPONENT_COUNT>
1

> <PUBCHEM_CACTVS_TAUTO_COUNT>
3

> <PUBCHEM_COORDINATE_TYPE>
1
5
255

> <PUBCHEM_BONDANNOTATIONS>
14  1  3
13  18  8
13  20  8
18  23  8
20  24  8
23  25  8
24  25  8
6  27  5
7  9  6
8  14  5

$$$$

