18735
  -OEChem-07051213103D

 32 32  0     1  0  0  0  0  0999 V2000
   -3.0674   -1.3171   -1.5601 Br  0  0  0  0  0  0  0  0  0  0  0  0
    0.2083   -1.0512    1.9713 O   0  0  0  0  0  0  0  0  0  0  0  0
   -1.1045    0.7346   -2.0931 O   0  0  0  0  0  0  0  0  0  0  0  0
    3.2779   -0.4214   -1.4584 O   0  0  0  0  0  0  0  0  0  0  0  0
    1.8360   -0.5993    0.3696 N   0  0  0  0  0  0  0  0  0  0  0  0
    1.0986    0.2118   -1.7254 N   0  0  0  0  0  0  0  0  0  0  0  0
   -0.3707    0.4866    0.2029 C   0  0  2  0  0  0  0  0  0  0  0  0
   -0.0341    1.9070    0.6920 C   0  0  0  0  0  0  0  0  0  0  0  0
   -1.8338    0.1703    0.5511 C   0  0  0  0  0  0  0  0  0  0  0  0
    0.5572   -0.4796    0.9369 C   0  0  0  0  0  0  0  0  0  0  0  0
   -0.1958    0.4714   -1.3069 C   0  0  0  0  0  0  0  0  0  0  0  0
   -0.9458    2.9258    0.0193 C   0  0  0  0  0  0  0  0  0  0  0  0
   -0.1555    1.9848    2.2087 C   0  0  0  0  0  0  0  0  0  0  0  0
    2.1600   -0.2657   -0.9598 C   0  0  0  0  0  0  0  0  0  0  0  0
   -2.2332   -1.2058    0.1126 C   0  0  0  0  0  0  0  0  0  0  0  0
    2.8675   -1.2613    1.1594 C   0  0  0  0  0  0  0  0  0  0  0  0
   -2.0646   -2.2910    0.8801 C   0  0  0  0  0  0  0  0  0  0  0  0
    1.0011    2.1619    0.4276 H   0  0  0  0  0  0  0  0  0  0  0  0
   -2.5401    0.8818    0.1104 H   0  0  0  0  0  0  0  0  0  0  0  0
   -2.0165    0.2227    1.6309 H   0  0  0  0  0  0  0  0  0  0  0  0
   -1.9958    2.8398    0.3100 H   0  0  0  0  0  0  0  0  0  0  0  0
   -0.6403    3.9324    0.3338 H   0  0  0  0  0  0  0  0  0  0  0  0
   -0.8717    2.9303   -1.0703 H   0  0  0  0  0  0  0  0  0  0  0  0
   -1.1723    1.8335    2.5794 H   0  0  0  0  0  0  0  0  0  0  0  0
    0.1290    2.9933    2.5358 H   0  0  0  0  0  0  0  0  0  0  0  0
    0.5227    1.3079    2.7345 H   0  0  0  0  0  0  0  0  0  0  0  0
    1.2822    0.3297   -2.7180 H   0  0  0  0  0  0  0  0  0  0  0  0
    2.8717   -2.3228    0.8931 H   0  0  0  0  0  0  0  0  0  0  0  0
    2.6673   -1.1606    2.2298 H   0  0  0  0  0  0  0  0  0  0  0  0
    3.8507   -0.8376    0.9347 H   0  0  0  0  0  0  0  0  0  0  0  0
   -2.3792   -3.2713    0.5335 H   0  0  0  0  0  0  0  0  0  0  0  0
   -1.6909   -2.2518    1.8939 H   0  0  0  0  0  0  0  0  0  0  0  0
  1 15  1  0  0  0  0
  2 10  2  0  0  0  0
  3 11  2  0  0  0  0
  4 14  2  0  0  0  0
  5 10  1  0  0  0  0
  5 14  1  0  0  0  0
  5 16  1  0  0  0  0
  6 11  1  0  0  0  0
  6 14  1  0  0  0  0
  6 27  1  0  0  0  0
  7  8  1  0  0  0  0
  7  9  1  0  0  0  0
  7 10  1  0  0  0  0
  7 11  1  0  0  0  0
  8 12  1  0  0  0  0
  8 13  1  0  0  0  0
  8 18  1  0  0  0  0
  9 15  1  0  0  0  0
  9 19  1  0  0  0  0
  9 20  1  0  0  0  0
 12 21  1  0  0  0  0
 12 22  1  0  0  0  0
 12 23  1  0  0  0  0
 13 24  1  0  0  0  0
 13 25  1  0  0  0  0
 13 26  1  0  0  0  0
 15 17  2  0  0  0  0
 16 28  1  0  0  0  0
 16 29  1  0  0  0  0
 16 30  1  0  0  0  0
 17 31  1  0  0  0  0
 17 32  1  0  0  0  0
M  END
> <PUBCHEM_COMPOUND_CID>
18735

> <PUBCHEM_CONFORMER_RMSD>
0.6

> <PUBCHEM_CONFORMER_DIVERSEORDER>
1
24
10
4
25
16
9
18
23
7
11
17
15
14
19
12
8
22
5
13
20
21
2
3
6

> <PUBCHEM_MMFF94_PARTIAL_CHARGES>
17
1 -0.11
10 0.57
11 0.57
14 0.69
15 -0.03
16 0.3
17 -0.3
2 -0.57
27 0.37
3 -0.57
31 0.15
32 0.15
4 -0.57
5 -0.42
6 -0.49
7 0.12
9 0.14

> <PUBCHEM_EFFECTIVE_ROTOR_COUNT>
3.6

> <PUBCHEM_PHARMACOPHORE_FEATURES>
7
1 1 hydrophobe
1 2 acceptor
1 3 acceptor
1 4 acceptor
1 6 donor
3 8 12 13 hydrophobe
6 5 6 7 10 11 14 rings

> <PUBCHEM_HEAVY_ATOM_COUNT>
17

> <PUBCHEM_ATOM_DEF_STEREO_COUNT>
0

> <PUBCHEM_ATOM_UDEF_STEREO_COUNT>
1

> <PUBCHEM_BOND_DEF_STEREO_COUNT>
0

> <PUBCHEM_BOND_UDEF_STEREO_COUNT>
0

> <PUBCHEM_ISOTOPIC_ATOM_COUNT>
0

> <PUBCHEM_COMPONENT_COUNT>
1

> <PUBCHEM_CACTVS_TAUTO_COUNT>
3

> <PUBCHEM_CONFORMER_ID>
0000492F00000001

> <PUBCHEM_MMFF94_ENERGY>
56.7256

> <PUBCHEM_FEATURE_SELFOVERLAP>
35.52

> <PUBCHEM_SHAPE_FINGERPRINT>
10702982 57 17763458817537153981
11578080 2 18129400253405904757
12138202 97 17826500364687867397
12326174 3 17828211999491853305
12423570 1 9000267667399569521
13024252 1 13541878184699199740
13299463 15 17273687663867268295
141345 1 9672291278629795489
14617773 55 18200587124428200034
14817 1 10824570909032839481
15881359 60 16557058102563966944
15906896 17 18121494915236268085
16945 1 18272084993816939571
19765921 60 14620526600987053783
20711985 344 18189043343158050969
23419403 2 17764918711481288828
23557571 272 18113907086856301536
25 1 14117251627377156231
353137 74 15769511896910900023
576247 118 18259983734571634295
5845 1 5521841879930019481
81228 2 18188765179654055225

> <PUBCHEM_SHAPE_MULTIPOLES>
328.22
3.81
2.43
2.08
0.07
2.18
0.11
-3.25
0.57
0.42
-0.48
-0.19
-0.3
0.29

> <PUBCHEM_SHAPE_SELFOVERLAP>
666.731

> <PUBCHEM_SHAPE_VOLUME>
194.7

> <PUBCHEM_COORDINATE_TYPE>
2
5
10

$$$$

