440723
  -OEChem-07051212503D

 45 46  0     1  0  0  0  0  0999 V2000
   -1.5869   -0.5825    2.0717 S   0  0  0  0  0  0  0  0  0  0  0  0
   -0.4154   -0.6967   -2.1741 O   0  0  0  0  0  0  0  0  0  0  0  0
   -4.0637    2.1075   -0.9506 O   0  0  0  0  0  0  0  0  0  0  0  0
   -4.1645    0.0128   -1.8442 O   0  0  0  0  0  0  0  0  0  0  0  0
    2.0655   -3.3037   -0.6872 O   0  0  0  0  0  0  0  0  0  0  0  0
    1.5905    1.9545   -0.9303 O   0  0  0  0  0  0  0  0  0  0  0  0
    2.7204    3.1267    0.6474 O   0  0  0  0  0  0  0  0  0  0  0  0
   -2.0460   -0.8072   -0.4714 N   0  0  0  0  0  0  0  0  0  0  0  0
    0.7764   -1.8400    0.5680 N   0  0  0  0  0  0  0  0  0  0  0  0
    5.0947    1.9735    0.0154 N   0  0  0  0  0  0  0  0  0  0  0  0
   -1.7908   -1.7164    0.6499 C   0  0  1  0  0  0  0  0  0  0  0  0
   -2.7772    0.6369    1.3193 C   0  0  0  0  0  0  0  0  0  0  0  0
   -2.4848    0.5455   -0.1938 C   0  0  2  0  0  0  0  0  0  0  0  0
   -0.5108   -2.1501   -0.0775 C   0  0  1  0  0  0  0  0  0  0  0  0
   -0.9219   -1.1421   -1.1693 C   0  0  0  0  0  0  0  0  0  0  0  0
   -2.4693    2.0330    1.8635 C   0  0  0  0  0  0  0  0  0  0  0  0
   -4.1983    0.2180    1.7198 C   0  0  0  0  0  0  0  0  0  0  0  0
   -3.6504    0.8239   -1.0884 C   0  0  0  0  0  0  0  0  0  0  0  0
    1.9647   -2.4565    0.1962 C   0  0  0  0  0  0  0  0  0  0  0  0
    3.1368   -1.9776    1.0366 C   0  0  0  0  0  0  0  0  0  0  0  0
    3.3915   -0.4731    0.9331 C   0  0  0  0  0  0  0  0  0  0  0  0
    3.7097   -0.0379   -0.5060 C   0  0  0  0  0  0  0  0  0  0  0  0
    3.9168    1.4733   -0.6927 C   0  0  1  0  0  0  0  0  0  0  0  0
    2.7132    2.2785   -0.2354 C   0  0  0  0  0  0  0  0  0  0  0  0
   -2.5641   -2.4823    0.7590 H   0  0  0  0  0  0  0  0  0  0  0  0
   -1.6677    1.2173   -0.4898 H   0  0  0  0  0  0  0  0  0  0  0  0
   -0.5549   -3.1884   -0.4284 H   0  0  0  0  0  0  0  0  0  0  0  0
   -2.5853    2.0741    2.9530 H   0  0  0  0  0  0  0  0  0  0  0  0
   -3.1472    2.7814    1.4396 H   0  0  0  0  0  0  0  0  0  0  0  0
   -1.4463    2.3468    1.6246 H   0  0  0  0  0  0  0  0  0  0  0  0
   -4.9410    0.9373    1.3572 H   0  0  0  0  0  0  0  0  0  0  0  0
   -4.3106    0.1742    2.8098 H   0  0  0  0  0  0  0  0  0  0  0  0
   -4.4710   -0.7634    1.3156 H   0  0  0  0  0  0  0  0  0  0  0  0
    0.7942   -1.1794    1.3408 H   0  0  0  0  0  0  0  0  0  0  0  0
    4.0296   -2.5301    0.7212 H   0  0  0  0  0  0  0  0  0  0  0  0
    2.9407   -2.2486    2.0807 H   0  0  0  0  0  0  0  0  0  0  0  0
   -4.8294    2.3100   -1.5293 H   0  0  0  0  0  0  0  0  0  0  0  0
    2.5278    0.0830    1.3122 H   0  0  0  0  0  0  0  0  0  0  0  0
    4.2356   -0.2204    1.5856 H   0  0  0  0  0  0  0  0  0  0  0  0
    2.8937   -0.3530   -1.1680 H   0  0  0  0  0  0  0  0  0  0  0  0
    4.6054   -0.5703   -0.8521 H   0  0  0  0  0  0  0  0  0  0  0  0
    4.0607    1.6837   -1.7595 H   0  0  0  0  0  0  0  0  0  0  0  0
    5.2605    2.9466   -0.2392 H   0  0  0  0  0  0  0  0  0  0  0  0
    5.9193    1.4559   -0.2862 H   0  0  0  0  0  0  0  0  0  0  0  0
    0.8131    2.4727   -0.6313 H   0  0  0  0  0  0  0  0  0  0  0  0
  1 11  1  0  0  0  0
  1 12  1  0  0  0  0
  2 15  2  0  0  0  0
  3 18  1  0  0  0  0
  3 37  1  0  0  0  0
  4 18  2  0  0  0  0
  5 19  2  0  0  0  0
  6 24  1  0  0  0  0
  6 45  1  0  0  0  0
  7 24  2  0  0  0  0
  8 11  1  0  0  0  0
  8 13  1  0  0  0  0
  8 15  1  0  0  0  0
  9 14  1  0  0  0  0
  9 19  1  0  0  0  0
  9 34  1  0  0  0  0
 10 23  1  0  0  0  0
 10 43  1  0  0  0  0
 10 44  1  0  0  0  0
 11 14  1  0  0  0  0
 11 25  1  0  0  0  0
 12 13  1  0  0  0  0
 12 16  1  0  0  0  0
 12 17  1  0  0  0  0
 13 18  1  0  0  0  0
 13 26  1  0  0  0  0
 14 15  1  0  0  0  0
 14 27  1  0  0  0  0
 16 28  1  0  0  0  0
 16 29  1  0  0  0  0
 16 30  1  0  0  0  0
 17 31  1  0  0  0  0
 17 32  1  0  0  0  0
 17 33  1  0  0  0  0
 19 20  1  0  0  0  0
 20 21  1  0  0  0  0
 20 35  1  0  0  0  0
 20 36  1  0  0  0  0
 21 22  1  0  0  0  0
 21 38  1  0  0  0  0
 21 39  1  0  0  0  0
 22 23  1  0  0  0  0
 22 40  1  0  0  0  0
 22 41  1  0  0  0  0
 23 24  1  0  0  0  0
 23 42  1  0  0  0  0
M  END
> <PUBCHEM_COMPOUND_CID>
440723

> <PUBCHEM_CONFORMER_RMSD>
1

> <PUBCHEM_CONFORMER_DIVERSEORDER>
2
7
48
36
42
49
12
25
29
37
21
9
35
47
30
46
17
6
5
43
45
14
32
50
10
38
26
22
13
34
1
27
52
23
40
31
15
16
20
39
28
18
24
33
8
19
51
44
41
3
4
11

> <PUBCHEM_MMFF94_PARTIAL_CHARGES>
25
1 -0.45
10 -0.99
11 0.44
12 0.23
13 0.36
14 0.28
15 0.58
18 0.66
19 0.57
2 -0.57
20 0.06
23 0.33
24 0.66
3 -0.65
34 0.37
37 0.5
4 -0.57
43 0.36
44 0.36
45 0.5
5 -0.57
6 -0.65
7 -0.57
8 -0.59
9 -0.65

> <PUBCHEM_EFFECTIVE_ROTOR_COUNT>
8.8

> <PUBCHEM_PHARMACOPHORE_FEATURES>
14
1 10 cation
1 10 donor
1 2 acceptor
1 3 acceptor
1 4 acceptor
1 5 acceptor
1 6 acceptor
1 7 acceptor
1 9 donor
3 12 16 17 hydrophobe
3 3 4 18 anion
3 6 7 24 anion
4 8 11 14 15 rings
7 1 8 11 12 13 14 15 rings

> <PUBCHEM_HEAVY_ATOM_COUNT>
24

> <PUBCHEM_ATOM_DEF_STEREO_COUNT>
4

> <PUBCHEM_ATOM_UDEF_STEREO_COUNT>
0

> <PUBCHEM_BOND_DEF_STEREO_COUNT>
0

> <PUBCHEM_BOND_UDEF_STEREO_COUNT>
0

> <PUBCHEM_ISOTOPIC_ATOM_COUNT>
0

> <PUBCHEM_COMPONENT_COUNT>
1

> <PUBCHEM_CACTVS_TAUTO_COUNT>
2

> <PUBCHEM_CONFORMER_ID>
0006B99300000002

> <PUBCHEM_MMFF94_ENERGY>
48.9249

> <PUBCHEM_FEATURE_SELFOVERLAP>
74.889

> <PUBCHEM_SHAPE_FINGERPRINT>
11370993 70 18267313032122864728
11640471 11 18113341907604161974
11725454 13 17058955409858984551
12422481 6 18129685074931902384
12633257 1 17488764353479501602
128993 33 18195796372156974040
13583140 156 17845652685092564075
14251751 93 18116985594812666614
14251764 38 18196376050729165877
14787075 74 18411139091928210819
18219364 16 18130788970813821678
192875 21 18188220904081325625
20681677 76 18130504218983091627
21033648 29 17418371437083457517
21095088 737 18262243200923158897
21475661 188 17843413018445139733
21860390 5 18263928907215665302
21864079 5 18188478189833769968
22749437 52 18409733941325565576
23227448 37 18413106130571540475
23557571 272 14129353905004425195
35225 105 17260423056858051104
474 4 18337957903784506123
5048184 11 18340206276499015292
5081480 168 17827052289971930294

> <PUBCHEM_SHAPE_MULTIPOLES>
447.6
8.76
3.32
1.82
2.34
0.09
0.07
4.96
-0.01
3.2
0.09
-1.94
0.1
-0.31

> <PUBCHEM_SHAPE_SELFOVERLAP>
906.575

> <PUBCHEM_SHAPE_VOLUME>
262.6

> <PUBCHEM_COORDINATE_TYPE>
2
5
10

$$$$

