17395919
  -OEChem-06241222533D

 46 47  0     0  0  0  0  0  0999 V2000
   -4.6105   -3.2341   -0.3460 F   0  0  0  0  0  0  0  0  0  0  0  0
   -5.3585   -2.5486    1.5709 F   0  0  0  0  0  0  0  0  0  0  0  0
   -6.5130   -2.1866   -0.2360 F   0  0  0  0  0  0  0  0  0  0  0  0
    0.9612    3.2614   -0.8579 O   0  0  0  0  0  0  0  0  0  0  0  0
    4.8222    1.3619    1.4194 O   0  0  0  0  0  0  0  0  0  0  0  0
   -0.4725    2.2067    0.6333 N   0  0  0  0  0  0  0  0  0  0  0  0
    4.8365   -2.0317   -0.6462 N   0  0  0  0  0  0  0  0  0  0  0  0
    5.7545   -0.7010    1.0707 N   0  0  0  0  0  0  0  0  0  0  0  0
    2.9466    1.2478   -0.6342 C   0  0  0  0  0  0  0  0  0  0  0  0
    1.6420    1.1647    0.1501 C   0  0  0  0  0  0  0  0  0  0  0  0
    3.8655    0.0962   -0.3507 C   0  0  0  0  0  0  0  0  0  0  0  0
   -2.5589    2.8897   -0.5028 C   0  0  0  0  0  0  0  0  0  0  0  0
   -1.5308    3.1887    0.5856 C   0  0  0  0  0  0  0  0  0  0  0  0
    3.9080   -1.0821   -1.0086 C   0  0  0  0  0  0  0  0  0  0  0  0
   -3.2579    1.5672   -0.3047 C   0  0  0  0  0  0  0  0  0  0  0  0
    0.6975    2.3299   -0.1026 C   0  0  0  0  0  0  0  0  0  0  0  0
    4.8508    0.3095    0.7854 C   0  0  0  0  0  0  0  0  0  0  0  0
   -4.4345    1.5055    0.4421 C   0  0  0  0  0  0  0  0  0  0  0  0
   -2.7278    0.4064   -0.8679 C   0  0  0  0  0  0  0  0  0  0  0  0
    2.9916   -1.4747   -2.1329 C   0  0  0  0  0  0  0  0  0  0  0  0
    5.7214   -1.7979    0.3737 C   0  0  0  0  0  0  0  0  0  0  0  0
   -4.5505   -0.8776    0.0623 C   0  0  0  0  0  0  0  0  0  0  0  0
   -5.0807    0.2831    0.6256 C   0  0  0  0  0  0  0  0  0  0  0  0
   -3.3740   -0.8160   -0.6845 C   0  0  0  0  0  0  0  0  0  0  0  0
    6.7131   -2.8838    0.6965 C   0  0  0  0  0  0  0  0  0  0  0  0
   -5.2412   -2.1846    0.2595 C   0  0  0  0  0  0  0  0  0  0  0  0
    3.4485    2.2013   -0.4264 H   0  0  0  0  0  0  0  0  0  0  0  0
    2.7244    1.2976   -1.7075 H   0  0  0  0  0  0  0  0  0  0  0  0
    1.8533    1.1351    1.2265 H   0  0  0  0  0  0  0  0  0  0  0  0
    1.1080    0.2405   -0.1049 H   0  0  0  0  0  0  0  0  0  0  0  0
   -2.0766    2.8982   -1.4890 H   0  0  0  0  0  0  0  0  0  0  0  0
   -3.3046    3.6943   -0.5290 H   0  0  0  0  0  0  0  0  0  0  0  0
   -1.0919    4.1779    0.4145 H   0  0  0  0  0  0  0  0  0  0  0  0
   -2.0037    3.1970    1.5739 H   0  0  0  0  0  0  0  0  0  0  0  0
   -0.6014    1.3961    1.2322 H   0  0  0  0  0  0  0  0  0  0  0  0
    4.8421   -2.9042   -1.1639 H   0  0  0  0  0  0  0  0  0  0  0  0
   -4.8560    2.4026    0.8877 H   0  0  0  0  0  0  0  0  0  0  0  0
   -1.8131    0.4404   -1.4538 H   0  0  0  0  0  0  0  0  0  0  0  0
    2.1873   -0.7554   -2.3063 H   0  0  0  0  0  0  0  0  0  0  0  0
    2.5162   -2.4376   -1.9149 H   0  0  0  0  0  0  0  0  0  0  0  0
    3.5591   -1.5754   -3.0641 H   0  0  0  0  0  0  0  0  0  0  0  0
   -5.9965    0.2448    1.2096 H   0  0  0  0  0  0  0  0  0  0  0  0
   -2.9457   -1.7090   -1.1313 H   0  0  0  0  0  0  0  0  0  0  0  0
    7.3382   -3.0761   -0.1801 H   0  0  0  0  0  0  0  0  0  0  0  0
    7.3516   -2.5899    1.5341 H   0  0  0  0  0  0  0  0  0  0  0  0
    6.1763   -3.7997    0.9596 H   0  0  0  0  0  0  0  0  0  0  0  0
  1 26  1  0  0  0  0
  2 26  1  0  0  0  0
  3 26  1  0  0  0  0
  4 16  2  0  0  0  0
  5 17  2  0  0  0  0
  6 13  1  0  0  0  0
  6 16  1  0  0  0  0
  6 35  1  0  0  0  0
  7 14  1  0  0  0  0
  7 21  1  0  0  0  0
  7 36  1  0  0  0  0
  8 17  1  0  0  0  0
  8 21  2  0  0  0  0
  9 10  1  0  0  0  0
  9 11  1  0  0  0  0
  9 27  1  0  0  0  0
  9 28  1  0  0  0  0
 10 16  1  0  0  0  0
 10 29  1  0  0  0  0
 10 30  1  0  0  0  0
 11 14  2  0  0  0  0
 11 17  1  0  0  0  0
 12 13  1  0  0  0  0
 12 15  1  0  0  0  0
 12 31  1  0  0  0  0
 12 32  1  0  0  0  0
 13 33  1  0  0  0  0
 13 34  1  0  0  0  0
 14 20  1  0  0  0  0
 15 18  2  0  0  0  0
 15 19  1  0  0  0  0
 18 23  1  0  0  0  0
 18 37  1  0  0  0  0
 19 24  2  0  0  0  0
 19 38  1  0  0  0  0
 20 39  1  0  0  0  0
 20 40  1  0  0  0  0
 20 41  1  0  0  0  0
 21 25  1  0  0  0  0
 22 23  2  0  0  0  0
 22 24  1  0  0  0  0
 22 26  1  0  0  0  0
 23 42  1  0  0  0  0
 24 43  1  0  0  0  0
 25 44  1  0  0  0  0
 25 45  1  0  0  0  0
 25 46  1  0  0  0  0
M  END
> <PUBCHEM_COMPOUND_CID>
17395919

> <PUBCHEM_CONFORMER_RMSD>
0.8

> <PUBCHEM_CONFORMER_DIVERSEORDER>
1
95
2
8
117
67
121
216
38
126
222
207
48
213
32
73
182
52
56
111
177
187
14
57
113
141
13
125
120
83
6
212
220
109
51
45
175
183
63
116
123
134
81
79
170
174
199
107
106
19
163
191
94
200
31
124
16
34
75
46
36
112
54
158
217
66
161
98
85
55
118
184
29
24
168
155
205
103
114
110
201
137
154
152
169
92
62
149
218
145
128
58
21
203
18
72
159
25
144
229
77
173
135
192
146
165
27
42
68
136
139
93
189
195
101
138
208
35
87
211
108
194
209
49
105
221
96
41
59
104
65
47
15
100
10
86
99
179
224
178
153
64
28
76
80
115
219
156
60
70
39
130
88
198
12
129
17
22
181
122
97
37
119
143
33
228
171
226
185
61
74
78
11
172
150
204
133
90
142
4
53
50
5
40
164
210
102
44
176
3
84
162
167
127
206
20
23
223
225
147
148
30
197
9
188
26
202
151
190
180
89
166
43
193
215
82
131
7
157
71
140
227
91
69
160
214
196
186
132

> <PUBCHEM_MMFF94_PARTIAL_CHARGES>
32
1 -0.34
10 0.06
11 -0.12
12 0.14
13 0.3
14 -0.04
15 -0.14
16 0.57
17 0.77
18 -0.15
19 -0.15
2 -0.34
20 0.14
21 0.44
22 -0.14
23 -0.15
24 -0.15
25 0.06
26 1.16
3 -0.34
35 0.37
36 0.4
37 0.15
38 0.15
4 -0.57
42 0.15
43 0.15
5 -0.57
6 -0.73
7 -0.55
8 -0.66
9 0.14

> <PUBCHEM_EFFECTIVE_ROTOR_COUNT>
8

> <PUBCHEM_PHARMACOPHORE_FEATURES>
7
1 4 acceptor
1 5 acceptor
1 6 donor
1 7 donor
1 8 donor
6 15 18 19 22 23 24 rings
6 7 8 11 14 17 21 rings

> <PUBCHEM_HEAVY_ATOM_COUNT>
26

> <PUBCHEM_ATOM_DEF_STEREO_COUNT>
0

> <PUBCHEM_ATOM_UDEF_STEREO_COUNT>
0

> <PUBCHEM_BOND_DEF_STEREO_COUNT>
0

> <PUBCHEM_BOND_UDEF_STEREO_COUNT>
0

> <PUBCHEM_ISOTOPIC_ATOM_COUNT>
0

> <PUBCHEM_COMPONENT_COUNT>
1

> <PUBCHEM_CACTVS_TAUTO_COUNT>
6

> <PUBCHEM_CONFORMER_ID>
010970CF00000001

> <PUBCHEM_MMFF94_ENERGY>
48.5164

> <PUBCHEM_FEATURE_SELFOVERLAP>
35.559

> <PUBCHEM_SHAPE_FINGERPRINT>
10074138 170 17315900333535798057
10939801 23 18335141943669688646
117089 54 18198895916837587387
11796584 16 18268154330164084456
11828532 37 17986105198505773827
12107183 9 18262219072762657377
12166972 35 17703784834527651558
12422481 6 17676774257570414990
12633257 1 15647061434161584705
12643181 29 18341619282158572613
13911852 28 18265896848778124887
14211702 104 18411980260829403586
14216079 64 18338234865657845927
14251751 18 18411136943694813536
14420673 8 18339076094583384705
14848178 96 9727363415173199549
14866123 147 18410004473606730113
15510800 12 18187926230627962471
15575132 122 9943803383498402225
15728490 83 18343292695927838267
17349148 13 17489018383641674704
17492 89 18411982438177953452
17627616 140 17773887582622565291
1979834 28 17530951484512319974
20843269 155 18412830196213372490
21315759 227 18411419552669504558
21623969 137 17749108902663230182
22122407 14 15575003921923397233
23424784 1240 18115018718898098382
23559900 14 18337122223308244233
23572383 38 18262240035468783261
25122255 55 18338793524274027624
2748736 6 8430316796800080554
2838139 119 9223239528698365729
312425 54 18041274469364139713
316301 35 18338520837106340248
329604 57 18412822469445627892
4073 2 18263364862219682272
439807 62 18272647944176841535
44062 13 18271807960311686573
484985 159 18338515352591845857
5104073 3 18186519916754519768
54583773 228 18411130361103366238
56633871 153 18189617134295242895
6431902 208 18409737269798645438
7970288 3 18412829070752586395
8863177 126 18408323311262801736

> <PUBCHEM_SHAPE_MULTIPOLES>
486.56
17.71
4.07
1.22
6.08
0.01
0.2
16.64
-4.37
-3.13
-0.23
0.94
0.32
0.61

> <PUBCHEM_SHAPE_SELFOVERLAP>
1018.308

> <PUBCHEM_SHAPE_VOLUME>
275.2

> <PUBCHEM_COORDINATE_TYPE>
2
5
10

$$$$

