53297444
  -OEChem-07051213152D

 39 41  0     1  0  0  0  0  0999 V2000
    5.2619   -1.2657    0.0000 O   0  0  0  0  0  0  0  0  0  0  0  0
    3.5080    1.7658    0.0000 O   0  0  0  0  0  0  0  0  0  0  0  0
    2.2729   -2.5210    0.0000 O   0  0  0  0  0  0  0  0  0  0  0  0
    7.0479    1.7794    0.0000 O   0  0  0  0  0  0  0  0  0  0  0  0
    7.9154    1.2210    0.0000 O   0  0  0  0  0  0  0  0  0  0  0  0
    4.3958   -2.7657    0.0000 O   0  0  0  0  0  0  0  0  0  0  0  0
    7.8807   -1.7788    0.0000 O   0  0  0  0  0  0  0  0  0  0  0  0
    9.6358    0.2011    0.0000 O   0  0  0  0  0  0  0  0  0  0  0  0
    3.5298   -0.2657    0.0000 C   0  0  0  0  0  0  0  0  0  0  0  0
    2.5836    0.0390    0.0000 C   0  0  0  0  0  0  0  0  0  0  0  0
    4.3958    0.2343    0.0000 C   0  0  0  0  0  0  0  0  0  0  0  0
    3.5298   -1.2657    0.0000 C   0  0  0  0  0  0  0  0  0  0  0  0
    5.2619   -0.2657    0.0000 C   0  0  0  0  0  0  0  0  0  0  0  0
    2.0000   -0.7657    0.0000 C   0  0  0  0  0  0  0  0  0  0  0  0
    6.1719    0.2411    0.0000 C   0  0  0  0  0  0  0  0  0  0  0  0
    7.0321   -0.2688    0.0000 C   0  0  2  0  0  0  0  0  0  0  0  0
    2.5836   -1.5704    0.0000 C   0  0  0  0  0  0  0  0  0  0  0  0
    4.3798    1.2758    0.0000 C   0  0  0  0  0  0  0  0  0  0  0  0
    6.1799    1.2828    0.0000 C   0  0  0  0  0  0  0  0  0  0  0  0
    4.3958   -1.7657    0.0000 C   0  0  0  0  0  0  0  0  0  0  0  0
    7.9038    0.2211    0.0000 C   0  0  2  0  0  0  0  0  0  0  0  0
    5.2778    1.8036    0.0000 C   0  0  0  0  0  0  0  0  0  0  0  0
    7.0205   -1.2688    0.0000 C   0  0  0  0  0  0  0  0  0  0  0  0
    8.7640   -0.2889    0.0000 C   0  0  0  0  0  0  0  0  0  0  0  0
    3.4965    2.7657    0.0000 C   0  0  0  0  0  0  0  0  0  0  0  0
    2.8346    0.6059    0.0000 H   0  0  0  0  0  0  0  0  0  0  0  0
    2.0462    0.3483    0.0000 H   0  0  0  0  0  0  0  0  0  0  0  0
    1.5391   -0.3510    0.0000 H   0  0  0  0  0  0  0  0  0  0  0  0
    1.5391   -1.1804    0.0000 H   0  0  0  0  0  0  0  0  0  0  0  0
    7.5654   -0.5850    0.0000 H   0  0  0  0  0  0  0  0  0  0  0  0
    7.3705    0.5373    0.0000 H   0  0  0  0  0  0  0  0  0  0  0  0
    5.2754    2.4236    0.0000 H   0  0  0  0  0  0  0  0  0  0  0  0
    6.4800   -1.5725    0.0000 H   0  0  0  0  0  0  0  0  0  0  0  0
    8.7568   -0.9088    0.0000 H   0  0  0  0  0  0  0  0  0  0  0  0
    7.0502    2.3994    0.0000 H   0  0  0  0  0  0  0  0  0  0  0  0
    8.4559    1.5248    0.0000 H   0  0  0  0  0  0  0  0  0  0  0  0
    4.1164    2.7729    0.0000 H   0  0  0  0  0  0  0  0  0  0  0  0
    3.4893    3.3856    0.0000 H   0  0  0  0  0  0  0  0  0  0  0  0
    2.8765    2.7585    0.0000 H   0  0  0  0  0  0  0  0  0  0  0  0
  1 13  1  0  0  0  0
  1 20  1  0  0  0  0
  2 18  1  0  0  0  0
  2 25  1  0  0  0  0
  3 17  2  0  0  0  0
  4 19  1  0  0  0  0
  4 35  1  0  0  0  0
 21  5  1  1  0  0  0
  5 36  1  0  0  0  0
  6 20  2  0  0  0  0
  7 23  2  0  0  0  0
  8 24  2  0  0  0  0
  9 10  1  0  0  0  0
  9 11  1  0  0  0  0
  9 12  2  0  0  0  0
 10 14  1  0  0  0  0
 10 26  1  0  0  0  0
 10 27  1  0  0  0  0
 11 13  1  0  0  0  0
 11 18  2  0  0  0  0
 12 17  1  0  0  0  0
 12 20  1  0  0  0  0
 13 15  2  0  0  0  0
 14 17  1  0  0  0  0
 14 28  1  0  0  0  0
 14 29  1  0  0  0  0
 15 16  1  0  0  0  0
 15 19  1  0  0  0  0
 16 21  1  0  0  0  0
 16 23  1  6  0  0  0
 16 30  1  0  0  0  0
 18 22  1  0  0  0  0
 19 22  2  0  0  0  0
 21 24  1  0  0  0  0
 21 31  1  0  0  0  0
 22 32  1  0  0  0  0
 23 33  1  0  0  0  0
 24 34  1  0  0  0  0
 25 37  1  0  0  0  0
 25 38  1  0  0  0  0
 25 39  1  0  0  0  0
M  END
> <PUBCHEM_COMPOUND_CID>
53297444

> <PUBCHEM_COMPOUND_CANONICALIZED>
1

> <PUBCHEM_CACTVS_COMPLEXITY>
639

> <PUBCHEM_CACTVS_HBOND_ACCEPTOR>
8

> <PUBCHEM_CACTVS_HBOND_DONOR>
2

> <PUBCHEM_CACTVS_ROTATABLE_BOND>
5

> <PUBCHEM_CACTVS_SUBSKEYS>
AAADccB4PAAAAAAAAAAAAAAAAAAAAQAAAAAwQAAAAAAAAEiBAAAAGgAACAAADRSgmAIyDoAABgCIAqjSiAICCAAgIAAAiAFGCMgMNzaONBqCeiCl4BUIuQfL7PzOoAACCAAIAABAAAQQABAAAAAAAAAAAA==

> <PUBCHEM_IUPAC_OPENEYE_NAME>
(2R,3R)-2-hydroxy-3-(7-hydroxy-9-methoxy-3,4-dioxo-1,2-dihydrocyclopenta[c]chromen-6-yl)butanedial

> <PUBCHEM_IUPAC_CAS_NAME>
(2R,3R)-2-hydroxy-3-(7-hydroxy-9-methoxy-3,4-dioxo-1,2-dihydrocyclopenta[c][1]benzopyran-6-yl)butanedial

> <PUBCHEM_IUPAC_NAME>
(2R,3R)-2-hydroxy-3-(7-hydroxy-9-methoxy-3,4-dioxo-1,2-dihydrocyclopenta[c]chromen-6-yl)butanedial

> <PUBCHEM_IUPAC_SYSTEMATIC_NAME>
(2R,3R)-2-[9-methoxy-7-oxidanyl-3,4-bis(oxidanylidene)-1,2-dihydrocyclopenta[c]chromen-6-yl]-3-oxidanyl-butanedial

> <PUBCHEM_IUPAC_TRADITIONAL_NAME>
(2R,3R)-2-hydroxy-3-(7-hydroxy-3,4-diketo-9-methoxy-1,2-dihydrocyclopenta[c]chromen-6-yl)succinaldehyde

> <PUBCHEM_IUPAC_INCHI>
InChI=1S/C17H14O8/c1-24-12-4-10(21)13(8(5-18)11(22)6-19)16-15(12)7-2-3-9(20)14(7)17(23)25-16/h4-6,8,11,21-22H,2-3H2,1H3/t8-,11-/m0/s1

> <PUBCHEM_IUPAC_INCHIKEY>
NEKLVYMOASMWTN-KWQFWETISA-N

> <PUBCHEM_XLOGP3_AA>
-0.7

> <PUBCHEM_EXACT_MASS>
346.068867

> <PUBCHEM_MOLECULAR_FORMULA>
C17H14O8

> <PUBCHEM_MOLECULAR_WEIGHT>
346.28826

> <PUBCHEM_OPENEYE_CAN_SMILES>
COC1=CC(=C(C2=C1C3=C(C(=O)CC3)C(=O)O2)C(C=O)C(C=O)O)O

> <PUBCHEM_OPENEYE_ISO_SMILES>
COC1=CC(=C(C2=C1C3=C(C(=O)CC3)C(=O)O2)[C@@H](C=O)[C@H](C=O)O)O

> <PUBCHEM_CACTVS_TPSA>
127

> <PUBCHEM_MONOISOTOPIC_WEIGHT>
346.068867

> <PUBCHEM_TOTAL_CHARGE>
0

> <PUBCHEM_HEAVY_ATOM_COUNT>
25

> <PUBCHEM_ATOM_DEF_STEREO_COUNT>
2

> <PUBCHEM_ATOM_UDEF_STEREO_COUNT>
0

> <PUBCHEM_BOND_DEF_STEREO_COUNT>
0

> <PUBCHEM_BOND_UDEF_STEREO_COUNT>
0

> <PUBCHEM_ISOTOPIC_ATOM_COUNT>
0

> <PUBCHEM_COMPONENT_COUNT>
1

> <PUBCHEM_CACTVS_TAUTO_COUNT>
375

> <PUBCHEM_COORDINATE_TYPE>
1
5
255

> <PUBCHEM_BONDANNOTATIONS>
1  13  8
1  20  8
11  13  8
11  18  8
12  20  8
13  15  8
15  19  8
16  23  6
18  22  8
19  22  8
21  5  5
9  11  8
9  12  8

$$$$

