440589
  -OEChem-07051212503D

 44 49  0     1  0  0  0  0  0999 V2000
   -4.1752    2.3198   -0.3292 O   0  0  0  0  0  0  0  0  0  0  0  0
   -5.7850    0.5408   -0.1408 O   0  0  0  0  0  0  0  0  0  0  0  0
   -2.4391   -2.8386    0.1415 O   0  0  0  0  0  0  0  0  0  0  0  0
    5.2937    1.8154    0.1869 O   0  0  0  0  0  0  0  0  0  0  0  0
    6.1050   -0.4194   -0.1970 O   0  0  0  0  0  0  0  0  0  0  0  0
    0.0362    1.6066    0.3312 N   0  0  1  0  0  0  0  0  0  0  0  0
    0.5805    0.3342    0.0298 C   0  0  0  0  0  0  0  0  0  0  0  0
   -2.2199    0.8425   -0.2411 C   0  0  0  0  0  0  0  0  0  0  0  0
   -1.2001    1.9394   -0.3824 C   0  0  0  0  0  0  0  0  0  0  0  0
   -0.3151   -0.7523   -0.2003 C   0  0  0  0  0  0  0  0  0  0  0  0
   -1.7778   -0.4994   -0.1650 C   0  0  0  0  0  0  0  0  0  0  0  0
    1.9955    0.1383   -0.0278 C   0  0  0  0  0  0  0  0  0  0  0  0
   -3.5820    1.0969   -0.2369 C   0  0  0  0  0  0  0  0  0  0  0  0
    2.4981   -1.1730   -0.2795 C   0  0  0  0  0  0  0  0  0  0  0  0
   -2.7498   -1.5222   -0.0473 C   0  0  0  0  0  0  0  0  0  0  0  0
    0.2254   -2.0192   -0.4577 C   0  0  0  0  0  0  0  0  0  0  0  0
   -4.5035    0.0838   -0.1315 C   0  0  0  0  0  0  0  0  0  0  0  0
    0.1258    2.0043    1.7352 C   0  0  0  0  0  0  0  0  0  0  0  0
    1.6043   -2.2269   -0.4846 C   0  0  0  0  0  0  0  0  0  0  0  0
    2.9342    1.1895    0.1231 C   0  0  0  0  0  0  0  0  0  0  0  0
   -4.1196   -1.2345   -0.0299 C   0  0  0  0  0  0  0  0  0  0  0  0
    3.8824   -1.4164   -0.3378 C   0  0  0  0  0  0  0  0  0  0  0  0
    4.2849    0.9117    0.0554 C   0  0  0  0  0  0  0  0  0  0  0  0
    4.7465   -0.3582   -0.1646 C   0  0  0  0  0  0  0  0  0  0  0  0
   -5.5693    1.9600   -0.2664 C   0  0  0  0  0  0  0  0  0  0  0  0
    6.4465    0.9636    0.0279 C   0  0  0  0  0  0  0  0  0  0  0  0
   -2.3225   -3.2867    1.4888 C   0  0  0  0  0  0  0  0  0  0  0  0
   -0.9804    2.0842   -1.4480 H   0  0  0  0  0  0  0  0  0  0  0  0
   -1.5964    2.8901   -0.0066 H   0  0  0  0  0  0  0  0  0  0  0  0
   -0.3814   -2.8818   -0.7044 H   0  0  0  0  0  0  0  0  0  0  0  0
    1.1317    1.8742    2.1458 H   0  0  0  0  0  0  0  0  0  0  0  0
   -0.5702    1.4219    2.3496 H   0  0  0  0  0  0  0  0  0  0  0  0
   -0.1308    3.0637    1.8426 H   0  0  0  0  0  0  0  0  0  0  0  0
    1.9716   -3.2298   -0.6964 H   0  0  0  0  0  0  0  0  0  0  0  0
    2.6167    2.2157    0.2838 H   0  0  0  0  0  0  0  0  0  0  0  0
   -4.8595   -2.0223    0.0687 H   0  0  0  0  0  0  0  0  0  0  0  0
    4.2736   -2.4129   -0.5236 H   0  0  0  0  0  0  0  0  0  0  0  0
   -6.0643    2.3114   -1.1790 H   0  0  0  0  0  0  0  0  0  0  0  0
   -6.0231    2.4622    0.5957 H   0  0  0  0  0  0  0  0  0  0  0  0
    7.0608    1.0311    0.9332 H   0  0  0  0  0  0  0  0  0  0  0  0
    7.0343    1.3234   -0.8244 H   0  0  0  0  0  0  0  0  0  0  0  0
   -1.9390   -4.3106    1.4772 H   0  0  0  0  0  0  0  0  0  0  0  0
   -3.3028   -3.2874    1.9756 H   0  0  0  0  0  0  0  0  0  0  0  0
   -1.6258   -2.6596    2.0545 H   0  0  0  0  0  0  0  0  0  0  0  0
  1 13  1  0  0  0  0
  1 25  1  0  0  0  0
  2 17  1  0  0  0  0
  2 25  1  0  0  0  0
  3 15  1  0  0  0  0
  3 27  1  0  0  0  0
  4 23  1  0  0  0  0
  4 26  1  0  0  0  0
  5 24  1  0  0  0  0
  5 26  1  0  0  0  0
  6  7  1  0  0  0  0
  6  9  1  0  0  0  0
  6 18  1  0  0  0  0
  7 10  2  0  0  0  0
  7 12  1  0  0  0  0
  8  9  1  0  0  0  0
  8 11  1  0  0  0  0
  8 13  2  0  0  0  0
  9 28  1  0  0  0  0
  9 29  1  0  0  0  0
 10 11  1  0  0  0  0
 10 16  1  0  0  0  0
 11 15  2  0  0  0  0
 12 14  1  0  0  0  0
 12 20  2  0  0  0  0
 13 17  1  0  0  0  0
 14 19  1  0  0  0  0
 14 22  2  0  0  0  0
 15 21  1  0  0  0  0
 16 19  2  0  0  0  0
 16 30  1  0  0  0  0
 17 21  2  0  0  0  0
 18 31  1  0  0  0  0
 18 32  1  0  0  0  0
 18 33  1  0  0  0  0
 19 34  1  0  0  0  0
 20 23  1  0  0  0  0
 20 35  1  0  0  0  0
 21 36  1  0  0  0  0
 22 24  1  0  0  0  0
 22 37  1  0  0  0  0
 23 24  2  0  0  0  0
 25 38  1  0  0  0  0
 25 39  1  0  0  0  0
 26 40  1  0  0  0  0
 26 41  1  0  0  0  0
 27 42  1  0  0  0  0
 27 43  1  0  0  0  0
 27 44  1  0  0  0  0
M  END
> <PUBCHEM_COMPOUND_CID>
440589

> <PUBCHEM_CONFORMER_RMSD>
0.6

> <PUBCHEM_CONFORMER_DIVERSEORDER>
1
2

> <PUBCHEM_MMFF94_PARTIAL_CHARGES>
28
1 -0.36
13 0.08
15 0.08
16 -0.15
17 0.08
18 0.37
19 -0.15
2 -0.36
20 -0.15
21 -0.15
22 -0.15
23 0.08
24 0.08
25 0.56
26 0.56
27 0.28
3 -0.36
30 0.15
34 0.15
35 0.15
36 0.15
37 0.15
4 -0.36
5 -0.36
6 -0.84
7 0.1
8 -0.14
9 0.51

> <PUBCHEM_EFFECTIVE_ROTOR_COUNT>
2.6

> <PUBCHEM_PHARMACOPHORE_FEATURES>
12
1 1 acceptor
1 2 acceptor
1 3 acceptor
1 4 acceptor
1 5 acceptor
1 6 cation
5 1 2 13 17 25 rings
5 4 5 23 24 26 rings
6 12 14 20 22 23 24 rings
6 6 7 8 9 10 11 rings
6 7 10 12 14 16 19 rings
6 8 11 13 15 17 21 rings

> <PUBCHEM_HEAVY_ATOM_COUNT>
27

> <PUBCHEM_ATOM_DEF_STEREO_COUNT>
0

> <PUBCHEM_ATOM_UDEF_STEREO_COUNT>
0

> <PUBCHEM_BOND_DEF_STEREO_COUNT>
0

> <PUBCHEM_BOND_UDEF_STEREO_COUNT>
0

> <PUBCHEM_ISOTOPIC_ATOM_COUNT>
0

> <PUBCHEM_COMPONENT_COUNT>
1

> <PUBCHEM_CACTVS_TAUTO_COUNT>
1

> <PUBCHEM_CONFORMER_ID>
0006B90D00000001

> <PUBCHEM_MMFF94_ENERGY>
116.3622

> <PUBCHEM_FEATURE_SELFOVERLAP>
61.268

> <PUBCHEM_SHAPE_FINGERPRINT>
10 15 18273211980466747728
10411042 1 17835238940162973747
10675989 125 17620197967667150925
10835480 77 18335145263189629568
10906281 52 18114728430474058817
11045977 3 18334296448617752544
11112241 14 16373002901438161048
11315181 36 17676485030109149936
11488393 25 17024288916416132054
12011746 2 18408047308021678861
12035758 1 18270942593511007155
12236239 1 18060702784472043676
12403259 415 18115029602460985080
12788726 201 17823136898515384688
13140716 1 18050558552834376379
13402501 40 18407760330611561087
14765038 42 18115571777731565897
14787075 74 18334582368953959021
14790565 3 18337669711737413884
15196674 1 18409167722764829862
1601671 61 18408325488336733408
17980427 23 17917143901628982318
18608769 82 18411697644140829131
19591789 44 18119530942603033758
200 152 17894915147964561620
20642791 178 18129089031443387300
20681677 155 18272091595350498363
20715895 44 18340770445848823388
21033648 29 18114755824081311472
21236236 1 18408887300392820775
21267235 1 18410568462277423095
21279426 13 18336543944583979247
21421861 104 17845385512483283346
21857420 4 12875704331595446468
21859007 373 17129035050675313597
22182313 1 18189312646213925478
23402539 116 18333737892536915318
23558518 356 17392747481490202233
23559900 14 18335425638680787488
23569914 152 16668510206319896780
3004659 81 18412262878826531846
335352 9 18409449215528000062
3380486 145 18265315262618812691
34934 24 18409733979880226191
350125 39 18336263449708890851
3545911 37 18410574002690159548
3680242 22 18268713985919469874
4073 2 18130221567733831754
4214541 1 18411419505330048117
4340502 62 17275100660889197954
5104073 3 18341890839697107891
5171179 24 17680159473077340369
5283173 99 18411420643538858920
7226269 152 18333448768118442625
9709674 26 18408879659298153542
9981440 41 18343017787671474811

> <PUBCHEM_SHAPE_MULTIPOLES>
521.32
12.85
2.93
0.86
7.55
1.28
-0.32
-4.8
1.04
-2.1
-0.6
-0.19
0.07
1.08

> <PUBCHEM_SHAPE_SELFOVERLAP>
1202.607

> <PUBCHEM_SHAPE_VOLUME>
268.4

> <PUBCHEM_COORDINATE_TYPE>
2
5
10

$$$$

