582824
  -OEChem-06241222443D

 34 35  0     1  0  0  0  0  0999 V2000
    1.2804   -0.5547   -0.2586 O   0  0  0  0  0  0  0  0  0  0  0  0
    4.6684    0.5631    0.6105 O   0  0  0  0  0  0  0  0  0  0  0  0
    2.7076   -2.4468   -1.6464 O   0  0  0  0  0  0  0  0  0  0  0  0
   -1.4162    2.3542   -1.3533 O   0  0  0  0  0  0  0  0  0  0  0  0
   -4.7681   -0.4460    0.0862 O   0  0  0  0  0  0  0  0  0  0  0  0
   -0.8103    0.4428   -0.1577 N   0  0  0  0  0  0  0  0  0  0  0  0
   -3.0780    0.9492   -0.6289 N   0  0  0  0  0  0  0  0  0  0  0  0
    3.2759    0.3480    0.8011 C   0  0  1  0  0  0  0  0  0  0  0  0
    0.6043    0.7006   -0.2093 C   0  0  1  0  0  0  0  0  0  0  0  0
    2.5717    1.6920    0.9809 C   0  0  0  0  0  0  0  0  0  0  0  0
    1.0600    1.5091    1.0026 C   0  0  0  0  0  0  0  0  0  0  0  0
    2.6970   -0.4083   -0.4004 C   0  0  1  0  0  0  0  0  0  0  0  0
    3.2936   -1.8063   -0.5276 C   0  0  0  0  0  0  0  0  0  0  0  0
   -1.2515   -0.6994    0.4980 C   0  0  0  0  0  0  0  0  0  0  0  0
   -1.7358    1.3242   -0.7561 C   0  0  0  0  0  0  0  0  0  0  0  0
   -2.5365   -1.0552    0.6180 C   0  0  0  0  0  0  0  0  0  0  0  0
   -3.5722   -0.1765    0.0125 C   0  0  0  0  0  0  0  0  0  0  0  0
   -2.9903   -2.2898    1.3285 C   0  0  0  0  0  0  0  0  0  0  0  0
    3.1376   -0.2369    1.7195 H   0  0  0  0  0  0  0  0  0  0  0  0
    0.8233    1.2553   -1.1309 H   0  0  0  0  0  0  0  0  0  0  0  0
    0.7885    0.9847    1.9280 H   0  0  0  0  0  0  0  0  0  0  0  0
    0.5622    2.4851    1.0299 H   0  0  0  0  0  0  0  0  0  0  0  0
    2.8548    2.3701    0.1654 H   0  0  0  0  0  0  0  0  0  0  0  0
    2.9139    2.1756    1.9035 H   0  0  0  0  0  0  0  0  0  0  0  0
    2.8984    0.1324   -1.3353 H   0  0  0  0  0  0  0  0  0  0  0  0
    3.0672   -2.4090    0.3583 H   0  0  0  0  0  0  0  0  0  0  0  0
    4.3763   -1.7746   -0.6780 H   0  0  0  0  0  0  0  0  0  0  0  0
   -0.4933   -1.3235    0.9599 H   0  0  0  0  0  0  0  0  0  0  0  0
    5.1215   -0.2872    0.7373 H   0  0  0  0  0  0  0  0  0  0  0  0
   -3.7629    1.5691   -1.0525 H   0  0  0  0  0  0  0  0  0  0  0  0
    3.0961   -3.3363   -1.7041 H   0  0  0  0  0  0  0  0  0  0  0  0
   -3.6483   -2.0300    2.1642 H   0  0  0  0  0  0  0  0  0  0  0  0
   -2.1489   -2.8622    1.7334 H   0  0  0  0  0  0  0  0  0  0  0  0
   -3.5389   -2.9450    0.6441 H   0  0  0  0  0  0  0  0  0  0  0  0
  1  9  1  0  0  0  0
  1 12  1  0  0  0  0
  2  8  1  0  0  0  0
  2 29  1  0  0  0  0
  3 13  1  0  0  0  0
  3 31  1  0  0  0  0
  4 15  2  0  0  0  0
  5 17  2  0  0  0  0
  6  9  1  0  0  0  0
  6 14  1  0  0  0  0
  6 15  1  0  0  0  0
  7 15  1  0  0  0  0
  7 17  1  0  0  0  0
  7 30  1  0  0  0  0
  8 10  1  0  0  0  0
  8 12  1  0  0  0  0
  8 19  1  0  0  0  0
  9 11  1  0  0  0  0
  9 20  1  0  0  0  0
 10 11  1  0  0  0  0
 10 23  1  0  0  0  0
 10 24  1  0  0  0  0
 11 21  1  0  0  0  0
 11 22  1  0  0  0  0
 12 13  1  0  0  0  0
 12 25  1  0  0  0  0
 13 26  1  0  0  0  0
 13 27  1  0  0  0  0
 14 16  2  0  0  0  0
 14 28  1  0  0  0  0
 16 17  1  0  0  0  0
 16 18  1  0  0  0  0
 18 32  1  0  0  0  0
 18 33  1  0  0  0  0
 18 34  1  0  0  0  0
M  END
> <PUBCHEM_COMPOUND_CID>
582824

> <PUBCHEM_CONFORMER_RMSD>
0.6

> <PUBCHEM_CONFORMER_DIVERSEORDER>
1
89
75
40
108
50
57
76
100
99
25
85
27
8
47
74
41
63
38
62
87
66
67
34
68
49
7
91
98
20
104
83
103
31
97
81
70
10
80
33
53
93
84
110
72
102
37
109
26
29
46
73
92
60
82
3
86
88
39
36
42
95
78
54
24
16
56
32
15
107
58
18
55
77
61
5
23
105
13
71
9
52
94
65
30
11
17
43
28
22
51
79
19
96
45
106
12
90
14
59
6
35
101
2
69
4
48
44
21
64

> <PUBCHEM_MMFF94_PARTIAL_CHARGES>
20
1 -0.56
12 0.28
13 0.28
14 -0.04
15 0.69
16 -0.12
17 0.62
18 0.14
2 -0.68
28 0.15
29 0.4
3 -0.68
30 0.37
31 0.4
4 -0.57
5 -0.57
6 -0.47
7 -0.49
8 0.28
9 0.58

> <PUBCHEM_EFFECTIVE_ROTOR_COUNT>
3.2

> <PUBCHEM_PHARMACOPHORE_FEATURES>
10
1 1 acceptor
1 2 acceptor
1 2 donor
1 3 acceptor
1 3 donor
1 4 acceptor
1 5 acceptor
1 7 donor
6 1 8 9 10 11 12 rings
6 6 7 14 15 16 17 rings

> <PUBCHEM_HEAVY_ATOM_COUNT>
18

> <PUBCHEM_ATOM_DEF_STEREO_COUNT>
0

> <PUBCHEM_ATOM_UDEF_STEREO_COUNT>
3

> <PUBCHEM_BOND_DEF_STEREO_COUNT>
0

> <PUBCHEM_BOND_UDEF_STEREO_COUNT>
0

> <PUBCHEM_ISOTOPIC_ATOM_COUNT>
0

> <PUBCHEM_COMPONENT_COUNT>
1

> <PUBCHEM_CACTVS_TAUTO_COUNT>
3

> <PUBCHEM_CONFORMER_ID>
0008E4A800000001

> <PUBCHEM_MMFF94_ENERGY>
39.1331

> <PUBCHEM_FEATURE_SELFOVERLAP>
50.749

> <PUBCHEM_SHAPE_FINGERPRINT>
10366900 7 18336270054572241032
1100329 8 14232074198007126595
12236239 1 15647052642363172657
12596602 18 15719680848639630907
13296908 3 18261956353100447558
13544592 145 18339639053021336535
13583140 156 16660650601067717187
14022347 108 17775279470006360089
14115302 16 15769496447697297289
14252887 29 18410004416653582979
14289901 80 17749392529328684059
14386348 63 18411698776967475915
15219456 202 18335707164774742036
15375358 24 18411423894765590578
15635459 17 18335135418886898358
16752209 62 17346329227823936781
16945 1 17988643042502120325
17834074 16 18411136926520368658
18186145 218 18197219363014406668
19049666 15 18265338485069066728
19141452 34 18337106775075134771
200 152 17676213442146959489
20279233 1 18410854343442147618
20510252 161 18341337789944236953
20600515 1 17989209218197930197
20645477 70 18040718107937970982
20693207 138 18265041617167016206
23402539 116 17988376883252056789
23526113 38 18263091057695541426
23557571 272 18272373091923793468
23559900 14 18271246122822950838
2748010 2 18270960142283264611
474 4 15793445941728733208
6049 1 18410007775597641492
69090 78 18335147453669929463
77492 1 15574716880457566561
81228 2 18130781291692163617
8809292 202 18267864063161861246
9709674 26 18411138047538624263

> <PUBCHEM_SHAPE_MULTIPOLES>
331.12
7.86
2.28
1.19
0.51
0.52
-0.08
2.03
0.79
-0.27
-0.39
-0.25
0.13
2.26

> <PUBCHEM_SHAPE_SELFOVERLAP>
688.131

> <PUBCHEM_SHAPE_VOLUME>
186.4

> <PUBCHEM_COORDINATE_TYPE>
2
5
10

$$$$

