253933
  -OEChem-07051213063D

 52 55  0     1  0  0  0  0  0999 V2000
    4.9847    0.9683    0.7377 O   0  0  0  0  0  0  0  0  0  0  0  0
   -5.8722   -0.0367   -0.0467 O   0  0  0  0  0  0  0  0  0  0  0  0
    2.6016    0.4656    0.3684 C   0  0  1  0  0  0  0  0  0  0  0  0
    1.9370   -0.7345   -0.3423 C   0  0  2  0  0  0  0  0  0  0  0  0
    0.4731   -0.9203    0.0654 C   0  0  1  0  0  0  0  0  0  0  0  0
    4.0678    0.3260   -0.1458 C   0  0  2  0  0  0  0  0  0  0  0  0
   -0.3310    0.3536   -0.3364 C   0  0  2  0  0  0  0  0  0  0  0  0
    1.8326    1.7344   -0.0352 C   0  0  0  0  0  0  0  0  0  0  0  0
    2.9164   -1.8774   -0.1007 C   0  0  0  0  0  0  0  0  0  0  0  0
    4.3039   -1.2091   -0.1264 C   0  0  0  0  0  0  0  0  0  0  0  0
    0.3250    1.6229    0.2693 C   0  0  0  0  0  0  0  0  0  0  0  0
   -0.1696   -2.1440   -0.5826 C   0  0  0  0  0  0  0  0  0  0  0  0
    2.5885    0.3566    1.9220 C   0  0  0  0  0  0  0  0  0  0  0  0
   -1.8313    0.1872   -0.0558 C   0  0  0  0  0  0  0  0  0  0  0  0
   -1.5919   -2.3232   -0.0591 C   0  0  0  0  0  0  0  0  0  0  0  0
    4.3317    0.8979   -1.5445 C   0  0  0  0  0  0  0  0  0  0  0  0
   -2.3887   -1.0420    0.0650 C   0  0  0  0  0  0  0  0  0  0  0  0
   -2.6883    1.4471    0.0139 C   0  0  2  0  0  0  0  0  0  0  0  0
   -3.8585   -1.2852    0.3041 C   0  0  0  0  0  0  0  0  0  0  0  0
   -4.0115    1.2319    0.7550 C   0  0  0  0  0  0  0  0  0  0  0  0
   -4.6831   -0.0212    0.2687 C   0  0  0  0  0  0  0  0  0  0  0  0
   -2.9364    2.0019   -1.3939 C   0  0  0  0  0  0  0  0  0  0  0  0
    1.9346   -0.5542   -1.4280 H   0  0  0  0  0  0  0  0  0  0  0  0
    0.4125   -1.0611    1.1520 H   0  0  0  0  0  0  0  0  0  0  0  0
   -0.2516    0.4667   -1.4288 H   0  0  0  0  0  0  0  0  0  0  0  0
    1.9338    1.9201   -1.1111 H   0  0  0  0  0  0  0  0  0  0  0  0
    2.2472    2.6139    0.4716 H   0  0  0  0  0  0  0  0  0  0  0  0
    2.8371   -2.6525   -0.8700 H   0  0  0  0  0  0  0  0  0  0  0  0
    2.7428   -2.3572    0.8690 H   0  0  0  0  0  0  0  0  0  0  0  0
    4.8849   -1.5190    0.7503 H   0  0  0  0  0  0  0  0  0  0  0  0
    4.8662   -1.5399   -1.0072 H   0  0  0  0  0  0  0  0  0  0  0  0
    0.1533    1.6537    1.3514 H   0  0  0  0  0  0  0  0  0  0  0  0
   -0.1472    2.5221   -0.1437 H   0  0  0  0  0  0  0  0  0  0  0  0
    0.4039   -3.0528   -0.3687 H   0  0  0  0  0  0  0  0  0  0  0  0
   -0.1871   -2.0285   -1.6740 H   0  0  0  0  0  0  0  0  0  0  0  0
    3.0454    1.2453    2.3734 H   0  0  0  0  0  0  0  0  0  0  0  0
    1.5814    0.2808    2.3388 H   0  0  0  0  0  0  0  0  0  0  0  0
    3.1466   -0.5122    2.2852 H   0  0  0  0  0  0  0  0  0  0  0  0
   -1.5520   -2.7948    0.9313 H   0  0  0  0  0  0  0  0  0  0  0  0
   -2.1126   -3.0237   -0.7234 H   0  0  0  0  0  0  0  0  0  0  0  0
    4.2228    1.9881   -1.5479 H   0  0  0  0  0  0  0  0  0  0  0  0
    5.3668    0.7021   -1.8493 H   0  0  0  0  0  0  0  0  0  0  0  0
    3.6742    0.4761   -2.3092 H   0  0  0  0  0  0  0  0  0  0  0  0
   -2.1649    2.2160    0.5920 H   0  0  0  0  0  0  0  0  0  0  0  0
    5.8858    0.7367    0.4545 H   0  0  0  0  0  0  0  0  0  0  0  0
   -4.2498   -1.9536   -0.4714 H   0  0  0  0  0  0  0  0  0  0  0  0
   -4.0030   -1.7543    1.2832 H   0  0  0  0  0  0  0  0  0  0  0  0
   -4.6848    2.0851    0.6176 H   0  0  0  0  0  0  0  0  0  0  0  0
   -3.8386    1.1180    1.8321 H   0  0  0  0  0  0  0  0  0  0  0  0
   -3.5329    2.9196   -1.3489 H   0  0  0  0  0  0  0  0  0  0  0  0
   -1.9950    2.2488   -1.8963 H   0  0  0  0  0  0  0  0  0  0  0  0
   -3.4722    1.2833   -2.0240 H   0  0  0  0  0  0  0  0  0  0  0  0
  1  6  1  0  0  0  0
  1 45  1  0  0  0  0
  2 21  2  0  0  0  0
  3  4  1  0  0  0  0
  3  6  1  0  0  0  0
  3  8  1  0  0  0  0
  3 13  1  0  0  0  0
  4  5  1  0  0  0  0
  4  9  1  0  0  0  0
  4 23  1  0  0  0  0
  5  7  1  0  0  0  0
  5 12  1  0  0  0  0
  5 24  1  0  0  0  0
  6 10  1  0  0  0  0
  6 16  1  0  0  0  0
  7 11  1  0  0  0  0
  7 14  1  0  0  0  0
  7 25  1  0  0  0  0
  8 11  1  0  0  0  0
  8 26  1  0  0  0  0
  8 27  1  0  0  0  0
  9 10  1  0  0  0  0
  9 28  1  0  0  0  0
  9 29  1  0  0  0  0
 10 30  1  0  0  0  0
 10 31  1  0  0  0  0
 11 32  1  0  0  0  0
 11 33  1  0  0  0  0
 12 15  1  0  0  0  0
 12 34  1  0  0  0  0
 12 35  1  0  0  0  0
 13 36  1  0  0  0  0
 13 37  1  0  0  0  0
 13 38  1  0  0  0  0
 14 17  2  0  0  0  0
 14 18  1  0  0  0  0
 15 17  1  0  0  0  0
 15 39  1  0  0  0  0
 15 40  1  0  0  0  0
 16 41  1  0  0  0  0
 16 42  1  0  0  0  0
 16 43  1  0  0  0  0
 17 19  1  0  0  0  0
 18 20  1  0  0  0  0
 18 22  1  0  0  0  0
 18 44  1  0  0  0  0
 19 21  1  0  0  0  0
 19 46  1  0  0  0  0
 19 47  1  0  0  0  0
 20 21  1  0  0  0  0
 20 48  1  0  0  0  0
 20 49  1  0  0  0  0
 22 50  1  0  0  0  0
 22 51  1  0  0  0  0
 22 52  1  0  0  0  0
M  END
> <PUBCHEM_COMPOUND_CID>
253933

> <PUBCHEM_CONFORMER_RMSD>
0.6

> <PUBCHEM_CONFORMER_DIVERSEORDER>
1
2

> <PUBCHEM_MMFF94_PARTIAL_CHARGES>
12
1 -0.68
14 -0.28
15 0.14
17 -0.28
18 0.14
19 0.2
2 -0.57
20 0.06
21 0.45
45 0.4
6 0.28
7 0.14

> <PUBCHEM_EFFECTIVE_ROTOR_COUNT>
2

> <PUBCHEM_PHARMACOPHORE_FEATURES>
7
1 1 acceptor
1 1 donor
1 2 acceptor
5 3 4 6 9 10 rings
6 14 17 18 19 20 21 rings
6 3 4 5 7 8 11 rings
6 5 7 12 14 15 17 rings

> <PUBCHEM_HEAVY_ATOM_COUNT>
22

> <PUBCHEM_ATOM_DEF_STEREO_COUNT>
5

> <PUBCHEM_ATOM_UDEF_STEREO_COUNT>
1

> <PUBCHEM_BOND_DEF_STEREO_COUNT>
0

> <PUBCHEM_BOND_UDEF_STEREO_COUNT>
0

> <PUBCHEM_ISOTOPIC_ATOM_COUNT>
0

> <PUBCHEM_COMPONENT_COUNT>
1

> <PUBCHEM_CACTVS_TAUTO_COUNT>
8

> <PUBCHEM_CONFORMER_ID>
0003DFED00000001

> <PUBCHEM_MMFF94_ENERGY>
65.9005

> <PUBCHEM_FEATURE_SELFOVERLAP>
35.611

> <PUBCHEM_SHAPE_FINGERPRINT>
10 15 18341339886278512120
10366900 7 17775563143958788865
10498660 4 18341053011694427653
10616163 171 18337667495149355670
10759866 29 18201712973069904086
10967382 1 18409165540879271342
11578080 2 16628286669525308031
11595378 159 17560532775426613008
12011746 2 18408036312399050895
12107183 9 17693379253507354987
12236239 1 17704354350932017579
12390115 104 18115571781952829209
12403259 226 18410862074847659869
12403259 415 18336552702339027329
12403814 3 17917711305648280685
12596602 18 16773790364455495401
12670546 56 16773800332921731845
12788726 201 17531516693982672232
13140716 1 18122630444100917002
13224815 77 18410299128729912617
13402501 40 18408602573977998435
14178342 30 18046929099142579802
14251751 93 18202289134052707501
14341114 176 18410003347554814283
14790565 3 18337944679675283561
15196674 1 18409165549542929019
15536298 74 18333448763575308230
15788980 27 17275107253690305512
1601671 61 18411133632597087100
16752209 62 18340220612894023559
16945 1 18265625285852775190
17349148 13 18040718078004749945
17804303 29 18336542720797867809
1813 80 17274820263822652068
18186145 218 17749396965776777464
192875 21 5256408322480912338
19591789 44 18266177408040922319
200 152 17968101923960542269
20261772 1 18409446960322055051
20510252 161 18334857255377257625
20645477 56 18408889499162654360
20645477 70 17822568408597470190
21033648 29 18261127291253003353
21267235 1 18338226159131506430
21279426 13 18118398677322556756
21421861 104 17987527060149908402
23402539 116 18336271154716995199
23559900 14 18263363749986728318
2748010 2 18336548316897674591
3004659 81 18341889736565732382
335352 9 18409165540831876926
34934 24 18335705997013220322
350125 39 18410851062736194165
3545911 37 18408884040507075902
4214541 1 18411135865874436505
474 4 16701163167887132028
495365 180 17023195902931046434
5104073 3 18410009978699567859
542803 24 16081084879076574081
69090 78 18334860511083799967
9709674 26 18408879612053597551

> <PUBCHEM_SHAPE_MULTIPOLES>
441.01
10.23
2.22
1.07
2.6
0.48
0.08
-1.29
0.16
0.43
-0.34
-0.65
-0.36
0.28

> <PUBCHEM_SHAPE_SELFOVERLAP>
943.402

> <PUBCHEM_SHAPE_VOLUME>
244

> <PUBCHEM_COORDINATE_TYPE>
2
5
10

$$$$

