4382
  -OEChem-07051212533D

 25 25  0     0  0  0  0  0  0999 V2000
   -2.6342    1.9913   -0.1012 O   0  0  0  0  0  0  0  0  0  0  0  0
   -3.7549   -0.4954   -0.6333 O   0  0  0  0  0  0  0  0  0  0  0  0
    3.9861    0.1212    0.1661 N   0  0  0  0  0  0  0  0  0  0  0  0
    1.6465   -0.1036    0.9528 C   0  0  0  0  0  0  0  0  0  0  0  0
    0.2189   -0.2038    0.5339 C   0  0  0  0  0  0  0  0  0  0  0  0
    2.5896    0.0506   -0.2502 C   0  0  0  0  0  0  0  0  0  0  0  0
   -0.5540    0.9507    0.4093 C   0  0  0  0  0  0  0  0  0  0  0  0
   -0.3438   -1.4520    0.2670 C   0  0  0  0  0  0  0  0  0  0  0  0
   -1.8896    0.8569    0.0178 C   0  0  0  0  0  0  0  0  0  0  0  0
   -1.6793   -1.5458   -0.1245 C   0  0  0  0  0  0  0  0  0  0  0  0
   -2.4521   -0.3914   -0.2491 C   0  0  0  0  0  0  0  0  0  0  0  0
    4.8669    0.2214   -0.9888 C   0  0  0  0  0  0  0  0  0  0  0  0
    1.7735    0.7448    1.6385 H   0  0  0  0  0  0  0  0  0  0  0  0
    1.9220   -0.9941    1.5337 H   0  0  0  0  0  0  0  0  0  0  0  0
    2.3226    0.9606   -0.8027 H   0  0  0  0  0  0  0  0  0  0  0  0
    2.4457   -0.7979   -0.9318 H   0  0  0  0  0  0  0  0  0  0  0  0
   -0.1207    1.9267    0.6142 H   0  0  0  0  0  0  0  0  0  0  0  0
    0.2484   -2.3587    0.3585 H   0  0  0  0  0  0  0  0  0  0  0  0
    4.2252   -0.7129    0.7017 H   0  0  0  0  0  0  0  0  0  0  0  0
   -2.1047   -2.5245   -0.3299 H   0  0  0  0  0  0  0  0  0  0  0  0
    4.6564    1.1241   -1.5714 H   0  0  0  0  0  0  0  0  0  0  0  0
    4.7786   -0.6544   -1.6400 H   0  0  0  0  0  0  0  0  0  0  0  0
    5.9057    0.2844   -0.6499 H   0  0  0  0  0  0  0  0  0  0  0  0
   -3.5318    1.7402   -0.3804 H   0  0  0  0  0  0  0  0  0  0  0  0
   -3.9696   -1.4336   -0.7743 H   0  0  0  0  0  0  0  0  0  0  0  0
  1  9  1  0  0  0  0
  1 24  1  0  0  0  0
  2 11  1  0  0  0  0
  2 25  1  0  0  0  0
  3  6  1  0  0  0  0
  3 12  1  0  0  0  0
  3 19  1  0  0  0  0
  4  5  1  0  0  0  0
  4  6  1  0  0  0  0
  4 13  1  0  0  0  0
  4 14  1  0  0  0  0
  5  7  2  0  0  0  0
  5  8  1  0  0  0  0
  6 15  1  0  0  0  0
  6 16  1  0  0  0  0
  7  9  1  0  0  0  0
  7 17  1  0  0  0  0
  8 10  2  0  0  0  0
  8 18  1  0  0  0  0
  9 11  2  0  0  0  0
 10 11  1  0  0  0  0
 10 20  1  0  0  0  0
 12 21  1  0  0  0  0
 12 22  1  0  0  0  0
 12 23  1  0  0  0  0
M  END
> <PUBCHEM_COMPOUND_CID>
4382

> <PUBCHEM_CONFORMER_RMSD>
0.6

> <PUBCHEM_CONFORMER_DIVERSEORDER>
2
10
4
8
5
3
1
9
7
6

> <PUBCHEM_MMFF94_PARTIAL_CHARGES>
18
1 -0.53
10 -0.15
11 0.08
12 0.27
17 0.15
18 0.15
19 0.36
2 -0.53
20 0.15
24 0.45
25 0.45
3 -0.9
4 0.14
5 -0.14
6 0.27
7 -0.15
8 -0.15
9 0.08

> <PUBCHEM_EFFECTIVE_ROTOR_COUNT>
3

> <PUBCHEM_PHARMACOPHORE_FEATURES>
5
1 1 donor
1 2 donor
1 3 cation
1 3 donor
6 5 7 8 9 10 11 rings

> <PUBCHEM_HEAVY_ATOM_COUNT>
12

> <PUBCHEM_ATOM_DEF_STEREO_COUNT>
0

> <PUBCHEM_ATOM_UDEF_STEREO_COUNT>
0

> <PUBCHEM_BOND_DEF_STEREO_COUNT>
0

> <PUBCHEM_BOND_UDEF_STEREO_COUNT>
0

> <PUBCHEM_ISOTOPIC_ATOM_COUNT>
0

> <PUBCHEM_COMPONENT_COUNT>
1

> <PUBCHEM_CACTVS_TAUTO_COUNT>
18

> <PUBCHEM_CONFORMER_ID>
0000111E00000002

> <PUBCHEM_MMFF94_ENERGY>
20.7041

> <PUBCHEM_FEATURE_SELFOVERLAP>
25.376

> <PUBCHEM_SHAPE_FINGERPRINT>
11206711 2 18337410300128814317
12032990 46 18192153703082818587
12119455 92 13901919885701122962
12186901 62 18335700563325547269
12251169 10 9223235147979104946
12932764 1 17894925017857573242
13024252 1 17846215536250648315
13214271 11 11887952133801197682
14325111 11 18339364166355542546
14911166 2 18337681836524769783
14993402 34 18202569466330513365
15775835 57 18130786810593036340
16945 1 18337408066687811099
18186145 218 17894915152507475264
1986462 14 18187361043349786188
200 152 15574710322612113878
20201158 50 17821723927663867038
20645476 183 17917999338734467227
20645477 70 16805595989516417846
20871999 31 18334859424071984813
21119208 17 18272369750597063918
21501502 16 18192437578513620659
22926399 37 17060340699513877276
23402539 116 18335710437460564252
23403322 49 17458613571582329462
23559900 14 18114184172961945994
528716 315 18341609287500487026

> <PUBCHEM_SHAPE_MULTIPOLES>
230.23
7.12
1.43
0.85
8.35
0.14
0.01
0.82
-2.58
-1.38
0
0.4
-0.02
-0.17

> <PUBCHEM_SHAPE_SELFOVERLAP>
467.566

> <PUBCHEM_SHAPE_VOLUME>
135.2

> <PUBCHEM_COORDINATE_TYPE>
2
5
10

$$$$

