8881
  -OEChem-06261203123D

 11 10  0     0  0  0  0  0  0999 V2000
    1.9995   -0.7805   -0.3861 Cl  0  0  0  0  0  0  0  0  0  0  0  0
   -2.0019   -0.7762    0.3899 Cl  0  0  0  0  0  0  0  0  0  0  0  0
    0.0000    1.0614   -0.0023 C   0  0  0  0  0  0  0  0  0  0  0  0
    1.0699    0.2504    0.7255 C   0  0  0  0  0  0  0  0  0  0  0  0
   -1.0675    0.2448   -0.7270 C   0  0  0  0  0  0  0  0  0  0  0  0
   -0.4881    1.7220    0.7255 H   0  0  0  0  0  0  0  0  0  0  0  0
    0.4869    1.7195   -0.7331 H   0  0  0  0  0  0  0  0  0  0  0  0
    1.7814    0.9259    1.2106 H   0  0  0  0  0  0  0  0  0  0  0  0
    0.6400   -0.3912    1.4995 H   0  0  0  0  0  0  0  0  0  0  0  0
   -0.6361   -0.4032   -1.4948 H   0  0  0  0  0  0  0  0  0  0  0  0
   -1.7772    0.9169   -1.2195 H   0  0  0  0  0  0  0  0  0  0  0  0
  1  4  1  0  0  0  0
  2  5  1  0  0  0  0
  3  4  1  0  0  0  0
  3  5  1  0  0  0  0
  3  6  1  0  0  0  0
  3  7  1  0  0  0  0
  4  8  1  0  0  0  0
  4  9  1  0  0  0  0
  5 10  1  0  0  0  0
  5 11  1  0  0  0  0
M  END
> <PUBCHEM_COMPOUND_CID>
8881

> <PUBCHEM_CONFORMER_RMSD>
0.4

> <PUBCHEM_CONFORMER_DIVERSEORDER>
1
5
6
2
3
4

> <PUBCHEM_MMFF94_PARTIAL_CHARGES>
4
1 -0.29
2 -0.29
4 0.29
5 0.29

> <PUBCHEM_EFFECTIVE_ROTOR_COUNT>
2

> <PUBCHEM_PHARMACOPHORE_FEATURES>
0

> <PUBCHEM_HEAVY_ATOM_COUNT>
5

> <PUBCHEM_ATOM_DEF_STEREO_COUNT>
0

> <PUBCHEM_ATOM_UDEF_STEREO_COUNT>
0

> <PUBCHEM_BOND_DEF_STEREO_COUNT>
0

> <PUBCHEM_BOND_UDEF_STEREO_COUNT>
0

> <PUBCHEM_ISOTOPIC_ATOM_COUNT>
0

> <PUBCHEM_COMPONENT_COUNT>
1

> <PUBCHEM_CACTVS_TAUTO_COUNT>
1

> <PUBCHEM_CONFORMER_ID>
000022B100000001

> <PUBCHEM_MMFF94_ENERGY>
-0.0408

> <PUBCHEM_FEATURE_SELFOVERLAP>
0

> <PUBCHEM_SHAPE_FINGERPRINT>
139733 1 9223230758200593153
16714656 1 17918270986931018895
20096714 4 9583528632616420469
24536 1 18338816562083120197
29004967 10 18334860489323815232
5943 1 15648773330805692533

> <PUBCHEM_SHAPE_MULTIPOLES>
106.64
2.76
1.13
0.9
0
0.04
0
-1.17
0
0
0
0
0.01
0.31

> <PUBCHEM_SHAPE_SELFOVERLAP>
164.078

> <PUBCHEM_SHAPE_VOLUME>
76.8

> <PUBCHEM_COORDINATE_TYPE>
2
5
10

$$$$

