14104340
  -OEChem-07051212483D

 45 45  0     1  0  0  0  0  0999 V2000
    4.3792   -1.1515    1.5726 O   0  0  0  0  0  0  0  0  0  0  0  0
    2.4853    1.0623   -0.6145 O   0  0  0  0  0  0  0  0  0  0  0  0
    1.2195   -1.3517   -0.2180 O   0  0  0  0  0  0  0  0  0  0  0  0
    3.7475    2.2281    1.5972 O   0  0  0  0  0  0  0  0  0  0  0  0
    4.3604   -3.0580   -0.3605 O   0  0  0  0  0  0  0  0  0  0  0  0
    5.6714    2.3491   -1.4176 O   0  0  0  0  0  0  0  0  0  0  0  0
    2.8512   -2.5584   -1.9851 O   0  0  0  0  0  0  0  0  0  0  0  0
    4.3871    3.8816   -0.3535 O   0  0  0  0  0  0  0  0  0  0  0  0
    0.1925   -1.7646    1.8100 O   0  0  0  0  0  0  0  0  0  0  0  0
   -6.7174    0.9359    1.0543 O   0  0  0  0  0  0  0  0  0  0  0  0
   -7.0017    1.0224   -1.7086 O   0  0  0  0  0  0  0  0  0  0  0  0
    3.2175   -0.6161    0.9230 C   0  0  1  0  0  0  0  0  0  0  0  0
    3.6748    0.4962   -0.0404 C   0  0  2  0  0  0  0  0  0  0  0  0
    2.4627   -1.7991    0.2988 C   0  0  2  0  0  0  0  0  0  0  0  0
    4.5212    1.6288    0.5546 C   0  0  1  0  0  0  0  0  0  0  0  0
    3.2187   -2.4878   -0.8209 C   0  0  0  0  0  0  0  0  0  0  0  0
    4.8296    2.7423   -0.4304 C   0  0  0  0  0  0  0  0  0  0  0  0
    0.1644   -1.3882    0.6490 C   0  0  0  0  0  0  0  0  0  0  0  0
   -1.0337   -0.8902   -0.0642 C   0  0  0  0  0  0  0  0  0  0  0  0
   -3.4653   -0.3449   -0.0166 C   0  0  0  0  0  0  0  0  0  0  0  0
   -2.2082   -0.8302    0.5796 C   0  0  0  0  0  0  0  0  0  0  0  0
   -4.5117    0.0723    0.8058 C   0  0  0  0  0  0  0  0  0  0  0  0
   -3.6087   -0.3028   -1.4034 C   0  0  0  0  0  0  0  0  0  0  0  0
   -5.7017    0.5321    0.2414 C   0  0  0  0  0  0  0  0  0  0  0  0
   -5.8451    0.5742   -1.1454 C   0  0  0  0  0  0  0  0  0  0  0  0
   -4.7987    0.1566   -1.9678 C   0  0  0  0  0  0  0  0  0  0  0  0
   -6.4908    0.8616    2.4605 C   0  0  0  0  0  0  0  0  0  0  0  0
    2.5820   -0.1653    1.6954 H   0  0  0  0  0  0  0  0  0  0  0  0
    4.2466    0.0446   -0.8600 H   0  0  0  0  0  0  0  0  0  0  0  0
    2.2997   -2.5867    1.0482 H   0  0  0  0  0  0  0  0  0  0  0  0
    5.4555    1.2679    0.9939 H   0  0  0  0  0  0  0  0  0  0  0  0
    4.0735   -1.7780    2.2506 H   0  0  0  0  0  0  0  0  0  0  0  0
    2.7525    1.6072   -1.3737 H   0  0  0  0  0  0  0  0  0  0  0  0
    2.8858    2.4815    1.2234 H   0  0  0  0  0  0  0  0  0  0  0  0
   -0.8979   -0.5703   -1.0906 H   0  0  0  0  0  0  0  0  0  0  0  0
    4.8524   -3.5190   -1.0730 H   0  0  0  0  0  0  0  0  0  0  0  0
    5.8672    3.0780   -2.0441 H   0  0  0  0  0  0  0  0  0  0  0  0
   -2.2771   -1.1421    1.6193 H   0  0  0  0  0  0  0  0  0  0  0  0
   -4.3471    0.0206    1.8773 H   0  0  0  0  0  0  0  0  0  0  0  0
   -2.8292   -0.6361   -2.0820 H   0  0  0  0  0  0  0  0  0  0  0  0
   -4.8992    0.1805   -3.0497 H   0  0  0  0  0  0  0  0  0  0  0  0
   -6.9194    0.9808   -2.6769 H   0  0  0  0  0  0  0  0  0  0  0  0
   -7.4007    1.2212    2.9523 H   0  0  0  0  0  0  0  0  0  0  0  0
   -5.6777    1.5251    2.7745 H   0  0  0  0  0  0  0  0  0  0  0  0
   -6.3392   -0.1715    2.7914 H   0  0  0  0  0  0  0  0  0  0  0  0
  1 12  1  0  0  0  0
  1 32  1  0  0  0  0
  2 13  1  0  0  0  0
  2 33  1  0  0  0  0
  3 14  1  0  0  0  0
  3 18  1  0  0  0  0
  4 15  1  0  0  0  0
  4 34  1  0  0  0  0
  5 16  1  0  0  0  0
  5 36  1  0  0  0  0
  6 17  1  0  0  0  0
  6 37  1  0  0  0  0
  7 16  2  0  0  0  0
  8 17  2  0  0  0  0
  9 18  2  0  0  0  0
 10 24  1  0  0  0  0
 10 27  1  0  0  0  0
 11 25  1  0  0  0  0
 11 42  1  0  0  0  0
 12 13  1  0  0  0  0
 12 14  1  0  0  0  0
 12 28  1  0  0  0  0
 13 15  1  0  0  0  0
 13 29  1  0  0  0  0
 14 16  1  0  0  0  0
 14 30  1  0  0  0  0
 15 17  1  0  0  0  0
 15 31  1  0  0  0  0
 18 19  1  0  0  0  0
 19 21  2  0  0  0  0
 19 35  1  0  0  0  0
 20 21  1  0  0  0  0
 20 22  2  0  0  0  0
 20 23  1  0  0  0  0
 21 38  1  0  0  0  0
 22 24  1  0  0  0  0
 22 39  1  0  0  0  0
 23 26  2  0  0  0  0
 23 40  1  0  0  0  0
 24 25  2  0  0  0  0
 25 26  1  0  0  0  0
 26 41  1  0  0  0  0
 27 43  1  0  0  0  0
 27 44  1  0  0  0  0
 27 45  1  0  0  0  0
M  END
> <PUBCHEM_COMPOUND_CID>
14104340

> <PUBCHEM_CONFORMER_RMSD>
1

> <PUBCHEM_CONFORMER_DIVERSEORDER>
2
81
109
32
100
104
51
61
57
47
69
29
56
98
74
72
102
54
101
79
96
37
97
110
106
46
95
77
60
55
18
45
91
38
23
103
85
90
62
28
11
39
87
94
20
78
107
71
33
63
24
75
49
12
58
68
93
73
105
92
14
82
83
41
35
59
34
84
108
88
17
44
25
67
64
65
43
50
22
86
27
19
52
40
36
76
16
99
13
4
89
30
9
48
70
66
26
53
10
7
42
31
21
6
80
5
15
8
1
3

> <PUBCHEM_MMFF94_PARTIAL_CHARGES>
38
1 -0.68
10 -0.36
11 -0.53
12 0.28
13 0.28
14 0.34
15 0.34
16 0.66
17 0.66
18 0.71
19 -0.14
2 -0.68
20 0.03
21 -0.18
22 -0.15
23 -0.15
24 0.08
25 0.08
26 -0.15
27 0.28
3 -0.43
32 0.4
33 0.4
34 0.4
35 0.15
36 0.5
37 0.5
38 0.15
39 0.15
4 -0.68
40 0.15
41 0.15
42 0.45
5 -0.65
6 -0.65
7 -0.57
8 -0.57
9 -0.57

> <PUBCHEM_EFFECTIVE_ROTOR_COUNT>
10

> <PUBCHEM_PHARMACOPHORE_FEATURES>
16
1 1 acceptor
1 1 donor
1 10 acceptor
1 11 donor
1 2 acceptor
1 2 donor
1 4 acceptor
1 4 donor
1 5 acceptor
1 6 acceptor
1 7 acceptor
1 8 acceptor
1 9 acceptor
3 5 7 16 anion
3 6 8 17 anion
6 20 22 23 24 25 26 rings

> <PUBCHEM_HEAVY_ATOM_COUNT>
27

> <PUBCHEM_ATOM_DEF_STEREO_COUNT>
4

> <PUBCHEM_ATOM_UDEF_STEREO_COUNT>
0

> <PUBCHEM_BOND_DEF_STEREO_COUNT>
1

> <PUBCHEM_BOND_UDEF_STEREO_COUNT>
0

> <PUBCHEM_ISOTOPIC_ATOM_COUNT>
0

> <PUBCHEM_COMPONENT_COUNT>
1

> <PUBCHEM_CACTVS_TAUTO_COUNT>
3

> <PUBCHEM_CONFORMER_ID>
00D7371400000002

> <PUBCHEM_MMFF94_ENERGY>
68.7077

> <PUBCHEM_FEATURE_SELFOVERLAP>
81.332

> <PUBCHEM_SHAPE_FINGERPRINT>
10 15 17131834235992888305
10319926 262 15841556305784175315
10554248 39 17096654399700822725
11475781 23 5111447490347778059
11505856 67 17194023511529649390
11796584 16 14346088520443592847
12403259 415 17846776330162310891
12616971 3 18114466764092460083
13878862 14 18198648625209530372
13944108 23 18411133649941324500
13955234 65 18129947913212650763
14251764 38 18270691977014981516
14251764 75 18125714587566844052
14840074 17 18334858303771563341
15081414 286 18342734113523581397
15183329 4 16950281811126558449
15803439 3 16952516998122716988
17844677 252 18339363093046241735
17870717 6 14418134003111193029
21033648 29 17489586788435261239
21033650 10 15864332663009731635
21315764 119 15574978585916507373
22849339 104 16009605551357174935
23081809 10 17531249491651504507
23522609 53 17458889510525570049
23559900 14 17703780461903336590
23569914 152 7994639618616073425
2838139 119 18340215102435379524
3004659 81 16950848123200933966
34797466 226 18410295826702227335
376196 1 18125443017068729954
394071 54 18341888576307709093
397830 11 18201707424331023331
46194498 28 18334857276725578438
5104073 3 18202566142232023019
531348 171 9655304705614718003
633830 44 18334575793575975659
960060 61 17240204334882015979
9658208 31 17417798548154253603

> <PUBCHEM_SHAPE_MULTIPOLES>
491.08
18.14
3.15
1.85
20.17
1.07
-0.14
10.9
0.8
-8.43
0.61
2.19
0.08
-0.36

> <PUBCHEM_SHAPE_SELFOVERLAP>
1018.632

> <PUBCHEM_SHAPE_VOLUME>
277.2

> <PUBCHEM_COORDINATE_TYPE>
2
5
10

$$$$

