14076
  -OEChem-06241222412D

 19 19  0     0  0  0  0  0  0999 V2000
    2.5000   -1.3770    0.0000 N   0  0  0  0  0  0  0  0  0  0  0  0
    4.2320    1.6230    0.0000 N   0  0  0  0  0  0  0  0  0  0  0  0
    2.0000   -2.2430    0.0000 C   0  0  0  0  0  0  0  0  0  0  0  0
    3.0000   -2.2430    0.0000 C   0  0  0  0  0  0  0  0  0  0  0  0
    2.5000   -0.3770    0.0000 C   0  0  0  0  0  0  0  0  0  0  0  0
    3.3660    0.1230    0.0000 C   0  0  0  0  0  0  0  0  0  0  0  0
    3.3660    1.1230    0.0000 C   0  0  0  0  0  0  0  0  0  0  0  0
    3.1077   -2.8536    0.0000 H   0  0  0  0  0  0  0  0  0  0  0  0
    3.5826   -2.0310    0.0000 H   0  0  0  0  0  0  0  0  0  0  0  0
    1.4174   -2.0310    0.0000 H   0  0  0  0  0  0  0  0  0  0  0  0
    1.8923   -2.8536    0.0000 H   0  0  0  0  0  0  0  0  0  0  0  0
    2.2880    0.2056    0.0000 H   0  0  0  0  0  0  0  0  0  0  0  0
    1.8894   -0.4846    0.0000 H   0  0  0  0  0  0  0  0  0  0  0  0
    3.5781   -0.4596    0.0000 H   0  0  0  0  0  0  0  0  0  0  0  0
    3.9766    0.2307    0.0000 H   0  0  0  0  0  0  0  0  0  0  0  0
    3.1540    1.7056    0.0000 H   0  0  0  0  0  0  0  0  0  0  0  0
    2.7554    1.0154    0.0000 H   0  0  0  0  0  0  0  0  0  0  0  0
    4.2320    2.2430    0.0000 H   0  0  0  0  0  0  0  0  0  0  0  0
    4.7690    1.3130    0.0000 H   0  0  0  0  0  0  0  0  0  0  0  0
  1  3  1  0  0  0  0
  1  4  1  0  0  0  0
  1  5  1  0  0  0  0
  2  7  1  0  0  0  0
  2 18  1  0  0  0  0
  2 19  1  0  0  0  0
  3  4  1  0  0  0  0
  3 10  1  0  0  0  0
  3 11  1  0  0  0  0
  4  8  1  0  0  0  0
  4  9  1  0  0  0  0
  5  6  1  0  0  0  0
  5 12  1  0  0  0  0
  5 13  1  0  0  0  0
  6  7  1  0  0  0  0
  6 14  1  0  0  0  0
  6 15  1  0  0  0  0
  7 16  1  0  0  0  0
  7 17  1  0  0  0  0
M  END
> <PUBCHEM_COMPOUND_CID>
14076

> <PUBCHEM_COMPOUND_CANONICALIZED>
1

> <PUBCHEM_CACTVS_COMPLEXITY>
50

> <PUBCHEM_CACTVS_HBOND_ACCEPTOR>
2

> <PUBCHEM_CACTVS_HBOND_DONOR>
1

> <PUBCHEM_CACTVS_ROTATABLE_BOND>
3

> <PUBCHEM_CACTVS_SUBSKEYS>
AAADccBjAAAAAAAAAAAAAAAAFgAAAAAAAAAAAAAAAAAAAAAAAAAAHAAQAAAACADBAAQAAANAAAAAAAAAAAAAAAAAAAAAAIAIAAAAAAAAQAAEAAAAEACAAAAAAAAAAAAAAAAAAAAAAAAAAAAAAAAAAAAAAA==

> <PUBCHEM_IUPAC_OPENEYE_NAME>
3-(aziridin-1-yl)propan-1-amine

> <PUBCHEM_IUPAC_CAS_NAME>
3-(1-aziridinyl)-1-propanamine

> <PUBCHEM_IUPAC_NAME>
3-(aziridin-1-yl)propan-1-amine

> <PUBCHEM_IUPAC_SYSTEMATIC_NAME>
3-(aziridin-1-yl)propan-1-amine

> <PUBCHEM_IUPAC_TRADITIONAL_NAME>
3-ethyleniminopropylamine

> <PUBCHEM_IUPAC_INCHI>
InChI=1S/C5H12N2/c6-2-1-3-7-4-5-7/h1-6H2

> <PUBCHEM_IUPAC_INCHIKEY>
BIUAFMCFYSTCLR-UHFFFAOYSA-N

> <PUBCHEM_XLOGP3_AA>
-0.5

> <PUBCHEM_EXACT_MASS>
100.100048

> <PUBCHEM_MOLECULAR_FORMULA>
C5H12N2

> <PUBCHEM_MOLECULAR_WEIGHT>
100.16218

> <PUBCHEM_OPENEYE_CAN_SMILES>
C1CN1CCCN

> <PUBCHEM_OPENEYE_ISO_SMILES>
C1CN1CCCN

> <PUBCHEM_CACTVS_TPSA>
29

> <PUBCHEM_MONOISOTOPIC_WEIGHT>
100.100048

> <PUBCHEM_TOTAL_CHARGE>
0

> <PUBCHEM_HEAVY_ATOM_COUNT>
7

> <PUBCHEM_ATOM_DEF_STEREO_COUNT>
0

> <PUBCHEM_ATOM_UDEF_STEREO_COUNT>
0

> <PUBCHEM_BOND_DEF_STEREO_COUNT>
0

> <PUBCHEM_BOND_UDEF_STEREO_COUNT>
0

> <PUBCHEM_ISOTOPIC_ATOM_COUNT>
0

> <PUBCHEM_COMPONENT_COUNT>
1

> <PUBCHEM_CACTVS_TAUTO_COUNT>
1

> <PUBCHEM_COORDINATE_TYPE>
1
5
255

$$$$

