86210
  -OEChem-07051213122D

 44 46  0     1  0  0  0  0  0999 V2000
    3.8064   -3.8664    0.0000 Cl  0  0  0  0  0  0  0  0  0  0  0  0
    3.7825    1.7327    0.0000 O   0  0  0  0  0  0  0  0  0  0  0  0
    3.6180    2.9153    0.0000 N   0  0  0  0  0  0  0  0  0  0  0  0
    3.3090    3.8664    0.0000 N   0  0  0  0  0  0  0  0  0  0  0  0
    2.0000    2.9153    0.0000 N   0  0  0  0  0  0  0  0  0  0  0  0
    4.7770    1.6282    0.0000 C   0  0  3  0  0  0  0  0  0  0  0  0
    5.7552    1.8361    0.0000 C   0  0  0  0  0  0  0  0  0  0  0  0
    4.6725    0.6336    0.0000 C   0  0  3  0  0  0  0  0  0  0  0  0
    6.2552    0.9700    0.0000 C   0  0  0  0  0  0  0  0  0  0  0  0
    5.5860    0.2269    0.0000 C   0  0  0  0  0  0  0  0  0  0  0  0
    4.5691    2.6063    0.0000 C   0  0  0  0  0  0  0  0  0  0  0  0
    3.8064    0.1336    0.0000 C   0  0  0  0  0  0  0  0  0  0  0  0
    6.6212    2.3361    0.0000 C   0  0  0  0  0  0  0  0  0  0  0  0
    5.5472    2.8142    0.0000 C   0  0  0  0  0  0  0  0  0  0  0  0
    3.8064   -0.8664    0.0000 C   0  0  0  0  0  0  0  0  0  0  0  0
    2.8090    2.3275    0.0000 C   0  0  0  0  0  0  0  0  0  0  0  0
    2.9404   -1.3664    0.0000 C   0  0  0  0  0  0  0  0  0  0  0  0
    4.6725   -1.3664    0.0000 C   0  0  0  0  0  0  0  0  0  0  0  0
    2.9404   -2.3664    0.0000 C   0  0  0  0  0  0  0  0  0  0  0  0
    4.6725   -2.3664    0.0000 C   0  0  0  0  0  0  0  0  0  0  0  0
    2.3090    3.8664    0.0000 C   0  0  0  0  0  0  0  0  0  0  0  0
    3.8064   -2.8664    0.0000 C   0  0  0  0  0  0  0  0  0  0  0  0
    4.7170   -0.2152    0.0000 H   0  0  0  0  0  0  0  0  0  0  0  0
    6.6700    0.5093    0.0000 H   0  0  0  0  0  0  0  0  0  0  0  0
    6.7567    1.3345    0.0000 H   0  0  0  0  0  0  0  0  0  0  0  0
    5.2760   -0.3100    0.0000 H   0  0  0  0  0  0  0  0  0  0  0  0
    6.0876   -0.1375    0.0000 H   0  0  0  0  0  0  0  0  0  0  0  0
    5.1887    2.6279    0.0000 H   0  0  0  0  0  0  0  0  0  0  0  0
    4.6554    3.2203    0.0000 H   0  0  0  0  0  0  0  0  0  0  0  0
    3.5944    0.7162    0.0000 H   0  0  0  0  0  0  0  0  0  0  0  0
    3.1959    0.0260    0.0000 H   0  0  0  0  0  0  0  0  0  0  0  0
    6.9312    1.7991    0.0000 H   0  0  0  0  0  0  0  0  0  0  0  0
    7.1581    2.6461    0.0000 H   0  0  0  0  0  0  0  0  0  0  0  0
    6.3112    2.8730    0.0000 H   0  0  0  0  0  0  0  0  0  0  0  0
    6.1537    2.9431    0.0000 H   0  0  0  0  0  0  0  0  0  0  0  0
    5.4183    3.4207    0.0000 H   0  0  0  0  0  0  0  0  0  0  0  0
    4.9408    2.6853    0.0000 H   0  0  0  0  0  0  0  0  0  0  0  0
    3.4180    1.2311    0.0000 H   0  0  0  0  0  0  0  0  0  0  0  0
    2.8090    1.7075    0.0000 H   0  0  0  0  0  0  0  0  0  0  0  0
    2.4035   -1.0564    0.0000 H   0  0  0  0  0  0  0  0  0  0  0  0
    5.2094   -1.0564    0.0000 H   0  0  0  0  0  0  0  0  0  0  0  0
    2.4035   -2.6764    0.0000 H   0  0  0  0  0  0  0  0  0  0  0  0
    5.2094   -2.6764    0.0000 H   0  0  0  0  0  0  0  0  0  0  0  0
    1.9446    4.3680    0.0000 H   0  0  0  0  0  0  0  0  0  0  0  0
  1 22  1  0  0  0  0
  2  6  1  0  0  0  0
  2 38  1  0  0  0  0
  3  4  1  0  0  0  0
  3 11  1  0  0  0  0
  3 16  1  0  0  0  0
  4 21  2  0  0  0  0
  5 16  2  0  0  0  0
  5 21  1  0  0  0  0
  6  7  1  0  0  0  0
  6  8  1  0  0  0  0
  6 11  1  0  0  0  0
  7  9  1  0  0  0  0
  7 13  1  0  0  0  0
  7 14  1  0  0  0  0
  8 10  1  0  0  0  0
  8 12  1  0  0  0  0
  8 23  1  0  0  0  0
  9 10  1  0  0  0  0
  9 24  1  0  0  0  0
  9 25  1  0  0  0  0
 10 26  1  0  0  0  0
 10 27  1  0  0  0  0
 11 28  1  0  0  0  0
 11 29  1  0  0  0  0
 12 15  1  0  0  0  0
 12 30  1  0  0  0  0
 12 31  1  0  0  0  0
 13 32  1  0  0  0  0
 13 33  1  0  0  0  0
 13 34  1  0  0  0  0
 14 35  1  0  0  0  0
 14 36  1  0  0  0  0
 14 37  1  0  0  0  0
 15 17  2  0  0  0  0
 15 18  1  0  0  0  0
 16 39  1  0  0  0  0
 17 19  1  0  0  0  0
 17 40  1  0  0  0  0
 18 20  2  0  0  0  0
 18 41  1  0  0  0  0
 19 22  2  0  0  0  0
 19 42  1  0  0  0  0
 20 22  1  0  0  0  0
 20 43  1  0  0  0  0
 21 44  1  0  0  0  0
M  END
> <PUBCHEM_COMPOUND_CID>
86210

> <PUBCHEM_COMPOUND_CANONICALIZED>
1

> <PUBCHEM_CACTVS_COMPLEXITY>
384

> <PUBCHEM_CACTVS_HBOND_ACCEPTOR>
3

> <PUBCHEM_CACTVS_HBOND_DONOR>
1

> <PUBCHEM_CACTVS_ROTATABLE_BOND>
4

> <PUBCHEM_CACTVS_SUBSKEYS>
AAADceB7IAAEAAAAAAAAAAAAAAAAAeIAAAAwAAAAAAAAAAABwAAAHgIICAAAD0bBmCQ3EIYIEgCiAiBDJAASAAswhYAdyAAIAoiKKCKBmxCEYAAsgAIYiAeQwPAPhAAAAAAAAAAIAAAAAAAAAQAADAAAAA==

> <PUBCHEM_IUPAC_OPENEYE_NAME>
5-[(4-chlorophenyl)methyl]-2,2-dimethyl-1-(1,2,4-triazol-1-ylmethyl)cyclopentanol

> <PUBCHEM_IUPAC_CAS_NAME>
5-[(4-chlorophenyl)methyl]-2,2-dimethyl-1-(1,2,4-triazol-1-ylmethyl)-1-cyclopentanol

> <PUBCHEM_IUPAC_NAME>
5-[(4-chlorophenyl)methyl]-2,2-dimethyl-1-(1,2,4-triazol-1-ylmethyl)cyclopentan-1-ol

> <PUBCHEM_IUPAC_SYSTEMATIC_NAME>
5-[(4-chlorophenyl)methyl]-2,2-dimethyl-1-(1,2,4-triazol-1-ylmethyl)cyclopentan-1-ol

> <PUBCHEM_IUPAC_TRADITIONAL_NAME>
5-(4-chlorobenzyl)-2,2-dimethyl-1-(1,2,4-triazol-1-ylmethyl)cyclopentanol

> <PUBCHEM_IUPAC_INCHI>
InChI=1S/C17H22ClN3O/c1-16(2)8-7-14(9-13-3-5-15(18)6-4-13)17(16,22)10-21-12-19-11-20-21/h3-6,11-12,14,22H,7-10H2,1-2H3

> <PUBCHEM_IUPAC_INCHIKEY>
XWPZUHJBOLQNMN-UHFFFAOYSA-N

> <PUBCHEM_XLOGP3_AA>
3.7

> <PUBCHEM_EXACT_MASS>
319.14514

> <PUBCHEM_MOLECULAR_FORMULA>
C17H22ClN3O

> <PUBCHEM_MOLECULAR_WEIGHT>
319.82908

> <PUBCHEM_OPENEYE_CAN_SMILES>
CC1(CCC(C1(CN2C=NC=N2)O)CC3=CC=C(C=C3)Cl)C

> <PUBCHEM_OPENEYE_ISO_SMILES>
CC1(CCC(C1(CN2C=NC=N2)O)CC3=CC=C(C=C3)Cl)C

> <PUBCHEM_CACTVS_TPSA>
50.9

> <PUBCHEM_MONOISOTOPIC_WEIGHT>
319.14514

> <PUBCHEM_TOTAL_CHARGE>
0

> <PUBCHEM_HEAVY_ATOM_COUNT>
22

> <PUBCHEM_ATOM_DEF_STEREO_COUNT>
0

> <PUBCHEM_ATOM_UDEF_STEREO_COUNT>
2

> <PUBCHEM_BOND_DEF_STEREO_COUNT>
0

> <PUBCHEM_BOND_UDEF_STEREO_COUNT>
0

> <PUBCHEM_ISOTOPIC_ATOM_COUNT>
0

> <PUBCHEM_COMPONENT_COUNT>
1

> <PUBCHEM_CACTVS_TAUTO_COUNT>
1

> <PUBCHEM_COORDINATE_TYPE>
1
5
255

> <PUBCHEM_BONDANNOTATIONS>
15  17  8
15  18  8
17  19  8
18  20  8
19  22  8
20  22  8
3  16  8
3  4  8
4  21  8
5  16  8
5  21  8
6  11  3
8  23  3

$$$$

