9135
  -OEChem-06261203263D

 36 40  0     0  0  0  0  0  0999 V2000
    1.0769   -0.4010   -0.0365 C   0  0  0  0  0  0  0  0  0  0  0  0
   -0.3016    0.1014   -0.1182 C   0  0  0  0  0  0  0  0  0  0  0  0
   -1.4254   -0.7664    0.0461 C   0  0  0  0  0  0  0  0  0  0  0  0
    1.2266   -1.8112   -0.0523 C   0  0  0  0  0  0  0  0  0  0  0  0
    2.3240    0.3705    0.0621 C   0  0  0  0  0  0  0  0  0  0  0  0
   -2.7796   -0.2572    0.0662 C   0  0  0  0  0  0  0  0  0  0  0  0
    3.5802   -0.2800   -0.0987 C   0  0  0  0  0  0  0  0  0  0  0  0
   -3.0026    1.1162   -0.1766 C   0  0  0  0  0  0  0  0  0  0  0  0
   -1.1620   -2.1395    0.1501 C   0  0  0  0  0  0  0  0  0  0  0  0
   -0.6187    1.4394   -0.4311 C   0  0  0  0  0  0  0  0  0  0  0  0
    0.1239   -2.6516    0.0524 C   0  0  0  0  0  0  0  0  0  0  0  0
    2.4795   -2.4170   -0.1706 C   0  0  0  0  0  0  0  0  0  0  0  0
   -1.9202    1.9414   -0.4476 C   0  0  0  0  0  0  0  0  0  0  0  0
    3.6366   -1.6606   -0.2413 C   0  0  0  0  0  0  0  0  0  0  0  0
    2.4145    1.7516    0.3814 C   0  0  0  0  0  0  0  0  0  0  0  0
   -3.9399   -1.0416    0.3089 C   0  0  0  0  0  0  0  0  0  0  0  0
    4.7910    0.4351   -0.0793 C   0  0  0  0  0  0  0  0  0  0  0  0
   -4.3012    1.6560   -0.1748 C   0  0  0  0  0  0  0  0  0  0  0  0
    3.6230    2.4577    0.4155 C   0  0  0  0  0  0  0  0  0  0  0  0
   -5.2285   -0.4983    0.3128 C   0  0  0  0  0  0  0  0  0  0  0  0
    4.8128    1.8020    0.1609 C   0  0  0  0  0  0  0  0  0  0  0  0
   -5.4092    0.8532    0.0705 C   0  0  0  0  0  0  0  0  0  0  0  0
   -1.9605   -2.8693    0.2523 H   0  0  0  0  0  0  0  0  0  0  0  0
    0.1482    2.1424   -0.7395 H   0  0  0  0  0  0  0  0  0  0  0  0
    0.2456   -3.7338    0.0758 H   0  0  0  0  0  0  0  0  0  0  0  0
    2.5730   -3.5011   -0.2191 H   0  0  0  0  0  0  0  0  0  0  0  0
   -2.0661    2.9930   -0.6879 H   0  0  0  0  0  0  0  0  0  0  0  0
    4.5885   -2.1761   -0.3525 H   0  0  0  0  0  0  0  0  0  0  0  0
    1.5374    2.3187    0.6761 H   0  0  0  0  0  0  0  0  0  0  0  0
   -3.8667   -2.1067    0.5136 H   0  0  0  0  0  0  0  0  0  0  0  0
    5.7401   -0.0772   -0.2291 H   0  0  0  0  0  0  0  0  0  0  0  0
   -4.4604    2.7154   -0.3680 H   0  0  0  0  0  0  0  0  0  0  0  0
    3.6243    3.5165    0.6576 H   0  0  0  0  0  0  0  0  0  0  0  0
   -6.0852   -1.1371    0.5067 H   0  0  0  0  0  0  0  0  0  0  0  0
    5.7547    2.3404    0.1855 H   0  0  0  0  0  0  0  0  0  0  0  0
   -6.4064    1.2821    0.0704 H   0  0  0  0  0  0  0  0  0  0  0  0
  1  2  1  0  0  0  0
  1  4  2  0  0  0  0
  1  5  1  0  0  0  0
  2  3  2  0  0  0  0
  2 10  1  0  0  0  0
  3  6  1  0  0  0  0
  3  9  1  0  0  0  0
  4 11  1  0  0  0  0
  4 12  1  0  0  0  0
  5  7  1  0  0  0  0
  5 15  2  0  0  0  0
  6  8  1  0  0  0  0
  6 16  2  0  0  0  0
  7 14  1  0  0  0  0
  7 17  2  0  0  0  0
  8 13  1  0  0  0  0
  8 18  2  0  0  0  0
  9 11  2  0  0  0  0
  9 23  1  0  0  0  0
 10 13  2  0  0  0  0
 10 24  1  0  0  0  0
 11 25  1  0  0  0  0
 12 14  2  0  0  0  0
 12 26  1  0  0  0  0
 13 27  1  0  0  0  0
 14 28  1  0  0  0  0
 15 19  1  0  0  0  0
 15 29  1  0  0  0  0
 16 20  1  0  0  0  0
 16 30  1  0  0  0  0
 17 21  1  0  0  0  0
 17 31  1  0  0  0  0
 18 22  1  0  0  0  0
 18 32  1  0  0  0  0
 19 21  2  0  0  0  0
 19 33  1  0  0  0  0
 20 22  2  0  0  0  0
 20 34  1  0  0  0  0
 21 35  1  0  0  0  0
 22 36  1  0  0  0  0
M  END
> <PUBCHEM_COMPOUND_CID>
9135

> <PUBCHEM_CONFORMER_RMSD>
0.6

> <PUBCHEM_CONFORMER_DIVERSEORDER>
1

> <PUBCHEM_MMFF94_PARTIAL_CHARGES>
28
10 -0.15
11 -0.15
12 -0.15
13 -0.15
14 -0.15
15 -0.15
16 -0.15
17 -0.15
18 -0.15
19 -0.15
20 -0.15
21 -0.15
22 -0.15
23 0.15
24 0.15
25 0.15
26 0.15
27 0.15
28 0.15
29 0.15
30 0.15
31 0.15
32 0.15
33 0.15
34 0.15
35 0.15
36 0.15
9 -0.15

> <PUBCHEM_EFFECTIVE_ROTOR_COUNT>
0

> <PUBCHEM_PHARMACOPHORE_FEATURES>
5
6 1 2 3 4 9 11 rings
6 1 4 5 7 12 14 rings
6 2 3 6 8 10 13 rings
6 5 7 15 17 19 21 rings
6 6 8 16 18 20 22 rings

> <PUBCHEM_HEAVY_ATOM_COUNT>
22

> <PUBCHEM_ATOM_DEF_STEREO_COUNT>
0

> <PUBCHEM_ATOM_UDEF_STEREO_COUNT>
0

> <PUBCHEM_BOND_DEF_STEREO_COUNT>
0

> <PUBCHEM_BOND_UDEF_STEREO_COUNT>
0

> <PUBCHEM_ISOTOPIC_ATOM_COUNT>
0

> <PUBCHEM_COMPONENT_COUNT>
1

> <PUBCHEM_CACTVS_TAUTO_COUNT>
1

> <PUBCHEM_CONFORMER_ID>
000023AF00000001

> <PUBCHEM_MMFF94_ENERGY>
96.566

> <PUBCHEM_FEATURE_SELFOVERLAP>
25.465

> <PUBCHEM_SHAPE_FINGERPRINT>
10 15 18270408179399869824
10411042 1 17617659203492195966
10608611 8 18411983585060191884
10967382 1 18410575076516256004
11370993 70 18410578361965816432
11578080 2 16735251296681189234
11595378 159 16988293061226361749
12107183 9 17686049905071138361
12236239 1 17821728356154671327
12403259 226 18055074530193581534
12403259 415 18201158853289831341
12730499 353 18410284805230485866
12788726 201 17240754129361335440
12925494 130 18265055924036323713
13140716 1 18413673504135873290
13224815 77 18341617039953243191
13402501 40 18411138026396162080
138480 1 17906172107135090474
14341114 176 18410004468483392529
14528608 73 18407762529946059759
14787075 74 18334298622039742953
14790565 3 18411131399019349565
15196674 1 18411418436141602199
15536298 74 18408885165524860871
1813 80 16988559108880784941
19591789 44 18411138073281820407
19784866 170 18342455915664445833
200 152 18113340834194329017
21033648 29 18339093626334744113
21033650 10 14418394607887595963
21197605 99 18265328409377068287
21267235 1 18338508759120636294
21452121 103 18410579495926924994
221357 26 18262233430109807572
221490 88 18339355387368965074
22149856 69 18267562699267821987
22182313 1 18059303161603689661
23227448 37 18335140838935036295
23402539 116 18337397054228094975
23559900 14 18265337394179405322
238 59 17693978418772936884
335352 9 18409729565439595854
34797466 226 17676480636426106485
350125 39 18412261774661299196
3545911 37 18411135827109084484
3680242 22 18340771558535094594
474 4 18409449189135638808
474229 33 18411700959090378551
495365 180 17530974536271359344
5104073 3 18342172315063845003
633830 44 18261959647340363991
7364860 26 18336547226345226918
7808743 9 18123472679305148784
8272917 22 18261388992147165070
9709674 26 18410851074988255791

> <PUBCHEM_SHAPE_MULTIPOLES>
452.75
10.63
2.84
0.67
4.29
0.54
0
-4.08
0.63
-1.64
0.03
0.01
-0.05
0.7

> <PUBCHEM_SHAPE_SELFOVERLAP>
1050.562

> <PUBCHEM_SHAPE_VOLUME>
210.4

> <PUBCHEM_COORDINATE_TYPE>
2
5
10

$$$$

