53297350
  -OEChem-07051212563D

 53 57  0     1  0  0  0  0  0999 V2000
    0.0088   -2.8685    0.5177 O   0  0  0  0  0  0  0  0  0  0  0  0
   -1.5532    2.8611    0.8890 O   0  0  0  0  0  0  0  0  0  0  0  0
    0.6115    2.9698    0.0205 O   0  0  0  0  0  0  0  0  0  0  0  0
    0.9106    1.5170   -1.7504 O   0  0  0  0  0  0  0  0  0  0  0  0
    1.3475   -1.8374   -1.1409 N   0  0  0  0  0  0  0  0  0  0  0  0
   -2.3519   -2.2500   -0.7921 N   0  0  0  0  0  0  0  0  0  0  0  0
    0.3138   -0.4464    0.5816 C   0  0  1  0  0  0  0  0  0  0  0  0
    0.1146   -1.7131   -0.3462 C   0  0  2  0  0  0  0  0  0  0  0  0
   -0.4611    0.8681    0.1525 C   0  0  1  0  0  0  0  0  0  0  0  0
   -1.0813   -1.7326   -1.3317 C   0  0  2  0  0  0  0  0  0  0  0  0
   -1.6879    0.6211   -0.7940 C   0  0  1  0  0  0  0  0  0  0  0  0
   -0.0002   -1.0047    1.9746 C   0  0  0  0  0  0  0  0  0  0  0  0
   -1.3233   -0.3492   -1.9265 C   0  0  0  0  0  0  0  0  0  0  0  0
    1.8345   -0.2766    0.4901 C   0  0  0  0  0  0  0  0  0  0  0  0
    0.3018   -2.4859    1.8629 C   0  0  0  0  0  0  0  0  0  0  0  0
   -0.8797    1.7223    1.3735 C   0  0  0  0  0  0  0  0  0  0  0  0
   -2.9482    0.0895   -0.1286 C   0  0  0  0  0  0  0  0  0  0  0  0
    2.3421   -1.1017   -0.5144 C   0  0  0  0  0  0  0  0  0  0  0  0
    0.4359    1.8010   -0.6591 C   0  0  0  0  0  0  0  0  0  0  0  0
   -2.9999   -1.3823    0.1891 C   0  0  0  0  0  0  0  0  0  0  0  0
    2.6743    0.5472    1.2291 C   0  0  0  0  0  0  0  0  0  0  0  0
    3.6880   -1.0791   -0.8395 C   0  0  0  0  0  0  0  0  0  0  0  0
   -4.0091    0.8824    0.0947 C   0  0  0  0  0  0  0  0  0  0  0  0
    4.0363    0.5548    0.9253 C   0  0  0  0  0  0  0  0  0  0  0  0
    4.5392   -0.2493   -0.1070 C   0  0  0  0  0  0  0  0  0  0  0  0
   -5.2995    0.4010    0.6599 C   0  0  0  0  0  0  0  0  0  0  0  0
    1.4364    3.9415   -0.6302 C   0  0  0  0  0  0  0  0  0  0  0  0
   -0.8366   -2.4132   -2.1583 H   0  0  0  0  0  0  0  0  0  0  0  0
   -1.9431    1.5703   -1.2899 H   0  0  0  0  0  0  0  0  0  0  0  0
    0.5664   -0.5440    2.7909 H   0  0  0  0  0  0  0  0  0  0  0  0
   -1.0518   -0.8863    2.2332 H   0  0  0  0  0  0  0  0  0  0  0  0
   -2.1542   -0.3993   -2.6460 H   0  0  0  0  0  0  0  0  0  0  0  0
   -0.4654   -0.0396   -2.5242 H   0  0  0  0  0  0  0  0  0  0  0  0
    1.5552   -2.6498   -1.7048 H   0  0  0  0  0  0  0  0  0  0  0  0
    1.3582   -2.6982    2.0593 H   0  0  0  0  0  0  0  0  0  0  0  0
   -0.3000   -3.0853    2.5520 H   0  0  0  0  0  0  0  0  0  0  0  0
   -1.5844    1.1864    2.0159 H   0  0  0  0  0  0  0  0  0  0  0  0
   -0.0390    2.0201    2.0117 H   0  0  0  0  0  0  0  0  0  0  0  0
   -2.2001   -3.1717   -0.3835 H   0  0  0  0  0  0  0  0  0  0  0  0
   -4.0312   -1.7441    0.2433 H   0  0  0  0  0  0  0  0  0  0  0  0
   -2.5818   -1.5678    1.1771 H   0  0  0  0  0  0  0  0  0  0  0  0
    2.2887    1.1831    2.0184 H   0  0  0  0  0  0  0  0  0  0  0  0
    4.0825   -1.6974   -1.6394 H   0  0  0  0  0  0  0  0  0  0  0  0
   -3.9675    1.9310   -0.1877 H   0  0  0  0  0  0  0  0  0  0  0  0
   -1.8272    3.3856    1.6604 H   0  0  0  0  0  0  0  0  0  0  0  0
    4.7113    1.1953    1.4861 H   0  0  0  0  0  0  0  0  0  0  0  0
    5.6004   -0.2248   -0.3391 H   0  0  0  0  0  0  0  0  0  0  0  0
   -5.1693   -0.3385    1.4553 H   0  0  0  0  0  0  0  0  0  0  0  0
   -5.8306    1.2460    1.1122 H   0  0  0  0  0  0  0  0  0  0  0  0
   -5.9390   -0.0082   -0.1278 H   0  0  0  0  0  0  0  0  0  0  0  0
    2.4439    3.5423   -0.7814 H   0  0  0  0  0  0  0  0  0  0  0  0
    0.9902    4.2380   -1.5842 H   0  0  0  0  0  0  0  0  0  0  0  0
    1.5003    4.8205    0.0165 H   0  0  0  0  0  0  0  0  0  0  0  0
  1  8  1  0  0  0  0
  1 15  1  0  0  0  0
  2 16  1  0  0  0  0
  2 45  1  0  0  0  0
  3 19  1  0  0  0  0
  3 27  1  0  0  0  0
  4 19  2  0  0  0  0
  5  8  1  0  0  0  0
  5 18  1  0  0  0  0
  5 34  1  0  0  0  0
  6 10  1  0  0  0  0
  6 20  1  0  0  0  0
  6 39  1  0  0  0  0
  7  8  1  0  0  0  0
  7  9  1  0  0  0  0
  7 12  1  0  0  0  0
  7 14  1  0  0  0  0
  8 10  1  0  0  0  0
  9 11  1  0  0  0  0
  9 16  1  0  0  0  0
  9 19  1  0  0  0  0
 10 13  1  0  0  0  0
 10 28  1  0  0  0  0
 11 13  1  0  0  0  0
 11 17  1  0  0  0  0
 11 29  1  0  0  0  0
 12 15  1  0  0  0  0
 12 30  1  0  0  0  0
 12 31  1  0  0  0  0
 13 32  1  0  0  0  0
 13 33  1  0  0  0  0
 14 18  1  0  0  0  0
 14 21  2  0  0  0  0
 15 35  1  0  0  0  0
 15 36  1  0  0  0  0
 16 37  1  0  0  0  0
 16 38  1  0  0  0  0
 17 20  1  0  0  0  0
 17 23  2  0  0  0  0
 18 22  2  0  0  0  0
 20 40  1  0  0  0  0
 20 41  1  0  0  0  0
 21 24  1  0  0  0  0
 21 42  1  0  0  0  0
 22 25  1  0  0  0  0
 22 43  1  0  0  0  0
 23 26  1  0  0  0  0
 23 44  1  0  0  0  0
 24 25  2  0  0  0  0
 24 46  1  0  0  0  0
 25 47  1  0  0  0  0
 26 48  1  0  0  0  0
 26 49  1  0  0  0  0
 26 50  1  0  0  0  0
 27 51  1  0  0  0  0
 27 52  1  0  0  0  0
 27 53  1  0  0  0  0
M  END
> <PUBCHEM_COMPOUND_CID>
53297350

> <PUBCHEM_CONFORMER_RMSD>
0.8

> <PUBCHEM_CONFORMER_DIVERSEORDER>
1
3
4
2

> <PUBCHEM_MMFF94_PARTIAL_CHARGES>
33
1 -0.56
10 0.27
11 0.14
14 -0.14
15 0.28
16 0.28
17 -0.28
18 0.1
19 0.66
2 -0.68
20 0.41
21 -0.15
22 -0.15
23 -0.29
24 -0.15
25 -0.15
26 0.14
27 0.28
3 -0.43
34 0.4
39 0.36
4 -0.57
42 0.15
43 0.15
44 0.15
45 0.4
46 0.15
47 0.15
5 -0.87
6 -0.9
7 0.14
8 0.65
9 0.06

> <PUBCHEM_EFFECTIVE_ROTOR_COUNT>
4.6

> <PUBCHEM_PHARMACOPHORE_FEATURES>
14
1 1 acceptor
1 2 acceptor
1 2 donor
1 26 hydrophobe
1 4 acceptor
1 5 cation
1 5 donor
1 6 cation
1 6 donor
5 1 7 8 12 15 rings
5 5 7 8 14 18 rings
6 14 18 21 22 24 25 rings
6 6 10 11 13 17 20 rings
6 7 8 9 10 11 13 rings

> <PUBCHEM_HEAVY_ATOM_COUNT>
27

> <PUBCHEM_ATOM_DEF_STEREO_COUNT>
4

> <PUBCHEM_ATOM_UDEF_STEREO_COUNT>
1

> <PUBCHEM_BOND_DEF_STEREO_COUNT>
1

> <PUBCHEM_BOND_UDEF_STEREO_COUNT>
0

> <PUBCHEM_ISOTOPIC_ATOM_COUNT>
0

> <PUBCHEM_COMPONENT_COUNT>
1

> <PUBCHEM_CACTVS_TAUTO_COUNT>
1

> <PUBCHEM_CONFORMER_ID>
032D40C600000001

> <PUBCHEM_MMFF94_ENERGY>
118.6804

> <PUBCHEM_FEATURE_SELFOVERLAP>
73.357

> <PUBCHEM_SHAPE_FINGERPRINT>
10006869 2 18050298256035609329
10863032 1 17167870729023547430
10906281 52 18340197480659343640
10948715 1 18114181981700612195
1100329 8 18411416168388320537
11578080 2 15720825423032836554
12011746 2 18335424616641575205
12035758 1 18271802376584780688
12788726 201 18270103734637321020
13132413 78 18114750313068817757
13140716 1 18270116799806061281
13149001 5 18059011653646541978
14142880 1 18336836410746354320
14181834 199 17984149158280840188
14223421 5 17980767352275983011
14787075 74 18272082764961164383
14790565 3 18338508737556616221
14955137 171 18410002235153022865
15209289 33 18271811172683239467
15840311 113 17604137216715482233
1601671 61 18339924947583016573
16945 1 17822305612106384318
18981168 100 16881919782473633736
19591789 44 18047187728755219422
20600515 1 17988644052352191686
20691752 17 16843899555222398231
20739085 24 17975112538737426929
20905425 154 17906169912300631718
21033648 29 17895490227291022321
229495 10 17344089586989248927
23402539 116 18409741651176977050
23419403 2 16821998344433027268
23559900 14 18041001726778147098
2748010 2 18048042058090997677
34934 24 18339088193369094519
350125 39 18048315840907991914
4340502 62 17632286943653597475
81228 2 18411140221414295784
9981440 41 17256818793054539321
9999458 23 18272649026729828069

> <PUBCHEM_SHAPE_MULTIPOLES>
522.21
6.34
3.29
1.59
1.5
2.06
-0.1
0.18
-0.61
-0.35
0.05
-0.07
-0.36
-0.32

> <PUBCHEM_SHAPE_SELFOVERLAP>
1163.814

> <PUBCHEM_SHAPE_VOLUME>
273.6

> <PUBCHEM_COORDINATE_TYPE>
2
5
10

$$$$

