443690
  -OEChem-07051213022D

 36 39  0     0  0  0  0  0  0999 V2000
    2.8641    1.7968    0.0000 O   0  0  0  0  0  0  0  0  0  0  0  0
    4.6380    2.8209    0.0000 O   0  0  0  0  0  0  0  0  0  0  0  0
    6.3821   -1.2483    0.0000 N   0  3  0  0  0  0  0  0  0  0  0  0
    5.5161   -1.7483    0.0000 C   0  0  0  0  0  0  0  0  0  0  0  0
    7.0000   -2.0267    0.0000 C   0  0  0  0  0  0  0  0  0  0  0  0
    6.5202   -2.8970    0.0000 C   0  0  0  0  0  0  0  0  0  0  0  0
    5.5322   -2.7898    0.0000 C   0  0  0  0  0  0  0  0  0  0  0  0
    4.6501   -1.2483    0.0000 C   0  0  0  0  0  0  0  0  0  0  0  0
    4.6501   -0.2483    0.0000 C   0  0  0  0  0  0  0  0  0  0  0  0
    6.3821   -0.2483    0.0000 C   0  0  0  0  0  0  0  0  0  0  0  0
    5.5161    0.2517    0.0000 C   0  0  0  0  0  0  0  0  0  0  0  0
    4.6341   -3.3176    0.0000 C   0  0  0  0  0  0  0  0  0  0  0  0
    3.7401   -1.7552    0.0000 C   0  0  0  0  0  0  0  0  0  0  0  0
    3.7320   -2.7968    0.0000 C   0  0  0  0  0  0  0  0  0  0  0  0
    3.7401    0.2585    0.0000 C   0  0  0  0  0  0  0  0  0  0  0  0
    5.5322    1.2932    0.0000 C   0  0  0  0  0  0  0  0  0  0  0  0
    3.7320    1.3001    0.0000 C   0  0  0  0  0  0  0  0  0  0  0  0
    4.6341    1.8209    0.0000 C   0  0  0  0  0  0  0  0  0  0  0  0
    2.0000    1.2934    0.0000 C   0  0  0  0  0  0  0  0  0  0  0  0
    5.5059    3.3176    0.0000 C   0  0  0  0  0  0  0  0  0  0  0  0
    7.4989   -2.3949    0.0000 H   0  0  0  0  0  0  0  0  0  0  0  0
    7.4307   -1.5807    0.0000 H   0  0  0  0  0  0  0  0  0  0  0  0
    6.3728   -3.4992    0.0000 H   0  0  0  0  0  0  0  0  0  0  0  0
    7.0978   -3.1223    0.0000 H   0  0  0  0  0  0  0  0  0  0  0  0
    6.9191    0.0617    0.0000 H   0  0  0  0  0  0  0  0  0  0  0  0
    4.6365   -3.9376    0.0000 H   0  0  0  0  0  0  0  0  0  0  0  0
    3.2068   -1.4390    0.0000 H   0  0  0  0  0  0  0  0  0  0  0  0
    3.1939   -3.1047    0.0000 H   0  0  0  0  0  0  0  0  0  0  0  0
    3.2068   -0.0577    0.0000 H   0  0  0  0  0  0  0  0  0  0  0  0
    6.0726    1.5970    0.0000 H   0  0  0  0  0  0  0  0  0  0  0  0
    1.6879    1.8292    0.0000 H   0  0  0  0  0  0  0  0  0  0  0  0
    1.4643    0.9814    0.0000 H   0  0  0  0  0  0  0  0  0  0  0  0
    2.3121    0.7577    0.0000 H   0  0  0  0  0  0  0  0  0  0  0  0
    5.8139    2.7795    0.0000 H   0  0  0  0  0  0  0  0  0  0  0  0
    6.0440    3.6255    0.0000 H   0  0  0  0  0  0  0  0  0  0  0  0
    5.1980    3.8557    0.0000 H   0  0  0  0  0  0  0  0  0  0  0  0
  1 17  1  0  0  0  0
  1 19  1  0  0  0  0
  2 18  1  0  0  0  0
  2 20  1  0  0  0  0
  3  4  1  0  0  0  0
  3  5  1  0  0  0  0
  3 10  2  0  0  0  0
  4  7  2  0  0  0  0
  4  8  1  0  0  0  0
  5  6  1  0  0  0  0
  5 21  1  0  0  0  0
  5 22  1  0  0  0  0
  6  7  1  0  0  0  0
  6 23  1  0  0  0  0
  6 24  1  0  0  0  0
  7 12  1  0  0  0  0
  8  9  1  0  0  0  0
  8 13  2  0  0  0  0
  9 11  1  0  0  0  0
  9 15  2  0  0  0  0
 10 11  1  0  0  0  0
 10 25  1  0  0  0  0
 11 16  2  0  0  0  0
 12 14  2  0  0  0  0
 12 26  1  0  0  0  0
 13 14  1  0  0  0  0
 13 27  1  0  0  0  0
 14 28  1  0  0  0  0
 15 17  1  0  0  0  0
 15 29  1  0  0  0  0
 16 18  1  0  0  0  0
 16 30  1  0  0  0  0
 17 18  2  0  0  0  0
 19 31  1  0  0  0  0
 19 32  1  0  0  0  0
 19 33  1  0  0  0  0
 20 34  1  0  0  0  0
 20 35  1  0  0  0  0
 20 36  1  0  0  0  0
M  CHG  1   3   1
M  END
> <PUBCHEM_COMPOUND_CID>
443690

> <PUBCHEM_COMPOUND_CANONICALIZED>
1

> <PUBCHEM_CACTVS_COMPLEXITY>
361

> <PUBCHEM_CACTVS_HBOND_ACCEPTOR>
2

> <PUBCHEM_CACTVS_HBOND_DONOR>
0

> <PUBCHEM_CACTVS_ROTATABLE_BOND>
2

> <PUBCHEM_CACTVS_SUBSKEYS>
AAADceB6MAAAAAAAAAAAAAAAAAAAAWAAAAA8YIAAAAAAAFix/AAAHgAAAAAADAzBngY+xvMMFACgAzRnRACCiCAxICAI2CAuzJgNJuLEsZuEMCpkwBHK6Aew0PMOoAADAAASQABAAAYAACSAAAAAAAAAAA==

> <PUBCHEM_IUPAC_INCHI>
InChI=1S/C17H16NO2/c1-19-15-8-12-10-18-7-6-11-4-3-5-13(17(11)18)14(12)9-16(15)20-2/h3-5,8-10H,6-7H2,1-2H3/q+1

> <PUBCHEM_IUPAC_INCHIKEY>
DYLVVAHQPYKZRX-UHFFFAOYSA-N

> <PUBCHEM_XLOGP3_AA>
3.5

> <PUBCHEM_EXACT_MASS>
266.118104

> <PUBCHEM_MOLECULAR_FORMULA>
C17H16NO2+

> <PUBCHEM_MOLECULAR_WEIGHT>
266.31444

> <PUBCHEM_OPENEYE_CAN_SMILES>
COC1=C(C=C2C3=C4C(=CC=C3)CC[N+]4=CC2=C1)OC

> <PUBCHEM_OPENEYE_ISO_SMILES>
COC1=C(C=C2C3=C4C(=CC=C3)CC[N+]4=CC2=C1)OC

> <PUBCHEM_CACTVS_TPSA>
22.3

> <PUBCHEM_MONOISOTOPIC_WEIGHT>
266.118104

> <PUBCHEM_TOTAL_CHARGE>
1

> <PUBCHEM_HEAVY_ATOM_COUNT>
20

> <PUBCHEM_ATOM_DEF_STEREO_COUNT>
0

> <PUBCHEM_ATOM_UDEF_STEREO_COUNT>
0

> <PUBCHEM_BOND_DEF_STEREO_COUNT>
0

> <PUBCHEM_BOND_UDEF_STEREO_COUNT>
0

> <PUBCHEM_ISOTOPIC_ATOM_COUNT>
0

> <PUBCHEM_COMPONENT_COUNT>
1

> <PUBCHEM_CACTVS_TAUTO_COUNT>
1

> <PUBCHEM_COORDINATE_TYPE>
1
5
255

> <PUBCHEM_BONDANNOTATIONS>
10  11  8
11  16  8
12  14  8
13  14  8
15  17  8
16  18  8
17  18  8
3  10  8
3  4  8
4  7  8
4  8  8
7  12  8
8  13  8
8  9  8
9  11  8
9  15  8

$$$$

