5282069
  -OEChem-07051213023D

 94 96  0     1  0  0  0  0  0999 V2000
   -3.4563    1.6255   -0.3497 O   0  0  0  0  0  0  0  0  0  0  0  0
   -5.9991    0.6160    1.8840 O   0  0  0  0  0  0  0  0  0  0  0  0
   -3.3535   -1.0515   -1.1727 O   0  0  0  0  0  0  0  0  0  0  0  0
   -3.2855    3.8000    0.3768 O   0  0  0  0  0  0  0  0  0  0  0  0
    4.1641   -1.6566   -1.9410 O   0  0  0  0  0  0  0  0  0  0  0  0
    4.0181   -3.7006    2.9598 O   0  0  0  0  0  0  0  0  0  0  0  0
    7.8749    3.3130   -0.3012 O   0  0  0  0  0  0  0  0  0  0  0  0
    7.6307   -0.6647    1.5351 O   0  0  0  0  0  0  0  0  0  0  0  0
   -6.0295    1.5454   -0.2508 N   0  0  0  0  0  0  0  0  0  0  0  0
    6.0940   -0.8227   -0.2337 N   0  0  0  0  0  0  0  0  0  0  0  0
   -6.8484   -0.6883    0.0715 C   0  0  0  0  0  0  0  0  0  0  0  0
   -6.3882   -1.9497    0.8053 C   0  0  0  0  0  0  0  0  0  0  0  0
   -8.3719   -0.5560    0.0202 C   0  0  0  0  0  0  0  0  0  0  0  0
   -7.0847   -2.1595    2.1494 C   0  0  0  0  0  0  0  0  0  0  0  0
   -9.0371   -0.7660    1.3794 C   0  0  0  0  0  0  0  0  0  0  0  0
   -8.6015   -2.0776    2.0224 C   0  0  0  0  0  0  0  0  0  0  0  0
   -6.2431    0.5421    0.6826 C   0  0  0  0  0  0  0  0  0  0  0  0
   -1.5857    0.5943   -1.5572 C   0  0  1  0  0  0  0  0  0  0  0  0
   -2.0287    1.5312   -0.3943 C   0  0  2  0  0  0  0  0  0  0  0  0
   -5.4796    2.8340    0.0845 C   0  0  1  0  0  0  0  0  0  0  0  0
   -1.9428   -0.9057   -1.3416 C   0  0  2  0  0  0  0  0  0  0  0  0
   -1.5428    1.1469    1.0138 C   0  0  0  0  0  0  0  0  0  0  0  0
   -2.1590    1.1414   -2.8770 C   0  0  0  0  0  0  0  0  0  0  0  0
   -3.9585    2.8253    0.0566 C   0  0  0  0  0  0  0  0  0  0  0  0
   -1.4369   -1.8217   -2.4503 C   0  0  0  0  0  0  0  0  0  0  0  0
   -6.0199    3.9001   -0.8559 C   0  0  0  0  0  0  0  0  0  0  0  0
   -0.1557   -2.2324   -2.5486 C   0  0  0  0  0  0  0  0  0  0  0  0
   -0.0713    1.1927    1.3214 C   0  0  0  0  0  0  0  0  0  0  0  0
   -2.4361   -2.2744   -3.4877 C   0  0  0  0  0  0  0  0  0  0  0  0
    0.9872   -1.9056   -1.6253 C   0  0  0  0  0  0  0  0  0  0  0  0
    1.8242   -3.1573   -1.3246 C   0  0  0  0  0  0  0  0  0  0  0  0
    0.9077    1.7248    0.5742 C   0  0  0  0  0  0  0  0  0  0  0  0
    2.9345   -2.8935   -0.3379 C   0  0  0  0  0  0  0  0  0  0  0  0
    2.2956    1.7132    0.9818 C   0  0  0  0  0  0  0  0  0  0  0  0
    4.0882   -2.0629   -0.7835 C   0  0  0  0  0  0  0  0  0  0  0  0
    2.9267   -3.4163    0.8934 C   0  0  0  0  0  0  0  0  0  0  0  0
    5.1509   -1.7282    0.2129 C   0  0  0  0  0  0  0  0  0  0  0  0
    4.0196   -3.1766    1.8511 C   0  0  0  0  0  0  0  0  0  0  0  0
    5.1061   -2.2671    1.4365 C   0  0  0  0  0  0  0  0  0  0  0  0
    3.2971    2.1482    0.2021 C   0  0  0  0  0  0  0  0  0  0  0  0
    7.1481    2.2071    0.2300 C   0  0  2  0  0  0  0  0  0  0  0  0
    7.7806    0.9010   -0.2687 C   0  0  0  0  0  0  0  0  0  0  0  0
    7.1848   -0.2989    0.4509 C   0  0  0  0  0  0  0  0  0  0  0  0
    4.6797    2.1044    0.6204 C   0  0  0  0  0  0  0  0  0  0  0  0
    5.7128    2.3480   -0.2010 C   0  0  0  0  0  0  0  0  0  0  0  0
    7.6900    4.4790    0.4867 C   0  0  0  0  0  0  0  0  0  0  0  0
   -6.4770   -0.7645   -0.9597 H   0  0  0  0  0  0  0  0  0  0  0  0
   -5.3026   -1.9324    0.9605 H   0  0  0  0  0  0  0  0  0  0  0  0
   -6.5983   -2.8189    0.1684 H   0  0  0  0  0  0  0  0  0  0  0  0
   -8.6661    0.4232   -0.3765 H   0  0  0  0  0  0  0  0  0  0  0  0
   -8.7647   -1.3064   -0.6782 H   0  0  0  0  0  0  0  0  0  0  0  0
   -6.7381   -1.4331    2.8910 H   0  0  0  0  0  0  0  0  0  0  0  0
   -6.8101   -3.1456    2.5430 H   0  0  0  0  0  0  0  0  0  0  0  0
  -10.1262   -0.7624    1.2568 H   0  0  0  0  0  0  0  0  0  0  0  0
   -8.7924    0.0696    2.0461 H   0  0  0  0  0  0  0  0  0  0  0  0
   -9.0602   -2.1738    3.0129 H   0  0  0  0  0  0  0  0  0  0  0  0
   -8.9645   -2.9191    1.4196 H   0  0  0  0  0  0  0  0  0  0  0  0
   -0.4950    0.6614   -1.6424 H   0  0  0  0  0  0  0  0  0  0  0  0
   -1.6183    2.5208   -0.6392 H   0  0  0  0  0  0  0  0  0  0  0  0
   -6.2148    1.3533   -1.2313 H   0  0  0  0  0  0  0  0  0  0  0  0
   -5.7727    3.0644    1.1157 H   0  0  0  0  0  0  0  0  0  0  0  0
   -1.5028   -1.2434   -0.3978 H   0  0  0  0  0  0  0  0  0  0  0  0
   -1.9151    0.1451    1.2603 H   0  0  0  0  0  0  0  0  0  0  0  0
   -2.0336    1.7972    1.7504 H   0  0  0  0  0  0  0  0  0  0  0  0
   -3.2444    1.0109   -2.9354 H   0  0  0  0  0  0  0  0  0  0  0  0
   -1.9423    2.2104   -2.9805 H   0  0  0  0  0  0  0  0  0  0  0  0
   -1.7073    0.6434   -3.7405 H   0  0  0  0  0  0  0  0  0  0  0  0
   -5.6465    4.8928   -0.5831 H   0  0  0  0  0  0  0  0  0  0  0  0
   -7.1145    3.9281   -0.8285 H   0  0  0  0  0  0  0  0  0  0  0  0
   -5.7163    3.7060   -1.8911 H   0  0  0  0  0  0  0  0  0  0  0  0
    0.1142   -2.8619   -3.3958 H   0  0  0  0  0  0  0  0  0  0  0  0
    0.1938    0.7419    2.2774 H   0  0  0  0  0  0  0  0  0  0  0  0
   -2.9576   -1.4206   -3.9297 H   0  0  0  0  0  0  0  0  0  0  0  0
   -1.9629   -2.8238   -4.3087 H   0  0  0  0  0  0  0  0  0  0  0  0
   -3.1791   -2.9396   -3.0359 H   0  0  0  0  0  0  0  0  0  0  0  0
   -3.5251   -1.9691   -0.8997 H   0  0  0  0  0  0  0  0  0  0  0  0
    1.6084   -1.1477   -2.1165 H   0  0  0  0  0  0  0  0  0  0  0  0
    0.6388   -1.4700   -0.6840 H   0  0  0  0  0  0  0  0  0  0  0  0
    1.1641   -3.9480   -0.9426 H   0  0  0  0  0  0  0  0  0  0  0  0
    2.2572   -3.5539   -2.2525 H   0  0  0  0  0  0  0  0  0  0  0  0
    0.6834    2.1943   -0.3780 H   0  0  0  0  0  0  0  0  0  0  0  0
    2.5147    1.3121    1.9692 H   0  0  0  0  0  0  0  0  0  0  0  0
    2.1096   -4.0436    1.2349 H   0  0  0  0  0  0  0  0  0  0  0  0
    5.8420   -2.0578    2.2026 H   0  0  0  0  0  0  0  0  0  0  0  0
    3.0896    2.5272   -0.7958 H   0  0  0  0  0  0  0  0  0  0  0  0
    5.9286   -0.4705   -1.1741 H   0  0  0  0  0  0  0  0  0  0  0  0
    7.2228    2.2172    1.3266 H   0  0  0  0  0  0  0  0  0  0  0  0
    7.6729    0.8000   -1.3558 H   0  0  0  0  0  0  0  0  0  0  0  0
    8.8612    0.9099   -0.0791 H   0  0  0  0  0  0  0  0  0  0  0  0
    4.8770    1.8094    1.6484 H   0  0  0  0  0  0  0  0  0  0  0  0
    5.5296    2.6083   -1.2413 H   0  0  0  0  0  0  0  0  0  0  0  0
    6.6420    4.7929    0.5014 H   0  0  0  0  0  0  0  0  0  0  0  0
    8.0519    4.3196    1.5074 H   0  0  0  0  0  0  0  0  0  0  0  0
    8.2784    5.2859    0.0405 H   0  0  0  0  0  0  0  0  0  0  0  0
  1 19  1  0  0  0  0
  1 24  1  0  0  0  0
  2 17  2  0  0  0  0
  3 21  1  0  0  0  0
  3 76  1  0  0  0  0
  4 24  2  0  0  0  0
  5 35  2  0  0  0  0
  6 38  2  0  0  0  0
  7 41  1  0  0  0  0
  7 46  1  0  0  0  0
  8 43  2  0  0  0  0
  9 17  1  0  0  0  0
  9 20  1  0  0  0  0
  9 60  1  0  0  0  0
 10 37  1  0  0  0  0
 10 43  1  0  0  0  0
 10 86  1  0  0  0  0
 11 12  1  0  0  0  0
 11 13  1  0  0  0  0
 11 17  1  0  0  0  0
 11 47  1  0  0  0  0
 12 14  1  0  0  0  0
 12 48  1  0  0  0  0
 12 49  1  0  0  0  0
 13 15  1  0  0  0  0
 13 50  1  0  0  0  0
 13 51  1  0  0  0  0
 14 16  1  0  0  0  0
 14 52  1  0  0  0  0
 14 53  1  0  0  0  0
 15 16  1  0  0  0  0
 15 54  1  0  0  0  0
 15 55  1  0  0  0  0
 16 56  1  0  0  0  0
 16 57  1  0  0  0  0
 18 19  1  0  0  0  0
 18 21  1  0  0  0  0
 18 23  1  0  0  0  0
 18 58  1  0  0  0  0
 19 22  1  0  0  0  0
 19 59  1  0  0  0  0
 20 24  1  0  0  0  0
 20 26  1  0  0  0  0
 20 61  1  0  0  0  0
 21 25  1  0  0  0  0
 21 62  1  0  0  0  0
 22 28  1  0  0  0  0
 22 63  1  0  0  0  0
 22 64  1  0  0  0  0
 23 65  1  0  0  0  0
 23 66  1  0  0  0  0
 23 67  1  0  0  0  0
 25 27  2  0  0  0  0
 25 29  1  0  0  0  0
 26 68  1  0  0  0  0
 26 69  1  0  0  0  0
 26 70  1  0  0  0  0
 27 30  1  0  0  0  0
 27 71  1  0  0  0  0
 28 32  2  0  0  0  0
 28 72  1  0  0  0  0
 29 73  1  0  0  0  0
 29 74  1  0  0  0  0
 29 75  1  0  0  0  0
 30 31  1  0  0  0  0
 30 77  1  0  0  0  0
 30 78  1  0  0  0  0
 31 33  1  0  0  0  0
 31 79  1  0  0  0  0
 31 80  1  0  0  0  0
 32 34  1  0  0  0  0
 32 81  1  0  0  0  0
 33 35  1  0  0  0  0
 33 36  2  0  0  0  0
 34 40  2  0  0  0  0
 34 82  1  0  0  0  0
 35 37  1  0  0  0  0
 36 38  1  0  0  0  0
 36 83  1  0  0  0  0
 37 39  2  0  0  0  0
 38 39  1  0  0  0  0
 39 84  1  0  0  0  0
 40 44  1  0  0  0  0
 40 85  1  0  0  0  0
 41 42  1  0  0  0  0
 41 45  1  0  0  0  0
 41 87  1  0  0  0  0
 42 43  1  0  0  0  0
 42 88  1  0  0  0  0
 42 89  1  0  0  0  0
 44 45  2  0  0  0  0
 44 90  1  0  0  0  0
 45 91  1  0  0  0  0
 46 92  1  0  0  0  0
 46 93  1  0  0  0  0
 46 94  1  0  0  0  0
M  END
> <PUBCHEM_COMPOUND_CID>
5282069

> <PUBCHEM_CONFORMER_RMSD>
1.2

> <PUBCHEM_CONFORMER_DIVERSEORDER>
1
13
28
25
18
20
5
16
19
31
4
10
17
33
12
26
22
3
29
11
23
34
15
30
14
24
6
8
35
9
2
21
27
32
7

> <PUBCHEM_MMFF94_PARTIAL_CHARGES>
50
1 -0.43
10 -0.54
11 0.06
17 0.57
19 0.28
2 -0.57
20 0.36
21 0.42
22 0.14
24 0.66
25 -0.28
27 -0.29
28 -0.29
29 0.14
3 -0.68
30 0.14
31 0.14
32 -0.15
33 -0.12
34 -0.15
35 0.54
36 -0.14
37 0.12
38 0.54
39 -0.14
4 -0.57
40 -0.15
41 0.42
42 0.06
43 0.57
44 -0.15
45 -0.29
46 0.28
5 -0.57
6 -0.57
60 0.37
7 -0.56
71 0.15
72 0.15
76 0.4
8 -0.57
81 0.15
82 0.15
83 0.15
84 0.15
85 0.15
86 0.37
9 -0.73
90 0.15
91 0.15

> <PUBCHEM_EFFECTIVE_ROTOR_COUNT>
10

> <PUBCHEM_PHARMACOPHORE_FEATURES>
12
1 10 donor
1 2 acceptor
1 3 acceptor
1 3 donor
1 4 acceptor
1 5 acceptor
1 6 acceptor
1 7 acceptor
1 8 acceptor
1 9 donor
6 11 12 13 14 15 16 rings
6 33 35 36 37 38 39 rings

> <PUBCHEM_HEAVY_ATOM_COUNT>
46

> <PUBCHEM_ATOM_DEF_STEREO_COUNT>
5

> <PUBCHEM_ATOM_UDEF_STEREO_COUNT>
0

> <PUBCHEM_BOND_DEF_STEREO_COUNT>
4

> <PUBCHEM_BOND_UDEF_STEREO_COUNT>
0

> <PUBCHEM_ISOTOPIC_ATOM_COUNT>
0

> <PUBCHEM_COMPONENT_COUNT>
1

> <PUBCHEM_CACTVS_TAUTO_COUNT>
62

> <PUBCHEM_CONFORMER_ID>
0050991500000001

> <PUBCHEM_MMFF94_ENERGY>
88.3324

> <PUBCHEM_FEATURE_SELFOVERLAP>
60.893

> <PUBCHEM_SHAPE_FINGERPRINT>
10677394 353 18117558419171143951
10939801 23 18409446964511930063
11973864 155 18197492927717056100
13111901 25 18186525392795487335
13383668 1 18337395942839523655
13782708 43 17988077928154337467
13811026 1 18412261736264959009
14017579 151 14907915842158838032
15150950 15 18408885105395650656
15219648 46 18342183301094750810
15274700 21 18267868272446797294
15297060 5 17095532807620076718
15351334 14 17560533909593333021
20737093 133 18194402182302027372
397830 11 18339639048853074031
5109719 28 18113613503955807607

> <PUBCHEM_SHAPE_MULTIPOLES>
889.74
26.65
5.33
2.47
10.87
1.76
1.09
6.78
-13.44
-4.95
-0.52
1.97
-2.57
0.71

> <PUBCHEM_SHAPE_SELFOVERLAP>
1825.149

> <PUBCHEM_SHAPE_VOLUME>
503.8

> <PUBCHEM_COORDINATE_TYPE>
2
5
10

$$$$

