83494
  -OEChem-07051213033D

 40 41  0     0  0  0  0  0  0999 V2000
   -5.1396   -2.0894   -0.1019 O   0  0  0  0  0  0  0  0  0  0  0  0
    5.7397   -0.9199   -0.9185 O   0  0  0  0  0  0  0  0  0  0  0  0
   -0.8887    1.6124   -0.3480 C   0  0  0  0  0  0  0  0  0  0  0  0
    0.0261    1.5231    0.9227 C   0  0  0  0  0  0  0  0  0  0  0  0
   -2.0489    0.6020   -0.2812 C   0  0  0  0  0  0  0  0  0  0  0  0
   -0.0089    1.4677   -1.6149 C   0  0  0  0  0  0  0  0  0  0  0  0
   -1.4891    3.0416   -0.4055 C   0  0  0  0  0  0  0  0  0  0  0  0
    0.6661    0.1738    1.1976 C   0  0  0  0  0  0  0  0  0  0  0  0
   -2.1886   -0.2952   -1.3087 C   0  0  0  0  0  0  0  0  0  0  0  0
   -2.8866    0.6476    0.8034 C   0  0  0  0  0  0  0  0  0  0  0  0
    2.0038   -0.1147    0.6406 C   0  0  0  0  0  0  0  0  0  0  0  0
   -3.2396   -1.2104   -1.2475 C   0  0  0  0  0  0  0  0  0  0  0  0
   -3.9373   -0.2677    0.8647 C   0  0  0  0  0  0  0  0  0  0  0  0
    0.0160   -0.7901    1.8719 C   0  0  0  0  0  0  0  0  0  0  0  0
   -4.1140   -1.1966   -0.1608 C   0  0  0  0  0  0  0  0  0  0  0  0
    2.3083   -1.4073    0.2530 C   0  0  0  0  0  0  0  0  0  0  0  0
    2.9198    0.9149    0.5187 C   0  0  0  0  0  0  0  0  0  0  0  0
    3.5710   -1.6796   -0.2736 C   0  0  0  0  0  0  0  0  0  0  0  0
    4.1823    0.6427   -0.0081 C   0  0  0  0  0  0  0  0  0  0  0  0
    4.5081   -0.6546   -0.4042 C   0  0  0  0  0  0  0  0  0  0  0  0
    0.7629    2.3307    0.8814 H   0  0  0  0  0  0  0  0  0  0  0  0
   -0.5648    1.7878    1.8121 H   0  0  0  0  0  0  0  0  0  0  0  0
    0.4477    0.4766   -1.7031 H   0  0  0  0  0  0  0  0  0  0  0  0
   -0.5810    1.6601   -2.5308 H   0  0  0  0  0  0  0  0  0  0  0  0
    0.8110    2.1963   -1.6017 H   0  0  0  0  0  0  0  0  0  0  0  0
   -2.0516    3.2945    0.5001 H   0  0  0  0  0  0  0  0  0  0  0  0
   -0.7008    3.7962   -0.5125 H   0  0  0  0  0  0  0  0  0  0  0  0
   -2.1714    3.1510   -1.2571 H   0  0  0  0  0  0  0  0  0  0  0  0
   -1.5425   -0.3498   -2.1751 H   0  0  0  0  0  0  0  0  0  0  0  0
   -2.7733    1.3637    1.6098 H   0  0  0  0  0  0  0  0  0  0  0  0
   -3.3730   -1.9319   -2.0492 H   0  0  0  0  0  0  0  0  0  0  0  0
   -4.6124   -0.2460    1.7161 H   0  0  0  0  0  0  0  0  0  0  0  0
   -0.9654   -0.6110    2.2965 H   0  0  0  0  0  0  0  0  0  0  0  0
    0.4376   -1.7640    2.0948 H   0  0  0  0  0  0  0  0  0  0  0  0
    1.5994   -2.2281    0.3052 H   0  0  0  0  0  0  0  0  0  0  0  0
    2.7286    1.9304    0.8457 H   0  0  0  0  0  0  0  0  0  0  0  0
    3.8168   -2.6905   -0.5876 H   0  0  0  0  0  0  0  0  0  0  0  0
    4.9065    1.4480   -0.0978 H   0  0  0  0  0  0  0  0  0  0  0  0
   -5.6428   -1.9374    0.7165 H   0  0  0  0  0  0  0  0  0  0  0  0
    6.2575   -0.0967   -0.9369 H   0  0  0  0  0  0  0  0  0  0  0  0
  1 15  1  0  0  0  0
  1 39  1  0  0  0  0
  2 20  1  0  0  0  0
  2 40  1  0  0  0  0
  3  4  1  0  0  0  0
  3  5  1  0  0  0  0
  3  6  1  0  0  0  0
  3  7  1  0  0  0  0
  4  8  1  0  0  0  0
  4 21  1  0  0  0  0
  4 22  1  0  0  0  0
  5  9  2  0  0  0  0
  5 10  1  0  0  0  0
  6 23  1  0  0  0  0
  6 24  1  0  0  0  0
  6 25  1  0  0  0  0
  7 26  1  0  0  0  0
  7 27  1  0  0  0  0
  7 28  1  0  0  0  0
  8 11  1  0  0  0  0
  8 14  2  0  0  0  0
  9 12  1  0  0  0  0
  9 29  1  0  0  0  0
 10 13  2  0  0  0  0
 10 30  1  0  0  0  0
 11 16  2  0  0  0  0
 11 17  1  0  0  0  0
 12 15  2  0  0  0  0
 12 31  1  0  0  0  0
 13 15  1  0  0  0  0
 13 32  1  0  0  0  0
 14 33  1  0  0  0  0
 14 34  1  0  0  0  0
 16 18  1  0  0  0  0
 16 35  1  0  0  0  0
 17 19  2  0  0  0  0
 17 36  1  0  0  0  0
 18 20  2  0  0  0  0
 18 37  1  0  0  0  0
 19 20  1  0  0  0  0
 19 38  1  0  0  0  0
M  END
> <PUBCHEM_COMPOUND_CID>
83494

> <PUBCHEM_CONFORMER_RMSD>
0.6

> <PUBCHEM_CONFORMER_DIVERSEORDER>
2
29
32
20
24
11
10
6
17
16
21
28
22
34
33
23
14
8
30
15
26
12
1
25
19
3
18
7
35
5
31
4
9
13
27

> <PUBCHEM_MMFF94_PARTIAL_CHARGES>
30
1 -0.53
10 -0.15
11 0.03
12 -0.15
13 -0.15
14 -0.3
15 0.08
16 -0.15
17 -0.15
18 -0.15
19 -0.15
2 -0.53
20 0.08
29 0.15
3 0.14
30 0.15
31 0.15
32 0.15
33 0.15
34 0.15
35 0.15
36 0.15
37 0.15
38 0.15
39 0.45
4 0.14
40 0.45
5 -0.14
8 -0.17
9 -0.15

> <PUBCHEM_EFFECTIVE_ROTOR_COUNT>
4

> <PUBCHEM_PHARMACOPHORE_FEATURES>
6
1 1 donor
1 14 hydrophobe
1 2 donor
3 3 6 7 hydrophobe
6 11 16 17 18 19 20 rings
6 5 9 10 12 13 15 rings

> <PUBCHEM_HEAVY_ATOM_COUNT>
20

> <PUBCHEM_ATOM_DEF_STEREO_COUNT>
0

> <PUBCHEM_ATOM_UDEF_STEREO_COUNT>
0

> <PUBCHEM_BOND_DEF_STEREO_COUNT>
0

> <PUBCHEM_BOND_UDEF_STEREO_COUNT>
0

> <PUBCHEM_ISOTOPIC_ATOM_COUNT>
0

> <PUBCHEM_COMPONENT_COUNT>
1

> <PUBCHEM_CACTVS_TAUTO_COUNT>
4

> <PUBCHEM_CONFORMER_ID>
0001462600000002

> <PUBCHEM_MMFF94_ENERGY>
73.6831

> <PUBCHEM_FEATURE_SELFOVERLAP>
30.446

> <PUBCHEM_SHAPE_FINGERPRINT>
10042902 136 18041846078103661007
10498660 4 17131557253325168356
11089746 13 13183016299109561222
11578080 2 17968963923597131321
12077114 3 10951755404963487804
121448 382 17060336353138862256
12403260 363 17988928911926720208
12553582 1 18336562537734916455
12596602 18 15068628145229366043
12633257 1 15719673152538375383
12670546 177 17417807301513327798
12714826 92 18114471161611359593
128620 24 17703793625982717130
13103583 49 16588295043616022499
13149001 5 17130417991616708249
13224815 77 18272660068652980688
13544653 18 18413106147767025897
13675066 3 14056720149493141816
14004511 7 7204769293630127012
14251764 30 18333729087527716295
14251764 38 13326563051873496670
14787075 74 18059292041801555784
15061688 2 10231763292352498201
15209289 33 18186802461241390123
15209294 21 8862944965585759450
15375462 189 17822016388887151090
17349148 13 17775284989197467624
17357779 13 18131627868052504720
17492 54 15698002907604138095
17804303 29 17603587405008515779
1813 80 18272371945014421277
192875 21 12607415402773159686
19422 9 18186801374440279233
200 152 17775282780988269176
20388580 30 18130788898036735501
20871999 31 18131359630629003077
21637258 2 17822019695964730039
21713013 43 18334858367942371412
22950370 63 18333726901409779291
23402539 116 17989205984171484216
23557571 272 18343581871273884276
23559900 14 18336557083184778256
23566358 27 17969227724566594736
23598288 3 18193007134015642221
2838139 119 13110974105927986910
2871803 45 18341903990739137995
3268164 11 17846780753825521788
3323516 105 18333736801625836472
3472631 163 12103305819003671111
351380 180 10952053346602484606
3737641 26 18261946457280299422
4325135 7 18333732382484465732
465052 167 16951127257947462743
5104073 3 18041285460644113410
6287921 2 17971768674395204384
83771 10 18260269641870237433

> <PUBCHEM_SHAPE_MULTIPOLES>
399.85
9.59
2.2
1.38
4.6
0.93
0.06
-5.8
-1.87
-1.2
-0.38
-0.33
-0.02
0.1

> <PUBCHEM_SHAPE_SELFOVERLAP>
854.818

> <PUBCHEM_SHAPE_VOLUME>
223.4

> <PUBCHEM_COORDINATE_TYPE>
2
5
10

$$$$

