200104
  -OEChem-07051213073D

 77 80  0     1  0  0  0  0  0999 V2000
    2.4970    1.4867    1.6987 S   0  0  0  0  0  0  0  0  0  0  0  0
    0.6089   -4.0720   -0.3732 O   0  0  0  0  0  0  0  0  0  0  0  0
   -0.4456   -4.5189    1.7164 O   0  0  0  0  0  0  0  0  0  0  0  0
   -1.4434   -1.9222   -0.0364 O   0  0  0  0  0  0  0  0  0  0  0  0
   -0.8831    3.8772    0.2905 O   0  0  0  0  0  0  0  0  0  0  0  0
   -1.8490   -0.4903   -1.7857 O   0  0  0  0  0  0  0  0  0  0  0  0
    1.4238    0.7829    2.3762 O   0  0  0  0  0  0  0  0  0  0  0  0
    3.4720    2.2243    2.4808 O   0  0  0  0  0  0  0  0  0  0  0  0
    5.4729   -2.5086   -1.5030 O   0  0  0  0  0  0  0  0  0  0  0  0
   -1.6703    0.2636    0.4004 N   0  0  0  0  0  0  0  0  0  0  0  0
    1.8294    2.5178    0.4861 N   0  0  2  0  0  0  0  0  0  0  0  0
   -1.7603   -4.3330   -0.2697 C   0  0  2  0  0  0  0  0  0  0  0  0
   -0.4300   -4.7862    0.3079 C   0  0  1  0  0  0  0  0  0  0  0  0
   -1.4169   -3.0146   -0.9443 C   0  0  2  0  0  0  0  0  0  0  0  0
   -2.6734   -4.2996    0.9292 C   0  0  0  0  0  0  0  0  0  0  0  0
    0.0094   -3.2562   -1.3919 C   0  0  0  0  0  0  0  0  0  0  0  0
   -1.7381   -4.0289    2.0892 C   0  0  0  0  0  0  0  0  0  0  0  0
   -1.8841    1.6749    0.1501 C   0  0  2  0  0  0  0  0  0  0  0  0
   -0.6345    2.4941    0.5420 C   0  0  1  0  0  0  0  0  0  0  0  0
   -1.6718   -0.6935   -0.5891 C   0  0  0  0  0  0  0  0  0  0  0  0
    0.6152    2.0549   -0.2259 C   0  0  0  0  0  0  0  0  0  0  0  0
   -3.1667    2.1194    0.8797 C   0  0  0  0  0  0  0  0  0  0  0  0
    2.7754    3.2193   -0.4204 C   0  0  0  0  0  0  0  0  0  0  0  0
    2.2380    4.5882   -0.8553 C   0  0  0  0  0  0  0  0  0  0  0  0
   -4.4399    1.6603    0.2136 C   0  0  0  0  0  0  0  0  0  0  0  0
    3.3871    0.2917    0.7414 C   0  0  0  0  0  0  0  0  0  0  0  0
    3.1450    5.2597   -1.8875 C   0  0  0  0  0  0  0  0  0  0  0  0
    1.9922    5.5197    0.3325 C   0  0  0  0  0  0  0  0  0  0  0  0
   -5.0504    2.4618   -0.7513 C   0  0  0  0  0  0  0  0  0  0  0  0
   -5.0066    0.4343    0.5621 C   0  0  0  0  0  0  0  0  0  0  0  0
    2.7513   -0.8745    0.3158 C   0  0  0  0  0  0  0  0  0  0  0  0
    4.7241    0.5170    0.4132 C   0  0  0  0  0  0  0  0  0  0  0  0
   -6.2276    2.0374   -1.3674 C   0  0  0  0  0  0  0  0  0  0  0  0
   -6.1839    0.0099   -0.0543 C   0  0  0  0  0  0  0  0  0  0  0  0
   -6.7943    0.8115   -1.0190 C   0  0  0  0  0  0  0  0  0  0  0  0
    3.4522   -1.8155   -0.4382 C   0  0  0  0  0  0  0  0  0  0  0  0
    5.4251   -0.4243   -0.3409 C   0  0  0  0  0  0  0  0  0  0  0  0
    4.7891   -1.5905   -0.7666 C   0  0  0  0  0  0  0  0  0  0  0  0
    4.7616   -3.6780   -1.9057 C   0  0  0  0  0  0  0  0  0  0  0  0
   -2.1066   -5.0410   -1.0323 H   0  0  0  0  0  0  0  0  0  0  0  0
   -0.2669   -5.8605    0.1722 H   0  0  0  0  0  0  0  0  0  0  0  0
   -2.0925   -2.8359   -1.7886 H   0  0  0  0  0  0  0  0  0  0  0  0
   -3.4879   -3.5734    0.8570 H   0  0  0  0  0  0  0  0  0  0  0  0
   -3.1249   -5.2904    1.0626 H   0  0  0  0  0  0  0  0  0  0  0  0
    0.5925   -2.3403   -1.5110 H   0  0  0  0  0  0  0  0  0  0  0  0
    0.0407   -3.8250   -2.3275 H   0  0  0  0  0  0  0  0  0  0  0  0
   -1.6485   -2.9585    2.2991 H   0  0  0  0  0  0  0  0  0  0  0  0
   -2.0645   -4.5255    3.0077 H   0  0  0  0  0  0  0  0  0  0  0  0
   -2.0442    1.8222   -0.9267 H   0  0  0  0  0  0  0  0  0  0  0  0
   -0.4770    2.3978    1.6218 H   0  0  0  0  0  0  0  0  0  0  0  0
    0.5779    2.4291   -1.2542 H   0  0  0  0  0  0  0  0  0  0  0  0
    0.6690    0.9675   -0.3191 H   0  0  0  0  0  0  0  0  0  0  0  0
   -1.5066   -0.0379    1.3563 H   0  0  0  0  0  0  0  0  0  0  0  0
   -3.2050    3.2144    0.9447 H   0  0  0  0  0  0  0  0  0  0  0  0
   -3.1534    1.7725    1.9220 H   0  0  0  0  0  0  0  0  0  0  0  0
    2.9742    2.5910   -1.2972 H   0  0  0  0  0  0  0  0  0  0  0  0
    3.7320    3.3754    0.0909 H   0  0  0  0  0  0  0  0  0  0  0  0
    1.2709    4.4544   -1.3528 H   0  0  0  0  0  0  0  0  0  0  0  0
   -1.0764    3.9783   -0.6571 H   0  0  0  0  0  0  0  0  0  0  0  0
    3.2673    4.6218   -2.7691 H   0  0  0  0  0  0  0  0  0  0  0  0
    2.7214    6.2133   -2.2195 H   0  0  0  0  0  0  0  0  0  0  0  0
    4.1385    5.4561   -1.4704 H   0  0  0  0  0  0  0  0  0  0  0  0
    2.9316    5.7509    0.8466 H   0  0  0  0  0  0  0  0  0  0  0  0
    1.3119    5.0810    1.0672 H   0  0  0  0  0  0  0  0  0  0  0  0
    1.5525    6.4654   -0.0022 H   0  0  0  0  0  0  0  0  0  0  0  0
   -4.6170    3.4177   -1.0335 H   0  0  0  0  0  0  0  0  0  0  0  0
   -4.5422   -0.1995    1.3128 H   0  0  0  0  0  0  0  0  0  0  0  0
    1.7120   -1.0715    0.5630 H   0  0  0  0  0  0  0  0  0  0  0  0
    5.2391    1.4185    0.7320 H   0  0  0  0  0  0  0  0  0  0  0  0
   -6.7024    2.6609   -2.1191 H   0  0  0  0  0  0  0  0  0  0  0  0
   -6.6250   -0.9448    0.2168 H   0  0  0  0  0  0  0  0  0  0  0  0
   -7.7107    0.4809   -1.4990 H   0  0  0  0  0  0  0  0  0  0  0  0
    2.9064   -2.7029   -0.7328 H   0  0  0  0  0  0  0  0  0  0  0  0
    6.4661   -0.2432   -0.5943 H   0  0  0  0  0  0  0  0  0  0  0  0
    3.9252   -3.4323   -2.5690 H   0  0  0  0  0  0  0  0  0  0  0  0
    5.4565   -4.2961   -2.4835 H   0  0  0  0  0  0  0  0  0  0  0  0
    4.4454   -4.2739   -1.0428 H   0  0  0  0  0  0  0  0  0  0  0  0
  1  7  2  0  0  0  0
  1  8  2  0  0  0  0
  1 11  1  0  0  0  0
  1 26  1  0  0  0  0
  2 13  1  0  0  0  0
  2 16  1  0  0  0  0
  3 13  1  0  0  0  0
  3 17  1  0  0  0  0
  4 14  1  0  0  0  0
  4 20  1  0  0  0  0
  5 19  1  0  0  0  0
  5 59  1  0  0  0  0
  6 20  2  0  0  0  0
  9 38  1  0  0  0  0
  9 39  1  0  0  0  0
 10 18  1  0  0  0  0
 10 20  1  0  0  0  0
 10 53  1  0  0  0  0
 11 21  1  0  0  0  0
 11 23  1  0  0  0  0
 12 13  1  0  0  0  0
 12 14  1  0  0  0  0
 12 15  1  0  0  0  0
 12 40  1  0  0  0  0
 13 41  1  0  0  0  0
 14 16  1  0  0  0  0
 14 42  1  0  0  0  0
 15 17  1  0  0  0  0
 15 43  1  0  0  0  0
 15 44  1  0  0  0  0
 16 45  1  0  0  0  0
 16 46  1  0  0  0  0
 17 47  1  0  0  0  0
 17 48  1  0  0  0  0
 18 19  1  0  0  0  0
 18 22  1  0  0  0  0
 18 49  1  0  0  0  0
 19 21  1  0  0  0  0
 19 50  1  0  0  0  0
 21 51  1  0  0  0  0
 21 52  1  0  0  0  0
 22 25  1  0  0  0  0
 22 54  1  0  0  0  0
 22 55  1  0  0  0  0
 23 24  1  0  0  0  0
 23 56  1  0  0  0  0
 23 57  1  0  0  0  0
 24 27  1  0  0  0  0
 24 28  1  0  0  0  0
 24 58  1  0  0  0  0
 25 29  2  0  0  0  0
 25 30  1  0  0  0  0
 26 31  2  0  0  0  0
 26 32  1  0  0  0  0
 27 60  1  0  0  0  0
 27 61  1  0  0  0  0
 27 62  1  0  0  0  0
 28 63  1  0  0  0  0
 28 64  1  0  0  0  0
 28 65  1  0  0  0  0
 29 33  1  0  0  0  0
 29 66  1  0  0  0  0
 30 34  2  0  0  0  0
 30 67  1  0  0  0  0
 31 36  1  0  0  0  0
 31 68  1  0  0  0  0
 32 37  2  0  0  0  0
 32 69  1  0  0  0  0
 33 35  2  0  0  0  0
 33 70  1  0  0  0  0
 34 35  1  0  0  0  0
 34 71  1  0  0  0  0
 35 72  1  0  0  0  0
 36 38  2  0  0  0  0
 36 73  1  0  0  0  0
 37 38  1  0  0  0  0
 37 74  1  0  0  0  0
 39 75  1  0  0  0  0
 39 76  1  0  0  0  0
 39 77  1  0  0  0  0
M  END
> <PUBCHEM_COMPOUND_CID>
200104

> <PUBCHEM_CONFORMER_RMSD>
1.4

> <PUBCHEM_CONFORMER_DIVERSEORDER>
2
134
119
117
175
129
182
73
108
174
139
127
123
26
34
167
165
92
86
75
103
52
94
39
82
98
24
169
7
65
61
121
22
71
171
55
33
8
178
74
153
118
160
130
23
173
50
161
105
116
6
146
59
124
43
32
56
113
110
138
12
77
106
151
135
172
37
141
11
142
49
112
97
10
102
170
87
51
47
78
21
162
181
133
100
88
115
157
54
60
126
81
137
125
29
183
68
111
83
154
152
14
120
57
30
159
15
180
114
101
70
45
96
147
122
144
16
89
46
44
148
131
80
63
64
27
58
104
140
25
93
76
150
163
67
145
35
19
53
91
177
79
156
176
143
99
40
36
136
107
48
166
13
158
38
95
1
41
128
17
179
20
132
28
66
149
164
4
155
72
90
84
85
3
5
168
109
42
18
62
69
31
9

> <PUBCHEM_MMFF94_PARTIAL_CHARGES>
45
1 1.45
10 -0.73
11 -0.85
13 0.56
14 0.28
16 0.28
17 0.28
18 0.3
19 0.28
2 -0.56
20 0.78
21 0.36
22 0.14
23 0.36
25 -0.14
26 -0.01
29 -0.15
3 -0.56
30 -0.15
31 -0.15
32 -0.15
33 -0.15
34 -0.15
35 -0.15
36 -0.15
37 -0.15
38 0.08
39 0.28
4 -0.43
5 -0.68
53 0.37
59 0.4
6 -0.57
66 0.15
67 0.15
68 0.15
69 0.15
7 -0.65
70 0.15
71 0.15
72 0.15
73 0.15
74 0.15
8 -0.65
9 -0.36

> <PUBCHEM_EFFECTIVE_ROTOR_COUNT>
15.2

> <PUBCHEM_PHARMACOPHORE_FEATURES>
14
1 10 donor
1 2 acceptor
1 3 acceptor
1 5 acceptor
1 5 donor
1 6 acceptor
1 7 acceptor
1 8 acceptor
1 9 acceptor
3 24 27 28 hydrophobe
5 2 12 13 14 16 rings
5 3 12 13 15 17 rings
6 25 29 30 33 34 35 rings
6 26 31 32 36 37 38 rings

> <PUBCHEM_HEAVY_ATOM_COUNT>
39

> <PUBCHEM_ATOM_DEF_STEREO_COUNT>
5

> <PUBCHEM_ATOM_UDEF_STEREO_COUNT>
0

> <PUBCHEM_BOND_DEF_STEREO_COUNT>
0

> <PUBCHEM_BOND_UDEF_STEREO_COUNT>
0

> <PUBCHEM_ISOTOPIC_ATOM_COUNT>
0

> <PUBCHEM_COMPONENT_COUNT>
1

> <PUBCHEM_CACTVS_TAUTO_COUNT>
2

> <PUBCHEM_CONFORMER_ID>
00030DA800000002

> <PUBCHEM_MMFF94_ENERGY>
92.545

> <PUBCHEM_FEATURE_SELFOVERLAP>
71.54

> <PUBCHEM_SHAPE_FINGERPRINT>
1361 2 18410577331263576633
14415361 349 18113616777464420052
14725015 67 18048606116505093058
15351339 4 17906729559900060466
19319366 153 17632300124660556386
23559900 14 18409171030322794593
340366 18 18413110541524312172
5776283 40 18334290977425353898

> <PUBCHEM_SHAPE_MULTIPOLES>
749.53
12.38
8.67
1.74
9.33
1.38
0.4
-3.65
-4.17
-3.67
-0.8
-0.96
0.32
2.4

> <PUBCHEM_SHAPE_SELFOVERLAP>
1556.74

> <PUBCHEM_SHAPE_VOLUME>
429.5

> <PUBCHEM_COORDINATE_TYPE>
2
5
10

$$$$

