9561767
  -OEChem-07051213073D

 43 46  0     1  0  0  0  0  0999 V2000
   -4.3220    1.8312    0.2799 O   0  0  0  0  0  0  0  0  0  0  0  0
   -5.0282   -2.3362    0.1700 O   0  0  0  0  0  0  0  0  0  0  0  0
    6.3422   -0.3494   -0.3028 O   0  0  0  0  0  0  0  0  0  0  0  0
   -5.0626   -0.9396    0.2144 N   0  0  0  0  0  0  0  0  0  0  0  0
   -1.5682   -0.2946    0.2376 C   0  0  1  0  0  0  0  0  0  0  0  0
   -0.1060   -0.5474   -0.1310 C   0  0  1  0  0  0  0  0  0  0  0  0
   -2.0557    1.0718   -0.3204 C   0  0  2  0  0  0  0  0  0  0  0  0
    0.7680    0.5640    0.5297 C   0  0  2  0  0  0  0  0  0  0  0  0
   -1.2600    2.1740    0.3678 C   0  0  0  0  0  0  0  0  0  0  0  0
    0.2551    1.9839    0.1630 C   0  0  0  0  0  0  0  0  0  0  0  0
   -2.6349   -1.3250   -0.1568 C   0  0  0  0  0  0  0  0  0  0  0  0
    0.3947   -1.9153    0.3357 C   0  0  0  0  0  0  0  0  0  0  0  0
   -3.5133    0.9568    0.0581 C   0  0  0  0  0  0  0  0  0  0  0  0
    2.2535    0.3267    0.2705 C   0  0  0  0  0  0  0  0  0  0  0  0
   -2.0064    1.2179   -1.8522 C   0  0  0  0  0  0  0  0  0  0  0  0
   -3.8656   -0.4961    0.0646 C   0  0  0  0  0  0  0  0  0  0  0  0
    1.8099   -2.1536   -0.1825 C   0  0  0  0  0  0  0  0  0  0  0  0
    2.7318   -0.9695   -0.0216 C   0  0  0  0  0  0  0  0  0  0  0  0
    3.1908    1.3667    0.4021 C   0  0  0  0  0  0  0  0  0  0  0  0
    4.1074   -1.1795   -0.2238 C   0  0  0  0  0  0  0  0  0  0  0  0
    4.5554    1.1426    0.2075 C   0  0  0  0  0  0  0  0  0  0  0  0
    5.0138   -0.1294   -0.1099 C   0  0  0  0  0  0  0  0  0  0  0  0
   -1.6107   -0.2450    1.3406 H   0  0  0  0  0  0  0  0  0  0  0  0
    0.0085   -0.5074   -1.2220 H   0  0  0  0  0  0  0  0  0  0  0  0
    0.6534    0.4700    1.6209 H   0  0  0  0  0  0  0  0  0  0  0  0
   -1.4786    2.1811    1.4438 H   0  0  0  0  0  0  0  0  0  0  0  0
   -1.5612    3.1605   -0.0053 H   0  0  0  0  0  0  0  0  0  0  0  0
    0.5185    2.2123   -0.8770 H   0  0  0  0  0  0  0  0  0  0  0  0
    0.7591    2.7385    0.7781 H   0  0  0  0  0  0  0  0  0  0  0  0
   -2.6025   -2.2005    0.4963 H   0  0  0  0  0  0  0  0  0  0  0  0
   -2.5642   -1.6287   -1.2046 H   0  0  0  0  0  0  0  0  0  0  0  0
   -0.2527   -2.7211   -0.0274 H   0  0  0  0  0  0  0  0  0  0  0  0
    0.3843   -1.9661    1.4321 H   0  0  0  0  0  0  0  0  0  0  0  0
   -0.9882    1.1860   -2.2488 H   0  0  0  0  0  0  0  0  0  0  0  0
   -2.5809    0.4378   -2.3635 H   0  0  0  0  0  0  0  0  0  0  0  0
   -2.4442    2.1766   -2.1559 H   0  0  0  0  0  0  0  0  0  0  0  0
    1.7618   -2.3985   -1.2514 H   0  0  0  0  0  0  0  0  0  0  0  0
    2.2298   -3.0244    0.3355 H   0  0  0  0  0  0  0  0  0  0  0  0
    2.8804    2.3732    0.6664 H   0  0  0  0  0  0  0  0  0  0  0  0
    4.4650   -2.1774   -0.4704 H   0  0  0  0  0  0  0  0  0  0  0  0
    5.2541    1.9685    0.3103 H   0  0  0  0  0  0  0  0  0  0  0  0
   -5.9667   -2.5586    0.2911 H   0  0  0  0  0  0  0  0  0  0  0  0
    6.4795   -1.2890   -0.5134 H   0  0  0  0  0  0  0  0  0  0  0  0
  1 13  2  0  0  0  0
  2  4  1  0  0  0  0
  2 42  1  0  0  0  0
  3 22  1  0  0  0  0
  3 43  1  0  0  0  0
  4 16  2  0  0  0  0
  5  6  1  0  0  0  0
  5  7  1  0  0  0  0
  5 11  1  0  0  0  0
  5 23  1  0  0  0  0
  6  8  1  0  0  0  0
  6 12  1  0  0  0  0
  6 24  1  0  0  0  0
  7  9  1  0  0  0  0
  7 13  1  0  0  0  0
  7 15  1  0  0  0  0
  8 10  1  0  0  0  0
  8 14  1  0  0  0  0
  8 25  1  0  0  0  0
  9 10  1  0  0  0  0
  9 26  1  0  0  0  0
  9 27  1  0  0  0  0
 10 28  1  0  0  0  0
 10 29  1  0  0  0  0
 11 16  1  0  0  0  0
 11 30  1  0  0  0  0
 11 31  1  0  0  0  0
 12 17  1  0  0  0  0
 12 32  1  0  0  0  0
 12 33  1  0  0  0  0
 13 16  1  0  0  0  0
 14 18  2  0  0  0  0
 14 19  1  0  0  0  0
 15 34  1  0  0  0  0
 15 35  1  0  0  0  0
 15 36  1  0  0  0  0
 17 18  1  0  0  0  0
 17 37  1  0  0  0  0
 17 38  1  0  0  0  0
 18 20  1  0  0  0  0
 19 21  2  0  0  0  0
 19 39  1  0  0  0  0
 20 22  2  0  0  0  0
 20 40  1  0  0  0  0
 21 22  1  0  0  0  0
 21 41  1  0  0  0  0
M  END
> <PUBCHEM_COMPOUND_CID>
9561767

> <PUBCHEM_CONFORMER_RMSD>
0.6

> <PUBCHEM_CONFORMER_DIVERSEORDER>
1

> <PUBCHEM_MMFF94_PARTIAL_CHARGES>
21
1 -0.57
11 0.06
13 0.51
14 -0.14
16 0.39
17 0.14
18 -0.14
19 -0.15
2 -0.34
20 -0.15
21 -0.15
22 0.08
3 -0.53
39 0.15
4 -0.51
40 0.15
41 0.15
42 0.4
43 0.45
7 0.06
8 0.14

> <PUBCHEM_EFFECTIVE_ROTOR_COUNT>
1

> <PUBCHEM_PHARMACOPHORE_FEATURES>
8
1 1 acceptor
1 2 anion
1 3 donor
1 4 acceptor
5 5 7 11 13 16 rings
6 14 18 19 20 21 22 rings
6 5 6 7 8 9 10 rings
6 6 8 12 14 17 18 rings

> <PUBCHEM_HEAVY_ATOM_COUNT>
22

> <PUBCHEM_ATOM_DEF_STEREO_COUNT>
4

> <PUBCHEM_ATOM_UDEF_STEREO_COUNT>
0

> <PUBCHEM_BOND_DEF_STEREO_COUNT>
1

> <PUBCHEM_BOND_UDEF_STEREO_COUNT>
0

> <PUBCHEM_ISOTOPIC_ATOM_COUNT>
0

> <PUBCHEM_COMPONENT_COUNT>
1

> <PUBCHEM_CACTVS_TAUTO_COUNT>
27

> <PUBCHEM_CONFORMER_ID>
0091E6A700000001

> <PUBCHEM_MMFF94_ENERGY>
69.9767

> <PUBCHEM_FEATURE_SELFOVERLAP>
40.701

> <PUBCHEM_SHAPE_FINGERPRINT>
10366900 7 17203610371912208704
10616163 171 18335983146546316375
10967382 1 18337674118004211168
11578080 2 17129595793084324223
11963148 33 18341338781676384074
12011746 2 18411426094463930127
12166972 35 17917707998887505356
12403259 226 18340774848823200308
12403259 415 18409738344020712024
12403814 3 17775567572017505221
12788726 201 17242736639432108921
128620 24 18413388748077785828
13140716 1 17763190137241644762
13214271 11 18260832622379059845
13224815 77 18342182188729479474
13288520 33 18409446977507082021
13402501 40 18410573959550744922
13862211 1 18410297977763521658
14787075 74 18342457002169910978
14790565 3 18409442570581005776
15196674 1 18409730672791974208
15209289 33 18410857625097777139
15536298 74 18333732433554444896
15927050 60 17325766981114805469
16945 1 18122918786751504240
17349148 13 17918272060852093502
17492 89 18266742561645408562
17980427 23 14836120013224102766
1813 80 17489581269159809997
18186145 218 18412270562211943980
18681886 176 18410576163670717144
19591789 44 18337112263257160619
200 152 18040155132298810344
20028762 73 17970350321718096359
21267235 1 18409722937445351131
21279426 13 18264767838977421430
21709351 56 18342744017802204940
2297311 6 18334848424998122588
23402539 116 18410296921517610308
23557571 272 18334850615252186382
23559900 14 18335706078849434816
2871803 45 18413113861317325386
3004659 81 18342734174834531366
3323516 105 18408325475504377848
335352 9 18337110180245534068
34934 24 18339928241896382897
350125 39 18411134714612315021
3545911 37 18410574028106671693
4214541 1 18409166627595700561
4325135 7 18413668002345531462
474229 33 18411138017716667114
4990 188 18113330929920655894
5104073 3 18409168843687919946
77779 3 18409166631784945408
9709674 26 18410568517822159330

> <PUBCHEM_SHAPE_MULTIPOLES>
430.16
10.91
2.32
0.83
4.44
0.19
0.29
1.9
0.1
-1.19
-0.11
-0.28
-0.22
0.48

> <PUBCHEM_SHAPE_SELFOVERLAP>
945.072

> <PUBCHEM_SHAPE_VOLUME>
232.3

> <PUBCHEM_COORDINATE_TYPE>
2
5
10

$$$$

