51090968
  -OEChem-06241223013D

 44 45  0     1  0  0  0  0  0999 V2000
   -1.9126   -1.0778    1.4751 O   0  0  0  0  0  0  0  0  0  0  0  0
    0.4302    1.3183    2.6039 O   0  0  0  0  0  0  0  0  0  0  0  0
    2.6351    2.4256    0.5142 O   0  0  0  0  0  0  0  0  0  0  0  0
    1.4103   -1.6743   -1.8085 O   0  0  0  0  0  0  0  0  0  0  0  0
   -0.7997    1.3702    0.6267 N   0  0  0  0  0  0  0  0  0  0  0  0
    2.2240    1.0420   -1.3053 N   0  0  0  0  0  0  0  0  0  0  0  0
    1.8902   -2.9978    0.0387 N   0  0  0  0  0  0  0  0  0  0  0  0
   -0.4140    2.7348    0.2895 C   0  0  0  0  0  0  0  0  0  0  0  0
   -0.5879   -0.7363    1.8476 C   0  0  1  0  0  0  0  0  0  0  0  0
   -1.7434    0.6793   -0.1863 C   0  0  0  0  0  0  0  0  0  0  0  0
   -0.2825    0.7588    1.7709 C   0  0  0  0  0  0  0  0  0  0  0  0
    0.6375    2.7812   -0.8107 C   0  0  0  0  0  0  0  0  0  0  0  0
   -2.2724   -0.5325    0.2727 C   0  0  0  0  0  0  0  0  0  0  0  0
   -0.3601   -1.2745    3.2557 C   0  0  0  0  0  0  0  0  0  0  0  0
   -2.2064    1.1902   -1.4072 C   0  0  0  0  0  0  0  0  0  0  0  0
    1.9364    2.0848   -0.4363 C   0  0  0  0  0  0  0  0  0  0  0  0
   -3.2543   -1.2113   -0.4532 C   0  0  0  0  0  0  0  0  0  0  0  0
   -3.1732    0.5012   -2.1453 C   0  0  0  0  0  0  0  0  0  0  0  0
    3.4080    0.2236   -1.1817 C   0  0  0  0  0  0  0  0  0  0  0  0
   -3.6987   -0.6966   -1.6677 C   0  0  0  0  0  0  0  0  0  0  0  0
    3.1774   -0.9935   -0.2966 C   0  0  0  0  0  0  0  0  0  0  0  0
    2.0662   -1.9033   -0.7960 C   0  0  0  0  0  0  0  0  0  0  0  0
    0.8899   -4.0120   -0.2003 C   0  0  0  0  0  0  0  0  0  0  0  0
   -0.0070    3.2187    1.1856 H   0  0  0  0  0  0  0  0  0  0  0  0
   -1.3025    3.3159    0.0172 H   0  0  0  0  0  0  0  0  0  0  0  0
    0.1073   -1.2461    1.1727 H   0  0  0  0  0  0  0  0  0  0  0  0
    0.2579    2.3833   -1.7552 H   0  0  0  0  0  0  0  0  0  0  0  0
    0.8943    3.8288   -1.0121 H   0  0  0  0  0  0  0  0  0  0  0  0
   -0.5805   -2.3467    3.2977 H   0  0  0  0  0  0  0  0  0  0  0  0
    0.6722   -1.1187    3.5847 H   0  0  0  0  0  0  0  0  0  0  0  0
   -1.0271   -0.7830    3.9730 H   0  0  0  0  0  0  0  0  0  0  0  0
   -1.8659    2.1356   -1.8141 H   0  0  0  0  0  0  0  0  0  0  0  0
   -3.6723   -2.1418   -0.0786 H   0  0  0  0  0  0  0  0  0  0  0  0
   -3.5261    0.9093   -3.0882 H   0  0  0  0  0  0  0  0  0  0  0  0
    4.2241    0.8302   -0.7749 H   0  0  0  0  0  0  0  0  0  0  0  0
    3.6870   -0.0870   -2.1943 H   0  0  0  0  0  0  0  0  0  0  0  0
    1.5809    0.8195   -2.0590 H   0  0  0  0  0  0  0  0  0  0  0  0
   -4.4570   -1.2244   -2.2382 H   0  0  0  0  0  0  0  0  0  0  0  0
    4.1017   -1.5798   -0.2369 H   0  0  0  0  0  0  0  0  0  0  0  0
    2.9165   -0.6715    0.7193 H   0  0  0  0  0  0  0  0  0  0  0  0
    2.5009   -3.1149    0.8419 H   0  0  0  0  0  0  0  0  0  0  0  0
    1.3703   -4.8559   -0.7013 H   0  0  0  0  0  0  0  0  0  0  0  0
    0.4920   -4.3366    0.7640 H   0  0  0  0  0  0  0  0  0  0  0  0
    0.0817   -3.6232   -0.8248 H   0  0  0  0  0  0  0  0  0  0  0  0
  1  9  1  0  0  0  0
  1 13  1  0  0  0  0
  2 11  2  0  0  0  0
  3 16  2  0  0  0  0
  4 22  2  0  0  0  0
  5  8  1  0  0  0  0
  5 10  1  0  0  0  0
  5 11  1  0  0  0  0
  6 16  1  0  0  0  0
  6 19  1  0  0  0  0
  6 37  1  0  0  0  0
  7 22  1  0  0  0  0
  7 23  1  0  0  0  0
  7 41  1  0  0  0  0
  8 12  1  0  0  0  0
  8 24  1  0  0  0  0
  8 25  1  0  0  0  0
  9 11  1  0  0  0  0
  9 14  1  0  0  0  0
  9 26  1  0  0  0  0
 10 13  1  0  0  0  0
 10 15  2  0  0  0  0
 12 16  1  0  0  0  0
 12 27  1  0  0  0  0
 12 28  1  0  0  0  0
 13 17  2  0  0  0  0
 14 29  1  0  0  0  0
 14 30  1  0  0  0  0
 14 31  1  0  0  0  0
 15 18  1  0  0  0  0
 15 32  1  0  0  0  0
 17 20  1  0  0  0  0
 17 33  1  0  0  0  0
 18 20  2  0  0  0  0
 18 34  1  0  0  0  0
 19 21  1  0  0  0  0
 19 35  1  0  0  0  0
 19 36  1  0  0  0  0
 20 38  1  0  0  0  0
 21 22  1  0  0  0  0
 21 39  1  0  0  0  0
 21 40  1  0  0  0  0
 23 42  1  0  0  0  0
 23 43  1  0  0  0  0
 23 44  1  0  0  0  0
M  END
> <PUBCHEM_COMPOUND_CID>
51090968

> <PUBCHEM_CONFORMER_RMSD>
1

> <PUBCHEM_CONFORMER_DIVERSEORDER>
1
148
150
73
169
83
124
168
69
166
5
43
160
70
183
137
19
114
62
147
92
113
159
126
38
131
106
25
105
182
170
53
140
93
188
67
109
55
154
164
125
98
190
30
50
15
178
103
142
130
29
141
57
152
172
191
18
181
42
145
94
84
9
16
8
122
146
60
158
52
85
144
119
17
153
101
46
107
63
171
14
136
173
134
187
2
75
97
58
180
59
45
120
61
82
121
7
149
110
51
65
135
174
192
20
151
88
143
194
127
138
157
165
186
81
31
11
6
47
56
118
163
76
112
102
10
100
68
96
80
156
189
39
117
48
41
95
79
193
155
44
3
162
37
49
111
176
78
66
116
108
32
28
24
89
4
104
13
91
54
27
179
12
161
175
74
64
133
129
185
123
34
167
128
23
35
87
115
33
22
184
26
86
77
71
21
72
40
132
90
99
36
177
139

> <PUBCHEM_MMFF94_PARTIAL_CHARGES>
28
1 -0.36
10 0.12
11 0.57
12 0.06
13 0.08
15 -0.15
16 0.57
17 -0.15
18 -0.15
19 0.3
2 -0.57
20 -0.15
21 0.06
22 0.57
23 0.3
3 -0.57
32 0.15
33 0.15
34 0.15
37 0.37
38 0.15
4 -0.57
41 0.37
5 -0.48
6 -0.73
7 -0.73
8 0.3
9 0.34

> <PUBCHEM_EFFECTIVE_ROTOR_COUNT>
8.6

> <PUBCHEM_PHARMACOPHORE_FEATURES>
8
1 1 acceptor
1 2 acceptor
1 3 acceptor
1 4 acceptor
1 6 donor
1 7 donor
6 1 5 9 10 11 13 rings
6 10 13 15 17 18 20 rings

> <PUBCHEM_HEAVY_ATOM_COUNT>
23

> <PUBCHEM_ATOM_DEF_STEREO_COUNT>
0

> <PUBCHEM_ATOM_UDEF_STEREO_COUNT>
1

> <PUBCHEM_BOND_DEF_STEREO_COUNT>
0

> <PUBCHEM_BOND_UDEF_STEREO_COUNT>
0

> <PUBCHEM_ISOTOPIC_ATOM_COUNT>
0

> <PUBCHEM_COMPONENT_COUNT>
1

> <PUBCHEM_CACTVS_TAUTO_COUNT>
8

> <PUBCHEM_CONFORMER_ID>
030B961800000001

> <PUBCHEM_MMFF94_ENERGY>
47.8258

> <PUBCHEM_FEATURE_SELFOVERLAP>
40.627

> <PUBCHEM_SHAPE_FINGERPRINT>
11370993 70 18194696877334618596
11578080 2 17095823078215147401
11582403 64 17189026290715454261
12035759 4 17190679286304698245
12156800 1 16113508648088202758
1420 336 17405416093384101294
14251757 17 18201721807859758765
14787075 74 17241621524425275800
14817 1 14708315027979081145
15664445 248 17417263035221597933
17093844 170 16894000816792392807
17492 54 18265051332172095062
18981168 100 14620224334105460697
19777482 4 17831575749058571798
19930381 70 18412260670781254095
21330990 113 5739133965108311225
21421861 104 4891856592876447037
23419403 2 17771310177237783771
238 59 18269836419576564950
3323516 105 18342459193072490207
513532 50 17341579358929554103
5845 1 15115116871093109768
9925002 15 16115177740929983275

> <PUBCHEM_SHAPE_MULTIPOLES>
434.91
5.09
3.66
2.49
0.9
1.27
1.82
0.77
-3.59
-2.43
-0.28
0.69
0.52
0.57

> <PUBCHEM_SHAPE_SELFOVERLAP>
901.948

> <PUBCHEM_SHAPE_VOLUME>
246.7

> <PUBCHEM_COORDINATE_TYPE>
2
5
10

$$$$

