5047
  -OEChem-06261200292D

 47 49  0     0  0  0  0  0  0999 V2000
    6.8671    3.7500    0.0000 S   0  0  0  0  0  0  0  0  0  0  0  0
    6.3671    4.6160    0.0000 O   0  0  0  0  0  0  0  0  0  0  0  0
    7.3671    2.8840    0.0000 O   0  0  0  0  0  0  0  0  0  0  0  0
    6.0010   -2.7500    0.0000 O   0  0  0  0  0  0  0  0  0  0  0  0
    6.0010    3.2500    0.0000 N   0  0  0  0  0  0  0  0  0  0  0  0
    4.2690   -2.7500    0.0000 N   0  0  0  0  0  0  0  0  0  0  0  0
    2.5369   -3.7500    0.0000 N   0  0  0  0  0  0  0  0  0  0  0  0
    6.0010    2.2500    0.0000 C   0  0  0  0  0  0  0  0  0  0  0  0
    7.7331    4.2500    0.0000 C   0  0  0  0  0  0  0  0  0  0  0  0
    6.0010    0.2500    0.0000 C   0  0  0  0  0  0  0  0  0  0  0  0
    5.1350    1.7500    0.0000 C   0  0  0  0  0  0  0  0  0  0  0  0
    6.8671    1.7500    0.0000 C   0  0  0  0  0  0  0  0  0  0  0  0
    5.1350    0.7500    0.0000 C   0  0  0  0  0  0  0  0  0  0  0  0
    6.8671    0.7500    0.0000 C   0  0  0  0  0  0  0  0  0  0  0  0
    8.5991    3.7500    0.0000 C   0  0  0  0  0  0  0  0  0  0  0  0
    7.7331    5.2500    0.0000 C   0  0  0  0  0  0  0  0  0  0  0  0
    6.0010   -0.7500    0.0000 C   0  0  0  0  0  0  0  0  0  0  0  0
    9.4651    4.2500    0.0000 C   0  0  0  0  0  0  0  0  0  0  0  0
    8.5991    5.7500    0.0000 C   0  0  0  0  0  0  0  0  0  0  0  0
    4.2690   -3.7500    0.0000 C   0  0  0  0  0  0  0  0  0  0  0  0
    9.4651    5.2500    0.0000 C   0  0  0  0  0  0  0  0  0  0  0  0
    3.4030   -4.2500    0.0000 C   0  0  0  0  0  0  0  0  0  0  0  0
    5.1350   -1.2500    0.0000 C   0  0  0  0  0  0  0  0  0  0  0  0
    5.1350   -2.2500    0.0000 C   0  0  0  0  0  0  0  0  0  0  0  0
    5.1350   -4.2500    0.0000 C   0  0  0  0  0  0  0  0  0  0  0  0
    3.4030   -5.2500    0.0000 C   0  0  0  0  0  0  0  0  0  0  0  0
    5.1350   -5.2500    0.0000 C   0  0  0  0  0  0  0  0  0  0  0  0
    4.2690   -5.7500    0.0000 C   0  0  0  0  0  0  0  0  0  0  0  0
    5.4641    3.5600    0.0000 H   0  0  0  0  0  0  0  0  0  0  0  0
    4.5981    2.0600    0.0000 H   0  0  0  0  0  0  0  0  0  0  0  0
    7.4040    2.0600    0.0000 H   0  0  0  0  0  0  0  0  0  0  0  0
    4.5981    0.4400    0.0000 H   0  0  0  0  0  0  0  0  0  0  0  0
    7.4040    0.4400    0.0000 H   0  0  0  0  0  0  0  0  0  0  0  0
    8.5991    3.1300    0.0000 H   0  0  0  0  0  0  0  0  0  0  0  0
    7.1962    5.5600    0.0000 H   0  0  0  0  0  0  0  0  0  0  0  0
    6.5380   -1.0600    0.0000 H   0  0  0  0  0  0  0  0  0  0  0  0
   10.0021    3.9400    0.0000 H   0  0  0  0  0  0  0  0  0  0  0  0
    8.5991    6.3700    0.0000 H   0  0  0  0  0  0  0  0  0  0  0  0
   10.0021    5.5600    0.0000 H   0  0  0  0  0  0  0  0  0  0  0  0
    4.5981   -0.9400    0.0000 H   0  0  0  0  0  0  0  0  0  0  0  0
    3.7320   -2.4400    0.0000 H   0  0  0  0  0  0  0  0  0  0  0  0
    5.6720   -3.9400    0.0000 H   0  0  0  0  0  0  0  0  0  0  0  0
    2.8660   -5.5600    0.0000 H   0  0  0  0  0  0  0  0  0  0  0  0
    5.6720   -5.5600    0.0000 H   0  0  0  0  0  0  0  0  0  0  0  0
    4.2690   -6.3700    0.0000 H   0  0  0  0  0  0  0  0  0  0  0  0
    2.0000   -4.0600    0.0000 H   0  0  0  0  0  0  0  0  0  0  0  0
    2.5369   -3.1300    0.0000 H   0  0  0  0  0  0  0  0  0  0  0  0
  1  2  2  0  0  0  0
  1  3  2  0  0  0  0
  1  5  1  0  0  0  0
  1  9  1  0  0  0  0
  4 24  2  0  0  0  0
  5  8  1  0  0  0  0
  5 29  1  0  0  0  0
  6 20  1  0  0  0  0
  6 24  1  0  0  0  0
  6 41  1  0  0  0  0
  7 22  1  0  0  0  0
  7 46  1  0  0  0  0
  7 47  1  0  0  0  0
  8 11  2  0  0  0  0
  8 12  1  0  0  0  0
  9 15  2  0  0  0  0
  9 16  1  0  0  0  0
 10 13  2  0  0  0  0
 10 14  1  0  0  0  0
 10 17  1  0  0  0  0
 11 13  1  0  0  0  0
 11 30  1  0  0  0  0
 12 14  2  0  0  0  0
 12 31  1  0  0  0  0
 13 32  1  0  0  0  0
 14 33  1  0  0  0  0
 15 18  1  0  0  0  0
 15 34  1  0  0  0  0
 16 19  2  0  0  0  0
 16 35  1  0  0  0  0
 17 23  2  3  0  0  0
 17 36  1  0  0  0  0
 18 21  2  0  0  0  0
 18 37  1  0  0  0  0
 19 21  1  0  0  0  0
 19 38  1  0  0  0  0
 20 22  1  0  0  0  0
 20 25  2  0  0  0  0
 21 39  1  0  0  0  0
 22 26  2  0  0  0  0
 23 24  1  0  0  0  0
 23 40  1  0  0  0  0
 25 27  1  0  0  0  0
 25 42  1  0  0  0  0
 26 28  1  0  0  0  0
 26 43  1  0  0  0  0
 27 28  2  0  0  0  0
 27 44  1  0  0  0  0
 28 45  1  0  0  0  0
M  END
> <PUBCHEM_COMPOUND_CID>
5047

> <PUBCHEM_COMPOUND_CANONICALIZED>
1

> <PUBCHEM_CACTVS_COMPLEXITY>
630

> <PUBCHEM_CACTVS_HBOND_ACCEPTOR>
5

> <PUBCHEM_CACTVS_HBOND_DONOR>
3

> <PUBCHEM_CACTVS_ROTATABLE_BOND>
6

> <PUBCHEM_CACTVS_SUBSKEYS>
AAADceB7MABAAAAAAAAAAAAAAAAAAAAAAAAwYMAAAAAAAAABUAAAHgQQQAAADAiB2AAwwYLAAAKIAiVSUHDCABAhAgAIiBgAdMgIYCLAkZGUIAhglADIyYcQgAAOCAAAAAAAACAQAAAAAAAAQAAAAAAAAA==

> <PUBCHEM_IUPAC_OPENEYE_NAME>
N-(2-aminophenyl)-3-[4-(benzenesulfonamido)phenyl]prop-2-enamide

> <PUBCHEM_IUPAC_CAS_NAME>
N-(2-aminophenyl)-3-[4-(benzenesulfonamido)phenyl]-2-propenamide

> <PUBCHEM_IUPAC_NAME>
N-(2-aminophenyl)-3-[4-(benzenesulfonamido)phenyl]prop-2-enamide

> <PUBCHEM_IUPAC_SYSTEMATIC_NAME>
N-(2-aminophenyl)-3-[4-(phenylsulfonylamino)phenyl]prop-2-enamide

> <PUBCHEM_IUPAC_TRADITIONAL_NAME>
N-(2-aminophenyl)-3-[4-(benzenesulfonamido)phenyl]acrylamide

> <PUBCHEM_IUPAC_INCHI>
InChI=1S/C21H19N3O3S/c22-19-8-4-5-9-20(19)23-21(25)15-12-16-10-13-17(14-11-16)24-28(26,27)18-6-2-1-3-7-18/h1-15,24H,22H2,(H,23,25)

> <PUBCHEM_IUPAC_INCHIKEY>
CZWKZVOYMHZNSA-UHFFFAOYSA-N

> <PUBCHEM_XLOGP3_AA>
3

> <PUBCHEM_EXACT_MASS>
393.114712

> <PUBCHEM_MOLECULAR_FORMULA>
C21H19N3O3S

> <PUBCHEM_MOLECULAR_WEIGHT>
393.45886

> <PUBCHEM_OPENEYE_CAN_SMILES>
C1=CC=C(C=C1)S(=O)(=O)NC2=CC=C(C=C2)C=CC(=O)NC3=CC=CC=C3N

> <PUBCHEM_OPENEYE_ISO_SMILES>
C1=CC=C(C=C1)S(=O)(=O)NC2=CC=C(C=C2)C=CC(=O)NC3=CC=CC=C3N

> <PUBCHEM_CACTVS_TPSA>
110

> <PUBCHEM_MONOISOTOPIC_WEIGHT>
393.114712

> <PUBCHEM_TOTAL_CHARGE>
0

> <PUBCHEM_HEAVY_ATOM_COUNT>
28

> <PUBCHEM_ATOM_DEF_STEREO_COUNT>
0

> <PUBCHEM_ATOM_UDEF_STEREO_COUNT>
0

> <PUBCHEM_BOND_DEF_STEREO_COUNT>
0

> <PUBCHEM_BOND_UDEF_STEREO_COUNT>
1

> <PUBCHEM_ISOTOPIC_ATOM_COUNT>
0

> <PUBCHEM_COMPONENT_COUNT>
1

> <PUBCHEM_CACTVS_TAUTO_COUNT>
7

> <PUBCHEM_COORDINATE_TYPE>
1
5
255

> <PUBCHEM_BONDANNOTATIONS>
10  13  8
10  14  8
11  13  8
12  14  8
15  18  8
16  19  8
17  23  1
18  21  8
19  21  8
20  22  8
20  25  8
22  26  8
25  27  8
26  28  8
27  28  8
8  11  8
8  12  8
9  15  8
9  16  8

$$$$

