14103
  -OEChem-06241222423D

 24 24  0     0  0  0  0  0  0999 V2000
    2.9417   -1.2028    0.5186 O   0  0  0  0  0  0  0  0  0  0  0  0
    2.9289    0.8367   -0.4847 O   0  0  0  0  0  0  0  0  0  0  0  0
   -1.3627    0.6578    0.0430 C   0  0  0  0  0  0  0  0  0  0  0  0
    0.0217    0.8293    0.0430 C   0  0  0  0  0  0  0  0  0  0  0  0
   -1.9066   -0.6243   -0.0357 C   0  0  0  0  0  0  0  0  0  0  0  0
    0.8620   -0.2814   -0.0357 C   0  0  0  0  0  0  0  0  0  0  0  0
   -1.0663   -1.7349   -0.1144 C   0  0  0  0  0  0  0  0  0  0  0  0
    0.3179   -1.5634   -0.1144 C   0  0  0  0  0  0  0  0  0  0  0  0
   -2.2669    1.8469    0.1272 C   0  0  0  0  0  0  0  0  0  0  0  0
    0.6044    2.2052    0.1289 C   0  0  0  0  0  0  0  0  0  0  0  0
   -3.3854   -0.8355   -0.0377 C   0  0  0  0  0  0  0  0  0  0  0  0
    2.3113   -0.1337   -0.0382 C   0  0  0  0  0  0  0  0  0  0  0  0
   -1.4735   -2.7404   -0.1798 H   0  0  0  0  0  0  0  0  0  0  0  0
    0.9448   -2.4479   -0.1905 H   0  0  0  0  0  0  0  0  0  0  0  0
   -1.9888    2.5977   -0.6211 H   0  0  0  0  0  0  0  0  0  0  0  0
   -3.3186    1.6279   -0.0713 H   0  0  0  0  0  0  0  0  0  0  0  0
   -2.2160    2.2899    1.1277 H   0  0  0  0  0  0  0  0  0  0  0  0
    0.9583    2.5306   -0.8548 H   0  0  0  0  0  0  0  0  0  0  0  0
   -0.0963    2.9610    0.4930 H   0  0  0  0  0  0  0  0  0  0  0  0
    1.4285    2.2405    0.8499 H   0  0  0  0  0  0  0  0  0  0  0  0
   -3.8438   -0.4033    0.8580 H   0  0  0  0  0  0  0  0  0  0  0  0
   -3.8378   -0.4037   -0.9364 H   0  0  0  0  0  0  0  0  0  0  0  0
   -3.6382   -1.9020   -0.0348 H   0  0  0  0  0  0  0  0  0  0  0  0
    3.9168   -1.0952    0.5133 H   0  0  0  0  0  0  0  0  0  0  0  0
  1 12  1  0  0  0  0
  1 24  1  0  0  0  0
  2 12  2  0  0  0  0
  3  4  1  0  0  0  0
  3  5  2  0  0  0  0
  3  9  1  0  0  0  0
  4  6  2  0  0  0  0
  4 10  1  0  0  0  0
  5  7  1  0  0  0  0
  5 11  1  0  0  0  0
  6  8  1  0  0  0  0
  6 12  1  0  0  0  0
  7  8  2  0  0  0  0
  7 13  1  0  0  0  0
  8 14  1  0  0  0  0
  9 15  1  0  0  0  0
  9 16  1  0  0  0  0
  9 17  1  0  0  0  0
 10 18  1  0  0  0  0
 10 19  1  0  0  0  0
 10 20  1  0  0  0  0
 11 21  1  0  0  0  0
 11 22  1  0  0  0  0
 11 23  1  0  0  0  0
M  END
> <PUBCHEM_COMPOUND_CID>
14103

> <PUBCHEM_CONFORMER_RMSD>
0.4

> <PUBCHEM_CONFORMER_DIVERSEORDER>
2
1
3

> <PUBCHEM_MMFF94_PARTIAL_CHARGES>
15
1 -0.65
10 0.14
11 0.14
12 0.63
13 0.15
14 0.15
2 -0.57
24 0.5
3 -0.14
4 -0.14
5 -0.14
6 0.09
7 -0.15
8 -0.15
9 0.14

> <PUBCHEM_EFFECTIVE_ROTOR_COUNT>
1

> <PUBCHEM_PHARMACOPHORE_FEATURES>
4
1 1 acceptor
1 2 acceptor
3 1 2 12 anion
6 3 4 5 6 7 8 rings

> <PUBCHEM_HEAVY_ATOM_COUNT>
12

> <PUBCHEM_ATOM_DEF_STEREO_COUNT>
0

> <PUBCHEM_ATOM_UDEF_STEREO_COUNT>
0

> <PUBCHEM_BOND_DEF_STEREO_COUNT>
0

> <PUBCHEM_BOND_UDEF_STEREO_COUNT>
0

> <PUBCHEM_ISOTOPIC_ATOM_COUNT>
0

> <PUBCHEM_COMPONENT_COUNT>
1

> <PUBCHEM_CACTVS_TAUTO_COUNT>
1

> <PUBCHEM_CONFORMER_ID>
0000371700000002

> <PUBCHEM_MMFF94_ENERGY>
41.3511

> <PUBCHEM_FEATURE_SELFOVERLAP>
20.355

> <PUBCHEM_SHAPE_FINGERPRINT>
10967382 1 18266178322989840365
11206711 2 18410858759069396405
12032990 46 18409441509660702119
12423570 1 6766449971471088243
13380535 76 18193562400726134583
14325111 11 18411136969575484572
161256 15 18265337192278830769
16945 1 18337956671038909491
193761 8 17401205569350404559
20871998 184 18187650231797766239
21040471 1 18337109097850172804
21501502 16 18411698811427447433
22802520 49 17752468017833415222
2334 1 18410291445049237855
23402539 116 18261407653653576223
23402655 69 18191885603188097789
23463225 33 18341051929520729586
23552423 10 17981326681513867205
23559900 14 18188490307012795094
2748010 2 18191863637854777655
369184 2 18413390946890148618
5084963 1 18041277682088931587
528886 8 18265621059525717809
53812653 166 18261397805457025281
53812654 25 18261967262196235446

> <PUBCHEM_SHAPE_MULTIPOLES>
235.22
4.26
2.14
0.64
0.42
0.61
0
-0.54
0.01
-0.36
0.06
0.05
-0.01
-0.24

> <PUBCHEM_SHAPE_SELFOVERLAP>
494.222

> <PUBCHEM_SHAPE_VOLUME>
135.4

> <PUBCHEM_COORDINATE_TYPE>
2
5
10

$$$$

