442973
  -OEChem-07051213003D

 78 82  0     1  0  0  0  0  0999 V2000
   -4.5482   -2.1458    0.7722 O   0  0  0  0  0  0  0  0  0  0  0  0
    6.5872    0.7129    0.0124 N   0  0  0  0  0  0  0  0  0  0  0  0
   -6.0412    0.3623   -0.1475 N   0  0  0  0  0  0  0  0  0  0  0  0
    0.7281    0.4208   -0.0879 C   0  0  1  0  0  0  0  0  0  0  0  0
    2.2784    0.4574    0.0327 C   0  0  2  0  0  0  0  0  0  0  0  0
    1.6068    0.8203   -1.2638 C   0  0  0  0  0  0  0  0  0  0  0  0
    0.0211   -0.9494   -0.2578 C   0  0  2  0  0  0  0  0  0  0  0  0
    3.0473   -0.8631    0.1926 C   0  0  1  0  0  0  0  0  0  0  0  0
   -1.4306   -0.9417    0.2887 C   0  0  1  0  0  0  0  0  0  0  0  0
   -0.0573    1.5501    0.5957 C   0  0  0  0  0  0  0  0  0  0  0  0
   -2.1691    0.3330   -0.2383 C   0  0  2  0  0  0  0  0  0  0  0  0
    2.9593    1.5898    0.7822 C   0  0  0  0  0  0  0  0  0  0  0  0
    0.8731   -2.1092    0.2742 C   0  0  0  0  0  0  0  0  0  0  0  0
    2.2713   -2.0788   -0.3363 C   0  0  0  0  0  0  0  0  0  0  0  0
   -1.5911    1.5593    0.4667 C   0  0  0  0  0  0  0  0  0  0  0  0
    4.5321   -0.7390   -0.3201 C   0  0  0  0  0  0  0  0  0  0  0  0
   -3.6430    0.0049    0.1196 C   0  0  2  0  0  0  0  0  0  0  0  0
   -2.3357   -2.0702   -0.2610 C   0  0  0  0  0  0  0  0  0  0  0  0
    4.3997    1.7690    0.3100 C   0  0  0  0  0  0  0  0  0  0  0  0
    5.2034    0.4659    0.4330 C   0  0  2  0  0  0  0  0  0  0  0  0
   -3.7693   -1.4975   -0.2238 C   0  0  1  0  0  0  0  0  0  0  0  0
   -1.4242   -1.0844    1.8430 C   0  0  0  0  0  0  0  0  0  0  0  0
   -2.0470    0.5635   -1.7747 C   0  0  0  0  0  0  0  0  0  0  0  0
    5.3143   -2.0310    0.0274 C   0  0  0  0  0  0  0  0  0  0  0  0
    4.6001   -0.5653   -1.8543 C   0  0  0  0  0  0  0  0  0  0  0  0
   -4.7233    0.8465   -0.5546 C   0  0  2  0  0  0  0  0  0  0  0  0
   -4.5692    2.3223   -0.1992 C   0  0  0  0  0  0  0  0  0  0  0  0
    7.1973    1.7377    0.8420 C   0  0  0  0  0  0  0  0  0  0  0  0
   -7.0953    1.1539   -0.7811 C   0  0  0  0  0  0  0  0  0  0  0  0
   -6.1751    0.4058    1.3084 C   0  0  0  0  0  0  0  0  0  0  0  0
    1.6920    0.1449   -2.1075 H   0  0  0  0  0  0  0  0  0  0  0  0
    1.6099    1.8592   -1.5778 H   0  0  0  0  0  0  0  0  0  0  0  0
   -0.0547   -1.1286   -1.3398 H   0  0  0  0  0  0  0  0  0  0  0  0
    3.1172   -1.0219    1.2808 H   0  0  0  0  0  0  0  0  0  0  0  0
    0.2976    2.5246    0.2374 H   0  0  0  0  0  0  0  0  0  0  0  0
    0.1956    1.5303    1.6636 H   0  0  0  0  0  0  0  0  0  0  0  0
    2.9408    1.3711    1.8571 H   0  0  0  0  0  0  0  0  0  0  0  0
    2.4408    2.5444    0.6463 H   0  0  0  0  0  0  0  0  0  0  0  0
    0.3942   -3.0636    0.0256 H   0  0  0  0  0  0  0  0  0  0  0  0
    0.9691   -2.0692    1.3648 H   0  0  0  0  0  0  0  0  0  0  0  0
    2.7780   -3.0064   -0.0517 H   0  0  0  0  0  0  0  0  0  0  0  0
    2.1990   -2.0744   -1.4286 H   0  0  0  0  0  0  0  0  0  0  0  0
   -2.0154    1.6679    1.4732 H   0  0  0  0  0  0  0  0  0  0  0  0
   -1.8583    2.4834   -0.0544 H   0  0  0  0  0  0  0  0  0  0  0  0
   -3.7251    0.1489    1.2005 H   0  0  0  0  0  0  0  0  0  0  0  0
   -2.2426   -3.0045    0.3032 H   0  0  0  0  0  0  0  0  0  0  0  0
   -2.0684   -2.2974   -1.3000 H   0  0  0  0  0  0  0  0  0  0  0  0
    4.4066    2.1295   -0.7261 H   0  0  0  0  0  0  0  0  0  0  0  0
    4.8196    2.5702    0.9272 H   0  0  0  0  0  0  0  0  0  0  0  0
    5.2221    0.1932    1.4992 H   0  0  0  0  0  0  0  0  0  0  0  0
   -4.2567   -1.6682   -1.1899 H   0  0  0  0  0  0  0  0  0  0  0  0
   -1.1465   -2.1027    2.1395 H   0  0  0  0  0  0  0  0  0  0  0  0
   -0.7059   -0.4127    2.3197 H   0  0  0  0  0  0  0  0  0  0  0  0
   -2.3909   -0.8926    2.3117 H   0  0  0  0  0  0  0  0  0  0  0  0
   -1.0166    0.7224   -2.0990 H   0  0  0  0  0  0  0  0  0  0  0  0
   -2.4392   -0.2776   -2.3547 H   0  0  0  0  0  0  0  0  0  0  0  0
   -2.5847    1.4584   -2.1011 H   0  0  0  0  0  0  0  0  0  0  0  0
    6.3614   -1.9830   -0.2874 H   0  0  0  0  0  0  0  0  0  0  0  0
    5.2955   -2.2268    1.1052 H   0  0  0  0  0  0  0  0  0  0  0  0
    4.8947   -2.9057   -0.4799 H   0  0  0  0  0  0  0  0  0  0  0  0
    5.6384   -0.5416   -2.2048 H   0  0  0  0  0  0  0  0  0  0  0  0
    4.1145   -1.3957   -2.3763 H   0  0  0  0  0  0  0  0  0  0  0  0
    4.1303    0.3618   -2.1909 H   0  0  0  0  0  0  0  0  0  0  0  0
   -4.6577    0.7335   -1.6433 H   0  0  0  0  0  0  0  0  0  0  0  0
    7.1312   -0.1419    0.1122 H   0  0  0  0  0  0  0  0  0  0  0  0
   -4.0522   -2.1350    1.6074 H   0  0  0  0  0  0  0  0  0  0  0  0
   -5.4196    2.9489   -0.4780 H   0  0  0  0  0  0  0  0  0  0  0  0
   -4.3665    2.4914    0.8634 H   0  0  0  0  0  0  0  0  0  0  0  0
   -3.7494    2.7682   -0.7664 H   0  0  0  0  0  0  0  0  0  0  0  0
    8.2816    1.7143    0.6845 H   0  0  0  0  0  0  0  0  0  0  0  0
    7.0285    1.5766    1.9120 H   0  0  0  0  0  0  0  0  0  0  0  0
    6.8813    2.7460    0.5591 H   0  0  0  0  0  0  0  0  0  0  0  0
   -6.9128    1.2919   -1.8530 H   0  0  0  0  0  0  0  0  0  0  0  0
   -7.2716    2.1296   -0.3162 H   0  0  0  0  0  0  0  0  0  0  0  0
   -8.0411    0.6034   -0.7066 H   0  0  0  0  0  0  0  0  0  0  0  0
   -5.5443   -0.2886    1.8630 H   0  0  0  0  0  0  0  0  0  0  0  0
   -7.1939    0.0902    1.5715 H   0  0  0  0  0  0  0  0  0  0  0  0
   -6.0541    1.4065    1.7364 H   0  0  0  0  0  0  0  0  0  0  0  0
  1 21  1  0  0  0  0
  1 66  1  0  0  0  0
  2 20  1  0  0  0  0
  2 28  1  0  0  0  0
  2 65  1  0  0  0  0
  3 26  1  0  0  0  0
  3 29  1  0  0  0  0
  3 30  1  0  0  0  0
  4  5  1  0  0  0  0
  4  6  1  0  0  0  0
  4  7  1  0  0  0  0
  4 10  1  0  0  0  0
  5  6  1  0  0  0  0
  5  8  1  0  0  0  0
  5 12  1  0  0  0  0
  6 31  1  0  0  0  0
  6 32  1  0  0  0  0
  7  9  1  0  0  0  0
  7 13  1  0  0  0  0
  7 33  1  0  0  0  0
  8 14  1  0  0  0  0
  8 16  1  0  0  0  0
  8 34  1  0  0  0  0
  9 11  1  0  0  0  0
  9 18  1  0  0  0  0
  9 22  1  0  0  0  0
 10 15  1  0  0  0  0
 10 35  1  0  0  0  0
 10 36  1  0  0  0  0
 11 15  1  0  0  0  0
 11 17  1  0  0  0  0
 11 23  1  0  0  0  0
 12 19  1  0  0  0  0
 12 37  1  0  0  0  0
 12 38  1  0  0  0  0
 13 14  1  0  0  0  0
 13 39  1  0  0  0  0
 13 40  1  0  0  0  0
 14 41  1  0  0  0  0
 14 42  1  0  0  0  0
 15 43  1  0  0  0  0
 15 44  1  0  0  0  0
 16 20  1  0  0  0  0
 16 24  1  0  0  0  0
 16 25  1  0  0  0  0
 17 21  1  0  0  0  0
 17 26  1  0  0  0  0
 17 45  1  0  0  0  0
 18 21  1  0  0  0  0
 18 46  1  0  0  0  0
 18 47  1  0  0  0  0
 19 20  1  0  0  0  0
 19 48  1  0  0  0  0
 19 49  1  0  0  0  0
 20 50  1  0  0  0  0
 21 51  1  0  0  0  0
 22 52  1  0  0  0  0
 22 53  1  0  0  0  0
 22 54  1  0  0  0  0
 23 55  1  0  0  0  0
 23 56  1  0  0  0  0
 23 57  1  0  0  0  0
 24 58  1  0  0  0  0
 24 59  1  0  0  0  0
 24 60  1  0  0  0  0
 25 61  1  0  0  0  0
 25 62  1  0  0  0  0
 25 63  1  0  0  0  0
 26 27  1  0  0  0  0
 26 64  1  0  0  0  0
 27 67  1  0  0  0  0
 27 68  1  0  0  0  0
 27 69  1  0  0  0  0
 28 70  1  0  0  0  0
 28 71  1  0  0  0  0
 28 72  1  0  0  0  0
 29 73  1  0  0  0  0
 29 74  1  0  0  0  0
 29 75  1  0  0  0  0
 30 76  1  0  0  0  0
 30 77  1  0  0  0  0
 30 78  1  0  0  0  0
M  END
> <PUBCHEM_COMPOUND_CID>
442973

> <PUBCHEM_CONFORMER_RMSD>
0.8

> <PUBCHEM_CONFORMER_DIVERSEORDER>
1
2

> <PUBCHEM_MMFF94_PARTIAL_CHARGES>
20
1 -0.68
10 0.09
12 0.09
2 -0.9
20 0.27
21 0.28
26 0.27
28 0.27
29 0.27
3 -0.81
30 0.27
31 0.1
32 0.1
4 -0.19
5 -0.19
6 -0.2
65 0.36
66 0.4
7 0.09
8 0.09

> <PUBCHEM_EFFECTIVE_ROTOR_COUNT>
5.4

> <PUBCHEM_PHARMACOPHORE_FEATURES>
10
1 1 acceptor
1 1 donor
1 2 cation
1 2 donor
1 3 cation
3 16 24 25 hydrophobe
5 9 11 17 18 21 rings
6 4 7 9 10 11 15 rings
6 5 8 12 16 19 20 rings
7 4 5 6 7 8 13 14 rings

> <PUBCHEM_HEAVY_ATOM_COUNT>
30

> <PUBCHEM_ATOM_DEF_STEREO_COUNT>
10

> <PUBCHEM_ATOM_UDEF_STEREO_COUNT>
0

> <PUBCHEM_BOND_DEF_STEREO_COUNT>
0

> <PUBCHEM_BOND_UDEF_STEREO_COUNT>
0

> <PUBCHEM_ISOTOPIC_ATOM_COUNT>
0

> <PUBCHEM_COMPONENT_COUNT>
1

> <PUBCHEM_CACTVS_TAUTO_COUNT>
1

> <PUBCHEM_CONFORMER_ID>
0006C25D00000001

> <PUBCHEM_MMFF94_ENERGY>
136.8659

> <PUBCHEM_FEATURE_SELFOVERLAP>
50.848

> <PUBCHEM_SHAPE_FINGERPRINT>
10 15 18131071524149259120
10835480 77 18408890620139010752
10906281 52 18339061748902012138
11578080 2 17201379583020370647
12236239 1 17240202157686725959
12403259 415 18188777132843471608
12516196 113 18040718060619457961
12788726 201 17313663866844438713
12838862 33 18337691757419519744
13224815 77 18408318878830288854
13402501 40 18411702080145492568
13533116 47 14056991771994360804
13583140 156 17895197649343348095
13811026 1 18410013212746819339
14341114 176 18409445912423809860
15183329 4 18333452070884521753
15196674 1 18410575071894533386
15788980 27 17894914018498900311
17349148 13 17988921150240288710
17980427 23 17917429761851691622
18608769 82 18340765945440398587
200 152 17967535670370252635
20511986 3 18272663371456626246
21033648 29 18263374607447541432
21130935 74 18410853282712547459
21150785 3 16588028991597521661
21236236 1 18336830797772620575
21267235 1 18337102466452615167
21279426 13 18337390551647550310
221357 26 18114179774419835332
23559900 14 18336270058899181832
23569914 152 16814883803947685724
3004659 81 18272087253729717238
335352 9 18409449210557883902
34797466 226 17748823038324687372
34934 24 18408609162273500087
350125 39 18411699889358574820
3545911 37 18412543228136689159
38695281 34 18113899368310304935
4073 2 18201998794543190122
4093350 32 17168139061969752446
4340502 62 16917071070761863154
5104073 3 18342174483542625786
5283173 99 18410295851781259313
6086070 43 17095814217707521827
7226269 152 18113898303838637585

> <PUBCHEM_SHAPE_MULTIPOLES>
601.55
16.2
2.34
1.21
0.36
0.44
0.14
-5.47
-0.54
0.42
-0.27
-0.16
-0.01
1.25

> <PUBCHEM_SHAPE_SELFOVERLAP>
1273.822

> <PUBCHEM_SHAPE_VOLUME>
338.7

> <PUBCHEM_COORDINATE_TYPE>
2
5
10

$$$$

