20191
  -OEChem-07051213052D

 44 45  0     0  0  0  0  0  0999 V2000
    2.0000    4.7500    0.0000 Cl  0  0  0  0  0  0  0  0  0  0  0  0
    5.4641    4.7500    0.0000 Cl  0  0  0  0  0  0  0  0  0  0  0  0
    7.1962   -3.2500    0.0000 O   0  0  0  0  0  0  0  0  0  0  0  0
    6.3301   -1.7500    0.0000 O   0  0  0  0  0  0  0  0  0  0  0  0
    3.7320    2.7500    0.0000 N   0  0  0  0  0  0  0  0  0  0  0  0
    3.7320   -1.2500    0.0000 N   0  0  0  0  0  0  0  0  0  0  0  0
    4.5981   -1.7500    0.0000 N   0  0  0  0  0  0  0  0  0  0  0  0
    3.7320    1.7500    0.0000 C   0  0  0  0  0  0  0  0  0  0  0  0
    4.5981    3.2500    0.0000 C   0  0  0  0  0  0  0  0  0  0  0  0
    2.8660    3.2500    0.0000 C   0  0  0  0  0  0  0  0  0  0  0  0
    2.8660    1.2500    0.0000 C   0  0  0  0  0  0  0  0  0  0  0  0
    2.8660    0.2500    0.0000 C   0  0  0  0  0  0  0  0  0  0  0  0
    4.5981    1.2500    0.0000 C   0  0  0  0  0  0  0  0  0  0  0  0
    3.7320   -0.2500    0.0000 C   0  0  0  0  0  0  0  0  0  0  0  0
    2.8660    4.2500    0.0000 C   0  0  0  0  0  0  0  0  0  0  0  0
    4.5981    4.2500    0.0000 C   0  0  0  0  0  0  0  0  0  0  0  0
    4.5981    0.2500    0.0000 C   0  0  0  0  0  0  0  0  0  0  0  0
    2.0000   -0.2500    0.0000 C   0  0  0  0  0  0  0  0  0  0  0  0
    4.5981   -2.7500    0.0000 C   0  0  0  0  0  0  0  0  0  0  0  0
    5.4641   -3.2500    0.0000 C   0  0  0  0  0  0  0  0  0  0  0  0
    3.7320   -3.2500    0.0000 C   0  0  0  0  0  0  0  0  0  0  0  0
    5.4641   -4.2500    0.0000 C   0  0  0  0  0  0  0  0  0  0  0  0
    3.7320   -4.2500    0.0000 C   0  0  0  0  0  0  0  0  0  0  0  0
    4.5981   -4.7500    0.0000 C   0  0  0  0  0  0  0  0  0  0  0  0
    6.3301   -2.7500    0.0000 C   0  0  0  0  0  0  0  0  0  0  0  0
    2.2554    3.3577    0.0000 H   0  0  0  0  0  0  0  0  0  0  0  0
    2.6540    2.6674    0.0000 H   0  0  0  0  0  0  0  0  0  0  0  0
    4.8101    2.6674    0.0000 H   0  0  0  0  0  0  0  0  0  0  0  0
    5.2087    3.3577    0.0000 H   0  0  0  0  0  0  0  0  0  0  0  0
    2.3291    1.5600    0.0000 H   0  0  0  0  0  0  0  0  0  0  0  0
    5.1350    1.5600    0.0000 H   0  0  0  0  0  0  0  0  0  0  0  0
    3.4766    4.1423    0.0000 H   0  0  0  0  0  0  0  0  0  0  0  0
    3.0781    4.8326    0.0000 H   0  0  0  0  0  0  0  0  0  0  0  0
    4.3860    4.8326    0.0000 H   0  0  0  0  0  0  0  0  0  0  0  0
    3.9875    4.1423    0.0000 H   0  0  0  0  0  0  0  0  0  0  0  0
    5.1350   -0.0600    0.0000 H   0  0  0  0  0  0  0  0  0  0  0  0
    1.6900    0.2869    0.0000 H   0  0  0  0  0  0  0  0  0  0  0  0
    1.4631   -0.5600    0.0000 H   0  0  0  0  0  0  0  0  0  0  0  0
    2.3100   -0.7869    0.0000 H   0  0  0  0  0  0  0  0  0  0  0  0
    3.1951   -2.9400    0.0000 H   0  0  0  0  0  0  0  0  0  0  0  0
    6.0010   -4.5600    0.0000 H   0  0  0  0  0  0  0  0  0  0  0  0
    3.1951   -4.5600    0.0000 H   0  0  0  0  0  0  0  0  0  0  0  0
    4.5981   -5.3700    0.0000 H   0  0  0  0  0  0  0  0  0  0  0  0
    7.7331   -2.9400    0.0000 H   0  0  0  0  0  0  0  0  0  0  0  0
  1 15  1  0  0  0  0
  2 16  1  0  0  0  0
  3 25  1  0  0  0  0
  3 44  1  0  0  0  0
  4 25  2  0  0  0  0
  5  8  1  0  0  0  0
  5  9  1  0  0  0  0
  5 10  1  0  0  0  0
  6  7  2  0  0  0  0
  6 14  1  0  0  0  0
  7 19  1  0  0  0  0
  8 11  2  0  0  0  0
  8 13  1  0  0  0  0
  9 16  1  0  0  0  0
  9 28  1  0  0  0  0
  9 29  1  0  0  0  0
 10 15  1  0  0  0  0
 10 26  1  0  0  0  0
 10 27  1  0  0  0  0
 11 12  1  0  0  0  0
 11 30  1  0  0  0  0
 12 14  2  0  0  0  0
 12 18  1  0  0  0  0
 13 17  2  0  0  0  0
 13 31  1  0  0  0  0
 14 17  1  0  0  0  0
 15 32  1  0  0  0  0
 15 33  1  0  0  0  0
 16 34  1  0  0  0  0
 16 35  1  0  0  0  0
 17 36  1  0  0  0  0
 18 37  1  0  0  0  0
 18 38  1  0  0  0  0
 18 39  1  0  0  0  0
 19 20  1  0  0  0  0
 19 21  2  0  0  0  0
 20 22  2  0  0  0  0
 20 25  1  0  0  0  0
 21 23  1  0  0  0  0
 21 40  1  0  0  0  0
 22 24  1  0  0  0  0
 22 41  1  0  0  0  0
 23 24  2  0  0  0  0
 23 42  1  0  0  0  0
 24 43  1  0  0  0  0
M  END
> <PUBCHEM_COMPOUND_CID>
20191

> <PUBCHEM_COMPOUND_CANONICALIZED>
1

> <PUBCHEM_CACTVS_COMPLEXITY>
444

> <PUBCHEM_CACTVS_HBOND_ACCEPTOR>
5

> <PUBCHEM_CACTVS_HBOND_DONOR>
1

> <PUBCHEM_CACTVS_ROTATABLE_BOND>
8

> <PUBCHEM_CACTVS_SUBSKEYS>
AAADceB7MAAGAAAAAAAAAAAAAAAAAAAAAAAwYAAAAAAAAAABQAAAHgIICAAADAvBmEQyyIMAAgCKAiTSSACCAAAlAgAIiAEIbMgIJjrAlZHEcYhmwAHI2ceYyCCOAACAQAACAAAAAQCAAAQAAAAAAAAAAA==

> <PUBCHEM_IUPAC_OPENEYE_NAME>
2-[4-[bis(2-chloroethyl)amino]-2-methyl-phenyl]azobenzoic acid

> <PUBCHEM_IUPAC_CAS_NAME>
2-[4-[bis(2-chloroethyl)amino]-2-methylphenyl]azobenzoic acid

> <PUBCHEM_IUPAC_NAME>
2-[[4-[bis(2-chloroethyl)amino]-2-methylphenyl]diazenyl]benzoic acid

> <PUBCHEM_IUPAC_SYSTEMATIC_NAME>
2-[[4-[bis(2-chloroethyl)amino]-2-methyl-phenyl]diazenyl]benzoic acid

> <PUBCHEM_IUPAC_TRADITIONAL_NAME>
2-[4-[bis(2-chloroethyl)amino]-2-methyl-phenyl]azobenzoic acid

> <PUBCHEM_IUPAC_INCHI>
InChI=1S/C18H19Cl2N3O2/c1-13-12-14(23(10-8-19)11-9-20)6-7-16(13)21-22-17-5-3-2-4-15(17)18(24)25/h2-7,12H,8-11H2,1H3,(H,24,25)

> <PUBCHEM_IUPAC_INCHIKEY>
JRQFCUCILBFUNR-UHFFFAOYSA-N

> <PUBCHEM_XLOGP3_AA>
4.9

> <PUBCHEM_EXACT_MASS>
379.085432

> <PUBCHEM_MOLECULAR_FORMULA>
C18H19Cl2N3O2

> <PUBCHEM_MOLECULAR_WEIGHT>
380.26836

> <PUBCHEM_OPENEYE_CAN_SMILES>
CC1=C(C=CC(=C1)N(CCCl)CCCl)N=NC2=CC=CC=C2C(=O)O

> <PUBCHEM_OPENEYE_ISO_SMILES>
CC1=C(C=CC(=C1)N(CCCl)CCCl)N=NC2=CC=CC=C2C(=O)O

> <PUBCHEM_CACTVS_TPSA>
65.3

> <PUBCHEM_MONOISOTOPIC_WEIGHT>
379.085432

> <PUBCHEM_TOTAL_CHARGE>
0

> <PUBCHEM_HEAVY_ATOM_COUNT>
25

> <PUBCHEM_ATOM_DEF_STEREO_COUNT>
0

> <PUBCHEM_ATOM_UDEF_STEREO_COUNT>
0

> <PUBCHEM_BOND_DEF_STEREO_COUNT>
0

> <PUBCHEM_BOND_UDEF_STEREO_COUNT>
0

> <PUBCHEM_ISOTOPIC_ATOM_COUNT>
0

> <PUBCHEM_COMPONENT_COUNT>
1

> <PUBCHEM_CACTVS_TAUTO_COUNT>
1

> <PUBCHEM_COORDINATE_TYPE>
1
5
255

> <PUBCHEM_BONDANNOTATIONS>
11  12  8
12  14  8
13  17  8
14  17  8
19  20  8
19  21  8
20  22  8
21  23  8
22  24  8
23  24  8
8  11  8
8  13  8

$$$$

