231445
  -OEChem-07051213062D

 44 46  0     1  0  0  0  0  0999 V2000
    5.5981    0.0000    0.0000 O   0  0  0  0  0  0  0  0  0  0  0  0
    3.7320    2.5000    0.0000 N   0  0  0  0  0  0  0  0  0  0  0  0
    4.5981    0.0000    0.0000 C   0  0  3  0  0  0  0  0  0  0  0  0
    4.5981    1.0000    0.0000 C   0  0  3  0  0  0  0  0  0  0  0  0
    3.5981    0.0000    0.0000 C   0  0  0  0  0  0  0  0  0  0  0  0
    4.5981   -1.0000    0.0000 C   0  0  0  0  0  0  0  0  0  0  0  0
    5.4641    1.5000    0.0000 C   0  0  0  0  0  0  0  0  0  0  0  0
    3.7320    1.5000    0.0000 C   0  0  0  0  0  0  0  0  0  0  0  0
    3.0981   -0.8660    0.0000 C   0  0  0  0  0  0  0  0  0  0  0  0
    3.7320   -1.5000    0.0000 C   0  0  0  0  0  0  0  0  0  0  0  0
    5.4641   -1.5000    0.0000 C   0  0  0  0  0  0  0  0  0  0  0  0
    6.3301    1.0000    0.0000 C   0  0  0  0  0  0  0  0  0  0  0  0
    5.4641    2.5000    0.0000 C   0  0  0  0  0  0  0  0  0  0  0  0
    2.8660    1.0000    0.0000 C   0  0  0  0  0  0  0  0  0  0  0  0
    3.7320   -2.5000    0.0000 C   0  0  0  0  0  0  0  0  0  0  0  0
    5.4641   -2.5000    0.0000 C   0  0  0  0  0  0  0  0  0  0  0  0
    7.1962    1.5000    0.0000 C   0  0  0  0  0  0  0  0  0  0  0  0
    6.3301    3.0000    0.0000 C   0  0  0  0  0  0  0  0  0  0  0  0
    4.5981   -3.0000    0.0000 C   0  0  0  0  0  0  0  0  0  0  0  0
    2.0000    1.5000    0.0000 C   0  0  0  0  0  0  0  0  0  0  0  0
    7.1962    2.5000    0.0000 C   0  0  0  0  0  0  0  0  0  0  0  0
    2.8660    3.0000    0.0000 C   0  0  0  0  0  0  0  0  0  0  0  0
    2.0000    2.5000    0.0000 C   0  0  0  0  0  0  0  0  0  0  0  0
    5.1350    0.6900    0.0000 H   0  0  0  0  0  0  0  0  0  0  0  0
    3.7057    0.6106    0.0000 H   0  0  0  0  0  0  0  0  0  0  0  0
    3.0155    0.2121    0.0000 H   0  0  0  0  0  0  0  0  0  0  0  0
    2.5611   -0.5560    0.0000 H   0  0  0  0  0  0  0  0  0  0  0  0
    2.7881   -1.4030    0.0000 H   0  0  0  0  0  0  0  0  0  0  0  0
    3.6350   -1.1760    0.0000 H   0  0  0  0  0  0  0  0  0  0  0  0
    5.9081   -0.5369    0.0000 H   0  0  0  0  0  0  0  0  0  0  0  0
    3.1951   -1.1900    0.0000 H   0  0  0  0  0  0  0  0  0  0  0  0
    6.0010   -1.1900    0.0000 H   0  0  0  0  0  0  0  0  0  0  0  0
    6.3301    0.3800    0.0000 H   0  0  0  0  0  0  0  0  0  0  0  0
    4.9272    2.8100    0.0000 H   0  0  0  0  0  0  0  0  0  0  0  0
    2.8660    0.3800    0.0000 H   0  0  0  0  0  0  0  0  0  0  0  0
    3.1951   -2.8100    0.0000 H   0  0  0  0  0  0  0  0  0  0  0  0
    6.0010   -2.8100    0.0000 H   0  0  0  0  0  0  0  0  0  0  0  0
    7.7331    1.1900    0.0000 H   0  0  0  0  0  0  0  0  0  0  0  0
    6.3301    3.6200    0.0000 H   0  0  0  0  0  0  0  0  0  0  0  0
    4.5981   -3.6200    0.0000 H   0  0  0  0  0  0  0  0  0  0  0  0
    1.4631    1.1900    0.0000 H   0  0  0  0  0  0  0  0  0  0  0  0
    7.7331    2.8100    0.0000 H   0  0  0  0  0  0  0  0  0  0  0  0
    2.8660    3.6200    0.0000 H   0  0  0  0  0  0  0  0  0  0  0  0
    1.4631    2.8100    0.0000 H   0  0  0  0  0  0  0  0  0  0  0  0
  1  3  1  0  0  0  0
  1 30  1  0  0  0  0
  2  8  1  0  0  0  0
  2 22  2  0  0  0  0
  3  4  1  0  0  0  0
  3  5  1  0  0  0  0
  3  6  1  0  0  0  0
  4  7  1  0  0  0  0
  4  8  1  0  0  0  0
  4 24  1  0  0  0  0
  5  9  1  0  0  0  0
  5 25  1  0  0  0  0
  5 26  1  0  0  0  0
  6 10  2  0  0  0  0
  6 11  1  0  0  0  0
  7 12  2  0  0  0  0
  7 13  1  0  0  0  0
  8 14  2  0  0  0  0
  9 27  1  0  0  0  0
  9 28  1  0  0  0  0
  9 29  1  0  0  0  0
 10 15  1  0  0  0  0
 10 31  1  0  0  0  0
 11 16  2  0  0  0  0
 11 32  1  0  0  0  0
 12 17  1  0  0  0  0
 12 33  1  0  0  0  0
 13 18  2  0  0  0  0
 13 34  1  0  0  0  0
 14 20  1  0  0  0  0
 14 35  1  0  0  0  0
 15 19  2  0  0  0  0
 15 36  1  0  0  0  0
 16 19  1  0  0  0  0
 16 37  1  0  0  0  0
 17 21  2  0  0  0  0
 17 38  1  0  0  0  0
 18 21  1  0  0  0  0
 18 39  1  0  0  0  0
 19 40  1  0  0  0  0
 20 23  2  0  0  0  0
 20 41  1  0  0  0  0
 21 42  1  0  0  0  0
 22 23  1  0  0  0  0
 22 43  1  0  0  0  0
 23 44  1  0  0  0  0
M  END
> <PUBCHEM_COMPOUND_CID>
231445

> <PUBCHEM_COMPOUND_CANONICALIZED>
1

> <PUBCHEM_CACTVS_COMPLEXITY>
346

> <PUBCHEM_CACTVS_HBOND_ACCEPTOR>
2

> <PUBCHEM_CACTVS_HBOND_DONOR>
1

> <PUBCHEM_CACTVS_ROTATABLE_BOND>
5

> <PUBCHEM_CACTVS_SUBSKEYS>
AAADceB6IAAAAAAAAAAAAAAAAAAAAAAAAAA8YIAAAAAAAAAB0AAAHgAACAAADUzBngQ+gJIIEgCgAzRnRACCgCAxAiAI2CA4bJgIJuLAkZGEcAhmwAHI2AeQwOAOgAAAAAAAAAAAAAAAAAAAAAAAAAAAAA==

> <PUBCHEM_IUPAC_OPENEYE_NAME>
1,2-diphenyl-1-(2-pyridyl)butan-2-ol

> <PUBCHEM_IUPAC_CAS_NAME>
1,2-diphenyl-1-(2-pyridinyl)-2-butanol

> <PUBCHEM_IUPAC_NAME>
1,2-diphenyl-1-pyridin-2-ylbutan-2-ol

> <PUBCHEM_IUPAC_SYSTEMATIC_NAME>
1,2-diphenyl-1-pyridin-2-yl-butan-2-ol

> <PUBCHEM_IUPAC_TRADITIONAL_NAME>
1,2-diphenyl-1-(2-pyridyl)butan-2-ol

> <PUBCHEM_IUPAC_INCHI>
InChI=1S/C21H21NO/c1-2-21(23,18-13-7-4-8-14-18)20(17-11-5-3-6-12-17)19-15-9-10-16-22-19/h3-16,20,23H,2H2,1H3

> <PUBCHEM_IUPAC_INCHIKEY>
KUBRLJSAJBZZKM-UHFFFAOYSA-N

> <PUBCHEM_XLOGP3_AA>
4.2

> <PUBCHEM_EXACT_MASS>
303.162314

> <PUBCHEM_MOLECULAR_FORMULA>
C21H21NO

> <PUBCHEM_MOLECULAR_WEIGHT>
303.39754

> <PUBCHEM_OPENEYE_CAN_SMILES>
CCC(C1=CC=CC=C1)(C(C2=CC=CC=C2)C3=CC=CC=N3)O

> <PUBCHEM_OPENEYE_ISO_SMILES>
CCC(C1=CC=CC=C1)(C(C2=CC=CC=C2)C3=CC=CC=N3)O

> <PUBCHEM_CACTVS_TPSA>
33.1

> <PUBCHEM_MONOISOTOPIC_WEIGHT>
303.162314

> <PUBCHEM_TOTAL_CHARGE>
0

> <PUBCHEM_HEAVY_ATOM_COUNT>
23

> <PUBCHEM_ATOM_DEF_STEREO_COUNT>
0

> <PUBCHEM_ATOM_UDEF_STEREO_COUNT>
2

> <PUBCHEM_BOND_DEF_STEREO_COUNT>
0

> <PUBCHEM_BOND_UDEF_STEREO_COUNT>
0

> <PUBCHEM_ISOTOPIC_ATOM_COUNT>
0

> <PUBCHEM_COMPONENT_COUNT>
1

> <PUBCHEM_CACTVS_TAUTO_COUNT>
2

> <PUBCHEM_COORDINATE_TYPE>
1
5
255

> <PUBCHEM_BONDANNOTATIONS>
3  1  3
10  15  8
11  16  8
12  17  8
13  18  8
14  20  8
15  19  8
16  19  8
17  21  8
18  21  8
2  22  8
2  8  8
20  23  8
22  23  8
4  7  3
6  10  8
6  11  8
7  12  8
7  13  8
8  14  8

$$$$

