4753
  -OEChem-07051212533D

 23 23  0     0  0  0  0  0  0999 V2000
    1.0820   -1.5844    0.4231 O   0  0  0  0  0  0  0  0  0  0  0  0
    3.6173   -0.5581    1.0997 O   0  0  0  0  0  0  0  0  0  0  0  0
    2.1249    0.2944   -0.4818 N   0  0  0  0  0  0  0  0  0  0  0  0
    4.1515    1.3220   -0.1083 N   0  0  0  0  0  0  0  0  0  0  0  0
   -0.0599   -0.3088   -1.2903 C   0  0  0  0  0  0  0  0  0  0  0  0
   -1.3598   -0.0444   -0.5775 C   0  0  0  0  0  0  0  0  0  0  0  0
   -2.2244   -1.0989   -0.3201 C   0  0  0  0  0  0  0  0  0  0  0  0
   -1.6742    1.2499   -0.1885 C   0  0  0  0  0  0  0  0  0  0  0  0
    1.0861   -0.6300   -0.3498 C   0  0  0  0  0  0  0  0  0  0  0  0
   -3.4284   -0.8540    0.3400 C   0  0  0  0  0  0  0  0  0  0  0  0
   -2.8783    1.4948    0.4718 C   0  0  0  0  0  0  0  0  0  0  0  0
   -3.7553    0.4429    0.7360 C   0  0  0  0  0  0  0  0  0  0  0  0
    3.3187    0.2745    0.2455 C   0  0  0  0  0  0  0  0  0  0  0  0
    0.1774    0.5421   -1.9405 H   0  0  0  0  0  0  0  0  0  0  0  0
   -0.1709   -1.1640   -1.9697 H   0  0  0  0  0  0  0  0  0  0  0  0
   -1.9785   -2.1129   -0.6227 H   0  0  0  0  0  0  0  0  0  0  0  0
   -0.9967    2.0754   -0.3880 H   0  0  0  0  0  0  0  0  0  0  0  0
   -4.1112   -1.6730    0.5463 H   0  0  0  0  0  0  0  0  0  0  0  0
   -3.1328    2.5045    0.7807 H   0  0  0  0  0  0  0  0  0  0  0  0
   -4.6927    0.6336    1.2504 H   0  0  0  0  0  0  0  0  0  0  0  0
    2.0209    1.0503   -1.1530 H   0  0  0  0  0  0  0  0  0  0  0  0
    3.8871    1.9992   -0.8157 H   0  0  0  0  0  0  0  0  0  0  0  0
    5.0570    1.4441    0.3325 H   0  0  0  0  0  0  0  0  0  0  0  0
  1  9  2  0  0  0  0
  2 13  2  0  0  0  0
  3  9  1  0  0  0  0
  3 13  1  0  0  0  0
  3 21  1  0  0  0  0
  4 13  1  0  0  0  0
  4 22  1  0  0  0  0
  4 23  1  0  0  0  0
  5  6  1  0  0  0  0
  5  9  1  0  0  0  0
  5 14  1  0  0  0  0
  5 15  1  0  0  0  0
  6  7  2  0  0  0  0
  6  8  1  0  0  0  0
  7 10  1  0  0  0  0
  7 16  1  0  0  0  0
  8 11  2  0  0  0  0
  8 17  1  0  0  0  0
 10 12  2  0  0  0  0
 10 18  1  0  0  0  0
 11 12  1  0  0  0  0
 11 19  1  0  0  0  0
 12 20  1  0  0  0  0
M  END
> <PUBCHEM_COMPOUND_CID>
4753

> <PUBCHEM_CONFORMER_RMSD>
0.6

> <PUBCHEM_CONFORMER_DIVERSEORDER>
2
9
10
1
5
7
4
8
3
12
6
11

> <PUBCHEM_MMFF94_PARTIAL_CHARGES>
21
1 -0.57
10 -0.15
11 -0.15
12 -0.15
13 0.69
16 0.15
17 0.15
18 0.15
19 0.15
2 -0.57
20 0.15
21 0.37
22 0.37
23 0.37
3 -0.49
4 -0.8
5 0.2
6 -0.14
7 -0.15
8 -0.15
9 0.57

> <PUBCHEM_EFFECTIVE_ROTOR_COUNT>
4

> <PUBCHEM_PHARMACOPHORE_FEATURES>
5
1 1 acceptor
1 2 acceptor
1 3 donor
1 4 donor
6 6 7 8 10 11 12 rings

> <PUBCHEM_HEAVY_ATOM_COUNT>
13

> <PUBCHEM_ATOM_DEF_STEREO_COUNT>
0

> <PUBCHEM_ATOM_UDEF_STEREO_COUNT>
0

> <PUBCHEM_BOND_DEF_STEREO_COUNT>
0

> <PUBCHEM_BOND_UDEF_STEREO_COUNT>
0

> <PUBCHEM_ISOTOPIC_ATOM_COUNT>
0

> <PUBCHEM_COMPONENT_COUNT>
1

> <PUBCHEM_CACTVS_TAUTO_COUNT>
5

> <PUBCHEM_CONFORMER_ID>
0000129100000002

> <PUBCHEM_MMFF94_ENERGY>
28.8591

> <PUBCHEM_FEATURE_SELFOVERLAP>
25.425

> <PUBCHEM_SHAPE_FINGERPRINT>
11031198 65 15574710335090775741
11127187 94 10879985853134139153
11132069 177 18334572451869236741
12251169 10 18272367564015585541
12346645 44 18409729556090077102
12382932 28 18411415150475835469
13214271 11 18333449824822425861
13549 16 8142095242547812485
13693222 15 17489591168589824468
13764800 53 17749102331384210537
13897977 13 18409446977386068013
13897977 58 18335696096559786692
14350558 41 12175618499100289944
14445660 50 18409442605204001025
14993402 34 7132437887264334595
15219456 202 17749660895917689863
15775835 57 18333447642572863936
17834072 14 13758076272723329502
17846911 113 18040999570203651345
17870717 6 11527676335633355712
18186145 218 14996282500940816718
19107657 162 13901907829944168432
200 152 18341343197555748919
201361 129 18337670922817795762
20201158 50 12391515291005799049
20528008 55 18410015455252172949
20645464 45 17967809479283929863
20645476 183 6915980327476358493
20645477 56 17240489061734330760
20671657 53 11455889169932226446
20871999 31 8646764487344157971
21061003 4 15697994150265769333
21119208 17 8070031051672207057
22485316 2 10159702378505355956
23402539 116 18187936045525019303
23402655 69 7132441215531998146
23403322 49 12319464293926978448
25 1 14562522990181625574
7364860 26 18044370758474625582
76465 3 13541888050666535433
9882013 296 17846779585641766316

> <PUBCHEM_SHAPE_MULTIPOLES>
245.83
7.45
1.42
0.95
4.48
0.16
-0.05
1.8
2.14
-0.42
0.09
0.12
-0.1
-0.34

> <PUBCHEM_SHAPE_SELFOVERLAP>
506.646

> <PUBCHEM_SHAPE_VOLUME>
140.1

> <PUBCHEM_COORDINATE_TYPE>
2
5
10

$$$$

