17396391
  -OEChem-06241222563D

 40 41  0     0  0  0  0  0  0999 V2000
    4.3985    1.2003    0.6661 S   0  0  0  0  0  0  0  0  0  0  0  0
   -2.4137    0.4127   -1.7959 O   0  0  0  0  0  0  0  0  0  0  0  0
   -2.7545   -0.2225    0.3851 N   0  0  0  0  0  0  0  0  0  0  0  0
    1.6941    0.9811   -0.4383 N   0  0  0  0  0  0  0  0  0  0  0  0
   -4.1959   -0.1323    0.3204 C   0  0  0  0  0  0  0  0  0  0  0  0
   -4.8384   -1.5015    0.5929 C   0  0  0  0  0  0  0  0  0  0  0  0
   -4.7181    0.9120    1.3188 C   0  0  0  0  0  0  0  0  0  0  0  0
   -4.3572   -2.5806   -0.3690 C   0  0  0  0  0  0  0  0  0  0  0  0
   -4.1160    2.2943    1.0992 C   0  0  0  0  0  0  0  0  0  0  0  0
   -1.9445    0.0653   -0.7106 C   0  0  0  0  0  0  0  0  0  0  0  0
   -0.4969   -0.0400   -0.4788 C   0  0  0  0  0  0  0  0  0  0  0  0
    0.3587    1.0376   -0.6416 C   0  0  0  0  0  0  0  0  0  0  0  0
    0.0533   -1.2535   -0.0815 C   0  0  0  0  0  0  0  0  0  0  0  0
    2.1928   -0.2150   -0.0531 C   0  0  0  0  0  0  0  0  0  0  0  0
    1.4230   -1.3511    0.1375 C   0  0  0  0  0  0  0  0  0  0  0  0
   -0.1735    2.3678   -1.0657 C   0  0  0  0  0  0  0  0  0  0  0  0
    3.6171   -0.2339    0.1514 C   0  0  0  0  0  0  0  0  0  0  0  0
    4.5032   -1.2764   -0.0086 C   0  0  0  0  0  0  0  0  0  0  0  0
    5.8412   -0.8927    0.2954 C   0  0  0  0  0  0  0  0  0  0  0  0
    5.9269    0.4283    0.6762 C   0  0  0  0  0  0  0  0  0  0  0  0
   -4.4948    0.1853   -0.6859 H   0  0  0  0  0  0  0  0  0  0  0  0
   -5.9288   -1.4155    0.5132 H   0  0  0  0  0  0  0  0  0  0  0  0
   -4.6161   -1.8247    1.6175 H   0  0  0  0  0  0  0  0  0  0  0  0
   -5.8092    0.9833    1.2344 H   0  0  0  0  0  0  0  0  0  0  0  0
   -4.4964    0.5954    2.3457 H   0  0  0  0  0  0  0  0  0  0  0  0
   -2.3287   -0.4924    1.2675 H   0  0  0  0  0  0  0  0  0  0  0  0
   -3.2906   -2.7888   -0.2416 H   0  0  0  0  0  0  0  0  0  0  0  0
   -4.9003   -3.5136   -0.1866 H   0  0  0  0  0  0  0  0  0  0  0  0
   -4.5316   -2.2855   -1.4086 H   0  0  0  0  0  0  0  0  0  0  0  0
   -3.0398    2.3008    1.2964 H   0  0  0  0  0  0  0  0  0  0  0  0
   -4.2832    2.6368    0.0731 H   0  0  0  0  0  0  0  0  0  0  0  0
   -4.5808    3.0171    1.7775 H   0  0  0  0  0  0  0  0  0  0  0  0
   -0.5714   -2.1318    0.0586 H   0  0  0  0  0  0  0  0  0  0  0  0
    1.8484   -2.2980    0.4534 H   0  0  0  0  0  0  0  0  0  0  0  0
   -0.9740    2.7008   -0.3975 H   0  0  0  0  0  0  0  0  0  0  0  0
    0.6144    3.1286   -1.0343 H   0  0  0  0  0  0  0  0  0  0  0  0
   -0.5479    2.3237   -2.0930 H   0  0  0  0  0  0  0  0  0  0  0  0
    4.2230   -2.2710   -0.3329 H   0  0  0  0  0  0  0  0  0  0  0  0
    6.6976   -1.5517    0.2365 H   0  0  0  0  0  0  0  0  0  0  0  0
    6.8140    0.9771    0.9594 H   0  0  0  0  0  0  0  0  0  0  0  0
  1 17  1  0  0  0  0
  1 20  1  0  0  0  0
  2 10  2  0  0  0  0
  3  5  1  0  0  0  0
  3 10  1  0  0  0  0
  3 26  1  0  0  0  0
  4 12  1  0  0  0  0
  4 14  2  0  0  0  0
  5  6  1  0  0  0  0
  5  7  1  0  0  0  0
  5 21  1  0  0  0  0
  6  8  1  0  0  0  0
  6 22  1  0  0  0  0
  6 23  1  0  0  0  0
  7  9  1  0  0  0  0
  7 24  1  0  0  0  0
  7 25  1  0  0  0  0
  8 27  1  0  0  0  0
  8 28  1  0  0  0  0
  8 29  1  0  0  0  0
  9 30  1  0  0  0  0
  9 31  1  0  0  0  0
  9 32  1  0  0  0  0
 10 11  1  0  0  0  0
 11 12  2  0  0  0  0
 11 13  1  0  0  0  0
 12 16  1  0  0  0  0
 13 15  2  0  0  0  0
 13 33  1  0  0  0  0
 14 15  1  0  0  0  0
 14 17  1  0  0  0  0
 15 34  1  0  0  0  0
 16 35  1  0  0  0  0
 16 36  1  0  0  0  0
 16 37  1  0  0  0  0
 17 18  2  0  0  0  0
 18 19  1  0  0  0  0
 18 38  1  0  0  0  0
 19 20  2  0  0  0  0
 19 39  1  0  0  0  0
 20 40  1  0  0  0  0
M  END
> <PUBCHEM_COMPOUND_CID>
17396391

> <PUBCHEM_CONFORMER_RMSD>
0.8

> <PUBCHEM_CONFORMER_DIVERSEORDER>
2
19
27
18
21
16
29
11
30
5
9
28
23
26
6
17
10
4
3
24
13
22
7
12
15
14
8
25
1
20

> <PUBCHEM_MMFF94_PARTIAL_CHARGES>
22
1 -0.08
10 0.54
11 0.09
12 0.17
13 -0.15
14 0.36
15 -0.15
16 0.14
17 -0.01
18 -0.15
19 -0.15
2 -0.57
20 -0.11
26 0.37
3 -0.73
33 0.15
34 0.15
38 0.15
39 0.15
4 -0.62
40 0.15
5 0.3

> <PUBCHEM_EFFECTIVE_ROTOR_COUNT>
6

> <PUBCHEM_PHARMACOPHORE_FEATURES>
7
1 2 acceptor
1 3 donor
1 4 acceptor
1 8 hydrophobe
1 9 hydrophobe
5 1 17 18 19 20 rings
6 4 11 12 13 14 15 rings

> <PUBCHEM_HEAVY_ATOM_COUNT>
20

> <PUBCHEM_ATOM_DEF_STEREO_COUNT>
0

> <PUBCHEM_ATOM_UDEF_STEREO_COUNT>
0

> <PUBCHEM_BOND_DEF_STEREO_COUNT>
0

> <PUBCHEM_BOND_UDEF_STEREO_COUNT>
0

> <PUBCHEM_ISOTOPIC_ATOM_COUNT>
0

> <PUBCHEM_COMPONENT_COUNT>
1

> <PUBCHEM_CACTVS_TAUTO_COUNT>
2

> <PUBCHEM_CONFORMER_ID>
010972A700000002

> <PUBCHEM_MMFF94_ENERGY>
39.3441

> <PUBCHEM_FEATURE_SELFOVERLAP>
35.52

> <PUBCHEM_SHAPE_FINGERPRINT>
11089746 13 17603876640569572441
11796584 16 14908185252424824905
12107183 9 17831294274097751147
12236239 1 17894914035473040954
12507557 5 18412543198304292961
12596602 18 18187082836801159322
12892183 10 18186801365807984001
13140716 1 18199185092811030096
13544653 18 17489306412147407822
13583140 156 17167583791307391715
13675066 3 17749385979297816199
13862211 1 18131357392861838706
14178342 30 18337660993222672399
14787075 74 17846498089279909458
15048467 5 17458346355643645352
15209294 21 18187644738582177777
15788980 27 17203610388865087879
17349148 13 17132110264782152086
17780758 139 18408886231045879147
17844677 252 18187640289043324120
17980427 23 18040711477141760717
1813 80 17489013946475974902
18222031 100 16917073235251267750
18927931 339 16128371601723034915
200 152 11887952155223253958
20028762 73 18265332802981412895
20645477 56 15936128564494706093
21267235 1 18341894130697006306
23402539 116 18272656748500952879
23522609 53 18128227122223801620
23559900 14 12463565145591696766
23845131 108 17331964335709208788
2838139 119 15647338592738238433
3286 77 18339358544480878309
3759504 43 13984672429537919028
5104073 3 18336275612876997250
531348 171 10015600401495818561
542803 24 17822012008315901690
5924683 9 18261674784072643991

> <PUBCHEM_SHAPE_MULTIPOLES>
399.61
13.37
2.18
1.1
6.18
0.16
-0.13
-2.19
4.92
-2.27
-0.01
-0.84
0.43
-0.53

> <PUBCHEM_SHAPE_SELFOVERLAP>
822.625

> <PUBCHEM_SHAPE_VOLUME>
232.5

> <PUBCHEM_COORDINATE_TYPE>
2
5
10

$$$$

