583265
  -OEChem-06241222453D

 20 20  0     1  0  0  0  0  0999 V2000
   -2.1538    0.7167   -0.2935 S   0  0  0  0  0  0  0  0  0  0  0  0
   -0.5091   -1.4191   -0.1853 O   0  0  0  0  0  0  0  0  0  0  0  0
    0.6331    0.7487   -0.2807 C   0  0  1  0  0  0  0  0  0  0  0  0
    0.6331   -0.6915    0.2872 C   0  0  2  0  0  0  0  0  0  0  0  0
   -0.6061    1.5408    0.1699 C   0  0  0  0  0  0  0  0  0  0  0  0
    1.8893    1.5301    0.1178 C   0  0  0  0  0  0  0  0  0  0  0  0
    1.8526   -1.5009   -0.1473 C   0  0  0  0  0  0  0  0  0  0  0  0
   -1.7392   -0.9248    0.3320 C   0  0  0  0  0  0  0  0  0  0  0  0
    0.6080    0.6898   -1.3781 H   0  0  0  0  0  0  0  0  0  0  0  0
    0.6107   -0.6710    1.3847 H   0  0  0  0  0  0  0  0  0  0  0  0
   -0.6023    1.6804    1.2568 H   0  0  0  0  0  0  0  0  0  0  0  0
   -0.6085    2.5367   -0.2860 H   0  0  0  0  0  0  0  0  0  0  0  0
    2.7889    1.0937   -0.3263 H   0  0  0  0  0  0  0  0  0  0  0  0
    1.8309    2.5665   -0.2323 H   0  0  0  0  0  0  0  0  0  0  0  0
    2.0163    1.5474    1.2055 H   0  0  0  0  0  0  0  0  0  0  0  0
    1.7507   -2.5442    0.1721 H   0  0  0  0  0  0  0  0  0  0  0  0
    1.9445   -1.5148   -1.2390 H   0  0  0  0  0  0  0  0  0  0  0  0
    2.7788   -1.1072    0.2802 H   0  0  0  0  0  0  0  0  0  0  0  0
   -2.5278   -1.6151    0.0185 H   0  0  0  0  0  0  0  0  0  0  0  0
   -1.7209   -0.9264    1.4275 H   0  0  0  0  0  0  0  0  0  0  0  0
  1  5  1  0  0  0  0
  1  8  1  0  0  0  0
  2  4  1  0  0  0  0
  2  8  1  0  0  0  0
  3  4  1  0  0  0  0
  3  5  1  0  0  0  0
  3  6  1  0  0  0  0
  3  9  1  0  0  0  0
  4  7  1  0  0  0  0
  4 10  1  0  0  0  0
  5 11  1  0  0  0  0
  5 12  1  0  0  0  0
  6 13  1  0  0  0  0
  6 14  1  0  0  0  0
  6 15  1  0  0  0  0
  7 16  1  0  0  0  0
  7 17  1  0  0  0  0
  7 18  1  0  0  0  0
  8 19  1  0  0  0  0
  8 20  1  0  0  0  0
M  END
> <PUBCHEM_COMPOUND_CID>
583265

> <PUBCHEM_CONFORMER_RMSD>
0.4

> <PUBCHEM_CONFORMER_DIVERSEORDER>
1
10
8
5
4
3
9
7
6
2

> <PUBCHEM_MMFF94_PARTIAL_CHARGES>
5
1 -0.46
2 -0.56
4 0.28
5 0.23
8 0.51

> <PUBCHEM_EFFECTIVE_ROTOR_COUNT>
1.2

> <PUBCHEM_PHARMACOPHORE_FEATURES>
2
1 2 acceptor
6 1 2 3 4 5 8 rings

> <PUBCHEM_HEAVY_ATOM_COUNT>
8

> <PUBCHEM_ATOM_DEF_STEREO_COUNT>
0

> <PUBCHEM_ATOM_UDEF_STEREO_COUNT>
2

> <PUBCHEM_BOND_DEF_STEREO_COUNT>
0

> <PUBCHEM_BOND_UDEF_STEREO_COUNT>
0

> <PUBCHEM_ISOTOPIC_ATOM_COUNT>
0

> <PUBCHEM_COMPONENT_COUNT>
1

> <PUBCHEM_CACTVS_TAUTO_COUNT>
1

> <PUBCHEM_CONFORMER_ID>
0008E66100000001

> <PUBCHEM_MMFF94_ENERGY>
14.8073

> <PUBCHEM_FEATURE_SELFOVERLAP>
10.148

> <PUBCHEM_SHAPE_FINGERPRINT>
16714656 1 17906449188117099102
18185500 45 18120937200642180735
21040471 1 18339643330455439357
23552423 10 18272366460314556894
241688 4 17184188881865442171
2748010 2 18411980252149745999
29004967 10 18127403462884805057
5084963 1 17970358215740319897
66348 1 18339359793867896957

> <PUBCHEM_SHAPE_MULTIPOLES>
162.62
2.76
1.99
0.67
0.34
0.12
0
-0.02
0.11
-0.58
-0.04
0.05
0.01
0.16

> <PUBCHEM_SHAPE_SELFOVERLAP>
296.079

> <PUBCHEM_SHAPE_VOLUME>
105.3

> <PUBCHEM_COORDINATE_TYPE>
2
5
10

$$$$

