442920
  -OEChem-07051213002D

 45 46  0     1  0  0  0  0  0999 V2000
    3.7320   -0.4777    0.0000 O   0  0  0  0  0  0  0  0  0  0  0  0
    6.3301    2.0223    0.0000 O   0  0  0  0  0  0  0  0  0  0  0  0
    4.5981   -0.9777    0.0000 O   0  0  0  0  0  0  0  0  0  0  0  0
    8.0785   -2.0123    0.0000 O   0  0  0  0  0  0  0  0  0  0  0  0
    6.3301   -0.9777    0.0000 N   0  0  0  0  0  0  0  0  0  0  0  0
    3.7320    0.5223    0.0000 C   0  0  1  0  0  0  0  0  0  0  0  0
    2.8660    1.0223    0.0000 C   0  0  0  0  0  0  0  0  0  0  0  0
    4.5981    1.0223    0.0000 C   0  0  0  0  0  0  0  0  0  0  0  0
    5.4641    0.5223    0.0000 C   0  0  0  0  0  0  0  0  0  0  0  0
    6.3301    1.0223    0.0000 C   0  0  0  0  0  0  0  0  0  0  0  0
    7.1962    0.5223    0.0000 C   0  0  0  0  0  0  0  0  0  0  0  0
    7.1962   -0.4777    0.0000 C   0  0  0  0  0  0  0  0  0  0  0  0
    5.4641   -0.4777    0.0000 C   0  0  0  0  0  0  0  0  0  0  0  0
    2.0000    0.5223    0.0000 C   0  0  0  0  0  0  0  0  0  0  0  0
    2.8660    2.0223    0.0000 C   0  0  0  0  0  0  0  0  0  0  0  0
    8.0901   -1.0124    0.0000 C   0  0  0  0  0  0  0  0  0  0  0  0
    8.0901    1.0570    0.0000 C   0  0  0  0  0  0  0  0  0  0  0  0
    6.3301   -1.9777    0.0000 C   0  0  0  0  0  0  0  0  0  0  0  0
    8.9962   -0.4985    0.0000 C   0  0  0  0  0  0  0  0  0  0  0  0
    8.9962    0.5431    0.0000 C   0  0  0  0  0  0  0  0  0  0  0  0
    5.4641    2.5223    0.0000 C   0  0  0  0  0  0  0  0  0  0  0  0
    8.9387   -2.5223    0.0000 C   0  0  0  0  0  0  0  0  0  0  0  0
    4.2690    0.2123    0.0000 H   0  0  0  0  0  0  0  0  0  0  0  0
    3.4030    1.3323    0.0000 H   0  0  0  0  0  0  0  0  0  0  0  0
    4.9966    1.4972    0.0000 H   0  0  0  0  0  0  0  0  0  0  0  0
    4.1996    1.4972    0.0000 H   0  0  0  0  0  0  0  0  0  0  0  0
    3.4860    2.0223    0.0000 H   0  0  0  0  0  0  0  0  0  0  0  0
    1.6900    1.0592    0.0000 H   0  0  0  0  0  0  0  0  0  0  0  0
    1.4631    0.2123    0.0000 H   0  0  0  0  0  0  0  0  0  0  0  0
    2.3100   -0.0146    0.0000 H   0  0  0  0  0  0  0  0  0  0  0  0
    2.8660    2.6423    0.0000 H   0  0  0  0  0  0  0  0  0  0  0  0
    2.2460    2.0223    0.0000 H   0  0  0  0  0  0  0  0  0  0  0  0
    3.1951   -0.7877    0.0000 H   0  0  0  0  0  0  0  0  0  0  0  0
    8.0829    1.6769    0.0000 H   0  0  0  0  0  0  0  0  0  0  0  0
    5.7101   -1.9777    0.0000 H   0  0  0  0  0  0  0  0  0  0  0  0
    6.3301   -2.5977    0.0000 H   0  0  0  0  0  0  0  0  0  0  0  0
    6.9501   -1.9777    0.0000 H   0  0  0  0  0  0  0  0  0  0  0  0
    9.5319   -0.8106    0.0000 H   0  0  0  0  0  0  0  0  0  0  0  0
    9.5319    0.8552    0.0000 H   0  0  0  0  0  0  0  0  0  0  0  0
    5.7741    3.0592    0.0000 H   0  0  0  0  0  0  0  0  0  0  0  0
    4.9272    2.8323    0.0000 H   0  0  0  0  0  0  0  0  0  0  0  0
    5.1541    1.9854    0.0000 H   0  0  0  0  0  0  0  0  0  0  0  0
    8.6225   -3.0556    0.0000 H   0  0  0  0  0  0  0  0  0  0  0  0
    9.4720   -2.8385    0.0000 H   0  0  0  0  0  0  0  0  0  0  0  0
    9.2549   -1.9890    0.0000 H   0  0  0  0  0  0  0  0  0  0  0  0
  6  1  1  1  0  0  0
  1 33  1  0  0  0  0
  2 10  1  0  0  0  0
  2 21  1  0  0  0  0
  3 13  2  0  0  0  0
  4 16  1  0  0  0  0
  4 22  1  0  0  0  0
  5 12  1  0  0  0  0
  5 13  1  0  0  0  0
  5 18  1  0  0  0  0
  6  7  1  0  0  0  0
  6  8  1  0  0  0  0
  6 23  1  0  0  0  0
  7 14  1  0  0  0  0
  7 15  1  0  0  0  0
  7 24  1  0  0  0  0
  8  9  1  0  0  0  0
  8 25  1  0  0  0  0
  8 26  1  0  0  0  0
  9 10  2  0  0  0  0
  9 13  1  0  0  0  0
 10 11  1  0  0  0  0
 11 12  2  0  0  0  0
 11 17  1  0  0  0  0
 12 16  1  0  0  0  0
 14 28  1  0  0  0  0
 14 29  1  0  0  0  0
 14 30  1  0  0  0  0
 15 27  1  0  0  0  0
 15 31  1  0  0  0  0
 15 32  1  0  0  0  0
 16 19  2  0  0  0  0
 17 20  2  0  0  0  0
 17 34  1  0  0  0  0
 18 35  1  0  0  0  0
 18 36  1  0  0  0  0
 18 37  1  0  0  0  0
 19 20  1  0  0  0  0
 19 38  1  0  0  0  0
 20 39  1  0  0  0  0
 21 40  1  0  0  0  0
 21 41  1  0  0  0  0
 21 42  1  0  0  0  0
 22 43  1  0  0  0  0
 22 44  1  0  0  0  0
 22 45  1  0  0  0  0
M  END
> <PUBCHEM_COMPOUND_CID>
442920

> <PUBCHEM_COMPOUND_CANONICALIZED>
1

> <PUBCHEM_CACTVS_COMPLEXITY>
446

> <PUBCHEM_CACTVS_HBOND_ACCEPTOR>
4

> <PUBCHEM_CACTVS_HBOND_DONOR>
1

> <PUBCHEM_CACTVS_ROTATABLE_BOND>
5

> <PUBCHEM_CACTVS_SUBSKEYS>
AAADceB6OAAAAAAAAAAAAAAAAAAAAAAAAAAwQAAAAAAAAACBAAAAHgAACAAADRyhmAYyxoMABgCIAiVSUACCCAAhIAAIiAEPTMgONjLEsZuFcChmxhHY6Qf6yDAOAAABAAACEAAAAAIAAAQgAAAAAAAAAA==

> <PUBCHEM_IUPAC_OPENEYE_NAME>
3-[(2R)-2-hydroxy-3-methyl-butyl]-4,8-dimethoxy-1-methyl-quinolin-2-one

> <PUBCHEM_IUPAC_CAS_NAME>
3-[(2R)-2-hydroxy-3-methylbutyl]-4,8-dimethoxy-1-methyl-2-quinolinone

> <PUBCHEM_IUPAC_NAME>
3-[(2R)-2-hydroxy-3-methylbutyl]-4,8-dimethoxy-1-methylquinolin-2-one

> <PUBCHEM_IUPAC_SYSTEMATIC_NAME>
4,8-dimethoxy-1-methyl-3-[(2R)-3-methyl-2-oxidanyl-butyl]quinolin-2-one

> <PUBCHEM_IUPAC_TRADITIONAL_NAME>
3-[(2R)-2-hydroxy-3-methyl-butyl]-4,8-dimethoxy-1-methyl-carbostyril

> <PUBCHEM_IUPAC_INCHI>
InChI=1S/C17H23NO4/c1-10(2)13(19)9-12-16(22-5)11-7-6-8-14(21-4)15(11)18(3)17(12)20/h6-8,10,13,19H,9H2,1-5H3/t13-/m1/s1

> <PUBCHEM_IUPAC_INCHIKEY>
VRMGQDHQTYUISY-CYBMUJFWSA-N

> <PUBCHEM_XLOGP3_AA>
2.2

> <PUBCHEM_EXACT_MASS>
305.162708

> <PUBCHEM_MOLECULAR_FORMULA>
C17H23NO4

> <PUBCHEM_MOLECULAR_WEIGHT>
305.36882

> <PUBCHEM_OPENEYE_CAN_SMILES>
CC(C)C(CC1=C(C2=C(C(=CC=C2)OC)N(C1=O)C)OC)O

> <PUBCHEM_OPENEYE_ISO_SMILES>
CC(C)[C@@H](CC1=C(C2=C(C(=CC=C2)OC)N(C1=O)C)OC)O

> <PUBCHEM_CACTVS_TPSA>
59

> <PUBCHEM_MONOISOTOPIC_WEIGHT>
305.162708

> <PUBCHEM_TOTAL_CHARGE>
0

> <PUBCHEM_HEAVY_ATOM_COUNT>
22

> <PUBCHEM_ATOM_DEF_STEREO_COUNT>
1

> <PUBCHEM_ATOM_UDEF_STEREO_COUNT>
0

> <PUBCHEM_BOND_DEF_STEREO_COUNT>
0

> <PUBCHEM_BOND_UDEF_STEREO_COUNT>
0

> <PUBCHEM_ISOTOPIC_ATOM_COUNT>
0

> <PUBCHEM_COMPONENT_COUNT>
1

> <PUBCHEM_CACTVS_TAUTO_COUNT>
1

> <PUBCHEM_COORDINATE_TYPE>
1
5
255

> <PUBCHEM_BONDANNOTATIONS>
6  1  5
10  11  8
11  12  8
11  17  8
12  16  8
16  19  8
17  20  8
19  20  8
5  12  8
5  13  8
9  10  8
9  13  8

$$$$

