5387248
  -OEChem-07051213152D

 66 67  0     1  0  0  0  0  0999 V2000
    3.4945    1.0674    0.0000 O   0  0  0  0  0  0  0  0  0  0  0  0
    5.2158    1.5286    0.0000 O   0  0  0  0  0  0  0  0  0  0  0  0
    2.0000    0.0968    0.0000 O   0  0  0  0  0  0  0  0  0  0  0  0
   14.9695   -0.1351    0.0000 C   0  0  0  0  0  0  0  0  0  0  0  0
   15.8355   -0.6351    0.0000 C   0  0  0  0  0  0  0  0  0  0  0  0
   14.1035   -0.6351    0.0000 C   0  0  0  0  0  0  0  0  0  0  0  0
   15.8355   -1.6350    0.0000 C   0  0  0  0  0  0  0  0  0  0  0  0
   14.9695   -2.1350    0.0000 C   0  0  0  0  0  0  0  0  0  0  0  0
   14.1035   -1.6350    0.0000 C   0  0  0  0  0  0  0  0  0  0  0  0
   13.2375   -0.1351    0.0000 C   0  0  0  0  0  0  0  0  0  0  0  0
   15.4695    0.7310    0.0000 C   0  0  0  0  0  0  0  0  0  0  0  0
   14.4695    0.7310    0.0000 C   0  0  0  0  0  0  0  0  0  0  0  0
   12.3714   -0.6351    0.0000 C   0  0  0  0  0  0  0  0  0  0  0  0
   13.2375   -2.1350    0.0000 C   0  0  0  0  0  0  0  0  0  0  0  0
   11.5054   -0.1351    0.0000 C   0  0  0  0  0  0  0  0  0  0  0  0
   10.6394   -0.6351    0.0000 C   0  0  0  0  0  0  0  0  0  0  0  0
   11.5054    0.8649    0.0000 C   0  0  0  0  0  0  0  0  0  0  0  0
    9.7734   -0.1351    0.0000 C   0  0  0  0  0  0  0  0  0  0  0  0
    8.9073   -0.6351    0.0000 C   0  0  0  0  0  0  0  0  0  0  0  0
    8.0413   -0.1351    0.0000 C   0  0  0  0  0  0  0  0  0  0  0  0
    6.3092   -0.1351    0.0000 C   0  0  0  0  0  0  0  0  0  0  0  0
    7.1753   -0.6351    0.0000 C   0  0  0  0  0  0  0  0  0  0  0  0
    5.4432   -0.6351    0.0000 C   0  0  0  0  0  0  0  0  0  0  0  0
    8.0413    0.8649    0.0000 C   0  0  0  0  0  0  0  0  0  0  0  0
    4.5772   -0.1351    0.0000 C   0  0  0  0  0  0  0  0  0  0  0  0
    4.4727    0.8595    0.0000 C   0  0  3  0  0  0  0  0  0  0  0  0
    3.6636   -0.5418    0.0000 C   0  0  0  0  0  0  0  0  0  0  0  0
    2.9945    0.2014    0.0000 C   0  0  0  0  0  0  0  0  0  0  0  0
   16.4461   -0.7427    0.0000 H   0  0  0  0  0  0  0  0  0  0  0  0
   16.0476   -0.0524    0.0000 H   0  0  0  0  0  0  0  0  0  0  0  0
   16.0476   -2.2177    0.0000 H   0  0  0  0  0  0  0  0  0  0  0  0
   16.4461   -1.5274    0.0000 H   0  0  0  0  0  0  0  0  0  0  0  0
   14.5710   -2.6100    0.0000 H   0  0  0  0  0  0  0  0  0  0  0  0
   15.3680   -2.6100    0.0000 H   0  0  0  0  0  0  0  0  0  0  0  0
   13.6360    0.3399    0.0000 H   0  0  0  0  0  0  0  0  0  0  0  0
   12.8389    0.3399    0.0000 H   0  0  0  0  0  0  0  0  0  0  0  0
   15.0064    1.0410    0.0000 H   0  0  0  0  0  0  0  0  0  0  0  0
   14.1595    1.2679    0.0000 H   0  0  0  0  0  0  0  0  0  0  0  0
   13.9326    0.4210    0.0000 H   0  0  0  0  0  0  0  0  0  0  0  0
   16.0064    0.4210    0.0000 H   0  0  0  0  0  0  0  0  0  0  0  0
   15.7795    1.2679    0.0000 H   0  0  0  0  0  0  0  0  0  0  0  0
   14.9326    1.0410    0.0000 H   0  0  0  0  0  0  0  0  0  0  0  0
   11.9729   -1.1100    0.0000 H   0  0  0  0  0  0  0  0  0  0  0  0
   12.7700   -1.1100    0.0000 H   0  0  0  0  0  0  0  0  0  0  0  0
   12.9275   -1.5981    0.0000 H   0  0  0  0  0  0  0  0  0  0  0  0
   12.7005   -2.4450    0.0000 H   0  0  0  0  0  0  0  0  0  0  0  0
   13.5475   -2.6720    0.0000 H   0  0  0  0  0  0  0  0  0  0  0  0
   10.6394   -1.2550    0.0000 H   0  0  0  0  0  0  0  0  0  0  0  0
   12.1254    0.8649    0.0000 H   0  0  0  0  0  0  0  0  0  0  0  0
   11.5054    1.4850    0.0000 H   0  0  0  0  0  0  0  0  0  0  0  0
   10.8854    0.8649    0.0000 H   0  0  0  0  0  0  0  0  0  0  0  0
   10.1719    0.3399    0.0000 H   0  0  0  0  0  0  0  0  0  0  0  0
    9.3748    0.3399    0.0000 H   0  0  0  0  0  0  0  0  0  0  0  0
    8.5088   -1.1100    0.0000 H   0  0  0  0  0  0  0  0  0  0  0  0
    9.3058   -1.1100    0.0000 H   0  0  0  0  0  0  0  0  0  0  0  0
    6.7078    0.3399    0.0000 H   0  0  0  0  0  0  0  0  0  0  0  0
    5.9107    0.3399    0.0000 H   0  0  0  0  0  0  0  0  0  0  0  0
    7.1753   -1.2550    0.0000 H   0  0  0  0  0  0  0  0  0  0  0  0
    5.0447   -1.1100    0.0000 H   0  0  0  0  0  0  0  0  0  0  0  0
    5.8418   -1.1100    0.0000 H   0  0  0  0  0  0  0  0  0  0  0  0
    8.6613    0.8649    0.0000 H   0  0  0  0  0  0  0  0  0  0  0  0
    8.0413    1.4850    0.0000 H   0  0  0  0  0  0  0  0  0  0  0  0
    7.4213    0.8649    0.0000 H   0  0  0  0  0  0  0  0  0  0  0  0
    5.2662    0.5549    0.0000 H   0  0  0  0  0  0  0  0  0  0  0  0
    3.5348   -1.1482    0.0000 H   0  0  0  0  0  0  0  0  0  0  0  0
    5.0869    2.1350    0.0000 H   0  0  0  0  0  0  0  0  0  0  0  0
  1 26  1  0  0  0  0
  1 28  1  0  0  0  0
  2 26  1  0  0  0  0
  2 66  1  0  0  0  0
  3 28  2  0  0  0  0
  4  5  1  0  0  0  0
  4  6  1  0  0  0  0
  4 11  1  0  0  0  0
  4 12  1  0  0  0  0
  5  7  1  0  0  0  0
  5 29  1  0  0  0  0
  5 30  1  0  0  0  0
  6  9  2  0  0  0  0
  6 10  1  0  0  0  0
  7  8  1  0  0  0  0
  7 31  1  0  0  0  0
  7 32  1  0  0  0  0
  8  9  1  0  0  0  0
  8 33  1  0  0  0  0
  8 34  1  0  0  0  0
  9 14  1  0  0  0  0
 10 13  1  0  0  0  0
 10 35  1  0  0  0  0
 10 36  1  0  0  0  0
 11 40  1  0  0  0  0
 11 41  1  0  0  0  0
 11 42  1  0  0  0  0
 12 37  1  0  0  0  0
 12 38  1  0  0  0  0
 12 39  1  0  0  0  0
 13 15  1  0  0  0  0
 13 43  1  0  0  0  0
 13 44  1  0  0  0  0
 14 45  1  0  0  0  0
 14 46  1  0  0  0  0
 14 47  1  0  0  0  0
 15 16  2  0  0  0  0
 15 17  1  0  0  0  0
 16 18  1  0  0  0  0
 16 48  1  0  0  0  0
 17 49  1  0  0  0  0
 17 50  1  0  0  0  0
 17 51  1  0  0  0  0
 18 19  1  0  0  0  0
 18 52  1  0  0  0  0
 18 53  1  0  0  0  0
 19 20  1  0  0  0  0
 19 54  1  0  0  0  0
 19 55  1  0  0  0  0
 20 22  2  0  0  0  0
 20 24  1  0  0  0  0
 21 22  1  0  0  0  0
 21 23  1  0  0  0  0
 21 56  1  0  0  0  0
 21 57  1  0  0  0  0
 22 58  1  0  0  0  0
 23 25  1  0  0  0  0
 23 59  1  0  0  0  0
 23 60  1  0  0  0  0
 24 61  1  0  0  0  0
 24 62  1  0  0  0  0
 24 63  1  0  0  0  0
 25 26  1  0  0  0  0
 25 27  2  0  0  0  0
 26 64  1  0  0  0  0
 27 28  1  0  0  0  0
 27 65  1  0  0  0  0
M  END
> <PUBCHEM_COMPOUND_CID>
5387248

> <PUBCHEM_COMPOUND_CANONICALIZED>
1

> <PUBCHEM_CACTVS_COMPLEXITY>
689

> <PUBCHEM_CACTVS_HBOND_ACCEPTOR>
3

> <PUBCHEM_CACTVS_HBOND_DONOR>
1

> <PUBCHEM_CACTVS_ROTATABLE_BOND>
9

> <PUBCHEM_CACTVS_SUBSKEYS>
AAADcfB4MAAAAAAAAAAAAAAAAAAAAQAAAAAgAAAAAAAAAAAAAAAAGgAACAAADgCwgAMCCAAABgCIAiDSCAAAAAAgAAAACAAAAEgQFAIAIQACUAAEgAAMMQOAgMAPAAAAAAAAAAAAAAAAAAAAAAAAAAAAAA==

> <PUBCHEM_IUPAC_OPENEYE_NAME>
3-[(3E,7E)-4,8-dimethyl-10-(2,6,6-trimethylcyclohexen-1-yl)deca-3,7-dienyl]-2-hydroxy-2H-furan-5-one

> <PUBCHEM_IUPAC_CAS_NAME>
3-[(3E,7E)-4,8-dimethyl-10-(2,6,6-trimethyl-1-cyclohexenyl)deca-3,7-dienyl]-2-hydroxy-2H-furan-5-one

> <PUBCHEM_IUPAC_NAME>
3-[(3E,7E)-4,8-dimethyl-10-(2,6,6-trimethylcyclohexen-1-yl)deca-3,7-dienyl]-2-hydroxy-2H-furan-5-one

> <PUBCHEM_IUPAC_SYSTEMATIC_NAME>
3-[(3E,7E)-4,8-dimethyl-10-(2,6,6-trimethylcyclohexen-1-yl)deca-3,7-dienyl]-2-oxidanyl-2H-furan-5-one

> <PUBCHEM_IUPAC_TRADITIONAL_NAME>
3-[(3E,7E)-4,8-dimethyl-10-(2,6,6-trimethylcyclohexen-1-yl)deca-3,7-dienyl]-2-hydroxy-2H-furan-5-one

> <PUBCHEM_IUPAC_INCHI>
InChI=1S/C25H38O3/c1-18(11-7-13-21-17-23(26)28-24(21)27)9-6-10-19(2)14-15-22-20(3)12-8-16-25(22,4)5/h10-11,17,24,27H,6-9,12-16H2,1-5H3/b18-11+,19-10+

> <PUBCHEM_IUPAC_INCHIKEY>
JPWPYTMXSXYUPG-QZPYEDBESA-N

> <PUBCHEM_XLOGP3_AA>
6

> <PUBCHEM_EXACT_MASS>
386.282095

> <PUBCHEM_MOLECULAR_FORMULA>
C25H38O3

> <PUBCHEM_MOLECULAR_WEIGHT>
386.56742

> <PUBCHEM_OPENEYE_CAN_SMILES>
CC1=C(C(CCC1)(C)C)CCC(=CCCC(=CCCC2=CC(=O)OC2O)C)C

> <PUBCHEM_OPENEYE_ISO_SMILES>
CC1=C(C(CCC1)(C)C)CC/C(=C/CC/C(=C/CCC2=CC(=O)OC2O)/C)/C

> <PUBCHEM_CACTVS_TPSA>
46.5

> <PUBCHEM_MONOISOTOPIC_WEIGHT>
386.282095

> <PUBCHEM_TOTAL_CHARGE>
0

> <PUBCHEM_HEAVY_ATOM_COUNT>
28

> <PUBCHEM_ATOM_DEF_STEREO_COUNT>
0

> <PUBCHEM_ATOM_UDEF_STEREO_COUNT>
1

> <PUBCHEM_BOND_DEF_STEREO_COUNT>
2

> <PUBCHEM_BOND_UDEF_STEREO_COUNT>
0

> <PUBCHEM_ISOTOPIC_ATOM_COUNT>
0

> <PUBCHEM_COMPONENT_COUNT>
1

> <PUBCHEM_CACTVS_TAUTO_COUNT>
1

> <PUBCHEM_COORDINATE_TYPE>
1
5
255

> <PUBCHEM_BONDANNOTATIONS>
26  64  3

$$$$

