441138
  -OEChem-07051212522D

 20 20  0     0  0  0  0  0  0999 V2000
    3.0000    1.9050    0.0000 S   0  0  0  0  0  0  0  0  0  0  0  0
    3.0000    2.9050    0.0000 O   0  0  0  0  0  0  0  0  0  0  0  0
    2.1340   -2.5950    0.0000 O   0  0  0  0  0  0  0  0  0  0  0  0
    4.0000    1.9050    0.0000 O   0  0  0  0  0  0  0  0  0  0  0  0
    2.0000    1.9050    0.0000 O   0  0  0  0  0  0  0  0  0  0  0  0
    3.0000    0.9050    0.0000 C   0  0  0  0  0  0  0  0  0  0  0  0
    3.0000   -1.0950    0.0000 C   0  0  0  0  0  0  0  0  0  0  0  0
    2.1340    0.4050    0.0000 C   0  0  0  0  0  0  0  0  0  0  0  0
    3.8660    0.4050    0.0000 C   0  0  0  0  0  0  0  0  0  0  0  0
    2.1340   -0.5950    0.0000 C   0  0  0  0  0  0  0  0  0  0  0  0
    3.8660   -0.5950    0.0000 C   0  0  0  0  0  0  0  0  0  0  0  0
    3.0000   -2.0950    0.0000 C   0  0  0  0  0  0  0  0  0  0  0  0
    1.5970    0.7150    0.0000 H   0  0  0  0  0  0  0  0  0  0  0  0
    4.4030    0.7150    0.0000 H   0  0  0  0  0  0  0  0  0  0  0  0
    1.5970   -0.9050    0.0000 H   0  0  0  0  0  0  0  0  0  0  0  0
    4.4030   -0.9050    0.0000 H   0  0  0  0  0  0  0  0  0  0  0  0
    3.2120   -2.6776    0.0000 H   0  0  0  0  0  0  0  0  0  0  0  0
    3.6106   -1.9873    0.0000 H   0  0  0  0  0  0  0  0  0  0  0  0
    3.5369    3.2150    0.0000 H   0  0  0  0  0  0  0  0  0  0  0  0
    2.1340   -3.2150    0.0000 H   0  0  0  0  0  0  0  0  0  0  0  0
  1  2  1  0  0  0  0
  1  4  2  0  0  0  0
  1  5  2  0  0  0  0
  1  6  1  0  0  0  0
  2 19  1  0  0  0  0
  3 12  1  0  0  0  0
  3 20  1  0  0  0  0
  6  8  2  0  0  0  0
  6  9  1  0  0  0  0
  7 10  2  0  0  0  0
  7 11  1  0  0  0  0
  7 12  1  0  0  0  0
  8 10  1  0  0  0  0
  8 13  1  0  0  0  0
  9 11  2  0  0  0  0
  9 14  1  0  0  0  0
 10 15  1  0  0  0  0
 11 16  1  0  0  0  0
 12 17  1  0  0  0  0
 12 18  1  0  0  0  0
M  END
> <PUBCHEM_COMPOUND_CID>
441138

> <PUBCHEM_COMPOUND_CANONICALIZED>
1

> <PUBCHEM_CACTVS_COMPLEXITY>
220

> <PUBCHEM_CACTVS_HBOND_ACCEPTOR>
4

> <PUBCHEM_CACTVS_HBOND_DONOR>
2

> <PUBCHEM_CACTVS_ROTATABLE_BOND>
2

> <PUBCHEM_CACTVS_SUBSKEYS>
AAADccBgOABAAAAAAAAAAAAAAAAAAAAAAAAwAAAAAAAAAAABAAAAGgQACAAADACg2AIwAYAAAoKAAiBCAHBCAEAgAAAIiBgACIgINiKAERCAcAAkwAEImAeAwCAOEAAAAAAAAAAgAAAAAAAAAAAAAAAAAA==

> <PUBCHEM_IUPAC_OPENEYE_NAME>
4-(hydroxymethyl)benzenesulfonic acid

> <PUBCHEM_IUPAC_CAS_NAME>
4-(hydroxymethyl)benzenesulfonic acid

> <PUBCHEM_IUPAC_NAME>
4-(hydroxymethyl)benzenesulfonic acid

> <PUBCHEM_IUPAC_SYSTEMATIC_NAME>
4-(hydroxymethyl)benzenesulfonic acid

> <PUBCHEM_IUPAC_TRADITIONAL_NAME>
4-methylolbesylic acid

> <PUBCHEM_IUPAC_INCHI>
InChI=1S/C7H8O4S/c8-5-6-1-3-7(4-2-6)12(9,10)11/h1-4,8H,5H2,(H,9,10,11)

> <PUBCHEM_IUPAC_INCHIKEY>
VVQVMHASNBSOOC-UHFFFAOYSA-N

> <PUBCHEM_XLOGP3_AA>
-0.2

> <PUBCHEM_EXACT_MASS>
188.01433

> <PUBCHEM_MOLECULAR_FORMULA>
C7H8O4S

> <PUBCHEM_MOLECULAR_WEIGHT>
188.20102

> <PUBCHEM_OPENEYE_CAN_SMILES>
C1=CC(=CC=C1CO)S(=O)(=O)O

> <PUBCHEM_OPENEYE_ISO_SMILES>
C1=CC(=CC=C1CO)S(=O)(=O)O

> <PUBCHEM_CACTVS_TPSA>
83

> <PUBCHEM_MONOISOTOPIC_WEIGHT>
188.01433

> <PUBCHEM_TOTAL_CHARGE>
0

> <PUBCHEM_HEAVY_ATOM_COUNT>
12

> <PUBCHEM_ATOM_DEF_STEREO_COUNT>
0

> <PUBCHEM_ATOM_UDEF_STEREO_COUNT>
0

> <PUBCHEM_BOND_DEF_STEREO_COUNT>
0

> <PUBCHEM_BOND_UDEF_STEREO_COUNT>
0

> <PUBCHEM_ISOTOPIC_ATOM_COUNT>
0

> <PUBCHEM_COMPONENT_COUNT>
1

> <PUBCHEM_CACTVS_TAUTO_COUNT>
1

> <PUBCHEM_COORDINATE_TYPE>
1
5
255

> <PUBCHEM_BONDANNOTATIONS>
6  8  8
6  9  8
7  10  8
7  11  8
8  10  8
9  11  8

$$$$

