11238
  -OEChem-06261205252D

  4  3  0     0  0  0  0  0  0999 V2000
    3.7320    0.5600    0.0000 Cl  0  0  0  0  0  0  0  0  0  0  0  0
    2.0000    0.5600    0.0000 Cl  0  0  0  0  0  0  0  0  0  0  0  0
    2.8660    0.0600    0.0000 Al  0  0  0  0  0  0  0  0  0  0  0  0
    2.8660   -0.5600    0.0000 H   0  0  0  0  0  0  0  0  0  0  0  0
  1  3  1  0  0  0  0
  2  3  1  0  0  0  0
  3  4  1  0  0  0  0
M  END
> <PUBCHEM_COMPOUND_CID>
11238

> <PUBCHEM_COMPOUND_CANONICALIZED>
1

> <PUBCHEM_CACTVS_COMPLEXITY>
2.8

> <PUBCHEM_CACTVS_HBOND_ACCEPTOR>
0

> <PUBCHEM_CACTVS_HBOND_DONOR>
0

> <PUBCHEM_CACTVS_ROTATABLE_BOND>
0

> <PUBCHEM_CACTVS_SUBSKEYS>
AAADcQAAAAAGABAAAAAAAAAAAAAAAAAAAAAAAAAAAAAAAAAAAAAAAAAAAAMAAAAAAAAAAAAAAAAAAAAAAAAAAAAAAAAAAAAAAAAAAAAAAAAAAAAAAAAAAAAAAAAAAAAAAAAAAAAAAAAAAAAAAAAAAAAAAA==

> <PUBCHEM_IUPAC_OPENEYE_NAME>
dichloroalumane

> <PUBCHEM_IUPAC_CAS_NAME>
dichloroalumane

> <PUBCHEM_IUPAC_NAME>
dichloroalumane

> <PUBCHEM_IUPAC_SYSTEMATIC_NAME>
bis(chloranyl)alumane

> <PUBCHEM_IUPAC_TRADITIONAL_NAME>
dichloroalumane

> <PUBCHEM_IUPAC_INCHI>
InChI=1S/Al.2ClH.H/h;2*1H;/q+2;;;/p-2

> <PUBCHEM_IUPAC_INCHIKEY>
WADSLQQIOJIXTB-UHFFFAOYSA-L

> <PUBCHEM_EXACT_MASS>
97.927069

> <PUBCHEM_MOLECULAR_FORMULA>
AlCl2H

> <PUBCHEM_MOLECULAR_WEIGHT>
98.895479

> <PUBCHEM_OPENEYE_CAN_SMILES>
[AlH](Cl)Cl

> <PUBCHEM_OPENEYE_ISO_SMILES>
[AlH](Cl)Cl

> <PUBCHEM_CACTVS_TPSA>
0

> <PUBCHEM_MONOISOTOPIC_WEIGHT>
97.927069

> <PUBCHEM_TOTAL_CHARGE>
0

> <PUBCHEM_HEAVY_ATOM_COUNT>
3

> <PUBCHEM_ATOM_DEF_STEREO_COUNT>
0

> <PUBCHEM_ATOM_UDEF_STEREO_COUNT>
0

> <PUBCHEM_BOND_DEF_STEREO_COUNT>
0

> <PUBCHEM_BOND_UDEF_STEREO_COUNT>
0

> <PUBCHEM_ISOTOPIC_ATOM_COUNT>
0

> <PUBCHEM_COMPONENT_COUNT>
1

> <PUBCHEM_CACTVS_TAUTO_COUNT>
1

> <PUBCHEM_COORDINATE_TYPE>
1
5
255

$$$$

