7374
  -OEChem-06261202023D

 15 15  0     0  0  0  0  0  0999 V2000
   -3.1552    1.7007   -0.0017 Cl  0  0  0  0  0  0  0  0  0  0  0  0
    2.6824   -0.8384   -0.0019 F   0  0  0  0  0  0  0  0  0  0  0  0
    2.2002    0.9784   -1.0838 F   0  0  0  0  0  0  0  0  0  0  0  0
    2.1809    0.9737    1.0906 F   0  0  0  0  0  0  0  0  0  0  0  0
    0.3913   -0.1499    0.0005 C   0  0  0  0  0  0  0  0  0  0  0  0
   -0.5927    0.8388   -0.0004 C   0  0  0  0  0  0  0  0  0  0  0  0
    0.0271   -1.4964    0.0005 C   0  0  0  0  0  0  0  0  0  0  0  0
    1.8332    0.2315   -0.0007 C   0  0  0  0  0  0  0  0  0  0  0  0
   -1.9408    0.4811   -0.0014 C   0  0  0  0  0  0  0  0  0  0  0  0
   -1.3212   -1.8541   -0.0004 C   0  0  0  0  0  0  0  0  0  0  0  0
   -2.3051   -0.8654   -0.0013 C   0  0  0  0  0  0  0  0  0  0  0  0
   -0.3036    1.8874   -0.0007 H   0  0  0  0  0  0  0  0  0  0  0  0
    0.7787   -2.2810    0.0008 H   0  0  0  0  0  0  0  0  0  0  0  0
   -1.6049   -2.9025   -0.0004 H   0  0  0  0  0  0  0  0  0  0  0  0
   -3.3517   -1.1590   -0.0020 H   0  0  0  0  0  0  0  0  0  0  0  0
  1  9  1  0  0  0  0
  2  8  1  0  0  0  0
  3  8  1  0  0  0  0
  4  8  1  0  0  0  0
  5  6  2  0  0  0  0
  5  7  1  0  0  0  0
  5  8  1  0  0  0  0
  6  9  1  0  0  0  0
  6 12  1  0  0  0  0
  7 10  2  0  0  0  0
  7 13  1  0  0  0  0
  9 11  2  0  0  0  0
 10 11  1  0  0  0  0
 10 14  1  0  0  0  0
 11 15  1  0  0  0  0
M  END
> <PUBCHEM_COMPOUND_CID>
7374

> <PUBCHEM_CONFORMER_RMSD>
0.4

> <PUBCHEM_CONFORMER_DIVERSEORDER>
1

> <PUBCHEM_MMFF94_PARTIAL_CHARGES>
15
1 -0.18
10 -0.15
11 -0.15
12 0.15
13 0.15
14 0.15
15 0.15
2 -0.34
3 -0.34
4 -0.34
5 -0.14
6 -0.15
7 -0.15
8 1.16
9 0.18

> <PUBCHEM_EFFECTIVE_ROTOR_COUNT>
1

> <PUBCHEM_PHARMACOPHORE_FEATURES>
1
6 5 6 7 9 10 11 rings

> <PUBCHEM_HEAVY_ATOM_COUNT>
11

> <PUBCHEM_ATOM_DEF_STEREO_COUNT>
0

> <PUBCHEM_ATOM_UDEF_STEREO_COUNT>
0

> <PUBCHEM_BOND_DEF_STEREO_COUNT>
0

> <PUBCHEM_BOND_UDEF_STEREO_COUNT>
0

> <PUBCHEM_ISOTOPIC_ATOM_COUNT>
0

> <PUBCHEM_COMPONENT_COUNT>
1

> <PUBCHEM_CACTVS_TAUTO_COUNT>
1

> <PUBCHEM_CONFORMER_ID>
00001CCE00000001

> <PUBCHEM_MMFF94_ENERGY>
16.955

> <PUBCHEM_FEATURE_SELFOVERLAP>
5.074

> <PUBCHEM_SHAPE_FINGERPRINT>
1 1 18193280921280591351
12716758 59 18407761430281574451
12932764 1 17968090867913050926
13380535 76 18338801246799461383
14325111 11 18410855477487489477
15775835 57 18412541045818750481
16945 1 18194402195396866663
193761 8 14447688436645536005
19973954 147 18337110051317328689
20645464 45 17895480219689680770
20653085 51 18270949219859417705
20871998 184 18116989997107003743
21028194 46 18336263530791108001
21040471 1 18410575097711550083
21524375 3 18266180711434736117
23235685 24 18339928233063920133
23552423 10 18273215270464632090
23559900 14 18187922924621287494
2748010 2 18410287051683036927
3248919 1 17988368065647417714
369184 2 18041000592136842411
5084963 1 18342458148915505986
81228 2 18195252118201681323

> <PUBCHEM_SHAPE_MULTIPOLES>
206.42
4.15
1.81
0.74
0.04
0.43
0
-1.69
0.01
-0.86
0
0.28
-0.16
0

> <PUBCHEM_SHAPE_SELFOVERLAP>
425.198

> <PUBCHEM_SHAPE_VOLUME>
120.8

> <PUBCHEM_COORDINATE_TYPE>
2
5
10

$$$$

