443487
  -OEChem-07051213023D

 54 56  0     1  0  0  0  0  0999 V2000
    1.5534   -2.7729    1.1911 O   0  0  0  0  0  0  0  0  0  0  0  0
   -4.5887   -1.1016   -0.8293 O   0  0  0  0  0  0  0  0  0  0  0  0
   -1.2289    1.2409    0.5055 C   0  0  2  0  0  0  0  0  0  0  0  0
   -0.9135   -0.1672   -0.1852 C   0  0  2  0  0  0  0  0  0  0  0  0
    1.3760   -0.4413   -1.6172 C   0  0  2  0  0  0  0  0  0  0  0  0
    2.2706    0.6881   -1.0543 C   0  0  0  0  0  0  0  0  0  0  0  0
   -0.1668   -0.1582   -1.5590 C   0  0  0  0  0  0  0  0  0  0  0  0
   -0.1205    1.6972    1.5261 C   0  0  0  0  0  0  0  0  0  0  0  0
    1.9808    0.7151    0.4499 C   0  0  0  0  0  0  0  0  0  0  0  0
   -2.5261    1.0667    1.3705 C   0  0  0  0  0  0  0  0  0  0  0  0
    1.7501   -1.8079   -0.9932 C   0  0  0  0  0  0  0  0  0  0  0  0
    1.3294    1.9387    1.0485 C   0  0  0  0  0  0  0  0  0  0  0  0
   -2.1862   -1.0267   -0.3408 C   0  0  0  0  0  0  0  0  0  0  0  0
   -3.7665    0.6602    0.5660 C   0  0  0  0  0  0  0  0  0  0  0  0
    2.2733   -1.7701    0.4629 C   0  0  1  0  0  0  0  0  0  0  0  0
   -1.5071    2.4052   -0.4698 C   0  0  0  0  0  0  0  0  0  0  0  0
   -3.4565   -0.2635   -0.6120 C   0  0  2  0  0  0  0  0  0  0  0  0
    2.1335   -0.4292    1.1690 C   0  0  0  0  0  0  0  0  0  0  0  0
    3.7851    0.3899   -1.2850 C   0  0  0  0  0  0  0  0  0  0  0  0
    2.0626    1.9978   -1.8501 C   0  0  0  0  0  0  0  0  0  0  0  0
    2.0895   -0.5012    2.6751 C   0  0  0  0  0  0  0  0  0  0  0  0
   -2.1435   -2.3599   -0.1688 C   0  0  0  0  0  0  0  0  0  0  0  0
   -0.3195   -0.7295    0.5387 H   0  0  0  0  0  0  0  0  0  0  0  0
    1.5982   -0.5301   -2.6918 H   0  0  0  0  0  0  0  0  0  0  0  0
   -0.6092   -0.9376   -2.1981 H   0  0  0  0  0  0  0  0  0  0  0  0
   -0.3877    0.7621   -2.1057 H   0  0  0  0  0  0  0  0  0  0  0  0
   -0.1058    0.9795    2.3549 H   0  0  0  0  0  0  0  0  0  0  0  0
   -0.4521    2.6399    1.9859 H   0  0  0  0  0  0  0  0  0  0  0  0
   -2.7540    1.9870    1.9244 H   0  0  0  0  0  0  0  0  0  0  0  0
   -2.3440    0.2993    2.1364 H   0  0  0  0  0  0  0  0  0  0  0  0
    2.5527   -2.2424   -1.6063 H   0  0  0  0  0  0  0  0  0  0  0  0
    0.9172   -2.5134   -1.0991 H   0  0  0  0  0  0  0  0  0  0  0  0
    1.9320    2.2832    1.8986 H   0  0  0  0  0  0  0  0  0  0  0  0
    1.3340    2.7903    0.3660 H   0  0  0  0  0  0  0  0  0  0  0  0
   -4.4949    0.1987    1.2457 H   0  0  0  0  0  0  0  0  0  0  0  0
   -4.2665    1.5583    0.1807 H   0  0  0  0  0  0  0  0  0  0  0  0
    3.3250   -2.0794    0.4823 H   0  0  0  0  0  0  0  0  0  0  0  0
   -0.5978    2.8222   -0.8928 H   0  0  0  0  0  0  0  0  0  0  0  0
   -2.1539    2.1193   -1.3020 H   0  0  0  0  0  0  0  0  0  0  0  0
   -1.9991    3.2379    0.0478 H   0  0  0  0  0  0  0  0  0  0  0  0
   -3.3323    0.3208   -1.5296 H   0  0  0  0  0  0  0  0  0  0  0  0
    4.4026    1.2183   -0.9152 H   0  0  0  0  0  0  0  0  0  0  0  0
    4.1543   -0.5103   -0.7911 H   0  0  0  0  0  0  0  0  0  0  0  0
    3.9990    0.2691   -2.3540 H   0  0  0  0  0  0  0  0  0  0  0  0
    1.0363    2.3476   -1.8577 H   0  0  0  0  0  0  0  0  0  0  0  0
    2.6862    2.8095   -1.4566 H   0  0  0  0  0  0  0  0  0  0  0  0
    2.3410    1.8607   -2.9027 H   0  0  0  0  0  0  0  0  0  0  0  0
    2.9365   -1.0902    3.0441 H   0  0  0  0  0  0  0  0  0  0  0  0
    1.1629   -0.9720    3.0180 H   0  0  0  0  0  0  0  0  0  0  0  0
    2.1684    0.4789    3.1525 H   0  0  0  0  0  0  0  0  0  0  0  0
   -3.0297   -2.9800   -0.2409 H   0  0  0  0  0  0  0  0  0  0  0  0
   -1.2123   -2.8682    0.0561 H   0  0  0  0  0  0  0  0  0  0  0  0
    2.0967   -3.0334    1.9544 H   0  0  0  0  0  0  0  0  0  0  0  0
   -4.4319   -1.6007   -1.6493 H   0  0  0  0  0  0  0  0  0  0  0  0
  1 15  1  0  0  0  0
  1 53  1  0  0  0  0
  2 17  1  0  0  0  0
  2 54  1  0  0  0  0
  3  4  1  0  0  0  0
  3  8  1  0  0  0  0
  3 10  1  0  0  0  0
  3 16  1  0  0  0  0
  4  7  1  0  0  0  0
  4 13  1  0  0  0  0
  4 23  1  0  0  0  0
  5  6  1  0  0  0  0
  5  7  1  0  0  0  0
  5 11  1  0  0  0  0
  5 24  1  0  0  0  0
  6  9  1  0  0  0  0
  6 19  1  0  0  0  0
  6 20  1  0  0  0  0
  7 25  1  0  0  0  0
  7 26  1  0  0  0  0
  8 12  1  0  0  0  0
  8 27  1  0  0  0  0
  8 28  1  0  0  0  0
  9 12  1  0  0  0  0
  9 18  2  0  0  0  0
 10 14  1  0  0  0  0
 10 29  1  0  0  0  0
 10 30  1  0  0  0  0
 11 15  1  0  0  0  0
 11 31  1  0  0  0  0
 11 32  1  0  0  0  0
 12 33  1  0  0  0  0
 12 34  1  0  0  0  0
 13 17  1  0  0  0  0
 13 22  2  0  0  0  0
 14 17  1  0  0  0  0
 14 35  1  0  0  0  0
 14 36  1  0  0  0  0
 15 18  1  0  0  0  0
 15 37  1  0  0  0  0
 16 38  1  0  0  0  0
 16 39  1  0  0  0  0
 16 40  1  0  0  0  0
 17 41  1  0  0  0  0
 18 21  1  0  0  0  0
 19 42  1  0  0  0  0
 19 43  1  0  0  0  0
 19 44  1  0  0  0  0
 20 45  1  0  0  0  0
 20 46  1  0  0  0  0
 20 47  1  0  0  0  0
 21 48  1  0  0  0  0
 21 49  1  0  0  0  0
 21 50  1  0  0  0  0
 22 51  1  0  0  0  0
 22 52  1  0  0  0  0
M  END
> <PUBCHEM_COMPOUND_CID>
443487

> <PUBCHEM_CONFORMER_RMSD>
0.6

> <PUBCHEM_CONFORMER_DIVERSEORDER>
2
1

> <PUBCHEM_MMFF94_PARTIAL_CHARGES>
16
1 -0.68
12 0.14
13 -0.28
15 0.42
17 0.42
18 -0.28
2 -0.68
21 0.14
22 -0.3
4 0.14
51 0.15
52 0.15
53 0.4
54 0.4
6 0.14
9 -0.28

> <PUBCHEM_EFFECTIVE_ROTOR_COUNT>
1.8

> <PUBCHEM_PHARMACOPHORE_FEATURES>
7
1 1 acceptor
1 1 donor
1 2 acceptor
1 2 donor
3 6 19 20 hydrophobe
6 3 4 10 13 14 17 rings
6 5 6 9 11 15 18 rings

> <PUBCHEM_HEAVY_ATOM_COUNT>
22

> <PUBCHEM_ATOM_DEF_STEREO_COUNT>
5

> <PUBCHEM_ATOM_UDEF_STEREO_COUNT>
0

> <PUBCHEM_BOND_DEF_STEREO_COUNT>
0

> <PUBCHEM_BOND_UDEF_STEREO_COUNT>
0

> <PUBCHEM_ISOTOPIC_ATOM_COUNT>
0

> <PUBCHEM_COMPONENT_COUNT>
1

> <PUBCHEM_CACTVS_TAUTO_COUNT>
1

> <PUBCHEM_CONFORMER_ID>
0006C45F00000002

> <PUBCHEM_MMFF94_ENERGY>
104.6284

> <PUBCHEM_FEATURE_SELFOVERLAP>
35.52

> <PUBCHEM_SHAPE_FINGERPRINT>
10863032 1 18261096449298097980
10948715 1 17129856115568582692
11067466 332 18336268942286442076
11578080 2 18127157305456694940
12011746 2 17749104500211014637
12553582 1 18335137588029798049
13027679 85 11563112959830956686
13140716 1 17827373080920765699
13224815 77 17603872187094213549
13538477 17 18408599275179247631
14223421 5 18260277355594421859
14787075 74 17472137271802230558
15881359 60 17460347457989649973
16752209 62 18261114101729715885
16945 1 18410020943687880552
1813 80 17844255249137795402
18981168 100 14779558845883947503
20559304 39 18334021587621470507
20691752 17 18409169900782591553
21197605 99 14446849513775700238
21731516 1 18339920531997589681
23419403 2 16317330435719462872
23493267 7 18261659411820014047
23526113 38 15503764424729177868
23559900 14 17967808405320547095
238 59 17774991346030040824
2748010 2 17386010567514885977
3286 77 14634860938162288039
3797600 57 18052818039969861710
394222 165 17487063258445884704
495365 180 15984836904220442591
5845 1 10561201431720435016
9981440 41 17329418451416707708

> <PUBCHEM_SHAPE_MULTIPOLES>
441.01
5.82
2.51
1.97
4.27
0.39
0.54
0.87
-0.92
-0.01
0.21
-1.52
-0.2
-1.01

> <PUBCHEM_SHAPE_SELFOVERLAP>
917.505

> <PUBCHEM_SHAPE_VOLUME>
248.3

> <PUBCHEM_COORDINATE_TYPE>
2
5
10

$$$$

