582863
  -OEChem-06241222443D

 73 72  0     1  0  0  0  0  0999 V2000
   -0.4222   -3.3130    0.1905 Si  0  0  0  0  0  0  0  0  0  0  0  0
   -1.6074    3.1188    0.6951 Si  0  0  0  0  0  0  0  0  0  0  0  0
    0.0086    0.4880   -3.0194 Si  0  0  0  0  0  0  0  0  0  0  0  0
    4.3932    0.3652    0.9458 Si  0  0  0  0  0  0  0  0  0  0  0  0
   -0.4730   -1.7942    0.8853 O   0  0  0  0  0  0  0  0  0  0  0  0
   -1.5165    1.5890    0.0311 O   0  0  0  0  0  0  0  0  0  0  0  0
    0.6188    0.7870   -1.4897 O   0  0  0  0  0  0  0  0  0  0  0  0
    3.0762   -0.0323   -0.0112 O   0  0  0  0  0  0  0  0  0  0  0  0
   -4.0634   -1.5597    0.5659 O   0  0  0  0  0  0  0  0  0  0  0  0
   -2.4353   -1.0068    2.5469 N   0  0  0  0  0  0  0  0  0  0  0  0
   -0.6166   -0.6427    0.0421 C   0  0  1  0  0  0  0  0  0  0  0  0
   -1.2727    0.4657    0.8914 C   0  0  2  0  0  0  0  0  0  0  0  0
    0.7527   -0.2932   -0.5646 C   0  0  2  0  0  0  0  0  0  0  0  0
   -2.5932    0.0689    1.5735 C   0  0  1  0  0  0  0  0  0  0  0  0
    1.7585    0.1403    0.5012 C   0  0  0  0  0  0  0  0  0  0  0  0
    1.2785   -3.6857   -0.5212 C   0  0  0  0  0  0  0  0  0  0  0  0
   -0.8569   -4.6534    1.4366 C   0  0  0  0  0  0  0  0  0  0  0  0
   -1.6730   -3.3986   -1.2162 C   0  0  0  0  0  0  0  0  0  0  0  0
   -0.2921    3.2974    2.0323 C   0  0  0  0  0  0  0  0  0  0  0  0
   -3.2860    3.4262    1.4867 C   0  0  0  0  0  0  0  0  0  0  0  0
   -1.3036    4.4490   -0.5997 C   0  0  0  0  0  0  0  0  0  0  0  0
   -1.8671    0.3497   -2.9924 C   0  0  0  0  0  0  0  0  0  0  0  0
    0.4914    1.8476   -4.2266 C   0  0  0  0  0  0  0  0  0  0  0  0
    0.7028   -1.1393   -3.6678 C   0  0  0  0  0  0  0  0  0  0  0  0
   -3.5846   -0.4292    0.5448 C   0  0  0  0  0  0  0  0  0  0  0  0
    5.9883    0.0303    0.0004 C   0  0  0  0  0  0  0  0  0  0  0  0
    4.4258   -0.6609    2.5221 C   0  0  0  0  0  0  0  0  0  0  0  0
    4.3688    2.1860    1.4173 C   0  0  0  0  0  0  0  0  0  0  0  0
   -1.3236   -0.8639   -0.7531 H   0  0  0  0  0  0  0  0  0  0  0  0
   -0.5620    0.7219    1.6864 H   0  0  0  0  0  0  0  0  0  0  0  0
    1.1990   -1.1443   -1.0784 H   0  0  0  0  0  0  0  0  0  0  0  0
   -3.0661    0.9036    2.0868 H   0  0  0  0  0  0  0  0  0  0  0  0
    1.6511   -0.4738    1.4030 H   0  0  0  0  0  0  0  0  0  0  0  0
    1.6090    1.1940    0.7577 H   0  0  0  0  0  0  0  0  0  0  0  0
    2.0637   -3.3046    0.1383 H   0  0  0  0  0  0  0  0  0  0  0  0
    1.4132   -4.7679   -0.6153 H   0  0  0  0  0  0  0  0  0  0  0  0
    1.4150   -3.2561   -1.5151 H   0  0  0  0  0  0  0  0  0  0  0  0
   -0.1424   -4.6525    2.2649 H   0  0  0  0  0  0  0  0  0  0  0  0
   -1.8577   -4.4859    1.8452 H   0  0  0  0  0  0  0  0  0  0  0  0
   -0.8375   -5.6403    0.9651 H   0  0  0  0  0  0  0  0  0  0  0  0
   -1.4297   -2.7210   -2.0328 H   0  0  0  0  0  0  0  0  0  0  0  0
   -1.6913   -4.4130   -1.6274 H   0  0  0  0  0  0  0  0  0  0  0  0
   -2.6789   -3.1693   -0.8593 H   0  0  0  0  0  0  0  0  0  0  0  0
    0.7040    3.0990    1.6295 H   0  0  0  0  0  0  0  0  0  0  0  0
   -0.2972    4.3202    2.4221 H   0  0  0  0  0  0  0  0  0  0  0  0
   -0.4771    2.6227    2.8728 H   0  0  0  0  0  0  0  0  0  0  0  0
   -4.0863    2.9938    0.8792 H   0  0  0  0  0  0  0  0  0  0  0  0
   -3.3396    3.0076    2.4951 H   0  0  0  0  0  0  0  0  0  0  0  0
   -3.4683    4.5023    1.5709 H   0  0  0  0  0  0  0  0  0  0  0  0
   -2.0588    4.3940   -1.3893 H   0  0  0  0  0  0  0  0  0  0  0  0
   -1.3465    5.4447   -0.1491 H   0  0  0  0  0  0  0  0  0  0  0  0
   -0.3184    4.3191   -1.0573 H   0  0  0  0  0  0  0  0  0  0  0  0
   -2.3159    1.1614   -2.4153 H   0  0  0  0  0  0  0  0  0  0  0  0
   -2.2473    0.4301   -4.0164 H   0  0  0  0  0  0  0  0  0  0  0  0
   -2.2221   -0.6044   -2.6016 H   0  0  0  0  0  0  0  0  0  0  0  0
    0.0908    2.8109   -3.8973 H   0  0  0  0  0  0  0  0  0  0  0  0
    1.5799    1.9321   -4.2932 H   0  0  0  0  0  0  0  0  0  0  0  0
    0.0999    1.6343   -5.2255 H   0  0  0  0  0  0  0  0  0  0  0  0
    0.3078   -1.9968   -3.1252 H   0  0  0  0  0  0  0  0  0  0  0  0
    0.4389   -1.2635   -4.7225 H   0  0  0  0  0  0  0  0  0  0  0  0
    1.7939   -1.1487   -3.5883 H   0  0  0  0  0  0  0  0  0  0  0  0
   -1.7690   -0.7228    3.2639 H   0  0  0  0  0  0  0  0  0  0  0  0
   -3.3189   -1.1705    3.0282 H   0  0  0  0  0  0  0  0  0  0  0  0
   -3.8842    0.2953   -0.2314 H   0  0  0  0  0  0  0  0  0  0  0  0
    6.0226    0.6273   -0.9155 H   0  0  0  0  0  0  0  0  0  0  0  0
    6.8588    0.2850    0.6121 H   0  0  0  0  0  0  0  0  0  0  0  0
    6.0556   -1.0266   -0.2737 H   0  0  0  0  0  0  0  0  0  0  0  0
    3.5480   -0.4501    3.1397 H   0  0  0  0  0  0  0  0  0  0  0  0
    4.4310   -1.7286    2.2841 H   0  0  0  0  0  0  0  0  0  0  0  0
    5.3203   -0.4345    3.1097 H   0  0  0  0  0  0  0  0  0  0  0  0
    3.4896    2.4168    2.0259 H   0  0  0  0  0  0  0  0  0  0  0  0
    5.2619    2.4460    1.9932 H   0  0  0  0  0  0  0  0  0  0  0  0
    4.3416    2.8135    0.5216 H   0  0  0  0  0  0  0  0  0  0  0  0
  1  5  1  0  0  0  0
  1 16  1  0  0  0  0
  1 17  1  0  0  0  0
  1 18  1  0  0  0  0
  2  6  1  0  0  0  0
  2 19  1  0  0  0  0
  2 20  1  0  0  0  0
  2 21  1  0  0  0  0
  3  7  1  0  0  0  0
  3 22  1  0  0  0  0
  3 23  1  0  0  0  0
  3 24  1  0  0  0  0
  4  8  1  0  0  0  0
  4 26  1  0  0  0  0
  4 27  1  0  0  0  0
  4 28  1  0  0  0  0
  5 11  1  0  0  0  0
  6 12  1  0  0  0  0
  7 13  1  0  0  0  0
  8 15  1  0  0  0  0
  9 25  2  0  0  0  0
 10 14  1  0  0  0  0
 10 62  1  0  0  0  0
 10 63  1  0  0  0  0
 11 12  1  0  0  0  0
 11 13  1  0  0  0  0
 11 29  1  0  0  0  0
 12 14  1  0  0  0  0
 12 30  1  0  0  0  0
 13 15  1  0  0  0  0
 13 31  1  0  0  0  0
 14 25  1  0  0  0  0
 14 32  1  0  0  0  0
 15 33  1  0  0  0  0
 15 34  1  0  0  0  0
 16 35  1  0  0  0  0
 16 36  1  0  0  0  0
 16 37  1  0  0  0  0
 17 38  1  0  0  0  0
 17 39  1  0  0  0  0
 17 40  1  0  0  0  0
 18 41  1  0  0  0  0
 18 42  1  0  0  0  0
 18 43  1  0  0  0  0
 19 44  1  0  0  0  0
 19 45  1  0  0  0  0
 19 46  1  0  0  0  0
 20 47  1  0  0  0  0
 20 48  1  0  0  0  0
 20 49  1  0  0  0  0
 21 50  1  0  0  0  0
 21 51  1  0  0  0  0
 21 52  1  0  0  0  0
 22 53  1  0  0  0  0
 22 54  1  0  0  0  0
 22 55  1  0  0  0  0
 23 56  1  0  0  0  0
 23 57  1  0  0  0  0
 23 58  1  0  0  0  0
 24 59  1  0  0  0  0
 24 60  1  0  0  0  0
 24 61  1  0  0  0  0
 25 64  1  0  0  0  0
 26 65  1  0  0  0  0
 26 66  1  0  0  0  0
 26 67  1  0  0  0  0
 27 68  1  0  0  0  0
 27 69  1  0  0  0  0
 27 70  1  0  0  0  0
 28 71  1  0  0  0  0
 28 72  1  0  0  0  0
 28 73  1  0  0  0  0
M  END
> <PUBCHEM_COMPOUND_CID>
582863

> <PUBCHEM_CONFORMER_RMSD>
1.2

> <PUBCHEM_CONFORMER_DIVERSEORDER>
3
101
81
139
32
58
148
62
68
133
124
126
50
23
151
83
122
54
59
79
118
66
138
136
43
157
108
71
158
31
129
91
48
134
127
74
25
41
131
152
135
64
162
102
116
38
70
153
93
75
34
19
94
163
57
113
107
28
21
140
99
51
147
78
4
52
86
56
112
47
149
14
156
121
160
61
111
109
146
89
144
39
45
159
98
110
46
60
18
143
13
67
141
84
142
125
87
11
119
22
36
106
24
73
130
55
150
42
85
161
123
20
96
103
8
35
80
17
117
137
33
15
30
105
92
63
82
7
65
27
77
72
16
114
76
29
154
132
145
44
69
95
155
26
100
49
88
115
1
120
37
53
90
104
97
12
6
9
40
128
5
10
2

> <PUBCHEM_MMFF94_PARTIAL_CHARGES>
31
1 0.54
10 -0.99
11 0.28
12 0.28
13 0.28
14 0.33
15 0.28
16 -0.08
17 -0.08
18 -0.08
19 -0.08
2 0.54
20 -0.08
21 -0.08
22 -0.08
23 -0.08
24 -0.08
25 0.45
26 -0.08
27 -0.08
28 -0.08
3 0.54
4 0.54
5 -0.58
6 -0.58
62 0.36
63 0.36
64 0.06
7 -0.58
8 -0.58
9 -0.57

> <PUBCHEM_EFFECTIVE_ROTOR_COUNT>
13

> <PUBCHEM_PHARMACOPHORE_FEATURES>
3
1 10 cation
1 10 donor
1 9 acceptor

> <PUBCHEM_HEAVY_ATOM_COUNT>
28

> <PUBCHEM_ATOM_DEF_STEREO_COUNT>
0

> <PUBCHEM_ATOM_UDEF_STEREO_COUNT>
4

> <PUBCHEM_BOND_DEF_STEREO_COUNT>
0

> <PUBCHEM_BOND_UDEF_STEREO_COUNT>
0

> <PUBCHEM_ISOTOPIC_ATOM_COUNT>
0

> <PUBCHEM_COMPONENT_COUNT>
1

> <PUBCHEM_CACTVS_TAUTO_COUNT>
4

> <PUBCHEM_CONFORMER_ID>
0008E4CF00000003

> <PUBCHEM_MMFF94_ENERGY>
47.2989

> <PUBCHEM_FEATURE_SELFOVERLAP>
15.223

> <PUBCHEM_SHAPE_FINGERPRINT>
11421498 54 17684416971363500111
11578080 2 16618692477016174724
11582403 64 17678181700862071772
12788726 201 18263661601267394434
12930653 34 18264484160344708937
13140716 1 18122053209218502090
133893 2 17330313913057634726
13583140 156 17971469843607949196
14856354 85 18335977564054020434
17980427 23 17917414446030364773
17980427 26 17831586735874760470
20600515 1 18045192999972273529
21756936 100 18261403269341091680
22121540 332 16190297466251362037
23419403 2 16689926540886430470
3380486 77 18267567036610017905
469060 322 17605300430802202956
9981440 41 18120947353844935033

> <PUBCHEM_SHAPE_MULTIPOLES>
614.75
7
5.59
3.69
11.12
2.21
4.81
-3.75
-4.57
-3.51
-2.17
-0.76
-0.67
0.22

> <PUBCHEM_SHAPE_SELFOVERLAP>
1106.604

> <PUBCHEM_SHAPE_VOLUME>
397.3

> <PUBCHEM_COORDINATE_TYPE>
2
5
10

$$$$

