467798
  -OEChem-07051213093D

 66 69  0     1  0  0  0  0  0999 V2000
   -0.0127    3.0256   -0.6067 O   0  0  0  0  0  0  0  0  0  0  0  0
   -0.5997   -2.2397   -0.4230 O   0  0  0  0  0  0  0  0  0  0  0  0
   -4.3441    0.4733   -0.4962 O   0  0  0  0  0  0  0  0  0  0  0  0
   -3.2447   -1.0864    1.3667 O   0  0  0  0  0  0  0  0  0  0  0  0
    1.5392   -1.4187   -1.5239 O   0  0  0  0  0  0  0  0  0  0  0  0
    4.2576   -1.8962   -1.2436 O   0  0  0  0  0  0  0  0  0  0  0  0
   -1.2452    3.6144   -2.4123 O   0  0  0  0  0  0  0  0  0  0  0  0
   -1.3853   -4.0802    0.7312 O   0  0  0  0  0  0  0  0  0  0  0  0
   -0.8908    1.3269    0.9343 C   0  0  2  0  0  0  0  0  0  0  0  0
   -0.1726    0.1100    0.2309 C   0  0  1  0  0  0  0  0  0  0  0  0
    1.3844   -0.0620    0.5336 C   0  0  1  0  0  0  0  0  0  0  0  0
   -2.3228    1.5699    0.2921 C   0  0  2  0  0  0  0  0  0  0  0  0
   -0.0449    2.6100    0.7786 C   0  0  1  0  0  0  0  0  0  0  0  0
    2.1168    1.3257    0.4589 C   0  0  1  0  0  0  0  0  0  0  0  0
   -1.0485   -1.1725    0.4061 C   0  0  1  0  0  0  0  0  0  0  0  0
   -2.9023    0.3791   -0.5394 C   0  0  1  0  0  0  0  0  0  0  0  0
    1.4041    2.4339    1.2382 C   0  0  0  0  0  0  0  0  0  0  0  0
   -2.5499   -0.9707    0.1158 C   0  0  2  0  0  0  0  0  0  0  0  0
   -1.1074    1.1157    2.4596 C   0  0  0  0  0  0  0  0  0  0  0  0
   -2.4086    2.9286   -0.4265 C   0  0  0  0  0  0  0  0  0  0  0  0
    3.6265    1.2142    0.8258 C   0  0  1  0  0  0  0  0  0  0  0  0
    1.6316   -0.8295    1.8510 C   0  0  0  0  0  0  0  0  0  0  0  0
    2.1110   -0.8516   -0.5965 C   0  0  0  0  0  0  0  0  0  0  0  0
   -2.5651    0.3686   -2.0411 C   0  0  0  0  0  0  0  0  0  0  0  0
   -1.1881    3.2116   -1.2560 C   0  0  0  0  0  0  0  0  0  0  0  0
    4.2735    0.0467    0.1156 C   0  0  0  0  0  0  0  0  0  0  0  0
    3.6045   -0.8945   -0.5614 C   0  0  0  0  0  0  0  0  0  0  0  0
    4.4042    2.4913    0.4805 C   0  0  0  0  0  0  0  0  0  0  0  0
   -1.2795   -3.4173   -0.2917 C   0  0  0  0  0  0  0  0  0  0  0  0
   -3.0363   -2.3607    1.9512 C   0  0  0  0  0  0  0  0  0  0  0  0
   -1.8946   -3.7962   -1.6048 C   0  0  0  0  0  0  0  0  0  0  0  0
    3.8894   -3.1695   -0.7467 C   0  0  0  0  0  0  0  0  0  0  0  0
   -0.1660    0.3393   -0.8380 H   0  0  0  0  0  0  0  0  0  0  0  0
   -3.0342    1.6883    1.1247 H   0  0  0  0  0  0  0  0  0  0  0  0
   -0.4718    3.4389    1.3592 H   0  0  0  0  0  0  0  0  0  0  0  0
    2.0881    1.6387   -0.5985 H   0  0  0  0  0  0  0  0  0  0  0  0
   -0.8539   -1.4785    1.4300 H   0  0  0  0  0  0  0  0  0  0  0  0
    1.4655    2.2452    2.3142 H   0  0  0  0  0  0  0  0  0  0  0  0
    1.9158    3.3868    1.0613 H   0  0  0  0  0  0  0  0  0  0  0  0
   -2.9918   -1.7380   -0.5249 H   0  0  0  0  0  0  0  0  0  0  0  0
   -1.6605    0.2068    2.6950 H   0  0  0  0  0  0  0  0  0  0  0  0
   -0.1795    1.0838    3.0282 H   0  0  0  0  0  0  0  0  0  0  0  0
   -1.6800    1.9511    2.8827 H   0  0  0  0  0  0  0  0  0  0  0  0
   -2.5059    3.7434    0.3020 H   0  0  0  0  0  0  0  0  0  0  0  0
   -3.2961    2.9933   -1.0636 H   0  0  0  0  0  0  0  0  0  0  0  0
    3.7325    1.0519    1.9058 H   0  0  0  0  0  0  0  0  0  0  0  0
    1.2213   -1.8438    1.8021 H   0  0  0  0  0  0  0  0  0  0  0  0
    2.6927   -0.9749    2.0736 H   0  0  0  0  0  0  0  0  0  0  0  0
    1.2074   -0.3306    2.7197 H   0  0  0  0  0  0  0  0  0  0  0  0
   -3.0385   -0.4938   -2.5271 H   0  0  0  0  0  0  0  0  0  0  0  0
   -2.9827    1.2430   -2.5517 H   0  0  0  0  0  0  0  0  0  0  0  0
   -1.5016    0.3230   -2.2694 H   0  0  0  0  0  0  0  0  0  0  0  0
    5.3587   -0.0187    0.1575 H   0  0  0  0  0  0  0  0  0  0  0  0
   -4.6108    1.3041   -0.9236 H   0  0  0  0  0  0  0  0  0  0  0  0
    5.4788    2.3590    0.6532 H   0  0  0  0  0  0  0  0  0  0  0  0
    4.2668    2.7729   -0.5694 H   0  0  0  0  0  0  0  0  0  0  0  0
    4.0886    3.3326    1.1045 H   0  0  0  0  0  0  0  0  0  0  0  0
   -2.0577   -2.5240    2.4005 H   0  0  0  0  0  0  0  0  0  0  0  0
   -3.3900   -3.1557    1.2918 H   0  0  0  0  0  0  0  0  0  0  0  0
   -3.7201   -2.4003    2.8084 H   0  0  0  0  0  0  0  0  0  0  0  0
   -1.3374   -4.6326   -2.0335 H   0  0  0  0  0  0  0  0  0  0  0  0
   -1.8716   -2.9604   -2.3102 H   0  0  0  0  0  0  0  0  0  0  0  0
   -2.9388   -4.0783   -1.4468 H   0  0  0  0  0  0  0  0  0  0  0  0
    2.8963   -3.4693   -1.0947 H   0  0  0  0  0  0  0  0  0  0  0  0
    3.9366   -3.2101    0.3480 H   0  0  0  0  0  0  0  0  0  0  0  0
    4.6050   -3.9007   -1.1358 H   0  0  0  0  0  0  0  0  0  0  0  0
  1 13  1  0  0  0  0
  1 25  1  0  0  0  0
  2 15  1  0  0  0  0
  2 29  1  0  0  0  0
  3 16  1  0  0  0  0
  3 54  1  0  0  0  0
  4 18  1  0  0  0  0
  4 30  1  0  0  0  0
  5 23  2  0  0  0  0
  6 27  1  0  0  0  0
  6 32  1  0  0  0  0
  7 25  2  0  0  0  0
  8 29  2  0  0  0  0
  9 10  1  0  0  0  0
  9 12  1  0  0  0  0
  9 13  1  0  0  0  0
  9 19  1  0  0  0  0
 10 11  1  0  0  0  0
 10 15  1  0  0  0  0
 10 33  1  0  0  0  0
 11 14  1  0  0  0  0
 11 22  1  0  0  0  0
 11 23  1  0  0  0  0
 12 16  1  0  0  0  0
 12 20  1  0  0  0  0
 12 34  1  0  0  0  0
 13 17  1  0  0  0  0
 13 35  1  0  0  0  0
 14 17  1  0  0  0  0
 14 21  1  0  0  0  0
 14 36  1  0  0  0  0
 15 18  1  0  0  0  0
 15 37  1  0  0  0  0
 16 18  1  0  0  0  0
 16 24  1  0  0  0  0
 17 38  1  0  0  0  0
 17 39  1  0  0  0  0
 18 40  1  0  0  0  0
 19 41  1  0  0  0  0
 19 42  1  0  0  0  0
 19 43  1  0  0  0  0
 20 25  1  0  0  0  0
 20 44  1  0  0  0  0
 20 45  1  0  0  0  0
 21 26  1  0  0  0  0
 21 28  1  0  0  0  0
 21 46  1  0  0  0  0
 22 47  1  0  0  0  0
 22 48  1  0  0  0  0
 22 49  1  0  0  0  0
 23 27  1  0  0  0  0
 24 50  1  0  0  0  0
 24 51  1  0  0  0  0
 24 52  1  0  0  0  0
 26 27  2  0  0  0  0
 26 53  1  0  0  0  0
 28 55  1  0  0  0  0
 28 56  1  0  0  0  0
 28 57  1  0  0  0  0
 29 31  1  0  0  0  0
 30 58  1  0  0  0  0
 30 59  1  0  0  0  0
 30 60  1  0  0  0  0
 31 61  1  0  0  0  0
 31 62  1  0  0  0  0
 31 63  1  0  0  0  0
 32 64  1  0  0  0  0
 32 65  1  0  0  0  0
 32 66  1  0  0  0  0
M  END
> <PUBCHEM_COMPOUND_CID>
467798

> <PUBCHEM_CONFORMER_RMSD>
0.8

> <PUBCHEM_CONFORMER_DIVERSEORDER>
1
2

> <PUBCHEM_MMFF94_PARTIAL_CHARGES>
25
1 -0.43
11 0.06
13 0.28
15 0.28
16 0.28
18 0.28
2 -0.43
20 0.06
21 0.14
23 0.49
25 0.66
26 -0.29
27 0.09
29 0.66
3 -0.68
30 0.28
31 0.06
32 0.28
4 -0.56
5 -0.57
53 0.15
54 0.4
6 -0.36
7 -0.57
8 -0.57

> <PUBCHEM_EFFECTIVE_ROTOR_COUNT>
5.4

> <PUBCHEM_PHARMACOPHORE_FEATURES>
11
1 3 acceptor
1 3 donor
1 4 acceptor
1 5 acceptor
1 6 acceptor
1 7 acceptor
1 8 acceptor
6 1 9 12 13 20 25 rings
6 11 14 21 23 26 27 rings
6 9 10 11 13 14 17 rings
6 9 10 12 15 16 18 rings

> <PUBCHEM_HEAVY_ATOM_COUNT>
32

> <PUBCHEM_ATOM_DEF_STEREO_COUNT>
10

> <PUBCHEM_ATOM_UDEF_STEREO_COUNT>
0

> <PUBCHEM_BOND_DEF_STEREO_COUNT>
0

> <PUBCHEM_BOND_UDEF_STEREO_COUNT>
0

> <PUBCHEM_ISOTOPIC_ATOM_COUNT>
0

> <PUBCHEM_COMPONENT_COUNT>
1

> <PUBCHEM_CACTVS_TAUTO_COUNT>
3

> <PUBCHEM_CONFORMER_ID>
0007235600000001

> <PUBCHEM_MMFF94_ENERGY>
162.6299

> <PUBCHEM_FEATURE_SELFOVERLAP>
55.972

> <PUBCHEM_SHAPE_FINGERPRINT>
10165383 225 17622149591710136437
10675989 125 17401786601291274168
10693767 8 17896910766518447967
11578080 2 17487648323428513228
12035758 1 18340763742111386211
12156800 1 16599213154944681788
12422481 6 17975715908702431336
12553582 1 17980471270226482818
13140716 1 17756421560872554072
13224815 77 17895201034257839888
133893 2 17121136859500860795
14223421 5 18408601448918152184
14790565 3 18336262452987321985
16945 1 18116434734802170497
17357779 13 18409177605600914941
1813 80 18056467349227233843
19591789 44 18264208182741494563
20775438 99 17321596671456345615
20905425 154 17688026414318029781
21285901 2 18338817644747305757
22182313 1 18341051826626176449
22907989 373 18127389332606152740
23559900 14 18117001194592750202
238 59 17762931013422734701
2748010 2 18410013251559650745
3027735 51 18049163564256728863
3298306 158 17620476143686186238
3380486 145 18264201413883715976
35225 105 18267599080860028854
46194498 28 16827881715395622751
6287921 2 17472685932521069506
9709674 26 18336267928996108528

> <PUBCHEM_SHAPE_MULTIPOLES>
611.59
6.8
4.95
1.84
5.4
1.67
-0.07
1.49
0.53
-1.32
1.56
-1
-0.23
1.84

> <PUBCHEM_SHAPE_SELFOVERLAP>
1306.711

> <PUBCHEM_SHAPE_VOLUME>
332.5

> <PUBCHEM_COORDINATE_TYPE>
2
5
10

$$$$

