14345197
  -OEChem-07051213103D

 21 21  0     0  0  0  0  0  0999 V2000
    2.4096   -0.9880   -0.2658 O   0  0  0  0  0  0  0  0  0  0  0  0
    0.5043   -2.9854   -0.2469 O   0  0  0  0  0  0  0  0  0  0  0  0
    1.2538    2.9061   -0.0252 O   0  5  0  0  0  0  0  0  0  0  0  0
    2.8668    1.4257   -0.1846 O   0  0  0  0  0  0  0  0  0  0  0  0
   -3.3381    1.5076    0.1747 O   0  5  0  0  0  0  0  0  0  0  0  0
   -3.8457   -0.6270    0.1064 O   0  0  0  0  0  0  0  0  0  0  0  0
    1.6509    1.7195   -0.1022 N   0  3  0  0  0  0  0  0  0  0  0  0
   -3.0013    0.3012    0.1002 N   0  3  0  0  0  0  0  0  0  0  0  0
    1.0871   -0.6630   -0.1779 C   0  0  0  0  0  0  0  0  0  0  0  0
    0.6894    0.6714   -0.0954 C   0  0  0  0  0  0  0  0  0  0  0  0
   -1.6223   -0.0237    0.0056 C   0  0  0  0  0  0  0  0  0  0  0  0
    0.1300   -1.6778   -0.1685 C   0  0  0  0  0  0  0  0  0  0  0  0
   -0.6652    0.9911   -0.0035 C   0  0  0  0  0  0  0  0  0  0  0  0
   -1.2246   -1.3582   -0.0768 C   0  0  0  0  0  0  0  0  0  0  0  0
    3.1053   -1.1994    0.9600 C   0  0  0  0  0  0  0  0  0  0  0  0
   -0.9784    2.0305    0.0613 H   0  0  0  0  0  0  0  0  0  0  0  0
   -1.9476   -2.1708   -0.0714 H   0  0  0  0  0  0  0  0  0  0  0  0
    2.9020   -2.2085    1.3314 H   0  0  0  0  0  0  0  0  0  0  0  0
    2.8244   -0.4680    1.7253 H   0  0  0  0  0  0  0  0  0  0  0  0
    4.1780   -1.1117    0.7664 H   0  0  0  0  0  0  0  0  0  0  0  0
    1.4690   -3.0249   -0.3633 H   0  0  0  0  0  0  0  0  0  0  0  0
  1  9  1  0  0  0  0
  1 15  1  0  0  0  0
  2 12  1  0  0  0  0
  2 21  1  0  0  0  0
  3  7  1  0  0  0  0
  4  7  2  0  0  0  0
  5  8  1  0  0  0  0
  6  8  2  0  0  0  0
  7 10  1  0  0  0  0
  8 11  1  0  0  0  0
  9 10  2  0  0  0  0
  9 12  1  0  0  0  0
 10 13  1  0  0  0  0
 11 13  2  0  0  0  0
 11 14  1  0  0  0  0
 12 14  2  0  0  0  0
 13 16  1  0  0  0  0
 14 17  1  0  0  0  0
 15 18  1  0  0  0  0
 15 19  1  0  0  0  0
 15 20  1  0  0  0  0
M  CHG  4   3  -1   5  -1   7   1   8   1
M  END
> <PUBCHEM_COMPOUND_CID>
14345197

> <PUBCHEM_CONFORMER_RMSD>
0.6

> <PUBCHEM_CONFORMER_DIVERSEORDER>
1

> <PUBCHEM_MMFF94_PARTIAL_CHARGES>
18
1 -0.36
10 0.13
11 0.13
12 0.08
13 -0.15
14 -0.15
15 0.28
16 0.15
17 0.15
2 -0.53
21 0.45
3 -0.52
4 -0.52
5 -0.52
6 -0.52
7 0.91
8 0.91
9 0.08

> <PUBCHEM_EFFECTIVE_ROTOR_COUNT>
3

> <PUBCHEM_PHARMACOPHORE_FEATURES>
9
1 1 acceptor
1 2 donor
1 3 acceptor
1 3 anion
1 4 acceptor
1 5 acceptor
1 5 anion
1 6 acceptor
6 9 10 11 12 13 14 rings

> <PUBCHEM_HEAVY_ATOM_COUNT>
15

> <PUBCHEM_ATOM_DEF_STEREO_COUNT>
0

> <PUBCHEM_ATOM_UDEF_STEREO_COUNT>
0

> <PUBCHEM_BOND_DEF_STEREO_COUNT>
0

> <PUBCHEM_BOND_UDEF_STEREO_COUNT>
0

> <PUBCHEM_ISOTOPIC_ATOM_COUNT>
0

> <PUBCHEM_COMPONENT_COUNT>
1

> <PUBCHEM_CACTVS_TAUTO_COUNT>
3

> <PUBCHEM_CONFORMER_ID>
00DAE3ED00000001

> <PUBCHEM_MMFF94_ENERGY>
60.7806

> <PUBCHEM_FEATURE_SELFOVERLAP>
45.857

> <PUBCHEM_SHAPE_FINGERPRINT>
10130415 120 18201440332587713898
10219947 1 18338238274928085530
10967382 1 18410572868465241974
10980938 120 18411695474295848232
11471102 20 18410859888730178021
13140716 1 18410575071989310435
13380535 76 18265333910849788270
13380536 305 18409720751380688182
14251717 144 18409736170545421959
14325111 11 18410854343827197877
15490181 7 17978500941120700312
16945 1 18337950215840337111
193761 8 18050286968624250062
20510252 161 17110716770466569528
20511035 2 18200582593063967230
20645477 70 18412268337630050255
20671657 1 18268987601201129852
21501502 16 18266182738132078047
2334 1 18266459806551288895
23463225 33 18341334478260194370
23552423 10 18053666867515408348
241688 4 17545311346936669818
2748010 2 18339355254187795951
528862 383 18342462508465489096
7364860 26 18335697260485114566
81228 2 17185589663937279267

> <PUBCHEM_SHAPE_MULTIPOLES>
263.52
4.83
2.65
0.65
2.76
0.3
-0.06
0.43
-0.78
-1.24
0.16
-0.22
-0.1
-0.3

> <PUBCHEM_SHAPE_SELFOVERLAP>
559.101

> <PUBCHEM_SHAPE_VOLUME>
147.9

> <PUBCHEM_COORDINATE_TYPE>
2
5
10

$$$$

