11953939
  -OEChem-07051212573D

 40 41  0     1  0  0  0  0  0999 V2000
    2.9557   -1.1040   -0.7365 O   0  0  0  0  0  0  0  0  0  0  0  0
    4.9910   -0.0434   -0.7208 O   0  0  0  0  0  0  0  0  0  0  0  0
   -3.3538    0.6484   -0.8744 O   0  0  0  0  0  0  0  0  0  0  0  0
   -1.8688    2.4176   -0.7194 O   0  0  0  0  0  0  0  0  0  0  0  0
    1.6962    0.3299    0.6771 C   0  0  2  0  0  0  0  0  0  0  0  0
    1.5868   -0.7462   -0.4220 C   0  0  2  0  0  0  0  0  0  0  0  0
    0.8753   -2.0696   -0.0524 C   0  0  0  0  0  0  0  0  0  0  0  0
    0.5469    1.3691    0.7322 C   0  0  0  0  0  0  0  0  0  0  0  0
    3.0340    0.9094    0.3264 C   0  0  0  0  0  0  0  0  0  0  0  0
   -0.6313   -2.0273   -0.1872 C   0  0  0  0  0  0  0  0  0  0  0  0
    3.8088   -0.0898   -0.4333 C   0  0  0  0  0  0  0  0  0  0  0  0
   -0.6775    0.8059    1.3917 C   0  0  0  0  0  0  0  0  0  0  0  0
   -2.9338   -0.2159    1.5882 C   0  0  0  0  0  0  0  0  0  0  0  0
   -2.8488   -1.6487    1.0029 C   0  0  0  0  0  0  0  0  0  0  0  0
   -1.9377    0.7159    0.9290 C   0  0  0  0  0  0  0  0  0  0  0  0
   -1.4091   -2.0970    0.9129 C   0  0  0  0  0  0  0  0  0  0  0  0
    3.5538    2.1143    0.5792 C   0  0  0  0  0  0  0  0  0  0  0  0
   -1.1507   -1.8189   -1.5847 C   0  0  0  0  0  0  0  0  0  0  0  0
   -2.3610    1.3795   -0.3088 C   0  0  0  0  0  0  0  0  0  0  0  0
   -3.8759    1.1710   -2.1003 C   0  0  0  0  0  0  0  0  0  0  0  0
    1.8077   -0.1563    1.6564 H   0  0  0  0  0  0  0  0  0  0  0  0
    1.1674   -0.3266   -1.3446 H   0  0  0  0  0  0  0  0  0  0  0  0
    1.1791   -2.3689    0.9593 H   0  0  0  0  0  0  0  0  0  0  0  0
    1.2484   -2.8748   -0.7003 H   0  0  0  0  0  0  0  0  0  0  0  0
    0.3550    1.7349   -0.2800 H   0  0  0  0  0  0  0  0  0  0  0  0
    0.8482    2.2356    1.3318 H   0  0  0  0  0  0  0  0  0  0  0  0
   -0.4628    0.3023    2.3354 H   0  0  0  0  0  0  0  0  0  0  0  0
   -2.7296   -0.2640    2.6669 H   0  0  0  0  0  0  0  0  0  0  0  0
   -3.9579    0.1678    1.5073 H   0  0  0  0  0  0  0  0  0  0  0  0
   -3.3601   -1.6983    0.0387 H   0  0  0  0  0  0  0  0  0  0  0  0
   -3.3918   -2.3383    1.6604 H   0  0  0  0  0  0  0  0  0  0  0  0
   -0.9334   -2.2786    1.8759 H   0  0  0  0  0  0  0  0  0  0  0  0
    3.0039    2.8638    1.1365 H   0  0  0  0  0  0  0  0  0  0  0  0
    4.5488    2.3889    0.2441 H   0  0  0  0  0  0  0  0  0  0  0  0
   -0.9987   -0.7867   -1.9116 H   0  0  0  0  0  0  0  0  0  0  0  0
   -2.2121   -2.0573   -1.6860 H   0  0  0  0  0  0  0  0  0  0  0  0
   -0.6224   -2.4791   -2.2815 H   0  0  0  0  0  0  0  0  0  0  0  0
   -4.6609    0.4955   -2.4502 H   0  0  0  0  0  0  0  0  0  0  0  0
   -3.0879    1.2162   -2.8581 H   0  0  0  0  0  0  0  0  0  0  0  0
   -4.3114    2.1611   -1.9350 H   0  0  0  0  0  0  0  0  0  0  0  0
  1  6  1  0  0  0  0
  1 11  1  0  0  0  0
  2 11  2  0  0  0  0
  3 19  1  0  0  0  0
  3 20  1  0  0  0  0
  4 19  2  0  0  0  0
  5  6  1  0  0  0  0
  5  8  1  0  0  0  0
  5  9  1  0  0  0  0
  5 21  1  0  0  0  0
  6  7  1  0  0  0  0
  6 22  1  0  0  0  0
  7 10  1  0  0  0  0
  7 23  1  0  0  0  0
  7 24  1  0  0  0  0
  8 12  1  0  0  0  0
  8 25  1  0  0  0  0
  8 26  1  0  0  0  0
  9 11  1  0  0  0  0
  9 17  2  0  0  0  0
 10 16  2  0  0  0  0
 10 18  1  0  0  0  0
 12 15  2  0  0  0  0
 12 27  1  0  0  0  0
 13 14  1  0  0  0  0
 13 15  1  0  0  0  0
 13 28  1  0  0  0  0
 13 29  1  0  0  0  0
 14 16  1  0  0  0  0
 14 30  1  0  0  0  0
 14 31  1  0  0  0  0
 15 19  1  0  0  0  0
 16 32  1  0  0  0  0
 17 33  1  0  0  0  0
 17 34  1  0  0  0  0
 18 35  1  0  0  0  0
 18 36  1  0  0  0  0
 18 37  1  0  0  0  0
 20 38  1  0  0  0  0
 20 39  1  0  0  0  0
 20 40  1  0  0  0  0
M  END
> <PUBCHEM_COMPOUND_CID>
11953939

> <PUBCHEM_CONFORMER_RMSD>
0.6

> <PUBCHEM_CONFORMER_DIVERSEORDER>
2
10
4
1
7
15
5
13
12
16
8
6
9
11
3
14

> <PUBCHEM_MMFF94_PARTIAL_CHARGES>
24
1 -0.43
10 -0.28
11 0.71
12 -0.29
13 0.14
14 0.14
15 -0.12
16 -0.29
17 -0.3
18 0.14
19 0.71
2 -0.57
20 0.28
27 0.15
3 -0.43
32 0.15
33 0.15
34 0.15
4 -0.57
5 0.14
6 0.28
7 0.14
8 0.14
9 -0.12

> <PUBCHEM_EFFECTIVE_ROTOR_COUNT>
3

> <PUBCHEM_PHARMACOPHORE_FEATURES>
3
1 2 acceptor
1 4 acceptor
5 1 5 6 9 11 rings

> <PUBCHEM_HEAVY_ATOM_COUNT>
20

> <PUBCHEM_ATOM_DEF_STEREO_COUNT>
2

> <PUBCHEM_ATOM_UDEF_STEREO_COUNT>
0

> <PUBCHEM_BOND_DEF_STEREO_COUNT>
2

> <PUBCHEM_BOND_UDEF_STEREO_COUNT>
0

> <PUBCHEM_ISOTOPIC_ATOM_COUNT>
0

> <PUBCHEM_COMPONENT_COUNT>
1

> <PUBCHEM_CACTVS_TAUTO_COUNT>
1

> <PUBCHEM_CONFORMER_ID>
00B6671300000002

> <PUBCHEM_MMFF94_ENERGY>
52.856

> <PUBCHEM_FEATURE_SELFOVERLAP>
15.223

> <PUBCHEM_SHAPE_FINGERPRINT>
10498660 4 18342182150069674669
10759866 29 18131345324277790202
10863032 1 17845942930333989707
11961588 58 17845390906940808957
12011746 2 18410286995980317731
12077114 3 18272654553909730194
12186901 62 18130781252667809691
12403814 3 18269546148717685761
13140716 1 18260261915841211874
13583140 156 17917437510052022536
14251751 93 18342454846455018202
15163728 17 16985483916908509525
15196674 1 18116137896748346282
16945 1 18338512070402953531
17349148 13 17749113348276277778
17357779 13 18119824503871384511
17492 54 18263103122633099415
18186145 218 18261384551435746120
18219364 16 18409721876567083387
192875 21 18047487886802751138
200 152 17385726902115033609
21160774 45 18189334580775000819
22907989 373 18342166739943586973
23402539 116 17458620151139611872
23419403 2 15795703170238973371
23493267 7 18202563998942653890
23557571 272 17846486046239201305
23559900 14 18114174238813346954
238 59 18192169276380662917
25 1 18265897049987505449
2748010 2 18261668169495590490
3472631 163 16630526284453328205
3524813 1 18408599258046987888
4028521 119 18411143523626993735
4175511 318 17989487433172786229
81228 2 17902802859714691442

> <PUBCHEM_SHAPE_MULTIPOLES>
388.11
7.1
2.53
1.53
5.29
0.34
0.31
-2.11
1.81
-0.75
0.22
-1.65
-0.12
1.39

> <PUBCHEM_SHAPE_SELFOVERLAP>
805.273

> <PUBCHEM_SHAPE_VOLUME>
220.7

> <PUBCHEM_COORDINATE_TYPE>
2
5
10

$$$$

