101595
  -OEChem-07051212573D

 52 57  0     1  0  0  0  0  0999 V2000
    1.5356    2.9828   -0.5660 O   0  0  0  0  0  0  0  0  0  0  0  0
    0.2454   -2.7321    1.6672 O   0  0  0  0  0  0  0  0  0  0  0  0
   -2.8358    2.8045   -0.5156 O   0  0  0  0  0  0  0  0  0  0  0  0
   -4.4602    1.0650   -0.2452 O   0  0  0  0  0  0  0  0  0  0  0  0
   -1.4169    0.9910   -0.2045 N   0  0  0  0  0  0  0  0  0  0  0  0
    2.8019   -1.9354   -0.6105 N   0  0  2  0  0  0  0  0  0  0  0  0
   -0.0358    0.4813   -0.1846 C   0  0  2  0  0  0  0  0  0  0  0  0
   -0.0991   -1.0745   -0.0686 C   0  0  2  0  0  0  0  0  0  0  0  0
    0.6922    1.2142    0.9413 C   0  0  1  0  0  0  0  0  0  0  0  0
    2.0237    0.5168    1.2773 C   0  0  1  0  0  0  0  0  0  0  0  0
    0.7489    2.7098    0.5929 C   0  0  2  0  0  0  0  0  0  0  0  0
    1.6320   -0.8213    1.9334 C   0  0  0  0  0  0  0  0  0  0  0  0
   -1.6136   -1.2879   -0.0554 C   0  0  0  0  0  0  0  0  0  0  0  0
    0.5529   -1.6245    1.2142 C   0  0  0  0  0  0  0  0  0  0  0  0
    0.4515   -1.8209   -1.3223 C   0  0  0  0  0  0  0  0  0  0  0  0
   -2.3129   -0.0848   -0.1686 C   0  0  0  0  0  0  0  0  0  0  0  0
   -0.6553    3.2739    0.3205 C   0  0  0  0  0  0  0  0  0  0  0  0
    3.0574    0.4502    0.1482 C   0  0  0  0  0  0  0  0  0  0  0  0
   -1.7373    2.3345   -0.2137 C   0  0  0  0  0  0  0  0  0  0  0  0
    1.9140   -1.5713   -1.7142 C   0  0  0  0  0  0  0  0  0  0  0  0
    3.7266   -0.8680   -0.2213 C   0  0  0  0  0  0  0  0  0  0  0  0
   -2.3062   -2.4943    0.0102 C   0  0  0  0  0  0  0  0  0  0  0  0
    3.4492    1.5502   -0.5257 C   0  0  0  0  0  0  0  0  0  0  0  0
   -3.7011   -0.0563   -0.1840 C   0  0  0  0  0  0  0  0  0  0  0  0
    2.9341    2.9324   -0.3223 C   0  0  0  0  0  0  0  0  0  0  0  0
   -3.7014   -2.4785   -0.0144 C   0  0  0  0  0  0  0  0  0  0  0  0
   -4.3940   -1.2663   -0.1083 C   0  0  0  0  0  0  0  0  0  0  0  0
    3.5042   -3.1906   -0.8601 C   0  0  0  0  0  0  0  0  0  0  0  0
    0.3906    0.7649   -1.1552 H   0  0  0  0  0  0  0  0  0  0  0  0
    0.0699    1.1581    1.8499 H   0  0  0  0  0  0  0  0  0  0  0  0
    2.5127    1.0964    2.0749 H   0  0  0  0  0  0  0  0  0  0  0  0
    1.1668    3.2736    1.4374 H   0  0  0  0  0  0  0  0  0  0  0  0
    1.2203   -0.6060    2.9294 H   0  0  0  0  0  0  0  0  0  0  0  0
    2.5035   -1.4629    2.0978 H   0  0  0  0  0  0  0  0  0  0  0  0
   -0.1627   -1.5609   -2.1965 H   0  0  0  0  0  0  0  0  0  0  0  0
    0.3217   -2.9042   -1.1853 H   0  0  0  0  0  0  0  0  0  0  0  0
   -0.5972    4.1292   -0.3634 H   0  0  0  0  0  0  0  0  0  0  0  0
   -1.0560    3.6413    1.2750 H   0  0  0  0  0  0  0  0  0  0  0  0
    2.1411   -2.1567   -2.6156 H   0  0  0  0  0  0  0  0  0  0  0  0
    2.0297   -0.5300   -2.0324 H   0  0  0  0  0  0  0  0  0  0  0  0
    4.4599   -0.7191   -1.0258 H   0  0  0  0  0  0  0  0  0  0  0  0
    4.3076   -1.1888    0.6536 H   0  0  0  0  0  0  0  0  0  0  0  0
   -1.7816   -3.4419    0.0756 H   0  0  0  0  0  0  0  0  0  0  0  0
    4.2099    1.4553   -1.2982 H   0  0  0  0  0  0  0  0  0  0  0  0
    3.2068    3.3333    0.6607 H   0  0  0  0  0  0  0  0  0  0  0  0
    3.4033    3.5861   -1.0659 H   0  0  0  0  0  0  0  0  0  0  0  0
   -4.2537   -3.4125    0.0398 H   0  0  0  0  0  0  0  0  0  0  0  0
   -5.4813   -1.2774   -0.1182 H   0  0  0  0  0  0  0  0  0  0  0  0
    4.1939   -3.1137   -1.7081 H   0  0  0  0  0  0  0  0  0  0  0  0
    2.7919   -3.9977   -1.0644 H   0  0  0  0  0  0  0  0  0  0  0  0
    4.0762   -3.4954    0.0232 H   0  0  0  0  0  0  0  0  0  0  0  0
   -4.0208    1.7558    0.2754 H   0  0  0  0  0  0  0  0  0  0  0  0
  1 11  1  0  0  0  0
  1 25  1  0  0  0  0
  2 14  2  0  0  0  0
  3 19  2  0  0  0  0
  4 24  1  0  0  0  0
  4 52  1  0  0  0  0
  5  7  1  0  0  0  0
  5 16  1  0  0  0  0
  5 19  1  0  0  0  0
  6 20  1  0  0  0  0
  6 21  1  0  0  0  0
  6 28  1  0  0  0  0
  7  8  1  0  0  0  0
  7  9  1  0  0  0  0
  7 29  1  0  0  0  0
  8 13  1  0  0  0  0
  8 14  1  0  0  0  0
  8 15  1  0  0  0  0
  9 10  1  0  0  0  0
  9 11  1  0  0  0  0
  9 30  1  0  0  0  0
 10 12  1  0  0  0  0
 10 18  1  0  0  0  0
 10 31  1  0  0  0  0
 11 17  1  0  0  0  0
 11 32  1  0  0  0  0
 12 14  1  0  0  0  0
 12 33  1  0  0  0  0
 12 34  1  0  0  0  0
 13 16  2  0  0  0  0
 13 22  1  0  0  0  0
 15 20  1  0  0  0  0
 15 35  1  0  0  0  0
 15 36  1  0  0  0  0
 16 24  1  0  0  0  0
 17 19  1  0  0  0  0
 17 37  1  0  0  0  0
 17 38  1  0  0  0  0
 18 21  1  0  0  0  0
 18 23  2  0  0  0  0
 20 39  1  0  0  0  0
 20 40  1  0  0  0  0
 21 41  1  0  0  0  0
 21 42  1  0  0  0  0
 22 26  2  0  0  0  0
 22 43  1  0  0  0  0
 23 25  1  0  0  0  0
 23 44  1  0  0  0  0
 24 27  2  0  0  0  0
 25 45  1  0  0  0  0
 25 46  1  0  0  0  0
 26 27  1  0  0  0  0
 26 47  1  0  0  0  0
 27 48  1  0  0  0  0
 28 49  1  0  0  0  0
 28 50  1  0  0  0  0
 28 51  1  0  0  0  0
M  END
> <PUBCHEM_COMPOUND_CID>
101595

> <PUBCHEM_CONFORMER_RMSD>
0.6

> <PUBCHEM_CONFORMER_DIVERSEORDER>
1

> <PUBCHEM_MMFF94_PARTIAL_CHARGES>
31
1 -0.56
10 0.14
11 0.28
12 0.06
13 -0.14
14 0.45
16 0.12
17 0.06
18 -0.28
19 0.57
2 -0.57
20 0.27
21 0.41
22 -0.15
23 -0.29
24 0.08
25 0.42
26 -0.15
27 -0.15
28 0.27
3 -0.57
4 -0.53
43 0.15
44 0.15
47 0.15
48 0.15
5 -0.48
52 0.45
6 -0.81
7 0.3
8 0.2

> <PUBCHEM_EFFECTIVE_ROTOR_COUNT>
1.6

> <PUBCHEM_PHARMACOPHORE_FEATURES>
10
1 1 acceptor
1 2 acceptor
1 3 acceptor
1 4 donor
1 6 cation
5 5 7 8 13 16 rings
6 13 16 22 24 26 27 rings
6 5 7 9 11 17 19 rings
6 7 8 9 10 12 14 rings
7 1 9 10 11 18 23 25 rings

> <PUBCHEM_HEAVY_ATOM_COUNT>
28

> <PUBCHEM_ATOM_DEF_STEREO_COUNT>
5

> <PUBCHEM_ATOM_UDEF_STEREO_COUNT>
0

> <PUBCHEM_BOND_DEF_STEREO_COUNT>
0

> <PUBCHEM_BOND_UDEF_STEREO_COUNT>
0

> <PUBCHEM_ISOTOPIC_ATOM_COUNT>
0

> <PUBCHEM_COMPONENT_COUNT>
1

> <PUBCHEM_CACTVS_TAUTO_COUNT>
6

> <PUBCHEM_CONFORMER_ID>
00018CDB00000001

> <PUBCHEM_MMFF94_ENERGY>
120.8477

> <PUBCHEM_FEATURE_SELFOVERLAP>
51.096

> <PUBCHEM_SHAPE_FINGERPRINT>
10616163 171 18265050241287246749
10675989 125 16755522317947525364
10863032 1 18336261245578349646
10906281 52 18268696239510371200
10948715 1 17981325586724474492
10967382 1 18194121815515510181
1100329 8 18121211249631408393
11578080 2 5399978049825967584
116883 192 18335135448909068692
12293681 4 18270959038418790746
12422481 6 18263385632681266536
12553582 1 18265626376890415421
12592029 89 17973433317787885762
13140716 1 18267318546929497009
13224815 77 18342743979400530935
14223421 5 18410862027391860613
14787075 74 17913773816827726331
14790565 3 18048305941230531529
1601671 61 18262234400482324473
16945 1 18118698624990647350
19591789 44 18338795744814363073
19930381 70 18265330616641592390
20600515 1 17906482130632278552
20691752 17 17632583712639447135
20775438 99 17829937288408792431
20905425 154 18409165489308041556
2334 1 17980212880989060649
23419403 2 16954532664660558618
23558518 356 18341040891349634688
23559900 14 18336266837747556382
23566358 2 18411420635012163196
2748010 2 18191605243963698281
3052486 1 18053105309099787978
335352 9 18338237171464317197
4280585 95 18122342643466087094
484989 97 18268708493204807357
9709674 26 18409446994433964727

> <PUBCHEM_SHAPE_MULTIPOLES>
542.79
6.69
4.2
1.24
3.86
1.32
-0.31
-1.37
1.2
-1.06
0.48
-0.75
-0.63
0.58

> <PUBCHEM_SHAPE_SELFOVERLAP>
1218.127

> <PUBCHEM_SHAPE_VOLUME>
277.9

> <PUBCHEM_COORDINATE_TYPE>
2
5
10

$$$$

