18772482
  -OEChem-07051213122D

 60 61  0     0  0  0  0  0  0999 V2000
    5.4641    0.5761    0.0000 O   0  0  0  0  0  0  0  0  0  0  0  0
    7.0917    1.1685    0.0000 O   0  0  0  0  0  0  0  0  0  0  0  0
    5.4071    2.6639    0.0000 N   0  0  0  0  0  0  0  0  0  0  0  0
    5.0981    3.6149    0.0000 N   0  0  0  0  0  0  0  0  0  0  0  0
    2.0000    1.5761    0.0000 N   0  0  0  0  0  0  0  0  0  0  0  0
    3.7320   -3.4239    0.0000 C   0  0  0  0  0  0  0  0  0  0  0  0
    3.7320   -2.4239    0.0000 C   0  0  0  0  0  0  0  0  0  0  0  0
    3.7320   -4.4239    0.0000 C   0  0  0  0  0  0  0  0  0  0  0  0
    2.7320   -3.4239    0.0000 C   0  0  0  0  0  0  0  0  0  0  0  0
    4.7320   -3.4239    0.0000 C   0  0  0  0  0  0  0  0  0  0  0  0
    6.7909   -0.5373    0.0000 C   0  0  0  0  0  0  0  0  0  0  0  0
    4.5981   -1.9239    0.0000 C   0  0  0  0  0  0  0  0  0  0  0  0
    2.8660   -1.9239    0.0000 C   0  0  0  0  0  0  0  0  0  0  0  0
    3.7320   -0.4239    0.0000 C   0  0  0  0  0  0  0  0  0  0  0  0
    4.5981    2.0761    0.0000 C   0  0  0  0  0  0  0  0  0  0  0  0
    4.5981    1.0761    0.0000 C   0  0  0  0  0  0  0  0  0  0  0  0
    4.5981   -0.9239    0.0000 C   0  0  0  0  0  0  0  0  0  0  0  0
    2.8660   -0.9239    0.0000 C   0  0  0  0  0  0  0  0  0  0  0  0
    3.7320    0.5761    0.0000 C   0  0  0  0  0  0  0  0  0  0  0  0
    6.4489    0.4024    0.0000 C   0  0  0  0  0  0  0  0  0  0  0  0
    7.1330   -1.4770    0.0000 C   0  0  0  0  0  0  0  0  0  0  0  0
    7.7306   -0.1952    0.0000 C   0  0  0  0  0  0  0  0  0  0  0  0
    5.8512   -0.8793    0.0000 C   0  0  0  0  0  0  0  0  0  0  0  0
    3.7891    2.6639    0.0000 C   0  0  0  0  0  0  0  0  0  0  0  0
    4.0981    3.6149    0.0000 C   0  0  0  0  0  0  0  0  0  0  0  0
    2.8380    2.3548    0.0000 C   0  0  0  0  0  0  0  0  0  0  0  0
    6.3343    3.0385    0.0000 C   0  0  0  0  0  0  0  0  0  0  0  0
    3.5103    4.4239    0.0000 C   0  0  0  0  0  0  0  0  0  0  0  0
    2.8660    1.0761    0.0000 C   0  0  0  0  0  0  0  0  0  0  0  0
    4.7320   -4.0439    0.0000 H   0  0  0  0  0  0  0  0  0  0  0  0
    5.3520   -3.4239    0.0000 H   0  0  0  0  0  0  0  0  0  0  0  0
    4.7320   -2.8039    0.0000 H   0  0  0  0  0  0  0  0  0  0  0  0
    2.7320   -2.8039    0.0000 H   0  0  0  0  0  0  0  0  0  0  0  0
    2.1120   -3.4239    0.0000 H   0  0  0  0  0  0  0  0  0  0  0  0
    2.7320   -4.0439    0.0000 H   0  0  0  0  0  0  0  0  0  0  0  0
    3.1120   -4.4239    0.0000 H   0  0  0  0  0  0  0  0  0  0  0  0
    3.7320   -5.0439    0.0000 H   0  0  0  0  0  0  0  0  0  0  0  0
    4.3520   -4.4239    0.0000 H   0  0  0  0  0  0  0  0  0  0  0  0
    5.1350   -2.2339    0.0000 H   0  0  0  0  0  0  0  0  0  0  0  0
    2.3291   -2.2339    0.0000 H   0  0  0  0  0  0  0  0  0  0  0  0
    5.1350   -0.6139    0.0000 H   0  0  0  0  0  0  0  0  0  0  0  0
    2.3291   -0.6139    0.0000 H   0  0  0  0  0  0  0  0  0  0  0  0
    5.6392   -0.2967    0.0000 H   0  0  0  0  0  0  0  0  0  0  0  0
    5.2686   -1.0913    0.0000 H   0  0  0  0  0  0  0  0  0  0  0  0
    6.0633   -1.4619    0.0000 H   0  0  0  0  0  0  0  0  0  0  0  0
    7.9427   -0.7779    0.0000 H   0  0  0  0  0  0  0  0  0  0  0  0
    8.3132    0.0168    0.0000 H   0  0  0  0  0  0  0  0  0  0  0  0
    7.5186    0.3874    0.0000 H   0  0  0  0  0  0  0  0  0  0  0  0
    6.5503   -1.6890    0.0000 H   0  0  0  0  0  0  0  0  0  0  0  0
    7.3450   -2.0596    0.0000 H   0  0  0  0  0  0  0  0  0  0  0  0
    7.7156   -1.2649    0.0000 H   0  0  0  0  0  0  0  0  0  0  0  0
    2.6464    2.9445    0.0000 H   0  0  0  0  0  0  0  0  0  0  0  0
    2.2484    2.1632    0.0000 H   0  0  0  0  0  0  0  0  0  0  0  0
    3.0296    1.7652    0.0000 H   0  0  0  0  0  0  0  0  0  0  0  0
    6.5665    2.4636    0.0000 H   0  0  0  0  0  0  0  0  0  0  0  0
    6.9091    3.2707    0.0000 H   0  0  0  0  0  0  0  0  0  0  0  0
    6.1020    3.6133    0.0000 H   0  0  0  0  0  0  0  0  0  0  0  0
    4.0119    4.7884    0.0000 H   0  0  0  0  0  0  0  0  0  0  0  0
    3.1459    4.9255    0.0000 H   0  0  0  0  0  0  0  0  0  0  0  0
    3.0087    4.0595    0.0000 H   0  0  0  0  0  0  0  0  0  0  0  0
  1 16  1  0  0  0  0
  1 20  1  0  0  0  0
  2 20  2  0  0  0  0
  3  4  1  0  0  0  0
  3 15  1  0  0  0  0
  3 27  1  0  0  0  0
  4 25  2  0  0  0  0
  5 29  3  0  0  0  0
  6  7  1  0  0  0  0
  6  8  1  0  0  0  0
  6  9  1  0  0  0  0
  6 10  1  0  0  0  0
  7 12  2  0  0  0  0
  7 13  1  0  0  0  0
  8 36  1  0  0  0  0
  8 37  1  0  0  0  0
  8 38  1  0  0  0  0
  9 33  1  0  0  0  0
  9 34  1  0  0  0  0
  9 35  1  0  0  0  0
 10 30  1  0  0  0  0
 10 31  1  0  0  0  0
 10 32  1  0  0  0  0
 11 20  1  0  0  0  0
 11 21  1  0  0  0  0
 11 22  1  0  0  0  0
 11 23  1  0  0  0  0
 12 17  1  0  0  0  0
 12 39  1  0  0  0  0
 13 18  2  0  0  0  0
 13 40  1  0  0  0  0
 14 17  2  0  0  0  0
 14 18  1  0  0  0  0
 14 19  1  0  0  0  0
 15 16  1  0  0  0  0
 15 24  2  0  0  0  0
 16 19  2  0  0  0  0
 17 41  1  0  0  0  0
 18 42  1  0  0  0  0
 19 29  1  0  0  0  0
 21 49  1  0  0  0  0
 21 50  1  0  0  0  0
 21 51  1  0  0  0  0
 22 46  1  0  0  0  0
 22 47  1  0  0  0  0
 22 48  1  0  0  0  0
 23 43  1  0  0  0  0
 23 44  1  0  0  0  0
 23 45  1  0  0  0  0
 24 25  1  0  0  0  0
 24 26  1  0  0  0  0
 25 28  1  0  0  0  0
 26 52  1  0  0  0  0
 26 53  1  0  0  0  0
 26 54  1  0  0  0  0
 27 55  1  0  0  0  0
 27 56  1  0  0  0  0
 27 57  1  0  0  0  0
 28 58  1  0  0  0  0
 28 59  1  0  0  0  0
 28 60  1  0  0  0  0
M  END
> <PUBCHEM_COMPOUND_CID>
18772482

> <PUBCHEM_COMPOUND_CANONICALIZED>
1

> <PUBCHEM_CACTVS_COMPLEXITY>
681

> <PUBCHEM_CACTVS_HBOND_ACCEPTOR>
4

> <PUBCHEM_CACTVS_HBOND_DONOR>
0

> <PUBCHEM_CACTVS_ROTATABLE_BOND>
6

> <PUBCHEM_CACTVS_SUBSKEYS>
AAADceB7MAAAAAAAAAAAAAAAAAAAAWAAAAAwAAAAAAAAAAABwAAAHgAIAAAADgyBngQyiJIIBAC6ByTyTASyDAAhoAAY2CE4TJgKpiLA8diHtAhkyAFY6A+ggMAPwAAAAAAAAACAAAAAAAAAAAAAAAAAAA==

> <PUBCHEM_IUPAC_OPENEYE_NAME>
[(E)-2-(4-tert-butylphenyl)-2-cyano-1-(2,4,5-trimethylpyrazol-3-yl)vinyl] 2,2-dimethylpropanoate

> <PUBCHEM_IUPAC_CAS_NAME>
2,2-dimethylpropanoic acid [(E)-2-(4-tert-butylphenyl)-2-cyano-1-(2,4,5-trimethyl-3-pyrazolyl)ethenyl] ester

> <PUBCHEM_IUPAC_NAME>
[(E)-2-(4-tert-butylphenyl)-2-cyano-1-(2,4,5-trimethylpyrazol-3-yl)ethenyl] 2,2-dimethylpropanoate

> <PUBCHEM_IUPAC_SYSTEMATIC_NAME>
[(E)-2-(4-tert-butylphenyl)-2-cyano-1-(2,4,5-trimethylpyrazol-3-yl)ethenyl] 2,2-dimethylpropanoate

> <PUBCHEM_IUPAC_TRADITIONAL_NAME>
2,2-dimethylpropionic acid [(E)-2-(4-tert-butylphenyl)-2-cyano-1-(2,4,5-trimethylpyrazol-3-yl)vinyl] ester

> <PUBCHEM_IUPAC_INCHI>
InChI=1S/C24H31N3O2/c1-15-16(2)26-27(9)20(15)21(29-22(28)24(6,7)8)19(14-25)17-10-12-18(13-11-17)23(3,4)5/h10-13H,1-9H3/b21-19-

> <PUBCHEM_IUPAC_INCHIKEY>
APJLTUBHYCOZJI-VZCXRCSSSA-N

> <PUBCHEM_XLOGP3_AA>
5.4

> <PUBCHEM_EXACT_MASS>
393.241627

> <PUBCHEM_MOLECULAR_FORMULA>
C24H31N3O2

> <PUBCHEM_MOLECULAR_WEIGHT>
393.52184

> <PUBCHEM_OPENEYE_CAN_SMILES>
CC1=C(N(N=C1C)C)C(=C(C#N)C2=CC=C(C=C2)C(C)(C)C)OC(=O)C(C)(C)C

> <PUBCHEM_OPENEYE_ISO_SMILES>
CC1=C(N(N=C1C)C)/C(=C(\C#N)/C2=CC=C(C=C2)C(C)(C)C)/OC(=O)C(C)(C)C

> <PUBCHEM_CACTVS_TPSA>
67.9

> <PUBCHEM_MONOISOTOPIC_WEIGHT>
393.241627

> <PUBCHEM_TOTAL_CHARGE>
0

> <PUBCHEM_HEAVY_ATOM_COUNT>
29

> <PUBCHEM_ATOM_DEF_STEREO_COUNT>
0

> <PUBCHEM_ATOM_UDEF_STEREO_COUNT>
0

> <PUBCHEM_BOND_DEF_STEREO_COUNT>
1

> <PUBCHEM_BOND_UDEF_STEREO_COUNT>
0

> <PUBCHEM_ISOTOPIC_ATOM_COUNT>
0

> <PUBCHEM_COMPONENT_COUNT>
1

> <PUBCHEM_CACTVS_TAUTO_COUNT>
1

> <PUBCHEM_COORDINATE_TYPE>
1
5
255

> <PUBCHEM_BONDANNOTATIONS>
12  17  8
13  18  8
14  17  8
14  18  8
15  24  8
24  25  8
3  15  8
3  4  8
4  25  8
7  12  8
7  13  8

$$$$

