11954091
  -OEChem-07051213062D

 57 60  0     1  0  0  0  0  0999 V2000
    4.7950    1.0493    0.0000 O   0  0  0  0  0  0  0  0  0  0  0  0
    7.9821    2.5489    0.0000 O   0  0  0  0  0  0  0  0  0  0  0  0
    2.0000   -2.5030    0.0000 O   0  0  0  0  0  0  0  0  0  0  0  0
    7.3931    0.5493    0.0000 C   0  0  2  0  0  0  0  0  0  0  0  0
    7.3931   -0.4507    0.0000 C   0  0  2  0  0  0  0  0  0  0  0  0
    6.5271   -0.9507    0.0000 C   0  0  1  0  0  0  0  0  0  0  0  0
    5.6610   -0.4507    0.0000 C   0  0  2  0  0  0  0  0  0  0  0  0
    6.5271    1.0493    0.0000 C   0  0  2  0  0  0  0  0  0  0  0  0
    5.6610    0.5493    0.0000 C   0  0  1  0  0  0  0  0  0  0  0  0
    8.3393    0.8540    0.0000 C   0  0  2  0  0  0  0  0  0  0  0  0
    4.7510   -0.9575    0.0000 C   0  0  2  0  0  0  0  0  0  0  0  0
    8.3393   -0.7554    0.0000 C   0  0  0  0  0  0  0  0  0  0  0  0
    8.9229    0.0493    0.0000 C   0  0  0  0  0  0  0  0  0  0  0  0
    6.5431   -1.9922    0.0000 C   0  0  0  0  0  0  0  0  0  0  0  0
    7.3931    1.5493    0.0000 C   0  0  0  0  0  0  0  0  0  0  0  0
    4.7430   -1.9991    0.0000 C   0  0  0  0  0  0  0  0  0  0  0  0
    5.6451   -2.5200    0.0000 C   0  0  0  0  0  0  0  0  0  0  0  0
    3.8242   -0.3935    0.0000 C   0  0  0  0  0  0  0  0  0  0  0  0
    6.5271    2.0493    0.0000 C   0  0  0  0  0  0  0  0  0  0  0  0
    4.7587    0.0424    0.0000 C   0  0  0  0  0  0  0  0  0  0  0  0
    8.6500    1.8046    0.0000 C   0  0  0  0  0  0  0  0  0  0  0  0
    2.8763   -0.9214    0.0000 C   0  0  0  0  0  0  0  0  0  0  0  0
    3.8076   -2.5489    0.0000 C   0  0  0  0  0  0  0  0  0  0  0  0
    2.8680   -2.0064    0.0000 C   0  0  0  0  0  0  0  0  0  0  0  0
    9.6285    2.0108    0.0000 C   0  0  0  0  0  0  0  0  0  0  0  0
    7.4830   -1.2959    0.0000 H   0  0  0  0  0  0  0  0  0  0  0  0
    7.2664   -1.3700    0.0000 H   0  0  0  0  0  0  0  0  0  0  0  0
    6.3972   -0.0257    0.0000 H   0  0  0  0  0  0  0  0  0  0  0  0
    7.0640    1.3593    0.0000 H   0  0  0  0  0  0  0  0  0  0  0  0
    5.1241    0.2393    0.0000 H   0  0  0  0  0  0  0  0  0  0  0  0
    7.9018    1.2934    0.0000 H   0  0  0  0  0  0  0  0  0  0  0  0
    8.0883   -1.3223    0.0000 H   0  0  0  0  0  0  0  0  0  0  0  0
    8.8767   -1.0647    0.0000 H   0  0  0  0  0  0  0  0  0  0  0  0
    9.3838   -0.3654    0.0000 H   0  0  0  0  0  0  0  0  0  0  0  0
    9.3838    0.4640    0.0000 H   0  0  0  0  0  0  0  0  0  0  0  0
    6.7612   -2.5726    0.0000 H   0  0  0  0  0  0  0  0  0  0  0  0
    7.1523   -1.8767    0.0000 H   0  0  0  0  0  0  0  0  0  0  0  0
    8.0131    1.5493    0.0000 H   0  0  0  0  0  0  0  0  0  0  0  0
    7.3931    2.1693    0.0000 H   0  0  0  0  0  0  0  0  0  0  0  0
    6.7731    1.5493    0.0000 H   0  0  0  0  0  0  0  0  0  0  0  0
    5.2478   -2.9959    0.0000 H   0  0  0  0  0  0  0  0  0  0  0  0
    6.0460   -2.9928    0.0000 H   0  0  0  0  0  0  0  0  0  0  0  0
    4.2324    0.0732    0.0000 H   0  0  0  0  0  0  0  0  0  0  0  0
    3.4343    0.0886    0.0000 H   0  0  0  0  0  0  0  0  0  0  0  0
    7.1471    2.0493    0.0000 H   0  0  0  0  0  0  0  0  0  0  0  0
    6.5271    2.6693    0.0000 H   0  0  0  0  0  0  0  0  0  0  0  0
    5.9071    2.0493    0.0000 H   0  0  0  0  0  0  0  0  0  0  0  0
    5.3787    0.0377    0.0000 H   0  0  0  0  0  0  0  0  0  0  0  0
    4.7635    0.6624    0.0000 H   0  0  0  0  0  0  0  0  0  0  0  0
    4.1388    0.0472    0.0000 H   0  0  0  0  0  0  0  0  0  0  0  0
    4.7950    1.6693    0.0000 H   0  0  0  0  0  0  0  0  0  0  0  0
    2.6718   -0.3361    0.0000 H   0  0  0  0  0  0  0  0  0  0  0  0
    2.2647   -1.0228    0.0000 H   0  0  0  0  0  0  0  0  0  0  0  0
    3.8100   -3.1689    0.0000 H   0  0  0  0  0  0  0  0  0  0  0  0
    9.7563    1.4041    0.0000 H   0  0  0  0  0  0  0  0  0  0  0  0
   10.2351    2.1386    0.0000 H   0  0  0  0  0  0  0  0  0  0  0  0
    9.5006    2.6174    0.0000 H   0  0  0  0  0  0  0  0  0  0  0  0
  9  1  1  6  0  0  0
  1 51  1  0  0  0  0
  2 21  2  0  0  0  0
  3 24  2  0  0  0  0
  4  5  1  0  0  0  0
  4  8  1  0  0  0  0
  4 10  1  0  0  0  0
  4 15  1  1  0  0  0
  5  6  1  0  0  0  0
  5 12  1  0  0  0  0
  5 26  1  6  0  0  0
  6  7  1  0  0  0  0
  6 14  1  0  0  0  0
  6 27  1  1  0  0  0
  7  9  1  0  0  0  0
  7 11  1  0  0  0  0
  7 28  1  6  0  0  0
  8  9  1  0  0  0  0
  8 19  1  6  0  0  0
  8 29  1  0  0  0  0
  9 30  1  0  0  0  0
 10 13  1  0  0  0  0
 10 21  1  1  0  0  0
 10 31  1  0  0  0  0
 11 16  1  0  0  0  0
 11 18  1  0  0  0  0
 11 20  1  1  0  0  0
 12 13  1  0  0  0  0
 12 32  1  0  0  0  0
 12 33  1  0  0  0  0
 13 34  1  0  0  0  0
 13 35  1  0  0  0  0
 14 17  1  0  0  0  0
 14 36  1  0  0  0  0
 14 37  1  0  0  0  0
 15 38  1  0  0  0  0
 15 39  1  0  0  0  0
 15 40  1  0  0  0  0
 16 17  1  0  0  0  0
 16 23  2  0  0  0  0
 17 41  1  0  0  0  0
 17 42  1  0  0  0  0
 18 22  1  0  0  0  0
 18 43  1  0  0  0  0
 18 44  1  0  0  0  0
 19 45  1  0  0  0  0
 19 46  1  0  0  0  0
 19 47  1  0  0  0  0
 20 48  1  0  0  0  0
 20 49  1  0  0  0  0
 20 50  1  0  0  0  0
 21 25  1  0  0  0  0
 22 24  1  0  0  0  0
 22 52  1  0  0  0  0
 22 53  1  0  0  0  0
 23 24  1  0  0  0  0
 23 54  1  0  0  0  0
 25 55  1  0  0  0  0
 25 56  1  0  0  0  0
 25 57  1  0  0  0  0
M  END
> <PUBCHEM_COMPOUND_CID>
11954091

> <PUBCHEM_COMPOUND_CANONICALIZED>
1

> <PUBCHEM_CACTVS_COMPLEXITY>
650

> <PUBCHEM_CACTVS_HBOND_ACCEPTOR>
3

> <PUBCHEM_CACTVS_HBOND_DONOR>
1

> <PUBCHEM_CACTVS_ROTATABLE_BOND>
1

> <PUBCHEM_CACTVS_SUBSKEYS>
AAADcfB4MAAAAAAAAAAAAAAAAAAAAYAAAAAwYIAAAAAAAGDAAAAAGgAACAAADxSggAICAAAAAgCIAqBSAAAAAAAgAAAACAEAAEgAEBIAAQAAQAAEgAAIAQOIzPDPgAAAAAAAAADAAAYAADAAAQAACAAAAA==

> <PUBCHEM_IUPAC_OPENEYE_NAME>
(8S,9S,10R,11R,12R,13R,14S,17S)-17-acetyl-11-hydroxy-10,12,13-trimethyl-1,2,6,7,8,9,11,12,14,15,16,17-dodecahydrocyclopenta[a]phenanthren-3-one

> <PUBCHEM_IUPAC_CAS_NAME>
(8S,9S,10R,11R,12R,13R,14S,17S)-17-acetyl-11-hydroxy-10,12,13-trimethyl-1,2,6,7,8,9,11,12,14,15,16,17-dodecahydrocyclopenta[a]phenanthren-3-one

> <PUBCHEM_IUPAC_NAME>
(8S,9S,10R,11R,12R,13R,14S,17S)-17-acetyl-11-hydroxy-10,12,13-trimethyl-1,2,6,7,8,9,11,12,14,15,16,17-dodecahydrocyclopenta[a]phenanthren-3-one

> <PUBCHEM_IUPAC_SYSTEMATIC_NAME>
(8S,9S,10R,11R,12R,13R,14S,17S)-17-ethanoyl-10,12,13-trimethyl-11-oxidanyl-1,2,6,7,8,9,11,12,14,15,16,17-dodecahydrocyclopenta[a]phenanthren-3-one

> <PUBCHEM_IUPAC_TRADITIONAL_NAME>
(8S,9S,10R,11R,12R,13R,14S,17S)-17-acetyl-11-hydroxy-10,12,13-trimethyl-1,2,6,7,8,9,11,12,14,15,16,17-dodecahydrocyclopenta[a]phenanthren-3-one

> <PUBCHEM_IUPAC_INCHI>
InChI=1S/C22H32O3/c1-12-20(25)19-16(18-8-7-17(13(2)23)22(12,18)4)6-5-14-11-15(24)9-10-21(14,19)3/h11-12,16-20,25H,5-10H2,1-4H3/t12-,16-,17+,18-,19+,20+,21-,22+/m0/s1

> <PUBCHEM_IUPAC_INCHIKEY>
JLOPYNSMWUXMEO-FJKSHLSCSA-N

> <PUBCHEM_XLOGP3>
2.8

> <PUBCHEM_EXACT_MASS>
344.235145

> <PUBCHEM_MOLECULAR_FORMULA>
C22H32O3

> <PUBCHEM_MOLECULAR_WEIGHT>
344.48768

> <PUBCHEM_OPENEYE_CAN_SMILES>
CC1C(C2C(CCC3=CC(=O)CCC23C)C4C1(C(CC4)C(=O)C)C)O

> <PUBCHEM_OPENEYE_ISO_SMILES>
C[C@H]1[C@H]([C@H]2[C@@H](CCC3=CC(=O)CC[C@]23C)[C@H]4[C@]1([C@H](CC4)C(=O)C)C)O

> <PUBCHEM_CACTVS_TPSA>
54.4

> <PUBCHEM_MONOISOTOPIC_WEIGHT>
344.235145

> <PUBCHEM_TOTAL_CHARGE>
0

> <PUBCHEM_HEAVY_ATOM_COUNT>
25

> <PUBCHEM_ATOM_DEF_STEREO_COUNT>
8

> <PUBCHEM_ATOM_UDEF_STEREO_COUNT>
0

> <PUBCHEM_BOND_DEF_STEREO_COUNT>
0

> <PUBCHEM_BOND_UDEF_STEREO_COUNT>
0

> <PUBCHEM_ISOTOPIC_ATOM_COUNT>
0

> <PUBCHEM_COMPONENT_COUNT>
1

> <PUBCHEM_CACTVS_TAUTO_COUNT>
15

> <PUBCHEM_COORDINATE_TYPE>
1
5
255

> <PUBCHEM_BONDANNOTATIONS>
9  1  6
10  21  5
11  20  5
4  15  5
5  26  6
6  27  5
7  28  6
8  19  6

$$$$

