441717
  -OEChem-07051212553D

102108  0     1  0  0  0  0  0999 V2000
    3.0766    2.7536    0.6512 O   0  0  0  0  0  0  0  0  0  0  0  0
    4.7945    1.9716   -1.4072 O   0  0  0  0  0  0  0  0  0  0  0  0
    2.3367    1.6971   -2.4226 O   0  0  0  0  0  0  0  0  0  0  0  0
    1.5407   -2.4481    1.7248 O   0  0  0  0  0  0  0  0  0  0  0  0
    6.5399   -0.4237   -1.7346 O   0  0  0  0  0  0  0  0  0  0  0  0
    7.1940   -0.5402    1.2863 O   0  0  0  0  0  0  0  0  0  0  0  0
   -2.4441    1.8222   -0.5256 O   0  0  0  0  0  0  0  0  0  0  0  0
   -3.2132    3.0440   -2.3189 O   0  0  0  0  0  0  0  0  0  0  0  0
   -6.7144   -0.8470    0.7741 O   0  0  0  0  0  0  0  0  0  0  0  0
   -5.5473   -5.6437   -0.1635 O   0  0  0  0  0  0  0  0  0  0  0  0
   -3.8968   -4.4814   -1.2802 O   0  0  0  0  0  0  0  0  0  0  0  0
    1.0716    0.9058    1.8134 N   0  0  2  0  0  0  0  0  0  0  0  0
   -5.0177    0.4172   -0.2536 N   0  0  0  0  0  0  0  0  0  0  0  0
    1.8127   -0.6350    0.0309 C   0  0  2  0  0  0  0  0  0  0  0  0
    0.9909    0.2913   -0.9513 C   0  0  2  0  0  0  0  0  0  0  0  0
    2.2497    0.4639    1.0354 C   0  0  1  0  0  0  0  0  0  0  0  0
    3.0930   -1.2704   -0.6492 C   0  0  1  0  0  0  0  0  0  0  0  0
    2.8969    1.4854    0.0313 C   0  0  2  0  0  0  0  0  0  0  0  0
    4.1083   -0.3122   -1.3043 C   0  0  1  0  0  0  0  0  0  0  0  0
    4.2841    0.9840   -0.4850 C   0  0  1  0  0  0  0  0  0  0  0  0
    1.8374    1.5880   -1.1004 C   0  0  1  0  0  0  0  0  0  0  0  0
   -0.3628    0.6780   -0.2695 C   0  0  2  0  0  0  0  0  0  0  0  0
    0.9435   -1.8187    0.5933 C   0  0  2  0  0  0  0  0  0  0  0  0
    3.9905   -2.1378    0.2761 C   0  0  0  0  0  0  0  0  0  0  0  0
    5.4354   -1.6612    0.0653 C   0  0  1  0  0  0  0  0  0  0  0  0
    5.3884   -1.1516   -1.3651 C   0  0  2  0  0  0  0  0  0  0  0  0
    5.3613    0.8776    0.6311 C   0  0  0  0  0  0  0  0  0  0  0  0
   -0.0511    1.4652    1.0452 C   0  0  0  0  0  0  0  0  0  0  0  0
   -1.1782   -0.5988    0.0151 C   0  0  0  0  0  0  0  0  0  0  0  0
    5.7793   -0.5387    1.0616 C   0  0  2  0  0  0  0  0  0  0  0  0
   -0.4950   -1.5213    0.9932 C   0  0  0  0  0  0  0  0  0  0  0  0
   -1.2381    1.5468   -1.2012 C   0  0  0  0  0  0  0  0  0  0  0  0
    1.3993    1.7199    2.9757 C   0  0  0  0  0  0  0  0  0  0  0  0
    1.3501    2.1973   -3.3168 C   0  0  0  0  0  0  0  0  0  0  0  0
    0.2157    1.8270    3.9222 C   0  0  0  0  0  0  0  0  0  0  0  0
    1.1924   -3.8222    1.7960 C   0  0  0  0  0  0  0  0  0  0  0  0
    7.6250   -1.2822   -2.0746 C   0  0  0  0  0  0  0  0  0  0  0  0
    7.5097    0.0022    2.5570 C   0  0  0  0  0  0  0  0  0  0  0  0
   -3.3579    2.5869   -1.1958 C   0  0  0  0  0  0  0  0  0  0  0  0
   -4.5784    2.8047   -0.3788 C   0  0  0  0  0  0  0  0  0  0  0  0
   -5.3594    1.7357    0.0607 C   0  0  0  0  0  0  0  0  0  0  0  0
   -4.9382    4.1121   -0.0517 C   0  0  0  0  0  0  0  0  0  0  0  0
   -6.5002    1.9743    0.8273 C   0  0  0  0  0  0  0  0  0  0  0  0
   -6.0790    4.3505    0.7149 C   0  0  0  0  0  0  0  0  0  0  0  0
   -6.8599    3.2817    1.1543 C   0  0  0  0  0  0  0  0  0  0  0  0
   -5.6883   -0.7609    0.1077 C   0  0  0  0  0  0  0  0  0  0  0  0
   -4.9745   -1.9893   -0.4454 C   0  0  0  0  0  0  0  0  0  0  0  0
   -5.6602   -3.3042   -0.0834 C   0  0  0  0  0  0  0  0  0  0  0  0
   -4.9079   -4.5148   -0.5924 C   0  0  0  0  0  0  0  0  0  0  0  0
   -4.9551   -6.8806   -0.5734 C   0  0  0  0  0  0  0  0  0  0  0  0
    0.8172   -0.2235   -1.9031 H   0  0  0  0  0  0  0  0  0  0  0  0
    2.9892    0.0731    1.7401 H   0  0  0  0  0  0  0  0  0  0  0  0
    2.7280   -1.9334   -1.4484 H   0  0  0  0  0  0  0  0  0  0  0  0
    3.8213   -0.0851   -2.3361 H   0  0  0  0  0  0  0  0  0  0  0  0
    1.2631    2.5011   -0.9296 H   0  0  0  0  0  0  0  0  0  0  0  0
    0.8825   -2.5441   -0.2324 H   0  0  0  0  0  0  0  0  0  0  0  0
    3.9002   -3.1882   -0.0285 H   0  0  0  0  0  0  0  0  0  0  0  0
    3.7354   -2.0892    1.3343 H   0  0  0  0  0  0  0  0  0  0  0  0
    6.1389   -2.4925    0.1844 H   0  0  0  0  0  0  0  0  0  0  0  0
    5.2322   -1.9812   -2.0699 H   0  0  0  0  0  0  0  0  0  0  0  0
    5.0393    1.4278    1.5245 H   0  0  0  0  0  0  0  0  0  0  0  0
    6.2605    1.4218    0.3064 H   0  0  0  0  0  0  0  0  0  0  0  0
   -0.9624    1.4419    1.6550 H   0  0  0  0  0  0  0  0  0  0  0  0
    0.1267    2.5252    0.8288 H   0  0  0  0  0  0  0  0  0  0  0  0
   -1.3620   -1.1386   -0.9234 H   0  0  0  0  0  0  0  0  0  0  0  0
   -2.1626   -0.3577    0.4316 H   0  0  0  0  0  0  0  0  0  0  0  0
    5.2904   -0.7766    2.0157 H   0  0  0  0  0  0  0  0  0  0  0  0
   -0.5456   -1.1197    2.0124 H   0  0  0  0  0  0  0  0  0  0  0  0
   -1.0758   -2.4506    1.0411 H   0  0  0  0  0  0  0  0  0  0  0  0
   -1.4535    1.0089   -2.1327 H   0  0  0  0  0  0  0  0  0  0  0  0
   -0.7593    2.4977   -1.4477 H   0  0  0  0  0  0  0  0  0  0  0  0
    2.2167    3.1947    0.7352 H   0  0  0  0  0  0  0  0  0  0  0  0
    4.8133    2.8251   -0.9409 H   0  0  0  0  0  0  0  0  0  0  0  0
    1.7290    2.7287    2.7130 H   0  0  0  0  0  0  0  0  0  0  0  0
    2.2195    1.2495    3.5319 H   0  0  0  0  0  0  0  0  0  0  0  0
    1.8207    2.3154   -4.2973 H   0  0  0  0  0  0  0  0  0  0  0  0
    0.9885    3.1802   -2.9999 H   0  0  0  0  0  0  0  0  0  0  0  0
    0.5226    1.4939   -3.4314 H   0  0  0  0  0  0  0  0  0  0  0  0
    0.5439    2.2607    4.8734 H   0  0  0  0  0  0  0  0  0  0  0  0
   -0.2156    0.8445    4.1425 H   0  0  0  0  0  0  0  0  0  0  0  0
   -0.5716    2.4797    3.5327 H   0  0  0  0  0  0  0  0  0  0  0  0
    0.1295   -3.9624    2.0074 H   0  0  0  0  0  0  0  0  0  0  0  0
    1.4743   -4.3509    0.8798 H   0  0  0  0  0  0  0  0  0  0  0  0
    1.7542   -4.2657    2.6235 H   0  0  0  0  0  0  0  0  0  0  0  0
    7.9221   -1.8998   -1.2227 H   0  0  0  0  0  0  0  0  0  0  0  0
    7.3626   -1.9143   -2.9285 H   0  0  0  0  0  0  0  0  0  0  0  0
    8.4756   -0.6561   -2.3578 H   0  0  0  0  0  0  0  0  0  0  0  0
    8.5973   -0.0134    2.6715 H   0  0  0  0  0  0  0  0  0  0  0  0
    7.0766   -0.6054    3.3578 H   0  0  0  0  0  0  0  0  0  0  0  0
    7.1751    1.0397    2.6465 H   0  0  0  0  0  0  0  0  0  0  0  0
   -4.3373    4.9537   -0.3865 H   0  0  0  0  0  0  0  0  0  0  0  0
   -7.1591    1.2079    1.2079 H   0  0  0  0  0  0  0  0  0  0  0  0
   -6.3589    5.3684    0.9701 H   0  0  0  0  0  0  0  0  0  0  0  0
   -4.1789    0.3004   -0.8167 H   0  0  0  0  0  0  0  0  0  0  0  0
   -7.7478    3.4691    1.7513 H   0  0  0  0  0  0  0  0  0  0  0  0
   -4.9118   -1.8892   -1.5359 H   0  0  0  0  0  0  0  0  0  0  0  0
   -3.9491   -1.9910   -0.0576 H   0  0  0  0  0  0  0  0  0  0  0  0
   -6.6703   -3.3236   -0.5084 H   0  0  0  0  0  0  0  0  0  0  0  0
   -5.7400   -3.3866    1.0069 H   0  0  0  0  0  0  0  0  0  0  0  0
   -5.5578   -7.6972   -0.1671 H   0  0  0  0  0  0  0  0  0  0  0  0
   -3.9386   -6.9634   -0.1769 H   0  0  0  0  0  0  0  0  0  0  0  0
   -4.9522   -6.9556   -1.6650 H   0  0  0  0  0  0  0  0  0  0  0  0
  1 18  1  0  0  0  0
  1 72  1  0  0  0  0
  2 20  1  0  0  0  0
  2 73  1  0  0  0  0
  3 21  1  0  0  0  0
  3 34  1  0  0  0  0
  4 23  1  0  0  0  0
  4 36  1  0  0  0  0
  5 26  1  0  0  0  0
  5 37  1  0  0  0  0
  6 30  1  0  0  0  0
  6 38  1  0  0  0  0
  7 32  1  0  0  0  0
  7 39  1  0  0  0  0
  8 39  2  0  0  0  0
  9 46  2  0  0  0  0
 10 49  1  0  0  0  0
 10 50  1  0  0  0  0
 11 49  2  0  0  0  0
 12 16  1  0  0  0  0
 12 28  1  0  0  0  0
 12 33  1  0  0  0  0
 13 41  1  0  0  0  0
 13 46  1  0  0  0  0
 13 94  1  0  0  0  0
 14 15  1  0  0  0  0
 14 16  1  0  0  0  0
 14 17  1  0  0  0  0
 14 23  1  0  0  0  0
 15 21  1  0  0  0  0
 15 22  1  0  0  0  0
 15 51  1  0  0  0  0
 16 18  1  0  0  0  0
 16 52  1  0  0  0  0
 17 19  1  0  0  0  0
 17 24  1  0  0  0  0
 17 53  1  0  0  0  0
 18 20  1  0  0  0  0
 18 21  1  0  0  0  0
 19 20  1  0  0  0  0
 19 26  1  0  0  0  0
 19 54  1  0  0  0  0
 20 27  1  0  0  0  0
 21 55  1  0  0  0  0
 22 28  1  0  0  0  0
 22 29  1  0  0  0  0
 22 32  1  0  0  0  0
 23 31  1  0  0  0  0
 23 56  1  0  0  0  0
 24 25  1  0  0  0  0
 24 57  1  0  0  0  0
 24 58  1  0  0  0  0
 25 26  1  0  0  0  0
 25 30  1  0  0  0  0
 25 59  1  0  0  0  0
 26 60  1  0  0  0  0
 27 30  1  0  0  0  0
 27 61  1  0  0  0  0
 27 62  1  0  0  0  0
 28 63  1  0  0  0  0
 28 64  1  0  0  0  0
 29 31  1  0  0  0  0
 29 65  1  0  0  0  0
 29 66  1  0  0  0  0
 30 67  1  0  0  0  0
 31 68  1  0  0  0  0
 31 69  1  0  0  0  0
 32 70  1  0  0  0  0
 32 71  1  0  0  0  0
 33 35  1  0  0  0  0
 33 74  1  0  0  0  0
 33 75  1  0  0  0  0
 34 76  1  0  0  0  0
 34 77  1  0  0  0  0
 34 78  1  0  0  0  0
 35 79  1  0  0  0  0
 35 80  1  0  0  0  0
 35 81  1  0  0  0  0
 36 82  1  0  0  0  0
 36 83  1  0  0  0  0
 36 84  1  0  0  0  0
 37 85  1  0  0  0  0
 37 86  1  0  0  0  0
 37 87  1  0  0  0  0
 38 88  1  0  0  0  0
 38 89  1  0  0  0  0
 38 90  1  0  0  0  0
 39 40  1  0  0  0  0
 40 41  1  0  0  0  0
 40 42  2  0  0  0  0
 41 43  2  0  0  0  0
 42 44  1  0  0  0  0
 42 91  1  0  0  0  0
 43 45  1  0  0  0  0
 43 92  1  0  0  0  0
 44 45  2  0  0  0  0
 44 93  1  0  0  0  0
 45 95  1  0  0  0  0
 46 47  1  0  0  0  0
 47 48  1  0  0  0  0
 47 96  1  0  0  0  0
 47 97  1  0  0  0  0
 48 49  1  0  0  0  0
 48 98  1  0  0  0  0
 48 99  1  0  0  0  0
 50100  1  0  0  0  0
 50101  1  0  0  0  0
 50102  1  0  0  0  0
M  END
> <PUBCHEM_COMPOUND_CID>
441717

> <PUBCHEM_CONFORMER_RMSD>
1.4

> <PUBCHEM_CONFORMER_DIVERSEORDER>
1
9
21
16
18
2
7
4
14
15
10
5
3
17
8
13
11
6
20
12
19

> <PUBCHEM_MMFF94_PARTIAL_CHARGES>
46
1 -0.68
10 -0.43
11 -0.57
12 -0.81
13 -0.55
16 0.27
18 0.28
2 -0.68
20 0.28
21 0.28
23 0.28
26 0.28
28 0.27
3 -0.56
30 0.28
32 0.28
33 0.27
34 0.28
36 0.28
37 0.28
38 0.28
39 0.63
4 -0.56
40 0.09
41 0.12
42 -0.15
43 -0.15
44 -0.15
45 -0.15
46 0.57
47 0.06
48 0.06
49 0.66
5 -0.56
50 0.28
6 -0.56
7 -0.43
72 0.4
73 0.4
8 -0.57
9 -0.57
91 0.15
92 0.15
93 0.15
94 0.37
95 0.15

> <PUBCHEM_EFFECTIVE_ROTOR_COUNT>
17

> <PUBCHEM_PHARMACOPHORE_FEATURES>
18
1 1 acceptor
1 1 donor
1 11 acceptor
1 12 cation
1 13 donor
1 2 acceptor
1 2 donor
1 3 acceptor
1 4 acceptor
1 5 acceptor
1 6 acceptor
1 8 acceptor
1 9 acceptor
6 14 15 22 23 29 31 rings
6 40 41 42 43 44 45 rings
8 12 14 15 16 18 21 22 28 rings
8 14 15 16 17 18 19 20 21 rings
8 17 19 20 24 25 26 27 30 rings

> <PUBCHEM_HEAVY_ATOM_COUNT>
50

> <PUBCHEM_ATOM_DEF_STEREO_COUNT>
12

> <PUBCHEM_ATOM_UDEF_STEREO_COUNT>
1

> <PUBCHEM_BOND_DEF_STEREO_COUNT>
0

> <PUBCHEM_BOND_UDEF_STEREO_COUNT>
0

> <PUBCHEM_ISOTOPIC_ATOM_COUNT>
0

> <PUBCHEM_COMPONENT_COUNT>
1

> <PUBCHEM_CACTVS_TAUTO_COUNT>
3

> <PUBCHEM_CONFORMER_ID>
0006BD7500000001

> <PUBCHEM_MMFF94_ENERGY>
234.0948

> <PUBCHEM_FEATURE_SELFOVERLAP>
92.844

> <PUBCHEM_SHAPE_FINGERPRINT>
10290309 65 17980762967948122797
10462674 296 18267021644899913191
11578080 2 18342452592288992300
11607047 403 17544201476048748913
13782708 43 18041840593477694839
14068700 675 18271808969333193070
14294032 229 18271807955868597566
14856354 85 18334010636241557653
15183329 4 18130504227277386813
15400415 2 18049721012842827989
18608769 82 18411699889823045604
21814621 53 17821730554782632330
23516275 137 17835495487317830427
244849 19 17677349220257277865
24771293 8 18343867715071514308
25223398 141 18409445878317292317
3504750 166 18342184370947724375
4144715 1 18260550000451428737
4340502 62 18338524161442935600
6086070 43 17531827847711184705
6700243 42 17683201874108792887

> <PUBCHEM_SHAPE_MULTIPOLES>
954.45
19.34
6.4
2.46
1.13
10.74
0.76
2.05
0.06
18.3
-0.69
-3.18
-1.62
-1.24

> <PUBCHEM_SHAPE_SELFOVERLAP>
2064.603

> <PUBCHEM_SHAPE_VOLUME>
515.6

> <PUBCHEM_COORDINATE_TYPE>
2
5
10

$$$$

