62210
  -OEChem-07051213123D

 40 41  0     1  0  0  0  0  0999 V2000
    3.4062    2.7148    0.3093 Cl  0  0  0  0  0  0  0  0  0  0  0  0
    2.6211   -2.2939    0.8640 F   0  0  0  0  0  0  0  0  0  0  0  0
   -5.5562    0.8766    0.4280 F   0  0  0  0  0  0  0  0  0  0  0  0
   -5.4736   -0.9149   -0.7916 F   0  0  0  0  0  0  0  0  0  0  0  0
   -5.2354   -1.0593    1.3650 F   0  0  0  0  0  0  0  0  0  0  0  0
   -1.6819    3.5673    0.2231 O   0  5  0  0  0  0  0  0  0  0  0  0
   -0.9732   -3.4041   -0.3136 O   0  5  0  0  0  0  0  0  0  0  0  0
    0.3302    2.7278   -0.0341 O   0  0  0  0  0  0  0  0  0  0  0  0
    0.8260   -2.1499   -0.4106 O   0  0  0  0  0  0  0  0  0  0  0  0
    0.7529    0.3085   -0.2387 N   0  0  3  0  0  0  0  0  0  0  0  0
   -0.9102    2.5904    0.0797 N   0  3  0  0  0  0  0  0  0  0  0  0
   -0.4148   -2.2825   -0.2956 N   0  3  0  0  0  0  0  0  0  0  0  0
   -0.6497    0.1555   -0.1108 C   0  0  0  0  0  0  0  0  0  0  0  0
    1.5956    0.3032    0.9365 C   0  0  0  0  0  0  0  0  0  0  0  0
    1.3522    0.4571   -1.5466 C   0  0  0  0  0  0  0  0  0  0  0  0
   -1.4620    1.2787    0.0454 C   0  0  0  0  0  0  0  0  0  0  0  0
   -1.2183   -1.1178   -0.1393 C   0  0  0  0  0  0  0  0  0  0  0  0
    3.0357    0.0291    0.5928 C   0  0  0  0  0  0  0  0  0  0  0  0
   -3.4115   -0.1448    0.1441 C   0  0  0  0  0  0  0  0  0  0  0  0
   -2.8429    1.1285    0.1727 C   0  0  0  0  0  0  0  0  0  0  0  0
   -2.5992   -1.2679   -0.0118 C   0  0  0  0  0  0  0  0  0  0  0  0
    0.3026    0.3865   -2.6427 C   0  0  0  0  0  0  0  0  0  0  0  0
    3.9133    1.0649    0.2979 C   0  0  0  0  0  0  0  0  0  0  0  0
    3.4653   -1.2925    0.5788 C   0  0  0  0  0  0  0  0  0  0  0  0
   -4.8880   -0.3056    0.2815 C   0  0  0  0  0  0  0  0  0  0  0  0
    5.2411    0.7751   -0.0159 C   0  0  0  0  0  0  0  0  0  0  0  0
    4.7932   -1.5823    0.2648 C   0  0  0  0  0  0  0  0  0  0  0  0
    5.6812   -0.5485   -0.0325 C   0  0  0  0  0  0  0  0  0  0  0  0
    1.2535   -0.4673    1.6422 H   0  0  0  0  0  0  0  0  0  0  0  0
    1.4984    1.2282    1.5150 H   0  0  0  0  0  0  0  0  0  0  0  0
    1.8603    1.4197   -1.6486 H   0  0  0  0  0  0  0  0  0  0  0  0
    2.0851   -0.3293   -1.7570 H   0  0  0  0  0  0  0  0  0  0  0  0
   -3.4940    1.9904    0.2955 H   0  0  0  0  0  0  0  0  0  0  0  0
   -3.0727   -2.2469   -0.0299 H   0  0  0  0  0  0  0  0  0  0  0  0
   -0.2089   -0.5792   -2.6868 H   0  0  0  0  0  0  0  0  0  0  0  0
   -0.4394    1.1880   -2.5778 H   0  0  0  0  0  0  0  0  0  0  0  0
    0.7983    0.5108   -3.6132 H   0  0  0  0  0  0  0  0  0  0  0  0
    5.9457    1.5692   -0.2500 H   0  0  0  0  0  0  0  0  0  0  0  0
    5.1353   -2.6128    0.2519 H   0  0  0  0  0  0  0  0  0  0  0  0
    6.7150   -0.7743   -0.2770 H   0  0  0  0  0  0  0  0  0  0  0  0
  1 23  1  0  0  0  0
  2 24  1  0  0  0  0
  3 25  1  0  0  0  0
  4 25  1  0  0  0  0
  5 25  1  0  0  0  0
  6 11  1  0  0  0  0
  7 12  1  0  0  0  0
  8 11  2  0  0  0  0
  9 12  2  0  0  0  0
 10 13  1  0  0  0  0
 10 14  1  0  0  0  0
 10 15  1  0  0  0  0
 11 16  1  0  0  0  0
 12 17  1  0  0  0  0
 13 16  2  0  0  0  0
 13 17  1  0  0  0  0
 14 18  1  0  0  0  0
 14 29  1  0  0  0  0
 14 30  1  0  0  0  0
 15 22  1  0  0  0  0
 15 31  1  0  0  0  0
 15 32  1  0  0  0  0
 16 20  1  0  0  0  0
 17 21  2  0  0  0  0
 18 23  1  0  0  0  0
 18 24  2  0  0  0  0
 19 20  2  0  0  0  0
 19 21  1  0  0  0  0
 19 25  1  0  0  0  0
 20 33  1  0  0  0  0
 21 34  1  0  0  0  0
 22 35  1  0  0  0  0
 22 36  1  0  0  0  0
 22 37  1  0  0  0  0
 23 26  2  0  0  0  0
 24 27  1  0  0  0  0
 26 28  1  0  0  0  0
 26 38  1  0  0  0  0
 27 28  2  0  0  0  0
 27 39  1  0  0  0  0
 28 40  1  0  0  0  0
M  CHG  4   6  -1   7  -1  11   1  12   1
M  END
> <PUBCHEM_COMPOUND_CID>
62210

> <PUBCHEM_CONFORMER_RMSD>
0.8

> <PUBCHEM_CONFORMER_DIVERSEORDER>
1
4
8
6
10
5
3
7
2
9
12
11

> <PUBCHEM_MMFF94_PARTIAL_CHARGES>
32
1 -0.18
10 -0.84
11 0.91
12 0.91
13 0.1
14 0.51
15 0.37
16 0.13
17 0.13
18 -0.14
19 -0.14
2 -0.19
20 -0.15
21 -0.15
23 0.18
24 0.19
25 1.16
26 -0.15
27 -0.15
28 -0.15
3 -0.34
33 0.15
34 0.15
38 0.15
39 0.15
4 -0.34
40 0.15
5 -0.34
6 -0.52
7 -0.52
8 -0.52
9 -0.52

> <PUBCHEM_EFFECTIVE_ROTOR_COUNT>
7

> <PUBCHEM_PHARMACOPHORE_FEATURES>
9
1 10 cation
1 6 acceptor
1 6 anion
1 7 acceptor
1 7 anion
1 8 acceptor
1 9 acceptor
6 13 16 17 19 20 21 rings
6 18 23 24 26 27 28 rings

> <PUBCHEM_HEAVY_ATOM_COUNT>
28

> <PUBCHEM_ATOM_DEF_STEREO_COUNT>
0

> <PUBCHEM_ATOM_UDEF_STEREO_COUNT>
0

> <PUBCHEM_BOND_DEF_STEREO_COUNT>
0

> <PUBCHEM_BOND_UDEF_STEREO_COUNT>
0

> <PUBCHEM_ISOTOPIC_ATOM_COUNT>
0

> <PUBCHEM_COMPONENT_COUNT>
1

> <PUBCHEM_CACTVS_TAUTO_COUNT>
1

> <PUBCHEM_CONFORMER_ID>
0000F30200000001

> <PUBCHEM_MMFF94_ENERGY>
121.8069

> <PUBCHEM_FEATURE_SELFOVERLAP>
45.832

> <PUBCHEM_SHAPE_FINGERPRINT>
10366900 7 18202275923054896488
10906281 52 18268410460891735065
1100329 8 18267304227123072120
11578080 2 17702686417943138748
12011746 2 18408888438152738438
12107183 9 17547576332552947536
12166972 35 18130508535778171501
12173636 292 18337121163088625148
12236239 1 17917709097776510468
12553582 1 18338532862666537946
12633257 1 18040431079552449426
12788726 201 18041827472152548528
12930653 34 18120372313795782477
13140716 1 18268435637921699410
13862211 1 18408889520811817415
14341114 176 18409444783026882584
14787075 74 18272653428533366347
14790565 3 18409161108705526897
14955137 171 18270109115914286075
15196674 1 18410857702101116465
15927050 60 17687462364900888668
17349148 13 17967529043584004565
17492 89 18267868478705435050
17980427 23 17845923126266545317
1813 80 17203610389339809468
19319366 153 18059859454980729442
19591789 44 18409451426998417704
20028762 73 18041286491152077343
20510252 161 18261393402994292560
20600515 1 18261098639573572517
21033648 29 18269856283900977065
21267235 1 18411412943342693386
23402539 116 18187370917553407469
23559900 14 18263085436026631416
335352 9 18409450276137008646
34934 24 18192435177827180300
350125 39 18409729607735381232
392239 28 18408598184526599747
465052 167 18259981561597731518
5104073 3 18411139112690313235

> <PUBCHEM_SHAPE_MULTIPOLES>
510.58
10.87
3.03
1.14
2.35
0.71
0.76
-1.53
-2.37
-0.23
-0.23
0.02
0.02
-0.23

> <PUBCHEM_SHAPE_SELFOVERLAP>
1101.074

> <PUBCHEM_SHAPE_VOLUME>
282.3

> <PUBCHEM_COORDINATE_TYPE>
2
5
10

$$$$

