3080558
  -OEChem-07051213113D

 57 60  0     1  0  0  0  0  0999 V2000
   -6.0577   -0.2150   -0.5351 O   0  0  0  0  0  0  0  0  0  0  0  0
    6.1601   -0.6118    0.2767 O   0  0  0  0  0  0  0  0  0  0  0  0
   -1.4938    0.9651   -0.3092 C   0  0  2  0  0  0  0  0  0  0  0  0
   -2.3060   -0.2363    0.2205 C   0  0  1  0  0  0  0  0  0  0  0  0
   -0.0438    0.9764    0.1892 C   0  0  1  0  0  0  0  0  0  0  0  0
    0.6538   -0.3379   -0.2816 C   0  0  1  0  0  0  0  0  0  0  0  0
    2.1702   -0.3956    0.1388 C   0  0  2  0  0  0  0  0  0  0  0  0
   -3.6787    0.0944   -0.4146 C   0  0  2  0  0  0  0  0  0  0  0  0
   -1.6449   -1.5183   -0.3062 C   0  0  0  0  0  0  0  0  0  0  0  0
   -0.1640   -1.6006    0.1060 C   0  0  0  0  0  0  0  0  0  0  0  0
    2.8788    0.9005   -0.3685 C   0  0  1  0  0  0  0  0  0  0  0  0
   -2.3905    2.1635   -0.0128 C   0  0  0  0  0  0  0  0  0  0  0  0
    0.7115    2.2082   -0.3249 C   0  0  0  0  0  0  0  0  0  0  0  0
   -3.8187    1.6211   -0.2085 C   0  0  0  0  0  0  0  0  0  0  0  0
    2.1789    2.1883    0.0854 C   0  0  0  0  0  0  0  0  0  0  0  0
    2.8570   -1.6311   -0.5264 C   0  0  0  0  0  0  0  0  0  0  0  0
   -2.4077   -0.2982    1.7653 C   0  0  0  0  0  0  0  0  0  0  0  0
    2.3082   -0.5388    1.6782 C   0  0  0  0  0  0  0  0  0  0  0  0
    4.3646    0.9478    0.0174 C   0  0  0  0  0  0  0  0  0  0  0  0
   -4.8770   -0.6856    0.1070 C   0  0  2  0  0  0  0  0  0  0  0  0
    4.2994   -1.4219   -0.9885 C   0  0  0  0  0  0  0  0  0  0  0  0
    5.0324   -0.3953   -0.1661 C   0  0  0  0  0  0  0  0  0  0  0  0
   -4.7321   -2.1789   -0.1420 C   0  0  0  0  0  0  0  0  0  0  0  0
   -1.4448    0.8910   -1.4089 H   0  0  0  0  0  0  0  0  0  0  0  0
   -0.0402    1.0245    1.2833 H   0  0  0  0  0  0  0  0  0  0  0  0
    0.6435   -0.3102   -1.3832 H   0  0  0  0  0  0  0  0  0  0  0  0
   -3.6202   -0.0646   -1.5027 H   0  0  0  0  0  0  0  0  0  0  0  0
   -1.7080   -1.5555   -1.4012 H   0  0  0  0  0  0  0  0  0  0  0  0
   -2.1305   -2.4214    0.0668 H   0  0  0  0  0  0  0  0  0  0  0  0
   -0.1099   -1.7760    1.1843 H   0  0  0  0  0  0  0  0  0  0  0  0
    0.2697   -2.4880   -0.3686 H   0  0  0  0  0  0  0  0  0  0  0  0
    2.8305    0.8872   -1.4684 H   0  0  0  0  0  0  0  0  0  0  0  0
   -2.1896    3.0025   -0.6869 H   0  0  0  0  0  0  0  0  0  0  0  0
   -2.2549    2.5227    1.0134 H   0  0  0  0  0  0  0  0  0  0  0  0
    0.2498    3.1235    0.0632 H   0  0  0  0  0  0  0  0  0  0  0  0
    0.6434    2.2595   -1.4191 H   0  0  0  0  0  0  0  0  0  0  0  0
   -4.4265    1.8672    0.6697 H   0  0  0  0  0  0  0  0  0  0  0  0
   -4.2966    2.0847   -1.0788 H   0  0  0  0  0  0  0  0  0  0  0  0
    2.6818    3.0565   -0.3584 H   0  0  0  0  0  0  0  0  0  0  0  0
    2.2576    2.3091    1.1723 H   0  0  0  0  0  0  0  0  0  0  0  0
    2.2920   -1.9504   -1.4117 H   0  0  0  0  0  0  0  0  0  0  0  0
    2.8247   -2.4878    0.1594 H   0  0  0  0  0  0  0  0  0  0  0  0
   -2.9377   -1.1996    2.0906 H   0  0  0  0  0  0  0  0  0  0  0  0
   -1.4292   -0.3244    2.2520 H   0  0  0  0  0  0  0  0  0  0  0  0
   -2.9428    0.5601    2.1839 H   0  0  0  0  0  0  0  0  0  0  0  0
    1.8357   -1.4560    2.0431 H   0  0  0  0  0  0  0  0  0  0  0  0
    3.3547   -0.5976    1.9931 H   0  0  0  0  0  0  0  0  0  0  0  0
    1.8558    0.2977    2.2170 H   0  0  0  0  0  0  0  0  0  0  0  0
    4.4883    1.2460    1.0645 H   0  0  0  0  0  0  0  0  0  0  0  0
    4.8882    1.6779   -0.6098 H   0  0  0  0  0  0  0  0  0  0  0  0
   -5.0295   -0.5228    1.1795 H   0  0  0  0  0  0  0  0  0  0  0  0
    4.3184   -1.0783   -2.0296 H   0  0  0  0  0  0  0  0  0  0  0  0
    4.8426   -2.3726   -0.9537 H   0  0  0  0  0  0  0  0  0  0  0  0
   -4.0929   -2.6602    0.5999 H   0  0  0  0  0  0  0  0  0  0  0  0
   -5.7125   -2.6654   -0.0747 H   0  0  0  0  0  0  0  0  0  0  0  0
   -4.3567   -2.3892   -1.1489 H   0  0  0  0  0  0  0  0  0  0  0  0
   -6.2305    0.6893   -0.2241 H   0  0  0  0  0  0  0  0  0  0  0  0
  1 20  1  0  0  0  0
  1 57  1  0  0  0  0
  2 22  2  0  0  0  0
  3  4  1  0  0  0  0
  3  5  1  0  0  0  0
  3 12  1  0  0  0  0
  3 24  1  0  0  0  0
  4  8  1  0  0  0  0
  4  9  1  0  0  0  0
  4 17  1  0  0  0  0
  5  6  1  0  0  0  0
  5 13  1  0  0  0  0
  5 25  1  0  0  0  0
  6  7  1  0  0  0  0
  6 10  1  0  0  0  0
  6 26  1  0  0  0  0
  7 11  1  0  0  0  0
  7 16  1  0  0  0  0
  7 18  1  0  0  0  0
  8 14  1  0  0  0  0
  8 20  1  0  0  0  0
  8 27  1  0  0  0  0
  9 10  1  0  0  0  0
  9 28  1  0  0  0  0
  9 29  1  0  0  0  0
 10 30  1  0  0  0  0
 10 31  1  0  0  0  0
 11 15  1  0  0  0  0
 11 19  1  0  0  0  0
 11 32  1  0  0  0  0
 12 14  1  0  0  0  0
 12 33  1  0  0  0  0
 12 34  1  0  0  0  0
 13 15  1  0  0  0  0
 13 35  1  0  0  0  0
 13 36  1  0  0  0  0
 14 37  1  0  0  0  0
 14 38  1  0  0  0  0
 15 39  1  0  0  0  0
 15 40  1  0  0  0  0
 16 21  1  0  0  0  0
 16 41  1  0  0  0  0
 16 42  1  0  0  0  0
 17 43  1  0  0  0  0
 17 44  1  0  0  0  0
 17 45  1  0  0  0  0
 18 46  1  0  0  0  0
 18 47  1  0  0  0  0
 18 48  1  0  0  0  0
 19 22  1  0  0  0  0
 19 49  1  0  0  0  0
 19 50  1  0  0  0  0
 20 23  1  0  0  0  0
 20 51  1  0  0  0  0
 21 22  1  0  0  0  0
 21 52  1  0  0  0  0
 21 53  1  0  0  0  0
 23 54  1  0  0  0  0
 23 55  1  0  0  0  0
 23 56  1  0  0  0  0
M  END
> <PUBCHEM_COMPOUND_CID>
3080558

> <PUBCHEM_CONFORMER_RMSD>
0.6

> <PUBCHEM_CONFORMER_DIVERSEORDER>
1

> <PUBCHEM_MMFF94_PARTIAL_CHARGES>
7
1 -0.68
19 0.06
2 -0.57
20 0.28
21 0.06
22 0.45
57 0.4

> <PUBCHEM_EFFECTIVE_ROTOR_COUNT>
3

> <PUBCHEM_PHARMACOPHORE_FEATURES>
7
1 1 acceptor
1 1 donor
1 2 acceptor
5 3 4 8 12 14 rings
6 3 4 5 6 9 10 rings
6 5 6 7 11 13 15 rings
6 7 11 16 19 21 22 rings

> <PUBCHEM_HEAVY_ATOM_COUNT>
23

> <PUBCHEM_ATOM_DEF_STEREO_COUNT>
8

> <PUBCHEM_ATOM_UDEF_STEREO_COUNT>
0

> <PUBCHEM_BOND_DEF_STEREO_COUNT>
0

> <PUBCHEM_BOND_UDEF_STEREO_COUNT>
0

> <PUBCHEM_ISOTOPIC_ATOM_COUNT>
0

> <PUBCHEM_COMPONENT_COUNT>
1

> <PUBCHEM_CACTVS_TAUTO_COUNT>
3

> <PUBCHEM_CONFORMER_ID>
002F016E00000001

> <PUBCHEM_MMFF94_ENERGY>
85.368

> <PUBCHEM_FEATURE_SELFOVERLAP>
35.613

> <PUBCHEM_SHAPE_FINGERPRINT>
10 15 18337121077648339072
10366900 7 17561363980436657272
11315181 36 18059852861688406244
11578080 2 5038575196378953152
12011746 2 18272371979389600455
12107183 9 17621324962315257803
12166972 35 18113336388449906856
12236239 1 17847062212007348338
12403259 226 18336268955388199953
12403259 415 18041008353169243825
12403260 363 18410572864323599821
12788726 201 18200881789392512617
12916754 54 18334853888381067817
13140716 1 18265891346033579163
13224815 77 18412265055620680977
13288520 33 18408884040396345229
13533116 47 17821728312477134744
13862211 1 18411703183720089478
14341114 176 18408879638207795541
15196674 1 18410573993841937444
15536298 74 18408041788503594928
15788980 27 18201998824175034736
15848702 151 18041271162159927310
16945 1 18267573620452010436
17349148 13 17894346666203896591
17492 89 18409730638654548551
18681886 176 18336553724308817120
19489759 90 17775286075381166039
19591789 44 18410855473023892655
200 152 18040436598733123953
20028762 73 18187650150410490863
20645477 70 18341051822278507052
21033648 29 17458925819271495073
21236236 1 18336545010384890065
21267235 1 18411130333771917014
21279426 13 18195528318425549535
21682296 61 18115858767172289638
221357 26 18409450301722319381
221490 88 18339918208515130323
22393880 68 18272379697525180021
23402539 116 18409453591434932303
23557571 272 18259701224396983492
23559900 14 18410862018970809113
2871803 45 18201722846682785385
3004659 81 18272937106707051788
335352 9 18411138031123386701
34797466 226 17313096416087193308
34934 24 18411985797406257654
350125 39 18409728439440979573
351380 180 18412826867486792565
3545911 37 18333731308283653846
4214541 1 18410011061226595381
4340502 62 14996282522573922388
465052 167 18335413513940456263
474 4 17346026754794639204
5104073 3 18408041831411031760
542803 24 17312818277582159593
7364860 26 18262800653635251208
7495541 125 17458628869707068474
9709674 26 18270114604835010947

> <PUBCHEM_SHAPE_MULTIPOLES>
461.59
11.51
2.24
0.98
0.2
0.54
0.39
-3.35
-1.18
-0.52
-0.28
0.09
-0.18
0.25

> <PUBCHEM_SHAPE_SELFOVERLAP>
976.071

> <PUBCHEM_SHAPE_VOLUME>
257.7

> <PUBCHEM_COORDINATE_TYPE>
2
5
10

$$$$

