443341
  -OEChem-07051213023D

 55 57  0     1  0  0  0  0  0999 V2000
    0.8428    2.3297    0.6060 O   0  0  0  0  0  0  0  0  0  0  0  0
   -0.8127   -0.9884    0.9915 O   0  0  0  0  0  0  0  0  0  0  0  0
    0.8729   -2.0044   -0.2159 O   0  0  0  0  0  0  0  0  0  0  0  0
   -2.0862    0.2063   -0.5561 O   0  0  0  0  0  0  0  0  0  0  0  0
    1.9545    3.5655   -1.0427 O   0  0  0  0  0  0  0  0  0  0  0  0
   -3.0637   -2.6052    1.5628 O   0  0  0  0  0  0  0  0  0  0  0  0
   -0.6108    2.7436    2.8752 O   0  0  0  0  0  0  0  0  0  0  0  0
   -5.5950   -1.1819    1.0651 O   0  0  0  0  0  0  0  0  0  0  0  0
   -5.5961   -0.0132   -1.5788 O   0  0  0  0  0  0  0  0  0  0  0  0
    5.3061   -0.6764    0.1564 O   0  0  0  0  0  0  0  0  0  0  0  0
   -1.9258    1.6206   -2.9076 O   0  0  0  0  0  0  0  0  0  0  0  0
    4.8099   -2.0782   -1.6178 O   0  0  0  0  0  0  0  0  0  0  0  0
    1.4003    0.0076    1.1548 C   0  0  1  0  0  0  0  0  0  0  0  0
    2.7358    0.1756    0.3846 C   0  0  2  0  0  0  0  0  0  0  0  0
    0.9594    1.3943    1.6826 C   0  0  2  0  0  0  0  0  0  0  0  0
    0.3811   -0.7377    0.2543 C   0  0  2  0  0  0  0  0  0  0  0  0
    2.6554    1.3210   -0.6372 C   0  0  0  0  0  0  0  0  0  0  0  0
    2.1011    2.5954   -0.0101 C   0  0  2  0  0  0  0  0  0  0  0  0
    3.0989   -1.1059   -0.2969 C   0  0  0  0  0  0  0  0  0  0  0  0
   -1.9535   -1.0336    0.1350 C   0  0  2  0  0  0  0  0  0  0  0  0
   -3.1837   -1.2976    1.0032 C   0  0  1  0  0  0  0  0  0  0  0  0
   -0.3537    1.4156    2.4531 C   0  0  0  0  0  0  0  0  0  0  0  0
   -4.4714   -1.2125    0.1835 C   0  0  2  0  0  0  0  0  0  0  0  0
   -4.5030    0.0574   -0.6670 C   0  0  1  0  0  0  0  0  0  0  0  0
   -3.1990    0.2179   -1.4520 C   0  0  1  0  0  0  0  0  0  0  0  0
    2.2011   -2.0673   -0.5294 C   0  0  0  0  0  0  0  0  0  0  0  0
    4.4872   -1.3601   -0.6833 C   0  0  0  0  0  0  0  0  0  0  0  0
   -3.1593    1.5368   -2.2175 C   0  0  0  0  0  0  0  0  0  0  0  0
    6.7073   -0.8245   -0.0958 C   0  0  0  0  0  0  0  0  0  0  0  0
    1.5842   -0.6318    2.0314 H   0  0  0  0  0  0  0  0  0  0  0  0
    3.4892    0.4401    1.1380 H   0  0  0  0  0  0  0  0  0  0  0  0
    1.7352    1.7746    2.3626 H   0  0  0  0  0  0  0  0  0  0  0  0
    0.1818   -0.1195   -0.6289 H   0  0  0  0  0  0  0  0  0  0  0  0
    2.0172    1.0330   -1.4839 H   0  0  0  0  0  0  0  0  0  0  0  0
    3.6426    1.5253   -1.0713 H   0  0  0  0  0  0  0  0  0  0  0  0
    2.8027    2.9961    0.7319 H   0  0  0  0  0  0  0  0  0  0  0  0
   -1.8074   -1.8492   -0.5863 H   0  0  0  0  0  0  0  0  0  0  0  0
   -3.2221   -0.5956    1.8446 H   0  0  0  0  0  0  0  0  0  0  0  0
   -0.3350    0.7529    3.3230 H   0  0  0  0  0  0  0  0  0  0  0  0
   -1.2034    1.1627    1.8208 H   0  0  0  0  0  0  0  0  0  0  0  0
   -4.5927   -2.1047   -0.4431 H   0  0  0  0  0  0  0  0  0  0  0  0
   -4.6704    0.9205   -0.0095 H   0  0  0  0  0  0  0  0  0  0  0  0
   -3.0738   -0.5988   -2.1761 H   0  0  0  0  0  0  0  0  0  0  0  0
    2.4274   -3.0261   -0.9767 H   0  0  0  0  0  0  0  0  0  0  0  0
   -3.9679    1.6068   -2.9503 H   0  0  0  0  0  0  0  0  0  0  0  0
   -3.2161    2.3881   -1.5310 H   0  0  0  0  0  0  0  0  0  0  0  0
    1.9832    4.4400   -0.6189 H   0  0  0  0  0  0  0  0  0  0  0  0
   -3.0301   -3.2445    0.8308 H   0  0  0  0  0  0  0  0  0  0  0  0
    0.1063    3.0057    3.4773 H   0  0  0  0  0  0  0  0  0  0  0  0
   -6.3945   -1.1121    0.5156 H   0  0  0  0  0  0  0  0  0  0  0  0
   -5.7515    0.8806   -1.9270 H   0  0  0  0  0  0  0  0  0  0  0  0
   -1.9181    2.4704   -3.3803 H   0  0  0  0  0  0  0  0  0  0  0  0
    7.0023   -1.8729    0.0100 H   0  0  0  0  0  0  0  0  0  0  0  0
    6.9531   -0.4525   -1.0950 H   0  0  0  0  0  0  0  0  0  0  0  0
    7.2504   -0.2303    0.6438 H   0  0  0  0  0  0  0  0  0  0  0  0
  1 15  1  0  0  0  0
  1 18  1  0  0  0  0
  2 16  1  0  0  0  0
  2 20  1  0  0  0  0
  3 16  1  0  0  0  0
  3 26  1  0  0  0  0
  4 20  1  0  0  0  0
  4 25  1  0  0  0  0
  5 18  1  0  0  0  0
  5 47  1  0  0  0  0
  6 21  1  0  0  0  0
  6 48  1  0  0  0  0
  7 22  1  0  0  0  0
  7 49  1  0  0  0  0
  8 23  1  0  0  0  0
  8 50  1  0  0  0  0
  9 24  1  0  0  0  0
  9 51  1  0  0  0  0
 10 27  1  0  0  0  0
 10 29  1  0  0  0  0
 11 28  1  0  0  0  0
 11 52  1  0  0  0  0
 12 27  2  0  0  0  0
 13 14  1  0  0  0  0
 13 15  1  0  0  0  0
 13 16  1  0  0  0  0
 13 30  1  0  0  0  0
 14 17  1  0  0  0  0
 14 19  1  0  0  0  0
 14 31  1  0  0  0  0
 15 22  1  0  0  0  0
 15 32  1  0  0  0  0
 16 33  1  0  0  0  0
 17 18  1  0  0  0  0
 17 34  1  0  0  0  0
 17 35  1  0  0  0  0
 18 36  1  0  0  0  0
 19 26  2  0  0  0  0
 19 27  1  0  0  0  0
 20 21  1  0  0  0  0
 20 37  1  0  0  0  0
 21 23  1  0  0  0  0
 21 38  1  0  0  0  0
 22 39  1  0  0  0  0
 22 40  1  0  0  0  0
 23 24  1  0  0  0  0
 23 41  1  0  0  0  0
 24 25  1  0  0  0  0
 24 42  1  0  0  0  0
 25 28  1  0  0  0  0
 25 43  1  0  0  0  0
 26 44  1  0  0  0  0
 28 45  1  0  0  0  0
 28 46  1  0  0  0  0
 29 53  1  0  0  0  0
 29 54  1  0  0  0  0
 29 55  1  0  0  0  0
M  END
> <PUBCHEM_COMPOUND_CID>
443341

> <PUBCHEM_CONFORMER_RMSD>
1

> <PUBCHEM_CONFORMER_DIVERSEORDER>
1
75
71
92
8
16
77
89
76
66
83
28
58
101
48
35
65
23
54
21
40
74
73
10
25
70
90
37
47
24
6
49
61
98
79
34
100
50
2
62
103
86
64
95
30
14
105
51
59
72
12
43
68
13
99
4
52
17
85
60
53
22
20
15
91
3
39
87
46
63
56
31
5
81
44
7
55
18
11
69
88
9
41
27
104
57
96
93
26
102
19
38
82
84
97
80
78
67
29
33
45
36
42
32
94

> <PUBCHEM_MMFF94_PARTIAL_CHARGES>
34
1 -0.56
10 -0.43
11 -0.68
12 -0.57
14 0.14
15 0.28
16 0.56
18 0.56
19 -0.12
2 -0.56
20 0.56
21 0.28
22 0.28
23 0.28
24 0.28
25 0.28
26 -0.07
27 0.71
28 0.28
29 0.28
3 -0.36
4 -0.56
44 0.15
47 0.4
48 0.4
49 0.4
5 -0.68
50 0.4
51 0.4
52 0.4
6 -0.68
7 -0.68
8 -0.68
9 -0.68

> <PUBCHEM_EFFECTIVE_ROTOR_COUNT>
8.4

> <PUBCHEM_PHARMACOPHORE_FEATURES>
20
1 1 acceptor
1 11 acceptor
1 11 donor
1 12 acceptor
1 2 acceptor
1 3 acceptor
1 4 acceptor
1 5 acceptor
1 5 donor
1 6 acceptor
1 6 donor
1 7 acceptor
1 7 donor
1 8 acceptor
1 8 donor
1 9 acceptor
1 9 donor
6 1 13 14 15 17 18 rings
6 3 13 14 16 19 26 rings
6 4 20 21 23 24 25 rings

> <PUBCHEM_HEAVY_ATOM_COUNT>
29

> <PUBCHEM_ATOM_DEF_STEREO_COUNT>
9

> <PUBCHEM_ATOM_UDEF_STEREO_COUNT>
1

> <PUBCHEM_BOND_DEF_STEREO_COUNT>
0

> <PUBCHEM_BOND_UDEF_STEREO_COUNT>
0

> <PUBCHEM_ISOTOPIC_ATOM_COUNT>
0

> <PUBCHEM_COMPONENT_COUNT>
1

> <PUBCHEM_CACTVS_TAUTO_COUNT>
1

> <PUBCHEM_CONFORMER_ID>
0006C3CD00000001

> <PUBCHEM_MMFF94_ENERGY>
80.076

> <PUBCHEM_FEATURE_SELFOVERLAP>
101.699

> <PUBCHEM_SHAPE_FINGERPRINT>
10165383 225 17833258732215296017
10366900 7 18201731669141950991
10498660 4 17418107503058833757
11007060 377 10662944435528699086
11578080 2 15122357946480372252
1200032 147 16626873835733202789
12236239 1 16153428345948326158
12623949 98 17832115265929759443
13134695 92 17749396931591372568
13402501 40 18272655649084154095
13544653 18 17821728377397548706
13757389 114 17103925538820563032
13782708 43 18270396088581933683
13911987 19 18261383421965147934
14251757 17 18271815665097542788
14840074 17 17022901255373775358
15238133 3 17895175724120988529
15849732 13 16587740954237791111
17357779 13 18114750438055100202
1813 80 16950555593236333268
18769570 83 17131838715881155348
21033650 10 16771813606158711118
21133410 90 15647341896591463201
21641784 216 18262498386933000284
21792961 116 18271801372201236430
221357 26 18340777017459633117
22182313 1 18339940246372543544
23175994 123 18333726931395500627
23402539 116 17458626748114822666
23419403 2 18115612416775638176
23536364 44 18195244640347134070
23557571 272 17702383953565876243
23559900 14 18272377451452443503
3009799 131 18412266147185971842
3493558 16 16341991202062703156
3524813 1 18342744009349439527
404807 14 16119961665206276778
46194498 28 18271525299443415372
513202 73 17024859605678710526
5281201 14 18342176635526689471
6287921 2 17913200962917214725
6823239 73 17989214719903271805
7471813 234 17676489449313986464
7495541 125 18201996603793396506
7808743 9 17130998740109790029

> <PUBCHEM_SHAPE_MULTIPOLES>
526.37
11.3
2.95
2.15
2.23
1.77
0.07
-6.27
-3.61
1.34
0.28
-1.93
1.43
1.87

> <PUBCHEM_SHAPE_SELFOVERLAP>
1099.285

> <PUBCHEM_SHAPE_VOLUME>
290.9

> <PUBCHEM_COORDINATE_TYPE>
2
5
10

$$$$

