17395954
  -OEChem-06241222532D

 36 38  0     0  0  0  0  0  0999 V2000
    4.7690    1.0451    0.0000 S   0  0  0  0  0  0  0  0  0  0  0  0
    2.5369   -1.4938    0.0000 O   0  0  0  0  0  0  0  0  0  0  0  0
    5.9837    3.8902    0.0000 O   0  0  0  0  0  0  0  0  0  0  0  0
    4.2690   -4.4938    0.0000 O   0  0  0  0  0  0  0  0  0  0  0  0
    3.1812    1.8541    0.0000 N   0  0  0  0  0  0  0  0  0  0  0  0
    3.4600    0.0940    0.0000 N   0  0  0  0  0  0  0  0  0  0  0  0
    4.2690   -1.4938    0.0000 C   0  0  0  0  0  0  0  0  0  0  0  0
    4.2690   -0.4938    0.0000 C   0  0  0  0  0  0  0  0  0  0  0  0
    3.5879    2.7676    0.0000 C   0  0  0  0  0  0  0  0  0  0  0  0
    3.7690    1.0451    0.0000 C   0  0  0  0  0  0  0  0  0  0  0  0
    3.4030   -1.9938    0.0000 C   0  0  0  0  0  0  0  0  0  0  0  0
    5.1350   -1.9938    0.0000 C   0  0  0  0  0  0  0  0  0  0  0  0
    5.0780    0.0940    0.0000 C   0  0  0  0  0  0  0  0  0  0  0  0
    4.5825    2.8722    0.0000 C   0  0  0  0  0  0  0  0  0  0  0  0
    3.0002    3.5766    0.0000 C   0  0  0  0  0  0  0  0  0  0  0  0
    3.4030   -2.9938    0.0000 C   0  0  0  0  0  0  0  0  0  0  0  0
    5.1350   -2.9938    0.0000 C   0  0  0  0  0  0  0  0  0  0  0  0
    4.9892    3.7857    0.0000 C   0  0  0  0  0  0  0  0  0  0  0  0
    4.2690   -3.4938    0.0000 C   0  0  0  0  0  0  0  0  0  0  0  0
    3.4069    4.4902    0.0000 C   0  0  0  0  0  0  0  0  0  0  0  0
    4.4014    4.5947    0.0000 C   0  0  0  0  0  0  0  0  0  0  0  0
    6.3905    4.8038    0.0000 C   0  0  0  0  0  0  0  0  0  0  0  0
    2.5646    1.7893    0.0000 H   0  0  0  0  0  0  0  0  0  0  0  0
    5.6720   -1.6838    0.0000 H   0  0  0  0  0  0  0  0  0  0  0  0
    5.6677   -0.0976    0.0000 H   0  0  0  0  0  0  0  0  0  0  0  0
    4.9469    2.3706    0.0000 H   0  0  0  0  0  0  0  0  0  0  0  0
    2.3836    3.5118    0.0000 H   0  0  0  0  0  0  0  0  0  0  0  0
    2.8660   -3.3038    0.0000 H   0  0  0  0  0  0  0  0  0  0  0  0
    5.6720   -3.3038    0.0000 H   0  0  0  0  0  0  0  0  0  0  0  0
    3.0425    4.9918    0.0000 H   0  0  0  0  0  0  0  0  0  0  0  0
    4.6536    5.1611    0.0000 H   0  0  0  0  0  0  0  0  0  0  0  0
    2.0000   -1.8038    0.0000 H   0  0  0  0  0  0  0  0  0  0  0  0
    4.8059   -4.8038    0.0000 H   0  0  0  0  0  0  0  0  0  0  0  0
    6.9568    4.5516    0.0000 H   0  0  0  0  0  0  0  0  0  0  0  0
    6.6426    5.3702    0.0000 H   0  0  0  0  0  0  0  0  0  0  0  0
    5.8241    5.0560    0.0000 H   0  0  0  0  0  0  0  0  0  0  0  0
  1 10  1  0  0  0  0
  1 13  1  0  0  0  0
  2 11  1  0  0  0  0
  2 32  1  0  0  0  0
  3 18  1  0  0  0  0
  3 22  1  0  0  0  0
  4 19  1  0  0  0  0
  4 33  1  0  0  0  0
  5  9  1  0  0  0  0
  5 10  1  0  0  0  0
  5 23  1  0  0  0  0
  6  8  1  0  0  0  0
  6 10  2  0  0  0  0
  7  8  1  0  0  0  0
  7 11  2  0  0  0  0
  7 12  1  0  0  0  0
  8 13  2  0  0  0  0
  9 14  2  0  0  0  0
  9 15  1  0  0  0  0
 11 16  1  0  0  0  0
 12 17  2  0  0  0  0
 12 24  1  0  0  0  0
 13 25  1  0  0  0  0
 14 18  1  0  0  0  0
 14 26  1  0  0  0  0
 15 20  2  0  0  0  0
 15 27  1  0  0  0  0
 16 19  2  0  0  0  0
 16 28  1  0  0  0  0
 17 19  1  0  0  0  0
 17 29  1  0  0  0  0
 18 21  2  0  0  0  0
 20 21  1  0  0  0  0
 20 30  1  0  0  0  0
 21 31  1  0  0  0  0
 22 34  1  0  0  0  0
 22 35  1  0  0  0  0
 22 36  1  0  0  0  0
M  END
> <PUBCHEM_COMPOUND_CID>
17395954

> <PUBCHEM_COMPOUND_CANONICALIZED>
1

> <PUBCHEM_CACTVS_COMPLEXITY>
360

> <PUBCHEM_CACTVS_HBOND_ACCEPTOR>
6

> <PUBCHEM_CACTVS_HBOND_DONOR>
3

> <PUBCHEM_CACTVS_ROTATABLE_BOND>
4

> <PUBCHEM_CACTVS_SUBSKEYS>
AAADccB7MABAAAAAAAAAAAAAAAAAAWAAAAAwYAAAAAAAAAAB0AAAHgQQCAAADAyF3gKz15LIFgikAyRiZACC+KlhKjkJiDQ2bJiMJ6LmuZuEcChv0B9I+CeQ8KcOIAAACgAIAABAAAAUABAAAAAAAAAAAA==

> <PUBCHEM_IUPAC_OPENEYE_NAME>
4-[2-(3-methoxyanilino)thiazol-4-yl]benzene-1,3-diol

> <PUBCHEM_IUPAC_CAS_NAME>
4-[2-(3-methoxyanilino)-4-thiazolyl]benzene-1,3-diol

> <PUBCHEM_IUPAC_NAME>
4-[2-(3-methoxyanilino)-1,3-thiazol-4-yl]benzene-1,3-diol

> <PUBCHEM_IUPAC_SYSTEMATIC_NAME>
4-[2-[(3-methoxyphenyl)amino]-1,3-thiazol-4-yl]benzene-1,3-diol

> <PUBCHEM_IUPAC_TRADITIONAL_NAME>
4-[2-(m-anisidino)thiazol-4-yl]resorcinol

> <PUBCHEM_IUPAC_INCHI>
InChI=1S/C16H14N2O3S/c1-21-12-4-2-3-10(7-12)17-16-18-14(9-22-16)13-6-5-11(19)8-15(13)20/h2-9,19-20H,1H3,(H,17,18)

> <PUBCHEM_IUPAC_INCHIKEY>
PROIGGYYAJXZPG-UHFFFAOYSA-N

> <PUBCHEM_XLOGP3_AA>
3.8

> <PUBCHEM_EXACT_MASS>
314.072513

> <PUBCHEM_MOLECULAR_FORMULA>
C16H14N2O3S

> <PUBCHEM_MOLECULAR_WEIGHT>
314.35896

> <PUBCHEM_OPENEYE_CAN_SMILES>
COC1=CC=CC(=C1)NC2=NC(=CS2)C3=C(C=C(C=C3)O)O

> <PUBCHEM_OPENEYE_ISO_SMILES>
COC1=CC=CC(=C1)NC2=NC(=CS2)C3=C(C=C(C=C3)O)O

> <PUBCHEM_CACTVS_TPSA>
103

> <PUBCHEM_MONOISOTOPIC_WEIGHT>
314.072513

> <PUBCHEM_TOTAL_CHARGE>
0

> <PUBCHEM_HEAVY_ATOM_COUNT>
22

> <PUBCHEM_ATOM_DEF_STEREO_COUNT>
0

> <PUBCHEM_ATOM_UDEF_STEREO_COUNT>
0

> <PUBCHEM_BOND_DEF_STEREO_COUNT>
0

> <PUBCHEM_BOND_UDEF_STEREO_COUNT>
0

> <PUBCHEM_ISOTOPIC_ATOM_COUNT>
0

> <PUBCHEM_COMPONENT_COUNT>
1

> <PUBCHEM_CACTVS_TAUTO_COUNT>
18

> <PUBCHEM_COORDINATE_TYPE>
1
5
255

> <PUBCHEM_BONDANNOTATIONS>
1  10  8
1  13  8
11  16  8
12  17  8
14  18  8
15  20  8
16  19  8
17  19  8
18  21  8
20  21  8
6  10  8
6  8  8
7  11  8
7  12  8
8  13  8
9  14  8
9  15  8

$$$$

