6453821
  -OEChem-07051213053D

 23 24  0     0  0  0  0  0  0999 V2000
   -0.5081    1.8778   -2.0863 Cl  0  0  0  0  0  0  0  0  0  0  0  0
    0.4724    2.0559    1.9051 Cl  0  0  0  0  0  0  0  0  0  0  0  0
   -3.7753   -1.8744    1.6866 Cl  0  0  0  0  0  0  0  0  0  0  0  0
    3.7063   -2.0392   -1.5304 Cl  0  0  0  0  0  0  0  0  0  0  0  0
    5.2013   -0.0010    0.4890 Cl  0  0  0  0  0  0  0  0  0  0  0  0
   -4.8762   -0.0543   -0.4367 O   0  0  0  0  0  0  0  0  0  0  0  0
   -0.7399    0.0311   -0.0790 C   0  0  0  0  0  0  0  0  0  0  0  0
    0.7032    0.0367    0.0717 C   0  0  0  0  0  0  0  0  0  0  0  0
   -1.3831    0.8279   -1.0262 C   0  0  0  0  0  0  0  0  0  0  0  0
   -1.4863   -0.8011    0.7553 C   0  0  0  0  0  0  0  0  0  0  0  0
    1.3475    0.9147    0.9434 C   0  0  0  0  0  0  0  0  0  0  0  0
    1.4485   -0.8677   -0.6843 C   0  0  0  0  0  0  0  0  0  0  0  0
   -2.8761   -0.8363    0.6425 C   0  0  0  0  0  0  0  0  0  0  0  0
   -2.7731    0.7926   -1.1390 C   0  0  0  0  0  0  0  0  0  0  0  0
    2.8382   -0.8945   -0.5688 C   0  0  0  0  0  0  0  0  0  0  0  0
    2.7374    0.8880    1.0590 C   0  0  0  0  0  0  0  0  0  0  0  0
   -3.5195   -0.0396   -0.3046 C   0  0  0  0  0  0  0  0  0  0  0  0
    3.4828   -0.0166    0.3027 C   0  0  0  0  0  0  0  0  0  0  0  0
   -0.9877   -1.4242    1.4957 H   0  0  0  0  0  0  0  0  0  0  0  0
    0.9473   -1.5538   -1.3653 H   0  0  0  0  0  0  0  0  0  0  0  0
   -3.2767    1.4132   -1.8770 H   0  0  0  0  0  0  0  0  0  0  0  0
    3.2396    1.5731    1.7390 H   0  0  0  0  0  0  0  0  0  0  0  0
   -5.1357    0.5618   -1.1430 H   0  0  0  0  0  0  0  0  0  0  0  0
  1  9  1  0  0  0  0
  2 11  1  0  0  0  0
  3 13  1  0  0  0  0
  4 15  1  0  0  0  0
  5 18  1  0  0  0  0
  6 17  1  0  0  0  0
  6 23  1  0  0  0  0
  7  8  1  0  0  0  0
  7  9  1  0  0  0  0
  7 10  2  0  0  0  0
  8 11  1  0  0  0  0
  8 12  2  0  0  0  0
  9 14  2  0  0  0  0
 10 13  1  0  0  0  0
 10 19  1  0  0  0  0
 11 16  2  0  0  0  0
 12 15  1  0  0  0  0
 12 20  1  0  0  0  0
 13 17  2  0  0  0  0
 14 17  1  0  0  0  0
 14 21  1  0  0  0  0
 15 18  2  0  0  0  0
 16 18  1  0  0  0  0
 16 22  1  0  0  0  0
M  END
> <PUBCHEM_COMPOUND_CID>
6453821

> <PUBCHEM_CONFORMER_RMSD>
0.6

> <PUBCHEM_CONFORMER_DIVERSEORDER>
2
1

> <PUBCHEM_MMFF94_PARTIAL_CHARGES>
21
1 -0.18
10 -0.15
11 0.18
12 -0.15
13 0.18
14 -0.15
15 0.18
16 -0.15
17 0.08
18 0.18
19 0.15
2 -0.18
20 0.15
21 0.15
22 0.15
23 0.45
3 -0.18
4 -0.18
5 -0.18
6 -0.53
9 0.18

> <PUBCHEM_EFFECTIVE_ROTOR_COUNT>
1

> <PUBCHEM_PHARMACOPHORE_FEATURES>
3
1 6 donor
6 7 9 10 13 14 17 rings
6 8 11 12 15 16 18 rings

> <PUBCHEM_HEAVY_ATOM_COUNT>
18

> <PUBCHEM_ATOM_DEF_STEREO_COUNT>
0

> <PUBCHEM_ATOM_UDEF_STEREO_COUNT>
0

> <PUBCHEM_BOND_DEF_STEREO_COUNT>
0

> <PUBCHEM_BOND_UDEF_STEREO_COUNT>
0

> <PUBCHEM_ISOTOPIC_ATOM_COUNT>
0

> <PUBCHEM_COMPONENT_COUNT>
1

> <PUBCHEM_CACTVS_TAUTO_COUNT>
3

> <PUBCHEM_CONFORMER_ID>
00627A3D00000002

> <PUBCHEM_MMFF94_ENERGY>
49.0716

> <PUBCHEM_FEATURE_SELFOVERLAP>
15.223

> <PUBCHEM_SHAPE_FINGERPRINT>
10465860 71 17632565050769254103
11471102 20 17967256377727460944
11796584 16 17988649631320102418
12236239 1 15863791681544555074
12670546 56 15719393949182425226
13134695 92 17603590724507026728
13140716 1 17631724960199738081
13538477 17 16487266460467577889
13544653 18 18261385663352286198
13583140 156 17769416874286880544
14252887 29 17967529086776413626
14386348 63 18411138038959213146
15375462 189 16587747546991381306
15375462 478 16588021316543574889
16945 1 17822010856921892056
18785283 64 18118688703938499672
19049666 15 18266466588156839241
200 152 17385731296204167979
20279233 1 18411419513935995250
20600515 1 17917998273693263765
20645477 70 17968099780218389814
22112679 90 16486975123908443365
23175994 123 18260265252519383432
23382010 3 14188717538035227433
23402539 116 17418381272389747170
23526113 38 18336557113201583026
23557571 272 18201444713565411620
23559900 14 18059298781148646750
3286 77 18186524310595259773
474 4 16445059421871044568
5902787 121 17417531298525217165
6992083 37 15864357921522403721
7364860 26 17699555953703797317
77492 1 15864075351249521517
81228 2 17916863659387448005
8272917 22 17240757419627653783

> <PUBCHEM_SHAPE_MULTIPOLES>
373.91
8.47
1.87
1.78
1.21
0.02
-0.09
-3.47
0.48
0.06
0.01
-0.22
0.5
2.26

> <PUBCHEM_SHAPE_SELFOVERLAP>
768.21

> <PUBCHEM_SHAPE_VOLUME>
221

> <PUBCHEM_COORDINATE_TYPE>
2
5
10

$$$$

