16126798
  -OEChem-07051212483D

 27 26  0     1  0  0  0  0  0999 V2000
   -3.3117   -0.3792   -0.2316 P   0  0  0  0  0  0  0  0  0  0  0  0
    1.1631   -1.0706    1.1354 O   0  0  0  0  0  0  0  0  0  0  0  0
    0.3463    1.9097   -0.8452 O   0  0  0  0  0  0  0  0  0  0  0  0
    3.1847    0.8716    0.8591 O   0  0  0  0  0  0  0  0  0  0  0  0
   -1.7620    0.0480   -0.4183 O   0  0  0  0  0  0  0  0  0  0  0  0
    4.9307   -0.6796   -0.6724 O   0  0  0  0  0  0  0  0  0  0  0  0
   -4.0423    1.0005    0.1901 O   0  0  0  0  0  0  0  0  0  0  0  0
   -3.2887   -1.2242    1.1470 O   0  0  0  0  0  0  0  0  0  0  0  0
   -3.9182   -1.0944   -1.4033 O   0  0  0  0  0  0  0  0  0  0  0  0
    1.2017   -0.1911    0.0051 C   0  0  1  0  0  0  0  0  0  0  0  0
    0.3369    1.0511    0.2934 C   0  0  2  0  0  0  0  0  0  0  0  0
    2.6866    0.1237   -0.2580 C   0  0  2  0  0  0  0  0  0  0  0  0
   -1.1159    0.7285    0.6453 C   0  0  0  0  0  0  0  0  0  0  0  0
    3.5889   -1.0940   -0.4466 C   0  0  0  0  0  0  0  0  0  0  0  0
    0.8036   -0.7370   -0.8579 H   0  0  0  0  0  0  0  0  0  0  0  0
    0.7417    1.6113    1.1443 H   0  0  0  0  0  0  0  0  0  0  0  0
    2.7894    0.7668   -1.1399 H   0  0  0  0  0  0  0  0  0  0  0  0
   -1.1617    0.1211    1.5544 H   0  0  0  0  0  0  0  0  0  0  0  0
   -1.6535    1.6654    0.8267 H   0  0  0  0  0  0  0  0  0  0  0  0
    3.2617   -1.7050   -1.2934 H   0  0  0  0  0  0  0  0  0  0  0  0
    3.6014   -1.7192    0.4514 H   0  0  0  0  0  0  0  0  0  0  0  0
    1.5208   -0.5852    1.8986 H   0  0  0  0  0  0  0  0  0  0  0  0
    1.2317    2.3046   -0.9121 H   0  0  0  0  0  0  0  0  0  0  0  0
    2.8712    1.7869    0.7656 H   0  0  0  0  0  0  0  0  0  0  0  0
    4.9369   -0.1356   -1.4783 H   0  0  0  0  0  0  0  0  0  0  0  0
   -5.0175    1.0080    0.2957 H   0  0  0  0  0  0  0  0  0  0  0  0
   -4.1075   -1.6787    1.4388 H   0  0  0  0  0  0  0  0  0  0  0  0
  1  5  1  0  0  0  0
  1  7  1  0  0  0  0
  1  8  1  0  0  0  0
  1  9  2  0  0  0  0
  2 10  1  0  0  0  0
  2 22  1  0  0  0  0
  3 11  1  0  0  0  0
  3 23  1  0  0  0  0
  4 12  1  0  0  0  0
  4 24  1  0  0  0  0
  5 13  1  0  0  0  0
  6 14  1  0  0  0  0
  6 25  1  0  0  0  0
  7 26  1  0  0  0  0
  8 27  1  0  0  0  0
 10 11  1  0  0  0  0
 10 12  1  0  0  0  0
 10 15  1  0  0  0  0
 11 13  1  0  0  0  0
 11 16  1  0  0  0  0
 12 14  1  0  0  0  0
 12 17  1  0  0  0  0
 13 18  1  0  0  0  0
 13 19  1  0  0  0  0
 14 20  1  0  0  0  0
 14 21  1  0  0  0  0
M  END
> <PUBCHEM_COMPOUND_CID>
16126798

> <PUBCHEM_CONFORMER_RMSD>
0.6

> <PUBCHEM_CONFORMER_DIVERSEORDER>
15
94
87
38
66
26
80
2
89
36
44
31
3
91
29
85
58
95
72
11
24
42
86
51
1
56
43
6
28
84
88
16
90
5
73
50
81
49
68
18
39
22
40
33
9
70
45
96
7
69
46
17
20
65
93
30
13
55
41
10
77
67
12
37
59
48
25
14
78
27
61
74
60
35
4
52
54
63
8
19
82
32
97
64
76
34
92
21
23
47
71
62
79
83
53
57
75

> <PUBCHEM_MMFF94_PARTIAL_CHARGES>
20
1 1.51
10 0.28
11 0.28
12 0.28
13 0.28
14 0.28
2 -0.68
22 0.4
23 0.4
24 0.4
25 0.4
26 0.5
27 0.5
3 -0.68
4 -0.68
5 -0.55
6 -0.68
7 -0.77
8 -0.77
9 -0.7

> <PUBCHEM_EFFECTIVE_ROTOR_COUNT>
6

> <PUBCHEM_PHARMACOPHORE_FEATURES>
12
1 2 acceptor
1 2 donor
1 3 acceptor
1 3 donor
1 4 acceptor
1 4 donor
1 6 acceptor
1 6 donor
1 7 acceptor
1 8 acceptor
1 9 acceptor
4 1 7 8 9 anion

> <PUBCHEM_HEAVY_ATOM_COUNT>
14

> <PUBCHEM_ATOM_DEF_STEREO_COUNT>
3

> <PUBCHEM_ATOM_UDEF_STEREO_COUNT>
0

> <PUBCHEM_BOND_DEF_STEREO_COUNT>
0

> <PUBCHEM_BOND_UDEF_STEREO_COUNT>
0

> <PUBCHEM_ISOTOPIC_ATOM_COUNT>
0

> <PUBCHEM_COMPONENT_COUNT>
1

> <PUBCHEM_CACTVS_TAUTO_COUNT>
1

> <PUBCHEM_CONFORMER_ID>
00F6134E0000000F

> <PUBCHEM_MMFF94_ENERGY>
-4.6744

> <PUBCHEM_FEATURE_SELFOVERLAP>
60.944

> <PUBCHEM_SHAPE_FINGERPRINT>
12032990 46 18412820279007038570
12251169 10 4895547489574125445
124424 183 15574715824285794187
12500047 106 17240766237448674169
13296908 3 18260834790947160433
15775835 57 10952053363940317159
18186145 218 17346598547447269677
19422 9 17676487224462716089
20281407 28 17821446880402604643
20281475 54 17775569749333607763
20645477 70 18041001768994818174
20871999 31 18059583533090303221
21293036 1 17704065197023215182
21524375 3 9294994765491186361
22485316 2 18040157331079466182
23402539 116 18272929457934585694
23402655 69 18059016214754318917
23532345 42 18272091561333768128
449060 23 18334292093283394742
548570 60 10807933751832121934

> <PUBCHEM_SHAPE_MULTIPOLES>
245.01
8.48
1.41
1.03
0.52
0.22
0.05
-2.93
-1.35
-0.13
-0.12
-0.39
-0.18
0.06

> <PUBCHEM_SHAPE_SELFOVERLAP>
451.47

> <PUBCHEM_SHAPE_VOLUME>
155

> <PUBCHEM_COORDINATE_TYPE>
2
5
10

$$$$

