12210
  -OEChem-06261206403D

 25 24  0     0  0  0  0  0  0999 V2000
    1.5733   -1.3102   -0.3576 O   0  0  0  0  0  0  0  0  0  0  0  0
   -2.4498    0.1184    0.3213 C   0  0  0  0  0  0  0  0  0  0  0  0
   -1.0625   -0.5036    0.0788 C   0  0  0  0  0  0  0  0  0  0  0  0
    0.0922    0.4624    0.3452 C   0  0  0  0  0  0  0  0  0  0  0  0
   -2.6184    1.3668   -0.5481 C   0  0  0  0  0  0  0  0  0  0  0  0
   -3.5875   -0.8642    0.0399 C   0  0  0  0  0  0  0  0  0  0  0  0
    1.4492   -0.1486    0.0270 C   0  0  0  0  0  0  0  0  0  0  0  0
    2.6432    0.7703    0.2283 C   0  0  0  0  0  0  0  0  0  0  0  0
    3.9603    0.1088   -0.1346 C   0  0  0  0  0  0  0  0  0  0  0  0
   -2.5201    0.4205    1.3739 H   0  0  0  0  0  0  0  0  0  0  0  0
   -0.9490   -1.3874    0.7198 H   0  0  0  0  0  0  0  0  0  0  0  0
   -1.0023   -0.8681   -0.9554 H   0  0  0  0  0  0  0  0  0  0  0  0
    0.0909    0.7678    1.3968 H   0  0  0  0  0  0  0  0  0  0  0  0
    0.0098    1.3542   -0.2828 H   0  0  0  0  0  0  0  0  0  0  0  0
   -3.6480    1.7381   -0.4930 H   0  0  0  0  0  0  0  0  0  0  0  0
   -1.9768    2.1864   -0.2116 H   0  0  0  0  0  0  0  0  0  0  0  0
   -2.3961    1.1575   -1.6001 H   0  0  0  0  0  0  0  0  0  0  0  0
   -3.5855   -1.1831   -1.0079 H   0  0  0  0  0  0  0  0  0  0  0  0
   -4.5601   -0.4099    0.2560 H   0  0  0  0  0  0  0  0  0  0  0  0
   -3.4883   -1.7573    0.6656 H   0  0  0  0  0  0  0  0  0  0  0  0
    2.6641    1.0771    1.2792 H   0  0  0  0  0  0  0  0  0  0  0  0
    2.4990    1.6596   -0.3942 H   0  0  0  0  0  0  0  0  0  0  0  0
    4.7914    0.8036    0.0208 H   0  0  0  0  0  0  0  0  0  0  0  0
    3.9673   -0.2039   -1.1840 H   0  0  0  0  0  0  0  0  0  0  0  0
    4.1372   -0.7793    0.4811 H   0  0  0  0  0  0  0  0  0  0  0  0
  1  7  2  0  0  0  0
  2  3  1  0  0  0  0
  2  5  1  0  0  0  0
  2  6  1  0  0  0  0
  2 10  1  0  0  0  0
  3  4  1  0  0  0  0
  3 11  1  0  0  0  0
  3 12  1  0  0  0  0
  4  7  1  0  0  0  0
  4 13  1  0  0  0  0
  4 14  1  0  0  0  0
  5 15  1  0  0  0  0
  5 16  1  0  0  0  0
  5 17  1  0  0  0  0
  6 18  1  0  0  0  0
  6 19  1  0  0  0  0
  6 20  1  0  0  0  0
  7  8  1  0  0  0  0
  8  9  1  0  0  0  0
  8 21  1  0  0  0  0
  8 22  1  0  0  0  0
  9 23  1  0  0  0  0
  9 24  1  0  0  0  0
  9 25  1  0  0  0  0
M  END
> <PUBCHEM_COMPOUND_CID>
12210

> <PUBCHEM_CONFORMER_RMSD>
0.6

> <PUBCHEM_CONFORMER_DIVERSEORDER>
1
12
18
9
17
13
16
2
5
8
10
3
14
6
4
15
11
7

> <PUBCHEM_MMFF94_PARTIAL_CHARGES>
4
1 -0.57
4 0.06
7 0.45
8 0.06

> <PUBCHEM_EFFECTIVE_ROTOR_COUNT>
4

> <PUBCHEM_PHARMACOPHORE_FEATURES>
3
1 1 acceptor
1 9 hydrophobe
3 2 5 6 hydrophobe

> <PUBCHEM_HEAVY_ATOM_COUNT>
9

> <PUBCHEM_ATOM_DEF_STEREO_COUNT>
0

> <PUBCHEM_ATOM_UDEF_STEREO_COUNT>
0

> <PUBCHEM_BOND_DEF_STEREO_COUNT>
0

> <PUBCHEM_BOND_UDEF_STEREO_COUNT>
0

> <PUBCHEM_ISOTOPIC_ATOM_COUNT>
0

> <PUBCHEM_COMPONENT_COUNT>
1

> <PUBCHEM_CACTVS_TAUTO_COUNT>
3

> <PUBCHEM_CONFORMER_ID>
00002FB200000001

> <PUBCHEM_MMFF94_ENERGY>
5.1747

> <PUBCHEM_FEATURE_SELFOVERLAP>
15.223

> <PUBCHEM_SHAPE_FINGERPRINT>
11062470 55 12535634859853104210
12162725 195 17917989460298857740
12897270 3 18333169483358495432
12932764 1 14562815499008492611
14325111 11 18411701006081687834
14390081 3 18341897415318307145
15310529 11 18335143111252050599
190213 19 16950279607085259080
20201158 50 18410009931539283859
20645477 70 18115871965601385615
21293036 1 18040151795019524396
23402539 116 18059866025768527751
3248919 1 17895198873593715331

> <PUBCHEM_SHAPE_MULTIPOLES>
179.35
6.73
1.17
0.69
1.63
0.08
0
0.07
-0.33
-0.51
-0.15
-0.07
0.05
0.33

> <PUBCHEM_SHAPE_SELFOVERLAP>
322.959

> <PUBCHEM_SHAPE_VOLUME>
116.4

> <PUBCHEM_COORDINATE_TYPE>
2
5
10

$$$$

