3261
  -OEChem-07051212523D

 32 35  0     0  0  0  0  0  0999 V2000
   -0.9872    4.4647    0.6744 Cl  0  0  0  0  0  0  0  0  0  0  0  0
    2.3389   -0.3473   -0.3114 N   0  0  0  0  0  0  0  0  0  0  0  0
   -0.0040   -1.7543    1.0485 N   0  0  0  0  0  0  0  0  0  0  0  0
    3.2510   -2.3332   -0.0294 N   0  0  0  0  0  0  0  0  0  0  0  0
    3.9651   -1.6664   -0.9949 N   0  0  0  0  0  0  0  0  0  0  0  0
    1.4885    0.7672   -0.1396 C   0  0  0  0  0  0  0  0  0  0  0  0
    0.1847    0.6343    0.3772 C   0  0  0  0  0  0  0  0  0  0  0  0
   -0.5166   -0.6829    0.5451 C   0  0  0  0  0  0  0  0  0  0  0  0
    2.2987   -1.5290    0.3936 C   0  0  0  0  0  0  0  0  0  0  0  0
    1.3675   -1.7555    1.5200 C   0  0  0  0  0  0  0  0  0  0  0  0
   -1.9267   -0.7951    0.0662 C   0  0  0  0  0  0  0  0  0  0  0  0
    1.9821    2.0417   -0.4627 C   0  0  0  0  0  0  0  0  0  0  0  0
   -0.5637    1.7945    0.6432 C   0  0  0  0  0  0  0  0  0  0  0  0
    3.4284   -0.4755   -1.1334 C   0  0  0  0  0  0  0  0  0  0  0  0
    1.2137    3.1796   -0.2151 C   0  0  0  0  0  0  0  0  0  0  0  0
   -0.0498    3.0577    0.3519 C   0  0  0  0  0  0  0  0  0  0  0  0
   -2.3475   -0.0231   -1.0080 C   0  0  0  0  0  0  0  0  0  0  0  0
   -2.7971   -1.6703    0.7014 C   0  0  0  0  0  0  0  0  0  0  0  0
   -3.6644   -0.1280   -1.4556 C   0  0  0  0  0  0  0  0  0  0  0  0
   -4.1140   -1.7753    0.2535 C   0  0  0  0  0  0  0  0  0  0  0  0
   -4.5475   -1.0040   -0.8249 C   0  0  0  0  0  0  0  0  0  0  0  0
    1.5765   -2.7329    1.9691 H   0  0  0  0  0  0  0  0  0  0  0  0
    1.5164   -1.0165    2.3166 H   0  0  0  0  0  0  0  0  0  0  0  0
    2.9803    2.1862   -0.8669 H   0  0  0  0  0  0  0  0  0  0  0  0
   -1.5571    1.7216    1.0824 H   0  0  0  0  0  0  0  0  0  0  0  0
    3.7680    0.2885   -1.8186 H   0  0  0  0  0  0  0  0  0  0  0  0
    1.6241    4.1573   -0.4552 H   0  0  0  0  0  0  0  0  0  0  0  0
   -1.6795    0.6372   -1.5528 H   0  0  0  0  0  0  0  0  0  0  0  0
   -2.4857   -2.2739    1.5492 H   0  0  0  0  0  0  0  0  0  0  0  0
   -3.9997    0.4650   -2.3016 H   0  0  0  0  0  0  0  0  0  0  0  0
   -4.8026   -2.4561    0.7456 H   0  0  0  0  0  0  0  0  0  0  0  0
   -5.5724   -1.0871   -1.1747 H   0  0  0  0  0  0  0  0  0  0  0  0
  1 16  1  0  0  0  0
  2  6  1  0  0  0  0
  2  9  1  0  0  0  0
  2 14  1  0  0  0  0
  3  8  2  0  0  0  0
  3 10  1  0  0  0  0
  4  5  1  0  0  0  0
  4  9  2  0  0  0  0
  5 14  2  0  0  0  0
  6  7  2  0  0  0  0
  6 12  1  0  0  0  0
  7  8  1  0  0  0  0
  7 13  1  0  0  0  0
  8 11  1  0  0  0  0
  9 10  1  0  0  0  0
 10 22  1  0  0  0  0
 10 23  1  0  0  0  0
 11 17  2  0  0  0  0
 11 18  1  0  0  0  0
 12 15  2  0  0  0  0
 12 24  1  0  0  0  0
 13 16  2  0  0  0  0
 13 25  1  0  0  0  0
 14 26  1  0  0  0  0
 15 16  1  0  0  0  0
 15 27  1  0  0  0  0
 17 19  1  0  0  0  0
 17 28  1  0  0  0  0
 18 20  2  0  0  0  0
 18 29  1  0  0  0  0
 19 21  2  0  0  0  0
 19 30  1  0  0  0  0
 20 21  1  0  0  0  0
 20 31  1  0  0  0  0
 21 32  1  0  0  0  0
M  END
> <PUBCHEM_COMPOUND_CID>
3261

> <PUBCHEM_CONFORMER_RMSD>
0.6

> <PUBCHEM_CONFORMER_DIVERSEORDER>
1
2

> <PUBCHEM_MMFF94_PARTIAL_CHARGES>
30
1 -0.18
10 0.43
11 0.09
12 -0.15
13 -0.15
14 0.04
15 -0.15
16 0.18
17 -0.15
18 -0.15
19 -0.15
2 0.33
20 -0.15
21 -0.15
24 0.15
25 0.15
26 0.15
27 0.15
28 0.15
29 0.15
3 -0.7
30 0.15
31 0.15
32 0.15
4 -0.34
5 -0.34
6 -0.02
7 0.09
8 0.28
9 0.01

> <PUBCHEM_EFFECTIVE_ROTOR_COUNT>
1.2

> <PUBCHEM_PHARMACOPHORE_FEATURES>
7
1 3 acceptor
3 2 4 9 cation
3 2 5 14 cation
5 2 4 5 9 14 rings
6 11 17 18 19 20 21 rings
6 6 7 12 13 15 16 rings
7 2 3 6 7 8 9 10 rings

> <PUBCHEM_HEAVY_ATOM_COUNT>
21

> <PUBCHEM_ATOM_DEF_STEREO_COUNT>
0

> <PUBCHEM_ATOM_UDEF_STEREO_COUNT>
0

> <PUBCHEM_BOND_DEF_STEREO_COUNT>
0

> <PUBCHEM_BOND_UDEF_STEREO_COUNT>
0

> <PUBCHEM_ISOTOPIC_ATOM_COUNT>
0

> <PUBCHEM_COMPONENT_COUNT>
1

> <PUBCHEM_CACTVS_TAUTO_COUNT>
1

> <PUBCHEM_CONFORMER_ID>
00000CBD00000001

> <PUBCHEM_MMFF94_ENERGY>
75.9109

> <PUBCHEM_FEATURE_SELFOVERLAP>
38.092

> <PUBCHEM_SHAPE_FINGERPRINT>
10165383 225 17117730581152627321
104564 63 18192432098171955825
10906281 52 18196640818625928144
1100329 8 18265894851096800873
116883 192 18190175874452291725
12035759 4 17983580993909794284
12553582 1 18339636845081352403
12623949 98 17689404145887036447
12707595 3 18412269415155307367
12730499 353 17908419152751840395
12788726 201 18121504819441415305
13134695 92 18334864870269844997
13140716 1 18337393837202930705
13533116 47 18192712238321536599
13911987 19 18054767526358453884
14790565 3 17617374425733035981
14866123 147 17689153830575460587
15230672 131 17188411569970838068
16752209 62 18049453826630921629
16945 1 18341609343356206618
1813 80 18040701585114328751
18186145 218 18272934890925920107
18981168 100 16843358677206398303
20600515 1 18125192473808181939
20645477 70 18265623087214771767
20671657 53 18408037416190003359
21029758 11 18411697664961154410
21041028 32 18409157827629808209
21524375 3 17333099624165549560
22112679 90 18042386049918465521
221357 26 18413114953035441679
221490 88 18197773302390548835
22620623 9 17826497053726790926
23114952 82 18128817447707547189
23402539 116 18336824311965886630
23419403 2 17624467165253943584
23526113 38 18198337356028661603
23557571 272 18192452959113021034
23558518 356 18269822276829663448
238 59 17762084059030808031
25 1 18051694334907364709
266924 87 18338791230904747932
2748010 2 16900447249007220848
3071541 250 18409727335628771921
3323516 105 18200029530410104375
3524813 1 17988369165259292223
5262128 65 18334842927229182118
6438718 38 17825111668986355901
6442390 28 16969134840280347363
7164475 11 18194682798706420854
7364860 26 18266181621471976201
7471813 234 18334869306786178943
81228 2 18121511407599455257
9709674 26 18126287437440741235
9981440 41 14400077646507301302

> <PUBCHEM_SHAPE_MULTIPOLES>
414.12
6.58
4.16
1.18
4.49
5.55
0.06
-5.33
2.72
-1.72
-1.13
0.15
-0.3
0.14

> <PUBCHEM_SHAPE_SELFOVERLAP>
920.474

> <PUBCHEM_SHAPE_VOLUME>
220.9

> <PUBCHEM_COORDINATE_TYPE>
2
5
10

$$$$

