443474
  -OEChem-07051213023D

 53 55  0     1  0  0  0  0  0999 V2000
   -3.5232   -1.6184   -1.9273 O   0  0  0  0  0  0  0  0  0  0  0  0
   -0.9213    0.8142    0.2807 C   0  0  1  0  0  0  0  0  0  0  0  0
   -1.8004   -0.4704    0.0460 C   0  0  2  0  0  0  0  0  0  0  0  0
   -3.3623   -0.2875    0.0500 C   0  0  1  0  0  0  0  0  0  0  0  0
    0.5470    0.4430   -0.1904 C   0  0  2  0  0  0  0  0  0  0  0  0
   -1.4593    1.9754   -0.5942 C   0  0  0  0  0  0  0  0  0  0  0  0
   -3.7434    0.9445   -0.8063 C   0  0  0  0  0  0  0  0  0  0  0  0
   -1.2953   -1.6405    0.9192 C   0  0  0  0  0  0  0  0  0  0  0  0
   -2.9605    2.2016   -0.4515 C   0  0  0  0  0  0  0  0  0  0  0  0
   -0.8976    1.2761    1.7588 C   0  0  0  0  0  0  0  0  0  0  0  0
    1.0416   -0.8815    0.3834 C   0  0  0  0  0  0  0  0  0  0  0  0
    1.5908    1.5518    0.0599 C   0  0  0  0  0  0  0  0  0  0  0  0
   -4.0240   -1.5236   -0.6152 C   0  0  0  0  0  0  0  0  0  0  0  0
   -4.0009   -0.1642    1.4475 C   0  0  0  0  0  0  0  0  0  0  0  0
    0.1979   -1.7987    0.8884 C   0  0  0  0  0  0  0  0  0  0  0  0
    2.9685    1.1615   -0.4857 C   0  0  0  0  0  0  0  0  0  0  0  0
    2.4726   -1.1370    0.3400 C   0  0  0  0  0  0  0  0  0  0  0  0
    3.3731   -0.2315   -0.0800 C   0  0  0  0  0  0  0  0  0  0  0  0
    4.8366   -0.5492   -0.1694 C   0  0  0  0  0  0  0  0  0  0  0  0
    5.3170   -0.4213   -1.6110 C   0  0  0  0  0  0  0  0  0  0  0  0
    5.6433    0.3557    0.7571 C   0  0  0  0  0  0  0  0  0  0  0  0
   -1.5550   -0.7608   -0.9882 H   0  0  0  0  0  0  0  0  0  0  0  0
    0.5083    0.2957   -1.2818 H   0  0  0  0  0  0  0  0  0  0  0  0
   -1.2427    1.7706   -1.6510 H   0  0  0  0  0  0  0  0  0  0  0  0
   -0.9437    2.9123   -0.3525 H   0  0  0  0  0  0  0  0  0  0  0  0
   -4.8168    1.1534   -0.7108 H   0  0  0  0  0  0  0  0  0  0  0  0
   -3.5706    0.7499   -1.8722 H   0  0  0  0  0  0  0  0  0  0  0  0
   -1.7298   -2.5815    0.5659 H   0  0  0  0  0  0  0  0  0  0  0  0
   -1.5997   -1.5186    1.9635 H   0  0  0  0  0  0  0  0  0  0  0  0
   -3.2070    2.5380    0.5607 H   0  0  0  0  0  0  0  0  0  0  0  0
   -3.2637    3.0126   -1.1248 H   0  0  0  0  0  0  0  0  0  0  0  0
   -0.4364    0.5394    2.4227 H   0  0  0  0  0  0  0  0  0  0  0  0
   -0.3338    2.2085    1.8726 H   0  0  0  0  0  0  0  0  0  0  0  0
   -1.8889    1.4910    2.1517 H   0  0  0  0  0  0  0  0  0  0  0  0
    1.6944    1.7474    1.1345 H   0  0  0  0  0  0  0  0  0  0  0  0
    1.2835    2.4920   -0.4101 H   0  0  0  0  0  0  0  0  0  0  0  0
   -5.1123   -1.4043   -0.6714 H   0  0  0  0  0  0  0  0  0  0  0  0
   -3.8148   -2.4516   -0.0754 H   0  0  0  0  0  0  0  0  0  0  0  0
   -3.7495   -1.0143    2.0886 H   0  0  0  0  0  0  0  0  0  0  0  0
   -3.7248    0.7506    1.9693 H   0  0  0  0  0  0  0  0  0  0  0  0
   -5.0954   -0.1448    1.3699 H   0  0  0  0  0  0  0  0  0  0  0  0
    0.5840   -2.7288    1.2999 H   0  0  0  0  0  0  0  0  0  0  0  0
    3.6798    1.9135   -0.1327 H   0  0  0  0  0  0  0  0  0  0  0  0
    2.9515    1.2237   -1.5808 H   0  0  0  0  0  0  0  0  0  0  0  0
    2.8092   -2.1242    0.6478 H   0  0  0  0  0  0  0  0  0  0  0  0
    5.0092   -1.5860    0.1483 H   0  0  0  0  0  0  0  0  0  0  0  0
   -3.9447   -2.3897   -2.3430 H   0  0  0  0  0  0  0  0  0  0  0  0
    5.2768    0.6114   -1.9745 H   0  0  0  0  0  0  0  0  0  0  0  0
    4.7180   -1.0430   -2.2860 H   0  0  0  0  0  0  0  0  0  0  0  0
    6.3580   -0.7536   -1.6944 H   0  0  0  0  0  0  0  0  0  0  0  0
    5.2271    0.3652    1.7707 H   0  0  0  0  0  0  0  0  0  0  0  0
    5.7026    1.3885    0.3989 H   0  0  0  0  0  0  0  0  0  0  0  0
    6.6740   -0.0104    0.8305 H   0  0  0  0  0  0  0  0  0  0  0  0
  1 13  1  0  0  0  0
  1 47  1  0  0  0  0
  2  3  1  0  0  0  0
  2  5  1  0  0  0  0
  2  6  1  0  0  0  0
  2 10  1  0  0  0  0
  3  4  1  0  0  0  0
  3  8  1  0  0  0  0
  3 22  1  0  0  0  0
  4  7  1  0  0  0  0
  4 13  1  0  0  0  0
  4 14  1  0  0  0  0
  5 11  1  0  0  0  0
  5 12  1  0  0  0  0
  5 23  1  0  0  0  0
  6  9  1  0  0  0  0
  6 24  1  0  0  0  0
  6 25  1  0  0  0  0
  7  9  1  0  0  0  0
  7 26  1  0  0  0  0
  7 27  1  0  0  0  0
  8 15  1  0  0  0  0
  8 28  1  0  0  0  0
  8 29  1  0  0  0  0
  9 30  1  0  0  0  0
  9 31  1  0  0  0  0
 10 32  1  0  0  0  0
 10 33  1  0  0  0  0
 10 34  1  0  0  0  0
 11 15  2  0  0  0  0
 11 17  1  0  0  0  0
 12 16  1  0  0  0  0
 12 35  1  0  0  0  0
 12 36  1  0  0  0  0
 13 37  1  0  0  0  0
 13 38  1  0  0  0  0
 14 39  1  0  0  0  0
 14 40  1  0  0  0  0
 14 41  1  0  0  0  0
 15 42  1  0  0  0  0
 16 18  1  0  0  0  0
 16 43  1  0  0  0  0
 16 44  1  0  0  0  0
 17 18  2  0  0  0  0
 17 45  1  0  0  0  0
 18 19  1  0  0  0  0
 19 20  1  0  0  0  0
 19 21  1  0  0  0  0
 19 46  1  0  0  0  0
 20 48  1  0  0  0  0
 20 49  1  0  0  0  0
 20 50  1  0  0  0  0
 21 51  1  0  0  0  0
 21 52  1  0  0  0  0
 21 53  1  0  0  0  0
M  END
> <PUBCHEM_COMPOUND_CID>
443474

> <PUBCHEM_CONFORMER_RMSD>
0.6

> <PUBCHEM_CONFORMER_DIVERSEORDER>
1
3
2
5
6
4

> <PUBCHEM_MMFF94_PARTIAL_CHARGES>
13
1 -0.68
11 -0.14
13 0.28
15 -0.29
16 0.14
17 -0.15
18 -0.28
19 0.14
42 0.15
45 0.15
47 0.4
5 0.14
8 0.14

> <PUBCHEM_EFFECTIVE_ROTOR_COUNT>
3.4

> <PUBCHEM_PHARMACOPHORE_FEATURES>
6
1 1 acceptor
1 1 donor
3 19 20 21 hydrophobe
6 2 3 4 6 7 9 rings
6 2 3 5 8 11 15 rings
6 5 11 12 16 17 18 rings

> <PUBCHEM_HEAVY_ATOM_COUNT>
21

> <PUBCHEM_ATOM_DEF_STEREO_COUNT>
4

> <PUBCHEM_ATOM_UDEF_STEREO_COUNT>
0

> <PUBCHEM_BOND_DEF_STEREO_COUNT>
0

> <PUBCHEM_BOND_UDEF_STEREO_COUNT>
0

> <PUBCHEM_ISOTOPIC_ATOM_COUNT>
0

> <PUBCHEM_COMPONENT_COUNT>
1

> <PUBCHEM_CACTVS_TAUTO_COUNT>
1

> <PUBCHEM_CONFORMER_ID>
0006C45200000001

> <PUBCHEM_MMFF94_ENERGY>
61.0611

> <PUBCHEM_FEATURE_SELFOVERLAP>
30.479

> <PUBCHEM_SHAPE_FINGERPRINT>
10062212 137 18271254931331331203
11089746 13 12607407655210930428
11315181 36 18186516631890144616
11578080 2 17969246485363922601
12236239 1 18186796976715463019
12390115 104 18194105533421462105
12403259 415 18413387635702946272
12403260 363 18272094876927324612
128620 24 18335701663227428514
13140716 1 18127401255161007858
13224815 77 18335709329353752929
13583140 156 15841555141241493737
13862211 1 18343305851285746506
14251751 93 18335708260054635087
14787075 74 18188500051665790496
15163728 17 15553347958483159207
15196674 1 18271526502472166194
15209289 33 18412259536545436225
15788980 27 18272368689650431846
16752209 62 18342463638216162834
16945 1 18271533009257942531
17349148 13 18341896294732581226
18186145 218 18334858311675286377
19862831 5 18410291419511588116
200 152 18259705588263097818
20300324 65 18407762538240614471
20645477 70 17458335391167405254
21267235 1 18341603798669575787
21637258 2 16515975770231920887
22393880 68 18339932596676950500
23175994 123 17749105599522390296
23366157 5 17272006759929013834
23379529 103 17898573064200343511
23402539 116 18342463637962747294
23402655 69 18341335603362401412
23557571 272 17894351072603147234
23559900 14 18336831901315530096
25147074 1 18128552641804581419
2748010 2 17838049299950186355
2838139 119 15266803081816787391
2871803 45 18341345392204681831
296302 2 14908176456553192170
3004659 81 17917145113759675394
3268164 11 18411986874883815222
3286 77 17458912509405331553
34934 24 18128825325136464469
350125 39 18272642467919719173
5104073 3 18200313359018227744
559249 180 18058454364966659666
9709674 26 18411694392217544166

> <PUBCHEM_SHAPE_MULTIPOLES>
426.3
10.15
2.02
1.33
10.29
0.29
-0.08
-0.91
-2.33
-1.5
-0.09
-0.47
-0.17
-0.14

> <PUBCHEM_SHAPE_SELFOVERLAP>
888.262

> <PUBCHEM_SHAPE_VOLUME>
239.9

> <PUBCHEM_COORDINATE_TYPE>
2
5
10

$$$$

