440596
  -OEChem-07051212502D

 41 46  0     1  0  0  0  0  0999 V2000
    5.9658    3.5673    0.0000 O   0  0  0  0  0  0  0  0  0  0  0  0
    4.5204    4.4167    0.0000 O   0  0  0  0  0  0  0  0  0  0  0  0
    6.9666   -3.5278    0.0000 O   0  0  0  0  0  0  0  0  0  0  0  0
    5.4611   -4.4125    0.0000 O   0  0  0  0  0  0  0  0  0  0  0  0
    2.5405    1.3337    0.0000 O   0  0  0  0  0  0  0  0  0  0  0  0
    6.0427    0.3368    0.0000 N   0  0  3  0  0  0  0  0  0  0  0  0
    5.1767   -0.1632    0.0000 C   0  0  0  0  0  0  0  0  0  0  0  0
    5.1767    1.8368    0.0000 C   0  0  0  0  0  0  0  0  0  0  0  0
    6.0427    1.3368    0.0000 C   0  0  0  0  0  0  0  0  0  0  0  0
    4.3107    0.3368    0.0000 C   0  0  0  0  0  0  0  0  0  0  0  0
    4.3107    1.3368    0.0000 C   0  0  0  0  0  0  0  0  0  0  0  0
    5.1928   -1.2047    0.0000 C   0  0  0  0  0  0  0  0  0  0  0  0
    5.1928    2.8783    0.0000 C   0  0  0  0  0  0  0  0  0  0  0  0
    4.2947   -1.7324    0.0000 C   0  0  0  0  0  0  0  0  0  0  0  0
    3.4007   -0.1700    0.0000 C   0  0  0  0  0  0  0  0  0  0  0  0
    3.4007    1.8437    0.0000 C   0  0  0  0  0  0  0  0  0  0  0  0
    4.2947    3.4061    0.0000 C   0  0  0  0  0  0  0  0  0  0  0  0
    3.3926   -1.2116    0.0000 C   0  0  0  0  0  0  0  0  0  0  0  0
    6.9088   -0.1632    0.0000 C   0  0  0  0  0  0  0  0  0  0  0  0
    6.1447   -1.7253    0.0000 C   0  0  0  0  0  0  0  0  0  0  0  0
    3.3926    2.8853    0.0000 C   0  0  0  0  0  0  0  0  0  0  0  0
    4.2864   -2.8174    0.0000 C   0  0  0  0  0  0  0  0  0  0  0  0
    6.1614   -2.8102    0.0000 C   0  0  0  0  0  0  0  0  0  0  0  0
    5.2260   -3.3599    0.0000 C   0  0  0  0  0  0  0  0  0  0  0  0
    5.5511    4.5161    0.0000 C   0  0  0  0  0  0  0  0  0  0  0  0
    6.5347   -4.5161    0.0000 C   0  0  0  0  0  0  0  0  0  0  0  0
    6.6533    1.2292    0.0000 H   0  0  0  0  0  0  0  0  0  0  0  0
    6.2548    1.9194    0.0000 H   0  0  0  0  0  0  0  0  0  0  0  0
    2.8674    0.1462    0.0000 H   0  0  0  0  0  0  0  0  0  0  0  0
    2.8545   -1.5195    0.0000 H   0  0  0  0  0  0  0  0  0  0  0  0
    6.5988   -0.7001    0.0000 H   0  0  0  0  0  0  0  0  0  0  0  0
    7.4457   -0.4732    0.0000 H   0  0  0  0  0  0  0  0  0  0  0  0
    7.2188    0.3738    0.0000 H   0  0  0  0  0  0  0  0  0  0  0  0
    6.6756   -1.4050    0.0000 H   0  0  0  0  0  0  0  0  0  0  0  0
    2.8545    3.1932    0.0000 H   0  0  0  0  0  0  0  0  0  0  0  0
    3.7482   -3.1253    0.0000 H   0  0  0  0  0  0  0  0  0  0  0  0
    6.1422    4.7033    0.0000 H   0  0  0  0  0  0  0  0  0  0  0  0
    5.4271    5.1235    0.0000 H   0  0  0  0  0  0  0  0  0  0  0  0
    6.4106   -5.1235    0.0000 H   0  0  0  0  0  0  0  0  0  0  0  0
    7.1258   -4.7033    0.0000 H   0  0  0  0  0  0  0  0  0  0  0  0
    2.0000    1.6375    0.0000 H   0  0  0  0  0  0  0  0  0  0  0  0
  1 13  1  0  0  0  0
  1 25  1  0  0  0  0
  2 17  1  0  0  0  0
  2 25  1  0  0  0  0
  3 23  1  0  0  0  0
  3 26  1  0  0  0  0
  4 24  1  0  0  0  0
  4 26  1  0  0  0  0
  5 16  1  0  0  0  0
  5 41  1  0  0  0  0
  6  7  1  0  0  0  0
  6  9  1  0  0  0  0
  6 19  1  0  0  0  0
  7 10  2  0  0  0  0
  7 12  1  0  0  0  0
  8  9  1  0  0  0  0
  8 11  2  0  0  0  0
  8 13  1  0  0  0  0
  9 27  1  0  0  0  0
  9 28  1  0  0  0  0
 10 11  1  0  0  0  0
 10 15  1  0  0  0  0
 11 16  1  0  0  0  0
 12 14  1  0  0  0  0
 12 20  2  0  0  0  0
 13 17  2  0  0  0  0
 14 18  1  0  0  0  0
 14 22  2  0  0  0  0
 15 18  2  0  0  0  0
 15 29  1  0  0  0  0
 16 21  2  0  0  0  0
 17 21  1  0  0  0  0
 18 30  1  0  0  0  0
 19 31  1  0  0  0  0
 19 32  1  0  0  0  0
 19 33  1  0  0  0  0
 20 23  1  0  0  0  0
 20 34  1  0  0  0  0
 21 35  1  0  0  0  0
 22 24  1  0  0  0  0
 22 36  1  0  0  0  0
 23 24  2  0  0  0  0
 25 37  1  0  0  0  0
 25 38  1  0  0  0  0
 26 39  1  0  0  0  0
 26 40  1  0  0  0  0
M  END
> <PUBCHEM_COMPOUND_CID>
440596

> <PUBCHEM_COMPOUND_CANONICALIZED>
1

> <PUBCHEM_CACTVS_COMPLEXITY>
560

> <PUBCHEM_CACTVS_HBOND_ACCEPTOR>
6

> <PUBCHEM_CACTVS_HBOND_DONOR>
1

> <PUBCHEM_CACTVS_ROTATABLE_BOND>
0

> <PUBCHEM_CACTVS_SUBSKEYS>
AAADccB6OAAAAAAAAAAAAAAAAAAAASJAAAA8YMEAAAAAAEjxVAAAHgAACAAADAzBmAcyzsMABgCAAiRCQACCCAAhIAAIiAAOzIgdJyLGsZukcCpnwBXO+Afw8P8O4QADSAAaQADCAAaQADSAAAAAAAAAAA==

> <PUBCHEM_IUPAC_INCHI>
InChI=1S/C20H15NO5/c1-21-7-13-18(14(22)6-17-20(13)26-9-25-17)11-3-2-10-4-15-16(24-8-23-15)5-12(10)19(11)21/h2-6,22H,7-9H2,1H3

> <PUBCHEM_IUPAC_INCHIKEY>
UYMYPMGPARAZNU-UHFFFAOYSA-N

> <PUBCHEM_XLOGP3_AA>
3.8

> <PUBCHEM_EXACT_MASS>
349.095023

> <PUBCHEM_MOLECULAR_FORMULA>
C20H15NO5

> <PUBCHEM_MOLECULAR_WEIGHT>
349.3368

> <PUBCHEM_OPENEYE_CAN_SMILES>
CN1CC2=C3C(=CC(=C2C4=C1C5=CC6=C(C=C5C=C4)OCO6)O)OCO3

> <PUBCHEM_OPENEYE_ISO_SMILES>
CN1CC2=C3C(=CC(=C2C4=C1C5=CC6=C(C=C5C=C4)OCO6)O)OCO3

> <PUBCHEM_CACTVS_TPSA>
60.4

> <PUBCHEM_MONOISOTOPIC_WEIGHT>
349.095023

> <PUBCHEM_TOTAL_CHARGE>
0

> <PUBCHEM_HEAVY_ATOM_COUNT>
26

> <PUBCHEM_ATOM_DEF_STEREO_COUNT>
0

> <PUBCHEM_ATOM_UDEF_STEREO_COUNT>
0

> <PUBCHEM_BOND_DEF_STEREO_COUNT>
0

> <PUBCHEM_BOND_UDEF_STEREO_COUNT>
0

> <PUBCHEM_ISOTOPIC_ATOM_COUNT>
0

> <PUBCHEM_COMPONENT_COUNT>
1

> <PUBCHEM_CACTVS_TAUTO_COUNT>
2

> <PUBCHEM_COORDINATE_TYPE>
1
5
255

> <PUBCHEM_BONDANNOTATIONS>
10  15  8
11  16  8
12  14  8
12  20  8
13  17  8
14  18  8
14  22  8
15  18  8
16  21  8
17  21  8
20  23  8
22  24  8
23  24  8
7  10  8
7  12  8
8  11  8
8  13  8

$$$$

