164619
  -OEChem-07051212513D

 27 27  0     1  0  0  0  0  0999 V2000
    2.4476   -0.3351   -0.4318 O   0  0  0  0  0  0  0  0  0  0  0  0
    0.8295   -2.6692   -0.1378 O   0  0  0  0  0  0  0  0  0  0  0  0
    1.1865    2.0655    0.6730 O   0  0  0  0  0  0  0  0  0  0  0  0
   -1.2639   -1.5191    1.2848 O   0  0  0  0  0  0  0  0  0  0  0  0
   -1.4513    2.4228   -0.3711 O   0  0  0  0  0  0  0  0  0  0  0  0
   -3.1107    0.0636   -0.0866 O   0  0  0  0  0  0  0  0  0  0  0  0
    1.1294   -0.2828    0.1218 C   0  0  0  0  0  0  0  0  0  0  0  0
    0.3097   -1.3996   -0.5312 C   0  0  2  0  0  0  0  0  0  0  0  0
    0.5289    1.1007   -0.1541 C   0  0  1  0  0  0  0  0  0  0  0  0
   -1.1626   -1.3297   -0.1304 C   0  0  2  0  0  0  0  0  0  0  0  0
   -0.9719    1.1788    0.1481 C   0  0  2  0  0  0  0  0  0  0  0  0
   -1.7480    0.0316   -0.5076 C   0  0  0  0  0  0  0  0  0  0  0  0
    3.2768    0.6725    0.1227 C   0  0  0  0  0  0  0  0  0  0  0  0
    1.2190   -0.4672    1.2009 H   0  0  0  0  0  0  0  0  0  0  0  0
    0.4011   -1.3448   -1.6231 H   0  0  0  0  0  0  0  0  0  0  0  0
    0.7246    1.3985   -1.1924 H   0  0  0  0  0  0  0  0  0  0  0  0
   -1.7272   -2.1467   -0.5940 H   0  0  0  0  0  0  0  0  0  0  0  0
   -1.1457    1.2118    1.2305 H   0  0  0  0  0  0  0  0  0  0  0  0
   -1.7521    0.1541   -1.5970 H   0  0  0  0  0  0  0  0  0  0  0  0
    1.7715   -2.6846   -0.3795 H   0  0  0  0  0  0  0  0  0  0  0  0
    0.7965    2.9339    0.4738 H   0  0  0  0  0  0  0  0  0  0  0  0
   -2.2080   -1.5980    1.5021 H   0  0  0  0  0  0  0  0  0  0  0  0
   -2.4073    2.4598   -0.1969 H   0  0  0  0  0  0  0  0  0  0  0  0
   -3.1283    0.1181    0.8838 H   0  0  0  0  0  0  0  0  0  0  0  0
    3.1584    0.7746    1.2064 H   0  0  0  0  0  0  0  0  0  0  0  0
    3.1717    1.6186   -0.4154 H   0  0  0  0  0  0  0  0  0  0  0  0
    4.3120    0.3551   -0.0450 H   0  0  0  0  0  0  0  0  0  0  0  0
  1  7  1  0  0  0  0
  1 13  1  0  0  0  0
  2  8  1  0  0  0  0
  2 20  1  0  0  0  0
  3  9  1  0  0  0  0
  3 21  1  0  0  0  0
  4 10  1  0  0  0  0
  4 22  1  0  0  0  0
  5 11  1  0  0  0  0
  5 23  1  0  0  0  0
  6 12  1  0  0  0  0
  6 24  1  0  0  0  0
  7  8  1  0  0  0  0
  7  9  1  0  0  0  0
  7 14  1  0  0  0  0
  8 10  1  0  0  0  0
  8 15  1  0  0  0  0
  9 11  1  0  0  0  0
  9 16  1  0  0  0  0
 10 12  1  0  0  0  0
 10 17  1  0  0  0  0
 11 12  1  0  0  0  0
 11 18  1  0  0  0  0
 12 19  1  0  0  0  0
 13 25  1  0  0  0  0
 13 26  1  0  0  0  0
 13 27  1  0  0  0  0
M  END
> <PUBCHEM_COMPOUND_CID>
164619

> <PUBCHEM_CONFORMER_RMSD>
0.6

> <PUBCHEM_CONFORMER_DIVERSEORDER>
1
2

> <PUBCHEM_MMFF94_PARTIAL_CHARGES>
18
1 -0.56
10 0.28
11 0.28
12 0.28
13 0.28
2 -0.68
20 0.4
21 0.4
22 0.4
23 0.4
24 0.4
3 -0.68
4 -0.68
5 -0.68
6 -0.68
7 0.28
8 0.28
9 0.28

> <PUBCHEM_EFFECTIVE_ROTOR_COUNT>
2.2

> <PUBCHEM_PHARMACOPHORE_FEATURES>
12
1 1 acceptor
1 2 acceptor
1 2 donor
1 3 acceptor
1 3 donor
1 4 acceptor
1 4 donor
1 5 acceptor
1 5 donor
1 6 acceptor
1 6 donor
6 7 8 9 10 11 12 rings

> <PUBCHEM_HEAVY_ATOM_COUNT>
13

> <PUBCHEM_ATOM_DEF_STEREO_COUNT>
4

> <PUBCHEM_ATOM_UDEF_STEREO_COUNT>
0

> <PUBCHEM_BOND_DEF_STEREO_COUNT>
0

> <PUBCHEM_BOND_UDEF_STEREO_COUNT>
0

> <PUBCHEM_ISOTOPIC_ATOM_COUNT>
0

> <PUBCHEM_COMPONENT_COUNT>
1

> <PUBCHEM_CACTVS_TAUTO_COUNT>
1

> <PUBCHEM_CONFORMER_ID>
0002830B00000001

> <PUBCHEM_MMFF94_ENERGY>
43.6401

> <PUBCHEM_FEATURE_SELFOVERLAP>
60.924

> <PUBCHEM_SHAPE_FINGERPRINT>
11206711 2 18410014372488203445
12423570 1 6620222900319763696
12524768 44 18193848037020006152
13380535 76 18340774839552426439
16945 1 18336560385897973703
18185500 45 16539046096329903399
193761 8 17977103792364368324
20201158 50 18410294709298359335
20511035 2 18195524783709695101
20588541 1 18411975871283188415
21040471 1 18267304424781290492
21501502 16 18194120956532451167
22344851 341 17910678992216594835
23235685 24 18412832382177444877
2334 1 17977948981888284813
23419403 2 15535675614873208237
23552423 10 17981042230167219815
23559900 14 18115867572698816942
241688 4 17761211415859553411
2748010 2 18122345679305871013
5084963 1 17750235803039022190
528886 8 18335990774365990595
53812653 166 18262243329682675953
66348 1 18410576149857244300

> <PUBCHEM_SHAPE_MULTIPOLES>
232.32
3.5
2.42
0.78
1.26
0.1
-0.12
-0.64
0.02
-0.19
-0.05
-0.12
0.12
0.39

> <PUBCHEM_SHAPE_SELFOVERLAP>
467.137

> <PUBCHEM_SHAPE_VOLUME>
135.4

> <PUBCHEM_COORDINATE_TYPE>
2
5
10

$$$$

