5281595
  -OEChem-07051212582D

 76 79  0     1  0  0  0  0  0999 V2000
    2.8660    0.8100    0.0000 O   0  0  0  0  0  0  0  0  0  0  0  0
    6.5856   -0.0749    0.0000 O   0  0  0  0  0  0  0  0  0  0  0  0
    3.7226    0.2933    0.0000 O   0  0  0  0  0  0  0  0  0  0  0  0
    3.7118   -2.6532    0.0000 O   0  0  0  0  0  0  0  0  0  0  0  0
    5.4641    1.3100    0.0000 N   0  0  0  0  0  0  0  0  0  0  0  0
    6.5468    2.5124    0.0000 N   0  0  3  0  0  0  0  0  0  0  0  0
    5.4641   -0.6900    0.0000 N   0  0  0  0  0  0  0  0  0  0  0  0
    4.5981   -3.1900    0.0000 N   0  0  0  0  0  0  0  0  0  0  0  0
    7.0468    1.6464    0.0000 C   0  0  3  0  0  0  0  0  0  0  0  0
    4.5981    0.8100    0.0000 C   0  0  1  0  0  0  0  0  0  0  0  0
    5.5686    2.3045    0.0000 C   0  0  0  0  0  0  0  0  0  0  0  0
    6.3776    0.9033    0.0000 C   0  0  0  0  0  0  0  0  0  0  0  0
    8.0413    1.5419    0.0000 C   0  0  0  0  0  0  0  0  0  0  0  0
    3.7320    1.3100    0.0000 C   0  0  1  0  0  0  0  0  0  0  0  0
    8.6291    2.3509    0.0000 C   0  0  0  0  0  0  0  0  0  0  0  0
    4.5981   -0.1900    0.0000 C   0  0  0  0  0  0  0  0  0  0  0  0
    6.9535    3.4260    0.0000 C   0  0  0  0  0  0  0  0  0  0  0  0
    3.7320    2.3100    0.0000 C   0  0  0  0  0  0  0  0  0  0  0  0
    9.6236    2.2464    0.0000 C   0  0  0  0  0  0  0  0  0  0  0  0
    5.4641   -1.6900    0.0000 C   0  0  1  0  0  0  0  0  0  0  0  0
    6.3301   -2.1900    0.0000 C   0  0  0  0  0  0  0  0  0  0  0  0
    4.5981    2.8100    0.0000 C   0  0  0  0  0  0  0  0  0  0  0  0
    2.8660    2.8100    0.0000 C   0  0  0  0  0  0  0  0  0  0  0  0
   10.2114    3.0554    0.0000 C   0  0  0  0  0  0  0  0  0  0  0  0
    4.5981   -2.1900    0.0000 C   0  0  0  0  0  0  0  0  0  0  0  0
    2.8660   -0.1900    0.0000 C   0  0  0  0  0  0  0  0  0  0  0  0
    7.1962   -1.6900    0.0000 C   0  0  0  0  0  0  0  0  0  0  0  0
    6.3301   -3.1900    0.0000 C   0  0  0  0  0  0  0  0  0  0  0  0
    4.5981    3.8100    0.0000 C   0  0  0  0  0  0  0  0  0  0  0  0
    2.8660    3.8100    0.0000 C   0  0  0  0  0  0  0  0  0  0  0  0
    3.7320    4.3100    0.0000 C   0  0  0  0  0  0  0  0  0  0  0  0
    3.7320   -0.6900    0.0000 C   0  0  0  0  0  0  0  0  0  0  0  0
    2.0000   -0.6900    0.0000 C   0  0  0  0  0  0  0  0  0  0  0  0
    2.8660   -2.1900    0.0000 C   0  0  0  0  0  0  0  0  0  0  0  0
    3.7320   -1.6900    0.0000 C   0  0  0  0  0  0  0  0  0  0  0  0
    2.0000   -1.6900    0.0000 C   0  0  0  0  0  0  0  0  0  0  0  0
    3.7320   -3.6900    0.0000 C   0  0  0  0  0  0  0  0  0  0  0  0
    2.8660   -3.1900    0.0000 C   0  0  0  0  0  0  0  0  0  0  0  0
    7.5097    2.3593    0.0000 H   0  0  0  0  0  0  0  0  0  0  0  0
    5.1350    0.5000    0.0000 H   0  0  0  0  0  0  0  0  0  0  0  0
    5.5038    2.9211    0.0000 H   0  0  0  0  0  0  0  0  0  0  0  0
    4.9486    2.3045    0.0000 H   0  0  0  0  0  0  0  0  0  0  0  0
    7.8704    0.9459    0.0000 H   0  0  0  0  0  0  0  0  0  0  0  0
    8.5986    1.2701    0.0000 H   0  0  0  0  0  0  0  0  0  0  0  0
    4.2690    1.6200    0.0000 H   0  0  0  0  0  0  0  0  0  0  0  0
    8.8000    2.9469    0.0000 H   0  0  0  0  0  0  0  0  0  0  0  0
    8.0718    2.6227    0.0000 H   0  0  0  0  0  0  0  0  0  0  0  0
    7.5199    3.1738    0.0000 H   0  0  0  0  0  0  0  0  0  0  0  0
    7.2057    3.9924    0.0000 H   0  0  0  0  0  0  0  0  0  0  0  0
    6.3871    3.6782    0.0000 H   0  0  0  0  0  0  0  0  0  0  0  0
    9.4527    1.6504    0.0000 H   0  0  0  0  0  0  0  0  0  0  0  0
   10.1809    1.9746    0.0000 H   0  0  0  0  0  0  0  0  0  0  0  0
    6.0010   -1.3800    0.0000 H   0  0  0  0  0  0  0  0  0  0  0  0
    6.0010   -0.3800    0.0000 H   0  0  0  0  0  0  0  0  0  0  0  0
    6.8671   -2.5000    0.0000 H   0  0  0  0  0  0  0  0  0  0  0  0
    5.1350    2.5000    0.0000 H   0  0  0  0  0  0  0  0  0  0  0  0
    2.3291    2.5000    0.0000 H   0  0  0  0  0  0  0  0  0  0  0  0
   10.7130    2.6910    0.0000 H   0  0  0  0  0  0  0  0  0  0  0  0
   10.5758    3.5570    0.0000 H   0  0  0  0  0  0  0  0  0  0  0  0
    9.7098    3.4198    0.0000 H   0  0  0  0  0  0  0  0  0  0  0  0
    7.5062   -2.2269    0.0000 H   0  0  0  0  0  0  0  0  0  0  0  0
    7.7331   -1.3800    0.0000 H   0  0  0  0  0  0  0  0  0  0  0  0
    6.8862   -1.1531    0.0000 H   0  0  0  0  0  0  0  0  0  0  0  0
    5.7101   -3.1900    0.0000 H   0  0  0  0  0  0  0  0  0  0  0  0
    6.3301   -3.8100    0.0000 H   0  0  0  0  0  0  0  0  0  0  0  0
    6.9501   -3.1900    0.0000 H   0  0  0  0  0  0  0  0  0  0  0  0
    5.1350    4.1200    0.0000 H   0  0  0  0  0  0  0  0  0  0  0  0
    2.3291    4.1200    0.0000 H   0  0  0  0  0  0  0  0  0  0  0  0
    3.7320    4.9300    0.0000 H   0  0  0  0  0  0  0  0  0  0  0  0
    5.1350   -3.5000    0.0000 H   0  0  0  0  0  0  0  0  0  0  0  0
    4.2690   -0.3800    0.0000 H   0  0  0  0  0  0  0  0  0  0  0  0
    1.4631   -0.3800    0.0000 H   0  0  0  0  0  0  0  0  0  0  0  0
    4.2690   -2.0000    0.0000 H   0  0  0  0  0  0  0  0  0  0  0  0
    1.4631   -2.0000    0.0000 H   0  0  0  0  0  0  0  0  0  0  0  0
    3.7320   -4.3100    0.0000 H   0  0  0  0  0  0  0  0  0  0  0  0
    2.3291   -3.5000    0.0000 H   0  0  0  0  0  0  0  0  0  0  0  0
  1 14  1  0  0  0  0
  1 26  1  0  0  0  0
  2 12  2  0  0  0  0
  3 16  2  0  0  0  0
  4 25  2  0  0  0  0
 10  5  1  6  0  0  0
  5 11  1  0  0  0  0
  5 12  1  0  0  0  0
  6  9  1  0  0  0  0
  6 11  1  0  0  0  0
  6 17  1  0  0  0  0
  7 16  1  0  0  0  0
  7 20  1  0  0  0  0
  7 54  1  0  0  0  0
  8 25  1  0  0  0  0
  8 37  1  0  0  0  0
  8 70  1  0  0  0  0
  9 12  1  0  0  0  0
  9 13  1  0  0  0  0
  9 39  1  0  0  0  0
 10 14  1  0  0  0  0
 10 16  1  0  0  0  0
 10 40  1  0  0  0  0
 11 41  1  0  0  0  0
 11 42  1  0  0  0  0
 13 15  1  0  0  0  0
 13 43  1  0  0  0  0
 13 44  1  0  0  0  0
 14 18  1  6  0  0  0
 14 45  1  0  0  0  0
 15 19  1  0  0  0  0
 15 46  1  0  0  0  0
 15 47  1  0  0  0  0
 17 48  1  0  0  0  0
 17 49  1  0  0  0  0
 17 50  1  0  0  0  0
 18 22  2  0  0  0  0
 18 23  1  0  0  0  0
 19 24  1  0  0  0  0
 19 51  1  0  0  0  0
 19 52  1  0  0  0  0
 20 21  1  1  0  0  0
 20 25  1  0  0  0  0
 20 53  1  0  0  0  0
 21 27  1  0  0  0  0
 21 28  1  0  0  0  0
 21 55  1  0  0  0  0
 22 29  1  0  0  0  0
 22 56  1  0  0  0  0
 23 30  2  0  0  0  0
 23 57  1  0  0  0  0
 24 58  1  0  0  0  0
 24 59  1  0  0  0  0
 24 60  1  0  0  0  0
 26 32  2  0  0  0  0
 26 33  1  0  0  0  0
 27 61  1  0  0  0  0
 27 62  1  0  0  0  0
 27 63  1  0  0  0  0
 28 64  1  0  0  0  0
 28 65  1  0  0  0  0
 28 66  1  0  0  0  0
 29 31  2  0  0  0  0
 29 67  1  0  0  0  0
 30 31  1  0  0  0  0
 30 68  1  0  0  0  0
 31 69  1  0  0  0  0
 32 35  1  0  0  0  0
 32 71  1  0  0  0  0
 33 36  2  0  0  0  0
 33 72  1  0  0  0  0
 34 35  2  0  0  0  0
 34 36  1  0  0  0  0
 34 38  1  0  0  0  0
 35 73  1  0  0  0  0
 36 74  1  0  0  0  0
 37 38  2  0  0  0  0
 37 75  1  0  0  0  0
 38 76  1  0  0  0  0
M  END
> <PUBCHEM_COMPOUND_CID>
5281595

> <PUBCHEM_COMPOUND_CANONICALIZED>
1

> <PUBCHEM_CACTVS_COMPLEXITY>
847

> <PUBCHEM_CACTVS_HBOND_ACCEPTOR>
5

> <PUBCHEM_CACTVS_HBOND_DONOR>
2

> <PUBCHEM_CACTVS_ROTATABLE_BOND>
6

> <PUBCHEM_CACTVS_SUBSKEYS>
AAADcfB7uAAAAAAAAAAAAAAAAAAAAWAAAAAwYAAAAAAAAAABQAAAHgAQAAAADTzhmAYzBoPABACIAiFWUAACCAAgIgAIiIGOCIiOZjaEsTuXOCCu9xOYqAeYyKCOIAAAAAAAAABAAAAAAAAAAAAAAAAAAA==

> <PUBCHEM_IUPAC_OPENEYE_NAME>
(2Z,6S,9S,10R)-9-(4-butyl-3-methyl-5-oxo-imidazolidin-1-yl)-6-isopropyl-10-phenyl-11-oxa-4,7-diazabicyclo[10.2.2]hexadeca-1(14),2,12,15-tetraene-5,8-dione

> <PUBCHEM_IUPAC_CAS_NAME>
(2Z,6S,9S,10R)-9-(4-butyl-3-methyl-5-oxo-1-imidazolidinyl)-10-phenyl-6-propan-2-yl-11-oxa-4,7-diazabicyclo[10.2.2]hexadeca-1(14),2,12,15-tetraene-5,8-dione

> <PUBCHEM_IUPAC_NAME>
(2Z,6S,9S,10R)-9-(4-butyl-3-methyl-5-oxoimidazolidin-1-yl)-10-phenyl-6-propan-2-yl-11-oxa-4,7-diazabicyclo[10.2.2]hexadeca-1(14),2,12,15-tetraene-5,8-dione

> <PUBCHEM_IUPAC_SYSTEMATIC_NAME>
(2Z,6S,9S,10R)-9-(4-butyl-3-methyl-5-oxidanylidene-imidazolidin-1-yl)-10-phenyl-6-propan-2-yl-11-oxa-4,7-diazabicyclo[10.2.2]hexadeca-1(14),2,12,15-tetraene-5,8-dione

> <PUBCHEM_IUPAC_TRADITIONAL_NAME>
(2Z,6S,9S,10R)-9-(4-butyl-5-keto-3-methyl-imidazolidin-1-yl)-6-isopropyl-10-phenyl-11-oxa-4,7-diazabicyclo[10.2.2]hexadeca-1(14),2,12,15-tetraene-5,8-quinone

> <PUBCHEM_IUPAC_INCHI>
InChI=1S/C30H38N4O4/c1-5-6-12-24-30(37)34(19-33(24)4)26-27(22-10-8-7-9-11-22)38-23-15-13-21(14-16-23)17-18-31-28(35)25(20(2)3)32-29(26)36/h7-11,13-18,20,24-27H,5-6,12,19H2,1-4H3,(H,31,35)(H,32,36)/b18-17-/t24?,25-,26-,27+/m0/s1

> <PUBCHEM_IUPAC_INCHIKEY>
WAYZHHGAMCRHBA-TYLJBMGJSA-N

> <PUBCHEM_XLOGP3_AA>
4.9

> <PUBCHEM_EXACT_MASS>
518.289306

> <PUBCHEM_MOLECULAR_FORMULA>
C30H38N4O4

> <PUBCHEM_MOLECULAR_WEIGHT>
518.64712

> <PUBCHEM_OPENEYE_CAN_SMILES>
CCCCC1C(=O)N(CN1C)C2C(OC3=CC=C(C=C3)C=CNC(=O)C(NC2=O)C(C)C)C4=CC=CC=C4

> <PUBCHEM_OPENEYE_ISO_SMILES>
CCCCC1C(=O)N(CN1C)[C@H]2[C@H](OC3=CC=C(C=C3)/C=C\NC(=O)[C@@H](NC2=O)C(C)C)C4=CC=CC=C4

> <PUBCHEM_CACTVS_TPSA>
91

> <PUBCHEM_MONOISOTOPIC_WEIGHT>
518.289306

> <PUBCHEM_TOTAL_CHARGE>
0

> <PUBCHEM_HEAVY_ATOM_COUNT>
38

> <PUBCHEM_ATOM_DEF_STEREO_COUNT>
3

> <PUBCHEM_ATOM_UDEF_STEREO_COUNT>
1

> <PUBCHEM_BOND_DEF_STEREO_COUNT>
1

> <PUBCHEM_BOND_UDEF_STEREO_COUNT>
0

> <PUBCHEM_ISOTOPIC_ATOM_COUNT>
0

> <PUBCHEM_COMPONENT_COUNT>
1

> <PUBCHEM_CACTVS_TAUTO_COUNT>
18

> <PUBCHEM_COORDINATE_TYPE>
1
5
255

> <PUBCHEM_BONDANNOTATIONS>
14  18  6
18  22  8
18  23  8
20  21  5
22  29  8
23  30  8
26  32  8
26  33  8
29  31  8
30  31  8
32  35  8
33  36  8
34  35  8
34  36  8
10  5  6
9  39  3

$$$$

