443152
  -OEChem-07051213012D

 71 75  0     1  0  0  0  0  0999 V2000
   12.0707   -0.7156    0.0000 O   0  0  0  0  0  0  0  0  0  0  0  0
   11.7041    0.9772    0.0000 O   0  0  0  0  0  0  0  0  0  0  0  0
   15.0028   -0.0805    0.0000 O   0  0  0  0  0  0  0  0  0  0  0  0
   13.6588    1.4006    0.0000 O   0  0  0  0  0  0  0  0  0  0  0  0
   14.3921   -1.9850    0.0000 O   0  0  0  0  0  0  0  0  0  0  0  0
    4.4404   -1.0945    0.0000 O   0  0  0  0  0  0  0  0  0  0  0  0
    4.4453    3.0210    0.0000 O   0  0  0  0  0  0  0  0  0  0  0  0
   13.1094   -3.1489    0.0000 O   0  0  0  0  0  0  0  0  0  0  0  0
    2.7614    2.4677    0.0000 O   0  0  0  0  0  0  0  0  0  0  0  0
   11.4600   -2.6201    0.0000 O   0  0  0  0  0  0  0  0  0  0  0  0
    3.3402   -2.1228    0.0000 O   0  5  0  0  0  0  0  0  0  0  0  0
    2.0496   -0.9677    0.0000 O   0  0  0  0  0  0  0  0  0  0  0  0
    5.7517    1.8344    0.0000 N   0  0  0  0  0  0  0  0  0  0  0  0
    7.7213    0.1430    0.0000 N   0  0  0  0  0  0  0  0  0  0  0  0
   14.0254   -0.2922    0.0000 C   0  0  2  0  0  0  0  0  0  0  0  0
    7.3611    1.8372    0.0000 C   0  0  0  0  0  0  0  0  0  0  0  0
   13.3534    0.4483    0.0000 C   0  0  2  0  0  0  0  0  0  0  0  0
    6.5554    2.4194    0.0000 C   0  0  0  0  0  0  0  0  0  0  0  0
   13.7201   -1.2445    0.0000 C   0  0  1  0  0  0  0  0  0  0  0  0
    6.0580    0.8887    0.0000 C   0  0  0  0  0  0  0  0  0  0  0  0
   12.3761    0.2367    0.0000 C   0  0  1  0  0  0  0  0  0  0  0  0
    7.0521    0.8862    0.0000 C   0  0  0  0  0  0  0  0  0  0  0  0
   12.7427   -1.4561    0.0000 C   0  0  1  0  0  0  0  0  0  0  0  0
    8.3393    2.0451    0.0000 C   0  0  0  0  0  0  0  0  0  0  0  0
    4.3622    0.3176    0.0000 C   0  0  0  0  0  0  0  0  0  0  0  0
    9.0084    1.3020    0.0000 C   0  0  0  0  0  0  0  0  0  0  0  0
    5.3765    0.1092    0.0000 C   0  0  0  0  0  0  0  0  0  0  0  0
    3.6953   -0.4276    0.0000 C   0  0  2  0  0  0  0  0  0  0  0  0
    4.0430    1.3026    0.0000 C   0  0  0  0  0  0  0  0  0  0  0  0
    4.7425    2.0662    0.0000 C   0  0  0  0  0  0  0  0  0  0  0  0
    8.6994    0.3509    0.0000 C   0  0  0  0  0  0  0  0  0  0  0  0
    8.6483    2.9962    0.0000 C   0  0  0  0  0  0  0  0  0  0  0  0
   10.7268    0.7655    0.0000 C   0  0  0  0  0  0  0  0  0  0  0  0
   10.0238    1.5342    0.0000 C   0  0  0  0  0  0  0  0  0  0  0  0
    2.9501    0.2393    0.0000 C   0  0  0  0  0  0  0  0  0  0  0  0
   12.4374   -2.4084    0.0000 C   0  0  0  0  0  0  0  0  0  0  0  0
    9.3844   -0.4338    0.0000 C   0  0  0  0  0  0  0  0  0  0  0  0
    3.0659    1.5152    0.0000 C   0  0  0  0  0  0  0  0  0  0  0  0
   10.4049   -0.2251    0.0000 C   0  0  0  0  0  0  0  0  0  0  0  0
    7.9792    3.7393    0.0000 C   0  0  0  0  0  0  0  0  0  0  0  0
    3.0284   -1.1727    0.0000 C   0  0  0  0  0  0  0  0  0  0  0  0
    2.0000   -0.0725    0.0000 C   0  0  0  0  0  0  0  0  0  0  0  0
   14.2147    0.2982    0.0000 H   0  0  0  0  0  0  0  0  0  0  0  0
   12.9368    0.9075    0.0000 H   0  0  0  0  0  0  0  0  0  0  0  0
   14.3260   -1.1132    0.0000 H   0  0  0  0  0  0  0  0  0  0  0  0
    6.9693    2.8810    0.0000 H   0  0  0  0  0  0  0  0  0  0  0  0
    6.1399    2.8796    0.0000 H   0  0  0  0  0  0  0  0  0  0  0  0
   12.5654    0.8271    0.0000 H   0  0  0  0  0  0  0  0  0  0  0  0
   12.1368   -1.5874    0.0000 H   0  0  0  0  0  0  0  0  0  0  0  0
    5.5744   -0.4783    0.0000 H   0  0  0  0  0  0  0  0  0  0  0  0
    9.1957    2.7051    0.0000 H   0  0  0  0  0  0  0  0  0  0  0  0
    9.0300    3.4848    0.0000 H   0  0  0  0  0  0  0  0  0  0  0  0
   10.2086    2.1261    0.0000 H   0  0  0  0  0  0  0  0  0  0  0  0
    3.4376    0.6225    0.0000 H   0  0  0  0  0  0  0  0  0  0  0  0
    2.6574    0.7859    0.0000 H   0  0  0  0  0  0  0  0  0  0  0  0
    9.1860   -1.0212    0.0000 H   0  0  0  0  0  0  0  0  0  0  0  0
    2.4515    1.4318    0.0000 H   0  0  0  0  0  0  0  0  0  0  0  0
    3.0413    0.8957    0.0000 H   0  0  0  0  0  0  0  0  0  0  0  0
   15.1921    0.5099    0.0000 H   0  0  0  0  0  0  0  0  0  0  0  0
   13.2421    1.8597    0.0000 H   0  0  0  0  0  0  0  0  0  0  0  0
   10.8180   -0.6875    0.0000 H   0  0  0  0  0  0  0  0  0  0  0  0
   14.9980   -1.8538    0.0000 H   0  0  0  0  0  0  0  0  0  0  0  0
    8.4399    4.1542    0.0000 H   0  0  0  0  0  0  0  0  0  0  0  0
    7.5643    4.2001    0.0000 H   0  0  0  0  0  0  0  0  0  0  0  0
    7.5184    3.3245    0.0000 H   0  0  0  0  0  0  0  0  0  0  0  0
    1.8066    0.5166    0.0000 H   0  0  0  0  0  0  0  0  0  0  0  0
    1.4109   -0.2659    0.0000 H   0  0  0  0  0  0  0  0  0  0  0  0
    2.1934   -0.6616    0.0000 H   0  0  0  0  0  0  0  0  0  0  0  0
    4.3133   -1.7013    0.0000 H   0  0  0  0  0  0  0  0  0  0  0  0
   12.9201   -3.7393    0.0000 H   0  0  0  0  0  0  0  0  0  0  0  0
    2.1555    2.5994    0.0000 H   0  0  0  0  0  0  0  0  0  0  0  0
  1 21  1  0  0  0  0
  1 23  1  0  0  0  0
 21  2  1  1  0  0  0
  2 33  1  0  0  0  0
 15  3  1  1  0  0  0
  3 59  1  0  0  0  0
 17  4  1  6  0  0  0
  4 60  1  0  0  0  0
 19  5  1  6  0  0  0
  5 62  1  0  0  0  0
 28  6  1  1  0  0  0
  6 69  1  0  0  0  0
  7 30  2  0  0  0  0
  8 36  1  0  0  0  0
  8 70  1  0  0  0  0
  9 38  1  0  0  0  0
  9 71  1  0  0  0  0
 10 36  2  0  0  0  0
 11 41  1  0  0  0  0
 12 41  2  0  0  0  0
 13 18  1  0  0  0  0
 13 20  1  0  0  0  0
 13 30  1  0  0  0  0
 14 22  1  0  0  0  0
 14 31  2  0  0  0  0
 15 17  1  0  0  0  0
 15 19  1  0  0  0  0
 15 43  1  0  0  0  0
 16 18  1  0  0  0  0
 16 22  2  0  0  0  0
 16 24  1  0  0  0  0
 17 21  1  0  0  0  0
 17 44  1  0  0  0  0
 18 46  1  0  0  0  0
 18 47  1  0  0  0  0
 19 23  1  0  0  0  0
 19 45  1  0  0  0  0
 20 22  1  0  0  0  0
 20 27  2  0  0  0  0
 21 48  1  0  0  0  0
 23 36  1  1  0  0  0
 23 49  1  0  0  0  0
 24 26  2  0  0  0  0
 24 32  1  0  0  0  0
 25 27  1  0  0  0  0
 25 28  1  0  0  0  0
 25 29  2  0  0  0  0
 26 31  1  0  0  0  0
 26 34  1  0  0  0  0
 27 50  1  0  0  0  0
 28 35  1  0  0  0  0
 28 41  1  0  0  0  0
 29 30  1  0  0  0  0
 29 38  1  0  0  0  0
 31 37  1  0  0  0  0
 32 40  1  0  0  0  0
 32 51  1  0  0  0  0
 32 52  1  0  0  0  0
 33 34  2  0  0  0  0
 33 39  1  0  0  0  0
 34 53  1  0  0  0  0
 35 42  1  0  0  0  0
 35 54  1  0  0  0  0
 35 55  1  0  0  0  0
 37 39  2  0  0  0  0
 37 56  1  0  0  0  0
 38 57  1  0  0  0  0
 38 58  1  0  0  0  0
 39 61  1  0  0  0  0
 40 63  1  0  0  0  0
 40 64  1  0  0  0  0
 40 65  1  0  0  0  0
 42 66  1  0  0  0  0
 42 67  1  0  0  0  0
 42 68  1  0  0  0  0
M  CHG  1  11  -1
M  END
> <PUBCHEM_COMPOUND_CID>
443152

> <PUBCHEM_COMPOUND_CANONICALIZED>
1

> <PUBCHEM_CACTVS_COMPLEXITY>
1170

> <PUBCHEM_CACTVS_HBOND_ACCEPTOR>
13

> <PUBCHEM_CACTVS_HBOND_DONOR>
6

> <PUBCHEM_CACTVS_ROTATABLE_BOND>
7

> <PUBCHEM_CACTVS_SUBSKEYS>
AAADceB7PAAAAAAAAAAAAAAAAAAAAWAAAAA8SIEAAAAAAFix8AAAHgAACAAADFzxngcyzvMIFgCoAyXyXAKCiCAhIiAImCF+bNgddvbE8Z+2eCjn5hHP+Qf67PxOgEABAAACAAAAgAIAAAQAAAAAAAAAAA==

> <PUBCHEM_IUPAC_OPENEYE_NAME>
(2S)-2-[2-[(2S,3R,4S,5S,6S)-6-carboxy-3,4,5-trihydroxy-tetrahydropyran-2-yl]oxy-12-ethyl-8-(hydroxymethyl)-9-oxo-11H-indolizino[1,2-b]quinolin-7-yl]-2-hydroxy-butanoate

> <PUBCHEM_IUPAC_CAS_NAME>
(2S)-2-[2-[[(2S,3R,4S,5S,6S)-6-carboxy-3,4,5-trihydroxy-2-oxanyl]oxy]-12-ethyl-8-(hydroxymethyl)-9-oxo-11H-indolizino[1,2-b]quinolin-7-yl]-2-hydroxybutanoate

> <PUBCHEM_IUPAC_NAME>
(2S)-2-[2-[(2S,3R,4S,5S,6S)-6-carboxy-3,4,5-trihydroxyoxan-2-yl]oxy-12-ethyl-8-(hydroxymethyl)-9-oxo-11H-indolizino[1,2-b]quinolin-7-yl]-2-hydroxybutanoate

> <PUBCHEM_IUPAC_SYSTEMATIC_NAME>
(2S)-2-[2-[(2S,3R,4S,5S,6S)-6-carboxy-3,4,5-tris(oxidanyl)oxan-2-yl]oxy-12-ethyl-8-(hydroxymethyl)-9-oxidanylidene-11H-indolizino[1,2-b]quinolin-7-yl]-2-oxidanyl-butanoate

> <PUBCHEM_IUPAC_TRADITIONAL_NAME>
(2S)-2-[2-[(2S,3R,4S,5S,6S)-6-carboxy-3,4,5-trihydroxy-tetrahydropyran-2-yl]oxy-12-ethyl-9-keto-8-methylol-11H-indolizino[1,2-b]quinolin-7-yl]-2-hydroxy-butyrate

> <PUBCHEM_IUPAC_INCHI>
InChI=1S/C28H30N2O12/c1-3-12-13-7-11(41-26-22(34)20(32)21(33)23(42-26)25(36)37)5-6-17(13)29-19-14(12)9-30-18(19)8-16(15(10-31)24(30)35)28(40,4-2)27(38)39/h5-8,20-23,26,31-34,40H,3-4,9-10H2,1-2H3,(H,36,37)(H,38,39)/p-1/t20-,21-,22+,23-,26+,28-/m0/s1

> <PUBCHEM_IUPAC_INCHIKEY>
QTDOSXMJZIEEDG-CAYKMONMSA-M

> <PUBCHEM_XLOGP3_AA>
0.3

> <PUBCHEM_EXACT_MASS>
585.172049

> <PUBCHEM_MOLECULAR_FORMULA>
C28H29N2O12-

> <PUBCHEM_MOLECULAR_WEIGHT>
585.53606

> <PUBCHEM_OPENEYE_CAN_SMILES>
CCC1=C2C=C(C=CC2=NC3=C1CN4C3=CC(=C(C4=O)CO)C(CC)(C(=O)[O-])O)OC5C(C(C(C(O5)C(=O)O)O)O)O

> <PUBCHEM_OPENEYE_ISO_SMILES>
CCC1=C2C=C(C=CC2=NC3=C1CN4C3=CC(=C(C4=O)CO)[C@@](CC)(C(=O)[O-])O)O[C@H]5[C@@H]([C@H]([C@@H]([C@H](O5)C(=O)O)O)O)O

> <PUBCHEM_CACTVS_TPSA>
230

> <PUBCHEM_MONOISOTOPIC_WEIGHT>
585.172049

> <PUBCHEM_TOTAL_CHARGE>
-1

> <PUBCHEM_HEAVY_ATOM_COUNT>
42

> <PUBCHEM_ATOM_DEF_STEREO_COUNT>
6

> <PUBCHEM_ATOM_UDEF_STEREO_COUNT>
0

> <PUBCHEM_BOND_DEF_STEREO_COUNT>
0

> <PUBCHEM_BOND_UDEF_STEREO_COUNT>
0

> <PUBCHEM_ISOTOPIC_ATOM_COUNT>
0

> <PUBCHEM_COMPONENT_COUNT>
1

> <PUBCHEM_CACTVS_TAUTO_COUNT>
1

> <PUBCHEM_COORDINATE_TYPE>
1
5
255

> <PUBCHEM_BONDANNOTATIONS>
13  20  8
13  30  8
14  22  8
14  31  8
16  22  8
16  24  8
21  2  5
20  27  8
23  36  5
24  26  8
25  27  8
25  29  8
26  31  8
26  34  8
29  30  8
15  3  5
31  37  8
33  34  8
33  39  8
37  39  8
17  4  6
19  5  6
28  6  5

$$$$

