12350
  -OEChem-06261206502D

 19 18  0     0  0  0  0  0  0999 V2000
    3.7320    0.6550    0.0000 C   0  0  0  0  0  0  0  0  0  0  0  0
    4.5981    0.1550    0.0000 C   0  0  0  0  0  0  0  0  0  0  0  0
    2.8660    0.1550    0.0000 C   0  0  0  0  0  0  0  0  0  0  0  0
    5.4641    0.6550    0.0000 C   0  0  0  0  0  0  0  0  0  0  0  0
    2.0000    0.6550    0.0000 C   0  0  0  0  0  0  0  0  0  0  0  0
    6.3301    0.1550    0.0000 C   0  0  0  0  0  0  0  0  0  0  0  0
    7.1962   -0.3450    0.0000 C   0  0  0  0  0  0  0  0  0  0  0  0
    4.1306    1.1300    0.0000 H   0  0  0  0  0  0  0  0  0  0  0  0
    3.3335    1.1300    0.0000 H   0  0  0  0  0  0  0  0  0  0  0  0
    4.1996   -0.3199    0.0000 H   0  0  0  0  0  0  0  0  0  0  0  0
    4.9966   -0.3199    0.0000 H   0  0  0  0  0  0  0  0  0  0  0  0
    2.4675   -0.3199    0.0000 H   0  0  0  0  0  0  0  0  0  0  0  0
    3.2646   -0.3199    0.0000 H   0  0  0  0  0  0  0  0  0  0  0  0
    5.8626    1.1300    0.0000 H   0  0  0  0  0  0  0  0  0  0  0  0
    5.0656    1.1300    0.0000 H   0  0  0  0  0  0  0  0  0  0  0  0
    2.3100    1.1919    0.0000 H   0  0  0  0  0  0  0  0  0  0  0  0
    1.4631    0.9650    0.0000 H   0  0  0  0  0  0  0  0  0  0  0  0
    1.6900    0.1181    0.0000 H   0  0  0  0  0  0  0  0  0  0  0  0
    7.7331   -0.6550    0.0000 H   0  0  0  0  0  0  0  0  0  0  0  0
  1  2  1  0  0  0  0
  1  3  1  0  0  0  0
  1  8  1  0  0  0  0
  1  9  1  0  0  0  0
  2  4  1  0  0  0  0
  2 10  1  0  0  0  0
  2 11  1  0  0  0  0
  3  5  1  0  0  0  0
  3 12  1  0  0  0  0
  3 13  1  0  0  0  0
  4  6  1  0  0  0  0
  4 14  1  0  0  0  0
  4 15  1  0  0  0  0
  5 16  1  0  0  0  0
  5 17  1  0  0  0  0
  5 18  1  0  0  0  0
  6  7  3  0  0  0  0
  7 19  1  0  0  0  0
M  END
> <PUBCHEM_COMPOUND_CID>
12350

> <PUBCHEM_COMPOUND_CANONICALIZED>
1

> <PUBCHEM_CACTVS_COMPLEXITY>
63.4

> <PUBCHEM_CACTVS_HBOND_ACCEPTOR>
0

> <PUBCHEM_CACTVS_HBOND_DONOR>
0

> <PUBCHEM_CACTVS_ROTATABLE_BOND>
3

> <PUBCHEM_CACTVS_SUBSKEYS>
AAADccBgAAAAAAAAAAAAAAAAAAAAAAAAAAAAAAAAAAAAAAAAAAAAGAAAAAAACACAAAACAAAAAABAGAAAAAgAAAAAAAAAAAAAAAAAAAIAAAAAAAAAAAAAAAEAAAAAAAAAAAAAAAAAAAAAAAAAAAAAAAAAAA==

> <PUBCHEM_IUPAC_OPENEYE_NAME>
hept-1-yne

> <PUBCHEM_IUPAC_CAS_NAME>
1-heptyne

> <PUBCHEM_IUPAC_NAME>
hept-1-yne

> <PUBCHEM_IUPAC_SYSTEMATIC_NAME>
hept-1-yne

> <PUBCHEM_IUPAC_TRADITIONAL_NAME>
hept-1-yne

> <PUBCHEM_IUPAC_INCHI>
InChI=1S/C7H12/c1-3-5-7-6-4-2/h1H,4-7H2,2H3

> <PUBCHEM_IUPAC_INCHIKEY>
YVXHZKKCZYLQOP-UHFFFAOYSA-N

> <PUBCHEM_XLOGP3_AA>
3

> <PUBCHEM_EXACT_MASS>
96.0939

> <PUBCHEM_MOLECULAR_FORMULA>
C7H12

> <PUBCHEM_MOLECULAR_WEIGHT>
96.17018

> <PUBCHEM_OPENEYE_CAN_SMILES>
CCCCCC#C

> <PUBCHEM_OPENEYE_ISO_SMILES>
CCCCCC#C

> <PUBCHEM_CACTVS_TPSA>
0

> <PUBCHEM_MONOISOTOPIC_WEIGHT>
96.0939

> <PUBCHEM_TOTAL_CHARGE>
0

> <PUBCHEM_HEAVY_ATOM_COUNT>
7

> <PUBCHEM_ATOM_DEF_STEREO_COUNT>
0

> <PUBCHEM_ATOM_UDEF_STEREO_COUNT>
0

> <PUBCHEM_BOND_DEF_STEREO_COUNT>
0

> <PUBCHEM_BOND_UDEF_STEREO_COUNT>
0

> <PUBCHEM_ISOTOPIC_ATOM_COUNT>
0

> <PUBCHEM_COMPONENT_COUNT>
1

> <PUBCHEM_CACTVS_TAUTO_COUNT>
1

> <PUBCHEM_COORDINATE_TYPE>
1
5
255

$$$$

