92114
  -OEChem-07051213003D

 56 60  0     1  0  0  0  0  0999 V2000
    4.9946   -0.7288   -0.0679 O   0  0  0  0  0  0  0  0  0  0  0  0
   -4.8376   -1.3793    0.0602 O   0  0  0  0  0  0  0  0  0  0  0  0
    3.7890   -3.2301   -0.0143 O   0  0  0  0  0  0  0  0  0  0  0  0
   -3.3119   -3.7004    0.0560 O   0  0  0  0  0  0  0  0  0  0  0  0
   -0.8518    3.7843    0.3911 N   0  0  1  0  0  0  0  0  0  0  0  0
    0.3048    3.8916   -0.4883 C   0  0  1  0  0  0  0  0  0  0  0  0
    0.7998    5.2999   -0.1943 C   0  0  0  0  0  0  0  0  0  0  0  0
    1.2846    2.7799   -0.1427 C   0  0  0  0  0  0  0  0  0  0  0  0
   -1.5830    5.0367    0.2245 C   0  0  0  0  0  0  0  0  0  0  0  0
   -0.4712    6.0801    0.1450 C   0  0  0  0  0  0  0  0  0  0  0  0
   -1.6279    2.5917    0.0665 C   0  0  0  0  0  0  0  0  0  0  0  0
    0.6251    1.4039   -0.0712 C   0  0  0  0  0  0  0  0  0  0  0  0
   -0.7875    1.3125    0.0212 C   0  0  0  0  0  0  0  0  0  0  0  0
    1.4251    0.2307   -0.0538 C   0  0  0  0  0  0  0  0  0  0  0  0
   -1.4260    0.0431    0.0260 C   0  0  0  0  0  0  0  0  0  0  0  0
    0.7985   -1.0440   -0.0151 C   0  0  0  0  0  0  0  0  0  0  0  0
   -0.6366   -1.1385    0.0111 C   0  0  0  0  0  0  0  0  0  0  0  0
    2.8425    0.2898   -0.0666 C   0  0  0  0  0  0  0  0  0  0  0  0
   -2.8388   -0.0857    0.0376 C   0  0  0  0  0  0  0  0  0  0  0  0
    1.6480   -2.1842   -0.0063 C   0  0  0  0  0  0  0  0  0  0  0  0
   -1.3280   -2.3808    0.0250 C   0  0  0  0  0  0  0  0  0  0  0  0
    3.6393   -0.8517   -0.0548 C   0  0  0  0  0  0  0  0  0  0  0  0
   -3.4780   -1.3224    0.0482 C   0  0  0  0  0  0  0  0  0  0  0  0
    3.0397   -2.0935   -0.0269 C   0  0  0  0  0  0  0  0  0  0  0  0
   -2.7194   -2.4745    0.0448 C   0  0  0  0  0  0  0  0  0  0  0  0
    5.6515   -0.6466    1.1961 C   0  0  0  0  0  0  0  0  0  0  0  0
   -5.4978   -1.4102   -1.2044 C   0  0  0  0  0  0  0  0  0  0  0  0
    4.1336   -3.7942   -1.2785 C   0  0  0  0  0  0  0  0  0  0  0  0
   -3.5807   -4.2795    1.3318 C   0  0  0  0  0  0  0  0  0  0  0  0
    0.0046    3.8229   -1.5447 H   0  0  0  0  0  0  0  0  0  0  0  0
    1.3237    5.7346   -1.0517 H   0  0  0  0  0  0  0  0  0  0  0  0
    1.4842    5.3232    0.6624 H   0  0  0  0  0  0  0  0  0  0  0  0
    1.7609    2.9735    0.8273 H   0  0  0  0  0  0  0  0  0  0  0  0
    2.0623    2.7842   -0.9154 H   0  0  0  0  0  0  0  0  0  0  0  0
   -2.2608    5.2307    1.0615 H   0  0  0  0  0  0  0  0  0  0  0  0
   -2.1654    5.0510   -0.7054 H   0  0  0  0  0  0  0  0  0  0  0  0
   -0.3469    6.5993    1.1020 H   0  0  0  0  0  0  0  0  0  0  0  0
   -0.6932    6.8317   -0.6199 H   0  0  0  0  0  0  0  0  0  0  0  0
   -2.1285    2.6987   -0.9050 H   0  0  0  0  0  0  0  0  0  0  0  0
   -2.3898    2.4921    0.8476 H   0  0  0  0  0  0  0  0  0  0  0  0
    3.3581    1.2483   -0.0780 H   0  0  0  0  0  0  0  0  0  0  0  0
   -3.4768    0.7960    0.0304 H   0  0  0  0  0  0  0  0  0  0  0  0
    1.2344   -3.1892    0.0226 H   0  0  0  0  0  0  0  0  0  0  0  0
   -0.7852   -3.3228    0.0157 H   0  0  0  0  0  0  0  0  0  0  0  0
    6.7267   -0.5576    1.0179 H   0  0  0  0  0  0  0  0  0  0  0  0
    5.4677   -1.5507    1.7851 H   0  0  0  0  0  0  0  0  0  0  0  0
    5.3133    0.2367    1.7470 H   0  0  0  0  0  0  0  0  0  0  0  0
   -5.2780   -0.5014   -1.7736 H   0  0  0  0  0  0  0  0  0  0  0  0
   -6.5755   -1.4601   -1.0269 H   0  0  0  0  0  0  0  0  0  0  0  0
   -5.1955   -2.2939   -1.7751 H   0  0  0  0  0  0  0  0  0  0  0  0
    3.2318   -4.0786   -1.8299 H   0  0  0  0  0  0  0  0  0  0  0  0
    4.7330   -4.6914   -1.1012 H   0  0  0  0  0  0  0  0  0  0  0  0
    4.7271   -3.0873   -1.8669 H   0  0  0  0  0  0  0  0  0  0  0  0
   -4.0560   -5.2514    1.1734 H   0  0  0  0  0  0  0  0  0  0  0  0
   -4.2633   -3.6454    1.9065 H   0  0  0  0  0  0  0  0  0  0  0  0
   -2.6501   -4.4309    1.8877 H   0  0  0  0  0  0  0  0  0  0  0  0
  1 22  1  0  0  0  0
  1 26  1  0  0  0  0
  2 23  1  0  0  0  0
  2 27  1  0  0  0  0
  3 24  1  0  0  0  0
  3 28  1  0  0  0  0
  4 25  1  0  0  0  0
  4 29  1  0  0  0  0
  5  6  1  0  0  0  0
  5  9  1  0  0  0  0
  5 11  1  0  0  0  0
  6  7  1  0  0  0  0
  6  8  1  0  0  0  0
  6 30  1  0  0  0  0
  7 10  1  0  0  0  0
  7 31  1  0  0  0  0
  7 32  1  0  0  0  0
  8 12  1  0  0  0  0
  8 33  1  0  0  0  0
  8 34  1  0  0  0  0
  9 10  1  0  0  0  0
  9 35  1  0  0  0  0
  9 36  1  0  0  0  0
 10 37  1  0  0  0  0
 10 38  1  0  0  0  0
 11 13  1  0  0  0  0
 11 39  1  0  0  0  0
 11 40  1  0  0  0  0
 12 13  2  0  0  0  0
 12 14  1  0  0  0  0
 13 15  1  0  0  0  0
 14 16  1  0  0  0  0
 14 18  2  0  0  0  0
 15 17  1  0  0  0  0
 15 19  2  0  0  0  0
 16 17  1  0  0  0  0
 16 20  2  0  0  0  0
 17 21  2  0  0  0  0
 18 22  1  0  0  0  0
 18 41  1  0  0  0  0
 19 23  1  0  0  0  0
 19 42  1  0  0  0  0
 20 24  1  0  0  0  0
 20 43  1  0  0  0  0
 21 25  1  0  0  0  0
 21 44  1  0  0  0  0
 22 24  2  0  0  0  0
 23 25  2  0  0  0  0
 26 45  1  0  0  0  0
 26 46  1  0  0  0  0
 26 47  1  0  0  0  0
 27 48  1  0  0  0  0
 27 49  1  0  0  0  0
 27 50  1  0  0  0  0
 28 51  1  0  0  0  0
 28 52  1  0  0  0  0
 28 53  1  0  0  0  0
 29 54  1  0  0  0  0
 29 55  1  0  0  0  0
 29 56  1  0  0  0  0
M  END
> <PUBCHEM_COMPOUND_CID>
92114

> <PUBCHEM_CONFORMER_RMSD>
0.8

> <PUBCHEM_CONFORMER_DIVERSEORDER>
1
4
2
3

> <PUBCHEM_MMFF94_PARTIAL_CHARGES>
27
1 -0.36
11 0.41
12 -0.14
13 -0.14
18 -0.15
19 -0.15
2 -0.36
20 -0.15
21 -0.15
22 0.08
23 0.08
24 0.08
25 0.08
26 0.28
27 0.28
28 0.28
29 0.28
3 -0.36
4 -0.36
41 0.15
42 0.15
43 0.15
44 0.15
5 -0.81
6 0.27
8 0.14
9 0.27

> <PUBCHEM_EFFECTIVE_ROTOR_COUNT>
5

> <PUBCHEM_PHARMACOPHORE_FEATURES>
10
1 1 acceptor
1 2 acceptor
1 3 acceptor
1 4 acceptor
1 5 cation
5 5 6 7 9 10 rings
6 12 13 14 15 16 17 rings
6 14 16 18 20 22 24 rings
6 15 17 19 21 23 25 rings
6 5 6 8 11 12 13 rings

> <PUBCHEM_HEAVY_ATOM_COUNT>
29

> <PUBCHEM_ATOM_DEF_STEREO_COUNT>
1

> <PUBCHEM_ATOM_UDEF_STEREO_COUNT>
0

> <PUBCHEM_BOND_DEF_STEREO_COUNT>
0

> <PUBCHEM_BOND_UDEF_STEREO_COUNT>
0

> <PUBCHEM_ISOTOPIC_ATOM_COUNT>
0

> <PUBCHEM_COMPONENT_COUNT>
1

> <PUBCHEM_CACTVS_TAUTO_COUNT>
1

> <PUBCHEM_CONFORMER_ID>
000167D200000001

> <PUBCHEM_MMFF94_ENERGY>
135.9718

> <PUBCHEM_FEATURE_SELFOVERLAP>
50.896

> <PUBCHEM_SHAPE_FINGERPRINT>
10050765 1 18122343739083914262
10074138 170 17980508920136679768
10411042 1 18410857641971567663
1100329 8 18410852183775711369
11062273 19 18123189004629637932
12173636 292 17907018731098664124
12553582 1 18339062831234043550
12788726 201 18272091642700861338
13004483 165 18337966678281528346
13140716 1 18339644447373659976
13540713 4 17825679013430175862
13692114 37 17544497691352699821
13757389 114 17618200146565001588
138480 1 15096206555306368845
14028597 1 17702678777248404258
140371 6 18410854343436677836
14068700 686 18261961834127706530
14178342 30 18196945576904738794
14790565 3 17041472290234902516
14866123 147 17762055840848305195
14955137 171 18195532485087353192
15081414 286 18337947896684721243
15230672 131 17045139690086053716
15664445 248 18046884023349480166
15705408 1 18050004394077812805
15775530 1 17899449568456980368
15927050 60 16968290415603650444
16087824 20 18338516469452271333
18681886 176 18192436269007771778
19591789 44 17401764619246706732
19611394 137 17626098647552702858
21049683 271 17841421536567473868
21133410 171 17478383924016030563
21796203 349 17838304447126169362
221490 88 18125717881727404939
23536364 44 18051715501102104549
23558518 356 18054784250734484362
23559900 14 18195254312840285763
24771293 8 18187655643614736952
24771750 20 17838890439351747653
283562 15 18269560605329963323
3091708 16 9281045265790907401
3178227 256 17476626590848309120
4015057 19 18268158565587394215
5265222 85 17474367550342209686
6004065 56 18194135022603508847
613672 6 18410582764128648246
6443956 14 18340488837775280916
653340 110 18193848265096176992
6679774 75 16545511198921926587
7164475 11 18339073908508269910
7399639 24 18187943767860269634
79837 15 17834676376080427897
9777508 108 18049451640835726008
9981440 41 17331400281679635136

> <PUBCHEM_SHAPE_MULTIPOLES>
568.35
8.63
8.37
0.85
2.98
12.78
0
-12.04
-0.11
-3.03
0.31
0.03
-0.53
0.85

> <PUBCHEM_SHAPE_SELFOVERLAP>
1254.313

> <PUBCHEM_SHAPE_VOLUME>
309.9

> <PUBCHEM_COORDINATE_TYPE>
2
5
10

$$$$

