10769
  -OEChem-06261204563D

 40 40  0     1  0  0  0  0  0999 V2000
   -0.5279   -0.2223   -0.0409 O   0  0  0  0  0  0  0  0  0  0  0  0
    0.1969   -1.6405    1.6211 O   0  0  0  0  0  0  0  0  0  0  0  0
   -3.8068    0.7602    0.7792 N   0  0  0  0  0  0  0  0  0  0  0  0
    5.5640    1.1768   -0.4507 N   0  0  0  0  0  0  0  0  0  0  0  0
   -2.6647   -0.2089   -1.2114 C   0  0  1  0  0  0  0  0  0  0  0  0
   -1.6738   -1.0164   -0.3391 C   0  0  1  0  0  0  0  0  0  0  0  0
   -3.1741    1.0638   -0.5023 C   0  0  0  0  0  0  0  0  0  0  0  0
   -2.0014    0.1423   -2.5531 C   0  0  0  0  0  0  0  0  0  0  0  0
   -1.2172   -2.3184   -0.9881 C   0  0  0  0  0  0  0  0  0  0  0  0
   -4.9754   -0.0976    0.5832 C   0  0  0  0  0  0  0  0  0  0  0  0
   -4.1890    1.9935    1.4671 C   0  0  0  0  0  0  0  0  0  0  0  0
    0.4075   -0.8048    0.7559 C   0  0  0  0  0  0  0  0  0  0  0  0
    1.7615   -0.2847    0.4386 C   0  0  0  0  0  0  0  0  0  0  0  0
    2.8531   -1.1068    0.6286 C   0  0  0  0  0  0  0  0  0  0  0  0
    1.8862    1.0051   -0.0359 C   0  0  0  0  0  0  0  0  0  0  0  0
    4.1252   -0.6179    0.3312 C   0  0  0  0  0  0  0  0  0  0  0  0
    3.1582    1.4941   -0.3335 C   0  0  0  0  0  0  0  0  0  0  0  0
    4.2779    0.6826   -0.1500 C   0  0  0  0  0  0  0  0  0  0  0  0
   -3.5158   -0.8531   -1.4632 H   0  0  0  0  0  0  0  0  0  0  0  0
   -2.1726   -1.2736    0.6036 H   0  0  0  0  0  0  0  0  0  0  0  0
   -3.8696    1.5969   -1.1649 H   0  0  0  0  0  0  0  0  0  0  0  0
   -2.3219    1.7364   -0.3386 H   0  0  0  0  0  0  0  0  0  0  0  0
   -1.0909    0.7343   -2.4133 H   0  0  0  0  0  0  0  0  0  0  0  0
   -2.6875    0.7328   -3.1707 H   0  0  0  0  0  0  0  0  0  0  0  0
   -1.7471   -0.7533   -3.1278 H   0  0  0  0  0  0  0  0  0  0  0  0
   -0.4746   -2.1430   -1.7739 H   0  0  0  0  0  0  0  0  0  0  0  0
   -2.0658   -2.8608   -1.4180 H   0  0  0  0  0  0  0  0  0  0  0  0
   -0.7475   -2.9914   -0.2637 H   0  0  0  0  0  0  0  0  0  0  0  0
   -5.5154   -0.2253    1.5295 H   0  0  0  0  0  0  0  0  0  0  0  0
   -4.6973   -1.1105    0.2775 H   0  0  0  0  0  0  0  0  0  0  0  0
   -5.6799    0.3160   -0.1477 H   0  0  0  0  0  0  0  0  0  0  0  0
   -4.9209    2.5764    0.8961 H   0  0  0  0  0  0  0  0  0  0  0  0
   -3.3102    2.6230    1.6466 H   0  0  0  0  0  0  0  0  0  0  0  0
   -4.6174    1.7696    2.4504 H   0  0  0  0  0  0  0  0  0  0  0  0
    2.7464   -2.1221    0.9990 H   0  0  0  0  0  0  0  0  0  0  0  0
    1.0321    1.6611   -0.1751 H   0  0  0  0  0  0  0  0  0  0  0  0
    4.9897   -1.2603    0.4776 H   0  0  0  0  0  0  0  0  0  0  0  0
    3.2644    2.5102   -0.7051 H   0  0  0  0  0  0  0  0  0  0  0  0
    5.6752    2.1194   -0.7999 H   0  0  0  0  0  0  0  0  0  0  0  0
    6.3761    0.5887   -0.3181 H   0  0  0  0  0  0  0  0  0  0  0  0
  1  6  1  0  0  0  0
  1 12  1  0  0  0  0
  2 12  2  0  0  0  0
  3  7  1  0  0  0  0
  3 10  1  0  0  0  0
  3 11  1  0  0  0  0
  4 18  1  0  0  0  0
  4 39  1  0  0  0  0
  4 40  1  0  0  0  0
  5  6  1  0  0  0  0
  5  7  1  0  0  0  0
  5  8  1  0  0  0  0
  5 19  1  0  0  0  0
  6  9  1  0  0  0  0
  6 20  1  0  0  0  0
  7 21  1  0  0  0  0
  7 22  1  0  0  0  0
  8 23  1  0  0  0  0
  8 24  1  0  0  0  0
  8 25  1  0  0  0  0
  9 26  1  0  0  0  0
  9 27  1  0  0  0  0
  9 28  1  0  0  0  0
 10 29  1  0  0  0  0
 10 30  1  0  0  0  0
 10 31  1  0  0  0  0
 11 32  1  0  0  0  0
 11 33  1  0  0  0  0
 11 34  1  0  0  0  0
 12 13  1  0  0  0  0
 13 14  2  0  0  0  0
 13 15  1  0  0  0  0
 14 16  1  0  0  0  0
 14 35  1  0  0  0  0
 15 17  2  0  0  0  0
 15 36  1  0  0  0  0
 16 18  2  0  0  0  0
 16 37  1  0  0  0  0
 17 18  1  0  0  0  0
 17 38  1  0  0  0  0
M  END
> <PUBCHEM_COMPOUND_CID>
10769

> <PUBCHEM_CONFORMER_RMSD>
0.8

> <PUBCHEM_CONFORMER_DIVERSEORDER>
1
42
9
26
37
35
6
15
13
20
4
28
43
47
50
36
41
45
8
18
27
2
12
48
51
44
52
19
33
3
49
24
7
29
21
31
39
34
25
30
14
32
11
46
23
10
38
17
40
22
5
16

> <PUBCHEM_MMFF94_PARTIAL_CHARGES>
21
1 -0.43
10 0.27
11 0.27
12 0.63
13 0.09
14 -0.15
15 -0.15
16 -0.15
17 -0.15
18 0.1
2 -0.57
3 -0.81
35 0.15
36 0.15
37 0.15
38 0.15
39 0.4
4 -0.9
40 0.4
6 0.28
7 0.27

> <PUBCHEM_EFFECTIVE_ROTOR_COUNT>
6

> <PUBCHEM_PHARMACOPHORE_FEATURES>
6
1 2 acceptor
1 3 cation
1 4 cation
1 4 donor
1 8 hydrophobe
6 13 14 15 16 17 18 rings

> <PUBCHEM_HEAVY_ATOM_COUNT>
18

> <PUBCHEM_ATOM_DEF_STEREO_COUNT>
0

> <PUBCHEM_ATOM_UDEF_STEREO_COUNT>
2

> <PUBCHEM_BOND_DEF_STEREO_COUNT>
0

> <PUBCHEM_BOND_UDEF_STEREO_COUNT>
0

> <PUBCHEM_ISOTOPIC_ATOM_COUNT>
0

> <PUBCHEM_COMPONENT_COUNT>
1

> <PUBCHEM_CACTVS_TAUTO_COUNT>
2

> <PUBCHEM_CONFORMER_ID>
00002A1100000001

> <PUBCHEM_MMFF94_ENERGY>
61.5173

> <PUBCHEM_FEATURE_SELFOVERLAP>
30.446

> <PUBCHEM_SHAPE_FINGERPRINT>
10366900 7 16128377086306640113
10803635 8 16225765216356070956
11132069 177 16917061153529343539
11370993 144 17559670836141938457
11552529 35 18200024041695394307
11796584 16 16225761935391310822
12173636 292 18187091607108592007
12236239 1 18335702758359862033
12500047 106 16081094774570597540
12788726 201 17168415077895538792
12916748 109 18113330916856399321
13214271 11 16558760026626173879
14289901 80 14476962353940899828
14341114 328 18339071688226735433
15099037 37 14476961211912219719
15375358 24 5039941945066294750
15534591 1 18186804682002894887
17834072 14 5689587299310621106
18186145 218 18201446882655530622
18219364 16 17703803517250345125
18785283 64 18192142922377730903
20671657 53 6555403254057564195
20871999 31 17531253802996816711
21202864 24 17274812511449056195
21250096 35 10303807675229279217
21452121 71 11167638994170891751
22079108 93 18131630054475578203
22854114 59 17275103942291521961
23198884 109 18040431071057518700
23402539 116 17821731649862129768
23402655 69 18408885106007157468
23503958 25 16988570151215153852
23559900 14 14490477474303994106
25 1 18201727253867876818
347723 3 6483361006491484175
474 4 18201436943911362120
5104073 3 18272658896675418866
5161694 15 14779556690163747337
5283173 99 4750886892059793842
633830 44 18339079392823193758
6442390 28 17346591971984514290
81228 2 16842190849464873762
9882013 296 13758075211866381152

> <PUBCHEM_SHAPE_MULTIPOLES>
348.73
10.2
1.85
1.52
2.97
0.14
0.58
-4.96
-0.65
-0.78
-0.2
-1.25
0.16
-1.53

> <PUBCHEM_SHAPE_SELFOVERLAP>
705.817

> <PUBCHEM_SHAPE_VOLUME>
205.8

> <PUBCHEM_COORDINATE_TYPE>
2
5
10

$$$$

