312134
  -OEChem-07051212573D

 49 51  0     1  0  0  0  0  0999 V2000
    2.2712   -1.5077   -0.7603 O   0  0  0  0  0  0  0  0  0  0  0  0
   -1.6975    0.2494    0.2820 O   0  0  0  0  0  0  0  0  0  0  0  0
    1.8169   -0.1187   -3.2218 O   0  0  0  0  0  0  0  0  0  0  0  0
   -0.7202    1.7276    2.9752 O   0  0  0  0  0  0  0  0  0  0  0  0
    3.0723   -2.8935    0.8784 O   0  0  0  0  0  0  0  0  0  0  0  0
   -2.7952   -1.6918    0.8520 O   0  0  0  0  0  0  0  0  0  0  0  0
    0.5091    0.9698    0.9865 C   0  0  2  0  0  0  0  0  0  0  0  0
   -0.0056   -1.4133   -0.1297 C   0  0  1  0  0  0  0  0  0  0  0  0
    0.6187    1.8902   -0.2567 C   0  0  2  0  0  0  0  0  0  0  0  0
   -0.4327   -0.2342    0.7826 C   0  0  2  0  0  0  0  0  0  0  0  0
    0.9737   -1.1742   -1.2813 C   0  0  1  0  0  0  0  0  0  0  0  0
    1.6013    1.4059   -1.3411 C   0  0  1  0  0  0  0  0  0  0  0  0
    1.0222    0.1491   -2.0519 C   0  0  1  0  0  0  0  0  0  0  0  0
    0.6744   -2.6175    0.5496 C   0  0  1  0  0  0  0  0  0  0  0  0
   -0.0764    1.9845    1.9692 C   0  0  0  0  0  0  0  0  0  0  0  0
    1.8576    0.5984    1.6401 C   0  0  0  0  0  0  0  0  0  0  0  0
    0.7971    3.2576    0.3586 C   0  0  0  0  0  0  0  0  0  0  0  0
    1.8605    2.5183   -2.3793 C   0  0  0  0  0  0  0  0  0  0  0  0
    2.1371   -2.3800    0.2845 C   0  0  0  0  0  0  0  0  0  0  0  0
    0.3197    3.3559    1.6021 C   0  0  0  0  0  0  0  0  0  0  0  0
    0.3696   -2.8821    2.0119 C   0  0  0  0  0  0  0  0  0  0  0  0
   -2.6676   -0.6893    0.1634 C   0  0  0  0  0  0  0  0  0  0  0  0
   -3.5753   -0.3118   -0.9556 C   0  0  0  0  0  0  0  0  0  0  0  0
   -3.3295    0.9413   -1.7389 C   0  0  0  0  0  0  0  0  0  0  0  0
   -4.6013   -1.1340   -1.2197 C   0  0  0  0  0  0  0  0  0  0  0  0
   -0.8860   -1.8271   -0.6296 H   0  0  0  0  0  0  0  0  0  0  0  0
   -0.3603    1.9652   -0.7549 H   0  0  0  0  0  0  0  0  0  0  0  0
   -0.6677   -0.6159    1.7821 H   0  0  0  0  0  0  0  0  0  0  0  0
    0.7801   -1.9521   -2.0375 H   0  0  0  0  0  0  0  0  0  0  0  0
    2.5810    1.1684   -0.9131 H   0  0  0  0  0  0  0  0  0  0  0  0
    0.0099    0.3648   -2.4149 H   0  0  0  0  0  0  0  0  0  0  0  0
    0.4138   -3.5238   -0.0159 H   0  0  0  0  0  0  0  0  0  0  0  0
    2.5354    0.0728    0.9747 H   0  0  0  0  0  0  0  0  0  0  0  0
    2.4088    1.4826    1.9844 H   0  0  0  0  0  0  0  0  0  0  0  0
    1.7011   -0.0234    2.5279 H   0  0  0  0  0  0  0  0  0  0  0  0
    1.1375    4.1259   -0.1879 H   0  0  0  0  0  0  0  0  0  0  0  0
    0.9330    2.8211   -2.8767 H   0  0  0  0  0  0  0  0  0  0  0  0
    2.3084    3.4018   -1.9151 H   0  0  0  0  0  0  0  0  0  0  0  0
    2.5730    2.1975   -3.1462 H   0  0  0  0  0  0  0  0  0  0  0  0
    0.2394    4.2274    2.2264 H   0  0  0  0  0  0  0  0  0  0  0  0
    0.8314   -3.8245    2.3285 H   0  0  0  0  0  0  0  0  0  0  0  0
    0.7716   -2.1067    2.6693 H   0  0  0  0  0  0  0  0  0  0  0  0
   -0.7073   -2.9710    2.1824 H   0  0  0  0  0  0  0  0  0  0  0  0
    1.4886    0.4528   -3.9367 H   0  0  0  0  0  0  0  0  0  0  0  0
   -3.3421    1.8167   -1.0813 H   0  0  0  0  0  0  0  0  0  0  0  0
   -2.3606    0.8952   -2.2452 H   0  0  0  0  0  0  0  0  0  0  0  0
   -4.0938    1.0986   -2.5076 H   0  0  0  0  0  0  0  0  0  0  0  0
   -5.2979   -0.9142   -2.0228 H   0  0  0  0  0  0  0  0  0  0  0  0
   -4.7837   -2.0427   -0.6558 H   0  0  0  0  0  0  0  0  0  0  0  0
  1 11  1  0  0  0  0
  1 19  1  0  0  0  0
  2 10  1  0  0  0  0
  2 22  1  0  0  0  0
  3 13  1  0  0  0  0
  3 44  1  0  0  0  0
  4 15  2  0  0  0  0
  5 19  2  0  0  0  0
  6 22  2  0  0  0  0
  7  9  1  0  0  0  0
  7 10  1  0  0  0  0
  7 15  1  0  0  0  0
  7 16  1  0  0  0  0
  8 10  1  0  0  0  0
  8 11  1  0  0  0  0
  8 14  1  0  0  0  0
  8 26  1  0  0  0  0
  9 12  1  0  0  0  0
  9 17  1  0  0  0  0
  9 27  1  0  0  0  0
 10 28  1  0  0  0  0
 11 13  1  0  0  0  0
 11 29  1  0  0  0  0
 12 13  1  0  0  0  0
 12 18  1  0  0  0  0
 12 30  1  0  0  0  0
 13 31  1  0  0  0  0
 14 19  1  0  0  0  0
 14 21  1  0  0  0  0
 14 32  1  0  0  0  0
 15 20  1  0  0  0  0
 16 33  1  0  0  0  0
 16 34  1  0  0  0  0
 16 35  1  0  0  0  0
 17 20  2  0  0  0  0
 17 36  1  0  0  0  0
 18 37  1  0  0  0  0
 18 38  1  0  0  0  0
 18 39  1  0  0  0  0
 20 40  1  0  0  0  0
 21 41  1  0  0  0  0
 21 42  1  0  0  0  0
 21 43  1  0  0  0  0
 22 23  1  0  0  0  0
 23 24  1  0  0  0  0
 23 25  2  0  0  0  0
 24 45  1  0  0  0  0
 24 46  1  0  0  0  0
 24 47  1  0  0  0  0
 25 48  1  0  0  0  0
 25 49  1  0  0  0  0
M  END
> <PUBCHEM_COMPOUND_CID>
312134

> <PUBCHEM_CONFORMER_RMSD>
0.8

> <PUBCHEM_CONFORMER_DIVERSEORDER>
1
2
3

> <PUBCHEM_MMFF94_PARTIAL_CHARGES>
25
1 -0.43
10 0.28
11 0.28
13 0.28
14 0.06
15 0.49
17 -0.29
19 0.66
2 -0.43
20 -0.14
22 0.71
23 -0.12
24 0.14
25 -0.3
3 -0.68
36 0.15
4 -0.57
40 0.15
44 0.4
48 0.15
49 0.15
5 -0.57
6 -0.57
7 0.06
9 0.14

> <PUBCHEM_EFFECTIVE_ROTOR_COUNT>
4

> <PUBCHEM_PHARMACOPHORE_FEATURES>
8
1 3 acceptor
1 3 donor
1 4 acceptor
1 5 acceptor
1 6 acceptor
5 1 8 11 14 19 rings
5 7 9 15 17 20 rings
7 7 8 9 10 11 12 13 rings

> <PUBCHEM_HEAVY_ATOM_COUNT>
25

> <PUBCHEM_ATOM_DEF_STEREO_COUNT>
8

> <PUBCHEM_ATOM_UDEF_STEREO_COUNT>
0

> <PUBCHEM_BOND_DEF_STEREO_COUNT>
0

> <PUBCHEM_BOND_UDEF_STEREO_COUNT>
0

> <PUBCHEM_ISOTOPIC_ATOM_COUNT>
0

> <PUBCHEM_COMPONENT_COUNT>
1

> <PUBCHEM_CACTVS_TAUTO_COUNT>
6

> <PUBCHEM_CONFORMER_ID>
0004C34600000001

> <PUBCHEM_MMFF94_ENERGY>
95.2989

> <PUBCHEM_FEATURE_SELFOVERLAP>
40.717

> <PUBCHEM_SHAPE_FINGERPRINT>
10165383 225 17694469608781865433
10764073 3 17191569723140169001
11578080 2 17768282302239602316
11582403 64 16594244345966618785
12156800 1 15906903717322200236
12716301 132 17331106205484434354
13134695 92 18189641447561273565
13294875 104 18117850897162028100
13583140 156 16313043031872415576
13681431 1 18113621187846984931
14817 1 6551248053391832878
16945 1 18116450153718549032
20567600 347 17613744530185927135
20600515 1 18117569645666145695
20905425 154 18041856085240043753
21330990 113 17700166397436920968
21524375 3 17319878044392079849
22112679 90 17901074697891783122
22149856 69 17987529131237027615
23419403 2 17906212698902101468
23526113 38 17758082961818407638
23559900 14 17846514625373959015
238 59 16665699403659109749
25222932 49 16817187904232820975
2803657 2 18122598794518567676
35225 105 16966640078187452901
5845 1 14002688623411918873
6669772 16 17756433664591943416
81228 2 17758955209504614843
9999458 23 18053694415388146243

> <PUBCHEM_SHAPE_MULTIPOLES>
479.27
4.54
3.91
2.71
7.56
1.13
-0.55
-0.05
-2.11
-3
1.62
-1.26
-1.19
0.24

> <PUBCHEM_SHAPE_SELFOVERLAP>
1023.075

> <PUBCHEM_SHAPE_VOLUME>
264.4

> <PUBCHEM_COORDINATE_TYPE>
2
5
10

$$$$

