4818
  -OEChem-06261200213D

 35 36  0     0  0  0  0  0  0999 V2000
    1.9871    2.0142   -0.6613 O   0  0  0  0  0  0  0  0  0  0  0  0
    2.7849   -3.3935   -0.4934 O   0  0  0  0  0  0  0  0  0  0  0  0
   -2.1334    2.0162    0.5459 O   0  0  0  0  0  0  0  0  0  0  0  0
    5.0723    0.2724    0.2035 N   0  0  0  0  0  0  0  0  0  0  0  0
    0.0167    0.3812    0.1134 N   0  0  0  0  0  0  0  0  0  0  0  0
   -1.2594   -0.0499   -0.0258 N   0  0  0  0  0  0  0  0  0  0  0  0
   -6.2501   -0.7158   -0.2199 N   0  0  0  0  0  0  0  0  0  0  0  0
    2.3498   -0.2566    0.0079 C   0  0  0  0  0  0  0  0  0  0  0  0
    3.2155   -1.2641    0.3930 C   0  0  0  0  0  0  0  0  0  0  0  0
    2.8218    1.0109   -0.2812 C   0  0  0  0  0  0  0  0  0  0  0  0
    4.1865    1.2233   -0.1685 C   0  0  0  0  0  0  0  0  0  0  0  0
    2.7532   -2.6434    0.7152 C   0  0  0  0  0  0  0  0  0  0  0  0
    4.5624   -0.9498    0.4753 C   0  0  0  0  0  0  0  0  0  0  0  0
    0.9065   -0.5336   -0.0973 C   0  0  0  0  0  0  0  0  0  0  0  0
    4.7622    2.5692   -0.4653 C   0  0  0  0  0  0  0  0  0  0  0  0
   -3.6623    0.3026    0.0621 C   0  0  0  0  0  0  0  0  0  0  0  0
   -2.3164    0.8322    0.2089 C   0  0  0  0  0  0  0  0  0  0  0  0
   -4.7151    0.8642    0.7760 C   0  0  0  0  0  0  0  0  0  0  0  0
   -3.9019   -0.7676   -0.7927 C   0  0  0  0  0  0  0  0  0  0  0  0
   -5.9787    0.3234    0.6012 C   0  0  0  0  0  0  0  0  0  0  0  0
   -5.2018   -1.2356   -0.8971 C   0  0  0  0  0  0  0  0  0  0  0  0
    3.4289   -3.1194    1.4352 H   0  0  0  0  0  0  0  0  0  0  0  0
    1.7513   -2.6755    1.1533 H   0  0  0  0  0  0  0  0  0  0  0  0
    5.3002   -1.6903    0.7691 H   0  0  0  0  0  0  0  0  0  0  0  0
    0.6093   -1.5655   -0.3565 H   0  0  0  0  0  0  0  0  0  0  0  0
    4.5542    2.8543   -1.5015 H   0  0  0  0  0  0  0  0  0  0  0  0
    4.3404    3.3226    0.2077 H   0  0  0  0  0  0  0  0  0  0  0  0
    5.8489    2.5704   -0.3297 H   0  0  0  0  0  0  0  0  0  0  0  0
    1.0947    1.6756   -0.8332 H   0  0  0  0  0  0  0  0  0  0  0  0
   -1.3964   -1.0291   -0.2542 H   0  0  0  0  0  0  0  0  0  0  0  0
    2.4990   -4.2969   -0.2750 H   0  0  0  0  0  0  0  0  0  0  0  0
   -4.5711    1.6970    1.4561 H   0  0  0  0  0  0  0  0  0  0  0  0
   -3.1298   -1.2315   -1.3957 H   0  0  0  0  0  0  0  0  0  0  0  0
   -6.8334    0.7244    1.1359 H   0  0  0  0  0  0  0  0  0  0  0  0
   -5.4430   -2.0641   -1.5550 H   0  0  0  0  0  0  0  0  0  0  0  0
  1 10  1  0  0  0  0
  1 29  1  0  0  0  0
  2 12  1  0  0  0  0
  2 31  1  0  0  0  0
  3 17  2  0  0  0  0
  4 11  2  0  0  0  0
  4 13  1  0  0  0  0
  5  6  1  0  0  0  0
  5 14  2  0  0  0  0
  6 17  1  0  0  0  0
  6 30  1  0  0  0  0
  7 20  2  0  0  0  0
  7 21  1  0  0  0  0
  8  9  1  0  0  0  0
  8 10  2  0  0  0  0
  8 14  1  0  0  0  0
  9 12  1  0  0  0  0
  9 13  2  0  0  0  0
 10 11  1  0  0  0  0
 11 15  1  0  0  0  0
 12 22  1  0  0  0  0
 12 23  1  0  0  0  0
 13 24  1  0  0  0  0
 14 25  1  0  0  0  0
 15 26  1  0  0  0  0
 15 27  1  0  0  0  0
 15 28  1  0  0  0  0
 16 17  1  0  0  0  0
 16 18  2  0  0  0  0
 16 19  1  0  0  0  0
 18 20  1  0  0  0  0
 18 32  1  0  0  0  0
 19 21  2  0  0  0  0
 19 33  1  0  0  0  0
 20 34  1  0  0  0  0
 21 35  1  0  0  0  0
M  END
> <PUBCHEM_COMPOUND_CID>
4818

> <PUBCHEM_CONFORMER_RMSD>
0.8

> <PUBCHEM_CONFORMER_DIVERSEORDER>
1
3
7
6
4
5
2

> <PUBCHEM_MMFF94_PARTIAL_CHARGES>
30
1 -0.53
10 0.08
11 0.17
12 0.42
13 0.16
14 0.3
15 0.14
16 0.09
17 0.54
18 -0.15
19 -0.15
2 -0.68
20 0.16
21 0.16
24 0.15
25 0.06
29 0.45
3 -0.57
30 0.37
31 0.4
32 0.15
33 0.15
34 0.15
35 0.15
4 -0.62
5 -0.51
6 -0.37
7 -0.62
8 0.09
9 -0.14

> <PUBCHEM_EFFECTIVE_ROTOR_COUNT>
5

> <PUBCHEM_PHARMACOPHORE_FEATURES>
10
1 1 donor
1 2 acceptor
1 2 donor
1 3 acceptor
1 4 acceptor
1 5 acceptor
1 6 donor
1 7 acceptor
6 4 8 9 10 11 13 rings
6 7 16 18 19 20 21 rings

> <PUBCHEM_HEAVY_ATOM_COUNT>
21

> <PUBCHEM_ATOM_DEF_STEREO_COUNT>
0

> <PUBCHEM_ATOM_UDEF_STEREO_COUNT>
0

> <PUBCHEM_BOND_DEF_STEREO_COUNT>
0

> <PUBCHEM_BOND_UDEF_STEREO_COUNT>
1

> <PUBCHEM_ISOTOPIC_ATOM_COUNT>
0

> <PUBCHEM_COMPONENT_COUNT>
1

> <PUBCHEM_CACTVS_TAUTO_COUNT>
11

> <PUBCHEM_CONFORMER_ID>
000012D200000001

> <PUBCHEM_MMFF94_ENERGY>
62.5597

> <PUBCHEM_FEATURE_SELFOVERLAP>
50.749

> <PUBCHEM_SHAPE_FINGERPRINT>
10090160 65 18343587312997428610
10411042 1 18053385689694067538
10595046 47 18408323276787083793
10912923 1 18260264161998227241
12107183 9 17687178008269641665
12236239 1 18334293154541288829
12596602 18 17530966869163963946
12730499 353 18271799099682930434
12788726 201 17531236292816071561
13009979 54 17752201957969142194
13167823 11 18335703879404458827
13533116 47 18410293626871642402
13631057 29 18118687604574571047
13836976 161 18343298150794259862
13955234 65 18413393155147105994
14341114 176 18336260240767148367
14341114 328 18260546719206508407
14528608 73 18337107873958852772
14849402 71 18263087635282613200
15250474 111 18260842466460537455
17492 89 18192150610168405687
17834072 33 18410294709213839785
17844677 252 18340483477920027893
17857418 61 18408891745741877403
19377110 9 18260542338297682081
19427546 62 18199745848025678544
200 152 18411140234178001393
20511986 3 18334590027039052693
20645477 70 18342458174959856714
21033648 29 17131567063114946485
21054139 6 18263371299937919750
21065198 48 18334573585767100145
21197605 99 18269829822665885363
21267235 1 18410287051878085654
21315763 178 18260553311902199413
21623969 137 18201145590779149979
220451 1 18259698991683863635
22224240 67 18411426073284531840
22646028 1 18335423478100766569
23402539 116 18409733971759608117
23522609 53 17970041427960026113
23559900 14 18271244919767981873
239999 70 18260823830686812030
300161 21 18334862718786426985
3004659 81 18410856598294735699
314194 84 18335702715768891723
335352 9 18341889668436885316
33824 294 18272371984096264762
34797466 226 16370999646723183496
3545911 37 18343580724649556288
4073 2 18130782318447661379
42630746 31 18412262839865988006
4325135 7 18408323276523404757
5104073 3 18338795723371312329
542803 24 18040433283023685173
5758199 1 18336828590064504472
602551 16 16009042622329976503
6025842 7 18412544306189519174
7495541 125 17822016380223461305
8272917 22 18410852179285104078
9709674 26 18341325690567722570

> <PUBCHEM_SHAPE_MULTIPOLES>
394.64
14.89
2.53
0.82
14.6
1.02
-0.01
-0.48
0.03
-3.88
-0.18
0.4
0.07
-1.5

> <PUBCHEM_SHAPE_SELFOVERLAP>
845.234

> <PUBCHEM_SHAPE_VOLUME>
215.6

> <PUBCHEM_COORDINATE_TYPE>
2
5
10

$$$$

