442983
  -OEChem-07051213002D

 79 83  0     1  0  0  0  0  0999 V2000
   10.4586   -0.5366    0.0000 O   0  0  0  0  0  0  0  0  0  0  0  0
    9.8070    3.1196    0.0000 O   0  0  0  0  0  0  0  0  0  0  0  0
   10.8321    0.6805    0.0000 N   0  0  0  0  0  0  0  0  0  0  0  0
    2.5357   -3.0890    0.0000 N   0  0  0  0  0  0  0  0  0  0  0  0
    7.9288   -0.0366    0.0000 C   0  0  1  0  0  0  0  0  0  0  0  0
    7.9288   -1.0366    0.0000 C   0  0  2  0  0  0  0  0  0  0  0  0
    7.0628   -1.5366    0.0000 C   0  0  1  0  0  0  0  0  0  0  0  0
    6.1968   -1.0366    0.0000 C   0  0  1  0  0  0  0  0  0  0  0  0
    5.2868   -1.5435    0.0000 C   0  0  2  0  0  0  0  0  0  0  0  0
    8.8750    0.2681    0.0000 C   0  0  2  0  0  0  0  0  0  0  0  0
    7.0628    0.4634    0.0000 C   0  0  0  0  0  0  0  0  0  0  0  0
    6.1968   -0.0366    0.0000 C   0  0  0  0  0  0  0  0  0  0  0  0
    5.2787   -2.5851    0.0000 C   0  0  1  0  0  0  0  0  0  0  0  0
    8.8750   -1.3414    0.0000 C   0  0  0  0  0  0  0  0  0  0  0  0
    9.4586   -0.5366    0.0000 C   0  0  1  0  0  0  0  0  0  0  0  0
    7.0789   -2.5782    0.0000 C   0  0  0  0  0  0  0  0  0  0  0  0
    6.1808   -3.1059    0.0000 C   0  0  0  0  0  0  0  0  0  0  0  0
    4.3599   -0.9794    0.0000 C   0  0  0  0  0  0  0  0  0  0  0  0
    9.1857    1.2186    0.0000 C   0  0  1  0  0  0  0  0  0  0  0  0
    7.9288    0.9634    0.0000 C   0  0  0  0  0  0  0  0  0  0  0  0
    4.3433   -3.1348    0.0000 C   0  0  0  0  0  0  0  0  0  0  0  0
    5.2945   -0.5435    0.0000 C   0  0  0  0  0  0  0  0  0  0  0  0
    3.4120   -1.5074    0.0000 C   0  0  0  0  0  0  0  0  0  0  0  0
    3.4037   -2.5923    0.0000 C   0  0  2  0  0  0  0  0  0  0  0  0
   10.1642    1.4248    0.0000 C   0  0  2  0  0  0  0  0  0  0  0  0
    8.5179    1.9629    0.0000 C   0  0  0  0  0  0  0  0  0  0  0  0
   10.4749    2.3754    0.0000 C   0  0  2  0  0  0  0  0  0  0  0  0
   11.4534    2.5816    0.0000 C   0  0  0  0  0  0  0  0  0  0  0  0
   11.8106    0.8867    0.0000 C   0  0  0  0  0  0  0  0  0  0  0  0
   12.1212    1.8373    0.0000 C   0  0  2  0  0  0  0  0  0  0  0  0
   13.0997    2.0435    0.0000 C   0  0  0  0  0  0  0  0  0  0  0  0
    8.0188   -1.8819    0.0000 H   0  0  0  0  0  0  0  0  0  0  0  0
    7.8022   -1.9560    0.0000 H   0  0  0  0  0  0  0  0  0  0  0  0
    6.9329   -0.6116    0.0000 H   0  0  0  0  0  0  0  0  0  0  0  0
    9.7148    0.4000    0.0000 H   0  0  0  0  0  0  0  0  0  0  0  0
    7.4613    0.9383    0.0000 H   0  0  0  0  0  0  0  0  0  0  0  0
    6.6643    0.9383    0.0000 H   0  0  0  0  0  0  0  0  0  0  0  0
    5.9847    0.5460    0.0000 H   0  0  0  0  0  0  0  0  0  0  0  0
    5.5862   -0.1443    0.0000 H   0  0  0  0  0  0  0  0  0  0  0  0
    5.2820   -3.4351    0.0000 H   0  0  0  0  0  0  0  0  0  0  0  0
    8.6240   -1.9083    0.0000 H   0  0  0  0  0  0  0  0  0  0  0  0
    9.4124   -1.6506    0.0000 H   0  0  0  0  0  0  0  0  0  0  0  0
    9.7404   -1.0890    0.0000 H   0  0  0  0  0  0  0  0  0  0  0  0
    7.2969   -3.1586    0.0000 H   0  0  0  0  0  0  0  0  0  0  0  0
    7.6880   -2.4626    0.0000 H   0  0  0  0  0  0  0  0  0  0  0  0
    5.7835   -3.5819    0.0000 H   0  0  0  0  0  0  0  0  0  0  0  0
    6.5818   -3.5788    0.0000 H   0  0  0  0  0  0  0  0  0  0  0  0
    4.7681   -0.5128    0.0000 H   0  0  0  0  0  0  0  0  0  0  0  0
    3.9700   -0.4974    0.0000 H   0  0  0  0  0  0  0  0  0  0  0  0
    9.3783    1.8079    0.0000 H   0  0  0  0  0  0  0  0  0  0  0  0
    8.5488    0.9634    0.0000 H   0  0  0  0  0  0  0  0  0  0  0  0
    7.9288    1.5834    0.0000 H   0  0  0  0  0  0  0  0  0  0  0  0
    7.3088    0.9634    0.0000 H   0  0  0  0  0  0  0  0  0  0  0  0
    3.9460   -3.6108    0.0000 H   0  0  0  0  0  0  0  0  0  0  0  0
    4.7443   -3.6077    0.0000 H   0  0  0  0  0  0  0  0  0  0  0  0
    5.9145   -0.5483    0.0000 H   0  0  0  0  0  0  0  0  0  0  0  0
    5.2993    0.0765    0.0000 H   0  0  0  0  0  0  0  0  0  0  0  0
    4.6745   -0.5387    0.0000 H   0  0  0  0  0  0  0  0  0  0  0  0
    3.2075   -0.9221    0.0000 H   0  0  0  0  0  0  0  0  0  0  0  0
    2.8004   -1.6087    0.0000 H   0  0  0  0  0  0  0  0  0  0  0  0
    3.4025   -3.2123    0.0000 H   0  0  0  0  0  0  0  0  0  0  0  0
    9.9002    0.6169    0.0000 H   0  0  0  0  0  0  0  0  0  0  0  0
    8.9793    2.3770    0.0000 H   0  0  0  0  0  0  0  0  0  0  0  0
    8.1038    2.4244    0.0000 H   0  0  0  0  0  0  0  0  0  0  0  0
    8.0564    1.5488    0.0000 H   0  0  0  0  0  0  0  0  0  0  0  0
   10.7687   -1.0736    0.0000 H   0  0  0  0  0  0  0  0  0  0  0  0
   10.6675    2.9647    0.0000 H   0  0  0  0  0  0  0  0  0  0  0  0
   10.6394    0.0912    0.0000 H   0  0  0  0  0  0  0  0  0  0  0  0
    2.0000   -2.7769    0.0000 H   0  0  0  0  0  0  0  0  0  0  0  0
    2.5334   -3.7090    0.0000 H   0  0  0  0  0  0  0  0  0  0  0  0
   11.9797    2.9092    0.0000 H   0  0  0  0  0  0  0  0  0  0  0  0
   11.2221    3.1568    0.0000 H   0  0  0  0  0  0  0  0  0  0  0  0
   11.8311    0.2671    0.0000 H   0  0  0  0  0  0  0  0  0  0  0  0
   12.4244    0.7994    0.0000 H   0  0  0  0  0  0  0  0  0  0  0  0
   12.5353    1.3758    0.0000 H   0  0  0  0  0  0  0  0  0  0  0  0
    9.9996    3.7090    0.0000 H   0  0  0  0  0  0  0  0  0  0  0  0
   13.2276    1.4368    0.0000 H   0  0  0  0  0  0  0  0  0  0  0  0
   13.7064    2.1713    0.0000 H   0  0  0  0  0  0  0  0  0  0  0  0
   12.9719    2.6502    0.0000 H   0  0  0  0  0  0  0  0  0  0  0  0
 15  1  1  6  0  0  0
  1 66  1  0  0  0  0
 27  2  1  1  0  0  0
  2 76  1  0  0  0  0
  3 25  1  0  0  0  0
  3 29  1  0  0  0  0
  3 68  1  0  0  0  0
 24  4  1  1  0  0  0
  4 69  1  0  0  0  0
  4 70  1  0  0  0  0
  5  6  1  0  0  0  0
  5 10  1  0  0  0  0
  5 11  1  0  0  0  0
  5 20  1  1  0  0  0
  6  7  1  0  0  0  0
  6 14  1  0  0  0  0
  6 32  1  6  0  0  0
  7  8  1  0  0  0  0
  7 16  1  0  0  0  0
  7 33  1  1  0  0  0
  8  9  1  0  0  0  0
  8 12  1  0  0  0  0
  8 34  1  6  0  0  0
  9 13  1  0  0  0  0
  9 18  1  0  0  0  0
  9 22  1  1  0  0  0
 10 15  1  0  0  0  0
 10 19  1  0  0  0  0
 10 35  1  6  0  0  0
 11 12  1  0  0  0  0
 11 36  1  0  0  0  0
 11 37  1  0  0  0  0
 12 38  1  0  0  0  0
 12 39  1  0  0  0  0
 13 17  1  0  0  0  0
 13 21  1  0  0  0  0
 13 40  1  6  0  0  0
 14 15  1  0  0  0  0
 14 41  1  0  0  0  0
 14 42  1  0  0  0  0
 15 43  1  0  0  0  0
 16 17  1  0  0  0  0
 16 44  1  0  0  0  0
 16 45  1  0  0  0  0
 17 46  1  0  0  0  0
 17 47  1  0  0  0  0
 18 23  1  0  0  0  0
 18 48  1  0  0  0  0
 18 49  1  0  0  0  0
 19 25  1  0  0  0  0
 19 26  1  6  0  0  0
 19 50  1  0  0  0  0
 20 51  1  0  0  0  0
 20 52  1  0  0  0  0
 20 53  1  0  0  0  0
 21 24  1  0  0  0  0
 21 54  1  0  0  0  0
 21 55  1  0  0  0  0
 22 56  1  0  0  0  0
 22 57  1  0  0  0  0
 22 58  1  0  0  0  0
 23 24  1  0  0  0  0
 23 59  1  0  0  0  0
 23 60  1  0  0  0  0
 24 61  1  0  0  0  0
 25 27  1  0  0  0  0
 25 62  1  1  0  0  0
 26 63  1  0  0  0  0
 26 64  1  0  0  0  0
 26 65  1  0  0  0  0
 27 28  1  0  0  0  0
 27 67  1  0  0  0  0
 28 30  1  0  0  0  0
 28 71  1  0  0  0  0
 28 72  1  0  0  0  0
 29 30  1  0  0  0  0
 29 73  1  0  0  0  0
 29 74  1  0  0  0  0
 30 31  1  1  0  0  0
 30 75  1  0  0  0  0
 31 77  1  0  0  0  0
 31 78  1  0  0  0  0
 31 79  1  0  0  0  0
M  END
> <PUBCHEM_COMPOUND_CID>
442983

> <PUBCHEM_COMPOUND_CANONICALIZED>
1

> <PUBCHEM_CACTVS_COMPLEXITY>
672

> <PUBCHEM_CACTVS_HBOND_ACCEPTOR>
4

> <PUBCHEM_CACTVS_HBOND_DONOR>
4

> <PUBCHEM_CACTVS_ROTATABLE_BOND>
2

> <PUBCHEM_CACTVS_SUBSKEYS>
AAADcfB7MAAAAAAAAAAAAAAAAAAAAYAAAAA8YMEAAAAAAGDAAAAAHgAQCAAADzzhgAYCAALAAgAAAAAAAAAAAAAAAAAAAIAIAAACEAIAgAAEQAAEEACQAAGw4PQPgAAAAAAAAACQAASAACAAAYAADAAAAA==

> <PUBCHEM_IUPAC_OPENEYE_NAME>
(2R,3S,5R)-2-[(1S)-1-[(3S,5S,8R,9S,10S,13S,14S,16R,17R)-3-amino-16-hydroxy-10,13-dimethyl-2,3,4,5,6,7,8,9,11,12,14,15,16,17-tetradecahydro-1H-cyclopenta[a]phenanthren-17-yl]ethyl]-5-methyl-piperidin-3-ol

> <PUBCHEM_IUPAC_CAS_NAME>
(2R,3S,5R)-2-[(1S)-1-[(3S,5S,8R,9S,10S,13S,14S,16R,17R)-3-amino-16-hydroxy-10,13-dimethyl-2,3,4,5,6,7,8,9,11,12,14,15,16,17-tetradecahydro-1H-cyclopenta[a]phenanthren-17-yl]ethyl]-5-methyl-3-piperidinol

> <PUBCHEM_IUPAC_NAME>
(2R,3S,5R)-2-[(1S)-1-[(3S,5S,8R,9S,10S,13S,14S,16R,17R)-3-amino-16-hydroxy-10,13-dimethyl-2,3,4,5,6,7,8,9,11,12,14,15,16,17-tetradecahydro-1H-cyclopenta[a]phenanthren-17-yl]ethyl]-5-methylpiperidin-3-ol

> <PUBCHEM_IUPAC_SYSTEMATIC_NAME>
(2R,3S,5R)-2-[(1S)-1-[(3S,5S,8R,9S,10S,13S,14S,16R,17R)-3-azanyl-10,13-dimethyl-16-oxidanyl-2,3,4,5,6,7,8,9,11,12,14,15,16,17-tetradecahydro-1H-cyclopenta[a]phenanthren-17-yl]ethyl]-5-methyl-piperidin-3-ol

> <PUBCHEM_IUPAC_TRADITIONAL_NAME>
(2R,3S,5R)-2-[(1S)-1-[(3S,5S,8R,9S,10S,13S,14S,16R,17R)-3-amino-16-hydroxy-10,13-dimethyl-2,3,4,5,6,7,8,9,11,12,14,15,16,17-tetradecahydro-1H-cyclopenta[a]phenanthren-17-yl]ethyl]-5-methyl-piperidin-3-ol

> <PUBCHEM_IUPAC_INCHI>
InChI=1S/C27H48N2O2/c1-15-11-23(31)25(29-14-15)16(2)24-22(30)13-21-19-6-5-17-12-18(28)7-9-26(17,3)20(19)8-10-27(21,24)4/h15-25,29-31H,5-14,28H2,1-4H3/t15-,16+,17+,18+,19-,20+,21+,22-,23+,24+,25-,26+,27+/m1/s1

> <PUBCHEM_IUPAC_INCHIKEY>
SSDNUGHQUZHHEE-YGUMODFPSA-N

> <PUBCHEM_XLOGP3_AA>
4.8

> <PUBCHEM_EXACT_MASS>
432.371579

> <PUBCHEM_MOLECULAR_FORMULA>
C27H48N2O2

> <PUBCHEM_MOLECULAR_WEIGHT>
432.68222

> <PUBCHEM_OPENEYE_CAN_SMILES>
CC1CC(C(NC1)C(C)C2C(CC3C2(CCC4C3CCC5C4(CCC(C5)N)C)C)O)O

> <PUBCHEM_OPENEYE_ISO_SMILES>
C[C@@H]1C[C@@H]([C@H](NC1)[C@@H](C)[C@H]2[C@@H](C[C@@H]3[C@@]2(CC[C@H]4[C@H]3CC[C@@H]5[C@@]4(CC[C@@H](C5)N)C)C)O)O

> <PUBCHEM_CACTVS_TPSA>
78.5

> <PUBCHEM_MONOISOTOPIC_WEIGHT>
432.371579

> <PUBCHEM_TOTAL_CHARGE>
0

> <PUBCHEM_HEAVY_ATOM_COUNT>
31

> <PUBCHEM_ATOM_DEF_STEREO_COUNT>
13

> <PUBCHEM_ATOM_UDEF_STEREO_COUNT>
0

> <PUBCHEM_BOND_DEF_STEREO_COUNT>
0

> <PUBCHEM_BOND_UDEF_STEREO_COUNT>
0

> <PUBCHEM_ISOTOPIC_ATOM_COUNT>
0

> <PUBCHEM_COMPONENT_COUNT>
1

> <PUBCHEM_CACTVS_TAUTO_COUNT>
1

> <PUBCHEM_COORDINATE_TYPE>
1
5
255

> <PUBCHEM_BONDANNOTATIONS>
15  1  6
10  35  6
13  40  6
19  26  6
27  2  5
25  62  5
30  31  5
24  4  5
5  20  5
6  32  6
7  33  5
8  34  6
9  22  5

$$$$

