9828359
  -OEChem-07051213122D

 40 41  0     1  0  0  0  0  0999 V2000
    2.0000    2.0000    0.0000 Cl  0  0  0  0  0  0  0  0  0  0  0  0
    5.4641    2.0000    0.0000 Cl  0  0  0  0  0  0  0  0  0  0  0  0
    6.3301    3.5000    0.0000 F   0  0  0  0  0  0  0  0  0  0  0  0
    4.0981    4.3660    0.0000 F   0  0  0  0  0  0  0  0  0  0  0  0
    5.0981    2.6340    0.0000 F   0  0  0  0  0  0  0  0  0  0  0  0
    5.4641    6.0000    0.0000 F   0  0  0  0  0  0  0  0  0  0  0  0
    6.4641    5.0000    0.0000 F   0  0  0  0  0  0  0  0  0  0  0  0
    4.4641    5.0000    0.0000 F   0  0  0  0  0  0  0  0  0  0  0  0
    2.0000    0.0000    0.0000 F   0  0  0  0  0  0  0  0  0  0  0  0
    3.7320   -4.0000    0.0000 F   0  0  0  0  0  0  0  0  0  0  0  0
    7.1962   -4.0000    0.0000 F   0  0  0  0  0  0  0  0  0  0  0  0
    3.7320    3.0000    0.0000 O   0  0  0  0  0  0  0  0  0  0  0  0
    5.4641   -1.0000    0.0000 O   0  0  0  0  0  0  0  0  0  0  0  0
    6.3301   -2.5000    0.0000 O   0  0  0  0  0  0  0  0  0  0  0  0
    3.7320   -1.0000    0.0000 N   0  0  0  0  0  0  0  0  0  0  0  0
    4.5981   -2.5000    0.0000 N   0  0  0  0  0  0  0  0  0  0  0  0
    5.4641    4.0000    0.0000 C   0  0  3  0  0  0  0  0  0  0  0  0
    4.5981    3.5000    0.0000 C   0  0  0  0  0  0  0  0  0  0  0  0
    3.7320    2.0000    0.0000 C   0  0  0  0  0  0  0  0  0  0  0  0
    3.7320    0.0000    0.0000 C   0  0  0  0  0  0  0  0  0  0  0  0
    5.4641    5.0000    0.0000 C   0  0  0  0  0  0  0  0  0  0  0  0
    2.8660    1.5000    0.0000 C   0  0  0  0  0  0  0  0  0  0  0  0
    4.5981    1.5000    0.0000 C   0  0  0  0  0  0  0  0  0  0  0  0
    2.8660    0.5000    0.0000 C   0  0  0  0  0  0  0  0  0  0  0  0
    4.5981    0.5000    0.0000 C   0  0  0  0  0  0  0  0  0  0  0  0
    4.5981   -1.5000    0.0000 C   0  0  0  0  0  0  0  0  0  0  0  0
    5.4641   -4.0000    0.0000 C   0  0  0  0  0  0  0  0  0  0  0  0
    5.4641   -3.0000    0.0000 C   0  0  0  0  0  0  0  0  0  0  0  0
    4.5981   -4.5000    0.0000 C   0  0  0  0  0  0  0  0  0  0  0  0
    6.3301   -4.5000    0.0000 C   0  0  0  0  0  0  0  0  0  0  0  0
    4.5981   -5.5000    0.0000 C   0  0  0  0  0  0  0  0  0  0  0  0
    6.3301   -5.5000    0.0000 C   0  0  0  0  0  0  0  0  0  0  0  0
    5.4641   -6.0000    0.0000 C   0  0  0  0  0  0  0  0  0  0  0  0
    5.4641    3.3800    0.0000 H   0  0  0  0  0  0  0  0  0  0  0  0
    5.1350    0.1900    0.0000 H   0  0  0  0  0  0  0  0  0  0  0  0
    3.1951   -1.3100    0.0000 H   0  0  0  0  0  0  0  0  0  0  0  0
    4.0611   -2.8100    0.0000 H   0  0  0  0  0  0  0  0  0  0  0  0
    4.0611   -5.8100    0.0000 H   0  0  0  0  0  0  0  0  0  0  0  0
    6.8671   -5.8100    0.0000 H   0  0  0  0  0  0  0  0  0  0  0  0
    5.4641   -6.6200    0.0000 H   0  0  0  0  0  0  0  0  0  0  0  0
  1 22  1  0  0  0  0
  2 23  1  0  0  0  0
  3 17  1  0  0  0  0
  4 18  1  0  0  0  0
  5 18  1  0  0  0  0
  6 21  1  0  0  0  0
  7 21  1  0  0  0  0
  8 21  1  0  0  0  0
  9 24  1  0  0  0  0
 10 29  1  0  0  0  0
 11 30  1  0  0  0  0
 12 18  1  0  0  0  0
 12 19  1  0  0  0  0
 13 26  2  0  0  0  0
 14 28  2  0  0  0  0
 15 20  1  0  0  0  0
 15 26  1  0  0  0  0
 15 36  1  0  0  0  0
 16 26  1  0  0  0  0
 16 28  1  0  0  0  0
 16 37  1  0  0  0  0
 17 18  1  0  0  0  0
 17 21  1  0  0  0  0
 17 34  1  0  0  0  0
 19 22  1  0  0  0  0
 19 23  2  0  0  0  0
 20 24  1  0  0  0  0
 20 25  2  0  0  0  0
 22 24  2  0  0  0  0
 23 25  1  0  0  0  0
 25 35  1  0  0  0  0
 27 28  1  0  0  0  0
 27 29  2  0  0  0  0
 27 30  1  0  0  0  0
 29 31  1  0  0  0  0
 30 32  2  0  0  0  0
 31 33  2  0  0  0  0
 31 38  1  0  0  0  0
 32 33  1  0  0  0  0
 32 39  1  0  0  0  0
 33 40  1  0  0  0  0
M  END
> <PUBCHEM_COMPOUND_CID>
9828359

> <PUBCHEM_COMPOUND_CANONICALIZED>
1

> <PUBCHEM_CACTVS_COMPLEXITY>
708

> <PUBCHEM_CACTVS_HBOND_ACCEPTOR>
12

> <PUBCHEM_CACTVS_HBOND_DONOR>
2

> <PUBCHEM_CACTVS_ROTATABLE_BOND>
5

> <PUBCHEM_CACTVS_SUBSKEYS>
AAADcYB7McAGAAAAAAAAAAAAAAAAAAAAAAAwYAAAAAAAAAABQAAAHwIQAAAADA6BmDgxxoLABACIAiVSUACCCAAlJ0AIiAEEb8iMJjPFt5uGOSjs1TNI6Se4yACOAEAAAAKACAAAgAAABQAQAAAAAAAAAA==

> <PUBCHEM_IUPAC_OPENEYE_NAME>
N-[[3,5-dichloro-2-fluoro-4-(1,1,2,3,3,3-hexafluoropropoxy)phenyl]carbamoyl]-2,6-difluoro-benzamide

> <PUBCHEM_IUPAC_CAS_NAME>
N-[[3,5-dichloro-2-fluoro-4-(1,1,2,3,3,3-hexafluoropropoxy)anilino]-oxomethyl]-2,6-difluorobenzamide

> <PUBCHEM_IUPAC_NAME>
N-[[3,5-dichloro-2-fluoro-4-(1,1,2,3,3,3-hexafluoropropoxy)phenyl]carbamoyl]-2,6-difluorobenzamide

> <PUBCHEM_IUPAC_SYSTEMATIC_NAME>
N-[[3,5-bis(chloranyl)-2-fluoranyl-4-[1,1,2,3,3,3-hexakis(fluoranyl)propoxy]phenyl]carbamoyl]-2,6-bis(fluoranyl)benzamide

> <PUBCHEM_IUPAC_TRADITIONAL_NAME>
N-[[3,5-dichloro-2-fluoro-4-(1,1,2,3,3,3-hexafluoropropoxy)phenyl]carbamoyl]-2,6-difluoro-benzamide

> <PUBCHEM_IUPAC_INCHI>
InChI=1S/C17H7Cl2F9N2O3/c18-5-4-8(29-15(32)30-13(31)9-6(20)2-1-3-7(9)21)11(22)10(19)12(5)33-17(27,28)14(23)16(24,25)26/h1-4,14H,(H2,29,30,31,32)

> <PUBCHEM_IUPAC_INCHIKEY>
YTYGAJLZOJPJGH-UHFFFAOYSA-N

> <PUBCHEM_XLOGP3>
6.5

> <PUBCHEM_EXACT_MASS>
527.969001

> <PUBCHEM_MOLECULAR_FORMULA>
C17H7Cl2F9N2O3

> <PUBCHEM_MOLECULAR_WEIGHT>
529.140709

> <PUBCHEM_OPENEYE_CAN_SMILES>
C1=CC(=C(C(=C1)F)C(=O)NC(=O)NC2=CC(=C(C(=C2F)Cl)OC(C(C(F)(F)F)F)(F)F)Cl)F

> <PUBCHEM_OPENEYE_ISO_SMILES>
C1=CC(=C(C(=C1)F)C(=O)NC(=O)NC2=CC(=C(C(=C2F)Cl)OC(C(C(F)(F)F)F)(F)F)Cl)F

> <PUBCHEM_CACTVS_TPSA>
67.4

> <PUBCHEM_MONOISOTOPIC_WEIGHT>
527.969001

> <PUBCHEM_TOTAL_CHARGE>
0

> <PUBCHEM_HEAVY_ATOM_COUNT>
33

> <PUBCHEM_ATOM_DEF_STEREO_COUNT>
0

> <PUBCHEM_ATOM_UDEF_STEREO_COUNT>
1

> <PUBCHEM_BOND_DEF_STEREO_COUNT>
0

> <PUBCHEM_BOND_UDEF_STEREO_COUNT>
0

> <PUBCHEM_ISOTOPIC_ATOM_COUNT>
0

> <PUBCHEM_COMPONENT_COUNT>
1

> <PUBCHEM_CACTVS_TAUTO_COUNT>
5

> <PUBCHEM_COORDINATE_TYPE>
1
5
255

> <PUBCHEM_BONDANNOTATIONS>
19  22  8
19  23  8
20  24  8
20  25  8
22  24  8
23  25  8
27  29  8
27  30  8
29  31  8
17  3  3
30  32  8
31  33  8
32  33  8

$$$$

