17432
  -OEChem-07051213122D

 17 17  0     0  0  0  0  0  0999 V2000
    8.1654   -0.4635    0.0000 Cl  0  0  0  0  0  0  0  0  0  0  0  0
    7.5234    0.7965    0.0000 Cl  0  0  0  0  0  0  0  0  0  0  0  0
    6.9053   -1.1056    0.0000 Cl  0  0  0  0  0  0  0  0  0  0  0  0
    4.9543    1.1056    0.0000 S   0  0  0  0  0  0  0  0  0  0  0  0
    3.6942   -0.1545    0.0000 O   0  0  0  0  0  0  0  0  0  0  0  0
    5.4543   -0.4333    0.0000 N   0  0  0  0  0  0  0  0  0  0  0  0
    5.9543    1.1056    0.0000 N   0  0  0  0  0  0  0  0  0  0  0  0
    6.2633    0.1545    0.0000 C   0  0  0  0  0  0  0  0  0  0  0  0
    2.9511    0.5146    0.0000 C   0  0  0  0  0  0  0  0  0  0  0  0
    4.6453    0.1545    0.0000 C   0  0  0  0  0  0  0  0  0  0  0  0
    7.2144   -0.1545    0.0000 C   0  0  0  0  0  0  0  0  0  0  0  0
    2.0000    0.2056    0.0000 C   0  0  0  0  0  0  0  0  0  0  0  0
    3.4396    0.8963    0.0000 H   0  0  0  0  0  0  0  0  0  0  0  0
    2.6600    1.0620    0.0000 H   0  0  0  0  0  0  0  0  0  0  0  0
    1.8084    0.7953    0.0000 H   0  0  0  0  0  0  0  0  0  0  0  0
    1.4103    0.0140    0.0000 H   0  0  0  0  0  0  0  0  0  0  0  0
    2.1916   -0.3840    0.0000 H   0  0  0  0  0  0  0  0  0  0  0  0
  1 11  1  0  0  0  0
  2 11  1  0  0  0  0
  3 11  1  0  0  0  0
  4  7  1  0  0  0  0
  4 10  1  0  0  0  0
  5  9  1  0  0  0  0
  5 10  1  0  0  0  0
  6  8  1  0  0  0  0
  6 10  2  0  0  0  0
  7  8  2  0  0  0  0
  8 11  1  0  0  0  0
  9 12  1  0  0  0  0
  9 13  1  0  0  0  0
  9 14  1  0  0  0  0
 12 15  1  0  0  0  0
 12 16  1  0  0  0  0
 12 17  1  0  0  0  0
M  END
> <PUBCHEM_COMPOUND_CID>
17432

> <PUBCHEM_COMPOUND_CANONICALIZED>
1

> <PUBCHEM_CACTVS_COMPLEXITY>
154

> <PUBCHEM_CACTVS_HBOND_ACCEPTOR>
4

> <PUBCHEM_CACTVS_HBOND_DONOR>
0

> <PUBCHEM_CACTVS_ROTATABLE_BOND>
2

> <PUBCHEM_CACTVS_SUBSKEYS>
AAADcYBjIABGAAAAAAAAAAAAAAAAAWAAAAAAAAAAAAAAAAABgAAAHgYAQAAAAAKhg4IDEAYIFAAkAAIgJAAA0AkAAKgBAAAAAACACAAAAABIAAAAAAAAAAAAAAAAAAAAAAAAAAAAAAAAAAAAAAAAAAAAAA==

> <PUBCHEM_IUPAC_OPENEYE_NAME>
5-ethoxy-3-(trichloromethyl)-1,2,4-thiadiazole

> <PUBCHEM_IUPAC_CAS_NAME>
5-ethoxy-3-(trichloromethyl)-1,2,4-thiadiazole

> <PUBCHEM_IUPAC_NAME>
5-ethoxy-3-(trichloromethyl)-1,2,4-thiadiazole

> <PUBCHEM_IUPAC_SYSTEMATIC_NAME>
5-ethoxy-3-(trichloromethyl)-1,2,4-thiadiazole

> <PUBCHEM_IUPAC_TRADITIONAL_NAME>
5-ethoxy-3-(trichloromethyl)-1,2,4-thiadiazole

> <PUBCHEM_IUPAC_INCHI>
InChI=1S/C5H5Cl3N2OS/c1-2-11-4-9-3(10-12-4)5(6,7)8/h2H2,1H3

> <PUBCHEM_IUPAC_INCHIKEY>
KQTVWCSONPJJPE-UHFFFAOYSA-N

> <PUBCHEM_XLOGP3>
2.5

> <PUBCHEM_EXACT_MASS>
245.918817

> <PUBCHEM_MOLECULAR_FORMULA>
C5H5Cl3N2OS

> <PUBCHEM_MOLECULAR_WEIGHT>
247.53

> <PUBCHEM_OPENEYE_CAN_SMILES>
CCOC1=NC(=NS1)C(Cl)(Cl)Cl

> <PUBCHEM_OPENEYE_ISO_SMILES>
CCOC1=NC(=NS1)C(Cl)(Cl)Cl

> <PUBCHEM_CACTVS_TPSA>
63.2

> <PUBCHEM_MONOISOTOPIC_WEIGHT>
245.918817

> <PUBCHEM_TOTAL_CHARGE>
0

> <PUBCHEM_HEAVY_ATOM_COUNT>
12

> <PUBCHEM_ATOM_DEF_STEREO_COUNT>
0

> <PUBCHEM_ATOM_UDEF_STEREO_COUNT>
0

> <PUBCHEM_BOND_DEF_STEREO_COUNT>
0

> <PUBCHEM_BOND_UDEF_STEREO_COUNT>
0

> <PUBCHEM_ISOTOPIC_ATOM_COUNT>
0

> <PUBCHEM_COMPONENT_COUNT>
1

> <PUBCHEM_CACTVS_TAUTO_COUNT>
1

> <PUBCHEM_COORDINATE_TYPE>
1
5
255

> <PUBCHEM_BONDANNOTATIONS>
4  10  8
4  7  8
6  10  8
6  8  8
7  8  8

$$$$

