6857355
  -OEChem-07051212482D

 74 76  0     1  0  0  0  0  0999 V2000
    3.4030   -3.7526    0.0000 P   0  0  0  0  0  0  0  0  0  0  0  0
    6.9030   -1.1545    0.0000 O   0  0  0  0  0  0  0  0  0  0  0  0
    8.6350    1.8455    0.0000 O   0  0  0  0  0  0  0  0  0  0  0  0
    6.9030    0.8455    0.0000 O   0  0  0  0  0  0  0  0  0  0  0  0
    6.9030   -2.8865    0.0000 O   0  0  0  0  0  0  0  0  0  0  0  0
    6.9030    1.8455    0.0000 O   0  0  0  0  0  0  0  0  0  0  0  0
    3.9030   -2.8866    0.0000 O   0  0  0  0  0  0  0  0  0  0  0  0
    4.9030   -1.1544    0.0000 O   0  0  0  0  0  0  0  0  0  0  0  0
    8.6350    3.8455    0.0000 O   0  0  0  0  0  0  0  0  0  0  0  0
    4.9030   -4.6186    0.0000 O   0  0  0  0  0  0  0  0  0  0  0  0
    5.1709    3.8455    0.0000 O   0  0  0  0  0  0  0  0  0  0  0  0
    4.3049    2.3455    0.0000 O   0  0  0  0  0  0  0  0  0  0  0  0
    2.9030   -4.6186    0.0000 O   0  0  0  0  0  0  0  0  0  0  0  0
    2.5369   -3.2526    0.0000 O   0  0  0  0  0  0  0  0  0  0  0  0
    4.2690   -4.2526    0.0000 O   0  0  0  0  0  0  0  0  0  0  0  0
    9.1351   -2.0205    0.0000 N   0  0  0  0  0  0  0  0  0  0  0  0
   10.3671    0.8455    0.0000 N   0  0  0  0  0  0  0  0  0  0  0  0
    6.9030    4.8455    0.0000 N   0  0  0  0  0  0  0  0  0  0  0  0
    7.9030   -4.6186    0.0000 N   0  0  0  0  0  0  0  0  0  0  0  0
    7.7690   -0.6545    0.0000 C   0  0  1  0  0  0  0  0  0  0  0  0
    8.6350    0.8455    0.0000 C   0  0  2  0  0  0  0  0  0  0  0  0
    7.7690    0.3455    0.0000 C   0  0  1  0  0  0  0  0  0  0  0  0
    8.6350   -1.1545    0.0000 C   0  0  2  0  0  0  0  0  0  0  0  0
    9.5010    0.3455    0.0000 C   0  0  1  0  0  0  0  0  0  0  0  0
    9.5010   -0.6545    0.0000 C   0  0  0  0  0  0  0  0  0  0  0  0
    6.4030   -2.0206    0.0000 C   0  0  1  0  0  0  0  0  0  0  0  0
    7.7690    2.3455    0.0000 C   0  0  1  0  0  0  0  0  0  0  0  0
    5.4030   -2.0205    0.0000 C   0  0  1  0  0  0  0  0  0  0  0  0
    7.7690    3.3455    0.0000 C   0  0  1  0  0  0  0  0  0  0  0  0
    4.9030   -2.8866    0.0000 C   0  0  2  0  0  0  0  0  0  0  0  0
    6.9030    3.8455    0.0000 C   0  0  2  0  0  0  0  0  0  0  0  0
    5.4030   -3.7526    0.0000 C   0  0  1  0  0  0  0  0  0  0  0  0
    6.4030   -3.7526    0.0000 C   0  0  1  0  0  0  0  0  0  0  0  0
    6.0369    3.3455    0.0000 C   0  0  1  0  0  0  0  0  0  0  0  0
    6.0369    2.3455    0.0000 C   0  0  1  0  0  0  0  0  0  0  0  0
    6.9030   -4.6186    0.0000 C   0  0  0  0  0  0  0  0  0  0  0  0
    5.1709    1.8455    0.0000 C   0  0  0  0  0  0  0  0  0  0  0  0
    7.7690   -1.2745    0.0000 H   0  0  0  0  0  0  0  0  0  0  0  0
    9.1719    1.1555    0.0000 H   0  0  0  0  0  0  0  0  0  0  0  0
    7.7690    0.9655    0.0000 H   0  0  0  0  0  0  0  0  0  0  0  0
    8.1966   -1.5929    0.0000 H   0  0  0  0  0  0  0  0  0  0  0  0
    9.5010    0.9655    0.0000 H   0  0  0  0  0  0  0  0  0  0  0  0
    9.7131   -1.2371    0.0000 H   0  0  0  0  0  0  0  0  0  0  0  0
   10.1116   -0.5468    0.0000 H   0  0  0  0  0  0  0  0  0  0  0  0
    6.0930   -1.4836    0.0000 H   0  0  0  0  0  0  0  0  0  0  0  0
    7.7690    1.7255    0.0000 H   0  0  0  0  0  0  0  0  0  0  0  0
    4.7830   -2.0205    0.0000 H   0  0  0  0  0  0  0  0  0  0  0  0
    7.7690    3.9655    0.0000 H   0  0  0  0  0  0  0  0  0  0  0  0
    4.5930   -3.4235    0.0000 H   0  0  0  0  0  0  0  0  0  0  0  0
    6.3660    4.1555    0.0000 H   0  0  0  0  0  0  0  0  0  0  0  0
    5.7130   -4.2895    0.0000 H   0  0  0  0  0  0  0  0  0  0  0  0
    7.0230   -3.7526    0.0000 H   0  0  0  0  0  0  0  0  0  0  0  0
    5.5000    3.0355    0.0000 H   0  0  0  0  0  0  0  0  0  0  0  0
    9.7550   -2.0205    0.0000 H   0  0  0  0  0  0  0  0  0  0  0  0
    8.8250   -2.5574    0.0000 H   0  0  0  0  0  0  0  0  0  0  0  0
   10.9040    0.5355    0.0000 H   0  0  0  0  0  0  0  0  0  0  0  0
   10.3671    1.4655    0.0000 H   0  0  0  0  0  0  0  0  0  0  0  0
    6.0369    1.7255    0.0000 H   0  0  0  0  0  0  0  0  0  0  0  0
    6.3660    0.5355    0.0000 H   0  0  0  0  0  0  0  0  0  0  0  0
    6.3203   -4.8306    0.0000 H   0  0  0  0  0  0  0  0  0  0  0  0
    7.0106   -5.2292    0.0000 H   0  0  0  0  0  0  0  0  0  0  0  0
    4.7724    1.3706    0.0000 H   0  0  0  0  0  0  0  0  0  0  0  0
    5.5694    1.3706    0.0000 H   0  0  0  0  0  0  0  0  0  0  0  0
    6.3660    5.1555    0.0000 H   0  0  0  0  0  0  0  0  0  0  0  0
    7.4399    5.1555    0.0000 H   0  0  0  0  0  0  0  0  0  0  0  0
    4.2829   -1.1544    0.0000 H   0  0  0  0  0  0  0  0  0  0  0  0
    8.6350    4.4655    0.0000 H   0  0  0  0  0  0  0  0  0  0  0  0
    5.2130   -5.1555    0.0000 H   0  0  0  0  0  0  0  0  0  0  0  0
    5.1709    4.4655    0.0000 H   0  0  0  0  0  0  0  0  0  0  0  0
    8.2130   -5.1555    0.0000 H   0  0  0  0  0  0  0  0  0  0  0  0
    8.2130   -4.0816    0.0000 H   0  0  0  0  0  0  0  0  0  0  0  0
    3.7679    2.0355    0.0000 H   0  0  0  0  0  0  0  0  0  0  0  0
    2.0000   -3.5626    0.0000 H   0  0  0  0  0  0  0  0  0  0  0  0
    2.2830   -4.6186    0.0000 H   0  0  0  0  0  0  0  0  0  0  0  0
  1  7  1  0  0  0  0
  1 13  1  0  0  0  0
  1 14  1  0  0  0  0
  1 15  2  0  0  0  0
 20  2  1  1  0  0  0
 26  2  1  1  0  0  0
 21  3  1  1  0  0  0
 27  3  1  1  0  0  0
 22  4  1  6  0  0  0
  4 59  1  0  0  0  0
  5 26  1  0  0  0  0
  5 33  1  0  0  0  0
  6 27  1  0  0  0  0
  6 35  1  0  0  0  0
 30  7  1  6  0  0  0
 28  8  1  1  0  0  0
  8 66  1  0  0  0  0
 29  9  1  1  0  0  0
  9 67  1  0  0  0  0
 32 10  1  1  0  0  0
 10 68  1  0  0  0  0
 34 11  1  1  0  0  0
 11 69  1  0  0  0  0
 12 37  1  0  0  0  0
 12 72  1  0  0  0  0
 13 74  1  0  0  0  0
 14 73  1  0  0  0  0
 23 16  1  6  0  0  0
 16 54  1  0  0  0  0
 16 55  1  0  0  0  0
 24 17  1  6  0  0  0
 17 56  1  0  0  0  0
 17 57  1  0  0  0  0
 31 18  1  6  0  0  0
 18 64  1  0  0  0  0
 18 65  1  0  0  0  0
 19 36  1  0  0  0  0
 19 70  1  0  0  0  0
 19 71  1  0  0  0  0
 20 22  1  0  0  0  0
 20 23  1  0  0  0  0
 20 38  1  0  0  0  0
 21 22  1  0  0  0  0
 21 24  1  0  0  0  0
 21 39  1  0  0  0  0
 22 40  1  0  0  0  0
 23 25  1  0  0  0  0
 23 41  1  0  0  0  0
 24 25  1  0  0  0  0
 24 42  1  0  0  0  0
 25 43  1  0  0  0  0
 25 44  1  0  0  0  0
 26 28  1  0  0  0  0
 26 45  1  0  0  0  0
 27 29  1  0  0  0  0
 27 46  1  0  0  0  0
 28 30  1  0  0  0  0
 28 47  1  0  0  0  0
 29 31  1  0  0  0  0
 29 48  1  0  0  0  0
 30 32  1  0  0  0  0
 30 49  1  0  0  0  0
 31 34  1  0  0  0  0
 31 50  1  0  0  0  0
 32 33  1  0  0  0  0
 32 51  1  0  0  0  0
 33 36  1  6  0  0  0
 33 52  1  0  0  0  0
 34 35  1  0  0  0  0
 34 53  1  0  0  0  0
 35 37  1  6  0  0  0
 35 58  1  0  0  0  0
 36 60  1  0  0  0  0
 36 61  1  0  0  0  0
 37 62  1  0  0  0  0
 37 63  1  0  0  0  0
M  END
> <PUBCHEM_COMPOUND_CID>
6857355

> <PUBCHEM_COMPOUND_CANONICALIZED>
1

> <PUBCHEM_CACTVS_COMPLEXITY>
798

> <PUBCHEM_CACTVS_HBOND_ACCEPTOR>
18

> <PUBCHEM_CACTVS_HBOND_DONOR>
12

> <PUBCHEM_CACTVS_ROTATABLE_BOND>
8

> <PUBCHEM_CACTVS_SUBSKEYS>
AAADcfB7vAIAAAAAAAAAAAAAAAAAAAAAAAA0SIAAAAAAAAAAAAAAHgAQCCAACDzxgAcACABABxAAQAAAAIAAAAAAAAAAAIAAAAATEAIAwAAjQAAHEAAHAAHwcA0AAAAAAAAAAAAAgAAUCACgAAAAAAAAAA==

> <PUBCHEM_IUPAC_OPENEYE_NAME>
[(2R,3R,4S,5R,6R)-2-(aminomethyl)-6-[(1R,2R,3S,4R,6S)-4,6-diamino-3-[(2S,3R,4S,5S,6R)-4-amino-3,5-dihydroxy-6-(hydroxymethyl)tetrahydropyran-2-yl]oxy-2-hydroxy-cyclohexoxy]-3,5-dihydroxy-tetrahydropyran-4-yl] dihydrogen phosphate

> <PUBCHEM_IUPAC_CAS_NAME>
[(2R,3R,4S,5R,6R)-2-(aminomethyl)-6-[(1R,2R,3S,4R,6S)-4,6-diamino-3-[[(2S,3R,4S,5S,6R)-4-amino-3,5-dihydroxy-6-(hydroxymethyl)-2-oxanyl]oxy]-2-hydroxycyclohexyl]oxy-3,5-dihydroxy-4-oxanyl] dihydrogen phosphate

> <PUBCHEM_IUPAC_NAME>
[(2R,3R,4S,5R,6R)-2-(aminomethyl)-6-[(1R,2R,3S,4R,6S)-4,6-diamino-3-[(2S,3R,4S,5S,6R)-4-amino-3,5-dihydroxy-6-(hydroxymethyl)oxan-2-yl]oxy-2-hydroxycyclohexyl]oxy-3,5-dihydroxyoxan-4-yl] dihydrogen phosphate

> <PUBCHEM_IUPAC_SYSTEMATIC_NAME>
[(2R,3R,4S,5R,6R)-2-(aminomethyl)-6-[(1R,2R,3S,4R,6S)-4,6-bis(azanyl)-3-[(2S,3R,4S,5S,6R)-4-azanyl-6-(hydroxymethyl)-3,5-bis(oxidanyl)oxan-2-yl]oxy-2-oxidanyl-cyclohexyl]oxy-3,5-bis(oxidanyl)oxan-4-yl] dihydrogen phosphate

> <PUBCHEM_IUPAC_TRADITIONAL_NAME>
[(2R,3R,4S,5R,6R)-2-(aminomethyl)-6-[(1R,2R,3S,4R,6S)-4,6-diamino-3-[(2S,3R,4S,5S,6R)-4-amino-3,5-dihydroxy-6-methylol-tetrahydropyran-2-yl]oxy-2-hydroxy-cyclohexoxy]-3,5-dihydroxy-tetrahydropyran-4-yl] dihydrogen phosphate

> <PUBCHEM_IUPAC_INCHI>
InChI=1S/C18H37N4O14P/c19-2-6-10(25)16(36-37(29,30)31)13(28)18(32-6)35-15-5(21)1-4(20)14(12(15)27)34-17-11(26)8(22)9(24)7(3-23)33-17/h4-18,23-28H,1-3,19-22H2,(H2,29,30,31)/t4-,5+,6-,7-,8+,9-,10-,11-,12-,13-,14+,15-,16+,17-,18-/m1/s1

> <PUBCHEM_IUPAC_INCHIKEY>
BYGWYFIZOSNIDM-CAFUKSGOSA-N

> <PUBCHEM_XLOGP3_AA>
-10.3

> <PUBCHEM_EXACT_MASS>
564.204389

> <PUBCHEM_MOLECULAR_FORMULA>
C18H37N4O14P

> <PUBCHEM_MOLECULAR_WEIGHT>
564.478542

> <PUBCHEM_OPENEYE_CAN_SMILES>
C1C(C(C(C(C1N)OC2C(C(C(C(O2)CN)O)OP(=O)(O)O)O)O)OC3C(C(C(C(O3)CO)O)N)O)N

> <PUBCHEM_OPENEYE_ISO_SMILES>
C1[C@H]([C@@H]([C@H]([C@@H]([C@H]1N)O[C@@H]2[C@@H]([C@H]([C@@H]([C@H](O2)CN)O)OP(=O)(O)O)O)O)O[C@@H]3[C@@H]([C@H]([C@@H]([C@H](O3)CO)O)N)O)N

> <PUBCHEM_CACTVS_TPSA>
329

> <PUBCHEM_MONOISOTOPIC_WEIGHT>
564.204389

> <PUBCHEM_TOTAL_CHARGE>
0

> <PUBCHEM_HEAVY_ATOM_COUNT>
37

> <PUBCHEM_ATOM_DEF_STEREO_COUNT>
15

> <PUBCHEM_ATOM_UDEF_STEREO_COUNT>
0

> <PUBCHEM_BOND_DEF_STEREO_COUNT>
0

> <PUBCHEM_BOND_UDEF_STEREO_COUNT>
0

> <PUBCHEM_ISOTOPIC_ATOM_COUNT>
0

> <PUBCHEM_COMPONENT_COUNT>
1

> <PUBCHEM_CACTVS_TAUTO_COUNT>
1

> <PUBCHEM_COORDINATE_TYPE>
1
5
255

> <PUBCHEM_BONDANNOTATIONS>
32  10  5
34  11  5
23  16  6
24  17  6
31  18  6
20  2  5
26  2  5
21  3  5
27  3  5
33  36  6
35  37  6
22  4  6
30  7  6
28  8  5
29  9  5

$$$$

