178795
  -OEChem-07051213123D

 37 39  0     1  0  0  0  0  0999 V2000
    6.3844   -2.9448    0.0333 Cl  0  0  0  0  0  0  0  0  0  0  0  0
   -4.1812    0.1399    0.7190 O   0  0  0  0  0  0  0  0  0  0  0  0
    0.6713    2.5875   -0.1993 O   0  0  0  0  0  0  0  0  0  0  0  0
   -5.5640   -2.5454   -1.2401 O   0  0  0  0  0  0  0  0  0  0  0  0
   -6.1001   -0.3443   -1.0984 O   0  0  0  0  0  0  0  0  0  0  0  0
    1.6219    0.4814    0.0227 N   0  0  0  0  0  0  0  0  0  0  0  0
    4.1341    1.5808   -0.4237 N   0  0  0  0  0  0  0  0  0  0  0  0
   -4.3138   -1.2172    0.2988 C   0  0  1  0  0  0  0  0  0  0  0  0
   -2.9832    0.7444    0.4920 C   0  0  0  0  0  0  0  0  0  0  0  0
   -0.5466    1.9745    0.0312 C   0  0  0  0  0  0  0  0  0  0  0  0
    2.7199   -0.2946    0.0233 C   0  0  0  0  0  0  0  0  0  0  0  0
    3.9921    0.2622   -0.2028 C   0  0  0  0  0  0  0  0  0  0  0  0
   -2.2381    1.2394    1.5623 C   0  0  0  0  0  0  0  0  0  0  0  0
   -2.5002    0.8692   -0.8108 C   0  0  0  0  0  0  0  0  0  0  0  0
   -1.0104    1.8595    1.3300 C   0  0  0  0  0  0  0  0  0  0  0  0
   -1.2723    1.4892   -1.0429 C   0  0  0  0  0  0  0  0  0  0  0  0
    1.7852    1.7978   -0.2001 C   0  0  0  0  0  0  0  0  0  0  0  0
   -4.6430   -2.0568    1.5207 C   0  0  0  0  0  0  0  0  0  0  0  0
    2.6104   -1.6648    0.2486 C   0  0  0  0  0  0  0  0  0  0  0  0
    5.1077   -0.5718   -0.1950 C   0  0  0  0  0  0  0  0  0  0  0  0
    3.0235    2.3397   -0.4204 C   0  0  0  0  0  0  0  0  0  0  0  0
    3.7332   -2.4906    0.2543 C   0  0  0  0  0  0  0  0  0  0  0  0
    4.9872   -1.9418    0.0316 C   0  0  0  0  0  0  0  0  0  0  0  0
   -5.4184   -1.2936   -0.7342 C   0  0  0  0  0  0  0  0  0  0  0  0
   -3.3904   -1.5902   -0.1630 H   0  0  0  0  0  0  0  0  0  0  0  0
   -2.6090    1.1445    2.5792 H   0  0  0  0  0  0  0  0  0  0  0  0
   -3.0732    0.4973   -1.6558 H   0  0  0  0  0  0  0  0  0  0  0  0
   -0.4333    2.2443    2.1656 H   0  0  0  0  0  0  0  0  0  0  0  0
   -0.9004    1.5873   -2.0585 H   0  0  0  0  0  0  0  0  0  0  0  0
   -5.5811   -1.7264    1.9811 H   0  0  0  0  0  0  0  0  0  0  0  0
   -3.8613   -1.9538    2.2810 H   0  0  0  0  0  0  0  0  0  0  0  0
   -4.7449   -3.1166    1.2671 H   0  0  0  0  0  0  0  0  0  0  0  0
    1.6323   -2.1083    0.4247 H   0  0  0  0  0  0  0  0  0  0  0  0
    6.0922   -0.1400   -0.3702 H   0  0  0  0  0  0  0  0  0  0  0  0
    3.1718    3.3974   -0.6009 H   0  0  0  0  0  0  0  0  0  0  0  0
    3.6102   -3.5553    0.4333 H   0  0  0  0  0  0  0  0  0  0  0  0
   -6.2747   -2.5866   -1.9148 H   0  0  0  0  0  0  0  0  0  0  0  0
  1 23  1  0  0  0  0
  2  8  1  0  0  0  0
  2  9  1  0  0  0  0
  3 10  1  0  0  0  0
  3 17  1  0  0  0  0
  4 24  1  0  0  0  0
  4 37  1  0  0  0  0
  5 24  2  0  0  0  0
  6 11  2  0  0  0  0
  6 17  1  0  0  0  0
  7 12  2  0  0  0  0
  7 21  1  0  0  0  0
  8 18  1  0  0  0  0
  8 24  1  0  0  0  0
  8 25  1  0  0  0  0
  9 13  2  0  0  0  0
  9 14  1  0  0  0  0
 10 15  2  0  0  0  0
 10 16  1  0  0  0  0
 11 12  1  0  0  0  0
 11 19  1  0  0  0  0
 12 20  1  0  0  0  0
 13 15  1  0  0  0  0
 13 26  1  0  0  0  0
 14 16  2  0  0  0  0
 14 27  1  0  0  0  0
 15 28  1  0  0  0  0
 16 29  1  0  0  0  0
 17 21  2  0  0  0  0
 18 30  1  0  0  0  0
 18 31  1  0  0  0  0
 18 32  1  0  0  0  0
 19 22  2  0  0  0  0
 19 33  1  0  0  0  0
 20 23  2  0  0  0  0
 20 34  1  0  0  0  0
 21 35  1  0  0  0  0
 22 23  1  0  0  0  0
 22 36  1  0  0  0  0
M  END
> <PUBCHEM_COMPOUND_CID>
178795

> <PUBCHEM_CONFORMER_RMSD>
0.8

> <PUBCHEM_CONFORMER_DIVERSEORDER>
1
26
69
59
41
43
15
51
6
62
80
42
7
72
35
75
63
74
64
83
50
60
48
36
49
14
3
5
82
65
73
12
30
39
23
32
79
11
54
58
44
46
55
34
67
47
81
38
70
56
13
10
45
20
68
77
25
52
40
24
61
29
4
71
17
19
76
18
66
78
53
31
8
2
9
28
37
57
22
21
16
33
27

> <PUBCHEM_MMFF94_PARTIAL_CHARGES>
32
1 -0.18
10 0.08
11 0.31
12 0.31
13 -0.15
14 -0.15
15 -0.15
16 -0.15
17 0.39
19 -0.15
2 -0.36
20 -0.15
21 0.16
22 -0.15
23 0.18
24 0.66
26 0.15
27 0.15
28 0.15
29 0.15
3 -0.17
33 0.15
34 0.15
35 0.15
36 0.15
37 0.5
4 -0.65
5 -0.57
6 -0.62
7 -0.62
8 0.34
9 0.08

> <PUBCHEM_EFFECTIVE_ROTOR_COUNT>
5

> <PUBCHEM_PHARMACOPHORE_FEATURES>
10
1 2 acceptor
1 3 acceptor
1 4 acceptor
1 5 acceptor
1 6 acceptor
1 7 acceptor
3 4 5 24 anion
6 11 12 19 20 22 23 rings
6 6 7 11 12 17 21 rings
6 9 10 13 14 15 16 rings

> <PUBCHEM_HEAVY_ATOM_COUNT>
24

> <PUBCHEM_ATOM_DEF_STEREO_COUNT>
0

> <PUBCHEM_ATOM_UDEF_STEREO_COUNT>
1

> <PUBCHEM_BOND_DEF_STEREO_COUNT>
0

> <PUBCHEM_BOND_UDEF_STEREO_COUNT>
0

> <PUBCHEM_ISOTOPIC_ATOM_COUNT>
0

> <PUBCHEM_COMPONENT_COUNT>
1

> <PUBCHEM_CACTVS_TAUTO_COUNT>
1

> <PUBCHEM_CONFORMER_ID>
0002BA6B00000001

> <PUBCHEM_MMFF94_ENERGY>
77.8179

> <PUBCHEM_FEATURE_SELFOVERLAP>
50.897

> <PUBCHEM_SHAPE_FINGERPRINT>
10074138 170 17024854095309653233
10447042 23 18409451349514926652
10622 236 17607265164246367535
11796584 16 18040709218025347389
12107183 9 18120080930641302593
12596602 18 17313098618640148800
12760667 363 18409167740456271979
13103583 49 17604133888099464305
13533116 47 18334858277289420992
13544653 18 18409725128342837305
14429380 30 18341889740644707906
14848178 5 18409453553170675139
15163728 17 12031785915757022105
15183329 4 18271817843563944293
15352361 1 18412823603148286338
15510800 12 18201438017811910131
15537594 2 18189887622333789999
17627616 140 17558833042320429194
17857418 61 18407760330928046179
19319366 153 17974006142087769092
20028762 73 18334297599938754014
20645477 70 18202005413051045004
221490 88 18342453781598540604
22393880 68 17917721248091317213
23559900 14 18343023242511665601
23622692 118 18337391642543142336
2838139 119 9223240611003341547
2871803 45 18059859458452256864
3004659 81 18202005438340287603
314194 84 18336540504673721657
3882209 13 17193797441151925147
4259306 186 18341332210744302357
439807 62 18265617590163398743
46194498 28 16843034197048725735
463206 1 18340201886926530851
5104073 3 18114175367467152256
5283384 97 18409455756383662919
559249 180 18335983177354970513
636775 72 9869449992477556622
6431902 208 18411978061664268795
7970288 3 18337112388233692726
9709674 26 18130779049450138664

> <PUBCHEM_SHAPE_MULTIPOLES>
462.34
14.87
3.38
1.13
2.8
0.69
0.19
14.53
-2.07
-1.77
-0.02
1.69
0.04
-0.91

> <PUBCHEM_SHAPE_SELFOVERLAP>
1002.97

> <PUBCHEM_SHAPE_VOLUME>
253.2

> <PUBCHEM_COORDINATE_TYPE>
2
5
10

$$$$

