15573391
  -OEChem-07051213102D

 18 19  0     1  0  0  0  0  0999 V2000
    4.6650    0.9824    0.0000 O   0  0  0  0  0  0  0  0  0  0  0  0
    2.0000   -1.0394    0.0000 O   0  0  0  0  0  0  0  0  0  0  0  0
    6.7528    1.0394    0.0000 O   0  0  0  0  0  0  0  0  0  0  0  0
    6.7528   -0.6927    0.0000 O   0  0  0  0  0  0  0  0  0  0  0  0
    3.7139   -0.3267    0.0000 N   0  0  0  0  0  0  0  0  0  0  0  0
    3.7139    0.6733    0.0000 C   0  0  2  0  0  0  0  0  0  0  0  0
    4.6650   -0.6357    0.0000 C   0  0  0  0  0  0  0  0  0  0  0  0
    2.7056    0.6775    0.0000 C   0  0  0  0  0  0  0  0  0  0  0  0
    5.2528    0.1733    0.0000 C   0  0  2  0  0  0  0  0  0  0  0  0
    2.7056   -0.3308    0.0000 C   0  0  0  0  0  0  0  0  0  0  0  0
    6.2528    0.1733    0.0000 C   0  0  0  0  0  0  0  0  0  0  0  0
    3.5827    1.5132    0.0000 H   0  0  0  0  0  0  0  0  0  0  0  0
    4.4128   -1.2021    0.0000 H   0  0  0  0  0  0  0  0  0  0  0  0
    5.2019   -0.9457    0.0000 H   0  0  0  0  0  0  0  0  0  0  0  0
    2.7074    1.2975    0.0000 H   0  0  0  0  0  0  0  0  0  0  0  0
    2.0856    0.6783    0.0000 H   0  0  0  0  0  0  0  0  0  0  0  0
    5.5342    0.7258    0.0000 H   0  0  0  0  0  0  0  0  0  0  0  0
    7.3728    1.0394    0.0000 H   0  0  0  0  0  0  0  0  0  0  0  0
  1  6  1  0  0  0  0
  1  9  1  0  0  0  0
  2 10  2  0  0  0  0
  3 11  1  0  0  0  0
  3 18  1  0  0  0  0
  4 11  2  0  0  0  0
  5  6  1  0  0  0  0
  5  7  1  0  0  0  0
  5 10  1  0  0  0  0
  6  8  1  0  0  0  0
  6 12  1  1  0  0  0
  7  9  1  0  0  0  0
  7 13  1  0  0  0  0
  7 14  1  0  0  0  0
  8 10  1  0  0  0  0
  8 15  1  0  0  0  0
  8 16  1  0  0  0  0
  9 11  1  1  0  0  0
  9 17  1  0  0  0  0
M  END
> <PUBCHEM_COMPOUND_CID>
15573391

> <PUBCHEM_COMPOUND_CANONICALIZED>
1

> <PUBCHEM_CACTVS_COMPLEXITY>
227

> <PUBCHEM_CACTVS_HBOND_ACCEPTOR>
4

> <PUBCHEM_CACTVS_HBOND_DONOR>
1

> <PUBCHEM_CACTVS_ROTATABLE_BOND>
1

> <PUBCHEM_CACTVS_SUBSKEYS>
AAADcYBiOAAAAAAAAAAAAAAAAABYAWAAAAAAAAAABYAAAAAAAAAAHgAACAAACBThgAYACAMABgAIAAGQGAIAAAAAAAAAAAFIAAADAAwAAAQPQAACJgCTAAAAAAAAAAAAAAAAAAAAAAAAAAAAAAAAAAAAAA==

> <PUBCHEM_IUPAC_OPENEYE_NAME>
(3R,5S)-7-oxo-4-oxa-1-azabicyclo[3.2.0]heptane-3-carboxylic acid

> <PUBCHEM_IUPAC_CAS_NAME>
(3R,5S)-7-oxo-4-oxa-1-azabicyclo[3.2.0]heptane-3-carboxylic acid

> <PUBCHEM_IUPAC_NAME>
(3R,5S)-7-oxo-4-oxa-1-azabicyclo[3.2.0]heptane-3-carboxylic acid

> <PUBCHEM_IUPAC_SYSTEMATIC_NAME>
(3R,5S)-7-oxidanylidene-4-oxa-1-azabicyclo[3.2.0]heptane-3-carboxylic acid

> <PUBCHEM_IUPAC_TRADITIONAL_NAME>
(3R,5S)-7-keto-4-oxa-1-azabicyclo[3.2.0]heptane-3-carboxylic acid

> <PUBCHEM_IUPAC_INCHI>
InChI=1S/C6H7NO4/c8-4-1-5-7(4)2-3(11-5)6(9)10/h3,5H,1-2H2,(H,9,10)/t3-,5+/m1/s1

> <PUBCHEM_IUPAC_INCHIKEY>
NMPWOLAIBCYZEP-WUJLRWPWSA-N

> <PUBCHEM_XLOGP3_AA>
-1.2

> <PUBCHEM_EXACT_MASS>
157.037508

> <PUBCHEM_MOLECULAR_FORMULA>
C6H7NO4

> <PUBCHEM_MOLECULAR_WEIGHT>
157.12408

> <PUBCHEM_OPENEYE_CAN_SMILES>
C1C2N(C1=O)CC(O2)C(=O)O

> <PUBCHEM_OPENEYE_ISO_SMILES>
C1[C@H]2N(C1=O)C[C@@H](O2)C(=O)O

> <PUBCHEM_CACTVS_TPSA>
66.8

> <PUBCHEM_MONOISOTOPIC_WEIGHT>
157.037508

> <PUBCHEM_TOTAL_CHARGE>
0

> <PUBCHEM_HEAVY_ATOM_COUNT>
11

> <PUBCHEM_ATOM_DEF_STEREO_COUNT>
2

> <PUBCHEM_ATOM_UDEF_STEREO_COUNT>
0

> <PUBCHEM_BOND_DEF_STEREO_COUNT>
0

> <PUBCHEM_BOND_UDEF_STEREO_COUNT>
0

> <PUBCHEM_ISOTOPIC_ATOM_COUNT>
0

> <PUBCHEM_COMPONENT_COUNT>
1

> <PUBCHEM_CACTVS_TAUTO_COUNT>
2

> <PUBCHEM_COORDINATE_TYPE>
1
5
255

> <PUBCHEM_BONDANNOTATIONS>
6  12  5
9  11  5

$$$$

