5317657
  -OEChem-07051213102D

 67 70  0     1  0  0  0  0  0999 V2000
   11.1972   -0.8623    0.0000 O   0  0  0  0  0  0  0  0  0  0  0  0
    8.5991   -0.3623    0.0000 O   0  0  0  0  0  0  0  0  0  0  0  0
    8.5991   -2.3623    0.0000 O   0  0  0  0  0  0  0  0  0  0  0  0
   10.3312   -3.3623    0.0000 O   0  0  0  0  0  0  0  0  0  0  0  0
   12.0911    0.6030    0.0000 O   0  0  0  0  0  0  0  0  0  0  0  0
   12.0632   -3.3623    0.0000 O   0  0  0  0  0  0  0  0  0  0  0  0
    8.5991    0.6377    0.0000 O   0  0  0  0  0  0  0  0  0  0  0  0
    7.7331   -1.8623    0.0000 O   0  0  0  0  0  0  0  0  0  0  0  0
   12.0796    3.6723    0.0000 O   0  0  0  0  0  0  0  0  0  0  0  0
   14.7331    2.1102    0.0000 O   0  0  0  0  0  0  0  0  0  0  0  0
    2.5369    1.1377    0.0000 O   0  0  0  0  0  0  0  0  0  0  0  0
    9.4651   -0.8623    0.0000 C   0  0  2  0  0  0  0  0  0  0  0  0
    9.4651   -1.8623    0.0000 C   0  0  2  0  0  0  0  0  0  0  0  0
   10.3312   -0.3623    0.0000 C   0  0  2  0  0  0  0  0  0  0  0  0
   10.3312   -2.3623    0.0000 C   0  0  1  0  0  0  0  0  0  0  0  0
   11.1972   -1.8623    0.0000 C   0  0  1  0  0  0  0  0  0  0  0  0
   10.3312    0.6377    0.0000 C   0  0  0  0  0  0  0  0  0  0  0  0
   12.0632   -2.3623    0.0000 C   0  0  0  0  0  0  0  0  0  0  0  0
   11.1972    1.1377    0.0000 C   0  0  0  0  0  0  0  0  0  0  0  0
    9.4651    1.1377    0.0000 C   0  0  0  0  0  0  0  0  0  0  0  0
   11.1972    2.1377    0.0000 C   0  0  0  0  0  0  0  0  0  0  0  0
   10.3312    2.6377    0.0000 C   0  0  0  0  0  0  0  0  0  0  0  0
    9.4651    2.1377    0.0000 C   0  0  0  0  0  0  0  0  0  0  0  0
    7.7331   -0.8623    0.0000 C   0  0  0  0  0  0  0  0  0  0  0  0
   12.0911    2.6724    0.0000 C   0  0  0  0  0  0  0  0  0  0  0  0
   12.9972    1.1169    0.0000 C   0  0  0  0  0  0  0  0  0  0  0  0
   10.3312    3.6377    0.0000 C   0  0  0  0  0  0  0  0  0  0  0  0
   12.9972    2.1585    0.0000 C   0  0  0  0  0  0  0  0  0  0  0  0
   13.8613    0.6136    0.0000 C   0  0  0  0  0  0  0  0  0  0  0  0
    6.8671   -0.3623    0.0000 C   0  0  0  0  0  0  0  0  0  0  0  0
   14.7292    1.1102    0.0000 C   0  0  0  0  0  0  0  0  0  0  0  0
    6.0010   -0.8623    0.0000 C   0  0  0  0  0  0  0  0  0  0  0  0
    5.1350   -0.3623    0.0000 C   0  0  0  0  0  0  0  0  0  0  0  0
   15.5933    0.6069    0.0000 C   0  0  0  0  0  0  0  0  0  0  0  0
    5.1350    0.6377    0.0000 C   0  0  0  0  0  0  0  0  0  0  0  0
    4.2690   -0.8623    0.0000 C   0  0  0  0  0  0  0  0  0  0  0  0
    4.2690    1.1377    0.0000 C   0  0  0  0  0  0  0  0  0  0  0  0
    3.4030   -0.3623    0.0000 C   0  0  0  0  0  0  0  0  0  0  0  0
    3.4030    0.6377    0.0000 C   0  0  0  0  0  0  0  0  0  0  0  0
    9.4651   -0.2423    0.0000 H   0  0  0  0  0  0  0  0  0  0  0  0
    8.9282   -1.5523    0.0000 H   0  0  0  0  0  0  0  0  0  0  0  0
   11.0673    0.0627    0.0000 H   0  0  0  0  0  0  0  0  0  0  0  0
   10.8681   -2.6723    0.0000 H   0  0  0  0  0  0  0  0  0  0  0  0
   11.7341   -1.5523    0.0000 H   0  0  0  0  0  0  0  0  0  0  0  0
   12.6738   -2.4700    0.0000 H   0  0  0  0  0  0  0  0  0  0  0  0
   12.2753   -1.7797    0.0000 H   0  0  0  0  0  0  0  0  0  0  0  0
    8.5991   -2.9823    0.0000 H   0  0  0  0  0  0  0  0  0  0  0  0
    9.7942   -3.6723    0.0000 H   0  0  0  0  0  0  0  0  0  0  0  0
    8.9282    2.4477    0.0000 H   0  0  0  0  0  0  0  0  0  0  0  0
   12.6002   -3.6723    0.0000 H   0  0  0  0  0  0  0  0  0  0  0  0
   10.9512    3.6377    0.0000 H   0  0  0  0  0  0  0  0  0  0  0  0
   10.3312    4.2577    0.0000 H   0  0  0  0  0  0  0  0  0  0  0  0
    9.7112    3.6377    0.0000 H   0  0  0  0  0  0  0  0  0  0  0  0
   13.5329    2.4706    0.0000 H   0  0  0  0  0  0  0  0  0  0  0  0
    8.0622    0.9477    0.0000 H   0  0  0  0  0  0  0  0  0  0  0  0
   13.4609    0.1401    0.0000 H   0  0  0  0  0  0  0  0  0  0  0  0
   14.2580    0.1371    0.0000 H   0  0  0  0  0  0  0  0  0  0  0  0
    6.8671    0.2577    0.0000 H   0  0  0  0  0  0  0  0  0  0  0  0
    6.0010   -1.4823    0.0000 H   0  0  0  0  0  0  0  0  0  0  0  0
   15.2813    0.0711    0.0000 H   0  0  0  0  0  0  0  0  0  0  0  0
   16.1291    0.2948    0.0000 H   0  0  0  0  0  0  0  0  0  0  0  0
   15.9054    1.1426    0.0000 H   0  0  0  0  0  0  0  0  0  0  0  0
    5.6720    0.9477    0.0000 H   0  0  0  0  0  0  0  0  0  0  0  0
    4.2690   -1.4823    0.0000 H   0  0  0  0  0  0  0  0  0  0  0  0
    4.2690    1.7577    0.0000 H   0  0  0  0  0  0  0  0  0  0  0  0
    2.8660   -0.6723    0.0000 H   0  0  0  0  0  0  0  0  0  0  0  0
    2.0000    0.8277    0.0000 H   0  0  0  0  0  0  0  0  0  0  0  0
  1 14  1  0  0  0  0
  1 16  1  0  0  0  0
 12  2  1  1  0  0  0
  2 24  1  0  0  0  0
 13  3  1  6  0  0  0
  3 47  1  0  0  0  0
 15  4  1  1  0  0  0
  4 48  1  0  0  0  0
  5 19  1  0  0  0  0
  5 26  1  0  0  0  0
  6 18  1  0  0  0  0
  6 50  1  0  0  0  0
  7 20  1  0  0  0  0
  7 55  1  0  0  0  0
  8 24  2  0  0  0  0
  9 25  2  0  0  0  0
 10 31  2  0  0  0  0
 11 39  1  0  0  0  0
 11 67  1  0  0  0  0
 12 13  1  0  0  0  0
 12 14  1  0  0  0  0
 12 40  1  0  0  0  0
 13 15  1  0  0  0  0
 13 41  1  0  0  0  0
 14 17  1  0  0  0  0
 14 42  1  1  0  0  0
 15 16  1  0  0  0  0
 15 43  1  0  0  0  0
 16 18  1  6  0  0  0
 16 44  1  0  0  0  0
 17 19  1  0  0  0  0
 17 20  2  0  0  0  0
 18 45  1  0  0  0  0
 18 46  1  0  0  0  0
 19 21  2  0  0  0  0
 20 23  1  0  0  0  0
 21 22  1  0  0  0  0
 21 25  1  0  0  0  0
 22 23  2  0  0  0  0
 22 27  1  0  0  0  0
 23 49  1  0  0  0  0
 24 30  1  0  0  0  0
 25 28  1  0  0  0  0
 26 28  2  0  0  0  0
 26 29  1  0  0  0  0
 27 51  1  0  0  0  0
 27 52  1  0  0  0  0
 27 53  1  0  0  0  0
 28 54  1  0  0  0  0
 29 31  1  0  0  0  0
 29 56  1  0  0  0  0
 29 57  1  0  0  0  0
 30 32  2  0  0  0  0
 30 58  1  0  0  0  0
 31 34  1  0  0  0  0
 32 33  1  0  0  0  0
 32 59  1  0  0  0  0
 33 35  2  0  0  0  0
 33 36  1  0  0  0  0
 34 60  1  0  0  0  0
 34 61  1  0  0  0  0
 34 62  1  0  0  0  0
 35 37  1  0  0  0  0
 35 63  1  0  0  0  0
 36 38  2  0  0  0  0
 36 64  1  0  0  0  0
 37 39  2  0  0  0  0
 37 65  1  0  0  0  0
 38 39  1  0  0  0  0
 38 66  1  0  0  0  0
M  END
> <PUBCHEM_COMPOUND_CID>
5317657

> <PUBCHEM_COMPOUND_CANONICALIZED>
1

> <PUBCHEM_CACTVS_COMPLEXITY>
969

> <PUBCHEM_CACTVS_HBOND_ACCEPTOR>
11

> <PUBCHEM_CACTVS_HBOND_DONOR>
5

> <PUBCHEM_CACTVS_ROTATABLE_BOND>
8

> <PUBCHEM_CACTVS_SUBSKEYS>
AAADceB4PAAAAAAAAAAAAAAAAAAAAAAAAAA0YIEAAAAAAACBQAAAGgAACAAADBSgmAIyDoAABgCIAqDSCAACCAAkIAAIiAEGCMgNNzaGNRqCeWCl4BULuYfI7PzO4AADCAAYAADAAAYQADAAAAAAAAAAAA==

> <PUBCHEM_IUPAC_OPENEYE_NAME>
[(2S,3R,4S,5S,6R)-2-(2-acetonyl-7-hydroxy-5-methyl-4-oxo-chromen-8-yl)-4,5-dihydroxy-6-(hydroxymethyl)tetrahydropyran-3-yl] (E)-3-(4-hydroxyphenyl)prop-2-enoate

> <PUBCHEM_IUPAC_CAS_NAME>
(E)-3-(4-hydroxyphenyl)-2-propenoic acid [(2S,3R,4S,5S,6R)-4,5-dihydroxy-6-(hydroxymethyl)-2-[7-hydroxy-5-methyl-4-oxo-2-(2-oxopropyl)-1-benzopyran-8-yl]-3-oxanyl] ester

> <PUBCHEM_IUPAC_NAME>
[(2S,3R,4S,5S,6R)-4,5-dihydroxy-6-(hydroxymethyl)-2-[7-hydroxy-5-methyl-4-oxo-2-(2-oxopropyl)chromen-8-yl]oxan-3-yl] (E)-3-(4-hydroxyphenyl)prop-2-enoate

> <PUBCHEM_IUPAC_SYSTEMATIC_NAME>
[(2S,3R,4S,5S,6R)-6-(hydroxymethyl)-2-[5-methyl-7-oxidanyl-4-oxidanylidene-2-(2-oxidanylidenepropyl)chromen-8-yl]-4,5-bis(oxidanyl)oxan-3-yl] (E)-3-(4-hydroxyphenyl)prop-2-enoate

> <PUBCHEM_IUPAC_TRADITIONAL_NAME>
(E)-3-(4-hydroxyphenyl)acrylic acid [(2S,3R,4S,5S,6R)-2-(2-acetonyl-7-hydroxy-4-keto-5-methyl-chromen-8-yl)-4,5-dihydroxy-6-methylol-tetrahydropyran-3-yl] ester

> <PUBCHEM_IUPAC_INCHI>
InChI=1S/C28H28O11/c1-13-9-18(32)23(26-22(13)19(33)11-17(37-26)10-14(2)30)27-28(25(36)24(35)20(12-29)38-27)39-21(34)8-5-15-3-6-16(31)7-4-15/h3-9,11,20,24-25,27-29,31-32,35-36H,10,12H2,1-2H3/b8-5+/t20-,24-,25+,27+,28-/m1/s1

> <PUBCHEM_IUPAC_INCHIKEY>
QACRJXSXSVUOFZ-HINKZNOMSA-N

> <PUBCHEM_XLOGP3_AA>
1

> <PUBCHEM_EXACT_MASS>
540.163162

> <PUBCHEM_MOLECULAR_FORMULA>
C28H28O11

> <PUBCHEM_MOLECULAR_WEIGHT>
540.51532

> <PUBCHEM_OPENEYE_CAN_SMILES>
CC1=CC(=C(C2=C1C(=O)C=C(O2)CC(=O)C)C3C(C(C(C(O3)CO)O)O)OC(=O)C=CC4=CC=C(C=C4)O)O

> <PUBCHEM_OPENEYE_ISO_SMILES>
CC1=CC(=C(C2=C1C(=O)C=C(O2)CC(=O)C)[C@H]3[C@@H]([C@H]([C@@H]([C@H](O3)CO)O)O)OC(=O)/C=C/C4=CC=C(C=C4)O)O

> <PUBCHEM_CACTVS_TPSA>
180

> <PUBCHEM_MONOISOTOPIC_WEIGHT>
540.163162

> <PUBCHEM_TOTAL_CHARGE>
0

> <PUBCHEM_HEAVY_ATOM_COUNT>
39

> <PUBCHEM_ATOM_DEF_STEREO_COUNT>
5

> <PUBCHEM_ATOM_UDEF_STEREO_COUNT>
0

> <PUBCHEM_BOND_DEF_STEREO_COUNT>
1

> <PUBCHEM_BOND_UDEF_STEREO_COUNT>
0

> <PUBCHEM_ISOTOPIC_ATOM_COUNT>
0

> <PUBCHEM_COMPONENT_COUNT>
1

> <PUBCHEM_CACTVS_TAUTO_COUNT>
312

> <PUBCHEM_COORDINATE_TYPE>
1
5
255

> <PUBCHEM_BONDANNOTATIONS>
14  42  5
16  18  6
17  19  8
17  20  8
19  21  8
12  2  5
20  23  8
21  22  8
21  25  8
22  23  8
25  28  8
26  28  8
13  3  6
33  35  8
33  36  8
35  37  8
36  38  8
37  39  8
38  39  8
15  4  5
5  19  8
5  26  8

$$$$

