46173865
  -OEChem-07051213092D

 39 40  0     1  0  0  0  0  0999 V2000
    2.8660   -1.2073    0.0000 O   0  0  0  0  0  0  0  0  0  0  0  0
    8.1282    0.8169    0.0000 O   0  0  0  0  0  0  0  0  0  0  0  0
    5.4641   -0.7073    0.0000 C   0  0  1  0  0  0  0  0  0  0  0  0
    4.5981   -1.2073    0.0000 C   0  0  0  0  0  0  0  0  0  0  0  0
    5.4641    0.2927    0.0000 C   0  0  0  0  0  0  0  0  0  0  0  0
    3.7320    0.2927    0.0000 C   0  0  2  0  0  0  0  0  0  0  0  0
    3.7320   -0.7073    0.0000 C   0  0  3  0  0  0  0  0  0  0  0  0
    6.3580   -1.2420    0.0000 C   0  0  0  0  0  0  0  0  0  0  0  0
    4.5981    0.7927    0.0000 C   0  0  0  0  0  0  0  0  0  0  0  0
    5.4641   -1.7073    0.0000 C   0  0  0  0  0  0  0  0  0  0  0  0
    7.2641   -0.7281    0.0000 C   0  0  0  0  0  0  0  0  0  0  0  0
    6.3580    0.8274    0.0000 C   0  0  0  0  0  0  0  0  0  0  0  0
    7.2641    0.3135    0.0000 C   0  0  0  0  0  0  0  0  0  0  0  0
    2.8660    0.7927    0.0000 C   0  0  0  0  0  0  0  0  0  0  0  0
    6.3465    1.8273    0.0000 C   0  0  0  0  0  0  0  0  0  0  0  0
    2.8660    1.7927    0.0000 C   0  0  0  0  0  0  0  0  0  0  0  0
    2.0000    0.2927    0.0000 C   0  0  0  0  0  0  0  0  0  0  0  0
    4.1996   -1.6822    0.0000 H   0  0  0  0  0  0  0  0  0  0  0  0
    4.9966   -1.6822    0.0000 H   0  0  0  0  0  0  0  0  0  0  0  0
    3.7320    0.9127    0.0000 H   0  0  0  0  0  0  0  0  0  0  0  0
    3.7320   -1.3273    0.0000 H   0  0  0  0  0  0  0  0  0  0  0  0
    5.9534   -1.7118    0.0000 H   0  0  0  0  0  0  0  0  0  0  0  0
    6.7517   -1.7210    0.0000 H   0  0  0  0  0  0  0  0  0  0  0  0
    4.9966    1.2676    0.0000 H   0  0  0  0  0  0  0  0  0  0  0  0
    4.1996    1.2676    0.0000 H   0  0  0  0  0  0  0  0  0  0  0  0
    4.8441   -1.7073    0.0000 H   0  0  0  0  0  0  0  0  0  0  0  0
    5.4641   -2.3273    0.0000 H   0  0  0  0  0  0  0  0  0  0  0  0
    6.0841   -1.7073    0.0000 H   0  0  0  0  0  0  0  0  0  0  0  0
    7.4732   -1.3118    0.0000 H   0  0  0  0  0  0  0  0  0  0  0  0
    7.8750   -0.6220    0.0000 H   0  0  0  0  0  0  0  0  0  0  0  0
    2.8660   -1.8273    0.0000 H   0  0  0  0  0  0  0  0  0  0  0  0
    6.9664    1.8345    0.0000 H   0  0  0  0  0  0  0  0  0  0  0  0
    6.3393    2.4473    0.0000 H   0  0  0  0  0  0  0  0  0  0  0  0
    5.7265    1.8201    0.0000 H   0  0  0  0  0  0  0  0  0  0  0  0
    3.4860    1.7927    0.0000 H   0  0  0  0  0  0  0  0  0  0  0  0
    2.8660    2.4127    0.0000 H   0  0  0  0  0  0  0  0  0  0  0  0
    2.2460    1.7927    0.0000 H   0  0  0  0  0  0  0  0  0  0  0  0
    1.4631    0.6027    0.0000 H   0  0  0  0  0  0  0  0  0  0  0  0
    2.0000   -0.3273    0.0000 H   0  0  0  0  0  0  0  0  0  0  0  0
  1  7  1  0  0  0  0
  1 31  1  0  0  0  0
  2 13  2  0  0  0  0
  3  4  1  0  0  0  0
  3  5  1  0  0  0  0
  3  8  1  0  0  0  0
  3 10  1  6  0  0  0
  4  7  1  0  0  0  0
  4 18  1  0  0  0  0
  4 19  1  0  0  0  0
  5  9  1  0  0  0  0
  5 12  2  0  0  0  0
  6  7  1  0  0  0  0
  6  9  1  0  0  0  0
  6 14  1  1  0  0  0
  6 20  1  0  0  0  0
  7 21  1  0  0  0  0
  8 11  1  0  0  0  0
  8 22  1  0  0  0  0
  8 23  1  0  0  0  0
  9 24  1  0  0  0  0
  9 25  1  0  0  0  0
 10 26  1  0  0  0  0
 10 27  1  0  0  0  0
 10 28  1  0  0  0  0
 11 13  1  0  0  0  0
 11 29  1  0  0  0  0
 11 30  1  0  0  0  0
 12 13  1  0  0  0  0
 12 15  1  0  0  0  0
 14 16  1  0  0  0  0
 14 17  2  0  0  0  0
 15 32  1  0  0  0  0
 15 33  1  0  0  0  0
 15 34  1  0  0  0  0
 16 35  1  0  0  0  0
 16 36  1  0  0  0  0
 16 37  1  0  0  0  0
 17 38  1  0  0  0  0
 17 39  1  0  0  0  0
M  END
> <PUBCHEM_COMPOUND_CID>
46173865

> <PUBCHEM_COMPOUND_CANONICALIZED>
1

> <PUBCHEM_CACTVS_COMPLEXITY>
405

> <PUBCHEM_CACTVS_HBOND_ACCEPTOR>
2

> <PUBCHEM_CACTVS_HBOND_DONOR>
1

> <PUBCHEM_CACTVS_ROTATABLE_BOND>
1

> <PUBCHEM_CACTVS_SUBSKEYS>
AAADceBwMAAAAAAAAAAAAAAAAAAAAAAAAAAwQAAAAAAAAACAAAAAGgAACAAADxSggAICAAAAAgCIAoBSAAAAAAAgAAAACAEAAEgAEBIAAQAAQAAEwAAIAQOIyPCPAAAAAAAAAACAAAIAABAAAAAAAAAAAA==

> <PUBCHEM_IUPAC_OPENEYE_NAME>
(4aS,7R)-6-hydroxy-7-isopropenyl-1,4a-dimethyl-3,4,5,6,7,8-hexahydronaphthalen-2-one

> <PUBCHEM_IUPAC_CAS_NAME>
(4aS,7R)-6-hydroxy-1,4a-dimethyl-7-(1-methylethenyl)-3,4,5,6,7,8-hexahydronaphthalen-2-one

> <PUBCHEM_IUPAC_NAME>
(4aS,7R)-6-hydroxy-1,4a-dimethyl-7-prop-1-en-2-yl-3,4,5,6,7,8-hexahydronaphthalen-2-one

> <PUBCHEM_IUPAC_SYSTEMATIC_NAME>
(4aS,7R)-1,4a-dimethyl-6-oxidanyl-7-prop-1-en-2-yl-3,4,5,6,7,8-hexahydronaphthalen-2-one

> <PUBCHEM_IUPAC_TRADITIONAL_NAME>
(4aS,7R)-6-hydroxy-7-isopropenyl-1,4a-dimethyl-3,4,5,6,7,8-hexahydronaphthalen-2-one

> <PUBCHEM_IUPAC_INCHI>
InChI=1S/C15H22O2/c1-9(2)11-7-12-10(3)13(16)5-6-15(12,4)8-14(11)17/h11,14,17H,1,5-8H2,2-4H3/t11-,14?,15+/m1/s1

> <PUBCHEM_IUPAC_INCHIKEY>
JJQLZXVYTGKGNA-QTWGFKIWSA-N

> <PUBCHEM_XLOGP3_AA>
2.5

> <PUBCHEM_EXACT_MASS>
234.16198

> <PUBCHEM_MOLECULAR_FORMULA>
C15H22O2

> <PUBCHEM_MOLECULAR_WEIGHT>
234.33398

> <PUBCHEM_OPENEYE_CAN_SMILES>
CC1=C2CC(C(CC2(CCC1=O)C)O)C(=C)C

> <PUBCHEM_OPENEYE_ISO_SMILES>
CC1=C2C[C@@H](C(C[C@@]2(CCC1=O)C)O)C(=C)C

> <PUBCHEM_CACTVS_TPSA>
37.3

> <PUBCHEM_MONOISOTOPIC_WEIGHT>
234.16198

> <PUBCHEM_TOTAL_CHARGE>
0

> <PUBCHEM_HEAVY_ATOM_COUNT>
17

> <PUBCHEM_ATOM_DEF_STEREO_COUNT>
2

> <PUBCHEM_ATOM_UDEF_STEREO_COUNT>
1

> <PUBCHEM_BOND_DEF_STEREO_COUNT>
0

> <PUBCHEM_BOND_UDEF_STEREO_COUNT>
0

> <PUBCHEM_ISOTOPIC_ATOM_COUNT>
0

> <PUBCHEM_COMPONENT_COUNT>
1

> <PUBCHEM_CACTVS_TAUTO_COUNT>
5

> <PUBCHEM_COORDINATE_TYPE>
1
5
255

> <PUBCHEM_BONDANNOTATIONS>
7  1  3
3  10  6
6  14  5

$$$$

