11364
  -OEChem-06261205353D

 22 22  0     0  0  0  0  0  0999 V2000
    1.8540    1.6577    0.3313 O   0  0  0  0  0  0  0  0  0  0  0  0
    1.0613   -0.5135   -0.1453 N   0  0  0  0  0  0  0  0  0  0  0  0
   -0.3031   -0.2308   -0.0738 C   0  0  0  0  0  0  0  0  0  0  0  0
   -0.7664    1.0511   -0.3696 C   0  0  0  0  0  0  0  0  0  0  0  0
   -1.2040   -1.2307    0.2924 C   0  0  0  0  0  0  0  0  0  0  0  0
    1.4834   -1.9251   -0.4039 C   0  0  0  0  0  0  0  0  0  0  0  0
    2.0828    0.4666    0.1061 C   0  0  0  0  0  0  0  0  0  0  0  0
   -2.1307    1.3333   -0.2989 C   0  0  0  0  0  0  0  0  0  0  0  0
   -2.5682   -0.9487    0.3629 C   0  0  0  0  0  0  0  0  0  0  0  0
   -3.0315    0.3333    0.0672 C   0  0  0  0  0  0  0  0  0  0  0  0
    3.5224    0.0068    0.1316 C   0  0  0  0  0  0  0  0  0  0  0  0
   -0.1228    1.8484   -0.7239 H   0  0  0  0  0  0  0  0  0  0  0  0
   -0.8831   -2.2351    0.5534 H   0  0  0  0  0  0  0  0  0  0  0  0
    2.4492   -1.9596   -0.9119 H   0  0  0  0  0  0  0  0  0  0  0  0
    0.7629   -2.4241   -1.0596 H   0  0  0  0  0  0  0  0  0  0  0  0
    1.5627   -2.4450    0.5554 H   0  0  0  0  0  0  0  0  0  0  0  0
   -2.4940    2.3272   -0.5436 H   0  0  0  0  0  0  0  0  0  0  0  0
   -3.2698   -1.7257    0.6525 H   0  0  0  0  0  0  0  0  0  0  0  0
   -4.0940    0.5523    0.1198 H   0  0  0  0  0  0  0  0  0  0  0  0
    3.8541   -0.2344   -0.8815 H   0  0  0  0  0  0  0  0  0  0  0  0
    3.6414   -0.8562    0.7914 H   0  0  0  0  0  0  0  0  0  0  0  0
    4.1550    0.8130    0.5166 H   0  0  0  0  0  0  0  0  0  0  0  0
  1  7  2  0  0  0  0
  2  3  1  0  0  0  0
  2  6  1  0  0  0  0
  2  7  1  0  0  0  0
  3  4  2  0  0  0  0
  3  5  1  0  0  0  0
  4  8  1  0  0  0  0
  4 12  1  0  0  0  0
  5  9  2  0  0  0  0
  5 13  1  0  0  0  0
  6 14  1  0  0  0  0
  6 15  1  0  0  0  0
  6 16  1  0  0  0  0
  7 11  1  0  0  0  0
  8 10  2  0  0  0  0
  8 17  1  0  0  0  0
  9 10  1  0  0  0  0
  9 18  1  0  0  0  0
 10 19  1  0  0  0  0
 11 20  1  0  0  0  0
 11 21  1  0  0  0  0
 11 22  1  0  0  0  0
M  END
> <PUBCHEM_COMPOUND_CID>
11364

> <PUBCHEM_CONFORMER_RMSD>
0.4

> <PUBCHEM_CONFORMER_DIVERSEORDER>
2
4
5
1
3
6

> <PUBCHEM_MMFF94_PARTIAL_CHARGES>
16
1 -0.57
10 -0.15
11 0.06
12 0.15
13 0.15
17 0.15
18 0.15
19 0.15
2 -0.48
3 0.12
4 -0.15
5 -0.15
6 0.3
7 0.57
8 -0.15
9 -0.15

> <PUBCHEM_EFFECTIVE_ROTOR_COUNT>
2

> <PUBCHEM_PHARMACOPHORE_FEATURES>
2
1 1 acceptor
6 3 4 5 8 9 10 rings

> <PUBCHEM_HEAVY_ATOM_COUNT>
11

> <PUBCHEM_ATOM_DEF_STEREO_COUNT>
0

> <PUBCHEM_ATOM_UDEF_STEREO_COUNT>
0

> <PUBCHEM_BOND_DEF_STEREO_COUNT>
0

> <PUBCHEM_BOND_UDEF_STEREO_COUNT>
0

> <PUBCHEM_ISOTOPIC_ATOM_COUNT>
0

> <PUBCHEM_COMPONENT_COUNT>
1

> <PUBCHEM_CACTVS_TAUTO_COUNT>
1

> <PUBCHEM_CONFORMER_ID>
00002C6400000002

> <PUBCHEM_MMFF94_ENERGY>
44.3369

> <PUBCHEM_FEATURE_SELFOVERLAP>
10.148

> <PUBCHEM_SHAPE_FINGERPRINT>
10608611 8 18411141354716319596
10857977 72 18200595796035826985
12524768 44 18413106190827436239
12897270 3 18410012121877522821
12932764 1 17603594027336454631
13380535 21 18339065098976665423
13380535 76 18411422825345308919
14325111 11 18411138013437218768
15219456 202 18337106873057334439
15775835 57 17988362679805933953
16945 1 18410008832053880375
19973954 147 18337669818837094665
20201158 50 18409450305784996027
20588541 1 18411698820022578892
20645464 45 18410571812156585663
20871998 184 18265044735287197535
21028194 46 18410012113482896912
21501502 16 18339081600283266603
23235685 24 18410300224052282504
23402539 116 18340499884884944407
23402655 69 18263376944131543317
23463225 33 18343304773317247392
23552423 10 18202275935549661063
2748010 2 18267865175663951151
369184 2 17704079481894596113
5084963 1 18114461154532498394
53812653 166 18408887360290065968
6333449 129 18411703179704450231
7364860 26 18264772245245004390

> <PUBCHEM_SHAPE_MULTIPOLES>
215.52
4.87
1.7
0.67
1.31
0.2
0.01
-0.44
-0.37
0.13
0.08
-0.03
0.02
0.44

> <PUBCHEM_SHAPE_SELFOVERLAP>
440.027

> <PUBCHEM_SHAPE_VOLUME>
125.3

> <PUBCHEM_COORDINATE_TYPE>
2
5
10

$$$$

