3080635
  -OEChem-07051213092D

 36 38  0     1  0  0  0  0  0999 V2000
    6.4783   -1.0720    0.0000 O   0  0  0  0  0  0  0  0  0  0  0  0
    3.8000   -0.7673    0.0000 C   0  0  2  0  0  0  0  0  0  0  0  0
    3.8000    0.2327    0.0000 C   0  0  1  0  0  0  0  0  0  0  0  0
    2.9061   -1.3020    0.0000 C   0  0  0  0  0  0  0  0  0  0  0  0
    4.6660   -1.2673    0.0000 C   0  0  0  0  0  0  0  0  0  0  0  0
    4.6660    0.7327    0.0000 C   0  0  0  0  0  0  0  0  0  0  0  0
    2.9061    0.7674    0.0000 C   0  0  0  0  0  0  0  0  0  0  0  0
    2.0000   -0.7881    0.0000 C   0  0  0  0  0  0  0  0  0  0  0  0
    3.8000   -1.7673    0.0000 C   0  0  0  0  0  0  0  0  0  0  0  0
    2.0000    0.2535    0.0000 C   0  0  0  0  0  0  0  0  0  0  0  0
    5.5321    0.2327    0.0000 C   0  0  0  0  0  0  0  0  0  0  0  0
    5.5321   -0.7673    0.0000 C   0  0  0  0  0  0  0  0  0  0  0  0
    6.4783    0.5374    0.0000 C   0  0  0  0  0  0  0  0  0  0  0  0
    2.9176    1.7673    0.0000 C   0  0  0  0  0  0  0  0  0  0  0  0
    7.0619   -0.2673    0.0000 C   0  0  0  0  0  0  0  0  0  0  0  0
    6.7889    1.4880    0.0000 C   0  0  0  0  0  0  0  0  0  0  0  0
    3.8066    1.0827    0.0000 H   0  0  0  0  0  0  0  0  0  0  0  0
    2.5124   -1.7810    0.0000 H   0  0  0  0  0  0  0  0  0  0  0  0
    3.3107   -1.7718    0.0000 H   0  0  0  0  0  0  0  0  0  0  0  0
    4.2675   -1.7422    0.0000 H   0  0  0  0  0  0  0  0  0  0  0  0
    5.0646   -1.7422    0.0000 H   0  0  0  0  0  0  0  0  0  0  0  0
    5.0646    1.2076    0.0000 H   0  0  0  0  0  0  0  0  0  0  0  0
    4.2675    1.2076    0.0000 H   0  0  0  0  0  0  0  0  0  0  0  0
    1.3891   -0.6820    0.0000 H   0  0  0  0  0  0  0  0  0  0  0  0
    1.7909   -1.3718    0.0000 H   0  0  0  0  0  0  0  0  0  0  0  0
    3.1800   -1.7673    0.0000 H   0  0  0  0  0  0  0  0  0  0  0  0
    3.8000   -2.3873    0.0000 H   0  0  0  0  0  0  0  0  0  0  0  0
    4.4200   -1.7673    0.0000 H   0  0  0  0  0  0  0  0  0  0  0  0
    1.7909    0.8372    0.0000 H   0  0  0  0  0  0  0  0  0  0  0  0
    1.3891    0.1474    0.0000 H   0  0  0  0  0  0  0  0  0  0  0  0
    3.4581    2.0711    0.0000 H   0  0  0  0  0  0  0  0  0  0  0  0
    2.3843    2.0835    0.0000 H   0  0  0  0  0  0  0  0  0  0  0  0
    7.6819   -0.2673    0.0000 H   0  0  0  0  0  0  0  0  0  0  0  0
    7.3783    1.2953    0.0000 H   0  0  0  0  0  0  0  0  0  0  0  0
    6.9816    2.0773    0.0000 H   0  0  0  0  0  0  0  0  0  0  0  0
    6.1996    1.6806    0.0000 H   0  0  0  0  0  0  0  0  0  0  0  0
  1 12  1  0  0  0  0
  1 15  1  0  0  0  0
  2  3  1  0  0  0  0
  2  4  1  0  0  0  0
  2  5  1  0  0  0  0
  2  9  1  6  0  0  0
  3  6  1  0  0  0  0
  3  7  1  0  0  0  0
  3 17  1  1  0  0  0
  4  8  1  0  0  0  0
  4 18  1  0  0  0  0
  4 19  1  0  0  0  0
  5 12  1  0  0  0  0
  5 20  1  0  0  0  0
  5 21  1  0  0  0  0
  6 11  1  0  0  0  0
  6 22  1  0  0  0  0
  6 23  1  0  0  0  0
  7 10  1  0  0  0  0
  7 14  2  0  0  0  0
  8 10  1  0  0  0  0
  8 24  1  0  0  0  0
  8 25  1  0  0  0  0
  9 26  1  0  0  0  0
  9 27  1  0  0  0  0
  9 28  1  0  0  0  0
 10 29  1  0  0  0  0
 10 30  1  0  0  0  0
 11 12  2  0  0  0  0
 11 13  1  0  0  0  0
 13 15  2  0  0  0  0
 13 16  1  0  0  0  0
 14 31  1  0  0  0  0
 14 32  1  0  0  0  0
 15 33  1  0  0  0  0
 16 34  1  0  0  0  0
 16 35  1  0  0  0  0
 16 36  1  0  0  0  0
M  END
> <PUBCHEM_COMPOUND_CID>
3080635

> <PUBCHEM_COMPOUND_CANONICALIZED>
1

> <PUBCHEM_CACTVS_COMPLEXITY>
309

> <PUBCHEM_CACTVS_HBOND_ACCEPTOR>
1

> <PUBCHEM_CACTVS_HBOND_DONOR>
0

> <PUBCHEM_CACTVS_ROTATABLE_BOND>
0

> <PUBCHEM_CACTVS_SUBSKEYS>
AAADceBwIAAAAAAAAAAAAAAAAAAAASAAAAAwYAAAAAAAAEjBgAAAGgAAAAAADwSgmAIiBIAABECIAohSgAACCAAkIAAAiAEECMgMJjKENRqCGSCkwBEIqQeIyPCPgAAAAAAAAADAAAYAADAAAAAAAAAAAA==

> <PUBCHEM_IUPAC_OPENEYE_NAME>
(4aS,8aR)-3,8a-dimethyl-5-methylene-4,4a,6,7,8,9-hexahydrobenzo[f]benzofuran

> <PUBCHEM_IUPAC_CAS_NAME>
(4aS,8aR)-3,8a-dimethyl-5-methylene-4,4a,6,7,8,9-hexahydrobenzo[f]benzofuran

> <PUBCHEM_IUPAC_NAME>
(4aS,8aR)-3,8a-dimethyl-5-methylidene-4,4a,6,7,8,9-hexahydrobenzo[f][1]benzofuran

> <PUBCHEM_IUPAC_SYSTEMATIC_NAME>
(4aS,8aR)-3,8a-dimethyl-5-methylidene-4,4a,6,7,8,9-hexahydrobenzo[f][1]benzofuran

> <PUBCHEM_IUPAC_TRADITIONAL_NAME>
(4aS,8aR)-3,8a-dimethyl-5-methylene-4,4a,6,7,8,9-hexahydrobenzo[f]benzofuran

> <PUBCHEM_IUPAC_INCHI>
InChI=1S/C15H20O/c1-10-5-4-6-15(3)8-14-12(7-13(10)15)11(2)9-16-14/h9,13H,1,4-8H2,2-3H3/t13-,15+/m0/s1

> <PUBCHEM_IUPAC_INCHIKEY>
TYPSVDGIQAOBAD-DZGCQCFKSA-N

> <PUBCHEM_XLOGP3_AA>
4

> <PUBCHEM_EXACT_MASS>
216.151415

> <PUBCHEM_MOLECULAR_FORMULA>
C15H20O

> <PUBCHEM_MOLECULAR_WEIGHT>
216.3187

> <PUBCHEM_OPENEYE_CAN_SMILES>
CC1=COC2=C1CC3C(=C)CCCC3(C2)C

> <PUBCHEM_OPENEYE_ISO_SMILES>
CC1=COC2=C1C[C@H]3C(=C)CCC[C@@]3(C2)C

> <PUBCHEM_CACTVS_TPSA>
13.1

> <PUBCHEM_MONOISOTOPIC_WEIGHT>
216.151415

> <PUBCHEM_TOTAL_CHARGE>
0

> <PUBCHEM_HEAVY_ATOM_COUNT>
16

> <PUBCHEM_ATOM_DEF_STEREO_COUNT>
2

> <PUBCHEM_ATOM_UDEF_STEREO_COUNT>
0

> <PUBCHEM_BOND_DEF_STEREO_COUNT>
0

> <PUBCHEM_BOND_UDEF_STEREO_COUNT>
0

> <PUBCHEM_ISOTOPIC_ATOM_COUNT>
0

> <PUBCHEM_COMPONENT_COUNT>
1

> <PUBCHEM_CACTVS_TAUTO_COUNT>
1

> <PUBCHEM_COORDINATE_TYPE>
1
5
255

> <PUBCHEM_BONDANNOTATIONS>
1  12  8
1  15  8
11  12  8
11  13  8
13  15  8
2  9  6
3  17  5

$$$$

