174157
  -OEChem-07051213103D

 55 58  0     1  0  0  0  0  0999 V2000
   -2.3778    1.1158    0.7717 O   0  0  0  0  0  0  0  0  0  0  0  0
   -2.8721   -1.1644    0.7886 O   0  0  0  0  0  0  0  0  0  0  0  0
   -6.3173    2.0973    0.1523 O   0  0  0  0  0  0  0  0  0  0  0  0
   -4.2508    4.0528   -0.3593 O   0  0  0  0  0  0  0  0  0  0  0  0
   -5.3474   -0.6148   -0.4678 O   0  0  0  0  0  0  0  0  0  0  0  0
   -0.3011    2.9121    0.6426 O   0  0  0  0  0  0  0  0  0  0  0  0
    1.8034   -0.0718   -0.4190 O   0  0  0  0  0  0  0  0  0  0  0  0
   -3.3010   -3.7104   -0.2159 O   0  0  0  0  0  0  0  0  0  0  0  0
   -1.1697   -5.1636   -1.2229 O   0  0  0  0  0  0  0  0  0  0  0  0
    4.9732   -1.6569    1.6476 O   0  0  0  0  0  0  0  0  0  0  0  0
    6.4716    0.3244    0.8657 O   0  0  0  0  0  0  0  0  0  0  0  0
    4.3774    3.6770   -1.7628 O   0  0  0  0  0  0  0  0  0  0  0  0
   -4.9864    1.7606   -0.2424 C   0  0  1  0  0  0  0  0  0  0  0  0
   -4.0423    2.8204    0.3255 C   0  0  1  0  0  0  0  0  0  0  0  0
   -4.6364    0.3685    0.2838 C   0  0  2  0  0  0  0  0  0  0  0  0
   -2.5824    2.3912    0.1614 C   0  0  1  0  0  0  0  0  0  0  0  0
   -3.1404    0.0837    0.1505 C   0  0  1  0  0  0  0  0  0  0  0  0
   -1.6260    3.3773    0.8247 C   0  0  0  0  0  0  0  0  0  0  0  0
    1.9133   -1.4896   -0.2181 C   0  0  2  0  0  0  0  0  0  0  0  0
   -1.8304   -1.8964    0.2884 C   0  0  0  0  0  0  0  0  0  0  0  0
    0.5200   -2.0825   -0.2176 C   0  0  0  0  0  0  0  0  0  0  0  0
    2.6456   -1.8031    1.0853 C   0  0  0  0  0  0  0  0  0  0  0  0
   -0.5511   -1.3472    0.2903 C   0  0  0  0  0  0  0  0  0  0  0  0
   -2.0469   -3.1753   -0.2172 C   0  0  0  0  0  0  0  0  0  0  0  0
    0.3077   -3.3641   -0.7252 C   0  0  0  0  0  0  0  0  0  0  0  0
    4.0199   -1.1875    1.0376 C   0  0  0  0  0  0  0  0  0  0  0  0
    4.1400    0.0663    0.2654 C   0  0  0  0  0  0  0  0  0  0  0  0
    3.0174    0.5653   -0.4017 C   0  0  0  0  0  0  0  0  0  0  0  0
   -0.9757   -3.9105   -0.7252 C   0  0  0  0  0  0  0  0  0  0  0  0
    5.3478    0.7682    0.2368 C   0  0  0  0  0  0  0  0  0  0  0  0
    3.0945    1.7872   -1.0713 C   0  0  0  0  0  0  0  0  0  0  0  0
    4.2992    2.4904   -1.1000 C   0  0  0  0  0  0  0  0  0  0  0  0
    5.4242    1.9795   -0.4517 C   0  0  0  0  0  0  0  0  0  0  0  0
   -4.9729    1.7807   -1.3392 H   0  0  0  0  0  0  0  0  0  0  0  0
   -4.2728    2.9867    1.3856 H   0  0  0  0  0  0  0  0  0  0  0  0
   -4.9596    0.2709    1.3277 H   0  0  0  0  0  0  0  0  0  0  0  0
   -2.3117    2.3187   -0.9008 H   0  0  0  0  0  0  0  0  0  0  0  0
   -2.8727    0.0131   -0.9143 H   0  0  0  0  0  0  0  0  0  0  0  0
   -1.8091    3.4512    1.9018 H   0  0  0  0  0  0  0  0  0  0  0  0
   -1.7041    4.3754    0.3843 H   0  0  0  0  0  0  0  0  0  0  0  0
   -6.9057    1.4030   -0.1905 H   0  0  0  0  0  0  0  0  0  0  0  0
   -5.1893    4.2867   -0.2579 H   0  0  0  0  0  0  0  0  0  0  0  0
   -5.0945   -1.4869   -0.1193 H   0  0  0  0  0  0  0  0  0  0  0  0
    2.4623   -1.8997   -1.0787 H   0  0  0  0  0  0  0  0  0  0  0  0
    2.7475   -2.8859    1.2177 H   0  0  0  0  0  0  0  0  0  0  0  0
    2.1248   -1.3867    1.9557 H   0  0  0  0  0  0  0  0  0  0  0  0
   -0.3797   -0.3647    0.7177 H   0  0  0  0  0  0  0  0  0  0  0  0
   -0.2397    2.0310    1.0492 H   0  0  0  0  0  0  0  0  0  0  0  0
    1.1390   -3.9428   -1.1204 H   0  0  0  0  0  0  0  0  0  0  0  0
    2.2166    2.1821   -1.5770 H   0  0  0  0  0  0  0  0  0  0  0  0
    6.3563    2.5390   -0.4831 H   0  0  0  0  0  0  0  0  0  0  0  0
   -3.2429   -4.6793   -0.2406 H   0  0  0  0  0  0  0  0  0  0  0  0
   -2.0973   -5.2691   -1.4894 H   0  0  0  0  0  0  0  0  0  0  0  0
    7.1950    0.9584    0.7233 H   0  0  0  0  0  0  0  0  0  0  0  0
    3.5091    3.8789   -2.1517 H   0  0  0  0  0  0  0  0  0  0  0  0
  1 16  1  0  0  0  0
  1 17  1  0  0  0  0
  2 17  1  0  0  0  0
  2 20  1  0  0  0  0
  3 13  1  0  0  0  0
  3 41  1  0  0  0  0
  4 14  1  0  0  0  0
  4 42  1  0  0  0  0
  5 15  1  0  0  0  0
  5 43  1  0  0  0  0
  6 18  1  0  0  0  0
  6 48  1  0  0  0  0
  7 19  1  0  0  0  0
  7 28  1  0  0  0  0
  8 24  1  0  0  0  0
  8 52  1  0  0  0  0
  9 29  1  0  0  0  0
  9 53  1  0  0  0  0
 10 26  2  0  0  0  0
 11 30  1  0  0  0  0
 11 54  1  0  0  0  0
 12 32  1  0  0  0  0
 12 55  1  0  0  0  0
 13 14  1  0  0  0  0
 13 15  1  0  0  0  0
 13 34  1  0  0  0  0
 14 16  1  0  0  0  0
 14 35  1  0  0  0  0
 15 17  1  0  0  0  0
 15 36  1  0  0  0  0
 16 18  1  0  0  0  0
 16 37  1  0  0  0  0
 17 38  1  0  0  0  0
 18 39  1  0  0  0  0
 18 40  1  0  0  0  0
 19 21  1  0  0  0  0
 19 22  1  0  0  0  0
 19 44  1  0  0  0  0
 20 23  2  0  0  0  0
 20 24  1  0  0  0  0
 21 23  1  0  0  0  0
 21 25  2  0  0  0  0
 22 26  1  0  0  0  0
 22 45  1  0  0  0  0
 22 46  1  0  0  0  0
 23 47  1  0  0  0  0
 24 29  2  0  0  0  0
 25 29  1  0  0  0  0
 25 49  1  0  0  0  0
 26 27  1  0  0  0  0
 27 28  1  0  0  0  0
 27 30  2  0  0  0  0
 28 31  2  0  0  0  0
 30 33  1  0  0  0  0
 31 32  1  0  0  0  0
 31 50  1  0  0  0  0
 32 33  2  0  0  0  0
 33 51  1  0  0  0  0
M  END
> <PUBCHEM_COMPOUND_CID>
174157

> <PUBCHEM_CONFORMER_RMSD>
1

> <PUBCHEM_CONFORMER_DIVERSEORDER>
1
140
88
129
274
14
280
196
163
148
59
122
56
63
157
251
316
231
241
245
228
99
21
294
42
5
20
298
60
192
30
269
64
296
87
124
330
212
275
47
188
41
323
33
57
45
299
117
170
89
211
289
273
218
205
75
165
123
86
79
304
81
10
222
227
325
133
176
291
259
8
109
270
235
324
233
232
249
92
288
225
279
95
55
25
50
172
161
44
204
43
179
51
214
17
276
83
175
217
302
216
201
103
23
278
237
183
244
12
4
220
187
82
144
18
215
164
139
310
121
223
28
54
260
113
120
326
318
203
206
72
156
130
128
272
180
112
111
77
105
73
48
125
107
153
283
26
37
197
52
193
219
314
6
306
322
58
263
190
71
313
136
236
100
126
40
68
271
53
246
178
85
262
38
255
155
311
118
27
142
19
116
256
268
277
267
7
258
154
97
229
257
62
149
177
181
305
146
300
67
166
320
290
293
199
285
182
127
22
29
332
2
224
202
315
292
307
11
200
309
13
159
230
150
317
104
32
93
186
168
16
238
303
210
171
115
34
141
46
78
265
96
31
254
213
253
169
297
321
36
102
247
39
173
226
15
61
266
114
152
189
91
135
250
131
221
108
132
184
329
90
9
286
242
209
145
185
261
134
35
151
327
264
234
74
243
138
240
198
284
24
207
281
195
94
65
328
312
119
287
191
158
252
174
239
248
295
70
194
160
208
3
319
76
66
106
110
301
101
162
98
137
84
308
143
167
49
331
147
69
80
282

> <PUBCHEM_MMFF94_PARTIAL_CHARGES>
45
1 -0.56
10 -0.57
11 -0.53
12 -0.53
13 0.28
14 0.28
15 0.28
16 0.28
17 0.56
18 0.28
19 0.42
2 -0.36
20 0.08
21 -0.14
22 0.06
23 -0.15
24 0.08
25 -0.15
26 0.42
27 0.09
28 0.08
29 0.08
3 -0.68
30 0.08
31 -0.15
32 0.08
33 -0.15
4 -0.68
41 0.4
42 0.4
43 0.4
47 0.15
48 0.4
49 0.15
5 -0.68
50 0.15
51 0.15
52 0.45
53 0.45
54 0.45
55 0.45
6 -0.68
7 -0.36
8 -0.53
9 -0.53

> <PUBCHEM_EFFECTIVE_ROTOR_COUNT>
5.8

> <PUBCHEM_PHARMACOPHORE_FEATURES>
20
1 1 acceptor
1 10 acceptor
1 11 donor
1 12 donor
1 2 acceptor
1 3 acceptor
1 3 donor
1 4 acceptor
1 4 donor
1 5 acceptor
1 5 donor
1 6 acceptor
1 6 donor
1 7 acceptor
1 8 donor
1 9 donor
6 1 13 14 15 16 17 rings
6 20 21 23 24 25 29 rings
6 27 28 30 31 32 33 rings
6 7 19 22 26 27 28 rings

> <PUBCHEM_HEAVY_ATOM_COUNT>
33

> <PUBCHEM_ATOM_DEF_STEREO_COUNT>
6

> <PUBCHEM_ATOM_UDEF_STEREO_COUNT>
0

> <PUBCHEM_BOND_DEF_STEREO_COUNT>
0

> <PUBCHEM_BOND_UDEF_STEREO_COUNT>
0

> <PUBCHEM_ISOTOPIC_ATOM_COUNT>
0

> <PUBCHEM_COMPONENT_COUNT>
1

> <PUBCHEM_CACTVS_TAUTO_COUNT>
210

> <PUBCHEM_CONFORMER_ID>
0002A84D00000001

> <PUBCHEM_MMFF94_ENERGY>
104.7141

> <PUBCHEM_FEATURE_SELFOVERLAP>
101.584

> <PUBCHEM_SHAPE_FINGERPRINT>
10439779 11 18409738356990361216
11513181 2 18188488094092113390
12107183 9 18269847561413249610
12128747 34 15408102562284089951
12788726 201 18195533592677940251
12978246 48 18411979195477521760
138480 1 17256802824624088479
14114211 80 18115848790173737849
14117953 113 18052259784495056940
14294032 229 18187079512919049263
14767858 380 18262253153216894191
14790565 3 18336539508431856161
14932702 115 18115861919578246664
15001296 14 18343582902409348708
15297060 5 18186797015048298832
15320467 1 18410291440797313045
15776043 110 17987522675041073010
16988056 13 17401766818327803327
17818456 19 18410294709910289010
18681886 176 18339082704791475656
20101258 96 17619616995735641203
20511986 3 18059305283375912864
20715895 44 18124881415376914705
21033648 29 18043273394805083010
21133410 127 17840858891758139636
21133410 221 17244174560255025240
21792964 463 17487323846869827493
22113638 7 18411981330134225181
22149856 69 18117260666805698521
23559900 14 17832144201292308699
245318 6 17916285204470284796
5372103 7 17559135340068094301
6036956 94 18127965309454631797
6058803 2 18198353853684561882
6176135 31 18193838378219183377
6371009 1 18338528524639227797
6608658 132 17904193729286813934
6700243 42 17465629344477995022
7808743 9 18409168792164369850
9981440 41 18411414051201825491

> <PUBCHEM_SHAPE_MULTIPOLES>
608.69
13.23
5.97
1.08
3.79
2.48
0.02
-10.57
-0.79
-4.4
1.82
1.14
-0.02
-2.48

> <PUBCHEM_SHAPE_SELFOVERLAP>
1331.375

> <PUBCHEM_SHAPE_VOLUME>
325.6

> <PUBCHEM_COORDINATE_TYPE>
2
5
10

$$$$

