5281378
  -OEChem-07051212563D

 96100  0     1  0  0  0  0  0999 V2000
    5.9444    0.7140   -2.0342 O   0  0  0  0  0  0  0  0  0  0  0  0
    0.5582    1.3956   -0.0701 O   0  0  0  0  0  0  0  0  0  0  0  0
    3.1997   -0.5198   -1.9723 O   0  0  0  0  0  0  0  0  0  0  0  0
    5.6759   -1.2090    1.4667 O   0  0  0  0  0  0  0  0  0  0  0  0
    8.1889   -0.4244    0.6605 O   0  0  0  0  0  0  0  0  0  0  0  0
    8.2095    2.3891    0.1219 O   0  0  0  0  0  0  0  0  0  0  0  0
    7.5924   -3.3439    0.8282 O   0  0  0  0  0  0  0  0  0  0  0  0
   -0.4307    1.9554    1.9375 O   0  0  0  0  0  0  0  0  0  0  0  0
    3.0466    1.6989   -0.1952 C   0  0  1  0  0  0  0  0  0  0  0  0
    1.8509    1.2041    0.5678 C   0  0  1  0  0  0  0  0  0  0  0  0
    2.5916    2.4272    1.0409 C   0  0  0  0  0  0  0  0  0  0  0  0
    4.2382    0.7574   -0.1825 C   0  0  1  0  0  0  0  0  0  0  0  0
    3.7499   -0.6654   -0.6433 C   0  0  1  0  0  0  0  0  0  0  0  0
    5.4116    1.3708   -0.8901 C   0  0  1  0  0  0  0  0  0  0  0  0
    2.0195   -0.1108    1.2662 C   0  0  0  0  0  0  0  0  0  0  0  0
    2.6071   -1.1966    0.3260 C   0  0  1  0  0  0  0  0  0  0  0  0
    6.7992    0.7532   -0.8720 C   0  0  1  0  0  0  0  0  0  0  0  0
    4.9268   -1.6777   -0.8363 C   0  0  1  0  0  0  0  0  0  0  0  0
    1.9777    3.7821    0.9309 C   0  0  0  0  0  0  0  0  0  0  0  0
    3.4566    2.2939    2.2516 C   0  0  0  0  0  0  0  0  0  0  0  0
    6.1021   -1.5374    0.1507 C   0  0  1  0  0  0  0  0  0  0  0  0
    7.2067   -0.6065   -0.3655 C   0  0  2  0  0  0  0  0  0  0  0  0
    1.4418   -1.8881   -0.4032 C   0  0  0  0  0  0  0  0  0  0  0  0
    7.9369    1.7049   -1.0894 C   0  0  0  0  0  0  0  0  0  0  0  0
    4.6124   -3.1527   -0.8023 C   0  0  0  0  0  0  0  0  0  0  0  0
    6.5490   -2.9775    0.3071 C   0  0  0  0  0  0  0  0  0  0  0  0
    5.5258   -3.9131   -0.1928 C   0  0  0  0  0  0  0  0  0  0  0  0
   -0.4757    1.7661    0.7324 C   0  0  0  0  0  0  0  0  0  0  0  0
    5.5974   -5.3812   -0.0419 C   0  0  0  0  0  0  0  0  0  0  0  0
   -1.6796    1.9013   -0.1160 C   0  0  0  0  0  0  0  0  0  0  0  0
   -2.8472    2.2601    0.4363 C   0  0  0  0  0  0  0  0  0  0  0  0
   -4.0594    2.4118   -0.3410 C   0  0  0  0  0  0  0  0  0  0  0  0
   -5.2768    2.7642    0.1030 C   0  0  0  0  0  0  0  0  0  0  0  0
   -6.4874    2.9155   -0.6745 C   0  0  0  0  0  0  0  0  0  0  0  0
   -7.6621    3.2740   -0.1339 C   0  0  0  0  0  0  0  0  0  0  0  0
   -8.9269    3.4342   -0.9282 C   0  0  0  0  0  0  0  0  0  0  0  0
  -10.0489    2.4994   -0.4634 C   0  0  0  0  0  0  0  0  0  0  0  0
   -9.7534    1.0004   -0.5961 C   0  0  0  0  0  0  0  0  0  0  0  0
  -10.9103    0.1088   -0.1397 C   0  0  0  0  0  0  0  0  0  0  0  0
  -10.5739   -1.3735   -0.3245 C   0  0  0  0  0  0  0  0  0  0  0  0
  -11.7170   -2.2648    0.1664 C   0  0  0  0  0  0  0  0  0  0  0  0
  -11.4257   -3.7615    0.0247 C   0  0  0  0  0  0  0  0  0  0  0  0
  -12.5364   -4.6522    0.5827 C   0  0  0  0  0  0  0  0  0  0  0  0
  -12.2053   -6.1265    0.4071 C   0  0  0  0  0  0  0  0  0  0  0  0
    2.8633    2.1432   -1.1668 H   0  0  0  0  0  0  0  0  0  0  0  0
    4.5975    0.6533    0.8344 H   0  0  0  0  0  0  0  0  0  0  0  0
    5.3660    2.4549   -0.8977 H   0  0  0  0  0  0  0  0  0  0  0  0
    2.6451   -0.0668    2.1581 H   0  0  0  0  0  0  0  0  0  0  0  0
    1.0492   -0.4431    1.6576 H   0  0  0  0  0  0  0  0  0  0  0  0
    3.0328   -1.9500    0.9990 H   0  0  0  0  0  0  0  0  0  0  0  0
    5.3126   -1.5560   -1.8601 H   0  0  0  0  0  0  0  0  0  0  0  0
    1.3874    3.9003    0.0161 H   0  0  0  0  0  0  0  0  0  0  0  0
    2.7572    4.5520    0.9066 H   0  0  0  0  0  0  0  0  0  0  0  0
    1.3275    3.9935    1.7857 H   0  0  0  0  0  0  0  0  0  0  0  0
    4.2786    3.0180    2.1899 H   0  0  0  0  0  0  0  0  0  0  0  0
    3.9207    1.3374    2.4834 H   0  0  0  0  0  0  0  0  0  0  0  0
    2.8716    2.5567    3.1420 H   0  0  0  0  0  0  0  0  0  0  0  0
    7.7260   -1.1084   -1.1932 H   0  0  0  0  0  0  0  0  0  0  0  0
    0.7353   -2.3123    0.3193 H   0  0  0  0  0  0  0  0  0  0  0  0
    1.7790   -2.7126   -1.0345 H   0  0  0  0  0  0  0  0  0  0  0  0
    0.8849   -1.1861   -1.0324 H   0  0  0  0  0  0  0  0  0  0  0  0
    7.6991    2.4553   -1.8524 H   0  0  0  0  0  0  0  0  0  0  0  0
    8.8420    1.1802   -1.4146 H   0  0  0  0  0  0  0  0  0  0  0  0
    3.0379   -1.4035   -2.3424 H   0  0  0  0  0  0  0  0  0  0  0  0
    3.7673   -3.5789   -1.3247 H   0  0  0  0  0  0  0  0  0  0  0  0
    4.9732   -1.8212    1.7395 H   0  0  0  0  0  0  0  0  0  0  0  0
    8.5404   -1.3003    0.8932 H   0  0  0  0  0  0  0  0  0  0  0  0
    8.9511    2.9938   -0.0510 H   0  0  0  0  0  0  0  0  0  0  0  0
    4.7422   -5.8741   -0.5154 H   0  0  0  0  0  0  0  0  0  0  0  0
    5.6012   -5.6570    1.0173 H   0  0  0  0  0  0  0  0  0  0  0  0
    6.5095   -5.7713   -0.5041 H   0  0  0  0  0  0  0  0  0  0  0  0
   -1.5839    1.7046   -1.1791 H   0  0  0  0  0  0  0  0  0  0  0  0
   -2.9253    2.4537    1.5026 H   0  0  0  0  0  0  0  0  0  0  0  0
   -3.9533    2.2130   -1.4076 H   0  0  0  0  0  0  0  0  0  0  0  0
   -5.3833    2.9632    1.1694 H   0  0  0  0  0  0  0  0  0  0  0  0
   -6.4173    2.7205   -1.7411 H   0  0  0  0  0  0  0  0  0  0  0  0
   -7.7325    3.4731    0.9332 H   0  0  0  0  0  0  0  0  0  0  0  0
   -8.7407    3.2685   -1.9964 H   0  0  0  0  0  0  0  0  0  0  0  0
   -9.2660    4.4721   -0.8268 H   0  0  0  0  0  0  0  0  0  0  0  0
  -10.2917    2.7222    0.5838 H   0  0  0  0  0  0  0  0  0  0  0  0
  -10.9501    2.7329   -1.0445 H   0  0  0  0  0  0  0  0  0  0  0  0
   -9.5157    0.7779   -1.6438 H   0  0  0  0  0  0  0  0  0  0  0  0
   -8.8626    0.7479   -0.0087 H   0  0  0  0  0  0  0  0  0  0  0  0
  -11.1310    0.3105    0.9155 H   0  0  0  0  0  0  0  0  0  0  0  0
  -11.8123    0.3557   -0.7124 H   0  0  0  0  0  0  0  0  0  0  0  0
   -9.6589   -1.6157    0.2292 H   0  0  0  0  0  0  0  0  0  0  0  0
  -10.3765   -1.5796   -1.3832 H   0  0  0  0  0  0  0  0  0  0  0  0
  -12.6314   -2.0237   -0.3897 H   0  0  0  0  0  0  0  0  0  0  0  0
  -11.9196   -2.0401    1.2210 H   0  0  0  0  0  0  0  0  0  0  0  0
  -10.4863   -3.9936    0.5419 H   0  0  0  0  0  0  0  0  0  0  0  0
  -11.2687   -3.9955   -1.0356 H   0  0  0  0  0  0  0  0  0  0  0  0
  -12.6840   -4.4385    1.6476 H   0  0  0  0  0  0  0  0  0  0  0  0
  -13.4808   -4.4305    0.0725 H   0  0  0  0  0  0  0  0  0  0  0  0
  -11.2804   -6.3861    0.9320 H   0  0  0  0  0  0  0  0  0  0  0  0
  -13.0112   -6.7464    0.8122 H   0  0  0  0  0  0  0  0  0  0  0  0
  -12.0825   -6.3778   -0.6513 H   0  0  0  0  0  0  0  0  0  0  0  0
  1 14  1  0  0  0  0
  1 17  1  0  0  0  0
  2 10  1  0  0  0  0
  2 28  1  0  0  0  0
  3 13  1  0  0  0  0
  3 64  1  0  0  0  0
  4 21  1  0  0  0  0
  4 66  1  0  0  0  0
  5 22  1  0  0  0  0
  5 67  1  0  0  0  0
  6 24  1  0  0  0  0
  6 68  1  0  0  0  0
  7 26  2  0  0  0  0
  8 28  2  0  0  0  0
  9 10  1  0  0  0  0
  9 11  1  0  0  0  0
  9 12  1  0  0  0  0
  9 45  1  0  0  0  0
 10 11  1  0  0  0  0
 10 15  1  0  0  0  0
 11 19  1  0  0  0  0
 11 20  1  0  0  0  0
 12 13  1  0  0  0  0
 12 14  1  0  0  0  0
 12 46  1  0  0  0  0
 13 16  1  0  0  0  0
 13 18  1  0  0  0  0
 14 17  1  0  0  0  0
 14 47  1  0  0  0  0
 15 16  1  0  0  0  0
 15 48  1  0  0  0  0
 15 49  1  0  0  0  0
 16 23  1  0  0  0  0
 16 50  1  0  0  0  0
 17 22  1  0  0  0  0
 17 24  1  0  0  0  0
 18 21  1  0  0  0  0
 18 25  1  0  0  0  0
 18 51  1  0  0  0  0
 19 52  1  0  0  0  0
 19 53  1  0  0  0  0
 19 54  1  0  0  0  0
 20 55  1  0  0  0  0
 20 56  1  0  0  0  0
 20 57  1  0  0  0  0
 21 22  1  0  0  0  0
 21 26  1  0  0  0  0
 22 58  1  0  0  0  0
 23 59  1  0  0  0  0
 23 60  1  0  0  0  0
 23 61  1  0  0  0  0
 24 62  1  0  0  0  0
 24 63  1  0  0  0  0
 25 27  2  0  0  0  0
 25 65  1  0  0  0  0
 26 27  1  0  0  0  0
 27 29  1  0  0  0  0
 28 30  1  0  0  0  0
 29 69  1  0  0  0  0
 29 70  1  0  0  0  0
 29 71  1  0  0  0  0
 30 31  2  0  0  0  0
 30 72  1  0  0  0  0
 31 32  1  0  0  0  0
 31 73  1  0  0  0  0
 32 33  2  0  0  0  0
 32 74  1  0  0  0  0
 33 34  1  0  0  0  0
 33 75  1  0  0  0  0
 34 35  2  0  0  0  0
 34 76  1  0  0  0  0
 35 36  1  0  0  0  0
 35 77  1  0  0  0  0
 36 37  1  0  0  0  0
 36 78  1  0  0  0  0
 36 79  1  0  0  0  0
 37 38  1  0  0  0  0
 37 80  1  0  0  0  0
 37 81  1  0  0  0  0
 38 39  1  0  0  0  0
 38 82  1  0  0  0  0
 38 83  1  0  0  0  0
 39 40  1  0  0  0  0
 39 84  1  0  0  0  0
 39 85  1  0  0  0  0
 40 41  1  0  0  0  0
 40 86  1  0  0  0  0
 40 87  1  0  0  0  0
 41 42  1  0  0  0  0
 41 88  1  0  0  0  0
 41 89  1  0  0  0  0
 42 43  1  0  0  0  0
 42 90  1  0  0  0  0
 42 91  1  0  0  0  0
 43 44  1  0  0  0  0
 43 92  1  0  0  0  0
 43 93  1  0  0  0  0
 44 94  1  0  0  0  0
 44 95  1  0  0  0  0
 44 96  1  0  0  0  0
M  END
> <PUBCHEM_COMPOUND_CID>
5281378

> <PUBCHEM_CONFORMER_RMSD>
1.4

> <PUBCHEM_CONFORMER_DIVERSEORDER>
1
4
29
34
16
38
37
33
20
6
15
28
32
39
5
18
8
23
14
36
13
26
12
10
11
21
25
30
35
17
24
31
7
2
9
19
27
3
22

> <PUBCHEM_MMFF94_PARTIAL_CHARGES>
47
1 -0.3
10 0.05
11 -0.19
12 0.19
13 0.28
14 -0.05
15 0.09
17 -0.04
18 0.14
19 0.09
2 -0.3
20 0.09
21 0.34
22 0.38
24 0.38
25 -0.29
26 0.49
27 -0.12
28 0.71
29 0.14
3 -0.68
30 -0.14
31 -0.15
32 -0.15
33 -0.15
34 -0.15
35 -0.29
36 0.14
4 -0.68
45 0.1
47 0.1
5 -0.68
6 -0.68
64 0.4
65 0.15
66 0.4
67 0.4
68 0.4
7 -0.57
72 0.15
73 0.15
74 0.15
75 0.15
76 0.15
77 0.15
8 -0.57
9 -0.19

> <PUBCHEM_EFFECTIVE_ROTOR_COUNT>
15

> <PUBCHEM_PHARMACOPHORE_FEATURES>
16
1 1 acceptor
1 3 acceptor
1 3 donor
1 4 acceptor
1 4 donor
1 44 hydrophobe
1 5 acceptor
1 5 donor
1 6 acceptor
1 6 donor
1 7 acceptor
1 8 acceptor
3 11 19 20 hydrophobe
5 18 21 25 26 27 rings
7 12 13 14 17 18 21 22 rings
7 9 10 11 12 13 15 16 rings

> <PUBCHEM_HEAVY_ATOM_COUNT>
44

> <PUBCHEM_ATOM_DEF_STEREO_COUNT>
10

> <PUBCHEM_ATOM_UDEF_STEREO_COUNT>
0

> <PUBCHEM_BOND_DEF_STEREO_COUNT>
3

> <PUBCHEM_BOND_UDEF_STEREO_COUNT>
0

> <PUBCHEM_ISOTOPIC_ATOM_COUNT>
0

> <PUBCHEM_COMPONENT_COUNT>
1

> <PUBCHEM_CACTVS_TAUTO_COUNT>
3

> <PUBCHEM_CONFORMER_ID>
0050966200000001

> <PUBCHEM_MMFF94_ENERGY>
110.5233

> <PUBCHEM_FEATURE_SELFOVERLAP>
81.239

> <PUBCHEM_SHAPE_FINGERPRINT>
10258705 36 18409446987094444975
11135609 127 18131061611924773828
11828532 37 18335138709295915109
12013929 94 18408882911680309061
12089408 11 18263082270736772841
20771845 140 16661785451897213358
21362267 20 18411419541030281731
21781055 127 5617260359822515137
23569917 315 18044090392217019782
4149490 64 18260276256726970321
439807 62 18408604781649178645
45377200 153 18343301458467736793
9962374 69 17895208726687347885

> <PUBCHEM_SHAPE_MULTIPOLES>
858.54
45.79
7.11
1.28
177.98
10.02
0.18
45.48
-4.38
16.47
0.9
-1.76
-0.56
3

> <PUBCHEM_SHAPE_SELFOVERLAP>
1790.942

> <PUBCHEM_SHAPE_VOLUME>
482.3

> <PUBCHEM_COORDINATE_TYPE>
2
5
10

$$$$

