53297414
  -OEChem-07051213132D

122127  0     1  0  0  0  0  0999 V2000
   10.9223    2.9556    0.0000 O   0  0  0  0  0  0  0  0  0  0  0  0
   12.6463    2.7893    0.0000 O   0  0  0  0  0  0  0  0  0  0  0  0
    7.7588   -2.9552    0.0000 O   0  0  0  0  0  0  0  0  0  0  0  0
    8.0000   -4.5873    0.0000 O   0  0  0  0  0  0  0  0  0  0  0  0
    9.5074   -4.8545    0.0000 O   0  0  0  0  0  0  0  0  0  0  0  0
   11.1143    4.9464    0.0000 O   0  0  0  0  0  0  0  0  0  0  0  0
    5.0000   -2.8553    0.0000 O   0  0  0  0  0  0  0  0  0  0  0  0
   12.9343    5.7755    0.0000 O   0  0  0  0  0  0  0  0  0  0  0  0
   14.5624    4.6138    0.0000 O   0  0  0  0  0  0  0  0  0  0  0  0
    5.0000   -1.1232    0.0000 O   0  0  0  0  0  0  0  0  0  0  0  0
    3.0000    0.6088    0.0000 N   0  0  0  0  0  0  0  0  0  0  0  0
   10.1589    0.4331    0.0000 C   0  0  1  0  0  0  0  0  0  0  0  0
    9.5640   -0.4144    0.0000 C   0  0  1  0  0  0  0  0  0  0  0  0
   11.1895    0.3337    0.0000 C   0  0  2  0  0  0  0  0  0  0  0  0
    9.9691   -1.3222    0.0000 C   0  0  1  0  0  0  0  0  0  0  0  0
    9.9388    1.4387    0.0000 C   0  0  0  0  0  0  0  0  0  0  0  0
   11.6115   -0.6118    0.0000 C   0  0  0  0  0  0  0  0  0  0  0  0
   10.9972   -1.4454    0.0000 C   0  0  0  0  0  0  0  0  0  0  0  0
   11.5977    1.2787    0.0000 C   0  0  0  0  0  0  0  0  0  0  0  0
    9.2320   -1.9892    0.0000 C   0  0  3  0  0  0  0  0  0  0  0  0
   10.8263    1.9602    0.0000 C   0  0  3  0  0  0  0  0  0  0  0  0
    8.5752   -0.5174    0.0000 C   0  0  0  0  0  0  0  0  0  0  0  0
    8.3660   -1.4892    0.0000 C   0  0  0  0  0  0  0  0  0  0  0  0
    9.2320   -2.9892    0.0000 C   0  0  0  0  0  0  0  0  0  0  0  0
    7.5000   -1.9892    0.0000 C   0  0  0  0  0  0  0  0  0  0  0  0
   11.8323    3.3701    0.0000 C   0  0  2  0  0  0  0  0  0  0  0  0
    6.5000   -1.9892    0.0000 C   0  0  1  0  0  0  0  0  0  0  0  0
    8.8660   -4.0873    0.0000 C   0  0  0  0  0  0  0  0  0  0  0  0
   11.9283    4.3655    0.0000 C   0  0  1  0  0  0  0  0  0  0  0  0
    6.0000   -2.8553    0.0000 C   0  0  2  0  0  0  0  0  0  0  0  0
   12.8383    4.7801    0.0000 C   0  0  1  0  0  0  0  0  0  0  0  0
    6.0000   -1.1232    0.0000 C   0  0  0  0  0  0  0  0  0  0  0  0
   13.5563    3.2039    0.0000 C   0  0  2  0  0  0  0  0  0  0  0  0
   13.6523    4.1992    0.0000 C   0  0  2  0  0  0  0  0  0  0  0  0
    6.5000   -3.7213    0.0000 C   0  0  0  0  0  0  0  0  0  0  0  0
    7.5000   -5.4533    0.0000 C   0  0  2  0  0  0  0  0  0  0  0  0
    6.0000   -4.5873    0.0000 C   0  0  0  0  0  0  0  0  0  0  0  0
    6.5000   -5.4533    0.0000 C   0  0  0  0  0  0  0  0  0  0  0  0
   14.3704    2.6230    0.0000 C   0  0  0  0  0  0  0  0  0  0  0  0
    4.5000   -1.9892    0.0000 C   0  0  2  0  0  0  0  0  0  0  0  0
    8.0000   -6.3194    0.0000 C   0  0  0  0  0  0  0  0  0  0  0  0
   11.2103    5.9417    0.0000 C   0  0  0  0  0  0  0  0  0  0  0  0
    3.5000   -1.9892    0.0000 C   0  0  0  0  0  0  0  0  0  0  0  0
   13.8443    6.1900    0.0000 C   0  0  0  0  0  0  0  0  0  0  0  0
    3.0000   -1.1232    0.0000 C   0  0  0  0  0  0  0  0  0  0  0  0
    7.5000   -7.1854    0.0000 C   0  0  0  0  0  0  0  0  0  0  0  0
    3.5000   -0.2572    0.0000 C   0  0  1  0  0  0  0  0  0  0  0  0
    4.5000   -0.2572    0.0000 C   0  0  1  0  0  0  0  0  0  0  0  0
   15.3764    4.0330    0.0000 C   0  0  0  0  0  0  0  0  0  0  0  0
   13.9403    7.1854    0.0000 C   0  0  0  0  0  0  0  0  0  0  0  0
    5.0000    0.6088    0.0000 C   0  0  0  0  0  0  0  0  0  0  0  0
    2.0000    0.6088    0.0000 C   0  0  0  0  0  0  0  0  0  0  0  0
    3.5000    1.4749    0.0000 C   0  0  0  0  0  0  0  0  0  0  0  0
    9.3255    0.6006    0.0000 H   0  0  0  0  0  0  0  0  0  0  0  0
    9.1333    0.3185    0.0000 H   0  0  0  0  0  0  0  0  0  0  0  0
   12.0395    0.3388    0.0000 H   0  0  0  0  0  0  0  0  0  0  0  0
   10.2269   -2.1321    0.0000 H   0  0  0  0  0  0  0  0  0  0  0  0
    9.6826    2.0033    0.0000 H   0  0  0  0  0  0  0  0  0  0  0  0
    9.3504    1.2432    0.0000 H   0  0  0  0  0  0  0  0  0  0  0  0
   12.0403   -1.0597    0.0000 H   0  0  0  0  0  0  0  0  0  0  0  0
   12.1261   -0.2660    0.0000 H   0  0  0  0  0  0  0  0  0  0  0  0
   10.8191   -2.0393    0.0000 H   0  0  0  0  0  0  0  0  0  0  0  0
   11.5518   -1.7224    0.0000 H   0  0  0  0  0  0  0  0  0  0  0  0
   12.1379    0.9744    0.0000 H   0  0  0  0  0  0  0  0  0  0  0  0
   11.9571    1.7839    0.0000 H   0  0  0  0  0  0  0  0  0  0  0  0
    9.7988   -2.2407    0.0000 H   0  0  0  0  0  0  0  0  0  0  0  0
   11.4031    2.1876    0.0000 H   0  0  0  0  0  0  0  0  0  0  0  0
    8.1612   -0.0560    0.0000 H   0  0  0  0  0  0  0  0  0  0  0  0
    9.6907   -3.4064    0.0000 H   0  0  0  0  0  0  0  0  0  0  0  0
    8.6201   -2.8899    0.0000 H   0  0  0  0  0  0  0  0  0  0  0  0
   11.3276    3.7302    0.0000 H   0  0  0  0  0  0  0  0  0  0  0  0
    5.8800   -1.9892    0.0000 H   0  0  0  0  0  0  0  0  0  0  0  0
   11.9878    4.9827    0.0000 H   0  0  0  0  0  0  0  0  0  0  0  0
    5.6900   -2.3183    0.0000 H   0  0  0  0  0  0  0  0  0  0  0  0
   12.3336    5.1402    0.0000 H   0  0  0  0  0  0  0  0  0  0  0  0
    6.5369   -0.8132    0.0000 H   0  0  0  0  0  0  0  0  0  0  0  0
    5.6900   -0.5863    0.0000 H   0  0  0  0  0  0  0  0  0  0  0  0
    5.4631   -1.4332    0.0000 H   0  0  0  0  0  0  0  0  0  0  0  0
   13.4968    2.5867    0.0000 H   0  0  0  0  0  0  0  0  0  0  0  0
   14.1570    3.8391    0.0000 H   0  0  0  0  0  0  0  0  0  0  0  0
    6.9750   -4.1198    0.0000 H   0  0  0  0  0  0  0  0  0  0  0  0
    6.9750   -3.3228    0.0000 H   0  0  0  0  0  0  0  0  0  0  0  0
    8.1200   -5.4533    0.0000 H   0  0  0  0  0  0  0  0  0  0  0  0
    5.5250   -4.1888    0.0000 H   0  0  0  0  0  0  0  0  0  0  0  0
    5.5250   -4.9858    0.0000 H   0  0  0  0  0  0  0  0  0  0  0  0
    5.9174   -5.6654    0.0000 H   0  0  0  0  0  0  0  0  0  0  0  0
    6.6077   -6.0639    0.0000 H   0  0  0  0  0  0  0  0  0  0  0  0
   14.0103    2.1183    0.0000 H   0  0  0  0  0  0  0  0  0  0  0  0
   14.8751    2.2629    0.0000 H   0  0  0  0  0  0  0  0  0  0  0  0
   14.7305    3.1277    0.0000 H   0  0  0  0  0  0  0  0  0  0  0  0
    4.1900   -2.5262    0.0000 H   0  0  0  0  0  0  0  0  0  0  0  0
    8.4750   -6.7179    0.0000 H   0  0  0  0  0  0  0  0  0  0  0  0
    8.4750   -5.9208    0.0000 H   0  0  0  0  0  0  0  0  0  0  0  0
   11.8274    5.8822    0.0000 H   0  0  0  0  0  0  0  0  0  0  0  0
   11.2698    6.5589    0.0000 H   0  0  0  0  0  0  0  0  0  0  0  0
   10.5931    6.0012    0.0000 H   0  0  0  0  0  0  0  0  0  0  0  0
    2.9174   -2.2013    0.0000 H   0  0  0  0  0  0  0  0  0  0  0  0
    3.6077   -2.5998    0.0000 H   0  0  0  0  0  0  0  0  0  0  0  0
   13.9995    5.5897    0.0000 H   0  0  0  0  0  0  0  0  0  0  0  0
   14.4624    6.2386    0.0000 H   0  0  0  0  0  0  0  0  0  0  0  0
    2.5250   -0.7247    0.0000 H   0  0  0  0  0  0  0  0  0  0  0  0
    2.5250   -1.5217    0.0000 H   0  0  0  0  0  0  0  0  0  0  0  0
    6.9631   -6.8754    0.0000 H   0  0  0  0  0  0  0  0  0  0  0  0
    7.1900   -7.7223    0.0000 H   0  0  0  0  0  0  0  0  0  0  0  0
    8.0369   -7.4954    0.0000 H   0  0  0  0  0  0  0  0  0  0  0  0
    2.8800   -0.2572    0.0000 H   0  0  0  0  0  0  0  0  0  0  0  0
    5.1200   -0.2572    0.0000 H   0  0  0  0  0  0  0  0  0  0  0  0
   15.0163    3.5283    0.0000 H   0  0  0  0  0  0  0  0  0  0  0  0
   15.8811    3.6729    0.0000 H   0  0  0  0  0  0  0  0  0  0  0  0
   15.7365    4.5377    0.0000 H   0  0  0  0  0  0  0  0  0  0  0  0
   14.5575    7.1259    0.0000 H   0  0  0  0  0  0  0  0  0  0  0  0
   13.9999    7.8025    0.0000 H   0  0  0  0  0  0  0  0  0  0  0  0
   13.3232    7.2449    0.0000 H   0  0  0  0  0  0  0  0  0  0  0  0
    5.5369    0.2988    0.0000 H   0  0  0  0  0  0  0  0  0  0  0  0
    5.3100    1.1458    0.0000 H   0  0  0  0  0  0  0  0  0  0  0  0
    4.4631    0.9188    0.0000 H   0  0  0  0  0  0  0  0  0  0  0  0
    2.0000    1.2288    0.0000 H   0  0  0  0  0  0  0  0  0  0  0  0
    1.3800    0.6088    0.0000 H   0  0  0  0  0  0  0  0  0  0  0  0
    2.0000   -0.0112    0.0000 H   0  0  0  0  0  0  0  0  0  0  0  0
    4.0369    1.1649    0.0000 H   0  0  0  0  0  0  0  0  0  0  0  0
    3.8100    2.0118    0.0000 H   0  0  0  0  0  0  0  0  0  0  0  0
    2.9631    1.7849    0.0000 H   0  0  0  0  0  0  0  0  0  0  0  0
  1 21  1  0  0  0  0
 26  1  1  1  0  0  0
  2 26  1  0  0  0  0
  2 33  1  0  0  0  0
  3 25  2  0  0  0  0
  4 28  1  0  0  0  0
  4 36  1  0  0  0  0
  5 28  2  0  0  0  0
 29  6  1  6  0  0  0
  6 42  1  0  0  0  0
 30  7  1  6  0  0  0
 40  7  1  1  0  0  0
 31  8  1  6  0  0  0
  8 44  1  0  0  0  0
 34  9  1  1  0  0  0
  9 49  1  0  0  0  0
 10 40  1  0  0  0  0
 10 48  1  0  0  0  0
 47 11  1  6  0  0  0
 11 52  1  0  0  0  0
 11 53  1  0  0  0  0
 12 13  1  0  0  0  0
 12 14  1  0  0  0  0
 12 16  1  0  0  0  0
 12 54  1  1  0  0  0
 13 15  1  0  0  0  0
 13 22  1  0  0  0  0
 13 55  1  6  0  0  0
 14 17  1  0  0  0  0
 14 19  1  0  0  0  0
 14 56  1  6  0  0  0
 15 18  1  0  0  0  0
 15 20  1  0  0  0  0
 15 57  1  6  0  0  0
 16 21  1  0  0  0  0
 16 58  1  0  0  0  0
 16 59  1  0  0  0  0
 17 18  1  0  0  0  0
 17 60  1  0  0  0  0
 17 61  1  0  0  0  0
 18 62  1  0  0  0  0
 18 63  1  0  0  0  0
 19 21  1  0  0  0  0
 19 64  1  0  0  0  0
 19 65  1  0  0  0  0
 20 23  1  0  0  0  0
 20 24  1  0  0  0  0
 20 66  1  0  0  0  0
 21 67  1  0  0  0  0
 22 23  2  0  0  0  0
 22 68  1  0  0  0  0
 23 25  1  0  0  0  0
 24 28  1  0  0  0  0
 24 69  1  0  0  0  0
 24 70  1  0  0  0  0
 25 27  1  0  0  0  0
 26 29  1  0  0  0  0
 26 71  1  0  0  0  0
 27 30  1  0  0  0  0
 27 32  1  1  0  0  0
 27 72  1  0  0  0  0
 29 31  1  0  0  0  0
 29 73  1  0  0  0  0
 30 35  1  0  0  0  0
 30 74  1  0  0  0  0
 31 34  1  0  0  0  0
 31 75  1  0  0  0  0
 32 76  1  0  0  0  0
 32 77  1  0  0  0  0
 32 78  1  0  0  0  0
 33 34  1  0  0  0  0
 33 39  1  6  0  0  0
 33 79  1  0  0  0  0
 34 80  1  0  0  0  0
 35 37  1  0  0  0  0
 35 81  1  0  0  0  0
 35 82  1  0  0  0  0
 36 38  1  0  0  0  0
 36 41  1  1  0  0  0
 36 83  1  0  0  0  0
 37 38  1  0  0  0  0
 37 84  1  0  0  0  0
 37 85  1  0  0  0  0
 38 86  1  0  0  0  0
 38 87  1  0  0  0  0
 39 88  1  0  0  0  0
 39 89  1  0  0  0  0
 39 90  1  0  0  0  0
 40 43  1  0  0  0  0
 40 91  1  0  0  0  0
 41 46  1  0  0  0  0
 41 92  1  0  0  0  0
 41 93  1  0  0  0  0
 42 94  1  0  0  0  0
 42 95  1  0  0  0  0
 42 96  1  0  0  0  0
 43 45  1  0  0  0  0
 43 97  1  0  0  0  0
 43 98  1  0  0  0  0
 44 50  1  0  0  0  0
 44 99  1  0  0  0  0
 44100  1  0  0  0  0
 45 47  1  0  0  0  0
 45101  1  0  0  0  0
 45102  1  0  0  0  0
 46103  1  0  0  0  0
 46104  1  0  0  0  0
 46105  1  0  0  0  0
 47 48  1  0  0  0  0
 47106  1  0  0  0  0
 48 51  1  1  0  0  0
 48107  1  0  0  0  0
 49108  1  0  0  0  0
 49109  1  0  0  0  0
 49110  1  0  0  0  0
 50111  1  0  0  0  0
 50112  1  0  0  0  0
 50113  1  0  0  0  0
 51114  1  0  0  0  0
 51115  1  0  0  0  0
 51116  1  0  0  0  0
 52117  1  0  0  0  0
 52118  1  0  0  0  0
 52119  1  0  0  0  0
 53120  1  0  0  0  0
 53121  1  0  0  0  0
 53122  1  0  0  0  0
M  END
> <PUBCHEM_COMPOUND_CID>
53297414

> <PUBCHEM_COMPOUND_CANONICALIZED>
1

> <PUBCHEM_CACTVS_COMPLEXITY>
1260

> <PUBCHEM_CACTVS_HBOND_ACCEPTOR>
11

> <PUBCHEM_CACTVS_HBOND_DONOR>
0

> <PUBCHEM_CACTVS_ROTATABLE_BOND>
10

> <PUBCHEM_CACTVS_SUBSKEYS>
AAADcfB+PAAAAAAAAAAAAAAAAAAAAYIAAAA0SIAAAAAAAGAAAAAAHgAAAAAADTzxgAcCCAMABACIAqDSCAAAAAAgAAAACAEIAEgTABYAgQAnAAAFoAAeAYPo7vyugAAAAAAAAACAAAQAACAAAIAACAAAAA==

> <PUBCHEM_IUPAC_INCHI>
InChI=1S/C42H69NO10/c1-10-27-13-12-14-35(53-37-18-17-34(43(6)7)24(4)49-37)23(3)38(45)33-21-31-29(32(33)22-36(44)51-27)16-15-26-19-28(20-30(26)31)52-42-41(47-9)40(48-11-2)39(46-8)25(5)50-42/h21,23-32,34-35,37,39-42H,10-20,22H2,1-9H3/t23-,24-,25+,26-,27+,28?,29-,30-,31-,32?,34+,35+,37+,39+,40-,41-,42+/m1/s1

> <PUBCHEM_IUPAC_INCHIKEY>
GOENIMGKWNZVDA-OAMCMWGQSA-N

> <PUBCHEM_XLOGP3_AA>
5.9

> <PUBCHEM_EXACT_MASS>
747.492147

> <PUBCHEM_MOLECULAR_FORMULA>
C42H69NO10

> <PUBCHEM_MOLECULAR_WEIGHT>
747.99796

> <PUBCHEM_OPENEYE_CAN_SMILES>
CCC1CCCC(C(C(=O)C2=CC3C(C2CC(=O)O1)CCC4C3CC(C4)OC5C(C(C(C(O5)C)OC)OCC)OC)C)OC6CCC(C(O6)C)N(C)C

> <PUBCHEM_OPENEYE_ISO_SMILES>
CC[C@H]1CCC[C@@H]([C@H](C(=O)C2=C[C@@H]3[C@H](C2CC(=O)O1)CC[C@H]4[C@H]3CC(C4)O[C@H]5[C@@H]([C@@H]([C@H]([C@@H](O5)C)OC)OCC)OC)C)O[C@H]6CC[C@@H]([C@H](O6)C)N(C)C

> <PUBCHEM_CACTVS_TPSA>
111

> <PUBCHEM_MONOISOTOPIC_WEIGHT>
747.492147

> <PUBCHEM_TOTAL_CHARGE>
0

> <PUBCHEM_HEAVY_ATOM_COUNT>
53

> <PUBCHEM_ATOM_DEF_STEREO_COUNT>
15

> <PUBCHEM_ATOM_UDEF_STEREO_COUNT>
2

> <PUBCHEM_BOND_DEF_STEREO_COUNT>
0

> <PUBCHEM_BOND_UDEF_STEREO_COUNT>
0

> <PUBCHEM_ISOTOPIC_ATOM_COUNT>
0

> <PUBCHEM_COMPONENT_COUNT>
1

> <PUBCHEM_CACTVS_TAUTO_COUNT>
10

> <PUBCHEM_COORDINATE_TYPE>
1
5
255

> <PUBCHEM_BONDANNOTATIONS>
21  1  3
26  1  5
47  11  6
12  54  5
13  55  6
14  56  6
15  57  6
20  24  3
27  32  5
33  39  6
36  41  5
48  51  5
29  6  6
30  7  6
40  7  5
31  8  6
34  9  5

$$$$

