485
  -OEChem-07051212453D

 24 23  0     0  0  0  0  0  0999 V2000
    2.6171   -0.0357   -0.0258 S   0  0  0  0  0  0  0  0  0  0  0  0
    1.1574    0.5244    0.4733 O   0  0  0  0  0  0  0  0  0  0  0  0
    3.5895    0.7625    0.7193 O   0  5  0  0  0  0  0  0  0  0  0  0
    2.6076    0.2253   -1.4645 O   0  0  0  0  0  0  0  0  0  0  0  0
    2.6029   -1.4555    0.3233 O   0  0  0  0  0  0  0  0  0  0  0  0
   -2.5084    0.0041    0.0069 N   0  3  0  0  0  0  0  0  0  0  0  0
   -1.2388    0.6408    0.5537 C   0  0  0  0  0  0  0  0  0  0  0  0
   -2.5110   -1.4827    0.3321 C   0  0  0  0  0  0  0  0  0  0  0  0
   -3.7221    0.6650    0.6443 C   0  0  0  0  0  0  0  0  0  0  0  0
   -2.5617    0.1933   -1.5022 C   0  0  0  0  0  0  0  0  0  0  0  0
   -0.0323   -0.0414   -0.0605 C   0  0  0  0  0  0  0  0  0  0  0  0
   -1.2572    1.7116    0.3182 H   0  0  0  0  0  0  0  0  0  0  0  0
   -1.2420    0.5357    1.6453 H   0  0  0  0  0  0  0  0  0  0  0  0
   -2.2740   -1.6128    1.3922 H   0  0  0  0  0  0  0  0  0  0  0  0
   -3.5142   -1.8704    0.1263 H   0  0  0  0  0  0  0  0  0  0  0  0
   -1.8004   -2.0128   -0.3067 H   0  0  0  0  0  0  0  0  0  0  0  0
   -3.6999    1.7319    0.4033 H   0  0  0  0  0  0  0  0  0  0  0  0
   -4.6269    0.2017    0.2397 H   0  0  0  0  0  0  0  0  0  0  0  0
   -3.6683    0.5145    1.7266 H   0  0  0  0  0  0  0  0  0  0  0  0
   -2.3876    1.2488   -1.7308 H   0  0  0  0  0  0  0  0  0  0  0  0
   -1.8237   -0.4473   -1.9909 H   0  0  0  0  0  0  0  0  0  0  0  0
   -3.5593   -0.1019   -1.8437 H   0  0  0  0  0  0  0  0  0  0  0  0
   -0.0023   -1.1092    0.1658 H   0  0  0  0  0  0  0  0  0  0  0  0
    0.0035    0.0942   -1.1439 H   0  0  0  0  0  0  0  0  0  0  0  0
  1  2  1  0  0  0  0
  1  3  1  0  0  0  0
  1  4  2  0  0  0  0
  1  5  2  0  0  0  0
  2 11  1  0  0  0  0
  6  7  1  0  0  0  0
  6  8  1  0  0  0  0
  6  9  1  0  0  0  0
  6 10  1  0  0  0  0
  7 11  1  0  0  0  0
  7 12  1  0  0  0  0
  7 13  1  0  0  0  0
  8 14  1  0  0  0  0
  8 15  1  0  0  0  0
  8 16  1  0  0  0  0
  9 17  1  0  0  0  0
  9 18  1  0  0  0  0
  9 19  1  0  0  0  0
 10 20  1  0  0  0  0
 10 21  1  0  0  0  0
 10 22  1  0  0  0  0
 11 23  1  0  0  0  0
 11 24  1  0  0  0  0
M  CHG  2   3  -1   6   1
M  END
> <PUBCHEM_COMPOUND_CID>
485

> <PUBCHEM_CONFORMER_RMSD>
0.6

> <PUBCHEM_CONFORMER_DIVERSEORDER>
1
5
4
3
2

> <PUBCHEM_MMFF94_PARTIAL_CHARGES>
11
1 1.63
10 0.5
11 0.28
2 -0.46
3 -0.82
4 -0.82
5 -0.82
6 -1.01
7 0.5
8 0.5
9 0.5

> <PUBCHEM_EFFECTIVE_ROTOR_COUNT>
4

> <PUBCHEM_PHARMACOPHORE_FEATURES>
5
1 3 acceptor
1 4 acceptor
1 5 acceptor
1 6 cation
4 1 3 4 5 anion

> <PUBCHEM_HEAVY_ATOM_COUNT>
11

> <PUBCHEM_ATOM_DEF_STEREO_COUNT>
0

> <PUBCHEM_ATOM_UDEF_STEREO_COUNT>
0

> <PUBCHEM_BOND_DEF_STEREO_COUNT>
0

> <PUBCHEM_BOND_UDEF_STEREO_COUNT>
0

> <PUBCHEM_ISOTOPIC_ATOM_COUNT>
0

> <PUBCHEM_COMPONENT_COUNT>
1

> <PUBCHEM_CACTVS_TAUTO_COUNT>
1

> <PUBCHEM_CONFORMER_ID>
000001E500000001

> <PUBCHEM_MMFF94_ENERGY>
30.7397

> <PUBCHEM_FEATURE_SELFOVERLAP>
25.444

> <PUBCHEM_SHAPE_FINGERPRINT>
11062470 55 17749108898120297553
12932764 1 17632581539090654809
13296908 3 17822004298427612206
14144814 61 18334856142837984777
14325111 11 18335421265886667171
18186145 218 18411980273635099396
190213 19 18060416945370846889
20279233 1 17821725031074706198
20645477 56 17988651813057727005
20645477 70 16443619211582873908
20653085 51 16916505973092730341
21028194 46 12751520673600541872
22169311 21 18342750614861343666
3248919 1 17918273142856824042

> <PUBCHEM_SHAPE_MULTIPOLES>
201.77
6.77
1.12
1.11
1.38
0.42
0.51
-0.38
-0.34
-0.16
-0.24
-0.19
-0.09
0.01

> <PUBCHEM_SHAPE_SELFOVERLAP>
363.31

> <PUBCHEM_SHAPE_VOLUME>
133

> <PUBCHEM_COORDINATE_TYPE>
2
5
10

$$$$

