160464
  -OEChem-07051213043D

 24 23  0     0  0  0  0  0  0999 V2000
    4.6182   -0.1280   -0.3224 O   0  0  0  0  0  0  0  0  0  0  0  0
    3.0432   -1.4172    0.6892 O   0  0  0  0  0  0  0  0  0  0  0  0
   -1.9419   -0.0511   -0.3578 N   0  0  0  0  0  0  0  0  0  0  0  0
   -3.6888   -1.5544   -0.6036 N   0  0  0  0  0  0  0  0  0  0  0  0
   -4.0558    0.2475    0.7430 N   0  0  0  0  0  0  0  0  0  0  0  0
    0.9536    0.3783    0.1610 C   0  0  0  0  0  0  0  0  0  0  0  0
   -0.0379    1.4803   -0.2317 C   0  0  0  0  0  0  0  0  0  0  0  0
    2.3693    0.6662   -0.3313 C   0  0  0  0  0  0  0  0  0  0  0  0
   -1.4543    1.1872    0.2515 C   0  0  0  0  0  0  0  0  0  0  0  0
    3.3508   -0.4049    0.0735 C   0  0  0  0  0  0  0  0  0  0  0  0
   -3.1564   -0.4038   -0.0715 C   0  0  0  0  0  0  0  0  0  0  0  0
    0.6249   -0.5855   -0.2467 H   0  0  0  0  0  0  0  0  0  0  0  0
    0.9597    0.2685    1.2530 H   0  0  0  0  0  0  0  0  0  0  0  0
    0.2932    2.4368    0.1898 H   0  0  0  0  0  0  0  0  0  0  0  0
   -0.0404    1.5911   -1.3231 H   0  0  0  0  0  0  0  0  0  0  0  0
    2.3747    0.7351   -1.4247 H   0  0  0  0  0  0  0  0  0  0  0  0
    2.7169    1.6179    0.0857 H   0  0  0  0  0  0  0  0  0  0  0  0
   -1.4534    1.1024    1.3450 H   0  0  0  0  0  0  0  0  0  0  0  0
   -2.0956    2.0305   -0.0323 H   0  0  0  0  0  0  0  0  0  0  0  0
    5.2473   -0.8317   -0.0552 H   0  0  0  0  0  0  0  0  0  0  0  0
   -3.1458   -2.1438   -1.2253 H   0  0  0  0  0  0  0  0  0  0  0  0
   -4.6366   -1.8471   -0.3930 H   0  0  0  0  0  0  0  0  0  0  0  0
   -4.9872   -0.1244    0.8952 H   0  0  0  0  0  0  0  0  0  0  0  0
   -3.8267    1.1125    1.2194 H   0  0  0  0  0  0  0  0  0  0  0  0
  1 10  1  0  0  0  0
  1 20  1  0  0  0  0
  2 10  2  0  0  0  0
  3  9  1  0  0  0  0
  3 11  2  0  0  0  0
  4 11  1  0  0  0  0
  4 21  1  0  0  0  0
  4 22  1  0  0  0  0
  5 11  1  0  0  0  0
  5 23  1  0  0  0  0
  5 24  1  0  0  0  0
  6  7  1  0  0  0  0
  6  8  1  0  0  0  0
  6 12  1  0  0  0  0
  6 13  1  0  0  0  0
  7  9  1  0  0  0  0
  7 14  1  0  0  0  0
  7 15  1  0  0  0  0
  8 10  1  0  0  0  0
  8 16  1  0  0  0  0
  8 17  1  0  0  0  0
  9 18  1  0  0  0  0
  9 19  1  0  0  0  0
M  END
> <PUBCHEM_COMPOUND_CID>
160464

> <PUBCHEM_CONFORMER_RMSD>
0.6

> <PUBCHEM_CONFORMER_DIVERSEORDER>
1
83
3
92
34
65
32
76
57
80
36
45
10
74
47
55
33
95
87
79
78
12
88
6
96
2
89
21
84
13
71
73
46
86
85
51
75
28
66
72
35
11
4
30
25
16
54
50
52
69
68
64
27
77
5
61
24
23
22
94
40
9
93
43
26
38
17
15
41
29
90
59
56
62
58
20
63
42
91
82
49
53
14
67
48
70
7
60
8
37
18
81
19
44
39
31

> <PUBCHEM_MMFF94_PARTIAL_CHARGES>
14
1 -0.65
10 0.66
11 0.55
2 -0.57
20 0.5
21 0.4
22 0.4
23 0.4
24 0.4
3 -0.7
4 -0.85
5 -0.85
8 0.06
9 0.25

> <PUBCHEM_EFFECTIVE_ROTOR_COUNT>
5

> <PUBCHEM_PHARMACOPHORE_FEATURES>
6
1 1 acceptor
1 2 acceptor
1 4 donor
1 5 donor
3 1 2 10 anion
4 3 4 5 11 cation

> <PUBCHEM_HEAVY_ATOM_COUNT>
11

> <PUBCHEM_ATOM_DEF_STEREO_COUNT>
0

> <PUBCHEM_ATOM_UDEF_STEREO_COUNT>
0

> <PUBCHEM_BOND_DEF_STEREO_COUNT>
0

> <PUBCHEM_BOND_UDEF_STEREO_COUNT>
0

> <PUBCHEM_ISOTOPIC_ATOM_COUNT>
0

> <PUBCHEM_COMPONENT_COUNT>
1

> <PUBCHEM_CACTVS_TAUTO_COUNT>
2

> <PUBCHEM_CONFORMER_ID>
000272D000000001

> <PUBCHEM_MMFF94_ENERGY>
16.543

> <PUBCHEM_FEATURE_SELFOVERLAP>
30.56

> <PUBCHEM_SHAPE_FINGERPRINT>
114248 4 15339113524636513544
12162725 195 9367342643499326498
122479 349 8286198378993051645
12932764 1 14924235979413253188
14252887 29 17967523580543677758
15242433 33 18341891904817114191
15477762 27 18059853965716528004
177051 138 18335139795505526164
18186145 218 15554449578581226517
18342897 69 18335423499354238993
20281407 28 18409171016952043841
20281475 54 18408887342914952840
20828058 44 17894628153833406956
21293036 1 15985100812496238296
21524375 3 8862941662798483469
22485316 2 18411141337504542021
23402539 116 16845577556195797716

> <PUBCHEM_SHAPE_MULTIPOLES>
199.69
8.54
1.38
0.73
1.01
0.08
-0.03
3.33
-0.1
-0.34
0.03
-0.13
0.05
-0.65

> <PUBCHEM_SHAPE_SELFOVERLAP>
373.478

> <PUBCHEM_SHAPE_VOLUME>
122.7

> <PUBCHEM_COORDINATE_TYPE>
2
5
10

$$$$

