6325833
  -OEChem-07051212553D

 69 72  0     1  0  0  0  0  0999 V2000
    3.8747    3.4237   -1.9963 S   0  0  0  0  0  0  0  0  0  0  0  0
    4.6600   -0.4635   -0.3524 O   0  0  0  0  0  0  0  0  0  0  0  0
    3.5219   -2.3303    0.4623 O   0  0  0  0  0  0  0  0  0  0  0  0
    8.3016   -2.2777    0.2078 O   0  0  0  0  0  0  0  0  0  0  0  0
    8.1636    0.5861   -0.1604 O   0  0  0  0  0  0  0  0  0  0  0  0
    5.9216   -3.2485    1.6479 O   0  0  0  0  0  0  0  0  0  0  0  0
    4.3412    2.1830   -1.0238 O   0  0  0  0  0  0  0  0  0  0  0  0
    1.8097   -2.4367   -1.7195 O   0  0  0  0  0  0  0  0  0  0  0  0
   -1.8076    2.8872    3.1558 O   0  0  0  0  0  0  0  0  0  0  0  0
   -0.7578    2.8260    1.1333 O   0  0  0  0  0  0  0  0  0  0  0  0
    2.5686    3.8235   -1.4746 O   0  5  0  0  0  0  0  0  0  0  0  0
    3.8265    2.8188   -3.3266 O   0  0  0  0  0  0  0  0  0  0  0  0
    4.9256    4.4273   -1.8346 O   0  0  0  0  0  0  0  0  0  0  0  0
   -5.2776   -3.4841   -1.8373 O   0  0  0  0  0  0  0  0  0  0  0  0
   -7.3174   -2.6783   -2.4584 O   0  0  0  0  0  0  0  0  0  0  0  0
   -9.5224    0.3998   -0.1130 O   0  0  0  0  0  0  0  0  0  0  0  0
   -8.5477    2.2830    0.7434 O   0  0  0  0  0  0  0  0  0  0  0  0
   -1.3885    0.1400    0.9385 N   0  3  0  0  0  0  0  0  0  0  0  0
   -7.2912   -0.8033   -0.5532 N   0  0  0  0  0  0  0  0  0  0  0  0
    7.1763   -1.4826    0.5847 C   0  0  1  0  0  0  0  0  0  0  0  0
    7.0787   -0.3092   -0.3902 C   0  0  1  0  0  0  0  0  0  0  0  0
    5.9114   -2.3403    0.5469 C   0  0  2  0  0  0  0  0  0  0  0  0
    5.7568    0.4404   -0.2074 C   0  0  1  0  0  0  0  0  0  0  0  0
    4.6525   -1.4792    0.6480 C   0  0  1  0  0  0  0  0  0  0  0  0
   -1.2779    0.7703    2.2903 C   0  0  1  0  0  0  0  0  0  0  0  0
    5.5845    1.5433   -1.2470 C   0  0  0  0  0  0  0  0  0  0  0  0
    0.0306    0.2313    2.8910 C   0  0  0  0  0  0  0  0  0  0  0  0
    0.6584   -0.4813    1.7361 C   0  0  0  0  0  0  0  0  0  0  0  0
   -0.1973   -0.5392    0.6383 C   0  0  0  0  0  0  0  0  0  0  0  0
    2.2914   -1.7356    0.5225 C   0  0  0  0  0  0  0  0  0  0  0  0
    1.9078   -1.0798    1.6939 C   0  0  0  0  0  0  0  0  0  0  0  0
    0.1645   -1.1905   -0.5312 C   0  0  0  0  0  0  0  0  0  0  0  0
    1.4258   -1.7908   -0.5809 C   0  0  0  0  0  0  0  0  0  0  0  0
   -2.4039    0.1720    0.1523 C   0  0  0  0  0  0  0  0  0  0  0  0
   -1.2379    2.2545    2.1010 C   0  0  0  0  0  0  0  0  0  0  0  0
   -3.6409    0.8880    0.4845 C   0  0  0  0  0  0  0  0  0  0  0  0
   -4.8003    0.4248   -0.0046 C   0  0  0  0  0  0  0  0  0  0  0  0
   -4.8679   -0.7956   -0.9050 C   0  0  0  0  0  0  0  0  0  0  0  0
   -6.1153   -1.6536   -0.6346 C   0  0  2  0  0  0  0  0  0  0  0  0
   -6.0707    1.0801    0.2802 C   0  0  0  0  0  0  0  0  0  0  0  0
   -7.2243    0.4633   -0.0231 C   0  0  0  0  0  0  0  0  0  0  0  0
   -6.3305   -2.6361   -1.7391 C   0  0  0  0  0  0  0  0  0  0  0  0
   -8.4767    1.1698    0.2545 C   0  0  0  0  0  0  0  0  0  0  0  0
    7.3797   -1.1291    1.6024 H   0  0  0  0  0  0  0  0  0  0  0  0
    7.1705   -0.6768   -1.4196 H   0  0  0  0  0  0  0  0  0  0  0  0
    5.8872   -2.9489   -0.3649 H   0  0  0  0  0  0  0  0  0  0  0  0
    5.6991    0.9016    0.7880 H   0  0  0  0  0  0  0  0  0  0  0  0
    4.6023   -1.0202    1.6441 H   0  0  0  0  0  0  0  0  0  0  0  0
   -2.1521    0.4718    2.8802 H   0  0  0  0  0  0  0  0  0  0  0  0
    6.3932    2.2777   -1.1735 H   0  0  0  0  0  0  0  0  0  0  0  0
    5.5812    1.1140   -2.2552 H   0  0  0  0  0  0  0  0  0  0  0  0
    0.6800    1.0248    3.2747 H   0  0  0  0  0  0  0  0  0  0  0  0
   -0.1812   -0.4823    3.6951 H   0  0  0  0  0  0  0  0  0  0  0  0
    2.5518   -1.0504    2.5667 H   0  0  0  0  0  0  0  0  0  0  0  0
    8.1426   -2.6216   -0.6877 H   0  0  0  0  0  0  0  0  0  0  0  0
    8.0833    0.9289    0.7460 H   0  0  0  0  0  0  0  0  0  0  0  0
    5.9430   -2.7274    2.4687 H   0  0  0  0  0  0  0  0  0  0  0  0
   -0.4911   -1.2391   -1.3936 H   0  0  0  0  0  0  0  0  0  0  0  0
   -2.3399   -0.3265   -0.8240 H   0  0  0  0  0  0  0  0  0  0  0  0
   -3.6205    1.7409    1.1511 H   0  0  0  0  0  0  0  0  0  0  0  0
   -4.0075   -1.4617   -0.7928 H   0  0  0  0  0  0  0  0  0  0  0  0
   -4.8689   -0.4518   -1.9491 H   0  0  0  0  0  0  0  0  0  0  0  0
   -6.0171   -2.2030    0.3097 H   0  0  0  0  0  0  0  0  0  0  0  0
    1.0940   -2.3766   -2.3753 H   0  0  0  0  0  0  0  0  0  0  0  0
   -6.0417    2.0614    0.7441 H   0  0  0  0  0  0  0  0  0  0  0  0
   -8.2119   -1.2136   -0.6716 H   0  0  0  0  0  0  0  0  0  0  0  0
   -1.7910    3.8623    3.0504 H   0  0  0  0  0  0  0  0  0  0  0  0
   -5.3999   -4.1384   -2.5579 H   0  0  0  0  0  0  0  0  0  0  0  0
  -10.3823    0.8398    0.0579 H   0  0  0  0  0  0  0  0  0  0  0  0
  1  7  1  0  0  0  0
  1 11  1  0  0  0  0
  1 12  2  0  0  0  0
  1 13  2  0  0  0  0
  2 23  1  0  0  0  0
  2 24  1  0  0  0  0
  3 24  1  0  0  0  0
  3 30  1  0  0  0  0
  4 20  1  0  0  0  0
  4 55  1  0  0  0  0
  5 21  1  0  0  0  0
  5 56  1  0  0  0  0
  6 22  1  0  0  0  0
  6 57  1  0  0  0  0
  7 26  1  0  0  0  0
  8 33  1  0  0  0  0
  8 64  1  0  0  0  0
  9 35  1  0  0  0  0
  9 67  1  0  0  0  0
 10 35  2  0  0  0  0
 14 42  1  0  0  0  0
 14 68  1  0  0  0  0
 15 42  2  0  0  0  0
 16 43  1  0  0  0  0
 16 69  1  0  0  0  0
 17 43  2  0  0  0  0
 18 25  1  0  0  0  0
 18 29  1  0  0  0  0
 18 34  2  0  0  0  0
 19 39  1  0  0  0  0
 19 41  1  0  0  0  0
 19 66  1  0  0  0  0
 20 21  1  0  0  0  0
 20 22  1  0  0  0  0
 20 44  1  0  0  0  0
 21 23  1  0  0  0  0
 21 45  1  0  0  0  0
 22 24  1  0  0  0  0
 22 46  1  0  0  0  0
 23 26  1  0  0  0  0
 23 47  1  0  0  0  0
 24 48  1  0  0  0  0
 25 27  1  0  0  0  0
 25 35  1  0  0  0  0
 25 49  1  0  0  0  0
 26 50  1  0  0  0  0
 26 51  1  0  0  0  0
 27 28  1  0  0  0  0
 27 52  1  0  0  0  0
 27 53  1  0  0  0  0
 28 29  1  0  0  0  0
 28 31  2  0  0  0  0
 29 32  2  0  0  0  0
 30 31  1  0  0  0  0
 30 33  2  0  0  0  0
 31 54  1  0  0  0  0
 32 33  1  0  0  0  0
 32 58  1  0  0  0  0
 34 36  1  0  0  0  0
 34 59  1  0  0  0  0
 36 37  2  0  0  0  0
 36 60  1  0  0  0  0
 37 38  1  0  0  0  0
 37 40  1  0  0  0  0
 38 39  1  0  0  0  0
 38 61  1  0  0  0  0
 38 62  1  0  0  0  0
 39 42  1  0  0  0  0
 39 63  1  0  0  0  0
 40 41  2  0  0  0  0
 40 65  1  0  0  0  0
 41 43  1  0  0  0  0
M  CHG  2  11  -1  18   1
M  END
> <PUBCHEM_COMPOUND_CID>
6325833

> <PUBCHEM_CONFORMER_RMSD>
1.2

> <PUBCHEM_CONFORMER_DIVERSEORDER>
1
2
10
17
16
15
7
12
19
3
13
6
9
18
5
11
4
8
14

> <PUBCHEM_MMFF94_PARTIAL_CHARGES>
56
1 1.63
10 -0.57
11 -0.82
12 -0.82
13 -0.82
14 -0.65
15 -0.57
16 -0.65
17 -0.57
18 -0.04
19 -0.87
2 -0.56
20 0.28
21 0.28
22 0.28
23 0.28
24 0.56
25 0.41
26 0.28
27 0.14
28 -0.14
29 0.3
3 -0.36
30 0.08
31 -0.15
32 -0.15
33 0.08
34 0.33
35 0.66
36 -0.14
37 -0.14
38 0.14
39 0.43
4 -0.68
40 -0.15
41 0.11
42 0.66
43 0.71
5 -0.68
54 0.15
55 0.4
56 0.4
57 0.4
58 0.15
59 0.06
6 -0.68
60 0.15
64 0.45
65 0.15
66 0.4
67 0.5
68 0.5
69 0.5
7 -0.46
8 -0.53
9 -0.65

> <PUBCHEM_EFFECTIVE_ROTOR_COUNT>
11.2

> <PUBCHEM_PHARMACOPHORE_FEATURES>
28
1 10 acceptor
1 11 acceptor
1 12 acceptor
1 13 acceptor
1 14 acceptor
1 15 acceptor
1 16 acceptor
1 17 acceptor
1 19 cation
1 19 donor
1 2 acceptor
1 3 acceptor
1 4 acceptor
1 4 donor
1 5 acceptor
1 5 donor
1 6 acceptor
1 6 donor
1 8 donor
1 9 acceptor
3 14 15 42 anion
3 16 17 43 anion
3 9 10 35 anion
4 1 11 12 13 anion
5 18 25 27 28 29 rings
6 19 37 38 39 40 41 rings
6 2 20 21 22 23 24 rings
6 28 29 30 31 32 33 rings

> <PUBCHEM_HEAVY_ATOM_COUNT>
43

> <PUBCHEM_ATOM_DEF_STEREO_COUNT>
7

> <PUBCHEM_ATOM_UDEF_STEREO_COUNT>
0

> <PUBCHEM_BOND_DEF_STEREO_COUNT>
1

> <PUBCHEM_BOND_UDEF_STEREO_COUNT>
0

> <PUBCHEM_ISOTOPIC_ATOM_COUNT>
0

> <PUBCHEM_COMPONENT_COUNT>
1

> <PUBCHEM_CACTVS_TAUTO_COUNT>
3

> <PUBCHEM_CONFORMER_ID>
0060864900000001

> <PUBCHEM_MMFF94_ENERGY>
129.3516

> <PUBCHEM_FEATURE_SELFOVERLAP>
142.466

> <PUBCHEM_SHAPE_FINGERPRINT>
10673678 19 18339071601594120444
11828532 37 17240766130117014630
11963148 33 17822587086878432871
12166972 35 18412265060496091968
14068700 675 18186522115624918016
14294032 229 17677602241028387960
14856354 85 17749390373814374359
15320295 44 18409163307654702381
15361156 5 18409732834236807339
15419008 47 16630529556843517404
16992727 255 18334295362233892559
21033648 29 16056309515355147848
21223535 225 17203054105423629781
21781055 127 17458891731498395993
23522609 53 18189596333694730297
335352 9 17968105253103495977
335507 130 18409445874085894759
4149490 64 18131341982846040355

> <PUBCHEM_SHAPE_MULTIPOLES>
784.9
26.1
4.21
2.42
23.29
2.45
-0.24
-4.89
7.95
-4.1
2.31
0.04
1.27
-7.73

> <PUBCHEM_SHAPE_SELFOVERLAP>
1679.672

> <PUBCHEM_SHAPE_VOLUME>
433.7

> <PUBCHEM_COORDINATE_TYPE>
2
5
10

$$$$

