5371578
  -OEChem-07051213133D

 40 40  0     1  0  0  0  0  0999 V2000
   -3.8014    0.3749    0.0921 P   0  0  0  0  0  0  0  0  0  0  0  0
    1.0404    1.4596   -0.1136 O   0  0  0  0  0  0  0  0  0  0  0  0
   -2.9377   -0.8875   -0.3934 O   0  0  0  0  0  0  0  0  0  0  0  0
   -3.1825    0.7216    1.5489 O   0  0  0  0  0  0  0  0  0  0  0  0
   -5.2319   -0.2971    0.4483 O   0  0  0  0  0  0  0  0  0  0  0  0
    1.1398   -0.2012   -1.7139 O   0  0  0  0  0  0  0  0  0  0  0  0
   -3.8601    1.5278   -0.8692 O   0  0  0  0  0  0  0  0  0  0  0  0
    2.4393    1.7158   -0.2778 C   0  0  2  0  0  0  0  0  0  0  0  0
    3.2163    0.4625    0.0479 C   0  0  0  0  0  0  0  0  0  0  0  0
    2.8503    2.8893    0.6046 C   0  0  0  0  0  0  0  0  0  0  0  0
    2.7233   -0.4133    1.0019 C   0  0  0  0  0  0  0  0  0  0  0  0
    4.4077    0.2111   -0.6135 C   0  0  0  0  0  0  0  0  0  0  0  0
    3.4408   -1.5710    1.3028 C   0  0  0  0  0  0  0  0  0  0  0  0
    5.1251   -0.9467   -0.3128 C   0  0  0  0  0  0  0  0  0  0  0  0
    4.6418   -1.8377    0.6454 C   0  0  0  0  0  0  0  0  0  0  0  0
    0.5300    0.4723   -0.8993 C   0  0  0  0  0  0  0  0  0  0  0  0
   -1.5920   -0.7957   -0.6873 C   0  0  0  0  0  0  0  0  0  0  0  0
   -0.9144    0.3583   -0.5865 C   0  0  0  0  0  0  0  0  0  0  0  0
   -0.9422   -2.0721   -1.1267 C   0  0  0  0  0  0  0  0  0  0  0  0
   -3.0955   -0.3172    2.5087 C   0  0  0  0  0  0  0  0  0  0  0  0
   -5.9972   -0.8537   -0.6065 C   0  0  0  0  0  0  0  0  0  0  0  0
    2.6034    2.0006   -1.3259 H   0  0  0  0  0  0  0  0  0  0  0  0
    3.9127    3.1275    0.4908 H   0  0  0  0  0  0  0  0  0  0  0  0
    2.6561    2.6754    1.6619 H   0  0  0  0  0  0  0  0  0  0  0  0
    2.2624    3.7783    0.3516 H   0  0  0  0  0  0  0  0  0  0  0  0
    1.8052   -0.2194    1.5487 H   0  0  0  0  0  0  0  0  0  0  0  0
    4.7928    0.8998   -1.3599 H   0  0  0  0  0  0  0  0  0  0  0  0
    3.0674   -2.2620    2.0529 H   0  0  0  0  0  0  0  0  0  0  0  0
    6.0606   -1.1541   -0.8242 H   0  0  0  0  0  0  0  0  0  0  0  0
    5.2012   -2.7384    0.8807 H   0  0  0  0  0  0  0  0  0  0  0  0
   -1.3733    1.2766   -0.2408 H   0  0  0  0  0  0  0  0  0  0  0  0
   -1.5748   -2.9275   -0.8637 H   0  0  0  0  0  0  0  0  0  0  0  0
    0.0204   -2.2375   -0.6325 H   0  0  0  0  0  0  0  0  0  0  0  0
   -0.8077   -2.0848   -2.2127 H   0  0  0  0  0  0  0  0  0  0  0  0
   -2.6791    0.0987    3.4297 H   0  0  0  0  0  0  0  0  0  0  0  0
   -4.0875   -0.7204    2.7265 H   0  0  0  0  0  0  0  0  0  0  0  0
   -2.4360   -1.1146    2.1588 H   0  0  0  0  0  0  0  0  0  0  0  0
   -5.4650   -1.6998   -1.0484 H   0  0  0  0  0  0  0  0  0  0  0  0
   -6.9500   -1.2035   -0.2019 H   0  0  0  0  0  0  0  0  0  0  0  0
   -6.1899   -0.0951   -1.3694 H   0  0  0  0  0  0  0  0  0  0  0  0
  1  3  1  0  0  0  0
  1  4  1  0  0  0  0
  1  5  1  0  0  0  0
  1  7  2  0  0  0  0
  2  8  1  0  0  0  0
  2 16  1  0  0  0  0
  3 17  1  0  0  0  0
  4 20  1  0  0  0  0
  5 21  1  0  0  0  0
  6 16  2  0  0  0  0
  8  9  1  0  0  0  0
  8 10  1  0  0  0  0
  8 22  1  0  0  0  0
  9 11  2  0  0  0  0
  9 12  1  0  0  0  0
 10 23  1  0  0  0  0
 10 24  1  0  0  0  0
 10 25  1  0  0  0  0
 11 13  1  0  0  0  0
 11 26  1  0  0  0  0
 12 14  2  0  0  0  0
 12 27  1  0  0  0  0
 13 15  2  0  0  0  0
 13 28  1  0  0  0  0
 14 15  1  0  0  0  0
 14 29  1  0  0  0  0
 15 30  1  0  0  0  0
 16 18  1  0  0  0  0
 17 18  2  0  0  0  0
 17 19  1  0  0  0  0
 18 31  1  0  0  0  0
 19 32  1  0  0  0  0
 19 33  1  0  0  0  0
 19 34  1  0  0  0  0
 20 35  1  0  0  0  0
 20 36  1  0  0  0  0
 20 37  1  0  0  0  0
 21 38  1  0  0  0  0
 21 39  1  0  0  0  0
 21 40  1  0  0  0  0
M  END
> <PUBCHEM_COMPOUND_CID>
5371578

> <PUBCHEM_CONFORMER_RMSD>
1

> <PUBCHEM_CONFORMER_DIVERSEORDER>
3
110
25
98
105
28
228
162
183
182
118
11
239
203
35
43
46
238
65
32
64
82
177
12
127
69
109
6
194
176
73
235
115
156
41
30
51
164
135
244
67
117
210
59
185
139
101
112
211
198
146
190
209
60
14
151
133
102
129
56
227
137
131
200
74
222
215
202
216
233
240
22
4
71
219
70
178
201
237
132
121
136
236
34
242
122
150
63
231
39
42
106
170
189
113
172
68
97
175
147
50
193
232
153
95
197
29
168
58
186
184
44
169
229
166
81
87
155
220
154
179
205
80
218
72
120
91
187
18
174
124
48
226
54
192
19
75
217
119
88
103
20
17
159
213
134
130
206
9
78
10
141
142
13
212
241
224
104
23
243
111
125
57
214
83
123
116
144
126
167
230
79
107
148
15
157
143
89
94
138
160
24
100
207
26
40
33
181
47
37
16
90
27
5
161
76
171
204
234
152
77
53
1
52
145
114
49
191
84
158
36
85
2
196
38
45
173
140
21
221
55
96
225
92
165
86
31
108
8
66
7
128
180
188
99
93
61
163
199
223
149
62
208
195

> <PUBCHEM_MMFF94_PARTIAL_CHARGES>
26
1 1.51
11 -0.15
12 -0.15
13 -0.15
14 -0.15
15 -0.15
16 0.71
17 -0.06
18 -0.14
19 0.14
2 -0.43
20 0.28
21 0.28
26 0.15
27 0.15
28 0.15
29 0.15
3 -0.35
30 0.15
31 0.15
4 -0.55
5 -0.55
6 -0.57
7 -0.7
8 0.42
9 -0.14

> <PUBCHEM_EFFECTIVE_ROTOR_COUNT>
8

> <PUBCHEM_PHARMACOPHORE_FEATURES>
3
1 6 acceptor
1 7 acceptor
6 9 11 12 13 14 15 rings

> <PUBCHEM_HEAVY_ATOM_COUNT>
21

> <PUBCHEM_ATOM_DEF_STEREO_COUNT>
0

> <PUBCHEM_ATOM_UDEF_STEREO_COUNT>
1

> <PUBCHEM_BOND_DEF_STEREO_COUNT>
1

> <PUBCHEM_BOND_UDEF_STEREO_COUNT>
0

> <PUBCHEM_ISOTOPIC_ATOM_COUNT>
0

> <PUBCHEM_COMPONENT_COUNT>
1

> <PUBCHEM_CACTVS_TAUTO_COUNT>
1

> <PUBCHEM_CONFORMER_ID>
0051F6BA00000003

> <PUBCHEM_MMFF94_ENERGY>
51.2789

> <PUBCHEM_FEATURE_SELFOVERLAP>
15.223

> <PUBCHEM_SHAPE_FINGERPRINT>
10366900 7 17846779624122353449
10646746 165 14996277046131975296
12166972 35 17822011999467686537
12236239 1 18260829297668008851
12403260 363 18259987067936046717
12553582 1 18339094769365159318
12592029 89 18410012160933661739
12596602 18 17967537860940899698
12633257 1 18114176445282052260
12670546 56 18410578366229401453
13533116 47 18272937111524330187
13583140 156 18198614454576232769
13911852 28 18196097861449980814
13914758 101 18341618157430873205
14178342 30 17834130645241707036
14251764 18 18041000622597083654
14386348 63 16774076271606457402
14573314 32 16845580837519059487
14739800 52 17024041350169163528
15375462 189 18271811246156365906
15527383 91 18342461430824453512
17349148 13 17676489440919165589
192875 21 17240485797221855497
20567600 75 17346323721681450215
20645477 70 18342744018055171854
21150785 3 11455886933055995203
2215653 11 17275390902226650451
23402539 116 17095248012517069117
23557571 272 4751162912818116347
23559900 14 16988554659468758749
345986 75 18267599076886373706
4325135 7 13973959888175589654
465052 167 18410572890188388350
5104073 3 18115587041802599707
54039377 194 18128255782925955722
8509985 295 17967254182524555488

> <PUBCHEM_SHAPE_MULTIPOLES>
400.8
12.05
2.08
1.53
7.57
0.75
-0.75
-2.89
-1.22
-2.04
-0.1
0.93
-0.28
-0.58

> <PUBCHEM_SHAPE_SELFOVERLAP>
801.023

> <PUBCHEM_SHAPE_VOLUME>
237.4

> <PUBCHEM_COORDINATE_TYPE>
2
5
10

$$$$

