443502
  -OEChem-07051213023D

 29 29  0     1  0  0  0  0  0999 V2000
   -1.5808    0.8444   -0.5410 O   0  0  0  0  0  0  0  0  0  0  0  0
    1.7319   -1.5482    0.3526 O   0  0  0  0  0  0  0  0  0  0  0  0
    1.3347    1.0039   -0.8470 O   0  0  0  0  0  0  0  0  0  0  0  0
    0.0250   -1.2264   -1.8900 O   0  0  0  0  0  0  0  0  0  0  0  0
   -1.1694    1.3517    1.7462 O   0  0  0  0  0  0  0  0  0  0  0  0
    0.4897   -0.8642    0.4670 C   0  0  2  0  0  0  0  0  0  0  0  0
   -0.5115   -1.3715   -0.5726 C   0  0  1  0  0  0  0  0  0  0  0  0
    0.6889    0.6502    0.3748 C   0  0  2  0  0  0  0  0  0  0  0  0
   -1.8173   -0.5697   -0.5202 C   0  0  1  0  0  0  0  0  0  0  0  0
   -0.6588    1.3723    0.4183 C   0  0  1  0  0  0  0  0  0  0  0  0
   -2.7211   -0.9686    0.6436 C   0  0  0  0  0  0  0  0  0  0  0  0
    2.6628   -1.0814    1.3139 C   0  0  0  0  0  0  0  0  0  0  0  0
    1.5259    2.4077   -0.9456 C   0  0  0  0  0  0  0  0  0  0  0  0
    0.0800   -1.1027    1.4577 H   0  0  0  0  0  0  0  0  0  0  0  0
   -0.6915   -2.4428   -0.4284 H   0  0  0  0  0  0  0  0  0  0  0  0
    1.3006    1.0052    1.2125 H   0  0  0  0  0  0  0  0  0  0  0  0
   -2.3845   -0.7679   -1.4381 H   0  0  0  0  0  0  0  0  0  0  0  0
   -0.5697    2.4333    0.1810 H   0  0  0  0  0  0  0  0  0  0  0  0
   -3.0606   -2.0033    0.5299 H   0  0  0  0  0  0  0  0  0  0  0  0
   -2.2195   -0.8918    1.6115 H   0  0  0  0  0  0  0  0  0  0  0  0
   -3.6000   -0.3165    0.6856 H   0  0  0  0  0  0  0  0  0  0  0  0
   -0.6082   -1.6244   -2.5115 H   0  0  0  0  0  0  0  0  0  0  0  0
   -1.7453    2.1282    1.8494 H   0  0  0  0  0  0  0  0  0  0  0  0
    2.2133   -0.9694    2.3061 H   0  0  0  0  0  0  0  0  0  0  0  0
    3.1370   -0.1515    0.9871 H   0  0  0  0  0  0  0  0  0  0  0  0
    3.4576   -1.8296    1.3935 H   0  0  0  0  0  0  0  0  0  0  0  0
    1.7654    2.8733    0.0162 H   0  0  0  0  0  0  0  0  0  0  0  0
    0.6639    2.8855   -1.4200 H   0  0  0  0  0  0  0  0  0  0  0  0
    2.3781    2.5739   -1.6124 H   0  0  0  0  0  0  0  0  0  0  0  0
  1  9  1  0  0  0  0
  1 10  1  0  0  0  0
  2  6  1  0  0  0  0
  2 12  1  0  0  0  0
  3  8  1  0  0  0  0
  3 13  1  0  0  0  0
  4  7  1  0  0  0  0
  4 22  1  0  0  0  0
  5 10  1  0  0  0  0
  5 23  1  0  0  0  0
  6  7  1  0  0  0  0
  6  8  1  0  0  0  0
  6 14  1  0  0  0  0
  7  9  1  0  0  0  0
  7 15  1  0  0  0  0
  8 10  1  0  0  0  0
  8 16  1  0  0  0  0
  9 11  1  0  0  0  0
  9 17  1  0  0  0  0
 10 18  1  0  0  0  0
 11 19  1  0  0  0  0
 11 20  1  0  0  0  0
 11 21  1  0  0  0  0
 12 24  1  0  0  0  0
 12 25  1  0  0  0  0
 12 26  1  0  0  0  0
 13 27  1  0  0  0  0
 13 28  1  0  0  0  0
 13 29  1  0  0  0  0
M  END
> <PUBCHEM_COMPOUND_CID>
443502

> <PUBCHEM_CONFORMER_RMSD>
0.6

> <PUBCHEM_CONFORMER_DIVERSEORDER>
1
7
4
2
3
6
5

> <PUBCHEM_MMFF94_PARTIAL_CHARGES>
14
1 -0.56
10 0.56
12 0.28
13 0.28
2 -0.56
22 0.4
23 0.4
3 -0.56
4 -0.68
5 -0.68
6 0.28
7 0.28
8 0.28
9 0.28

> <PUBCHEM_EFFECTIVE_ROTOR_COUNT>
3.2

> <PUBCHEM_PHARMACOPHORE_FEATURES>
8
1 1 acceptor
1 2 acceptor
1 3 acceptor
1 4 acceptor
1 4 donor
1 5 acceptor
1 5 donor
6 1 6 7 8 9 10 rings

> <PUBCHEM_HEAVY_ATOM_COUNT>
13

> <PUBCHEM_ATOM_DEF_STEREO_COUNT>
4

> <PUBCHEM_ATOM_UDEF_STEREO_COUNT>
1

> <PUBCHEM_BOND_DEF_STEREO_COUNT>
0

> <PUBCHEM_BOND_UDEF_STEREO_COUNT>
0

> <PUBCHEM_ISOTOPIC_ATOM_COUNT>
0

> <PUBCHEM_COMPONENT_COUNT>
1

> <PUBCHEM_CACTVS_TAUTO_COUNT>
1

> <PUBCHEM_CONFORMER_ID>
0006C46E00000001

> <PUBCHEM_MMFF94_ENERGY>
47.5542

> <PUBCHEM_FEATURE_SELFOVERLAP>
40.644

> <PUBCHEM_SHAPE_FINGERPRINT>
11680611 10 18124282100008654067
12423570 1 15440170437209257844
13024252 1 15838736204060764362
15557651 10 17831292805440208493
16945 1 18199192784606944303
20511035 2 18336001816911531389
23211744 25 17183348313668378709
23419403 2 13857542441063571423
23552423 10 18199193892655798094
241688 4 17254262948495169911
2748010 2 17328011582916503013
369184 2 17558004006304798266
4369600 1 17532642439149092717
5084963 1 18410859875449578747
528862 383 18129106614907147178
53812654 25 17824281314168625535
54276843 12 18334295374680756178
54338 74 17984717863136763234

> <PUBCHEM_SHAPE_MULTIPOLES>
238.19
2.99
2.17
1.41
0.37
0.59
0.05
-0.67
-0.6
-1.24
0.06
0.01
0
-0.86

> <PUBCHEM_SHAPE_SELFOVERLAP>
471.189

> <PUBCHEM_SHAPE_VOLUME>
139.4

> <PUBCHEM_COORDINATE_TYPE>
2
5
10

$$$$

