11954182
  -OEChem-07051213072D

 55 60  0     1  0  0  0  0  0999 V2000
    6.7580   -2.4946    0.0000 O   0  0  0  0  0  0  0  0  0  0  0  0
    3.3742    1.9901    0.0000 O   0  0  0  0  0  0  0  0  0  0  0  0
    2.0000    3.1245    0.0000 O   0  0  0  0  0  0  0  0  0  0  0  0
    5.0260   -2.4946    0.0000 C   0  0  3  0  0  0  0  0  0  0  0  0
    4.1599   -1.9946    0.0000 C   0  0  1  0  0  0  0  0  0  0  0  0
    4.8168   -3.4664    0.0000 C   0  0  3  0  0  0  0  0  0  0  0  0
    5.7635   -3.1618    0.0000 C   0  0  0  0  0  0  0  0  0  0  0  0
    4.1599   -0.9946    0.0000 C   0  0  2  0  0  0  0  0  0  0  0  0
    5.8920   -1.9946    0.0000 C   0  0  1  0  0  0  0  0  0  0  0  0
    5.0260   -0.4946    0.0000 C   0  0  1  0  0  0  0  0  0  0  0  0
    3.4229   -2.6617    0.0000 C   0  0  0  0  0  0  0  0  0  0  0  0
    3.8280   -3.5695    0.0000 C   0  0  0  0  0  0  0  0  0  0  0  0
    5.8920   -0.9946    0.0000 C   0  0  0  0  0  0  0  0  0  0  0  0
    5.0420    0.5469    0.0000 C   0  0  1  0  0  0  0  0  0  0  0  0
    4.1440    1.0746    0.0000 C   0  0  2  0  0  0  0  0  0  0  0  0
    3.2499   -0.4878    0.0000 C   0  0  0  0  0  0  0  0  0  0  0  0
    3.2939   -1.4946    0.0000 C   0  0  0  0  0  0  0  0  0  0  0  0
    3.2419    0.5538    0.0000 C   0  0  0  0  0  0  0  0  0  0  0  0
    4.3697    2.0852    0.0000 C   0  0  2  0  0  0  0  0  0  0  0  0
    5.8151    1.2358    0.0000 C   0  0  0  0  0  0  0  0  0  0  0  0
    5.4004    2.1846    0.0000 C   0  0  0  0  0  0  0  0  0  0  0  0
    3.1606    1.2559    0.0000 C   0  0  0  0  0  0  0  0  0  0  0  0
    4.5868    3.0613    0.0000 C   0  0  0  0  0  0  0  0  0  0  0  0
    3.7256    3.5695    0.0000 C   0  0  0  0  0  0  0  0  0  0  0  0
    2.9761    2.9074    0.0000 C   0  0  0  0  0  0  0  0  0  0  0  0
    4.9445   -4.0731    0.0000 H   0  0  0  0  0  0  0  0  0  0  0  0
    6.0531   -3.7100    0.0000 H   0  0  0  0  0  0  0  0  0  0  0  0
    6.2530   -2.7813    0.0000 H   0  0  0  0  0  0  0  0  0  0  0  0
    3.4271   -1.4253    0.0000 H   0  0  0  0  0  0  0  0  0  0  0  0
    5.8920   -2.6146    0.0000 H   0  0  0  0  0  0  0  0  0  0  0  0
    5.7653   -0.0753    0.0000 H   0  0  0  0  0  0  0  0  0  0  0  0
    3.0575   -2.1608    0.0000 H   0  0  0  0  0  0  0  0  0  0  0  0
    2.8864   -2.9725    0.0000 H   0  0  0  0  0  0  0  0  0  0  0  0
    3.2384   -3.7613    0.0000 H   0  0  0  0  0  0  0  0  0  0  0  0
    3.9568   -4.1760    0.0000 H   0  0  0  0  0  0  0  0  0  0  0  0
    6.5026   -1.1023    0.0000 H   0  0  0  0  0  0  0  0  0  0  0  0
    6.1040   -0.4120    0.0000 H   0  0  0  0  0  0  0  0  0  0  0  0
    5.8149    0.1932    0.0000 H   0  0  0  0  0  0  0  0  0  0  0  0
    2.6383   -0.3864    0.0000 H   0  0  0  0  0  0  0  0  0  0  0  0
    3.0454   -1.0731    0.0000 H   0  0  0  0  0  0  0  0  0  0  0  0
    3.6039   -0.9577    0.0000 H   0  0  0  0  0  0  0  0  0  0  0  0
    2.7570   -1.1846    0.0000 H   0  0  0  0  0  0  0  0  0  0  0  0
    2.9839   -2.0316    0.0000 H   0  0  0  0  0  0  0  0  0  0  0  0
    3.0284    1.1359    0.0000 H   0  0  0  0  0  0  0  0  0  0  0  0
    2.6319    0.4430    0.0000 H   0  0  0  0  0  0  0  0  0  0  0  0
    6.1766    0.7321    0.0000 H   0  0  0  0  0  0  0  0  0  0  0  0
    6.3539    1.5424    0.0000 H   0  0  0  0  0  0  0  0  0  0  0  0
    5.9914    2.3718    0.0000 H   0  0  0  0  0  0  0  0  0  0  0  0
    5.2763    2.7921    0.0000 H   0  0  0  0  0  0  0  0  0  0  0  0
    7.2950   -2.1846    0.0000 H   0  0  0  0  0  0  0  0  0  0  0  0
    3.2729    1.8656    0.0000 H   0  0  0  0  0  0  0  0  0  0  0  0
    2.5508    1.3682    0.0000 H   0  0  0  0  0  0  0  0  0  0  0  0
    3.0482    0.6461    0.0000 H   0  0  0  0  0  0  0  0  0  0  0  0
    5.1556    3.3082    0.0000 H   0  0  0  0  0  0  0  0  0  0  0  0
    3.6666    4.1867    0.0000 H   0  0  0  0  0  0  0  0  0  0  0  0
  9  1  1  1  0  0  0
  1 50  1  0  0  0  0
 19  2  1  1  0  0  0
  2 25  1  0  0  0  0
  3 25  2  0  0  0  0
  4  5  1  0  0  0  0
  4  6  1  0  0  0  0
  4  7  1  0  0  0  0
  4  9  1  0  0  0  0
  5  8  1  0  0  0  0
  5 11  1  0  0  0  0
  5 17  1  1  0  0  0
  6  7  1  0  0  0  0
  6 12  1  0  0  0  0
  6 26  1  0  0  0  0
  7 27  1  0  0  0  0
  7 28  1  0  0  0  0
  8 10  1  0  0  0  0
  8 16  1  0  0  0  0
  8 29  1  6  0  0  0
  9 13  1  0  0  0  0
  9 30  1  0  0  0  0
 10 13  1  0  0  0  0
 10 14  1  0  0  0  0
 10 31  1  1  0  0  0
 11 12  1  0  0  0  0
 11 32  1  0  0  0  0
 11 33  1  0  0  0  0
 12 34  1  0  0  0  0
 12 35  1  0  0  0  0
 13 36  1  0  0  0  0
 13 37  1  0  0  0  0
 14 15  1  0  0  0  0
 14 20  1  0  0  0  0
 14 38  1  6  0  0  0
 15 18  1  0  0  0  0
 15 19  1  0  0  0  0
 15 22  1  1  0  0  0
 16 18  1  0  0  0  0
 16 39  1  0  0  0  0
 16 40  1  0  0  0  0
 17 41  1  0  0  0  0
 17 42  1  0  0  0  0
 17 43  1  0  0  0  0
 18 44  1  0  0  0  0
 18 45  1  0  0  0  0
 19 21  1  0  0  0  0
 19 23  1  0  0  0  0
 20 21  1  0  0  0  0
 20 46  1  0  0  0  0
 20 47  1  0  0  0  0
 21 48  1  0  0  0  0
 21 49  1  0  0  0  0
 22 51  1  0  0  0  0
 22 52  1  0  0  0  0
 22 53  1  0  0  0  0
 23 24  2  0  0  0  0
 23 54  1  0  0  0  0
 24 25  1  0  0  0  0
 24 55  1  0  0  0  0
M  END
> <PUBCHEM_COMPOUND_CID>
11954182

> <PUBCHEM_COMPOUND_CANONICALIZED>
1

> <PUBCHEM_CACTVS_COMPLEXITY>
699

> <PUBCHEM_CACTVS_HBOND_ACCEPTOR>
3

> <PUBCHEM_CACTVS_HBOND_DONOR>
1

> <PUBCHEM_CACTVS_ROTATABLE_BOND>
0

> <PUBCHEM_CACTVS_SUBSKEYS>
AAADceB4MAAAAAAAAAAAAAAAGAAAAYMEAAAwYMAAAAAAAGDAAAAAGgAACAAAD1SggAICCAAABgCIACDSCAAAAAAgAAAICAAAAEgAFAIAIAACUAAEgAAIIYOAwPAPgAAAAAAAAADAAAYAADAAAYAADAAAAA==

> <PUBCHEM_IUPAC_INCHI>
InChI=1S/C22H30O3/c1-19-8-4-16-14(15(19)5-9-21(19)10-6-18(24)25-21)11-17(23)22-12-13(22)3-7-20(16,22)2/h6,10,13-17,23H,3-5,7-9,11-12H2,1-2H3/t13?,14-,15-,16-,17+,19-,20+,21+,22?/m0/s1

> <PUBCHEM_IUPAC_INCHIKEY>
OUBYDRMNFCCAQT-CNGBPTJQSA-N

> <PUBCHEM_XLOGP3_AA>
4.2

> <PUBCHEM_EXACT_MASS>
342.219495

> <PUBCHEM_MOLECULAR_FORMULA>
C22H30O3

> <PUBCHEM_MOLECULAR_WEIGHT>
342.4718

> <PUBCHEM_OPENEYE_CAN_SMILES>
CC12CCC3C1(C3)C(CC4C2CCC5(C4CCC56C=CC(=O)O6)C)O

> <PUBCHEM_OPENEYE_ISO_SMILES>
C[C@]12CC[C@H]3[C@H]([C@@H]1CC[C@@]24C=CC(=O)O4)C[C@H](C56[C@@]3(CCC5C6)C)O

> <PUBCHEM_CACTVS_TPSA>
46.5

> <PUBCHEM_MONOISOTOPIC_WEIGHT>
342.219495

> <PUBCHEM_TOTAL_CHARGE>
0

> <PUBCHEM_HEAVY_ATOM_COUNT>
25

> <PUBCHEM_ATOM_DEF_STEREO_COUNT>
7

> <PUBCHEM_ATOM_UDEF_STEREO_COUNT>
2

> <PUBCHEM_BOND_DEF_STEREO_COUNT>
0

> <PUBCHEM_BOND_UDEF_STEREO_COUNT>
0

> <PUBCHEM_ISOTOPIC_ATOM_COUNT>
0

> <PUBCHEM_COMPONENT_COUNT>
1

> <PUBCHEM_CACTVS_TAUTO_COUNT>
1

> <PUBCHEM_COORDINATE_TYPE>
1
5
255

> <PUBCHEM_BONDANNOTATIONS>
9  1  5
10  31  5
14  38  6
15  22  5
19  2  5
4  7  3
5  17  5
6  7  3
8  29  6

$$$$

