6729
  -OEChem-07051212543D

 64 67  0     1  0  0  0  0  0999 V2000
   -7.6330    2.9311   -0.0800 Cl  0  0  0  0  0  0  0  0  0  0  0  0
   -1.5107    0.2166   -0.1389 N   0  0  0  0  0  0  0  0  0  0  0  0
    1.0726    1.5112   -0.2361 N   0  0  0  0  0  0  0  0  0  0  0  0
   -1.3592    1.6404    0.1851 C   0  0  0  0  0  0  0  0  0  0  0  0
   -0.2789   -0.5152    0.1807 C   0  0  0  0  0  0  0  0  0  0  0  0
   -0.1595    2.2435   -0.5537 C   0  0  0  0  0  0  0  0  0  0  0  0
    0.9206    0.0872   -0.5592 C   0  0  0  0  0  0  0  0  0  0  0  0
   -2.6538   -0.3578    0.5676 C   0  0  1  0  0  0  0  0  0  0  0  0
    2.2150    2.0851   -0.9445 C   0  0  0  0  0  0  0  0  0  0  0  0
   -3.9156    0.4766    0.4030 C   0  0  0  0  0  0  0  0  0  0  0  0
   -2.8879   -1.8164    0.2031 C   0  0  0  0  0  0  0  0  0  0  0  0
    3.5038    1.3971   -0.5808 C   0  0  0  0  0  0  0  0  0  0  0  0
    7.1577   -0.5504    0.4500 C   0  0  0  0  0  0  0  0  0  0  0  0
    5.8805    0.1304    0.0899 C   0  0  0  0  0  0  0  0  0  0  0  0
    3.7792    1.1226    0.7513 C   0  0  0  0  0  0  0  0  0  0  0  0
    4.3983    1.0481   -1.5828 C   0  0  0  0  0  0  0  0  0  0  0  0
   -4.1787    1.4762    1.3173 C   0  0  0  0  0  0  0  0  0  0  0  0
   -4.7598    0.2083   -0.6554 C   0  0  0  0  0  0  0  0  0  0  0  0
   -3.4455   -2.6581    1.1441 C   0  0  0  0  0  0  0  0  0  0  0  0
   -2.5359   -2.2542   -1.0575 C   0  0  0  0  0  0  0  0  0  0  0  0
    4.9736    0.4861    1.0884 C   0  0  0  0  0  0  0  0  0  0  0  0
    5.5928    0.4115   -1.2458 C   0  0  0  0  0  0  0  0  0  0  0  0
    8.0951   -0.8992   -0.7535 C   0  0  0  0  0  0  0  0  0  0  0  0
    8.0198    0.3322    1.4050 C   0  0  0  0  0  0  0  0  0  0  0  0
    6.8913   -1.9060    1.1750 C   0  0  0  0  0  0  0  0  0  0  0  0
   -5.3360    2.2404    1.1670 C   0  0  0  0  0  0  0  0  0  0  0  0
   -5.9170    0.9725   -0.8059 C   0  0  0  0  0  0  0  0  0  0  0  0
   -3.6602   -3.9953    0.8102 C   0  0  0  0  0  0  0  0  0  0  0  0
   -2.7508   -3.5914   -1.3914 C   0  0  0  0  0  0  0  0  0  0  0  0
   -6.2051    1.9886    0.1053 C   0  0  0  0  0  0  0  0  0  0  0  0
   -3.3130   -4.4619   -0.4576 C   0  0  0  0  0  0  0  0  0  0  0  0
   -1.2339    1.7964    1.2650 H   0  0  0  0  0  0  0  0  0  0  0  0
   -2.2143    2.2301   -0.1590 H   0  0  0  0  0  0  0  0  0  0  0  0
   -0.0826   -0.4844    1.2621 H   0  0  0  0  0  0  0  0  0  0  0  0
   -0.3128   -1.5721   -0.0965 H   0  0  0  0  0  0  0  0  0  0  0  0
   -0.3509    2.2368   -1.6356 H   0  0  0  0  0  0  0  0  0  0  0  0
   -0.0562    3.2916   -0.2471 H   0  0  0  0  0  0  0  0  0  0  0  0
    1.7967   -0.4986   -0.2617 H   0  0  0  0  0  0  0  0  0  0  0  0
    0.7906   -0.0557   -1.6411 H   0  0  0  0  0  0  0  0  0  0  0  0
   -2.4136   -0.3564    1.6436 H   0  0  0  0  0  0  0  0  0  0  0  0
    2.3266    3.1449   -0.6801 H   0  0  0  0  0  0  0  0  0  0  0  0
    2.0529    2.0432   -2.0301 H   0  0  0  0  0  0  0  0  0  0  0  0
    3.0934    1.4038    1.5456 H   0  0  0  0  0  0  0  0  0  0  0  0
    4.1857    1.2630   -2.6262 H   0  0  0  0  0  0  0  0  0  0  0  0
   -3.5195    1.6746    2.1569 H   0  0  0  0  0  0  0  0  0  0  0  0
   -4.5641   -0.5537   -1.4002 H   0  0  0  0  0  0  0  0  0  0  0  0
   -3.7206   -2.3036    2.1329 H   0  0  0  0  0  0  0  0  0  0  0  0
   -2.1235   -1.5990   -1.8186 H   0  0  0  0  0  0  0  0  0  0  0  0
    5.1736    0.2817    2.1363 H   0  0  0  0  0  0  0  0  0  0  0  0
    6.2612    0.1577   -2.0611 H   0  0  0  0  0  0  0  0  0  0  0  0
    9.0107   -1.3958   -0.4098 H   0  0  0  0  0  0  0  0  0  0  0  0
    7.6065   -1.5816   -1.4588 H   0  0  0  0  0  0  0  0  0  0  0  0
    8.4042    0.0017   -1.2963 H   0  0  0  0  0  0  0  0  0  0  0  0
    7.5078    0.5300    2.3530 H   0  0  0  0  0  0  0  0  0  0  0  0
    8.9716   -0.1547    1.6473 H   0  0  0  0  0  0  0  0  0  0  0  0
    8.2452    1.3005    0.9426 H   0  0  0  0  0  0  0  0  0  0  0  0
    7.8288   -2.4209    1.4150 H   0  0  0  0  0  0  0  0  0  0  0  0
    6.3491   -1.7666    2.1167 H   0  0  0  0  0  0  0  0  0  0  0  0
    6.2924   -2.5735    0.5443 H   0  0  0  0  0  0  0  0  0  0  0  0
   -5.5493    3.0267    1.8865 H   0  0  0  0  0  0  0  0  0  0  0  0
   -6.5827    0.7689   -1.6408 H   0  0  0  0  0  0  0  0  0  0  0  0
   -4.0988   -4.6729    1.5369 H   0  0  0  0  0  0  0  0  0  0  0  0
   -2.4867   -3.9536   -2.3807 H   0  0  0  0  0  0  0  0  0  0  0  0
   -3.4819   -5.5026   -0.7183 H   0  0  0  0  0  0  0  0  0  0  0  0
  1 30  1  0  0  0  0
  2  4  1  0  0  0  0
  2  5  1  0  0  0  0
  2  8  1  0  0  0  0
  3  6  1  0  0  0  0
  3  7  1  0  0  0  0
  3  9  1  0  0  0  0
  4  6  1  0  0  0  0
  4 32  1  0  0  0  0
  4 33  1  0  0  0  0
  5  7  1  0  0  0  0
  5 34  1  0  0  0  0
  5 35  1  0  0  0  0
  6 36  1  0  0  0  0
  6 37  1  0  0  0  0
  7 38  1  0  0  0  0
  7 39  1  0  0  0  0
  8 10  1  0  0  0  0
  8 11  1  0  0  0  0
  8 40  1  0  0  0  0
  9 12  1  0  0  0  0
  9 41  1  0  0  0  0
  9 42  1  0  0  0  0
 10 17  2  0  0  0  0
 10 18  1  0  0  0  0
 11 19  2  0  0  0  0
 11 20  1  0  0  0  0
 12 15  2  0  0  0  0
 12 16  1  0  0  0  0
 13 14  1  0  0  0  0
 13 23  1  0  0  0  0
 13 24  1  0  0  0  0
 13 25  1  0  0  0  0
 14 21  2  0  0  0  0
 14 22  1  0  0  0  0
 15 21  1  0  0  0  0
 15 43  1  0  0  0  0
 16 22  2  0  0  0  0
 16 44  1  0  0  0  0
 17 26  1  0  0  0  0
 17 45  1  0  0  0  0
 18 27  2  0  0  0  0
 18 46  1  0  0  0  0
 19 28  1  0  0  0  0
 19 47  1  0  0  0  0
 20 29  2  0  0  0  0
 20 48  1  0  0  0  0
 21 49  1  0  0  0  0
 22 50  1  0  0  0  0
 23 51  1  0  0  0  0
 23 52  1  0  0  0  0
 23 53  1  0  0  0  0
 24 54  1  0  0  0  0
 24 55  1  0  0  0  0
 24 56  1  0  0  0  0
 25 57  1  0  0  0  0
 25 58  1  0  0  0  0
 25 59  1  0  0  0  0
 26 30  2  0  0  0  0
 26 60  1  0  0  0  0
 27 30  1  0  0  0  0
 27 61  1  0  0  0  0
 28 31  2  0  0  0  0
 28 62  1  0  0  0  0
 29 31  1  0  0  0  0
 29 63  1  0  0  0  0
 31 64  1  0  0  0  0
M  END
> <PUBCHEM_COMPOUND_CID>
6729

> <PUBCHEM_CONFORMER_RMSD>
1

> <PUBCHEM_CONFORMER_DIVERSEORDER>
1
83
46
77
80
89
39
70
74
82
18
84
69
40
37
41
87
76
17
56
78
58
51
38
90
62
71
79
25
47
66
85
29
13
86
72
88
30
54
14
63
73
16
75
48
45
64
91
35
53
24
49
12
65
31
20
60
52
32
55
15
81
36
59
26
23
67
68
19
34
50
27
22
2
44
33
10
3
21
57
11
61
7
42
5
6
43
8
4
9
28

> <PUBCHEM_MMFF94_PARTIAL_CHARGES>
41
1 -0.18
10 -0.14
11 -0.14
12 -0.14
13 0.14
14 -0.14
15 -0.15
16 -0.15
17 -0.15
18 -0.15
19 -0.15
2 -0.81
20 -0.15
21 -0.15
22 -0.15
26 -0.15
27 -0.15
28 -0.15
29 -0.15
3 -0.81
30 0.18
31 -0.15
4 0.27
43 0.15
44 0.15
45 0.15
46 0.15
47 0.15
48 0.15
49 0.15
5 0.27
50 0.15
6 0.27
60 0.15
61 0.15
62 0.15
63 0.15
64 0.15
7 0.27
8 0.56
9 0.41

> <PUBCHEM_EFFECTIVE_ROTOR_COUNT>
7.2

> <PUBCHEM_PHARMACOPHORE_FEATURES>
7
1 2 cation
1 3 cation
4 13 23 24 25 hydrophobe
6 10 17 18 26 27 30 rings
6 11 19 20 28 29 31 rings
6 12 14 15 16 21 22 rings
6 2 3 4 5 6 7 rings

> <PUBCHEM_HEAVY_ATOM_COUNT>
31

> <PUBCHEM_ATOM_DEF_STEREO_COUNT>
0

> <PUBCHEM_ATOM_UDEF_STEREO_COUNT>
1

> <PUBCHEM_BOND_DEF_STEREO_COUNT>
0

> <PUBCHEM_BOND_UDEF_STEREO_COUNT>
0

> <PUBCHEM_ISOTOPIC_ATOM_COUNT>
0

> <PUBCHEM_COMPONENT_COUNT>
1

> <PUBCHEM_CACTVS_TAUTO_COUNT>
1

> <PUBCHEM_CONFORMER_ID>
00001A4900000001

> <PUBCHEM_MMFF94_ENERGY>
107.5788

> <PUBCHEM_FEATURE_SELFOVERLAP>
35.522

> <PUBCHEM_SHAPE_FINGERPRINT>
10050765 1 18194681471176839709
10119406 146 18412827954805446551
10305334 12 18413671322382424011
10319926 262 18187647973188151176
10369192 42 14046020810248500817
10577160 183 18129679576798652455
10622 236 18124599682396081558
11331351 85 17917995001456004076
11524674 6 17894351089951796239
11545043 162 18114461150385321938
11796584 16 18335697231106028790
11809386 21 18268709416090447835
12107183 9 18341893008703181376
12144603 126 18130781266634471356
12202916 173 17603871139033211469
12293681 160 17822291340758560345
12422481 6 17822290168042571494
12616971 3 17632574925294732300
12643181 29 18409730668882154706
13073987 5 18196932171921450132
13540713 5 18056185887188634093
13673619 4 12391503179477469557
13782708 43 17968093063570072286
13947934 56 18271247105811220957
14117953 113 18339640143832487980
14118638 360 18054783975587650084
14150023 24 18271810189715646051
14347332 77 18121777232158846895
14394314 77 18343303644110587904
15021287 119 17346878931666051860
15131766 46 15838985509547955837
15183329 4 18341888619547226868
15347591 1 18267864978280669308
15348495 7 18041000592701397232
15361156 5 17988914544997500876
15439362 3 18120651590424262991
15461852 350 17313389997933042572
15484559 13 15254733995801705045
15537594 2 17775010106884741410
1577012 14 17988639663227788084
17492 89 18051130289726570999
18608769 82 10519695687873599116
19377110 9 7276841185640609532
21049683 271 8213840584733281809
21315763 191 18272931592512187406
22311459 1 18411980303742776684
23522609 53 17915713463183305092
23559900 14 18263086530584526248
23569917 315 18411415103749010951
249057 3 18412544318726586101
2747138 104 9006764402298347093
312425 54 18335991908975796632
335352 9 18341894103846073637
3383291 50 18260545594337092151
397830 11 17895764968238735840
4015057 19 16805610227048622409
4017518 198 18187081797182255686
4073 2 18334295336653642106
4098825 35 11671515525296195208
4403749 210 17749964237290147078
44062 13 18340485556604740181
44880168 125 18201451323730868446
5080951 261 18265074486504103766
5081480 168 14764348189509742998
5085150 59 18113338596153112199
5104073 3 18261948527807587560
513202 73 18198050379837784779
5381727 24 18343300388894428529
559249 180 18412544297557236975
6009941 240 18260550017736162792
6058803 2 18054210043582655629
613672 6 17385994066772754840
6636735 143 17749973071927482442
6691757 9 18187638120564913753
9981440 41 17967526879384912871

> <PUBCHEM_SHAPE_MULTIPOLES>
629.87
22.24
4.2
1.33
30.59
5.28
0.01
-5.11
-3.37
-9.2
0.27
0.81
0.16
-1.27

> <PUBCHEM_SHAPE_SELFOVERLAP>
1344.808

> <PUBCHEM_SHAPE_VOLUME>
351

> <PUBCHEM_COORDINATE_TYPE>
2
5
10

$$$$

