5281655
  -OEChem-07051212583D

 76 81  0     1  0  0  0  0  0999 V2000
    2.9528    1.4854   -1.2302 O   0  0  0  0  0  0  0  0  0  0  0  0
    0.2885    1.1046   -0.1063 O   0  0  0  0  0  0  0  0  0  0  0  0
    4.9143   -0.3023    0.1230 O   0  0  0  0  0  0  0  0  0  0  0  0
    0.1837   -1.1700    3.3573 O   0  0  0  0  0  0  0  0  0  0  0  0
   -4.3203    0.6972   -0.7624 O   0  0  0  0  0  0  0  0  0  0  0  0
   -2.3550   -1.3848    3.1083 O   0  0  0  0  0  0  0  0  0  0  0  0
    2.9761   -4.7422   -2.1743 O   0  0  0  0  0  0  0  0  0  0  0  0
    1.5089    0.9838    0.6181 C   0  0  2  0  0  0  0  0  0  0  0  0
    2.1524    2.3923    0.8363 C   0  0  2  0  0  0  0  0  0  0  0  0
    2.6193    0.4272   -0.3185 C   0  0  2  0  0  0  0  0  0  0  0  0
    2.6538    2.7512   -0.5998 C   0  0  0  0  0  0  0  0  0  0  0  0
    3.3120    2.2408    1.8782 C   0  0  0  0  0  0  0  0  0  0  0  0
    3.7612    0.7694    1.9649 C   0  0  2  0  0  0  0  0  0  0  0  0
    1.4488    0.1610    1.8844 C   0  0  0  0  0  0  0  0  0  0  0  0
    3.8879    0.2236    0.5426 C   0  0  0  0  0  0  0  0  0  0  0  0
    2.6066    0.0009    2.5449 C   0  0  0  0  0  0  0  0  0  0  0  0
    2.2601   -0.8278   -1.0957 C   0  0  0  0  0  0  0  0  0  0  0  0
    1.5796    3.4580   -1.4421 C   0  0  0  0  0  0  0  0  0  0  0  0
    3.9227    3.6088   -0.6727 C   0  0  0  0  0  0  0  0  0  0  0  0
    0.2087   -0.4595    2.3620 C   0  0  0  0  0  0  0  0  0  0  0  0
   -0.8683    0.5963    0.3944 C   0  0  0  0  0  0  0  0  0  0  0  0
   -0.9801   -0.1587    1.5559 C   0  0  0  0  0  0  0  0  0  0  0  0
    2.0038   -1.9878   -0.1751 C   0  0  0  0  0  0  0  0  0  0  0  0
   -2.0139    0.8624   -0.3619 C   0  0  0  0  0  0  0  0  0  0  0  0
   -2.2297   -0.6444    1.9657 C   0  0  0  0  0  0  0  0  0  0  0  0
    2.2076   -3.2893   -0.4406 C   0  0  0  0  0  0  0  0  0  0  0  0
   -3.2624    0.3825    0.0425 C   0  0  0  0  0  0  0  0  0  0  0  0
   -3.3752   -0.3727    1.2082 C   0  0  0  0  0  0  0  0  0  0  0  0
   -1.9099    1.6658   -1.6231 C   0  0  0  0  0  0  0  0  0  0  0  0
    1.9728   -4.4494    0.4741 C   0  0  0  0  0  0  0  0  0  0  0  0
   -4.6753   -0.8705    1.6233 C   0  0  0  0  0  0  0  0  0  0  0  0
    2.7446   -3.6002   -1.7943 C   0  0  0  0  0  0  0  0  0  0  0  0
   -5.6411    0.2387   -0.4017 C   0  0  0  0  0  0  0  0  0  0  0  0
   -0.7502    1.2441   -2.4868 C   0  0  0  0  0  0  0  0  0  0  0  0
   -5.7339   -0.5801    0.8643 C   0  0  0  0  0  0  0  0  0  0  0  0
   -6.1452   -0.5975   -1.5838 C   0  0  0  0  0  0  0  0  0  0  0  0
   -6.5079    1.4951   -0.2562 C   0  0  0  0  0  0  0  0  0  0  0  0
   -0.5343    0.0431   -3.0568 C   0  0  0  0  0  0  0  0  0  0  0  0
    0.6495   -0.3118   -3.9110 C   0  0  0  0  0  0  0  0  0  0  0  0
   -1.5133   -1.0830   -2.8547 C   0  0  0  0  0  0  0  0  0  0  0  0
    1.4360    3.1429    1.1898 H   0  0  0  0  0  0  0  0  0  0  0  0
    2.9363    2.5612    2.8606 H   0  0  0  0  0  0  0  0  0  0  0  0
    4.1624    2.8942    1.6756 H   0  0  0  0  0  0  0  0  0  0  0  0
    4.6801    0.6344    2.5391 H   0  0  0  0  0  0  0  0  0  0  0  0
    2.7171   -0.5728    3.4562 H   0  0  0  0  0  0  0  0  0  0  0  0
    3.0537   -0.9964   -1.8259 H   0  0  0  0  0  0  0  0  0  0  0  0
    1.3406   -0.6500   -1.6259 H   0  0  0  0  0  0  0  0  0  0  0  0
    1.7113    3.2544   -2.5092 H   0  0  0  0  0  0  0  0  0  0  0  0
    0.5692    3.1974   -1.1386 H   0  0  0  0  0  0  0  0  0  0  0  0
    1.6350    4.5443   -1.2990 H   0  0  0  0  0  0  0  0  0  0  0  0
    4.8096    3.0546   -0.3480 H   0  0  0  0  0  0  0  0  0  0  0  0
    4.1336    3.8946   -1.7108 H   0  0  0  0  0  0  0  0  0  0  0  0
    3.8262    4.5253   -0.0821 H   0  0  0  0  0  0  0  0  0  0  0  0
    1.5359   -1.8413    0.7785 H   0  0  0  0  0  0  0  0  0  0  0  0
   -2.8123    1.6362   -2.2435 H   0  0  0  0  0  0  0  0  0  0  0  0
   -1.7832    2.7192   -1.3427 H   0  0  0  0  0  0  0  0  0  0  0  0
    1.5955   -4.1217    1.4485 H   0  0  0  0  0  0  0  0  0  0  0  0
    2.9039   -4.9990    0.6453 H   0  0  0  0  0  0  0  0  0  0  0  0
    1.2351   -5.1342    0.0437 H   0  0  0  0  0  0  0  0  0  0  0  0
   -4.7861   -1.4611    2.5243 H   0  0  0  0  0  0  0  0  0  0  0  0
   -1.5419   -1.3556    3.6338 H   0  0  0  0  0  0  0  0  0  0  0  0
    2.8981   -2.7768   -2.4991 H   0  0  0  0  0  0  0  0  0  0  0  0
   -0.0652    2.0304   -2.7735 H   0  0  0  0  0  0  0  0  0  0  0  0
   -6.7120   -0.9470    1.1663 H   0  0  0  0  0  0  0  0  0  0  0  0
   -6.0995   -0.0228   -2.5164 H   0  0  0  0  0  0  0  0  0  0  0  0
   -7.1768   -0.9362   -1.4381 H   0  0  0  0  0  0  0  0  0  0  0  0
   -5.5113   -1.4796   -1.7354 H   0  0  0  0  0  0  0  0  0  0  0  0
   -6.1384    2.1320    0.5566 H   0  0  0  0  0  0  0  0  0  0  0  0
   -7.5560    1.2503   -0.0516 H   0  0  0  0  0  0  0  0  0  0  0  0
   -6.4679    2.1048   -1.1667 H   0  0  0  0  0  0  0  0  0  0  0  0
    1.4564    0.4217   -3.8122 H   0  0  0  0  0  0  0  0  0  0  0  0
    1.0467   -1.3008   -3.6641 H   0  0  0  0  0  0  0  0  0  0  0  0
    0.3470   -0.3351   -4.9636 H   0  0  0  0  0  0  0  0  0  0  0  0
   -2.5191   -0.7502   -2.5895 H   0  0  0  0  0  0  0  0  0  0  0  0
   -1.6254   -1.6505   -3.7858 H   0  0  0  0  0  0  0  0  0  0  0  0
   -1.1489   -1.7699   -2.0841 H   0  0  0  0  0  0  0  0  0  0  0  0
  1 10  1  0  0  0  0
  1 11  1  0  0  0  0
  2  8  1  0  0  0  0
  2 21  1  0  0  0  0
  3 15  2  0  0  0  0
  4 20  2  0  0  0  0
  5 27  1  0  0  0  0
  5 33  1  0  0  0  0
  6 25  1  0  0  0  0
  6 61  1  0  0  0  0
  7 32  2  0  0  0  0
  8  9  1  0  0  0  0
  8 10  1  0  0  0  0
  8 14  1  0  0  0  0
  9 11  1  0  0  0  0
  9 12  1  0  0  0  0
  9 41  1  0  0  0  0
 10 15  1  0  0  0  0
 10 17  1  0  0  0  0
 11 18  1  0  0  0  0
 11 19  1  0  0  0  0
 12 13  1  0  0  0  0
 12 42  1  0  0  0  0
 12 43  1  0  0  0  0
 13 15  1  0  0  0  0
 13 16  1  0  0  0  0
 13 44  1  0  0  0  0
 14 16  2  0  0  0  0
 14 20  1  0  0  0  0
 16 45  1  0  0  0  0
 17 23  1  0  0  0  0
 17 46  1  0  0  0  0
 17 47  1  0  0  0  0
 18 48  1  0  0  0  0
 18 49  1  0  0  0  0
 18 50  1  0  0  0  0
 19 51  1  0  0  0  0
 19 52  1  0  0  0  0
 19 53  1  0  0  0  0
 20 22  1  0  0  0  0
 21 22  2  0  0  0  0
 21 24  1  0  0  0  0
 22 25  1  0  0  0  0
 23 26  2  0  0  0  0
 23 54  1  0  0  0  0
 24 27  2  0  0  0  0
 24 29  1  0  0  0  0
 25 28  2  0  0  0  0
 26 30  1  0  0  0  0
 26 32  1  0  0  0  0
 27 28  1  0  0  0  0
 28 31  1  0  0  0  0
 29 34  1  0  0  0  0
 29 55  1  0  0  0  0
 29 56  1  0  0  0  0
 30 57  1  0  0  0  0
 30 58  1  0  0  0  0
 30 59  1  0  0  0  0
 31 35  2  0  0  0  0
 31 60  1  0  0  0  0
 32 62  1  0  0  0  0
 33 35  1  0  0  0  0
 33 36  1  0  0  0  0
 33 37  1  0  0  0  0
 34 38  2  0  0  0  0
 34 63  1  0  0  0  0
 35 64  1  0  0  0  0
 36 65  1  0  0  0  0
 36 66  1  0  0  0  0
 36 67  1  0  0  0  0
 37 68  1  0  0  0  0
 37 69  1  0  0  0  0
 37 70  1  0  0  0  0
 38 39  1  0  0  0  0
 38 40  1  0  0  0  0
 39 71  1  0  0  0  0
 39 72  1  0  0  0  0
 39 73  1  0  0  0  0
 40 74  1  0  0  0  0
 40 75  1  0  0  0  0
 40 76  1  0  0  0  0
M  END
> <PUBCHEM_COMPOUND_CID>
5281655

> <PUBCHEM_CONFORMER_RMSD>
1

> <PUBCHEM_CONFORMER_DIVERSEORDER>
1
5
6
10
8
3
11
4
9
2
7

> <PUBCHEM_MMFF94_PARTIAL_CHARGES>
41
1 -0.56
10 0.34
11 0.28
13 0.2
14 -0.12
15 0.45
16 -0.29
17 0.14
2 -0.36
20 0.47
21 0.08
22 0.09
23 -0.29
24 -0.14
25 0.08
26 -0.12
27 0.08
28 0.03
29 0.28
3 -0.57
30 0.14
31 -0.18
32 0.5
33 0.42
34 -0.29
35 -0.29
38 -0.28
39 0.14
4 -0.57
40 0.14
45 0.15
5 -0.36
54 0.15
6 -0.53
60 0.15
61 0.45
62 0.06
63 0.15
64 0.15
7 -0.57
8 0.42

> <PUBCHEM_EFFECTIVE_ROTOR_COUNT>
6.2

> <PUBCHEM_PHARMACOPHORE_FEATURES>
15
1 1 acceptor
1 2 acceptor
1 3 acceptor
1 30 hydrophobe
1 4 acceptor
1 5 acceptor
1 6 donor
1 7 acceptor
10 1 8 9 10 11 12 13 14 15 16 rings
3 11 18 19 hydrophobe
3 33 36 37 hydrophobe
3 38 39 40 hydrophobe
6 2 8 14 20 21 22 rings
6 21 22 24 25 27 28 rings
6 5 27 28 31 33 35 rings

> <PUBCHEM_HEAVY_ATOM_COUNT>
40

> <PUBCHEM_ATOM_DEF_STEREO_COUNT>
1

> <PUBCHEM_ATOM_UDEF_STEREO_COUNT>
3

> <PUBCHEM_BOND_DEF_STEREO_COUNT>
1

> <PUBCHEM_BOND_UDEF_STEREO_COUNT>
0

> <PUBCHEM_ISOTOPIC_ATOM_COUNT>
0

> <PUBCHEM_COMPONENT_COUNT>
1

> <PUBCHEM_CACTVS_TAUTO_COUNT>
19

> <PUBCHEM_CONFORMER_ID>
0050977700000001

> <PUBCHEM_MMFF94_ENERGY>
167.7019

> <PUBCHEM_FEATURE_SELFOVERLAP>
76.191

> <PUBCHEM_SHAPE_FINGERPRINT>
11421498 54 17749659749203698048
11513181 2 17842543059876410454
11828532 37 17203036422821888395
12107698 1 18411427227708237172
12156800 1 16825823438154153790
12608794 3 17900860139418362688
131258 38 16951434107058546767
133893 2 17970319672466519810
13911987 19 18122308412824138764
14068700 675 17607521629021896422
15219462 58 18043503123820177939
15324884 4 17625223483256289496
15444296 8 17467053577012771438
15664445 248 16916770899238534215
1601671 61 16200435762892500437
19319366 153 17531259313624687946
22149856 69 16845283961623530385
23559900 14 18202273719472864109
244849 19 18125742302768590437
25222932 49 16372156320671595391
350125 39 16917082052703497696
35225 105 17246375704933971214
4093350 32 18411419484604479785
484985 159 16609116864283311398
513532 50 17846774100831548199

> <PUBCHEM_SHAPE_MULTIPOLES>
782.1
10.26
3.91
3.44
16.97
3.5
-0.83
-1.7
0.82
-6.47
-2.04
-0.06
1.03
1.59

> <PUBCHEM_SHAPE_SELFOVERLAP>
1744.405

> <PUBCHEM_SHAPE_VOLUME>
415.4

> <PUBCHEM_COORDINATE_TYPE>
2
5
10

$$$$

