5282147
  -OEChem-07051213032D

 23 22  0     0  0  0  0  0  0999 V2000
    4.2690    1.0950    0.0000 O   0  0  0  0  0  0  0  0  0  0  0  0
    7.7331    1.0950    0.0000 O   0  0  0  0  0  0  0  0  0  0  0  0
    2.5369    0.0950    0.0000 O   0  0  0  0  0  0  0  0  0  0  0  0
   11.1972    0.0950    0.0000 O   0  0  0  0  0  0  0  0  0  0  0  0
    3.4030   -1.4050    0.0000 O   0  0  0  0  0  0  0  0  0  0  0  0
   10.3312   -1.4050    0.0000 O   0  0  0  0  0  0  0  0  0  0  0  0
    6.0010    0.0950    0.0000 C   0  0  0  0  0  0  0  0  0  0  0  0
    6.8671   -0.4050    0.0000 C   0  0  0  0  0  0  0  0  0  0  0  0
    5.1350   -0.4050    0.0000 C   0  0  0  0  0  0  0  0  0  0  0  0
    7.7331    0.0950    0.0000 C   0  0  0  0  0  0  0  0  0  0  0  0
    4.2690    0.0950    0.0000 C   0  0  0  0  0  0  0  0  0  0  0  0
    8.5991   -0.4050    0.0000 C   0  0  0  0  0  0  0  0  0  0  0  0
    9.4651    0.0950    0.0000 C   0  0  0  0  0  0  0  0  0  0  0  0
    3.4030   -0.4050    0.0000 C   0  0  0  0  0  0  0  0  0  0  0  0
   10.3312   -0.4050    0.0000 C   0  0  0  0  0  0  0  0  0  0  0  0
    6.0010    0.7150    0.0000 H   0  0  0  0  0  0  0  0  0  0  0  0
    6.8671   -1.0250    0.0000 H   0  0  0  0  0  0  0  0  0  0  0  0
    5.1350   -1.0250    0.0000 H   0  0  0  0  0  0  0  0  0  0  0  0
    8.5991   -1.0250    0.0000 H   0  0  0  0  0  0  0  0  0  0  0  0
    9.4651    0.7150    0.0000 H   0  0  0  0  0  0  0  0  0  0  0  0
    3.7320    1.4050    0.0000 H   0  0  0  0  0  0  0  0  0  0  0  0
    2.0000   -0.2150    0.0000 H   0  0  0  0  0  0  0  0  0  0  0  0
   11.7341   -0.2150    0.0000 H   0  0  0  0  0  0  0  0  0  0  0  0
  1 11  1  0  0  0  0
  1 21  1  0  0  0  0
  2 10  2  0  0  0  0
  3 14  1  0  0  0  0
  3 22  1  0  0  0  0
  4 15  1  0  0  0  0
  4 23  1  0  0  0  0
  5 14  2  0  0  0  0
  6 15  2  0  0  0  0
  7  8  2  0  0  0  0
  7  9  1  0  0  0  0
  7 16  1  0  0  0  0
  8 10  1  0  0  0  0
  8 17  1  0  0  0  0
  9 11  2  0  0  0  0
  9 18  1  0  0  0  0
 10 12  1  0  0  0  0
 11 14  1  0  0  0  0
 12 13  2  0  0  0  0
 12 19  1  0  0  0  0
 13 15  1  0  0  0  0
 13 20  1  0  0  0  0
M  END
> <PUBCHEM_COMPOUND_CID>
5282147

> <PUBCHEM_COMPOUND_CANONICALIZED>
1

> <PUBCHEM_CACTVS_COMPLEXITY>
361

> <PUBCHEM_CACTVS_HBOND_ACCEPTOR>
6

> <PUBCHEM_CACTVS_HBOND_DONOR>
3

> <PUBCHEM_CACTVS_ROTATABLE_BOND>
5

> <PUBCHEM_CACTVS_SUBSKEYS>
AAADccBwOAAAAAAAAAAAAAAAAAAAAAAAAAAAAAAAAAAAAAAAAAAAGgAACAAACASAgAAACAAAAgCIAKDSCAIAAAAgIAAICABAAEgJBAAAAQAAEAAAAAAJkYIAAAAAAAAAAAAAAAAAAAAAAAAAAAAAAAAAAA==

> <PUBCHEM_IUPAC_OPENEYE_NAME>
(2Z,4E,7E)-2-hydroxy-6-oxo-nona-2,4,7-trienedioic acid

> <PUBCHEM_IUPAC_CAS_NAME>
(2Z,4E,7E)-2-hydroxy-6-oxonona-2,4,7-trienedioic acid

> <PUBCHEM_IUPAC_NAME>
(2Z,4E,7E)-2-hydroxy-6-oxonona-2,4,7-trienedioic acid

> <PUBCHEM_IUPAC_SYSTEMATIC_NAME>
(2Z,4E,7E)-2-oxidanyl-6-oxidanylidene-nona-2,4,7-trienedioic acid

> <PUBCHEM_IUPAC_TRADITIONAL_NAME>
(2Z,4E,7E)-2-hydroxy-6-keto-nona-2,4,7-trienedioic acid

> <PUBCHEM_IUPAC_INCHI>
InChI=1S/C9H8O6/c10-6(4-5-8(12)13)2-1-3-7(11)9(14)15/h1-5,11H,(H,12,13)(H,14,15)/b2-1+,5-4+,7-3-

> <PUBCHEM_IUPAC_INCHIKEY>
WCJYZUFKKTYNLB-ARITWGJRSA-N

> <PUBCHEM_XLOGP3_AA>
0

> <PUBCHEM_EXACT_MASS>
212.032088

> <PUBCHEM_MOLECULAR_FORMULA>
C9H8O6

> <PUBCHEM_MOLECULAR_WEIGHT>
212.15622

> <PUBCHEM_OPENEYE_CAN_SMILES>
C(=CC(=O)C=CC(=O)O)C=C(C(=O)O)O

> <PUBCHEM_OPENEYE_ISO_SMILES>
C(=C/C(=O)/C=C/C(=O)O)\C=C(\C(=O)O)/O

> <PUBCHEM_CACTVS_TPSA>
112

> <PUBCHEM_MONOISOTOPIC_WEIGHT>
212.032088

> <PUBCHEM_TOTAL_CHARGE>
0

> <PUBCHEM_HEAVY_ATOM_COUNT>
15

> <PUBCHEM_ATOM_DEF_STEREO_COUNT>
0

> <PUBCHEM_ATOM_UDEF_STEREO_COUNT>
0

> <PUBCHEM_BOND_DEF_STEREO_COUNT>
3

> <PUBCHEM_BOND_UDEF_STEREO_COUNT>
0

> <PUBCHEM_ISOTOPIC_ATOM_COUNT>
0

> <PUBCHEM_COMPONENT_COUNT>
1

> <PUBCHEM_CACTVS_TAUTO_COUNT>
4

> <PUBCHEM_COORDINATE_TYPE>
1
5
255

$$$$

