46173798
  -OEChem-07051213033D

 51 55  0     1  0  0  0  0  0999 V2000
   -2.4760    1.2372   -1.5316 O   0  0  0  0  0  0  0  0  0  0  0  0
    4.4866    0.3184   -1.4268 O   0  0  0  0  0  0  0  0  0  0  0  0
    0.2538   -3.2342   -1.0279 O   0  0  0  0  0  0  0  0  0  0  0  0
   -0.3784   -2.9560    1.1444 O   0  0  0  0  0  0  0  0  0  0  0  0
   -4.0059   -0.3908   -1.7340 O   0  0  0  0  0  0  0  0  0  0  0  0
    1.1793   -0.3022   -0.0366 C   0  0  1  0  0  0  0  0  0  0  0  0
   -0.7570    1.2030    0.3277 C   0  0  1  0  0  0  0  0  0  0  0  0
    0.7827    1.1233    0.5112 C   0  0  2  0  0  0  0  0  0  0  0  0
   -1.1729   -0.2552    0.5482 C   0  0  2  0  0  0  0  0  0  0  0  0
   -0.1619   -1.0374   -0.3089 C   0  0  2  0  0  0  0  0  0  0  0  0
    2.1065   -0.1800   -1.2538 C   0  0  0  0  0  0  0  0  0  0  0  0
   -2.6807   -0.3823    0.2918 C   0  0  1  0  0  0  0  0  0  0  0  0
    3.3403    0.4680   -0.6107 C   0  0  2  0  0  0  0  0  0  0  0  0
    2.1389   -0.9922    0.9703 C   0  0  0  0  0  0  0  0  0  0  0  0
    1.5947    2.2828   -0.0905 C   0  0  0  0  0  0  0  0  0  0  0  0
   -1.4359    2.0864    1.3934 C   0  0  0  0  0  0  0  0  0  0  0  0
   -1.1678    1.6507   -1.0906 C   0  0  0  0  0  0  0  0  0  0  0  0
    3.0799    1.9531   -0.2938 C   0  0  0  0  0  0  0  0  0  0  0  0
    3.4621   -0.3372    0.6689 C   0  0  0  0  0  0  0  0  0  0  0  0
   -3.4299    0.4929    1.3377 C   0  0  0  0  0  0  0  0  0  0  0  0
   -2.9599    1.9528    1.3861 C   0  0  0  0  0  0  0  0  0  0  0  0
   -0.1182   -2.4926    0.0441 C   0  0  0  0  0  0  0  0  0  0  0  0
   -3.0904    0.1158   -1.0896 C   0  0  0  0  0  0  0  0  0  0  0  0
   -3.1528   -1.8378    0.4560 C   0  0  0  0  0  0  0  0  0  0  0  0
    4.5629   -0.4865    1.4149 C   0  0  0  0  0  0  0  0  0  0  0  0
    0.9834    1.1365    1.5926 H   0  0  0  0  0  0  0  0  0  0  0  0
   -0.9946   -0.5219    1.6029 H   0  0  0  0  0  0  0  0  0  0  0  0
   -0.4429   -0.9562   -1.3664 H   0  0  0  0  0  0  0  0  0  0  0  0
    1.6941    0.4235   -2.0692 H   0  0  0  0  0  0  0  0  0  0  0  0
    2.3473   -1.1612   -1.6850 H   0  0  0  0  0  0  0  0  0  0  0  0
    1.8291   -0.8580    2.0115 H   0  0  0  0  0  0  0  0  0  0  0  0
    2.2442   -2.0637    0.7678 H   0  0  0  0  0  0  0  0  0  0  0  0
    1.1991    2.5682   -1.0706 H   0  0  0  0  0  0  0  0  0  0  0  0
    1.4935    3.1770    0.5361 H   0  0  0  0  0  0  0  0  0  0  0  0
   -1.1592    3.1382    1.2534 H   0  0  0  0  0  0  0  0  0  0  0  0
   -1.0745    1.8047    2.3913 H   0  0  0  0  0  0  0  0  0  0  0  0
   -1.1493    2.7446   -1.1599 H   0  0  0  0  0  0  0  0  0  0  0  0
   -0.4762    1.2869   -1.8564 H   0  0  0  0  0  0  0  0  0  0  0  0
    3.6426    2.2538    0.5999 H   0  0  0  0  0  0  0  0  0  0  0  0
    3.4705    2.5871   -1.1005 H   0  0  0  0  0  0  0  0  0  0  0  0
   -4.5104    0.4809    1.1441 H   0  0  0  0  0  0  0  0  0  0  0  0
   -3.2896    0.0570    2.3362 H   0  0  0  0  0  0  0  0  0  0  0  0
   -3.3735    2.5010    0.5318 H   0  0  0  0  0  0  0  0  0  0  0  0
   -3.3729    2.4378    2.2786 H   0  0  0  0  0  0  0  0  0  0  0  0
   -4.2467   -1.9040    0.4054 H   0  0  0  0  0  0  0  0  0  0  0  0
   -2.7677   -2.4833   -0.3399 H   0  0  0  0  0  0  0  0  0  0  0  0
   -2.8551   -2.2497    1.4258 H   0  0  0  0  0  0  0  0  0  0  0  0
    4.2935    0.7270   -2.2879 H   0  0  0  0  0  0  0  0  0  0  0  0
    5.4938    0.0010    1.1471 H   0  0  0  0  0  0  0  0  0  0  0  0
    4.5510   -1.0976    2.3109 H   0  0  0  0  0  0  0  0  0  0  0  0
    0.2902   -4.1912   -0.8159 H   0  0  0  0  0  0  0  0  0  0  0  0
  1 17  1  0  0  0  0
  1 23  1  0  0  0  0
  2 13  1  0  0  0  0
  2 48  1  0  0  0  0
  3 22  1  0  0  0  0
  3 51  1  0  0  0  0
  4 22  2  0  0  0  0
  5 23  2  0  0  0  0
  6  8  1  0  0  0  0
  6 10  1  0  0  0  0
  6 11  1  0  0  0  0
  6 14  1  0  0  0  0
  7  8  1  0  0  0  0
  7  9  1  0  0  0  0
  7 16  1  0  0  0  0
  7 17  1  0  0  0  0
  8 15  1  0  0  0  0
  8 26  1  0  0  0  0
  9 10  1  0  0  0  0
  9 12  1  0  0  0  0
  9 27  1  0  0  0  0
 10 22  1  0  0  0  0
 10 28  1  0  0  0  0
 11 13  1  0  0  0  0
 11 29  1  0  0  0  0
 11 30  1  0  0  0  0
 12 20  1  0  0  0  0
 12 23  1  0  0  0  0
 12 24  1  0  0  0  0
 13 18  1  0  0  0  0
 13 19  1  0  0  0  0
 14 19  1  0  0  0  0
 14 31  1  0  0  0  0
 14 32  1  0  0  0  0
 15 18  1  0  0  0  0
 15 33  1  0  0  0  0
 15 34  1  0  0  0  0
 16 21  1  0  0  0  0
 16 35  1  0  0  0  0
 16 36  1  0  0  0  0
 17 37  1  0  0  0  0
 17 38  1  0  0  0  0
 18 39  1  0  0  0  0
 18 40  1  0  0  0  0
 19 25  2  0  0  0  0
 20 21  1  0  0  0  0
 20 41  1  0  0  0  0
 20 42  1  0  0  0  0
 21 43  1  0  0  0  0
 21 44  1  0  0  0  0
 24 45  1  0  0  0  0
 24 46  1  0  0  0  0
 24 47  1  0  0  0  0
 25 49  1  0  0  0  0
 25 50  1  0  0  0  0
M  END
> <PUBCHEM_COMPOUND_CID>
46173798

> <PUBCHEM_CONFORMER_RMSD>
0.6

> <PUBCHEM_CONFORMER_DIVERSEORDER>
1
2

> <PUBCHEM_MMFF94_PARTIAL_CHARGES>
18
1 -0.43
10 0.06
12 0.06
13 0.42
14 0.14
17 0.28
19 -0.28
2 -0.68
22 0.66
23 0.66
25 -0.3
3 -0.65
4 -0.57
48 0.4
49 0.15
5 -0.57
50 0.15
51 0.5

> <PUBCHEM_EFFECTIVE_ROTOR_COUNT>
3

> <PUBCHEM_PHARMACOPHORE_FEATURES>
10
1 2 acceptor
1 2 donor
1 3 acceptor
1 4 acceptor
1 5 acceptor
3 3 4 22 anion
5 6 7 8 9 10 rings
6 1 7 9 12 17 23 rings
6 7 9 12 16 20 21 rings
8 6 8 11 13 14 15 18 19 rings

> <PUBCHEM_HEAVY_ATOM_COUNT>
25

> <PUBCHEM_ATOM_DEF_STEREO_COUNT>
6

> <PUBCHEM_ATOM_UDEF_STEREO_COUNT>
1

> <PUBCHEM_BOND_DEF_STEREO_COUNT>
0

> <PUBCHEM_BOND_UDEF_STEREO_COUNT>
0

> <PUBCHEM_ISOTOPIC_ATOM_COUNT>
0

> <PUBCHEM_COMPONENT_COUNT>
1

> <PUBCHEM_CACTVS_TAUTO_COUNT>
1

> <PUBCHEM_CONFORMER_ID>
02C08E6600000001

> <PUBCHEM_MMFF94_ENERGY>
106.8317

> <PUBCHEM_FEATURE_SELFOVERLAP>
52.765

> <PUBCHEM_SHAPE_FINGERPRINT>
10759866 29 17918272022461281518
10863032 1 17275112729562507379
10967382 1 18264756834717158585
11132069 177 18409727399879156354
11578080 2 17772782418949624652
121448 382 18188506729896869263
12173636 292 18334564737881600529
12403814 3 17918268758143802617
12553582 1 18410847789480523840
12592029 89 17916877931458004763
12633257 1 18412821404251683504
12788726 201 18114170909312269129
13140716 1 18337953359693120699
13224815 77 18040438784676519784
13538477 17 18271526386666421674
13583140 156 17418093170230993824
14178342 30 18190458448893268016
14223421 5 18342172297367276746
14289901 80 16588027905012941856
15209289 33 18260819414821705576
15309172 13 18413103978618540081
16752209 62 18335707147615906944
16945 1 18337386149337713745
17349148 13 18336561489804931938
17357779 13 17761500184065922279
18186145 218 18411132524379460684
192875 21 18336559264790423968
200 152 18262250962108404381
20028762 73 17824258199051122415
20510252 161 18114731647088111385
20600515 1 18260553325130344104
20691752 17 18197764699586483062
2334 1 18193557761929417835
23402539 116 18186798115098139188
23419403 2 16100304153309437020
23557571 272 16950573176605408099
23559900 14 18334285454276584214
23566358 27 18045205296664186319
238 59 18054543367277105911
2748010 2 17904198135775273522
296302 2 16128653046307758060
34934 24 17823138002786222505
352729 6 18336540504510678318
633830 44 18187355549833653996
81228 2 17836928901796456962
90525 40 18413387657098122238

> <PUBCHEM_SHAPE_MULTIPOLES>
485.14
6.96
2.73
1.51
3.06
1.24
0.14
-0.72
0.05
-0.59
-0.27
-0.4
-0.16
-0.66

> <PUBCHEM_SHAPE_SELFOVERLAP>
1081.929

> <PUBCHEM_SHAPE_VOLUME>
256.1

> <PUBCHEM_COORDINATE_TYPE>
2
5
10

$$$$

