439905
  -OEChem-07051212483D

 26 26  0     1  0  0  0  0  0999 V2000
    3.2319   -0.0916   -0.1200 P   0  0  0  0  0  0  0  0  0  0  0  0
   -0.9799   -1.0255   -0.5810 O   0  0  0  0  0  0  0  0  0  0  0  0
   -1.9272    2.2576    0.5538 O   0  0  0  0  0  0  0  0  0  0  0  0
   -3.4004    0.6887   -1.1623 O   0  0  0  0  0  0  0  0  0  0  0  0
    1.6774   -0.0722   -0.5699 O   0  0  0  0  0  0  0  0  0  0  0  0
    3.2126   -0.8760    1.2941 O   0  0  0  0  0  0  0  0  0  0  0  0
    3.5015    1.4437    0.3100 O   0  0  0  0  0  0  0  0  0  0  0  0
    4.1819   -0.6392   -1.1445 O   0  0  0  0  0  0  0  0  0  0  0  0
   -2.4520   -2.1471    0.9339 N   0  0  0  0  0  0  0  0  0  0  0  0
   -1.7735    0.8550    0.6060 C   0  0  2  0  0  0  0  0  0  0  0  0
   -0.6587    0.3487   -0.2961 C   0  0  1  0  0  0  0  0  0  0  0  0
   -2.9682    0.0984    0.0632 C   0  0  2  0  0  0  0  0  0  0  0  0
   -2.3613   -1.2714   -0.2306 C   0  0  1  0  0  0  0  0  0  0  0  0
    0.7159    0.4310    0.3434 C   0  0  0  0  0  0  0  0  0  0  0  0
   -1.5982    0.5610    1.6485 H   0  0  0  0  0  0  0  0  0  0  0  0
   -0.6429    0.8832   -1.2544 H   0  0  0  0  0  0  0  0  0  0  0  0
   -3.8277    0.0800    0.7404 H   0  0  0  0  0  0  0  0  0  0  0  0
   -2.8398   -1.7531   -1.0899 H   0  0  0  0  0  0  0  0  0  0  0  0
    0.7467   -0.1802    1.2514 H   0  0  0  0  0  0  0  0  0  0  0  0
    0.9580    1.4669    0.5987 H   0  0  0  0  0  0  0  0  0  0  0  0
   -2.0375   -3.0499    0.7070 H   0  0  0  0  0  0  0  0  0  0  0  0
   -3.4313   -2.3263    1.1515 H   0  0  0  0  0  0  0  0  0  0  0  0
   -1.0933    2.6570    0.8541 H   0  0  0  0  0  0  0  0  0  0  0  0
   -3.6656    1.6031   -0.9638 H   0  0  0  0  0  0  0  0  0  0  0  0
    4.0643   -1.0741    1.7384 H   0  0  0  0  0  0  0  0  0  0  0  0
    4.4143    1.7185    0.5413 H   0  0  0  0  0  0  0  0  0  0  0  0
  1  5  1  0  0  0  0
  1  6  1  0  0  0  0
  1  7  1  0  0  0  0
  1  8  2  0  0  0  0
  2 11  1  0  0  0  0
  2 13  1  0  0  0  0
  3 10  1  0  0  0  0
  3 23  1  0  0  0  0
  4 12  1  0  0  0  0
  4 24  1  0  0  0  0
  5 14  1  0  0  0  0
  6 25  1  0  0  0  0
  7 26  1  0  0  0  0
  9 13  1  0  0  0  0
  9 21  1  0  0  0  0
  9 22  1  0  0  0  0
 10 11  1  0  0  0  0
 10 12  1  0  0  0  0
 10 15  1  0  0  0  0
 11 14  1  0  0  0  0
 11 16  1  0  0  0  0
 12 13  1  0  0  0  0
 12 17  1  0  0  0  0
 13 18  1  0  0  0  0
 14 19  1  0  0  0  0
 14 20  1  0  0  0  0
M  END
> <PUBCHEM_COMPOUND_CID>
439905

> <PUBCHEM_CONFORMER_RMSD>
0.6

> <PUBCHEM_CONFORMER_DIVERSEORDER>
1
18
12
14
8
7
13
17
9
5
15
6
4
16
2
11
3
10

> <PUBCHEM_MMFF94_PARTIAL_CHARGES>
20
1 1.51
10 0.28
11 0.28
12 0.28
13 0.55
14 0.28
2 -0.56
21 0.36
22 0.36
23 0.4
24 0.4
25 0.5
26 0.5
3 -0.68
4 -0.68
5 -0.55
6 -0.77
7 -0.77
8 -0.7
9 -0.99

> <PUBCHEM_EFFECTIVE_ROTOR_COUNT>
4

> <PUBCHEM_PHARMACOPHORE_FEATURES>
12
1 2 acceptor
1 3 acceptor
1 3 donor
1 4 acceptor
1 4 donor
1 6 acceptor
1 7 acceptor
1 8 acceptor
1 9 cation
1 9 donor
4 1 6 7 8 anion
5 2 10 11 12 13 rings

> <PUBCHEM_HEAVY_ATOM_COUNT>
14

> <PUBCHEM_ATOM_DEF_STEREO_COUNT>
4

> <PUBCHEM_ATOM_UDEF_STEREO_COUNT>
0

> <PUBCHEM_BOND_DEF_STEREO_COUNT>
0

> <PUBCHEM_BOND_UDEF_STEREO_COUNT>
0

> <PUBCHEM_ISOTOPIC_ATOM_COUNT>
0

> <PUBCHEM_COMPONENT_COUNT>
1

> <PUBCHEM_CACTVS_TAUTO_COUNT>
1

> <PUBCHEM_CONFORMER_ID>
0006B66100000001

> <PUBCHEM_MMFF94_ENERGY>
-4.4641

> <PUBCHEM_FEATURE_SELFOVERLAP>
60.939

> <PUBCHEM_SHAPE_FINGERPRINT>
10751810 167 18339631313579836150
12932764 1 17988924496246672100
13024252 1 13542463168425621757
13296908 3 18334572408924877422
14144814 61 18410292540556100736
14325111 11 18334011688048926740
16945 1 18408320021054043897
18186145 218 18342455941687405192
187816 3 18336837459161090021
190213 19 18409166602131644012
19107657 162 18336260163479128462
200 152 15502665922476440077
20279233 1 17385732391547552418
20281407 28 17822010869848978774
20528008 55 18261401030708406485
20645477 70 17822008731340446414
20871998 184 18114456769513554511
21061003 4 16950556662413950585
22169311 21 18272098179588103810
23402539 116 18334021609882394749
23559900 14 18334579053539873696
2748010 2 18118696421973117849
3248919 1 18259988188610930284
3312278 4 18342738485805154059
74978 22 18343584044722638100
93112 12 18408882949574943780

> <PUBCHEM_SHAPE_MULTIPOLES>
245.9
7.07
1.67
1
5.98
0.08
0.01
-0.49
-0.67
-1.14
0.43
0.17
-0.16
0.27

> <PUBCHEM_SHAPE_SELFOVERLAP>
476.84

> <PUBCHEM_SHAPE_VOLUME>
150.2

> <PUBCHEM_COORDINATE_TYPE>
2
5
10

$$$$

