5281877
  -OEChem-07051213013D

 70 71  0     1  0  0  0  0  0999 V2000
    5.9983    0.3998   -0.3779 O   0  0  0  0  0  0  0  0  0  0  0  0
    8.2778   -3.0090   -0.1419 O   0  0  0  0  0  0  0  0  0  0  0  0
    9.5646   -0.4122   -0.3632 O   0  0  0  0  0  0  0  0  0  0  0  0
    5.8010   -2.7663    1.4329 O   0  0  0  0  0  0  0  0  0  0  0  0
    4.1271   -0.6998    0.4778 O   0  0  0  0  0  0  0  0  0  0  0  0
    8.9532    2.0157   -1.3699 O   0  0  0  0  0  0  0  0  0  0  0  0
    6.8004    2.0903   -2.1156 O   0  0  0  0  0  0  0  0  0  0  0  0
    3.7870    1.2590    1.6513 O   0  0  0  0  0  0  0  0  0  0  0  0
   -8.9854    0.3495    0.3761 C   0  0  0  0  0  0  0  0  0  0  0  0
  -10.2704   -0.3780   -0.1061 C   0  0  0  0  0  0  0  0  0  0  0  0
  -10.0518   -1.8690   -0.2903 C   0  0  0  0  0  0  0  0  0  0  0  0
   -7.7371   -0.1206   -0.4073 C   0  0  0  0  0  0  0  0  0  0  0  0
   -8.9713   -2.1124   -1.3332 C   0  0  0  0  0  0  0  0  0  0  0  0
   -7.7520   -1.2227   -1.1987 C   0  0  0  0  0  0  0  0  0  0  0  0
   -9.2559    1.8624    0.1880 C   0  0  0  0  0  0  0  0  0  0  0  0
   -8.7850    0.0700    1.8834 C   0  0  0  0  0  0  0  0  0  0  0  0
    7.7171   -1.7872    0.3411 C   0  0  1  0  0  0  0  0  0  0  0  0
    8.1766   -0.6585   -0.5824 C   0  0  1  0  0  0  0  0  0  0  0  0
    6.1927   -1.9005    0.3678 C   0  0  2  0  0  0  0  0  0  0  0  0
   -6.5387    0.6806   -0.2201 C   0  0  0  0  0  0  0  0  0  0  0  0
   -6.5989   -1.7221   -2.0384 C   0  0  0  0  0  0  0  0  0  0  0  0
    7.4015    0.6218   -0.2971 C   0  0  1  0  0  0  0  0  0  0  0  0
    5.5401   -0.5365    0.5941 C   0  0  1  0  0  0  0  0  0  0  0  0
   -5.3132    0.1489   -0.0827 C   0  0  0  0  0  0  0  0  0  0  0  0
    7.6494    1.6451   -1.3577 C   0  0  0  0  0  0  0  0  0  0  0  0
   -4.0650    0.8883    0.1082 C   0  0  0  0  0  0  0  0  0  0  0  0
    3.3758    0.2772    1.0556 C   0  0  0  0  0  0  0  0  0  0  0  0
   -4.1510    2.3966    0.1573 C   0  0  0  0  0  0  0  0  0  0  0  0
   -2.8524    0.3082    0.2420 C   0  0  0  0  0  0  0  0  0  0  0  0
    1.9518   -0.0835    0.8523 C   0  0  0  0  0  0  0  0  0  0  0  0
   -1.5618    0.9450    0.4343 C   0  0  0  0  0  0  0  0  0  0  0  0
    0.9276    0.7878    0.7554 C   0  0  0  0  0  0  0  0  0  0  0  0
   -0.4204    0.2444    0.5541 C   0  0  0  0  0  0  0  0  0  0  0  0
    1.0682    2.2876    0.8105 C   0  0  0  0  0  0  0  0  0  0  0  0
  -10.6041    0.0458   -1.0637 H   0  0  0  0  0  0  0  0  0  0  0  0
  -11.0922   -0.2157    0.6030 H   0  0  0  0  0  0  0  0  0  0  0  0
  -10.9844   -2.3482   -0.6099 H   0  0  0  0  0  0  0  0  0  0  0  0
   -9.7706   -2.3371    0.6599 H   0  0  0  0  0  0  0  0  0  0  0  0
   -9.3965   -1.9618   -2.3340 H   0  0  0  0  0  0  0  0  0  0  0  0
   -8.6695   -3.1653   -1.2705 H   0  0  0  0  0  0  0  0  0  0  0  0
  -10.2284    2.1407    0.6121 H   0  0  0  0  0  0  0  0  0  0  0  0
   -8.5098    2.4848    0.6936 H   0  0  0  0  0  0  0  0  0  0  0  0
   -9.2671    2.1367   -0.8733 H   0  0  0  0  0  0  0  0  0  0  0  0
   -9.6835    0.3268    2.4562 H   0  0  0  0  0  0  0  0  0  0  0  0
   -8.5555   -0.9836    2.0762 H   0  0  0  0  0  0  0  0  0  0  0  0
   -7.9594    0.6626    2.2947 H   0  0  0  0  0  0  0  0  0  0  0  0
    8.1150   -1.6495    1.3535 H   0  0  0  0  0  0  0  0  0  0  0  0
    8.0634   -0.9600   -1.6311 H   0  0  0  0  0  0  0  0  0  0  0  0
    5.8244   -2.3534   -0.5603 H   0  0  0  0  0  0  0  0  0  0  0  0
   -6.6672    1.7565   -0.2359 H   0  0  0  0  0  0  0  0  0  0  0  0
   -6.9776   -2.1435   -2.9777 H   0  0  0  0  0  0  0  0  0  0  0  0
   -5.9058   -0.9343   -2.3437 H   0  0  0  0  0  0  0  0  0  0  0  0
   -6.0567   -2.5170   -1.5171 H   0  0  0  0  0  0  0  0  0  0  0  0
    7.6496    1.0694    0.6734 H   0  0  0  0  0  0  0  0  0  0  0  0
    5.7820   -0.1747    1.6036 H   0  0  0  0  0  0  0  0  0  0  0  0
   -5.1897   -0.9306   -0.0332 H   0  0  0  0  0  0  0  0  0  0  0  0
    7.9259   -3.1713   -1.0338 H   0  0  0  0  0  0  0  0  0  0  0  0
    9.6796   -0.1362    0.5621 H   0  0  0  0  0  0  0  0  0  0  0  0
    6.1178   -2.3804    2.2674 H   0  0  0  0  0  0  0  0  0  0  0  0
   -3.2198    2.9365    0.3211 H   0  0  0  0  0  0  0  0  0  0  0  0
   -4.5580    2.7783   -0.7868 H   0  0  0  0  0  0  0  0  0  0  0  0
   -4.8198    2.7066    0.9695 H   0  0  0  0  0  0  0  0  0  0  0  0
    9.1370    2.6866   -2.0616 H   0  0  0  0  0  0  0  0  0  0  0  0
   -2.8157   -0.7813    0.2023 H   0  0  0  0  0  0  0  0  0  0  0  0
    1.7662   -1.1529    0.7628 H   0  0  0  0  0  0  0  0  0  0  0  0
   -1.5158    2.0233    0.4905 H   0  0  0  0  0  0  0  0  0  0  0  0
   -0.4815   -0.8429    0.5010 H   0  0  0  0  0  0  0  0  0  0  0  0
    2.1027    2.6346    0.8090 H   0  0  0  0  0  0  0  0  0  0  0  0
    0.5890    2.6844    1.7120 H   0  0  0  0  0  0  0  0  0  0  0  0
    0.6052    2.7521   -0.0678 H   0  0  0  0  0  0  0  0  0  0  0  0
  1 22  1  0  0  0  0
  1 23  1  0  0  0  0
  2 17  1  0  0  0  0
  2 57  1  0  0  0  0
  3 18  1  0  0  0  0
  3 58  1  0  0  0  0
  4 19  1  0  0  0  0
  4 59  1  0  0  0  0
  5 23  1  0  0  0  0
  5 27  1  0  0  0  0
  6 25  1  0  0  0  0
  6 63  1  0  0  0  0
  7 25  2  0  0  0  0
  8 27  2  0  0  0  0
  9 10  1  0  0  0  0
  9 12  1  0  0  0  0
  9 15  1  0  0  0  0
  9 16  1  0  0  0  0
 10 11  1  0  0  0  0
 10 35  1  0  0  0  0
 10 36  1  0  0  0  0
 11 13  1  0  0  0  0
 11 37  1  0  0  0  0
 11 38  1  0  0  0  0
 12 14  2  0  0  0  0
 12 20  1  0  0  0  0
 13 14  1  0  0  0  0
 13 39  1  0  0  0  0
 13 40  1  0  0  0  0
 14 21  1  0  0  0  0
 15 41  1  0  0  0  0
 15 42  1  0  0  0  0
 15 43  1  0  0  0  0
 16 44  1  0  0  0  0
 16 45  1  0  0  0  0
 16 46  1  0  0  0  0
 17 18  1  0  0  0  0
 17 19  1  0  0  0  0
 17 47  1  0  0  0  0
 18 22  1  0  0  0  0
 18 48  1  0  0  0  0
 19 23  1  0  0  0  0
 19 49  1  0  0  0  0
 20 24  2  0  0  0  0
 20 50  1  0  0  0  0
 21 51  1  0  0  0  0
 21 52  1  0  0  0  0
 21 53  1  0  0  0  0
 22 25  1  0  0  0  0
 22 54  1  0  0  0  0
 23 55  1  0  0  0  0
 24 26  1  0  0  0  0
 24 56  1  0  0  0  0
 26 28  1  0  0  0  0
 26 29  2  0  0  0  0
 27 30  1  0  0  0  0
 28 60  1  0  0  0  0
 28 61  1  0  0  0  0
 28 62  1  0  0  0  0
 29 31  1  0  0  0  0
 29 64  1  0  0  0  0
 30 32  2  0  0  0  0
 30 65  1  0  0  0  0
 31 33  2  0  0  0  0
 31 66  1  0  0  0  0
 32 33  1  0  0  0  0
 32 34  1  0  0  0  0
 33 67  1  0  0  0  0
 34 68  1  0  0  0  0
 34 69  1  0  0  0  0
 34 70  1  0  0  0  0
M  END
> <PUBCHEM_COMPOUND_CID>
5281877

> <PUBCHEM_CONFORMER_RMSD>
1.2

> <PUBCHEM_CONFORMER_DIVERSEORDER>
1
31
77
48
64
39
56
69
68
94
13
28
100
57
85
41
74
84
23
34
73
10
45
92
91
96
8
76
93
82
60
72
58
55
25
89
4
61
83
21
65
26
30
80
88
102
98
47
33
97
14
19
38
79
20
29
40
5
9
15
67
43
52
2
62
59
103
101
50
16
11
81
22
49
7
99
35
6
95
27
71
46
3
17
70
63
36
86
32
53
75
66
54
24
51
78
90
18
42
44
87
37
12

> <PUBCHEM_MMFF94_PARTIAL_CHARGES>
40
1 -0.56
12 -0.14
13 0.14
14 -0.28
17 0.28
18 0.28
19 0.28
2 -0.68
20 -0.15
21 0.14
22 0.34
23 0.56
24 -0.15
25 0.66
26 -0.14
27 0.71
28 0.14
29 -0.15
3 -0.68
30 -0.14
31 -0.15
32 -0.14
33 -0.15
34 0.14
4 -0.68
5 -0.43
50 0.15
56 0.15
57 0.4
58 0.4
59 0.4
6 -0.65
63 0.5
64 0.15
65 0.15
66 0.15
67 0.15
7 -0.57
8 -0.57
9 0.14

> <PUBCHEM_EFFECTIVE_ROTOR_COUNT>
10

> <PUBCHEM_PHARMACOPHORE_FEATURES>
16
1 1 acceptor
1 2 acceptor
1 2 donor
1 28 hydrophobe
1 3 acceptor
1 3 donor
1 34 hydrophobe
1 4 acceptor
1 4 donor
1 6 acceptor
1 7 acceptor
1 8 acceptor
3 6 7 25 anion
3 9 15 16 hydrophobe
6 1 17 18 19 22 23 rings
6 9 10 11 12 13 14 rings

> <PUBCHEM_HEAVY_ATOM_COUNT>
34

> <PUBCHEM_ATOM_DEF_STEREO_COUNT>
5

> <PUBCHEM_ATOM_UDEF_STEREO_COUNT>
0

> <PUBCHEM_BOND_DEF_STEREO_COUNT>
4

> <PUBCHEM_BOND_UDEF_STEREO_COUNT>
0

> <PUBCHEM_ISOTOPIC_ATOM_COUNT>
0

> <PUBCHEM_COMPONENT_COUNT>
1

> <PUBCHEM_CACTVS_TAUTO_COUNT>
1

> <PUBCHEM_CONFORMER_ID>
0050985500000001

> <PUBCHEM_MMFF94_ENERGY>
88.0527

> <PUBCHEM_FEATURE_SELFOVERLAP>
81.276

> <PUBCHEM_SHAPE_FINGERPRINT>
10076449 9 16128657462404544173
10162869 55 18273497875929864498
10299344 5 18335703857565372235
10533779 47 13840257087571959126
11135609 127 18272367522343136852
11315181 36 11167943585748149407
11476731 38 18273209781306380828
11672396 167 18129386067904613922
11966995 178 17458631061185557816
12082328 90 17846221094508054669
12089408 11 18410573998574644201
12144603 126 18410572933813015265
12559415 141 18186791483458755575
12592606 108 18333453136352896475
12758862 56 16515692117564405083
14142895 15 18201716245671317004
150020 25 16988839471265780321
15064986 266 18131348640341098785
15461852 350 18408603673969973017
15840311 113 17917987274930371532
16728433 110 18186807976844432048
1754911 235 17560803234365792157
17686467 74 16630524030091558053
1818759 1 17966970530242207167
20105231 36 17022902346126702663
20578428 11 17749959856962212744
21150785 3 18343302565277088200
21267235 1 18333454244555140425
21792934 111 5761650373721629162
22164985 6 18260554411145055565
232437 2 18334575754403850611
23576562 1 16773226280978997551
249057 3 16487249955119301435
306946 40 15841550735428305972
397638 26 14634875219461466637
44389302 135 17822860908961795614
45377200 153 18129942274732909675
4874694 18 17703790298079506234
54039377 194 18408042901838965565
5470011 282 18202846564746092237
6057620 51 18341612641701381032
6201320 215 6987780649222069539
636775 72 10663826300095218279
67123 10 18272368676712879897
9937071 3 15719387343965647430

> <PUBCHEM_SHAPE_MULTIPOLES>
652.75
44.9
2.51
1.42
11.35
0.69
-0.29
14.13
-9.91
-1.69
-0.3
-0.63
-0.05
-4.57

> <PUBCHEM_SHAPE_SELFOVERLAP>
1341.381

> <PUBCHEM_SHAPE_VOLUME>
371.6

> <PUBCHEM_COORDINATE_TYPE>
2
5
10

$$$$

