92425
  -OEChem-07051213002D

 41 44  0     0  0  0  0  0  0999 V2000
    5.0749    2.1680    0.0000 F   0  0  0  0  0  0  0  0  0  0  0  0
    3.9609    1.5517    0.0000 O   0  0  0  0  0  0  0  0  0  0  0  0
    5.7161   -1.4885    0.0000 O   0  0  0  0  0  0  0  0  0  0  0  0
    8.5669    2.2027    0.0000 O   0  0  0  0  0  0  0  0  0  0  0  0
   10.3370    0.1439    0.0000 O   0  0  0  0  0  0  0  0  0  0  0  0
    5.0749    0.1680    0.0000 N   0  0  0  0  0  0  0  0  0  0  0  0
    8.5669    0.1334    0.0000 N   0  0  0  0  0  0  0  0  0  0  0  0
    3.5000   -0.1639    0.0000 C   0  0  0  0  0  0  0  0  0  0  0  0
    4.0000   -1.0299    0.0000 C   0  0  0  0  0  0  0  0  0  0  0  0
    3.5000   -1.8959    0.0000 C   0  0  0  0  0  0  0  0  0  0  0  0
    2.5000   -0.1639    0.0000 C   0  0  0  0  0  0  0  0  0  0  0  0
    2.0000   -1.0299    0.0000 C   0  0  0  0  0  0  0  0  0  0  0  0
    2.5000   -1.8959    0.0000 C   0  0  0  0  0  0  0  0  0  0  0  0
    4.1671    0.5732    0.0000 C   0  0  0  0  0  0  0  0  0  0  0  0
    4.9718   -0.8207    0.0000 C   0  0  0  0  0  0  0  0  0  0  0  0
    5.9409    0.6680    0.0000 C   0  0  0  0  0  0  0  0  0  0  0  0
    6.8069    0.1680    0.0000 C   0  0  0  0  0  0  0  0  0  0  0  0
    7.6730    0.6680    0.0000 C   0  0  0  0  0  0  0  0  0  0  0  0
    5.9409    1.6680    0.0000 C   0  0  0  0  0  0  0  0  0  0  0  0
    7.6730    1.6680    0.0000 C   0  0  0  0  0  0  0  0  0  0  0  0
    6.8069    2.1680    0.0000 C   0  0  0  0  0  0  0  0  0  0  0  0
    9.4730    0.6472    0.0000 C   0  0  0  0  0  0  0  0  0  0  0  0
    9.4730    1.6889    0.0000 C   0  0  0  0  0  0  0  0  0  0  0  0
    8.5553   -0.8666    0.0000 C   0  0  0  0  0  0  0  0  0  0  0  0
    9.4155   -1.3765    0.0000 C   0  0  0  0  0  0  0  0  0  0  0  0
   10.2757   -1.8865    0.0000 C   0  0  0  0  0  0  0  0  0  0  0  0
    2.6077    0.4467    0.0000 H   0  0  0  0  0  0  0  0  0  0  0  0
    1.9174    0.0482    0.0000 H   0  0  0  0  0  0  0  0  0  0  0  0
    3.3923   -2.5065    0.0000 H   0  0  0  0  0  0  0  0  0  0  0  0
    4.0826   -2.1080    0.0000 H   0  0  0  0  0  0  0  0  0  0  0  0
    1.5250   -0.6314    0.0000 H   0  0  0  0  0  0  0  0  0  0  0  0
    1.5250   -1.4284    0.0000 H   0  0  0  0  0  0  0  0  0  0  0  0
    1.9174   -2.1080    0.0000 H   0  0  0  0  0  0  0  0  0  0  0  0
    2.6077   -2.5065    0.0000 H   0  0  0  0  0  0  0  0  0  0  0  0
    6.8069   -0.4520    0.0000 H   0  0  0  0  0  0  0  0  0  0  0  0
    6.8069    2.7880    0.0000 H   0  0  0  0  0  0  0  0  0  0  0  0
   10.0838    1.5828    0.0000 H   0  0  0  0  0  0  0  0  0  0  0  0
    9.6820    2.2726    0.0000 H   0  0  0  0  0  0  0  0  0  0  0  0
    7.9460   -0.7518    0.0000 H   0  0  0  0  0  0  0  0  0  0  0  0
    8.3366   -1.4467    0.0000 H   0  0  0  0  0  0  0  0  0  0  0  0
   10.8090   -2.2027    0.0000 H   0  0  0  0  0  0  0  0  0  0  0  0
  1 19  1  0  0  0  0
  2 14  2  0  0  0  0
  3 15  2  0  0  0  0
  4 20  1  0  0  0  0
  4 23  1  0  0  0  0
  5 22  2  0  0  0  0
  6 14  1  0  0  0  0
  6 15  1  0  0  0  0
  6 16  1  0  0  0  0
  7 18  1  0  0  0  0
  7 22  1  0  0  0  0
  7 24  1  0  0  0  0
  8  9  2  0  0  0  0
  8 11  1  0  0  0  0
  8 14  1  0  0  0  0
  9 10  1  0  0  0  0
  9 15  1  0  0  0  0
 10 13  1  0  0  0  0
 10 29  1  0  0  0  0
 10 30  1  0  0  0  0
 11 12  1  0  0  0  0
 11 27  1  0  0  0  0
 11 28  1  0  0  0  0
 12 13  1  0  0  0  0
 12 31  1  0  0  0  0
 12 32  1  0  0  0  0
 13 33  1  0  0  0  0
 13 34  1  0  0  0  0
 16 17  1  0  0  0  0
 16 19  2  0  0  0  0
 17 18  2  0  0  0  0
 17 35  1  0  0  0  0
 18 20  1  0  0  0  0
 19 21  1  0  0  0  0
 20 21  2  0  0  0  0
 21 36  1  0  0  0  0
 22 23  1  0  0  0  0
 23 37  1  0  0  0  0
 23 38  1  0  0  0  0
 24 25  1  0  0  0  0
 24 39  1  0  0  0  0
 24 40  1  0  0  0  0
 25 26  3  0  0  0  0
 26 41  1  0  0  0  0
M  END
> <PUBCHEM_COMPOUND_CID>
92425

> <PUBCHEM_COMPOUND_CANONICALIZED>
1

> <PUBCHEM_CACTVS_COMPLEXITY>
724

> <PUBCHEM_CACTVS_HBOND_ACCEPTOR>
5

> <PUBCHEM_CACTVS_HBOND_DONOR>
0

> <PUBCHEM_CACTVS_ROTATABLE_BOND>
2

> <PUBCHEM_CACTVS_SUBSKEYS>
AAADccB7OQAAAAAAAAAAAAAAAAAAAQAAAAA8QIAAAAAAAFixAAAAHwAAAAAADAzhkA4wxoMABADIGiVSUAKCCAAhIgAAiAFPbMgOJjLE8N+HOCjkxjHY6Qe4yICAAEAAAAQAEAAAgAAACAAgAAAAAAAAAA==

> <PUBCHEM_IUPAC_OPENEYE_NAME>
2-(7-fluoro-3-oxo-4-prop-2-ynyl-1,4-benzoxazin-6-yl)-4,5,6,7-tetrahydroisoindole-1,3-dione

> <PUBCHEM_IUPAC_CAS_NAME>
2-(7-fluoro-3-oxo-4-prop-2-ynyl-1,4-benzoxazin-6-yl)-4,5,6,7-tetrahydroisoindole-1,3-dione

> <PUBCHEM_IUPAC_NAME>
2-(7-fluoro-3-oxo-4-prop-2-ynyl-1,4-benzoxazin-6-yl)-4,5,6,7-tetrahydroisoindole-1,3-dione

> <PUBCHEM_IUPAC_SYSTEMATIC_NAME>
2-(7-fluoranyl-3-oxidanylidene-4-prop-2-ynyl-1,4-benzoxazin-6-yl)-4,5,6,7-tetrahydroisoindole-1,3-dione

> <PUBCHEM_IUPAC_TRADITIONAL_NAME>
2-(7-fluoro-3-keto-4-propargyl-1,4-benzoxazin-6-yl)-4,5,6,7-tetrahydroisoindole-1,3-quinone

> <PUBCHEM_IUPAC_INCHI>
InChI=1S/C19H15FN2O4/c1-2-7-21-15-9-14(13(20)8-16(15)26-10-17(21)23)22-18(24)11-5-3-4-6-12(11)19(22)25/h1,8-9H,3-7,10H2

> <PUBCHEM_IUPAC_INCHIKEY>
FOUWCSDKDDHKQP-UHFFFAOYSA-N

> <PUBCHEM_XLOGP3_AA>
1.8

> <PUBCHEM_EXACT_MASS>
354.101585

> <PUBCHEM_MOLECULAR_FORMULA>
C19H15FN2O4

> <PUBCHEM_MOLECULAR_WEIGHT>
354.331803

> <PUBCHEM_OPENEYE_CAN_SMILES>
C#CCN1C(=O)COC2=CC(=C(C=C21)N3C(=O)C4=C(C3=O)CCCC4)F

> <PUBCHEM_OPENEYE_ISO_SMILES>
C#CCN1C(=O)COC2=CC(=C(C=C21)N3C(=O)C4=C(C3=O)CCCC4)F

> <PUBCHEM_CACTVS_TPSA>
66.9

> <PUBCHEM_MONOISOTOPIC_WEIGHT>
354.101585

> <PUBCHEM_TOTAL_CHARGE>
0

> <PUBCHEM_HEAVY_ATOM_COUNT>
26

> <PUBCHEM_ATOM_DEF_STEREO_COUNT>
0

> <PUBCHEM_ATOM_UDEF_STEREO_COUNT>
0

> <PUBCHEM_BOND_DEF_STEREO_COUNT>
0

> <PUBCHEM_BOND_UDEF_STEREO_COUNT>
0

> <PUBCHEM_ISOTOPIC_ATOM_COUNT>
0

> <PUBCHEM_COMPONENT_COUNT>
1

> <PUBCHEM_CACTVS_TAUTO_COUNT>
2

> <PUBCHEM_COORDINATE_TYPE>
1
5
255

> <PUBCHEM_BONDANNOTATIONS>
16  17  8
16  19  8
17  18  8
18  20  8
19  21  8
20  21  8

$$$$

