439500
  -OEChem-07051212453D

 35 34  0     1  0  0  0  0  0999 V2000
   -0.7333    1.3551   -1.9351 O   0  0  0  0  0  0  0  0  0  0  0  0
    1.7436   -2.9812   -1.0845 O   0  0  0  0  0  0  0  0  0  0  0  0
    0.2832   -2.5602    0.6008 O   0  0  0  0  0  0  0  0  0  0  0  0
    4.7735    0.8274    1.8964 O   0  0  0  0  0  0  0  0  0  0  0  0
   -2.9321   -1.8002    0.5791 O   0  0  0  0  0  0  0  0  0  0  0  0
    4.8601    1.2049   -0.3391 O   0  0  0  0  0  0  0  0  0  0  0  0
   -4.4157   -0.4680    1.6674 O   0  0  0  0  0  0  0  0  0  0  0  0
   -0.0775   -0.0113   -0.1749 N   0  0  0  0  0  0  0  0  0  0  0  0
   -1.4385    3.0175    0.3457 N   0  0  0  0  0  0  0  0  0  0  0  0
    0.9528   -0.7430   -0.8761 C   0  0  1  0  0  0  0  0  0  0  0  0
   -1.8317    1.6143    0.2053 C   0  0  1  0  0  0  0  0  0  0  0  0
    2.3234   -0.0599   -0.7958 C   0  0  0  0  0  0  0  0  0  0  0  0
   -3.2780    1.5415   -0.3072 C   0  0  0  0  0  0  0  0  0  0  0  0
   -0.8401    0.9842   -0.7679 C   0  0  0  0  0  0  0  0  0  0  0  0
    2.9180    0.0818    0.6112 C   0  0  0  0  0  0  0  0  0  0  0  0
   -3.7588    0.1167   -0.5814 C   0  0  0  0  0  0  0  0  0  0  0  0
    0.9457   -2.1633   -0.3492 C   0  0  0  0  0  0  0  0  0  0  0  0
    4.2642    0.7727    0.6378 C   0  0  0  0  0  0  0  0  0  0  0  0
   -3.7588   -0.7291    0.6675 C   0  0  0  0  0  0  0  0  0  0  0  0
    0.6496   -0.7973   -1.9295 H   0  0  0  0  0  0  0  0  0  0  0  0
   -1.7672    1.1392    1.1901 H   0  0  0  0  0  0  0  0  0  0  0  0
    2.2479    0.9397   -1.2441 H   0  0  0  0  0  0  0  0  0  0  0  0
    3.0366   -0.6156   -1.4184 H   0  0  0  0  0  0  0  0  0  0  0  0
   -3.9462    2.0161    0.4233 H   0  0  0  0  0  0  0  0  0  0  0  0
   -3.3741    2.1133   -1.2398 H   0  0  0  0  0  0  0  0  0  0  0  0
   -0.2235   -0.2281    0.8069 H   0  0  0  0  0  0  0  0  0  0  0  0
    3.0472   -0.9112    1.0555 H   0  0  0  0  0  0  0  0  0  0  0  0
    2.2371    0.6638    1.2422 H   0  0  0  0  0  0  0  0  0  0  0  0
   -4.7839    0.1299   -0.9687 H   0  0  0  0  0  0  0  0  0  0  0  0
   -3.1443   -0.3625   -1.3516 H   0  0  0  0  0  0  0  0  0  0  0  0
   -0.5171    3.0719    0.7790 H   0  0  0  0  0  0  0  0  0  0  0  0
   -2.0788    3.4901    0.9827 H   0  0  0  0  0  0  0  0  0  0  0  0
    1.7258   -3.9040   -0.7525 H   0  0  0  0  0  0  0  0  0  0  0  0
    5.6545    1.2586    1.9156 H   0  0  0  0  0  0  0  0  0  0  0  0
   -2.9319   -2.3320    1.4034 H   0  0  0  0  0  0  0  0  0  0  0  0
  1 14  2  0  0  0  0
  2 17  1  0  0  0  0
  2 33  1  0  0  0  0
  3 17  2  0  0  0  0
  4 18  1  0  0  0  0
  4 34  1  0  0  0  0
  5 19  1  0  0  0  0
  5 35  1  0  0  0  0
  6 18  2  0  0  0  0
  7 19  2  0  0  0  0
  8 10  1  0  0  0  0
  8 14  1  0  0  0  0
  8 26  1  0  0  0  0
  9 11  1  0  0  0  0
  9 31  1  0  0  0  0
  9 32  1  0  0  0  0
 10 12  1  0  0  0  0
 10 17  1  0  0  0  0
 10 20  1  0  0  0  0
 11 13  1  0  0  0  0
 11 14  1  0  0  0  0
 11 21  1  0  0  0  0
 12 15  1  0  0  0  0
 12 22  1  0  0  0  0
 12 23  1  0  0  0  0
 13 16  1  0  0  0  0
 13 24  1  0  0  0  0
 13 25  1  0  0  0  0
 15 18  1  0  0  0  0
 15 27  1  0  0  0  0
 15 28  1  0  0  0  0
 16 19  1  0  0  0  0
 16 29  1  0  0  0  0
 16 30  1  0  0  0  0
M  END
> <PUBCHEM_COMPOUND_CID>
439500

> <PUBCHEM_CONFORMER_RMSD>
1

> <PUBCHEM_CONFORMER_DIVERSEORDER>
1
27
25
8
12
26
18
22
29
28
4
32
6
31
9
3
13
7
17
30
23
20
24
21
14
5
11
15
33
10
2
19
16

> <PUBCHEM_MMFF94_PARTIAL_CHARGES>
23
1 -0.57
10 0.36
11 0.33
14 0.57
15 0.06
16 0.06
17 0.66
18 0.66
19 0.66
2 -0.65
26 0.37
3 -0.57
31 0.36
32 0.36
33 0.5
34 0.5
35 0.5
4 -0.65
5 -0.65
6 -0.57
7 -0.57
8 -0.73
9 -0.99

> <PUBCHEM_EFFECTIVE_ROTOR_COUNT>
10

> <PUBCHEM_PHARMACOPHORE_FEATURES>
13
1 1 acceptor
1 2 acceptor
1 3 acceptor
1 4 acceptor
1 5 acceptor
1 6 acceptor
1 7 acceptor
1 8 donor
1 9 cation
1 9 donor
3 2 3 17 anion
3 4 6 18 anion
3 5 7 19 anion

> <PUBCHEM_HEAVY_ATOM_COUNT>
19

> <PUBCHEM_ATOM_DEF_STEREO_COUNT>
2

> <PUBCHEM_ATOM_UDEF_STEREO_COUNT>
0

> <PUBCHEM_BOND_DEF_STEREO_COUNT>
0

> <PUBCHEM_BOND_UDEF_STEREO_COUNT>
0

> <PUBCHEM_ISOTOPIC_ATOM_COUNT>
0

> <PUBCHEM_COMPONENT_COUNT>
1

> <PUBCHEM_CACTVS_TAUTO_COUNT>
2

> <PUBCHEM_CONFORMER_ID>
0006B4CC00000001

> <PUBCHEM_MMFF94_ENERGY>
20.8522

> <PUBCHEM_FEATURE_SELFOVERLAP>
66.143

> <PUBCHEM_SHAPE_FINGERPRINT>
10366900 7 18186813482275060937
10922049 32 18260830401981136118
11132069 177 18412826867323418295
12596602 18 17203331061867995232
12839892 36 18201169801267074258
13140716 1 18052527782227928075
14081887 123 18409164428793783273
14178342 30 18200584938285006901
14223421 5 18265331900815591389
14251739 40 15482669040030108502
14787075 74 18042409036509580253
15099037 37 18060702792745564781
15375358 24 18271812358473690029
19784866 170 18408879637907154157
200 152 15482677870293133896
20344682 10 18408319977898883173
20645477 56 18189066317719163920
21069387 34 13973959904848790081
21401589 2 17460903712574224352
21524375 3 18336277811905565862
23402539 116 18202008677051941139
23557571 272 18200863071760966635
23559900 14 18195802088267860854
24859131 72 17988651817067526154
34934 24 18336269015870481647
474229 33 18338237068052818414
49207404 50 18410577314173280698
6333272 397 18410854348269962316
6442390 28 18260544485903038638
9882013 296 18202003226759359680

> <PUBCHEM_SHAPE_MULTIPOLES>
339.96
8.71
2.72
1.33
3.88
0.96
-0.1
-2.34
-3.69
-0.19
0.16
0.19
-0.08
1.27

> <PUBCHEM_SHAPE_SELFOVERLAP>
665.579

> <PUBCHEM_SHAPE_VOLUME>
201.8

> <PUBCHEM_COORDINATE_TYPE>
2
5
10

$$$$

