7846934
  -OEChem-06241222473D

 48 51  0     0  0  0  0  0  0999 V2000
    4.5135   -0.7882   -1.1728 S   0  0  0  0  0  0  0  0  0  0  0  0
    1.6981    1.9457   -0.5623 O   0  0  0  0  0  0  0  0  0  0  0  0
   -0.0491    0.2412   -1.6245 O   0  0  0  0  0  0  0  0  0  0  0  0
    2.3467    3.6354    0.8682 O   0  0  0  0  0  0  0  0  0  0  0  0
    3.4140   -0.0859    1.0521 N   0  0  0  0  0  0  0  0  0  0  0  0
   -6.4066   -1.1578   -0.9179 C   0  0  0  0  0  0  0  0  0  0  0  0
   -6.6763   -0.8996    0.5588 C   0  0  0  0  0  0  0  0  0  0  0  0
   -4.9106   -1.3470   -1.1622 C   0  0  0  0  0  0  0  0  0  0  0  0
   -5.9955    0.3917    1.0082 C   0  0  0  0  0  0  0  0  0  0  0  0
   -4.0605   -0.2946   -0.4948 C   0  0  0  0  0  0  0  0  0  0  0  0
   -4.5603    0.4969    0.5558 C   0  0  0  0  0  0  0  0  0  0  0  0
   -2.7240   -0.1442   -0.8948 C   0  0  0  0  0  0  0  0  0  0  0  0
   -3.7235    1.4471    1.1606 C   0  0  0  0  0  0  0  0  0  0  0  0
   -1.8997    0.7966   -0.2786 C   0  0  0  0  0  0  0  0  0  0  0  0
   -2.3999    1.5935    0.7469 C   0  0  0  0  0  0  0  0  0  0  0  0
   -0.5178    0.9441   -0.7062 C   0  0  0  0  0  0  0  0  0  0  0  0
    0.3885    1.9788   -0.0259 C   0  0  0  0  0  0  0  0  0  0  0  0
    4.8270    1.6659    0.0345 C   0  0  0  0  0  0  0  0  0  0  0  0
    3.9365    2.6699   -0.6990 C   0  0  0  0  0  0  0  0  0  0  0  0
    4.1925    0.2998    0.0893 C   0  0  0  0  0  0  0  0  0  0  0  0
    2.5945    2.8348   -0.0229 C   0  0  0  0  0  0  0  0  0  0  0  0
    3.5071   -1.9452   -0.3844 C   0  0  0  0  0  0  0  0  0  0  0  0
    3.0057   -1.3865    0.7952 C   0  0  0  0  0  0  0  0  0  0  0  0
    3.1846   -3.2530   -0.7811 C   0  0  0  0  0  0  0  0  0  0  0  0
    2.1514   -2.1666    1.6045 C   0  0  0  0  0  0  0  0  0  0  0  0
    2.3372   -4.0034    0.0378 C   0  0  0  0  0  0  0  0  0  0  0  0
    1.8262   -3.4693    1.2155 C   0  0  0  0  0  0  0  0  0  0  0  0
   -6.9494   -2.0493   -1.2516 H   0  0  0  0  0  0  0  0  0  0  0  0
   -6.7784   -0.3134   -1.5122 H   0  0  0  0  0  0  0  0  0  0  0  0
   -6.3048   -1.7442    1.1530 H   0  0  0  0  0  0  0  0  0  0  0  0
   -7.7546   -0.8291    0.7399 H   0  0  0  0  0  0  0  0  0  0  0  0
   -4.6020   -2.3269   -0.7769 H   0  0  0  0  0  0  0  0  0  0  0  0
   -4.7282   -1.3439   -2.2435 H   0  0  0  0  0  0  0  0  0  0  0  0
   -6.0477    0.4544    2.1018 H   0  0  0  0  0  0  0  0  0  0  0  0
   -6.5435    1.2505    0.6006 H   0  0  0  0  0  0  0  0  0  0  0  0
   -2.3414   -0.7757   -1.6940 H   0  0  0  0  0  0  0  0  0  0  0  0
   -4.1024    2.0795    1.9599 H   0  0  0  0  0  0  0  0  0  0  0  0
   -1.7978    2.3422    1.2520 H   0  0  0  0  0  0  0  0  0  0  0  0
   -0.0379    2.9742   -0.1919 H   0  0  0  0  0  0  0  0  0  0  0  0
    0.4422    1.7423    1.0425 H   0  0  0  0  0  0  0  0  0  0  0  0
    4.9956    2.0088    1.0632 H   0  0  0  0  0  0  0  0  0  0  0  0
    5.8109    1.6225   -0.4473 H   0  0  0  0  0  0  0  0  0  0  0  0
    3.7791    2.3811   -1.7453 H   0  0  0  0  0  0  0  0  0  0  0  0
    4.4194    3.6537   -0.7236 H   0  0  0  0  0  0  0  0  0  0  0  0
    3.5797   -3.6764   -1.6994 H   0  0  0  0  0  0  0  0  0  0  0  0
    1.7459   -1.7588    2.5260 H   0  0  0  0  0  0  0  0  0  0  0  0
    2.0749   -5.0178   -0.2511 H   0  0  0  0  0  0  0  0  0  0  0  0
    1.1681   -4.0677    1.8396 H   0  0  0  0  0  0  0  0  0  0  0  0
  1 20  1  0  0  0  0
  1 22  1  0  0  0  0
  2 17  1  0  0  0  0
  2 21  1  0  0  0  0
  3 16  2  0  0  0  0
  4 21  2  0  0  0  0
  5 20  2  0  0  0  0
  5 23  1  0  0  0  0
  6  7  1  0  0  0  0
  6  8  1  0  0  0  0
  6 28  1  0  0  0  0
  6 29  1  0  0  0  0
  7  9  1  0  0  0  0
  7 30  1  0  0  0  0
  7 31  1  0  0  0  0
  8 10  1  0  0  0  0
  8 32  1  0  0  0  0
  8 33  1  0  0  0  0
  9 11  1  0  0  0  0
  9 34  1  0  0  0  0
  9 35  1  0  0  0  0
 10 11  2  0  0  0  0
 10 12  1  0  0  0  0
 11 13  1  0  0  0  0
 12 14  2  0  0  0  0
 12 36  1  0  0  0  0
 13 15  2  0  0  0  0
 13 37  1  0  0  0  0
 14 15  1  0  0  0  0
 14 16  1  0  0  0  0
 15 38  1  0  0  0  0
 16 17  1  0  0  0  0
 17 39  1  0  0  0  0
 17 40  1  0  0  0  0
 18 19  1  0  0  0  0
 18 20  1  0  0  0  0
 18 41  1  0  0  0  0
 18 42  1  0  0  0  0
 19 21  1  0  0  0  0
 19 43  1  0  0  0  0
 19 44  1  0  0  0  0
 22 23  1  0  0  0  0
 22 24  2  0  0  0  0
 23 25  2  0  0  0  0
 24 26  1  0  0  0  0
 24 45  1  0  0  0  0
 25 27  1  0  0  0  0
 25 46  1  0  0  0  0
 26 27  2  0  0  0  0
 26 47  1  0  0  0  0
 27 48  1  0  0  0  0
M  END
> <PUBCHEM_COMPOUND_CID>
7846934

> <PUBCHEM_CONFORMER_RMSD>
1.2

> <PUBCHEM_CONFORMER_DIVERSEORDER>
1
137
7
18
198
168
61
145
88
2
203
134
165
90
57
181
172
5
167
149
138
118
17
207
155
128
98
62
102
23
179
190
52
119
48
178
147
13
50
131
70
63
84
30
184
22
141
11
58
15
169
136
69
68
54
95
14
124
201
173
47
139
71
150
140
66
182
81
133
89
210
104
60
171
35
56
12
206
34
83
65
148
75
32
115
85
129
80
110
162
41
164
142
170
101
51
26
166
91
161
37
44
72
209
157
196
153
205
20
36
126
122
96
132
160
43
143
33
40
185
82
197
64
29
39
79
76
146
78
107
175
8
192
144
135
116
55
117
100
93
92
188
99
49
158
25
21
87
121
105
67
86
208
53
73
154
176
156
174
200
97
130
38
180
77
191
108
193
42
4
59
187
183
46
127
120
195
94
202
103
109
163
28
74
159
186
19
16
31
125
45
24
10
152
114
123
189
111
112
3
204
27
113
151
9
6
106
199
194
177

> <PUBCHEM_MMFF94_PARTIAL_CHARGES>
32
1 -0.08
10 -0.14
11 -0.14
12 -0.15
13 -0.15
14 0.09
15 -0.15
16 0.42
17 0.34
18 0.18
19 0.06
2 -0.43
20 0.2
21 0.66
22 0.04
23 0.23
24 -0.15
25 -0.15
26 -0.15
27 -0.15
3 -0.57
36 0.15
37 0.15
38 0.15
4 -0.57
45 0.15
46 0.15
47 0.15
48 0.15
5 -0.57
8 0.14
9 0.14

> <PUBCHEM_EFFECTIVE_ROTOR_COUNT>
7.8

> <PUBCHEM_PHARMACOPHORE_FEATURES>
7
1 3 acceptor
1 4 acceptor
1 5 acceptor
5 1 5 20 22 23 rings
6 10 11 12 13 14 15 rings
6 22 23 24 25 26 27 rings
6 6 7 8 9 10 11 rings

> <PUBCHEM_HEAVY_ATOM_COUNT>
27

> <PUBCHEM_ATOM_DEF_STEREO_COUNT>
0

> <PUBCHEM_ATOM_UDEF_STEREO_COUNT>
0

> <PUBCHEM_BOND_DEF_STEREO_COUNT>
0

> <PUBCHEM_BOND_UDEF_STEREO_COUNT>
0

> <PUBCHEM_ISOTOPIC_ATOM_COUNT>
0

> <PUBCHEM_COMPONENT_COUNT>
1

> <PUBCHEM_CACTVS_TAUTO_COUNT>
4

> <PUBCHEM_CONFORMER_ID>
0077BC1600000001

> <PUBCHEM_MMFF94_ENERGY>
50.511

> <PUBCHEM_FEATURE_SELFOVERLAP>
35.615

> <PUBCHEM_SHAPE_FINGERPRINT>
10316853 100 18201712912518849891
11014199 57 17834397105123943026
11421498 54 18114178666360751168
114674 6 18272650173286032562
12107183 9 17901938974651887841
12128747 34 18200878495558830397
12596602 18 17749388152678037801
13150687 139 17844223179096921500
13533116 47 18408602544208665545
1361 2 18411135818450662794
13692114 37 18046638798192113978
13726171 33 16515669057684878256
13785724 45 17900809754318249503
14863182 85 18413107260912668012
15001296 14 18337677408413831911
150020 26 16519911166565515454
15003188 105 18130229375620684314
15110567 62 18413389821793385334
15250474 111 18261119530563408959
17492 89 18265051508107212175
17818456 19 17898001588952922361
1813 80 17846490474250354645
19427546 62 17980198587317547636
20028762 73 18335143090294614118
20511986 3 18041571256247426189
20645477 70 18272375260676406548
21197605 99 18125997170397113123
21623969 137 18131347475660545923
23559900 14 17386834183708017869
239999 70 18409164433257958518
3117164 225 18119803866653936001
3633792 109 18341905100032619389
3737641 26 18266173031970050318
394071 54 18341607118789870627
397830 11 6483063125034992197
437795 51 18270944766025921410
463206 1 18339082562514157599
5309563 4 18266741462169853118
5312544 6 18409168775010562511
86090 222 17631996603547974923

> <PUBCHEM_SHAPE_MULTIPOLES>
536.91
14.45
4.22
1.31
21.16
1.45
0.05
2.62
-0.37
-6.82
0.63
0.19
0.39
-1.18

> <PUBCHEM_SHAPE_SELFOVERLAP>
1152.107

> <PUBCHEM_SHAPE_VOLUME>
296.2

> <PUBCHEM_COORDINATE_TYPE>
2
5
10

$$$$

