3007857
  -OEChem-07051213032D

  2  0  0     0  0  0  0  0  0999 V2000
    2.0000    0.0000    0.0000 Zn  0  2  0  0  0  0  0  0  0  0  0  0
    3.0000    0.0000    0.0000 O   0  6  0  0  0  0  0  0  0  0  0  0
M  CHG  2   1   2   2  -2
M  END
> <PUBCHEM_COMPOUND_CID>
3007857

> <PUBCHEM_COMPOUND_CANONICALIZED>
1

> <PUBCHEM_CACTVS_COMPLEXITY>
0

> <PUBCHEM_CACTVS_HBOND_ACCEPTOR>
1

> <PUBCHEM_CACTVS_HBOND_DONOR>
0

> <PUBCHEM_CACTVS_ROTATABLE_BOND>
0

> <PUBCHEM_CACTVS_SUBSKEYS>
AAADcQAAIAAAAAACAAAAAAAAAAAAAAAAAAAAAAAAAAAAAAAAAAAAAAAAAAAAAAAAAAAAAAAAAAAAAAAAAAAAAAAAAAAAAAAAAAAAAAAAAAAAAAAAAAAAAAAAAAAAAAAAAAAAAAAAAAAAAAAAAAAAAAAAAA==

> <PUBCHEM_IUPAC_OPENEYE_NAME>
zinc oxygen(2-)

> <PUBCHEM_IUPAC_CAS_NAME>
zinc oxygen(2-)

> <PUBCHEM_IUPAC_NAME>
zinc oxygen(2-)

> <PUBCHEM_IUPAC_SYSTEMATIC_NAME>
zinc oxygen(2-)

> <PUBCHEM_IUPAC_TRADITIONAL_NAME>
zinc oxygen(2-)

> <PUBCHEM_IUPAC_INCHI>
InChI=1S/O.Zn/q-2;+2

> <PUBCHEM_IUPAC_INCHIKEY>
RNWHGQJWIACOKP-UHFFFAOYSA-N

> <PUBCHEM_EXACT_MASS>
79.924057

> <PUBCHEM_MOLECULAR_FORMULA>
OZn

> <PUBCHEM_MOLECULAR_WEIGHT>
81.3794

> <PUBCHEM_OPENEYE_CAN_SMILES>
[O-2].[Zn+2]

> <PUBCHEM_OPENEYE_ISO_SMILES>
[O-2].[Zn+2]

> <PUBCHEM_CACTVS_TPSA>
1

> <PUBCHEM_MONOISOTOPIC_WEIGHT>
79.924057

> <PUBCHEM_TOTAL_CHARGE>
0

> <PUBCHEM_HEAVY_ATOM_COUNT>
2

> <PUBCHEM_ATOM_DEF_STEREO_COUNT>
0

> <PUBCHEM_ATOM_UDEF_STEREO_COUNT>
0

> <PUBCHEM_BOND_DEF_STEREO_COUNT>
0

> <PUBCHEM_BOND_UDEF_STEREO_COUNT>
0

> <PUBCHEM_ISOTOPIC_ATOM_COUNT>
0

> <PUBCHEM_COMPONENT_COUNT>
2

> <PUBCHEM_CACTVS_TAUTO_COUNT>
1

> <PUBCHEM_COORDINATE_TYPE>
1
5
255

$$$$

