11137
  -OEChem-07051213053D

 15 15  0     0  0  0  0  0  0999 V2000
   -2.6770    1.5224   -0.0016 O   0  0  0  0  0  0  0  0  0  0  0  0
    2.8475   -0.6397   -0.0021 O   0  5  0  0  0  0  0  0  0  0  0  0
    2.2948    1.4849    0.0002 O   0  0  0  0  0  0  0  0  0  0  0  0
    1.9828    0.2695    0.0000 N   0  3  0  0  0  0  0  0  0  0  0  0
    0.6085   -0.0881    0.0015 C   0  0  0  0  0  0  0  0  0  0  0  0
   -0.3707    0.9054    0.0013 C   0  0  0  0  0  0  0  0  0  0  0  0
   -1.7207    0.5538    0.0004 C   0  0  0  0  0  0  0  0  0  0  0  0
    0.2379   -1.4328    0.0008 C   0  0  0  0  0  0  0  0  0  0  0  0
   -2.0911   -0.7910   -0.0004 C   0  0  0  0  0  0  0  0  0  0  0  0
   -1.1119   -1.7843   -0.0001 C   0  0  0  0  0  0  0  0  0  0  0  0
   -0.1128    1.9619    0.0012 H   0  0  0  0  0  0  0  0  0  0  0  0
    0.9731   -2.2335    0.0005 H   0  0  0  0  0  0  0  0  0  0  0  0
   -3.1392   -1.0781   -0.0016 H   0  0  0  0  0  0  0  0  0  0  0  0
   -1.4009   -2.8313   -0.0009 H   0  0  0  0  0  0  0  0  0  0  0  0
   -3.5532    1.1000   -0.0025 H   0  0  0  0  0  0  0  0  0  0  0  0
  1  7  1  0  0  0  0
  1 15  1  0  0  0  0
  2  4  1  0  0  0  0
  3  4  2  0  0  0  0
  4  5  1  0  0  0  0
  5  6  2  0  0  0  0
  5  8  1  0  0  0  0
  6  7  1  0  0  0  0
  6 11  1  0  0  0  0
  7  9  2  0  0  0  0
  8 10  2  0  0  0  0
  8 12  1  0  0  0  0
  9 10  1  0  0  0  0
  9 13  1  0  0  0  0
 10 14  1  0  0  0  0
M  CHG  2   2  -1   4   1
M  END
> <PUBCHEM_COMPOUND_CID>
11137

> <PUBCHEM_CONFORMER_RMSD>
0.4

> <PUBCHEM_CONFORMER_DIVERSEORDER>
1

> <PUBCHEM_MMFF94_PARTIAL_CHARGES>
15
1 -0.53
10 -0.15
11 0.15
12 0.15
13 0.15
14 0.15
15 0.45
2 -0.52
3 -0.52
4 0.91
5 0.13
6 -0.15
7 0.08
8 -0.15
9 -0.15

> <PUBCHEM_EFFECTIVE_ROTOR_COUNT>
1

> <PUBCHEM_PHARMACOPHORE_FEATURES>
5
1 1 donor
1 2 acceptor
1 2 anion
1 3 acceptor
6 5 6 7 8 9 10 rings

> <PUBCHEM_HEAVY_ATOM_COUNT>
10

> <PUBCHEM_ATOM_DEF_STEREO_COUNT>
0

> <PUBCHEM_ATOM_UDEF_STEREO_COUNT>
0

> <PUBCHEM_BOND_DEF_STEREO_COUNT>
0

> <PUBCHEM_BOND_UDEF_STEREO_COUNT>
0

> <PUBCHEM_ISOTOPIC_ATOM_COUNT>
0

> <PUBCHEM_COMPONENT_COUNT>
1

> <PUBCHEM_CACTVS_TAUTO_COUNT>
3

> <PUBCHEM_CONFORMER_ID>
00002B8100000001

> <PUBCHEM_MMFF94_ENERGY>
27.4538

> <PUBCHEM_FEATURE_SELFOVERLAP>
25.453

> <PUBCHEM_SHAPE_FINGERPRINT>
14325111 11 18410855464470764256
16945 1 18338517555113158819
193761 8 15960897993168032387
19973954 147 18338796702344195604
20653085 51 18339067259376753512
20871998 184 18116707405222544311
21040471 1 18410856589841762659
23235685 24 18337677536951302385
23552423 10 18272370815596154222
241688 4 16319214156904641299
2748010 2 18410572864180817789
369184 2 18335139743665368099
5084963 1 18259987054460034883

> <PUBCHEM_SHAPE_MULTIPOLES>
183.21
3.57
1.76
0.58
1.35
0.14
0
-0.89
0
-0.51
0
-0.05
0.03
0

> <PUBCHEM_SHAPE_SELFOVERLAP>
384.783

> <PUBCHEM_SHAPE_VOLUME>
104

> <PUBCHEM_COORDINATE_TYPE>
2
5
10

$$$$

