5280
  -OEChem-06261200373D

 30 31  0     1  0  0  0  0  0999 V2000
   -1.7709    0.1473    0.5726 O   0  0  0  0  0  0  0  0  0  0  0  0
   -3.9393    1.8701    1.0667 O   0  0  0  0  0  0  0  0  0  0  0  0
    1.2519   -2.6441    0.6987 O   0  0  0  0  0  0  0  0  0  0  0  0
    4.2410    0.7822    0.0097 O   0  0  0  0  0  0  0  0  0  0  0  0
    0.4215   -0.5428    0.1175 N   0  0  0  0  0  0  0  0  0  0  0  0
    2.7315   -0.9261    0.3528 N   0  0  0  0  0  0  0  0  0  0  0  0
   -0.9532   -0.9502    0.1383 C   0  0  2  0  0  0  0  0  0  0  0  0
   -1.4676   -1.3782   -1.2254 C   0  0  0  0  0  0  0  0  0  0  0  0
   -2.9238   -0.9925   -1.1439 C   0  0  0  0  0  0  0  0  0  0  0  0
   -2.8472    0.3098   -0.3664 C   0  0  1  0  0  0  0  0  0  0  0  0
   -4.1270    0.6497    0.3721 C   0  0  0  0  0  0  0  0  0  0  0  0
    0.6974    0.7717   -0.1983 C   0  0  0  0  0  0  0  0  0  0  0  0
    1.4394   -1.4602    0.4107 C   0  0  0  0  0  0  0  0  0  0  0  0
    1.9349    1.2795   -0.2528 C   0  0  0  0  0  0  0  0  0  0  0  0
    3.0812    0.3794    0.0430 C   0  0  0  0  0  0  0  0  0  0  0  0
    2.2301    2.7043   -0.5953 C   0  0  0  0  0  0  0  0  0  0  0  0
   -1.0912   -1.7615    0.8632 H   0  0  0  0  0  0  0  0  0  0  0  0
   -1.3093   -2.4428   -1.4211 H   0  0  0  0  0  0  0  0  0  0  0  0
   -0.9826   -0.8177   -2.0343 H   0  0  0  0  0  0  0  0  0  0  0  0
   -3.3979   -0.8767   -2.1224 H   0  0  0  0  0  0  0  0  0  0  0  0
   -3.4754   -1.7554   -0.5811 H   0  0  0  0  0  0  0  0  0  0  0  0
   -2.5631    1.1369   -1.0290 H   0  0  0  0  0  0  0  0  0  0  0  0
   -4.3665   -0.1143    1.1184 H   0  0  0  0  0  0  0  0  0  0  0  0
   -4.9749    0.7547   -0.3116 H   0  0  0  0  0  0  0  0  0  0  0  0
   -0.1401    1.4181   -0.4357 H   0  0  0  0  0  0  0  0  0  0  0  0
    3.4946   -1.5646    0.5598 H   0  0  0  0  0  0  0  0  0  0  0  0
   -3.7589    2.5610    0.4066 H   0  0  0  0  0  0  0  0  0  0  0  0
    2.7569    3.1947    0.2297 H   0  0  0  0  0  0  0  0  0  0  0  0
    1.3171    3.2758   -0.7929 H   0  0  0  0  0  0  0  0  0  0  0  0
    2.8574    2.7602   -1.4909 H   0  0  0  0  0  0  0  0  0  0  0  0
  1  7  1  0  0  0  0
  1 10  1  0  0  0  0
  2 11  1  0  0  0  0
  2 27  1  0  0  0  0
  3 13  2  0  0  0  0
  4 15  2  0  0  0  0
  5  7  1  0  0  0  0
  5 12  1  0  0  0  0
  5 13  1  0  0  0  0
  6 13  1  0  0  0  0
  6 15  1  0  0  0  0
  6 26  1  0  0  0  0
  7  8  1  0  0  0  0
  7 17  1  0  0  0  0
  8  9  1  0  0  0  0
  8 18  1  0  0  0  0
  8 19  1  0  0  0  0
  9 10  1  0  0  0  0
  9 20  1  0  0  0  0
  9 21  1  0  0  0  0
 10 11  1  0  0  0  0
 10 22  1  0  0  0  0
 11 23  1  0  0  0  0
 11 24  1  0  0  0  0
 12 14  2  0  0  0  0
 12 25  1  0  0  0  0
 14 15  1  0  0  0  0
 14 16  1  0  0  0  0
 16 28  1  0  0  0  0
 16 29  1  0  0  0  0
 16 30  1  0  0  0  0
M  END
> <PUBCHEM_COMPOUND_CID>
5280

> <PUBCHEM_CONFORMER_RMSD>
0.6

> <PUBCHEM_CONFORMER_DIVERSEORDER>
1
27
16
34
13
28
26
35
32
2
33
9
14
30
25
4
12
15
18
7
36
3
29
19
24
11
17
31
20
22
5
10
8
6
23
21

> <PUBCHEM_MMFF94_PARTIAL_CHARGES>
17
1 -0.56
10 0.28
11 0.28
12 -0.04
13 0.69
14 -0.12
15 0.62
16 0.14
2 -0.68
25 0.15
26 0.37
27 0.4
3 -0.57
4 -0.57
5 -0.47
6 -0.49
7 0.58

> <PUBCHEM_EFFECTIVE_ROTOR_COUNT>
3

> <PUBCHEM_PHARMACOPHORE_FEATURES>
8
1 1 acceptor
1 2 acceptor
1 2 donor
1 3 acceptor
1 4 acceptor
1 6 donor
5 1 7 8 9 10 rings
6 5 6 12 13 14 15 rings

> <PUBCHEM_HEAVY_ATOM_COUNT>
16

> <PUBCHEM_ATOM_DEF_STEREO_COUNT>
0

> <PUBCHEM_ATOM_UDEF_STEREO_COUNT>
2

> <PUBCHEM_BOND_DEF_STEREO_COUNT>
0

> <PUBCHEM_BOND_UDEF_STEREO_COUNT>
0

> <PUBCHEM_ISOTOPIC_ATOM_COUNT>
0

> <PUBCHEM_COMPONENT_COUNT>
1

> <PUBCHEM_CACTVS_TAUTO_COUNT>
3

> <PUBCHEM_CONFORMER_ID>
000014A000000001

> <PUBCHEM_MMFF94_ENERGY>
33.4764

> <PUBCHEM_FEATURE_SELFOVERLAP>
40.598

> <PUBCHEM_SHAPE_FINGERPRINT>
10465860 228 18338230565361367576
10980938 120 18342461481873444166
11471102 20 18343309188105758478
12553582 1 17837504303003319170
15279307 12 18335707122036416615
15342168 16 17844520003347776573
15442244 35 18193560196943766091
15775835 57 18334856117136914925
16752209 62 17459207226183304911
16945 1 18272099309006351150
17844478 74 17203330052318403069
18186145 218 18341336591547680020
201361 129 18411698794163000371
20233049 118 17603871138668720993
20645476 183 18187367619040039063
21041028 32 17983863564277264816
21524375 3 18339081475744942007
21639500 275 18199767872169566886
21665062 11 18267855267301422033
22094290 62 18411139138491972413
22854114 111 18413669119184708201
23402539 116 17458349645203822837
23557571 272 17095806507850821960
23559900 14 16877662366667539490
23598291 2 18261969551487936935
25 1 18272652337775209650
2748010 2 17839174109457568446
474 4 18343022151157169753
528886 8 18342465798600458906
633830 44 18410849928616583940
7364860 26 18335420231090075894
77492 1 18261121767835090591
7832392 63 18335139812411218604
81228 2 16543592521192461130
84936 182 18117000974932863544
9981440 41 17470744203998644352

> <PUBCHEM_SHAPE_MULTIPOLES>
295.83
6.89
2.31
0.94
2.04
0.22
0.13
3.06
-0.53
-0.85
-0.13
0.62
-0.07
-1.41

> <PUBCHEM_SHAPE_SELFOVERLAP>
618.663

> <PUBCHEM_SHAPE_VOLUME>
167.5

> <PUBCHEM_COORDINATE_TYPE>
2
5
10

$$$$

