54680871
  -OEChem-07051213093D

 19 20  0     0  0  0  0  0  0999 V2000
   -0.6478    2.7393    0.0177 O   0  0  0  0  0  0  0  0  0  0  0  0
   -3.2150   -1.2438   -0.0205 O   0  0  0  0  0  0  0  0  0  0  0  0
   -0.9223   -1.4261    0.0116 N   0  0  0  0  0  0  0  0  0  0  0  0
    0.4578    0.5813    0.0050 C   0  0  0  0  0  0  0  0  0  0  0  0
    0.3476   -0.8202    0.0148 C   0  0  0  0  0  0  0  0  0  0  0  0
   -0.7894    1.3695    0.0089 C   0  0  0  0  0  0  0  0  0  0  0  0
    1.7444    1.1389   -0.0219 C   0  0  0  0  0  0  0  0  0  0  0  0
    1.4820   -1.6390    0.0172 C   0  0  0  0  0  0  0  0  0  0  0  0
   -1.9821    0.7612   -0.0054 C   0  0  0  0  0  0  0  0  0  0  0  0
   -2.1040   -0.7184   -0.0074 C   0  0  0  0  0  0  0  0  0  0  0  0
    2.8796    0.3216   -0.0213 C   0  0  0  0  0  0  0  0  0  0  0  0
    2.7491   -1.0643    0.0014 C   0  0  0  0  0  0  0  0  0  0  0  0
   -0.9656   -2.4413    0.0151 H   0  0  0  0  0  0  0  0  0  0  0  0
    1.8829    2.2174   -0.0387 H   0  0  0  0  0  0  0  0  0  0  0  0
    1.3877   -2.7217    0.0273 H   0  0  0  0  0  0  0  0  0  0  0  0
   -2.9063    1.3296   -0.0089 H   0  0  0  0  0  0  0  0  0  0  0  0
    3.8682    0.7719   -0.0381 H   0  0  0  0  0  0  0  0  0  0  0  0
    3.6334   -1.6945    0.0020 H   0  0  0  0  0  0  0  0  0  0  0  0
   -1.5364    3.1353    0.0161 H   0  0  0  0  0  0  0  0  0  0  0  0
  1  6  1  0  0  0  0
  1 19  1  0  0  0  0
  2 10  2  0  0  0  0
  3  5  1  0  0  0  0
  3 10  1  0  0  0  0
  3 13  1  0  0  0  0
  4  5  1  0  0  0  0
  4  6  1  0  0  0  0
  4  7  2  0  0  0  0
  5  8  2  0  0  0  0
  6  9  2  0  0  0  0
  7 11  1  0  0  0  0
  7 14  1  0  0  0  0
  8 12  1  0  0  0  0
  8 15  1  0  0  0  0
  9 10  1  0  0  0  0
  9 16  1  0  0  0  0
 11 12  2  0  0  0  0
 11 17  1  0  0  0  0
 12 18  1  0  0  0  0
M  END
> <PUBCHEM_COMPOUND_CID>
54680871

> <PUBCHEM_CONFORMER_RMSD>
0.4

> <PUBCHEM_CONFORMER_DIVERSEORDER>
1

> <PUBCHEM_MMFF94_PARTIAL_CHARGES>
19
1 -0.53
10 0.62
11 -0.15
12 -0.15
13 0.37
14 0.15
15 0.15
16 0.15
17 0.15
18 0.15
19 0.45
2 -0.57
3 -0.55
4 0.03
5 0.12
6 0.05
7 -0.15
8 -0.15
9 -0.14

> <PUBCHEM_EFFECTIVE_ROTOR_COUNT>
0

> <PUBCHEM_PHARMACOPHORE_FEATURES>
5
1 1 donor
1 2 acceptor
1 3 donor
6 3 4 5 6 9 10 rings
6 4 5 7 8 11 12 rings

> <PUBCHEM_HEAVY_ATOM_COUNT>
12

> <PUBCHEM_ATOM_DEF_STEREO_COUNT>
0

> <PUBCHEM_ATOM_UDEF_STEREO_COUNT>
0

> <PUBCHEM_BOND_DEF_STEREO_COUNT>
0

> <PUBCHEM_BOND_UDEF_STEREO_COUNT>
0

> <PUBCHEM_ISOTOPIC_ATOM_COUNT>
0

> <PUBCHEM_COMPONENT_COUNT>
1

> <PUBCHEM_CACTVS_TAUTO_COUNT>
15

> <PUBCHEM_CONFORMER_ID>
03425D2700000001

> <PUBCHEM_MMFF94_ENERGY>
30.7675

> <PUBCHEM_FEATURE_SELFOVERLAP>
25.396

> <PUBCHEM_SHAPE_FINGERPRINT>
10967382 1 18194683661567228483
11206711 2 18340483469150401316
12032990 46 18411130303749662195
12423570 1 6092993090719971788
12897270 3 18410857676463194422
13380535 76 17904489845643362789
14325111 11 18410856572746354464
161256 15 18335704910075160688
16945 1 18194119839893656162
193761 8 17978228588586084483
19973954 147 18338233894208915734
20201158 50 18341897359378373691
20871998 184 18187086199496697191
21040471 1 17906172107097511112
21501502 16 18339076107273062290
2334 1 18410856538317959873
23463225 33 18411980256233716590
23552423 10 18272366499022003542
23559900 14 17469038217752138750
241688 4 18411418431641030361
2748010 2 18410296908311006965
5084963 1 18260266382222109954
528886 8 18409735053516230395

> <PUBCHEM_SHAPE_MULTIPOLES>
230.23
4.05
2.13
0.59
0.05
0.81
0
-1.18
-0.03
-0.48
0.01
0.04
0
-0.02

> <PUBCHEM_SHAPE_SELFOVERLAP>
503.501

> <PUBCHEM_SHAPE_VOLUME>
124.4

> <PUBCHEM_COORDINATE_TYPE>
2
5
10

$$$$

