441381
  -OEChem-07051212543D

 72 76  0     1  0  0  0  0  0999 V2000
    2.7381    1.5956   -1.2211 O   0  0  0  0  0  0  0  0  0  0  0  0
    1.8593   -1.6322    0.7347 O   0  0  0  0  0  0  0  0  0  0  0  0
    1.4201   -0.4730   -1.2420 O   0  0  0  0  0  0  0  0  0  0  0  0
    2.0733    2.2216    2.3336 O   0  0  0  0  0  0  0  0  0  0  0  0
    4.8875    1.3769    2.2826 O   0  0  0  0  0  0  0  0  0  0  0  0
    6.1773    2.2455   -0.1439 O   0  0  0  0  0  0  0  0  0  0  0  0
    4.4806   -4.1531   -1.1734 O   0  0  0  0  0  0  0  0  0  0  0  0
    2.4837   -2.6379   -2.7218 O   0  0  0  0  0  0  0  0  0  0  0  0
    3.4176   -4.8757    1.4158 O   0  0  0  0  0  0  0  0  0  0  0  0
    3.8543    2.1205   -3.6754 O   0  0  0  0  0  0  0  0  0  0  0  0
   -0.2017    3.4654    0.9126 O   0  0  0  0  0  0  0  0  0  0  0  0
   -3.2336   -0.0548   -0.4435 O   0  0  0  0  0  0  0  0  0  0  0  0
    0.9815   -1.9841    3.3158 O   0  0  0  0  0  0  0  0  0  0  0  0
   -2.7743    3.5985    1.3004 O   0  0  0  0  0  0  0  0  0  0  0  0
   -9.2660   -1.9414   -0.6303 O   0  0  0  0  0  0  0  0  0  0  0  0
    2.0231    2.0527   -0.0686 C   0  0  2  0  0  0  0  0  0  0  0  0
    2.7284    1.6099    1.2226 C   0  0  1  0  0  0  0  0  0  0  0  0
    4.1996    2.0339    1.2165 C   0  0  2  0  0  0  0  0  0  0  0  0
    4.8839    1.6486   -0.0948 C   0  0  1  0  0  0  0  0  0  0  0  0
    4.0632    2.1231   -1.2954 C   0  0  1  0  0  0  0  0  0  0  0  0
    0.6106    1.5091   -0.1580 C   0  0  0  0  0  0  0  0  0  0  0  0
    3.2031   -3.7302   -0.6939 C   0  0  2  0  0  0  0  0  0  0  0  0
    2.8242   -2.4051   -1.3554 C   0  0  2  0  0  0  0  0  0  0  0  0
    3.2927   -3.5847    0.8253 C   0  0  1  0  0  0  0  0  0  0  0  0
    1.6213   -1.7628   -0.6648 C   0  0  1  0  0  0  0  0  0  0  0  0
    2.0444   -2.8937    1.3792 C   0  0  1  0  0  0  0  0  0  0  0  0
    0.3842    0.2635   -0.7456 C   0  0  0  0  0  0  0  0  0  0  0  0
    4.6692    1.6554   -2.6148 C   0  0  0  0  0  0  0  0  0  0  0  0
   -0.4579    2.2521    0.3452 C   0  0  0  0  0  0  0  0  0  0  0  0
    2.1619   -2.6320    2.8774 C   0  0  0  0  0  0  0  0  0  0  0  0
   -0.9123   -0.2445   -0.8322 C   0  0  0  0  0  0  0  0  0  0  0  0
   -1.7543    1.7399    0.2568 C   0  0  0  0  0  0  0  0  0  0  0  0
   -1.9824    0.4960   -0.3295 C   0  0  0  0  0  0  0  0  0  0  0  0
   -2.9009    2.5002    0.7769 C   0  0  0  0  0  0  0  0  0  0  0  0
   -4.2256    1.8634    0.6323 C   0  0  0  0  0  0  0  0  0  0  0  0
   -4.3158    0.6555    0.0534 C   0  0  0  0  0  0  0  0  0  0  0  0
   -5.6139   -0.0253   -0.1264 C   0  0  0  0  0  0  0  0  0  0  0  0
   -6.7808    0.7229   -0.3002 C   0  0  0  0  0  0  0  0  0  0  0  0
   -5.6805   -1.4208   -0.1231 C   0  0  0  0  0  0  0  0  0  0  0  0
   -8.0069    0.0794   -0.4694 C   0  0  0  0  0  0  0  0  0  0  0  0
   -6.9065   -2.0641   -0.2924 C   0  0  0  0  0  0  0  0  0  0  0  0
   -8.0698   -1.3141   -0.4655 C   0  0  0  0  0  0  0  0  0  0  0  0
    1.9823    3.1486   -0.1247 H   0  0  0  0  0  0  0  0  0  0  0  0
    2.6668    0.5291    1.3642 H   0  0  0  0  0  0  0  0  0  0  0  0
    4.2964    3.1110    1.4009 H   0  0  0  0  0  0  0  0  0  0  0  0
    5.0224    0.5607   -0.1273 H   0  0  0  0  0  0  0  0  0  0  0  0
    4.0007    3.2196   -1.3216 H   0  0  0  0  0  0  0  0  0  0  0  0
    2.4906   -4.5166   -0.9721 H   0  0  0  0  0  0  0  0  0  0  0  0
    3.6847   -1.7243   -1.3498 H   0  0  0  0  0  0  0  0  0  0  0  0
    4.1965   -3.0132    1.0741 H   0  0  0  0  0  0  0  0  0  0  0  0
    0.7316   -2.3824   -0.8379 H   0  0  0  0  0  0  0  0  0  0  0  0
    1.1490   -3.5075    1.2113 H   0  0  0  0  0  0  0  0  0  0  0  0
    5.6797    2.0482   -2.7588 H   0  0  0  0  0  0  0  0  0  0  0  0
    4.7030    0.5624   -2.6746 H   0  0  0  0  0  0  0  0  0  0  0  0
    3.0077   -1.9745    3.1044 H   0  0  0  0  0  0  0  0  0  0  0  0
    2.2697   -3.5575    3.4490 H   0  0  0  0  0  0  0  0  0  0  0  0
    2.4654    1.8574    3.1449 H   0  0  0  0  0  0  0  0  0  0  0  0
    4.5049    1.6916    3.1187 H   0  0  0  0  0  0  0  0  0  0  0  0
    6.0634    3.2111   -0.1251 H   0  0  0  0  0  0  0  0  0  0  0  0
   -1.1049   -1.2037   -1.3051 H   0  0  0  0  0  0  0  0  0  0  0  0
    4.6983   -4.9879   -0.7244 H   0  0  0  0  0  0  0  0  0  0  0  0
    2.2377   -1.7808   -3.1102 H   0  0  0  0  0  0  0  0  0  0  0  0
    3.7154   -4.7559    2.3330 H   0  0  0  0  0  0  0  0  0  0  0  0
    2.9594    1.7661   -3.5356 H   0  0  0  0  0  0  0  0  0  0  0  0
   -1.0193    3.8782    1.2290 H   0  0  0  0  0  0  0  0  0  0  0  0
    0.8892   -1.1626    2.8033 H   0  0  0  0  0  0  0  0  0  0  0  0
   -5.0715    2.4110    1.0311 H   0  0  0  0  0  0  0  0  0  0  0  0
   -6.7710    1.8091   -0.3311 H   0  0  0  0  0  0  0  0  0  0  0  0
   -4.7912   -2.0302    0.0183 H   0  0  0  0  0  0  0  0  0  0  0  0
   -8.9053    0.6748   -0.6081 H   0  0  0  0  0  0  0  0  0  0  0  0
   -6.9497   -3.1499   -0.2867 H   0  0  0  0  0  0  0  0  0  0  0  0
   -9.9621   -1.2702   -0.7357 H   0  0  0  0  0  0  0  0  0  0  0  0
  1 16  1  0  0  0  0
  1 20  1  0  0  0  0
  2 25  1  0  0  0  0
  2 26  1  0  0  0  0
  3 25  1  0  0  0  0
  3 27  1  0  0  0  0
  4 17  1  0  0  0  0
  4 57  1  0  0  0  0
  5 18  1  0  0  0  0
  5 58  1  0  0  0  0
  6 19  1  0  0  0  0
  6 59  1  0  0  0  0
  7 22  1  0  0  0  0
  7 61  1  0  0  0  0
  8 23  1  0  0  0  0
  8 62  1  0  0  0  0
  9 24  1  0  0  0  0
  9 63  1  0  0  0  0
 10 28  1  0  0  0  0
 10 64  1  0  0  0  0
 11 29  1  0  0  0  0
 11 65  1  0  0  0  0
 12 33  1  0  0  0  0
 12 36  1  0  0  0  0
 13 30  1  0  0  0  0
 13 66  1  0  0  0  0
 14 34  2  0  0  0  0
 15 42  1  0  0  0  0
 15 72  1  0  0  0  0
 16 17  1  0  0  0  0
 16 21  1  0  0  0  0
 16 43  1  0  0  0  0
 17 18  1  0  0  0  0
 17 44  1  0  0  0  0
 18 19  1  0  0  0  0
 18 45  1  0  0  0  0
 19 20  1  0  0  0  0
 19 46  1  0  0  0  0
 20 28  1  0  0  0  0
 20 47  1  0  0  0  0
 21 27  2  0  0  0  0
 21 29  1  0  0  0  0
 22 23  1  0  0  0  0
 22 24  1  0  0  0  0
 22 48  1  0  0  0  0
 23 25  1  0  0  0  0
 23 49  1  0  0  0  0
 24 26  1  0  0  0  0
 24 50  1  0  0  0  0
 25 51  1  0  0  0  0
 26 30  1  0  0  0  0
 26 52  1  0  0  0  0
 27 31  1  0  0  0  0
 28 53  1  0  0  0  0
 28 54  1  0  0  0  0
 29 32  2  0  0  0  0
 30 55  1  0  0  0  0
 30 56  1  0  0  0  0
 31 33  2  0  0  0  0
 31 60  1  0  0  0  0
 32 33  1  0  0  0  0
 32 34  1  0  0  0  0
 34 35  1  0  0  0  0
 35 36  2  0  0  0  0
 35 67  1  0  0  0  0
 36 37  1  0  0  0  0
 37 38  2  0  0  0  0
 37 39  1  0  0  0  0
 38 40  1  0  0  0  0
 38 68  1  0  0  0  0
 39 41  2  0  0  0  0
 39 69  1  0  0  0  0
 40 42  2  0  0  0  0
 40 70  1  0  0  0  0
 41 42  1  0  0  0  0
 41 71  1  0  0  0  0
M  END
> <PUBCHEM_COMPOUND_CID>
441381

> <PUBCHEM_CONFORMER_RMSD>
1

> <PUBCHEM_CONFORMER_DIVERSEORDER>
1
7
58
55
47
33
42
48
16
36
52
18
14
56
46
38
59
51
8
28
17
39
20
26
9
37
15
41
6
35
62
29
23
19
4
24
32
60
3
13
34
61
2
50
5
31
54
44
45
53
49
40
22
21
25
27
11
12
43
30
10
57

> <PUBCHEM_MMFF94_PARTIAL_CHARGES>
58
1 -0.56
10 -0.68
11 -0.53
12 -0.16
13 -0.68
14 -0.57
15 -0.53
16 0.42
17 0.28
18 0.28
19 0.28
2 -0.56
20 0.28
21 -0.14
22 0.28
23 0.28
24 0.28
25 0.56
26 0.28
27 0.08
28 0.28
29 0.08
3 -0.36
30 0.28
31 -0.15
32 0.09
33 0.08
34 0.47
35 -0.14
36 0.05
37 0.03
38 -0.15
39 -0.15
4 -0.68
40 -0.15
41 -0.15
42 0.08
5 -0.68
57 0.4
58 0.4
59 0.4
6 -0.68
60 0.15
61 0.4
62 0.4
63 0.4
64 0.4
65 0.45
66 0.4
67 0.15
68 0.15
69 0.15
7 -0.68
70 0.15
71 0.15
72 0.45
8 -0.68
9 -0.68

> <PUBCHEM_EFFECTIVE_ROTOR_COUNT>
8.4

> <PUBCHEM_PHARMACOPHORE_FEATURES>
28
1 1 acceptor
1 10 acceptor
1 10 donor
1 11 donor
1 12 acceptor
1 13 acceptor
1 13 donor
1 14 acceptor
1 15 donor
1 2 acceptor
1 3 acceptor
1 4 acceptor
1 4 donor
1 5 acceptor
1 5 donor
1 6 acceptor
1 6 donor
1 7 acceptor
1 7 donor
1 8 acceptor
1 8 donor
1 9 acceptor
1 9 donor
6 1 16 17 18 19 20 rings
6 12 32 33 34 35 36 rings
6 2 22 23 24 25 26 rings
6 21 27 29 31 32 33 rings
6 37 38 39 40 41 42 rings

> <PUBCHEM_HEAVY_ATOM_COUNT>
42

> <PUBCHEM_ATOM_DEF_STEREO_COUNT>
10

> <PUBCHEM_ATOM_UDEF_STEREO_COUNT>
0

> <PUBCHEM_BOND_DEF_STEREO_COUNT>
0

> <PUBCHEM_BOND_UDEF_STEREO_COUNT>
0

> <PUBCHEM_ISOTOPIC_ATOM_COUNT>
0

> <PUBCHEM_COMPONENT_COUNT>
1

> <PUBCHEM_CACTVS_TAUTO_COUNT>
21

> <PUBCHEM_CONFORMER_ID>
0006BC2500000001

> <PUBCHEM_MMFF94_ENERGY>
138.9918

> <PUBCHEM_FEATURE_SELFOVERLAP>
142.216

> <PUBCHEM_SHAPE_FINGERPRINT>
10050765 1 18264205980004273857
10985338 15 16443925868222086734
11456790 92 6771601307874800173
11607047 403 18411149026118813042
11719270 70 18341616971165266111
11963148 33 18336837377383281207
12156800 1 16413192324098651802
131258 43 17097756127579300758
13140716 1 17900834742770754449
133893 2 18126588905727013804
13533116 47 18409449206938065027
13540713 5 18192415575686573313
1361 4 18411982426385159127
13617811 41 18339074891919592301
13692114 37 18336552599360409294
13782708 43 18273218613051735439
14068700 675 18124316261730743922
14118638 360 18409166602775248301
15264996 154 18338232795183396670
15484559 13 18059288743736398620
15721738 202 17967819387367768026
16112460 7 18260817216890629627
17492 89 18262237849805260751
17909252 39 17896023490324608510
19319366 153 18339923714563179038
19841028 212 18409167719609793683
20567600 347 18410854344143676640
20600515 1 17254843486877875052
20771845 171 18060414690449577108
20775438 99 18272649056389307891
21792938 131 18408321108087334934
22311459 1 18336547101939368465
22956985 138 18127141985893587898
23559900 14 17972883841178241309
25222932 49 18116719513341838287
3411729 13 18410579478736538554
45266715 3 18060419110393541555
50009960 94 18126305248459427011
5104073 3 18040992986667756985
6058803 2 18122323929581830965
6081469 158 11671522109518133048

> <PUBCHEM_SHAPE_MULTIPOLES>
776.3
17.57
5.21
2.33
43.68
4.47
0.02
4.54
-4.45
-7.33
1.18
-4.5
0.35
-1.86

> <PUBCHEM_SHAPE_SELFOVERLAP>
1694.526

> <PUBCHEM_SHAPE_VOLUME>
415.1

> <PUBCHEM_COORDINATE_TYPE>
2
5
10

$$$$

