17395490
  -OEChem-06241222503D

 36 37  0     1  0  0  0  0  0999 V2000
   -4.5754   -1.7313    0.4020 S   0  0  0  0  0  0  0  0  0  0  0  0
    4.1626   -1.1688    0.0197 O   0  0  0  0  0  0  0  0  0  0  0  0
    1.0110    1.9461   -0.5932 O   0  0  0  0  0  0  0  0  0  0  0  0
   -4.4603    1.3868   -1.3937 O   0  5  0  0  0  0  0  0  0  0  0  0
   -4.5682    1.8524    0.7489 O   0  0  0  0  0  0  0  0  0  0  0  0
    1.8650    0.3488    0.8565 N   0  0  0  0  0  0  0  0  0  0  0  0
   -4.0287    1.2748   -0.2231 N   0  3  0  0  0  0  0  0  0  0  0  0
    4.0764    0.2538   -0.1682 C   0  0  2  0  0  0  0  0  0  0  0  0
    5.5051    0.7695   -0.1558 C   0  0  0  0  0  0  0  0  0  0  0  0
    6.2447   -0.3795   -0.7938 C   0  0  0  0  0  0  0  0  0  0  0  0
    5.5178   -1.5770   -0.2196 C   0  0  0  0  0  0  0  0  0  0  0  0
    3.2037    0.8637    0.9114 C   0  0  0  0  0  0  0  0  0  0  0  0
    0.8613    0.9410    0.0966 C   0  0  0  0  0  0  0  0  0  0  0  0
   -0.4780    0.3020    0.1672 C   0  0  0  0  0  0  0  0  0  0  0  0
   -1.6265    1.0615   -0.0556 C   0  0  0  0  0  0  0  0  0  0  0  0
   -0.5866   -1.0581    0.4571 C   0  0  0  0  0  0  0  0  0  0  0  0
   -2.8837    0.4609    0.0113 C   0  0  0  0  0  0  0  0  0  0  0  0
   -2.9922   -0.8992    0.3013 C   0  0  0  0  0  0  0  0  0  0  0  0
   -1.8437   -1.6587    0.5242 C   0  0  0  0  0  0  0  0  0  0  0  0
   -4.4043   -2.9887   -0.8930 C   0  0  0  0  0  0  0  0  0  0  0  0
    3.6297    0.4154   -1.1576 H   0  0  0  0  0  0  0  0  0  0  0  0
    5.6209    1.7140   -0.6947 H   0  0  0  0  0  0  0  0  0  0  0  0
    5.8633    0.9129    0.8709 H   0  0  0  0  0  0  0  0  0  0  0  0
    6.1130   -0.3480   -1.8819 H   0  0  0  0  0  0  0  0  0  0  0  0
    7.3164   -0.3874   -0.5791 H   0  0  0  0  0  0  0  0  0  0  0  0
    5.9484   -1.8786    0.7410 H   0  0  0  0  0  0  0  0  0  0  0  0
    5.5299   -2.4383   -0.8934 H   0  0  0  0  0  0  0  0  0  0  0  0
    3.5891    0.6120    1.9056 H   0  0  0  0  0  0  0  0  0  0  0  0
    3.1781    1.9545    0.8159 H   0  0  0  0  0  0  0  0  0  0  0  0
    1.6606   -0.4489    1.4486 H   0  0  0  0  0  0  0  0  0  0  0  0
   -1.5458    2.1238   -0.2774 H   0  0  0  0  0  0  0  0  0  0  0  0
    0.2825   -1.6915    0.6078 H   0  0  0  0  0  0  0  0  0  0  0  0
   -1.8993   -2.7197    0.7549 H   0  0  0  0  0  0  0  0  0  0  0  0
   -5.3595   -3.5057   -1.0170 H   0  0  0  0  0  0  0  0  0  0  0  0
   -3.6457   -3.7273   -0.6223 H   0  0  0  0  0  0  0  0  0  0  0  0
   -4.1351   -2.5218   -1.8444 H   0  0  0  0  0  0  0  0  0  0  0  0
  1 18  1  0  0  0  0
  1 20  1  0  0  0  0
  2  8  1  0  0  0  0
  2 11  1  0  0  0  0
  3 13  2  0  0  0  0
  4  7  1  0  0  0  0
  5  7  2  0  0  0  0
  6 12  1  0  0  0  0
  6 13  1  0  0  0  0
  6 30  1  0  0  0  0
  7 17  1  0  0  0  0
  8  9  1  0  0  0  0
  8 12  1  0  0  0  0
  8 21  1  0  0  0  0
  9 10  1  0  0  0  0
  9 22  1  0  0  0  0
  9 23  1  0  0  0  0
 10 11  1  0  0  0  0
 10 24  1  0  0  0  0
 10 25  1  0  0  0  0
 11 26  1  0  0  0  0
 11 27  1  0  0  0  0
 12 28  1  0  0  0  0
 12 29  1  0  0  0  0
 13 14  1  0  0  0  0
 14 15  2  0  0  0  0
 14 16  1  0  0  0  0
 15 17  1  0  0  0  0
 15 31  1  0  0  0  0
 16 19  2  0  0  0  0
 16 32  1  0  0  0  0
 17 18  2  0  0  0  0
 18 19  1  0  0  0  0
 19 33  1  0  0  0  0
 20 34  1  0  0  0  0
 20 35  1  0  0  0  0
 20 36  1  0  0  0  0
M  CHG  2   4  -1   7   1
M  END
> <PUBCHEM_COMPOUND_CID>
17395490

> <PUBCHEM_CONFORMER_RMSD>
0.8

> <PUBCHEM_CONFORMER_DIVERSEORDER>
1
94
77
93
58
105
5
20
67
43
87
62
66
44
70
46
103
31
79
75
74
84
107
115
92
91
34
52
27
56
90
106
40
85
50
60
15
22
104
69
51
114
30
68
61
64
82
112
96
49
11
4
33
100
78
80
13
101
29
81
59
42
12
89
32
71
55
113
26
47
72
63
10
99
14
24
23
108
21
73
65
16
98
39
88
48
36
7
95
9
83
25
110
57
45
8
6
102
37
86
3
19
28
97
2
111
41
109
54
38
53
76
17
35
18

> <PUBCHEM_MMFF94_PARTIAL_CHARGES>
22
1 -0.33
11 0.28
12 0.3
13 0.54
14 0.09
15 -0.15
16 -0.15
17 0.13
18 0.1
19 -0.15
2 -0.56
20 0.23
3 -0.57
30 0.37
31 0.15
32 0.15
33 0.15
4 -0.52
5 -0.52
6 -0.73
7 0.91
8 0.28

> <PUBCHEM_EFFECTIVE_ROTOR_COUNT>
7

> <PUBCHEM_PHARMACOPHORE_FEATURES>
9
1 2 acceptor
1 20 hydrophobe
1 3 acceptor
1 4 acceptor
1 4 anion
1 5 acceptor
1 6 donor
5 2 8 9 10 11 rings
6 14 15 16 17 18 19 rings

> <PUBCHEM_HEAVY_ATOM_COUNT>
20

> <PUBCHEM_ATOM_DEF_STEREO_COUNT>
0

> <PUBCHEM_ATOM_UDEF_STEREO_COUNT>
1

> <PUBCHEM_BOND_DEF_STEREO_COUNT>
0

> <PUBCHEM_BOND_UDEF_STEREO_COUNT>
0

> <PUBCHEM_ISOTOPIC_ATOM_COUNT>
0

> <PUBCHEM_COMPONENT_COUNT>
1

> <PUBCHEM_CACTVS_TAUTO_COUNT>
2

> <PUBCHEM_CONFORMER_ID>
01096F2200000001

> <PUBCHEM_MMFF94_ENERGY>
53.0572

> <PUBCHEM_FEATURE_SELFOVERLAP>
45.75

> <PUBCHEM_SHAPE_FINGERPRINT>
10835480 77 18408327666508002136
11315181 36 18187077361229475032
11524674 6 16370719297703183975
11545043 162 18186804655774006274
11796584 16 18187924019284254790
12236239 1 17275102843180892176
12403259 226 18189341169487104137
12507560 40 18187650141851561352
12596602 18 16732977579786808706
12916754 54 18190741938768575585
12954195 1 18335707139806707087
13288520 33 18409727335729018171
13583140 156 16951424129907078336
13914758 101 14996558568458892977
14251731 8 18411979187208833596
14251752 14 17845939649348000046
14347332 77 18338235951720056687
14573314 32 18408324380414337232
14790565 3 17762615488203880577
15042514 8 18124872357734285219
15183329 4 18340486763664649570
15196674 1 18411417315392690266
17349148 13 14634866414446206248
17804303 29 18410011018129229488
17834072 33 18340484474484153476
17834072 8 18411703213663450445
17844677 252 18335132055953892592
19141452 34 18410853278437847260
200 152 17095245834314593544
20374829 77 18412546535488457930
20645477 70 18113612375165047622
20681677 155 18060136552847227520
20871999 31 18060419088759935786
21236236 1 18411980252498132939
21267235 1 18270956848465426467
220451 1 18342168999328005690
2215653 11 18261396684633967844
23402539 116 18411983563469434484
23559900 14 18334299751827658536
3004659 81 18272649095903310186
312423 11 18058438808326003509
335352 9 18412263914071899535
350125 39 18413105044551092843
3545911 37 18411138056708658241
4214541 1 18410854356432518536
465052 167 17676479524367199990
5104073 3 18410857650920303328
542803 24 16989120959654685748
559249 180 18341615940436782466
9709674 26 18268993072625208386

> <PUBCHEM_SHAPE_MULTIPOLES>
382
14.22
2.31
0.9
13.9
0.78
0.08
3.93
2.59
-3.01
0.37
-0.32
-0.04
0.21

> <PUBCHEM_SHAPE_SELFOVERLAP>
782.599

> <PUBCHEM_SHAPE_VOLUME>
223.3

> <PUBCHEM_COORDINATE_TYPE>
2
5
10

$$$$

