223253
  -OEChem-07051212542D

 77 81  0     1  0  0  0  0  0999 V2000
    8.0319    1.4391    0.0000 O   0  0  0  0  0  0  0  0  0  0  0  0
    4.7950    0.6827    0.0000 O   0  0  0  0  0  0  0  0  0  0  0  0
    9.0465    2.0686    0.0000 O   0  0  0  0  0  0  0  0  0  0  0  0
   10.8722    1.2519    0.0000 O   0  0  0  0  0  0  0  0  0  0  0  0
    2.0000   -2.8696    0.0000 O   0  0  0  0  0  0  0  0  0  0  0  0
   11.8879   -0.1511    0.0000 O   0  0  0  0  0  0  0  0  0  0  0  0
    7.3931    0.1827    0.0000 C   0  0  1  0  0  0  0  0  0  0  0  0
    7.3931   -0.8173    0.0000 C   0  0  2  0  0  0  0  0  0  0  0  0
    6.5271   -1.3173    0.0000 C   0  0  1  0  0  0  0  0  0  0  0  0
    5.6610   -0.8173    0.0000 C   0  0  1  0  0  0  0  0  0  0  0  0
    8.3393    0.4875    0.0000 C   0  0  1  0  0  0  0  0  0  0  0  0
    6.5271    0.6827    0.0000 C   0  0  0  0  0  0  0  0  0  0  0  0
    4.7510   -1.3241    0.0000 C   0  0  2  0  0  0  0  0  0  0  0  0
    5.6610    0.1827    0.0000 C   0  0  2  0  0  0  0  0  0  0  0  0
    8.3393   -1.1220    0.0000 C   0  0  0  0  0  0  0  0  0  0  0  0
    8.9229   -0.3173    0.0000 C   0  0  0  0  0  0  0  0  0  0  0  0
    6.5431   -2.3588    0.0000 C   0  0  0  0  0  0  0  0  0  0  0  0
    7.3931    1.1827    0.0000 C   0  0  0  0  0  0  0  0  0  0  0  0
    4.7430   -2.3657    0.0000 C   0  0  0  0  0  0  0  0  0  0  0  0
    5.6451   -2.8865    0.0000 C   0  0  0  0  0  0  0  0  0  0  0  0
    3.8242   -0.7600    0.0000 C   0  0  0  0  0  0  0  0  0  0  0  0
    4.7587   -0.3241    0.0000 C   0  0  0  0  0  0  0  0  0  0  0  0
    9.1493    1.0739    0.0000 C   0  0  0  0  0  0  0  0  0  0  0  0
    2.8763   -1.2880    0.0000 C   0  0  0  0  0  0  0  0  0  0  0  0
    3.8076   -2.9154    0.0000 C   0  0  0  0  0  0  0  0  0  0  0  0
    2.8680   -2.3729    0.0000 C   0  0  0  0  0  0  0  0  0  0  0  0
   10.0622    0.6655    0.0000 C   0  0  0  0  0  0  0  0  0  0  0  0
   11.7851    0.8436    0.0000 C   0  0  0  0  0  0  0  0  0  0  0  0
   12.5951    1.4300    0.0000 C   0  0  0  0  0  0  0  0  0  0  0  0
   14.3180    1.6081    0.0000 C   0  0  0  0  0  0  0  0  0  0  0  0
   13.5079    1.0217    0.0000 C   0  0  0  0  0  0  0  0  0  0  0  0
   15.2685    1.2974    0.0000 C   0  0  0  0  0  0  0  0  0  0  0  0
   14.3197    2.6081    0.0000 C   0  0  0  0  0  0  0  0  0  0  0  0
   15.8577    2.1054    0.0000 C   0  0  0  0  0  0  0  0  0  0  0  0
   15.2713    2.9154    0.0000 C   0  0  0  0  0  0  0  0  0  0  0  0
    7.4830   -1.6625    0.0000 H   0  0  0  0  0  0  0  0  0  0  0  0
    7.2664   -1.7366    0.0000 H   0  0  0  0  0  0  0  0  0  0  0  0
    6.3972   -0.3923    0.0000 H   0  0  0  0  0  0  0  0  0  0  0  0
    6.9256    1.1577    0.0000 H   0  0  0  0  0  0  0  0  0  0  0  0
    6.1285    1.1577    0.0000 H   0  0  0  0  0  0  0  0  0  0  0  0
    5.6610    0.8027    0.0000 H   0  0  0  0  0  0  0  0  0  0  0  0
    8.0883   -1.6889    0.0000 H   0  0  0  0  0  0  0  0  0  0  0  0
    8.8767   -1.4312    0.0000 H   0  0  0  0  0  0  0  0  0  0  0  0
    9.3838   -0.7320    0.0000 H   0  0  0  0  0  0  0  0  0  0  0  0
    9.3838    0.0975    0.0000 H   0  0  0  0  0  0  0  0  0  0  0  0
    6.7612   -2.9392    0.0000 H   0  0  0  0  0  0  0  0  0  0  0  0
    7.1523   -2.2433    0.0000 H   0  0  0  0  0  0  0  0  0  0  0  0
    8.0131    1.1827    0.0000 H   0  0  0  0  0  0  0  0  0  0  0  0
    7.3931    1.8027    0.0000 H   0  0  0  0  0  0  0  0  0  0  0  0
    6.7731    1.1827    0.0000 H   0  0  0  0  0  0  0  0  0  0  0  0
    5.2478   -3.3625    0.0000 H   0  0  0  0  0  0  0  0  0  0  0  0
    6.0460   -3.3594    0.0000 H   0  0  0  0  0  0  0  0  0  0  0  0
    4.2324   -0.2934    0.0000 H   0  0  0  0  0  0  0  0  0  0  0  0
    3.4343   -0.2780    0.0000 H   0  0  0  0  0  0  0  0  0  0  0  0
    5.3787   -0.3289    0.0000 H   0  0  0  0  0  0  0  0  0  0  0  0
    4.7635    0.2958    0.0000 H   0  0  0  0  0  0  0  0  0  0  0  0
    4.1388   -0.3194    0.0000 H   0  0  0  0  0  0  0  0  0  0  0  0
    8.4476    1.8991    0.0000 H   0  0  0  0  0  0  0  0  0  0  0  0
    2.6718   -0.7027    0.0000 H   0  0  0  0  0  0  0  0  0  0  0  0
    2.2647   -1.3894    0.0000 H   0  0  0  0  0  0  0  0  0  0  0  0
    4.7950    1.3027    0.0000 H   0  0  0  0  0  0  0  0  0  0  0  0
    3.8100   -3.5354    0.0000 H   0  0  0  0  0  0  0  0  0  0  0  0
    9.7146    0.1521    0.0000 H   0  0  0  0  0  0  0  0  0  0  0  0
   10.5074    0.2341    0.0000 H   0  0  0  0  0  0  0  0  0  0  0  0
   12.9427    1.9434    0.0000 H   0  0  0  0  0  0  0  0  0  0  0  0
   12.1498    1.8614    0.0000 H   0  0  0  0  0  0  0  0  0  0  0  0
   14.4139    0.9955    0.0000 H   0  0  0  0  0  0  0  0  0  0  0  0
   13.1603    0.5083    0.0000 H   0  0  0  0  0  0  0  0  0  0  0  0
   13.9532    0.5902    0.0000 H   0  0  0  0  0  0  0  0  0  0  0  0
   15.0153    0.7314    0.0000 H   0  0  0  0  0  0  0  0  0  0  0  0
   15.8049    0.9865    0.0000 H   0  0  0  0  0  0  0  0  0  0  0  0
   14.1918    3.2147    0.0000 H   0  0  0  0  0  0  0  0  0  0  0  0
   13.7030    2.5443    0.0000 H   0  0  0  0  0  0  0  0  0  0  0  0
   16.3177    1.6897    0.0000 H   0  0  0  0  0  0  0  0  0  0  0  0
   16.3191    2.5195    0.0000 H   0  0  0  0  0  0  0  0  0  0  0  0
   15.8087    3.2245    0.0000 H   0  0  0  0  0  0  0  0  0  0  0  0
   15.0201    3.4823    0.0000 H   0  0  0  0  0  0  0  0  0  0  0  0
 11  1  1  6  0  0  0
  1 58  1  0  0  0  0
 14  2  1  1  0  0  0
  2 61  1  0  0  0  0
  3 23  2  0  0  0  0
  4 27  1  0  0  0  0
  4 28  1  0  0  0  0
  5 26  2  0  0  0  0
  6 28  2  0  0  0  0
  7  8  1  0  0  0  0
  7 11  1  0  0  0  0
  7 12  1  0  0  0  0
  7 18  1  1  0  0  0
  8  9  1  0  0  0  0
  8 15  1  0  0  0  0
  8 36  1  6  0  0  0
  9 10  1  0  0  0  0
  9 17  1  0  0  0  0
  9 37  1  1  0  0  0
 10 13  1  0  0  0  0
 10 14  1  0  0  0  0
 10 38  1  6  0  0  0
 11 16  1  0  0  0  0
 11 23  1  0  0  0  0
 12 14  1  0  0  0  0
 12 39  1  0  0  0  0
 12 40  1  0  0  0  0
 13 19  1  0  0  0  0
 13 21  1  0  0  0  0
 13 22  1  1  0  0  0
 14 41  1  0  0  0  0
 15 16  1  0  0  0  0
 15 42  1  0  0  0  0
 15 43  1  0  0  0  0
 16 44  1  0  0  0  0
 16 45  1  0  0  0  0
 17 20  1  0  0  0  0
 17 46  1  0  0  0  0
 17 47  1  0  0  0  0
 18 48  1  0  0  0  0
 18 49  1  0  0  0  0
 18 50  1  0  0  0  0
 19 20  1  0  0  0  0
 19 25  2  0  0  0  0
 20 51  1  0  0  0  0
 20 52  1  0  0  0  0
 21 24  1  0  0  0  0
 21 53  1  0  0  0  0
 21 54  1  0  0  0  0
 22 55  1  0  0  0  0
 22 56  1  0  0  0  0
 22 57  1  0  0  0  0
 23 27  1  0  0  0  0
 24 26  1  0  0  0  0
 24 59  1  0  0  0  0
 24 60  1  0  0  0  0
 25 26  1  0  0  0  0
 25 62  1  0  0  0  0
 27 63  1  0  0  0  0
 27 64  1  0  0  0  0
 28 29  1  0  0  0  0
 29 31  1  0  0  0  0
 29 65  1  0  0  0  0
 29 66  1  0  0  0  0
 30 31  1  0  0  0  0
 30 32  1  0  0  0  0
 30 33  1  0  0  0  0
 30 67  1  0  0  0  0
 31 68  1  0  0  0  0
 31 69  1  0  0  0  0
 32 34  1  0  0  0  0
 32 70  1  0  0  0  0
 32 71  1  0  0  0  0
 33 35  1  0  0  0  0
 33 72  1  0  0  0  0
 33 73  1  0  0  0  0
 34 35  1  0  0  0  0
 34 74  1  0  0  0  0
 34 75  1  0  0  0  0
 35 76  1  0  0  0  0
 35 77  1  0  0  0  0
M  END
> <PUBCHEM_COMPOUND_CID>
223253

> <PUBCHEM_COMPOUND_CANONICALIZED>
1

> <PUBCHEM_CACTVS_COMPLEXITY>
918

> <PUBCHEM_CACTVS_HBOND_ACCEPTOR>
6

> <PUBCHEM_CACTVS_HBOND_DONOR>
2

> <PUBCHEM_CACTVS_ROTATABLE_BOND>
7

> <PUBCHEM_CACTVS_SUBSKEYS>
AAADcfB4OAAAAAAAAAAAAAAAAAAAAYMAAAAwYIAAAAAAAGDAAAAAGgAACAAAD1SggAICCAAABgCIAqDSCAIAAAAgAAAACAFAAEgAEBIAAQQCQAAFgAAIAQPIzPDPgAAAAAAAAADAAAYAADAAAYAADAAAAA==

> <PUBCHEM_IUPAC_OPENEYE_NAME>
[2-[(8S,9S,10R,11S,13S,14S,17R)-11,17-dihydroxy-10,13-dimethyl-3-oxo-2,6,7,8,9,11,12,14,15,16-decahydro-1H-cyclopenta[a]phenanthren-17-yl]-2-oxo-ethyl] 3-cyclopentylpropanoate

> <PUBCHEM_IUPAC_CAS_NAME>
3-cyclopentylpropanoic acid [2-[(8S,9S,10R,11S,13S,14S,17R)-11,17-dihydroxy-10,13-dimethyl-3-oxo-2,6,7,8,9,11,12,14,15,16-decahydro-1H-cyclopenta[a]phenanthren-17-yl]-2-oxoethyl] ester

> <PUBCHEM_IUPAC_NAME>
[2-[(8S,9S,10R,11S,13S,14S,17R)-11,17-dihydroxy-10,13-dimethyl-3-oxo-2,6,7,8,9,11,12,14,15,16-decahydro-1H-cyclopenta[a]phenanthren-17-yl]-2-oxoethyl] 3-cyclopentylpropanoate

> <PUBCHEM_IUPAC_SYSTEMATIC_NAME>
[2-[(8S,9S,10R,11S,13S,14S,17R)-10,13-dimethyl-11,17-bis(oxidanyl)-3-oxidanylidene-2,6,7,8,9,11,12,14,15,16-decahydro-1H-cyclopenta[a]phenanthren-17-yl]-2-oxidanylidene-ethyl] 3-cyclopentylpropanoate

> <PUBCHEM_IUPAC_TRADITIONAL_NAME>
3-cyclopentylpropionic acid [2-[(8S,9S,10R,11S,13S,14S,17R)-11,17-dihydroxy-3-keto-10,13-dimethyl-2,6,7,8,9,11,12,14,15,16-decahydro-1H-cyclopenta[a]phenanthren-17-yl]-2-keto-ethyl] ester

> <PUBCHEM_IUPAC_INCHI>
InChI=1S/C29H42O6/c1-27-13-11-20(30)15-19(27)8-9-21-22-12-14-29(34,28(22,2)16-23(31)26(21)27)24(32)17-35-25(33)10-7-18-5-3-4-6-18/h15,18,21-23,26,31,34H,3-14,16-17H2,1-2H3/t21-,22-,23-,26+,27-,28-,29-/m0/s1

> <PUBCHEM_IUPAC_INCHIKEY>
DLVOSEUFIRPIRM-KAQKJVHQSA-N

> <PUBCHEM_XLOGP3>
4.7

> <PUBCHEM_EXACT_MASS>
486.298139

> <PUBCHEM_MOLECULAR_FORMULA>
C29H42O6

> <PUBCHEM_MOLECULAR_WEIGHT>
486.64018

> <PUBCHEM_OPENEYE_CAN_SMILES>
CC12CCC(=O)C=C1CCC3C2C(CC4(C3CCC4(C(=O)COC(=O)CCC5CCCC5)O)C)O

> <PUBCHEM_OPENEYE_ISO_SMILES>
C[C@]12CCC(=O)C=C1CC[C@@H]3[C@@H]2[C@H](C[C@]4([C@H]3CC[C@@]4(C(=O)COC(=O)CCC5CCCC5)O)C)O

> <PUBCHEM_CACTVS_TPSA>
101

> <PUBCHEM_MONOISOTOPIC_WEIGHT>
486.298139

> <PUBCHEM_TOTAL_CHARGE>
0

> <PUBCHEM_HEAVY_ATOM_COUNT>
35

> <PUBCHEM_ATOM_DEF_STEREO_COUNT>
7

> <PUBCHEM_ATOM_UDEF_STEREO_COUNT>
0

> <PUBCHEM_BOND_DEF_STEREO_COUNT>
0

> <PUBCHEM_BOND_UDEF_STEREO_COUNT>
0

> <PUBCHEM_ISOTOPIC_ATOM_COUNT>
0

> <PUBCHEM_COMPONENT_COUNT>
1

> <PUBCHEM_CACTVS_TAUTO_COUNT>
10

> <PUBCHEM_COORDINATE_TYPE>
1
5
255

> <PUBCHEM_BONDANNOTATIONS>
11  1  6
10  38  6
13  22  5
14  2  5
7  18  5
8  36  6
9  37  5

$$$$

