5282066
  -OEChem-07051213023D

 29 31  0     0  0  0  0  0  0999 V2000
   -0.4181   -2.5843   -0.2552 O   0  0  0  0  0  0  0  0  0  0  0  0
    2.1174   -2.6924    0.0111 O   0  0  0  0  0  0  0  0  0  0  0  0
    4.4491    1.4198    0.2316 O   0  0  0  0  0  0  0  0  0  0  0  0
   -0.4101    1.4629   -0.1678 N   0  0  0  0  0  0  0  0  0  0  0  0
    0.8303    0.7924   -0.0700 C   0  0  0  0  0  0  0  0  0  0  0  0
   -1.6497    0.7965   -0.0360 C   0  0  0  0  0  0  0  0  0  0  0  0
    0.8593   -0.6159   -0.0678 C   0  0  0  0  0  0  0  0  0  0  0  0
   -1.6833   -0.6117   -0.0333 C   0  0  0  0  0  0  0  0  0  0  0  0
   -0.4145   -1.3659   -0.1354 C   0  0  0  0  0  0  0  0  0  0  0  0
    2.0675    1.4527    0.0437 C   0  0  0  0  0  0  0  0  0  0  0  0
    2.0635   -1.3303    0.0080 C   0  0  0  0  0  0  0  0  0  0  0  0
   -0.4108    2.9153   -0.3648 C   0  0  0  0  0  0  0  0  0  0  0  0
   -2.8811    1.4608    0.1118 C   0  0  0  0  0  0  0  0  0  0  0  0
   -2.8874   -1.3221    0.0749 C   0  0  0  0  0  0  0  0  0  0  0  0
    3.2716    0.7441    0.1240 C   0  0  0  0  0  0  0  0  0  0  0  0
    3.2698   -0.6452    0.1004 C   0  0  0  0  0  0  0  0  0  0  0  0
   -4.0849    0.7564    0.2247 C   0  0  0  0  0  0  0  0  0  0  0  0
   -4.0886   -0.6330    0.2003 C   0  0  0  0  0  0  0  0  0  0  0  0
    2.1249    2.5373    0.0893 H   0  0  0  0  0  0  0  0  0  0  0  0
   -1.2795    3.2583   -0.9374 H   0  0  0  0  0  0  0  0  0  0  0  0
    0.4402    3.2547   -0.9655 H   0  0  0  0  0  0  0  0  0  0  0  0
   -0.3941    3.4332    0.6000 H   0  0  0  0  0  0  0  0  0  0  0  0
   -2.9408    2.5447    0.1596 H   0  0  0  0  0  0  0  0  0  0  0  0
   -2.9054   -2.4085    0.0718 H   0  0  0  0  0  0  0  0  0  0  0  0
    4.2036   -1.1982    0.1637 H   0  0  0  0  0  0  0  0  0  0  0  0
   -5.0194    1.2992    0.3359 H   0  0  0  0  0  0  0  0  0  0  0  0
   -5.0237   -1.1777    0.2885 H   0  0  0  0  0  0  0  0  0  0  0  0
    1.2274   -3.0737    0.0367 H   0  0  0  0  0  0  0  0  0  0  0  0
    5.1786    0.7781    0.2773 H   0  0  0  0  0  0  0  0  0  0  0  0
  1  9  2  0  0  0  0
  2 11  1  0  0  0  0
  2 28  1  0  0  0  0
  3 15  1  0  0  0  0
  3 29  1  0  0  0  0
  4  5  1  0  0  0  0
  4  6  1  0  0  0  0
  4 12  1  0  0  0  0
  5  7  2  0  0  0  0
  5 10  1  0  0  0  0
  6  8  1  0  0  0  0
  6 13  2  0  0  0  0
  7  9  1  0  0  0  0
  7 11  1  0  0  0  0
  8  9  1  0  0  0  0
  8 14  2  0  0  0  0
 10 15  2  0  0  0  0
 10 19  1  0  0  0  0
 11 16  2  0  0  0  0
 12 20  1  0  0  0  0
 12 21  1  0  0  0  0
 12 22  1  0  0  0  0
 13 17  1  0  0  0  0
 13 23  1  0  0  0  0
 14 18  1  0  0  0  0
 14 24  1  0  0  0  0
 15 16  1  0  0  0  0
 16 25  1  0  0  0  0
 17 18  2  0  0  0  0
 17 26  1  0  0  0  0
 18 27  1  0  0  0  0
M  END
> <PUBCHEM_COMPOUND_CID>
5282066

> <PUBCHEM_CONFORMER_RMSD>
0.4

> <PUBCHEM_CONFORMER_DIVERSEORDER>
1

> <PUBCHEM_MMFF94_PARTIAL_CHARGES>
26
1 -0.57
10 -0.15
11 0.08
12 0.37
13 -0.15
14 -0.15
15 0.08
16 -0.15
17 -0.15
18 -0.15
19 0.15
2 -0.53
23 0.15
24 0.15
25 0.15
26 0.15
27 0.15
28 0.45
29 0.45
3 -0.53
4 -0.57
5 0.1
6 0.1
7 0.09
8 0.09
9 0.4

> <PUBCHEM_EFFECTIVE_ROTOR_COUNT>
0

> <PUBCHEM_PHARMACOPHORE_FEATURES>
7
1 1 acceptor
1 2 donor
1 3 donor
1 4 cation
6 4 5 6 7 8 9 rings
6 5 7 10 11 15 16 rings
6 6 8 13 14 17 18 rings

> <PUBCHEM_HEAVY_ATOM_COUNT>
18

> <PUBCHEM_ATOM_DEF_STEREO_COUNT>
0

> <PUBCHEM_ATOM_UDEF_STEREO_COUNT>
0

> <PUBCHEM_BOND_DEF_STEREO_COUNT>
0

> <PUBCHEM_BOND_UDEF_STEREO_COUNT>
0

> <PUBCHEM_ISOTOPIC_ATOM_COUNT>
0

> <PUBCHEM_COMPONENT_COUNT>
1

> <PUBCHEM_CACTVS_TAUTO_COUNT>
12

> <PUBCHEM_CONFORMER_ID>
0050991200000001

> <PUBCHEM_MMFF94_ENERGY>
69.3172

> <PUBCHEM_FEATURE_SELFOVERLAP>
35.564

> <PUBCHEM_SHAPE_FINGERPRINT>
10411042 1 16897082237374939903
10608611 8 18339645654212075093
10616163 171 18338795598458706607
10967382 1 18410855464428410367
10980938 120 18411980260697625410
11132069 177 18410859858275114169
11471102 20 18410578387503479198
12011746 2 18410292488731689293
12382932 28 18410292505879851328
13132413 78 18336544919684207381
13140716 1 18267017439514513619
13221675 6 18411138004615110662
13380535 76 18411700950374057842
13897977 150 18410295851854566589
14144814 61 18410855468892176339
14178342 30 18048334244737289186
14223421 5 18267586986242243756
14790565 3 18267855095556016844
15196674 1 18410292523064923635
15219456 202 18412265077274813493
15309172 13 18408878538527544779
15375462 6 18411982498243587942
15442244 35 18193838382002070706
15536298 74 18334293192947996662
15775835 57 18334292058860222785
16945 1 18194960743040302239
17804303 29 18122338249044454766
18186145 218 18261385702027967437
193761 8 17906735056887454141
19591789 44 18410291367966939718
19784866 170 18412543189403076608
200 152 18186811249398086005
20510252 161 18260827115798697217
20645477 70 18336833103753151967
20739085 24 18124286515172152721
21267235 1 18410846664077707899
21421861 104 17986959750218774954
21501502 16 18337390564242236713
2334 1 18410855456091709391
23366157 5 18059288885596828570
23402539 116 18262246525090468790
23463225 33 18412543232141603509
23559900 14 18193000541652572218
238 59 15972471027402848741
2748010 2 18411135865905955295
335352 9 17906452478251750909
34934 24 18411707581982625063
350125 39 18266738168114585732
5104073 3 18410855481613594251
537710 114 18411694366152308837
53812653 166 18334296439800958256
69090 78 18335143063880887679
7097593 13 17339293628479214675
7364860 26 18334856177551566582
84936 31 15938095732636486951
8809292 202 18199741612913904131
9709674 26 18411131433336740475

> <PUBCHEM_SHAPE_MULTIPOLES>
347.84
6.79
2.67
0.62
0.39
0.06
0
-0.72
0.82
-0.51
-0.22
0.04
-0.03
0.07

> <PUBCHEM_SHAPE_SELFOVERLAP>
779.819

> <PUBCHEM_SHAPE_VOLUME>
183.4

> <PUBCHEM_COORDINATE_TYPE>
2
5
10

$$$$

