441590
  -OEChem-07051212552D

 46 51  0     1  0  0  0  0  0999 V2000
    2.3334    1.3321    0.0000 O   0  0  0  0  0  0  0  0  0  0  0  0
    9.3469    0.7428    0.0000 O   0  0  0  0  0  0  0  0  0  0  0  0
    9.3469    2.4193    0.0000 O   0  0  0  0  0  0  0  0  0  0  0  0
    4.8292    2.0810    0.0000 N   0  0  3  0  0  0  0  0  0  0  0  0
    6.6632   -0.9811    0.0000 N   0  0  0  0  0  0  0  0  0  0  0  0
    5.6952    0.5810    0.0000 C   0  0  1  0  0  0  0  0  0  0  0  0
    4.8292    1.0810    0.0000 C   0  0  1  0  0  0  0  0  0  0  0  0
    5.7113   -0.4605    0.0000 C   0  0  2  0  0  0  0  0  0  0  0  0
    4.8133   -0.9882    0.0000 C   0  0  2  0  0  0  0  0  0  0  0  0
    3.9192    0.5742    0.0000 C   0  0  0  0  0  0  0  0  0  0  0  0
    3.3324    1.3763    0.0000 C   0  0  3  0  0  0  0  0  0  0  0  0
    6.5613    1.0810    0.0000 C   0  0  0  0  0  0  0  0  0  0  0  0
    3.8462    2.2270    0.0000 C   0  0  0  0  0  0  0  0  0  0  0  0
    3.9112   -0.4674    0.0000 C   0  0  0  0  0  0  0  0  0  0  0  0
    4.8049   -2.0732    0.0000 C   0  0  0  0  0  0  0  0  0  0  0  0
    5.6952    2.5810    0.0000 C   0  0  0  0  0  0  0  0  0  0  0  0
    6.5613    2.0810    0.0000 C   0  0  0  0  0  0  0  0  0  0  0  0
    5.7445   -2.6157    0.0000 C   0  0  0  0  0  0  0  0  0  0  0  0
    6.6800   -2.0660    0.0000 C   0  0  0  0  0  0  0  0  0  0  0  0
    7.4552    0.5464    0.0000 C   0  0  0  0  0  0  0  0  0  0  0  0
    7.4552    2.6157    0.0000 C   0  0  0  0  0  0  0  0  0  0  0  0
    8.3613    1.0602    0.0000 C   0  0  0  0  0  0  0  0  0  0  0  0
    8.3613    2.1019    0.0000 C   0  0  0  0  0  0  0  0  0  0  0  0
    9.9548    1.5810    0.0000 C   0  0  0  0  0  0  0  0  0  0  0  0
    6.4346    0.1617    0.0000 H   0  0  0  0  0  0  0  0  0  0  0  0
    4.8292    0.2310    0.0000 H   0  0  0  0  0  0  0  0  0  0  0  0
    6.4391   -0.0214    0.0000 H   0  0  0  0  0  0  0  0  0  0  0  0
    4.0755   -1.4104    0.0000 H   0  0  0  0  0  0  0  0  0  0  0  0
    3.0159    1.9094    0.0000 H   0  0  0  0  0  0  0  0  0  0  0  0
    4.0172    2.8230    0.0000 H   0  0  0  0  0  0  0  0  0  0  0  0
    3.2779    2.4749    0.0000 H   0  0  0  0  0  0  0  0  0  0  0  0
    3.3731   -0.7753    0.0000 H   0  0  0  0  0  0  0  0  0  0  0  0
    4.1949   -1.9624    0.0000 H   0  0  0  0  0  0  0  0  0  0  0  0
    4.5914   -2.6553    0.0000 H   0  0  0  0  0  0  0  0  0  0  0  0
    6.0938    3.0560    0.0000 H   0  0  0  0  0  0  0  0  0  0  0  0
    5.2967    3.0560    0.0000 H   0  0  0  0  0  0  0  0  0  0  0  0
    7.1941   -0.6608    0.0000 H   0  0  0  0  0  0  0  0  0  0  0  0
    5.3472   -3.0917    0.0000 H   0  0  0  0  0  0  0  0  0  0  0  0
    6.1455   -3.0886    0.0000 H   0  0  0  0  0  0  0  0  0  0  0  0
    6.8980   -2.6464    0.0000 H   0  0  0  0  0  0  0  0  0  0  0  0
    7.2891   -1.9505    0.0000 H   0  0  0  0  0  0  0  0  0  0  0  0
    7.4480   -0.0736    0.0000 H   0  0  0  0  0  0  0  0  0  0  0  0
    7.4480    3.2356    0.0000 H   0  0  0  0  0  0  0  0  0  0  0  0
    2.0000    1.8548    0.0000 H   0  0  0  0  0  0  0  0  0  0  0  0
   10.4157    1.1663    0.0000 H   0  0  0  0  0  0  0  0  0  0  0  0
   10.4157    1.9958    0.0000 H   0  0  0  0  0  0  0  0  0  0  0  0
  1 11  1  0  0  0  0
  1 44  1  0  0  0  0
  2 22  1  0  0  0  0
  2 24  1  0  0  0  0
  3 23  1  0  0  0  0
  3 24  1  0  0  0  0
  4  7  1  0  0  0  0
  4 13  1  0  0  0  0
  4 16  1  0  0  0  0
  5  8  1  0  0  0  0
  5 19  1  0  0  0  0
  5 37  1  0  0  0  0
  6  7  1  0  0  0  0
  6  8  1  0  0  0  0
  6 12  1  0  0  0  0
  6 25  1  1  0  0  0
  7 10  1  0  0  0  0
  7 26  1  6  0  0  0
  8  9  1  0  0  0  0
  8 27  1  6  0  0  0
  9 14  1  0  0  0  0
  9 15  1  0  0  0  0
  9 28  1  6  0  0  0
 10 11  1  0  0  0  0
 10 14  2  0  0  0  0
 11 13  1  0  0  0  0
 11 29  1  0  0  0  0
 12 17  1  0  0  0  0
 12 20  2  0  0  0  0
 13 30  1  0  0  0  0
 13 31  1  0  0  0  0
 14 32  1  0  0  0  0
 15 18  1  0  0  0  0
 15 33  1  0  0  0  0
 15 34  1  0  0  0  0
 16 17  1  0  0  0  0
 16 35  1  0  0  0  0
 16 36  1  0  0  0  0
 17 21  2  0  0  0  0
 18 19  1  0  0  0  0
 18 38  1  0  0  0  0
 18 39  1  0  0  0  0
 19 40  1  0  0  0  0
 19 41  1  0  0  0  0
 20 22  1  0  0  0  0
 20 42  1  0  0  0  0
 21 23  1  0  0  0  0
 21 43  1  0  0  0  0
 22 23  2  0  0  0  0
 24 45  1  0  0  0  0
 24 46  1  0  0  0  0
M  END
> <PUBCHEM_COMPOUND_CID>
441590

> <PUBCHEM_COMPOUND_CANONICALIZED>
1

> <PUBCHEM_CACTVS_COMPLEXITY>
567

> <PUBCHEM_CACTVS_HBOND_ACCEPTOR>
5

> <PUBCHEM_CACTVS_HBOND_DONOR>
2

> <PUBCHEM_CACTVS_ROTATABLE_BOND>
0

> <PUBCHEM_CACTVS_SUBSKEYS>
AAADceB7MAAAAAAAAAAAAAAAAAAAAWJAAAA8WIEAAAAAAFixAAAAHgAQCAAADTzhmAcwDoPABgCAAiBCAACCCAAgIAAAiIAOjIgfNiKE8RukcCpm0BGeuAew0PMOoAABAAAQQABAAAIAACCAAAAAAAAAAA==

> <PUBCHEM_IUPAC_INCHI>
InChI=1S/C19H22N2O3/c22-14-8-21-7-11-5-15-16(24-9-23-15)6-12(11)17-18-10(2-1-3-20-18)4-13(14)19(17)21/h4-6,10,14,17-20,22H,1-3,7-9H2/t10-,14?,17+,18-,19+/m0/s1

> <PUBCHEM_IUPAC_INCHIKEY>
YZJARFWVCIXVDT-DVORTUFPSA-N

> <PUBCHEM_XLOGP3_AA>
0.5

> <PUBCHEM_EXACT_MASS>
326.163043

> <PUBCHEM_MOLECULAR_FORMULA>
C19H22N2O3

> <PUBCHEM_MOLECULAR_WEIGHT>
326.38958

> <PUBCHEM_OPENEYE_CAN_SMILES>
C1CC2C=C3C(CN4C3C(C2NC1)C5=CC6=C(C=C5C4)OCO6)O

> <PUBCHEM_OPENEYE_ISO_SMILES>
C1C[C@H]2C=C3[C@@H]4[C@@H]([C@H]2NC1)C5=CC6=C(C=C5CN4CC3O)OCO6

> <PUBCHEM_CACTVS_TPSA>
54

> <PUBCHEM_MONOISOTOPIC_WEIGHT>
326.163043

> <PUBCHEM_TOTAL_CHARGE>
0

> <PUBCHEM_HEAVY_ATOM_COUNT>
24

> <PUBCHEM_ATOM_DEF_STEREO_COUNT>
4

> <PUBCHEM_ATOM_UDEF_STEREO_COUNT>
1

> <PUBCHEM_BOND_DEF_STEREO_COUNT>
0

> <PUBCHEM_BOND_UDEF_STEREO_COUNT>
0

> <PUBCHEM_ISOTOPIC_ATOM_COUNT>
0

> <PUBCHEM_COMPONENT_COUNT>
1

> <PUBCHEM_CACTVS_TAUTO_COUNT>
1

> <PUBCHEM_COORDINATE_TYPE>
1
5
255

> <PUBCHEM_BONDANNOTATIONS>
11  1  3
12  17  8
12  20  8
17  21  8
20  22  8
21  23  8
22  23  8
6  25  5
7  26  6
8  27  6
9  28  6

$$$$

