442044
  -OEChem-07051212563D

 67 73  0     1  0  0  0  0  0999 V2000
    0.0659   -0.0826   -0.7457 O   0  0  0  0  0  0  0  0  0  0  0  0
   -5.5949    1.2679   -0.0344 O   0  0  0  0  0  0  0  0  0  0  0  0
   -2.2669   -2.1745    1.2104 O   0  0  0  0  0  0  0  0  0  0  0  0
   -6.0424   -1.1529    0.9864 O   0  0  0  0  0  0  0  0  0  0  0  0
    0.4604    3.0182   -0.0212 O   0  0  0  0  0  0  0  0  0  0  0  0
   -4.2639   -3.1912    1.6829 O   0  0  0  0  0  0  0  0  0  0  0  0
    2.3391    0.9465   -0.2809 O   0  0  0  0  0  0  0  0  0  0  0  0
   -0.5971    4.6398   -1.1979 O   0  0  0  0  0  0  0  0  0  0  0  0
    4.3388    0.2610    0.7066 O   0  0  0  0  0  0  0  0  0  0  0  0
    2.7278   -0.9575   -2.3380 O   0  0  0  0  0  0  0  0  0  0  0  0
    5.5825   -1.5496   -2.7635 O   0  0  0  0  0  0  0  0  0  0  0  0
    6.8635   -2.2106   -0.2580 O   0  0  0  0  0  0  0  0  0  0  0  0
    5.6192    0.0053    3.1255 O   0  0  0  0  0  0  0  0  0  0  0  0
   -3.1493    0.6380    0.0035 C   0  0  2  0  0  0  0  0  0  0  0  0
   -2.8887   -0.8042   -0.5668 C   0  0  2  0  0  0  0  0  0  0  0  0
   -0.5806    0.8518    0.1310 C   0  0  2  0  0  0  0  0  0  0  0  0
   -4.3753    1.1260   -0.7641 C   0  0  1  0  0  0  0  0  0  0  0  0
   -0.5668   -0.6366    0.4213 C   0  0  1  0  0  0  0  0  0  0  0  0
   -4.0384   -1.8193   -0.3398 C   0  0  2  0  0  0  0  0  0  0  0  0
   -1.7082   -1.5233    0.0633 C   0  0  1  0  0  0  0  0  0  0  0  0
   -5.5229    0.1605   -0.9424 C   0  0  1  0  0  0  0  0  0  0  0  0
   -1.8739    1.4873   -0.2054 C   0  0  0  0  0  0  0  0  0  0  0  0
   -5.4681   -1.2032   -0.3172 C   0  0  2  0  0  0  0  0  0  0  0  0
    0.3723    1.8129    0.7917 C   0  0  1  0  0  0  0  0  0  0  0  0
   -3.3913    0.7044    1.5356 C   0  0  0  0  0  0  0  0  0  0  0  0
   -3.5843   -2.4762    0.9616 C   0  0  0  0  0  0  0  0  0  0  0  0
   -4.0009   -2.9117   -1.4327 C   0  0  0  0  0  0  0  0  0  0  0  0
   -1.8921    2.7846   -0.5590 C   0  0  0  0  0  0  0  0  0  0  0  0
    1.7985    1.3132    0.9839 C   0  0  2  0  0  0  0  0  0  0  0  0
   -0.6337    3.5553   -0.6260 C   0  0  0  0  0  0  0  0  0  0  0  0
    2.6857    2.3700    1.6221 C   0  0  0  0  0  0  0  0  0  0  0  0
    3.2734   -0.1255   -0.1583 C   0  0  2  0  0  0  0  0  0  0  0  0
    3.8063   -0.4475   -1.5545 C   0  0  1  0  0  0  0  0  0  0  0  0
    4.9268   -1.4859   -1.4961 C   0  0  2  0  0  0  0  0  0  0  0  0
    5.2992   -0.7803    0.8921 C   0  0  1  0  0  0  0  0  0  0  0  0
    5.9702   -1.1155   -0.4420 C   0  0  1  0  0  0  0  0  0  0  0  0
    6.3099   -0.2948    1.9263 C   0  0  0  0  0  0  0  0  0  0  0  0
   -2.6967   -0.6898   -1.6450 H   0  0  0  0  0  0  0  0  0  0  0  0
   -4.1790    1.7662   -1.6134 H   0  0  0  0  0  0  0  0  0  0  0  0
    0.0774   -1.0471    1.1850 H   0  0  0  0  0  0  0  0  0  0  0  0
   -1.3223   -2.3131   -0.5931 H   0  0  0  0  0  0  0  0  0  0  0  0
   -6.1074    0.2068   -1.8508 H   0  0  0  0  0  0  0  0  0  0  0  0
   -6.1440   -1.8483   -0.8919 H   0  0  0  0  0  0  0  0  0  0  0  0
   -0.0330    2.1122    1.7676 H   0  0  0  0  0  0  0  0  0  0  0  0
   -2.5181    0.3897    2.1173 H   0  0  0  0  0  0  0  0  0  0  0  0
   -3.6241    1.7322    1.8438 H   0  0  0  0  0  0  0  0  0  0  0  0
   -4.2256    0.0898    1.8714 H   0  0  0  0  0  0  0  0  0  0  0  0
   -3.0388   -3.4325   -1.4765 H   0  0  0  0  0  0  0  0  0  0  0  0
   -4.7585   -3.6810   -1.2405 H   0  0  0  0  0  0  0  0  0  0  0  0
   -4.1963   -2.4831   -2.4220 H   0  0  0  0  0  0  0  0  0  0  0  0
   -2.8028    3.3238   -0.7886 H   0  0  0  0  0  0  0  0  0  0  0  0
    1.7594    0.4447    1.6543 H   0  0  0  0  0  0  0  0  0  0  0  0
   -6.9412   -0.7919    0.8990 H   0  0  0  0  0  0  0  0  0  0  0  0
    2.1677    2.8698    2.4481 H   0  0  0  0  0  0  0  0  0  0  0  0
    3.6011    1.9603    2.0453 H   0  0  0  0  0  0  0  0  0  0  0  0
    2.9890    3.1294    0.8929 H   0  0  0  0  0  0  0  0  0  0  0  0
    2.7482   -0.9958    0.2588 H   0  0  0  0  0  0  0  0  0  0  0  0
    4.1577    0.4633   -2.0537 H   0  0  0  0  0  0  0  0  0  0  0  0
    4.5164   -2.4859   -1.3091 H   0  0  0  0  0  0  0  0  0  0  0  0
    4.7849   -1.6580    1.3067 H   0  0  0  0  0  0  0  0  0  0  0  0
    6.5633   -0.2649   -0.7997 H   0  0  0  0  0  0  0  0  0  0  0  0
    2.3964   -1.7637   -1.9068 H   0  0  0  0  0  0  0  0  0  0  0  0
    6.8173    0.6174    1.5950 H   0  0  0  0  0  0  0  0  0  0  0  0
    7.0628   -1.0575    2.1446 H   0  0  0  0  0  0  0  0  0  0  0  0
    6.2957   -2.2066   -2.6896 H   0  0  0  0  0  0  0  0  0  0  0  0
    6.3472   -2.9681    0.0663 H   0  0  0  0  0  0  0  0  0  0  0  0
    4.9865    0.7157    2.9338 H   0  0  0  0  0  0  0  0  0  0  0  0
  1 16  1  0  0  0  0
  1 18  1  0  0  0  0
  2 17  1  0  0  0  0
  2 21  1  0  0  0  0
  3 20  1  0  0  0  0
  3 26  1  0  0  0  0
  4 23  1  0  0  0  0
  4 53  1  0  0  0  0
  5 24  1  0  0  0  0
  5 30  1  0  0  0  0
  6 26  2  0  0  0  0
  7 29  1  0  0  0  0
  7 32  1  0  0  0  0
  8 30  2  0  0  0  0
  9 32  1  0  0  0  0
  9 35  1  0  0  0  0
 10 33  1  0  0  0  0
 10 62  1  0  0  0  0
 11 34  1  0  0  0  0
 11 65  1  0  0  0  0
 12 36  1  0  0  0  0
 12 66  1  0  0  0  0
 13 37  1  0  0  0  0
 13 67  1  0  0  0  0
 14 15  1  0  0  0  0
 14 17  1  0  0  0  0
 14 22  1  0  0  0  0
 14 25  1  0  0  0  0
 15 19  1  0  0  0  0
 15 20  1  0  0  0  0
 15 38  1  0  0  0  0
 16 18  1  0  0  0  0
 16 22  1  0  0  0  0
 16 24  1  0  0  0  0
 17 21  1  0  0  0  0
 17 39  1  0  0  0  0
 18 20  1  0  0  0  0
 18 40  1  0  0  0  0
 19 23  1  0  0  0  0
 19 26  1  0  0  0  0
 19 27  1  0  0  0  0
 20 41  1  0  0  0  0
 21 23  1  0  0  0  0
 21 42  1  0  0  0  0
 22 28  2  0  0  0  0
 23 43  1  0  0  0  0
 24 29  1  0  0  0  0
 24 44  1  0  0  0  0
 25 45  1  0  0  0  0
 25 46  1  0  0  0  0
 25 47  1  0  0  0  0
 27 48  1  0  0  0  0
 27 49  1  0  0  0  0
 27 50  1  0  0  0  0
 28 30  1  0  0  0  0
 28 51  1  0  0  0  0
 29 31  1  0  0  0  0
 29 52  1  0  0  0  0
 31 54  1  0  0  0  0
 31 55  1  0  0  0  0
 31 56  1  0  0  0  0
 32 33  1  0  0  0  0
 32 57  1  0  0  0  0
 33 34  1  0  0  0  0
 33 58  1  0  0  0  0
 34 36  1  0  0  0  0
 34 59  1  0  0  0  0
 35 36  1  0  0  0  0
 35 37  1  0  0  0  0
 35 60  1  0  0  0  0
 36 61  1  0  0  0  0
 37 63  1  0  0  0  0
 37 64  1  0  0  0  0
M  END
> <PUBCHEM_COMPOUND_CID>
442044

> <PUBCHEM_CONFORMER_RMSD>
1

> <PUBCHEM_CONFORMER_DIVERSEORDER>
1
15
2
10
14
3
16
11
5
13
7
4
6
12
8
9

> <PUBCHEM_MMFF94_PARTIAL_CHARGES>
42
1 -0.3
10 -0.68
11 -0.68
12 -0.68
13 -0.68
14 0.23
16 0.09
17 -0.05
18 -0.05
19 0.06
2 -0.3
20 0.38
21 -0.05
22 -0.18
23 0.38
24 0.38
26 0.66
28 -0.14
29 0.28
3 -0.43
30 0.71
32 0.56
33 0.28
34 0.28
35 0.28
36 0.28
37 0.28
39 0.1
4 -0.68
40 0.1
42 0.1
5 -0.43
51 0.15
53 0.4
6 -0.57
62 0.4
65 0.4
66 0.4
67 0.4
7 -0.56
8 -0.57
9 -0.56

> <PUBCHEM_EFFECTIVE_ROTOR_COUNT>
6.4

> <PUBCHEM_PHARMACOPHORE_FEATURES>
21
1 1 acceptor
1 10 acceptor
1 10 donor
1 11 acceptor
1 11 donor
1 12 acceptor
1 12 donor
1 13 acceptor
1 13 donor
1 2 acceptor
1 4 acceptor
1 4 donor
1 6 acceptor
1 7 acceptor
1 8 acceptor
1 9 acceptor
5 3 15 19 20 26 rings
6 5 16 22 24 28 30 rings
6 9 32 33 34 35 36 rings
7 1 14 15 16 18 20 22 rings
7 2 14 15 17 19 21 23 rings

> <PUBCHEM_HEAVY_ATOM_COUNT>
37

> <PUBCHEM_ATOM_DEF_STEREO_COUNT>
16

> <PUBCHEM_ATOM_UDEF_STEREO_COUNT>
0

> <PUBCHEM_BOND_DEF_STEREO_COUNT>
0

> <PUBCHEM_BOND_UDEF_STEREO_COUNT>
0

> <PUBCHEM_ISOTOPIC_ATOM_COUNT>
0

> <PUBCHEM_COMPONENT_COUNT>
1

> <PUBCHEM_CACTVS_TAUTO_COUNT>
1

> <PUBCHEM_CONFORMER_ID>
0006BEBC00000001

> <PUBCHEM_MMFF94_ENERGY>
130.623

> <PUBCHEM_FEATURE_SELFOVERLAP>
106.784

> <PUBCHEM_SHAPE_FINGERPRINT>
11513181 2 17975976466960887855
11828532 37 18128534873678553555
12128747 34 17023184980323025544
12166972 35 17489304166069286804
12236239 1 17132116857250937828
12422481 6 17895202064791313684
12788726 201 18200598136524121145
13402501 40 18260548948046732342
13782708 43 17894629301175751126
14068700 675 18060139847166472908
14294032 229 17770781522124428916
14910302 57 18263082270324225366
14955137 171 18271794684921196001
15183329 4 17060621105360813878
15328829 1 17202771543530444992
15361156 5 18335137566412588812
17492 89 17980201890389543131
17686467 74 18342175549849841100
1813 80 18340199704814177573
1979834 28 17458067037151876368
21033650 10 17984120816319135324
21781051 124 17631723873499621187
23559900 14 18411421670036036069
23572383 38 18040716961313759910
24893992 56 18343585136910317229
3004659 81 18131630084936000950
335352 9 18412549817081089549
3383291 50 18409168788597987395
3882209 13 17250930964413017966
404807 14 16086402310988619295
4280585 95 18412829092121960420
437815 12 18113334228054833336
508706 21 18337107985580529828
5104073 3 18337110047365409505
563151 74 16734128738100770968
613672 6 18411418371728136126
86090 222 17313929923189614254
9709674 26 18124318199483030947

> <PUBCHEM_SHAPE_MULTIPOLES>
685.14
15.47
3.72
1.9
14.17
2.5
0.2
-10.64
1.21
-2.43
-0.71
2.74
-0.58
2.32

> <PUBCHEM_SHAPE_SELFOVERLAP>
1511.723

> <PUBCHEM_SHAPE_VOLUME>
364.2

> <PUBCHEM_COORDINATE_TYPE>
2
5
10

$$$$

