11684
  -OEChem-06261205593D

 20 19  0     0  0  0  0  0  0999 V2000
    1.4398   -0.8051    1.1068 O   0  0  0  0  0  0  0  0  0  0  0  0
    1.5473   -0.6232   -1.1411 O   0  0  0  0  0  0  0  0  0  0  0  0
   -0.2417    0.5737    0.0270 C   0  0  0  0  0  0  0  0  0  0  0  0
   -1.3939   -0.2400    0.6670 C   0  0  0  0  0  0  0  0  0  0  0  0
    0.1335    1.7754    0.9179 C   0  0  0  0  0  0  0  0  0  0  0  0
   -0.6135    1.1119   -1.3649 C   0  0  0  0  0  0  0  0  0  0  0  0
    0.9907   -0.3385   -0.0868 C   0  0  0  0  0  0  0  0  0  0  0  0
   -1.8623   -1.4542   -0.1259 C   0  0  0  0  0  0  0  0  0  0  0  0
   -1.0974   -0.5821    1.6671 H   0  0  0  0  0  0  0  0  0  0  0  0
   -2.2567    0.4218    0.8178 H   0  0  0  0  0  0  0  0  0  0  0  0
   -0.6939    2.4908    0.9818 H   0  0  0  0  0  0  0  0  0  0  0  0
    0.3769    1.4587    1.9384 H   0  0  0  0  0  0  0  0  0  0  0  0
    1.0100    2.3026    0.5237 H   0  0  0  0  0  0  0  0  0  0  0  0
    0.1894    1.7356   -1.7754 H   0  0  0  0  0  0  0  0  0  0  0  0
   -1.5226    1.7217   -1.3207 H   0  0  0  0  0  0  0  0  0  0  0  0
   -0.7842    0.3033   -2.0836 H   0  0  0  0  0  0  0  0  0  0  0  0
   -2.6473   -1.9794    0.4282 H   0  0  0  0  0  0  0  0  0  0  0  0
   -2.2824   -1.1640   -1.0932 H   0  0  0  0  0  0  0  0  0  0  0  0
   -1.0469   -2.1627   -0.2986 H   0  0  0  0  0  0  0  0  0  0  0  0
    2.2297   -1.3771    1.0018 H   0  0  0  0  0  0  0  0  0  0  0  0
  1  7  1  0  0  0  0
  1 20  1  0  0  0  0
  2  7  2  0  0  0  0
  3  4  1  0  0  0  0
  3  5  1  0  0  0  0
  3  6  1  0  0  0  0
  3  7  1  0  0  0  0
  4  8  1  0  0  0  0
  4  9  1  0  0  0  0
  4 10  1  0  0  0  0
  5 11  1  0  0  0  0
  5 12  1  0  0  0  0
  5 13  1  0  0  0  0
  6 14  1  0  0  0  0
  6 15  1  0  0  0  0
  6 16  1  0  0  0  0
  8 17  1  0  0  0  0
  8 18  1  0  0  0  0
  8 19  1  0  0  0  0
M  END
> <PUBCHEM_COMPOUND_CID>
11684

> <PUBCHEM_CONFORMER_RMSD>
0.4

> <PUBCHEM_CONFORMER_DIVERSEORDER>
1
5
9
2
8
7
3
4
6

> <PUBCHEM_MMFF94_PARTIAL_CHARGES>
5
1 -0.65
2 -0.57
20 0.5
3 0.06
7 0.66

> <PUBCHEM_EFFECTIVE_ROTOR_COUNT>
2

> <PUBCHEM_PHARMACOPHORE_FEATURES>
5
1 1 acceptor
1 2 acceptor
1 8 hydrophobe
3 1 2 7 anion
3 3 5 6 hydrophobe

> <PUBCHEM_HEAVY_ATOM_COUNT>
8

> <PUBCHEM_ATOM_DEF_STEREO_COUNT>
0

> <PUBCHEM_ATOM_UDEF_STEREO_COUNT>
0

> <PUBCHEM_BOND_DEF_STEREO_COUNT>
0

> <PUBCHEM_BOND_UDEF_STEREO_COUNT>
0

> <PUBCHEM_ISOTOPIC_ATOM_COUNT>
0

> <PUBCHEM_COMPONENT_COUNT>
1

> <PUBCHEM_CACTVS_TAUTO_COUNT>
1

> <PUBCHEM_CONFORMER_ID>
00002DA400000001

> <PUBCHEM_MMFF94_ENERGY>
14.0771

> <PUBCHEM_FEATURE_SELFOVERLAP>
25.434

> <PUBCHEM_SHAPE_FINGERPRINT>
12423570 1 7588922593144873777
137420 1 11941535505841312573
18185500 45 18060126639793780059
21040471 1 17543902863914546328
23552449 11 18191597341355801059
24536 1 18045222897392257100
29004967 10 17967531255143872394
5943 1 11563044665366358245

> <PUBCHEM_SHAPE_MULTIPOLES>
152.9
1.95
1.61
1.26
0.97
0.38
0.23
-0.92
-0.1
-0.31
-0.08
-0.23
0.21
0.16

> <PUBCHEM_SHAPE_SELFOVERLAP>
284.168

> <PUBCHEM_SHAPE_VOLUME>
97.1

> <PUBCHEM_COORDINATE_TYPE>
2
5
10

$$$$

