442346
  -OEChem-07051212573D

 38 39  0     1  0  0  0  0  0999 V2000
    1.3901   -0.8268    1.4867 O   0  0  0  0  0  0  0  0  0  0  0  0
    2.6256   -2.3659   -0.1736 O   0  0  0  0  0  0  0  0  0  0  0  0
    4.1678    0.1975    0.2640 O   0  0  0  0  0  0  0  0  0  0  0  0
   -0.1937   -0.3727   -0.3474 C   0  0  2  0  0  0  0  0  0  0  0  0
   -0.9285    0.8396    0.3337 C   0  0  2  0  0  0  0  0  0  0  0  0
   -0.8910   -1.6999    0.0774 C   0  0  0  0  0  0  0  0  0  0  0  0
    1.3114   -0.3657    0.1346 C   0  0  1  0  0  0  0  0  0  0  0  0
   -2.4046   -1.6985   -0.1417 C   0  0  0  0  0  0  0  0  0  0  0  0
   -3.0784   -0.5228    0.5816 C   0  0  1  0  0  0  0  0  0  0  0  0
   -2.4491    0.7904    0.1211 C   0  0  0  0  0  0  0  0  0  0  0  0
   -0.2477    2.1773   -0.0543 C   0  0  0  0  0  0  0  0  0  0  0  0
   -0.2790   -0.2447   -1.8967 C   0  0  0  0  0  0  0  0  0  0  0  0
    1.9533    0.9981    0.0840 C   0  0  0  0  0  0  0  0  0  0  0  0
    1.2520    2.1372   -0.0106 C   0  0  0  0  0  0  0  0  0  0  0  0
   -4.6001   -0.6416    0.4299 C   0  0  0  0  0  0  0  0  0  0  0  0
    2.1246   -1.3578   -0.6606 C   0  0  0  0  0  0  0  0  0  0  0  0
   -3.1643    1.8026   -0.4008 C   0  0  0  0  0  0  0  0  0  0  0  0
    3.4118    1.1536    0.1727 C   0  0  0  0  0  0  0  0  0  0  0  0
   -0.7901    0.7351    1.4219 H   0  0  0  0  0  0  0  0  0  0  0  0
   -0.7188   -1.8954    1.1430 H   0  0  0  0  0  0  0  0  0  0  0  0
   -0.4546   -2.5484   -0.4638 H   0  0  0  0  0  0  0  0  0  0  0  0
   -2.6318   -1.6713   -1.2145 H   0  0  0  0  0  0  0  0  0  0  0  0
   -2.8100   -2.6459    0.2353 H   0  0  0  0  0  0  0  0  0  0  0  0
   -2.8680   -0.6162    1.6566 H   0  0  0  0  0  0  0  0  0  0  0  0
   -0.5915    2.9625    0.6308 H   0  0  0  0  0  0  0  0  0  0  0  0
   -0.5317    2.4882   -1.0668 H   0  0  0  0  0  0  0  0  0  0  0  0
    0.3569    0.5574   -2.2840 H   0  0  0  0  0  0  0  0  0  0  0  0
    0.0301   -1.1727   -2.3906 H   0  0  0  0  0  0  0  0  0  0  0  0
   -1.2984   -0.0364   -2.2367 H   0  0  0  0  0  0  0  0  0  0  0  0
    1.7517    3.1018   -0.0531 H   0  0  0  0  0  0  0  0  0  0  0  0
   -4.9515   -1.6020    0.8234 H   0  0  0  0  0  0  0  0  0  0  0  0
   -5.1165    0.1455    0.9901 H   0  0  0  0  0  0  0  0  0  0  0  0
   -4.9083   -0.5815   -0.6197 H   0  0  0  0  0  0  0  0  0  0  0  0
    2.2641   -1.1358   -1.7327 H   0  0  0  0  0  0  0  0  0  0  0  0
    2.3109   -0.7521    1.7909 H   0  0  0  0  0  0  0  0  0  0  0  0
   -4.2379    1.7434   -0.5370 H   0  0  0  0  0  0  0  0  0  0  0  0
   -2.7127    2.7364   -0.7130 H   0  0  0  0  0  0  0  0  0  0  0  0
    3.8005    2.1856    0.1503 H   0  0  0  0  0  0  0  0  0  0  0  0
  1  7  1  0  0  0  0
  1 35  1  0  0  0  0
  2 16  2  0  0  0  0
  3 18  2  0  0  0  0
  4  5  1  0  0  0  0
  4  6  1  0  0  0  0
  4  7  1  0  0  0  0
  4 12  1  0  0  0  0
  5 10  1  0  0  0  0
  5 11  1  0  0  0  0
  5 19  1  0  0  0  0
  6  8  1  0  0  0  0
  6 20  1  0  0  0  0
  6 21  1  0  0  0  0
  7 13  1  0  0  0  0
  7 16  1  0  0  0  0
  8  9  1  0  0  0  0
  8 22  1  0  0  0  0
  8 23  1  0  0  0  0
  9 10  1  0  0  0  0
  9 15  1  0  0  0  0
  9 24  1  0  0  0  0
 10 17  2  0  0  0  0
 11 14  1  0  0  0  0
 11 25  1  0  0  0  0
 11 26  1  0  0  0  0
 12 27  1  0  0  0  0
 12 28  1  0  0  0  0
 12 29  1  0  0  0  0
 13 14  2  0  0  0  0
 13 18  1  0  0  0  0
 14 30  1  0  0  0  0
 15 31  1  0  0  0  0
 15 32  1  0  0  0  0
 15 33  1  0  0  0  0
 16 34  1  0  0  0  0
 17 36  1  0  0  0  0
 17 37  1  0  0  0  0
 18 38  1  0  0  0  0
M  END
> <PUBCHEM_COMPOUND_CID>
442346

> <PUBCHEM_CONFORMER_RMSD>
0.6

> <PUBCHEM_CONFORMER_DIVERSEORDER>
1
3
2

> <PUBCHEM_MMFF94_PARTIAL_CHARGES>
19
1 -0.68
10 -0.28
11 0.14
13 -0.12
14 -0.29
16 0.45
17 -0.3
18 0.5
2 -0.57
3 -0.57
30 0.15
34 0.06
35 0.4
36 0.15
37 0.15
38 0.06
5 0.14
7 0.48
9 0.14

> <PUBCHEM_EFFECTIVE_ROTOR_COUNT>
3

> <PUBCHEM_PHARMACOPHORE_FEATURES>
6
1 1 acceptor
1 1 donor
1 2 acceptor
1 3 acceptor
6 4 5 6 8 9 10 rings
6 4 5 7 11 13 14 rings

> <PUBCHEM_HEAVY_ATOM_COUNT>
18

> <PUBCHEM_ATOM_DEF_STEREO_COUNT>
4

> <PUBCHEM_ATOM_UDEF_STEREO_COUNT>
0

> <PUBCHEM_BOND_DEF_STEREO_COUNT>
0

> <PUBCHEM_BOND_UDEF_STEREO_COUNT>
0

> <PUBCHEM_ISOTOPIC_ATOM_COUNT>
0

> <PUBCHEM_COMPONENT_COUNT>
1

> <PUBCHEM_CACTVS_TAUTO_COUNT>
1

> <PUBCHEM_CONFORMER_ID>
0006BFEA00000001

> <PUBCHEM_MMFF94_ENERGY>
41.9224

> <PUBCHEM_FEATURE_SELFOVERLAP>
30.474

> <PUBCHEM_SHAPE_FINGERPRINT>
10608611 8 18410013238564076241
10863032 1 18337389443261164081
10967382 1 18410009914227415819
10980938 120 18411134723365520144
11132069 177 18338241453267194704
11578080 2 17273995699042875596
11680986 33 18336546135249233036
12011746 2 18410856542813452533
12251169 10 18335415730074671185
12382932 28 18410016532919842184
12423570 1 6265172763159596168
12507560 40 18340484555945931821
13132413 78 18411417302154490549
13140716 1 17976820882995337537
13214271 11 18336555945091882060
13221675 6 18338234860439433281
13296908 3 18341047514441814985
14115302 16 17274250635543355107
14223421 5 18340485565226323147
14790565 3 15667297246413649760
15196674 1 18410854395002743657
15219456 202 18335419105618331015
15309172 13 17530684307639693861
15375462 189 18131642161756290146
15375462 6 18410570695438708543
15442244 35 18336825419576429411
15536298 74 18334290989550652490
16945 1 18266454313256436373
1813 80 17418091057613402030
200 152 17968384442471848685
20510252 161 18334573581635767353
20559304 39 18411132498530451129
21267235 1 18410846651335133434
21501502 16 18408324397256693815
2334 1 18410574002515962625
23402539 116 18335710403085066374
23419403 2 14534481067064895587
23463225 33 18340206289304815296
23559900 14 18192997243260230574
2748010 2 18338234972161441045
34934 24 18409737269814508408
5104073 3 18410011082463776584
528886 8 18334862675815570696
69090 78 18334013861439684487
7364860 26 18334853900938980466
8809292 202 18128815240115313003
9709674 26 18411694357778801435

> <PUBCHEM_SHAPE_MULTIPOLES>
352.82
6.2
2.31
0.99
1.45
0.16
0.25
-0.32
-0.99
-0.31
0.11
-0.01
-0.16
0.31

> <PUBCHEM_SHAPE_SELFOVERLAP>
740.595

> <PUBCHEM_SHAPE_VOLUME>
194.6

> <PUBCHEM_COORDINATE_TYPE>
2
5
10

$$$$

