129695
  -OEChem-07051213043D

 61 62  0     0  0  0  0  0  0999 V2000
    0.4404   -0.7937    2.6692 O   0  0  0  0  0  0  0  0  0  0  0  0
    2.8857   -2.3060   -0.7255 N   0  0  0  0  0  0  0  0  0  0  0  0
   -2.3158   -1.6687   -0.9604 N   0  0  0  0  0  0  0  0  0  0  0  0
    2.6521   -0.2954    2.1698 N   0  0  0  0  0  0  0  0  0  0  0  0
   -5.5173   -1.2335    1.9404 N   0  0  0  0  0  0  0  0  0  0  0  0
    1.1504   -2.4563   -2.4492 C   0  0  0  0  0  0  0  0  0  0  0  0
    0.0950   -1.8317   -1.5306 C   0  0  0  0  0  0  0  0  0  0  0  0
    2.5506   -1.9535   -2.0981 C   0  0  0  0  0  0  0  0  0  0  0  0
   -1.3338   -2.2759   -1.8506 C   0  0  0  0  0  0  0  0  0  0  0  0
    3.9588   -1.4595   -0.2181 C   0  0  0  0  0  0  0  0  0  0  0  0
    4.3233   -1.8023    1.2281 C   0  0  0  0  0  0  0  0  0  0  0  0
    3.1450   -1.6527    2.1921 C   0  0  0  0  0  0  0  0  0  0  0  0
   -3.6614   -2.1203   -1.2854 C   0  0  0  0  0  0  0  0  0  0  0  0
   -4.7119   -1.5040   -0.3589 C   0  0  0  0  0  0  0  0  0  0  0  0
    1.0763    1.5188    2.3335 C   0  0  0  0  0  0  0  0  0  0  0  0
    0.0340    1.9021    1.3285 C   0  0  0  0  0  0  0  0  0  0  0  0
    0.3575    2.1867   -0.0081 C   0  0  0  0  0  0  0  0  0  0  0  0
    1.3233    0.0213    2.4138 C   0  0  0  0  0  0  0  0  0  0  0  0
   -4.4754   -1.8355    1.1156 C   0  0  0  0  0  0  0  0  0  0  0  0
   -0.6743    2.5431   -0.9088 C   0  0  0  0  0  0  0  0  0  0  0  0
   -1.2876    1.9682    1.7710 C   0  0  0  0  0  0  0  0  0  0  0  0
    1.6821    2.1253   -0.4707 C   0  0  0  0  0  0  0  0  0  0  0  0
   -1.9991    2.6041   -0.4465 C   0  0  0  0  0  0  0  0  0  0  0  0
   -2.3022    2.3182    0.8851 C   0  0  0  0  0  0  0  0  0  0  0  0
   -0.3512    2.8275   -2.2457 C   0  0  0  0  0  0  0  0  0  0  0  0
    1.9851    2.4115   -1.8022 C   0  0  0  0  0  0  0  0  0  0  0  0
    0.9704    2.7620   -2.6880 C   0  0  0  0  0  0  0  0  0  0  0  0
    0.9287   -2.2003   -3.4920 H   0  0  0  0  0  0  0  0  0  0  0  0
    1.1119   -3.5497   -2.3708 H   0  0  0  0  0  0  0  0  0  0  0  0
    0.3068   -2.0851   -0.4844 H   0  0  0  0  0  0  0  0  0  0  0  0
    0.1558   -0.7387   -1.6087 H   0  0  0  0  0  0  0  0  0  0  0  0
    3.2850   -2.3862   -2.7873 H   0  0  0  0  0  0  0  0  0  0  0  0
    2.5682   -0.8661   -2.2441 H   0  0  0  0  0  0  0  0  0  0  0  0
   -1.5599   -2.0133   -2.8915 H   0  0  0  0  0  0  0  0  0  0  0  0
   -1.3850   -3.3685   -1.7671 H   0  0  0  0  0  0  0  0  0  0  0  0
    4.8553   -1.5902   -0.8370 H   0  0  0  0  0  0  0  0  0  0  0  0
    3.6769   -0.4027   -0.2827 H   0  0  0  0  0  0  0  0  0  0  0  0
    5.1436   -1.1468    1.5462 H   0  0  0  0  0  0  0  0  0  0  0  0
    4.7002   -2.8309    1.2829 H   0  0  0  0  0  0  0  0  0  0  0  0
    3.1451   -3.2897   -0.6677 H   0  0  0  0  0  0  0  0  0  0  0  0
   -2.2641   -0.6527   -1.0292 H   0  0  0  0  0  0  0  0  0  0  0  0
    3.4728   -1.8612    3.2161 H   0  0  0  0  0  0  0  0  0  0  0  0
    2.3356   -2.3507    1.9544 H   0  0  0  0  0  0  0  0  0  0  0  0
   -3.9116   -1.8521   -2.3191 H   0  0  0  0  0  0  0  0  0  0  0  0
   -3.7210   -3.2127   -1.2042 H   0  0  0  0  0  0  0  0  0  0  0  0
   -5.7016   -1.8673   -0.6640 H   0  0  0  0  0  0  0  0  0  0  0  0
   -4.7202   -0.4145   -0.4969 H   0  0  0  0  0  0  0  0  0  0  0  0
    2.0019    2.0869    2.1956 H   0  0  0  0  0  0  0  0  0  0  0  0
    0.7454    1.8219    3.3374 H   0  0  0  0  0  0  0  0  0  0  0  0
    3.3311    0.4525    2.0634 H   0  0  0  0  0  0  0  0  0  0  0  0
   -4.4843   -2.9208    1.2625 H   0  0  0  0  0  0  0  0  0  0  0  0
   -3.5024   -1.4602    1.4498 H   0  0  0  0  0  0  0  0  0  0  0  0
   -1.5439    1.7453    2.8035 H   0  0  0  0  0  0  0  0  0  0  0  0
    2.5143    1.8521    0.1695 H   0  0  0  0  0  0  0  0  0  0  0  0
   -2.8085    2.8740   -1.1217 H   0  0  0  0  0  0  0  0  0  0  0  0
   -3.3314    2.3663    1.2290 H   0  0  0  0  0  0  0  0  0  0  0  0
   -1.1283    3.1028   -2.9557 H   0  0  0  0  0  0  0  0  0  0  0  0
    3.0132    2.3575   -2.1483 H   0  0  0  0  0  0  0  0  0  0  0  0
    1.2069    2.9833   -3.7247 H   0  0  0  0  0  0  0  0  0  0  0  0
   -5.4957   -0.2200    1.8344 H   0  0  0  0  0  0  0  0  0  0  0  0
   -5.3215   -1.4221    2.9226 H   0  0  0  0  0  0  0  0  0  0  0  0
  1 18  2  0  0  0  0
  2  8  1  0  0  0  0
  2 10  1  0  0  0  0
  2 40  1  0  0  0  0
  3  9  1  0  0  0  0
  3 13  1  0  0  0  0
  3 41  1  0  0  0  0
  4 12  1  0  0  0  0
  4 18  1  0  0  0  0
  4 50  1  0  0  0  0
  5 19  1  0  0  0  0
  5 60  1  0  0  0  0
  5 61  1  0  0  0  0
  6  7  1  0  0  0  0
  6  8  1  0  0  0  0
  6 28  1  0  0  0  0
  6 29  1  0  0  0  0
  7  9  1  0  0  0  0
  7 30  1  0  0  0  0
  7 31  1  0  0  0  0
  8 32  1  0  0  0  0
  8 33  1  0  0  0  0
  9 34  1  0  0  0  0
  9 35  1  0  0  0  0
 10 11  1  0  0  0  0
 10 36  1  0  0  0  0
 10 37  1  0  0  0  0
 11 12  1  0  0  0  0
 11 38  1  0  0  0  0
 11 39  1  0  0  0  0
 12 42  1  0  0  0  0
 12 43  1  0  0  0  0
 13 14  1  0  0  0  0
 13 44  1  0  0  0  0
 13 45  1  0  0  0  0
 14 19  1  0  0  0  0
 14 46  1  0  0  0  0
 14 47  1  0  0  0  0
 15 16  1  0  0  0  0
 15 18  1  0  0  0  0
 15 48  1  0  0  0  0
 15 49  1  0  0  0  0
 16 17  1  0  0  0  0
 16 21  2  0  0  0  0
 17 20  1  0  0  0  0
 17 22  2  0  0  0  0
 19 51  1  0  0  0  0
 19 52  1  0  0  0  0
 20 23  1  0  0  0  0
 20 25  2  0  0  0  0
 21 24  1  0  0  0  0
 21 53  1  0  0  0  0
 22 26  1  0  0  0  0
 22 54  1  0  0  0  0
 23 24  2  0  0  0  0
 23 55  1  0  0  0  0
 24 56  1  0  0  0  0
 25 27  1  0  0  0  0
 25 57  1  0  0  0  0
 26 27  2  0  0  0  0
 26 58  1  0  0  0  0
 27 59  1  0  0  0  0
M  END
> <PUBCHEM_COMPOUND_CID>
129695

> <PUBCHEM_CONFORMER_RMSD>
1.4

> <PUBCHEM_CONFORMER_DIVERSEORDER>
4
74
82
86
29
89
43
132
71
79
47
58
93
122
2
34
66
73
99
115
20
94
28
69
40
70
107
39
31
42
77
108
12
24
131
16
59
113
114
1
116
78
36
97
124
133
17
141
104
100
48
129
109
35
25
139
75
11
119
54
143
62
38
140
136
134
120
6
55
5
85
68
84
83
19
105
144
142
21
125
128
121
92
18
102
110
106
98
80
23
33
111
26
101
137
46
44
130
76
49
53
103
8
118
95
41
45
88
123
60
50
13
127
37
90
135
30
87
67
7
32
64
56
14
52
63
81
27
96
112
72
138
15
51
61
91
65
57
3
117
126
22
9
10

> <PUBCHEM_MMFF94_PARTIAL_CHARGES>
33
1 -0.57
10 0.27
12 0.3
13 0.27
15 0.2
16 -0.14
18 0.57
19 0.27
2 -0.9
21 -0.15
22 -0.15
23 -0.15
24 -0.15
25 -0.15
26 -0.15
27 -0.15
3 -0.9
4 -0.73
40 0.36
41 0.36
5 -0.99
50 0.37
53 0.15
54 0.15
55 0.15
56 0.15
57 0.15
58 0.15
59 0.15
60 0.36
61 0.36
8 0.27
9 0.27

> <PUBCHEM_EFFECTIVE_ROTOR_COUNT>
15

> <PUBCHEM_PHARMACOPHORE_FEATURES>
10
1 1 acceptor
1 2 cation
1 2 donor
1 3 cation
1 3 donor
1 4 donor
1 5 cation
1 5 donor
6 16 17 20 21 23 24 rings
6 17 20 22 25 26 27 rings

> <PUBCHEM_HEAVY_ATOM_COUNT>
27

> <PUBCHEM_ATOM_DEF_STEREO_COUNT>
0

> <PUBCHEM_ATOM_UDEF_STEREO_COUNT>
0

> <PUBCHEM_BOND_DEF_STEREO_COUNT>
0

> <PUBCHEM_BOND_UDEF_STEREO_COUNT>
0

> <PUBCHEM_ISOTOPIC_ATOM_COUNT>
0

> <PUBCHEM_COMPONENT_COUNT>
1

> <PUBCHEM_CACTVS_TAUTO_COUNT>
2

> <PUBCHEM_CONFORMER_ID>
0001FA9F00000004

> <PUBCHEM_MMFF94_ENERGY>
27.1161

> <PUBCHEM_FEATURE_SELFOVERLAP>
50.77

> <PUBCHEM_SHAPE_FINGERPRINT>
11244481 83 17842845421200246235
12156800 1 18268987776983357847
12422481 6 18260264183383626747
13642711 20 17412437174906296929
20764821 26 17388569221641690878
3052486 1 18269836574142912459
35225 105 17473315218402704694
469060 322 18198606908181855110

> <PUBCHEM_SHAPE_MULTIPOLES>
529.85
7.23
4.62
3.39
6.34
1.3
-0.41
-7.97
-3.2
0.58
2.58
-1.41
0.07
-0.57

> <PUBCHEM_SHAPE_SELFOVERLAP>
1070.841

> <PUBCHEM_SHAPE_VOLUME>
309.4

> <PUBCHEM_COORDINATE_TYPE>
2
5
10

$$$$

