46173815
  -OEChem-07051213093D

 67 72  0     1  0  0  0  0  0999 V2000
   -2.2185   -2.2695   -0.8503 O   0  0  0  0  0  0  0  0  0  0  0  0
    4.4549    0.3969    0.5872 O   0  0  0  0  0  0  0  0  0  0  0  0
   -4.1598   -1.0179    0.7702 O   0  0  0  0  0  0  0  0  0  0  0  0
    0.2925   -3.7431   -0.1984 O   0  0  0  0  0  0  0  0  0  0  0  0
    2.0043    0.8253   -2.6306 O   0  0  0  0  0  0  0  0  0  0  0  0
   -3.9838   -2.9517    1.9535 O   0  0  0  0  0  0  0  0  0  0  0  0
   -5.5139    3.0634   -0.7565 O   0  0  0  0  0  0  0  0  0  0  0  0
    3.9691    4.5870    0.1830 O   0  0  0  0  0  0  0  0  0  0  0  0
    4.0318    3.1585    1.9540 O   0  0  0  0  0  0  0  0  0  0  0  0
   -1.3937   -1.2923   -0.1561 C   0  0  1  0  0  0  0  0  0  0  0  0
    0.0725   -1.3678   -0.7530 C   0  0  1  0  0  0  0  0  0  0  0  0
    0.8177   -0.0600   -0.2980 C   0  0  1  0  0  0  0  0  0  0  0  0
   -2.0421    0.1006    0.0714 C   0  0  1  0  0  0  0  0  0  0  0  0
    2.3703   -0.0739   -0.4477 C   0  0  2  0  0  0  0  0  0  0  0  0
   -2.1694   -2.4014    0.5567 C   0  0  1  0  0  0  0  0  0  0  0  0
    2.8343   -1.3034    0.3553 C   0  0  1  0  0  0  0  0  0  0  0  0
    0.1194    1.2227   -0.7915 C   0  0  0  0  0  0  0  0  0  0  0  0
   -1.4106    1.1172   -0.9000 C   0  0  0  0  0  0  0  0  0  0  0  0
    0.8509   -2.6489   -0.3182 C   0  0  0  0  0  0  0  0  0  0  0  0
    3.1439    0.9889    0.3697 C   0  0  2  0  0  0  0  0  0  0  0  0
    2.3752   -2.6133   -0.2396 C   0  0  0  0  0  0  0  0  0  0  0  0
   -3.5855   -0.0646   -0.1794 C   0  0  2  0  0  0  0  0  0  0  0  0
    4.3155   -1.0459    0.6516 C   0  0  0  0  0  0  0  0  0  0  0  0
   -0.0050   -1.4935   -2.3024 C   0  0  0  0  0  0  0  0  0  0  0  0
    2.8527   -0.0444   -1.9151 C   0  0  0  0  0  0  0  0  0  0  0  0
   -1.8253    0.5838    1.5360 C   0  0  0  0  0  0  0  0  0  0  0  0
   -3.5047   -2.1565    1.1550 C   0  0  0  0  0  0  0  0  0  0  0  0
    3.3463    2.3655   -0.2464 C   0  0  0  0  0  0  0  0  0  0  0  0
    4.6808   -1.4734    2.0792 C   0  0  0  0  0  0  0  0  0  0  0  0
    5.3040   -1.6940   -0.3178 C   0  0  0  0  0  0  0  0  0  0  0  0
   -4.4187    1.2056   -0.1232 C   0  0  0  0  0  0  0  0  0  0  0  0
    3.8147    3.3728    0.7709 C   0  0  0  0  0  0  0  0  0  0  0  0
   -5.0032    1.7915    1.0249 C   0  0  0  0  0  0  0  0  0  0  0  0
   -4.7583    2.0167   -1.1809 C   0  0  0  0  0  0  0  0  0  0  0  0
   -5.6583    2.9189    0.5869 C   0  0  0  0  0  0  0  0  0  0  0  0
    0.6853   -0.0477    0.7890 H   0  0  0  0  0  0  0  0  0  0  0  0
   -1.6184   -3.2187    0.9973 H   0  0  0  0  0  0  0  0  0  0  0  0
    2.3307   -1.2547    1.3365 H   0  0  0  0  0  0  0  0  0  0  0  0
    0.3311    1.9999   -0.0434 H   0  0  0  0  0  0  0  0  0  0  0  0
    0.4358    1.6694   -1.7258 H   0  0  0  0  0  0  0  0  0  0  0  0
   -1.6826    0.8501   -1.9280 H   0  0  0  0  0  0  0  0  0  0  0  0
   -1.8286    2.1188   -0.7395 H   0  0  0  0  0  0  0  0  0  0  0  0
    2.6807    1.0953    1.3606 H   0  0  0  0  0  0  0  0  0  0  0  0
    2.7808   -2.8022   -1.2363 H   0  0  0  0  0  0  0  0  0  0  0  0
    2.6968   -3.4377    0.4077 H   0  0  0  0  0  0  0  0  0  0  0  0
   -3.7610   -0.4884   -1.1783 H   0  0  0  0  0  0  0  0  0  0  0  0
    0.9585   -1.7329   -2.7536 H   0  0  0  0  0  0  0  0  0  0  0  0
   -0.6558   -2.3221   -2.6056 H   0  0  0  0  0  0  0  0  0  0  0  0
   -0.3904   -0.5976   -2.7908 H   0  0  0  0  0  0  0  0  0  0  0  0
    3.8778    0.3232   -2.0166 H   0  0  0  0  0  0  0  0  0  0  0  0
    2.8318   -1.0210   -2.3970 H   0  0  0  0  0  0  0  0  0  0  0  0
   -0.7821    0.6139    1.8469 H   0  0  0  0  0  0  0  0  0  0  0  0
   -2.2114    1.5997    1.6722 H   0  0  0  0  0  0  0  0  0  0  0  0
   -2.3287   -0.0564    2.2667 H   0  0  0  0  0  0  0  0  0  0  0  0
    4.1111    2.3333   -1.0302 H   0  0  0  0  0  0  0  0  0  0  0  0
    2.4116    2.7477   -0.6632 H   0  0  0  0  0  0  0  0  0  0  0  0
    5.2684   -2.7867   -0.2588 H   0  0  0  0  0  0  0  0  0  0  0  0
    5.1196   -1.4038   -1.3544 H   0  0  0  0  0  0  0  0  0  0  0  0
    6.3280   -1.3720   -0.0952 H   0  0  0  0  0  0  0  0  0  0  0  0
    4.0688   -0.9451    2.8194 H   0  0  0  0  0  0  0  0  0  0  0  0
    4.5496   -2.5508    2.2221 H   0  0  0  0  0  0  0  0  0  0  0  0
    5.7211   -1.2152    2.3085 H   0  0  0  0  0  0  0  0  0  0  0  0
    2.3120    0.8367   -3.5527 H   0  0  0  0  0  0  0  0  0  0  0  0
   -4.9568    1.4414    2.0462 H   0  0  0  0  0  0  0  0  0  0  0  0
   -4.5525    1.9900   -2.2413 H   0  0  0  0  0  0  0  0  0  0  0  0
   -6.2421    3.6829    1.0791 H   0  0  0  0  0  0  0  0  0  0  0  0
    4.2744    5.2662    0.8215 H   0  0  0  0  0  0  0  0  0  0  0  0
  1 10  1  0  0  0  0
  1 15  1  0  0  0  0
  2 20  1  0  0  0  0
  2 23  1  0  0  0  0
  3 22  1  0  0  0  0
  3 27  1  0  0  0  0
  4 19  2  0  0  0  0
  5 25  1  0  0  0  0
  5 63  1  0  0  0  0
  6 27  2  0  0  0  0
  7 34  1  0  0  0  0
  7 35  1  0  0  0  0
  8 32  1  0  0  0  0
  8 67  1  0  0  0  0
  9 32  2  0  0  0  0
 10 11  1  0  0  0  0
 10 13  1  0  0  0  0
 10 15  1  0  0  0  0
 11 12  1  0  0  0  0
 11 19  1  0  0  0  0
 11 24  1  0  0  0  0
 12 14  1  0  0  0  0
 12 17  1  0  0  0  0
 12 36  1  0  0  0  0
 13 18  1  0  0  0  0
 13 22  1  0  0  0  0
 13 26  1  0  0  0  0
 14 16  1  0  0  0  0
 14 20  1  0  0  0  0
 14 25  1  0  0  0  0
 15 27  1  0  0  0  0
 15 37  1  0  0  0  0
 16 21  1  0  0  0  0
 16 23  1  0  0  0  0
 16 38  1  0  0  0  0
 17 18  1  0  0  0  0
 17 39  1  0  0  0  0
 17 40  1  0  0  0  0
 18 41  1  0  0  0  0
 18 42  1  0  0  0  0
 19 21  1  0  0  0  0
 20 28  1  0  0  0  0
 20 43  1  0  0  0  0
 21 44  1  0  0  0  0
 21 45  1  0  0  0  0
 22 31  1  0  0  0  0
 22 46  1  0  0  0  0
 23 29  1  0  0  0  0
 23 30  1  0  0  0  0
 24 47  1  0  0  0  0
 24 48  1  0  0  0  0
 24 49  1  0  0  0  0
 25 50  1  0  0  0  0
 25 51  1  0  0  0  0
 26 52  1  0  0  0  0
 26 53  1  0  0  0  0
 26 54  1  0  0  0  0
 28 32  1  0  0  0  0
 28 55  1  0  0  0  0
 28 56  1  0  0  0  0
 29 60  1  0  0  0  0
 29 61  1  0  0  0  0
 29 62  1  0  0  0  0
 30 57  1  0  0  0  0
 30 58  1  0  0  0  0
 30 59  1  0  0  0  0
 31 33  1  0  0  0  0
 31 34  2  0  0  0  0
 33 35  2  0  0  0  0
 33 64  1  0  0  0  0
 34 65  1  0  0  0  0
 35 66  1  0  0  0  0
M  END
> <PUBCHEM_COMPOUND_CID>
46173815

> <PUBCHEM_CONFORMER_RMSD>
0.8

> <PUBCHEM_CONFORMER_DIVERSEORDER>
1
5
2
3
4

> <PUBCHEM_MMFF94_PARTIAL_CHARGES>
32
1 -0.3
10 -0.04
11 0.16
13 0.09
15 0.05
19 0.45
2 -0.56
20 0.28
21 0.06
22 0.46
23 0.28
25 0.28
27 0.72
28 0.06
3 -0.43
31 -0.18
32 0.66
33 -0.15
34 -0.01
35 -0.01
37 0.1
4 -0.57
5 -0.68
6 -0.57
63 0.4
64 0.15
65 0.15
66 0.15
67 0.5
7 -0.28
8 -0.65
9 -0.57

> <PUBCHEM_EFFECTIVE_ROTOR_COUNT>
5.8

> <PUBCHEM_PHARMACOPHORE_FEATURES>
16
1 1 acceptor
1 2 acceptor
1 4 acceptor
1 5 acceptor
1 5 donor
1 6 acceptor
1 7 acceptor
1 8 acceptor
1 9 acceptor
3 23 29 30 hydrophobe
3 8 9 32 anion
5 2 14 16 20 23 rings
5 7 31 33 34 35 rings
6 10 11 12 13 17 18 rings
6 11 12 14 16 19 21 rings
7 1 3 10 13 15 22 27 rings

> <PUBCHEM_HEAVY_ATOM_COUNT>
35

> <PUBCHEM_ATOM_DEF_STEREO_COUNT>
9

> <PUBCHEM_ATOM_UDEF_STEREO_COUNT>
0

> <PUBCHEM_BOND_DEF_STEREO_COUNT>
0

> <PUBCHEM_BOND_UDEF_STEREO_COUNT>
0

> <PUBCHEM_ISOTOPIC_ATOM_COUNT>
0

> <PUBCHEM_COMPONENT_COUNT>
1

> <PUBCHEM_CACTVS_TAUTO_COUNT>
4

> <PUBCHEM_CONFORMER_ID>
02C08E7700000001

> <PUBCHEM_MMFF94_ENERGY>
144.2485

> <PUBCHEM_FEATURE_SELFOVERLAP>
81.341

> <PUBCHEM_SHAPE_FINGERPRINT>
10439779 11 18121504814809214920
10928967 22 12463565154102997585
11405975 8 18342741818594222480
11456790 92 18123467447808084313
11578080 2 18337949000365086185
12403259 118 18335713727463918394
12422481 6 17845940735505539789
12633257 1 18201443635248934906
12788726 201 17681009395518755951
12892183 10 18128254484747852258
12925494 130 18410296904475606025
13140716 1 18413388730650003166
13224815 77 18113890550916070823
13583140 156 18410856533880567783
13726171 33 18053064455171032436
13965767 371 18201730552239210612
14020679 6 18060132184675557787
14790565 3 17908700627729369676
14955137 171 18337389448500721254
15238133 3 18341325703863580982
20715895 44 18262805197605188089
20775530 9 14978015343743285354
21033648 144 18271537437179782205
21033648 29 17823440308544327186
21133410 52 16463320965541688862
21756936 100 17467077354690751744
21859007 373 17415856935764411981
22149856 69 18122038049239507393
23559900 14 18335418027708367546
2838139 119 18338526356334942813
3117164 225 18342742943933507432
335352 9 18338517564061965486
350125 39 18412824720493995612
376196 1 18409730668550222171
4144715 1 18341885277888740530
4340502 62 18266734865548271347
460360 51 18341041926584257569
469060 322 17260170109044208290
5104073 3 18343585122558898593
6086070 43 18188201100145249358
6703917 75 17556284074673931732

> <PUBCHEM_SHAPE_MULTIPOLES>
667.46
11.79
4.47
1.71
6.06
2.3
0.25
7.21
-3.48
-1.11
-1.08
-0.56
-0.11
1.44

> <PUBCHEM_SHAPE_SELFOVERLAP>
1463.15

> <PUBCHEM_SHAPE_VOLUME>
358.3

> <PUBCHEM_COORDINATE_TYPE>
2
5
10

$$$$

