452707
  -OEChem-07051213103D

 69 72  0     1  0  0  0  0  0999 V2000
   -0.3995   -0.4971    0.0508 O   0  0  0  0  0  0  0  0  0  0  0  0
    3.6774   -0.8993   -0.2396 O   0  0  0  0  0  0  0  0  0  0  0  0
    1.9862   -3.2373   -0.4115 O   0  0  0  0  0  0  0  0  0  0  0  0
    2.3280    1.4389   -1.4196 O   0  0  0  0  0  0  0  0  0  0  0  0
   -0.2777    1.7938   -0.3744 O   0  0  0  0  0  0  0  0  0  0  0  0
   -2.1504   -2.6093    0.2213 O   0  0  0  0  0  0  0  0  0  0  0  0
    4.4683   -0.2370   -2.2975 O   0  0  0  0  0  0  0  0  0  0  0  0
   -2.4119    1.1384   -0.9353 O   0  0  0  0  0  0  0  0  0  0  0  0
   -2.7492   -4.2806    1.6870 O   0  0  0  0  0  0  0  0  0  0  0  0
    9.2528    0.9878   -0.7768 O   0  0  0  0  0  0  0  0  0  0  0  0
    7.7070   -2.4889    2.1316 O   0  0  0  0  0  0  0  0  0  0  0  0
    9.7369   -0.8126    1.2713 O   0  0  0  0  0  0  0  0  0  0  0  0
   -5.0287    5.3912    0.1220 O   0  0  0  0  0  0  0  0  0  0  0  0
   -0.4658    6.3901    1.1793 O   0  0  0  0  0  0  0  0  0  0  0  0
   -3.1179    7.1753    1.0365 O   0  0  0  0  0  0  0  0  0  0  0  0
   -7.6280   -4.8505    0.0803 O   0  0  0  0  0  0  0  0  0  0  0  0
   -6.4177   -0.2860   -0.7171 O   0  0  0  0  0  0  0  0  0  0  0  0
   -8.3299   -2.2896   -0.7067 O   0  0  0  0  0  0  0  0  0  0  0  0
    2.3375   -0.8747   -0.7339 C   0  0  1  0  0  0  0  0  0  0  0  0
    1.5407   -1.9495    0.0058 C   0  0  1  0  0  0  0  0  0  0  0  0
    0.0443   -1.8129   -0.2851 C   0  0  1  0  0  0  0  0  0  0  0  0
    1.7371    0.5129   -0.5082 C   0  0  2  0  0  0  0  0  0  0  0  0
    0.2263    0.5098   -0.7411 C   0  0  1  0  0  0  0  0  0  0  0  0
   -0.7824   -2.7999    0.5330 C   0  0  0  0  0  0  0  0  0  0  0  0
    4.6432   -0.5573   -1.1321 C   0  0  0  0  0  0  0  0  0  0  0  0
   -1.6173    1.9691   -0.5230 C   0  0  0  0  0  0  0  0  0  0  0  0
    5.9841   -0.6236   -0.4980 C   0  0  0  0  0  0  0  0  0  0  0  0
   -3.0360   -3.4183    0.8710 C   0  0  0  0  0  0  0  0  0  0  0  0
   -2.0126    3.3397   -0.1108 C   0  0  0  0  0  0  0  0  0  0  0  0
   -4.4305   -3.1206    0.4569 C   0  0  0  0  0  0  0  0  0  0  0  0
    6.2244   -1.5324    0.5326 C   0  0  0  0  0  0  0  0  0  0  0  0
    7.0044    0.2213   -0.9347 C   0  0  0  0  0  0  0  0  0  0  0  0
   -1.0472    4.2357    0.3483 C   0  0  0  0  0  0  0  0  0  0  0  0
   -3.3490    3.7321   -0.1851 C   0  0  0  0  0  0  0  0  0  0  0  0
    8.2650    0.1573   -0.3409 C   0  0  0  0  0  0  0  0  0  0  0  0
    7.4849   -1.5965    1.1264 C   0  0  0  0  0  0  0  0  0  0  0  0
   -4.7799   -1.8298    0.0603 C   0  0  0  0  0  0  0  0  0  0  0  0
   -5.3906   -4.1324    0.4622 C   0  0  0  0  0  0  0  0  0  0  0  0
    8.5052   -0.7516    0.6896 C   0  0  0  0  0  0  0  0  0  0  0  0
   -3.7201    5.0205    0.1997 C   0  0  0  0  0  0  0  0  0  0  0  0
   -1.4182    5.5242    0.7331 C   0  0  0  0  0  0  0  0  0  0  0  0
   -2.7547    5.9165    0.6587 C   0  0  0  0  0  0  0  0  0  0  0  0
   -6.7000   -3.8534    0.0708 C   0  0  0  0  0  0  0  0  0  0  0  0
   -6.0893   -1.5507   -0.3312 C   0  0  0  0  0  0  0  0  0  0  0  0
   -7.0493   -2.5625   -0.3260 C   0  0  0  0  0  0  0  0  0  0  0  0
    2.3359   -1.1217   -1.8048 H   0  0  0  0  0  0  0  0  0  0  0  0
    1.7337   -1.8686    1.0826 H   0  0  0  0  0  0  0  0  0  0  0  0
   -0.1692   -1.9914   -1.3478 H   0  0  0  0  0  0  0  0  0  0  0  0
    1.9714    0.8689    0.5022 H   0  0  0  0  0  0  0  0  0  0  0  0
    0.0005    0.3480   -1.8043 H   0  0  0  0  0  0  0  0  0  0  0  0
   -0.6375   -2.6121    1.6039 H   0  0  0  0  0  0  0  0  0  0  0  0
   -0.4928   -3.8312    0.3020 H   0  0  0  0  0  0  0  0  0  0  0  0
    1.8068   -3.3241   -1.3633 H   0  0  0  0  0  0  0  0  0  0  0  0
    2.1396    1.1340   -2.3236 H   0  0  0  0  0  0  0  0  0  0  0  0
    5.4422   -2.2061    0.8743 H   0  0  0  0  0  0  0  0  0  0  0  0
    6.8183    0.9323   -1.7361 H   0  0  0  0  0  0  0  0  0  0  0  0
    0.0015    3.9592    0.4169 H   0  0  0  0  0  0  0  0  0  0  0  0
   -4.1064    3.0382   -0.5421 H   0  0  0  0  0  0  0  0  0  0  0  0
   -4.0446   -1.0292    0.0639 H   0  0  0  0  0  0  0  0  0  0  0  0
   -5.1195   -5.1402    0.7678 H   0  0  0  0  0  0  0  0  0  0  0  0
    8.9053    1.5459   -1.4936 H   0  0  0  0  0  0  0  0  0  0  0  0
    6.8894   -2.9877    2.3007 H   0  0  0  0  0  0  0  0  0  0  0  0
    9.7163   -1.4968    1.9629 H   0  0  0  0  0  0  0  0  0  0  0  0
   -5.5512    4.6439   -0.2164 H   0  0  0  0  0  0  0  0  0  0  0  0
    0.4003    5.9479    1.1628 H   0  0  0  0  0  0  0  0  0  0  0  0
   -2.3200    7.6513    1.3253 H   0  0  0  0  0  0  0  0  0  0  0  0
   -7.2069   -5.6734    0.3826 H   0  0  0  0  0  0  0  0  0  0  0  0
   -5.6287    0.2797   -0.6579 H   0  0  0  0  0  0  0  0  0  0  0  0
   -8.3848   -1.3481   -0.9463 H   0  0  0  0  0  0  0  0  0  0  0  0
  1 21  1  0  0  0  0
  1 23  1  0  0  0  0
  2 19  1  0  0  0  0
  2 25  1  0  0  0  0
  3 20  1  0  0  0  0
  3 53  1  0  0  0  0
  4 22  1  0  0  0  0
  4 54  1  0  0  0  0
  5 23  1  0  0  0  0
  5 26  1  0  0  0  0
  6 24  1  0  0  0  0
  6 28  1  0  0  0  0
  7 25  2  0  0  0  0
  8 26  2  0  0  0  0
  9 28  2  0  0  0  0
 10 35  1  0  0  0  0
 10 61  1  0  0  0  0
 11 36  1  0  0  0  0
 11 62  1  0  0  0  0
 12 39  1  0  0  0  0
 12 63  1  0  0  0  0
 13 40  1  0  0  0  0
 13 64  1  0  0  0  0
 14 41  1  0  0  0  0
 14 65  1  0  0  0  0
 15 42  1  0  0  0  0
 15 66  1  0  0  0  0
 16 43  1  0  0  0  0
 16 67  1  0  0  0  0
 17 44  1  0  0  0  0
 17 68  1  0  0  0  0
 18 45  1  0  0  0  0
 18 69  1  0  0  0  0
 19 20  1  0  0  0  0
 19 22  1  0  0  0  0
 19 46  1  0  0  0  0
 20 21  1  0  0  0  0
 20 47  1  0  0  0  0
 21 24  1  0  0  0  0
 21 48  1  0  0  0  0
 22 23  1  0  0  0  0
 22 49  1  0  0  0  0
 23 50  1  0  0  0  0
 24 51  1  0  0  0  0
 24 52  1  0  0  0  0
 25 27  1  0  0  0  0
 26 29  1  0  0  0  0
 27 31  2  0  0  0  0
 27 32  1  0  0  0  0
 28 30  1  0  0  0  0
 29 33  2  0  0  0  0
 29 34  1  0  0  0  0
 30 37  2  0  0  0  0
 30 38  1  0  0  0  0
 31 36  1  0  0  0  0
 31 55  1  0  0  0  0
 32 35  2  0  0  0  0
 32 56  1  0  0  0  0
 33 41  1  0  0  0  0
 33 57  1  0  0  0  0
 34 40  2  0  0  0  0
 34 58  1  0  0  0  0
 35 39  1  0  0  0  0
 36 39  2  0  0  0  0
 37 44  1  0  0  0  0
 37 59  1  0  0  0  0
 38 43  2  0  0  0  0
 38 60  1  0  0  0  0
 40 42  1  0  0  0  0
 41 42  2  0  0  0  0
 43 45  1  0  0  0  0
 44 45  2  0  0  0  0
M  END
> <PUBCHEM_COMPOUND_CID>
452707

> <PUBCHEM_CONFORMER_RMSD>
1.2

> <PUBCHEM_CONFORMER_DIVERSEORDER>
1
40
3
29
47
33
24
41
44
52
39
6
18
53
25
13
34
16
32
36
51
49
27
42
21
50
4
35
20
11
45
43
28
38
14
7
31
9
5
46
8
19
12
10
17
37
48
23
26
15
2
30
22

> <PUBCHEM_MMFF94_PARTIAL_CHARGES>
62
1 -0.56
10 -0.53
11 -0.53
12 -0.53
13 -0.53
14 -0.53
15 -0.53
16 -0.53
17 -0.53
18 -0.53
19 0.28
2 -0.43
20 0.28
21 0.28
22 0.28
23 0.56
24 0.28
25 0.63
26 0.63
27 0.09
28 0.63
29 0.09
3 -0.68
30 0.09
31 -0.15
32 -0.15
33 -0.15
34 -0.15
35 0.08
36 0.08
37 -0.15
38 -0.15
39 0.08
4 -0.68
40 0.08
41 0.08
42 0.08
43 0.08
44 0.08
45 0.08
5 -0.43
53 0.4
54 0.4
55 0.15
56 0.15
57 0.15
58 0.15
59 0.15
6 -0.43
60 0.15
61 0.45
62 0.45
63 0.45
64 0.45
65 0.45
66 0.45
67 0.45
68 0.45
69 0.45
7 -0.57
8 -0.57
9 -0.57

> <PUBCHEM_EFFECTIVE_ROTOR_COUNT>
11.2

> <PUBCHEM_PHARMACOPHORE_FEATURES>
21
1 1 acceptor
1 10 donor
1 11 donor
1 12 donor
1 13 donor
1 14 donor
1 15 donor
1 16 donor
1 17 donor
1 18 donor
1 3 acceptor
1 3 donor
1 4 acceptor
1 4 donor
1 7 acceptor
1 8 acceptor
1 9 acceptor
6 1 19 20 21 22 23 rings
6 27 31 32 35 36 39 rings
6 29 33 34 40 41 42 rings
6 30 37 38 43 44 45 rings

> <PUBCHEM_HEAVY_ATOM_COUNT>
45

> <PUBCHEM_ATOM_DEF_STEREO_COUNT>
5

> <PUBCHEM_ATOM_UDEF_STEREO_COUNT>
0

> <PUBCHEM_BOND_DEF_STEREO_COUNT>
0

> <PUBCHEM_BOND_UDEF_STEREO_COUNT>
0

> <PUBCHEM_ISOTOPIC_ATOM_COUNT>
0

> <PUBCHEM_COMPONENT_COUNT>
1

> <PUBCHEM_CACTVS_TAUTO_COUNT>
1001

> <PUBCHEM_CONFORMER_ID>
0006E86300000001

> <PUBCHEM_MMFF94_ENERGY>
128.2815

> <PUBCHEM_FEATURE_SELFOVERLAP>
106.599

> <PUBCHEM_SHAPE_FINGERPRINT>
10050765 1 18194400215860763142
10100884 174 18272091561012677786
11297750 10 18261681363308752376
12104220 1 18410012143900979127
12539747 91 18260272910741100976
12677640 9 18410849988699653452
12788726 201 18342739641520888387
12857493 111 18409166571867016920
12977781 61 17752749492963581638
14068700 675 18342454803109537661
15347591 1 18337950212658842878
15400415 2 17545875388028861021
15419008 47 18113339678552819050
16990366 60 18267304227556088879
20238998 120 18337388223785747151
23929065 36 18409454704137456032
24180151 40 18130234860088394898
249057 25 17846205671106227140
5028188 123 18270105921804277878
6201320 215 18337116751935951866
6376802 137 18341325617869282857
6695519 79 17541632338476780337
6698420 124 17755852370458921200
9555976 147 18196953269212460554
9896288 288 18335702814094242775

> <PUBCHEM_SHAPE_MULTIPOLES>
820.43
24.89
9.85
1.19
43.5
20.15
0.05
-24.15
2.06
-25.05
4.39
1.72
-0.18
-1.81

> <PUBCHEM_SHAPE_SELFOVERLAP>
1793.481

> <PUBCHEM_SHAPE_VOLUME>
438.3

> <PUBCHEM_COORDINATE_TYPE>
2
5
10

$$$$

