6923
  -OEChem-07051213042D

 25 25  0     0  0  0  0  0  0999 V2000
    2.5369    0.0000    0.0000 O   0  0  0  0  0  0  0  0  0  0  0  0
    4.2690    1.0000    0.0000 C   0  0  0  0  0  0  0  0  0  0  0  0
    4.2690    0.0000    0.0000 C   0  0  0  0  0  0  0  0  0  0  0  0
    4.2690    2.0000    0.0000 C   0  0  0  0  0  0  0  0  0  0  0  0
    5.2690    1.0000    0.0000 C   0  0  0  0  0  0  0  0  0  0  0  0
    3.2690    1.0000    0.0000 C   0  0  0  0  0  0  0  0  0  0  0  0
    3.4030   -0.5000    0.0000 C   0  0  0  0  0  0  0  0  0  0  0  0
    5.1350   -0.5000    0.0000 C   0  0  0  0  0  0  0  0  0  0  0  0
    3.4030   -1.5000    0.0000 C   0  0  0  0  0  0  0  0  0  0  0  0
    5.1350   -1.5000    0.0000 C   0  0  0  0  0  0  0  0  0  0  0  0
    4.2690   -2.0000    0.0000 C   0  0  0  0  0  0  0  0  0  0  0  0
    4.8890    2.0000    0.0000 H   0  0  0  0  0  0  0  0  0  0  0  0
    4.2690    2.6200    0.0000 H   0  0  0  0  0  0  0  0  0  0  0  0
    5.2690    0.3800    0.0000 H   0  0  0  0  0  0  0  0  0  0  0  0
    5.8890    1.0000    0.0000 H   0  0  0  0  0  0  0  0  0  0  0  0
    5.2690    1.6200    0.0000 H   0  0  0  0  0  0  0  0  0  0  0  0
    3.2690    1.6200    0.0000 H   0  0  0  0  0  0  0  0  0  0  0  0
    2.6490    1.0000    0.0000 H   0  0  0  0  0  0  0  0  0  0  0  0
    3.2690    0.3800    0.0000 H   0  0  0  0  0  0  0  0  0  0  0  0
    3.6490    2.0000    0.0000 H   0  0  0  0  0  0  0  0  0  0  0  0
    5.6720   -0.1900    0.0000 H   0  0  0  0  0  0  0  0  0  0  0  0
    2.8660   -1.8100    0.0000 H   0  0  0  0  0  0  0  0  0  0  0  0
    5.6720   -1.8100    0.0000 H   0  0  0  0  0  0  0  0  0  0  0  0
    4.2690   -2.6200    0.0000 H   0  0  0  0  0  0  0  0  0  0  0  0
    2.0000   -0.3100    0.0000 H   0  0  0  0  0  0  0  0  0  0  0  0
  1  7  1  0  0  0  0
  1 25  1  0  0  0  0
  2  3  1  0  0  0  0
  2  4  1  0  0  0  0
  2  5  1  0  0  0  0
  2  6  1  0  0  0  0
  3  7  1  0  0  0  0
  3  8  2  0  0  0  0
  4 12  1  0  0  0  0
  4 13  1  0  0  0  0
  4 20  1  0  0  0  0
  5 14  1  0  0  0  0
  5 15  1  0  0  0  0
  5 16  1  0  0  0  0
  6 17  1  0  0  0  0
  6 18  1  0  0  0  0
  6 19  1  0  0  0  0
  7  9  2  0  0  0  0
  8 10  1  0  0  0  0
  8 21  1  0  0  0  0
  9 11  1  0  0  0  0
  9 22  1  0  0  0  0
 10 11  2  0  0  0  0
 10 23  1  0  0  0  0
 11 24  1  0  0  0  0
M  END
> <PUBCHEM_COMPOUND_CID>
6923

> <PUBCHEM_COMPOUND_CANONICALIZED>
1

> <PUBCHEM_CACTVS_COMPLEXITY>
123

> <PUBCHEM_CACTVS_HBOND_ACCEPTOR>
1

> <PUBCHEM_CACTVS_HBOND_DONOR>
1

> <PUBCHEM_CACTVS_ROTATABLE_BOND>
1

> <PUBCHEM_CACTVS_SUBSKEYS>
AAADccBwIAAAAAAAAAAAAAAAAAAAAAAAAAAwAAAAAAAAAAABAAAAGgAACAAADgSAmAAyBoAAAgCAAiBCAAACAAAgIAAIiAAGCIgIJiKCERKAcAAkwBEImAeAwOAPgAAAAAAIAAAAAAAAABAAAAAAAAAAAA==

> <PUBCHEM_IUPAC_OPENEYE_NAME>
2-tert-butylphenol

> <PUBCHEM_IUPAC_CAS_NAME>
2-tert-butylphenol

> <PUBCHEM_IUPAC_NAME>
2-tert-butylphenol

> <PUBCHEM_IUPAC_SYSTEMATIC_NAME>
2-tert-butylphenol

> <PUBCHEM_IUPAC_TRADITIONAL_NAME>
2-tert-butylphenol

> <PUBCHEM_IUPAC_INCHI>
InChI=1S/C10H14O/c1-10(2,3)8-6-4-5-7-9(8)11/h4-7,11H,1-3H3

> <PUBCHEM_IUPAC_INCHIKEY>
WJQOZHYUIDYNHM-UHFFFAOYSA-N

> <PUBCHEM_XLOGP3>
3.3

> <PUBCHEM_EXACT_MASS>
150.104465

> <PUBCHEM_MOLECULAR_FORMULA>
C10H14O

> <PUBCHEM_MOLECULAR_WEIGHT>
150.21756

> <PUBCHEM_OPENEYE_CAN_SMILES>
CC(C)(C)C1=CC=CC=C1O

> <PUBCHEM_OPENEYE_ISO_SMILES>
CC(C)(C)C1=CC=CC=C1O

> <PUBCHEM_CACTVS_TPSA>
20.2

> <PUBCHEM_MONOISOTOPIC_WEIGHT>
150.104465

> <PUBCHEM_TOTAL_CHARGE>
0

> <PUBCHEM_HEAVY_ATOM_COUNT>
11

> <PUBCHEM_ATOM_DEF_STEREO_COUNT>
0

> <PUBCHEM_ATOM_UDEF_STEREO_COUNT>
0

> <PUBCHEM_BOND_DEF_STEREO_COUNT>
0

> <PUBCHEM_BOND_UDEF_STEREO_COUNT>
0

> <PUBCHEM_ISOTOPIC_ATOM_COUNT>
0

> <PUBCHEM_COMPONENT_COUNT>
1

> <PUBCHEM_CACTVS_TAUTO_COUNT>
3

> <PUBCHEM_COORDINATE_TYPE>
1
5
255

> <PUBCHEM_BONDANNOTATIONS>
10  11  8
3  7  8
3  8  8
7  9  8
8  10  8
9  11  8

$$$$

