5282058
  -OEChem-07051213022D

 51 56  0     1  0  0  0  0  0999 V2000
    5.4548    1.3444    0.0000 O   0  0  0  0  0  0  0  0  0  0  0  0
    6.6804    2.5682    0.0000 O   0  0  0  0  0  0  0  0  0  0  0  0
    2.6691   -1.0176    0.0000 O   0  0  0  0  0  0  0  0  0  0  0  0
    7.8271   -0.8097    0.0000 N   0  0  3  0  0  0  0  0  0  0  0  0
    5.7372   -1.7652    0.0000 N   0  0  0  0  0  0  0  0  0  0  0  0
    8.1335    0.6318    0.0000 C   0  0  3  0  0  0  0  0  0  0  0  0
    7.5642   -0.0005    0.0000 C   0  0  2  0  0  0  0  0  0  0  0  0
    6.1626   -0.4559    0.0000 C   0  0  1  0  0  0  0  0  0  0  0  0
    6.1614    0.6368    0.0000 C   0  0  2  0  0  0  0  0  0  0  0  0
    8.3529   -2.4281    0.0000 C   0  0  1  0  0  0  0  0  0  0  0  0
    6.7319    0.1764    0.0000 C   0  0  0  0  0  0  0  0  0  0  0  0
    7.2578   -1.4420    0.0000 C   0  0  2  0  0  0  0  0  0  0  0  0
    6.4255   -1.2651    0.0000 C   0  0  0  0  0  0  0  0  0  0  0  0
    7.5207   -2.2512    0.0000 C   0  0  0  0  0  0  0  0  0  0  0  0
    8.6593   -0.9866    0.0000 C   0  0  0  0  0  0  0  0  0  0  0  0
    8.9223   -1.7958    0.0000 C   0  0  0  0  0  0  0  0  0  0  0  0
    5.3118   -0.4559    0.0000 C   0  0  0  0  0  0  0  0  0  0  0  0
    5.0488   -1.2651    0.0000 C   0  0  0  0  0  0  0  0  0  0  0  0
    9.9004   -2.0037    0.0000 C   0  0  0  0  0  0  0  0  0  0  0  0
    4.7424    0.1764    0.0000 C   0  0  0  0  0  0  0  0  0  0  0  0
    4.2166   -1.4420    0.0000 C   0  0  0  0  0  0  0  0  0  0  0  0
    5.7143    2.3101    0.0000 C   0  0  0  0  0  0  0  0  0  0  0  0
    3.9102   -0.0005    0.0000 C   0  0  0  0  0  0  0  0  0  0  0  0
   10.2094   -2.9547    0.0000 C   0  0  0  0  0  0  0  0  0  0  0  0
    3.6473   -0.8097    0.0000 C   0  0  0  0  0  0  0  0  0  0  0  0
    5.0077    3.0177    0.0000 C   0  0  0  0  0  0  0  0  0  0  0  0
    2.0000   -0.2744    0.0000 C   0  0  0  0  0  0  0  0  0  0  0  0
    8.7134    1.2533    0.0000 H   0  0  0  0  0  0  0  0  0  0  0  0
    7.3819    0.8298    0.0000 H   0  0  0  0  0  0  0  0  0  0  0  0
    5.5887    0.3994    0.0000 H   0  0  0  0  0  0  0  0  0  0  0  0
    8.6156   -3.2365    0.0000 H   0  0  0  0  0  0  0  0  0  0  0  0
    6.9642    0.7513    0.0000 H   0  0  0  0  0  0  0  0  0  0  0  0
    6.2061    0.5050    0.0000 H   0  0  0  0  0  0  0  0  0  0  0  0
    6.6890   -2.0736    0.0000 H   0  0  0  0  0  0  0  0  0  0  0  0
    6.9067   -2.3374    0.0000 H   0  0  0  0  0  0  0  0  0  0  0  0
    7.4990   -2.8708    0.0000 H   0  0  0  0  0  0  0  0  0  0  0  0
    9.2733   -0.9003    0.0000 H   0  0  0  0  0  0  0  0  0  0  0  0
    8.6810   -0.3669    0.0000 H   0  0  0  0  0  0  0  0  0  0  0  0
   10.3153   -1.5429    0.0000 H   0  0  0  0  0  0  0  0  0  0  0  0
    4.9340    0.7661    0.0000 H   0  0  0  0  0  0  0  0  0  0  0  0
    4.0250   -2.0316    0.0000 H   0  0  0  0  0  0  0  0  0  0  0  0
    3.4953    0.4603    0.0000 H   0  0  0  0  0  0  0  0  0  0  0  0
    9.6198   -3.1463    0.0000 H   0  0  0  0  0  0  0  0  0  0  0  0
   10.4010   -3.5444    0.0000 H   0  0  0  0  0  0  0  0  0  0  0  0
   10.7991   -2.7632    0.0000 H   0  0  0  0  0  0  0  0  0  0  0  0
    5.4464    3.4558    0.0000 H   0  0  0  0  0  0  0  0  0  0  0  0
    4.5696    3.4564    0.0000 H   0  0  0  0  0  0  0  0  0  0  0  0
    4.5690    2.5796    0.0000 H   0  0  0  0  0  0  0  0  0  0  0  0
    2.4608    0.1404    0.0000 H   0  0  0  0  0  0  0  0  0  0  0  0
    1.5851    0.1863    0.0000 H   0  0  0  0  0  0  0  0  0  0  0  0
    1.5392   -0.6893    0.0000 H   0  0  0  0  0  0  0  0  0  0  0  0
  9  1  1  6  0  0  0
  1 22  1  0  0  0  0
  2 22  2  0  0  0  0
  3 25  1  0  0  0  0
  3 27  1  0  0  0  0
  4  7  1  0  0  0  0
  4 12  1  0  0  0  0
  4 15  1  0  0  0  0
  5 13  2  0  0  0  0
  5 18  1  0  0  0  0
  6  7  1  0  0  0  0
  6  9  1  0  0  0  0
  6 10  1  0  0  0  0
  6 28  1  0  0  0  0
  7 11  1  0  0  0  0
  7 29  1  6  0  0  0
  8  9  1  0  0  0  0
  8 11  1  0  0  0  0
  8 13  1  0  0  0  0
  8 17  1  6  0  0  0
  9 30  1  0  0  0  0
 10 14  1  0  0  0  0
 10 16  1  0  0  0  0
 10 31  1  1  0  0  0
 11 32  1  0  0  0  0
 11 33  1  0  0  0  0
 12 13  1  0  0  0  0
 12 14  1  0  0  0  0
 12 34  1  6  0  0  0
 14 35  1  0  0  0  0
 14 36  1  0  0  0  0
 15 16  1  0  0  0  0
 15 37  1  0  0  0  0
 15 38  1  0  0  0  0
 16 19  2  0  0  0  0
 17 18  2  0  0  0  0
 17 20  1  0  0  0  0
 18 21  1  0  0  0  0
 19 24  1  0  0  0  0
 19 39  1  0  0  0  0
 20 23  2  0  0  0  0
 20 40  1  0  0  0  0
 21 25  2  0  0  0  0
 21 41  1  0  0  0  0
 22 26  1  0  0  0  0
 23 25  1  0  0  0  0
 23 42  1  0  0  0  0
 24 43  1  0  0  0  0
 24 44  1  0  0  0  0
 24 45  1  0  0  0  0
 26 46  1  0  0  0  0
 26 47  1  0  0  0  0
 26 48  1  0  0  0  0
 27 49  1  0  0  0  0
 27 50  1  0  0  0  0
 27 51  1  0  0  0  0
M  END
> <PUBCHEM_COMPOUND_CID>
5282058

> <PUBCHEM_COMPOUND_CANONICALIZED>
1

> <PUBCHEM_CACTVS_COMPLEXITY>
761

> <PUBCHEM_CACTVS_HBOND_ACCEPTOR>
5

> <PUBCHEM_CACTVS_HBOND_DONOR>
0

> <PUBCHEM_CACTVS_ROTATABLE_BOND>
3

> <PUBCHEM_CACTVS_SUBSKEYS>
AAADceB7MAAAAAAAAAAAAAAAAAAAAYIAAAA8WLFiBgAAAECBAAAAHgAAAAAADzzhmAYyzoMABACoAyTyTACCCAAgIgAIiAA+bIgMJiKEsZuGMCBmwBmI6Aew0PMPoAAAAgACAABAAAAEAAQAASEABQAAAA==

> <PUBCHEM_IUPAC_INCHI>
InChI=1S/C22H24N2O3/c1-4-12-10-24-17-8-14(12)19-18(24)9-22(21(19)27-11(2)25)15-6-5-13(26-3)7-16(15)23-20(17)22/h4-7,14,17-19,21H,8-10H2,1-3H3/b12-4-/t14-,17-,18-,19?,21+,22+/m0/s1

> <PUBCHEM_IUPAC_INCHIKEY>
CJRRQMKNRICNIF-NYDYYXIISA-N

> <PUBCHEM_XLOGP3_AA>
1.9

> <PUBCHEM_EXACT_MASS>
364.178693

> <PUBCHEM_MOLECULAR_FORMULA>
C22H24N2O3

> <PUBCHEM_MOLECULAR_WEIGHT>
364.43756

> <PUBCHEM_OPENEYE_CAN_SMILES>
CC=C1CN2C3CC1C4C2CC5(C4OC(=O)C)C3=NC6=C5C=CC(=C6)OC

> <PUBCHEM_OPENEYE_ISO_SMILES>
C/C=C\1/CN2[C@H]3C[C@@H]1C4[C@@H]2C[C@]5([C@@H]4OC(=O)C)C3=NC6=C5C=CC(=C6)OC

> <PUBCHEM_CACTVS_TPSA>
51.1

> <PUBCHEM_MONOISOTOPIC_WEIGHT>
364.178693

> <PUBCHEM_TOTAL_CHARGE>
0

> <PUBCHEM_HEAVY_ATOM_COUNT>
27

> <PUBCHEM_ATOM_DEF_STEREO_COUNT>
5

> <PUBCHEM_ATOM_UDEF_STEREO_COUNT>
1

> <PUBCHEM_BOND_DEF_STEREO_COUNT>
1

> <PUBCHEM_BOND_UDEF_STEREO_COUNT>
0

> <PUBCHEM_ISOTOPIC_ATOM_COUNT>
0

> <PUBCHEM_COMPONENT_COUNT>
1

> <PUBCHEM_CACTVS_TAUTO_COUNT>
1

> <PUBCHEM_COORDINATE_TYPE>
1
5
255

> <PUBCHEM_BONDANNOTATIONS>
9  1  6
10  31  5
12  34  6
17  18  8
17  20  8
18  21  8
20  23  8
21  25  8
23  25  8
6  28  3
7  29  6
8  17  6

$$$$

