256733
  -OEChem-07051213063D

 31 33  0     0  0  0  0  0  0999 V2000
    0.6226   -1.4384   -0.0002 O   0  0  0  0  0  0  0  0  0  0  0  0
   -0.6091    2.6037   -0.0012 O   0  0  0  0  0  0  0  0  0  0  0  0
   -5.5955   -0.5048    0.0007 O   0  0  0  0  0  0  0  0  0  0  0  0
    0.9036    0.7939   -0.0009 C   0  0  0  0  0  0  0  0  0  0  0  0
    2.1884    0.1898   -0.0003 C   0  0  0  0  0  0  0  0  0  0  0  0
   -0.0089   -0.2356   -0.0009 C   0  0  0  0  0  0  0  0  0  0  0  0
    1.9611   -1.1826   -0.0003 C   0  0  0  0  0  0  0  0  0  0  0  0
   -1.4444   -0.3043   -0.0004 C   0  0  0  0  0  0  0  0  0  0  0  0
    3.5166    0.6503    0.0005 C   0  0  0  0  0  0  0  0  0  0  0  0
    0.5788    2.1917    0.0000 C   0  0  0  0  0  0  0  0  0  0  0  0
    2.9717   -2.1423   -0.0005 C   0  0  0  0  0  0  0  0  0  0  0  0
   -2.1467   -0.3375   -1.2081 C   0  0  0  0  0  0  0  0  0  0  0  0
   -2.1459   -0.3387    1.2079 C   0  0  0  0  0  0  0  0  0  0  0  0
    4.5549   -0.2913    0.0009 C   0  0  0  0  0  0  0  0  0  0  0  0
    4.2846   -1.6621   -0.0001 C   0  0  0  0  0  0  0  0  0  0  0  0
    1.6833    3.2572    0.0017 C   0  0  0  0  0  0  0  0  0  0  0  0
   -3.5399   -0.4044   -1.2077 C   0  0  0  0  0  0  0  0  0  0  0  0
   -3.5392   -0.4058    1.2084 C   0  0  0  0  0  0  0  0  0  0  0  0
   -4.2362   -0.4387    0.0005 C   0  0  0  0  0  0  0  0  0  0  0  0
    3.7787    1.7014    0.0008 H   0  0  0  0  0  0  0  0  0  0  0  0
    2.7541   -3.2037   -0.0006 H   0  0  0  0  0  0  0  0  0  0  0  0
   -1.6192   -0.3115   -2.1588 H   0  0  0  0  0  0  0  0  0  0  0  0
   -1.6176   -0.3137    2.1583 H   0  0  0  0  0  0  0  0  0  0  0  0
    5.5867    0.0512    0.0015 H   0  0  0  0  0  0  0  0  0  0  0  0
    5.1105   -2.3693    0.0000 H   0  0  0  0  0  0  0  0  0  0  0  0
    2.2887    3.1706   -0.9034 H   0  0  0  0  0  0  0  0  0  0  0  0
    2.2878    3.1687    0.9072 H   0  0  0  0  0  0  0  0  0  0  0  0
    1.2205    4.2494    0.0026 H   0  0  0  0  0  0  0  0  0  0  0  0
   -4.0773   -0.4298   -2.1517 H   0  0  0  0  0  0  0  0  0  0  0  0
   -4.0698   -0.4319    2.1563 H   0  0  0  0  0  0  0  0  0  0  0  0
   -5.9101   -0.5205    0.9210 H   0  0  0  0  0  0  0  0  0  0  0  0
  1  6  1  0  0  0  0
  1  7  1  0  0  0  0
  2 10  2  0  0  0  0
  3 19  1  0  0  0  0
  3 31  1  0  0  0  0
  4  5  1  0  0  0  0
  4  6  2  0  0  0  0
  4 10  1  0  0  0  0
  5  7  1  0  0  0  0
  5  9  2  0  0  0  0
  6  8  1  0  0  0  0
  7 11  2  0  0  0  0
  8 12  2  0  0  0  0
  8 13  1  0  0  0  0
  9 14  1  0  0  0  0
  9 20  1  0  0  0  0
 10 16  1  0  0  0  0
 11 15  1  0  0  0  0
 11 21  1  0  0  0  0
 12 17  1  0  0  0  0
 12 22  1  0  0  0  0
 13 18  2  0  0  0  0
 13 23  1  0  0  0  0
 14 15  2  0  0  0  0
 14 24  1  0  0  0  0
 15 25  1  0  0  0  0
 16 26  1  0  0  0  0
 16 27  1  0  0  0  0
 16 28  1  0  0  0  0
 17 19  2  0  0  0  0
 17 29  1  0  0  0  0
 18 19  1  0  0  0  0
 18 30  1  0  0  0  0
M  END
> <PUBCHEM_COMPOUND_CID>
256733

> <PUBCHEM_CONFORMER_RMSD>
0.6

> <PUBCHEM_CONFORMER_DIVERSEORDER>
1
3
4
2

> <PUBCHEM_MMFF94_PARTIAL_CHARGES>
27
1 -0.28
10 0.6
11 -0.15
12 -0.15
13 -0.15
14 -0.15
15 -0.15
16 0.06
17 -0.15
18 -0.15
19 0.08
2 -0.57
20 0.15
21 0.15
22 0.15
23 0.15
24 0.15
25 0.15
29 0.15
3 -0.53
30 0.15
31 0.45
4 -0.09
6 0.09
7 0.14
8 0.05
9 -0.15

> <PUBCHEM_EFFECTIVE_ROTOR_COUNT>
2

> <PUBCHEM_PHARMACOPHORE_FEATURES>
6
1 1 acceptor
1 2 acceptor
1 3 donor
5 1 4 5 6 7 rings
6 5 7 9 11 14 15 rings
6 8 12 13 17 18 19 rings

> <PUBCHEM_HEAVY_ATOM_COUNT>
19

> <PUBCHEM_ATOM_DEF_STEREO_COUNT>
0

> <PUBCHEM_ATOM_UDEF_STEREO_COUNT>
0

> <PUBCHEM_BOND_DEF_STEREO_COUNT>
0

> <PUBCHEM_BOND_UDEF_STEREO_COUNT>
0

> <PUBCHEM_ISOTOPIC_ATOM_COUNT>
0

> <PUBCHEM_COMPONENT_COUNT>
1

> <PUBCHEM_CACTVS_TAUTO_COUNT>
9

> <PUBCHEM_CONFORMER_ID>
0003EADD00000001

> <PUBCHEM_MMFF94_ENERGY>
46.639

> <PUBCHEM_FEATURE_SELFOVERLAP>
30.548

> <PUBCHEM_SHAPE_FINGERPRINT>
10967382 1 18410575046609811908
11471102 20 18412262809495118908
11796584 16 16630530656608677378
12236239 1 17748826302515851067
12553582 1 18336272314052352782
13009979 54 17749101163095181035
13134695 92 18410577270917880156
13140716 1 18122630449018493528
13544653 18 18342735256089902702
14115302 16 17632003191589994967
14347332 77 18046334500092086798
14386348 63 17989485221217338019
14790565 3 17979624650869717428
15042514 8 17905889536956991544
15196674 1 18410856611274660964
15848700 24 18409451397065333380
15848702 151 18114457950355286703
16945 1 18410575046514872868
17357779 13 18342750636257215181
1813 80 18187913028235805558
18222031 100 18260830410254669854
18785283 64 17985260772884109844
200 152 18333454248712716955
20645477 70 18270686359297341657
21029758 11 18411419526773307569
21041028 32 18408880754799715377
21267235 1 18409160043706436286
21296965 67 18410012177854632816
21641784 216 18058711620533403996
221357 26 18342749533141554221
221490 88 18197212538570147963
22182313 1 18268454415403056116
2255824 54 18262798450179495084
23175994 123 18343297089399163413
23184049 59 18260547818417624718
2334 1 17689998934426637420
23402539 116 18335144240575436670
23559900 14 18339927013013477649
23598291 2 17896891954065318765
26918003 58 18060419127340957458
2748010 2 18265342883606253324
2871803 45 18271242824224965266
3091708 16 9428528271305730872
34934 24 18338241466568905738
474 4 18118689816113314120
5104073 3 18192440886329230538
7364860 26 18337110043033518056
7471813 234 17967541151186775217
7495541 125 18059287661103686571
77492 1 17676482809631922691
81228 2 18051684735787281648
84936 182 17680432139161270185

> <PUBCHEM_SHAPE_MULTIPOLES>
373.4
8.87
2.41
0.92
4.62
2.25
0
-3.96
0
-2.38
0
0.91
-0.12
0

> <PUBCHEM_SHAPE_SELFOVERLAP>
833.439

> <PUBCHEM_SHAPE_VOLUME>
201.4

> <PUBCHEM_COORDINATE_TYPE>
2
5
10

$$$$

