6162
  -OEChem-06261201093D

 24 24  0     1  0  0  0  0  0999 V2000
    1.7772   -1.8378    0.0913 O   0  0  0  0  0  0  0  0  0  0  0  0
   -2.7281   -1.0737   -0.3891 O   0  0  0  0  0  0  0  0  0  0  0  0
   -0.4735   -1.4133   -0.1016 N   0  0  0  0  0  0  0  0  0  0  0  0
    1.0186    0.3804    0.6821 C   0  0  2  0  0  0  0  0  0  0  0  0
   -0.0285    1.2981    0.0547 C   0  0  0  0  0  0  0  0  0  0  0  0
   -1.4255    0.7972    0.4155 C   0  0  2  0  0  0  0  0  0  0  0  0
    2.4282    0.8881    0.3907 C   0  0  0  0  0  0  0  0  0  0  0  0
    0.8393   -1.0461    0.1852 C   0  0  0  0  0  0  0  0  0  0  0  0
   -1.6235   -0.6277   -0.0794 C   0  0  0  0  0  0  0  0  0  0  0  0
   -2.4965    1.7260   -0.1503 C   0  0  0  0  0  0  0  0  0  0  0  0
    2.7124    0.9088   -1.0990 C   0  0  0  0  0  0  0  0  0  0  0  0
    0.8782    0.3554    1.7706 H   0  0  0  0  0  0  0  0  0  0  0  0
    0.0618    1.3180   -1.0381 H   0  0  0  0  0  0  0  0  0  0  0  0
    0.1069    2.3243    0.4171 H   0  0  0  0  0  0  0  0  0  0  0  0
   -1.5335    0.7712    1.5076 H   0  0  0  0  0  0  0  0  0  0  0  0
    3.1661    0.2444    0.8849 H   0  0  0  0  0  0  0  0  0  0  0  0
    2.5617    1.8948    0.8037 H   0  0  0  0  0  0  0  0  0  0  0  0
   -2.3533    2.7512    0.2064 H   0  0  0  0  0  0  0  0  0  0  0  0
   -2.4739    1.7374   -1.2457 H   0  0  0  0  0  0  0  0  0  0  0  0
   -3.4976    1.4029    0.1554 H   0  0  0  0  0  0  0  0  0  0  0  0
   -0.6034   -2.3731   -0.4098 H   0  0  0  0  0  0  0  0  0  0  0  0
    2.5304   -0.0500   -1.5910 H   0  0  0  0  0  0  0  0  0  0  0  0
    2.1332    1.6797   -1.6156 H   0  0  0  0  0  0  0  0  0  0  0  0
    3.7680    1.1557   -1.2607 H   0  0  0  0  0  0  0  0  0  0  0  0
  1  8  2  0  0  0  0
  2  9  2  0  0  0  0
  3  8  1  0  0  0  0
  3  9  1  0  0  0  0
  3 21  1  0  0  0  0
  4  5  1  0  0  0  0
  4  7  1  0  0  0  0
  4  8  1  0  0  0  0
  4 12  1  0  0  0  0
  5  6  1  0  0  0  0
  5 13  1  0  0  0  0
  5 14  1  0  0  0  0
  6  9  1  0  0  0  0
  6 10  1  0  0  0  0
  6 15  1  0  0  0  0
  7 11  1  0  0  0  0
  7 16  1  0  0  0  0
  7 17  1  0  0  0  0
 10 18  1  0  0  0  0
 10 19  1  0  0  0  0
 10 20  1  0  0  0  0
 11 22  1  0  0  0  0
 11 23  1  0  0  0  0
 11 24  1  0  0  0  0
M  END
> <PUBCHEM_COMPOUND_CID>
6162

> <PUBCHEM_CONFORMER_RMSD>
0.4

> <PUBCHEM_CONFORMER_DIVERSEORDER>
1
12
15
9
6
8
2
4
11
3
16
13
10
7
14
17
5

> <PUBCHEM_MMFF94_PARTIAL_CHARGES>
8
1 -0.57
2 -0.57
21 0.37
3 -0.49
4 0.06
6 0.06
8 0.57
9 0.57

> <PUBCHEM_EFFECTIVE_ROTOR_COUNT>
1.8

> <PUBCHEM_PHARMACOPHORE_FEATURES>
5
1 1 acceptor
1 11 hydrophobe
1 2 acceptor
1 3 donor
6 3 4 5 6 8 9 rings

> <PUBCHEM_HEAVY_ATOM_COUNT>
11

> <PUBCHEM_ATOM_DEF_STEREO_COUNT>
0

> <PUBCHEM_ATOM_UDEF_STEREO_COUNT>
2

> <PUBCHEM_BOND_DEF_STEREO_COUNT>
0

> <PUBCHEM_BOND_UDEF_STEREO_COUNT>
0

> <PUBCHEM_ISOTOPIC_ATOM_COUNT>
0

> <PUBCHEM_COMPONENT_COUNT>
1

> <PUBCHEM_CACTVS_TAUTO_COUNT>
3

> <PUBCHEM_CONFORMER_ID>
0000181200000001

> <PUBCHEM_MMFF94_ENERGY>
18.6042

> <PUBCHEM_FEATURE_SELFOVERLAP>
25.371

> <PUBCHEM_SHAPE_FINGERPRINT>
11206711 2 18337394838014524677
12897270 3 18338237050767278693
13380535 21 18337378435528996881
14128692 85 18263078993275032842
15775835 57 18410847789396069252
16945 1 18266462014090528627
21040471 1 18409453595793293928
21501502 16 18410577331152605283
23552423 10 18342460399478583555
23559900 14 18187638116882051340
2748010 2 18337392737611804439
5084963 1 18042116562074041488

> <PUBCHEM_SHAPE_MULTIPOLES>
209.66
3.89
1.88
0.81
0.07
0.28
-0.07
-0.87
-0.73
0.26
-0.09
-0.33
-0.15
-0.27

> <PUBCHEM_SHAPE_SELFOVERLAP>
419.23

> <PUBCHEM_SHAPE_VOLUME>
122.9

> <PUBCHEM_COORDINATE_TYPE>
2
5
10

$$$$

