5353853
  -OEChem-07051212543D

 39 41  0     0  0  0  0  0  0999 V2000
    2.6805   -2.6040   -1.8562 Cl  0  0  0  0  0  0  0  0  0  0  0  0
   -3.1885    0.9690    2.2854 Cl  0  0  0  0  0  0  0  0  0  0  0  0
    7.0696   -1.2088    0.9261 Cl  0  0  0  0  0  0  0  0  0  0  0  0
   -7.4627   -0.2493   -0.7509 Cl  0  0  0  0  0  0  0  0  0  0  0  0
   -0.9196   -0.6715    0.0493 O   0  0  0  0  0  0  0  0  0  0  0  0
    0.8126    2.0233   -0.8993 N   0  0  0  0  0  0  0  0  0  0  0  0
    0.3920   -0.9761    0.4264 N   0  0  0  0  0  0  0  0  0  0  0  0
    1.4295    4.0639   -0.3556 N   0  0  0  0  0  0  0  0  0  0  0  0
    0.9069    0.6506   -1.4010 C   0  0  0  0  0  0  0  0  0  0  0  0
    1.2921   -0.3459   -0.2951 C   0  0  0  0  0  0  0  0  0  0  0  0
    2.7042   -0.5847   -0.0222 C   0  0  0  0  0  0  0  0  0  0  0  0
    3.4238   -1.5846   -0.6766 C   0  0  0  0  0  0  0  0  0  0  0  0
    3.3344    0.2216    0.9257 C   0  0  0  0  0  0  0  0  0  0  0  0
   -0.3035    2.6037   -0.4003 C   0  0  0  0  0  0  0  0  0  0  0  0
   -3.2171   -1.0884    0.4992 C   0  0  0  0  0  0  0  0  0  0  0  0
   -1.8018   -1.4011    0.8874 C   0  0  0  0  0  0  0  0  0  0  0  0
    1.8289    2.9175   -0.8598 C   0  0  0  0  0  0  0  0  0  0  0  0
    4.7735   -1.7781   -0.3829 C   0  0  0  0  0  0  0  0  0  0  0  0
    4.6841    0.0280    1.2192 C   0  0  0  0  0  0  0  0  0  0  0  0
    0.1012    3.8748   -0.0666 C   0  0  0  0  0  0  0  0  0  0  0  0
    5.4037   -0.9719    0.5650 C   0  0  0  0  0  0  0  0  0  0  0  0
   -3.9141   -0.0351    1.0836 C   0  0  0  0  0  0  0  0  0  0  0  0
   -3.8230   -1.8842   -0.4689 C   0  0  0  0  0  0  0  0  0  0  0  0
   -5.2287    0.2249    0.6967 C   0  0  0  0  0  0  0  0  0  0  0  0
   -5.1376   -1.6241   -0.8556 C   0  0  0  0  0  0  0  0  0  0  0  0
   -5.8406   -0.5696   -0.2728 C   0  0  0  0  0  0  0  0  0  0  0  0
   -0.0425    0.3930   -1.8793 H   0  0  0  0  0  0  0  0  0  0  0  0
    1.6769    0.6477   -2.1813 H   0  0  0  0  0  0  0  0  0  0  0  0
    2.7855    1.0001    1.4493 H   0  0  0  0  0  0  0  0  0  0  0  0
   -1.2571    2.1006   -0.3259 H   0  0  0  0  0  0  0  0  0  0  0  0
   -1.6027   -1.1812    1.9423 H   0  0  0  0  0  0  0  0  0  0  0  0
   -1.6120   -2.4755    0.7600 H   0  0  0  0  0  0  0  0  0  0  0  0
    2.8299    2.6973   -1.2052 H   0  0  0  0  0  0  0  0  0  0  0  0
    5.3366   -2.5573   -0.8924 H   0  0  0  0  0  0  0  0  0  0  0  0
    5.1617    0.6630    1.9610 H   0  0  0  0  0  0  0  0  0  0  0  0
   -0.4969    4.6638    0.3657 H   0  0  0  0  0  0  0  0  0  0  0  0
   -3.2866   -2.7071   -0.9336 H   0  0  0  0  0  0  0  0  0  0  0  0
   -5.7783    1.0473    1.1499 H   0  0  0  0  0  0  0  0  0  0  0  0
   -5.6015   -2.2510   -1.6129 H   0  0  0  0  0  0  0  0  0  0  0  0
  1 12  1  0  0  0  0
  2 22  1  0  0  0  0
  3 21  1  0  0  0  0
  4 26  1  0  0  0  0
  5  7  1  0  0  0  0
  5 16  1  0  0  0  0
  6  9  1  0  0  0  0
  6 14  1  0  0  0  0
  6 17  1  0  0  0  0
  7 10  2  0  0  0  0
  8 17  2  0  0  0  0
  8 20  1  0  0  0  0
  9 10  1  0  0  0  0
  9 27  1  0  0  0  0
  9 28  1  0  0  0  0
 10 11  1  0  0  0  0
 11 12  2  0  0  0  0
 11 13  1  0  0  0  0
 12 18  1  0  0  0  0
 13 19  2  0  0  0  0
 13 29  1  0  0  0  0
 14 20  2  0  0  0  0
 14 30  1  0  0  0  0
 15 16  1  0  0  0  0
 15 22  2  0  0  0  0
 15 23  1  0  0  0  0
 16 31  1  0  0  0  0
 16 32  1  0  0  0  0
 17 33  1  0  0  0  0
 18 21  2  0  0  0  0
 18 34  1  0  0  0  0
 19 21  1  0  0  0  0
 19 35  1  0  0  0  0
 20 36  1  0  0  0  0
 22 24  1  0  0  0  0
 23 25  2  0  0  0  0
 23 37  1  0  0  0  0
 24 26  2  0  0  0  0
 24 38  1  0  0  0  0
 25 26  1  0  0  0  0
 25 39  1  0  0  0  0
M  END
> <PUBCHEM_COMPOUND_CID>
5353853

> <PUBCHEM_CONFORMER_RMSD>
0.8

> <PUBCHEM_CONFORMER_DIVERSEORDER>
1
263
412
348
232
367
12
187
364
127
165
318
409
200
192
128
156
48
188
314
220
295
322
247
195
351
366
357
6
118
227
37
404
332
401
373
143
338
319
335
96
73
111
51
241
94
213
98
252
353
291
66
283
53
90
246
206
170
221
372
217
44
239
7
275
413
290
365
177
273
411
199
124
179
270
237
374
236
102
207
158
399
266
34
382
140
317
141
209
389
362
5
89
358
107
57
272
363
325
329
38
218
345
349
76
216
40
375
122
84
91
259
175
14
64
109
388
28
281
284
370
214
414
112
75
142
408
260
354
33
60
148
324
398
123
9
381
233
333
68
191
384
330
25
255
85
61
256
182
208
342
180
67
203
110
10
387
406
131
173
171
101
265
253
285
312
45
397
368
238
355
70
378
316
62
257
337
100
245
327
137
305
395
30
269
244
326
421
154
78
50
344
79
210
287
224
231
43
346
249
394
56
23
282
82
300
407
336
27
39
304
297
341
271
410
22
119
47
390
229
234
243
72
352
219
416
289
296
211
235
31
361
74
405
121
166
279
371
71
377
69
315
168
415
120
264
340
350
278
321
185
77
129
41
288
176
193
18
132
228
59
293
328
16
196
115
95
379
97
42
55
392
294
391
88
418
190
402
292
26
359
248
258
135
298
323
204
151
13
153
116
347
417
35
87
301
152
276
302
420
202
178
212
198
299
262
24
155
215
360
139
104
134
183
52
223
383
46
65
313
106
419
396
169
393
267
303
20
222
11
54
385
240
29
197
172
163
254
8
150
117
186
286
92
226
3
164
268
157
146
277
2
161
311
133
380
4
181
174
93
400
309
194
159
422
108
160
306
242
103
376
189
130
320
136
201
81
343
403
334
274
86
356
145
167
280
205
138
80
147
113
15
339
162
105
251
184
83
307
310
36
369
32
149
17
230
225
261
126
331
58
125
144
21
99
386
19
114
308
63
49
250

> <PUBCHEM_MMFF94_PARTIAL_CHARGES>
35
1 -0.18
10 0.3
11 0.09
12 0.18
13 -0.15
14 -0.3
15 -0.14
16 0.42
17 0.04
18 -0.15
19 -0.15
2 -0.18
20 0.08
21 0.18
22 0.18
23 -0.15
24 -0.15
25 -0.15
26 0.18
29 0.15
3 -0.18
30 0.15
33 0.15
34 0.15
35 0.15
36 0.15
37 0.15
38 0.15
39 0.15
4 -0.18
5 -0.22
6 0.05
7 -0.51
8 -0.57
9 0.32

> <PUBCHEM_EFFECTIVE_ROTOR_COUNT>
6

> <PUBCHEM_PHARMACOPHORE_FEATURES>
5
1 7 acceptor
3 6 8 17 cation
5 6 8 14 17 20 rings
6 11 12 13 18 19 21 rings
6 15 22 23 24 25 26 rings

> <PUBCHEM_HEAVY_ATOM_COUNT>
26

> <PUBCHEM_ATOM_DEF_STEREO_COUNT>
0

> <PUBCHEM_ATOM_UDEF_STEREO_COUNT>
0

> <PUBCHEM_BOND_DEF_STEREO_COUNT>
1

> <PUBCHEM_BOND_UDEF_STEREO_COUNT>
0

> <PUBCHEM_ISOTOPIC_ATOM_COUNT>
0

> <PUBCHEM_COMPONENT_COUNT>
1

> <PUBCHEM_CACTVS_TAUTO_COUNT>
1

> <PUBCHEM_CONFORMER_ID>
0051B17D00000001

> <PUBCHEM_MMFF94_ENERGY>
60.3395

> <PUBCHEM_FEATURE_SELFOVERLAP>
25.371

> <PUBCHEM_SHAPE_FINGERPRINT>
10165383 225 17822580400757863128
10369192 42 6411292442331629498
10674148 151 13398633874615695930
11421498 54 10303548211691494559
11646440 116 18271516567965027627
12166972 35 18334014969641415681
12516196 113 18413390934242818450
12549972 3 17416675848477561673
12616971 3 18335408038405468227
12623949 98 17459459125682912822
12788726 201 18129645517992604390
13383665 225 18195223703183484708
13583140 156 16009039426763843338
13590594 115 18343580759183978569
13692114 37 17258788538471809577
14117953 113 18335421283230431055
14347329 18 15625405513998257151
1454969 45 18408880712413979900
14790565 3 17549814491825917756
15183329 4 14261354682196754915
15420108 30 17830183407188405980
15775530 1 17685771724545638998
15927050 60 17688868636795427404
17349148 13 18260257526115590203
17492 89 18052255094744476555
17980427 23 17895184515687161913
18006028 8 18343868827172345770
1813 80 18411408544800303806
18222031 100 18410004447092828718
18681886 176 18336837398741949795
192875 21 18335414643717185249
20238998 120 18408609175348695904
20642791 13 18338232799082068916
20739085 24 18336829689412439500
21033648 29 17822869657292193659
21304303 172 18337106877537301344
2132832 1 18260542312755192657
21521721 280 9367338262738621670
21860390 5 18338790109426790254
23559900 14 18261400997103224403
23569943 247 18124029302350614635
24771293 8 18333167267535185560
249057 3 18411141316969001447
314173 85 18340760524843446154
3411729 13 17986111803969906172
345986 75 17702125722788681082
4325135 7 14706931731215140467
4340502 62 16877665664923452342
5895379 119 17823955962043681761
6004065 56 18411702054180990707
613672 6 18341600547100121930
621550 34 18187650249769172974
7471813 234 18334013861334215445
9971528 1 18408882932052293566

> <PUBCHEM_SHAPE_MULTIPOLES>
521.73
15.54
3.54
1.47
8.25
4.74
-0.25
-9.69
-2.2
-1.96
1.46
0.07
-0.06
-0.59

> <PUBCHEM_SHAPE_SELFOVERLAP>
1085.532

> <PUBCHEM_SHAPE_VOLUME>
301.5

> <PUBCHEM_COORDINATE_TYPE>
2
5
10

$$$$

