10606
  -OEChem-06261204453D

 42 45  0     1  0  0  0  0  0999 V2000
   -1.1034    1.6781   -0.6945 O   0  0  0  0  0  0  0  0  0  0  0  0
   -0.3275    2.9779    1.1307 O   0  0  0  0  0  0  0  0  0  0  0  0
   -1.1516   -2.1704    0.9438 O   0  0  0  0  0  0  0  0  0  0  0  0
    0.9600   -1.8828    1.7376 O   0  0  0  0  0  0  0  0  0  0  0  0
    1.3762    0.6709    0.4693 C   0  0  1  0  0  0  0  0  0  0  0  0
    1.2841    1.9739   -0.3535 C   0  0  0  0  0  0  0  0  0  0  0  0
   -0.1065    2.6010   -0.2307 C   0  0  1  0  0  0  0  0  0  0  0  0
    0.0707   -0.1055    0.4223 C   0  0  0  0  0  0  0  0  0  0  0  0
   -1.0274    0.4056   -0.1647 C   0  0  0  0  0  0  0  0  0  0  0  0
    2.5992   -0.1131    0.0099 C   0  0  0  0  0  0  0  0  0  0  0  0
   -0.2012    3.8492   -1.1082 C   0  0  0  0  0  0  0  0  0  0  0  0
   -2.2571   -0.3797   -0.2716 C   0  0  0  0  0  0  0  0  0  0  0  0
    0.0206   -1.4381    1.0861 C   0  0  0  0  0  0  0  0  0  0  0  0
   -2.2791   -1.6561    0.2801 C   0  0  0  0  0  0  0  0  0  0  0  0
    2.4778   -1.0368   -1.0228 C   0  0  0  0  0  0  0  0  0  0  0  0
    3.8272    0.1009    0.6270 C   0  0  0  0  0  0  0  0  0  0  0  0
   -3.4170    0.0810   -0.9082 C   0  0  0  0  0  0  0  0  0  0  0  0
   -1.6070    3.5667    1.3010 C   0  0  0  0  0  0  0  0  0  0  0  0
   -3.4068   -2.4751    0.2151 C   0  0  0  0  0  0  0  0  0  0  0  0
    3.5975   -1.7548   -1.4432 C   0  0  0  0  0  0  0  0  0  0  0  0
    4.9467   -0.6169    0.2065 C   0  0  0  0  0  0  0  0  0  0  0  0
   -4.5565   -0.7271   -0.9818 C   0  0  0  0  0  0  0  0  0  0  0  0
    4.8320   -1.5447   -0.8288 C   0  0  0  0  0  0  0  0  0  0  0  0
   -4.5509   -2.0038   -0.4214 C   0  0  0  0  0  0  0  0  0  0  0  0
    1.5239    0.9444    1.5246 H   0  0  0  0  0  0  0  0  0  0  0  0
    2.0565    2.6734   -0.0084 H   0  0  0  0  0  0  0  0  0  0  0  0
    1.4883    1.7580   -1.4117 H   0  0  0  0  0  0  0  0  0  0  0  0
    0.4078    4.6681   -0.7109 H   0  0  0  0  0  0  0  0  0  0  0  0
    0.1305    3.6304   -2.1299 H   0  0  0  0  0  0  0  0  0  0  0  0
   -1.2319    4.2070   -1.2089 H   0  0  0  0  0  0  0  0  0  0  0  0
    1.5347   -1.2069   -1.5338 H   0  0  0  0  0  0  0  0  0  0  0  0
    3.9289    0.8223    1.4330 H   0  0  0  0  0  0  0  0  0  0  0  0
   -3.4568    1.0700   -1.3582 H   0  0  0  0  0  0  0  0  0  0  0  0
   -2.4136    2.9866    0.8438 H   0  0  0  0  0  0  0  0  0  0  0  0
   -1.6191    4.5994    0.9408 H   0  0  0  0  0  0  0  0  0  0  0  0
   -1.8060    3.6074    2.3767 H   0  0  0  0  0  0  0  0  0  0  0  0
   -3.3989   -3.4676    0.6554 H   0  0  0  0  0  0  0  0  0  0  0  0
    3.5093   -2.4739   -2.2522 H   0  0  0  0  0  0  0  0  0  0  0  0
    5.9081   -0.4529    0.6845 H   0  0  0  0  0  0  0  0  0  0  0  0
   -5.4492   -0.3579   -1.4788 H   0  0  0  0  0  0  0  0  0  0  0  0
    5.7040   -2.1027   -1.1571 H   0  0  0  0  0  0  0  0  0  0  0  0
   -5.4378   -2.6277   -0.4807 H   0  0  0  0  0  0  0  0  0  0  0  0
  1  7  1  0  0  0  0
  1  9  1  0  0  0  0
  2  7  1  0  0  0  0
  2 18  1  0  0  0  0
  3 13  1  0  0  0  0
  3 14  1  0  0  0  0
  4 13  2  0  0  0  0
  5  6  1  0  0  0  0
  5  8  1  0  0  0  0
  5 10  1  0  0  0  0
  5 25  1  0  0  0  0
  6  7  1  0  0  0  0
  6 26  1  0  0  0  0
  6 27  1  0  0  0  0
  7 11  1  0  0  0  0
  8  9  2  0  0  0  0
  8 13  1  0  0  0  0
  9 12  1  0  0  0  0
 10 15  2  0  0  0  0
 10 16  1  0  0  0  0
 11 28  1  0  0  0  0
 11 29  1  0  0  0  0
 11 30  1  0  0  0  0
 12 14  1  0  0  0  0
 12 17  2  0  0  0  0
 14 19  2  0  0  0  0
 15 20  1  0  0  0  0
 15 31  1  0  0  0  0
 16 21  2  0  0  0  0
 16 32  1  0  0  0  0
 17 22  1  0  0  0  0
 17 33  1  0  0  0  0
 18 34  1  0  0  0  0
 18 35  1  0  0  0  0
 18 36  1  0  0  0  0
 19 24  1  0  0  0  0
 19 37  1  0  0  0  0
 20 23  2  0  0  0  0
 20 38  1  0  0  0  0
 21 23  1  0  0  0  0
 21 39  1  0  0  0  0
 22 24  2  0  0  0  0
 22 40  1  0  0  0  0
 23 41  1  0  0  0  0
 24 42  1  0  0  0  0
M  END
> <PUBCHEM_COMPOUND_CID>
10606

> <PUBCHEM_CONFORMER_RMSD>
0.6

> <PUBCHEM_CONFORMER_DIVERSEORDER>
4
6
7
5
12
1
11
10
8
2
9
3

> <PUBCHEM_MMFF94_PARTIAL_CHARGES>
31
1 -0.36
10 -0.14
12 0.03
13 0.71
14 0.08
15 -0.15
16 -0.15
17 -0.15
18 0.28
19 -0.15
2 -0.56
20 -0.15
21 -0.15
22 -0.15
23 -0.15
24 -0.15
3 -0.23
31 0.15
32 0.15
33 0.15
37 0.15
38 0.15
39 0.15
4 -0.57
40 0.15
41 0.15
42 0.15
5 0.28
7 0.56
8 -0.12
9 0.05

> <PUBCHEM_EFFECTIVE_ROTOR_COUNT>
2.8

> <PUBCHEM_PHARMACOPHORE_FEATURES>
7
1 1 acceptor
1 2 acceptor
1 4 acceptor
6 1 5 6 7 8 9 rings
6 10 15 16 20 21 23 rings
6 12 14 17 19 22 24 rings
6 3 8 9 12 13 14 rings

> <PUBCHEM_HEAVY_ATOM_COUNT>
24

> <PUBCHEM_ATOM_DEF_STEREO_COUNT>
0

> <PUBCHEM_ATOM_UDEF_STEREO_COUNT>
2

> <PUBCHEM_BOND_DEF_STEREO_COUNT>
0

> <PUBCHEM_BOND_UDEF_STEREO_COUNT>
0

> <PUBCHEM_ISOTOPIC_ATOM_COUNT>
0

> <PUBCHEM_COMPONENT_COUNT>
1

> <PUBCHEM_CACTVS_TAUTO_COUNT>
1

> <PUBCHEM_CONFORMER_ID>
0000296E00000004

> <PUBCHEM_MMFF94_ENERGY>
82.678

> <PUBCHEM_FEATURE_SELFOVERLAP>
35.608

> <PUBCHEM_SHAPE_FINGERPRINT>
10906281 52 18197765618983914288
1100329 8 18336823186732298393
11578080 2 16516271628499964840
116883 192 18408599271148128500
12035759 4 18200878511936254739
12363563 72 18337380574338574326
12403259 226 18126571111577591099
12553582 1 18342746242874715331
12788726 201 18339366373847439594
13134695 92 17970071045858962469
13140716 1 18340761550955365529
13149001 5 17986672558662009939
13544653 18 17967812738911036246
13583140 156 14779833835692474746
13681431 1 18194674878443809588
140371 6 18268142051005611480
14508225 48 18411980269551531924
14790565 3 17690000458929797629
14866123 147 18119240920662672219
15475509 8 18263072366488505703
15848702 151 18260828159713081191
16752209 62 18130513036534671194
16945 1 18059869371547973265
17357779 13 18335148600003977292
1813 80 18042387093590159295
20600515 1 17984166806148511472
20642791 13 18408040736595388096
21029758 11 18338801113185762555
21041028 32 18335413526909715105
21285901 2 18334012826094129942
221357 26 18341058419796679807
221490 88 18054788377939781395
22393880 68 18057066635374723543
22620623 9 17971452229962964134
23402539 116 18411425028958742646
23419403 2 18044966534868592152
23526113 38 18128534856081212561
23557571 272 18335707173675731100
23558518 356 18339631335102749480
23559900 14 18267872670424392232
2748010 2 17411623498217067699
283562 15 18340491161537074608
3004659 81 18131635565261724542
3298306 158 17621309148689266180
335352 9 18341619200881066711
3380486 77 17846509110287239266
463206 1 18337954493465195294
5283173 99 18272660055863329932
6004065 56 18044674004787966799
6443956 14 18337391522215304413
7364860 26 17976260132181261473
7399639 24 18041576767043414216
81228 2 18340195388651470552
9709674 26 17982735164958516275

> <PUBCHEM_SHAPE_MULTIPOLES>
470.43
8.17
3.91
1.26
2.75
4.35
0.09
-7.1
-2.33
-1.92
0.28
0.18
0.01
0.3

> <PUBCHEM_SHAPE_SELFOVERLAP>
1042.972

> <PUBCHEM_SHAPE_VOLUME>
248.5

> <PUBCHEM_COORDINATE_TYPE>
2
5
10

$$$$

