194365
  -OEChem-07051213152D

 40 39  0     0  0  0  0  0  0999 V2000
    9.4651   -0.2500    0.0000 N   0  0  0  0  0  0  0  0  0  0  0  0
    6.0010   -0.2500    0.0000 N   0  0  0  0  0  0  0  0  0  0  0  0
   13.7953    0.2500    0.0000 N   0  0  0  0  0  0  0  0  0  0  0  0
    2.5369   -0.2500    0.0000 N   0  0  0  0  0  0  0  0  0  0  0  0
    7.7331   -0.2500    0.0000 C   0  0  0  0  0  0  0  0  0  0  0  0
    8.5991    0.2500    0.0000 C   0  0  0  0  0  0  0  0  0  0  0  0
    6.8671    0.2500    0.0000 C   0  0  0  0  0  0  0  0  0  0  0  0
   10.3312    0.2500    0.0000 C   0  0  0  0  0  0  0  0  0  0  0  0
   11.1972   -0.2500    0.0000 C   0  0  0  0  0  0  0  0  0  0  0  0
   12.0632    0.2500    0.0000 C   0  0  0  0  0  0  0  0  0  0  0  0
    5.1350    0.2500    0.0000 C   0  0  0  0  0  0  0  0  0  0  0  0
    4.2690   -0.2500    0.0000 C   0  0  0  0  0  0  0  0  0  0  0  0
   12.9292   -0.2500    0.0000 C   0  0  0  0  0  0  0  0  0  0  0  0
    3.4030    0.2500    0.0000 C   0  0  0  0  0  0  0  0  0  0  0  0
    7.3346   -0.7249    0.0000 H   0  0  0  0  0  0  0  0  0  0  0  0
    8.1316   -0.7249    0.0000 H   0  0  0  0  0  0  0  0  0  0  0  0
    8.9976    0.7249    0.0000 H   0  0  0  0  0  0  0  0  0  0  0  0
    8.2006    0.7249    0.0000 H   0  0  0  0  0  0  0  0  0  0  0  0
    7.2656    0.7249    0.0000 H   0  0  0  0  0  0  0  0  0  0  0  0
    6.4685    0.7249    0.0000 H   0  0  0  0  0  0  0  0  0  0  0  0
   10.7297    0.7249    0.0000 H   0  0  0  0  0  0  0  0  0  0  0  0
    9.9326    0.7249    0.0000 H   0  0  0  0  0  0  0  0  0  0  0  0
   10.7987   -0.7249    0.0000 H   0  0  0  0  0  0  0  0  0  0  0  0
   11.5957   -0.7249    0.0000 H   0  0  0  0  0  0  0  0  0  0  0  0
    9.4651   -0.8700    0.0000 H   0  0  0  0  0  0  0  0  0  0  0  0
   12.4617    0.7249    0.0000 H   0  0  0  0  0  0  0  0  0  0  0  0
   11.6647    0.7249    0.0000 H   0  0  0  0  0  0  0  0  0  0  0  0
    5.5335    0.7249    0.0000 H   0  0  0  0  0  0  0  0  0  0  0  0
    4.7365    0.7249    0.0000 H   0  0  0  0  0  0  0  0  0  0  0  0
    6.0010   -0.8700    0.0000 H   0  0  0  0  0  0  0  0  0  0  0  0
    3.8705   -0.7249    0.0000 H   0  0  0  0  0  0  0  0  0  0  0  0
    4.6675   -0.7249    0.0000 H   0  0  0  0  0  0  0  0  0  0  0  0
   12.5307   -0.7249    0.0000 H   0  0  0  0  0  0  0  0  0  0  0  0
   13.3278   -0.7249    0.0000 H   0  0  0  0  0  0  0  0  0  0  0  0
    3.8015    0.7249    0.0000 H   0  0  0  0  0  0  0  0  0  0  0  0
    3.0044    0.7249    0.0000 H   0  0  0  0  0  0  0  0  0  0  0  0
   14.3322   -0.0600    0.0000 H   0  0  0  0  0  0  0  0  0  0  0  0
   13.7953    0.8700    0.0000 H   0  0  0  0  0  0  0  0  0  0  0  0
    2.0000    0.0600    0.0000 H   0  0  0  0  0  0  0  0  0  0  0  0
    2.5369   -0.8700    0.0000 H   0  0  0  0  0  0  0  0  0  0  0  0
  1  6  1  0  0  0  0
  1  8  1  0  0  0  0
  1 25  1  0  0  0  0
  2  7  1  0  0  0  0
  2 11  1  0  0  0  0
  2 30  1  0  0  0  0
  3 13  1  0  0  0  0
  3 37  1  0  0  0  0
  3 38  1  0  0  0  0
  4 14  1  0  0  0  0
  4 39  1  0  0  0  0
  4 40  1  0  0  0  0
  5  6  1  0  0  0  0
  5  7  1  0  0  0  0
  5 15  1  0  0  0  0
  5 16  1  0  0  0  0
  6 17  1  0  0  0  0
  6 18  1  0  0  0  0
  7 19  1  0  0  0  0
  7 20  1  0  0  0  0
  8  9  1  0  0  0  0
  8 21  1  0  0  0  0
  8 22  1  0  0  0  0
  9 10  1  0  0  0  0
  9 23  1  0  0  0  0
  9 24  1  0  0  0  0
 10 13  1  0  0  0  0
 10 26  1  0  0  0  0
 10 27  1  0  0  0  0
 11 12  1  0  0  0  0
 11 28  1  0  0  0  0
 11 29  1  0  0  0  0
 12 14  1  0  0  0  0
 12 31  1  0  0  0  0
 12 32  1  0  0  0  0
 13 33  1  0  0  0  0
 13 34  1  0  0  0  0
 14 35  1  0  0  0  0
 14 36  1  0  0  0  0
M  END
> <PUBCHEM_COMPOUND_CID>
194365

> <PUBCHEM_COMPOUND_CANONICALIZED>
1

> <PUBCHEM_CACTVS_COMPLEXITY>
98.1

> <PUBCHEM_CACTVS_HBOND_ACCEPTOR>
4

> <PUBCHEM_CACTVS_HBOND_DONOR>
4

> <PUBCHEM_CACTVS_ROTATABLE_BOND>
11

> <PUBCHEM_CACTVS_SUBSKEYS>
AAADceBzgAAAAAAAAAAAAAAAAAAAAAAAAAAAAAAAAAAAAAAAAAAAHAAQAAAACADBAAQAAALAAAAAAAAAAAAAAAAAAAAAAIAIAAAAAAAAwAAEAAAAEACAAAAAAAAAAAAAAAAAAAAAAAAAAAAAAAAAAAAAAA==

> <PUBCHEM_IUPAC_OPENEYE_NAME>
N'-[3-(3-aminopropylamino)propyl]butane-1,4-diamine

> <PUBCHEM_IUPAC_CAS_NAME>
N'-[3-(3-aminopropylamino)propyl]butane-1,4-diamine

> <PUBCHEM_IUPAC_NAME>
N'-[3-(3-aminopropylamino)propyl]butane-1,4-diamine

> <PUBCHEM_IUPAC_SYSTEMATIC_NAME>
N'-[3-(3-azanylpropylamino)propyl]butane-1,4-diamine

> <PUBCHEM_IUPAC_TRADITIONAL_NAME>
4-aminobutyl-[3-(3-aminopropylamino)propyl]amine

> <PUBCHEM_IUPAC_INCHI>
InChI=1S/C10H26N4/c11-5-1-2-7-13-9-4-10-14-8-3-6-12/h13-14H,1-12H2

> <PUBCHEM_IUPAC_INCHIKEY>
DODDBCGMRAFLEB-UHFFFAOYSA-N

> <PUBCHEM_XLOGP3_AA>
-1.1

> <PUBCHEM_EXACT_MASS>
202.215747

> <PUBCHEM_MOLECULAR_FORMULA>
C10H26N4

> <PUBCHEM_MOLECULAR_WEIGHT>
202.34024

> <PUBCHEM_OPENEYE_CAN_SMILES>
C(CCNCCCNCCCN)CN

> <PUBCHEM_OPENEYE_ISO_SMILES>
C(CCNCCCNCCCN)CN

> <PUBCHEM_CACTVS_TPSA>
76.1

> <PUBCHEM_MONOISOTOPIC_WEIGHT>
202.215747

> <PUBCHEM_TOTAL_CHARGE>
0

> <PUBCHEM_HEAVY_ATOM_COUNT>
14

> <PUBCHEM_ATOM_DEF_STEREO_COUNT>
0

> <PUBCHEM_ATOM_UDEF_STEREO_COUNT>
0

> <PUBCHEM_BOND_DEF_STEREO_COUNT>
0

> <PUBCHEM_BOND_UDEF_STEREO_COUNT>
0

> <PUBCHEM_ISOTOPIC_ATOM_COUNT>
0

> <PUBCHEM_COMPONENT_COUNT>
1

> <PUBCHEM_CACTVS_TAUTO_COUNT>
1

> <PUBCHEM_COORDINATE_TYPE>
1
5
255

$$$$

