12732
  -OEChem-06261207183D

 16 15  0     0  0  0  0  0  0999 V2000
    0.5441   -0.2489   -0.0305 C   0  0  0  0  0  0  0  0  0  0  0  0
    1.8978    0.4606    0.0041 C   0  0  0  0  0  0  0  0  0  0  0  0
   -0.6103    0.7525    0.0012 C   0  0  0  0  0  0  0  0  0  0  0  0
    3.0480   -0.5337    0.0132 C   0  0  0  0  0  0  0  0  0  0  0  0
   -1.9086    0.0643    0.0046 C   0  0  0  0  0  0  0  0  0  0  0  0
   -2.9710   -0.4948    0.0074 C   0  0  0  0  0  0  0  0  0  0  0  0
    0.4750   -0.8688   -0.9336 H   0  0  0  0  0  0  0  0  0  0  0  0
    0.4657   -0.9309    0.8262 H   0  0  0  0  0  0  0  0  0  0  0  0
    1.9646    1.0929    0.8971 H   0  0  0  0  0  0  0  0  0  0  0  0
    1.9955    1.1180   -0.8675 H   0  0  0  0  0  0  0  0  0  0  0  0
   -0.5493    1.4172   -0.8684 H   0  0  0  0  0  0  0  0  0  0  0  0
   -0.5310    1.3834    0.8943 H   0  0  0  0  0  0  0  0  0  0  0  0
    4.0059   -0.0048    0.0363 H   0  0  0  0  0  0  0  0  0  0  0  0
    3.0289   -1.1634   -0.8820 H   0  0  0  0  0  0  0  0  0  0  0  0
    2.9978   -1.1840    0.8923 H   0  0  0  0  0  0  0  0  0  0  0  0
   -3.9132   -0.9910    0.0099 H   0  0  0  0  0  0  0  0  0  0  0  0
  1  2  1  0  0  0  0
  1  3  1  0  0  0  0
  1  7  1  0  0  0  0
  1  8  1  0  0  0  0
  2  4  1  0  0  0  0
  2  9  1  0  0  0  0
  2 10  1  0  0  0  0
  3  5  1  0  0  0  0
  3 11  1  0  0  0  0
  3 12  1  0  0  0  0
  4 13  1  0  0  0  0
  4 14  1  0  0  0  0
  4 15  1  0  0  0  0
  5  6  3  0  0  0  0
  6 16  1  0  0  0  0
M  END
> <PUBCHEM_COMPOUND_CID>
12732

> <PUBCHEM_CONFORMER_RMSD>
0.4

> <PUBCHEM_CONFORMER_DIVERSEORDER>
1
8
6
7
4
5
3
2

> <PUBCHEM_MMFF94_PARTIAL_CHARGES>
4
16 0.18
3 0.2
5 -0.2
6 -0.18

> <PUBCHEM_EFFECTIVE_ROTOR_COUNT>
2

> <PUBCHEM_PHARMACOPHORE_FEATURES>
3
1 4 hydrophobe
1 6 hydrophobe
4 1 2 3 5 hydrophobe

> <PUBCHEM_HEAVY_ATOM_COUNT>
6

> <PUBCHEM_ATOM_DEF_STEREO_COUNT>
0

> <PUBCHEM_ATOM_UDEF_STEREO_COUNT>
0

> <PUBCHEM_BOND_DEF_STEREO_COUNT>
0

> <PUBCHEM_BOND_UDEF_STEREO_COUNT>
0

> <PUBCHEM_ISOTOPIC_ATOM_COUNT>
0

> <PUBCHEM_COMPONENT_COUNT>
1

> <PUBCHEM_CACTVS_TAUTO_COUNT>
1

> <PUBCHEM_CONFORMER_ID>
000031BC00000001

> <PUBCHEM_MMFF94_ENERGY>
-2.1415

> <PUBCHEM_FEATURE_SELFOVERLAP>
15.224

> <PUBCHEM_SHAPE_FINGERPRINT>
11062470 55 15698001833640521215
14325111 11 18410575084810791456
14390081 3 10159696884751723455
16714656 1 18409167705653421967
29004967 10 16732979834153423970
5460574 1 9295291637899026052

> <PUBCHEM_SHAPE_MULTIPOLES>
123.48
4.95
0.85
0.62
0.32
0.04
0
-1.2
0.04
0.04
0
0
0
0

> <PUBCHEM_SHAPE_SELFOVERLAP>
213.838

> <PUBCHEM_SHAPE_VOLUME>
81.9

> <PUBCHEM_COORDINATE_TYPE>
2
5
10

$$$$

