443007
  -OEChem-07051213003D

 42 44  0     1  0  0  0  0  0999 V2000
   -0.3443   -0.0763    0.4438 O   0  0  0  0  0  0  0  0  0  0  0  0
   -0.0894   -2.2490   -0.2729 O   0  0  0  0  0  0  0  0  0  0  0  0
    3.9904    2.0117   -0.5639 O   0  0  0  0  0  0  0  0  0  0  0  0
    5.8533    0.0003   -0.1094 O   0  0  0  0  0  0  0  0  0  0  0  0
   -4.0704    0.9985   -0.6979 N   0  0  0  0  0  0  0  0  0  0  0  0
   -3.8383   -0.4361   -0.9510 C   0  0  2  0  0  0  0  0  0  0  0  0
   -3.9125    1.0999    0.7653 C   0  0  1  0  0  0  0  0  0  0  0  0
   -4.5925   -1.1510    0.1756 C   0  0  0  0  0  0  0  0  0  0  0  0
   -4.6419   -0.1307    1.3156 C   0  0  0  0  0  0  0  0  0  0  0  0
   -2.3154   -0.6525   -0.8507 C   0  0  0  0  0  0  0  0  0  0  0  0
   -2.3972    1.0417    1.0422 C   0  0  0  0  0  0  0  0  0  0  0  0
   -1.7538   -0.2512    0.5215 C   0  0  0  0  0  0  0  0  0  0  0  0
   -5.3815    1.4494   -1.1580 C   0  0  0  0  0  0  0  0  0  0  0  0
    0.3701   -1.1592    0.0311 C   0  0  0  0  0  0  0  0  0  0  0  0
    1.8215   -0.8483   -0.0057 C   0  0  0  0  0  0  0  0  0  0  0  0
    2.2201    0.4464   -0.2688 C   0  0  0  0  0  0  0  0  0  0  0  0
    2.7270   -1.8643    0.2226 C   0  0  0  0  0  0  0  0  0  0  0  0
    3.5838    0.7378   -0.3051 C   0  0  0  0  0  0  0  0  0  0  0  0
    4.0906   -1.5729    0.1865 C   0  0  0  0  0  0  0  0  0  0  0  0
    4.5190   -0.2719   -0.0772 C   0  0  0  0  0  0  0  0  0  0  0  0
    4.1614    2.8779    0.5564 C   0  0  0  0  0  0  0  0  0  0  0  0
   -4.1801   -0.7535   -1.9427 H   0  0  0  0  0  0  0  0  0  0  0  0
   -4.3138    2.0343    1.1735 H   0  0  0  0  0  0  0  0  0  0  0  0
   -4.1096   -2.0840    0.4839 H   0  0  0  0  0  0  0  0  0  0  0  0
   -5.6138   -1.3971   -0.1383 H   0  0  0  0  0  0  0  0  0  0  0  0
   -5.6868    0.1097    1.5449 H   0  0  0  0  0  0  0  0  0  0  0  0
   -4.1855   -0.5198    2.2318 H   0  0  0  0  0  0  0  0  0  0  0  0
   -2.1280   -1.7083   -1.0681 H   0  0  0  0  0  0  0  0  0  0  0  0
   -1.8087   -0.0846   -1.6431 H   0  0  0  0  0  0  0  0  0  0  0  0
   -1.9043    1.9098    0.5833 H   0  0  0  0  0  0  0  0  0  0  0  0
   -2.2049    1.1307    2.1188 H   0  0  0  0  0  0  0  0  0  0  0  0
   -1.9551   -1.0493    1.2484 H   0  0  0  0  0  0  0  0  0  0  0  0
   -5.4535    1.3437   -2.2460 H   0  0  0  0  0  0  0  0  0  0  0  0
   -5.5101    2.5147   -0.9373 H   0  0  0  0  0  0  0  0  0  0  0  0
   -6.2205    0.9075   -0.7096 H   0  0  0  0  0  0  0  0  0  0  0  0
    1.5066    1.2424   -0.4628 H   0  0  0  0  0  0  0  0  0  0  0  0
    2.4055   -2.8801    0.4321 H   0  0  0  0  0  0  0  0  0  0  0  0
    4.8084   -2.3687    0.3665 H   0  0  0  0  0  0  0  0  0  0  0  0
    6.3478   -0.8176    0.0713 H   0  0  0  0  0  0  0  0  0  0  0  0
    4.9215    2.4823    1.2374 H   0  0  0  0  0  0  0  0  0  0  0  0
    3.2132    3.0097    1.0871 H   0  0  0  0  0  0  0  0  0  0  0  0
    4.4946    3.8521    0.1884 H   0  0  0  0  0  0  0  0  0  0  0  0
  1 12  1  0  0  0  0
  1 14  1  0  0  0  0
  2 14  2  0  0  0  0
  3 18  1  0  0  0  0
  3 21  1  0  0  0  0
  4 20  1  0  0  0  0
  4 39  1  0  0  0  0
  5  6  1  0  0  0  0
  5  7  1  0  0  0  0
  5 13  1  0  0  0  0
  6  8  1  0  0  0  0
  6 10  1  0  0  0  0
  6 22  1  0  0  0  0
  7  9  1  0  0  0  0
  7 11  1  0  0  0  0
  7 23  1  0  0  0  0
  8  9  1  0  0  0  0
  8 24  1  0  0  0  0
  8 25  1  0  0  0  0
  9 26  1  0  0  0  0
  9 27  1  0  0  0  0
 10 12  1  0  0  0  0
 10 28  1  0  0  0  0
 10 29  1  0  0  0  0
 11 12  1  0  0  0  0
 11 30  1  0  0  0  0
 11 31  1  0  0  0  0
 12 32  1  0  0  0  0
 13 33  1  0  0  0  0
 13 34  1  0  0  0  0
 13 35  1  0  0  0  0
 14 15  1  0  0  0  0
 15 16  2  0  0  0  0
 15 17  1  0  0  0  0
 16 18  1  0  0  0  0
 16 36  1  0  0  0  0
 17 19  2  0  0  0  0
 17 37  1  0  0  0  0
 18 20  2  0  0  0  0
 19 20  1  0  0  0  0
 19 38  1  0  0  0  0
 21 40  1  0  0  0  0
 21 41  1  0  0  0  0
 21 42  1  0  0  0  0
M  END
> <PUBCHEM_COMPOUND_CID>
443007

> <PUBCHEM_CONFORMER_RMSD>
0.8

> <PUBCHEM_CONFORMER_DIVERSEORDER>
1
13
22
36
17
41
38
9
27
18
31
35
5
39
43
26
37
7
32
29
11
8
10
34
19
45
2
40
30
42
3
4
21
20
33
44
23
24
12
15
28
25
14
16
6

> <PUBCHEM_MMFF94_PARTIAL_CHARGES>
21
1 -0.43
12 0.28
13 0.27
14 0.63
15 0.09
16 -0.15
17 -0.15
18 0.08
19 -0.15
2 -0.57
20 0.08
21 0.28
3 -0.36
36 0.15
37 0.15
38 0.15
39 0.45
4 -0.53
5 -0.81
6 0.27
7 0.27

> <PUBCHEM_EFFECTIVE_ROTOR_COUNT>
5.2

> <PUBCHEM_PHARMACOPHORE_FEATURES>
6
1 2 acceptor
1 3 acceptor
1 4 donor
1 5 cation
6 15 16 17 18 19 20 rings
8 5 6 7 8 9 10 11 12 rings

> <PUBCHEM_HEAVY_ATOM_COUNT>
21

> <PUBCHEM_ATOM_DEF_STEREO_COUNT>
0

> <PUBCHEM_ATOM_UDEF_STEREO_COUNT>
2

> <PUBCHEM_BOND_DEF_STEREO_COUNT>
0

> <PUBCHEM_BOND_UDEF_STEREO_COUNT>
0

> <PUBCHEM_ISOTOPIC_ATOM_COUNT>
0

> <PUBCHEM_COMPONENT_COUNT>
1

> <PUBCHEM_CACTVS_TAUTO_COUNT>
4

> <PUBCHEM_CONFORMER_ID>
0006C27F00000001

> <PUBCHEM_MMFF94_ENERGY>
68.0905

> <PUBCHEM_FEATURE_SELFOVERLAP>
30.446

> <PUBCHEM_SHAPE_FINGERPRINT>
10366900 7 15051731971572338149
10763959 59 18131631210006774108
11089746 13 18410579479010708788
11128504 68 17386005039876034881
12107183 9 17615964847461792378
12236239 1 18113619014340565790
12403259 415 18273493468354714325
12507557 5 18272650164585067957
12616971 3 18187079572451836491
128620 24 17676483960419550435
13167823 11 18334857229322720855
13583140 156 17917989477573776675
13675066 3 17917988378003775423
14251764 38 18131350855563334405
14528608 73 18409168792164077524
14848178 96 18264209115256501704
15196674 1 18411419496835117493
15239154 128 18408602565277339545
15788980 27 18272932747468194619
17834072 33 18408886217681189022
17844677 252 18341607131437473509
17959699 21 18341054098632383213
18681886 176 18040439884926703818
19433438 28 17917990572842891913
19489759 90 16056880230408629203
200 152 18261680354518295111
21033648 144 18339649936489544588
21033648 29 17561092401106937620
21033650 10 16009844239727166498
21065201 7 16128372705133939387
21709351 56 18408889572129768822
22854114 59 18060135453066593422
23402539 116 17894914044252782230
23402655 69 18334296495756826326
23557571 272 17203317940842872339
23559900 14 18337392759224434274
2838139 119 17984436384799490133
351380 180 18272370897158146480
3545911 37 18341607109783392898
4214541 1 18412825793850697463
474 4 18411136948227417610
5104073 3 18343863329439939547
542803 24 17967249818806134139
543368 44 17822854165371816169
54446538 1 18334576836661645677
633830 44 18041548239338118095
90127 26 18131066060839757395

> <PUBCHEM_SHAPE_MULTIPOLES>
403.71
13.2
2.16
1
0.72
0.78
0.03
3.88
-0.82
2.2
0.07
-1.24
0.2
0.17

> <PUBCHEM_SHAPE_SELFOVERLAP>
865.547

> <PUBCHEM_SHAPE_VOLUME>
224.8

> <PUBCHEM_COORDINATE_TYPE>
2
5
10

$$$$

