442998
  -OEChem-07051213002D

 36 38  0     1  0  0  0  0  0999 V2000
    2.6691   -1.0675    0.0000 S   0  0  0  0  0  0  0  0  0  0  0  0
    2.0000   -1.8107    0.0000 S   0  0  0  0  0  0  0  0  0  0  0  0
    5.3147   -1.4743    0.0000 O   0  0  0  0  0  0  0  0  0  0  0  0
    4.4487    0.0257    0.0000 O   0  0  0  0  0  0  0  0  0  0  0  0
    8.1517    1.8107    0.0000 N   0  0  0  0  0  0  0  0  0  0  0  0
    8.8883    0.8281    0.0000 C   0  0  3  0  0  0  0  0  0  0  0  0
    8.6294   -0.1379    0.0000 C   0  0  3  0  0  0  0  0  0  0  0  0
   10.7202    0.0692    0.0000 C   0  0  0  0  0  0  0  0  0  0  0  0
   10.4614   -0.8967    0.0000 C   0  0  0  0  0  0  0  0  0  0  0  0
    6.2853    0.0203    0.0000 C   0  0  0  0  0  0  0  0  0  0  0  0
    7.0943   -1.3810    0.0000 C   0  0  0  0  0  0  0  0  0  0  0  0
    6.1808   -0.9743    0.0000 C   0  0  0  0  0  0  0  0  0  0  0  0
    7.6517    2.6767    0.0000 C   0  0  0  0  0  0  0  0  0  0  0  0
    4.4487   -0.9743    0.0000 C   0  0  0  0  0  0  0  0  0  0  0  0
    3.5827   -1.4743    0.0000 C   0  0  2  0  0  0  0  0  0  0  0  0
    3.4782   -2.4688    0.0000 C   0  0  0  0  0  0  0  0  0  0  0  0
    2.5000   -2.6767    0.0000 C   0  0  0  0  0  0  0  0  0  0  0  0
    8.8493   -0.0210    0.0000 H   0  0  0  0  0  0  0  0  0  0  0  0
    8.7514   -0.9791    0.0000 H   0  0  0  0  0  0  0  0  0  0  0  0
   11.3115   -0.1172    0.0000 H   0  0  0  0  0  0  0  0  0  0  0  0
   10.9323    0.6519    0.0000 H   0  0  0  0  0  0  0  0  0  0  0  0
   10.2494   -1.4793    0.0000 H   0  0  0  0  0  0  0  0  0  0  0  0
   11.0527   -1.0831    0.0000 H   0  0  0  0  0  0  0  0  0  0  0  0
    6.1830    0.6318    0.0000 H   0  0  0  0  0  0  0  0  0  0  0  0
    5.6656    0.0013    0.0000 H   0  0  0  0  0  0  0  0  0  0  0  0
    6.7566   -1.9010    0.0000 H   0  0  0  0  0  0  0  0  0  0  0  0
    7.5550   -1.7959    0.0000 H   0  0  0  0  0  0  0  0  0  0  0  0
    6.2132   -1.5934    0.0000 H   0  0  0  0  0  0  0  0  0  0  0  0
    8.1886    2.9867    0.0000 H   0  0  0  0  0  0  0  0  0  0  0  0
    7.3417    3.2136    0.0000 H   0  0  0  0  0  0  0  0  0  0  0  0
    7.1147    2.3667    0.0000 H   0  0  0  0  0  0  0  0  0  0  0  0
    3.5502   -0.8551    0.0000 H   0  0  0  0  0  0  0  0  0  0  0  0
    3.5430   -3.0854    0.0000 H   0  0  0  0  0  0  0  0  0  0  0  0
    4.0982   -2.4688    0.0000 H   0  0  0  0  0  0  0  0  0  0  0  0
    1.9336   -2.9289    0.0000 H   0  0  0  0  0  0  0  0  0  0  0  0
    2.6916   -3.2664    0.0000 H   0  0  0  0  0  0  0  0  0  0  0  0
  1  2  1  0  0  0  0
  1 15  1  0  0  0  0
  2 17  1  0  0  0  0
  3 12  1  0  0  0  0
  3 14  1  0  0  0  0
  4 14  2  0  0  0  0
  5  6  1  0  0  0  0
  5  7  1  0  0  0  0
  5 13  1  0  0  0  0
  6  8  1  0  0  0  0
  6 10  1  0  0  0  0
  6 18  1  0  0  0  0
  7  9  1  0  0  0  0
  7 11  1  0  0  0  0
  7 19  1  0  0  0  0
  8  9  1  0  0  0  0
  8 20  1  0  0  0  0
  8 21  1  0  0  0  0
  9 22  1  0  0  0  0
  9 23  1  0  0  0  0
 10 12  1  0  0  0  0
 10 24  1  0  0  0  0
 10 25  1  0  0  0  0
 11 12  1  0  0  0  0
 11 26  1  0  0  0  0
 11 27  1  0  0  0  0
 12 28  1  0  0  0  0
 13 29  1  0  0  0  0
 13 30  1  0  0  0  0
 13 31  1  0  0  0  0
 15 14  1  6  0  0  0
 15 16  1  0  0  0  0
 15 32  1  0  0  0  0
 16 17  1  0  0  0  0
 16 33  1  0  0  0  0
 16 34  1  0  0  0  0
 17 35  1  0  0  0  0
 17 36  1  0  0  0  0
M  END
> <PUBCHEM_COMPOUND_CID>
442998

> <PUBCHEM_COMPOUND_CANONICALIZED>
1

> <PUBCHEM_CACTVS_COMPLEXITY>
299

> <PUBCHEM_CACTVS_HBOND_ACCEPTOR>
5

> <PUBCHEM_CACTVS_HBOND_DONOR>
0

> <PUBCHEM_CACTVS_ROTATABLE_BOND>
3

> <PUBCHEM_CACTVS_SUBSKEYS>
AAADceByMABgAAAAAAAAAAAAAAAAAWJAAAAsAAAABgAAAAAAAAAAHgQAAAAACDzlwAaCCAMABAAIAACQCAAAAAAAAAAAAAEIAAAAABIAgAAGAAAGAACAAAGQwCAAAAAAAAAAAAAAAAAAAAAAAAAAAAAAAA==

> <PUBCHEM_IUPAC_OPENEYE_NAME>
(8-methyl-8-azabicyclo[3.2.1]octan-3-yl) (3S)-dithiolane-3-carboxylate

> <PUBCHEM_IUPAC_CAS_NAME>
(3S)-3-dithiolanecarboxylic acid (8-methyl-8-azabicyclo[3.2.1]octan-3-yl) ester

> <PUBCHEM_IUPAC_NAME>
(8-methyl-8-azabicyclo[3.2.1]octan-3-yl) (3S)-dithiolane-3-carboxylate

> <PUBCHEM_IUPAC_SYSTEMATIC_NAME>
(8-methyl-8-azabicyclo[3.2.1]octan-3-yl) (3S)-1,2-dithiolane-3-carboxylate

> <PUBCHEM_IUPAC_TRADITIONAL_NAME>
(3S)-dithiolane-3-carboxylic acid (8-methyl-8-azabicyclo[3.2.1]octan-3-yl) ester

> <PUBCHEM_IUPAC_INCHI>
InChI=1S/C12H19NO2S2/c1-13-8-2-3-9(13)7-10(6-8)15-12(14)11-4-5-16-17-11/h8-11H,2-7H2,1H3/t8?,9?,10?,11-/m0/s1

> <PUBCHEM_IUPAC_INCHIKEY>
BOJOZZSCQUTEBY-QUBJWBRDSA-N

> <PUBCHEM_XLOGP3_AA>
2.2

> <PUBCHEM_EXACT_MASS>
273.085721

> <PUBCHEM_MOLECULAR_FORMULA>
C12H19NO2S2

> <PUBCHEM_MOLECULAR_WEIGHT>
273.41476

> <PUBCHEM_OPENEYE_CAN_SMILES>
CN1C2CCC1CC(C2)OC(=O)C3CCSS3

> <PUBCHEM_OPENEYE_ISO_SMILES>
CN1C2CCC1CC(C2)OC(=O)[C@@H]3CCSS3

> <PUBCHEM_CACTVS_TPSA>
80.1

> <PUBCHEM_MONOISOTOPIC_WEIGHT>
273.085721

> <PUBCHEM_TOTAL_CHARGE>
0

> <PUBCHEM_HEAVY_ATOM_COUNT>
17

> <PUBCHEM_ATOM_DEF_STEREO_COUNT>
1

> <PUBCHEM_ATOM_UDEF_STEREO_COUNT>
2

> <PUBCHEM_BOND_DEF_STEREO_COUNT>
0

> <PUBCHEM_BOND_UDEF_STEREO_COUNT>
0

> <PUBCHEM_ISOTOPIC_ATOM_COUNT>
0

> <PUBCHEM_COMPONENT_COUNT>
1

> <PUBCHEM_CACTVS_TAUTO_COUNT>
1

> <PUBCHEM_COORDINATE_TYPE>
1
5
255

> <PUBCHEM_BONDANNOTATIONS>
15  14  6
6  18  3
7  19  3

$$$$

