3032791
  -OEChem-07051213053D

 36 36  0     0  0  0  0  0  0999 V2000
   -1.3031    3.7295   -1.3934 S   0  0  0  0  0  0  0  0  0  0  0  0
   -1.3174   -3.7297    1.3882 S   0  0  0  0  0  0  0  0  0  0  0  0
    3.0895    3.1144    0.4738 O   0  0  0  0  0  0  0  0  0  0  0  0
    3.0784   -3.1254   -0.4748 O   0  0  0  0  0  0  0  0  0  0  0  0
    1.8557    1.2611    1.0310 O   0  0  0  0  0  0  0  0  0  0  0  0
    1.8514   -1.2667   -1.0287 O   0  0  0  0  0  0  0  0  0  0  0  0
   -0.7603    1.4289    0.0552 N   0  0  0  0  0  0  0  0  0  0  0  0
   -0.7825   -1.4166   -0.0532 N   0  0  0  0  0  0  0  0  0  0  0  0
    0.9420    3.0246   -0.2098 N   0  0  0  0  0  0  0  0  0  0  0  0
    0.9313   -3.0292    0.2088 N   0  0  0  0  0  0  0  0  0  0  0  0
   -1.9766    0.7002    0.0276 C   0  0  0  0  0  0  0  0  0  0  0  0
   -1.9786   -0.6938   -0.0249 C   0  0  0  0  0  0  0  0  0  0  0  0
   -3.1836    1.3989    0.0529 C   0  0  0  0  0  0  0  0  0  0  0  0
   -3.1879   -1.3888   -0.0518 C   0  0  0  0  0  0  0  0  0  0  0  0
   -4.3927    0.7037    0.0260 C   0  0  0  0  0  0  0  0  0  0  0  0
   -4.3948   -0.6900   -0.0266 C   0  0  0  0  0  0  0  0  0  0  0  0
   -0.3946    2.6616   -0.4715 C   0  0  0  0  0  0  0  0  0  0  0  0
   -0.4041   -2.6619    0.4709 C   0  0  0  0  0  0  0  0  0  0  0  0
    1.9528    2.3551    0.4863 C   0  0  0  0  0  0  0  0  0  0  0  0
    1.9446   -2.3621   -0.4860 C   0  0  0  0  0  0  0  0  0  0  0  0
    4.2197    2.5576    1.1543 C   0  0  0  0  0  0  0  0  0  0  0  0
    4.2108   -2.5714   -1.1541 C   0  0  0  0  0  0  0  0  0  0  0  0
   -3.2356    2.4754    0.1647 H   0  0  0  0  0  0  0  0  0  0  0  0
   -3.2440   -2.4651   -0.1644 H   0  0  0  0  0  0  0  0  0  0  0  0
    0.0272    0.8693    0.3677 H   0  0  0  0  0  0  0  0  0  0  0  0
    0.0087   -0.8625   -0.3674 H   0  0  0  0  0  0  0  0  0  0  0  0
   -5.3328    1.2467    0.0584 H   0  0  0  0  0  0  0  0  0  0  0  0
   -5.3367   -1.2300   -0.0604 H   0  0  0  0  0  0  0  0  0  0  0  0
    1.2187    3.9235   -0.5968 H   0  0  0  0  0  0  0  0  0  0  0  0
    1.2045   -3.9300    0.5937 H   0  0  0  0  0  0  0  0  0  0  0  0
    3.9923    2.4208    2.2157 H   0  0  0  0  0  0  0  0  0  0  0  0
    4.5083    1.6076    0.6942 H   0  0  0  0  0  0  0  0  0  0  0  0
    5.0523    3.2600    1.0610 H   0  0  0  0  0  0  0  0  0  0  0  0
    3.9841   -2.4318   -2.2153 H   0  0  0  0  0  0  0  0  0  0  0  0
    4.5026   -1.6232   -0.6922 H   0  0  0  0  0  0  0  0  0  0  0  0
    5.0408   -3.2768   -1.0621 H   0  0  0  0  0  0  0  0  0  0  0  0
  1 17  2  0  0  0  0
  2 18  2  0  0  0  0
  3 19  1  0  0  0  0
  3 21  1  0  0  0  0
  4 20  1  0  0  0  0
  4 22  1  0  0  0  0
  5 19  2  0  0  0  0
  6 20  2  0  0  0  0
  7 11  1  0  0  0  0
  7 17  1  0  0  0  0
  7 25  1  0  0  0  0
  8 12  1  0  0  0  0
  8 18  1  0  0  0  0
  8 26  1  0  0  0  0
  9 17  1  0  0  0  0
  9 19  1  0  0  0  0
  9 29  1  0  0  0  0
 10 18  1  0  0  0  0
 10 20  1  0  0  0  0
 10 30  1  0  0  0  0
 11 12  1  0  0  0  0
 11 13  2  0  0  0  0
 12 14  2  0  0  0  0
 13 15  1  0  0  0  0
 13 23  1  0  0  0  0
 14 16  1  0  0  0  0
 14 24  1  0  0  0  0
 15 16  2  0  0  0  0
 15 27  1  0  0  0  0
 16 28  1  0  0  0  0
 21 31  1  0  0  0  0
 21 32  1  0  0  0  0
 21 33  1  0  0  0  0
 22 34  1  0  0  0  0
 22 35  1  0  0  0  0
 22 36  1  0  0  0  0
M  END
> <PUBCHEM_COMPOUND_CID>
3032791

> <PUBCHEM_CONFORMER_RMSD>
1

> <PUBCHEM_CONFORMER_DIVERSEORDER>
1
45
31
15
25
21
28
26
23
34
44
13
41
11
37
6
12
7
38
8
2
30
36
33
9
29
40
22
39
24
32
10
35
20
43
17
42
3
19
5
27
16
18
4
14

> <PUBCHEM_MMFF94_PARTIAL_CHARGES>
30
1 -0.38
10 -0.49
11 0.12
12 0.12
13 -0.15
14 -0.15
15 -0.15
16 -0.15
17 0.5
18 0.5
19 0.78
2 -0.38
20 0.78
21 0.28
22 0.28
23 0.15
24 0.15
25 0.37
26 0.37
27 0.15
28 0.15
29 0.37
3 -0.43
30 0.37
4 -0.43
5 -0.57
6 -0.57
7 -0.55
8 -0.55
9 -0.49

> <PUBCHEM_EFFECTIVE_ROTOR_COUNT>
10

> <PUBCHEM_PHARMACOPHORE_FEATURES>
9
1 1 acceptor
1 10 donor
1 2 acceptor
1 5 acceptor
1 6 acceptor
1 7 donor
1 8 donor
1 9 donor
6 11 12 13 14 15 16 rings

> <PUBCHEM_HEAVY_ATOM_COUNT>
22

> <PUBCHEM_ATOM_DEF_STEREO_COUNT>
0

> <PUBCHEM_ATOM_UDEF_STEREO_COUNT>
0

> <PUBCHEM_BOND_DEF_STEREO_COUNT>
0

> <PUBCHEM_BOND_UDEF_STEREO_COUNT>
0

> <PUBCHEM_ISOTOPIC_ATOM_COUNT>
0

> <PUBCHEM_COMPONENT_COUNT>
1

> <PUBCHEM_CACTVS_TAUTO_COUNT>
15

> <PUBCHEM_CONFORMER_ID>
002E46D700000001

> <PUBCHEM_MMFF94_ENERGY>
79.6926

> <PUBCHEM_FEATURE_SELFOVERLAP>
45.75

> <PUBCHEM_SHAPE_FINGERPRINT>
10498660 4 17617938475302800822
10616163 171 17908425753478180088
1100329 8 17902221553198037321
11524674 6 17677901120061991452
11680986 33 18339350852099784931
12553582 1 18051134988821674139
12788726 201 17907564076229565270
13140716 1 18339356470185663401
13402501 40 18407760340077098000
138480 1 18336827610220649350
14647877 51 18408604777734071282
14790565 3 16678935848499760648
15006816 218 18337391534899700720
17093844 170 18337390440300608428
20028762 73 17324077040850294103
20510252 161 17762892573491717703
20642791 35 18266745869091219741
21141583 151 18120364625846800110
21344244 246 18192166914523619063
23352939 185 18116426132014032811
23559900 14 18335425719788825975
23728640 28 17760375383211063442
238918 7 18044376011878355144
2748010 2 18413952780695274989
352729 6 17764023563451348357
532947 4 18410580574095539477

> <PUBCHEM_SHAPE_MULTIPOLES>
417.05
7.23
6.05
1.08
1.22
0.03
0
-0.01
-0.01
4
0.01
0.68
0
2.79

> <PUBCHEM_SHAPE_SELFOVERLAP>
827.613

> <PUBCHEM_SHAPE_VOLUME>
249.2

> <PUBCHEM_COORDINATE_TYPE>
2
5
10

$$$$

