11471955
  -OEChem-07051213102D

 36 38  0     1  0  0  0  0  0999 V2000
    2.0000   -0.1317    0.0000 Br  0  0  0  0  0  0  0  0  0  0  0  0
    5.6542    1.4952    0.0000 O   0  0  0  0  0  0  0  0  0  0  0  0
    6.3962   -0.8028    0.0000 C   0  0  2  0  0  0  0  0  0  0  0  0
    6.3962   -1.8028    0.0000 C   0  0  1  0  0  0  0  0  0  0  0  0
    7.2627   -1.3028    0.0000 C   0  0  0  0  0  0  0  0  0  0  0  0
    5.4451   -0.4938    0.0000 C   0  0  2  0  0  0  0  0  0  0  0  0
    5.4451   -2.1118    0.0000 C   0  0  0  0  0  0  0  0  0  0  0  0
    4.8573   -1.3028    0.0000 C   0  0  0  0  0  0  0  0  0  0  0  0
    6.3962    0.1972    0.0000 C   0  0  0  0  0  0  0  0  0  0  0  0
    5.7541    0.4572    0.0000 C   0  0  0  0  0  0  0  0  0  0  0  0
    4.6361    0.0940    0.0000 C   0  0  0  0  0  0  0  0  0  0  0  0
    4.7406    1.0885    0.0000 C   0  0  0  0  0  0  0  0  0  0  0  0
    3.7226   -0.3128    0.0000 C   0  0  0  0  0  0  0  0  0  0  0  0
    3.9316    1.6763    0.0000 C   0  0  0  0  0  0  0  0  0  0  0  0
    2.9136    0.2750    0.0000 C   0  0  0  0  0  0  0  0  0  0  0  0
    3.0181    1.2696    0.0000 C   0  0  0  0  0  0  0  0  0  0  0  0
    2.2091    1.8573    0.0000 C   0  0  0  0  0  0  0  0  0  0  0  0
    6.7418   -2.5794    0.0000 H   0  0  0  0  0  0  0  0  0  0  0  0
    7.6612   -1.7778    0.0000 H   0  0  0  0  0  0  0  0  0  0  0  0
    7.6612   -0.8278    0.0000 H   0  0  0  0  0  0  0  0  0  0  0  0
    4.9082   -2.4218    0.0000 H   0  0  0  0  0  0  0  0  0  0  0  0
    5.6973   -2.6782    0.0000 H   0  0  0  0  0  0  0  0  0  0  0  0
    4.3966   -0.8880    0.0000 H   0  0  0  0  0  0  0  0  0  0  0  0
    4.3966   -1.7177    0.0000 H   0  0  0  0  0  0  0  0  0  0  0  0
    7.0162    0.1972    0.0000 H   0  0  0  0  0  0  0  0  0  0  0  0
    6.3962    0.8172    0.0000 H   0  0  0  0  0  0  0  0  0  0  0  0
    5.7762    0.1972    0.0000 H   0  0  0  0  0  0  0  0  0  0  0  0
    6.3438    0.2657    0.0000 H   0  0  0  0  0  0  0  0  0  0  0  0
    5.9457    1.0469    0.0000 H   0  0  0  0  0  0  0  0  0  0  0  0
    5.1645    0.6488    0.0000 H   0  0  0  0  0  0  0  0  0  0  0  0
    3.6578   -0.9294    0.0000 H   0  0  0  0  0  0  0  0  0  0  0  0
    3.9964    2.2929    0.0000 H   0  0  0  0  0  0  0  0  0  0  0  0
    5.7190    2.1118    0.0000 H   0  0  0  0  0  0  0  0  0  0  0  0
    2.5735    2.3589    0.0000 H   0  0  0  0  0  0  0  0  0  0  0  0
    1.7075    2.2218    0.0000 H   0  0  0  0  0  0  0  0  0  0  0  0
    1.8446    1.3557    0.0000 H   0  0  0  0  0  0  0  0  0  0  0  0
  1 15  1  0  0  0  0
  2 12  1  0  0  0  0
  2 33  1  0  0  0  0
  3  4  1  0  0  0  0
  3  5  1  0  0  0  0
  3  6  1  0  0  0  0
  3  9  1  6  0  0  0
  4  5  1  0  0  0  0
  4  7  1  0  0  0  0
  4 18  1  6  0  0  0
  5 19  1  0  0  0  0
  5 20  1  0  0  0  0
  6  8  1  0  0  0  0
  6 10  1  6  0  0  0
  6 11  1  0  0  0  0
  7  8  1  0  0  0  0
  7 21  1  0  0  0  0
  7 22  1  0  0  0  0
  8 23  1  0  0  0  0
  8 24  1  0  0  0  0
  9 25  1  0  0  0  0
  9 26  1  0  0  0  0
  9 27  1  0  0  0  0
 10 28  1  0  0  0  0
 10 29  1  0  0  0  0
 10 30  1  0  0  0  0
 11 12  1  0  0  0  0
 11 13  2  0  0  0  0
 12 14  2  0  0  0  0
 13 15  1  0  0  0  0
 13 31  1  0  0  0  0
 14 16  1  0  0  0  0
 14 32  1  0  0  0  0
 15 16  2  0  0  0  0
 16 17  1  0  0  0  0
 17 34  1  0  0  0  0
 17 35  1  0  0  0  0
 17 36  1  0  0  0  0
M  END
> <PUBCHEM_COMPOUND_CID>
11471955

> <PUBCHEM_COMPOUND_CANONICALIZED>
1

> <PUBCHEM_CACTVS_COMPLEXITY>
331

> <PUBCHEM_CACTVS_HBOND_ACCEPTOR>
1

> <PUBCHEM_CACTVS_HBOND_DONOR>
1

> <PUBCHEM_CACTVS_ROTATABLE_BOND>
1

> <PUBCHEM_CACTVS_SUBSKEYS>
AAADceBwIAAAEAAAAAAAAAAAGAAAAYAAAAAwYAAAAAAAAAABAAAAGgBACAABrwSAmAAyBoAAAgCAAiBCAAACAAAgIAQAiAAGCKgIJiKCERKAcAAkwBEImheAwPAPwBABEAAIgACAIAIgADEAAQAACAAAAA==

> <PUBCHEM_IUPAC_OPENEYE_NAME>
4-bromo-2-[(1R,4R,5S)-4,5-dimethyl-4-bicyclo[3.1.0]hexanyl]-5-methyl-phenol

> <PUBCHEM_IUPAC_CAS_NAME>
4-bromo-2-[(1R,4R,5S)-4,5-dimethyl-4-bicyclo[3.1.0]hexanyl]-5-methylphenol

> <PUBCHEM_IUPAC_NAME>
4-bromo-2-[(1R,4R,5S)-4,5-dimethyl-4-bicyclo[3.1.0]hexanyl]-5-methylphenol

> <PUBCHEM_IUPAC_SYSTEMATIC_NAME>
4-bromanyl-2-[(1R,4R,5S)-4,5-dimethyl-4-bicyclo[3.1.0]hexanyl]-5-methyl-phenol

> <PUBCHEM_IUPAC_TRADITIONAL_NAME>
4-bromo-2-[(1R,4R,5S)-4,5-dimethyl-4-bicyclo[3.1.0]hexanyl]-5-methyl-phenol

> <PUBCHEM_IUPAC_INCHI>
InChI=1S/C15H19BrO/c1-9-6-13(17)11(7-12(9)16)14(2)5-4-10-8-15(10,14)3/h6-7,10,17H,4-5,8H2,1-3H3/t10-,14+,15+/m1/s1

> <PUBCHEM_IUPAC_INCHIKEY>
UGGAHNIITODSKB-ONERCXAPSA-N

> <PUBCHEM_XLOGP3_AA>
5.3

> <PUBCHEM_EXACT_MASS>
294.061927

> <PUBCHEM_MOLECULAR_FORMULA>
C15H19BrO

> <PUBCHEM_MOLECULAR_WEIGHT>
295.21476

> <PUBCHEM_OPENEYE_CAN_SMILES>
CC1=C(C=C(C(=C1)O)C2(CCC3C2(C3)C)C)Br

> <PUBCHEM_OPENEYE_ISO_SMILES>
CC1=C(C=C(C(=C1)O)[C@@]2(CC[C@H]3[C@@]2(C3)C)C)Br

> <PUBCHEM_CACTVS_TPSA>
20.2

> <PUBCHEM_MONOISOTOPIC_WEIGHT>
294.061927

> <PUBCHEM_TOTAL_CHARGE>
0

> <PUBCHEM_HEAVY_ATOM_COUNT>
17

> <PUBCHEM_ATOM_DEF_STEREO_COUNT>
3

> <PUBCHEM_ATOM_UDEF_STEREO_COUNT>
0

> <PUBCHEM_BOND_DEF_STEREO_COUNT>
0

> <PUBCHEM_BOND_UDEF_STEREO_COUNT>
0

> <PUBCHEM_ISOTOPIC_ATOM_COUNT>
0

> <PUBCHEM_COMPONENT_COUNT>
1

> <PUBCHEM_CACTVS_TAUTO_COUNT>
6

> <PUBCHEM_COORDINATE_TYPE>
1
5
255

> <PUBCHEM_BONDANNOTATIONS>
11  12  8
11  13  8
12  14  8
13  15  8
14  16  8
15  16  8
3  9  6
4  18  6
6  10  6

$$$$

