12707
  -OEChem-06261207163D

 19 18  0     0  0  0  0  0  0999 V2000
   -2.3941    0.2462    1.4960 F   0  0  0  0  0  0  0  0  0  0  0  0
   -3.5889   -0.1487   -0.2854 F   0  0  0  0  0  0  0  0  0  0  0  0
   -2.3773    1.6586   -0.1634 F   0  0  0  0  0  0  0  0  0  0  0  0
    1.7462    0.3933    0.3915 O   0  0  0  0  0  0  0  0  0  0  0  0
   -1.0585   -0.4348   -1.6831 O   0  0  0  0  0  0  0  0  0  0  0  0
    3.0952   -1.4187   -0.1328 O   0  0  0  0  0  0  0  0  0  0  0  0
   -0.4306   -1.0026    0.4874 N   0  0  0  0  0  0  0  0  0  0  0  0
    0.7432   -1.7635    0.1707 C   0  0  0  0  0  0  0  0  0  0  0  0
   -1.2381   -0.3985   -0.4692 C   0  0  0  0  0  0  0  0  0  0  0  0
    2.0003   -0.9241    0.1187 C   0  0  0  0  0  0  0  0  0  0  0  0
   -2.3950    0.3361    0.1416 C   0  0  0  0  0  0  0  0  0  0  0  0
    2.8640    1.2051    0.3695 C   0  0  0  0  0  0  0  0  0  0  0  0
    3.0337    2.2514   -0.4417 C   0  0  0  0  0  0  0  0  0  0  0  0
    0.8625   -2.5195    0.9519 H   0  0  0  0  0  0  0  0  0  0  0  0
    0.6092   -2.2446   -0.8028 H   0  0  0  0  0  0  0  0  0  0  0  0
   -0.6667   -0.8870    1.4688 H   0  0  0  0  0  0  0  0  0  0  0  0
    3.5983    0.9065    1.1063 H   0  0  0  0  0  0  0  0  0  0  0  0
    3.9389    2.8459   -0.3928 H   0  0  0  0  0  0  0  0  0  0  0  0
    2.2733    2.5272   -1.1637 H   0  0  0  0  0  0  0  0  0  0  0  0
  1 11  1  0  0  0  0
  2 11  1  0  0  0  0
  3 11  1  0  0  0  0
  4 10  1  0  0  0  0
  4 12  1  0  0  0  0
  5  9  2  0  0  0  0
  6 10  2  0  0  0  0
  7  8  1  0  0  0  0
  7  9  1  0  0  0  0
  7 16  1  0  0  0  0
  8 10  1  0  0  0  0
  8 14  1  0  0  0  0
  8 15  1  0  0  0  0
  9 11  1  0  0  0  0
 12 13  2  0  0  0  0
 12 17  1  0  0  0  0
 13 18  1  0  0  0  0
 13 19  1  0  0  0  0
M  END
> <PUBCHEM_COMPOUND_CID>
12707

> <PUBCHEM_CONFORMER_RMSD>
0.6

> <PUBCHEM_CONFORMER_DIVERSEORDER>
1
23
52
50
3
47
16
36
40
41
17
11
44
46
43
51
7
53
12
9
15
37
32
10
49
39
4
29
6
8
2
48
14
42
18
34
13
35
27
30
26
20
25
33
38
22
24
21
28
31
5
19
45

> <PUBCHEM_MMFF94_PARTIAL_CHARGES>
17
1 -0.34
10 0.66
11 1.08
12 -0.07
13 -0.3
16 0.37
17 0.15
18 0.15
19 0.15
2 -0.34
3 -0.34
4 -0.23
5 -0.57
6 -0.57
7 -0.73
8 0.36
9 0.57

> <PUBCHEM_EFFECTIVE_ROTOR_COUNT>
6

> <PUBCHEM_PHARMACOPHORE_FEATURES>
3
1 5 acceptor
1 6 acceptor
1 7 donor

> <PUBCHEM_HEAVY_ATOM_COUNT>
13

> <PUBCHEM_ATOM_DEF_STEREO_COUNT>
0

> <PUBCHEM_ATOM_UDEF_STEREO_COUNT>
0

> <PUBCHEM_BOND_DEF_STEREO_COUNT>
0

> <PUBCHEM_BOND_UDEF_STEREO_COUNT>
0

> <PUBCHEM_ISOTOPIC_ATOM_COUNT>
0

> <PUBCHEM_COMPONENT_COUNT>
1

> <PUBCHEM_CACTVS_TAUTO_COUNT>
2

> <PUBCHEM_CONFORMER_ID>
000031A300000001

> <PUBCHEM_MMFF94_ENERGY>
20.333

> <PUBCHEM_FEATURE_SELFOVERLAP>
15.223

> <PUBCHEM_SHAPE_FINGERPRINT>
10149128 111 18339080372255059240
10857977 72 16558741321843243123
11031198 65 18261950743936390984
12932764 1 17560810956290099154
13618510 140 18412544275914063212
15775835 57 18187081719798542216
170605 34 18342461400485239658
17357990 137 17459169932464854064
20653085 51 18334289907145047523
20671657 1 18411698764736558822
21524375 3 18336550391794048906
25610 171 15984835881564591502
549884 4 17749107742943049592

> <PUBCHEM_SHAPE_MULTIPOLES>
223.12
5.6
1.93
0.97
0.28
0.34
0.11
2.32
-0.13
-1.71
0.09
0.49
0.01
-0.2

> <PUBCHEM_SHAPE_SELFOVERLAP>
438.186

> <PUBCHEM_SHAPE_VOLUME>
133

> <PUBCHEM_COORDINATE_TYPE>
2
5
10

$$$$

