440597
  -OEChem-07051212502D

 37 38  0     1  0  0  0  0  0999 V2000
    5.1200   -1.1365    0.0000 O   0  0  0  0  0  0  0  0  0  0  0  0
    4.1200    0.5955    0.0000 O   0  0  0  0  0  0  0  0  0  0  0  0
    4.7540    1.2295    0.0000 O   0  0  0  0  0  0  0  0  0  0  0  0
    6.4860   -1.7705    0.0000 O   0  0  0  0  0  0  0  0  0  0  0  0
    4.6200   -2.0026    0.0000 O   0  0  0  0  0  0  0  0  0  0  0  0
    6.4860    2.2295    0.0000 O   0  0  0  0  0  0  0  0  0  0  0  0
    2.6200   -2.0026    0.0000 O   0  0  0  0  0  0  0  0  0  0  0  0
    8.2344   -1.8051    0.0000 O   0  0  0  0  0  0  0  0  0  0  0  0
    6.4860   -0.7705    0.0000 N   0  0  3  0  0  0  0  0  0  0  0  0
    6.4860    1.2295    0.0000 N   0  0  3  0  0  0  0  0  0  0  0  0
    8.2460    1.2642    0.0000 N   0  0  0  0  0  0  0  0  0  0  0  0
    9.1521   -0.2913    0.0000 N   0  0  0  0  0  0  0  0  0  0  0  0
   10.0162    1.2536    0.0000 N   0  0  0  0  0  0  0  0  0  0  0  0
    5.6200   -0.2705    0.0000 C   0  0  3  0  0  0  0  0  0  0  0  0
    4.6200   -0.2705    0.0000 C   0  0  3  0  0  0  0  0  0  0  0  0
    5.6200    0.7295    0.0000 C   0  0  3  0  0  0  0  0  0  0  0  0
    4.1200   -1.1365    0.0000 C   0  0  3  0  0  0  0  0  0  0  0  0
    7.3520   -0.2705    0.0000 C   0  0  0  0  0  0  0  0  0  0  0  0
    7.3520    0.7295    0.0000 C   0  0  0  0  0  0  0  0  0  0  0  0
    3.1200   -1.1365    0.0000 C   0  0  0  0  0  0  0  0  0  0  0  0
    8.2460   -0.8052    0.0000 C   0  0  0  0  0  0  0  0  0  0  0  0
    9.1521    0.7503    0.0000 C   0  0  0  0  0  0  0  0  0  0  0  0
    4.0000   -0.2705    0.0000 H   0  0  0  0  0  0  0  0  0  0  0  0
    5.6200    1.3495    0.0000 H   0  0  0  0  0  0  0  0  0  0  0  0
    4.7400   -1.1365    0.0000 H   0  0  0  0  0  0  0  0  0  0  0  0
    5.4300   -1.6735    0.0000 H   0  0  0  0  0  0  0  0  0  0  0  0
    3.2277   -0.5260    0.0000 H   0  0  0  0  0  0  0  0  0  0  0  0
    2.5374   -0.9245    0.0000 H   0  0  0  0  0  0  0  0  0  0  0  0
    3.5000    0.5955    0.0000 H   0  0  0  0  0  0  0  0  0  0  0  0
    4.7540    1.8495    0.0000 H   0  0  0  0  0  0  0  0  0  0  0  0
    8.2388    1.8841    0.0000 H   0  0  0  0  0  0  0  0  0  0  0  0
    7.0230   -2.0805    0.0000 H   0  0  0  0  0  0  0  0  0  0  0  0
    4.3100   -2.5395    0.0000 H   0  0  0  0  0  0  0  0  0  0  0  0
    5.9491    2.5395    0.0000 H   0  0  0  0  0  0  0  0  0  0  0  0
    2.0000   -2.0026    0.0000 H   0  0  0  0  0  0  0  0  0  0  0  0
   10.5543    0.9457    0.0000 H   0  0  0  0  0  0  0  0  0  0  0  0
   10.0138    1.8736    0.0000 H   0  0  0  0  0  0  0  0  0  0  0  0
  1 14  1  0  0  0  0
  1 26  1  0  0  0  0
  2 15  1  0  0  0  0
  2 29  1  0  0  0  0
  3 16  1  0  0  0  0
  3 30  1  0  0  0  0
  4  9  1  0  0  0  0
  4 32  1  0  0  0  0
  5 17  1  0  0  0  0
  5 33  1  0  0  0  0
  6 10  1  0  0  0  0
  6 34  1  0  0  0  0
  7 20  1  0  0  0  0
  7 35  1  0  0  0  0
  8 21  2  0  0  0  0
  9 14  1  0  0  0  0
  9 18  1  0  0  0  0
 10 16  1  0  0  0  0
 10 19  1  0  0  0  0
 11 19  1  0  0  0  0
 11 22  1  0  0  0  0
 11 31  1  0  0  0  0
 12 21  1  0  0  0  0
 12 22  2  0  0  0  0
 13 22  1  0  0  0  0
 13 36  1  0  0  0  0
 13 37  1  0  0  0  0
 14 15  1  0  0  0  0
 14 16  1  0  0  0  0
 15 17  1  0  0  0  0
 15 23  1  0  0  0  0
 16 24  1  0  0  0  0
 17 20  1  0  0  0  0
 17 25  1  0  0  0  0
 18 19  2  0  0  0  0
 18 21  1  0  0  0  0
 20 27  1  0  0  0  0
 20 28  1  0  0  0  0
M  END
> <PUBCHEM_COMPOUND_CID>
440597

> <PUBCHEM_COMPOUND_CANONICALIZED>
1

> <PUBCHEM_CACTVS_COMPLEXITY>
552

> <PUBCHEM_CACTVS_HBOND_ACCEPTOR>
10

> <PUBCHEM_CACTVS_HBOND_DONOR>
9

> <PUBCHEM_CACTVS_ROTATABLE_BOND>
3

> <PUBCHEM_CACTVS_SUBSKEYS>
AAADccBzvAAAAAAAAAAAAAAAAAAAAAAAAAAgQAAAAAAAAACAAAAAHgAUCAAACBzhgAYBAALQAgCoAAVQdACAAAEAAAAhAACIAECDUAIAgCAUQAAPAAKRAEDwMAIAAAAAAAAAAAAAAAAAAAAAAAAAAAAAAA==

> <PUBCHEM_IUPAC_OPENEYE_NAME>
2-amino-5,6,7,8-tetrahydroxy-6-(1,2,3-trihydroxypropyl)-1,7-dihydropteridin-4-one

> <PUBCHEM_IUPAC_CAS_NAME>
2-amino-5,6,7,8-tetrahydroxy-6-(1,2,3-trihydroxypropyl)-1,7-dihydropteridin-4-one

> <PUBCHEM_IUPAC_NAME>
2-amino-5,6,7,8-tetrahydroxy-6-(1,2,3-trihydroxypropyl)-1,7-dihydropteridin-4-one

> <PUBCHEM_IUPAC_SYSTEMATIC_NAME>
2-azanyl-5,6,7,8-tetrakis(oxidanyl)-6-[1,2,3-tris(oxidanyl)propyl]-1,7-dihydropteridin-4-one

> <PUBCHEM_IUPAC_TRADITIONAL_NAME>
2-amino-5,6,7,8-tetrahydroxy-6-(1,2,3-trihydroxypropyl)-1,7-dihydropteridin-4-one

> <PUBCHEM_IUPAC_INCHI>
InChI=1S/C9H15N5O8/c10-8-11-5-3(6(18)12-8)14(22)9(20,7(19)13(5)21)4(17)2(16)1-15/h2,4,7,15-17,19-22H,1H2,(H3,10,11,12,18)

> <PUBCHEM_IUPAC_INCHIKEY>
XWORXFNMQCQKKK-UHFFFAOYSA-N

> <PUBCHEM_XLOGP3_AA>
-3.3

> <PUBCHEM_EXACT_MASS>
321.092062

> <PUBCHEM_MOLECULAR_FORMULA>
C9H15N5O8

> <PUBCHEM_MOLECULAR_WEIGHT>
321.2441

> <PUBCHEM_OPENEYE_CAN_SMILES>
C(C(C(C1(C(N(C2=C(N1O)C(=O)N=C(N2)N)O)O)O)O)O)O

> <PUBCHEM_OPENEYE_ISO_SMILES>
C(C(C(C1(C(N(C2=C(N1O)C(=O)N=C(N2)N)O)O)O)O)O)O

> <PUBCHEM_CACTVS_TPSA>
216

> <PUBCHEM_MONOISOTOPIC_WEIGHT>
321.092062

> <PUBCHEM_TOTAL_CHARGE>
0

> <PUBCHEM_HEAVY_ATOM_COUNT>
22

> <PUBCHEM_ATOM_DEF_STEREO_COUNT>
0

> <PUBCHEM_ATOM_UDEF_STEREO_COUNT>
4

> <PUBCHEM_BOND_DEF_STEREO_COUNT>
0

> <PUBCHEM_BOND_UDEF_STEREO_COUNT>
0

> <PUBCHEM_ISOTOPIC_ATOM_COUNT>
0

> <PUBCHEM_COMPONENT_COUNT>
1

> <PUBCHEM_CACTVS_TAUTO_COUNT>
9

> <PUBCHEM_COORDINATE_TYPE>
1
5
255

> <PUBCHEM_BONDANNOTATIONS>
14  1  3
11  19  8
11  22  8
12  21  8
12  22  8
18  19  8
18  21  8
15  2  3
16  3  3
17  5  3

$$$$

