4595
  -OEChem-07051212532D

 41 44  0     1  0  0  0  0  0999 V2000
    5.3923   -1.6097    0.0000 O   0  0  0  0  0  0  0  0  0  0  0  0
    4.5274    1.6613    0.0000 N   0  0  0  0  0  0  0  0  0  0  0  0
    8.3780   -0.9952    0.0000 N   0  0  0  0  0  0  0  0  0  0  0  0
    9.9866   -1.1705    0.0000 N   0  0  0  0  0  0  0  0  0  0  0  0
    6.7328   -0.4536    0.0000 C   0  0  3  0  0  0  0  0  0  0  0  0
    7.0547    0.5371    0.0000 C   0  0  0  0  0  0  0  0  0  0  0  0
    6.3518    1.3057    0.0000 C   0  0  0  0  0  0  0  0  0  0  0  0
    5.3364    1.0735    0.0000 C   0  0  0  0  0  0  0  0  0  0  0  0
    5.0274    0.1224    0.0000 C   0  0  0  0  0  0  0  0  0  0  0  0
    5.7123   -0.6623    0.0000 C   0  0  0  0  0  0  0  0  0  0  0  0
    7.3991   -1.1993    0.0000 C   0  0  0  0  0  0  0  0  0  0  0  0
    4.0274    0.1224    0.0000 C   0  0  0  0  0  0  0  0  0  0  0  0
    3.7183    1.0735    0.0000 C   0  0  0  0  0  0  0  0  0  0  0  0
    4.5274    2.6613    0.0000 C   0  0  0  0  0  0  0  0  0  0  0  0
    3.3424   -0.6623    0.0000 C   0  0  0  0  0  0  0  0  0  0  0  0
    2.7029    1.3057    0.0000 C   0  0  0  0  0  0  0  0  0  0  0  0
    9.1186   -1.6672    0.0000 C   0  0  0  0  0  0  0  0  0  0  0  0
    8.7883   -0.0832    0.0000 C   0  0  0  0  0  0  0  0  0  0  0  0
    2.3219   -0.4536    0.0000 C   0  0  0  0  0  0  0  0  0  0  0  0
    2.0000    0.5371    0.0000 C   0  0  0  0  0  0  0  0  0  0  0  0
    9.7824   -0.1916    0.0000 C   0  0  0  0  0  0  0  0  0  0  0  0
    9.0102   -2.6613    0.0000 C   0  0  0  0  0  0  0  0  0  0  0  0
    6.5378   -1.0421    0.0000 H   0  0  0  0  0  0  0  0  0  0  0  0
    7.6029    0.2474    0.0000 H   0  0  0  0  0  0  0  0  0  0  0  0
    7.4339    1.0276    0.0000 H   0  0  0  0  0  0  0  0  0  0  0  0
    6.8742    1.6397    0.0000 H   0  0  0  0  0  0  0  0  0  0  0  0
    6.1122    1.8776    0.0000 H   0  0  0  0  0  0  0  0  0  0  0  0
    6.8720   -1.5258    0.0000 H   0  0  0  0  0  0  0  0  0  0  0  0
    7.6291   -1.7751    0.0000 H   0  0  0  0  0  0  0  0  0  0  0  0
    5.1474    2.6613    0.0000 H   0  0  0  0  0  0  0  0  0  0  0  0
    4.5274    3.2813    0.0000 H   0  0  0  0  0  0  0  0  0  0  0  0
    3.9074    2.6613    0.0000 H   0  0  0  0  0  0  0  0  0  0  0  0
    3.5408   -1.2497    0.0000 H   0  0  0  0  0  0  0  0  0  0  0  0
    2.5182    1.8976    0.0000 H   0  0  0  0  0  0  0  0  0  0  0  0
    8.4804    0.4549    0.0000 H   0  0  0  0  0  0  0  0  0  0  0  0
    1.9088   -0.9159    0.0000 H   0  0  0  0  0  0  0  0  0  0  0  0
    1.3940    0.6683    0.0000 H   0  0  0  0  0  0  0  0  0  0  0  0
   10.1990    0.2676    0.0000 H   0  0  0  0  0  0  0  0  0  0  0  0
    8.3939   -2.5941    0.0000 H   0  0  0  0  0  0  0  0  0  0  0  0
    8.9431   -3.2776    0.0000 H   0  0  0  0  0  0  0  0  0  0  0  0
    9.6266   -2.7285    0.0000 H   0  0  0  0  0  0  0  0  0  0  0  0
  1 10  2  0  0  0  0
  2  8  1  0  0  0  0
  2 13  1  0  0  0  0
  2 14  1  0  0  0  0
  3 11  1  0  0  0  0
  3 17  1  0  0  0  0
  3 18  1  0  0  0  0
  4 17  2  0  0  0  0
  4 21  1  0  0  0  0
  5  6  1  0  0  0  0
  5 10  1  0  0  0  0
  5 11  1  0  0  0  0
  5 23  1  0  0  0  0
  6  7  1  0  0  0  0
  6 24  1  0  0  0  0
  6 25  1  0  0  0  0
  7  8  1  0  0  0  0
  7 26  1  0  0  0  0
  7 27  1  0  0  0  0
  8  9  2  0  0  0  0
  9 10  1  0  0  0  0
  9 12  1  0  0  0  0
 11 28  1  0  0  0  0
 11 29  1  0  0  0  0
 12 13  1  0  0  0  0
 12 15  2  0  0  0  0
 13 16  2  0  0  0  0
 14 30  1  0  0  0  0
 14 31  1  0  0  0  0
 14 32  1  0  0  0  0
 15 19  1  0  0  0  0
 15 33  1  0  0  0  0
 16 20  1  0  0  0  0
 16 34  1  0  0  0  0
 17 22  1  0  0  0  0
 18 21  2  0  0  0  0
 18 35  1  0  0  0  0
 19 20  2  0  0  0  0
 19 36  1  0  0  0  0
 20 37  1  0  0  0  0
 21 38  1  0  0  0  0
 22 39  1  0  0  0  0
 22 40  1  0  0  0  0
 22 41  1  0  0  0  0
M  END
> <PUBCHEM_COMPOUND_CID>
4595

> <PUBCHEM_COMPOUND_CANONICALIZED>
1

> <PUBCHEM_CACTVS_COMPLEXITY>
440

> <PUBCHEM_CACTVS_HBOND_ACCEPTOR>
2

> <PUBCHEM_CACTVS_HBOND_DONOR>
0

> <PUBCHEM_CACTVS_ROTATABLE_BOND>
2

> <PUBCHEM_CACTVS_SUBSKEYS>
AAADceB7IAAAAAAAAAAAAAAAAAAAAWLAAAAwYAAAAAAAAFgB/AAAHgAAAAAADQzBnwQ/0PcMEACoA7Z3ZACCgC01EqAJ2CE4dNiIaPrAnZGUIYhogALIyWccicCegAAAAAACAAAQAAQAAAQAAAAAAAAAAA==

> <PUBCHEM_IUPAC_OPENEYE_NAME>
9-methyl-3-[(2-methylimidazol-1-yl)methyl]-2,3-dihydro-1H-carbazol-4-one

> <PUBCHEM_IUPAC_CAS_NAME>
9-methyl-3-[(2-methyl-1-imidazolyl)methyl]-2,3-dihydro-1H-carbazol-4-one

> <PUBCHEM_IUPAC_NAME>
9-methyl-3-[(2-methylimidazol-1-yl)methyl]-2,3-dihydro-1H-carbazol-4-one

> <PUBCHEM_IUPAC_SYSTEMATIC_NAME>
9-methyl-3-[(2-methylimidazol-1-yl)methyl]-2,3-dihydro-1H-carbazol-4-one

> <PUBCHEM_IUPAC_TRADITIONAL_NAME>
9-methyl-3-[(2-methylimidazol-1-yl)methyl]-2,3-dihydro-1H-carbazol-4-one

> <PUBCHEM_IUPAC_INCHI>
InChI=1S/C18H19N3O/c1-12-19-9-10-21(12)11-13-7-8-16-17(18(13)22)14-5-3-4-6-15(14)20(16)2/h3-6,9-10,13H,7-8,11H2,1-2H3

> <PUBCHEM_IUPAC_INCHIKEY>
FELGMEQIXOGIFQ-UHFFFAOYSA-N

> <PUBCHEM_XLOGP3_AA>
2.3

> <PUBCHEM_EXACT_MASS>
293.152812

> <PUBCHEM_MOLECULAR_FORMULA>
C18H19N3O

> <PUBCHEM_MOLECULAR_WEIGHT>
293.36296

> <PUBCHEM_OPENEYE_CAN_SMILES>
CC1=NC=CN1CC2CCC3=C(C2=O)C4=CC=CC=C4N3C

> <PUBCHEM_OPENEYE_ISO_SMILES>
CC1=NC=CN1CC2CCC3=C(C2=O)C4=CC=CC=C4N3C

> <PUBCHEM_CACTVS_TPSA>
39.8

> <PUBCHEM_MONOISOTOPIC_WEIGHT>
293.152812

> <PUBCHEM_TOTAL_CHARGE>
0

> <PUBCHEM_HEAVY_ATOM_COUNT>
22

> <PUBCHEM_ATOM_DEF_STEREO_COUNT>
0

> <PUBCHEM_ATOM_UDEF_STEREO_COUNT>
1

> <PUBCHEM_BOND_DEF_STEREO_COUNT>
0

> <PUBCHEM_BOND_UDEF_STEREO_COUNT>
0

> <PUBCHEM_ISOTOPIC_ATOM_COUNT>
0

> <PUBCHEM_COMPONENT_COUNT>
1

> <PUBCHEM_CACTVS_TAUTO_COUNT>
2

> <PUBCHEM_COORDINATE_TYPE>
1
5
255

> <PUBCHEM_BONDANNOTATIONS>
12  13  8
12  15  8
13  16  8
15  19  8
16  20  8
18  21  8
19  20  8
2  13  8
2  8  8
3  17  8
3  18  8
4  17  8
4  21  8
5  11  3
8  9  8
9  12  8

$$$$

