5377
  -OEChem-06261200393D

 58 60  0     0  0  0  0  0  0999 V2000
    4.4602   -0.9490    0.7526 O   0  0  0  0  0  0  0  0  0  0  0  0
   -2.6227    3.7263   -1.9122 O   0  0  0  0  0  0  0  0  0  0  0  0
    7.4591    0.7721   -0.5244 N   0  0  0  0  0  0  0  0  0  0  0  0
   -1.0898   -0.3384    0.2548 C   0  0  0  0  0  0  0  0  0  0  0  0
   -1.9270   -1.4166    0.0699 C   0  0  0  0  0  0  0  0  0  0  0  0
    0.3501   -0.4971    0.3836 C   0  0  0  0  0  0  0  0  0  0  0  0
   -1.5073   -2.8713   -0.0820 C   0  0  0  0  0  0  0  0  0  0  0  0
   -1.7170    1.0209    0.3243 C   0  0  0  0  0  0  0  0  0  0  0  0
   -3.3921   -1.2142   -0.0573 C   0  0  0  0  0  0  0  0  0  0  0  0
    1.1611   -0.4571   -0.7508 C   0  0  0  0  0  0  0  0  0  0  0  0
    0.9207   -0.6896    1.6419 C   0  0  0  0  0  0  0  0  0  0  0  0
   -1.2572   -3.2626   -1.5336 C   0  0  0  0  0  0  0  0  0  0  0  0
    3.1032   -0.7999    0.6306 C   0  0  0  0  0  0  0  0  0  0  0  0
   -1.8710    1.7298   -0.8419 C   0  0  0  0  0  0  0  0  0  0  0  0
   -2.1101    1.4965    1.5513 C   0  0  0  0  0  0  0  0  0  0  0  0
    2.5422   -0.6088   -0.6269 C   0  0  0  0  0  0  0  0  0  0  0  0
    2.3018   -0.8416    1.7659 C   0  0  0  0  0  0  0  0  0  0  0  0
   -3.9307   -1.0106   -1.3116 C   0  0  0  0  0  0  0  0  0  0  0  0
   -4.1708   -1.2348    1.0820 C   0  0  0  0  0  0  0  0  0  0  0  0
    6.5869    0.0995    0.4379 C   0  0  0  0  0  0  0  0  0  0  0  0
    5.2670   -0.2850   -0.2113 C   0  0  0  0  0  0  0  0  0  0  0  0
   -2.4547    2.9951   -0.7768 C   0  0  0  0  0  0  0  0  0  0  0  0
   -2.6935    2.7620    1.6161 C   0  0  0  0  0  0  0  0  0  0  0  0
   -5.3075   -0.8199   -1.4318 C   0  0  0  0  0  0  0  0  0  0  0  0
   -5.5474   -1.0439    0.9617 C   0  0  0  0  0  0  0  0  0  0  0  0
   -2.8658    3.5112    0.4521 C   0  0  0  0  0  0  0  0  0  0  0  0
   -6.1159   -0.8368   -0.2952 C   0  0  0  0  0  0  0  0  0  0  0  0
    8.7201    1.1551    0.1093 C   0  0  0  0  0  0  0  0  0  0  0  0
    7.7084   -0.0912   -1.6782 C   0  0  0  0  0  0  0  0  0  0  0  0
   -2.2645   -3.5365    0.3520 H   0  0  0  0  0  0  0  0  0  0  0  0
   -0.5945   -3.0605    0.4949 H   0  0  0  0  0  0  0  0  0  0  0  0
    0.7323   -0.3133   -1.7397 H   0  0  0  0  0  0  0  0  0  0  0  0
    0.3033   -0.7253    2.5363 H   0  0  0  0  0  0  0  0  0  0  0  0
   -0.5271   -2.6041   -2.0131 H   0  0  0  0  0  0  0  0  0  0  0  0
   -0.8682   -4.2851   -1.5811 H   0  0  0  0  0  0  0  0  0  0  0  0
   -2.1797   -3.2357   -2.1213 H   0  0  0  0  0  0  0  0  0  0  0  0
   -1.5483    1.3257   -1.7975 H   0  0  0  0  0  0  0  0  0  0  0  0
   -1.9791    0.9217    2.4633 H   0  0  0  0  0  0  0  0  0  0  0  0
    3.1330   -0.6011   -1.5377 H   0  0  0  0  0  0  0  0  0  0  0  0
    2.7421   -0.9914    2.7475 H   0  0  0  0  0  0  0  0  0  0  0  0
   -3.3127   -0.9897   -2.2046 H   0  0  0  0  0  0  0  0  0  0  0  0
   -3.7392   -1.3984    2.0656 H   0  0  0  0  0  0  0  0  0  0  0  0
    7.0631   -0.7945    0.8631 H   0  0  0  0  0  0  0  0  0  0  0  0
    6.3769    0.7636    1.2866 H   0  0  0  0  0  0  0  0  0  0  0  0
    4.7915    0.6334   -0.5814 H   0  0  0  0  0  0  0  0  0  0  0  0
    5.4027   -0.9888   -1.0378 H   0  0  0  0  0  0  0  0  0  0  0  0
   -3.0138    3.1638    2.5729 H   0  0  0  0  0  0  0  0  0  0  0  0
   -5.7496   -0.6567   -2.4103 H   0  0  0  0  0  0  0  0  0  0  0  0
   -6.1767   -1.0570    1.8468 H   0  0  0  0  0  0  0  0  0  0  0  0
   -3.3211    4.4962    0.5092 H   0  0  0  0  0  0  0  0  0  0  0  0
   -7.1876   -0.6879   -0.3887 H   0  0  0  0  0  0  0  0  0  0  0  0
    8.5370    1.8222    0.9592 H   0  0  0  0  0  0  0  0  0  0  0  0
    9.2841    0.2863    0.4679 H   0  0  0  0  0  0  0  0  0  0  0  0
    9.3517    1.7109   -0.5927 H   0  0  0  0  0  0  0  0  0  0  0  0
    8.4886    0.3422   -2.3164 H   0  0  0  0  0  0  0  0  0  0  0  0
    8.0394   -1.0953   -1.3891 H   0  0  0  0  0  0  0  0  0  0  0  0
    6.8308   -0.1698   -2.3272 H   0  0  0  0  0  0  0  0  0  0  0  0
   -2.2842    3.2166   -2.6684 H   0  0  0  0  0  0  0  0  0  0  0  0
  1 13  1  0  0  0  0
  1 21  1  0  0  0  0
  2 22  1  0  0  0  0
  2 58  1  0  0  0  0
  3 20  1  0  0  0  0
  3 28  1  0  0  0  0
  3 29  1  0  0  0  0
  4  5  2  0  0  0  0
  4  6  1  0  0  0  0
  4  8  1  0  0  0  0
  5  7  1  0  0  0  0
  5  9  1  0  0  0  0
  6 10  2  0  0  0  0
  6 11  1  0  0  0  0
  7 12  1  0  0  0  0
  7 30  1  0  0  0  0
  7 31  1  0  0  0  0
  8 14  2  0  0  0  0
  8 15  1  0  0  0  0
  9 18  2  0  0  0  0
  9 19  1  0  0  0  0
 10 16  1  0  0  0  0
 10 32  1  0  0  0  0
 11 17  2  0  0  0  0
 11 33  1  0  0  0  0
 12 34  1  0  0  0  0
 12 35  1  0  0  0  0
 12 36  1  0  0  0  0
 13 16  2  0  0  0  0
 13 17  1  0  0  0  0
 14 22  1  0  0  0  0
 14 37  1  0  0  0  0
 15 23  2  0  0  0  0
 15 38  1  0  0  0  0
 16 39  1  0  0  0  0
 17 40  1  0  0  0  0
 18 24  1  0  0  0  0
 18 41  1  0  0  0  0
 19 25  2  0  0  0  0
 19 42  1  0  0  0  0
 20 21  1  0  0  0  0
 20 43  1  0  0  0  0
 20 44  1  0  0  0  0
 21 45  1  0  0  0  0
 21 46  1  0  0  0  0
 22 26  2  0  0  0  0
 23 26  1  0  0  0  0
 23 47  1  0  0  0  0
 24 27  2  0  0  0  0
 24 48  1  0  0  0  0
 25 27  1  0  0  0  0
 25 49  1  0  0  0  0
 26 50  1  0  0  0  0
 27 51  1  0  0  0  0
 28 52  1  0  0  0  0
 28 53  1  0  0  0  0
 28 54  1  0  0  0  0
 29 55  1  0  0  0  0
 29 56  1  0  0  0  0
 29 57  1  0  0  0  0
M  END
> <PUBCHEM_COMPOUND_CID>
5377

> <PUBCHEM_CONFORMER_RMSD>
1

> <PUBCHEM_CONFORMER_DIVERSEORDER>
5
4
1
7
13
10
11
12
6
8
3
2
9

> <PUBCHEM_MMFF94_PARTIAL_CHARGES>
42
1 -0.36
10 -0.15
11 -0.15
13 0.08
14 -0.15
15 -0.15
16 -0.15
17 -0.15
18 -0.15
19 -0.15
2 -0.53
20 0.27
21 0.28
22 0.08
23 -0.15
24 -0.15
25 -0.15
26 -0.15
27 -0.15
28 0.27
29 0.27
3 -0.81
32 0.15
33 0.15
37 0.15
38 0.15
39 0.15
4 -0.06
40 0.15
41 0.15
42 0.15
47 0.15
48 0.15
49 0.15
5 -0.17
50 0.15
51 0.15
58 0.45
6 0.03
7 0.14
8 0.03
9 0.03

> <PUBCHEM_EFFECTIVE_ROTOR_COUNT>
8

> <PUBCHEM_PHARMACOPHORE_FEATURES>
7
1 1 acceptor
1 12 hydrophobe
1 2 donor
1 3 cation
6 6 10 11 13 16 17 rings
6 8 14 15 22 23 26 rings
6 9 18 19 24 25 27 rings

> <PUBCHEM_HEAVY_ATOM_COUNT>
29

> <PUBCHEM_ATOM_DEF_STEREO_COUNT>
0

> <PUBCHEM_ATOM_UDEF_STEREO_COUNT>
0

> <PUBCHEM_BOND_DEF_STEREO_COUNT>
0

> <PUBCHEM_BOND_UDEF_STEREO_COUNT>
1

> <PUBCHEM_ISOTOPIC_ATOM_COUNT>
0

> <PUBCHEM_COMPONENT_COUNT>
1

> <PUBCHEM_CACTVS_TAUTO_COUNT>
3

> <PUBCHEM_CONFORMER_ID>
0000150100000005

> <PUBCHEM_MMFF94_ENERGY>
105.3386

> <PUBCHEM_FEATURE_SELFOVERLAP>
35.52

> <PUBCHEM_SHAPE_FINGERPRINT>
10076449 9 18340767040556988107
10165383 225 17749380477825018715
104564 63 18337678628706263617
10670039 82 18412263948067926744
11101153 10 18271520910462371820
11578080 2 17679008546981554601
12107698 1 18335423439720724832
12236239 1 17917999398795327346
12788726 201 18271256001242457323
13140716 1 18192434074089560043
13911987 19 18270415935915718519
14118638 360 18412262865963040922
14856354 85 15719383997701157899
14955137 171 18262796243310525907
15338160 23 18261384598607209353
15575132 122 18341337772558197775
16752209 62 18266761210603774467
17980427 23 17988633142523538269
18603816 31 14201403789744674276
20600515 1 18042392557257901883
21236236 1 18337109059280019209
21792961 116 17530676650631097446
23559900 14 17969228845785096290
283562 15 18336830887834902675
34797466 226 17968089795273604676
350125 39 18408604772790459193
3552219 110 18337655435361347433
4098825 35 17895183472294867350
445580 37 18343579651472046660
469060 322 18341884234833809529
5171179 24 17824004280953438721
5265222 85 18113899347457654878
7226269 152 18412548695625340955
7237137 82 18335706073774090105

> <PUBCHEM_SHAPE_MULTIPOLES>
580.09
17.4
3.37
1.62
45.47
2.68
-0.05
1.01
-3.65
-5.2
-0.9
-0.44
0.28
-0.28

> <PUBCHEM_SHAPE_SELFOVERLAP>
1241.5

> <PUBCHEM_SHAPE_VOLUME>
323.4

> <PUBCHEM_COORDINATE_TYPE>
2
5
10

$$$$

