443689
  -OEChem-07051213022D

 40 43  0     1  0  0  0  0  0999 V2000
    2.5405   -0.9473    0.0000 O   0  0  0  0  0  0  0  0  0  0  0  0
    2.5247   -2.9955    0.0000 O   0  0  0  0  0  0  0  0  0  0  0  0
    4.2986    3.1188    0.0000 O   0  0  0  0  0  0  0  0  0  0  0  0
    2.5247    2.0947    0.0000 O   0  0  0  0  0  0  0  0  0  0  0  0
    6.0427   -0.9504    0.0000 N   0  0  3  0  0  0  0  0  0  0  0  0
    5.1767   -1.4504    0.0000 C   0  0  1  0  0  0  0  0  0  0  0  0
    4.3107   -0.9504    0.0000 C   0  0  1  0  0  0  0  0  0  0  0  0
    5.1928   -2.4919    0.0000 C   0  0  0  0  0  0  0  0  0  0  0  0
    3.4007   -1.4572    0.0000 C   0  0  1  0  0  0  0  0  0  0  0  0
    6.6606   -1.7288    0.0000 C   0  0  0  0  0  0  0  0  0  0  0  0
    6.1808   -2.5990    0.0000 C   0  0  0  0  0  0  0  0  0  0  0  0
    4.3107    0.0496    0.0000 C   0  0  0  0  0  0  0  0  0  0  0  0
    6.0427    0.0496    0.0000 C   0  0  0  0  0  0  0  0  0  0  0  0
    3.3926   -2.4988    0.0000 C   0  0  2  0  0  0  0  0  0  0  0  0
    5.1767    0.5496    0.0000 C   0  0  0  0  0  0  0  0  0  0  0  0
    4.2947   -3.0197    0.0000 C   0  0  0  0  0  0  0  0  0  0  0  0
    3.4007    0.5564    0.0000 C   0  0  0  0  0  0  0  0  0  0  0  0
    5.1928    1.5911    0.0000 C   0  0  0  0  0  0  0  0  0  0  0  0
    3.3926    1.5980    0.0000 C   0  0  0  0  0  0  0  0  0  0  0  0
    4.2947    2.1188    0.0000 C   0  0  0  0  0  0  0  0  0  0  0  0
    5.1665    3.6155    0.0000 C   0  0  0  0  0  0  0  0  0  0  0  0
    4.4406   -1.8754    0.0000 H   0  0  0  0  0  0  0  0  0  0  0  0
    5.0468   -0.5254    0.0000 H   0  0  0  0  0  0  0  0  0  0  0  0
    3.4090   -0.8373    0.0000 H   0  0  0  0  0  0  0  0  0  0  0  0
    7.1595   -2.0970    0.0000 H   0  0  0  0  0  0  0  0  0  0  0  0
    7.0913   -1.2827    0.0000 H   0  0  0  0  0  0  0  0  0  0  0  0
    6.0334   -3.2013    0.0000 H   0  0  0  0  0  0  0  0  0  0  0  0
    6.7584   -2.8244    0.0000 H   0  0  0  0  0  0  0  0  0  0  0  0
    6.6533   -0.0581    0.0000 H   0  0  0  0  0  0  0  0  0  0  0  0
    6.2548    0.6322    0.0000 H   0  0  0  0  0  0  0  0  0  0  0  0
    3.3914   -3.1188    0.0000 H   0  0  0  0  0  0  0  0  0  0  0  0
    4.2971   -3.6397    0.0000 H   0  0  0  0  0  0  0  0  0  0  0  0
    2.8674    0.2403    0.0000 H   0  0  0  0  0  0  0  0  0  0  0  0
    5.7332    1.8949    0.0000 H   0  0  0  0  0  0  0  0  0  0  0  0
    2.0000   -1.2510    0.0000 H   0  0  0  0  0  0  0  0  0  0  0  0
    2.5223   -3.6155    0.0000 H   0  0  0  0  0  0  0  0  0  0  0  0
    2.5223    2.7147    0.0000 H   0  0  0  0  0  0  0  0  0  0  0  0
    5.4744    3.0774    0.0000 H   0  0  0  0  0  0  0  0  0  0  0  0
    5.7046    3.9234    0.0000 H   0  0  0  0  0  0  0  0  0  0  0  0
    4.8586    4.1536    0.0000 H   0  0  0  0  0  0  0  0  0  0  0  0
  9  1  1  1  0  0  0
  1 35  1  0  0  0  0
 14  2  1  6  0  0  0
  2 36  1  0  0  0  0
  3 20  1  0  0  0  0
  3 21  1  0  0  0  0
  4 19  1  0  0  0  0
  4 37  1  0  0  0  0
  5  6  1  0  0  0  0
  5 10  1  0  0  0  0
  5 13  1  0  0  0  0
  6  7  1  0  0  0  0
  6  8  1  0  0  0  0
  6 22  1  1  0  0  0
  7  9  1  0  0  0  0
  7 12  1  0  0  0  0
  7 23  1  6  0  0  0
  8 11  1  0  0  0  0
  8 16  2  0  0  0  0
  9 14  1  0  0  0  0
  9 24  1  0  0  0  0
 10 11  1  0  0  0  0
 10 25  1  0  0  0  0
 10 26  1  0  0  0  0
 11 27  1  0  0  0  0
 11 28  1  0  0  0  0
 12 15  1  0  0  0  0
 12 17  2  0  0  0  0
 13 15  1  0  0  0  0
 13 29  1  0  0  0  0
 13 30  1  0  0  0  0
 14 16  1  0  0  0  0
 14 31  1  0  0  0  0
 15 18  2  0  0  0  0
 16 32  1  0  0  0  0
 17 19  1  0  0  0  0
 17 33  1  0  0  0  0
 18 20  1  0  0  0  0
 18 34  1  0  0  0  0
 19 20  2  0  0  0  0
 21 38  1  0  0  0  0
 21 39  1  0  0  0  0
 21 40  1  0  0  0  0
M  END
> <PUBCHEM_COMPOUND_CID>
443689

> <PUBCHEM_COMPOUND_CANONICALIZED>
1

> <PUBCHEM_CACTVS_COMPLEXITY>
454

> <PUBCHEM_CACTVS_HBOND_ACCEPTOR>
5

> <PUBCHEM_CACTVS_HBOND_DONOR>
3

> <PUBCHEM_CACTVS_ROTATABLE_BOND>
1

> <PUBCHEM_CACTVS_SUBSKEYS>
AAADceB6OAAAAAAAAAAAAAAAAAAAAWAAAAA8QIAAAAAAAFixAAAAHgAACAAADTzhmAYyBoMABgCAAiBCAACCCAAgIAAAiAAOjIgNNiKGsRuEcCtmwBGLuAew8PcOoAABAAAQQABAAAIAACCAAAAAAAAAAA==

> <PUBCHEM_IUPAC_INCHI>
InChI=1S/C16H19NO4/c1-21-13-5-9-7-17-3-2-8-4-12(19)16(20)14(15(8)17)10(9)6-11(13)18/h4-6,12,14-16,18-20H,2-3,7H2,1H3/t12-,14-,15+,16+/m0/s1

> <PUBCHEM_IUPAC_INCHIKEY>
CKAHWDNDUGDSLE-ARLBYUKCSA-N

> <PUBCHEM_XLOGP3_AA>
-0.2

> <PUBCHEM_EXACT_MASS>
289.131408

> <PUBCHEM_MOLECULAR_FORMULA>
C16H19NO4

> <PUBCHEM_MOLECULAR_WEIGHT>
289.32636

> <PUBCHEM_OPENEYE_CAN_SMILES>
COC1=C(C=C2C3C(C(C=C4C3N(CC4)CC2=C1)O)O)O

> <PUBCHEM_OPENEYE_ISO_SMILES>
COC1=C(C=C2[C@@H]3[C@@H]([C@H](C=C4[C@H]3N(CC4)CC2=C1)O)O)O

> <PUBCHEM_CACTVS_TPSA>
73.2

> <PUBCHEM_MONOISOTOPIC_WEIGHT>
289.131408

> <PUBCHEM_TOTAL_CHARGE>
0

> <PUBCHEM_HEAVY_ATOM_COUNT>
21

> <PUBCHEM_ATOM_DEF_STEREO_COUNT>
4

> <PUBCHEM_ATOM_UDEF_STEREO_COUNT>
0

> <PUBCHEM_BOND_DEF_STEREO_COUNT>
0

> <PUBCHEM_BOND_UDEF_STEREO_COUNT>
0

> <PUBCHEM_ISOTOPIC_ATOM_COUNT>
0

> <PUBCHEM_COMPONENT_COUNT>
1

> <PUBCHEM_CACTVS_TAUTO_COUNT>
9

> <PUBCHEM_COORDINATE_TYPE>
1
5
255

> <PUBCHEM_BONDANNOTATIONS>
9  1  5
12  15  8
12  17  8
15  18  8
17  19  8
18  20  8
19  20  8
14  2  6
6  22  5
7  23  6

$$$$

