5281615
  -OEChem-07051212583D

 52 55  0     1  0  0  0  0  0999 V2000
    0.8988   -1.3112   -0.9260 O   0  0  0  0  0  0  0  0  0  0  0  0
    3.5980   -1.6802    1.5332 O   0  0  0  0  0  0  0  0  0  0  0  0
    1.6209   -3.6946    2.3513 O   0  0  0  0  0  0  0  0  0  0  0  0
    0.2488   -4.7775    0.0601 O   0  0  0  0  0  0  0  0  0  0  0  0
    0.1585    0.7544    0.0313 O   0  0  0  0  0  0  0  0  0  0  0  0
   -0.6370   -2.0765   -3.0709 O   0  0  0  0  0  0  0  0  0  0  0  0
    4.8033   -0.0280   -0.6392 O   0  0  0  0  0  0  0  0  0  0  0  0
    0.7283    4.7869    0.1665 O   0  0  0  0  0  0  0  0  0  0  0  0
   -1.8563    3.8084    0.4797 O   0  0  0  0  0  0  0  0  0  0  0  0
   -4.9606   -0.2133   -1.7447 O   0  0  0  0  0  0  0  0  0  0  0  0
   -5.8439   -1.0006    0.7704 O   0  0  0  0  0  0  0  0  0  0  0  0
    2.2534   -1.7527    1.0594 C   0  0  2  0  0  0  0  0  0  0  0  0
    1.8183   -3.2202    1.0182 C   0  0  2  0  0  0  0  0  0  0  0  0
    2.1905   -1.1211   -0.3398 C   0  0  2  0  0  0  0  0  0  0  0  0
    0.5031   -3.3891    0.2579 C   0  0  1  0  0  0  0  0  0  0  0  0
    0.5678   -2.6894   -1.1011 C   0  0  1  0  0  0  0  0  0  0  0  0
    2.4634    0.3698   -0.3015 C   0  0  0  0  0  0  0  0  0  0  0  0
   -0.7692   -2.7503   -1.8325 C   0  0  0  0  0  0  0  0  0  0  0  0
    1.4185    1.2749   -0.1141 C   0  0  0  0  0  0  0  0  0  0  0  0
    3.7683    0.8385   -0.4548 C   0  0  0  0  0  0  0  0  0  0  0  0
    1.6793    2.6429   -0.0798 C   0  0  0  0  0  0  0  0  0  0  0  0
    4.0283    2.2091   -0.4204 C   0  0  0  0  0  0  0  0  0  0  0  0
    2.9849    3.1163   -0.2326 C   0  0  0  0  0  0  0  0  0  0  0  0
    0.5599    3.5757    0.1217 C   0  0  0  0  0  0  0  0  0  0  0  0
   -0.9018    1.6289    0.2085 C   0  0  0  0  0  0  0  0  0  0  0  0
   -0.7846    2.9679    0.2692 C   0  0  0  0  0  0  0  0  0  0  0  0
   -2.1969    0.9403    0.3521 C   0  0  0  0  0  0  0  0  0  0  0  0
   -2.9798    0.6834   -0.7738 C   0  0  0  0  0  0  0  0  0  0  0  0
   -2.6411    0.5451    1.6144 C   0  0  0  0  0  0  0  0  0  0  0  0
   -4.2054    0.0317   -0.6377 C   0  0  0  0  0  0  0  0  0  0  0  0
   -3.8668   -0.1065    1.7505 C   0  0  0  0  0  0  0  0  0  0  0  0
   -4.6490   -0.3632    0.6245 C   0  0  0  0  0  0  0  0  0  0  0  0
    1.6180   -1.2120    1.7727 H   0  0  0  0  0  0  0  0  0  0  0  0
    2.6107   -3.8412    0.5822 H   0  0  0  0  0  0  0  0  0  0  0  0
    2.9248   -1.5940   -1.0056 H   0  0  0  0  0  0  0  0  0  0  0  0
   -0.3207   -2.9866    0.8602 H   0  0  0  0  0  0  0  0  0  0  0  0
    1.3278   -3.1509   -1.7462 H   0  0  0  0  0  0  0  0  0  0  0  0
   -1.5609   -2.2526   -1.2631 H   0  0  0  0  0  0  0  0  0  0  0  0
   -1.0747   -3.7813   -2.0326 H   0  0  0  0  0  0  0  0  0  0  0  0
    3.7750   -0.7581    1.7844 H   0  0  0  0  0  0  0  0  0  0  0  0
    1.3350   -4.6222    2.2908 H   0  0  0  0  0  0  0  0  0  0  0  0
    0.9723   -5.1416   -0.4780 H   0  0  0  0  0  0  0  0  0  0  0  0
    5.0413    2.5851   -0.5386 H   0  0  0  0  0  0  0  0  0  0  0  0
    3.2068    4.1795   -0.2083 H   0  0  0  0  0  0  0  0  0  0  0  0
   -0.3725   -1.1603   -2.8797 H   0  0  0  0  0  0  0  0  0  0  0  0
    5.6299    0.4774   -0.7242 H   0  0  0  0  0  0  0  0  0  0  0  0
   -2.6337    0.9891   -1.7590 H   0  0  0  0  0  0  0  0  0  0  0  0
   -2.0418    0.7372    2.5011 H   0  0  0  0  0  0  0  0  0  0  0  0
   -1.5153    4.7194    0.4900 H   0  0  0  0  0  0  0  0  0  0  0  0
   -4.2065   -0.4120    2.7365 H   0  0  0  0  0  0  0  0  0  0  0  0
   -4.4957    0.1280   -2.5278 H   0  0  0  0  0  0  0  0  0  0  0  0
   -6.2494   -1.0953   -0.1090 H   0  0  0  0  0  0  0  0  0  0  0  0
  1 14  1  0  0  0  0
  1 16  1  0  0  0  0
  2 12  1  0  0  0  0
  2 40  1  0  0  0  0
  3 13  1  0  0  0  0
  3 41  1  0  0  0  0
  4 15  1  0  0  0  0
  4 42  1  0  0  0  0
  5 19  1  0  0  0  0
  5 25  1  0  0  0  0
  6 18  1  0  0  0  0
  6 45  1  0  0  0  0
  7 20  1  0  0  0  0
  7 46  1  0  0  0  0
  8 24  2  0  0  0  0
  9 26  1  0  0  0  0
  9 49  1  0  0  0  0
 10 30  1  0  0  0  0
 10 51  1  0  0  0  0
 11 32  1  0  0  0  0
 11 52  1  0  0  0  0
 12 13  1  0  0  0  0
 12 14  1  0  0  0  0
 12 33  1  0  0  0  0
 13 15  1  0  0  0  0
 13 34  1  0  0  0  0
 14 17  1  0  0  0  0
 14 35  1  0  0  0  0
 15 16  1  0  0  0  0
 15 36  1  0  0  0  0
 16 18  1  0  0  0  0
 16 37  1  0  0  0  0
 17 19  1  0  0  0  0
 17 20  2  0  0  0  0
 18 38  1  0  0  0  0
 18 39  1  0  0  0  0
 19 21  2  0  0  0  0
 20 22  1  0  0  0  0
 21 23  1  0  0  0  0
 21 24  1  0  0  0  0
 22 23  2  0  0  0  0
 22 43  1  0  0  0  0
 23 44  1  0  0  0  0
 24 26  1  0  0  0  0
 25 26  2  0  0  0  0
 25 27  1  0  0  0  0
 27 28  2  0  0  0  0
 27 29  1  0  0  0  0
 28 30  1  0  0  0  0
 28 47  1  0  0  0  0
 29 31  2  0  0  0  0
 29 48  1  0  0  0  0
 30 32  2  0  0  0  0
 31 32  1  0  0  0  0
 31 50  1  0  0  0  0
M  END
> <PUBCHEM_COMPOUND_CID>
5281615

> <PUBCHEM_CONFORMER_RMSD>
0.8

> <PUBCHEM_CONFORMER_DIVERSEORDER>
1
12
17
8
5
16
23
25
19
3
20
6
13
7
18
11
9
15
22
24
4
2
21
10
14

> <PUBCHEM_MMFF94_PARTIAL_CHARGES>
45
1 -0.56
10 -0.53
11 -0.53
12 0.28
13 0.28
14 0.42
15 0.28
16 0.28
17 -0.14
18 0.28
19 0.08
2 -0.68
20 0.08
21 0.09
22 -0.15
23 -0.15
24 0.47
25 0.05
26 0.09
27 0.03
28 -0.15
29 -0.15
3 -0.68
30 0.08
31 -0.15
32 0.08
4 -0.68
40 0.4
41 0.4
42 0.4
43 0.15
44 0.15
45 0.4
46 0.45
47 0.15
48 0.15
49 0.45
5 -0.16
50 0.15
51 0.45
52 0.45
6 -0.68
7 -0.53
8 -0.57
9 -0.53

> <PUBCHEM_EFFECTIVE_ROTOR_COUNT>
4.2

> <PUBCHEM_PHARMACOPHORE_FEATURES>
19
1 1 acceptor
1 10 donor
1 11 donor
1 2 acceptor
1 2 donor
1 3 acceptor
1 3 donor
1 4 acceptor
1 4 donor
1 5 acceptor
1 6 acceptor
1 6 donor
1 7 donor
1 8 acceptor
1 9 donor
6 1 12 13 14 15 16 rings
6 17 19 20 21 22 23 rings
6 27 28 29 30 31 32 rings
6 5 19 21 24 25 26 rings

> <PUBCHEM_HEAVY_ATOM_COUNT>
32

> <PUBCHEM_ATOM_DEF_STEREO_COUNT>
5

> <PUBCHEM_ATOM_UDEF_STEREO_COUNT>
0

> <PUBCHEM_BOND_DEF_STEREO_COUNT>
0

> <PUBCHEM_BOND_UDEF_STEREO_COUNT>
0

> <PUBCHEM_ISOTOPIC_ATOM_COUNT>
0

> <PUBCHEM_COMPONENT_COUNT>
1

> <PUBCHEM_CACTVS_TAUTO_COUNT>
211

> <PUBCHEM_CONFORMER_ID>
0050974F00000001

> <PUBCHEM_MMFF94_ENERGY>
97.4289

> <PUBCHEM_FEATURE_SELFOVERLAP>
96.494

> <PUBCHEM_SHAPE_FINGERPRINT>
10675989 125 16748488145669557143
1100329 8 18266460893563331496
11421498 54 17314485158985483147
11578080 2 16772107188141625894
12156800 1 13942541622083702639
12553582 1 18266165313750126857
13140716 1 17832144922831672600
1361 2 18338230445708912643
13911987 19 18199739263271738772
140371 6 17834969945875460996
14117953 113 18044381754075583365
14790565 3 18265596732842567984
15131766 46 15622822555527679332
15297060 5 16733252474878980815
16728300 4 17701285679089376448
17138139 8 17319036944157123439
19311894 1 18262236621181461710
19319366 153 18200590290235809364
19591789 44 18195238919228948033
20028762 73 18260261932647067262
20511986 3 17821728321816747009
21197605 99 17688571785651583499
21421861 104 18194384813812101705
23559900 14 18196944489455346456
25222932 49 18269828736561249251
3178227 256 18268978813555546313
3298306 158 18343306924964091469
3383291 50 18411975893697626034
3882209 13 17479489027911966939
4409770 3 15090331057727145633
463206 1 18337107839889056733
469060 322 17544812018392397819
484985 159 15329023611519610498
5309563 4 18411129230529973969
6287921 2 17459460233874177991
6438718 38 17609198075216342278
9896288 288 17975422631577135792

> <PUBCHEM_SHAPE_MULTIPOLES>
593.98
8.03
5.82
1.65
7.5
0.81
-0.36
-1.26
0.37
-3.47
0.76
0.85
1.72
-1.33

> <PUBCHEM_SHAPE_SELFOVERLAP>
1312.431

> <PUBCHEM_SHAPE_VOLUME>
315

> <PUBCHEM_COORDINATE_TYPE>
2
5
10

$$$$

