15161496
  -OEChem-07051213113D

 52 55  0     1  0  0  0  0  0999 V2000
    0.8146   -0.4269   -0.2626 C   0  0  1  0  0  0  0  0  0  0  0  0
   -0.7632   -0.6071   -0.4555 C   0  0  2  0  0  0  0  0  0  0  0  0
   -1.5000    0.6209    0.2071 C   0  0  2  0  0  0  0  0  0  0  0  0
    1.2948    0.9755   -0.8227 C   0  0  1  0  0  0  0  0  0  0  0  0
    1.3346   -0.5196    1.1966 C   0  0  0  0  0  0  0  0  0  0  0  0
    1.6510   -1.5683   -0.9455 C   0  0  0  0  0  0  0  0  0  0  0  0
   -3.0631    0.5138    0.3891 C   0  0  0  0  0  0  0  0  0  0  0  0
    2.8448   -0.6976    0.9788 C   0  0  1  0  0  0  0  0  0  0  0  0
   -1.2829   -1.9138    0.2130 C   0  0  0  0  0  0  0  0  0  0  0  0
   -1.0510    1.9431   -0.4418 C   0  0  0  0  0  0  0  0  0  0  0  0
    0.4508    2.1536   -0.3102 C   0  0  0  0  0  0  0  0  0  0  0  0
    2.8642   -1.8357   -0.0399 C   0  0  0  0  0  0  0  0  0  0  0  0
   -1.0455   -0.7213   -1.9819 C   0  0  0  0  0  0  0  0  0  0  0  0
   -3.4381   -0.8707    0.9685 C   0  0  0  0  0  0  0  0  0  0  0  0
   -2.8042   -2.0390    0.2298 C   0  0  0  0  0  0  0  0  0  0  0  0
    2.7425    1.2894   -0.4898 C   0  0  0  0  0  0  0  0  0  0  0  0
    3.4667    0.5308    0.3507 C   0  0  0  0  0  0  0  0  0  0  0  0
   -3.8808    0.7861   -0.8893 C   0  0  0  0  0  0  0  0  0  0  0  0
   -3.5348    1.5671    1.4301 C   0  0  0  0  0  0  0  0  0  0  0  0
    4.8993    0.8198    0.6755 C   0  0  0  0  0  0  0  0  0  0  0  0
   -1.1206    0.6531    1.2401 H   0  0  0  0  0  0  0  0  0  0  0  0
    1.2219    0.9555   -1.9175 H   0  0  0  0  0  0  0  0  0  0  0  0
    0.9514   -1.3961    1.7274 H   0  0  0  0  0  0  0  0  0  0  0  0
    1.1059    0.3608    1.8050 H   0  0  0  0  0  0  0  0  0  0  0  0
    1.9745   -1.2811   -1.9527 H   0  0  0  0  0  0  0  0  0  0  0  0
    1.0944   -2.5034   -1.0500 H   0  0  0  0  0  0  0  0  0  0  0  0
    3.3500   -0.9625    1.9131 H   0  0  0  0  0  0  0  0  0  0  0  0
   -0.9512   -1.9688    1.2542 H   0  0  0  0  0  0  0  0  0  0  0  0
   -0.8760   -2.7984   -0.2882 H   0  0  0  0  0  0  0  0  0  0  0  0
   -1.5425    2.7972    0.0346 H   0  0  0  0  0  0  0  0  0  0  0  0
   -1.3345    1.9833   -1.4983 H   0  0  0  0  0  0  0  0  0  0  0  0
    0.7243    3.0667   -0.8559 H   0  0  0  0  0  0  0  0  0  0  0  0
    0.6810    2.3582    0.7439 H   0  0  0  0  0  0  0  0  0  0  0  0
    2.7302   -2.7963    0.4729 H   0  0  0  0  0  0  0  0  0  0  0  0
    3.7950   -1.8988   -0.6138 H   0  0  0  0  0  0  0  0  0  0  0  0
   -0.5082   -1.5671   -2.4241 H   0  0  0  0  0  0  0  0  0  0  0  0
   -2.0933   -0.9015   -2.2113 H   0  0  0  0  0  0  0  0  0  0  0  0
   -0.7460    0.1684   -2.5402 H   0  0  0  0  0  0  0  0  0  0  0  0
   -4.5281   -0.9992    0.9743 H   0  0  0  0  0  0  0  0  0  0  0  0
   -3.1225   -0.9230    2.0197 H   0  0  0  0  0  0  0  0  0  0  0  0
   -3.2073   -2.1233   -0.7837 H   0  0  0  0  0  0  0  0  0  0  0  0
   -3.0766   -2.9706    0.7409 H   0  0  0  0  0  0  0  0  0  0  0  0
    3.1868    2.1634   -0.9584 H   0  0  0  0  0  0  0  0  0  0  0  0
   -3.7678    0.0129   -1.6473 H   0  0  0  0  0  0  0  0  0  0  0  0
   -4.9530    0.8248   -0.6588 H   0  0  0  0  0  0  0  0  0  0  0  0
   -3.6228    1.7483   -1.3421 H   0  0  0  0  0  0  0  0  0  0  0  0
   -3.4391    2.5900    1.0532 H   0  0  0  0  0  0  0  0  0  0  0  0
   -4.5906    1.4196    1.6874 H   0  0  0  0  0  0  0  0  0  0  0  0
   -2.9597    1.4950    2.3600 H   0  0  0  0  0  0  0  0  0  0  0  0
    5.5331   -0.0250    0.3873 H   0  0  0  0  0  0  0  0  0  0  0  0
    5.0168    0.9923    1.7501 H   0  0  0  0  0  0  0  0  0  0  0  0
    5.2682    1.7081    0.1523 H   0  0  0  0  0  0  0  0  0  0  0  0
  1  2  1  0  0  0  0
  1  4  1  0  0  0  0
  1  5  1  0  0  0  0
  1  6  1  0  0  0  0
  2  3  1  0  0  0  0
  2  9  1  0  0  0  0
  2 13  1  0  0  0  0
  3  7  1  0  0  0  0
  3 10  1  0  0  0  0
  3 21  1  0  0  0  0
  4 11  1  0  0  0  0
  4 16  1  0  0  0  0
  4 22  1  0  0  0  0
  5  8  1  0  0  0  0
  5 23  1  0  0  0  0
  5 24  1  0  0  0  0
  6 12  1  0  0  0  0
  6 25  1  0  0  0  0
  6 26  1  0  0  0  0
  7 14  1  0  0  0  0
  7 18  1  0  0  0  0
  7 19  1  0  0  0  0
  8 12  1  0  0  0  0
  8 17  1  0  0  0  0
  8 27  1  0  0  0  0
  9 15  1  0  0  0  0
  9 28  1  0  0  0  0
  9 29  1  0  0  0  0
 10 11  1  0  0  0  0
 10 30  1  0  0  0  0
 10 31  1  0  0  0  0
 11 32  1  0  0  0  0
 11 33  1  0  0  0  0
 12 34  1  0  0  0  0
 12 35  1  0  0  0  0
 13 36  1  0  0  0  0
 13 37  1  0  0  0  0
 13 38  1  0  0  0  0
 14 15  1  0  0  0  0
 14 39  1  0  0  0  0
 14 40  1  0  0  0  0
 15 41  1  0  0  0  0
 15 42  1  0  0  0  0
 16 17  2  0  0  0  0
 16 43  1  0  0  0  0
 17 20  1  0  0  0  0
 18 44  1  0  0  0  0
 18 45  1  0  0  0  0
 18 46  1  0  0  0  0
 19 47  1  0  0  0  0
 19 48  1  0  0  0  0
 19 49  1  0  0  0  0
 20 50  1  0  0  0  0
 20 51  1  0  0  0  0
 20 52  1  0  0  0  0
M  END
> <PUBCHEM_COMPOUND_CID>
15161496

> <PUBCHEM_CONFORMER_RMSD>
0.6

> <PUBCHEM_CONFORMER_DIVERSEORDER>
1

> <PUBCHEM_MMFF94_PARTIAL_CHARGES>
6
16 -0.29
17 -0.28
20 0.14
4 0.14
43 0.15
8 0.14

> <PUBCHEM_EFFECTIVE_ROTOR_COUNT>
1.8

> <PUBCHEM_PHARMACOPHORE_FEATURES>
4
3 7 18 19 hydrophobe
6 1 2 3 4 10 11 rings
6 2 3 7 9 14 15 rings
8 1 4 5 6 8 12 16 17 rings

> <PUBCHEM_HEAVY_ATOM_COUNT>
20

> <PUBCHEM_ATOM_DEF_STEREO_COUNT>
5

> <PUBCHEM_ATOM_UDEF_STEREO_COUNT>
0

> <PUBCHEM_BOND_DEF_STEREO_COUNT>
0

> <PUBCHEM_BOND_UDEF_STEREO_COUNT>
0

> <PUBCHEM_ISOTOPIC_ATOM_COUNT>
0

> <PUBCHEM_COMPONENT_COUNT>
1

> <PUBCHEM_CACTVS_TAUTO_COUNT>
1

> <PUBCHEM_CONFORMER_ID>
00E7589800000001

> <PUBCHEM_MMFF94_ENERGY>
79.7457

> <PUBCHEM_FEATURE_SELFOVERLAP>
20.329

> <PUBCHEM_SHAPE_FINGERPRINT>
10366900 7 17895203194220162617
10863032 1 18407755945502868466
10948715 1 17967532367851586416
10967382 1 18340768233882201719
10980938 120 18343576330913765308
1100329 8 15456767483694989579
11132069 177 18413672404803054160
11578080 2 17203344298429720292
12011746 2 18408608079883570029
12077114 3 18059583515804951709
12251169 10 18411695457184388563
12382932 28 18412263934528624178
12507560 40 18259978288431972075
12553582 1 18341600517045783261
12633257 1 18266178524774500866
13132413 78 18335701585712717600
13140716 1 18338509854358350555
13172582 1 18339072800169421289
13214271 11 18410299077258909494
13221675 6 18411700980618008108
13224815 77 18113618975738588311
13296908 3 18201714076591610643
13538477 17 18343581841261821654
14178342 30 18410288086374529443
14223421 5 18341892939793410725
14787075 74 17845368856594639272
14790565 3 18196362633773715652
15196674 1 18412825793560410802
15209289 33 17703791397111131378
15209294 21 18186523189798914064
15219456 202 18334571360842308294
15309172 13 17603584127605733575
15375358 24 18341057392655638213
15375462 189 17775290451910552178
15536298 74 18335697269507624238
15775835 57 17530970189179061934
16945 1 18269268144011285391
17349148 13 18334586732846518663
1813 80 17203604904740516358
18186145 218 18339070609551568503
19784866 170 18410853265853534728
200 152 18262248707551332535
20510252 161 18263365956924899825
20525323 117 18334863774857894966
21267235 1 18270672082741952682
21501502 16 18270675359880834879
22112679 90 17172647948480591375
23184049 59 18340759455338469793
2334 1 18341043021848254439
23388829 49 18119817901984086287
23402539 116 18271255941091776658
23419403 2 15447016202920704589
23463225 33 18342173336802025388
23557571 272 18261386702782065506
23559900 14 18339079406130153798
25 1 7564801073278519957
2748010 2 18053382385771797732
296302 2 18333733537234452481
34934 24 18341901796021451220
5104073 3 18410574002627019250
633830 44 17970061347759108495
7097593 13 18200317735505661706
90316 7 18201725075824001237
9709674 26 18409167752750486238

> <PUBCHEM_SHAPE_MULTIPOLES>
411.59
7.13
2.21
1.28
1.69
0.08
0.17
-1.04
-2.08
-0.42
0.07
-0.42
0.04
-0.09

> <PUBCHEM_SHAPE_SELFOVERLAP>
877.709

> <PUBCHEM_SHAPE_VOLUME>
225.6

> <PUBCHEM_COORDINATE_TYPE>
2
5
10

$$$$

