442197
  -OEChem-07051212573D

 46 50  0     1  0  0  0  0  0999 V2000
   -1.2276    0.9612    2.2442 O   0  0  0  0  0  0  0  0  0  0  0  0
   -0.1204    1.4183   -2.2802 O   0  0  0  0  0  0  0  0  0  0  0  0
   -3.4835   -1.2521    1.7767 O   0  0  0  0  0  0  0  0  0  0  0  0
   -5.1792   -1.6502    0.1097 O   0  0  0  0  0  0  0  0  0  0  0  0
    5.1729   -1.6985   -0.2502 O   0  0  0  0  0  0  0  0  0  0  0  0
    2.7980   -3.0394   -0.7798 O   0  0  0  0  0  0  0  0  0  0  0  0
    0.2845    2.4677    0.5833 N   0  0  1  0  0  0  0  0  0  0  0  0
    0.1645    1.0457    0.1482 C   0  0  2  0  0  0  0  0  0  0  0  0
   -0.8039    0.2317    1.1015 C   0  0  2  0  0  0  0  0  0  0  0  0
    1.5149    0.3108    0.0364 C   0  0  0  0  0  0  0  0  0  0  0  0
   -0.5396    0.9881   -1.2193 C   0  0  0  0  0  0  0  0  0  0  0  0
   -1.9794   -0.0965    0.2360 C   0  0  0  0  0  0  0  0  0  0  0  0
    1.4871    3.1395    0.0854 C   0  0  0  0  0  0  0  0  0  0  0  0
   -1.8274    0.3164   -1.0844 C   0  0  0  0  0  0  0  0  0  0  0  0
    2.7278    0.9851    0.2634 C   0  0  0  0  0  0  0  0  0  0  0  0
    2.7280    2.4411    0.6258 C   0  0  0  0  0  0  0  0  0  0  0  0
   -0.8896    3.3145    0.3511 C   0  0  0  0  0  0  0  0  0  0  0  0
   -3.1375   -0.7562    0.5609 C   0  0  0  0  0  0  0  0  0  0  0  0
    1.5706   -1.0485   -0.3316 C   0  0  0  0  0  0  0  0  0  0  0  0
   -2.7858    0.0991   -2.0717 C   0  0  0  0  0  0  0  0  0  0  0  0
    3.9477    0.2959    0.1793 C   0  0  0  0  0  0  0  0  0  0  0  0
   -4.1038   -0.9839   -0.3967 C   0  0  0  0  0  0  0  0  0  0  0  0
    2.7886   -1.7232   -0.4290 C   0  0  0  0  0  0  0  0  0  0  0  0
   -3.9587   -0.5704   -1.7142 C   0  0  0  0  0  0  0  0  0  0  0  0
    3.9771   -1.0525   -0.1665 C   0  0  0  0  0  0  0  0  0  0  0  0
   -4.7793   -1.8146    1.4860 C   0  0  0  0  0  0  0  0  0  0  0  0
    5.6540   -2.3289    0.9355 C   0  0  0  0  0  0  0  0  0  0  0  0
   -0.3536   -0.6960    1.4709 H   0  0  0  0  0  0  0  0  0  0  0  0
    1.5160    4.1800    0.4328 H   0  0  0  0  0  0  0  0  0  0  0  0
    1.5017    3.1673   -1.0117 H   0  0  0  0  0  0  0  0  0  0  0  0
    2.7758    2.5342    1.7180 H   0  0  0  0  0  0  0  0  0  0  0  0
    3.6155    2.9334    0.2104 H   0  0  0  0  0  0  0  0  0  0  0  0
   -1.0299    3.5553   -0.7085 H   0  0  0  0  0  0  0  0  0  0  0  0
   -0.7792    4.2613    0.8928 H   0  0  0  0  0  0  0  0  0  0  0  0
   -1.8132    2.8641    0.7254 H   0  0  0  0  0  0  0  0  0  0  0  0
    0.6509   -1.5896   -0.5432 H   0  0  0  0  0  0  0  0  0  0  0  0
   -2.6343    0.4373   -3.0911 H   0  0  0  0  0  0  0  0  0  0  0  0
    4.8804    0.8200    0.3764 H   0  0  0  0  0  0  0  0  0  0  0  0
   -0.4262    1.2666    2.7026 H   0  0  0  0  0  0  0  0  0  0  0  0
   -4.7320   -0.7615   -2.4502 H   0  0  0  0  0  0  0  0  0  0  0  0
   -5.5241   -1.3301    2.1279 H   0  0  0  0  0  0  0  0  0  0  0  0
   -4.7571   -2.8854    1.7191 H   0  0  0  0  0  0  0  0  0  0  0  0
    1.8833   -3.3376   -0.9215 H   0  0  0  0  0  0  0  0  0  0  0  0
    6.6113   -2.8049    0.7062 H   0  0  0  0  0  0  0  0  0  0  0  0
    4.9530   -3.0980    1.2749 H   0  0  0  0  0  0  0  0  0  0  0  0
    5.8115   -1.5884    1.7262 H   0  0  0  0  0  0  0  0  0  0  0  0
  1  9  1  0  0  0  0
  1 39  1  0  0  0  0
  2 11  2  0  0  0  0
  3 18  1  0  0  0  0
  3 26  1  0  0  0  0
  4 22  1  0  0  0  0
  4 26  1  0  0  0  0
  5 25  1  0  0  0  0
  5 27  1  0  0  0  0
  6 23  1  0  0  0  0
  6 43  1  0  0  0  0
  7  8  1  0  0  0  0
  7 13  1  0  0  0  0
  7 17  1  0  0  0  0
  8  9  1  0  0  0  0
  8 10  1  0  0  0  0
  8 11  1  0  0  0  0
  9 12  1  0  0  0  0
  9 28  1  0  0  0  0
 10 15  1  0  0  0  0
 10 19  2  0  0  0  0
 11 14  1  0  0  0  0
 12 14  2  0  0  0  0
 12 18  1  0  0  0  0
 13 16  1  0  0  0  0
 13 29  1  0  0  0  0
 13 30  1  0  0  0  0
 14 20  1  0  0  0  0
 15 16  1  0  0  0  0
 15 21  2  0  0  0  0
 16 31  1  0  0  0  0
 16 32  1  0  0  0  0
 17 33  1  0  0  0  0
 17 34  1  0  0  0  0
 17 35  1  0  0  0  0
 18 22  2  0  0  0  0
 19 23  1  0  0  0  0
 19 36  1  0  0  0  0
 20 24  2  0  0  0  0
 20 37  1  0  0  0  0
 21 25  1  0  0  0  0
 21 38  1  0  0  0  0
 22 24  1  0  0  0  0
 23 25  2  0  0  0  0
 24 40  1  0  0  0  0
 26 41  1  0  0  0  0
 26 42  1  0  0  0  0
 27 44  1  0  0  0  0
 27 45  1  0  0  0  0
 27 46  1  0  0  0  0
M  END
> <PUBCHEM_COMPOUND_CID>
442197

> <PUBCHEM_CONFORMER_RMSD>
0.6

> <PUBCHEM_CONFORMER_DIVERSEORDER>
1
2
3

> <PUBCHEM_MMFF94_PARTIAL_CHARGES>
33
1 -0.68
10 -0.14
11 0.42
12 -0.14
13 0.27
14 0.09
15 -0.14
16 0.14
17 0.27
18 0.08
19 -0.15
2 -0.57
20 -0.15
21 -0.15
22 0.08
23 0.08
24 -0.15
25 0.08
26 0.56
27 0.28
3 -0.36
36 0.15
37 0.15
38 0.15
39 0.4
4 -0.36
40 0.15
43 0.45
5 -0.36
6 -0.53
7 -0.81
8 0.47
9 0.42

> <PUBCHEM_EFFECTIVE_ROTOR_COUNT>
2.4

> <PUBCHEM_PHARMACOPHORE_FEATURES>
13
1 1 acceptor
1 1 donor
1 2 acceptor
1 3 acceptor
1 4 acceptor
1 5 acceptor
1 6 donor
1 7 cation
5 3 4 18 22 26 rings
5 8 9 11 12 14 rings
6 10 15 19 21 23 25 rings
6 12 14 18 20 22 24 rings
6 7 8 10 13 15 16 rings

> <PUBCHEM_HEAVY_ATOM_COUNT>
27

> <PUBCHEM_ATOM_DEF_STEREO_COUNT>
2

> <PUBCHEM_ATOM_UDEF_STEREO_COUNT>
0

> <PUBCHEM_BOND_DEF_STEREO_COUNT>
0

> <PUBCHEM_BOND_UDEF_STEREO_COUNT>
0

> <PUBCHEM_ISOTOPIC_ATOM_COUNT>
0

> <PUBCHEM_COMPONENT_COUNT>
1

> <PUBCHEM_CACTVS_TAUTO_COUNT>
3

> <PUBCHEM_CONFORMER_ID>
0006BF5500000001

> <PUBCHEM_MMFF94_ENERGY>
97.1449

> <PUBCHEM_FEATURE_SELFOVERLAP>
66.222

> <PUBCHEM_SHAPE_FINGERPRINT>
11582403 64 16111851289049953725
11796584 16 17417546803367978666
12236239 1 17168981184365254113
12363563 72 18412260675107531850
12422481 6 17168410675258446261
12553582 1 18260544537368637478
12596602 18 16588313730607244611
12623949 98 17838594688247389603
12633257 1 18040712537180986103
12788726 201 17976556222847557489
13134695 92 18336549296467112421
13140716 1 17683238436896668866
13402501 40 18201434748946204010
13544653 18 18411136930889046151
13583140 156 17678736727233757001
13782708 43 18059295353839000747
13911987 19 17908698441364175940
14341114 328 17095520660697968514
14739800 52 14997429201421851618
14790565 3 17546161905276013140
16752209 62 15626235572035741513
16945 1 18263089807654687133
17357779 13 18343587356068499068
17980427 23 5184053860846433795
1813 80 18041265630273653324
200 152 18336553797576540086
20028762 73 17967818215058636838
20645477 70 18340215072159208937
21033650 10 16271933765019057636
21421861 104 17896576458721234289
22182313 1 17916882205103328101
23175994 123 18411983542469364509
23557571 272 17560809779511212821
23559900 14 17561092401380964830
3737641 26 17896871256993219238
392239 28 16951151529019058610
46194498 28 17631170775715282373
463206 1 18340487768403056611
5104073 3 18262243321725549920
5309563 4 18409449197799874470
7970288 3 18408886265264296786

> <PUBCHEM_SHAPE_MULTIPOLES>
515.45
9.73
3.16
1.63
1.43
1.41
-0.19
-9.45
1.26
2.58
0.48
-1.81
-0.01
0.86

> <PUBCHEM_SHAPE_SELFOVERLAP>
1164.58

> <PUBCHEM_SHAPE_VOLUME>
270.1

> <PUBCHEM_COORDINATE_TYPE>
2
5
10

$$$$

