188242
  -OEChem-07051212492D

 16 16  0     0  0  0  0  0  0999 V2000
    5.1350    1.5000    0.0000 S   0  0  0  0  0  0  0  0  0  0  0  0
    2.5369    0.0000    0.0000 O   0  0  0  0  0  0  0  0  0  0  0  0
    3.4030   -1.5000    0.0000 O   0  0  0  0  0  0  0  0  0  0  0  0
    5.1350   -0.5000    0.0000 N   0  0  0  0  0  0  0  0  0  0  0  0
    6.0010    1.0000    0.0000 C   0  0  0  0  0  0  0  0  0  0  0  0
    6.0010    0.0000    0.0000 C   0  0  0  0  0  0  0  0  0  0  0  0
    4.2690    1.0000    0.0000 C   0  0  0  0  0  0  0  0  0  0  0  0
    4.2690    0.0000    0.0000 C   0  0  0  0  0  0  0  0  0  0  0  0
    3.4030   -0.5000    0.0000 C   0  0  0  0  0  0  0  0  0  0  0  0
    6.6116    0.8923    0.0000 H   0  0  0  0  0  0  0  0  0  0  0  0
    6.2131    1.5826    0.0000 H   0  0  0  0  0  0  0  0  0  0  0  0
    6.2131   -0.5826    0.0000 H   0  0  0  0  0  0  0  0  0  0  0  0
    6.6116    0.1077    0.0000 H   0  0  0  0  0  0  0  0  0  0  0  0
    4.0569    1.5826    0.0000 H   0  0  0  0  0  0  0  0  0  0  0  0
    3.6584    0.8923    0.0000 H   0  0  0  0  0  0  0  0  0  0  0  0
    2.0000   -0.3100    0.0000 H   0  0  0  0  0  0  0  0  0  0  0  0
  1  5  1  0  0  0  0
  1  7  1  0  0  0  0
  2  9  1  0  0  0  0
  2 16  1  0  0  0  0
  3  9  2  0  0  0  0
  4  6  1  0  0  0  0
  4  8  2  0  0  0  0
  5  6  1  0  0  0  0
  5 10  1  0  0  0  0
  5 11  1  0  0  0  0
  6 12  1  0  0  0  0
  6 13  1  0  0  0  0
  7  8  1  0  0  0  0
  7 14  1  0  0  0  0
  7 15  1  0  0  0  0
  8  9  1  0  0  0  0
M  END
> <PUBCHEM_COMPOUND_CID>
188242

> <PUBCHEM_COMPOUND_CANONICALIZED>
1

> <PUBCHEM_CACTVS_COMPLEXITY>
155

> <PUBCHEM_CACTVS_HBOND_ACCEPTOR>
4

> <PUBCHEM_CACTVS_HBOND_DONOR>
1

> <PUBCHEM_CACTVS_ROTATABLE_BOND>
1

> <PUBCHEM_CACTVS_SUBSKEYS>
AAADcYBiMABAAAAAAAAAAAAAAAAAAAAAAAAgAAAAAAAAAAAAAAAAHgQACAAACAjFwASACAIAAggoAQCwDAQAAAAAABAAAAEQAAAAAAAgAAAAQAAAAAAgAAAAAAAAAAAAAAAAAAAAAAAAAAAAAAAAAAAAAA==

> <PUBCHEM_IUPAC_OPENEYE_NAME>
3,6-dihydro-2H-1,4-thiazine-5-carboxylic acid

> <PUBCHEM_IUPAC_CAS_NAME>
3,6-dihydro-2H-1,4-thiazine-5-carboxylic acid

> <PUBCHEM_IUPAC_NAME>
3,6-dihydro-2H-1,4-thiazine-5-carboxylic acid

> <PUBCHEM_IUPAC_SYSTEMATIC_NAME>
3,6-dihydro-2H-1,4-thiazine-5-carboxylic acid

> <PUBCHEM_IUPAC_TRADITIONAL_NAME>
3,6-dihydro-2H-1,4-thiazine-5-carboxylic acid

> <PUBCHEM_IUPAC_INCHI>
InChI=1S/C5H7NO2S/c7-5(8)4-3-9-2-1-6-4/h1-3H2,(H,7,8)

> <PUBCHEM_IUPAC_INCHIKEY>
HRXJCQXGAHSUJC-UHFFFAOYSA-N

> <PUBCHEM_XLOGP3_AA>
0

> <PUBCHEM_EXACT_MASS>
145.019749

> <PUBCHEM_MOLECULAR_FORMULA>
C5H7NO2S

> <PUBCHEM_MOLECULAR_WEIGHT>
145.17958

> <PUBCHEM_OPENEYE_CAN_SMILES>
C1CSCC(=N1)C(=O)O

> <PUBCHEM_OPENEYE_ISO_SMILES>
C1CSCC(=N1)C(=O)O

> <PUBCHEM_CACTVS_TPSA>
75

> <PUBCHEM_MONOISOTOPIC_WEIGHT>
145.019749

> <PUBCHEM_TOTAL_CHARGE>
0

> <PUBCHEM_HEAVY_ATOM_COUNT>
9

> <PUBCHEM_ATOM_DEF_STEREO_COUNT>
0

> <PUBCHEM_ATOM_UDEF_STEREO_COUNT>
0

> <PUBCHEM_BOND_DEF_STEREO_COUNT>
0

> <PUBCHEM_BOND_UDEF_STEREO_COUNT>
0

> <PUBCHEM_ISOTOPIC_ATOM_COUNT>
0

> <PUBCHEM_COMPONENT_COUNT>
1

> <PUBCHEM_CACTVS_TAUTO_COUNT>
1

> <PUBCHEM_COORDINATE_TYPE>
1
5
255

$$$$

