56927850
  -OEChem-07051213152D

 77 79  0     1  0  0  0  0  0999 V2000
    7.5010    0.5161    0.0000 P   0  0  3  0  0  0  0  0  0  0  0  0
    5.1350   -0.8499    0.0000 O   0  0  0  0  0  0  0  0  0  0  0  0
    6.5010    0.5161    0.0000 O   0  0  0  0  0  0  0  0  0  0  0  0
    7.7331   -2.3499    0.0000 O   0  0  0  0  0  0  0  0  0  0  0  0
   10.5888    2.1912    0.0000 O   0  0  0  0  0  0  0  0  0  0  0  0
    8.5010    0.5161    0.0000 O   0  0  0  0  0  0  0  0  0  0  0  0
    2.5369   -2.3499    0.0000 O   0  0  0  0  0  0  0  0  0  0  0  0
   10.2798   -0.3779    0.0000 O   0  0  0  0  0  0  0  0  0  0  0  0
   12.3489    0.2944    0.0000 O   0  0  0  0  0  0  0  0  0  0  0  0
    4.5010    0.5161    0.0000 O   0  0  0  0  0  0  0  0  0  0  0  0
    6.0010    1.3822    0.0000 O   0  0  0  0  0  0  0  0  0  0  0  0
    7.5010    1.5161    0.0000 O   0  0  0  0  0  0  0  0  0  0  0  0
    7.5010   -0.4839    0.0000 O   0  0  0  0  0  0  0  0  0  0  0  0
    7.7331   -3.3499    0.0000 O   0  0  0  0  0  0  0  0  0  0  0  0
    2.5369   -3.3499    0.0000 O   0  0  0  0  0  0  0  0  0  0  0  0
   13.3670    1.0687    0.0000 O   0  0  0  0  0  0  0  0  0  0  0  0
    6.0010   -3.3499    0.0000 N   0  0  0  0  0  0  0  0  0  0  0  0
    4.2690   -3.3499    0.0000 N   0  0  0  0  0  0  0  0  0  0  0  0
   12.3489    2.4699    0.0000 N   0  0  0  0  0  0  0  0  0  0  0  0
   14.0715    2.6510    0.0000 N   0  0  0  0  0  0  0  0  0  0  0  0
   14.7759    4.2333    0.0000 N   0  0  0  0  0  0  0  0  0  0  0  0
    5.1350   -1.8499    0.0000 C   0  0  2  0  0  0  0  0  0  0  0  0
    6.0010   -2.3499    0.0000 C   0  0  2  0  0  0  0  0  0  0  0  0
    6.8671   -1.8499    0.0000 C   0  0  2  0  0  0  0  0  0  0  0  0
    4.2690   -2.3499    0.0000 C   0  0  2  0  0  0  0  0  0  0  0  0
    6.8671   -0.8499    0.0000 C   0  0  0  0  0  0  0  0  0  0  0  0
    6.0010   -0.3499    0.0000 C   0  0  1  0  0  0  0  0  0  0  0  0
    3.4030   -1.8499    0.0000 C   0  0  2  0  0  0  0  0  0  0  0  0
   10.0010    1.3822    0.0000 C   0  0  1  0  0  0  0  0  0  0  0  0
   10.5888    0.5731    0.0000 C   0  0  2  0  0  0  0  0  0  0  0  0
   11.5399    0.8822    0.0000 C   0  0  2  0  0  0  0  0  0  0  0  0
   11.5399    1.8822    0.0000 C   0  0  1  0  0  0  0  0  0  0  0  0
    5.5010    0.5161    0.0000 C   0  0  0  0  0  0  0  0  0  0  0  0
    9.0010    1.3822    0.0000 C   0  0  0  0  0  0  0  0  0  0  0  0
    3.4030   -0.8499    0.0000 C   0  0  0  0  0  0  0  0  0  0  0  0
    6.8671   -3.8499    0.0000 C   0  0  0  0  0  0  0  0  0  0  0  0
    3.4030   -3.8499    0.0000 C   0  0  0  0  0  0  0  0  0  0  0  0
    6.8671   -4.8499    0.0000 C   0  0  0  0  0  0  0  0  0  0  0  0
   12.2444    3.4645    0.0000 C   0  0  0  0  0  0  0  0  0  0  0  0
   13.2624    2.0632    0.0000 C   0  0  0  0  0  0  0  0  0  0  0  0
    3.4030   -4.8499    0.0000 C   0  0  0  0  0  0  0  0  0  0  0  0
   13.0534    4.0522    0.0000 C   0  0  0  0  0  0  0  0  0  0  0  0
   13.9669    3.6455    0.0000 C   0  0  0  0  0  0  0  0  0  0  0  0
    4.3989   -1.4249    0.0000 H   0  0  0  0  0  0  0  0  0  0  0  0
    6.5380   -2.6599    0.0000 H   0  0  0  0  0  0  0  0  0  0  0  0
    6.8671   -2.4699    0.0000 H   0  0  0  0  0  0  0  0  0  0  0  0
    4.8059   -2.6599    0.0000 H   0  0  0  0  0  0  0  0  0  0  0  0
    7.4776   -0.9576    0.0000 H   0  0  0  0  0  0  0  0  0  0  0  0
    7.0791   -0.2673    0.0000 H   0  0  0  0  0  0  0  0  0  0  0  0
    3.4030   -2.4699    0.0000 H   0  0  0  0  0  0  0  0  0  0  0  0
    5.4641   -3.6599    0.0000 H   0  0  0  0  0  0  0  0  0  0  0  0
    9.7196    1.9346    0.0000 H   0  0  0  0  0  0  0  0  0  0  0  0
    9.9765    0.4761    0.0000 H   0  0  0  0  0  0  0  0  0  0  0  0
   11.4429    0.2698    0.0000 H   0  0  0  0  0  0  0  0  0  0  0  0
    4.8059   -3.6599    0.0000 H   0  0  0  0  0  0  0  0  0  0  0  0
   11.4429    2.4945    0.0000 H   0  0  0  0  0  0  0  0  0  0  0  0
    8.2700   -2.0399    0.0000 H   0  0  0  0  0  0  0  0  0  0  0  0
    9.1087    1.9927    0.0000 H   0  0  0  0  0  0  0  0  0  0  0  0
    8.4184    1.5942    0.0000 H   0  0  0  0  0  0  0  0  0  0  0  0
    4.0230   -0.8499    0.0000 H   0  0  0  0  0  0  0  0  0  0  0  0
    3.4030   -0.2299    0.0000 H   0  0  0  0  0  0  0  0  0  0  0  0
    2.7830   -0.8499    0.0000 H   0  0  0  0  0  0  0  0  0  0  0  0
    2.0000   -2.0399    0.0000 H   0  0  0  0  0  0  0  0  0  0  0  0
   10.6947   -0.8387    0.0000 H   0  0  0  0  0  0  0  0  0  0  0  0
   12.2841   -0.3222    0.0000 H   0  0  0  0  0  0  0  0  0  0  0  0
    4.1910    1.0531    0.0000 H   0  0  0  0  0  0  0  0  0  0  0  0
    6.2471   -4.8499    0.0000 H   0  0  0  0  0  0  0  0  0  0  0  0
    6.8671   -5.4699    0.0000 H   0  0  0  0  0  0  0  0  0  0  0  0
    7.4871   -4.8499    0.0000 H   0  0  0  0  0  0  0  0  0  0  0  0
   11.6780    3.7166    0.0000 H   0  0  0  0  0  0  0  0  0  0  0  0
    2.7830   -4.8499    0.0000 H   0  0  0  0  0  0  0  0  0  0  0  0
    3.4030   -5.4699    0.0000 H   0  0  0  0  0  0  0  0  0  0  0  0
    4.0230   -4.8499    0.0000 H   0  0  0  0  0  0  0  0  0  0  0  0
    8.0380    1.8261    0.0000 H   0  0  0  0  0  0  0  0  0  0  0  0
   12.9886    4.6688    0.0000 H   0  0  0  0  0  0  0  0  0  0  0  0
   14.7111    4.8499    0.0000 H   0  0  0  0  0  0  0  0  0  0  0  0
   15.3423    3.9811    0.0000 H   0  0  0  0  0  0  0  0  0  0  0  0
  1  3  1  0  0  0  0
  1  6  1  0  0  0  0
  1 12  1  0  0  0  0
  1 13  2  0  0  0  0
  2 22  1  0  0  0  0
  2 27  1  0  0  0  0
 27  3  1  1  0  0  0
 24  4  1  6  0  0  0
  4 57  1  0  0  0  0
  5 29  1  0  0  0  0
  5 32  1  0  0  0  0
  6 34  1  0  0  0  0
 28  7  1  1  0  0  0
  7 63  1  0  0  0  0
 30  8  1  6  0  0  0
  8 64  1  0  0  0  0
 31  9  1  6  0  0  0
  9 65  1  0  0  0  0
 10 33  1  0  0  0  0
 10 66  1  0  0  0  0
 11 33  2  0  0  0  0
 12 74  1  0  0  0  0
 14 36  2  0  0  0  0
 15 37  2  0  0  0  0
 16 40  2  0  0  0  0
 23 17  1  6  0  0  0
 17 36  1  0  0  0  0
 17 51  1  0  0  0  0
 25 18  1  1  0  0  0
 18 37  1  0  0  0  0
 18 55  1  0  0  0  0
 32 19  1  1  0  0  0
 19 39  1  0  0  0  0
 19 40  1  0  0  0  0
 20 40  1  0  0  0  0
 20 43  2  0  0  0  0
 21 43  1  0  0  0  0
 21 76  1  0  0  0  0
 21 77  1  0  0  0  0
 22 23  1  0  0  0  0
 22 25  1  0  0  0  0
 22 44  1  1  0  0  0
 23 24  1  0  0  0  0
 23 45  1  0  0  0  0
 24 26  1  0  0  0  0
 24 46  1  0  0  0  0
 25 28  1  0  0  0  0
 25 47  1  0  0  0  0
 26 27  1  0  0  0  0
 26 48  1  0  0  0  0
 26 49  1  0  0  0  0
 27 33  1  0  0  0  0
 28 35  1  0  0  0  0
 28 50  1  0  0  0  0
 29 30  1  0  0  0  0
 29 34  1  1  0  0  0
 29 52  1  0  0  0  0
 30 31  1  0  0  0  0
 30 53  1  0  0  0  0
 31 32  1  0  0  0  0
 31 54  1  0  0  0  0
 32 56  1  0  0  0  0
 34 58  1  0  0  0  0
 34 59  1  0  0  0  0
 35 60  1  0  0  0  0
 35 61  1  0  0  0  0
 35 62  1  0  0  0  0
 36 38  1  0  0  0  0
 37 41  1  0  0  0  0
 38 67  1  0  0  0  0
 38 68  1  0  0  0  0
 38 69  1  0  0  0  0
 39 42  2  0  0  0  0
 39 70  1  0  0  0  0
 41 71  1  0  0  0  0
 41 72  1  0  0  0  0
 41 73  1  0  0  0  0
 42 43  1  0  0  0  0
 42 75  1  0  0  0  0
M  END
> <PUBCHEM_COMPOUND_CID>
56927850

> <PUBCHEM_COMPOUND_CANONICALIZED>
1

> <PUBCHEM_CACTVS_COMPLEXITY>
1220

> <PUBCHEM_CACTVS_HBOND_ACCEPTOR>
15

> <PUBCHEM_CACTVS_HBOND_DONOR>
9

> <PUBCHEM_CACTVS_ROTATABLE_BOND>
11

> <PUBCHEM_CACTVS_SUBSKEYS>
AAADcfB7vAIAAAAAAAAAAAAAAAAAASAAAAAkQAAAAAAAAAAAAAAAHgAQCCAACDzhgAYDCAPABxCoQCP2fIKAAAEAAgAIAIFYABCTEBIAwAQPQAAHFgKXAAH6+aeQAAAAAAAAAAAAAAAAAAAAAAAAAAAAAA==

> <PUBCHEM_IUPAC_OPENEYE_NAME>
(2R,4S,5S,6S)-5-acetamido-6-[(1S,2S)-1-acetamido-2-hydroxy-propyl]-2-[[(2R,3S,4R,5R)-5-(4-amino-2-oxo-pyrimidin-1-yl)-3,4-dihydroxy-tetrahydrofuran-2-yl]methoxy-hydroxy-phosphoryl]oxy-4-hydroxy-tetrahydropyran-2-carboxylic acid

> <PUBCHEM_IUPAC_CAS_NAME>
(2R,4S,5S,6S)-5-acetamido-6-[(1S,2S)-1-acetamido-2-hydroxypropyl]-2-[[(2R,3S,4R,5R)-5-(4-amino-2-oxo-1-pyrimidinyl)-3,4-dihydroxy-2-oxolanyl]methoxy-hydroxyphosphoryl]oxy-4-hydroxy-2-oxanecarboxylic acid

> <PUBCHEM_IUPAC_NAME>
(2R,4S,5S,6S)-5-acetamido-6-[(1S,2S)-1-acetamido-2-hydroxypropyl]-2-[[(2R,3S,4R,5R)-5-(4-amino-2-oxopyrimidin-1-yl)-3,4-dihydroxyoxolan-2-yl]methoxy-hydroxyphosphoryl]oxy-4-hydroxyoxane-2-carboxylic acid

> <PUBCHEM_IUPAC_SYSTEMATIC_NAME>
(2R,4S,5S,6S)-5-acetamido-6-[(1S,2S)-1-acetamido-2-oxidanyl-propyl]-2-[[(2R,3S,4R,5R)-5-(4-azanyl-2-oxidanylidene-pyrimidin-1-yl)-3,4-bis(oxidanyl)oxolan-2-yl]methoxy-oxidanyl-phosphoryl]oxy-4-oxidanyl-oxane-2-carboxylic acid

> <PUBCHEM_IUPAC_TRADITIONAL_NAME>
(2R,4S,5S,6S)-5-acetamido-6-[(1S,2S)-1-acetamido-2-hydroxy-propyl]-2-[[(2R,3S,4R,5R)-5-(4-amino-2-keto-pyrimidin-1-yl)-3,4-dihydroxy-tetrahydrofuran-2-yl]methoxy-hydroxy-phosphoryl]oxy-4-hydroxy-tetrahydropyran-2-carboxylic acid

> <PUBCHEM_IUPAC_INCHI>
InChI=1S/C22H34N5O15P/c1-8(28)14(24-9(2)29)18-15(25-10(3)30)11(31)6-22(41-18,20(34)35)42-43(37,38)39-7-12-16(32)17(33)19(40-12)27-5-4-13(23)26-21(27)36/h4-5,8,11-12,14-19,28,31-33H,6-7H2,1-3H3,(H,24,29)(H,25,30)(H,34,35)(H,37,38)(H2,23,26,36)/t8-,11-,12+,14-,15-,16+,17+,18-,19+,22+/m0/s1

> <PUBCHEM_IUPAC_INCHIKEY>
XTZJKGIMUFZFBV-STPXTTIVSA-N

> <PUBCHEM_XLOGP3_AA>
-6.2

> <PUBCHEM_EXACT_MASS>
639.178902

> <PUBCHEM_MOLECULAR_FORMULA>
C22H34N5O15P

> <PUBCHEM_MOLECULAR_WEIGHT>
639.503622

> <PUBCHEM_OPENEYE_CAN_SMILES>
CC(C(C1C(C(CC(O1)(C(=O)O)OP(=O)(O)OCC2C(C(C(O2)N3C=CC(=NC3=O)N)O)O)O)NC(=O)C)NC(=O)C)O

> <PUBCHEM_OPENEYE_ISO_SMILES>
C[C@@H]([C@@H]([C@H]1[C@H]([C@H](C[C@](O1)(C(=O)O)OP(=O)(O)OC[C@@H]2[C@H]([C@H]([C@@H](O2)N3C=CC(=NC3=O)N)O)O)O)NC(=O)C)NC(=O)C)O

> <PUBCHEM_CACTVS_TPSA>
309

> <PUBCHEM_MONOISOTOPIC_WEIGHT>
639.178902

> <PUBCHEM_TOTAL_CHARGE>
0

> <PUBCHEM_HEAVY_ATOM_COUNT>
43

> <PUBCHEM_ATOM_DEF_STEREO_COUNT>
10

> <PUBCHEM_ATOM_UDEF_STEREO_COUNT>
0

> <PUBCHEM_BOND_DEF_STEREO_COUNT>
0

> <PUBCHEM_BOND_UDEF_STEREO_COUNT>
0

> <PUBCHEM_ISOTOPIC_ATOM_COUNT>
0

> <PUBCHEM_COMPONENT_COUNT>
1

> <PUBCHEM_CACTVS_TAUTO_COUNT>
12

> <PUBCHEM_COORDINATE_TYPE>
1
5
255

> <PUBCHEM_BONDANNOTATIONS>
23  17  6
25  18  5
32  19  5
19  39  8
19  40  8
20  40  8
20  43  8
22  44  5
29  34  5
27  3  5
39  42  8
24  4  6
42  43  8
28  7  5
30  8  6
31  9  6

$$$$

