10782
  -OEChem-07051213043D

 42 43  0     1  0  0  0  0  0999 V2000
    1.4102    0.3756   -0.1046 O   0  0  0  0  0  0  0  0  0  0  0  0
    2.6525    2.1568   -0.8684 O   0  0  0  0  0  0  0  0  0  0  0  0
   -3.4203    0.0550    0.1891 N   0  0  1  0  0  0  0  0  0  0  0  0
   -4.7289    0.7424    0.0943 C   0  0  1  0  0  0  0  0  0  0  0  0
   -5.8633   -0.2022    0.5406 C   0  0  0  0  0  0  0  0  0  0  0  0
   -3.4041   -1.1731   -0.6253 C   0  0  0  0  0  0  0  0  0  0  0  0
   -5.8654   -1.5031   -0.2515 C   0  0  0  0  0  0  0  0  0  0  0  0
   -4.4922   -2.1539   -0.1946 C   0  0  0  0  0  0  0  0  0  0  0  0
   -2.3038    0.9145   -0.2154 C   0  0  0  0  0  0  0  0  0  0  0  0
   -4.7955    2.0103    0.9577 C   0  0  0  0  0  0  0  0  0  0  0  0
   -0.9753    0.2051    0.0257 C   0  0  0  0  0  0  0  0  0  0  0  0
    0.2058    1.0830   -0.3651 C   0  0  0  0  0  0  0  0  0  0  0  0
    2.5663    1.0309   -0.4033 C   0  0  0  0  0  0  0  0  0  0  0  0
    3.7469    0.1875   -0.0879 C   0  0  0  0  0  0  0  0  0  0  0  0
    4.9258    0.8021    0.2815 C   0  0  0  0  0  0  0  0  0  0  0  0
    3.6282   -1.1846   -0.1734 C   0  0  0  0  0  0  0  0  0  0  0  0
    6.0349    0.0099    0.5781 C   0  0  0  0  0  0  0  0  0  0  0  0
    4.7374   -1.9767    0.1234 C   0  0  0  0  0  0  0  0  0  0  0  0
    5.9407   -1.3794    0.4991 C   0  0  0  0  0  0  0  0  0  0  0  0
   -4.9149    1.0345   -0.9487 H   0  0  0  0  0  0  0  0  0  0  0  0
   -6.8345    0.2918    0.4151 H   0  0  0  0  0  0  0  0  0  0  0  0
   -5.7601   -0.4310    1.6099 H   0  0  0  0  0  0  0  0  0  0  0  0
   -2.4781   -1.7397   -0.5088 H   0  0  0  0  0  0  0  0  0  0  0  0
   -3.5182   -0.9377   -1.6917 H   0  0  0  0  0  0  0  0  0  0  0  0
   -6.1340   -1.2980   -1.2950 H   0  0  0  0  0  0  0  0  0  0  0  0
   -6.6227   -2.1861    0.1485 H   0  0  0  0  0  0  0  0  0  0  0  0
   -4.2928   -2.5036    0.8264 H   0  0  0  0  0  0  0  0  0  0  0  0
   -4.4754   -3.0367   -0.8439 H   0  0  0  0  0  0  0  0  0  0  0  0
   -2.3942    1.2138   -1.2675 H   0  0  0  0  0  0  0  0  0  0  0  0
   -2.2835    1.8299    0.3845 H   0  0  0  0  0  0  0  0  0  0  0  0
   -4.1701    2.8124    0.5539 H   0  0  0  0  0  0  0  0  0  0  0  0
   -5.8187    2.4014    0.9926 H   0  0  0  0  0  0  0  0  0  0  0  0
   -4.4812    1.8095    1.9880 H   0  0  0  0  0  0  0  0  0  0  0  0
   -0.8783   -0.0926    1.0777 H   0  0  0  0  0  0  0  0  0  0  0  0
   -0.8605   -0.7083   -0.5645 H   0  0  0  0  0  0  0  0  0  0  0  0
    0.1950    2.0093    0.2213 H   0  0  0  0  0  0  0  0  0  0  0  0
    0.1522    1.3331   -1.4314 H   0  0  0  0  0  0  0  0  0  0  0  0
    5.0104    1.8826    0.3500 H   0  0  0  0  0  0  0  0  0  0  0  0
    2.7072   -1.6736   -0.4764 H   0  0  0  0  0  0  0  0  0  0  0  0
    6.9717    0.4747    0.8714 H   0  0  0  0  0  0  0  0  0  0  0  0
    4.6654   -3.0586    0.0590 H   0  0  0  0  0  0  0  0  0  0  0  0
    6.8044   -1.9962    0.7296 H   0  0  0  0  0  0  0  0  0  0  0  0
  1 12  1  0  0  0  0
  1 13  1  0  0  0  0
  2 13  2  0  0  0  0
  3  4  1  0  0  0  0
  3  6  1  0  0  0  0
  3  9  1  0  0  0  0
  4  5  1  0  0  0  0
  4 10  1  0  0  0  0
  4 20  1  0  0  0  0
  5  7  1  0  0  0  0
  5 21  1  0  0  0  0
  5 22  1  0  0  0  0
  6  8  1  0  0  0  0
  6 23  1  0  0  0  0
  6 24  1  0  0  0  0
  7  8  1  0  0  0  0
  7 25  1  0  0  0  0
  7 26  1  0  0  0  0
  8 27  1  0  0  0  0
  8 28  1  0  0  0  0
  9 11  1  0  0  0  0
  9 29  1  0  0  0  0
  9 30  1  0  0  0  0
 10 31  1  0  0  0  0
 10 32  1  0  0  0  0
 10 33  1  0  0  0  0
 11 12  1  0  0  0  0
 11 34  1  0  0  0  0
 11 35  1  0  0  0  0
 12 36  1  0  0  0  0
 12 37  1  0  0  0  0
 13 14  1  0  0  0  0
 14 15  2  0  0  0  0
 14 16  1  0  0  0  0
 15 17  1  0  0  0  0
 15 38  1  0  0  0  0
 16 18  2  0  0  0  0
 16 39  1  0  0  0  0
 17 19  2  0  0  0  0
 17 40  1  0  0  0  0
 18 19  1  0  0  0  0
 18 41  1  0  0  0  0
 19 42  1  0  0  0  0
M  END
> <PUBCHEM_COMPOUND_CID>
10782

> <PUBCHEM_CONFORMER_RMSD>
0.8

> <PUBCHEM_CONFORMER_DIVERSEORDER>
19
346
148
317
205
282
106
227
270
290
108
182
146
324
45
156
112
287
130
301
196
139
311
302
334
29
170
325
4
291
230
149
352
145
256
309
32
178
237
350
356
357
48
299
164
327
351
296
84
5
220
214
253
275
27
136
310
134
105
239
151
331
51
226
14
98
43
144
258
42
34
240
202
268
66
11
337
213
30
114
286
336
292
10
132
307
181
318
257
314
232
80
125
265
235
211
345
216
128
54
330
147
85
188
348
158
289
160
201
111
198
169
109
135
78
140
117
96
224
298
278
91
1
241
300
113
207
173
285
332
281
68
248
184
88
246
339
123
64
303
304
87
342
93
187
129
150
335
75
222
49
321
20
12
194
199
328
172
197
154
118
122
283
219
58
313
326
242
218
306
86
195
228
8
260
206
225
294
120
92
121
347
159
354
217
127
180
60
271
320
190
40
341
161
143
288
70
277
94
95
315
79
322
176
35
97
74
353
349
116
59
18
229
77
329
107
16
72
110
204
233
297
81
193
261
36
67
276
138
323
293
191
269
340
272
254
62
152
28
141
267
250
38
44
31
266
252
155
316
244
183
100
284
124
249
76
263
90
115
133
13
238
175
41
171
142
262
162
279
37
338
165
192
83
200
119
168
39
89
212
319
264
131
273
274
305
179
157
247
73
355
234
231
46
17
210
15
101
221
137
312
174
7
69
82
236
26
215
52
166
24
259
9
56
103
333
104
47
358
55
153
223
251
185
243
208
57
102
359
50
186
163
209
23
167
33
25
189
6
3
255
71
177
65
295
21
53
308
203
343
245
22
2
126
61
63
344
99
280

> <PUBCHEM_MMFF94_PARTIAL_CHARGES>
19
1 -0.43
12 0.28
13 0.63
14 0.09
15 -0.15
16 -0.15
17 -0.15
18 -0.15
19 -0.15
2 -0.57
3 -0.81
38 0.15
39 0.15
4 0.27
40 0.15
41 0.15
42 0.15
6 0.27
9 0.27

> <PUBCHEM_EFFECTIVE_ROTOR_COUNT>
7.2

> <PUBCHEM_PHARMACOPHORE_FEATURES>
4
1 2 acceptor
1 3 cation
6 14 15 16 17 18 19 rings
6 3 4 5 6 7 8 rings

> <PUBCHEM_HEAVY_ATOM_COUNT>
19

> <PUBCHEM_ATOM_DEF_STEREO_COUNT>
0

> <PUBCHEM_ATOM_UDEF_STEREO_COUNT>
1

> <PUBCHEM_BOND_DEF_STEREO_COUNT>
0

> <PUBCHEM_BOND_UDEF_STEREO_COUNT>
0

> <PUBCHEM_ISOTOPIC_ATOM_COUNT>
0

> <PUBCHEM_COMPONENT_COUNT>
1

> <PUBCHEM_CACTVS_TAUTO_COUNT>
1

> <PUBCHEM_CONFORMER_ID>
00002A1E00000013

> <PUBCHEM_MMFF94_ENERGY>
33.2605

> <PUBCHEM_FEATURE_SELFOVERLAP>
20.297

> <PUBCHEM_SHAPE_FINGERPRINT>
10595046 47 18338232648621355973
11315181 36 18409448068745533257
12107183 9 17977098286432703097
12236239 1 18410011039514323641
12516196 113 18411420613927645056
12596602 18 18040716974319507298
12616971 3 18060411417843097005
13073987 5 18335701607155892825
13167823 11 18411138017758572847
13533116 47 18410573959941128608
13551218 46 18410011057042690343
13668630 136 17275103920869784131
13685833 64 18201998820054283875
14211702 104 18339633456700737403
14251732 16 18334579001778960688
14251751 18 18409168813596689704
14251764 18 18409446968563667669
14341114 176 18408318917089284212
15183329 4 18272653454218994746
15250474 111 18263649480611638407
15348495 7 17821735996126174338
17844677 252 18334852805680628945
17857418 61 18411139121475523183
1813 80 17489300914758133244
19489759 90 17821730550814595889
20028762 73 18408889542508921110
20645477 70 18059857238497451260
21033648 29 15285626729795850353
21065198 48 18408881815313577293
220451 1 18410847768026500468
22061861 79 15410900673179158530
23081809 10 18272927224208960300
23402539 116 18411984667460827685
23522609 53 18056167337489029620
23536379 177 18408603677531360313
23559900 14 18263373512457935409
2767999 5 6122499094920373346
3004659 81 18272368677018744142
338550 245 18411698751424915598
351380 3 18131072653546153978
3663271 9 18260266352109834024
4073 2 18201716198463860274
4214541 1 18409729573697337613
465052 167 18408601470556623126
5104073 3 18261105241027770041
559249 180 18411703210154310647
7495541 125 17895478033403959056
9965369 4 18410293636036485915
9971528 1 17846217709209162660

> <PUBCHEM_SHAPE_MULTIPOLES>
374.29
18.18
2.1
0.79
0.79
0.29
-0.03
5.57
-3.28
-0.81
0.07
-0.09
-0.13
-1.22

> <PUBCHEM_SHAPE_SELFOVERLAP>
764.625

> <PUBCHEM_SHAPE_VOLUME>
216.6

> <PUBCHEM_COORDINATE_TYPE>
2
5
10

$$$$

