5281820
  -OEChem-07051212592D

 65 67  0     0  0  0  0  0  0999 V2000
    9.5000   -2.5096    0.0000 O   0  0  0  0  0  0  0  0  0  0  0  0
    3.5000   -2.5096    0.0000 O   0  0  0  0  0  0  0  0  0  0  0  0
    5.9392   -0.0704    0.0000 O   0  0  0  0  0  0  0  0  0  0  0  0
    8.6428   -0.8775    0.0000 O   0  0  0  0  0  0  0  0  0  0  0  0
   11.7321   -1.6436    0.0000 O   0  0  0  0  0  0  0  0  0  0  0  0
    2.7412    2.7864    0.0000 N   0  0  0  0  0  0  0  0  0  0  0  0
    3.5000   -0.7776    0.0000 N   0  0  0  0  0  0  0  0  0  0  0  0
    5.9392    1.6616    0.0000 N   0  0  0  0  0  0  0  0  0  0  0  0
    2.5000    0.9545    0.0000 C   0  0  0  0  0  0  0  0  0  0  0  0
    2.2412    1.9204    0.0000 C   0  0  0  0  0  0  0  0  0  0  0  0
    2.0000    0.0885    0.0000 C   0  0  0  0  0  0  0  0  0  0  0  0
    3.6072    2.2864    0.0000 C   0  0  0  0  0  0  0  0  0  0  0  0
    4.4732    2.7864    0.0000 C   0  0  0  0  0  0  0  0  0  0  0  0
    2.5000   -0.7776    0.0000 C   0  0  0  0  0  0  0  0  0  0  0  0
    4.9732    1.9204    0.0000 C   0  0  0  0  0  0  0  0  0  0  0  0
    4.0000   -1.6436    0.0000 C   0  0  0  0  0  0  0  0  0  0  0  0
    6.4392    0.7956    0.0000 C   0  0  0  0  0  0  0  0  0  0  0  0
    5.0000   -1.6436    0.0000 C   0  0  0  0  0  0  0  0  0  0  0  0
    6.5000   -2.5096    0.0000 C   0  0  0  0  0  0  0  0  0  0  0  0
    7.4392    0.7956    0.0000 C   0  0  0  0  0  0  0  0  0  0  0  0
    5.5000   -2.5096    0.0000 C   0  0  0  0  0  0  0  0  0  0  0  0
    9.1340   -0.1436    0.0000 C   0  0  0  0  0  0  0  0  0  0  0  0
    8.5000   -2.5096    0.0000 C   0  0  0  0  0  0  0  0  0  0  0  0
    8.0000   -1.6436    0.0000 C   0  0  0  0  0  0  0  0  0  0  0  0
   10.0000   -1.6436    0.0000 C   0  0  0  0  0  0  0  0  0  0  0  0
    8.1340   -0.1436    0.0000 C   0  0  0  0  0  0  0  0  0  0  0  0
    7.0000   -1.6436    0.0000 C   0  0  0  0  0  0  0  0  0  0  0  0
    6.9966   -3.3853    0.0000 C   0  0  0  0  0  0  0  0  0  0  0  0
    9.1340   -1.1436    0.0000 C   0  0  0  0  0  0  0  0  0  0  0  0
    8.0034   -3.3853    0.0000 C   0  0  0  0  0  0  0  0  0  0  0  0
   10.0000    0.3564    0.0000 C   0  0  0  0  0  0  0  0  0  0  0  0
   10.8660   -1.1436    0.0000 C   0  0  0  0  0  0  0  0  0  0  0  0
   10.8660   -0.1436    0.0000 C   0  0  0  0  0  0  0  0  0  0  0  0
    9.6276   -0.7039    0.0000 C   0  0  0  0  0  0  0  0  0  0  0  0
    2.9384    0.5161    0.0000 H   0  0  0  0  0  0  0  0  0  0  0  0
    3.0369    1.2645    0.0000 H   0  0  0  0  0  0  0  0  0  0  0  0
    1.8028    2.3588    0.0000 H   0  0  0  0  0  0  0  0  0  0  0  0
    1.7042    1.6104    0.0000 H   0  0  0  0  0  0  0  0  0  0  0  0
    1.5250    0.4870    0.0000 H   0  0  0  0  0  0  0  0  0  0  0  0
    1.5250   -0.3101    0.0000 H   0  0  0  0  0  0  0  0  0  0  0  0
    3.2087    1.8115    0.0000 H   0  0  0  0  0  0  0  0  0  0  0  0
    4.0057    1.8115    0.0000 H   0  0  0  0  0  0  0  0  0  0  0  0
    2.5807    3.3853    0.0000 H   0  0  0  0  0  0  0  0  0  0  0  0
    5.0102    3.0964    0.0000 H   0  0  0  0  0  0  0  0  0  0  0  0
    4.1632    3.3234    0.0000 H   0  0  0  0  0  0  0  0  0  0  0  0
    1.9174   -0.9896    0.0000 H   0  0  0  0  0  0  0  0  0  0  0  0
    2.6077   -1.3881    0.0000 H   0  0  0  0  0  0  0  0  0  0  0  0
    4.3744    1.7600    0.0000 H   0  0  0  0  0  0  0  0  0  0  0  0
    4.9732    1.3004    0.0000 H   0  0  0  0  0  0  0  0  0  0  0  0
    3.8100   -0.2406    0.0000 H   0  0  0  0  0  0  0  0  0  0  0  0
    6.3166    2.1535    0.0000 H   0  0  0  0  0  0  0  0  0  0  0  0
    5.3100   -1.1066    0.0000 H   0  0  0  0  0  0  0  0  0  0  0  0
    7.6308    1.3852    0.0000 H   0  0  0  0  0  0  0  0  0  0  0  0
    5.1900   -3.0465    0.0000 H   0  0  0  0  0  0  0  0  0  0  0  0
    6.6900   -1.1066    0.0000 H   0  0  0  0  0  0  0  0  0  0  0  0
    7.8429   -0.6910    0.0000 H   0  0  0  0  0  0  0  0  0  0  0  0
    6.6846   -3.9211    0.0000 H   0  0  0  0  0  0  0  0  0  0  0  0
    8.5970   -1.4536    0.0000 H   0  0  0  0  0  0  0  0  0  0  0  0
    8.3154   -3.9211    0.0000 H   0  0  0  0  0  0  0  0  0  0  0  0
   10.0000    0.9764    0.0000 H   0  0  0  0  0  0  0  0  0  0  0  0
   11.4030    0.1664    0.0000 H   0  0  0  0  0  0  0  0  0  0  0  0
    9.7353   -1.3145    0.0000 H   0  0  0  0  0  0  0  0  0  0  0  0
   10.2382   -0.5962    0.0000 H   0  0  0  0  0  0  0  0  0  0  0  0
    9.5199   -0.0933    0.0000 H   0  0  0  0  0  0  0  0  0  0  0  0
   12.2690   -1.3336    0.0000 H   0  0  0  0  0  0  0  0  0  0  0  0
  1 23  1  0  0  0  0
  1 25  1  0  0  0  0
  2 16  2  0  0  0  0
  3 17  2  0  0  0  0
  4 24  1  0  0  0  0
  4 34  1  0  0  0  0
  5 32  1  0  0  0  0
  5 65  1  0  0  0  0
  6 10  1  0  0  0  0
  6 12  1  0  0  0  0
  6 43  1  0  0  0  0
  7 14  1  0  0  0  0
  7 16  1  0  0  0  0
  7 50  1  0  0  0  0
  8 15  1  0  0  0  0
  8 17  1  0  0  0  0
  8 51  1  0  0  0  0
  9 10  1  0  0  0  0
  9 11  1  0  0  0  0
  9 35  1  0  0  0  0
  9 36  1  0  0  0  0
 10 37  1  0  0  0  0
 10 38  1  0  0  0  0
 11 14  1  0  0  0  0
 11 39  1  0  0  0  0
 11 40  1  0  0  0  0
 12 13  1  0  0  0  0
 12 41  1  0  0  0  0
 12 42  1  0  0  0  0
 13 15  1  0  0  0  0
 13 44  1  0  0  0  0
 13 45  1  0  0  0  0
 14 46  1  0  0  0  0
 14 47  1  0  0  0  0
 15 48  1  0  0  0  0
 15 49  1  0  0  0  0
 16 18  1  0  0  0  0
 17 20  1  0  0  0  0
 18 21  2  0  0  0  0
 18 52  1  0  0  0  0
 19 21  1  0  0  0  0
 19 27  2  0  0  0  0
 19 28  1  0  0  0  0
 20 26  2  0  0  0  0
 20 53  1  0  0  0  0
 21 54  1  0  0  0  0
 22 26  1  0  0  0  0
 22 29  2  0  0  0  0
 22 31  1  0  0  0  0
 23 24  2  0  0  0  0
 23 30  1  0  0  0  0
 24 27  1  0  0  0  0
 25 29  1  0  0  0  0
 25 32  2  0  0  0  0
 26 56  1  0  0  0  0
 27 55  1  0  0  0  0
 28 30  2  0  0  0  0
 28 57  1  0  0  0  0
 29 58  1  0  0  0  0
 30 59  1  0  0  0  0
 31 33  2  0  0  0  0
 31 60  1  0  0  0  0
 32 33  1  0  0  0  0
 33 61  1  0  0  0  0
 34 62  1  0  0  0  0
 34 63  1  0  0  0  0
 34 64  1  0  0  0  0
M  END
> <PUBCHEM_COMPOUND_CID>
5281820

> <PUBCHEM_COMPOUND_CANONICALIZED>
1

> <PUBCHEM_CACTVS_COMPLEXITY>
698

> <PUBCHEM_CACTVS_HBOND_ACCEPTOR>
6

> <PUBCHEM_CACTVS_HBOND_DONOR>
4

> <PUBCHEM_CACTVS_ROTATABLE_BOND>
1

> <PUBCHEM_CACTVS_SUBSKEYS>
AAADceB7OAAAAAAAAAAAAAAAAAAAAAAAAAAwYAAAAAAAAAABQAAAHgAQCAAADATBmAYyBoLABgCIAiFSEACCCAAgIAAIiIAOiMgNJiKG8RqGeCOk1hGLuYeAwBAOIAABAAAAQABAAAIAAACAAAAAAAAAAA==

> <PUBCHEM_IUPAC_INCHI>
InChI=1S/C26H31N3O5/c1-33-24-18-20-6-10-22(24)34-23-17-19(5-9-21(23)30)7-11-26(32)29-16-4-14-27-13-2-3-15-28-25(31)12-8-20/h5-12,17-18,27,30H,2-4,13-16H2,1H3,(H,28,31)(H,29,32)/b11-7+,12-8+

> <PUBCHEM_IUPAC_INCHIKEY>
FLRXCRYRYZPGPB-MKICQXMISA-N

> <PUBCHEM_XLOGP3_AA>
3

> <PUBCHEM_EXACT_MASS>
465.226371

> <PUBCHEM_MOLECULAR_FORMULA>
C26H31N3O5

> <PUBCHEM_MOLECULAR_WEIGHT>
465.54144

> <PUBCHEM_OPENEYE_CAN_SMILES>
COC1=C2C=CC(=C1)C=CC(=O)NCCCCNCCCNC(=O)C=CC3=CC(=C(C=C3)O)O2

> <PUBCHEM_OPENEYE_ISO_SMILES>
COC1=C2C=CC(=C1)/C=C/C(=O)NCCCCNCCCNC(=O)/C=C/C3=CC(=C(C=C3)O)O2

> <PUBCHEM_CACTVS_TPSA>
109

> <PUBCHEM_MONOISOTOPIC_WEIGHT>
465.226371

> <PUBCHEM_TOTAL_CHARGE>
0

> <PUBCHEM_HEAVY_ATOM_COUNT>
34

> <PUBCHEM_ATOM_DEF_STEREO_COUNT>
0

> <PUBCHEM_ATOM_UDEF_STEREO_COUNT>
0

> <PUBCHEM_BOND_DEF_STEREO_COUNT>
2

> <PUBCHEM_BOND_UDEF_STEREO_COUNT>
0

> <PUBCHEM_ISOTOPIC_ATOM_COUNT>
0

> <PUBCHEM_COMPONENT_COUNT>
1

> <PUBCHEM_CACTVS_TAUTO_COUNT>
14

> <PUBCHEM_COORDINATE_TYPE>
1
5
255

> <PUBCHEM_BONDANNOTATIONS>
19  27  8
19  28  8
22  29  8
22  31  8
23  24  8
23  30  8
24  27  8
25  29  8
25  32  8
28  30  8
31  33  8
32  33  8

$$$$

