439771
  -OEChem-07051212473D

 13 12  0     1  0  0  0  0  0999 V2000
    2.3122    0.7983    0.1901 Cl  0  0  0  0  0  0  0  0  0  0  0  0
   -0.6445    1.6163   -0.6997 O   0  0  0  0  0  0  0  0  0  0  0  0
   -1.6385    0.3837    0.9225 O   0  0  0  0  0  0  0  0  0  0  0  0
   -0.6477   -1.9104   -0.2941 N   0  0  0  0  0  0  0  0  0  0  0  0
    0.0801   -0.6503   -0.4687 C   0  0  2  0  0  0  0  0  0  0  0  0
    1.3702   -0.7077    0.3447 C   0  0  0  0  0  0  0  0  0  0  0  0
   -0.8319    0.4700    0.0051 C   0  0  0  0  0  0  0  0  0  0  0  0
    0.2909   -0.5168   -1.5359 H   0  0  0  0  0  0  0  0  0  0  0  0
    2.0138   -1.5281    0.0109 H   0  0  0  0  0  0  0  0  0  0  0  0
    1.1661   -0.8425    1.4125 H   0  0  0  0  0  0  0  0  0  0  0  0
   -0.0647   -2.6872   -0.6038 H   0  0  0  0  0  0  0  0  0  0  0  0
   -1.4696   -1.9157   -0.8975 H   0  0  0  0  0  0  0  0  0  0  0  0
   -1.2289    2.3386   -0.3847 H   0  0  0  0  0  0  0  0  0  0  0  0
  1  6  1  0  0  0  0
  2  7  1  0  0  0  0
  2 13  1  0  0  0  0
  3  7  2  0  0  0  0
  4  5  1  0  0  0  0
  4 11  1  0  0  0  0
  4 12  1  0  0  0  0
  5  6  1  0  0  0  0
  5  7  1  0  0  0  0
  5  8  1  0  0  0  0
  6  9  1  0  0  0  0
  6 10  1  0  0  0  0
M  END
> <PUBCHEM_COMPOUND_CID>
439771

> <PUBCHEM_CONFORMER_RMSD>
0.4

> <PUBCHEM_CONFORMER_DIVERSEORDER>
1
6
3
2
4
9
7
5
8

> <PUBCHEM_MMFF94_PARTIAL_CHARGES>
10
1 -0.29
11 0.36
12 0.36
13 0.5
2 -0.65
3 -0.57
4 -0.99
5 0.33
6 0.29
7 0.66

> <PUBCHEM_EFFECTIVE_ROTOR_COUNT>
2

> <PUBCHEM_PHARMACOPHORE_FEATURES>
5
1 2 acceptor
1 3 acceptor
1 4 cation
1 4 donor
3 2 3 7 anion

> <PUBCHEM_HEAVY_ATOM_COUNT>
7

> <PUBCHEM_ATOM_DEF_STEREO_COUNT>
1

> <PUBCHEM_ATOM_UDEF_STEREO_COUNT>
0

> <PUBCHEM_BOND_DEF_STEREO_COUNT>
0

> <PUBCHEM_BOND_UDEF_STEREO_COUNT>
0

> <PUBCHEM_ISOTOPIC_ATOM_COUNT>
0

> <PUBCHEM_COMPONENT_COUNT>
1

> <PUBCHEM_CACTVS_TAUTO_COUNT>
1

> <PUBCHEM_CONFORMER_ID>
0006B5DB00000001

> <PUBCHEM_MMFF94_ENERGY>
4.3235

> <PUBCHEM_FEATURE_SELFOVERLAP>
25.431

> <PUBCHEM_SHAPE_FINGERPRINT>
16714656 1 18410567358301834564
18185500 45 18053388691026134182
20096714 4 18335706099865335346
21040471 1 18335704978820900744
24536 1 17603597326256316962
5084963 1 17970083324853599814
5943 1 15253920194109620991

> <PUBCHEM_SHAPE_MULTIPOLES>
129.21
2.3
1.63
0.8
1.44
0.26
-0.05
-0.5
-0.42
-0.41
0.28
-0.15
-0.1
-0.09

> <PUBCHEM_SHAPE_SELFOVERLAP>
229.402

> <PUBCHEM_SHAPE_VOLUME>
84.9

> <PUBCHEM_COORDINATE_TYPE>
2
5
10

$$$$

