8573
  -OEChem-06261202553D

 32 32  0     1  0  0  0  0  0999 V2000
    1.0532   -0.0243   -0.4426 O   0  0  0  0  0  0  0  0  0  0  0  0
    0.6109    0.0348    1.8157 O   0  0  0  0  0  0  0  0  0  0  0  0
   -2.5993    2.4596   -0.8074 O   0  0  0  0  0  0  0  0  0  0  0  0
   -1.0179    2.3080    0.8184 O   0  0  0  0  0  0  0  0  0  0  0  0
    2.4004    0.3992   -0.1985 C   0  0  1  0  0  0  0  0  0  0  0  0
    3.1044    0.5133   -1.5649 C   0  0  0  0  0  0  0  0  0  0  0  0
    2.3084    1.7438    0.5237 C   0  0  0  0  0  0  0  0  0  0  0  0
    3.0879   -0.7500   -2.4162 C   0  0  0  0  0  0  0  0  0  0  0  0
   -1.0902   -0.6061    0.2729 C   0  0  0  0  0  0  0  0  0  0  0  0
    0.2736   -0.1641    0.6590 C   0  0  0  0  0  0  0  0  0  0  0  0
    3.0585   -0.5989    0.6663 C   0  0  0  0  0  0  0  0  0  0  0  0
   -2.0719    0.3242   -0.0048 C   0  0  0  0  0  0  0  0  0  0  0  0
   -1.3295   -1.9653    0.2045 C   0  0  0  0  0  0  0  0  0  0  0  0
   -3.3436   -0.1212   -0.3653 C   0  0  0  0  0  0  0  0  0  0  0  0
   -2.6012   -2.4106   -0.1560 C   0  0  0  0  0  0  0  0  0  0  0  0
   -3.6083   -1.4885   -0.4409 C   0  0  0  0  0  0  0  0  0  0  0  0
   -1.8267    1.7588    0.0657 C   0  0  0  0  0  0  0  0  0  0  0  0
    3.5912   -1.4128    1.3703 C   0  0  0  0  0  0  0  0  0  0  0  0
    4.1465    0.8266   -1.4224 H   0  0  0  0  0  0  0  0  0  0  0  0
    2.6124    1.3024   -2.1488 H   0  0  0  0  0  0  0  0  0  0  0  0
    2.0723    1.6923    1.5899 H   0  0  0  0  0  0  0  0  0  0  0  0
    3.2788    2.2553    0.4785 H   0  0  0  0  0  0  0  0  0  0  0  0
    1.5742    2.4025    0.0466 H   0  0  0  0  0  0  0  0  0  0  0  0
    3.6154   -1.5725   -1.9241 H   0  0  0  0  0  0  0  0  0  0  0  0
    2.0646   -1.0743   -2.6292 H   0  0  0  0  0  0  0  0  0  0  0  0
    3.5845   -0.5621   -3.3737 H   0  0  0  0  0  0  0  0  0  0  0  0
   -0.5498   -2.6887    0.4249 H   0  0  0  0  0  0  0  0  0  0  0  0
   -4.1537    0.5708   -0.5803 H   0  0  0  0  0  0  0  0  0  0  0  0
   -2.8076   -3.4753   -0.2142 H   0  0  0  0  0  0  0  0  0  0  0  0
   -4.5992   -1.8358   -0.7184 H   0  0  0  0  0  0  0  0  0  0  0  0
    4.0631   -2.1348    1.9947 H   0  0  0  0  0  0  0  0  0  0  0  0
   -2.4277    3.4240   -0.7539 H   0  0  0  0  0  0  0  0  0  0  0  0
  1  5  1  0  0  0  0
  1 10  1  0  0  0  0
  2 10  2  0  0  0  0
  3 17  1  0  0  0  0
  3 32  1  0  0  0  0
  4 17  2  0  0  0  0
  5  6  1  0  0  0  0
  5  7  1  0  0  0  0
  5 11  1  0  0  0  0
  6  8  1  0  0  0  0
  6 19  1  0  0  0  0
  6 20  1  0  0  0  0
  7 21  1  0  0  0  0
  7 22  1  0  0  0  0
  7 23  1  0  0  0  0
  8 24  1  0  0  0  0
  8 25  1  0  0  0  0
  8 26  1  0  0  0  0
  9 10  1  0  0  0  0
  9 12  1  0  0  0  0
  9 13  2  0  0  0  0
 11 18  3  0  0  0  0
 12 14  2  0  0  0  0
 12 17  1  0  0  0  0
 13 15  1  0  0  0  0
 13 27  1  0  0  0  0
 14 16  1  0  0  0  0
 14 28  1  0  0  0  0
 15 16  2  0  0  0  0
 15 29  1  0  0  0  0
 16 30  1  0  0  0  0
 18 31  1  0  0  0  0
M  END
> <PUBCHEM_COMPOUND_CID>
8573

> <PUBCHEM_CONFORMER_RMSD>
0.6

> <PUBCHEM_CONFORMER_DIVERSEORDER>
8
90
23
62
72
96
46
87
48
93
61
68
97
83
81
85
67
80
63
60
89
59
70
56
84
82
79
71
92
86
47
94
75
98
69
31
76
44
64
51
77
41
74
49
50
27
52
40
42
54
91
14
28
45
36
53
66
34
25
65
16
38
29
26
57
6
12
58
43
88
20
78
19
15
3
39
32
30
2
9
35
37
33
7
13
55
17
11
24
18
73
22
1
21
5
4
95
10

> <PUBCHEM_MMFF94_PARTIAL_CHARGES>
21
1 -0.43
10 0.63
11 -0.2
12 0.09
13 -0.15
14 -0.15
15 -0.15
16 -0.15
17 0.63
18 -0.18
2 -0.57
27 0.15
28 0.15
29 0.15
3 -0.65
30 0.15
31 0.18
32 0.5
4 -0.57
5 0.48
9 0.09

> <PUBCHEM_EFFECTIVE_ROTOR_COUNT>
5

> <PUBCHEM_PHARMACOPHORE_FEATURES>
7
1 18 hydrophobe
1 2 acceptor
1 3 acceptor
1 4 acceptor
1 8 hydrophobe
3 3 4 17 anion
6 9 12 13 14 15 16 rings

> <PUBCHEM_HEAVY_ATOM_COUNT>
18

> <PUBCHEM_ATOM_DEF_STEREO_COUNT>
0

> <PUBCHEM_ATOM_UDEF_STEREO_COUNT>
1

> <PUBCHEM_BOND_DEF_STEREO_COUNT>
0

> <PUBCHEM_BOND_UDEF_STEREO_COUNT>
0

> <PUBCHEM_ISOTOPIC_ATOM_COUNT>
0

> <PUBCHEM_COMPONENT_COUNT>
1

> <PUBCHEM_CACTVS_TAUTO_COUNT>
1

> <PUBCHEM_CONFORMER_ID>
0000217D00000008

> <PUBCHEM_MMFF94_ENERGY>
57.0594

> <PUBCHEM_FEATURE_SELFOVERLAP>
35.579

> <PUBCHEM_SHAPE_FINGERPRINT>
11578080 2 17485969356030054316
11582403 64 15949148053768512400
12202030 40 17313093159858138438
12932764 1 18340757178873732824
13296908 3 16877937256794838118
15342816 4 18192999205627917919
15442244 35 18271536402356024370
16752209 62 18341346568909663171
16945 1 18334851761844794115
18186145 218 18259697921625103265
19049666 15 17532368849690068090
19862831 5 17775294841288260275
19868273 293 18343016743819659525
21524375 3 17913774092022274353
2255824 54 17131839767979506658
22802520 49 18113609092976512237
23184049 29 18409737235575797186
23402539 116 18263100910392651447
23557571 272 18187366510727382512
23559900 14 18335714831771257768
23598291 2 17845933047740952446
2748010 2 17978242556304871963
3082319 5 18059852853093346342
312423 11 17989478649732693906
5262128 65 18122033482618379972
6992083 37 17986115338395064248
74978 22 18411980295273622088
7615 1 18060419127403942492
77492 1 17846782918256774195
8030462 33 18059848433587654058
81228 2 18337662040893954065
84936 31 16808138982947886065
9709674 26 18335423473685090646
9981440 41 17413024293189943000

> <PUBCHEM_SHAPE_MULTIPOLES>
346.95
6.58
2.36
1.5
0.92
0.65
-0.55
-1.78
-1.42
-1.75
0.13
1.92
-0.25
-0.18

> <PUBCHEM_SHAPE_SELFOVERLAP>
728.417

> <PUBCHEM_SHAPE_VOLUME>
195

> <PUBCHEM_COORDINATE_TYPE>
2
5
10

$$$$

