4295
  -OEChem-06261200012D

 57 60  0     0  0  0  0  0  0999 V2000
   10.6350    4.8130    0.0000 Cl  0  0  0  0  0  0  0  0  0  0  0  0
    2.8660    1.2329    0.0000 O   0  0  0  0  0  0  0  0  0  0  0  0
    6.0531    4.7325    0.0000 O   0  0  0  0  0  0  0  0  0  0  0  0
    5.0746   -0.0604    0.0000 O   0  0  0  0  0  0  0  0  0  0  0  0
    6.4103    3.0376    0.0000 N   0  0  0  0  0  0  0  0  0  0  0  0
    6.3638   -1.2172    0.0000 N   0  0  0  0  0  0  0  0  0  0  0  0
    3.6924   -4.1944    0.0000 N   0  0  0  0  0  0  0  0  0  0  0  0
    6.4103    1.4282    0.0000 C   0  0  0  0  0  0  0  0  0  0  0  0
    5.4641    1.7329    0.0000 C   0  0  0  0  0  0  0  0  0  0  0  0
    6.9939    2.2329    0.0000 C   0  0  0  0  0  0  0  0  0  0  0  0
    5.4641    2.7329    0.0000 C   0  0  0  0  0  0  0  0  0  0  0  0
    6.7210    0.4777    0.0000 C   0  0  0  0  0  0  0  0  0  0  0  0
    4.5981    1.2329    0.0000 C   0  0  0  0  0  0  0  0  0  0  0  0
    4.5981    3.2329    0.0000 C   0  0  0  0  0  0  0  0  0  0  0  0
    7.9939    2.2329    0.0000 C   0  0  0  0  0  0  0  0  0  0  0  0
    6.7210    3.9882    0.0000 C   0  0  0  0  0  0  0  0  0  0  0  0
    3.7320    1.7329    0.0000 C   0  0  0  0  0  0  0  0  0  0  0  0
    6.0531   -0.2666    0.0000 C   0  0  0  0  0  0  0  0  0  0  0  0
    3.7320    2.7329    0.0000 C   0  0  0  0  0  0  0  0  0  0  0  0
    7.6995    4.1944    0.0000 C   0  0  0  0  0  0  0  0  0  0  0  0
    5.6960   -1.9615    0.0000 C   0  0  0  0  0  0  0  0  0  0  0  0
    6.0066   -2.9120    0.0000 C   0  0  0  0  0  0  0  0  0  0  0  0
    8.3673    3.4501    0.0000 C   0  0  0  0  0  0  0  0  0  0  0  0
    8.0102    5.1449    0.0000 C   0  0  0  0  0  0  0  0  0  0  0  0
    5.3388   -3.6563    0.0000 C   0  0  0  0  0  0  0  0  0  0  0  0
    9.3458    3.6563    0.0000 C   0  0  0  0  0  0  0  0  0  0  0  0
    8.9887    5.3511    0.0000 C   0  0  0  0  0  0  0  0  0  0  0  0
    2.0000    1.7329    0.0000 C   0  0  0  0  0  0  0  0  0  0  0  0
    9.6565    4.6068    0.0000 C   0  0  0  0  0  0  0  0  0  0  0  0
    5.6494   -4.6068    0.0000 C   0  0  0  0  0  0  0  0  0  0  0  0
    4.3603   -3.4501    0.0000 C   0  0  0  0  0  0  0  0  0  0  0  0
    4.9816   -5.3511    0.0000 C   0  0  0  0  0  0  0  0  0  0  0  0
    4.0031   -5.1449    0.0000 C   0  0  0  0  0  0  0  0  0  0  0  0
    7.1035   -0.0103    0.0000 H   0  0  0  0  0  0  0  0  0  0  0  0
    7.2679    0.7697    0.0000 H   0  0  0  0  0  0  0  0  0  0  0  0
    4.5981    0.6129    0.0000 H   0  0  0  0  0  0  0  0  0  0  0  0
    4.5981    3.8529    0.0000 H   0  0  0  0  0  0  0  0  0  0  0  0
    7.9939    1.6129    0.0000 H   0  0  0  0  0  0  0  0  0  0  0  0
    8.6139    2.2329    0.0000 H   0  0  0  0  0  0  0  0  0  0  0  0
    7.9939    2.8529    0.0000 H   0  0  0  0  0  0  0  0  0  0  0  0
    3.1951    3.0429    0.0000 H   0  0  0  0  0  0  0  0  0  0  0  0
    6.9705   -1.3450    0.0000 H   0  0  0  0  0  0  0  0  0  0  0  0
    5.3134   -1.4736    0.0000 H   0  0  0  0  0  0  0  0  0  0  0  0
    5.1490   -2.2535    0.0000 H   0  0  0  0  0  0  0  0  0  0  0  0
    6.3892   -3.3999    0.0000 H   0  0  0  0  0  0  0  0  0  0  0  0
    6.5535   -2.6200    0.0000 H   0  0  0  0  0  0  0  0  0  0  0  0
    8.1747    2.8608    0.0000 H   0  0  0  0  0  0  0  0  0  0  0  0
    7.5961    5.6064    0.0000 H   0  0  0  0  0  0  0  0  0  0  0  0
    9.7599    3.1948    0.0000 H   0  0  0  0  0  0  0  0  0  0  0  0
    9.1813    5.9404    0.0000 H   0  0  0  0  0  0  0  0  0  0  0  0
    2.3100    2.2698    0.0000 H   0  0  0  0  0  0  0  0  0  0  0  0
    1.4631    2.0429    0.0000 H   0  0  0  0  0  0  0  0  0  0  0  0
    1.6900    1.1960    0.0000 H   0  0  0  0  0  0  0  0  0  0  0  0
    6.2561   -4.7347    0.0000 H   0  0  0  0  0  0  0  0  0  0  0  0
    4.1677   -2.8608    0.0000 H   0  0  0  0  0  0  0  0  0  0  0  0
    5.1742   -5.9404    0.0000 H   0  0  0  0  0  0  0  0  0  0  0  0
    3.5890   -5.6064    0.0000 H   0  0  0  0  0  0  0  0  0  0  0  0
  1 29  1  0  0  0  0
  2 17  1  0  0  0  0
  2 28  1  0  0  0  0
  3 16  2  0  0  0  0
  4 18  2  0  0  0  0
  5 10  1  0  0  0  0
  5 11  1  0  0  0  0
  5 16  1  0  0  0  0
  6 18  1  0  0  0  0
  6 21  1  0  0  0  0
  6 42  1  0  0  0  0
  7 31  1  0  0  0  0
  7 33  2  0  0  0  0
  8  9  1  0  0  0  0
  8 10  2  0  0  0  0
  8 12  1  0  0  0  0
  9 11  2  0  0  0  0
  9 13  1  0  0  0  0
 10 15  1  0  0  0  0
 11 14  1  0  0  0  0
 12 18  1  0  0  0  0
 12 34  1  0  0  0  0
 12 35  1  0  0  0  0
 13 17  2  0  0  0  0
 13 36  1  0  0  0  0
 14 19  2  0  0  0  0
 14 37  1  0  0  0  0
 15 38  1  0  0  0  0
 15 39  1  0  0  0  0
 15 40  1  0  0  0  0
 16 20  1  0  0  0  0
 17 19  1  0  0  0  0
 19 41  1  0  0  0  0
 20 23  2  0  0  0  0
 20 24  1  0  0  0  0
 21 22  1  0  0  0  0
 21 43  1  0  0  0  0
 21 44  1  0  0  0  0
 22 25  1  0  0  0  0
 22 45  1  0  0  0  0
 22 46  1  0  0  0  0
 23 26  1  0  0  0  0
 23 47  1  0  0  0  0
 24 27  2  0  0  0  0
 24 48  1  0  0  0  0
 25 30  1  0  0  0  0
 25 31  2  0  0  0  0
 26 29  2  0  0  0  0
 26 49  1  0  0  0  0
 27 29  1  0  0  0  0
 27 50  1  0  0  0  0
 28 51  1  0  0  0  0
 28 52  1  0  0  0  0
 28 53  1  0  0  0  0
 30 32  2  0  0  0  0
 30 54  1  0  0  0  0
 31 55  1  0  0  0  0
 32 33  1  0  0  0  0
 32 56  1  0  0  0  0
 33 57  1  0  0  0  0
M  END
> <PUBCHEM_COMPOUND_CID>
4295

> <PUBCHEM_COMPOUND_CANONICALIZED>
1

> <PUBCHEM_CACTVS_COMPLEXITY>
669

> <PUBCHEM_CACTVS_HBOND_ACCEPTOR>
4

> <PUBCHEM_CACTVS_HBOND_DONOR>
1

> <PUBCHEM_CACTVS_ROTATABLE_BOND>
7

> <PUBCHEM_CACTVS_SUBSKEYS>
AAADceB7MAAEAAAAAAAAAAAAAAAAAWAAAAA8YIAAAAAAAFgB/AAAHgIQAAAADA7BniY+xvPMFACoAzV3VACCiCA1JyAI2KE+btgMJvLFt5uEMShk1hHI6Ye82fOehEABAAACAAAIgAIAAAQAAAAAAAAAAA==

> <PUBCHEM_IUPAC_OPENEYE_NAME>
2-[1-(4-chlorobenzoyl)-5-methoxy-2-methyl-indol-3-yl]-N-[2-(3-pyridyl)ethyl]acetamide

> <PUBCHEM_IUPAC_CAS_NAME>
2-[1-[(4-chlorophenyl)-oxomethyl]-5-methoxy-2-methyl-3-indolyl]-N-[2-(3-pyridinyl)ethyl]acetamide

> <PUBCHEM_IUPAC_NAME>
2-[1-(4-chlorobenzoyl)-5-methoxy-2-methylindol-3-yl]-N-(2-pyridin-3-ylethyl)acetamide

> <PUBCHEM_IUPAC_SYSTEMATIC_NAME>
2-[1-(4-chlorophenyl)carbonyl-5-methoxy-2-methyl-indol-3-yl]-N-(2-pyridin-3-ylethyl)ethanamide

> <PUBCHEM_IUPAC_TRADITIONAL_NAME>
2-[1-(4-chlorobenzoyl)-5-methoxy-2-methyl-indol-3-yl]-N-[2-(3-pyridyl)ethyl]acetamide

> <PUBCHEM_IUPAC_INCHI>
InChI=1S/C26H24ClN3O3/c1-17-22(15-25(31)29-13-11-18-4-3-12-28-16-18)23-14-21(33-2)9-10-24(23)30(17)26(32)19-5-7-20(27)8-6-19/h3-10,12,14,16H,11,13,15H2,1-2H3,(H,29,31)

> <PUBCHEM_IUPAC_INCHIKEY>
OFYWWFMXDHENBC-UHFFFAOYSA-N

> <PUBCHEM_XLOGP3>
4.9

> <PUBCHEM_EXACT_MASS>
461.150619

> <PUBCHEM_MOLECULAR_FORMULA>
C26H24ClN3O3

> <PUBCHEM_MOLECULAR_WEIGHT>
461.94006

> <PUBCHEM_OPENEYE_CAN_SMILES>
CC1=C(C2=C(N1C(=O)C3=CC=C(C=C3)Cl)C=CC(=C2)OC)CC(=O)NCCC4=CN=CC=C4

> <PUBCHEM_OPENEYE_ISO_SMILES>
CC1=C(C2=C(N1C(=O)C3=CC=C(C=C3)Cl)C=CC(=C2)OC)CC(=O)NCCC4=CN=CC=C4

> <PUBCHEM_CACTVS_TPSA>
73.2

> <PUBCHEM_MONOISOTOPIC_WEIGHT>
461.150619

> <PUBCHEM_TOTAL_CHARGE>
0

> <PUBCHEM_HEAVY_ATOM_COUNT>
33

> <PUBCHEM_ATOM_DEF_STEREO_COUNT>
0

> <PUBCHEM_ATOM_UDEF_STEREO_COUNT>
0

> <PUBCHEM_BOND_DEF_STEREO_COUNT>
0

> <PUBCHEM_BOND_UDEF_STEREO_COUNT>
0

> <PUBCHEM_ISOTOPIC_ATOM_COUNT>
0

> <PUBCHEM_COMPONENT_COUNT>
1

> <PUBCHEM_CACTVS_TAUTO_COUNT>
2

> <PUBCHEM_COORDINATE_TYPE>
1
5
255

> <PUBCHEM_BONDANNOTATIONS>
11  14  8
13  17  8
14  19  8
17  19  8
20  23  8
20  24  8
23  26  8
24  27  8
25  30  8
25  31  8
26  29  8
27  29  8
30  32  8
32  33  8
5  10  8
5  11  8
7  31  8
7  33  8
8  10  8
8  9  8
9  11  8
9  13  8

$$$$

