6857365
  -OEChem-07051212453D

 22 22  0     1  0  0  0  0  0999 V2000
    0.1190   -1.0970    0.3956 O   0  0  0  0  0  0  0  0  0  0  0  0
    0.8095    2.3819    0.5342 O   0  0  0  0  0  0  0  0  0  0  0  0
    3.0153    0.5037   -0.7320 O   0  0  0  0  0  0  0  0  0  0  0  0
   -1.5886    0.1186   -1.4583 O   0  0  0  0  0  0  0  0  0  0  0  0
   -3.9747   -0.2845   -0.1016 O   0  0  0  0  0  0  0  0  0  0  0  0
    2.1296   -2.1240   -0.0185 O   0  0  0  0  0  0  0  0  0  0  0  0
   -0.3219    0.2570    0.5739 C   0  0  1  0  0  0  0  0  0  0  0  0
    0.7555    1.1045   -0.0743 C   0  0  2  0  0  0  0  0  0  0  0  0
    1.9989    0.2939    0.2170 C   0  0  1  0  0  0  0  0  0  0  0  0
   -1.6854    0.4386   -0.0704 C   0  0  2  0  0  0  0  0  0  0  0  0
    1.4710   -1.1146    0.1760 C   0  0  0  0  0  0  0  0  0  0  0  0
   -2.7282   -0.4779    0.5585 C   0  0  0  0  0  0  0  0  0  0  0  0
   -0.3995    0.4516    1.6515 H   0  0  0  0  0  0  0  0  0  0  0  0
    0.6234    1.2410   -1.1529 H   0  0  0  0  0  0  0  0  0  0  0  0
    2.3974    0.5012    1.2165 H   0  0  0  0  0  0  0  0  0  0  0  0
   -2.0152    1.4812   -0.0051 H   0  0  0  0  0  0  0  0  0  0  0  0
   -2.4671   -1.5357    0.4513 H   0  0  0  0  0  0  0  0  0  0  0  0
   -2.8637   -0.2551    1.6210 H   0  0  0  0  0  0  0  0  0  0  0  0
    0.9639    2.2638    1.4868 H   0  0  0  0  0  0  0  0  0  0  0  0
    3.7755   -0.0455   -0.4749 H   0  0  0  0  0  0  0  0  0  0  0  0
   -1.2787   -0.8005   -1.5313 H   0  0  0  0  0  0  0  0  0  0  0  0
   -3.8381   -0.4783   -1.0447 H   0  0  0  0  0  0  0  0  0  0  0  0
  1  7  1  0  0  0  0
  1 11  1  0  0  0  0
  2  8  1  0  0  0  0
  2 19  1  0  0  0  0
  3  9  1  0  0  0  0
  3 20  1  0  0  0  0
  4 10  1  0  0  0  0
  4 21  1  0  0  0  0
  5 12  1  0  0  0  0
  5 22  1  0  0  0  0
  6 11  2  0  0  0  0
  7  8  1  0  0  0  0
  7 10  1  0  0  0  0
  7 13  1  0  0  0  0
  8  9  1  0  0  0  0
  8 14  1  0  0  0  0
  9 11  1  0  0  0  0
  9 15  1  0  0  0  0
 10 12  1  0  0  0  0
 10 16  1  0  0  0  0
 12 17  1  0  0  0  0
 12 18  1  0  0  0  0
M  END
> <PUBCHEM_COMPOUND_CID>
6857365

> <PUBCHEM_CONFORMER_RMSD>
0.6

> <PUBCHEM_CONFORMER_DIVERSEORDER>
2
6
3
1
5
4

> <PUBCHEM_MMFF94_PARTIAL_CHARGES>
16
1 -0.43
10 0.28
11 0.66
12 0.28
19 0.4
2 -0.68
20 0.4
21 0.4
22 0.4
3 -0.68
4 -0.68
5 -0.68
6 -0.57
7 0.28
8 0.28
9 0.34

> <PUBCHEM_EFFECTIVE_ROTOR_COUNT>
2.8

> <PUBCHEM_PHARMACOPHORE_FEATURES>
10
1 2 acceptor
1 2 donor
1 3 acceptor
1 3 donor
1 4 acceptor
1 4 donor
1 5 acceptor
1 5 donor
1 6 acceptor
5 1 7 8 9 11 rings

> <PUBCHEM_HEAVY_ATOM_COUNT>
12

> <PUBCHEM_ATOM_DEF_STEREO_COUNT>
4

> <PUBCHEM_ATOM_UDEF_STEREO_COUNT>
0

> <PUBCHEM_BOND_DEF_STEREO_COUNT>
0

> <PUBCHEM_BOND_UDEF_STEREO_COUNT>
0

> <PUBCHEM_ISOTOPIC_ATOM_COUNT>
0

> <PUBCHEM_COMPONENT_COUNT>
1

> <PUBCHEM_CACTVS_TAUTO_COUNT>
6

> <PUBCHEM_CONFORMER_ID>
0068A29500000002

> <PUBCHEM_MMFF94_ENERGY>
20.8434

> <PUBCHEM_FEATURE_SELFOVERLAP>
50.756

> <PUBCHEM_SHAPE_FINGERPRINT>
11031198 65 18342450417984838436
12423570 1 11290162410781386072
12932764 1 17676498254107654273
16945 1 18336836302991882864
20201158 50 18343863312054588291
20588541 1 18272644610917982754
20645477 70 18340209686967130247
20871998 22 18044370762880245510
21293036 1 18340759360907159636
23235685 24 18341614767778549488
23402655 69 18411144653952524381
23552423 10 18127967727166946506
2748010 2 18266467692127075076
29004967 10 18410859883986700928
5084963 1 17632581526195287801
528886 8 18409449146270342432

> <PUBCHEM_SHAPE_MULTIPOLES>
211.74
4.49
1.68
0.85
3.19
0.14
0.18
-0.85
0.47
-1.23
-0.23
0.19
0.08
0.07

> <PUBCHEM_SHAPE_SELFOVERLAP>
429.391

> <PUBCHEM_SHAPE_VOLUME>
124.5

> <PUBCHEM_COORDINATE_TYPE>
2
5
10

$$$$

