5372405
  -OEChem-07051213122D

 37 36  0     1  0  0  0  0  0999 V2000
    5.0981   -1.1720    0.0000 S   0  0  0  0  0  0  0  0  0  0  0  0
    4.5981   -0.3060    0.0000 P   0  0  3  0  0  0  0  0  0  0  0  0
    5.4641    0.1940    0.0000 O   0  0  0  0  0  0  0  0  0  0  0  0
    8.9282    0.1940    0.0000 O   0  0  0  0  0  0  0  0  0  0  0  0
    4.0981    0.5600    0.0000 O   0  0  0  0  0  0  0  0  0  0  0  0
    8.0622   -1.3060    0.0000 O   0  0  0  0  0  0  0  0  0  0  0  0
    3.7320   -0.8060    0.0000 N   0  0  0  0  0  0  0  0  0  0  0  0
    9.7942   -0.3060    0.0000 C   0  0  0  0  0  0  0  0  0  0  0  0
    2.8660   -0.3060    0.0000 C   0  0  0  0  0  0  0  0  0  0  0  0
    6.3301   -0.3060    0.0000 C   0  0  0  0  0  0  0  0  0  0  0  0
   10.6603    0.1940    0.0000 C   0  0  0  0  0  0  0  0  0  0  0  0
    9.7942   -1.3060    0.0000 C   0  0  0  0  0  0  0  0  0  0  0  0
    2.0000   -0.8060    0.0000 C   0  0  0  0  0  0  0  0  0  0  0  0
    7.1962    0.1940    0.0000 C   0  0  0  0  0  0  0  0  0  0  0  0
    8.0622   -0.3060    0.0000 C   0  0  0  0  0  0  0  0  0  0  0  0
    6.3301   -1.3060    0.0000 C   0  0  0  0  0  0  0  0  0  0  0  0
    4.5981    1.4260    0.0000 C   0  0  0  0  0  0  0  0  0  0  0  0
    9.2573   -0.6160    0.0000 H   0  0  0  0  0  0  0  0  0  0  0  0
    3.2646    0.1689    0.0000 H   0  0  0  0  0  0  0  0  0  0  0  0
    2.4675    0.1689    0.0000 H   0  0  0  0  0  0  0  0  0  0  0  0
    3.7320   -1.4260    0.0000 H   0  0  0  0  0  0  0  0  0  0  0  0
   10.9703   -0.3430    0.0000 H   0  0  0  0  0  0  0  0  0  0  0  0
   11.1972    0.5040    0.0000 H   0  0  0  0  0  0  0  0  0  0  0  0
   10.3503    0.7309    0.0000 H   0  0  0  0  0  0  0  0  0  0  0  0
    9.1742   -1.3060    0.0000 H   0  0  0  0  0  0  0  0  0  0  0  0
    9.7942   -1.9260    0.0000 H   0  0  0  0  0  0  0  0  0  0  0  0
   10.4142   -1.3060    0.0000 H   0  0  0  0  0  0  0  0  0  0  0  0
    1.6900   -0.2691    0.0000 H   0  0  0  0  0  0  0  0  0  0  0  0
    1.4631   -1.1160    0.0000 H   0  0  0  0  0  0  0  0  0  0  0  0
    2.3100   -1.3430    0.0000 H   0  0  0  0  0  0  0  0  0  0  0  0
    7.1962    0.8140    0.0000 H   0  0  0  0  0  0  0  0  0  0  0  0
    5.7101   -1.3060    0.0000 H   0  0  0  0  0  0  0  0  0  0  0  0
    6.3301   -1.9260    0.0000 H   0  0  0  0  0  0  0  0  0  0  0  0
    6.9501   -1.3060    0.0000 H   0  0  0  0  0  0  0  0  0  0  0  0
    5.1350    1.1160    0.0000 H   0  0  0  0  0  0  0  0  0  0  0  0
    4.9081    1.9630    0.0000 H   0  0  0  0  0  0  0  0  0  0  0  0
    4.0611    1.7360    0.0000 H   0  0  0  0  0  0  0  0  0  0  0  0
  1  2  2  0  0  0  0
  2  3  1  0  0  0  0
  2  5  1  0  0  0  0
  2  7  1  0  0  0  0
  3 10  1  0  0  0  0
  4  8  1  0  0  0  0
  4 15  1  0  0  0  0
  5 17  1  0  0  0  0
  6 15  2  0  0  0  0
  7  9  1  0  0  0  0
  7 21  1  0  0  0  0
  8 11  1  0  0  0  0
  8 12  1  0  0  0  0
  8 18  1  0  0  0  0
  9 13  1  0  0  0  0
  9 19  1  0  0  0  0
  9 20  1  0  0  0  0
 10 14  2  0  0  0  0
 10 16  1  0  0  0  0
 11 22  1  0  0  0  0
 11 23  1  0  0  0  0
 11 24  1  0  0  0  0
 12 25  1  0  0  0  0
 12 26  1  0  0  0  0
 12 27  1  0  0  0  0
 13 28  1  0  0  0  0
 13 29  1  0  0  0  0
 13 30  1  0  0  0  0
 14 15  1  0  0  0  0
 14 31  1  0  0  0  0
 16 32  1  0  0  0  0
 16 33  1  0  0  0  0
 16 34  1  0  0  0  0
 17 35  1  0  0  0  0
 17 36  1  0  0  0  0
 17 37  1  0  0  0  0
M  END
> <PUBCHEM_COMPOUND_CID>
5372405

> <PUBCHEM_COMPOUND_CANONICALIZED>
1

> <PUBCHEM_CACTVS_COMPLEXITY>
330

> <PUBCHEM_CACTVS_HBOND_ACCEPTOR>
6

> <PUBCHEM_CACTVS_HBOND_DONOR>
1

> <PUBCHEM_CACTVS_ROTATABLE_BOND>
8

> <PUBCHEM_CACTVS_SUBSKEYS>
AAADceByOAJAAAAAAAAAAAAAAAAAAAAAAAAAAAAAAAAAAAAAAAAAHgAQgCAACBThgAYCCABABRCIACDSCAAAAAAAIAAACIAAAEAABAAAIQACEAAAEAAAIQAAAAAAAAAAAAAAAAAAAAAAAAAAAAAAAAAAAA==

> <PUBCHEM_IUPAC_OPENEYE_NAME>
isopropyl (E)-3-[ethylamino(methoxy)phosphinothioyl]oxybut-2-enoate

> <PUBCHEM_IUPAC_CAS_NAME>
(E)-3-[ethylamino(methoxy)phosphinothioyl]oxy-2-butenoic acid propan-2-yl ester

> <PUBCHEM_IUPAC_NAME>
propan-2-yl (E)-3-[ethylamino(methoxy)phosphinothioyl]oxybut-2-enoate

> <PUBCHEM_IUPAC_SYSTEMATIC_NAME>
propan-2-yl (E)-3-[ethylamino(methoxy)phosphinothioyl]oxybut-2-enoate

> <PUBCHEM_IUPAC_TRADITIONAL_NAME>
(E)-3-[ethylamino(methoxy)thiophosphoryl]oxybut-2-enoic acid isopropyl ester

> <PUBCHEM_IUPAC_INCHI>
InChI=1S/C10H20NO4PS/c1-6-11-16(17,13-5)15-9(4)7-10(12)14-8(2)3/h7-8H,6H2,1-5H3,(H,11,17)/b9-7+

> <PUBCHEM_IUPAC_INCHIKEY>
BZNDWPRGXNILMS-VQHVLOKHSA-N

> <PUBCHEM_XLOGP3_AA>
2.8

> <PUBCHEM_EXACT_MASS>
281.085066

> <PUBCHEM_MOLECULAR_FORMULA>
C10H20NO4PS

> <PUBCHEM_MOLECULAR_WEIGHT>
281.308862

> <PUBCHEM_OPENEYE_CAN_SMILES>
CCNP(=S)(OC)OC(=CC(=O)OC(C)C)C

> <PUBCHEM_OPENEYE_ISO_SMILES>
CCNP(=S)(OC)O/C(=C/C(=O)OC(C)C)/C

> <PUBCHEM_CACTVS_TPSA>
88.9

> <PUBCHEM_MONOISOTOPIC_WEIGHT>
281.085066

> <PUBCHEM_TOTAL_CHARGE>
0

> <PUBCHEM_HEAVY_ATOM_COUNT>
17

> <PUBCHEM_ATOM_DEF_STEREO_COUNT>
0

> <PUBCHEM_ATOM_UDEF_STEREO_COUNT>
1

> <PUBCHEM_BOND_DEF_STEREO_COUNT>
1

> <PUBCHEM_BOND_UDEF_STEREO_COUNT>
0

> <PUBCHEM_ISOTOPIC_ATOM_COUNT>
0

> <PUBCHEM_COMPONENT_COUNT>
1

> <PUBCHEM_CACTVS_TAUTO_COUNT>
2

> <PUBCHEM_COORDINATE_TYPE>
1
5
255

> <PUBCHEM_BONDANNOTATIONS>
2  3  3

$$$$

