282529
  -OEChem-07051212573D

 36 38  0     1  0  0  0  0  0999 V2000
   -2.7275   -1.1666    0.3190 O   0  0  0  0  0  0  0  0  0  0  0  0
    2.6807    2.6413    0.0383 O   0  0  0  0  0  0  0  0  0  0  0  0
   -4.6672    0.0072   -0.0650 O   0  0  0  0  0  0  0  0  0  0  0  0
    1.3545    0.6099    0.3772 C   0  0  2  0  0  0  0  0  0  0  0  0
    1.6136   -0.6954   -0.4308 C   0  0  2  0  0  0  0  0  0  0  0  0
    1.0228   -1.9769    0.2059 C   0  0  1  0  0  0  0  0  0  0  0  0
    0.0361    1.3156    0.0127 C   0  0  0  0  0  0  0  0  0  0  0  0
   -1.1193    0.3964   -0.4058 C   0  0  1  0  0  0  0  0  0  0  0  0
   -1.3283   -0.8303    0.4717 C   0  0  2  0  0  0  0  0  0  0  0  0
   -0.5131   -2.0532    0.0448 C   0  0  0  0  0  0  0  0  0  0  0  0
    2.5673    1.4275   -0.0456 C   0  0  0  0  0  0  0  0  0  0  0  0
    3.1069   -0.6511   -0.6520 C   0  0  0  0  0  0  0  0  0  0  0  0
    1.5038    0.4725    1.9094 C   0  0  0  0  0  0  0  0  0  0  0  0
   -2.4832    1.0017   -0.3445 C   0  0  0  0  0  0  0  0  0  0  0  0
    1.6177   -3.2595   -0.3993 C   0  0  0  0  0  0  0  0  0  0  0  0
    3.6583    0.5552   -0.5041 C   0  0  0  0  0  0  0  0  0  0  0  0
   -3.4526   -0.0631   -0.0194 C   0  0  0  0  0  0  0  0  0  0  0  0
   -2.8706    2.2687   -0.5126 C   0  0  0  0  0  0  0  0  0  0  0  0
    1.1894   -0.6049   -1.4420 H   0  0  0  0  0  0  0  0  0  0  0  0
    1.2563   -2.0088    1.2759 H   0  0  0  0  0  0  0  0  0  0  0  0
    0.2117    2.0177   -0.8147 H   0  0  0  0  0  0  0  0  0  0  0  0
   -0.2765    1.9488    0.8546 H   0  0  0  0  0  0  0  0  0  0  0  0
   -0.9668    0.0825   -1.4478 H   0  0  0  0  0  0  0  0  0  0  0  0
   -1.1812   -0.6236    1.5362 H   0  0  0  0  0  0  0  0  0  0  0  0
   -0.7586   -2.2860   -1.0015 H   0  0  0  0  0  0  0  0  0  0  0  0
   -0.8815   -2.9206    0.6106 H   0  0  0  0  0  0  0  0  0  0  0  0
    3.6768   -1.4924   -1.0229 H   0  0  0  0  0  0  0  0  0  0  0  0
    0.6870   -0.0885    2.3666 H   0  0  0  0  0  0  0  0  0  0  0  0
    2.4407   -0.0261    2.1846 H   0  0  0  0  0  0  0  0  0  0  0  0
    1.5225    1.4594    2.3884 H   0  0  0  0  0  0  0  0  0  0  0  0
    1.5170   -3.2688   -1.4900 H   0  0  0  0  0  0  0  0  0  0  0  0
    2.6778   -3.3635   -0.1481 H   0  0  0  0  0  0  0  0  0  0  0  0
    1.1110   -4.1478   -0.0058 H   0  0  0  0  0  0  0  0  0  0  0  0
    4.6759    0.8543   -0.6806 H   0  0  0  0  0  0  0  0  0  0  0  0
   -2.1524    3.0470   -0.7468 H   0  0  0  0  0  0  0  0  0  0  0  0
   -3.9107    2.5646   -0.4258 H   0  0  0  0  0  0  0  0  0  0  0  0
  1  9  1  0  0  0  0
  1 17  1  0  0  0  0
  2 11  2  0  0  0  0
  3 17  2  0  0  0  0
  4  5  1  0  0  0  0
  4  7  1  0  0  0  0
  4 11  1  0  0  0  0
  4 13  1  0  0  0  0
  5  6  1  0  0  0  0
  5 12  1  0  0  0  0
  5 19  1  0  0  0  0
  6 10  1  0  0  0  0
  6 15  1  0  0  0  0
  6 20  1  0  0  0  0
  7  8  1  0  0  0  0
  7 21  1  0  0  0  0
  7 22  1  0  0  0  0
  8  9  1  0  0  0  0
  8 14  1  0  0  0  0
  8 23  1  0  0  0  0
  9 10  1  0  0  0  0
  9 24  1  0  0  0  0
 10 25  1  0  0  0  0
 10 26  1  0  0  0  0
 11 16  1  0  0  0  0
 12 16  2  0  0  0  0
 12 27  1  0  0  0  0
 13 28  1  0  0  0  0
 13 29  1  0  0  0  0
 13 30  1  0  0  0  0
 14 17  1  0  0  0  0
 14 18  2  0  0  0  0
 15 31  1  0  0  0  0
 15 32  1  0  0  0  0
 15 33  1  0  0  0  0
 16 34  1  0  0  0  0
 18 35  1  0  0  0  0
 18 36  1  0  0  0  0
M  END
> <PUBCHEM_COMPOUND_CID>
282529

> <PUBCHEM_CONFORMER_RMSD>
0.6

> <PUBCHEM_CONFORMER_DIVERSEORDER>
1

> <PUBCHEM_MMFF94_PARTIAL_CHARGES>
17
1 -0.43
11 0.49
12 -0.29
14 -0.12
16 -0.14
17 0.71
18 -0.3
2 -0.57
27 0.15
3 -0.57
34 0.15
35 0.15
36 0.15
4 0.06
5 0.14
8 0.14
9 0.28

> <PUBCHEM_EFFECTIVE_ROTOR_COUNT>
0.8

> <PUBCHEM_PHARMACOPHORE_FEATURES>
5
1 2 acceptor
1 3 acceptor
5 1 8 9 14 17 rings
5 4 5 11 12 16 rings
7 4 5 6 7 8 9 10 rings

> <PUBCHEM_HEAVY_ATOM_COUNT>
18

> <PUBCHEM_ATOM_DEF_STEREO_COUNT>
5

> <PUBCHEM_ATOM_UDEF_STEREO_COUNT>
0

> <PUBCHEM_BOND_DEF_STEREO_COUNT>
0

> <PUBCHEM_BOND_UDEF_STEREO_COUNT>
0

> <PUBCHEM_ISOTOPIC_ATOM_COUNT>
0

> <PUBCHEM_COMPONENT_COUNT>
1

> <PUBCHEM_CACTVS_TAUTO_COUNT>
3

> <PUBCHEM_CONFORMER_ID>
00044FA100000001

> <PUBCHEM_MMFF94_ENERGY>
57.1154

> <PUBCHEM_FEATURE_SELFOVERLAP>
25.431

> <PUBCHEM_SHAPE_FINGERPRINT>
10498660 4 18342182107494450661
10608611 8 18413109489257006485
10967382 1 18411135844193735358
10980938 120 18408886277868857299
11471102 20 18409165528015364646
12173636 292 18339645512288491077
12592029 89 18413386549091739706
12730499 353 18411691085282552499
12932764 1 17676784131657984445
13134695 92 17389125617279287520
13140716 1 18338801083152835098
13380535 76 18341895181771958370
13464514 151 18267577103759846532
13897977 150 18412263977657671285
14251745 187 18335702680807889986
14648413 74 18341049738950083217
15196674 1 18339922730931109279
15219456 202 18340768255689373607
15309172 13 18338227164079617595
15375462 6 18412261761586538901
15442244 35 17976819014705552057
15775835 57 18260264114368685823
16945 1 18336536218280652746
1813 80 16413530033029408450
18186145 218 18260535724000689672
19049666 15 18340203123860897809
19591789 44 18337668616141153118
20510252 161 18264203608860047297
20645477 70 18261113019292612239
21501502 16 18267867374950950539
21524375 3 18343302552603143898
221490 88 18268419307976180183
2334 1 18049721811010029378
23402539 116 18337117748315357276
23419403 2 12877693279415422215
23493267 7 17847054484775607858
23526113 38 17967802826358528098
23559900 14 18338523048328675836
238 59 18052290485089613461
25 1 18411416249902956886
2748010 2 18122616163477394118
2871803 45 18411141333631477279
3060560 45 18411420596573391076
3323516 105 18337944696680754942
335352 9 17835520796900143983
495365 180 17898317084386221793
5104073 3 18270114742738266801
5262128 65 17679000837067145206
528886 8 18411138004873547586
53812653 166 18407760334980563394
69090 78 18335140847735772383
7364860 26 18337953510127940310
7832392 63 17832989725570525137
81228 2 17325784577675146346
9709674 26 18340763836273975743

> <PUBCHEM_SHAPE_MULTIPOLES>
352.82
6.18
2.77
0.93
4.19
0.96
0.37
-1.61
-0.94
-1.28
-0.26
-0.39
-0.11
0.54

> <PUBCHEM_SHAPE_SELFOVERLAP>
761.256

> <PUBCHEM_SHAPE_VOLUME>
195

> <PUBCHEM_COORDINATE_TYPE>
2
5
10

$$$$

