134049
  -OEChem-07051213092D

 36 37  0     1  0  0  0  0  0999 V2000
    5.1350    0.9330    0.0000 S   0  0  0  0  0  0  0  0  0  0  0  0
    4.6350    0.0670    0.0000 O   0  0  0  0  0  0  0  0  0  0  0  0
    5.6350    1.7990    0.0000 O   0  0  0  0  0  0  0  0  0  0  0  0
    2.5369    1.4330    0.0000 O   0  0  0  0  0  0  0  0  0  0  0  0
   11.7629   -0.9330    0.0000 O   0  0  0  0  0  0  0  0  0  0  0  0
   10.2629   -1.7990    0.0000 O   0  0  0  0  0  0  0  0  0  0  0  0
    8.6793    0.7377    0.0000 N   0  0  0  0  0  0  0  0  0  0  0  0
    8.6793   -0.8717    0.0000 N   0  0  0  0  0  0  0  0  0  0  0  0
   10.2629   -0.0670    0.0000 N   0  0  0  0  0  0  0  0  0  0  0  0
    4.2690    1.4330    0.0000 C   0  0  0  0  0  0  0  0  0  0  0  0
    6.0010    0.4330    0.0000 C   0  0  0  0  0  0  0  0  0  0  0  0
    3.4030    0.9330    0.0000 C   0  0  3  0  0  0  0  0  0  0  0  0
    7.7331    0.4330    0.0000 C   0  0  0  0  0  0  0  0  0  0  0  0
    6.8671    0.9330    0.0000 C   0  0  0  0  0  0  0  0  0  0  0  0
    7.7331   -0.5670    0.0000 C   0  0  0  0  0  0  0  0  0  0  0  0
    6.0010   -0.5670    0.0000 C   0  0  0  0  0  0  0  0  0  0  0  0
    6.8671   -1.0670    0.0000 C   0  0  0  0  0  0  0  0  0  0  0  0
    3.4030   -0.0670    0.0000 C   0  0  0  0  0  0  0  0  0  0  0  0
    9.2629   -0.0670    0.0000 C   0  0  0  0  0  0  0  0  0  0  0  0
   10.7629   -0.9330    0.0000 C   0  0  0  0  0  0  0  0  0  0  0  0
   12.2629   -1.7990    0.0000 C   0  0  0  0  0  0  0  0  0  0  0  0
    4.6675    1.9080    0.0000 H   0  0  0  0  0  0  0  0  0  0  0  0
    3.8705    1.9080    0.0000 H   0  0  0  0  0  0  0  0  0  0  0  0
    3.4030    1.7830    0.0000 H   0  0  0  0  0  0  0  0  0  0  0  0
    6.8671    1.5530    0.0000 H   0  0  0  0  0  0  0  0  0  0  0  0
    5.4641   -0.8770    0.0000 H   0  0  0  0  0  0  0  0  0  0  0  0
    6.8671   -1.6870    0.0000 H   0  0  0  0  0  0  0  0  0  0  0  0
    2.7830   -0.0670    0.0000 H   0  0  0  0  0  0  0  0  0  0  0  0
    3.4030   -0.6870    0.0000 H   0  0  0  0  0  0  0  0  0  0  0  0
    4.0230   -0.0670    0.0000 H   0  0  0  0  0  0  0  0  0  0  0  0
    8.8719    1.3271    0.0000 H   0  0  0  0  0  0  0  0  0  0  0  0
    2.0000    1.1230    0.0000 H   0  0  0  0  0  0  0  0  0  0  0  0
   10.5729    0.4699    0.0000 H   0  0  0  0  0  0  0  0  0  0  0  0
   11.7260   -2.1090    0.0000 H   0  0  0  0  0  0  0  0  0  0  0  0
   12.5729   -2.3360    0.0000 H   0  0  0  0  0  0  0  0  0  0  0  0
   12.7999   -1.4890    0.0000 H   0  0  0  0  0  0  0  0  0  0  0  0
  1  2  2  0  0  0  0
  1  3  2  0  0  0  0
  1 10  1  0  0  0  0
  1 11  1  0  0  0  0
  4 12  1  0  0  0  0
  4 32  1  0  0  0  0
  5 20  1  0  0  0  0
  5 21  1  0  0  0  0
  6 20  2  0  0  0  0
  7 13  1  0  0  0  0
  7 19  1  0  0  0  0
  7 31  1  0  0  0  0
  8 15  1  0  0  0  0
  8 19  2  0  0  0  0
  9 19  1  0  0  0  0
  9 20  1  0  0  0  0
  9 33  1  0  0  0  0
 10 12  1  0  0  0  0
 10 22  1  0  0  0  0
 10 23  1  0  0  0  0
 11 14  2  0  0  0  0
 11 16  1  0  0  0  0
 12 18  1  0  0  0  0
 12 24  1  0  0  0  0
 13 14  1  0  0  0  0
 13 15  2  0  0  0  0
 14 25  1  0  0  0  0
 15 17  1  0  0  0  0
 16 17  2  0  0  0  0
 16 26  1  0  0  0  0
 17 27  1  0  0  0  0
 18 28  1  0  0  0  0
 18 29  1  0  0  0  0
 18 30  1  0  0  0  0
 21 34  1  0  0  0  0
 21 35  1  0  0  0  0
 21 36  1  0  0  0  0
M  END
> <PUBCHEM_COMPOUND_CID>
134049

> <PUBCHEM_COMPOUND_CANONICALIZED>
1

> <PUBCHEM_CACTVS_COMPLEXITY>
478

> <PUBCHEM_CACTVS_HBOND_ACCEPTOR>
6

> <PUBCHEM_CACTVS_HBOND_DONOR>
3

> <PUBCHEM_CACTVS_ROTATABLE_BOND>
5

> <PUBCHEM_CACTVS_SUBSKEYS>
AAADccBzOABAAAAAAAAAAAAAAAAAAWAAAAAwAAAAAAAAAFgB8AAAHgQQCAAACByl1gKz2bbJlgqoASRifHDCgC2hGrAJmTgwdJmIeKLgmZGUIAxokQJoyCcQAAAAAAQAACAAACAACAAAQAAAQAAAAAAAAA==

> <PUBCHEM_IUPAC_OPENEYE_NAME>
methyl N-[6-(2-hydroxypropylsulfonyl)-1H-benzimidazol-2-yl]carbamate

> <PUBCHEM_IUPAC_CAS_NAME>
N-[6-(2-hydroxypropylsulfonyl)-1H-benzimidazol-2-yl]carbamic acid methyl ester

> <PUBCHEM_IUPAC_NAME>
methyl N-[6-(2-hydroxypropylsulfonyl)-1H-benzimidazol-2-yl]carbamate

> <PUBCHEM_IUPAC_SYSTEMATIC_NAME>
methyl N-[6-(2-oxidanylpropylsulfonyl)-1H-benzimidazol-2-yl]carbamate

> <PUBCHEM_IUPAC_TRADITIONAL_NAME>
N-[6-(2-hydroxypropylsulfonyl)-1H-benzimidazol-2-yl]carbamic acid methyl ester

> <PUBCHEM_IUPAC_INCHI>
InChI=1S/C12H15N3O5S/c1-7(16)6-21(18,19)8-3-4-9-10(5-8)14-11(13-9)15-12(17)20-2/h3-5,7,16H,6H2,1-2H3,(H2,13,14,15,17)

> <PUBCHEM_IUPAC_INCHIKEY>
HXRHOFREEVMBGY-UHFFFAOYSA-N

> <PUBCHEM_XLOGP3>
0.5

> <PUBCHEM_EXACT_MASS>
313.073242

> <PUBCHEM_MOLECULAR_FORMULA>
C12H15N3O5S

> <PUBCHEM_MOLECULAR_WEIGHT>
313.3296

> <PUBCHEM_OPENEYE_CAN_SMILES>
CC(CS(=O)(=O)C1=CC2=C(C=C1)N=C(N2)NC(=O)OC)O

> <PUBCHEM_OPENEYE_ISO_SMILES>
CC(CS(=O)(=O)C1=CC2=C(C=C1)N=C(N2)NC(=O)OC)O

> <PUBCHEM_CACTVS_TPSA>
130

> <PUBCHEM_MONOISOTOPIC_WEIGHT>
313.073242

> <PUBCHEM_TOTAL_CHARGE>
0

> <PUBCHEM_HEAVY_ATOM_COUNT>
21

> <PUBCHEM_ATOM_DEF_STEREO_COUNT>
0

> <PUBCHEM_ATOM_UDEF_STEREO_COUNT>
1

> <PUBCHEM_BOND_DEF_STEREO_COUNT>
0

> <PUBCHEM_BOND_UDEF_STEREO_COUNT>
0

> <PUBCHEM_ISOTOPIC_ATOM_COUNT>
0

> <PUBCHEM_COMPONENT_COUNT>
1

> <PUBCHEM_CACTVS_TAUTO_COUNT>
5

> <PUBCHEM_COORDINATE_TYPE>
1
5
255

> <PUBCHEM_BONDANNOTATIONS>
11  14  8
11  16  8
12  24  3
13  14  8
13  15  8
15  17  8
16  17  8
7  13  8
7  19  8
8  15  8
8  19  8

$$$$

