3224
  -OEChem-07051213012D

 25 27  0     1  0  0  0  0  0999 V2000
    7.2282    1.5583    0.0000 Cl  0  0  0  0  0  0  0  0  0  0  0  0
    6.4517   -1.3395    0.0000 Cl  0  0  0  0  0  0  0  0  0  0  0  0
    5.3192    1.9817    0.0000 Cl  0  0  0  0  0  0  0  0  0  0  0  0
    6.3373    2.5695    0.0000 Cl  0  0  0  0  0  0  0  0  0  0  0  0
    9.6673    0.3335    0.0000 Cl  0  0  0  0  0  0  0  0  0  0  0  0
    9.0425   -1.9984    0.0000 Cl  0  0  0  0  0  0  0  0  0  0  0  0
    2.8660   -2.0159    0.0000 S   0  0  0  0  0  0  0  0  0  0  0  0
    2.7914   -1.0379    0.0000 O   0  0  0  0  0  0  0  0  0  0  0  0
    3.6756   -2.5695    0.0000 O   0  0  0  0  0  0  0  0  0  0  0  0
    2.0000   -2.5159    0.0000 O   0  0  0  0  0  0  0  0  0  0  0  0
    4.9785   -1.3736    0.0000 C   0  0  3  0  0  0  0  0  0  0  0  0
    4.4785   -0.5076    0.0000 C   0  0  3  0  0  0  0  0  0  0  0  0
    6.9694    0.5923    0.0000 C   0  0  3  0  0  0  0  0  0  0  0  0
    6.7105   -0.3736    0.0000 C   0  0  3  0  0  0  0  0  0  0  0  0
    6.2327    1.5749    0.0000 C   0  0  0  0  0  0  0  0  0  0  0  0
    8.8013   -0.1665    0.0000 C   0  0  0  0  0  0  0  0  0  0  0  0
    8.5425   -1.1324    0.0000 C   0  0  0  0  0  0  0  0  0  0  0  0
    3.5077   -0.3679    0.0000 C   0  0  0  0  0  0  0  0  0  0  0  0
    4.6140   -2.2842    0.0000 C   0  0  0  0  0  0  0  0  0  0  0  0
    5.4471   -1.7796    0.0000 H   0  0  0  0  0  0  0  0  0  0  0  0
    4.3941    0.1067    0.0000 H   0  0  0  0  0  0  0  0  0  0  0  0
    3.7308    0.2105    0.0000 H   0  0  0  0  0  0  0  0  0  0  0  0
    2.9937   -0.0212    0.0000 H   0  0  0  0  0  0  0  0  0  0  0  0
    4.6573   -2.9026    0.0000 H   0  0  0  0  0  0  0  0  0  0  0  0
    5.2266   -2.3801    0.0000 H   0  0  0  0  0  0  0  0  0  0  0  0
  1 13  1  0  0  0  0
  2 14  1  0  0  0  0
  3 15  1  0  0  0  0
  4 15  1  0  0  0  0
  5 16  1  0  0  0  0
  6 17  1  0  0  0  0
  7  8  1  0  0  0  0
  7  9  1  0  0  0  0
  7 10  2  0  0  0  0
  8 18  1  0  0  0  0
  9 19  1  0  0  0  0
 11 12  1  0  0  0  0
 11 14  1  0  0  0  0
 11 19  1  0  0  0  0
 11 20  1  0  0  0  0
 12 13  1  0  0  0  0
 12 18  1  0  0  0  0
 12 21  1  0  0  0  0
 13 15  1  0  0  0  0
 13 16  1  0  0  0  0
 14 15  1  0  0  0  0
 14 17  1  0  0  0  0
 16 17  2  0  0  0  0
 18 22  1  0  0  0  0
 18 23  1  0  0  0  0
 19 24  1  0  0  0  0
 19 25  1  0  0  0  0
M  END
> <PUBCHEM_COMPOUND_CID>
3224

> <PUBCHEM_COMPOUND_CANONICALIZED>
1

> <PUBCHEM_CACTVS_COMPLEXITY>
470

> <PUBCHEM_CACTVS_HBOND_ACCEPTOR>
4

> <PUBCHEM_CACTVS_HBOND_DONOR>
0

> <PUBCHEM_CACTVS_ROTATABLE_BOND>
0

> <PUBCHEM_CACTVS_SUBSKEYS>
AAADcYBwMABHAAAAAAAAAAAAAAAAAYIAAAAgAAAABIAAAACQAAAAGgIAAAAADQKggIIAAAAAAACAAABAACAAAAAgAAAACEAAAggAAAIBAAAAAAAEgAAIAAPAwDAOgAAAAAAAAAAAAAAAAAAAARAASIACAA==

> <PUBCHEM_IUPAC_INCHI>
InChI=1S/C9H6Cl6O3S/c10-5-6(11)8(13)4-2-18-19(16)17-1-3(4)7(5,12)9(8,14)15/h3-4H,1-2H2

> <PUBCHEM_IUPAC_INCHIKEY>
RDYMFSUJUZBWLH-UHFFFAOYSA-N

> <PUBCHEM_XLOGP3>
3.8

> <PUBCHEM_EXACT_MASS>
405.813931

> <PUBCHEM_MOLECULAR_FORMULA>
C9H6Cl6O3S

> <PUBCHEM_MOLECULAR_WEIGHT>
406.92514

> <PUBCHEM_OPENEYE_CAN_SMILES>
C1C2C(COS(=O)O1)C3(C(=C(C2(C3(Cl)Cl)Cl)Cl)Cl)Cl

> <PUBCHEM_OPENEYE_ISO_SMILES>
C1C2C(COS(=O)O1)C3(C(=C(C2(C3(Cl)Cl)Cl)Cl)Cl)Cl

> <PUBCHEM_CACTVS_TPSA>
54.7

> <PUBCHEM_MONOISOTOPIC_WEIGHT>
403.816881

> <PUBCHEM_TOTAL_CHARGE>
0

> <PUBCHEM_HEAVY_ATOM_COUNT>
19

> <PUBCHEM_ATOM_DEF_STEREO_COUNT>
0

> <PUBCHEM_ATOM_UDEF_STEREO_COUNT>
4

> <PUBCHEM_BOND_DEF_STEREO_COUNT>
0

> <PUBCHEM_BOND_UDEF_STEREO_COUNT>
0

> <PUBCHEM_ISOTOPIC_ATOM_COUNT>
0

> <PUBCHEM_COMPONENT_COUNT>
1

> <PUBCHEM_CACTVS_TAUTO_COUNT>
1

> <PUBCHEM_COORDINATE_TYPE>
1
5
255

> <PUBCHEM_BONDANNOTATIONS>
13  1  3
11  19  3
12  18  3
14  2  3

$$$$

