33257
  -OEChem-07051213123D

 17 16  0     1  0  0  0  0  0999 V2000
    0.3961   -0.7736    0.1435 P   0  0  2  0  0  0  0  0  0  0  0  0
   -1.1313   -0.3531    0.4948 O   0  0  0  0  0  0  0  0  0  0  0  0
    0.2448   -1.4717   -1.3130 O   0  0  0  0  0  0  0  0  0  0  0  0
    0.9895   -1.7054    1.1647 O   0  0  0  0  0  0  0  0  0  0  0  0
    1.7833    0.9411   -1.1835 O   0  0  0  0  0  0  0  0  0  0  0  0
    1.5094    1.5333    1.0306 N   0  0  0  0  0  0  0  0  0  0  0  0
   -1.8762    0.4299   -0.4221 C   0  0  0  0  0  0  0  0  0  0  0  0
   -3.2569    0.6760    0.1477 C   0  0  0  0  0  0  0  0  0  0  0  0
    1.3412    0.7236   -0.0627 C   0  0  0  0  0  0  0  0  0  0  0  0
   -1.3641    1.3822   -0.5890 H   0  0  0  0  0  0  0  0  0  0  0  0
   -1.9568   -0.0999   -1.3759 H   0  0  0  0  0  0  0  0  0  0  0  0
   -3.8602    1.2792   -0.5364 H   0  0  0  0  0  0  0  0  0  0  0  0
   -3.7728   -0.2721    0.3318 H   0  0  0  0  0  0  0  0  0  0  0  0
   -3.1900    1.1939    1.1103 H   0  0  0  0  0  0  0  0  0  0  0  0
   -0.1652   -2.3610   -1.3698 H   0  0  0  0  0  0  0  0  0  0  0  0
    1.1130    1.2969    1.9342 H   0  0  0  0  0  0  0  0  0  0  0  0
    2.0362    2.3981    0.9697 H   0  0  0  0  0  0  0  0  0  0  0  0
  1  2  1  0  0  0  0
  1  3  1  0  0  0  0
  1  4  2  0  0  0  0
  1  9  1  0  0  0  0
  2  7  1  0  0  0  0
  3 15  1  0  0  0  0
  5  9  2  0  0  0  0
  6  9  1  0  0  0  0
  6 16  1  0  0  0  0
  6 17  1  0  0  0  0
  7  8  1  0  0  0  0
  7 10  1  0  0  0  0
  7 11  1  0  0  0  0
  8 12  1  0  0  0  0
  8 13  1  0  0  0  0
  8 14  1  0  0  0  0
M  END
> <PUBCHEM_COMPOUND_CID>
33257

> <PUBCHEM_CONFORMER_RMSD>
0.6

> <PUBCHEM_CONFORMER_DIVERSEORDER>
1
12
14
22
21
10
20
16
11
6
17
15
19
3
7
13
5
8
4
18
9
2

> <PUBCHEM_MMFF94_PARTIAL_CHARGES>
11
1 1.35
15 0.5
16 0.37
17 0.37
2 -0.55
3 -0.77
4 -0.7
5 -0.57
6 -0.8
7 0.28
9 0.52

> <PUBCHEM_EFFECTIVE_ROTOR_COUNT>
3

> <PUBCHEM_PHARMACOPHORE_FEATURES>
4
1 3 acceptor
1 4 acceptor
1 5 acceptor
1 6 donor

> <PUBCHEM_HEAVY_ATOM_COUNT>
9

> <PUBCHEM_ATOM_DEF_STEREO_COUNT>
0

> <PUBCHEM_ATOM_UDEF_STEREO_COUNT>
0

> <PUBCHEM_BOND_DEF_STEREO_COUNT>
0

> <PUBCHEM_BOND_UDEF_STEREO_COUNT>
0

> <PUBCHEM_ISOTOPIC_ATOM_COUNT>
0

> <PUBCHEM_COMPONENT_COUNT>
1

> <PUBCHEM_CACTVS_TAUTO_COUNT>
2

> <PUBCHEM_CONFORMER_ID>
000081E900000001

> <PUBCHEM_MMFF94_ENERGY>
-13.2616

> <PUBCHEM_FEATURE_SELFOVERLAP>
20.312

> <PUBCHEM_SHAPE_FINGERPRINT>
14390081 3 18334296453160750121
20653091 64 18056755657486259033
21040471 1 18270680840232717816
23235685 24 18202279173934007365
23552449 11 18268717293144338611
5084963 1 18268415846184495168

> <PUBCHEM_SHAPE_MULTIPOLES>
160.61
3.35
1.59
1.14
3.56
0.26
-0.12
-1.36
0.09
-0.9
0.19
-0.5
0.15
-0.1

> <PUBCHEM_SHAPE_SELFOVERLAP>
283.046

> <PUBCHEM_SHAPE_VOLUME>
105.2

> <PUBCHEM_COORDINATE_TYPE>
2
5
10

$$$$

