188984
  -OEChem-07051212483D

 20 19  0     0  0  0  0  0  0999 V2000
   -2.3051    0.4891    0.0820 P   0  0  0  0  0  0  0  0  0  0  0  0
   -3.9107    0.2500   -0.0340 O   0  0  0  0  0  0  0  0  0  0  0  0
   -2.0049    1.1145   -1.3901 O   0  0  0  0  0  0  0  0  0  0  0  0
   -1.9880    1.4853    1.1687 O   0  0  0  0  0  0  0  0  0  0  0  0
    4.1664    0.2705   -0.0745 O   0  0  0  0  0  0  0  0  0  0  0  0
    2.4142    1.7187    0.0283 O   0  0  0  0  0  0  0  0  0  0  0  0
   -1.6172   -1.0181    0.0998 N   0  0  0  0  0  0  0  0  0  0  0  0
    0.6216   -0.3077    0.0522 N   0  0  0  0  0  0  0  0  0  0  0  0
    0.0042   -2.6241    0.0188 N   0  0  0  0  0  0  0  0  0  0  0  0
   -0.2532   -1.2697    0.0553 C   0  0  0  0  0  0  0  0  0  0  0  0
    2.0280   -0.6843    0.0044 C   0  0  0  0  0  0  0  0  0  0  0  0
    2.8448    0.5758   -0.0111 C   0  0  0  0  0  0  0  0  0  0  0  0
   -2.2088   -1.8459    0.1167 H   0  0  0  0  0  0  0  0  0  0  0  0
    2.2500   -1.2437   -0.9110 H   0  0  0  0  0  0  0  0  0  0  0  0
    2.3068   -1.2598    0.8937 H   0  0  0  0  0  0  0  0  0  0  0  0
   -0.7491   -3.3033    0.0249 H   0  0  0  0  0  0  0  0  0  0  0  0
    0.9479   -2.9929   -0.0140 H   0  0  0  0  0  0  0  0  0  0  0  0
   -4.5043    1.0305   -0.0099 H   0  0  0  0  0  0  0  0  0  0  0  0
   -2.2982    2.0313   -1.5792 H   0  0  0  0  0  0  0  0  0  0  0  0
    4.7275    1.0752   -0.0852 H   0  0  0  0  0  0  0  0  0  0  0  0
  1  2  1  0  0  0  0
  1  3  1  0  0  0  0
  1  4  2  0  0  0  0
  1  7  1  0  0  0  0
  2 18  1  0  0  0  0
  3 19  1  0  0  0  0
  5 12  1  0  0  0  0
  5 20  1  0  0  0  0
  6 12  2  0  0  0  0
  7 10  1  0  0  0  0
  7 13  1  0  0  0  0
  8 10  2  0  0  0  0
  8 11  1  0  0  0  0
  9 10  1  0  0  0  0
  9 16  1  0  0  0  0
  9 17  1  0  0  0  0
 11 12  1  0  0  0  0
 11 14  1  0  0  0  0
 11 15  1  0  0  0  0
M  END
> <PUBCHEM_COMPOUND_CID>
188984

> <PUBCHEM_CONFORMER_RMSD>
0.6

> <PUBCHEM_CONFORMER_DIVERSEORDER>
1
37
8
38
23
11
36
40
20
9
31
6
13
34
14
4
21
39
27
2
17
3
35
19
24
25
41
32
26
28
33
12
10
7
29
22
5
15
30
18
16

> <PUBCHEM_MMFF94_PARTIAL_CHARGES>
18
1 1.52
10 0.55
11 0.31
12 0.66
13 0.4
16 0.4
17 0.4
18 0.5
19 0.5
2 -0.77
20 0.5
3 -0.77
4 -0.7
5 -0.65
6 -0.57
7 -0.73
8 -0.7
9 -0.85

> <PUBCHEM_EFFECTIVE_ROTOR_COUNT>
4

> <PUBCHEM_PHARMACOPHORE_FEATURES>
10
1 2 acceptor
1 3 acceptor
1 4 acceptor
1 5 acceptor
1 6 acceptor
1 7 donor
1 9 donor
3 5 6 12 anion
4 1 2 3 4 anion
4 7 8 9 10 cation

> <PUBCHEM_HEAVY_ATOM_COUNT>
12

> <PUBCHEM_ATOM_DEF_STEREO_COUNT>
0

> <PUBCHEM_ATOM_UDEF_STEREO_COUNT>
0

> <PUBCHEM_BOND_DEF_STEREO_COUNT>
0

> <PUBCHEM_BOND_UDEF_STEREO_COUNT>
0

> <PUBCHEM_ISOTOPIC_ATOM_COUNT>
0

> <PUBCHEM_COMPONENT_COUNT>
1

> <PUBCHEM_CACTVS_TAUTO_COUNT>
5

> <PUBCHEM_CONFORMER_ID>
0002E23800000001

> <PUBCHEM_MMFF94_ENERGY>
-16.0845

> <PUBCHEM_FEATURE_SELFOVERLAP>
50.901

> <PUBCHEM_SHAPE_FINGERPRINT>
100427 49 16966608162085276054
10149128 111 18334571356357307104
13380535 76 18408039611176968838
13618510 140 18410009961714740168
14325111 11 18410855468760476330
15775835 57 18273496775416118232
19973954 147 18122059798072652592
20281407 28 10592045756383482398
20645477 56 18338516327322139968
21028194 46 18272087218610037863
21524375 3 18413389843094421426
22959321 54 18334295327425742048
23235685 24 18407763642184444113
23402539 116 18187092727788860870
81228 2 17908150871292502258

> <PUBCHEM_SHAPE_MULTIPOLES>
206.51
5.94
1.9
0.8
1.78
0.85
0.08
-2.52
0.14
0
-0.09
-0.48
-0.29
-0.02

> <PUBCHEM_SHAPE_SELFOVERLAP>
382.995

> <PUBCHEM_SHAPE_VOLUME>
130.2

> <PUBCHEM_COORDINATE_TYPE>
2
5
10

$$$$

