6441913
  -OEChem-07051213113D

 46 47  0     0  0  0  0  0  0999 V2000
    8.0315   -0.0977    1.3958 O   0  0  0  0  0  0  0  0  0  0  0  0
    0.0672   -0.9981   -0.6391 O   0  0  0  0  0  0  0  0  0  0  0  0
   -8.1230   -0.3231    0.8096 O   0  0  0  0  0  0  0  0  0  0  0  0
    8.0195    2.2733   -0.0549 O   0  0  0  0  0  0  0  0  0  0  0  0
   -7.9158    2.3306    0.0087 O   0  0  0  0  0  0  0  0  0  0  0  0
   -1.2588   -2.8888   -0.5767 O   0  0  0  0  0  0  0  0  0  0  0  0
    4.6464   -0.1138    0.0529 C   0  0  0  0  0  0  0  0  0  0  0  0
   -4.6363   -0.1989   -0.2814 C   0  0  0  0  0  0  0  0  0  0  0  0
    5.7779   -0.5115    0.7474 C   0  0  0  0  0  0  0  0  0  0  0  0
    6.9181    0.2911    0.7138 C   0  0  0  0  0  0  0  0  0  0  0  0
    4.6257    1.0658   -0.6743 C   0  0  0  0  0  0  0  0  0  0  0  0
   -5.8443   -0.6841    0.2197 C   0  0  0  0  0  0  0  0  0  0  0  0
    3.4424   -0.9610    0.0885 C   0  0  0  0  0  0  0  0  0  0  0  0
   -6.9485    0.1623    0.3187 C   0  0  0  0  0  0  0  0  0  0  0  0
    6.9122    1.4810   -0.0139 C   0  0  0  0  0  0  0  0  0  0  0  0
    5.7659    1.8685   -0.7079 C   0  0  0  0  0  0  0  0  0  0  0  0
   -4.5326    1.1327   -0.6835 C   0  0  0  0  0  0  0  0  0  0  0  0
   -6.8447    1.4940   -0.0834 C   0  0  0  0  0  0  0  0  0  0  0  0
   -5.6368    1.9791   -0.5846 C   0  0  0  0  0  0  0  0  0  0  0  0
    2.4392   -0.9184   -0.8020 C   0  0  0  0  0  0  0  0  0  0  0  0
   -3.4849   -1.0815   -0.3848 C   0  0  0  0  0  0  0  0  0  0  0  0
    1.2417   -1.8110   -0.7330 C   0  0  0  0  0  0  0  0  0  0  0  0
   -2.1984   -0.6781   -0.4790 C   0  0  0  0  0  0  0  0  0  0  0  0
   -1.1094   -1.6772   -0.5682 C   0  0  0  0  0  0  0  0  0  0  0  0
    8.9715   -0.9085    0.6935 C   0  0  0  0  0  0  0  0  0  0  0  0
   -8.3258   -0.2269    2.2180 C   0  0  0  0  0  0  0  0  0  0  0  0
    5.7911   -1.4379    1.3167 H   0  0  0  0  0  0  0  0  0  0  0  0
    3.7502    1.4173   -1.2109 H   0  0  0  0  0  0  0  0  0  0  0  0
   -5.9369   -1.7207    0.5369 H   0  0  0  0  0  0  0  0  0  0  0  0
    3.3931   -1.6767    0.9063 H   0  0  0  0  0  0  0  0  0  0  0  0
    5.7539    2.7969   -1.2727 H   0  0  0  0  0  0  0  0  0  0  0  0
   -3.6192    1.5491   -1.0980 H   0  0  0  0  0  0  0  0  0  0  0  0
   -5.5439    3.0134   -0.9053 H   0  0  0  0  0  0  0  0  0  0  0  0
    2.4598   -0.2426   -1.6515 H   0  0  0  0  0  0  0  0  0  0  0  0
   -3.7094   -2.1461   -0.3710 H   0  0  0  0  0  0  0  0  0  0  0  0
    1.2895   -2.4809    0.1337 H   0  0  0  0  0  0  0  0  0  0  0  0
    1.1928   -2.4139   -1.6471 H   0  0  0  0  0  0  0  0  0  0  0  0
   -1.9072    0.3662   -0.4718 H   0  0  0  0  0  0  0  0  0  0  0  0
    8.7046    1.8767    0.5105 H   0  0  0  0  0  0  0  0  0  0  0  0
    8.5178   -1.8653    0.4166 H   0  0  0  0  0  0  0  0  0  0  0  0
    9.3373   -0.3943   -0.2009 H   0  0  0  0  0  0  0  0  0  0  0  0
    9.8192   -1.1024    1.3564 H   0  0  0  0  0  0  0  0  0  0  0  0
   -7.6582    3.2116   -0.3132 H   0  0  0  0  0  0  0  0  0  0  0  0
   -8.3070    0.8191    2.5400 H   0  0  0  0  0  0  0  0  0  0  0  0
   -7.5627   -0.7992    2.7550 H   0  0  0  0  0  0  0  0  0  0  0  0
   -9.3076   -0.6472    2.4523 H   0  0  0  0  0  0  0  0  0  0  0  0
  1 10  1  0  0  0  0
  1 25  1  0  0  0  0
  2 22  1  0  0  0  0
  2 24  1  0  0  0  0
  3 14  1  0  0  0  0
  3 26  1  0  0  0  0
  4 15  1  0  0  0  0
  4 39  1  0  0  0  0
  5 18  1  0  0  0  0
  5 43  1  0  0  0  0
  6 24  2  0  0  0  0
  7  9  2  0  0  0  0
  7 11  1  0  0  0  0
  7 13  1  0  0  0  0
  8 12  2  0  0  0  0
  8 17  1  0  0  0  0
  8 21  1  0  0  0  0
  9 10  1  0  0  0  0
  9 27  1  0  0  0  0
 10 15  2  0  0  0  0
 11 16  2  0  0  0  0
 11 28  1  0  0  0  0
 12 14  1  0  0  0  0
 12 29  1  0  0  0  0
 13 20  2  0  0  0  0
 13 30  1  0  0  0  0
 14 18  2  0  0  0  0
 15 16  1  0  0  0  0
 16 31  1  0  0  0  0
 17 19  2  0  0  0  0
 17 32  1  0  0  0  0
 18 19  1  0  0  0  0
 19 33  1  0  0  0  0
 20 22  1  0  0  0  0
 20 34  1  0  0  0  0
 21 23  2  0  0  0  0
 21 35  1  0  0  0  0
 22 36  1  0  0  0  0
 22 37  1  0  0  0  0
 23 24  1  0  0  0  0
 23 38  1  0  0  0  0
 25 40  1  0  0  0  0
 25 41  1  0  0  0  0
 25 42  1  0  0  0  0
 26 44  1  0  0  0  0
 26 45  1  0  0  0  0
 26 46  1  0  0  0  0
M  END
> <PUBCHEM_COMPOUND_CID>
6441913

> <PUBCHEM_CONFORMER_RMSD>
0.8

> <PUBCHEM_CONFORMER_DIVERSEORDER>
2
125
169
124
200
75
240
213
171
250
202
95
263
41
173
198
166
128
132
271
255
159
123
201
264
183
107
253
212
144
106
276
219
121
158
168
204
249
116
142
191
157
105
131
186
225
239
220
32
85
146
268
245
218
80
195
203
5
163
140
102
135
150
165
175
29
269
192
272
151
273
174
138
172
104
118
147
162
111
207
122
117
260
199
20
77
164
148
208
194
181
67
224
130
101
262
241
84
243
119
110
244
68
221
216
42
197
78
46
184
258
235
143
108
58
43
229
222
4
266
18
215
7
160
93
87
36
252
45
228
38
141
26
21
214
89
8
261
251
134
82
127
79
155
267
71
22
13
242
113
136
112
259
6
265
40
53
27
226
177
24
98
3
57
152
52
1
149
49
246
234
97
9
63
210
70
248
133
23
115
211
227
14
33
161
231
55
205
129
193
99
230
76
19
274
233
92
217
103
44
257
137
81
196
223
60
139
100
48
178
176
25
88
232
254
206
17
64
156
190
59
72
16
62
238
94
15
47
56
61
10
236
28
51
154
34
50
37
90
12
153
86
188
39
209
187
30
170
11
65
270
247
73
182
237
120
109
35
126
145
256
275
179
31
96
180
83
167
66
189
114
185
69
91
54
74

> <PUBCHEM_MMFF94_PARTIAL_CHARGES>
38
1 -0.36
10 0.08
11 -0.15
12 -0.15
13 -0.18
14 0.08
15 0.08
16 -0.15
17 -0.15
18 0.08
19 -0.15
2 -0.43
20 -0.29
21 -0.18
22 0.42
23 -0.14
24 0.71
25 0.28
26 0.28
27 0.15
28 0.15
29 0.15
3 -0.36
30 0.15
31 0.15
32 0.15
33 0.15
34 0.15
35 0.15
38 0.15
39 0.45
4 -0.53
43 0.45
5 -0.53
6 -0.57
7 0.03
8 0.03
9 -0.15

> <PUBCHEM_EFFECTIVE_ROTOR_COUNT>
8

> <PUBCHEM_PHARMACOPHORE_FEATURES>
7
1 1 acceptor
1 3 acceptor
1 4 donor
1 5 donor
1 6 acceptor
6 7 9 10 11 15 16 rings
6 8 12 14 17 18 19 rings

> <PUBCHEM_HEAVY_ATOM_COUNT>
26

> <PUBCHEM_ATOM_DEF_STEREO_COUNT>
0

> <PUBCHEM_ATOM_UDEF_STEREO_COUNT>
0

> <PUBCHEM_BOND_DEF_STEREO_COUNT>
2

> <PUBCHEM_BOND_UDEF_STEREO_COUNT>
0

> <PUBCHEM_ISOTOPIC_ATOM_COUNT>
0

> <PUBCHEM_COMPONENT_COUNT>
1

> <PUBCHEM_CACTVS_TAUTO_COUNT>
8

> <PUBCHEM_CONFORMER_ID>
00624BB900000002

> <PUBCHEM_MMFF94_ENERGY>
89.265

> <PUBCHEM_FEATURE_SELFOVERLAP>
35.52

> <PUBCHEM_SHAPE_FINGERPRINT>
10 15 18343861109147776323
10369192 42 17312820486060422661
10391435 84 8358244935291921028
10533779 47 18341326803629215730
10625338 131 18337114552812885632
10939801 23 18342737369742022156
11408170 108 14333131905839891809
11408170 132 7493288832782574386
11456790 92 18343589542724084192
11638347 137 17346599681650991058
125118 31 18409728490853934668
12592606 108 10592038047313084993
13167372 99 18412549795542656996
13248334 5 18047188841247935927
13668630 136 10879999077375308226
13673619 4 12751240298431287430
14251764 18 18202563960330185117
15183329 4 17603864494327914336
15419008 145 18129955588925654884
15510800 12 11815614237386841505
15519825 34 16558741266525510395
15690457 1 12535350073440829752
1577012 14 18337114463166542446
16126227 98 18260544511878596615
16989713 51 17169562805312165495
1768 4 18187357715124639569
1818759 1 12031786993651407609
19302320 297 18341608179615742116
20105231 36 15769781282499243002
2026 5 11455899057153196681
20281389 69 18413108359685648622
21150785 3 5833989464622566570
21267235 1 9943518631561748311
21362857 166 10231488458376923320
21585481 104 14129323114003923059
21591340 7 18336554845274559359
23576562 1 14563397064067671353
246663 6 13470689265335654458
2838139 119 18261683592422470308
3663271 9 17989490723081020019
3711267 37 17894906330439545009
445580 126 18260550034858178222
504843 32 17821734897169351303
5470011 282 7060372648284957330
5718773 13 10087649199646335756
636775 8 10735875114633748640
9953998 17 17918272065896069193
9962374 69 13686008757527686818

> <PUBCHEM_SHAPE_MULTIPOLES>
499.85
32.74
2.24
1.12
5.33
0.37
0.47
14.1
12.94
-0.15
-0.59
-0.88
-0.15
-0.09

> <PUBCHEM_SHAPE_SELFOVERLAP>
1055.002

> <PUBCHEM_SHAPE_VOLUME>
280.8

> <PUBCHEM_COORDINATE_TYPE>
2
5
10

$$$$

