440384
  -OEChem-07051212493D

 77 80  0     1  0  0  0  0  0999 V2000
   -2.3552   -0.5521   -3.0278 O   0  0  0  0  0  0  0  0  0  0  0  0
   -5.2426    2.9169   -1.1048 O   0  0  0  0  0  0  0  0  0  0  0  0
    7.1995    1.8073    1.2550 O   0  0  0  0  0  0  0  0  0  0  0  0
    5.5089    3.2284    0.7466 O   0  0  0  0  0  0  0  0  0  0  0  0
   -0.6939   -1.6591   -0.7772 C   0  0  1  0  0  0  0  0  0  0  0  0
    0.2637   -1.7381    0.4580 C   0  0  1  0  0  0  0  0  0  0  0  0
   -1.8671   -0.6422   -0.6304 C   0  0  2  0  0  0  0  0  0  0  0  0
   -2.5453   -0.7917    0.7605 C   0  0  2  0  0  0  0  0  0  0  0  0
   -3.8260    0.1123    0.9686 C   0  0  2  0  0  0  0  0  0  0  0  0
    1.6857   -1.4683   -0.1221 C   0  0  2  0  0  0  0  0  0  0  0  0
   -4.8064   -0.0759   -0.2305 C   0  0  2  0  0  0  0  0  0  0  0  0
   -0.0752   -0.6681    1.5048 C   0  0  0  0  0  0  0  0  0  0  0  0
   -1.5364   -0.6917    1.9322 C   0  0  0  0  0  0  0  0  0  0  0  0
    0.2263   -1.3913   -1.9828 C   0  0  0  0  0  0  0  0  0  0  0  0
   -2.9137   -0.8385   -1.7487 C   0  0  1  0  0  0  0  0  0  0  0  0
    1.5837   -1.9327   -1.5685 C   0  0  0  0  0  0  0  0  0  0  0  0
   -4.1044    0.0943   -1.5842 C   0  0  0  0  0  0  0  0  0  0  0  0
   -3.4731    1.6223    1.0920 C   0  0  0  0  0  0  0  0  0  0  0  0
    0.1497   -3.1431    1.0905 C   0  0  0  0  0  0  0  0  0  0  0  0
    2.8604   -2.0987    0.6138 C   0  0  1  0  0  0  0  0  0  0  0  0
   -6.0426    0.8499   -0.1463 C   0  0  0  0  0  0  0  0  0  0  0  0
   -4.5249   -0.3628    2.2737 C   0  0  0  0  0  0  0  0  0  0  0  0
   -4.7018    2.5311    1.2173 C   0  0  0  0  0  0  0  0  0  0  0  0
   -5.7205    2.3253    0.1002 C   0  0  1  0  0  0  0  0  0  0  0  0
    4.2213   -1.7626   -0.0317 C   0  0  0  0  0  0  0  0  0  0  0  0
    2.8641   -1.6397    2.0763 C   0  0  0  0  0  0  0  0  0  0  0  0
    4.5056   -0.2586   -0.1008 C   0  0  0  0  0  0  0  0  0  0  0  0
    5.8508    0.0817   -0.7587 C   0  0  0  0  0  0  0  0  0  0  0  0
    6.1486    1.5819   -0.9040 C   0  0  1  0  0  0  0  0  0  0  0  0
    5.1228    2.2694   -1.8045 C   0  0  0  0  0  0  0  0  0  0  0  0
    6.2378    2.2941    0.4337 C   0  0  0  0  0  0  0  0  0  0  0  0
   -1.1384   -2.6522   -0.9376 H   0  0  0  0  0  0  0  0  0  0  0  0
   -1.4479    0.3688   -0.7219 H   0  0  0  0  0  0  0  0  0  0  0  0
   -2.9129   -1.8308    0.7842 H   0  0  0  0  0  0  0  0  0  0  0  0
    1.8176   -0.3787   -0.1444 H   0  0  0  0  0  0  0  0  0  0  0  0
   -5.1839   -1.1086   -0.2023 H   0  0  0  0  0  0  0  0  0  0  0  0
    0.1441    0.3314    1.1060 H   0  0  0  0  0  0  0  0  0  0  0  0
    0.5198   -0.7639    2.4143 H   0  0  0  0  0  0  0  0  0  0  0  0
   -1.7058    0.1909    2.5538 H   0  0  0  0  0  0  0  0  0  0  0  0
   -1.7036   -1.5436    2.6047 H   0  0  0  0  0  0  0  0  0  0  0  0
   -0.1313   -1.8842   -2.8921 H   0  0  0  0  0  0  0  0  0  0  0  0
    0.3026   -0.3161   -2.1855 H   0  0  0  0  0  0  0  0  0  0  0  0
   -3.2558   -1.8807   -1.7604 H   0  0  0  0  0  0  0  0  0  0  0  0
    2.3745   -1.5269   -2.2062 H   0  0  0  0  0  0  0  0  0  0  0  0
    1.6036   -3.0259   -1.6454 H   0  0  0  0  0  0  0  0  0  0  0  0
   -4.8204   -0.0929   -2.3956 H   0  0  0  0  0  0  0  0  0  0  0  0
   -3.7612    1.1224   -1.7392 H   0  0  0  0  0  0  0  0  0  0  0  0
   -2.8826    1.9475    0.2280 H   0  0  0  0  0  0  0  0  0  0  0  0
   -2.8452    1.8084    1.9692 H   0  0  0  0  0  0  0  0  0  0  0  0
    0.6418   -3.2458    2.0565 H   0  0  0  0  0  0  0  0  0  0  0  0
    0.5476   -3.9148    0.4222 H   0  0  0  0  0  0  0  0  0  0  0  0
   -0.9014   -3.4025    1.2664 H   0  0  0  0  0  0  0  0  0  0  0  0
    2.7774   -3.1925    0.6021 H   0  0  0  0  0  0  0  0  0  0  0  0
   -6.6280    0.7521   -1.0695 H   0  0  0  0  0  0  0  0  0  0  0  0
   -6.6927    0.4958    0.6625 H   0  0  0  0  0  0  0  0  0  0  0  0
   -3.9014   -0.1834    3.1555 H   0  0  0  0  0  0  0  0  0  0  0  0
   -4.7395   -1.4369    2.2315 H   0  0  0  0  0  0  0  0  0  0  0  0
   -5.4758    0.1436    2.4578 H   0  0  0  0  0  0  0  0  0  0  0  0
   -4.3592    3.5732    1.2222 H   0  0  0  0  0  0  0  0  0  0  0  0
   -5.1854    2.3585    2.1855 H   0  0  0  0  0  0  0  0  0  0  0  0
   -6.6482    2.8510    0.3541 H   0  0  0  0  0  0  0  0  0  0  0  0
    5.0219   -2.2516    0.5384 H   0  0  0  0  0  0  0  0  0  0  0  0
    4.2706   -2.1909   -1.0397 H   0  0  0  0  0  0  0  0  0  0  0  0
   -3.0291   -0.7571   -3.6982 H   0  0  0  0  0  0  0  0  0  0  0  0
    3.8297   -1.8792    2.5397 H   0  0  0  0  0  0  0  0  0  0  0  0
    2.7326   -0.5569    2.1716 H   0  0  0  0  0  0  0  0  0  0  0  0
    2.1289   -2.1400    2.7030 H   0  0  0  0  0  0  0  0  0  0  0  0
    3.7193    0.2317   -0.6789 H   0  0  0  0  0  0  0  0  0  0  0  0
    4.4889    0.1740    0.9048 H   0  0  0  0  0  0  0  0  0  0  0  0
   -5.0859    3.8602   -0.9288 H   0  0  0  0  0  0  0  0  0  0  0  0
    6.6508   -0.3889   -0.1731 H   0  0  0  0  0  0  0  0  0  0  0  0
    5.8865   -0.3822   -1.7529 H   0  0  0  0  0  0  0  0  0  0  0  0
    7.1306    1.6956   -1.3816 H   0  0  0  0  0  0  0  0  0  0  0  0
    5.0278    1.7463   -2.7617 H   0  0  0  0  0  0  0  0  0  0  0  0
    4.1319    2.3257   -1.3422 H   0  0  0  0  0  0  0  0  0  0  0  0
    5.4330    3.2987   -2.0188 H   0  0  0  0  0  0  0  0  0  0  0  0
    7.2301    2.2887    2.1091 H   0  0  0  0  0  0  0  0  0  0  0  0
  1 15  1  0  0  0  0
  1 64  1  0  0  0  0
  2 24  1  0  0  0  0
  2 70  1  0  0  0  0
  3 31  1  0  0  0  0
  3 77  1  0  0  0  0
  4 31  2  0  0  0  0
  5  6  1  0  0  0  0
  5  7  1  0  0  0  0
  5 14  1  0  0  0  0
  5 32  1  0  0  0  0
  6 10  1  0  0  0  0
  6 12  1  0  0  0  0
  6 19  1  0  0  0  0
  7  8  1  0  0  0  0
  7 15  1  0  0  0  0
  7 33  1  0  0  0  0
  8  9  1  0  0  0  0
  8 13  1  0  0  0  0
  8 34  1  0  0  0  0
  9 11  1  0  0  0  0
  9 18  1  0  0  0  0
  9 22  1  0  0  0  0
 10 16  1  0  0  0  0
 10 20  1  0  0  0  0
 10 35  1  0  0  0  0
 11 17  1  0  0  0  0
 11 21  1  0  0  0  0
 11 36  1  0  0  0  0
 12 13  1  0  0  0  0
 12 37  1  0  0  0  0
 12 38  1  0  0  0  0
 13 39  1  0  0  0  0
 13 40  1  0  0  0  0
 14 16  1  0  0  0  0
 14 41  1  0  0  0  0
 14 42  1  0  0  0  0
 15 17  1  0  0  0  0
 15 43  1  0  0  0  0
 16 44  1  0  0  0  0
 16 45  1  0  0  0  0
 17 46  1  0  0  0  0
 17 47  1  0  0  0  0
 18 23  1  0  0  0  0
 18 48  1  0  0  0  0
 18 49  1  0  0  0  0
 19 50  1  0  0  0  0
 19 51  1  0  0  0  0
 19 52  1  0  0  0  0
 20 25  1  0  0  0  0
 20 26  1  0  0  0  0
 20 53  1  0  0  0  0
 21 24  1  0  0  0  0
 21 54  1  0  0  0  0
 21 55  1  0  0  0  0
 22 56  1  0  0  0  0
 22 57  1  0  0  0  0
 22 58  1  0  0  0  0
 23 24  1  0  0  0  0
 23 59  1  0  0  0  0
 23 60  1  0  0  0  0
 24 61  1  0  0  0  0
 25 27  1  0  0  0  0
 25 62  1  0  0  0  0
 25 63  1  0  0  0  0
 26 65  1  0  0  0  0
 26 66  1  0  0  0  0
 26 67  1  0  0  0  0
 27 28  1  0  0  0  0
 27 68  1  0  0  0  0
 27 69  1  0  0  0  0
 28 29  1  0  0  0  0
 28 71  1  0  0  0  0
 28 72  1  0  0  0  0
 29 30  1  0  0  0  0
 29 31  1  0  0  0  0
 29 73  1  0  0  0  0
 30 74  1  0  0  0  0
 30 75  1  0  0  0  0
 30 76  1  0  0  0  0
M  END
> <PUBCHEM_COMPOUND_CID>
440384

> <PUBCHEM_CONFORMER_RMSD>
1

> <PUBCHEM_CONFORMER_DIVERSEORDER>
46
269
9
249
27
70
222
37
254
226
270
48
158
230
240
173
206
112
194
19
246
68
183
149
163
213
245
24
193
97
187
258
180
143
275
31
43
264
174
120
232
177
248
135
197
113
154
36
84
253
215
72
267
210
182
225
203
200
266
185
241
217
79
172
23
231
94
243
7
271
88
179
273
133
76
71
268
209
148
175
136
260
176
157
233
167
90
64
140
276
6
98
86
247
81
105
257
227
78
234
191
15
122
224
91
92
38
162
265
18
152
49
235
251
29
131
252
41
111
83
165
178
204
58
63
104
229
153
73
123
2
25
119
196
132
110
155
74
103
44
239
100
237
13
170
137
99
201
14
198
151
208
188
51
53
238
218
129
114
42
5
60
168
263
93
221
171
124
211
134
121
96
242
126
87
259
34
54
56
159
212
61
52
146
59
50
192
45
219
145
147
69
39
35
272
55
127
77
216
11
190
169
160
107
186
40
4
21
47
125
156
142
228
166
118
20
274
89
262
75
205
62
128
82
144
244
1
161
261
220
10
189
16
279
164
116
102
8
202
117
66
26
12
109
207
138
184
95
101
65
57
223
30
106
32
150
141
236
28
67
3
278
250
85
181
108
277
115
199
17
195
22
256
130
214
139
33
80
255

> <PUBCHEM_MMFF94_PARTIAL_CHARGES>
11
1 -0.68
15 0.28
2 -0.68
24 0.28
29 0.06
3 -0.65
31 0.66
4 -0.57
64 0.4
70 0.4
77 0.5

> <PUBCHEM_EFFECTIVE_ROTOR_COUNT>
8.2

> <PUBCHEM_PHARMACOPHORE_FEATURES>
14
1 1 acceptor
1 1 donor
1 2 acceptor
1 2 donor
1 26 hydrophobe
1 3 acceptor
1 30 hydrophobe
1 4 acceptor
3 3 4 31 anion
5 20 25 27 28 29 hydrophobe
5 5 6 10 14 16 rings
6 5 6 7 8 12 13 rings
6 7 8 9 11 15 17 rings
6 9 11 18 21 23 24 rings

> <PUBCHEM_HEAVY_ATOM_COUNT>
31

> <PUBCHEM_ATOM_DEF_STEREO_COUNT>
6

> <PUBCHEM_ATOM_UDEF_STEREO_COUNT>
5

> <PUBCHEM_BOND_DEF_STEREO_COUNT>
0

> <PUBCHEM_BOND_UDEF_STEREO_COUNT>
0

> <PUBCHEM_ISOTOPIC_ATOM_COUNT>
0

> <PUBCHEM_COMPONENT_COUNT>
1

> <PUBCHEM_CACTVS_TAUTO_COUNT>
1

> <PUBCHEM_CONFORMER_ID>
0006B8400000002E

> <PUBCHEM_MMFF94_ENERGY>
105.5357

> <PUBCHEM_FEATURE_SELFOVERLAP>
71.231

> <PUBCHEM_SHAPE_FINGERPRINT>
10 15 15697994128996888582
10074138 170 16414623857192277842
10319926 262 14907631150557875778
10673678 19 18259981583093862054
117089 54 7780641837663584197
11991303 11 17603308154635611151
12422481 6 16128375973878501198
12596602 18 18201714085276757515
12633257 1 15051432908572974043
13140716 1 15409454841991996843
13383661 66 6408716334249817533
13627167 48 17312821580291153137
13690498 29 16444486567496529935
13782708 43 7493000752229713388
14211702 104 9799684922262042164
14251764 30 8790886276605393128
14739800 52 18129664234753458993
14840074 17 18113614590740652177
14848178 5 10087642576833054388
15082195 135 17458068187686361182
15131766 46 18336555923559218412
15183329 4 17095235922015331976
15475509 35 11023524879699801100
15575132 122 18040713679678962865
15840311 113 18340202020260297989
15950262 2 18194679491898367257
16728300 4 11959735962545385793
16989378 47 7132427995575519756
17913733 40 17704079503596675946
18393751 57 17775560932077271339
19438510 23 18411422770254136754
19958102 18 15647043898305539764
20567600 247 8286191721978443604
20691028 202 18341891913407529448
21033648 29 16845579763682140543
21033650 10 13984928658839314603
21298829 104 18336266752560581044
21344244 181 5184049436772020045
21756936 100 18336265639768100810
21792934 111 15123240982760325895
22122407 14 18338790221127900184
23559900 14 16557330755646872539
23569914 152 6696737549831164633
23569914 2 17699048146556642436
25122255 55 7709453931172809316
27425 322 17972857427572463723
2748736 6 18342177731139469384
2838139 119 18334011675491027064
34797466 226 18263073470174014975
3862424 121 5327884339234799197
392239 28 15554442977015675086
4258327 124 18259706714299059757
474113 269 12463286961150830889
5104073 3 15625389089341462350
563151 40 5110914282911447667
563151 74 17989211464418236426
56638632 10 17987795194562558860
633830 44 18337953505843912302
6608658 132 17603856845070652120
7970288 3 8430303628467228525
86090 222 8070029952746629764

> <PUBCHEM_SHAPE_MULTIPOLES>
614.49
16.66
3.3
2.22
14.11
1.64
-0.51
17.52
0.87
2.65
0.45
-0.97
-0.4
-0.32

> <PUBCHEM_SHAPE_SELFOVERLAP>
1275.005

> <PUBCHEM_SHAPE_VOLUME>
347.6

> <PUBCHEM_COORDINATE_TYPE>
2
5
10

$$$$

