440077
  -OEChem-07051212482D

 21 20  0     1  0  0  0  0  0999 V2000
    5.1350   -1.0600    0.0000 O   0  0  0  0  0  0  0  0  0  0  0  0
    7.7331    0.4400    0.0000 O   0  0  0  0  0  0  0  0  0  0  0  0
    6.8671   -1.0600    0.0000 O   0  0  0  0  0  0  0  0  0  0  0  0
    2.5369    0.4400    0.0000 N   0  0  0  0  0  0  0  0  0  0  0  0
    3.4030   -0.0600    0.0000 C   0  0  2  0  0  0  0  0  0  0  0  0
    4.2690    0.4400    0.0000 C   0  0  0  0  0  0  0  0  0  0  0  0
    5.1350   -0.0600    0.0000 C   0  0  0  0  0  0  0  0  0  0  0  0
    3.4030   -1.0600    0.0000 C   0  0  0  0  0  0  0  0  0  0  0  0
    6.0010    0.4400    0.0000 C   0  0  0  0  0  0  0  0  0  0  0  0
    6.8671   -0.0600    0.0000 C   0  0  0  0  0  0  0  0  0  0  0  0
    3.4030    0.5600    0.0000 H   0  0  0  0  0  0  0  0  0  0  0  0
    4.6675    0.9149    0.0000 H   0  0  0  0  0  0  0  0  0  0  0  0
    3.8705    0.9149    0.0000 H   0  0  0  0  0  0  0  0  0  0  0  0
    2.7830   -1.0600    0.0000 H   0  0  0  0  0  0  0  0  0  0  0  0
    3.4030   -1.6800    0.0000 H   0  0  0  0  0  0  0  0  0  0  0  0
    4.0230   -1.0600    0.0000 H   0  0  0  0  0  0  0  0  0  0  0  0
    6.3996    0.9149    0.0000 H   0  0  0  0  0  0  0  0  0  0  0  0
    5.6025    0.9149    0.0000 H   0  0  0  0  0  0  0  0  0  0  0  0
    2.0000    0.1300    0.0000 H   0  0  0  0  0  0  0  0  0  0  0  0
    2.5369    1.0600    0.0000 H   0  0  0  0  0  0  0  0  0  0  0  0
    8.2700    0.1300    0.0000 H   0  0  0  0  0  0  0  0  0  0  0  0
  1  7  2  0  0  0  0
  2 10  1  0  0  0  0
  2 21  1  0  0  0  0
  3 10  2  0  0  0  0
  5  4  1  6  0  0  0
  4 19  1  0  0  0  0
  4 20  1  0  0  0  0
  5  6  1  0  0  0  0
  5  8  1  0  0  0  0
  5 11  1  0  0  0  0
  6  7  1  0  0  0  0
  6 12  1  0  0  0  0
  6 13  1  0  0  0  0
  7  9  1  0  0  0  0
  8 14  1  0  0  0  0
  8 15  1  0  0  0  0
  8 16  1  0  0  0  0
  9 10  1  0  0  0  0
  9 17  1  0  0  0  0
  9 18  1  0  0  0  0
M  END
> <PUBCHEM_COMPOUND_CID>
440077

> <PUBCHEM_COMPOUND_CANONICALIZED>
1

> <PUBCHEM_CACTVS_COMPLEXITY>
144

> <PUBCHEM_CACTVS_HBOND_ACCEPTOR>
4

> <PUBCHEM_CACTVS_HBOND_DONOR>
2

> <PUBCHEM_CACTVS_ROTATABLE_BOND>
4

> <PUBCHEM_CACTVS_SUBSKEYS>
AAADccBiMAAAAAAAAAAAAAAAAAAAAAAAAAAAAAAAAAAAAAAAAAAAHgAQCAAACCzBgAQCCABAAgAIAICQCAAAAAAAAAAAAIEAAAAAAB4IgAAAQAAEMAAAAAGYWQEQAAAAAAAAAAAAAAAAAAAAAAAAAAAAAA==

> <PUBCHEM_IUPAC_OPENEYE_NAME>
(5S)-5-amino-3-oxo-hexanoic acid

> <PUBCHEM_IUPAC_CAS_NAME>
(5S)-5-amino-3-oxohexanoic acid

> <PUBCHEM_IUPAC_NAME>
(5S)-5-amino-3-oxohexanoic acid

> <PUBCHEM_IUPAC_SYSTEMATIC_NAME>
(5S)-5-azanyl-3-oxidanylidene-hexanoic acid

> <PUBCHEM_IUPAC_TRADITIONAL_NAME>
(5S)-5-amino-3-keto-hexanoic acid

> <PUBCHEM_IUPAC_INCHI>
InChI=1S/C6H11NO3/c1-4(7)2-5(8)3-6(9)10/h4H,2-3,7H2,1H3,(H,9,10)/t4-/m0/s1

> <PUBCHEM_IUPAC_INCHIKEY>
FAASBXNEOGMQHS-BYPYZUCNSA-N

> <PUBCHEM_XLOGP3_AA>
-3.2

> <PUBCHEM_EXACT_MASS>
145.073893

> <PUBCHEM_MOLECULAR_FORMULA>
C6H11NO3

> <PUBCHEM_MOLECULAR_WEIGHT>
145.15644

> <PUBCHEM_OPENEYE_CAN_SMILES>
CC(CC(=O)CC(=O)O)N

> <PUBCHEM_OPENEYE_ISO_SMILES>
C[C@@H](CC(=O)CC(=O)O)N

> <PUBCHEM_CACTVS_TPSA>
80.4

> <PUBCHEM_MONOISOTOPIC_WEIGHT>
145.073893

> <PUBCHEM_TOTAL_CHARGE>
0

> <PUBCHEM_HEAVY_ATOM_COUNT>
10

> <PUBCHEM_ATOM_DEF_STEREO_COUNT>
1

> <PUBCHEM_ATOM_UDEF_STEREO_COUNT>
0

> <PUBCHEM_BOND_DEF_STEREO_COUNT>
0

> <PUBCHEM_BOND_UDEF_STEREO_COUNT>
0

> <PUBCHEM_ISOTOPIC_ATOM_COUNT>
0

> <PUBCHEM_COMPONENT_COUNT>
1

> <PUBCHEM_CACTVS_TAUTO_COUNT>
5

> <PUBCHEM_COORDINATE_TYPE>
1
5
255

> <PUBCHEM_BONDANNOTATIONS>
5  4  6

$$$$

