53297394
  -OEChem-07051213123D

 43 46  0     1  0  0  0  0  0999 V2000
   -2.1716    0.9465   -1.3650 O   0  0  0  0  0  0  0  0  0  0  0  0
   -4.5812   -0.4614   -1.3907 O   0  0  0  0  0  0  0  0  0  0  0  0
   -1.6073   -2.3108   -0.8562 O   0  0  0  0  0  0  0  0  0  0  0  0
    0.3977    3.3674    0.0486 O   0  0  0  0  0  0  0  0  0  0  0  0
    2.6164    2.3474   -0.2200 O   0  0  0  0  0  0  0  0  0  0  0  0
    4.9000    1.2296   -0.4235 O   0  0  0  0  0  0  0  0  0  0  0  0
   -2.2310    0.8967    0.0674 C   0  0  2  0  0  0  0  0  0  0  0  0
   -1.4548   -0.3368    0.5705 C   0  0  1  0  0  0  0  0  0  0  0  0
   -3.7139    0.8004    0.5011 C   0  0  0  0  0  0  0  0  0  0  0  0
   -4.4099   -0.4971    0.0299 C   0  0  2  0  0  0  0  0  0  0  0  0
   -1.6001    2.1796    0.6047 C   0  0  0  0  0  0  0  0  0  0  0  0
   -3.5861   -1.7454    0.3652 C   0  0  0  0  0  0  0  0  0  0  0  0
   -2.1424   -1.5471   -0.0563 C   0  0  0  0  0  0  0  0  0  0  0  0
    0.0415   -0.2239    0.3508 C   0  0  0  0  0  0  0  0  0  0  0  0
    0.6573    1.0240    0.1709 C   0  0  0  0  0  0  0  0  0  0  0  0
   -0.1376    2.2778    0.2338 C   0  0  0  0  0  0  0  0  0  0  0  0
   -5.8049   -0.6076    0.6512 C   0  0  0  0  0  0  0  0  0  0  0  0
    0.8679   -1.3594    0.4275 C   0  0  0  0  0  0  0  0  0  0  0  0
    2.0439    1.1205   -0.0210 C   0  0  0  0  0  0  0  0  0  0  0  0
    2.2596   -1.2812    0.2416 C   0  0  0  0  0  0  0  0  0  0  0  0
    2.8539   -0.0243    0.0034 C   0  0  0  0  0  0  0  0  0  0  0  0
    3.0721   -2.4264    0.2902 C   0  0  0  0  0  0  0  0  0  0  0  0
    4.2439    0.0551   -0.1854 C   0  0  0  0  0  0  0  0  0  0  0  0
    4.4509   -2.3314    0.1000 C   0  0  0  0  0  0  0  0  0  0  0  0
    5.0360   -1.0922   -0.1387 C   0  0  0  0  0  0  0  0  0  0  0  0
   -1.5833   -0.4297    1.6589 H   0  0  0  0  0  0  0  0  0  0  0  0
   -4.2595    1.6574    0.0838 H   0  0  0  0  0  0  0  0  0  0  0  0
   -3.7735    0.8694    1.5952 H   0  0  0  0  0  0  0  0  0  0  0  0
   -2.1034    3.0513    0.1685 H   0  0  0  0  0  0  0  0  0  0  0  0
   -1.6784    2.2436    1.6960 H   0  0  0  0  0  0  0  0  0  0  0  0
   -3.9755   -2.6297   -0.1528 H   0  0  0  0  0  0  0  0  0  0  0  0
   -3.5906   -1.9542    1.4412 H   0  0  0  0  0  0  0  0  0  0  0  0
   -6.4284    0.2447    0.3578 H   0  0  0  0  0  0  0  0  0  0  0  0
   -5.7586   -0.6433    1.7445 H   0  0  0  0  0  0  0  0  0  0  0  0
   -6.3226   -1.5070    0.2983 H   0  0  0  0  0  0  0  0  0  0  0  0
   -2.6915    1.7134   -1.6602 H   0  0  0  0  0  0  0  0  0  0  0  0
    0.4247   -2.3307    0.6423 H   0  0  0  0  0  0  0  0  0  0  0  0
   -5.0440   -1.2725   -1.6622 H   0  0  0  0  0  0  0  0  0  0  0  0
    2.6357   -3.4059    0.4746 H   0  0  0  0  0  0  0  0  0  0  0  0
    1.9759    2.9511   -0.6279 H   0  0  0  0  0  0  0  0  0  0  0  0
    5.0664   -3.2254    0.1382 H   0  0  0  0  0  0  0  0  0  0  0  0
    6.1117   -1.0383   -0.2847 H   0  0  0  0  0  0  0  0  0  0  0  0
    5.8524    1.0611   -0.5239 H   0  0  0  0  0  0  0  0  0  0  0  0
  1  7  1  0  0  0  0
  1 36  1  0  0  0  0
  2 10  1  0  0  0  0
  2 38  1  0  0  0  0
  3 13  2  0  0  0  0
  4 16  2  0  0  0  0
  5 19  1  0  0  0  0
  5 40  1  0  0  0  0
  6 23  1  0  0  0  0
  6 43  1  0  0  0  0
  7  8  1  0  0  0  0
  7  9  1  0  0  0  0
  7 11  1  0  0  0  0
  8 13  1  0  0  0  0
  8 14  1  0  0  0  0
  8 26  1  0  0  0  0
  9 10  1  0  0  0  0
  9 27  1  0  0  0  0
  9 28  1  0  0  0  0
 10 12  1  0  0  0  0
 10 17  1  0  0  0  0
 11 16  1  0  0  0  0
 11 29  1  0  0  0  0
 11 30  1  0  0  0  0
 12 13  1  0  0  0  0
 12 31  1  0  0  0  0
 12 32  1  0  0  0  0
 14 15  2  0  0  0  0
 14 18  1  0  0  0  0
 15 16  1  0  0  0  0
 15 19  1  0  0  0  0
 17 33  1  0  0  0  0
 17 34  1  0  0  0  0
 17 35  1  0  0  0  0
 18 20  2  0  0  0  0
 18 37  1  0  0  0  0
 19 21  2  0  0  0  0
 20 21  1  0  0  0  0
 20 22  1  0  0  0  0
 21 23  1  0  0  0  0
 22 24  2  0  0  0  0
 22 39  1  0  0  0  0
 23 25  2  0  0  0  0
 24 25  1  0  0  0  0
 24 41  1  0  0  0  0
 25 42  1  0  0  0  0
M  END
> <PUBCHEM_COMPOUND_CID>
53297394

> <PUBCHEM_CONFORMER_RMSD>
0.6

> <PUBCHEM_CONFORMER_DIVERSEORDER>
2
1
4
3

> <PUBCHEM_MMFF94_PARTIAL_CHARGES>
29
1 -0.68
10 0.28
11 0.06
12 0.06
13 0.45
14 -0.14
15 0.09
16 0.42
18 -0.15
19 0.08
2 -0.68
22 -0.15
23 0.08
24 -0.15
25 -0.15
3 -0.57
36 0.4
37 0.15
38 0.4
39 0.15
4 -0.57
40 0.45
41 0.15
42 0.15
43 0.45
5 -0.53
6 -0.53
7 0.28
8 0.2

> <PUBCHEM_EFFECTIVE_ROTOR_COUNT>
0.8

> <PUBCHEM_PHARMACOPHORE_FEATURES>
12
1 1 acceptor
1 1 donor
1 2 acceptor
1 2 donor
1 3 acceptor
1 4 acceptor
1 5 donor
1 6 donor
6 14 15 18 19 20 21 rings
6 20 21 22 23 24 25 rings
6 7 8 11 14 15 16 rings
6 7 8 9 10 12 13 rings

> <PUBCHEM_HEAVY_ATOM_COUNT>
25

> <PUBCHEM_ATOM_DEF_STEREO_COUNT>
2

> <PUBCHEM_ATOM_UDEF_STEREO_COUNT>
1

> <PUBCHEM_BOND_DEF_STEREO_COUNT>
0

> <PUBCHEM_BOND_UDEF_STEREO_COUNT>
0

> <PUBCHEM_ISOTOPIC_ATOM_COUNT>
0

> <PUBCHEM_COMPONENT_COUNT>
1

> <PUBCHEM_CACTVS_TAUTO_COUNT>
243

> <PUBCHEM_CONFORMER_ID>
032D40F200000002

> <PUBCHEM_MMFF94_ENERGY>
82.2763

> <PUBCHEM_FEATURE_SELFOVERLAP>
60.977

> <PUBCHEM_SHAPE_FINGERPRINT>
10369192 42 16447323277953387858
10616163 171 18336543940742945534
10622 236 17679327199132935831
10967382 1 18410854330889386200
11045515 52 18202001061959134485
11135609 187 18126557925854568900
11578080 2 17416982792720983972
12011746 2 18411423916994580375
12107183 9 17760641873031158474
12166972 35 17775279487202021326
12236239 1 17967809449271938867
12553582 1 18409457989444558843
12788726 201 17749939055380420089
13004483 165 18337398230917180762
13140716 1 18337106860230247346
13224815 77 18343022211645271730
13544653 18 18342449352838243209
138480 1 14520027308324437280
13862211 1 18409452504808595939
14787075 74 18201716236918034122
14790565 3 18337664343065360201
15042514 8 18194117653644507002
15196674 1 18411417353530281872
15352361 1 18410855477371484018
15927050 60 17614840717640696316
16087824 20 18267019656230198457
16945 1 18338523057335556272
17349148 13 17821446859170536735
17492 89 18195245752944779674
19141452 34 18114181904523401095
19591789 44 18411136948185362555
200 152 18334858320534103283
20775438 99 16961872677975864767
21267235 1 18410565206275611299
21279426 13 18341898549606366029
21634736 98 18411417302481193710
21792934 111 18336839683600799753
221357 26 18341902896202771453
221490 88 18270392772407595411
22182313 1 18268735881499564717
22950370 63 18409163324955663131
23402539 116 18260554471527454279
23557571 272 18187920737776045358
23559900 14 18339365149982590488
2871803 45 18343022207255378322
3004659 81 18202001062338630434
314194 84 18335421248997175579
335352 9 18410291449987991493
34934 24 18336267842917408018
350125 39 18410289246543310953
4214541 1 18339078306074797818
46194498 28 17489024851577398077
463206 1 18338517434933657126
5104073 3 18336266850811384744
5283173 99 18059020617048467605
9709674 26 18264763449373528334
9981440 41 17329715314448727345

> <PUBCHEM_SHAPE_MULTIPOLES>
479.27
10.38
2.89
0.83
0.78
1.05
0.14
-4.34
0.43
-1.22
-0.06
0.58
-0.05
-0.38

> <PUBCHEM_SHAPE_SELFOVERLAP>
1078.628

> <PUBCHEM_SHAPE_VOLUME>
249.3

> <PUBCHEM_COORDINATE_TYPE>
2
5
10

$$$$

