5288725
  -OEChem-07051212473D

 16 15  0     1  0  0  0  0  0999 V2000
    1.4891   -0.8425   -0.9548 O   0  0  0  0  0  0  0  0  0  0  0  0
    1.3214   -0.1693    1.2088 O   0  0  0  0  0  0  0  0  0  0  0  0
   -1.4994    0.0010    0.2661 N   0  0  0  0  0  0  0  0  0  0  0  0
   -0.3411    0.5538   -0.4332 C   0  0  1  0  0  0  0  0  0  0  0  0
   -0.2426    2.0489   -0.1621 C   0  0  0  0  0  0  0  0  0  0  0  0
    0.8950   -0.1656    0.0629 C   0  0  0  0  0  0  0  0  0  0  0  0
   -1.6223   -1.4263    0.0123 C   0  0  0  0  0  0  0  0  0  0  0  0
   -0.4479    0.4079   -1.5154 H   0  0  0  0  0  0  0  0  0  0  0  0
    0.6389    2.4713   -0.6571 H   0  0  0  0  0  0  0  0  0  0  0  0
   -1.1258    2.5784   -0.5357 H   0  0  0  0  0  0  0  0  0  0  0  0
   -0.1456    2.2611    0.9090 H   0  0  0  0  0  0  0  0  0  0  0  0
   -2.3436    0.4738   -0.0563 H   0  0  0  0  0  0  0  0  0  0  0  0
   -0.8273   -2.0094    0.4871 H   0  0  0  0  0  0  0  0  0  0  0  0
   -1.6493   -1.6513   -1.0593 H   0  0  0  0  0  0  0  0  0  0  0  0
   -2.5645   -1.7822    0.4428 H   0  0  0  0  0  0  0  0  0  0  0  0
    2.2903   -1.3228   -0.6553 H   0  0  0  0  0  0  0  0  0  0  0  0
  1  6  1  0  0  0  0
  1 16  1  0  0  0  0
  2  6  2  0  0  0  0
  3  4  1  0  0  0  0
  3  7  1  0  0  0  0
  3 12  1  0  0  0  0
  4  5  1  0  0  0  0
  4  6  1  0  0  0  0
  4  8  1  0  0  0  0
  5  9  1  0  0  0  0
  5 10  1  0  0  0  0
  5 11  1  0  0  0  0
  7 13  1  0  0  0  0
  7 14  1  0  0  0  0
  7 15  1  0  0  0  0
M  END
> <PUBCHEM_COMPOUND_CID>
5288725

> <PUBCHEM_CONFORMER_RMSD>
0.4

> <PUBCHEM_CONFORMER_DIVERSEORDER>
1
8
4
3
5
6
2
7
9

> <PUBCHEM_MMFF94_PARTIAL_CHARGES>
8
1 -0.65
12 0.36
16 0.5
2 -0.57
3 -0.9
4 0.33
6 0.66
7 0.27

> <PUBCHEM_EFFECTIVE_ROTOR_COUNT>
2

> <PUBCHEM_PHARMACOPHORE_FEATURES>
5
1 1 acceptor
1 2 acceptor
1 3 cation
1 3 donor
3 1 2 6 anion

> <PUBCHEM_HEAVY_ATOM_COUNT>
7

> <PUBCHEM_ATOM_DEF_STEREO_COUNT>
1

> <PUBCHEM_ATOM_UDEF_STEREO_COUNT>
0

> <PUBCHEM_BOND_DEF_STEREO_COUNT>
0

> <PUBCHEM_BOND_UDEF_STEREO_COUNT>
0

> <PUBCHEM_ISOTOPIC_ATOM_COUNT>
0

> <PUBCHEM_COMPONENT_COUNT>
1

> <PUBCHEM_CACTVS_TAUTO_COUNT>
1

> <PUBCHEM_CONFORMER_ID>
0050B31500000001

> <PUBCHEM_MMFF94_ENERGY>
6.493

> <PUBCHEM_FEATURE_SELFOVERLAP>
25.429

> <PUBCHEM_SHAPE_FINGERPRINT>
16714656 1 18123447621837657317
21040471 1 17620479446453031917
23552449 11 17982465797378152851
24536 1 18116993291299147879
29004967 10 18336817585519229619
5943 1 9335664369268052500

> <PUBCHEM_SHAPE_MULTIPOLES>
127.34
1.91
1.69
0.89
1.07
0.85
-0.07
-0.71
-0.12
-0.4
0.19
-0.3
-0.23
0.01

> <PUBCHEM_SHAPE_SELFOVERLAP>
232.119

> <PUBCHEM_SHAPE_VOLUME>
82.1

> <PUBCHEM_COORDINATE_TYPE>
2
5
10

$$$$

