9719
  -OEChem-06261203593D

 31 32  0     0  0  0  0  0  0999 V2000
    5.4827    1.9704   -0.0012 Cl  0  0  0  0  0  0  0  0  0  0  0  0
   -8.0269    0.2653   -0.0002 Cl  0  0  0  0  0  0  0  0  0  0  0  0
    4.6042   -2.3864   -0.0022 F   0  0  0  0  0  0  0  0  0  0  0  0
    5.7583   -0.9031   -1.0846 F   0  0  0  0  0  0  0  0  0  0  0  0
    5.7438   -0.8906    1.0899 F   0  0  0  0  0  0  0  0  0  0  0  0
   -1.3167    1.4347   -0.0017 O   0  0  0  0  0  0  0  0  0  0  0  0
    0.0868   -0.4415    0.0009 N   0  0  0  0  0  0  0  0  0  0  0  0
   -2.2054   -0.7285    0.0008 N   0  0  0  0  0  0  0  0  0  0  0  0
    1.3644    0.1186    0.0005 C   0  0  0  0  0  0  0  0  0  0  0  0
    3.7659   -0.1457    0.0005 C   0  0  0  0  0  0  0  0  0  0  0  0
    2.4888   -0.7067    0.0010 C   0  0  0  0  0  0  0  0  0  0  0  0
    1.5171    1.5051   -0.0003 C   0  0  0  0  0  0  0  0  0  0  0  0
    3.9185    1.2407   -0.0004 C   0  0  0  0  0  0  0  0  0  0  0  0
    2.7941    2.0662   -0.0007 C   0  0  0  0  0  0  0  0  0  0  0  0
   -3.6000   -0.4904    0.0002 C   0  0  0  0  0  0  0  0  0  0  0  0
    4.9446   -1.0649   -0.0012 C   0  0  0  0  0  0  0  0  0  0  0  0
   -1.1673    0.2170   -0.0002 C   0  0  0  0  0  0  0  0  0  0  0  0
   -4.4714   -1.5671    0.0014 C   0  0  0  0  0  0  0  0  0  0  0  0
   -4.0649    0.8144   -0.0012 C   0  0  0  0  0  0  0  0  0  0  0  0
   -5.8464   -1.3323    0.0010 C   0  0  0  0  0  0  0  0  0  0  0  0
   -5.4399    1.0491   -0.0015 C   0  0  0  0  0  0  0  0  0  0  0  0
   -6.3305   -0.0243   -0.0006 C   0  0  0  0  0  0  0  0  0  0  0  0
    2.3592   -1.7864    0.0014 H   0  0  0  0  0  0  0  0  0  0  0  0
    0.6990    2.2110   -0.0006 H   0  0  0  0  0  0  0  0  0  0  0  0
    0.0552   -1.4580    0.0018 H   0  0  0  0  0  0  0  0  0  0  0  0
    2.8975    3.1484   -0.0014 H   0  0  0  0  0  0  0  0  0  0  0  0
   -1.9297   -1.7074    0.0019 H   0  0  0  0  0  0  0  0  0  0  0  0
   -4.1046   -2.5897    0.0026 H   0  0  0  0  0  0  0  0  0  0  0  0
   -3.4441    1.6977   -0.0019 H   0  0  0  0  0  0  0  0  0  0  0  0
   -6.5288   -2.1784    0.0020 H   0  0  0  0  0  0  0  0  0  0  0  0
   -5.8044    2.0734   -0.0025 H   0  0  0  0  0  0  0  0  0  0  0  0
  1 13  1  0  0  0  0
  2 22  1  0  0  0  0
  3 16  1  0  0  0  0
  4 16  1  0  0  0  0
  5 16  1  0  0  0  0
  6 17  2  0  0  0  0
  7  9  1  0  0  0  0
  7 17  1  0  0  0  0
  7 25  1  0  0  0  0
  8 15  1  0  0  0  0
  8 17  1  0  0  0  0
  8 27  1  0  0  0  0
  9 11  2  0  0  0  0
  9 12  1  0  0  0  0
 10 11  1  0  0  0  0
 10 13  2  0  0  0  0
 10 16  1  0  0  0  0
 11 23  1  0  0  0  0
 12 14  2  0  0  0  0
 12 24  1  0  0  0  0
 13 14  1  0  0  0  0
 14 26  1  0  0  0  0
 15 18  2  0  0  0  0
 15 19  1  0  0  0  0
 18 20  1  0  0  0  0
 18 28  1  0  0  0  0
 19 21  2  0  0  0  0
 19 29  1  0  0  0  0
 20 22  2  0  0  0  0
 20 30  1  0  0  0  0
 21 22  1  0  0  0  0
 21 31  1  0  0  0  0
M  END
> <PUBCHEM_COMPOUND_CID>
9719

> <PUBCHEM_CONFORMER_RMSD>
0.8

> <PUBCHEM_CONFORMER_DIVERSEORDER>
1
7
4
8
3
5
6
2

> <PUBCHEM_MMFF94_PARTIAL_CHARGES>
31
1 -0.18
10 -0.14
11 -0.15
12 -0.15
13 0.18
14 -0.15
15 0.12
16 1.16
17 0.69
18 -0.15
19 -0.15
2 -0.18
20 -0.15
21 -0.15
22 0.18
23 0.15
24 0.15
25 0.37
26 0.15
27 0.37
28 0.15
29 0.15
3 -0.34
30 0.15
31 0.15
4 -0.34
5 -0.34
6 -0.57
7 -0.55
8 -0.55
9 0.12

> <PUBCHEM_EFFECTIVE_ROTOR_COUNT>
5

> <PUBCHEM_PHARMACOPHORE_FEATURES>
5
1 6 acceptor
1 7 donor
1 8 donor
6 15 18 19 20 21 22 rings
6 9 10 11 12 13 14 rings

> <PUBCHEM_HEAVY_ATOM_COUNT>
22

> <PUBCHEM_ATOM_DEF_STEREO_COUNT>
0

> <PUBCHEM_ATOM_UDEF_STEREO_COUNT>
0

> <PUBCHEM_BOND_DEF_STEREO_COUNT>
0

> <PUBCHEM_BOND_UDEF_STEREO_COUNT>
0

> <PUBCHEM_ISOTOPIC_ATOM_COUNT>
0

> <PUBCHEM_COMPONENT_COUNT>
1

> <PUBCHEM_CACTVS_TAUTO_COUNT>
3

> <PUBCHEM_CONFORMER_ID>
000025F700000001

> <PUBCHEM_MMFF94_ENERGY>
58.0279

> <PUBCHEM_FEATURE_SELFOVERLAP>
25.42

> <PUBCHEM_SHAPE_FINGERPRINT>
10411042 1 18122343751905538598
10595046 47 18336264535876979621
11315181 36 18113897144508145201
11524674 6 16877943824491177967
11719270 70 17821728355569720231
12107183 9 17832703852673761745
12166972 35 18342172250629577813
12236239 1 18333168349908972977
12516196 113 17894914018683685625
12616971 3 17894635820798566621
13073987 5 18408321077505605937
13167372 99 18261387884409930985
13167823 11 18410577258301925399
13533116 47 18260830401759434154
13685833 64 18413387635554746547
14170010 4 18341612594894694148
14251752 14 18341897420140782081
14251764 18 18410858737188228141
14341114 176 18412540998985618805
14933364 13 18412260627905102573
15183329 4 18410007758449193521
15196674 1 18410856546791875905
15250474 111 18115602438918120831
17844677 252 18410849971397795581
19427546 62 18198340646706936776
200 152 18187365424105749337
20028762 73 18333452058121809798
20281389 69 18342739620257041605
20645477 70 18410573994390446678
21130935 74 18334011679649403187
21150785 3 16917061149081434526
21267235 1 18409724088448827861
21279426 13 18340772640872426341
21315763 28 18409449185837677381
220451 1 18040993995183029479
221357 26 18413390951148517541
23035841 295 18341895199758572395
23081809 10 18040435473720685381
23402539 116 18261116257972045391
23522609 53 18125409077552400460
23536379 177 18409729560696138049
23559900 14 18336834074727166145
23569943 247 17416133999572157923
239999 70 18334290981625694270
29717793 49 18113614590497676061
3004659 81 18413386545081296772
3014965 18 18341054098484553823
328311 84 18202277005745461419
335352 9 18410855460133709799
3545911 37 18413670215007874213
4073 2 18059289851320866547
4214541 1 18411138043908269153
465052 167 18260263075530081854
5104073 3 18409165489418740457
542803 24 17385437709588526801
7495541 125 17749393615987233993
9971528 1 17989205919267317132

> <PUBCHEM_SHAPE_MULTIPOLES>
418.84
19.77
1.91
0.67
16.93
0.02
0
-1.78
0.01
-2.26
0
-0.37
-0.06
0

> <PUBCHEM_SHAPE_SELFOVERLAP>
883.499

> <PUBCHEM_SHAPE_VOLUME>
236.7

> <PUBCHEM_COORDINATE_TYPE>
2
5
10

$$$$

