101967
  -OEChem-07051213053D

 60 63  0     1  0  0  0  0  0999 V2000
   -3.0596   -0.5784   -1.7787 O   0  0  0  0  0  0  0  0  0  0  0  0
   -5.6305   -0.3237   -0.7930 O   0  0  0  0  0  0  0  0  0  0  0  0
    4.7596   -1.1003   -2.4414 O   0  0  0  0  0  0  0  0  0  0  0  0
   -1.0843    0.9165   -0.3180 C   0  0  2  0  0  0  0  0  0  0  0  0
   -1.9893   -0.1201    0.3890 C   0  0  1  0  0  0  0  0  0  0  0  0
    0.2709    1.1071    0.3762 C   0  0  1  0  0  0  0  0  0  0  0  0
    1.0231   -0.2624    0.3996 C   0  0  1  0  0  0  0  0  0  0  0  0
    2.4475   -0.1423    1.0616 C   0  0  2  0  0  0  0  0  0  0  0  0
   -3.2714    0.0081   -0.4872 C   0  0  1  0  0  0  0  0  0  0  0  0
    3.2645    0.9812    0.3385 C   0  0  2  0  0  0  0  0  0  0  0  0
   -1.2586   -1.4726    0.3430 C   0  0  0  0  0  0  0  0  0  0  0  0
    0.1384   -1.3945    0.9871 C   0  0  0  0  0  0  0  0  0  0  0  0
   -1.9946    2.1295   -0.4919 C   0  0  0  0  0  0  0  0  0  0  0  0
    1.1075    2.1896   -0.3188 C   0  0  0  0  0  0  0  0  0  0  0  0
   -3.4025    1.5359   -0.7072 C   0  0  0  0  0  0  0  0  0  0  0  0
    2.5023    2.3157    0.2867 C   0  0  0  0  0  0  0  0  0  0  0  0
    3.2549   -1.4708    0.9800 C   0  0  0  0  0  0  0  0  0  0  0  0
   -2.3056    0.2398    1.8660 C   0  0  0  0  0  0  0  0  0  0  0  0
    3.7160    0.5713   -1.0794 C   0  0  0  0  0  0  0  0  0  0  0  0
    2.3327    0.1972    2.5706 C   0  0  0  0  0  0  0  0  0  0  0  0
   -4.5461   -0.6058    0.0837 C   0  0  2  0  0  0  0  0  0  0  0  0
    3.6657   -1.8608   -0.4341 C   0  0  0  0  0  0  0  0  0  0  0  0
    4.4759   -0.7505   -1.0907 C   0  0  1  0  0  0  0  0  0  0  0  0
   -4.4166   -2.1095    0.2583 C   0  0  0  0  0  0  0  0  0  0  0  0
   -0.8609    0.5548   -1.3351 H   0  0  0  0  0  0  0  0  0  0  0  0
    0.0961    1.4488    1.4012 H   0  0  0  0  0  0  0  0  0  0  0  0
    1.1759   -0.5407   -0.6524 H   0  0  0  0  0  0  0  0  0  0  0  0
    4.1836    1.1599    0.9155 H   0  0  0  0  0  0  0  0  0  0  0  0
   -1.1167   -1.8111   -0.6895 H   0  0  0  0  0  0  0  0  0  0  0  0
   -1.8087   -2.2613    0.8579 H   0  0  0  0  0  0  0  0  0  0  0  0
    0.0309   -1.2765    2.0694 H   0  0  0  0  0  0  0  0  0  0  0  0
    0.6232   -2.3642    0.8301 H   0  0  0  0  0  0  0  0  0  0  0  0
   -1.6915    2.7462   -1.3444 H   0  0  0  0  0  0  0  0  0  0  0  0
   -1.9850    2.7692    0.3979 H   0  0  0  0  0  0  0  0  0  0  0  0
    0.6041    3.1603   -0.2362 H   0  0  0  0  0  0  0  0  0  0  0  0
    1.1848    1.9754   -1.3913 H   0  0  0  0  0  0  0  0  0  0  0  0
   -4.0929    1.9957    0.0094 H   0  0  0  0  0  0  0  0  0  0  0  0
   -3.7605    1.7708   -1.7161 H   0  0  0  0  0  0  0  0  0  0  0  0
    3.0781    3.0534   -0.2857 H   0  0  0  0  0  0  0  0  0  0  0  0
    2.4152    2.7270    1.2995 H   0  0  0  0  0  0  0  0  0  0  0  0
    2.7029   -2.2973    1.4402 H   0  0  0  0  0  0  0  0  0  0  0  0
    4.1724   -1.3680    1.5768 H   0  0  0  0  0  0  0  0  0  0  0  0
   -2.8740    1.1705    1.9587 H   0  0  0  0  0  0  0  0  0  0  0  0
   -2.8935   -0.5494    2.3464 H   0  0  0  0  0  0  0  0  0  0  0  0
   -1.4067    0.3631    2.4755 H   0  0  0  0  0  0  0  0  0  0  0  0
    2.8651    0.5004   -1.7671 H   0  0  0  0  0  0  0  0  0  0  0  0
    4.3586    1.3533   -1.5050 H   0  0  0  0  0  0  0  0  0  0  0  0
    1.7404    1.0948    2.7635 H   0  0  0  0  0  0  0  0  0  0  0  0
    1.8786   -0.6246    3.1340 H   0  0  0  0  0  0  0  0  0  0  0  0
    3.3239    0.3700    3.0067 H   0  0  0  0  0  0  0  0  0  0  0  0
   -4.8129   -0.1548    1.0446 H   0  0  0  0  0  0  0  0  0  0  0  0
    4.2637   -2.7801   -0.4046 H   0  0  0  0  0  0  0  0  0  0  0  0
    2.7884   -2.1063   -1.0443 H   0  0  0  0  0  0  0  0  0  0  0  0
    5.4333   -0.6257   -0.5708 H   0  0  0  0  0  0  0  0  0  0  0  0
   -2.8417   -1.5174   -1.6861 H   0  0  0  0  0  0  0  0  0  0  0  0
   -3.8038   -2.3781    1.1186 H   0  0  0  0  0  0  0  0  0  0  0  0
   -5.4114   -2.5299    0.4557 H   0  0  0  0  0  0  0  0  0  0  0  0
   -4.0629   -2.6354   -0.6314 H   0  0  0  0  0  0  0  0  0  0  0  0
   -5.4245   -0.7201   -1.6569 H   0  0  0  0  0  0  0  0  0  0  0  0
    5.2476   -1.9414   -2.4298 H   0  0  0  0  0  0  0  0  0  0  0  0
  1  9  1  0  0  0  0
  1 55  1  0  0  0  0
  2 21  1  0  0  0  0
  2 59  1  0  0  0  0
  3 23  1  0  0  0  0
  3 60  1  0  0  0  0
  4  5  1  0  0  0  0
  4  6  1  0  0  0  0
  4 13  1  0  0  0  0
  4 25  1  0  0  0  0
  5  9  1  0  0  0  0
  5 11  1  0  0  0  0
  5 18  1  0  0  0  0
  6  7  1  0  0  0  0
  6 14  1  0  0  0  0
  6 26  1  0  0  0  0
  7  8  1  0  0  0  0
  7 12  1  0  0  0  0
  7 27  1  0  0  0  0
  8 10  1  0  0  0  0
  8 17  1  0  0  0  0
  8 20  1  0  0  0  0
  9 15  1  0  0  0  0
  9 21  1  0  0  0  0
 10 16  1  0  0  0  0
 10 19  1  0  0  0  0
 10 28  1  0  0  0  0
 11 12  1  0  0  0  0
 11 29  1  0  0  0  0
 11 30  1  0  0  0  0
 12 31  1  0  0  0  0
 12 32  1  0  0  0  0
 13 15  1  0  0  0  0
 13 33  1  0  0  0  0
 13 34  1  0  0  0  0
 14 16  1  0  0  0  0
 14 35  1  0  0  0  0
 14 36  1  0  0  0  0
 15 37  1  0  0  0  0
 15 38  1  0  0  0  0
 16 39  1  0  0  0  0
 16 40  1  0  0  0  0
 17 22  1  0  0  0  0
 17 41  1  0  0  0  0
 17 42  1  0  0  0  0
 18 43  1  0  0  0  0
 18 44  1  0  0  0  0
 18 45  1  0  0  0  0
 19 23  1  0  0  0  0
 19 46  1  0  0  0  0
 19 47  1  0  0  0  0
 20 48  1  0  0  0  0
 20 49  1  0  0  0  0
 20 50  1  0  0  0  0
 21 24  1  0  0  0  0
 21 51  1  0  0  0  0
 22 23  1  0  0  0  0
 22 52  1  0  0  0  0
 22 53  1  0  0  0  0
 23 54  1  0  0  0  0
 24 56  1  0  0  0  0
 24 57  1  0  0  0  0
 24 58  1  0  0  0  0
M  END
> <PUBCHEM_COMPOUND_CID>
101967

> <PUBCHEM_CONFORMER_RMSD>
0.6

> <PUBCHEM_CONFORMER_DIVERSEORDER>
2
3
1
4

> <PUBCHEM_MMFF94_PARTIAL_CHARGES>
9
1 -0.68
2 -0.68
21 0.28
23 0.28
3 -0.68
55 0.4
59 0.4
60 0.4
9 0.28

> <PUBCHEM_EFFECTIVE_ROTOR_COUNT>
3.2

> <PUBCHEM_PHARMACOPHORE_FEATURES>
10
1 1 acceptor
1 1 donor
1 2 acceptor
1 2 donor
1 3 acceptor
1 3 donor
5 4 5 9 13 15 rings
6 4 5 6 7 11 12 rings
6 6 7 8 10 14 16 rings
6 8 10 17 19 22 23 rings

> <PUBCHEM_HEAVY_ATOM_COUNT>
24

> <PUBCHEM_ATOM_DEF_STEREO_COUNT>
9

> <PUBCHEM_ATOM_UDEF_STEREO_COUNT>
0

> <PUBCHEM_BOND_DEF_STEREO_COUNT>
0

> <PUBCHEM_BOND_UDEF_STEREO_COUNT>
0

> <PUBCHEM_ISOTOPIC_ATOM_COUNT>
0

> <PUBCHEM_COMPONENT_COUNT>
1

> <PUBCHEM_CACTVS_TAUTO_COUNT>
1

> <PUBCHEM_CONFORMER_ID>
00018E4F00000002

> <PUBCHEM_MMFF94_ENERGY>
93.1032

> <PUBCHEM_FEATURE_SELFOVERLAP>
50.879

> <PUBCHEM_SHAPE_FINGERPRINT>
10366900 7 17704067378639911057
10498660 4 17988923344947399990
11543360 7 15410895167194439787
11552529 35 15070331207346799279
11578080 2 16843639104385233524
11961588 58 17131259161393951548
12236239 1 17967810523414552985
12403814 3 13840270286470657225
12553582 1 18338505448085434002
12670546 177 17846495932847929807
13140716 1 18055367841894243635
13224815 77 17847065484213252361
13533116 47 17095243605305701183
13583140 156 14996854345681818034
14790565 3 17619344746380577493
15163728 17 15553622849364448631
15196674 1 18343309183911316705
15536298 74 18410862022928133889
15635459 17 18343021069120706432
15788980 27 14851608812218063931
15848702 151 18113329829918437127
16752209 62 18272094940950816689
16945 1 18342463625046327000
17349148 13 17385720292450470167
1813 80 18113610231638795796
18186145 218 18408325501110677401
193927 3 17967523588706558790
19784866 240 16805592707581284694
19862831 5 18273210924036641964
200 152 17968098612245403369
20645477 70 18409446947505822524
20691752 17 16773519953061734120
20775530 9 16373518830321741070
20871999 31 18271234010751334486
21267235 1 18342457049467298939
221357 26 18411982476948255597
22393880 68 18201444691826564541
23503953 91 7492999665486767583
23557571 272 18187379734747070912
23559900 14 18410859819551882129
239999 70 18339644426104713924
2748010 2 17839737067631802520
2838139 119 14691419765721232630
296302 2 13039185892391240483
3004659 81 17917432103089447874
312423 11 18113886152684950105
3323516 105 18413389825893037462
4280585 95 17475798027613040382
46194498 28 18333725797977796188
4990 188 18410009940260963796
5104073 3 18341058479557113313
5281201 14 18334858320407678076
633830 44 18411428297470981541
6823239 73 18410295796252035706
960060 61 17918273160121206334
9709674 26 18270683056488609739

> <PUBCHEM_SHAPE_MULTIPOLES>
476.3
9.79
2.2
1.66
3.58
0.49
-0.15
-3.17
3.99
-0.13
0.08
-1.47
-0.31
0.62

> <PUBCHEM_SHAPE_SELFOVERLAP>
1007.852

> <PUBCHEM_SHAPE_VOLUME>
265.3

> <PUBCHEM_COORDINATE_TYPE>
2
5
10

$$$$

