12305708
  -OEChem-07051213113D

 39 42  0     0  0  0  0  0  0999 V2000
   -0.3165    2.1959   -0.0164 O   0  0  0  0  0  0  0  0  0  0  0  0
    2.1556    2.2717   -0.0092 O   0  0  0  0  0  0  0  0  0  0  0  0
   -2.8299    2.1160   -0.0216 O   0  0  0  0  0  0  0  0  0  0  0  0
    4.6884    2.3416   -0.0023 O   0  0  0  0  0  0  0  0  0  0  0  0
   -5.0053   -2.1104   -0.0133 O   0  0  0  0  0  0  0  0  0  0  0  0
   -5.7656    0.9817   -1.0877 O   0  0  0  0  0  0  0  0  0  0  0  0
   -5.7646    1.0041    1.2054 N   0  0  0  0  0  0  0  0  0  0  0  0
    0.9802    0.1764   -0.0043 C   0  0  0  0  0  0  0  0  0  0  0  0
    1.0231   -1.2321    0.0009 C   0  0  0  0  0  0  0  0  0  0  0  0
   -1.4697    0.1030   -0.0109 C   0  0  0  0  0  0  0  0  0  0  0  0
   -1.4267   -1.3080   -0.0058 C   0  0  0  0  0  0  0  0  0  0  0  0
   -0.2657    0.8264   -0.0100 C   0  0  0  0  0  0  0  0  0  0  0  0
    3.4301    0.2524    0.0021 C   0  0  0  0  0  0  0  0  0  0  0  0
   -0.1808   -1.9568    0.0000 C   0  0  0  0  0  0  0  0  0  0  0  0
    2.1842    0.9011   -0.0038 C   0  0  0  0  0  0  0  0  0  0  0  0
    3.4731   -1.1586    0.0077 C   0  0  0  0  0  0  0  0  0  0  0  0
    2.2690   -1.8822    0.0070 C   0  0  0  0  0  0  0  0  0  0  0  0
   -2.7154    0.7525   -0.0165 C   0  0  0  0  0  0  0  0  0  0  0  0
   -2.6305   -2.0320   -0.0067 C   0  0  0  0  0  0  0  0  0  0  0  0
   -3.9018    0.0187   -0.0173 C   0  0  0  0  0  0  0  0  0  0  0  0
    4.6340    0.9765    0.0025 C   0  0  0  0  0  0  0  0  0  0  0  0
   -3.8596   -1.3718   -0.0122 C   0  0  0  0  0  0  0  0  0  0  0  0
    4.7189   -1.8081    0.0137 C   0  0  0  0  0  0  0  0  0  0  0  0
    5.8629    0.3164    0.0085 C   0  0  0  0  0  0  0  0  0  0  0  0
    5.9053   -1.0743    0.0141 C   0  0  0  0  0  0  0  0  0  0  0  0
   -5.1928    0.7000   -0.0238 C   0  0  0  0  0  0  0  0  0  0  0  0
   -0.1474   -3.0464    0.0040 H   0  0  0  0  0  0  0  0  0  0  0  0
    2.3021   -2.9718    0.0111 H   0  0  0  0  0  0  0  0  0  0  0  0
   -2.6135   -3.1205   -0.0029 H   0  0  0  0  0  0  0  0  0  0  0  0
    4.7756   -2.8947    0.0180 H   0  0  0  0  0  0  0  0  0  0  0  0
    6.7921    0.8802    0.0090 H   0  0  0  0  0  0  0  0  0  0  0  0
    6.8616   -1.5891    0.0188 H   0  0  0  0  0  0  0  0  0  0  0  0
   -1.1376    2.5035   -0.4303 H   0  0  0  0  0  0  0  0  0  0  0  0
    1.3457    2.5880   -0.4386 H   0  0  0  0  0  0  0  0  0  0  0  0
   -3.7552    2.4056   -0.0157 H   0  0  0  0  0  0  0  0  0  0  0  0
    3.8020    2.7259    0.0547 H   0  0  0  0  0  0  0  0  0  0  0  0
   -5.7853   -1.5327   -0.0140 H   0  0  0  0  0  0  0  0  0  0  0  0
   -5.3108    0.7730    2.0834 H   0  0  0  0  0  0  0  0  0  0  0  0
   -6.6634    1.4714    1.2615 H   0  0  0  0  0  0  0  0  0  0  0  0
  1 12  1  0  0  0  0
  1 33  1  0  0  0  0
  2 15  1  0  0  0  0
  2 34  1  0  0  0  0
  3 18  1  0  0  0  0
  3 35  1  0  0  0  0
  4 21  1  0  0  0  0
  4 36  1  0  0  0  0
  5 22  1  0  0  0  0
  5 37  1  0  0  0  0
  6 26  2  0  0  0  0
  7 26  1  0  0  0  0
  7 38  1  0  0  0  0
  7 39  1  0  0  0  0
  8  9  1  0  0  0  0
  8 12  2  0  0  0  0
  8 15  1  0  0  0  0
  9 14  2  0  0  0  0
  9 17  1  0  0  0  0
 10 11  1  0  0  0  0
 10 12  1  0  0  0  0
 10 18  2  0  0  0  0
 11 14  1  0  0  0  0
 11 19  2  0  0  0  0
 13 15  2  0  0  0  0
 13 16  1  0  0  0  0
 13 21  1  0  0  0  0
 14 27  1  0  0  0  0
 16 17  2  0  0  0  0
 16 23  1  0  0  0  0
 17 28  1  0  0  0  0
 18 20  1  0  0  0  0
 19 22  1  0  0  0  0
 19 29  1  0  0  0  0
 20 22  2  0  0  0  0
 20 26  1  0  0  0  0
 21 24  2  0  0  0  0
 23 25  2  0  0  0  0
 23 30  1  0  0  0  0
 24 25  1  0  0  0  0
 24 31  1  0  0  0  0
 25 32  1  0  0  0  0
M  END
> <PUBCHEM_COMPOUND_CID>
12305708

> <PUBCHEM_CONFORMER_RMSD>
0.6

> <PUBCHEM_CONFORMER_DIVERSEORDER>
2
1

> <PUBCHEM_MMFF94_PARTIAL_CHARGES>
33
1 -0.53
12 0.08
14 -0.15
15 0.08
17 -0.15
18 0.08
19 -0.15
2 -0.53
20 0.09
21 0.08
22 0.08
23 -0.15
24 -0.15
25 -0.15
26 0.54
27 0.15
28 0.15
29 0.15
3 -0.53
30 0.15
31 0.15
32 0.15
33 0.45
34 0.45
35 0.45
36 0.45
37 0.45
38 0.37
39 0.37
4 -0.53
5 -0.53
6 -0.57
7 -0.8

> <PUBCHEM_EFFECTIVE_ROTOR_COUNT>
1

> <PUBCHEM_PHARMACOPHORE_FEATURES>
11
1 1 donor
1 2 donor
1 3 donor
1 4 donor
1 5 donor
1 6 acceptor
1 7 donor
6 10 11 18 19 20 22 rings
6 13 16 21 23 24 25 rings
6 8 9 10 11 12 14 rings
6 8 9 13 15 16 17 rings

> <PUBCHEM_HEAVY_ATOM_COUNT>
26

> <PUBCHEM_ATOM_DEF_STEREO_COUNT>
0

> <PUBCHEM_ATOM_UDEF_STEREO_COUNT>
0

> <PUBCHEM_BOND_DEF_STEREO_COUNT>
0

> <PUBCHEM_BOND_UDEF_STEREO_COUNT>
0

> <PUBCHEM_ISOTOPIC_ATOM_COUNT>
0

> <PUBCHEM_COMPONENT_COUNT>
1

> <PUBCHEM_CACTVS_TAUTO_COUNT>
997

> <PUBCHEM_CONFORMER_ID>
00BBC52C00000002

> <PUBCHEM_MMFF94_ENERGY>
106.3168

> <PUBCHEM_FEATURE_SELFOVERLAP>
55.951

> <PUBCHEM_SHAPE_FINGERPRINT>
10411042 1 17834394515211833707
10835480 77 18338243673707718980
10906281 52 18337090341759932062
11578080 2 17024610888623164794
12107183 9 17762902469212256898
12236239 1 17894351098425523101
12403259 415 18202007654596524028
12788726 201 17458898340065830953
12838862 33 18339380633091687996
13140716 1 18410289177296014803
13402501 40 18411419513888184694
14251764 18 18334009485226569659
14341114 176 18411976979194872721
14790565 3 18410289203049935560
15183329 4 18410294730672839014
15196674 1 18410856538207378478
15788980 27 17989203750345424079
1601671 61 18409730664049019752
1813 80 17203892946532253820
18681886 176 18335144164035996474
19141452 34 18409166597451879751
200 152 18113620070897291379
21033648 29 17774455952734711565
21130935 74 18333170570460631370
21236236 1 18408886209766708479
21267235 1 18410567388620170422
21279426 13 18411419531205425118
21421861 104 17987528159540216842
21709351 56 18341900658203011639
23402539 116 18335144180535546103
23522609 53 18196340737313067788
23559900 14 18336271162779486992
3004659 81 18343582950165204670
335352 9 18410575101858850751
34797466 226 16588300528119993008
34934 24 18411142436979558358
350125 39 18411135844557972508
3545911 37 18411981377241247421
3633792 109 18338526343581877269
3680242 22 18271530887723830066
4073 2 18059569153508388058
4214541 1 18410856563945312886
4340502 62 16702297983818955546
5104073 3 18411419488155577906
5283173 99 18272096044905384221
542803 24 17603585248423249723
9709674 26 18340482266517873202

> <PUBCHEM_SHAPE_MULTIPOLES>
494.87
13.72
2.45
0.67
0.9
0.13
-0.02
0.99
-0.15
-0.19
0
0.43
0.05
-0.05

> <PUBCHEM_SHAPE_SELFOVERLAP>
1143.249

> <PUBCHEM_SHAPE_VOLUME>
253.8

> <PUBCHEM_COORDINATE_TYPE>
2
5
10

$$$$

