5281431
  -OEChem-07051212573D

 45 47  0     1  0  0  0  0  0999 V2000
   -2.2362   -0.3203    0.9226 O   0  0  0  0  0  0  0  0  0  0  0  0
    0.5882    2.6229   -1.0597 O   0  0  0  0  0  0  0  0  0  0  0  0
    1.9487   -0.3585    0.1744 O   0  0  0  0  0  0  0  0  0  0  0  0
   -2.6504   -3.3624   -0.5676 O   0  0  0  0  0  0  0  0  0  0  0  0
    2.2307    3.9322   -0.1399 O   0  0  0  0  0  0  0  0  0  0  0  0
    2.5445   -2.3639    1.1345 O   0  0  0  0  0  0  0  0  0  0  0  0
    0.1311    1.1377    0.7696 C   0  0  2  0  0  0  0  0  0  0  0  0
    0.6924   -0.3110    0.8673 C   0  0  1  0  0  0  0  0  0  0  0  0
   -0.1711   -1.4568    0.2844 C   0  0  0  0  0  0  0  0  0  0  0  0
   -1.6229   -1.6071    0.7843 C   0  0  2  0  0  0  0  0  0  0  0  0
   -0.3091    1.5675   -0.6409 C   0  0  1  0  0  0  0  0  0  0  0  0
    1.1393    2.1866    1.1089 C   0  0  0  0  0  0  0  0  0  0  0  0
   -2.5058   -2.1794   -0.3045 C   0  0  0  0  0  0  0  0  0  0  0  0
   -1.7335    2.0890   -0.7537 C   0  0  0  0  0  0  0  0  0  0  0  0
   -1.7388   -2.3553    2.0994 C   0  0  0  0  0  0  0  0  0  0  0  0
   -2.7994   -0.0515   -0.3169 C   0  0  0  0  0  0  0  0  0  0  0  0
   -2.8604    1.3499   -0.6537 C   0  0  0  0  0  0  0  0  0  0  0  0
    1.4142    3.0320   -0.0614 C   0  0  0  0  0  0  0  0  0  0  0  0
   -3.1161   -1.0951   -1.0787 C   0  0  0  0  0  0  0  0  0  0  0  0
    1.7349    2.4018    2.2853 C   0  0  0  0  0  0  0  0  0  0  0  0
   -4.2273    1.9325   -0.8579 C   0  0  0  0  0  0  0  0  0  0  0  0
    2.6013   -1.5503    0.2233 C   0  0  0  0  0  0  0  0  0  0  0  0
    3.4108   -1.7237   -1.0150 C   0  0  0  0  0  0  0  0  0  0  0  0
    3.4108   -0.6634   -2.0732 C   0  0  0  0  0  0  0  0  0  0  0  0
    4.1240   -2.8536   -1.1307 C   0  0  0  0  0  0  0  0  0  0  0  0
   -0.6894    1.2464    1.4870 H   0  0  0  0  0  0  0  0  0  0  0  0
    0.8840   -0.5200    1.9286 H   0  0  0  0  0  0  0  0  0  0  0  0
   -0.1691   -1.3460   -0.8095 H   0  0  0  0  0  0  0  0  0  0  0  0
    0.3030   -2.4344    0.4257 H   0  0  0  0  0  0  0  0  0  0  0  0
   -0.1749    0.7707   -1.3793 H   0  0  0  0  0  0  0  0  0  0  0  0
   -1.8353    3.1475   -0.9877 H   0  0  0  0  0  0  0  0  0  0  0  0
   -1.2140   -1.8221    2.8993 H   0  0  0  0  0  0  0  0  0  0  0  0
   -2.7862   -2.4391    2.4116 H   0  0  0  0  0  0  0  0  0  0  0  0
   -1.3290   -3.3677    2.0245 H   0  0  0  0  0  0  0  0  0  0  0  0
   -3.5324   -1.1497   -2.0668 H   0  0  0  0  0  0  0  0  0  0  0  0
    1.5121    1.7734    3.1412 H   0  0  0  0  0  0  0  0  0  0  0  0
    2.4526    3.2025    2.4276 H   0  0  0  0  0  0  0  0  0  0  0  0
   -4.8449    1.7877    0.0351 H   0  0  0  0  0  0  0  0  0  0  0  0
   -4.7290    1.4579   -1.7080 H   0  0  0  0  0  0  0  0  0  0  0  0
   -4.1873    3.0086   -1.0587 H   0  0  0  0  0  0  0  0  0  0  0  0
    2.3983   -0.5071   -2.4604 H   0  0  0  0  0  0  0  0  0  0  0  0
    3.7815    0.2841   -1.6685 H   0  0  0  0  0  0  0  0  0  0  0  0
    4.0497   -0.9315   -2.9215 H   0  0  0  0  0  0  0  0  0  0  0  0
    4.7339   -3.0389   -2.0095 H   0  0  0  0  0  0  0  0  0  0  0  0
    4.1275   -3.6246   -0.3676 H   0  0  0  0  0  0  0  0  0  0  0  0
  1 10  1  0  0  0  0
  1 16  1  0  0  0  0
  2 11  1  0  0  0  0
  2 18  1  0  0  0  0
  3  8  1  0  0  0  0
  3 22  1  0  0  0  0
  4 13  2  0  0  0  0
  5 18  2  0  0  0  0
  6 22  2  0  0  0  0
  7  8  1  0  0  0  0
  7 11  1  0  0  0  0
  7 12  1  0  0  0  0
  7 26  1  0  0  0  0
  8  9  1  0  0  0  0
  8 27  1  0  0  0  0
  9 10  1  0  0  0  0
  9 28  1  0  0  0  0
  9 29  1  0  0  0  0
 10 13  1  0  0  0  0
 10 15  1  0  0  0  0
 11 14  1  0  0  0  0
 11 30  1  0  0  0  0
 12 18  1  0  0  0  0
 12 20  2  0  0  0  0
 13 19  1  0  0  0  0
 14 17  2  0  0  0  0
 14 31  1  0  0  0  0
 15 32  1  0  0  0  0
 15 33  1  0  0  0  0
 15 34  1  0  0  0  0
 16 17  1  0  0  0  0
 16 19  2  0  0  0  0
 17 21  1  0  0  0  0
 19 35  1  0  0  0  0
 20 36  1  0  0  0  0
 20 37  1  0  0  0  0
 21 38  1  0  0  0  0
 21 39  1  0  0  0  0
 21 40  1  0  0  0  0
 22 23  1  0  0  0  0
 23 24  1  0  0  0  0
 23 25  2  0  0  0  0
 24 41  1  0  0  0  0
 24 42  1  0  0  0  0
 24 43  1  0  0  0  0
 25 44  1  0  0  0  0
 25 45  1  0  0  0  0
M  END
> <PUBCHEM_COMPOUND_CID>
5281431

> <PUBCHEM_CONFORMER_RMSD>
0.8

> <PUBCHEM_CONFORMER_DIVERSEORDER>
1
8
4
2
7
6
5
3

> <PUBCHEM_MMFF94_PARTIAL_CHARGES>
29
1 -0.36
10 0.34
11 0.42
12 -0.12
13 0.49
14 -0.29
16 0.08
17 -0.14
18 0.71
19 -0.14
2 -0.43
20 -0.3
21 0.14
22 0.71
23 -0.12
24 0.14
25 -0.3
3 -0.43
31 0.15
35 0.15
36 0.15
37 0.15
4 -0.57
44 0.15
45 0.15
5 -0.57
6 -0.57
7 0.14
8 0.28

> <PUBCHEM_EFFECTIVE_ROTOR_COUNT>
3.8

> <PUBCHEM_PHARMACOPHORE_FEATURES>
6
1 1 acceptor
1 4 acceptor
1 5 acceptor
1 6 acceptor
5 1 10 13 16 19 rings
5 2 7 11 12 18 rings

> <PUBCHEM_HEAVY_ATOM_COUNT>
25

> <PUBCHEM_ATOM_DEF_STEREO_COUNT>
4

> <PUBCHEM_ATOM_UDEF_STEREO_COUNT>
0

> <PUBCHEM_BOND_DEF_STEREO_COUNT>
1

> <PUBCHEM_BOND_UDEF_STEREO_COUNT>
0

> <PUBCHEM_ISOTOPIC_ATOM_COUNT>
0

> <PUBCHEM_COMPONENT_COUNT>
1

> <PUBCHEM_CACTVS_TAUTO_COUNT>
1

> <PUBCHEM_CONFORMER_ID>
0050969700000001

> <PUBCHEM_MMFF94_ENERGY>
81.441

> <PUBCHEM_FEATURE_SELFOVERLAP>
30.446

> <PUBCHEM_SHAPE_FINGERPRINT>
11578080 2 17750241313808981569
12553582 1 18338795753109158450
12788726 201 17907292505346484842
13140716 1 18270970046620053619
13149001 5 18410579521528008109
13681431 1 18335136458511181082
14251740 79 17617086345444348814
14790565 3 17978220891910569621
14863182 85 17546164104172116351
14955137 171 18119228800634059273
15475509 8 17681264783380957965
1601671 61 17833557069676878177
16752209 62 17836368516165351554
16945 1 18272375217826668241
17492 54 17984701379379523845
19319366 153 17702384146634313403
19591789 44 17979648049850591029
20028762 73 16461066974994671687
20600515 1 18193579954136368984
20642791 239 18199449108682892356
20691752 17 17845672412014029877
20775438 99 17902270795404171247
20905425 154 18193565458278651623
21069387 34 16660653985301414647
21141583 151 18192999450598652990
22182313 1 18270130011251934295
22907989 373 17691649662057105374
23114952 82 18265051340651012365
23419403 2 17246726685202688826
23557571 272 18044665432634468202
23558518 356 18198363787747842387
23559900 14 18264785280344134320
2748010 2 18198345052800102707
2818148 4 17697557118958054331
3178227 256 18196644310829920385
350125 39 18411412943548668441
4280585 95 18337962289615852878
81228 2 17974559501441755546
84936 31 17459203893087845888
9709674 26 18337402534695950879

> <PUBCHEM_SHAPE_MULTIPOLES>
479.27
6.29
4.53
1.69
1.36
1.78
0.48
-3.26
-3.19
1.04
0.39
0.68
-0.04
1.5

> <PUBCHEM_SHAPE_SELFOVERLAP>
1033.223

> <PUBCHEM_SHAPE_VOLUME>
263

> <PUBCHEM_COORDINATE_TYPE>
2
5
10

$$$$

