13593
  -OEChem-06241222393D

 16 16  0     0  0  0  0  0  0999 V2000
    2.6943    0.0033   -0.0459 Cl  0  0  0  0  0  0  0  0  0  0  0  0
   -1.1948   -1.2268    0.2947 C   0  0  0  0  0  0  0  0  0  0  0  0
   -1.8743   -0.0097   -0.3263 C   0  0  0  0  0  0  0  0  0  0  0  0
    0.2852   -1.2963   -0.0950 C   0  0  0  0  0  0  0  0  0  0  0  0
   -1.1879    1.2899    0.1012 C   0  0  0  0  0  0  0  0  0  0  0  0
    0.9673    0.0379   -0.0163 C   0  0  0  0  0  0  0  0  0  0  0  0
    0.3102    1.2017    0.0876 C   0  0  0  0  0  0  0  0  0  0  0  0
   -1.7027   -2.1444   -0.0228 H   0  0  0  0  0  0  0  0  0  0  0  0
   -1.2848   -1.1746    1.3873 H   0  0  0  0  0  0  0  0  0  0  0  0
   -2.9314    0.0198   -0.0390 H   0  0  0  0  0  0  0  0  0  0  0  0
   -1.8445   -0.0973   -1.4200 H   0  0  0  0  0  0  0  0  0  0  0  0
    0.3723   -1.6748   -1.1212 H   0  0  0  0  0  0  0  0  0  0  0  0
    0.7823   -2.0220    0.5599 H   0  0  0  0  0  0  0  0  0  0  0  0
   -1.5078    1.5603    1.1147 H   0  0  0  0  0  0  0  0  0  0  0  0
   -1.5111    2.0990   -0.5636 H   0  0  0  0  0  0  0  0  0  0  0  0
    0.8568    2.1377    0.1663 H   0  0  0  0  0  0  0  0  0  0  0  0
  1  6  1  0  0  0  0
  2  3  1  0  0  0  0
  2  4  1  0  0  0  0
  2  8  1  0  0  0  0
  2  9  1  0  0  0  0
  3  5  1  0  0  0  0
  3 10  1  0  0  0  0
  3 11  1  0  0  0  0
  4  6  1  0  0  0  0
  4 12  1  0  0  0  0
  4 13  1  0  0  0  0
  5  7  1  0  0  0  0
  5 14  1  0  0  0  0
  5 15  1  0  0  0  0
  6  7  2  0  0  0  0
  7 16  1  0  0  0  0
M  END
> <PUBCHEM_COMPOUND_CID>
13593

> <PUBCHEM_CONFORMER_RMSD>
0.4

> <PUBCHEM_CONFORMER_DIVERSEORDER>
1

> <PUBCHEM_MMFF94_PARTIAL_CHARGES>
5
1 -0.14
16 0.15
4 0.14
5 0.14
7 -0.29

> <PUBCHEM_EFFECTIVE_ROTOR_COUNT>
0.8

> <PUBCHEM_PHARMACOPHORE_FEATURES>
1
6 2 3 4 5 6 7 rings

> <PUBCHEM_HEAVY_ATOM_COUNT>
7

> <PUBCHEM_ATOM_DEF_STEREO_COUNT>
0

> <PUBCHEM_ATOM_UDEF_STEREO_COUNT>
0

> <PUBCHEM_BOND_DEF_STEREO_COUNT>
0

> <PUBCHEM_BOND_UDEF_STEREO_COUNT>
0

> <PUBCHEM_ISOTOPIC_ATOM_COUNT>
0

> <PUBCHEM_COMPONENT_COUNT>
1

> <PUBCHEM_CACTVS_TAUTO_COUNT>
1

> <PUBCHEM_CONFORMER_ID>
0000351900000001

> <PUBCHEM_MMFF94_ENERGY>
-1.9169

> <PUBCHEM_FEATURE_SELFOVERLAP>
5.074

> <PUBCHEM_SHAPE_FINGERPRINT>
16714656 1 18410853256978744060
20096714 4 18050003595261094249
21040471 1 18267021845855611816
23235685 24 18411422851252048365
23552423 10 18272645783855764462
29004967 10 16153423956802414406

> <PUBCHEM_SHAPE_MULTIPOLES>
145.93
2.79
1.51
0.65
1.56
0.02
0
-0.01
0.13
-0.42
-0.08
-0.03
0.01
0.05

> <PUBCHEM_SHAPE_SELFOVERLAP>
274.74

> <PUBCHEM_SHAPE_VOLUME>
87.6

> <PUBCHEM_COORDINATE_TYPE>
2
5
10

$$$$

