444021
  -OEChem-07051213032D

 89 93  0     1  0  0  0  0  0999 V2000
    8.3625   14.6744    0.0000 S   0  0  0  0  0  0  0  0  0  0  0  0
    5.8809    7.1648    0.0000 S   0  0  0  0  0  0  0  0  0  0  0  0
    1.4030    9.4678    0.0000 S   0  0  0  0  0  0  0  0  0  0  0  0
    8.0535   15.6255    0.0000 O   0  0  0  0  0  0  0  0  0  0  0  0
    9.1716   15.2622    0.0000 O   0  0  0  0  0  0  0  0  0  0  0  0
    5.6976   12.6527    0.0000 O   0  0  0  0  0  0  0  0  0  0  0  0
    8.0024   11.3622    0.0000 O   0  0  0  0  0  0  0  0  0  0  0  0
    9.6497   11.8974    0.0000 O   0  0  0  0  0  0  0  0  0  0  0  0
    7.6423    9.6680    0.0000 O   0  0  0  0  0  0  0  0  0  0  0  0
    8.9643    5.8677    0.0000 O   0  0  0  0  0  0  0  0  0  0  0  0
    8.9295    8.5090    0.0000 O   0  0  0  0  0  0  0  0  0  0  0  0
    8.5359    4.2033    0.0000 O   0  0  0  0  0  0  0  0  0  0  0  0
    1.4030   10.4678    0.0000 O   0  0  0  0  0  0  0  0  0  0  0  0
    2.4030    9.4678    0.0000 O   0  0  0  0  0  0  0  0  0  0  0  0
    0.4030    9.4678    0.0000 O   0  0  0  0  0  0  0  0  0  0  0  0
    7.4115   13.3654    0.0000 N   0  0  0  0  0  0  0  0  0  0  0  0
    7.4901    6.9957    0.0000 N   0  0  0  0  0  0  0  0  0  0  0  0
    6.8638    4.6550    0.0000 N   0  0  0  0  0  0  0  0  0  0  0  0
    6.3422    2.7242    0.0000 N   0  0  0  0  0  0  0  0  0  0  0  0
    8.9503   13.8654    0.0000 C   0  0  0  0  0  0  0  0  0  0  0  0
    7.4115   14.3654    0.0000 C   0  0  1  0  0  0  0  0  0  0  0  0
    8.3625   13.0564    0.0000 C   0  0  2  0  0  0  0  0  0  0  0  0
    6.4032   14.3696    0.0000 C   0  0  0  0  0  0  0  0  0  0  0  0
    6.4032   13.3613    0.0000 C   0  0  0  0  0  0  0  0  0  0  0  0
    9.7593   13.2776    0.0000 C   0  0  0  0  0  0  0  0  0  0  0  0
    9.7593   14.4532    0.0000 C   0  0  0  0  0  0  0  0  0  0  0  0
    8.6716   12.1054    0.0000 C   0  0  0  0  0  0  0  0  0  0  0  0
    6.6241    6.4957    0.0000 C   0  0  1  0  0  0  0  0  0  0  0  0
    7.2822    7.9738    0.0000 C   0  0  2  0  0  0  0  0  0  0  0  0
    6.2877    8.0783    0.0000 C   0  0  0  0  0  0  0  0  0  0  0  0
    7.1246    5.6204    0.0000 C   0  0  1  0  0  0  0  0  0  0  0  0
    7.9978    6.1245    0.0000 C   0  0  0  0  0  0  0  0  0  0  0  0
    5.3741    8.4851    0.0000 C   0  0  0  0  0  0  0  0  0  0  0  0
    6.3922    9.0729    0.0000 C   0  0  0  0  0  0  0  0  0  0  0  0
    7.9513    8.7170    0.0000 C   0  0  0  0  0  0  0  0  0  0  0  0
    8.3114   10.4112    0.0000 C   0  0  0  0  0  0  0  0  0  0  0  0
    7.5695    3.9464    0.0000 C   0  0  0  0  0  0  0  0  0  0  0  0
    7.3087    2.9811    0.0000 C   0  0  1  0  0  0  0  0  0  0  0  0
    8.0143    2.2725    0.0000 C   0  0  0  0  0  0  0  0  0  0  0  0
    7.7535    1.3071    0.0000 C   0  0  0  0  0  0  0  0  0  0  0  0
    8.9808    2.5293    0.0000 C   0  0  0  0  0  0  0  0  0  0  0  0
    8.4592    0.5985    0.0000 C   0  0  0  0  0  0  0  0  0  0  0  0
    9.6864    1.8208    0.0000 C   0  0  0  0  0  0  0  0  0  0  0  0
    9.4256    0.8554    0.0000 C   0  0  0  0  0  0  0  0  0  0  0  0
    1.4030    8.4678    0.0000 C   0  0  0  0  0  0  0  0  0  0  0  0
    1.4030    6.4678    0.0000 C   0  0  0  0  0  0  0  0  0  0  0  0
    0.5369    7.9678    0.0000 C   0  0  0  0  0  0  0  0  0  0  0  0
    2.2690    7.9678    0.0000 C   0  0  0  0  0  0  0  0  0  0  0  0
    0.5369    6.9678    0.0000 C   0  0  0  0  0  0  0  0  0  0  0  0
    2.2690    6.9678    0.0000 C   0  0  0  0  0  0  0  0  0  0  0  0
    1.4030    5.4678    0.0000 C   0  0  0  0  0  0  0  0  0  0  0  0
    7.2802   15.2052    0.0000 H   0  0  0  0  0  0  0  0  0  0  0  0
    7.9241   12.6180    0.0000 H   0  0  0  0  0  0  0  0  0  0  0  0
    6.4049   14.9896    0.0000 H   0  0  0  0  0  0  0  0  0  0  0  0
    5.7832   14.3704    0.0000 H   0  0  0  0  0  0  0  0  0  0  0  0
    9.3949   12.7761    0.0000 H   0  0  0  0  0  0  0  0  0  0  0  0
   10.2609   12.9132    0.0000 H   0  0  0  0  0  0  0  0  0  0  0  0
   10.1238   13.7792    0.0000 H   0  0  0  0  0  0  0  0  0  0  0  0
   10.1238   13.9516    0.0000 H   0  0  0  0  0  0  0  0  0  0  0  0
   10.2609   14.8176    0.0000 H   0  0  0  0  0  0  0  0  0  0  0  0
    9.3949   14.9548    0.0000 H   0  0  0  0  0  0  0  0  0  0  0  0
    5.9624    5.9621    0.0000 H   0  0  0  0  0  0  0  0  0  0  0  0
    7.8811    7.8133    0.0000 H   0  0  0  0  0  0  0  0  0  0  0  0
    7.6161    5.2425    0.0000 H   0  0  0  0  0  0  0  0  0  0  0  0
    5.6263    9.0515    0.0000 H   0  0  0  0  0  0  0  0  0  0  0  0
    4.8077    8.7372    0.0000 H   0  0  0  0  0  0  0  0  0  0  0  0
    5.1220    7.9187    0.0000 H   0  0  0  0  0  0  0  0  0  0  0  0
    7.0088    9.0081    0.0000 H   0  0  0  0  0  0  0  0  0  0  0  0
    6.4570    9.6895    0.0000 H   0  0  0  0  0  0  0  0  0  0  0  0
    5.7756    9.1377    0.0000 H   0  0  0  0  0  0  0  0  0  0  0  0
    6.2646    4.4958    0.0000 H   0  0  0  0  0  0  0  0  0  0  0  0
    8.6931    9.9226    0.0000 H   0  0  0  0  0  0  0  0  0  0  0  0
    8.8589   10.7022    0.0000 H   0  0  0  0  0  0  0  0  0  0  0  0
    6.8712    3.4204    0.0000 H   0  0  0  0  0  0  0  0  0  0  0  0
    6.1805    2.1257    0.0000 H   0  0  0  0  0  0  0  0  0  0  0  0
    5.9047    3.1635    0.0000 H   0  0  0  0  0  0  0  0  0  0  0  0
    7.1543    1.1479    0.0000 H   0  0  0  0  0  0  0  0  0  0  0  0
    9.1425    3.1279    0.0000 H   0  0  0  0  0  0  0  0  0  0  0  0
    8.2975    0.0000    0.0000 H   0  0  0  0  0  0  0  0  0  0  0  0
   10.2856    1.9800    0.0000 H   0  0  0  0  0  0  0  0  0  0  0  0
    9.8631    0.4161    0.0000 H   0  0  0  0  0  0  0  0  0  0  0  0
    0.0000    8.2778    0.0000 H   0  0  0  0  0  0  0  0  0  0  0  0
    2.8059    8.2778    0.0000 H   0  0  0  0  0  0  0  0  0  0  0  0
    0.0000    6.6578    0.0000 H   0  0  0  0  0  0  0  0  0  0  0  0
    2.8059    6.6578    0.0000 H   0  0  0  0  0  0  0  0  0  0  0  0
    0.7830    5.4678    0.0000 H   0  0  0  0  0  0  0  0  0  0  0  0
    1.4030    4.8477    0.0000 H   0  0  0  0  0  0  0  0  0  0  0  0
    2.0230    5.4678    0.0000 H   0  0  0  0  0  0  0  0  0  0  0  0
    1.9399   10.7778    0.0000 H   0  0  0  0  0  0  0  0  0  0  0  0
  1  4  2  0  0  0  0
  1  5  2  0  0  0  0
  1 20  1  0  0  0  0
  1 21  1  0  0  0  0
  2 28  1  0  0  0  0
  2 30  1  0  0  0  0
  3 13  1  0  0  0  0
  3 14  2  0  0  0  0
  3 15  2  0  0  0  0
  3 45  1  0  0  0  0
  6 24  2  0  0  0  0
  7 27  1  0  0  0  0
  7 36  1  0  0  0  0
  8 27  2  0  0  0  0
  9 35  1  0  0  0  0
  9 36  1  0  0  0  0
 10 32  2  0  0  0  0
 11 35  2  0  0  0  0
 12 37  2  0  0  0  0
 13 89  1  0  0  0  0
 16 21  1  0  0  0  0
 16 22  1  0  0  0  0
 16 24  1  0  0  0  0
 17 28  1  0  0  0  0
 17 29  1  0  0  0  0
 17 32  1  0  0  0  0
 31 18  1  1  0  0  0
 18 37  1  0  0  0  0
 18 71  1  0  0  0  0
 38 19  1  1  0  0  0
 19 75  1  0  0  0  0
 19 76  1  0  0  0  0
 20 22  1  0  0  0  0
 20 25  1  0  0  0  0
 20 26  1  0  0  0  0
 21 23  1  0  0  0  0
 21 52  1  6  0  0  0
 22 27  1  6  0  0  0
 22 53  1  0  0  0  0
 23 24  1  0  0  0  0
 23 54  1  0  0  0  0
 23 55  1  0  0  0  0
 25 56  1  0  0  0  0
 25 57  1  0  0  0  0
 25 58  1  0  0  0  0
 26 59  1  0  0  0  0
 26 60  1  0  0  0  0
 26 61  1  0  0  0  0
 28 31  1  0  0  0  0
 28 62  1  6  0  0  0
 29 30  1  0  0  0  0
 29 35  1  6  0  0  0
 29 63  1  0  0  0  0
 30 33  1  0  0  0  0
 30 34  1  0  0  0  0
 31 32  1  0  0  0  0
 31 64  1  0  0  0  0
 33 65  1  0  0  0  0
 33 66  1  0  0  0  0
 33 67  1  0  0  0  0
 34 68  1  0  0  0  0
 34 69  1  0  0  0  0
 34 70  1  0  0  0  0
 36 72  1  0  0  0  0
 36 73  1  0  0  0  0
 37 38  1  0  0  0  0
 38 39  1  0  0  0  0
 38 74  1  0  0  0  0
 39 40  2  0  0  0  0
 39 41  1  0  0  0  0
 40 42  1  0  0  0  0
 40 77  1  0  0  0  0
 41 43  2  0  0  0  0
 41 78  1  0  0  0  0
 42 44  2  0  0  0  0
 42 79  1  0  0  0  0
 43 44  1  0  0  0  0
 43 80  1  0  0  0  0
 44 81  1  0  0  0  0
 45 47  2  0  0  0  0
 45 48  1  0  0  0  0
 46 49  2  0  0  0  0
 46 50  1  0  0  0  0
 46 51  1  0  0  0  0
 47 49  1  0  0  0  0
 47 82  1  0  0  0  0
 48 50  2  0  0  0  0
 48 83  1  0  0  0  0
 49 84  1  0  0  0  0
 50 85  1  0  0  0  0
 51 86  1  0  0  0  0
 51 87  1  0  0  0  0
 51 88  1  0  0  0  0
M  END
> <PUBCHEM_COMPOUND_CID>
444021

> <PUBCHEM_COMPOUND_CANONICALIZED>
1

> <PUBCHEM_CACTVS_COMPLEXITY>
1450

> <PUBCHEM_CACTVS_HBOND_ACCEPTOR>
14

> <PUBCHEM_CACTVS_HBOND_DONOR>
3

> <PUBCHEM_CACTVS_ROTATABLE_BOND>
10

> <PUBCHEM_CACTVS_SUBSKEYS>
AAADcfB/vABgAAAAAAAAAAAAAABYsWLAAAAwYAAABYsAAAABQAAAHgQQCAAADCjF2AeyCYPABIqIAiHSGHDKAEBgABAIiJmIBIgaYDqglTG1IABklgC8iAcYiICOEAAAAAAAAAAgAAAAAAAAAAAAAAAAAA==

> <PUBCHEM_IUPAC_OPENEYE_NAME>
[(2S,5R)-3,3-dimethyl-4,4,7-trioxo-4$l^{6}-thia-1-azabicyclo[3.2.0]heptane-2-carbonyl]oxymethyl (2S,5R,6R)-6-[[(2R)-2-amino-2-phenyl-acetyl]amino]-3,3-dimethyl-7-oxo-4-thia-1-azabicyclo[3.2.0]heptane-2-carboxylate; 4-methylbenzenesulfonic acid

> <PUBCHEM_IUPAC_CAS_NAME>
(2S,5R,6R)-6-[[(2R)-2-amino-1-oxo-2-phenylethyl]amino]-3,3-dimethyl-7-oxo-4-thia-1-azabicyclo[3.2.0]heptane-2-carboxylic acid [[(2S,5R)-3,3-dimethyl-4,4,7-trioxo-4$l^{6}-thia-1-azabicyclo[3.2.0]heptan-2-yl]-oxomethoxy]methyl ester; 4-methylbenzenesulfonic acid

> <PUBCHEM_IUPAC_NAME>
[(2S,5R)-3,3-dimethyl-4,4,7-trioxo-4$l^{6}-thia-1-azabicyclo[3.2.0]heptane-2-carbonyl]oxymethyl (2S,5R,6R)-6-[[(2R)-2-amino-2-phenylacetyl]amino]-3,3-dimethyl-7-oxo-4-thia-1-azabicyclo[3.2.0]heptane-2-carboxylate; 4-methylbenzenesulfonic acid

> <PUBCHEM_IUPAC_SYSTEMATIC_NAME>
[(2S,5R)-3,3-dimethyl-4,4,7-tris(oxidanylidene)-4$l^{6}-thia-1-azabicyclo[3.2.0]heptan-2-yl]carbonyloxymethyl (2S,5R,6R)-6-[[(2R)-2-azanyl-2-phenyl-ethanoyl]amino]-3,3-dimethyl-7-oxidanylidene-4-thia-1-azabicyclo[3.2.0]heptane-2-carboxylate; 4-methylbenzenesulfonic acid

> <PUBCHEM_IUPAC_TRADITIONAL_NAME>
(2S,5R,6R)-6-[[(2R)-2-amino-2-phenyl-acetyl]amino]-7-keto-3,3-dimethyl-4-thia-1-azabicyclo[3.2.0]heptane-2-carboxylic acid [(2S,5R)-4,4,7-triketo-3,3-dimethyl-4$l^{6}-thia-1-azabicyclo[3.2.0]heptane-2-carbonyl]oxymethyl ester; tosylic acid

> <PUBCHEM_IUPAC_INCHI>
InChI=1S/C25H30N4O9S2.C7H8O3S/c1-24(2)17(29-20(32)16(21(29)39-24)27-19(31)15(26)12-8-6-5-7-9-12)22(33)37-11-38-23(34)18-25(3,4)40(35,36)14-10-13(30)28(14)18;1-6-2-4-7(5-3-6)11(8,9)10/h5-9,14-18,21H,10-11,26H2,1-4H3,(H,27,31);2-5H,1H3,(H,8,9,10)/t14-,15-,16-,17+,18+,21-;/m1./s1

> <PUBCHEM_IUPAC_INCHIKEY>
FFCSPKNZHGIDQM-CGAOXQFVSA-N

> <PUBCHEM_EXACT_MASS>
766.164836

> <PUBCHEM_MOLECULAR_FORMULA>
C32H38N4O12S3

> <PUBCHEM_MOLECULAR_WEIGHT>
766.85872

> <PUBCHEM_OPENEYE_CAN_SMILES>
CC1=CC=C(C=C1)S(=O)(=O)O.CC1(C(N2C(S1)C(C2=O)NC(=O)C(C3=CC=CC=C3)N)C(=O)OCOC(=O)C4C(S(=O)(=O)C5N4C(=O)C5)(C)C)C

> <PUBCHEM_OPENEYE_ISO_SMILES>
CC1=CC=C(C=C1)S(=O)(=O)O.CC1([C@@H](N2[C@H](S1)[C@@H](C2=O)NC(=O)[C@@H](C3=CC=CC=C3)N)C(=O)OCOC(=O)[C@H]4C(S(=O)(=O)[C@H]5N4C(=O)C5)(C)C)C

> <PUBCHEM_CACTVS_TPSA>
279

> <PUBCHEM_MONOISOTOPIC_WEIGHT>
766.164836

> <PUBCHEM_TOTAL_CHARGE>
0

> <PUBCHEM_HEAVY_ATOM_COUNT>
51

> <PUBCHEM_ATOM_DEF_STEREO_COUNT>
6

> <PUBCHEM_ATOM_UDEF_STEREO_COUNT>
0

> <PUBCHEM_BOND_DEF_STEREO_COUNT>
0

> <PUBCHEM_BOND_UDEF_STEREO_COUNT>
0

> <PUBCHEM_ISOTOPIC_ATOM_COUNT>
0

> <PUBCHEM_COMPONENT_COUNT>
2

> <PUBCHEM_CACTVS_TAUTO_COUNT>
8

> <PUBCHEM_COORDINATE_TYPE>
1
5
255

> <PUBCHEM_BONDANNOTATIONS>
31  18  5
38  19  5
21  52  6
22  27  6
28  62  6
29  35  6
39  40  8
39  41  8
40  42  8
41  43  8
42  44  8
43  44  8
45  47  8
45  48  8
46  49  8
46  50  8
47  49  8
48  50  8

$$$$

