443049
  -OEChem-07051213002D

 42 42  0     1  0  0  0  0  0999 V2000
    5.0981    0.1340    0.0000 S   0  0  0  0  0  0  0  0  0  0  0  0
    4.5981    1.0000    0.0000 P   0  0  3  0  0  0  0  0  0  0  0  0
    3.7320    0.5000    0.0000 O   0  0  0  0  0  0  0  0  0  0  0  0
    4.0981    1.8660    0.0000 O   0  0  0  0  0  0  0  0  0  0  0  0
    4.5981   -4.0000    0.0000 O   0  5  0  0  0  0  0  0  0  0  0  0
    2.8660   -4.0000    0.0000 O   0  0  0  0  0  0  0  0  0  0  0  0
    5.4641    1.5000    0.0000 N   0  0  0  0  0  0  0  0  0  0  0  0
    3.7320   -3.5000    0.0000 N   0  3  0  0  0  0  0  0  0  0  0  0
    5.4641    2.5000    0.0000 C   0  0  3  0  0  0  0  0  0  0  0  0
    6.3301    3.0000    0.0000 C   0  0  0  0  0  0  0  0  0  0  0  0
    4.5981    3.0000    0.0000 C   0  0  0  0  0  0  0  0  0  0  0  0
    6.3301    4.0000    0.0000 C   0  0  0  0  0  0  0  0  0  0  0  0
    3.7320   -0.5000    0.0000 C   0  0  0  0  0  0  0  0  0  0  0  0
    3.0981    1.8660    0.0000 C   0  0  0  0  0  0  0  0  0  0  0  0
    2.8660   -1.0000    0.0000 C   0  0  0  0  0  0  0  0  0  0  0  0
    2.8660   -2.0000    0.0000 C   0  0  0  0  0  0  0  0  0  0  0  0
    4.5981   -1.0000    0.0000 C   0  0  0  0  0  0  0  0  0  0  0  0
    3.7320   -2.5000    0.0000 C   0  0  0  0  0  0  0  0  0  0  0  0
    4.5981   -2.0000    0.0000 C   0  0  0  0  0  0  0  0  0  0  0  0
    2.5981    2.7320    0.0000 C   0  0  0  0  0  0  0  0  0  0  0  0
    2.0000   -2.5000    0.0000 C   0  0  0  0  0  0  0  0  0  0  0  0
    6.2002    2.0750    0.0000 H   0  0  0  0  0  0  0  0  0  0  0  0
    6.5422    2.4174    0.0000 H   0  0  0  0  0  0  0  0  0  0  0  0
    6.9407    3.1077    0.0000 H   0  0  0  0  0  0  0  0  0  0  0  0
    6.0010    1.1900    0.0000 H   0  0  0  0  0  0  0  0  0  0  0  0
    4.9081    3.5369    0.0000 H   0  0  0  0  0  0  0  0  0  0  0  0
    4.0611    3.3100    0.0000 H   0  0  0  0  0  0  0  0  0  0  0  0
    4.2881    2.4631    0.0000 H   0  0  0  0  0  0  0  0  0  0  0  0
    6.9501    4.0000    0.0000 H   0  0  0  0  0  0  0  0  0  0  0  0
    6.3301    4.6200    0.0000 H   0  0  0  0  0  0  0  0  0  0  0  0
    5.7101    4.0000    0.0000 H   0  0  0  0  0  0  0  0  0  0  0  0
    2.5155    1.6540    0.0000 H   0  0  0  0  0  0  0  0  0  0  0  0
    3.2057    1.2554    0.0000 H   0  0  0  0  0  0  0  0  0  0  0  0
    2.3291   -0.6900    0.0000 H   0  0  0  0  0  0  0  0  0  0  0  0
    5.1350   -0.6900    0.0000 H   0  0  0  0  0  0  0  0  0  0  0  0
    5.1350   -2.3100    0.0000 H   0  0  0  0  0  0  0  0  0  0  0  0
    3.1350    3.0420    0.0000 H   0  0  0  0  0  0  0  0  0  0  0  0
    2.2881    3.2690    0.0000 H   0  0  0  0  0  0  0  0  0  0  0  0
    2.0611    2.4220    0.0000 H   0  0  0  0  0  0  0  0  0  0  0  0
    1.6900   -1.9631    0.0000 H   0  0  0  0  0  0  0  0  0  0  0  0
    1.4631   -2.8100    0.0000 H   0  0  0  0  0  0  0  0  0  0  0  0
    2.3100   -3.0369    0.0000 H   0  0  0  0  0  0  0  0  0  0  0  0
  1  2  2  0  0  0  0
  2  3  1  0  0  0  0
  2  4  1  0  0  0  0
  2  7  1  0  0  0  0
  3 13  1  0  0  0  0
  4 14  1  0  0  0  0
  5  8  1  0  0  0  0
  6  8  2  0  0  0  0
  7  9  1  0  0  0  0
  7 25  1  0  0  0  0
  8 18  1  0  0  0  0
  9 10  1  0  0  0  0
  9 11  1  0  0  0  0
  9 22  1  0  0  0  0
 10 12  1  0  0  0  0
 10 23  1  0  0  0  0
 10 24  1  0  0  0  0
 11 26  1  0  0  0  0
 11 27  1  0  0  0  0
 11 28  1  0  0  0  0
 12 29  1  0  0  0  0
 12 30  1  0  0  0  0
 12 31  1  0  0  0  0
 13 15  2  0  0  0  0
 13 17  1  0  0  0  0
 14 20  1  0  0  0  0
 14 32  1  0  0  0  0
 14 33  1  0  0  0  0
 15 16  1  0  0  0  0
 15 34  1  0  0  0  0
 16 18  2  0  0  0  0
 16 21  1  0  0  0  0
 17 19  2  0  0  0  0
 17 35  1  0  0  0  0
 18 19  1  0  0  0  0
 19 36  1  0  0  0  0
 20 37  1  0  0  0  0
 20 38  1  0  0  0  0
 20 39  1  0  0  0  0
 21 40  1  0  0  0  0
 21 41  1  0  0  0  0
 21 42  1  0  0  0  0
M  CHG  2   5  -1   8   1
M  END
> <PUBCHEM_COMPOUND_CID>
443049

> <PUBCHEM_COMPOUND_CANONICALIZED>
1

> <PUBCHEM_CACTVS_COMPLEXITY>
391

> <PUBCHEM_CACTVS_HBOND_ACCEPTOR>
6

> <PUBCHEM_CACTVS_HBOND_DONOR>
1

> <PUBCHEM_CACTVS_ROTATABLE_BOND>
7

> <PUBCHEM_CACTVS_SUBSKEYS>
AAADceBzOAJAAAAAAAAAAAAAAAAAAAAAAAAwAAAAAAAAAAABAAAAHgAUgCAADCzhmAYyxoBQQRCBAiRCQwCCAAAgIgAoiIAGbIoIJiKAkZOAMABk0BEIyAewwBAOAEABAAACAAAAgAIAAAQAAAAAAAAAAA==

> <PUBCHEM_IUPAC_OPENEYE_NAME>
N-[ethoxy-(3-methyl-4-nitro-phenoxy)phosphinothioyl]butan-2-amine

> <PUBCHEM_IUPAC_CAS_NAME>
N-[ethoxy-(3-methyl-4-nitrophenoxy)phosphinothioyl]-2-butanamine

> <PUBCHEM_IUPAC_NAME>
N-[ethoxy-(3-methyl-4-nitrophenoxy)phosphinothioyl]butan-2-amine

> <PUBCHEM_IUPAC_SYSTEMATIC_NAME>
N-[ethoxy-(3-methyl-4-nitro-phenoxy)phosphinothioyl]butan-2-amine

> <PUBCHEM_IUPAC_TRADITIONAL_NAME>
[ethoxy-(3-methyl-4-nitro-phenoxy)thiophosphoryl]-sec-butyl-amine

> <PUBCHEM_IUPAC_INCHI>
InChI=1S/C13H21N2O4PS/c1-5-11(4)14-20(21,18-6-2)19-12-7-8-13(15(16)17)10(3)9-12/h7-9,11H,5-6H2,1-4H3,(H,14,21)

> <PUBCHEM_IUPAC_INCHIKEY>
QTPNBILFQRXLNR-UHFFFAOYSA-N

> <PUBCHEM_XLOGP3_AA>
4.7

> <PUBCHEM_EXACT_MASS>
332.095965

> <PUBCHEM_MOLECULAR_FORMULA>
C13H21N2O4PS

> <PUBCHEM_MOLECULAR_WEIGHT>
332.355602

> <PUBCHEM_OPENEYE_CAN_SMILES>
CCC(C)NP(=S)(OCC)OC1=CC(=C(C=C1)[N+](=O)[O-])C

> <PUBCHEM_OPENEYE_ISO_SMILES>
CCC(C)NP(=S)(OCC)OC1=CC(=C(C=C1)[N+](=O)[O-])C

> <PUBCHEM_CACTVS_TPSA>
108

> <PUBCHEM_MONOISOTOPIC_WEIGHT>
332.095965

> <PUBCHEM_TOTAL_CHARGE>
0

> <PUBCHEM_HEAVY_ATOM_COUNT>
21

> <PUBCHEM_ATOM_DEF_STEREO_COUNT>
0

> <PUBCHEM_ATOM_UDEF_STEREO_COUNT>
2

> <PUBCHEM_BOND_DEF_STEREO_COUNT>
0

> <PUBCHEM_BOND_UDEF_STEREO_COUNT>
0

> <PUBCHEM_ISOTOPIC_ATOM_COUNT>
0

> <PUBCHEM_COMPONENT_COUNT>
1

> <PUBCHEM_CACTVS_TAUTO_COUNT>
2

> <PUBCHEM_COORDINATE_TYPE>
1
5
255

> <PUBCHEM_BONDANNOTATIONS>
13  15  8
13  17  8
15  16  8
16  18  8
17  19  8
18  19  8
2  7  3
9  22  3

$$$$

