442277
  -OEChem-07051212573D

 35 37  0     1  0  0  0  0  0999 V2000
    0.7357   -0.4294    0.2651 O   0  0  0  0  0  0  0  0  0  0  0  0
    5.0624   -2.3502    0.1662 O   0  0  0  0  0  0  0  0  0  0  0  0
   -5.5229   -0.6122    0.0709 O   0  0  0  0  0  0  0  0  0  0  0  0
   -0.0422    0.7631    0.4615 C   0  0  1  0  0  0  0  0  0  0  0  0
    0.3285    1.8505   -0.5506 C   0  0  0  0  0  0  0  0  0  0  0  0
    1.7863    2.2434   -0.3467 C   0  0  0  0  0  0  0  0  0  0  0  0
    2.6451    1.0193   -0.2083 C   0  0  0  0  0  0  0  0  0  0  0  0
   -1.5076    0.3958    0.3569 C   0  0  0  0  0  0  0  0  0  0  0  0
    2.0815   -0.2268    0.0961 C   0  0  0  0  0  0  0  0  0  0  0  0
    4.0346    1.1212   -0.3570 C   0  0  0  0  0  0  0  0  0  0  0  0
    2.8927   -1.3586    0.2098 C   0  0  0  0  0  0  0  0  0  0  0  0
   -2.3437    0.5452    1.4626 C   0  0  0  0  0  0  0  0  0  0  0  0
   -2.0189   -0.0923   -0.8451 C   0  0  0  0  0  0  0  0  0  0  0  0
    4.8441   -0.0081   -0.2313 C   0  0  0  0  0  0  0  0  0  0  0  0
    4.2729   -1.2478    0.0479 C   0  0  0  0  0  0  0  0  0  0  0  0
   -3.6933    0.2059    1.3662 C   0  0  0  0  0  0  0  0  0  0  0  0
   -3.3684   -0.4314   -0.9413 C   0  0  0  0  0  0  0  0  0  0  0  0
   -4.2057   -0.2824    0.1642 C   0  0  0  0  0  0  0  0  0  0  0  0
   -5.9812   -1.1054   -1.1871 C   0  0  0  0  0  0  0  0  0  0  0  0
    0.1625    1.1250    1.4790 H   0  0  0  0  0  0  0  0  0  0  0  0
   -0.3144    2.7324   -0.4466 H   0  0  0  0  0  0  0  0  0  0  0  0
    0.2136    1.4797   -1.5775 H   0  0  0  0  0  0  0  0  0  0  0  0
    1.8858    2.8462    0.5641 H   0  0  0  0  0  0  0  0  0  0  0  0
    2.1195    2.8532   -1.1943 H   0  0  0  0  0  0  0  0  0  0  0  0
    4.4932    2.0819   -0.5777 H   0  0  0  0  0  0  0  0  0  0  0  0
    2.4433   -2.3239    0.4310 H   0  0  0  0  0  0  0  0  0  0  0  0
   -1.9596    0.9242    2.4057 H   0  0  0  0  0  0  0  0  0  0  0  0
   -1.3800   -0.2263   -1.7136 H   0  0  0  0  0  0  0  0  0  0  0  0
    5.9197    0.0856   -0.3544 H   0  0  0  0  0  0  0  0  0  0  0  0
   -4.3408    0.3244    2.2307 H   0  0  0  0  0  0  0  0  0  0  0  0
   -3.7000   -0.8068   -1.9034 H   0  0  0  0  0  0  0  0  0  0  0  0
    4.5016   -3.1206    0.3611 H   0  0  0  0  0  0  0  0  0  0  0  0
   -5.4931   -2.0496   -1.4510 H   0  0  0  0  0  0  0  0  0  0  0  0
   -5.8808   -0.3517   -1.9756 H   0  0  0  0  0  0  0  0  0  0  0  0
   -7.0503   -1.3168   -1.0813 H   0  0  0  0  0  0  0  0  0  0  0  0
  1  4  1  0  0  0  0
  1  9  1  0  0  0  0
  2 15  1  0  0  0  0
  2 32  1  0  0  0  0
  3 18  1  0  0  0  0
  3 19  1  0  0  0  0
  4  5  1  0  0  0  0
  4  8  1  0  0  0  0
  4 20  1  0  0  0  0
  5  6  1  0  0  0  0
  5 21  1  0  0  0  0
  5 22  1  0  0  0  0
  6  7  1  0  0  0  0
  6 23  1  0  0  0  0
  6 24  1  0  0  0  0
  7  9  2  0  0  0  0
  7 10  1  0  0  0  0
  8 12  2  0  0  0  0
  8 13  1  0  0  0  0
  9 11  1  0  0  0  0
 10 14  2  0  0  0  0
 10 25  1  0  0  0  0
 11 15  2  0  0  0  0
 11 26  1  0  0  0  0
 12 16  1  0  0  0  0
 12 27  1  0  0  0  0
 13 17  2  0  0  0  0
 13 28  1  0  0  0  0
 14 15  1  0  0  0  0
 14 29  1  0  0  0  0
 16 18  2  0  0  0  0
 16 30  1  0  0  0  0
 17 18  1  0  0  0  0
 17 31  1  0  0  0  0
 19 33  1  0  0  0  0
 19 34  1  0  0  0  0
 19 35  1  0  0  0  0
M  END
> <PUBCHEM_COMPOUND_CID>
442277

> <PUBCHEM_CONFORMER_RMSD>
0.6

> <PUBCHEM_CONFORMER_DIVERSEORDER>
1
5
3
2
4
6

> <PUBCHEM_MMFF94_PARTIAL_CHARGES>
26
1 -0.36
10 -0.15
11 -0.15
12 -0.15
13 -0.15
14 -0.15
15 0.08
16 -0.15
17 -0.15
18 0.08
19 0.28
2 -0.53
25 0.15
26 0.15
27 0.15
28 0.15
29 0.15
3 -0.36
30 0.15
31 0.15
32 0.45
4 0.42
6 0.14
7 -0.14
8 -0.14
9 0.08

> <PUBCHEM_EFFECTIVE_ROTOR_COUNT>
2.8

> <PUBCHEM_PHARMACOPHORE_FEATURES>
6
1 1 acceptor
1 2 donor
1 3 acceptor
6 1 4 5 6 7 9 rings
6 7 9 10 11 14 15 rings
6 8 12 13 16 17 18 rings

> <PUBCHEM_HEAVY_ATOM_COUNT>
19

> <PUBCHEM_ATOM_DEF_STEREO_COUNT>
1

> <PUBCHEM_ATOM_UDEF_STEREO_COUNT>
0

> <PUBCHEM_BOND_DEF_STEREO_COUNT>
0

> <PUBCHEM_BOND_UDEF_STEREO_COUNT>
0

> <PUBCHEM_ISOTOPIC_ATOM_COUNT>
0

> <PUBCHEM_COMPONENT_COUNT>
1

> <PUBCHEM_CACTVS_TAUTO_COUNT>
3

> <PUBCHEM_CONFORMER_ID>
0006BFA500000001

> <PUBCHEM_MMFF94_ENERGY>
62.4477

> <PUBCHEM_FEATURE_SELFOVERLAP>
30.475

> <PUBCHEM_SHAPE_FINGERPRINT>
10366900 7 17203611497251395985
10912923 1 17967523571521265769
11471102 20 18272366447656625184
12107183 9 17538549311855434315
12236239 1 18113334198222053817
12555020 224 18344148085972727955
12596602 18 17385443224078764874
12633257 1 14996574957927538935
12670546 56 18040714749252569769
12839892 36 17095241428068623119
12892183 10 15936688289170391626
13167823 11 18187080654656922963
13533116 47 18260831466515730121
13544653 18 18271801354493417716
13760787 5 18342728620196677240
13862211 1 18341614871459502226
14251740 57 17386277809418598902
14251752 14 18259989301772552349
14386348 63 17346314877953117945
14573314 32 17418098732429725173
14576447 43 18408041788793498582
15183329 4 18271256010291288621
15188451 53 17313112955705297087
15196674 1 18341330089025443220
15242439 84 17275386495399962937
17349148 13 17822007593115817445
17357779 13 17846505837026735940
17834072 33 18260548896623039117
17857418 61 18187649093916288671
17862501 102 17894910728659342545
1813 80 18336252540070258748
18186145 218 16988559117238720864
18222031 100 18410577305551613234
19784866 240 18407759244459738503
200 152 18408604756053526001
20028762 73 18260270784791429334
20279233 1 17346876736800229937
20612939 158 18271802376622021788
20645477 70 18272374178592385846
21065198 48 18113893870804393616
21267235 1 18410004468815760398
221357 26 18131359609228396685
221490 88 18056468465850269530
2215653 11 17846222146411006215
22224240 67 18263653875301932088
22646028 1 18186800287823972817
22646028 28 18260265243923836095
2297311 6 15864057763379829560
23175994 123 17775559836749931933
23402539 116 18337954592216703033
23557571 272 16774087271107542588
23559900 14 16988840553518280805
2838139 119 8573619442422323803
2871803 45 17917712430934752920
29717793 49 18333449850528971685
314194 84 18409443682919357427
34797466 226 15984525754903519766
351380 3 18187085057051428534
42630746 31 18337392639482028588
46194498 28 17489307434455185141
465052 167 18335416850708130167
474 4 17973447607281710872
5104073 3 16950842484768379915
5281201 14 17775284971469245452
559249 180 18260550078108434063
573450 72 17603862325743891585
602551 16 15791739563700726038
76465 3 18410014381373166346
7970288 3 18339364196595510666
960060 61 17988638584389260588
9981440 41 17181667173370046080

> <PUBCHEM_SHAPE_MULTIPOLES>
373.4
12.28
1.76
1.05
6.38
0.07
-0.13
-6.12
1.64
-2.29
0.18
1.28
0.05
-1.06

> <PUBCHEM_SHAPE_SELFOVERLAP>
813.782

> <PUBCHEM_SHAPE_VOLUME>
203.6

> <PUBCHEM_COORDINATE_TYPE>
2
5
10

$$$$

