9913
  -OEChem-06261204103D

 43 44  0     1  0  0  0  0  0999 V2000
    1.5971   -2.7666    1.2649 O   0  0  0  0  0  0  0  0  0  0  0  0
    0.2530    1.4408   -0.3789 O   0  0  0  0  0  0  0  0  0  0  0  0
   -4.3562    1.9341    0.3462 O   0  0  0  0  0  0  0  0  0  0  0  0
    3.3963    3.3065    0.4322 O   0  0  0  0  0  0  0  0  0  0  0  0
   -0.2998   -1.4974   -0.4812 N   0  0  0  0  0  0  0  0  0  0  0  0
    3.8479   -0.2796   -0.2993 N   0  0  1  0  0  0  0  0  0  0  0  0
   -3.5111   -0.2180    0.0836 N   0  0  0  0  0  0  0  0  0  0  0  0
   -2.0524    1.7130   -0.0150 N   0  0  0  0  0  0  0  0  0  0  0  0
   -2.3398   -2.3600   -0.2275 N   0  0  0  0  0  0  0  0  0  0  0  0
    1.9137   -1.5298    0.6217 C   0  0  2  0  0  0  0  0  0  0  0  0
    1.1274   -1.4587   -0.6933 C   0  0  0  0  0  0  0  0  0  0  0  0
    3.4298   -1.4863    0.4016 C   0  0  0  0  0  0  0  0  0  0  0  0
   -1.1407   -0.4392   -0.2885 C   0  0  0  0  0  0  0  0  0  0  0  0
   -2.3817   -0.9946   -0.1358 C   0  0  0  0  0  0  0  0  0  0  0  0
   -1.0681   -2.6321   -0.4363 C   0  0  0  0  0  0  0  0  0  0  0  0
    3.4641    0.9156    0.4548 C   0  0  0  0  0  0  0  0  0  0  0  0
   -0.8689    0.9610   -0.2411 C   0  0  0  0  0  0  0  0  0  0  0  0
   -3.3862    1.1922    0.1531 C   0  0  0  0  0  0  0  0  0  0  0  0
    5.2940   -0.2905   -0.5296 C   0  0  0  0  0  0  0  0  0  0  0  0
    3.8003    2.1750   -0.3277 C   0  0  0  0  0  0  0  0  0  0  0  0
   -4.8160   -0.8481    0.2417 C   0  0  0  0  0  0  0  0  0  0  0  0
   -1.9027    3.1629    0.0546 C   0  0  0  0  0  0  0  0  0  0  0  0
    1.5870   -0.7530    1.3197 H   0  0  0  0  0  0  0  0  0  0  0  0
    1.3709   -2.3246   -1.3226 H   0  0  0  0  0  0  0  0  0  0  0  0
    1.3607   -0.5654   -1.2788 H   0  0  0  0  0  0  0  0  0  0  0  0
    3.9374   -1.5857    1.3712 H   0  0  0  0  0  0  0  0  0  0  0  0
    3.7186   -2.3755   -0.1753 H   0  0  0  0  0  0  0  0  0  0  0  0
   -0.6505   -3.6219   -0.5622 H   0  0  0  0  0  0  0  0  0  0  0  0
    3.9555    0.9477    1.4371 H   0  0  0  0  0  0  0  0  0  0  0  0
    2.3950    0.9600    0.6615 H   0  0  0  0  0  0  0  0  0  0  0  0
    5.5982    0.4698   -1.2552 H   0  0  0  0  0  0  0  0  0  0  0  0
    5.6012   -1.2445   -0.9755 H   0  0  0  0  0  0  0  0  0  0  0  0
    5.8667   -0.1569    0.3954 H   0  0  0  0  0  0  0  0  0  0  0  0
    0.7084   -2.6844    1.6501 H   0  0  0  0  0  0  0  0  0  0  0  0
    3.2871    2.2041   -1.2947 H   0  0  0  0  0  0  0  0  0  0  0  0
    4.8723    2.2974   -0.4981 H   0  0  0  0  0  0  0  0  0  0  0  0
   -5.6040   -0.1090    0.4070 H   0  0  0  0  0  0  0  0  0  0  0  0
   -4.7815   -1.5252    1.1007 H   0  0  0  0  0  0  0  0  0  0  0  0
   -5.0485   -1.4150   -0.6651 H   0  0  0  0  0  0  0  0  0  0  0  0
   -0.8676    3.4890   -0.0692 H   0  0  0  0  0  0  0  0  0  0  0  0
   -2.2759    3.5067    1.0246 H   0  0  0  0  0  0  0  0  0  0  0  0
   -2.5201    3.6148   -0.7283 H   0  0  0  0  0  0  0  0  0  0  0  0
    2.4318    3.2561    0.5453 H   0  0  0  0  0  0  0  0  0  0  0  0
  1 10  1  0  0  0  0
  1 34  1  0  0  0  0
  2 17  2  0  0  0  0
  3 18  2  0  0  0  0
  4 20  1  0  0  0  0
  4 43  1  0  0  0  0
  5 11  1  0  0  0  0
  5 13  1  0  0  0  0
  5 15  1  0  0  0  0
  6 12  1  0  0  0  0
  6 16  1  0  0  0  0
  6 19  1  0  0  0  0
  7 14  1  0  0  0  0
  7 18  1  0  0  0  0
  7 21  1  0  0  0  0
  8 17  1  0  0  0  0
  8 18  1  0  0  0  0
  8 22  1  0  0  0  0
  9 14  1  0  0  0  0
  9 15  2  0  0  0  0
 10 11  1  0  0  0  0
 10 12  1  0  0  0  0
 10 23  1  0  0  0  0
 11 24  1  0  0  0  0
 11 25  1  0  0  0  0
 12 26  1  0  0  0  0
 12 27  1  0  0  0  0
 13 14  2  0  0  0  0
 13 17  1  0  0  0  0
 15 28  1  0  0  0  0
 16 20  1  0  0  0  0
 16 29  1  0  0  0  0
 16 30  1  0  0  0  0
 19 31  1  0  0  0  0
 19 32  1  0  0  0  0
 19 33  1  0  0  0  0
 20 35  1  0  0  0  0
 20 36  1  0  0  0  0
 21 37  1  0  0  0  0
 21 38  1  0  0  0  0
 21 39  1  0  0  0  0
 22 40  1  0  0  0  0
 22 41  1  0  0  0  0
 22 42  1  0  0  0  0
M  END
> <PUBCHEM_COMPOUND_CID>
9913

> <PUBCHEM_CONFORMER_RMSD>
0.8

> <PUBCHEM_CONFORMER_DIVERSEORDER>
7
89
80
26
68
91
58
42
85
67
56
34
57
93
82
29
25
86
28
23
15
36
44
75
10
77
52
59
2
4
76
66
32
8
53
46
43
13
1
17
84
27
31
78
38
71
19
20
55
74
6
9
79
51
81
3
54
21
22
50
14
92
63
73
11
37
61
24
83
90
88
30
5
69
49
35
40
45
33
65
39
41
16
64
87
60
72
62
70
12
48
18
47

> <PUBCHEM_MMFF94_PARTIAL_CHARGES>
25
1 -0.68
10 0.28
11 0.26
12 0.27
13 -0.24
14 0.29
15 0.04
16 0.27
17 0.71
18 0.69
19 0.27
2 -0.57
20 0.28
21 0.3
22 0.3
28 0.15
3 -0.57
34 0.4
4 -0.68
43 0.4
5 0.05
6 -0.81
7 -0.42
8 -0.42
9 -0.57

> <PUBCHEM_EFFECTIVE_ROTOR_COUNT>
6

> <PUBCHEM_PHARMACOPHORE_FEATURES>
10
1 1 acceptor
1 1 donor
1 2 acceptor
1 3 acceptor
1 4 acceptor
1 4 donor
1 6 cation
3 5 9 15 cation
5 5 9 13 14 15 rings
6 7 8 13 14 17 18 rings

> <PUBCHEM_HEAVY_ATOM_COUNT>
22

> <PUBCHEM_ATOM_DEF_STEREO_COUNT>
0

> <PUBCHEM_ATOM_UDEF_STEREO_COUNT>
1

> <PUBCHEM_BOND_DEF_STEREO_COUNT>
0

> <PUBCHEM_BOND_UDEF_STEREO_COUNT>
0

> <PUBCHEM_ISOTOPIC_ATOM_COUNT>
0

> <PUBCHEM_COMPONENT_COUNT>
1

> <PUBCHEM_CACTVS_TAUTO_COUNT>
1

> <PUBCHEM_CONFORMER_ID>
000026B900000007

> <PUBCHEM_MMFF94_ENERGY>
39.0211

> <PUBCHEM_FEATURE_SELFOVERLAP>
50.858

> <PUBCHEM_SHAPE_FINGERPRINT>
10366900 7 17989198270299561602
10411042 1 18049159965254450991
10498660 4 18339086964955700428
10616163 171 18409729534752384246
11578080 2 17058662982245826839
12390115 104 18042952362899779713
12633257 1 18340778130093500176
13140716 1 18340202968978565011
13583140 156 17416407790893962179
14787075 74 18059574616606750019
14790565 3 18335695070759117137
15196674 1 18410011030992902284
15536298 74 18335701586071076068
17834072 32 18336264668867991529
19591789 44 18409730625542202089
20510252 161 18261390121908154235
21267235 1 18411128126164345926
21652331 79 18410575063193523690
23227448 37 18335422339749797638
23559900 14 18115865385542696094
2748010 2 17114368803371250773
335352 9 18409448128595332052
350125 39 18411134766426320172
392239 28 18129653110883420115
474 4 17774997952043007782
5104073 3 18413107285759143979
7097593 13 17841448225537014426
7832392 63 18409172134329148046
9709674 26 18334852835797998262

> <PUBCHEM_SHAPE_MULTIPOLES>
404.37
9.23
3.59
0.77
3.32
1.46
0.06
2.51
0.34
0.24
0.33
0.3
-0.24
-0.41

> <PUBCHEM_SHAPE_SELFOVERLAP>
838.263

> <PUBCHEM_SHAPE_VOLUME>
233

> <PUBCHEM_COORDINATE_TYPE>
2
5
10

$$$$

