10701
  -OEChem-07051213053D

 11 11  0     0  0  0  0  0  0999 V2000
   -2.0753   -1.0690    0.0001 O   0  5  0  0  0  0  0  0  0  0  0  0
   -2.0198    1.1255    0.0003 O   0  0  0  0  0  0  0  0  0  0  0  0
    0.7673    1.0948   -0.0002 N   0  0  0  0  0  0  0  0  0  0  0  0
    0.6965   -1.1250   -0.0003 N   0  0  0  0  0  0  0  0  0  0  0  0
   -1.4170    0.0124   -0.0001 N   0  3  0  0  0  0  0  0  0  0  0  0
   -0.0201   -0.0230   -0.0003 C   0  0  0  0  0  0  0  0  0  0  0  0
    2.0689    0.6788    0.0001 C   0  0  0  0  0  0  0  0  0  0  0  0
    1.9996   -0.6945    0.0005 C   0  0  0  0  0  0  0  0  0  0  0  0
    0.4482    2.0547   -0.0003 H   0  0  0  0  0  0  0  0  0  0  0  0
    2.8953    1.3746    0.0002 H   0  0  0  0  0  0  0  0  0  0  0  0
    2.8219   -1.3952    0.0008 H   0  0  0  0  0  0  0  0  0  0  0  0
  1  5  1  0  0  0  0
  2  5  2  0  0  0  0
  3  6  1  0  0  0  0
  3  7  1  0  0  0  0
  3  9  1  0  0  0  0
  4  6  2  0  0  0  0
  4  8  1  0  0  0  0
  5  6  1  0  0  0  0
  7  8  2  0  0  0  0
  7 10  1  0  0  0  0
  8 11  1  0  0  0  0
M  CHG  2   1  -1   5   1
M  END
> <PUBCHEM_COMPOUND_CID>
10701

> <PUBCHEM_CONFORMER_RMSD>
0.4

> <PUBCHEM_CONFORMER_DIVERSEORDER>
1
2

> <PUBCHEM_MMFF94_PARTIAL_CHARGES>
11
1 -0.52
10 0.15
11 0.15
2 -0.52
3 0.03
4 -0.57
5 0.96
6 0.27
7 -0.3
8 0.08
9 0.27

> <PUBCHEM_EFFECTIVE_ROTOR_COUNT>
1

> <PUBCHEM_PHARMACOPHORE_FEATURES>
5
1 1 acceptor
1 2 acceptor
1 3 donor
4 3 4 5 6 cation
5 3 4 6 7 8 rings

> <PUBCHEM_HEAVY_ATOM_COUNT>
8

> <PUBCHEM_ATOM_DEF_STEREO_COUNT>
0

> <PUBCHEM_ATOM_UDEF_STEREO_COUNT>
0

> <PUBCHEM_BOND_DEF_STEREO_COUNT>
0

> <PUBCHEM_BOND_UDEF_STEREO_COUNT>
0

> <PUBCHEM_ISOTOPIC_ATOM_COUNT>
0

> <PUBCHEM_COMPONENT_COUNT>
1

> <PUBCHEM_CACTVS_TAUTO_COUNT>
1

> <PUBCHEM_CONFORMER_ID>
000029CD00000001

> <PUBCHEM_MMFF94_ENERGY>
9.7896

> <PUBCHEM_FEATURE_SELFOVERLAP>
25.453

> <PUBCHEM_SHAPE_FINGERPRINT>
20096714 4 18410011022476710208
21040471 1 18338798910141820164
23552423 10 18272083933229257174
24536 1 18338814367460112629
29004967 10 18410291428112059394
5460574 1 9223241744816587618

> <PUBCHEM_SHAPE_MULTIPOLES>
137.95
3
1.23
0.55
0.63
0.01
0
0.04
0
0.09
0
-0.06
0
0

> <PUBCHEM_SHAPE_SELFOVERLAP>
286.214

> <PUBCHEM_SHAPE_VOLUME>
78.1

> <PUBCHEM_COORDINATE_TYPE>
2
5
10

$$$$

