5284529
  -OEChem-07051213032D

 44 46  0     1  0  0  0  0  0999 V2000
    4.5981   -1.0254    0.0000 S   0  0  0  0  0  0  0  0  0  0  0  0
    7.1780    1.1873    0.0000 O   0  0  0  0  0  0  0  0  0  0  0  0
    2.8660    0.9746    0.0000 O   0  0  0  0  0  0  0  0  0  0  0  0
    8.4053   -0.0159    0.0000 O   0  0  0  0  0  0  0  0  0  0  0  0
    3.7320    2.4746    0.0000 O   0  0  0  0  0  0  0  0  0  0  0  0
    5.4641    2.4746    0.0000 O   0  0  0  0  0  0  0  0  0  0  0  0
    5.4641    0.4746    0.0000 N   0  0  0  0  0  0  0  0  0  0  0  0
    7.1780   -1.2381    0.0000 N   0  0  0  0  0  0  0  0  0  0  0  0
    8.5893   -2.6553    0.0000 N   0  0  0  0  0  0  0  0  0  0  0  0
    5.4641   -0.5254    0.0000 C   0  0  1  0  0  0  0  0  0  0  0  0
    6.4724   -0.5296    0.0000 C   0  0  1  0  0  0  0  0  0  0  0  0
    6.4724    0.4787    0.0000 C   0  0  0  0  0  0  0  0  0  0  0  0
    4.5981    0.9746    0.0000 C   0  0  0  0  0  0  0  0  0  0  0  0
    3.7320   -0.5254    0.0000 C   0  0  0  0  0  0  0  0  0  0  0  0
    3.7320    0.4746    0.0000 C   0  0  0  0  0  0  0  0  0  0  0  0
    8.1445   -0.9813    0.0000 C   0  0  0  0  0  0  0  0  0  0  0  0
    8.8501   -1.6899    0.0000 C   0  0  1  0  0  0  0  0  0  0  0  0
    9.8166   -1.4330    0.0000 C   0  0  0  0  0  0  0  0  0  0  0  0
    4.5981    1.9746    0.0000 C   0  0  0  0  0  0  0  0  0  0  0  0
   10.5222   -2.1416    0.0000 C   0  0  0  0  0  0  0  0  0  0  0  0
   10.0774   -0.4676    0.0000 C   0  0  0  0  0  0  0  0  0  0  0  0
   11.0439   -0.2108    0.0000 C   0  0  0  0  0  0  0  0  0  0  0  0
   11.4887   -1.8848    0.0000 C   0  0  0  0  0  0  0  0  0  0  0  0
   11.7495   -0.9194    0.0000 C   0  0  0  0  0  0  0  0  0  0  0  0
    2.0000    0.4746    0.0000 C   0  0  0  0  0  0  0  0  0  0  0  0
    5.6824   -1.3469    0.0000 H   0  0  0  0  0  0  0  0  0  0  0  0
    6.2334   -1.1016    0.0000 H   0  0  0  0  0  0  0  0  0  0  0  0
    7.0163   -1.8367    0.0000 H   0  0  0  0  0  0  0  0  0  0  0  0
    3.1215   -0.4178    0.0000 H   0  0  0  0  0  0  0  0  0  0  0  0
    3.5200   -1.1080    0.0000 H   0  0  0  0  0  0  0  0  0  0  0  0
    8.2509   -1.8491    0.0000 H   0  0  0  0  0  0  0  0  0  0  0  0
   10.0136   -2.4962    0.0000 H   0  0  0  0  0  0  0  0  0  0  0  0
   10.7831   -2.7040    0.0000 H   0  0  0  0  0  0  0  0  0  0  0  0
    9.6399   -0.0283    0.0000 H   0  0  0  0  0  0  0  0  0  0  0  0
    9.0268   -3.0946    0.0000 H   0  0  0  0  0  0  0  0  0  0  0  0
    7.9901   -2.8145    0.0000 H   0  0  0  0  0  0  0  0  0  0  0  0
   11.5525    0.1438    0.0000 H   0  0  0  0  0  0  0  0  0  0  0  0
   10.7830    0.3516    0.0000 H   0  0  0  0  0  0  0  0  0  0  0  0
   11.9262   -2.3241    0.0000 H   0  0  0  0  0  0  0  0  0  0  0  0
   12.3487   -0.7601    0.0000 H   0  0  0  0  0  0  0  0  0  0  0  0
    1.6900    1.0115    0.0000 H   0  0  0  0  0  0  0  0  0  0  0  0
    1.4631    0.1646    0.0000 H   0  0  0  0  0  0  0  0  0  0  0  0
    2.3100   -0.0624    0.0000 H   0  0  0  0  0  0  0  0  0  0  0  0
    3.7320    3.0946    0.0000 H   0  0  0  0  0  0  0  0  0  0  0  0
  1 10  1  0  0  0  0
  1 14  1  0  0  0  0
  2 12  2  0  0  0  0
  3 15  1  0  0  0  0
  3 25  1  0  0  0  0
  4 16  2  0  0  0  0
  5 19  1  0  0  0  0
  5 44  1  0  0  0  0
  6 19  2  0  0  0  0
  7 10  1  0  0  0  0
  7 12  1  0  0  0  0
  7 13  1  0  0  0  0
 11  8  1  1  0  0  0
  8 16  1  0  0  0  0
  8 28  1  0  0  0  0
 17  9  1  1  0  0  0
  9 35  1  0  0  0  0
  9 36  1  0  0  0  0
 10 11  1  0  0  0  0
 10 26  1  6  0  0  0
 11 12  1  0  0  0  0
 11 27  1  0  0  0  0
 13 15  2  0  0  0  0
 13 19  1  0  0  0  0
 14 15  1  0  0  0  0
 14 29  1  0  0  0  0
 14 30  1  0  0  0  0
 16 17  1  0  0  0  0
 17 18  1  0  0  0  0
 17 31  1  0  0  0  0
 18 20  1  0  0  0  0
 18 21  2  0  0  0  0
 20 23  1  0  0  0  0
 20 32  1  0  0  0  0
 20 33  1  0  0  0  0
 21 22  1  0  0  0  0
 21 34  1  0  0  0  0
 22 24  1  0  0  0  0
 22 37  1  0  0  0  0
 22 38  1  0  0  0  0
 23 24  2  0  0  0  0
 23 39  1  0  0  0  0
 24 40  1  0  0  0  0
 25 41  1  0  0  0  0
 25 42  1  0  0  0  0
 25 43  1  0  0  0  0
M  END
> <PUBCHEM_COMPOUND_CID>
5284529

> <PUBCHEM_COMPOUND_CANONICALIZED>
1

> <PUBCHEM_CACTVS_COMPLEXITY>
715

> <PUBCHEM_CACTVS_HBOND_ACCEPTOR>
7

> <PUBCHEM_CACTVS_HBOND_DONOR>
3

> <PUBCHEM_CACTVS_ROTATABLE_BOND>
5

> <PUBCHEM_CACTVS_SUBSKEYS>
AAADceB7OABAAAAAAAAAAAAAAABYAAAAAAAgQAAAAAAQAAAAAAAAHgQQCAAADCzFwAaCCAPABgiIAiXSWACACABgIBAICIGIAEgCRBoggSAUEAAAlgC4EQIYAAAAAAAAAAAAAAAAAAAAAAAAAAAAAAAAAA==

> <PUBCHEM_IUPAC_OPENEYE_NAME>
(6R,7R)-7-[[(2R)-2-amino-2-cyclohexa-1,4-dien-1-yl-acetyl]amino]-3-methoxy-8-oxo-5-thia-1-azabicyclo[4.2.0]oct-2-ene-2-carboxylic acid

> <PUBCHEM_IUPAC_CAS_NAME>
(6R,7R)-7-[[(2R)-2-amino-2-(1-cyclohexa-1,4-dienyl)-1-oxoethyl]amino]-3-methoxy-8-oxo-5-thia-1-azabicyclo[4.2.0]oct-2-ene-2-carboxylic acid

> <PUBCHEM_IUPAC_NAME>
(6R,7R)-7-[[(2R)-2-amino-2-cyclohexa-1,4-dien-1-ylacetyl]amino]-3-methoxy-8-oxo-5-thia-1-azabicyclo[4.2.0]oct-2-ene-2-carboxylic acid

> <PUBCHEM_IUPAC_SYSTEMATIC_NAME>
(6R,7R)-7-[[(2R)-2-azanyl-2-cyclohexa-1,4-dien-1-yl-ethanoyl]amino]-3-methoxy-8-oxidanylidene-5-thia-1-azabicyclo[4.2.0]oct-2-ene-2-carboxylic acid

> <PUBCHEM_IUPAC_TRADITIONAL_NAME>
(6R,7R)-7-[[(2R)-2-amino-2-cyclohexa-1,4-dien-1-yl-acetyl]amino]-8-keto-3-methoxy-5-thia-1-azabicyclo[4.2.0]oct-2-ene-2-carboxylic acid

> <PUBCHEM_IUPAC_INCHI>
InChI=1S/C16H19N3O5S/c1-24-9-7-25-15-11(14(21)19(15)12(9)16(22)23)18-13(20)10(17)8-5-3-2-4-6-8/h2-3,6,10-11,15H,4-5,7,17H2,1H3,(H,18,20)(H,22,23)/t10-,11-,15-/m1/s1

> <PUBCHEM_IUPAC_INCHIKEY>
RDMOROXKXONCAL-UEKVPHQBSA-N

> <PUBCHEM_XLOGP3>
-2.3

> <PUBCHEM_EXACT_MASS>
365.104542

> <PUBCHEM_MOLECULAR_FORMULA>
C16H19N3O5S

> <PUBCHEM_MOLECULAR_WEIGHT>
365.40416

> <PUBCHEM_OPENEYE_CAN_SMILES>
COC1=C(N2C(C(C2=O)NC(=O)C(C3=CCC=CC3)N)SC1)C(=O)O

> <PUBCHEM_OPENEYE_ISO_SMILES>
COC1=C(N2[C@@H]([C@@H](C2=O)NC(=O)[C@@H](C3=CCC=CC3)N)SC1)C(=O)O

> <PUBCHEM_CACTVS_TPSA>
147

> <PUBCHEM_MONOISOTOPIC_WEIGHT>
365.104542

> <PUBCHEM_TOTAL_CHARGE>
0

> <PUBCHEM_HEAVY_ATOM_COUNT>
25

> <PUBCHEM_ATOM_DEF_STEREO_COUNT>
3

> <PUBCHEM_ATOM_UDEF_STEREO_COUNT>
0

> <PUBCHEM_BOND_DEF_STEREO_COUNT>
0

> <PUBCHEM_BOND_UDEF_STEREO_COUNT>
0

> <PUBCHEM_ISOTOPIC_ATOM_COUNT>
0

> <PUBCHEM_COMPONENT_COUNT>
1

> <PUBCHEM_CACTVS_TAUTO_COUNT>
4

> <PUBCHEM_COORDINATE_TYPE>
1
5
255

> <PUBCHEM_BONDANNOTATIONS>
10  26  6
11  8  5
17  9  5

$$$$

