582787
  -OEChem-06241222442D

 56 58  0     1  0  0  0  0  0999 V2000
    7.2566   -0.1031    0.0000 O   0  0  0  0  0  0  0  0  0  0  0  0
    8.2816   -2.5422    0.0000 O   0  0  0  0  0  0  0  0  0  0  0  0
    7.9244   -0.8474    0.0000 O   0  0  0  0  0  0  0  0  0  0  0  0
    5.5637    3.0803    0.0000 O   0  0  0  0  0  0  0  0  0  0  0  0
    4.2746    1.9236    0.0000 O   0  0  0  0  0  0  0  0  0  0  0  0
    4.6783   -4.0260    0.0000 N   0  0  0  0  0  0  0  0  0  0  0  0
    6.6353   -2.0042    0.0000 N   0  0  0  0  0  0  0  0  0  0  0  0
    5.6103    0.4350    0.0000 N   0  0  0  0  0  0  0  0  0  0  0  0
    4.9889   -1.4661    0.0000 C   0  0  0  0  0  0  0  0  0  0  0  0
    4.6783   -2.4166    0.0000 C   0  0  0  0  0  0  0  0  0  0  0  0
    5.9674   -1.2598    0.0000 C   0  0  3  0  0  0  0  0  0  0  0  0
    3.7320   -2.7213    0.0000 C   0  0  0  0  0  0  0  0  0  0  0  0
    3.7320   -3.7213    0.0000 C   0  0  0  0  0  0  0  0  0  0  0  0
    5.2619   -3.2213    0.0000 C   0  0  0  0  0  0  0  0  0  0  0  0
    6.2781   -0.3093    0.0000 C   0  0  0  0  0  0  0  0  0  0  0  0
    2.8660   -2.2213    0.0000 C   0  0  0  0  0  0  0  0  0  0  0  0
    2.8660   -4.2213    0.0000 C   0  0  0  0  0  0  0  0  0  0  0  0
    2.0000   -2.7213    0.0000 C   0  0  0  0  0  0  0  0  0  0  0  0
    2.0000   -3.7213    0.0000 C   0  0  0  0  0  0  0  0  0  0  0  0
    7.6138   -1.7979    0.0000 C   0  0  0  0  0  0  0  0  0  0  0  0
    5.9209    1.3855    0.0000 C   0  0  0  0  0  0  0  0  0  0  0  0
    9.2601   -2.3360    0.0000 C   0  0  0  0  0  0  0  0  0  0  0  0
    5.2531    2.1298    0.0000 C   0  0  0  0  0  0  0  0  0  0  0  0
    9.9280   -3.0803    0.0000 C   0  0  0  0  0  0  0  0  0  0  0  0
    9.6173   -4.0308    0.0000 C   0  0  0  0  0  0  0  0  0  0  0  0
   10.9065   -2.8741    0.0000 C   0  0  0  0  0  0  0  0  0  0  0  0
    4.8959    3.8246    0.0000 C   0  0  0  0  0  0  0  0  0  0  0  0
   10.2852   -4.7751    0.0000 C   0  0  0  0  0  0  0  0  0  0  0  0
   11.5743   -3.6184    0.0000 C   0  0  0  0  0  0  0  0  0  0  0  0
   11.2637   -4.5689    0.0000 C   0  0  0  0  0  0  0  0  0  0  0  0
    5.2066    4.7751    0.0000 C   0  0  0  0  0  0  0  0  0  0  0  0
    4.9684   -0.8464    0.0000 H   0  0  0  0  0  0  0  0  0  0  0  0
    4.3751   -1.3787    0.0000 H   0  0  0  0  0  0  0  0  0  0  0  0
    5.7748   -1.8492    0.0000 H   0  0  0  0  0  0  0  0  0  0  0  0
    5.8819   -3.2213    0.0000 H   0  0  0  0  0  0  0  0  0  0  0  0
    4.8709   -4.6154    0.0000 H   0  0  0  0  0  0  0  0  0  0  0  0
    6.4427   -2.5935    0.0000 H   0  0  0  0  0  0  0  0  0  0  0  0
    2.8660   -1.6013    0.0000 H   0  0  0  0  0  0  0  0  0  0  0  0
    2.8660   -4.8413    0.0000 H   0  0  0  0  0  0  0  0  0  0  0  0
    1.4631   -2.4113    0.0000 H   0  0  0  0  0  0  0  0  0  0  0  0
    5.0036    0.3071    0.0000 H   0  0  0  0  0  0  0  0  0  0  0  0
    1.4631   -4.0313    0.0000 H   0  0  0  0  0  0  0  0  0  0  0  0
    6.4678    1.0935    0.0000 H   0  0  0  0  0  0  0  0  0  0  0  0
    6.3035    1.8734    0.0000 H   0  0  0  0  0  0  0  0  0  0  0  0
    9.7865   -2.0084    0.0000 H   0  0  0  0  0  0  0  0  0  0  0  0
    9.0289   -1.7608    0.0000 H   0  0  0  0  0  0  0  0  0  0  0  0
    9.0106   -4.1587    0.0000 H   0  0  0  0  0  0  0  0  0  0  0  0
   11.0991   -2.2848    0.0000 H   0  0  0  0  0  0  0  0  0  0  0  0
    4.3490    4.1166    0.0000 H   0  0  0  0  0  0  0  0  0  0  0  0
    4.5133    3.3367    0.0000 H   0  0  0  0  0  0  0  0  0  0  0  0
   10.0926   -5.3645    0.0000 H   0  0  0  0  0  0  0  0  0  0  0  0
   12.1810   -3.4905    0.0000 H   0  0  0  0  0  0  0  0  0  0  0  0
   11.6777   -5.0304    0.0000 H   0  0  0  0  0  0  0  0  0  0  0  0
    5.7959    4.5825    0.0000 H   0  0  0  0  0  0  0  0  0  0  0  0
    5.3992    5.3645    0.0000 H   0  0  0  0  0  0  0  0  0  0  0  0
    4.6172    4.9678    0.0000 H   0  0  0  0  0  0  0  0  0  0  0  0
  1 15  2  0  0  0  0
  2 20  1  0  0  0  0
  2 22  1  0  0  0  0
  3 20  2  0  0  0  0
  4 23  1  0  0  0  0
  4 27  1  0  0  0  0
  5 23  2  0  0  0  0
  6 13  1  0  0  0  0
  6 14  1  0  0  0  0
  6 36  1  0  0  0  0
  7 11  1  0  0  0  0
  7 20  1  0  0  0  0
  7 37  1  0  0  0  0
  8 15  1  0  0  0  0
  8 21  1  0  0  0  0
  8 41  1  0  0  0  0
  9 10  1  0  0  0  0
  9 11  1  0  0  0  0
  9 32  1  0  0  0  0
  9 33  1  0  0  0  0
 10 12  1  0  0  0  0
 10 14  2  0  0  0  0
 11 15  1  0  0  0  0
 11 34  1  0  0  0  0
 12 13  1  0  0  0  0
 12 16  2  0  0  0  0
 13 17  2  0  0  0  0
 14 35  1  0  0  0  0
 16 18  1  0  0  0  0
 16 38  1  0  0  0  0
 17 19  1  0  0  0  0
 17 39  1  0  0  0  0
 18 19  2  0  0  0  0
 18 40  1  0  0  0  0
 19 42  1  0  0  0  0
 21 23  1  0  0  0  0
 21 43  1  0  0  0  0
 21 44  1  0  0  0  0
 22 24  1  0  0  0  0
 22 45  1  0  0  0  0
 22 46  1  0  0  0  0
 24 25  2  0  0  0  0
 24 26  1  0  0  0  0
 25 28  1  0  0  0  0
 25 47  1  0  0  0  0
 26 29  2  0  0  0  0
 26 48  1  0  0  0  0
 27 31  1  0  0  0  0
 27 49  1  0  0  0  0
 27 50  1  0  0  0  0
 28 30  2  0  0  0  0
 28 51  1  0  0  0  0
 29 30  1  0  0  0  0
 29 52  1  0  0  0  0
 30 53  1  0  0  0  0
 31 54  1  0  0  0  0
 31 55  1  0  0  0  0
 31 56  1  0  0  0  0
M  END
> <PUBCHEM_COMPOUND_CID>
582787

> <PUBCHEM_COMPOUND_CANONICALIZED>
1

> <PUBCHEM_CACTVS_COMPLEXITY>
608

> <PUBCHEM_CACTVS_HBOND_ACCEPTOR>
5

> <PUBCHEM_CACTVS_HBOND_DONOR>
3

> <PUBCHEM_CACTVS_ROTATABLE_BOND>
11

> <PUBCHEM_CACTVS_SUBSKEYS>
AAADceB7OAAAAAAAAAAAAAAAAAAAAWAAAAAwYAAAAAAAAFgB9AAAHgAQAAAADCjhngY+yPLJlACoAzX3XACCgCAxAiAI2aG4bJkKZvLAsbmfMAhk1gHY6AeYyeCOgAAAAAACAAAAAAAAAAQAAAAAAAAAAA==

> <PUBCHEM_IUPAC_OPENEYE_NAME>
ethyl 2-[[2-(benzyloxycarbonylamino)-3-(1H-indol-3-yl)propanoyl]amino]acetate

> <PUBCHEM_IUPAC_CAS_NAME>
2-[[3-(1H-indol-3-yl)-1-oxo-2-(phenylmethoxycarbonylamino)propyl]amino]acetic acid ethyl ester

> <PUBCHEM_IUPAC_NAME>
ethyl 2-[[3-(1H-indol-3-yl)-2-(phenylmethoxycarbonylamino)propanoyl]amino]acetate

> <PUBCHEM_IUPAC_SYSTEMATIC_NAME>
ethyl 2-[[3-(1H-indol-3-yl)-2-(phenylmethoxycarbonylamino)propanoyl]amino]ethanoate

> <PUBCHEM_IUPAC_TRADITIONAL_NAME>
2-[[2-(benzyloxycarbonylamino)-3-(1H-indol-3-yl)propanoyl]amino]acetic acid ethyl ester

> <PUBCHEM_IUPAC_INCHI>
InChI=1S/C23H25N3O5/c1-2-30-21(27)14-25-22(28)20(12-17-13-24-19-11-7-6-10-18(17)19)26-23(29)31-15-16-8-4-3-5-9-16/h3-11,13,20,24H,2,12,14-15H2,1H3,(H,25,28)(H,26,29)

> <PUBCHEM_IUPAC_INCHIKEY>
ATGRSTQNQQGELS-UHFFFAOYSA-N

> <PUBCHEM_XLOGP3>
2.9

> <PUBCHEM_EXACT_MASS>
423.179421

> <PUBCHEM_MOLECULAR_FORMULA>
C23H25N3O5

> <PUBCHEM_MOLECULAR_WEIGHT>
423.4617

> <PUBCHEM_OPENEYE_CAN_SMILES>
CCOC(=O)CNC(=O)C(CC1=CNC2=CC=CC=C21)NC(=O)OCC3=CC=CC=C3

> <PUBCHEM_OPENEYE_ISO_SMILES>
CCOC(=O)CNC(=O)C(CC1=CNC2=CC=CC=C21)NC(=O)OCC3=CC=CC=C3

> <PUBCHEM_CACTVS_TPSA>
110

> <PUBCHEM_MONOISOTOPIC_WEIGHT>
423.179421

> <PUBCHEM_TOTAL_CHARGE>
0

> <PUBCHEM_HEAVY_ATOM_COUNT>
31

> <PUBCHEM_ATOM_DEF_STEREO_COUNT>
0

> <PUBCHEM_ATOM_UDEF_STEREO_COUNT>
1

> <PUBCHEM_BOND_DEF_STEREO_COUNT>
0

> <PUBCHEM_BOND_UDEF_STEREO_COUNT>
0

> <PUBCHEM_ISOTOPIC_ATOM_COUNT>
0

> <PUBCHEM_COMPONENT_COUNT>
1

> <PUBCHEM_CACTVS_TAUTO_COUNT>
4

> <PUBCHEM_COORDINATE_TYPE>
1
5
255

> <PUBCHEM_BONDANNOTATIONS>
10  12  8
10  14  8
12  13  8
12  16  8
13  17  8
16  18  8
17  19  8
18  19  8
24  25  8
24  26  8
25  28  8
26  29  8
28  30  8
29  30  8
6  13  8
6  14  8
11  9  3

$$$$

