249887
  -OEChem-07051212582D

 24 25  0     0  0  0  0  0  0999 V2000
    5.4641   -1.0000    0.0000 O   0  0  0  0  0  0  0  0  0  0  0  0
    5.4641    2.0000    0.0000 O   0  0  0  0  0  0  0  0  0  0  0  0
    7.1962   -1.0000    0.0000 O   0  0  0  0  0  0  0  0  0  0  0  0
    2.8660   -2.5000    0.0000 N   0  0  0  0  0  0  0  0  0  0  0  0
    4.5981   -0.5000    0.0000 C   0  0  0  0  0  0  0  0  0  0  0  0
    3.7320   -1.0000    0.0000 C   0  0  0  0  0  0  0  0  0  0  0  0
    4.5981    0.5000    0.0000 C   0  0  0  0  0  0  0  0  0  0  0  0
    5.4641    1.0000    0.0000 C   0  0  0  0  0  0  0  0  0  0  0  0
    2.8660   -0.5000    0.0000 C   0  0  0  0  0  0  0  0  0  0  0  0
    6.3301    0.5000    0.0000 C   0  0  0  0  0  0  0  0  0  0  0  0
    3.7320   -2.0000    0.0000 C   0  0  0  0  0  0  0  0  0  0  0  0
    6.3301   -0.5000    0.0000 C   0  0  0  0  0  0  0  0  0  0  0  0
    2.0000   -1.0000    0.0000 C   0  0  0  0  0  0  0  0  0  0  0  0
    2.0000   -2.0000    0.0000 C   0  0  0  0  0  0  0  0  0  0  0  0
    6.3301    2.5000    0.0000 C   0  0  0  0  0  0  0  0  0  0  0  0
    4.0611    0.8100    0.0000 H   0  0  0  0  0  0  0  0  0  0  0  0
    2.8660    0.1200    0.0000 H   0  0  0  0  0  0  0  0  0  0  0  0
    6.8671    0.8100    0.0000 H   0  0  0  0  0  0  0  0  0  0  0  0
    4.2690   -2.3100    0.0000 H   0  0  0  0  0  0  0  0  0  0  0  0
    1.4631   -0.6900    0.0000 H   0  0  0  0  0  0  0  0  0  0  0  0
    1.4631   -2.3100    0.0000 H   0  0  0  0  0  0  0  0  0  0  0  0
    6.6401    1.9631    0.0000 H   0  0  0  0  0  0  0  0  0  0  0  0
    6.8671    2.8100    0.0000 H   0  0  0  0  0  0  0  0  0  0  0  0
    6.0201    3.0369    0.0000 H   0  0  0  0  0  0  0  0  0  0  0  0
  1  5  1  0  0  0  0
  1 12  1  0  0  0  0
  2  8  1  0  0  0  0
  2 15  1  0  0  0  0
  3 12  2  0  0  0  0
  4 11  1  0  0  0  0
  4 14  2  0  0  0  0
  5  6  1  0  0  0  0
  5  7  2  0  0  0  0
  6  9  1  0  0  0  0
  6 11  2  0  0  0  0
  7  8  1  0  0  0  0
  7 16  1  0  0  0  0
  8 10  2  0  0  0  0
  9 13  2  0  0  0  0
  9 17  1  0  0  0  0
 10 12  1  0  0  0  0
 10 18  1  0  0  0  0
 11 19  1  0  0  0  0
 13 14  1  0  0  0  0
 13 20  1  0  0  0  0
 14 21  1  0  0  0  0
 15 22  1  0  0  0  0
 15 23  1  0  0  0  0
 15 24  1  0  0  0  0
M  END
> <PUBCHEM_COMPOUND_CID>
249887

> <PUBCHEM_COMPOUND_CANONICALIZED>
1

> <PUBCHEM_CACTVS_COMPLEXITY>
320

> <PUBCHEM_CACTVS_HBOND_ACCEPTOR>
4

> <PUBCHEM_CACTVS_HBOND_DONOR>
0

> <PUBCHEM_CACTVS_ROTATABLE_BOND>
2

> <PUBCHEM_CACTVS_SUBSKEYS>
AAADccByMAAAAAAAAAAAAAAAAAAAAAAAAAAsQAAAAAAAAAABgAAAHgAAAAAADATBmgY+iJIIFACoAjD3TACCiCAxIiAI2CA4bNgIJuLAsZmGMAhmwAHI6QaQEAIMAAAAAAAAAAAAAAAAAAAAAAAAAAAAAA==

> <PUBCHEM_IUPAC_OPENEYE_NAME>
4-methoxy-6-(3-pyridyl)pyran-2-one

> <PUBCHEM_IUPAC_CAS_NAME>
4-methoxy-6-(3-pyridinyl)-2-pyranone

> <PUBCHEM_IUPAC_NAME>
4-methoxy-6-pyridin-3-ylpyran-2-one

> <PUBCHEM_IUPAC_SYSTEMATIC_NAME>
4-methoxy-6-pyridin-3-yl-pyran-2-one

> <PUBCHEM_IUPAC_TRADITIONAL_NAME>
4-methoxy-6-(3-pyridyl)pyran-2-one

> <PUBCHEM_IUPAC_INCHI>
InChI=1S/C11H9NO3/c1-14-9-5-10(15-11(13)6-9)8-3-2-4-12-7-8/h2-7H,1H3

> <PUBCHEM_IUPAC_INCHIKEY>
WOOQLVPKDONBEX-UHFFFAOYSA-N

> <PUBCHEM_XLOGP3_AA>
1

> <PUBCHEM_EXACT_MASS>
203.058243

> <PUBCHEM_MOLECULAR_FORMULA>
C11H9NO3

> <PUBCHEM_MOLECULAR_WEIGHT>
203.19406

> <PUBCHEM_OPENEYE_CAN_SMILES>
COC1=CC(=O)OC(=C1)C2=CN=CC=C2

> <PUBCHEM_OPENEYE_ISO_SMILES>
COC1=CC(=O)OC(=C1)C2=CN=CC=C2

> <PUBCHEM_CACTVS_TPSA>
48.4

> <PUBCHEM_MONOISOTOPIC_WEIGHT>
203.058243

> <PUBCHEM_TOTAL_CHARGE>
0

> <PUBCHEM_HEAVY_ATOM_COUNT>
15

> <PUBCHEM_ATOM_DEF_STEREO_COUNT>
0

> <PUBCHEM_ATOM_UDEF_STEREO_COUNT>
0

> <PUBCHEM_BOND_DEF_STEREO_COUNT>
0

> <PUBCHEM_BOND_UDEF_STEREO_COUNT>
0

> <PUBCHEM_ISOTOPIC_ATOM_COUNT>
0

> <PUBCHEM_COMPONENT_COUNT>
1

> <PUBCHEM_CACTVS_TAUTO_COUNT>
1

> <PUBCHEM_COORDINATE_TYPE>
1
5
255

> <PUBCHEM_BONDANNOTATIONS>
1  12  8
1  5  8
10  12  8
13  14  8
4  11  8
4  14  8
5  7  8
6  11  8
6  9  8
7  8  8
8  10  8
9  13  8

$$$$

