447152
  -OEChem-07051212453D

 63 66  0     1  0  0  0  0  0999 V2000
   -2.5073    2.8863    0.2302 P   0  0  2  0  0  0  0  0  0  0  0  0
   -3.3884    1.3138   -2.0954 P   0  0  1  0  0  0  0  0  0  0  0  0
    1.6005    1.9708    1.2092 O   0  0  0  0  0  0  0  0  0  0  0  0
    4.4077    2.5771   -0.9524 O   0  0  0  0  0  0  0  0  0  0  0  0
    3.5370    4.3118    0.9498 O   0  0  0  0  0  0  0  0  0  0  0  0
   -2.0286   -0.7610    0.1556 O   0  0  0  0  0  0  0  0  0  0  0  0
   -1.0170    2.9314    0.8581 O   0  0  0  0  0  0  0  0  0  0  0  0
   -3.6787   -0.1268   -1.4253 O   0  0  0  0  0  0  0  0  0  0  0  0
   -4.3238   -4.2054   -0.1589 O   0  0  0  0  0  0  0  0  0  0  0  0
   -1.9019   -3.2893   -1.1892 O   0  0  0  0  0  0  0  0  0  0  0  0
   -4.4549   -2.6034    2.2214 O   0  0  0  0  0  0  0  0  0  0  0  0
   -2.3092    2.0111   -1.1143 O   0  0  0  0  0  0  0  0  0  0  0  0
   -2.7866   -0.8793    3.5745 O   0  0  0  0  0  0  0  0  0  0  0  0
   -2.7345    4.3828   -0.3402 O   0  0  0  0  0  0  0  0  0  0  0  0
   -2.5227    0.9790   -3.4204 O   0  0  0  0  0  0  0  0  0  0  0  0
   -0.8779   -0.4672    2.3986 O   0  0  0  0  0  0  0  0  0  0  0  0
   -3.5854    2.3870    1.1472 O   0  0  0  0  0  0  0  0  0  0  0  0
   -4.6143    2.1422   -2.3496 O   0  0  0  0  0  0  0  0  0  0  0  0
    3.1559   -4.1717   -1.1254 O   0  0  0  0  0  0  0  0  0  0  0  0
    2.6280    0.1519    0.0839 N   0  0  0  0  0  0  0  0  0  0  0  0
    4.8724   -0.7666    0.2681 N   0  0  0  0  0  0  0  0  0  0  0  0
    1.6153   -1.6958   -0.6894 N   0  0  0  0  0  0  0  0  0  0  0  0
    5.0582   -3.0671   -0.3952 N   0  0  0  0  0  0  0  0  0  0  0  0
    6.9193   -1.8362    0.3644 N   0  0  0  0  0  0  0  0  0  0  0  0
    3.0446    2.5270   -0.5835 C   0  0  2  0  0  0  0  0  0  0  0  0
    2.5515    3.8159    0.0438 C   0  0  1  0  0  0  0  0  0  0  0  0
    2.7968    1.5302    0.5385 C   0  0  1  0  0  0  0  0  0  0  0  0
    1.3404    3.3458    0.8435 C   0  0  1  0  0  0  0  0  0  0  0  0
    0.0462    3.3933    0.0435 C   0  0  0  0  0  0  0  0  0  0  0  0
   -4.0247   -2.8118   -0.1230 C   0  0  2  0  0  0  0  0  0  0  0  0
   -3.0591   -2.4549   -1.2543 C   0  0  1  0  0  0  0  0  0  0  0  0
   -3.4286   -2.4605    1.2399 C   0  0  1  0  0  0  0  0  0  0  0  0
   -2.5954   -1.0036   -1.1360 C   0  0  2  0  0  0  0  0  0  0  0  0
   -2.9198   -1.0203    1.2371 C   0  0  1  0  0  0  0  0  0  0  0  0
    3.5687   -0.8155   -0.0169 C   0  0  0  0  0  0  0  0  0  0  0  0
    1.4537   -0.4316   -0.3365 C   0  0  0  0  0  0  0  0  0  0  0  0
    2.9455   -1.9343   -0.4872 C   0  0  0  0  0  0  0  0  0  0  0  0
   -2.0650   -0.7549    2.4339 C   0  0  0  0  0  0  0  0  0  0  0  0
    3.6952   -3.1555   -0.7046 C   0  0  0  0  0  0  0  0  0  0  0  0
    5.5866   -1.9445    0.0568 C   0  0  0  0  0  0  0  0  0  0  0  0
    2.4461    2.2890   -1.4712 H   0  0  0  0  0  0  0  0  0  0  0  0
    2.3422    4.6026   -0.6868 H   0  0  0  0  0  0  0  0  0  0  0  0
    3.6096    1.5260    1.2749 H   0  0  0  0  0  0  0  0  0  0  0  0
    1.2188    3.9011    1.7804 H   0  0  0  0  0  0  0  0  0  0  0  0
   -0.1505    4.4216   -0.2727 H   0  0  0  0  0  0  0  0  0  0  0  0
    0.1125    2.7515   -0.8404 H   0  0  0  0  0  0  0  0  0  0  0  0
   -4.9749   -2.2804   -0.2591 H   0  0  0  0  0  0  0  0  0  0  0  0
   -3.5452   -2.6394   -2.2191 H   0  0  0  0  0  0  0  0  0  0  0  0
   -2.6319   -3.1680    1.4992 H   0  0  0  0  0  0  0  0  0  0  0  0
   -1.7875   -0.8307   -1.8546 H   0  0  0  0  0  0  0  0  0  0  0  0
   -3.7337   -0.2872    1.2276 H   0  0  0  0  0  0  0  0  0  0  0  0
    4.6566    1.6961   -1.2795 H   0  0  0  0  0  0  0  0  0  0  0  0
    3.1708    5.1097    1.3681 H   0  0  0  0  0  0  0  0  0  0  0  0
    0.5207    0.1128   -0.3749 H   0  0  0  0  0  0  0  0  0  0  0  0
    5.3406    0.0644    0.6145 H   0  0  0  0  0  0  0  0  0  0  0  0
   -4.6929   -4.4026   -1.0367 H   0  0  0  0  0  0  0  0  0  0  0  0
   -1.3349   -3.0657   -1.9468 H   0  0  0  0  0  0  0  0  0  0  0  0
   -5.1599   -1.9656    2.0169 H   0  0  0  0  0  0  0  0  0  0  0  0
   -2.2422   -0.7102    4.3728 H   0  0  0  0  0  0  0  0  0  0  0  0
   -2.1402    4.7336   -1.0367 H   0  0  0  0  0  0  0  0  0  0  0  0
   -2.3429    1.6976   -4.0634 H   0  0  0  0  0  0  0  0  0  0  0  0
    7.5488   -2.6236    0.2543 H   0  0  0  0  0  0  0  0  0  0  0  0
    7.3135   -0.9686    0.7114 H   0  0  0  0  0  0  0  0  0  0  0  0
  1  7  1  0  0  0  0
  1 12  1  0  0  0  0
  1 14  1  0  0  0  0
  1 17  2  0  0  0  0
  2  8  1  0  0  0  0
  2 12  1  0  0  0  0
  2 15  1  0  0  0  0
  2 18  2  0  0  0  0
  3 27  1  0  0  0  0
  3 28  1  0  0  0  0
  4 25  1  0  0  0  0
  4 52  1  0  0  0  0
  5 26  1  0  0  0  0
  5 53  1  0  0  0  0
  6 33  1  0  0  0  0
  6 34  1  0  0  0  0
  7 29  1  0  0  0  0
  8 33  1  0  0  0  0
  9 30  1  0  0  0  0
  9 56  1  0  0  0  0
 10 31  1  0  0  0  0
 10 57  1  0  0  0  0
 11 32  1  0  0  0  0
 11 58  1  0  0  0  0
 13 38  1  0  0  0  0
 13 59  1  0  0  0  0
 14 60  1  0  0  0  0
 15 61  1  0  0  0  0
 16 38  2  0  0  0  0
 19 39  2  0  0  0  0
 20 27  1  0  0  0  0
 20 35  1  0  0  0  0
 20 36  1  0  0  0  0
 21 35  1  0  0  0  0
 21 40  1  0  0  0  0
 21 55  1  0  0  0  0
 22 36  2  0  0  0  0
 22 37  1  0  0  0  0
 23 39  1  0  0  0  0
 23 40  2  0  0  0  0
 24 40  1  0  0  0  0
 24 62  1  0  0  0  0
 24 63  1  0  0  0  0
 25 26  1  0  0  0  0
 25 27  1  0  0  0  0
 25 41  1  0  0  0  0
 26 28  1  0  0  0  0
 26 42  1  0  0  0  0
 27 43  1  0  0  0  0
 28 29  1  0  0  0  0
 28 44  1  0  0  0  0
 29 45  1  0  0  0  0
 29 46  1  0  0  0  0
 30 31  1  0  0  0  0
 30 32  1  0  0  0  0
 30 47  1  0  0  0  0
 31 33  1  0  0  0  0
 31 48  1  0  0  0  0
 32 34  1  0  0  0  0
 32 49  1  0  0  0  0
 33 50  1  0  0  0  0
 34 38  1  0  0  0  0
 34 51  1  0  0  0  0
 35 37  2  0  0  0  0
 36 54  1  0  0  0  0
 37 39  1  0  0  0  0
M  END
> <PUBCHEM_COMPOUND_CID>
447152

> <PUBCHEM_CONFORMER_RMSD>
1.6

> <PUBCHEM_CONFORMER_DIVERSEORDER>
1
175
124
60
5
57
46
42
32
152
6
183
44
31
153
106
126
86
85
59
102
136
94
133
177
81
20
93
165
72
169
11
55
168
83
181
137
16
95
129
78
163
65
158
76
52
23
74
155
171
89
27
100
4
53
73
144
120
132
154
48
156
113
116
30
179
50
40
176
45
2
147
66
34
166
54
64
17
111
19
143
157
25
114
101
139
61
108
121
149
91
109
182
105
134
167
150
110
148
119
3
138
70
159
142
180
62
29
56
173
170
69
125
104
51
97
37
35
87
47
123
131
75
164
14
90
10
118
122
38
68
117
140
41
24
77
128
178
96
13
49
112
9
92
63
43
36
67
127
161
141
174
103
82
151
184
172
130
8
15
21
107
99
33
71
58
98
135
80
146
84
160
12
22
18
28
115
162
79
185
7
26
145
88
39

> <PUBCHEM_MMFF94_PARTIAL_CHARGES>
52
1 1.51
10 -0.68
11 -0.68
12 -0.54
13 -0.65
14 -0.77
15 -0.77
16 -0.57
17 -0.7
18 -0.7
19 -0.57
2 1.51
20 0.05
21 -0.53
22 -0.57
23 -0.66
24 -0.85
25 0.28
26 0.28
27 0.54
28 0.28
29 0.28
3 -0.56
30 0.28
31 0.28
32 0.28
33 0.56
34 0.34
35 -0.07
36 0.04
37 0.14
38 0.66
39 0.87
4 -0.68
40 0.55
5 -0.68
52 0.4
53 0.4
54 0.15
55 0.4
56 0.4
57 0.4
58 0.4
59 0.5
6 -0.56
60 0.5
61 0.5
62 0.4
63 0.4
7 -0.55
8 -0.55
9 -0.68

> <PUBCHEM_EFFECTIVE_ROTOR_COUNT>
11.2

> <PUBCHEM_PHARMACOPHORE_FEATURES>
28
1 10 acceptor
1 10 donor
1 11 acceptor
1 11 donor
1 13 acceptor
1 14 acceptor
1 15 acceptor
1 16 acceptor
1 17 acceptor
1 18 acceptor
1 19 acceptor
1 21 donor
1 23 donor
1 24 donor
1 3 acceptor
1 4 acceptor
1 4 donor
1 5 acceptor
1 5 donor
1 6 acceptor
1 9 acceptor
1 9 donor
3 13 16 38 anion
3 20 22 36 cation
5 20 22 35 36 37 rings
5 3 25 26 27 28 rings
6 21 23 35 37 39 40 rings
6 6 30 31 32 33 34 rings

> <PUBCHEM_HEAVY_ATOM_COUNT>
40

> <PUBCHEM_ATOM_DEF_STEREO_COUNT>
9

> <PUBCHEM_ATOM_UDEF_STEREO_COUNT>
0

> <PUBCHEM_BOND_DEF_STEREO_COUNT>
0

> <PUBCHEM_BOND_UDEF_STEREO_COUNT>
0

> <PUBCHEM_ISOTOPIC_ATOM_COUNT>
0

> <PUBCHEM_COMPONENT_COUNT>
1

> <PUBCHEM_CACTVS_TAUTO_COUNT>
6

> <PUBCHEM_CONFORMER_ID>
0006D2B000000001

> <PUBCHEM_MMFF94_ENERGY>
59.1396

> <PUBCHEM_FEATURE_SELFOVERLAP>
142.456

> <PUBCHEM_SHAPE_FINGERPRINT>
10190108 129 18050259515140676792
10764073 3 17909513437647504809
10928967 22 17972316205267905196
10974685 15 17489322888074894620
11135609 12 18412261744369948128
11136131 41 18269005189915049336
12202916 173 17337338289035706659
13560911 43 18340779139142627754
13911987 19 17549534115838212172
14659021 117 18121232123525927624
15274700 242 17550111802129556360
19315092 285 16517689895500104205
20764821 26 18410005546409401036
20775438 99 17903398941546728197
23559900 14 18336847358438156596
3383291 50 18265618856761415403
3737641 26 18192139413283370364
4015057 19 18337403732601930173
463206 1 18265331897096156540
469060 322 17760942735753934757
613672 6 18263934404979739726

> <PUBCHEM_SHAPE_MULTIPOLES>
706.2
11.41
6.44
2.23
9.9
2.2
0.46
-7.61
-0.98
1.08
-0.39
-3.78
-0.14
2.39

> <PUBCHEM_SHAPE_SELFOVERLAP>
1482.106

> <PUBCHEM_SHAPE_VOLUME>
399.8

> <PUBCHEM_COORDINATE_TYPE>
2
5
10

$$$$

