441826
  -OEChem-07051212563D

 78 81  0     1  0  0  0  0  0999 V2000
   -0.1902   -0.5190   -1.5198 O   0  0  0  0  0  0  0  0  0  0  0  0
    1.6214   -1.8867    2.0210 O   0  0  0  0  0  0  0  0  0  0  0  0
   -3.0603    2.0660    1.6987 O   0  0  0  0  0  0  0  0  0  0  0  0
    5.4354   -3.2229    0.7319 O   0  0  0  0  0  0  0  0  0  0  0  0
    4.2522    2.7749   -1.7186 O   0  0  0  0  0  0  0  0  0  0  0  0
    6.6970   -1.2105   -0.7096 O   0  0  0  0  0  0  0  0  0  0  0  0
   -5.6865    1.1609    1.5229 O   0  0  0  0  0  0  0  0  0  0  0  0
   -0.7653    0.6183    0.5681 C   0  0  1  0  0  0  0  0  0  0  0  0
   -0.0160    0.7130   -0.7849 C   0  0  1  0  0  0  0  0  0  0  0  0
   -2.2344    0.5172    0.0806 C   0  0  2  0  0  0  0  0  0  0  0  0
    2.1240   -0.2113    0.3121 C   0  0  2  0  0  0  0  0  0  0  0  0
    3.6281    0.1401    0.6896 C   0  0  2  0  0  0  0  0  0  0  0  0
   -0.2737   -0.6330    1.3046 C   0  0  0  0  0  0  0  0  0  0  0  0
    1.4764    0.8630   -0.5839 C   0  0  0  0  0  0  0  0  0  0  0  0
   -0.8419    1.7669   -1.5398 C   0  0  0  0  0  0  0  0  0  0  0  0
    1.2455   -0.5888    1.5561 C   0  0  1  0  0  0  0  0  0  0  0  0
   -2.2990    1.5042   -1.1062 C   0  0  0  0  0  0  0  0  0  0  0  0
    4.3791    0.6725   -0.5652 C   0  0  1  0  0  0  0  0  0  0  0  0
   -3.3167    0.7738    1.1212 C   0  0  2  0  0  0  0  0  0  0  0  0
   -0.5630    1.8679    1.4660 C   0  0  0  0  0  0  0  0  0  0  0  0
    4.4288   -1.0833    1.2223 C   0  0  0  0  0  0  0  0  0  0  0  0
    2.1712    1.8167   -1.2231 C   0  0  0  0  0  0  0  0  0  0  0  0
    4.6240   -0.4055   -1.6384 C   0  0  0  0  0  0  0  0  0  0  0  0
    3.6917    1.2314    1.7930 C   0  0  0  0  0  0  0  0  0  0  0  0
    3.6484    1.8442   -1.1875 C   0  0  0  0  0  0  0  0  0  0  0  0
    4.6636   -2.1661    0.1653 C   0  0  1  0  0  0  0  0  0  0  0  0
    5.3735   -1.6107   -1.0705 C   0  0  2  0  0  0  0  0  0  0  0  0
   -4.7404    0.8206    0.5042 C   0  0  1  0  0  0  0  0  0  0  0  0
   -3.1987   -0.2359    2.2699 C   0  0  0  0  0  0  0  0  0  0  0  0
   -5.1997   -0.4910   -0.1524 C   0  0  0  0  0  0  0  0  0  0  0  0
   -6.6391   -0.3952   -0.6822 C   0  0  0  0  0  0  0  0  0  0  0  0
   -7.1162   -1.6774   -1.3907 C   0  0  0  0  0  0  0  0  0  0  0  0
   -7.0239   -2.9112   -0.4917 C   0  0  0  0  0  0  0  0  0  0  0  0
   -6.2955   -1.9030   -2.6629 C   0  0  0  0  0  0  0  0  0  0  0  0
   -2.3884   -0.4919   -0.3271 H   0  0  0  0  0  0  0  0  0  0  0  0
    2.1520   -1.1097   -0.3185 H   0  0  0  0  0  0  0  0  0  0  0  0
   -0.5281   -1.5436    0.7461 H   0  0  0  0  0  0  0  0  0  0  0  0
   -0.7372   -0.7706    2.2819 H   0  0  0  0  0  0  0  0  0  0  0  0
   -0.7482    1.6800   -2.6280 H   0  0  0  0  0  0  0  0  0  0  0  0
   -0.5604    2.7877   -1.2575 H   0  0  0  0  0  0  0  0  0  0  0  0
    1.4241    0.1040    2.3816 H   0  0  0  0  0  0  0  0  0  0  0  0
   -2.7713    2.4619   -0.8687 H   0  0  0  0  0  0  0  0  0  0  0  0
   -2.8674    1.0616   -1.9325 H   0  0  0  0  0  0  0  0  0  0  0  0
    5.3563    1.0606   -0.2427 H   0  0  0  0  0  0  0  0  0  0  0  0
   -0.9733    2.7864    1.0355 H   0  0  0  0  0  0  0  0  0  0  0  0
   -0.9374    1.7224    2.4838 H   0  0  0  0  0  0  0  0  0  0  0  0
    0.5035    2.0834    1.5975 H   0  0  0  0  0  0  0  0  0  0  0  0
    3.9599   -1.5230    2.1080 H   0  0  0  0  0  0  0  0  0  0  0  0
    5.4070   -0.7409    1.5915 H   0  0  0  0  0  0  0  0  0  0  0  0
    1.6978    2.5576   -1.8567 H   0  0  0  0  0  0  0  0  0  0  0  0
    3.6775   -0.7353   -2.0826 H   0  0  0  0  0  0  0  0  0  0  0  0
    5.2125    0.0372   -2.4525 H   0  0  0  0  0  0  0  0  0  0  0  0
    3.0513    2.0893    1.5671 H   0  0  0  0  0  0  0  0  0  0  0  0
    3.3931    0.8371    2.7698 H   0  0  0  0  0  0  0  0  0  0  0  0
    4.7138    1.6101    1.9134 H   0  0  0  0  0  0  0  0  0  0  0  0
    3.7095   -2.6107   -0.1337 H   0  0  0  0  0  0  0  0  0  0  0  0
    0.2301   -0.4087   -2.3902 H   0  0  0  0  0  0  0  0  0  0  0  0
    5.4738   -2.3873   -1.8370 H   0  0  0  0  0  0  0  0  0  0  0  0
   -4.8107    1.6326   -0.2273 H   0  0  0  0  0  0  0  0  0  0  0  0
   -2.4190    0.0372    2.9848 H   0  0  0  0  0  0  0  0  0  0  0  0
   -4.1050   -0.2458    2.8847 H   0  0  0  0  0  0  0  0  0  0  0  0
   -3.0507   -1.2593    1.9115 H   0  0  0  0  0  0  0  0  0  0  0  0
    1.4718   -2.5202    1.2987 H   0  0  0  0  0  0  0  0  0  0  0  0
   -3.4140    2.7517    1.1086 H   0  0  0  0  0  0  0  0  0  0  0  0
   -5.1476   -1.2964    0.5875 H   0  0  0  0  0  0  0  0  0  0  0  0
   -4.5170   -0.7417   -0.9679 H   0  0  0  0  0  0  0  0  0  0  0  0
    6.2336   -2.8357    1.1295 H   0  0  0  0  0  0  0  0  0  0  0  0
    7.1945   -2.0148   -0.4844 H   0  0  0  0  0  0  0  0  0  0  0  0
   -5.8974    0.3614    2.0331 H   0  0  0  0  0  0  0  0  0  0  0  0
   -6.7201    0.4539   -1.3725 H   0  0  0  0  0  0  0  0  0  0  0  0
   -7.3260   -0.1896    0.1478 H   0  0  0  0  0  0  0  0  0  0  0  0
   -8.1653   -1.5317   -1.6769 H   0  0  0  0  0  0  0  0  0  0  0  0
   -7.5056   -3.7681   -0.9756 H   0  0  0  0  0  0  0  0  0  0  0  0
   -5.9886   -3.1976   -0.2819 H   0  0  0  0  0  0  0  0  0  0  0  0
   -7.5346   -2.7377    0.4612 H   0  0  0  0  0  0  0  0  0  0  0  0
   -6.7344   -2.7153   -3.2532 H   0  0  0  0  0  0  0  0  0  0  0  0
   -5.2596   -2.1844   -2.4502 H   0  0  0  0  0  0  0  0  0  0  0  0
   -6.2882   -1.0068   -3.2920 H   0  0  0  0  0  0  0  0  0  0  0  0
  1  9  1  0  0  0  0
  1 57  1  0  0  0  0
  2 16  1  0  0  0  0
  2 63  1  0  0  0  0
  3 19  1  0  0  0  0
  3 64  1  0  0  0  0
  4 26  1  0  0  0  0
  4 67  1  0  0  0  0
  5 25  2  0  0  0  0
  6 27  1  0  0  0  0
  6 68  1  0  0  0  0
  7 28  1  0  0  0  0
  7 69  1  0  0  0  0
  8  9  1  0  0  0  0
  8 10  1  0  0  0  0
  8 13  1  0  0  0  0
  8 20  1  0  0  0  0
  9 14  1  0  0  0  0
  9 15  1  0  0  0  0
 10 17  1  0  0  0  0
 10 19  1  0  0  0  0
 10 35  1  0  0  0  0
 11 12  1  0  0  0  0
 11 14  1  0  0  0  0
 11 16  1  0  0  0  0
 11 36  1  0  0  0  0
 12 18  1  0  0  0  0
 12 21  1  0  0  0  0
 12 24  1  0  0  0  0
 13 16  1  0  0  0  0
 13 37  1  0  0  0  0
 13 38  1  0  0  0  0
 14 22  2  0  0  0  0
 15 17  1  0  0  0  0
 15 39  1  0  0  0  0
 15 40  1  0  0  0  0
 16 41  1  0  0  0  0
 17 42  1  0  0  0  0
 17 43  1  0  0  0  0
 18 23  1  0  0  0  0
 18 25  1  0  0  0  0
 18 44  1  0  0  0  0
 19 28  1  0  0  0  0
 19 29  1  0  0  0  0
 20 45  1  0  0  0  0
 20 46  1  0  0  0  0
 20 47  1  0  0  0  0
 21 26  1  0  0  0  0
 21 48  1  0  0  0  0
 21 49  1  0  0  0  0
 22 25  1  0  0  0  0
 22 50  1  0  0  0  0
 23 27  1  0  0  0  0
 23 51  1  0  0  0  0
 23 52  1  0  0  0  0
 24 53  1  0  0  0  0
 24 54  1  0  0  0  0
 24 55  1  0  0  0  0
 26 27  1  0  0  0  0
 26 56  1  0  0  0  0
 27 58  1  0  0  0  0
 28 30  1  0  0  0  0
 28 59  1  0  0  0  0
 29 60  1  0  0  0  0
 29 61  1  0  0  0  0
 29 62  1  0  0  0  0
 30 31  1  0  0  0  0
 30 65  1  0  0  0  0
 30 66  1  0  0  0  0
 31 32  1  0  0  0  0
 31 70  1  0  0  0  0
 31 71  1  0  0  0  0
 32 33  1  0  0  0  0
 32 34  1  0  0  0  0
 32 72  1  0  0  0  0
 33 73  1  0  0  0  0
 33 74  1  0  0  0  0
 33 75  1  0  0  0  0
 34 76  1  0  0  0  0
 34 77  1  0  0  0  0
 34 78  1  0  0  0  0
M  END
> <PUBCHEM_COMPOUND_CID>
441826

> <PUBCHEM_CONFORMER_RMSD>
1

> <PUBCHEM_CONFORMER_DIVERSEORDER>
1
4
2
3

> <PUBCHEM_MMFF94_PARTIAL_CHARGES>
25
1 -0.68
11 0.14
14 -0.28
16 0.28
18 0.06
19 0.28
2 -0.68
22 -0.14
25 0.49
26 0.28
27 0.28
28 0.28
3 -0.68
4 -0.68
5 -0.57
50 0.15
57 0.4
6 -0.68
63 0.4
64 0.4
67 0.4
68 0.4
69 0.4
7 -0.68
9 0.42

> <PUBCHEM_EFFECTIVE_ROTOR_COUNT>
6.8

> <PUBCHEM_PHARMACOPHORE_FEATURES>
18
1 1 acceptor
1 1 donor
1 2 acceptor
1 2 donor
1 3 acceptor
1 3 donor
1 4 acceptor
1 4 donor
1 5 acceptor
1 6 acceptor
1 6 donor
1 7 acceptor
1 7 donor
3 32 33 34 hydrophobe
5 8 9 10 15 17 rings
6 11 12 14 18 22 25 rings
6 12 18 21 23 26 27 rings
6 8 9 11 13 14 16 rings

> <PUBCHEM_HEAVY_ATOM_COUNT>
34

> <PUBCHEM_ATOM_DEF_STEREO_COUNT>
11

> <PUBCHEM_ATOM_UDEF_STEREO_COUNT>
0

> <PUBCHEM_BOND_DEF_STEREO_COUNT>
0

> <PUBCHEM_BOND_UDEF_STEREO_COUNT>
0

> <PUBCHEM_ISOTOPIC_ATOM_COUNT>
0

> <PUBCHEM_COMPONENT_COUNT>
1

> <PUBCHEM_CACTVS_TAUTO_COUNT>
5

> <PUBCHEM_CONFORMER_ID>
0006BDE200000001

> <PUBCHEM_MMFF94_ENERGY>
131.933

> <PUBCHEM_FEATURE_SELFOVERLAP>
91.487

> <PUBCHEM_SHAPE_FINGERPRINT>
10 15 15140969447710745227
10076449 9 4750335023729014476
10366900 7 16916777530932185688
10554248 39 12031247069471114043
10693767 8 18201163247189626730
11475781 23 15841286865063378501
11578080 2 18115585921269725440
12011746 2 16916776405729530824
12166972 35 18335138687314910209
12236239 1 18335133206746586849
12838862 33 17489307452695207428
13165053 68 17679312871252994910
13224815 77 16271917234217416736
13533116 47 18411980247839318096
13726171 33 13986377669531318562
13782708 43 16515686628712173887
15183329 4 17561091298138865503
15324884 4 16485261951775651441
16994733 274 11959432476119817622
17349148 13 18335408101833257160
18222031 100 18201721760050875697
20028762 73 18409732884679916230
20775438 99 18127982910035028690
21033648 29 15267060298517087108
21424621 283 10519988179841967509
21521239 73 18273217461198529447
21781051 124 16298376938489823836
221357 26 17846210116307849852
2215653 11 17561360690486323020
22393880 68 16988554676221178483
23081809 10 18334850611358275553
23522609 53 18120341419896387376
23559900 14 17203315707064648828
23569914 152 16838857470008044223
23569943 247 18124880324360751018
24771293 8 18201439147509796572
2748736 6 12319473077921218767
3633792 109 18202283606356139485
3680242 22 5112000617367945182
3918712 181 12750973126234067735
392239 28 14201403755633004275
397830 11 16732997404875526155
4015057 19 18130500843523990361
4340502 62 5906045941642054172
5104073 3 16588023498592657587
6086070 43 18341056319020205901
6328613 192 11600008747881422927
6700243 42 16952221353495768069
7495541 125 17022902345810386057

> <PUBCHEM_SHAPE_MULTIPOLES>
658.62
17.1
2.66
2.19
17.46
1.02
0.06
12.4
-5.25
-0.46
-0.35
0.51
-0.13
-3.03

> <PUBCHEM_SHAPE_SELFOVERLAP>
1392.766

> <PUBCHEM_SHAPE_VOLUME>
367.5

> <PUBCHEM_COORDINATE_TYPE>
2
5
10

$$$$

