182886
  -OEChem-07051212543D

 26 27  0     0  0  0  0  0  0999 V2000
   -0.2814    0.0642   -1.0196 O   0  0  0  0  0  0  0  0  0  0  0  0
    1.9067   -1.5971   -1.3734 O   0  0  0  0  0  0  0  0  0  0  0  0
   -2.4789    1.7232   -1.3984 O   0  0  0  0  0  0  0  0  0  0  0  0
    4.2644   -1.0661   -0.0198 O   0  0  0  0  0  0  0  0  0  0  0  0
    0.8758    0.3085   -0.3667 C   0  0  0  0  0  0  0  0  0  0  0  0
   -1.4502   -0.1740   -0.3619 C   0  0  0  0  0  0  0  0  0  0  0  0
    1.9897   -0.5235   -0.5372 C   0  0  0  0  0  0  0  0  0  0  0  0
    0.9705    1.4089    0.4945 C   0  0  0  0  0  0  0  0  0  0  0  0
   -2.5530    0.6584   -0.5521 C   0  0  0  0  0  0  0  0  0  0  0  0
    3.1787   -0.2593    0.1427 C   0  0  0  0  0  0  0  0  0  0  0  0
   -1.5385   -1.2612    0.5076 C   0  0  0  0  0  0  0  0  0  0  0  0
    2.1597    1.6737    1.1741 C   0  0  0  0  0  0  0  0  0  0  0  0
    3.2638    0.8393    0.9983 C   0  0  0  0  0  0  0  0  0  0  0  0
   -3.7444    0.4038    0.1274 C   0  0  0  0  0  0  0  0  0  0  0  0
   -2.7299   -1.5157    1.1872 C   0  0  0  0  0  0  0  0  0  0  0  0
   -3.8330   -0.6831    0.9974 C   0  0  0  0  0  0  0  0  0  0  0  0
    0.1227    2.0741    0.6377 H   0  0  0  0  0  0  0  0  0  0  0  0
   -0.6910   -1.9238    0.6608 H   0  0  0  0  0  0  0  0  0  0  0  0
    2.2264    2.5300    1.8387 H   0  0  0  0  0  0  0  0  0  0  0  0
    4.1840    1.0572    1.5337 H   0  0  0  0  0  0  0  0  0  0  0  0
   -4.6072    1.0486   -0.0163 H   0  0  0  0  0  0  0  0  0  0  0  0
   -2.7993   -2.3631    1.8630 H   0  0  0  0  0  0  0  0  0  0  0  0
   -4.7606   -0.8814    1.5263 H   0  0  0  0  0  0  0  0  0  0  0  0
    2.7641   -2.0573   -1.3684 H   0  0  0  0  0  0  0  0  0  0  0  0
   -1.5844    1.7490   -1.7804 H   0  0  0  0  0  0  0  0  0  0  0  0
    4.9942   -0.7296    0.5280 H   0  0  0  0  0  0  0  0  0  0  0  0
  1  5  1  0  0  0  0
  1  6  1  0  0  0  0
  2  7  1  0  0  0  0
  2 24  1  0  0  0  0
  3  9  1  0  0  0  0
  3 25  1  0  0  0  0
  4 10  1  0  0  0  0
  4 26  1  0  0  0  0
  5  7  1  0  0  0  0
  5  8  2  0  0  0  0
  6  9  1  0  0  0  0
  6 11  2  0  0  0  0
  7 10  2  0  0  0  0
  8 12  1  0  0  0  0
  8 17  1  0  0  0  0
  9 14  2  0  0  0  0
 10 13  1  0  0  0  0
 11 15  1  0  0  0  0
 11 18  1  0  0  0  0
 12 13  2  0  0  0  0
 12 19  1  0  0  0  0
 13 20  1  0  0  0  0
 14 16  1  0  0  0  0
 14 21  1  0  0  0  0
 15 16  2  0  0  0  0
 15 22  1  0  0  0  0
 16 23  1  0  0  0  0
M  END
> <PUBCHEM_COMPOUND_CID>
182886

> <PUBCHEM_CONFORMER_RMSD>
0.6

> <PUBCHEM_CONFORMER_DIVERSEORDER>
1
13
9
15
12
14
6
10
2
16
11
4
3
5
7
8

> <PUBCHEM_MMFF94_PARTIAL_CHARGES>
26
1 -0.17
10 0.08
11 -0.15
12 -0.15
13 -0.15
14 -0.15
15 -0.15
16 -0.15
17 0.15
18 0.15
19 0.15
2 -0.53
20 0.15
21 0.15
22 0.15
23 0.15
24 0.45
25 0.45
26 0.45
3 -0.53
4 -0.53
5 0.08
6 0.08
7 0.08
8 -0.15
9 0.08

> <PUBCHEM_EFFECTIVE_ROTOR_COUNT>
2

> <PUBCHEM_PHARMACOPHORE_FEATURES>
6
1 1 acceptor
1 2 donor
1 3 donor
1 4 donor
6 5 7 8 10 12 13 rings
6 6 9 11 14 15 16 rings

> <PUBCHEM_HEAVY_ATOM_COUNT>
16

> <PUBCHEM_ATOM_DEF_STEREO_COUNT>
0

> <PUBCHEM_ATOM_UDEF_STEREO_COUNT>
0

> <PUBCHEM_BOND_DEF_STEREO_COUNT>
0

> <PUBCHEM_BOND_UDEF_STEREO_COUNT>
0

> <PUBCHEM_ISOTOPIC_ATOM_COUNT>
0

> <PUBCHEM_COMPONENT_COUNT>
1

> <PUBCHEM_CACTVS_TAUTO_COUNT>
23

> <PUBCHEM_CONFORMER_ID>
0002CA6600000001

> <PUBCHEM_MMFF94_ENERGY>
52.2661

> <PUBCHEM_FEATURE_SELFOVERLAP>
30.45

> <PUBCHEM_SHAPE_FINGERPRINT>
10366900 7 18410291385046400175
10608611 8 18410299094497197081
1100329 8 14735355880118589377
11471102 22 18113614590682272606
11578080 2 15409512994920498181
11640471 11 15502366833712176419
12236239 1 15791452638336637223
124424 183 18338244850596641332
12500047 106 17988092204272006389
12932764 1 18261110729621226134
13296908 3 18411420596420416456
13581323 91 17704075079421229411
15219456 202 18408606933169428368
15309172 13 17676485038503899207
15653759 3 18342458127488187913
15775835 57 15647048248743387401
16752209 62 16916801656143009363
16945 1 17676486155342972076
17804303 29 18201714055127336579
18186145 218 17458626670958112716
19049666 15 18266740375316169933
19107657 47 17822012003709691849
19422 9 15913330216583511792
200 152 17531539698117178759
20279233 1 18410009935981983175
20361792 2 15482399646743660639
20645464 45 18411420600984460987
20645477 70 18041287642213108286
20715346 28 18410578370381775213
22112679 90 16415474973834034501
22169311 14 18409727348492581563
23175994 123 18188483687692472012
232386 152 17203610337441453339
23402539 116 18341900676037177167
23526113 38 18120101829366036926
23559900 14 18273496797228474110
474 4 16154570657346694160
6049 1 18341335517500238396
69090 78 18334582309041058479
77492 1 15791735199913751965
8809292 202 18413670227217601522

> <PUBCHEM_SHAPE_MULTIPOLES>
305.8
7.21
1.64
1.24
0
0.11
-0.03
-0.84
1.55
0.18
0.02
-0.2
0.06
1.57

> <PUBCHEM_SHAPE_SELFOVERLAP>
666.164

> <PUBCHEM_SHAPE_VOLUME>
166.3

> <PUBCHEM_COORDINATE_TYPE>
2
5
10

$$$$

