12185
  -OEChem-06261206383D

 15 14  0     0  0  0  0  0  0999 V2000
    3.1845   -0.1602   -0.0026 S   0  0  0  0  0  0  0  0  0  0  0  0
   -0.7589   -0.4596    0.0010 O   0  0  0  0  0  0  0  0  0  0  0  0
    0.6367    1.3739    0.0007 O   0  0  0  0  0  0  0  0  0  0  0  0
   -1.8971    0.4085   -0.0009 C   0  0  0  0  0  0  0  0  0  0  0  0
   -3.1571   -0.4305   -0.0013 C   0  0  0  0  0  0  0  0  0  0  0  0
    1.5324   -0.8958    0.0015 C   0  0  0  0  0  0  0  0  0  0  0  0
    0.4595    0.1638    0.0016 C   0  0  0  0  0  0  0  0  0  0  0  0
   -1.8744    1.0420    0.8929 H   0  0  0  0  0  0  0  0  0  0  0  0
   -1.8727    1.0404   -0.8957 H   0  0  0  0  0  0  0  0  0  0  0  0
   -4.0487    0.2027   -0.0027 H   0  0  0  0  0  0  0  0  0  0  0  0
   -3.1853   -1.0830   -0.8802 H   0  0  0  0  0  0  0  0  0  0  0  0
   -3.1869   -1.0814    0.8787 H   0  0  0  0  0  0  0  0  0  0  0  0
    1.4249   -1.5143   -0.8940 H   0  0  0  0  0  0  0  0  0  0  0  0
    1.4271   -1.5142    0.8973 H   0  0  0  0  0  0  0  0  0  0  0  0
    3.0755    0.4742    1.1740 H   0  0  0  0  0  0  0  0  0  0  0  0
  1  6  1  0  0  0  0
  1 15  1  0  0  0  0
  2  4  1  0  0  0  0
  2  7  1  0  0  0  0
  3  7  2  0  0  0  0
  4  5  1  0  0  0  0
  4  8  1  0  0  0  0
  4  9  1  0  0  0  0
  5 10  1  0  0  0  0
  5 11  1  0  0  0  0
  5 12  1  0  0  0  0
  6  7  1  0  0  0  0
  6 13  1  0  0  0  0
  6 14  1  0  0  0  0
M  END
> <PUBCHEM_COMPOUND_CID>
12185

> <PUBCHEM_CONFORMER_RMSD>
0.4

> <PUBCHEM_CONFORMER_DIVERSEORDER>
1
52
32
41
50
33
36
42
25
18
35
3
51
2
34
6
39
19
46
22
43
54
40
7
24
23
47
17
45
11
28
53
29
8
16
44
10
26
27
9
37
38
12
48
13
14
21
15
20
4
49
5
31
30

> <PUBCHEM_MMFF94_PARTIAL_CHARGES>
7
1 -0.41
15 0.18
2 -0.43
3 -0.57
4 0.28
6 0.29
7 0.66

> <PUBCHEM_EFFECTIVE_ROTOR_COUNT>
3

> <PUBCHEM_PHARMACOPHORE_FEATURES>
1
1 3 acceptor

> <PUBCHEM_HEAVY_ATOM_COUNT>
7

> <PUBCHEM_ATOM_DEF_STEREO_COUNT>
0

> <PUBCHEM_ATOM_UDEF_STEREO_COUNT>
0

> <PUBCHEM_BOND_DEF_STEREO_COUNT>
0

> <PUBCHEM_BOND_UDEF_STEREO_COUNT>
0

> <PUBCHEM_ISOTOPIC_ATOM_COUNT>
0

> <PUBCHEM_COMPONENT_COUNT>
1

> <PUBCHEM_CACTVS_TAUTO_COUNT>
1

> <PUBCHEM_CONFORMER_ID>
00002F9900000001

> <PUBCHEM_MMFF94_ENERGY>
4.461

> <PUBCHEM_FEATURE_SELFOVERLAP>
5.074

> <PUBCHEM_SHAPE_FINGERPRINT>
11062470 55 18410856576824953010
12932764 1 15647345176896429646
14325111 11 18410855473023652162
16714656 1 18335139825559845150
23552423 10 17984415510567035426
29004967 10 18411697711942089642
5460574 1 9223228546292494178

> <PUBCHEM_SHAPE_MULTIPOLES>
136.17
4.96
1.01
0.6
0.52
0.18
0
-0.82
0.01
-0.15
0
-0.05
-0.01
0

> <PUBCHEM_SHAPE_SELFOVERLAP>
235.646

> <PUBCHEM_SHAPE_VOLUME>
91.8

> <PUBCHEM_COORDINATE_TYPE>
2
5
10

$$$$

