102928
  -OEChem-07051213153D

 33 35  0     1  0  0  0  0  0999 V2000
    0.7939   -0.8527   -0.0770 O   0  0  0  0  0  0  0  0  0  0  0  0
    2.6972    2.7804   -0.1693 O   0  0  0  0  0  0  0  0  0  0  0  0
   -5.4499   -0.3267    0.0999 O   0  0  0  0  0  0  0  0  0  0  0  0
    0.1657    0.3189    0.4663 C   0  0  1  0  0  0  0  0  0  0  0  0
    0.6241    1.5771   -0.2684 C   0  0  0  0  0  0  0  0  0  0  0  0
   -1.3354    0.1461    0.3687 C   0  0  0  0  0  0  0  0  0  0  0  0
    2.1209    1.6993   -0.1477 C   0  0  0  0  0  0  0  0  0  0  0  0
    2.8695    0.4276   -0.0733 C   0  0  0  0  0  0  0  0  0  0  0  0
    2.1629   -0.7787   -0.0646 C   0  0  0  0  0  0  0  0  0  0  0  0
   -2.1086    0.0953    1.5284 C   0  0  0  0  0  0  0  0  0  0  0  0
   -1.9440    0.0385   -0.8813 C   0  0  0  0  0  0  0  0  0  0  0  0
    4.2664    0.4274   -0.0554 C   0  0  0  0  0  0  0  0  0  0  0  0
    2.8570   -1.9893   -0.0723 C   0  0  0  0  0  0  0  0  0  0  0  0
   -3.4914   -0.0634    1.4378 C   0  0  0  0  0  0  0  0  0  0  0  0
   -3.3269   -0.1200   -0.9719 C   0  0  0  0  0  0  0  0  0  0  0  0
   -4.1006   -0.1711    0.1876 C   0  0  0  0  0  0  0  0  0  0  0  0
    4.9548   -0.7863   -0.0424 C   0  0  0  0  0  0  0  0  0  0  0  0
    4.2521   -1.9918   -0.0559 C   0  0  0  0  0  0  0  0  0  0  0  0
   -6.0078   -0.4305   -1.2092 C   0  0  0  0  0  0  0  0  0  0  0  0
    0.4481    0.3867    1.5275 H   0  0  0  0  0  0  0  0  0  0  0  0
    0.1591    2.4664    0.1715 H   0  0  0  0  0  0  0  0  0  0  0  0
    0.3942    1.5497   -1.3395 H   0  0  0  0  0  0  0  0  0  0  0  0
   -1.6487    0.1779    2.5094 H   0  0  0  0  0  0  0  0  0  0  0  0
   -1.3570    0.0641   -1.7953 H   0  0  0  0  0  0  0  0  0  0  0  0
    4.8322    1.3547   -0.0618 H   0  0  0  0  0  0  0  0  0  0  0  0
    2.3192   -2.9335   -0.0805 H   0  0  0  0  0  0  0  0  0  0  0  0
   -4.0889   -0.1026    2.3445 H   0  0  0  0  0  0  0  0  0  0  0  0
   -3.7347   -0.2000   -1.9737 H   0  0  0  0  0  0  0  0  0  0  0  0
    6.0409   -0.7930   -0.0308 H   0  0  0  0  0  0  0  0  0  0  0  0
    4.7925   -2.9340   -0.0533 H   0  0  0  0  0  0  0  0  0  0  0  0
   -5.8475    0.4849   -1.7887 H   0  0  0  0  0  0  0  0  0  0  0  0
   -7.0899   -0.5486   -1.0910 H   0  0  0  0  0  0  0  0  0  0  0  0
   -5.6443   -1.3216   -1.7320 H   0  0  0  0  0  0  0  0  0  0  0  0
  1  4  1  0  0  0  0
  1  9  1  0  0  0  0
  2  7  2  0  0  0  0
  3 16  1  0  0  0  0
  3 19  1  0  0  0  0
  4  5  1  0  0  0  0
  4  6  1  0  0  0  0
  4 20  1  0  0  0  0
  5  7  1  0  0  0  0
  5 21  1  0  0  0  0
  5 22  1  0  0  0  0
  6 10  2  0  0  0  0
  6 11  1  0  0  0  0
  7  8  1  0  0  0  0
  8  9  1  0  0  0  0
  8 12  2  0  0  0  0
  9 13  2  0  0  0  0
 10 14  1  0  0  0  0
 10 23  1  0  0  0  0
 11 15  2  0  0  0  0
 11 24  1  0  0  0  0
 12 17  1  0  0  0  0
 12 25  1  0  0  0  0
 13 18  1  0  0  0  0
 13 26  1  0  0  0  0
 14 16  2  0  0  0  0
 14 27  1  0  0  0  0
 15 16  1  0  0  0  0
 15 28  1  0  0  0  0
 17 18  2  0  0  0  0
 17 29  1  0  0  0  0
 18 30  1  0  0  0  0
 19 31  1  0  0  0  0
 19 32  1  0  0  0  0
 19 33  1  0  0  0  0
M  END
> <PUBCHEM_COMPOUND_CID>
102928

> <PUBCHEM_CONFORMER_RMSD>
0.6

> <PUBCHEM_CONFORMER_DIVERSEORDER>
1
8
7
5
3
2
6
4

> <PUBCHEM_MMFF94_PARTIAL_CHARGES>
27
1 -0.36
10 -0.15
11 -0.15
12 -0.15
13 -0.15
14 -0.15
15 -0.15
16 0.08
17 -0.15
18 -0.15
19 0.28
2 -0.57
23 0.15
24 0.15
25 0.15
26 0.15
27 0.15
28 0.15
29 0.15
3 -0.36
30 0.15
4 0.42
5 0.06
6 -0.14
7 0.42
8 0.09
9 0.08

> <PUBCHEM_EFFECTIVE_ROTOR_COUNT>
2.6

> <PUBCHEM_PHARMACOPHORE_FEATURES>
6
1 1 acceptor
1 2 acceptor
1 3 acceptor
6 1 4 5 7 8 9 rings
6 6 10 11 14 15 16 rings
6 8 9 12 13 17 18 rings

> <PUBCHEM_HEAVY_ATOM_COUNT>
19

> <PUBCHEM_ATOM_DEF_STEREO_COUNT>
0

> <PUBCHEM_ATOM_UDEF_STEREO_COUNT>
1

> <PUBCHEM_BOND_DEF_STEREO_COUNT>
0

> <PUBCHEM_BOND_UDEF_STEREO_COUNT>
0

> <PUBCHEM_ISOTOPIC_ATOM_COUNT>
0

> <PUBCHEM_COMPONENT_COUNT>
1

> <PUBCHEM_CACTVS_TAUTO_COUNT>
2

> <PUBCHEM_CONFORMER_ID>
0001921000000001

> <PUBCHEM_MMFF94_ENERGY>
63.3177

> <PUBCHEM_FEATURE_SELFOVERLAP>
30.476

> <PUBCHEM_SHAPE_FINGERPRINT>
10366900 7 17775281694271892195
11471102 20 18413103948959976712
12107183 9 17393872282107171483
12236239 1 17749389265179886593
12596602 18 17167866365447635818
12616971 3 18114172030751822577
12670546 56 17894630357252188233
13134695 92 18412262839792472996
13140716 1 18194965145956819896
13167823 11 18261112946299377295
13533116 47 18186523185102831641
13544592 145 17846777399656387187
13862211 1 18338797927106583970
14386348 63 17704068495262835891
14573314 32 17775288296063777295
14863182 85 16660637471078426270
15242439 84 17632577154192744195
15848702 151 18409162251066145959
15961568 22 16271357479556349052
17349148 13 17530964687605452847
17357779 13 18131357435521283788
17834072 33 18261675887657394359
1813 80 18116138034703946222
18222031 100 18334574685468716226
19784866 240 18187363255215901727
200 152 18333452053942048881
20028762 73 18041284352285003974
20279233 1 17774997994539130011
20369508 70 18202571691577285954
20612939 158 18411979131205850132
20645477 70 18342178855929822838
21065201 7 16630526198527250905
21267235 1 18335977662443025566
21285901 2 17846502590131524654
21641784 216 17915437567616863172
221357 26 18272378594014211717
221490 88 18270391673033286498
2215653 11 18060704996258946959
22224240 67 18261122825277793080
2255824 54 18335414626505667348
22646028 1 17967250918428453763
22646028 28 18040715874570573519
23175994 123 18060132150569227757
23402539 116 15791737421139960985
23536379 177 18408324402511555441
23557571 272 17060345140510185141
23559900 14 17131829854556319750
26918003 58 18341891891874261827
2871803 45 18130786810825145042
29717793 49 18040433304662065341
34797466 226 16271626949951799230
42630746 31 18335423431294177544
465052 167 18334571347746585598
474 4 18117280246691558664
5281201 14 18202284718689242613
573450 72 17240479230422133323
602551 16 15140971620737292206
633830 44 16773518755039716877
7471813 234 18040721367707645113
77492 1 17749382655104067761
9981440 41 17250916636322399888

> <PUBCHEM_SHAPE_MULTIPOLES>
373.4
11.62
1.78
1.05
8.71
0.57
-0.19
-3.7
1.83
-2.89
0.17
1.41
-0.03
-0.28

> <PUBCHEM_SHAPE_SELFOVERLAP>
819.019

> <PUBCHEM_SHAPE_VOLUME>
201.6

> <PUBCHEM_COORDINATE_TYPE>
2
5
10

$$$$

