442041
  -OEChem-07051212562D

 63 66  0     1  0  0  0  0  0999 V2000
    5.5600    1.3025    0.0000 O   0  0  0  0  0  0  0  0  0  0  0  0
    6.2718    1.5326    0.0000 O   0  0  0  0  0  0  0  0  0  0  0  0
    3.7320   -1.8160    0.0000 O   0  0  0  0  0  0  0  0  0  0  0  0
    7.3860   -2.8147    0.0000 O   0  0  0  0  0  0  0  0  0  0  0  0
    9.9168   -0.5477    0.0000 O   0  0  0  0  0  0  0  0  0  0  0  0
    3.8281    1.3273    0.0000 O   0  0  0  0  0  0  0  0  0  0  0  0
    2.8643   -0.3170    0.0000 O   0  0  0  0  0  0  0  0  0  0  0  0
    6.4753   -0.2568    0.0000 C   0  0  1  0  0  0  0  0  0  0  0  0
    7.3828    0.2545    0.0000 C   0  0  1  0  0  0  0  0  0  0  0  0
    8.2513   -0.2411    0.0000 C   0  0  2  0  0  0  0  0  0  0  0  0
    6.4725   -1.2985    0.0000 C   0  0  1  0  0  0  0  0  0  0  0  0
    5.5398   -1.8528    0.0000 C   0  0  0  0  0  0  0  0  0  0  0  0
    8.2268    0.9402    0.0000 C   0  0  0  0  0  0  0  0  0  0  0  0
    7.2288    1.2426    0.0000 C   0  0  1  0  0  0  0  0  0  0  0  0
    5.5457    0.3026    0.0000 C   0  0  1  0  0  0  0  0  0  0  0  0
    8.2726   -1.2826    0.0000 C   0  0  0  0  0  0  0  0  0  0  0  0
    8.9029    1.9093    0.0000 C   0  0  1  0  0  0  0  0  0  0  0  0
    7.9053    1.9790    0.0000 C   0  0  0  0  0  0  0  0  0  0  0  0
    7.3772   -1.8148    0.0000 C   0  0  0  0  0  0  0  0  0  0  0  0
    4.5975   -1.3150    0.0000 C   0  0  2  0  0  0  0  0  0  0  0  0
    9.1804    0.1288    0.0000 C   0  0  0  0  0  0  0  0  0  0  0  0
    4.6005   -0.2300    0.0000 C   0  0  0  0  0  0  0  0  0  0  0  0
    6.1359    0.6838    0.0000 C   0  0  0  0  0  0  0  0  0  0  0  0
    9.4703    1.0859    0.0000 C   0  0  0  0  0  0  0  0  0  0  0  0
    5.0475   -2.7233    0.0000 C   0  0  0  0  0  0  0  0  0  0  0  0
    6.0475   -2.7144    0.0000 C   0  0  0  0  0  0  0  0  0  0  0  0
   10.4584    1.2398    0.0000 C   0  0  0  0  0  0  0  0  0  0  0  0
    4.7012    1.8148    0.0000 C   0  0  0  0  0  0  0  0  0  0  0  0
    2.8655   -1.3170    0.0000 C   0  0  0  0  0  0  0  0  0  0  0  0
    4.7155    2.8147    0.0000 C   0  0  0  0  0  0  0  0  0  0  0  0
    2.0000   -1.8180    0.0000 C   0  0  0  0  0  0  0  0  0  0  0  0
    6.6446    0.6759    0.0000 H   0  0  0  0  0  0  0  0  0  0  0  0
    6.4800   -2.1484    0.0000 H   0  0  0  0  0  0  0  0  0  0  0  0
    7.8526    1.4345    0.0000 H   0  0  0  0  0  0  0  0  0  0  0  0
    7.6412    0.7368    0.0000 H   0  0  0  0  0  0  0  0  0  0  0  0
    7.0654    1.8407    0.0000 H   0  0  0  0  0  0  0  0  0  0  0  0
    5.0126    0.6192    0.0000 H   0  0  0  0  0  0  0  0  0  0  0  0
    8.4935   -1.8618    0.0000 H   0  0  0  0  0  0  0  0  0  0  0  0
    8.8811   -1.1640    0.0000 H   0  0  0  0  0  0  0  0  0  0  0  0
    9.1494    2.7228    0.0000 H   0  0  0  0  0  0  0  0  0  0  0  0
    8.0851    2.5724    0.0000 H   0  0  0  0  0  0  0  0  0  0  0  0
    7.3669    2.2864    0.0000 H   0  0  0  0  0  0  0  0  0  0  0  0
    4.0608   -1.0046    0.0000 H   0  0  0  0  0  0  0  0  0  0  0  0
    4.3930    0.3542    0.0000 H   0  0  0  0  0  0  0  0  0  0  0  0
    3.9893   -0.3345    0.0000 H   0  0  0  0  0  0  0  0  0  0  0  0
    6.7191    0.8942    0.0000 H   0  0  0  0  0  0  0  0  0  0  0  0
    5.9254    1.2670    0.0000 H   0  0  0  0  0  0  0  0  0  0  0  0
    5.5527    0.4733    0.0000 H   0  0  0  0  0  0  0  0  0  0  0  0
    4.5079   -2.4180    0.0000 H   0  0  0  0  0  0  0  0  0  0  0  0
    4.7423   -3.2629    0.0000 H   0  0  0  0  0  0  0  0  0  0  0  0
    5.5872   -3.0285    0.0000 H   0  0  0  0  0  0  0  0  0  0  0  0
    5.5133   -3.0292    0.0000 H   0  0  0  0  0  0  0  0  0  0  0  0
    6.3622   -3.2486    0.0000 H   0  0  0  0  0  0  0  0  0  0  0  0
    6.5816   -2.3997    0.0000 H   0  0  0  0  0  0  0  0  0  0  0  0
    6.1308    2.1364    0.0000 H   0  0  0  0  0  0  0  0  0  0  0  0
   10.8474    0.7570    0.0000 H   0  0  0  0  0  0  0  0  0  0  0  0
   10.6820    1.8181    0.0000 H   0  0  0  0  0  0  0  0  0  0  0  0
    5.3354    2.8059    0.0000 H   0  0  0  0  0  0  0  0  0  0  0  0
    4.7243    3.4347    0.0000 H   0  0  0  0  0  0  0  0  0  0  0  0
    4.0955    2.8236    0.0000 H   0  0  0  0  0  0  0  0  0  0  0  0
    1.6894   -1.2814    0.0000 H   0  0  0  0  0  0  0  0  0  0  0  0
    1.4634   -2.1286    0.0000 H   0  0  0  0  0  0  0  0  0  0  0  0
    2.3106   -2.3546    0.0000 H   0  0  0  0  0  0  0  0  0  0  0  0
 15  1  1  1  0  0  0
  1 28  1  0  0  0  0
 14  2  1  6  0  0  0
  2 55  1  0  0  0  0
 20  3  1  1  0  0  0
  3 29  1  0  0  0  0
  4 19  2  0  0  0  0
  5 21  2  0  0  0  0
  6 28  2  0  0  0  0
  7 29  2  0  0  0  0
  8  9  1  0  0  0  0
  8 11  1  0  0  0  0
  8 15  1  0  0  0  0
  8 23  1  6  0  0  0
  9 10  1  0  0  0  0
  9 14  1  0  0  0  0
  9 32  1  1  0  0  0
 10 13  1  0  0  0  0
 10 16  1  6  0  0  0
 10 21  1  0  0  0  0
 11 12  1  0  0  0  0
 11 19  1  0  0  0  0
 11 33  1  1  0  0  0
 12 20  1  0  0  0  0
 12 25  1  0  0  0  0
 12 26  1  0  0  0  0
 13 17  1  0  0  0  0
 13 34  1  0  0  0  0
 13 35  1  0  0  0  0
 14 18  1  0  0  0  0
 14 36  1  0  0  0  0
 15 22  1  0  0  0  0
 15 37  1  0  0  0  0
 16 19  1  0  0  0  0
 16 38  1  0  0  0  0
 16 39  1  0  0  0  0
 17 18  1  0  0  0  0
 17 24  1  0  0  0  0
 17 40  1  6  0  0  0
 18 41  1  0  0  0  0
 18 42  1  0  0  0  0
 20 22  1  0  0  0  0
 20 43  1  0  0  0  0
 21 24  1  0  0  0  0
 22 44  1  0  0  0  0
 22 45  1  0  0  0  0
 23 46  1  0  0  0  0
 23 47  1  0  0  0  0
 23 48  1  0  0  0  0
 24 27  2  0  0  0  0
 25 49  1  0  0  0  0
 25 50  1  0  0  0  0
 25 51  1  0  0  0  0
 26 52  1  0  0  0  0
 26 53  1  0  0  0  0
 26 54  1  0  0  0  0
 27 56  1  0  0  0  0
 27 57  1  0  0  0  0
 28 30  1  0  0  0  0
 29 31  1  0  0  0  0
 30 58  1  0  0  0  0
 30 59  1  0  0  0  0
 30 60  1  0  0  0  0
 31 61  1  0  0  0  0
 31 62  1  0  0  0  0
 31 63  1  0  0  0  0
M  END
> <PUBCHEM_COMPOUND_CID>
442041

> <PUBCHEM_COMPOUND_CANONICALIZED>
1

> <PUBCHEM_CACTVS_COMPLEXITY>
888

> <PUBCHEM_CACTVS_HBOND_ACCEPTOR>
7

> <PUBCHEM_CACTVS_HBOND_DONOR>
1

> <PUBCHEM_CACTVS_ROTATABLE_BOND>
4

> <PUBCHEM_CACTVS_SUBSKEYS>
AAADcfB4OAAAAAAAAAAAAAAAAAAAAYAAAAAwYMAABgAAAADAAAAAGgAACAAADxSggAICCAAABgCIAoDSCAAAAAAgAAAAAAEAAEgAEBIAAQACQAAFgAAAAIHL7PzPgAAAAAAAAADAAAYQADAAAQAAAAAAAA==

> <PUBCHEM_IUPAC_INCHI>
InChI=1S/C24H32O7/c1-11-14-7-15(27)20-23(6)18(31-13(3)26)8-17(30-12(2)25)22(4,5)19(23)16(28)10-24(20,9-14)21(11)29/h14-15,17-20,27H,1,7-10H2,2-6H3/t14-,15-,17+,18-,19-,20+,23-,24+/m1/s1

> <PUBCHEM_IUPAC_INCHIKEY>
YVMIOJMVICZZJA-UIZRKYKGSA-N

> <PUBCHEM_XLOGP3_AA>
1.8

> <PUBCHEM_EXACT_MASS>
432.214803

> <PUBCHEM_MOLECULAR_FORMULA>
C24H32O7

> <PUBCHEM_MOLECULAR_WEIGHT>
432.50668

> <PUBCHEM_OPENEYE_CAN_SMILES>
CC(=O)OC1CC(C2(C3C(CC4CC3(CC(=O)C2C1(C)C)C(=O)C4=C)O)C)OC(=O)C

> <PUBCHEM_OPENEYE_ISO_SMILES>
CC(=O)O[C@@H]1C[C@@H](C([C@@H]2[C@@]1([C@@H]3[C@@H](C[C@@H]4C[C@@]3(CC2=O)C(=O)C4=C)O)C)(C)C)OC(=O)C

> <PUBCHEM_CACTVS_TPSA>
107

> <PUBCHEM_MONOISOTOPIC_WEIGHT>
432.214803

> <PUBCHEM_TOTAL_CHARGE>
0

> <PUBCHEM_HEAVY_ATOM_COUNT>
31

> <PUBCHEM_ATOM_DEF_STEREO_COUNT>
8

> <PUBCHEM_ATOM_UDEF_STEREO_COUNT>
0

> <PUBCHEM_BOND_DEF_STEREO_COUNT>
0

> <PUBCHEM_BOND_UDEF_STEREO_COUNT>
0

> <PUBCHEM_ISOTOPIC_ATOM_COUNT>
0

> <PUBCHEM_COMPONENT_COUNT>
1

> <PUBCHEM_CACTVS_TAUTO_COUNT>
3

> <PUBCHEM_COORDINATE_TYPE>
1
5
255

> <PUBCHEM_BONDANNOTATIONS>
15  1  5
10  16  6
11  33  5
17  40  6
14  2  6
20  3  5
8  23  6
9  32  5

$$$$

