11954164
  -OEChem-07051213073D

 45 48  0     1  0  0  0  0  0999 V2000
   -3.4628    0.9546    0.5287 O   0  0  0  0  0  0  0  0  0  0  0  0
    5.2994    0.6835    1.3569 O   0  0  0  0  0  0  0  0  0  0  0  0
   -5.5642    0.1831    0.7800 O   0  0  0  0  0  0  0  0  0  0  0  0
    0.7754    0.4902    0.0668 C   0  0  1  0  0  0  0  0  0  0  0  0
   -0.1268   -0.6868   -0.4275 C   0  0  2  0  0  0  0  0  0  0  0  0
   -1.5490   -0.5451    0.1802 C   0  0  1  0  0  0  0  0  0  0  0  0
    2.2363    0.3877   -0.4670 C   0  0  2  0  0  0  0  0  0  0  0  0
   -2.1969    0.8108   -0.1689 C   0  0  2  0  0  0  0  0  0  0  0  0
    0.1281    1.8577   -0.2219 C   0  0  0  0  0  0  0  0  0  0  0  0
    0.5225   -2.0453   -0.0730 C   0  0  0  0  0  0  0  0  0  0  0  0
   -1.2896    1.9446    0.3385 C   0  0  0  0  0  0  0  0  0  0  0  0
    2.7672   -0.9967   -0.1611 C   0  0  0  0  0  0  0  0  0  0  0  0
    1.9571   -2.1750   -0.5864 C   0  0  0  0  0  0  0  0  0  0  0  0
   -2.5213   -1.6601   -0.1973 C   0  0  0  0  0  0  0  0  0  0  0  0
    3.2083    1.3047    0.3104 C   0  0  0  0  0  0  0  0  0  0  0  0
    2.3591    0.6702   -1.9767 C   0  0  0  0  0  0  0  0  0  0  0  0
   -2.5030    1.0162   -1.6661 C   0  0  0  0  0  0  0  0  0  0  0  0
    3.9156   -1.0430    0.5185 C   0  0  0  0  0  0  0  0  0  0  0  0
   -3.8519   -1.4593    0.5085 C   0  0  0  0  0  0  0  0  0  0  0  0
    4.2709    0.3539    0.7854 C   0  0  0  0  0  0  0  0  0  0  0  0
   -4.3745   -0.0459    0.5722 C   0  0  0  0  0  0  0  0  0  0  0  0
    0.8251    0.3971    1.1640 H   0  0  0  0  0  0  0  0  0  0  0  0
   -0.2088   -0.6429   -1.5201 H   0  0  0  0  0  0  0  0  0  0  0  0
   -1.4423   -0.5926    1.2754 H   0  0  0  0  0  0  0  0  0  0  0  0
    0.0990    2.0516   -1.2990 H   0  0  0  0  0  0  0  0  0  0  0  0
    0.7285    2.6601    0.2215 H   0  0  0  0  0  0  0  0  0  0  0  0
   -0.0587   -2.8682   -0.5027 H   0  0  0  0  0  0  0  0  0  0  0  0
    0.5124   -2.1822    1.0164 H   0  0  0  0  0  0  0  0  0  0  0  0
   -1.2505    1.9173    1.4360 H   0  0  0  0  0  0  0  0  0  0  0  0
   -1.7269    2.9209    0.0930 H   0  0  0  0  0  0  0  0  0  0  0  0
    1.9544   -2.2416   -1.6806 H   0  0  0  0  0  0  0  0  0  0  0  0
    2.3930   -3.1094   -0.2139 H   0  0  0  0  0  0  0  0  0  0  0  0
   -2.1335   -2.6416    0.0943 H   0  0  0  0  0  0  0  0  0  0  0  0
   -2.6676   -1.6986   -1.2824 H   0  0  0  0  0  0  0  0  0  0  0  0
    2.7465    1.7685    1.1877 H   0  0  0  0  0  0  0  0  0  0  0  0
    3.6601    2.0769   -0.3197 H   0  0  0  0  0  0  0  0  0  0  0  0
    3.3756    0.4687   -2.3371 H   0  0  0  0  0  0  0  0  0  0  0  0
    1.6791    0.0524   -2.5715 H   0  0  0  0  0  0  0  0  0  0  0  0
    2.1430    1.7189   -2.2065 H   0  0  0  0  0  0  0  0  0  0  0  0
   -1.6225    0.9025   -2.3030 H   0  0  0  0  0  0  0  0  0  0  0  0
   -3.2731    0.3251   -2.0240 H   0  0  0  0  0  0  0  0  0  0  0  0
   -2.9125    2.0196   -1.8350 H   0  0  0  0  0  0  0  0  0  0  0  0
    4.4674   -1.9047    0.8506 H   0  0  0  0  0  0  0  0  0  0  0  0
   -3.7621   -1.8020    1.5467 H   0  0  0  0  0  0  0  0  0  0  0  0
   -4.6082   -2.0819    0.0172 H   0  0  0  0  0  0  0  0  0  0  0  0
  1  8  1  0  0  0  0
  1 21  1  0  0  0  0
  2 20  2  0  0  0  0
  3 21  2  0  0  0  0
  4  5  1  0  0  0  0
  4  7  1  0  0  0  0
  4  9  1  0  0  0  0
  4 22  1  0  0  0  0
  5  6  1  0  0  0  0
  5 10  1  0  0  0  0
  5 23  1  0  0  0  0
  6  8  1  0  0  0  0
  6 14  1  0  0  0  0
  6 24  1  0  0  0  0
  7 12  1  0  0  0  0
  7 15  1  0  0  0  0
  7 16  1  0  0  0  0
  8 11  1  0  0  0  0
  8 17  1  0  0  0  0
  9 11  1  0  0  0  0
  9 25  1  0  0  0  0
  9 26  1  0  0  0  0
 10 13  1  0  0  0  0
 10 27  1  0  0  0  0
 10 28  1  0  0  0  0
 11 29  1  0  0  0  0
 11 30  1  0  0  0  0
 12 13  1  0  0  0  0
 12 18  2  0  0  0  0
 13 31  1  0  0  0  0
 13 32  1  0  0  0  0
 14 19  1  0  0  0  0
 14 33  1  0  0  0  0
 14 34  1  0  0  0  0
 15 20  1  0  0  0  0
 15 35  1  0  0  0  0
 15 36  1  0  0  0  0
 16 37  1  0  0  0  0
 16 38  1  0  0  0  0
 16 39  1  0  0  0  0
 17 40  1  0  0  0  0
 17 41  1  0  0  0  0
 17 42  1  0  0  0  0
 18 20  1  0  0  0  0
 18 43  1  0  0  0  0
 19 21  1  0  0  0  0
 19 44  1  0  0  0  0
 19 45  1  0  0  0  0
M  END
> <PUBCHEM_COMPOUND_CID>
11954164

> <PUBCHEM_CONFORMER_RMSD>
0.6

> <PUBCHEM_CONFORMER_DIVERSEORDER>
1

> <PUBCHEM_MMFF94_PARTIAL_CHARGES>
13
1 -0.43
12 -0.28
13 0.14
15 0.06
18 -0.14
19 0.06
2 -0.57
20 0.49
21 0.66
3 -0.57
43 0.15
7 0.14
8 0.28

> <PUBCHEM_EFFECTIVE_ROTOR_COUNT>
1.6

> <PUBCHEM_PHARMACOPHORE_FEATURES>
6
1 2 acceptor
1 3 acceptor
5 7 12 15 18 20 rings
6 1 6 8 14 19 21 rings
6 4 5 6 8 9 11 rings
6 4 5 7 10 12 13 rings

> <PUBCHEM_HEAVY_ATOM_COUNT>
21

> <PUBCHEM_ATOM_DEF_STEREO_COUNT>
5

> <PUBCHEM_ATOM_UDEF_STEREO_COUNT>
0

> <PUBCHEM_BOND_DEF_STEREO_COUNT>
0

> <PUBCHEM_BOND_UDEF_STEREO_COUNT>
0

> <PUBCHEM_ISOTOPIC_ATOM_COUNT>
0

> <PUBCHEM_COMPONENT_COUNT>
1

> <PUBCHEM_CACTVS_TAUTO_COUNT>
5

> <PUBCHEM_CONFORMER_ID>
00B667F400000001

> <PUBCHEM_MMFF94_ENERGY>
56.4736

> <PUBCHEM_FEATURE_SELFOVERLAP>
30.58

> <PUBCHEM_SHAPE_FINGERPRINT>
10062212 137 18341052917605982627
10967382 1 18409726266023744159
11132069 177 18412539907995269355
12236239 1 17846494816831406092
12403259 415 18410579508996650948
12403814 3 17989486316839953181
12507560 40 18337394941241185702
12553582 1 18339067225333571861
12596602 18 17095516293280731427
13140716 1 18265333898075766753
13224815 77 18409727369830287334
13581323 91 18272370880062725292
13583140 156 17274285897029422996
13675066 3 18343866627605595858
14178342 30 18268708488356218016
14223421 5 18266171923335543092
14341114 176 18412825811283768026
14787075 74 18269277872233471762
14790565 3 17978499845857424684
15163728 17 14347176015021517411
15196674 1 18409446985807080683
15536298 74 18261105318015472838
15788980 27 16845294929961876319
16945 1 18266177421210199790
17349148 13 18202003226643243606
1813 80 17418369211873420335
18186145 218 18334294288375576014
18522853 276 18409729564727341665
19050596 39 18342454816173969027
19141452 34 18410008815475638171
19784866 240 14836410263050659024
19862831 5 9007056872459607822
200 152 18188221935490518951
20510252 161 18188208826728423481
20715895 44 17914345812404637165
20775438 99 12172486910018173801
21069387 34 15985103024520420960
21267235 1 18339067272462466115
21421861 104 18129946822158633962
21637258 2 15984815992462548355
22182313 1 18269274728096034255
22854114 59 18334011687758737595
23402539 116 18334868177183594622
23463225 33 18342453737984015158
23557571 272 18338789113115780964
23559900 14 18267018539116136918
26918003 58 17917712383579505475
2748010 2 18338510949479981158
2838139 119 15503522331040464712
296302 2 16588025697188573004
34934 24 18335144202369058935
350125 39 18337383950599418238
394222 165 17342641285436120196
465052 167 17489296469477349059
5104073 3 18265894833573274515
5374978 207 18411133645291831761
7364860 26 18115023151341257958
9709674 26 18263082278513538478

> <PUBCHEM_SHAPE_MULTIPOLES>
414.56
9.19
2.06
1.16
1.87
0.41
-0.42
-0.04
3.52
0.02
-0.14
-0.44
-0.29
0.36

> <PUBCHEM_SHAPE_SELFOVERLAP>
898.225

> <PUBCHEM_SHAPE_VOLUME>
225.7

> <PUBCHEM_COORDINATE_TYPE>
2
5
10

$$$$

