7796
  -OEChem-06261202203D

 40 39  0     0  0  0  0  0  0999 V2000
    1.0320    1.7077    1.0753 O   0  0  0  0  0  0  0  0  0  0  0  0
    1.2963    1.2167   -1.1635 O   0  0  0  0  0  0  0  0  0  0  0  0
   -3.3969    0.3094    0.0370 C   0  0  0  0  0  0  0  0  0  0  0  0
   -3.0835   -1.1541   -0.3008 C   0  0  0  0  0  0  0  0  0  0  0  0
   -2.2117    1.2390   -0.1198 C   0  0  0  0  0  0  0  0  0  0  0  0
   -1.9928   -1.7259    0.5621 C   0  0  0  0  0  0  0  0  0  0  0  0
   -1.3187    1.5181    0.8496 C   0  0  0  0  0  0  0  0  0  0  0  0
   -2.0892    1.8983   -1.4699 C   0  0  0  0  0  0  0  0  0  0  0  0
   -0.1471    2.4453    0.7821 C   0  0  0  0  0  0  0  0  0  0  0  0
   -0.8519   -2.3246    0.1717 C   0  0  0  0  0  0  0  0  0  0  0  0
    2.8896    0.3948    0.4800 C   0  0  0  0  0  0  0  0  0  0  0  0
    3.6295   -0.2878   -0.6679 C   0  0  0  0  0  0  0  0  0  0  0  0
    1.6639    1.1382    0.0007 C   0  0  0  0  0  0  0  0  0  0  0  0
   -0.4190   -2.5258   -1.2526 C   0  0  0  0  0  0  0  0  0  0  0  0
    0.1222   -2.8449    1.1950 C   0  0  0  0  0  0  0  0  0  0  0  0
    4.8773   -1.0046   -0.1789 C   0  0  0  0  0  0  0  0  0  0  0  0
   -4.2296    0.6603   -0.5852 H   0  0  0  0  0  0  0  0  0  0  0  0
   -3.7606    0.3680    1.0720 H   0  0  0  0  0  0  0  0  0  0  0  0
   -3.9904   -1.7491   -0.1365 H   0  0  0  0  0  0  0  0  0  0  0  0
   -2.8577   -1.2312   -1.3673 H   0  0  0  0  0  0  0  0  0  0  0  0
   -2.1885   -1.6551    1.6319 H   0  0  0  0  0  0  0  0  0  0  0  0
   -1.4581    1.0328    1.8149 H   0  0  0  0  0  0  0  0  0  0  0  0
   -2.8773    2.6495   -1.5883 H   0  0  0  0  0  0  0  0  0  0  0  0
   -2.2199    1.1473   -2.2576 H   0  0  0  0  0  0  0  0  0  0  0  0
   -1.1327    2.3782   -1.6739 H   0  0  0  0  0  0  0  0  0  0  0  0
   -0.2595    3.1896    1.5789 H   0  0  0  0  0  0  0  0  0  0  0  0
   -0.0374    3.0219   -0.1384 H   0  0  0  0  0  0  0  0  0  0  0  0
    2.5730   -0.3535    1.2145 H   0  0  0  0  0  0  0  0  0  0  0  0
    3.5529    1.1162    0.9702 H   0  0  0  0  0  0  0  0  0  0  0  0
    2.9676   -1.0082   -1.1629 H   0  0  0  0  0  0  0  0  0  0  0  0
    3.9126    0.4535   -1.4248 H   0  0  0  0  0  0  0  0  0  0  0  0
   -0.2732   -3.5927   -1.4523 H   0  0  0  0  0  0  0  0  0  0  0  0
   -1.1317   -2.1537   -1.9903 H   0  0  0  0  0  0  0  0  0  0  0  0
    0.5308   -2.0107   -1.4309 H   0  0  0  0  0  0  0  0  0  0  0  0
    1.0996   -2.3698    1.0646 H   0  0  0  0  0  0  0  0  0  0  0  0
   -0.2057   -2.6510    2.2217 H   0  0  0  0  0  0  0  0  0  0  0  0
    0.2453   -3.9271    1.0837 H   0  0  0  0  0  0  0  0  0  0  0  0
    4.6235   -1.7770    0.5543 H   0  0  0  0  0  0  0  0  0  0  0  0
    5.5754   -0.3027    0.2884 H   0  0  0  0  0  0  0  0  0  0  0  0
    5.3903   -1.4869   -1.0167 H   0  0  0  0  0  0  0  0  0  0  0  0
  1  9  1  0  0  0  0
  1 13  1  0  0  0  0
  2 13  2  0  0  0  0
  3  4  1  0  0  0  0
  3  5  1  0  0  0  0
  3 17  1  0  0  0  0
  3 18  1  0  0  0  0
  4  6  1  0  0  0  0
  4 19  1  0  0  0  0
  4 20  1  0  0  0  0
  5  7  2  0  0  0  0
  5  8  1  0  0  0  0
  6 10  2  0  0  0  0
  6 21  1  0  0  0  0
  7  9  1  0  0  0  0
  7 22  1  0  0  0  0
  8 23  1  0  0  0  0
  8 24  1  0  0  0  0
  8 25  1  0  0  0  0
  9 26  1  0  0  0  0
  9 27  1  0  0  0  0
 10 14  1  0  0  0  0
 10 15  1  0  0  0  0
 11 12  1  0  0  0  0
 11 13  1  0  0  0  0
 11 28  1  0  0  0  0
 11 29  1  0  0  0  0
 12 16  1  0  0  0  0
 12 30  1  0  0  0  0
 12 31  1  0  0  0  0
 14 32  1  0  0  0  0
 14 33  1  0  0  0  0
 14 34  1  0  0  0  0
 15 35  1  0  0  0  0
 15 36  1  0  0  0  0
 15 37  1  0  0  0  0
 16 38  1  0  0  0  0
 16 39  1  0  0  0  0
 16 40  1  0  0  0  0
M  END
> <PUBCHEM_COMPOUND_CID>
7796

> <PUBCHEM_CONFORMER_RMSD>
0.8

> <PUBCHEM_CONFORMER_DIVERSEORDER>
3
207
337
164
5
426
43
131
375
194
126
44
239
55
312
196
29
421
248
89
271
298
57
4
315
288
67
291
210
28
348
87
198
14
425
304
18
195
345
338
370
182
151
251
340
362
369
104
77
283
434
230
41
279
380
322
378
328
273
68
313
223
50
127
74
166
365
302
218
388
153
202
394
193
333
114
174
84
141
211
2
314
93
282
259
208
24
36
367
293
403
430
364
429
351
386
128
428
48
398
130
32
306
418
26
287
158
143
252
107
59
266
261
215
116
309
168
377
247
78
133
334
331
103
122
15
13
267
389
245
85
327
299
358
96
255
179
371
66
184
160
368
228
415
323
417
400
42
64
165
39
106
433
355
366
203
140
404
332
188
138
108
170
206
262
353
199
405
19
154
307
125
238
395
343
416
424
335
163
427
9
319
134
177
269
390
92
391
145
98
217
320
264
111
253
97
30
435
352
419
339
342
276
256
209
414
118
408
384
149
240
148
216
258
329
254
347
35
229
212
6
280
76
396
155
191
100
123
249
423
190
56
235
321
181
325
152
220
120
11
363
406
200
385
232
301
21
45
187
113
372
356
175
52
268
379
180
234
173
311
221
16
63
285
156
201
54
86
129
226
402
80
263
132
422
381
23
344
121
20
12
431
272
186
53
387
244
157
33
192
336
25
401
317
214
341
8
399
117
224
349
110
49
27
382
292
407
303
139
22
411
167
75
289
374
183
236
222
326
47
373
204
102
124
350
94
233
176
46
227
189
300
432
257
296
410
115
95
159
34
397
37
162
178
88
61
136
144
359
38
205
231
70
73
79
242
270
69
60
213
277
161
318
420
65
101
150
91
354
51
361
99
146
72
275
310
90
265
290
119
393
246
147
295
1
250
135
241
294
308
297
330
17
83
10
169
137
81
112
376
109
172
142
225
409
383
324
274
58
278
237
82
346
260
185
71
31
219
316
7
357
412
243
105
360
392
413
171
197
286
284
281
62
40
305

> <PUBCHEM_MMFF94_PARTIAL_CHARGES>
16
1 -0.43
10 -0.28
11 0.06
13 0.66
14 0.14
15 0.14
2 -0.57
21 0.15
22 0.15
3 0.14
4 0.14
5 -0.28
6 -0.29
7 -0.29
8 0.14
9 0.42

> <PUBCHEM_EFFECTIVE_ROTOR_COUNT>
8

> <PUBCHEM_PHARMACOPHORE_FEATURES>
5
1 16 hydrophobe
1 2 acceptor
1 8 hydrophobe
3 10 14 15 hydrophobe
4 3 4 5 6 hydrophobe

> <PUBCHEM_HEAVY_ATOM_COUNT>
16

> <PUBCHEM_ATOM_DEF_STEREO_COUNT>
0

> <PUBCHEM_ATOM_UDEF_STEREO_COUNT>
0

> <PUBCHEM_BOND_DEF_STEREO_COUNT>
0

> <PUBCHEM_BOND_UDEF_STEREO_COUNT>
1

> <PUBCHEM_ISOTOPIC_ATOM_COUNT>
0

> <PUBCHEM_COMPONENT_COUNT>
1

> <PUBCHEM_CACTVS_TAUTO_COUNT>
1

> <PUBCHEM_CONFORMER_ID>
00001E7400000003

> <PUBCHEM_MMFF94_ENERGY>
11.4684

> <PUBCHEM_FEATURE_SELFOVERLAP>
25.377

> <PUBCHEM_SHAPE_FINGERPRINT>
10759866 29 18272356556821605742
11458722 379 18411416249950754450
1420 336 18193279585303240603
14251711 518 17254833070764660743
14251740 79 18338788048496920498
14251745 187 18115868667108550442
14251751 93 18131073791744012446
14251757 5 18268972225624418302
17977361 122 18340210781809010618
20645476 183 17847062177009358843
20905425 154 18265335199456229623
22802520 49 17979072674192682075
23559900 14 18334298665443480152
5282940 2 17912361241060947202
598444 67 18268710520070700467
81228 2 17908154178817649169
8809292 202 18408882919404664568

> <PUBCHEM_SHAPE_MULTIPOLES>
317.53
6.24
3.41
1.22
6.93
1.38
0.17
0.66
1.04
-1.21
-0.39
-0.14
-0.05
0.34

> <PUBCHEM_SHAPE_SELFOVERLAP>
597.574

> <PUBCHEM_SHAPE_VOLUME>
197.8

> <PUBCHEM_COORDINATE_TYPE>
2
5
10

$$$$

