227671
  -OEChem-07051213063D

 54 57  0     1  0  0  0  0  0999 V2000
   -6.1288   -1.9302   -0.5823 F   0  0  0  0  0  0  0  0  0  0  0  0
   -0.0660   -1.8779    1.4444 O   0  0  0  0  0  0  0  0  0  0  0  0
   -5.2746    0.2786    0.6122 O   0  0  0  0  0  0  0  0  0  0  0  0
    6.2662   -0.3739   -1.2731 O   0  0  0  0  0  0  0  0  0  0  0  0
   -1.1023    1.2015   -0.3021 C   0  0  2  0  0  0  0  0  0  0  0  0
   -2.0591    0.0496    0.0636 C   0  0  2  0  0  0  0  0  0  0  0  0
    0.2802    1.0766    0.3522 C   0  0  1  0  0  0  0  0  0  0  0  0
    0.9379   -0.2616   -0.1203 C   0  0  1  0  0  0  0  0  0  0  0  0
    2.4186   -0.4409    0.4114 C   0  0  2  0  0  0  0  0  0  0  0  0
   -1.4353   -1.2599   -0.4514 C   0  0  0  0  0  0  0  0  0  0  0  0
   -3.3109    0.5104   -0.7206 C   0  0  2  0  0  0  0  0  0  0  0  0
   -0.0028   -1.4921    0.0782 C   0  0  2  0  0  0  0  0  0  0  0  0
   -1.9408    2.4499   -0.0475 C   0  0  0  0  0  0  0  0  0  0  0  0
    1.1643    2.2723   -0.0342 C   0  0  0  0  0  0  0  0  0  0  0  0
   -3.3521    2.0387   -0.5067 C   0  0  0  0  0  0  0  0  0  0  0  0
    3.2177    0.8359    0.1166 C   0  0  0  0  0  0  0  0  0  0  0  0
   -2.3746   -0.0437    1.5793 C   0  0  0  0  0  0  0  0  0  0  0  0
    2.5730    2.1382    0.5241 C   0  0  0  0  0  0  0  0  0  0  0  0
    3.0547   -1.6506   -0.3336 C   0  0  0  0  0  0  0  0  0  0  0  0
    2.5033   -0.6889    1.9346 C   0  0  0  0  0  0  0  0  0  0  0  0
   -4.5823   -0.1623   -0.3038 C   0  0  0  0  0  0  0  0  0  0  0  0
    4.5704   -1.7017   -0.2266 C   0  0  0  0  0  0  0  0  0  0  0  0
    4.4420    0.8477   -0.4365 C   0  0  0  0  0  0  0  0  0  0  0  0
    5.1699   -0.4109   -0.7184 C   0  0  0  0  0  0  0  0  0  0  0  0
   -4.9686   -1.4047   -1.0596 C   0  0  0  0  0  0  0  0  0  0  0  0
   -0.9319    1.1733   -1.3922 H   0  0  0  0  0  0  0  0  0  0  0  0
    0.1795    1.0815    1.4418 H   0  0  0  0  0  0  0  0  0  0  0  0
    1.0279   -0.1605   -1.2153 H   0  0  0  0  0  0  0  0  0  0  0  0
   -1.3980   -1.2437   -1.5482 H   0  0  0  0  0  0  0  0  0  0  0  0
   -2.0646   -2.1098   -0.1638 H   0  0  0  0  0  0  0  0  0  0  0  0
   -3.1751    0.3335   -1.7967 H   0  0  0  0  0  0  0  0  0  0  0  0
    0.4048   -2.3521   -0.4635 H   0  0  0  0  0  0  0  0  0  0  0  0
   -1.5781    3.3161   -0.6098 H   0  0  0  0  0  0  0  0  0  0  0  0
   -1.9452    2.7188    1.0148 H   0  0  0  0  0  0  0  0  0  0  0  0
    0.7246    3.2025    0.3446 H   0  0  0  0  0  0  0  0  0  0  0  0
    1.2123    2.3672   -1.1270 H   0  0  0  0  0  0  0  0  0  0  0  0
   -4.0940    2.3699    0.2271 H   0  0  0  0  0  0  0  0  0  0  0  0
   -3.6020    2.5356   -1.4517 H   0  0  0  0  0  0  0  0  0  0  0  0
   -1.4994    0.0365    2.2216 H   0  0  0  0  0  0  0  0  0  0  0  0
   -3.0386    0.7618    1.9119 H   0  0  0  0  0  0  0  0  0  0  0  0
   -2.8773   -0.9883    1.8161 H   0  0  0  0  0  0  0  0  0  0  0  0
    2.5415    2.1950    1.6190 H   0  0  0  0  0  0  0  0  0  0  0  0
    3.1665    2.9983    0.1905 H   0  0  0  0  0  0  0  0  0  0  0  0
    2.7931   -1.6027   -1.4001 H   0  0  0  0  0  0  0  0  0  0  0  0
    2.6445   -2.5953    0.0431 H   0  0  0  0  0  0  0  0  0  0  0  0
    3.5296   -0.5625    2.3019 H   0  0  0  0  0  0  0  0  0  0  0  0
    1.8816    0.0068    2.5063 H   0  0  0  0  0  0  0  0  0  0  0  0
    2.2137   -1.7093    2.2034 H   0  0  0  0  0  0  0  0  0  0  0  0
    4.9474   -2.5203   -0.8498 H   0  0  0  0  0  0  0  0  0  0  0  0
    4.9016   -1.8759    0.8020 H   0  0  0  0  0  0  0  0  0  0  0  0
    0.0302   -1.0949    2.0052 H   0  0  0  0  0  0  0  0  0  0  0  0
    4.9712    1.7727   -0.6392 H   0  0  0  0  0  0  0  0  0  0  0  0
   -4.1959   -2.1675   -0.9589 H   0  0  0  0  0  0  0  0  0  0  0  0
   -5.1216   -1.1602   -2.1136 H   0  0  0  0  0  0  0  0  0  0  0  0
  1 25  1  0  0  0  0
  2 12  1  0  0  0  0
  2 51  1  0  0  0  0
  3 21  2  0  0  0  0
  4 24  2  0  0  0  0
  5  6  1  0  0  0  0
  5  7  1  0  0  0  0
  5 13  1  0  0  0  0
  5 26  1  0  0  0  0
  6 10  1  0  0  0  0
  6 11  1  0  0  0  0
  6 17  1  0  0  0  0
  7  8  1  0  0  0  0
  7 14  1  0  0  0  0
  7 27  1  0  0  0  0
  8  9  1  0  0  0  0
  8 12  1  0  0  0  0
  8 28  1  0  0  0  0
  9 16  1  0  0  0  0
  9 19  1  0  0  0  0
  9 20  1  0  0  0  0
 10 12  1  0  0  0  0
 10 29  1  0  0  0  0
 10 30  1  0  0  0  0
 11 15  1  0  0  0  0
 11 21  1  0  0  0  0
 11 31  1  0  0  0  0
 12 32  1  0  0  0  0
 13 15  1  0  0  0  0
 13 33  1  0  0  0  0
 13 34  1  0  0  0  0
 14 18  1  0  0  0  0
 14 35  1  0  0  0  0
 14 36  1  0  0  0  0
 15 37  1  0  0  0  0
 15 38  1  0  0  0  0
 16 18  1  0  0  0  0
 16 23  2  0  0  0  0
 17 39  1  0  0  0  0
 17 40  1  0  0  0  0
 17 41  1  0  0  0  0
 18 42  1  0  0  0  0
 18 43  1  0  0  0  0
 19 22  1  0  0  0  0
 19 44  1  0  0  0  0
 19 45  1  0  0  0  0
 20 46  1  0  0  0  0
 20 47  1  0  0  0  0
 20 48  1  0  0  0  0
 21 25  1  0  0  0  0
 22 24  1  0  0  0  0
 22 49  1  0  0  0  0
 22 50  1  0  0  0  0
 23 24  1  0  0  0  0
 23 52  1  0  0  0  0
 25 53  1  0  0  0  0
 25 54  1  0  0  0  0
M  END
> <PUBCHEM_COMPOUND_CID>
227671

> <PUBCHEM_CONFORMER_RMSD>
0.8

> <PUBCHEM_CONFORMER_DIVERSEORDER>
1
3
2

> <PUBCHEM_MMFF94_PARTIAL_CHARGES>
16
1 -0.34
11 0.06
12 0.28
16 -0.28
18 0.14
2 -0.68
21 0.45
22 0.06
23 -0.14
24 0.49
25 0.4
3 -0.57
4 -0.57
51 0.4
52 0.15
9 0.14

> <PUBCHEM_EFFECTIVE_ROTOR_COUNT>
3.8

> <PUBCHEM_PHARMACOPHORE_FEATURES>
8
1 2 acceptor
1 2 donor
1 3 acceptor
1 4 acceptor
5 5 6 11 13 15 rings
6 5 6 7 8 10 12 rings
6 7 8 9 14 16 18 rings
6 9 16 19 22 23 24 rings

> <PUBCHEM_HEAVY_ATOM_COUNT>
25

> <PUBCHEM_ATOM_DEF_STEREO_COUNT>
7

> <PUBCHEM_ATOM_UDEF_STEREO_COUNT>
0

> <PUBCHEM_BOND_DEF_STEREO_COUNT>
0

> <PUBCHEM_BOND_UDEF_STEREO_COUNT>
0

> <PUBCHEM_ISOTOPIC_ATOM_COUNT>
0

> <PUBCHEM_COMPONENT_COUNT>
1

> <PUBCHEM_CACTVS_TAUTO_COUNT>
15

> <PUBCHEM_CONFORMER_ID>
0003795700000001

> <PUBCHEM_MMFF94_ENERGY>
81.549

> <PUBCHEM_FEATURE_SELFOVERLAP>
40.689

> <PUBCHEM_SHAPE_FINGERPRINT>
10366900 7 17989487415771390817
10498660 4 18059581355172930684
11961588 58 17346595232302001940
12011746 2 18273213092731220036
12166972 35 18040432161699819208
12236239 1 17748822999554118801
12403259 226 18409176527490523693
12403259 415 18341338854890488989
12788726 201 18341897453983972129
12916754 54 18333734615535150233
13224815 77 18201720690709475089
13533116 47 17895475804279106433
13583140 156 14117504433616120253
13862211 1 18411422821329754082
14787075 74 18342737416294785811
15142383 8 14924216162054192259
15196674 1 18410577322409969292
16752209 62 18340774831226509008
16945 1 18335431161649709144
17349148 13 17989208161593263719
19591789 44 18410860992204431087
200 152 17967251996412471473
20028762 73 18187373099313327127
20645477 70 18411706443832466724
20691752 17 17417812893402679800
20871999 31 18342172297773270148
21033648 29 18130798853507638013
21267235 1 18336824209092107639
21857420 4 15584340708246441862
221357 26 18409450292894975460
22393880 68 18270691959992997517
23402539 116 18408044022234599413
23522609 53 18119777344608832377
23559900 14 18335990778587488160
2871803 45 18271813405897285193
296302 2 14476957900202290728
335352 9 18408887361086904693
350125 39 18410008883936950861
4280585 95 17326329330311629486
4340502 62 15985098630747648728
46194498 28 18186515493460171564
465052 167 18113897126415822071
474 4 17131819946889785580
484989 97 18057594374431910531
5104073 3 18334863852283513969
7495541 125 17386012745100014082
9709674 26 18340488872113894209

> <PUBCHEM_SHAPE_MULTIPOLES>
489.61
11.74
2.35
1.15
1.35
0.66
-0.41
-3.93
3.85
0.53
0.09
-0.23
-0.29
-0.15

> <PUBCHEM_SHAPE_SELFOVERLAP>
1050.462

> <PUBCHEM_SHAPE_VOLUME>
271.1

> <PUBCHEM_COORDINATE_TYPE>
2
5
10

$$$$

