11437
  -OEChem-06261205403D

 30 31  0     0  0  0  0  0  0999 V2000
    5.5376    0.7393    0.2515 O   0  0  0  0  0  0  0  0  0  0  0  0
    3.3650   -2.7151    0.5362 O   0  0  0  0  0  0  0  0  0  0  0  0
    5.3302   -1.9513   -0.3131 O   0  0  0  0  0  0  0  0  0  0  0  0
   -5.9869   -1.5079   -0.2796 O   0  5  0  0  0  0  0  0  0  0  0  0
   -4.1248   -2.6400   -0.0149 O   0  0  0  0  0  0  0  0  0  0  0  0
    0.0463    0.8125   -0.5579 N   0  0  0  0  0  0  0  0  0  0  0  0
   -0.5508    0.8099    0.5444 N   0  0  0  0  0  0  0  0  0  0  0  0
   -4.7463   -1.5532   -0.0974 N   0  3  0  0  0  0  0  0  0  0  0  0
    3.4807   -0.4545   -0.0624 C   0  0  0  0  0  0  0  0  0  0  0  0
    1.4294    0.7886   -0.3528 C   0  0  0  0  0  0  0  0  0  0  0  0
    2.1008   -0.4310   -0.2653 C   0  0  0  0  0  0  0  0  0  0  0  0
    4.1891    0.7416    0.0529 C   0  0  0  0  0  0  0  0  0  0  0  0
   -1.9407    0.8342    0.3378 C   0  0  0  0  0  0  0  0  0  0  0  0
    2.1377    1.9846   -0.2374 C   0  0  0  0  0  0  0  0  0  0  0  0
    3.5175    1.9611   -0.0346 C   0  0  0  0  0  0  0  0  0  0  0  0
   -4.0231   -0.3365    0.0187 C   0  0  0  0  0  0  0  0  0  0  0  0
   -2.6435   -0.3613    0.2233 C   0  0  0  0  0  0  0  0  0  0  0  0
   -2.6041    2.0542    0.2497 C   0  0  0  0  0  0  0  0  0  0  0  0
   -4.6931    0.8838   -0.0702 C   0  0  0  0  0  0  0  0  0  0  0  0
   -3.9835    2.0791    0.0451 C   0  0  0  0  0  0  0  0  0  0  0  0
    4.1627   -1.7382    0.0259 C   0  0  0  0  0  0  0  0  0  0  0  0
    1.5313   -1.3515   -0.3718 H   0  0  0  0  0  0  0  0  0  0  0  0
    1.6235    2.9399   -0.3053 H   0  0  0  0  0  0  0  0  0  0  0  0
    4.0565    2.9007    0.0532 H   0  0  0  0  0  0  0  0  0  0  0  0
   -2.0962   -1.2982    0.2979 H   0  0  0  0  0  0  0  0  0  0  0  0
   -2.0592    2.9902    0.3394 H   0  0  0  0  0  0  0  0  0  0  0  0
   -5.7670    0.9418   -0.2288 H   0  0  0  0  0  0  0  0  0  0  0  0
   -4.5048    3.0295   -0.0240 H   0  0  0  0  0  0  0  0  0  0  0  0
    5.8521    1.6580    0.3062 H   0  0  0  0  0  0  0  0  0  0  0  0
    3.8322   -3.5759    0.5923 H   0  0  0  0  0  0  0  0  0  0  0  0
  1 12  1  0  0  0  0
  1 29  1  0  0  0  0
  2 21  1  0  0  0  0
  2 30  1  0  0  0  0
  3 21  2  0  0  0  0
  4  8  1  0  0  0  0
  5  8  2  0  0  0  0
  6  7  2  0  0  0  0
  6 10  1  0  0  0  0
  7 13  1  0  0  0  0
  8 16  1  0  0  0  0
  9 11  1  0  0  0  0
  9 12  2  0  0  0  0
  9 21  1  0  0  0  0
 10 11  2  0  0  0  0
 10 14  1  0  0  0  0
 11 22  1  0  0  0  0
 12 15  1  0  0  0  0
 13 17  2  0  0  0  0
 13 18  1  0  0  0  0
 14 15  2  0  0  0  0
 14 23  1  0  0  0  0
 15 24  1  0  0  0  0
 16 17  1  0  0  0  0
 16 19  2  0  0  0  0
 17 25  1  0  0  0  0
 18 20  2  0  0  0  0
 18 26  1  0  0  0  0
 19 20  1  0  0  0  0
 19 27  1  0  0  0  0
 20 28  1  0  0  0  0
M  CHG  2   4  -1   8   1
M  END
> <PUBCHEM_COMPOUND_CID>
11437

> <PUBCHEM_CONFORMER_RMSD>
0.6

> <PUBCHEM_CONFORMER_DIVERSEORDER>
1
9
16
14
7
17
11
2
8
6
10
4
12
3
13
5
15

> <PUBCHEM_MMFF94_PARTIAL_CHARGES>
30
1 -0.53
10 0.18
11 -0.15
12 0.08
13 0.18
14 -0.15
15 -0.15
16 0.13
17 -0.15
18 -0.15
19 -0.15
2 -0.65
20 -0.15
21 0.63
22 0.15
23 0.15
24 0.15
25 0.15
26 0.15
27 0.15
28 0.15
29 0.45
3 -0.57
30 0.5
4 -0.52
5 -0.52
6 -0.18
7 -0.18
8 0.91
9 0.09

> <PUBCHEM_EFFECTIVE_ROTOR_COUNT>
4

> <PUBCHEM_PHARMACOPHORE_FEATURES>
9
1 1 donor
1 2 acceptor
1 3 acceptor
1 4 acceptor
1 4 anion
1 5 acceptor
3 2 3 21 anion
6 13 16 17 18 19 20 rings
6 9 10 11 12 14 15 rings

> <PUBCHEM_HEAVY_ATOM_COUNT>
21

> <PUBCHEM_ATOM_DEF_STEREO_COUNT>
0

> <PUBCHEM_ATOM_UDEF_STEREO_COUNT>
0

> <PUBCHEM_BOND_DEF_STEREO_COUNT>
0

> <PUBCHEM_BOND_UDEF_STEREO_COUNT>
0

> <PUBCHEM_ISOTOPIC_ATOM_COUNT>
0

> <PUBCHEM_COMPONENT_COUNT>
1

> <PUBCHEM_CACTVS_TAUTO_COUNT>
5

> <PUBCHEM_CONFORMER_ID>
00002CAD00000001

> <PUBCHEM_MMFF94_ENERGY>
64.7079

> <PUBCHEM_FEATURE_SELFOVERLAP>
45.808

> <PUBCHEM_SHAPE_FINGERPRINT>
10447042 23 18334584503547495735
10595046 47 18410571756137855717
10616163 171 18408882910830924599
11405975 8 18336261336047457049
11796584 16 18261391216755542926
12107183 9 17905605862682927153
12403259 226 18410015441903969753
12596602 18 17676485047389057864
12916754 54 18410291419622819129
13167823 11 18409168817939123351
13533116 47 18409729521782891361
13583140 156 17968389973715077225
14341114 176 18408879672098373304
15196674 1 18410292527370479414
15250474 111 18410863161221463995
15352361 1 18411136939410402249
17492 89 18411135814314061235
17834072 33 18412542102660429596
17844677 252 18409722980416278985
17857418 61 18410014325475476335
1813 80 17131828793979343460
19141452 34 18341329006757131189
200 152 18260831492586532337
20028762 73 18261396663128489918
20645477 70 18341895199410393102
21065198 48 18334852826991785505
21065198 57 18411136973876278789
21267235 1 18409440371515013004
21673915 165 18411700971812009962
220451 1 18338223942500990328
221490 88 18341043047491185002
22393880 68 18059584636574981951
23402539 116 18341616993004456957
23559900 14 18409454695215608264
239999 70 18259978276385522302
3004659 81 18343302586904717138
33824 294 18413390930459216410
338550 245 18341048536707731574
4073 2 18272645719051180960
4214541 1 18410574024170536941
465052 167 18186798119561970430
5104073 3 18259984898391844641
559249 180 18339927129610746379
633830 44 16845563240685054765
7495541 125 17676491609703713424
77779 3 18410291419327381025
7970288 3 17976824186543450719
960060 61 17774712143486422094
9709674 26 18271237236060803403
9971528 1 17988638623329329084

> <PUBCHEM_SHAPE_MULTIPOLES>
387.88
13.71
2.71
0.65
2.6
1.04
0
5.32
-0.2
0.11
0.08
-0.04
-0.03
-0.35

> <PUBCHEM_SHAPE_SELFOVERLAP>
843.639

> <PUBCHEM_SHAPE_VOLUME>
211.4

> <PUBCHEM_COORDINATE_TYPE>
2
5
10

$$$$

