5281724
  -OEChem-07051212593D

 43 44  0     0  0  0  0  0  0999 V2000
   -3.0165    2.7158    0.9890 O   0  0  0  0  0  0  0  0  0  0  0  0
   -2.8360   -1.3409   -1.5611 O   0  0  0  0  0  0  0  0  0  0  0  0
    3.9352    1.5525   -1.4727 O   0  0  0  0  0  0  0  0  0  0  0  0
    7.6095   -0.6446    0.6120 O   0  0  0  0  0  0  0  0  0  0  0  0
   -2.9453    0.6884   -0.2891 C   0  0  0  0  0  0  0  0  0  0  0  0
   -4.4296    0.7806   -0.5406 C   0  0  0  0  0  0  0  0  0  0  0  0
   -2.3175    1.6687    0.4675 C   0  0  0  0  0  0  0  0  0  0  0  0
   -2.2266   -0.3753   -0.8174 C   0  0  0  0  0  0  0  0  0  0  0  0
   -0.2129    0.5190    0.1739 C   0  0  0  0  0  0  0  0  0  0  0  0
   -0.9448    1.5835    0.7000 C   0  0  0  0  0  0  0  0  0  0  0  0
   -0.8538   -0.4603   -0.5849 C   0  0  0  0  0  0  0  0  0  0  0  0
   -5.2336    0.0795    0.5179 C   0  0  0  0  0  0  0  0  0  0  0  0
   -6.0779   -0.9584    0.3639 C   0  0  0  0  0  0  0  0  0  0  0  0
    1.2184    0.4303    0.4164 C   0  0  0  0  0  0  0  0  0  0  0  0
    2.0911   -0.2966   -0.3209 C   0  0  0  0  0  0  0  0  0  0  0  0
    3.5442   -0.3715   -0.0876 C   0  0  0  0  0  0  0  0  0  0  0  0
   -6.8548   -1.6163    1.4688 C   0  0  0  0  0  0  0  0  0  0  0  0
   -6.3170   -1.5499   -1.0000 C   0  0  0  0  0  0  0  0  0  0  0  0
    4.3985    0.5518   -0.6704 C   0  0  0  0  0  0  0  0  0  0  0  0
    4.0285   -1.3849    0.7260 C   0  0  0  0  0  0  0  0  0  0  0  0
    5.7700    0.4598   -0.4344 C   0  0  0  0  0  0  0  0  0  0  0  0
    5.4000   -1.4768    0.9620 C   0  0  0  0  0  0  0  0  0  0  0  0
    6.2709   -0.5544    0.3818 C   0  0  0  0  0  0  0  0  0  0  0  0
   -4.7527    1.8283   -0.5864 H   0  0  0  0  0  0  0  0  0  0  0  0
   -4.6405    0.4340   -1.5555 H   0  0  0  0  0  0  0  0  0  0  0  0
   -0.4557    2.3541    1.2922 H   0  0  0  0  0  0  0  0  0  0  0  0
   -0.3168   -1.3135   -0.9901 H   0  0  0  0  0  0  0  0  0  0  0  0
   -5.1143    0.4743    1.5265 H   0  0  0  0  0  0  0  0  0  0  0  0
    1.6007    1.0135    1.2519 H   0  0  0  0  0  0  0  0  0  0  0  0
    1.7715   -0.8739   -1.1840 H   0  0  0  0  0  0  0  0  0  0  0  0
   -6.6650   -1.1370    2.4348 H   0  0  0  0  0  0  0  0  0  0  0  0
   -7.9294   -1.5534    1.2695 H   0  0  0  0  0  0  0  0  0  0  0  0
   -6.5752   -2.6708    1.5582 H   0  0  0  0  0  0  0  0  0  0  0  0
   -5.5884   -1.2841   -1.7647 H   0  0  0  0  0  0  0  0  0  0  0  0
   -6.2912   -2.6441   -0.9355 H   0  0  0  0  0  0  0  0  0  0  0  0
   -7.3096   -1.2599   -1.3608 H   0  0  0  0  0  0  0  0  0  0  0  0
    3.3613   -2.1106    1.1839 H   0  0  0  0  0  0  0  0  0  0  0  0
   -3.9507    2.4822    1.1021 H   0  0  0  0  0  0  0  0  0  0  0  0
   -2.1734   -1.9955   -1.8405 H   0  0  0  0  0  0  0  0  0  0  0  0
    6.4440    1.1816   -0.8894 H   0  0  0  0  0  0  0  0  0  0  0  0
    5.7844   -2.2692    1.5985 H   0  0  0  0  0  0  0  0  0  0  0  0
    2.9744    1.4848   -1.5898 H   0  0  0  0  0  0  0  0  0  0  0  0
    8.0606    0.0721    0.1337 H   0  0  0  0  0  0  0  0  0  0  0  0
  1  7  1  0  0  0  0
  1 38  1  0  0  0  0
  2  8  1  0  0  0  0
  2 39  1  0  0  0  0
  3 19  1  0  0  0  0
  3 42  1  0  0  0  0
  4 23  1  0  0  0  0
  4 43  1  0  0  0  0
  5  6  1  0  0  0  0
  5  7  2  0  0  0  0
  5  8  1  0  0  0  0
  6 12  1  0  0  0  0
  6 24  1  0  0  0  0
  6 25  1  0  0  0  0
  7 10  1  0  0  0  0
  8 11  2  0  0  0  0
  9 10  2  0  0  0  0
  9 11  1  0  0  0  0
  9 14  1  0  0  0  0
 10 26  1  0  0  0  0
 11 27  1  0  0  0  0
 12 13  2  0  0  0  0
 12 28  1  0  0  0  0
 13 17  1  0  0  0  0
 13 18  1  0  0  0  0
 14 15  2  0  0  0  0
 14 29  1  0  0  0  0
 15 16  1  0  0  0  0
 15 30  1  0  0  0  0
 16 19  2  0  0  0  0
 16 20  1  0  0  0  0
 17 31  1  0  0  0  0
 17 32  1  0  0  0  0
 17 33  1  0  0  0  0
 18 34  1  0  0  0  0
 18 35  1  0  0  0  0
 18 36  1  0  0  0  0
 19 21  1  0  0  0  0
 20 22  2  0  0  0  0
 20 37  1  0  0  0  0
 21 23  2  0  0  0  0
 21 40  1  0  0  0  0
 22 23  1  0  0  0  0
 22 41  1  0  0  0  0
M  END
> <PUBCHEM_COMPOUND_CID>
5281724

> <PUBCHEM_CONFORMER_RMSD>
0.8

> <PUBCHEM_CONFORMER_DIVERSEORDER>
1
14
4
13
2
8
7
6
11
3
5
9
10
12

> <PUBCHEM_MMFF94_PARTIAL_CHARGES>
35
1 -0.53
10 -0.15
11 -0.15
12 -0.29
13 -0.28
14 -0.18
15 -0.18
16 0.03
17 0.14
18 0.14
19 0.08
2 -0.53
20 -0.15
21 -0.15
22 -0.15
23 0.08
26 0.15
27 0.15
28 0.15
29 0.15
3 -0.53
30 0.15
37 0.15
38 0.45
39 0.45
4 -0.53
40 0.15
41 0.15
42 0.45
43 0.45
5 -0.14
6 0.28
7 0.08
8 0.08
9 0.03

> <PUBCHEM_EFFECTIVE_ROTOR_COUNT>
4

> <PUBCHEM_PHARMACOPHORE_FEATURES>
7
1 1 donor
1 2 donor
1 3 donor
1 4 donor
3 13 17 18 hydrophobe
6 16 19 20 21 22 23 rings
6 5 7 8 9 10 11 rings

> <PUBCHEM_HEAVY_ATOM_COUNT>
23

> <PUBCHEM_ATOM_DEF_STEREO_COUNT>
0

> <PUBCHEM_ATOM_UDEF_STEREO_COUNT>
0

> <PUBCHEM_BOND_DEF_STEREO_COUNT>
1

> <PUBCHEM_BOND_UDEF_STEREO_COUNT>
0

> <PUBCHEM_ISOTOPIC_ATOM_COUNT>
0

> <PUBCHEM_COMPONENT_COUNT>
1

> <PUBCHEM_CACTVS_TAUTO_COUNT>
75

> <PUBCHEM_CONFORMER_ID>
005097BC00000001

> <PUBCHEM_MMFF94_ENERGY>
65.9972

> <PUBCHEM_FEATURE_SELFOVERLAP>
35.52

> <PUBCHEM_SHAPE_FINGERPRINT>
10066227 112 7709457212575400339
10554248 39 9583248205601525737
10595046 47 18341893017635883864
11089746 13 11600002128766899255
11315181 36 18413388756557372865
11646440 116 17022901255220742672
11963148 33 18260275135319150015
12107183 9 17473264748552797866
12166972 35 17918270935434136204
12236239 1 18342176691445842124
12596602 18 18273216425678557040
12916748 109 18187078477525189940
13073987 5 18188209922324515090
13533116 47 18343586261337356226
13668630 136 17989207079499323922
13862211 1 18260270720624453599
14211702 104 18340480170479160267
14251764 18 18040719130044890758
15716309 27 18412261731869992211
17492 89 18194966477170432194
18335252 98 17846207796592928563
19377110 9 18334571369194677994
21150785 3 16343701023916144786
21267235 1 18334852831813877164
21623969 137 18412821395625371139
21792934 111 18260275144404313217
2215653 11 14117799128628398384
23522609 53 18119499138650769465
23559900 14 17774439361777083177
23569943 247 17625262288661349946
2838139 119 7925635480043026883
29717793 49 10663821897457600146
34797466 226 17240195505405422460
4015057 19 17346303870058173797
4325135 7 18202565072821913231
469060 322 17677314100525937673
4938544 92 17241034510181422497
5104073 3 17605547962573304075
5283156 175 18342738529129197809
5385378 56 16588012554536485286
7495541 125 18334014973335223400
999808 66 17917702471481237139

> <PUBCHEM_SHAPE_MULTIPOLES>
449.85
19.44
1.83
1.17
6.13
0.5
-0.09
-9.08
2.68
-1.52
0.4
-0.77
-0.14
-1.27

> <PUBCHEM_SHAPE_SELFOVERLAP>
958.843

> <PUBCHEM_SHAPE_VOLUME>
251.1

> <PUBCHEM_COORDINATE_TYPE>
2
5
10

$$$$

