44237179
  -OEChem-07051213103D

 34 33  0     1  0  0  0  0  0999 V2000
   -4.7597    1.2831   -0.0104 S   0  0  0  0  0  0  0  0  0  0  0  0
    1.6031    1.6289    0.8563 O   0  0  0  0  0  0  0  0  0  0  0  0
    1.8692   -0.1856   -2.2489 O   0  0  0  0  0  0  0  0  0  0  0  0
   -0.0066    0.8937   -1.5723 O   0  0  0  0  0  0  0  0  0  0  0  0
    3.9189   -1.1034    0.7329 O   0  0  0  0  0  0  0  0  0  0  0  0
    4.1874    1.1064    0.2640 O   0  0  0  0  0  0  0  0  0  0  0  0
   -0.2347   -0.9081    0.6503 C   0  0  0  0  0  0  0  0  0  0  0  0
    1.1276   -0.5895   -0.0020 C   0  0  2  0  0  0  0  0  0  0  0  0
   -1.1014   -1.8208   -0.2266 C   0  0  0  0  0  0  0  0  0  0  0  0
   -2.4581   -2.1585    0.4008 C   0  0  0  0  0  0  0  0  0  0  0  0
    1.9998    0.2673    0.9334 C   0  0  1  0  0  0  0  0  0  0  0  0
   -3.3591   -0.9636    0.7340 C   0  0  0  0  0  0  0  0  0  0  0  0
    0.9186    0.1285   -1.3318 C   0  0  0  0  0  0  0  0  0  0  0  0
   -3.6946   -0.1097   -0.4854 C   0  0  0  0  0  0  0  0  0  0  0  0
    3.4774    0.1741    0.6127 C   0  0  0  0  0  0  0  0  0  0  0  0
   -3.4876    2.3570    0.6931 C   0  0  0  0  0  0  0  0  0  0  0  0
   -0.7639    0.0306    0.8508 H   0  0  0  0  0  0  0  0  0  0  0  0
   -0.0700   -1.3968    1.6185 H   0  0  0  0  0  0  0  0  0  0  0  0
    1.6126   -1.5516   -0.2109 H   0  0  0  0  0  0  0  0  0  0  0  0
   -0.5623   -2.7610   -0.3988 H   0  0  0  0  0  0  0  0  0  0  0  0
   -1.2643   -1.3818   -1.2157 H   0  0  0  0  0  0  0  0  0  0  0  0
   -2.9966   -2.8290   -0.2807 H   0  0  0  0  0  0  0  0  0  0  0  0
   -2.2887   -2.7299    1.3221 H   0  0  0  0  0  0  0  0  0  0  0  0
    1.8791   -0.0530    1.9754 H   0  0  0  0  0  0  0  0  0  0  0  0
   -4.2866   -1.3566    1.1710 H   0  0  0  0  0  0  0  0  0  0  0  0
   -2.8814   -0.3665    1.5178 H   0  0  0  0  0  0  0  0  0  0  0  0
   -4.2381   -0.7128   -1.2203 H   0  0  0  0  0  0  0  0  0  0  0  0
   -2.8009    0.2808   -0.9790 H   0  0  0  0  0  0  0  0  0  0  0  0
    2.0828    2.1141    1.5493 H   0  0  0  0  0  0  0  0  0  0  0  0
    1.7203    0.2749   -3.1022 H   0  0  0  0  0  0  0  0  0  0  0  0
    4.8719   -1.1834    0.5143 H   0  0  0  0  0  0  0  0  0  0  0  0
   -3.9417    3.3147    0.9625 H   0  0  0  0  0  0  0  0  0  0  0  0
   -2.6959    2.5472   -0.0363 H   0  0  0  0  0  0  0  0  0  0  0  0
   -3.0592    1.9193    1.5976 H   0  0  0  0  0  0  0  0  0  0  0  0
  1 14  1  0  0  0  0
  1 16  1  0  0  0  0
  2 11  1  0  0  0  0
  2 29  1  0  0  0  0
  3 13  1  0  0  0  0
  3 30  1  0  0  0  0
  4 13  2  0  0  0  0
  5 15  1  0  0  0  0
  5 31  1  0  0  0  0
  6 15  2  0  0  0  0
  7  8  1  0  0  0  0
  7  9  1  0  0  0  0
  7 17  1  0  0  0  0
  7 18  1  0  0  0  0
  8 11  1  0  0  0  0
  8 13  1  0  0  0  0
  8 19  1  0  0  0  0
  9 10  1  0  0  0  0
  9 20  1  0  0  0  0
  9 21  1  0  0  0  0
 10 12  1  0  0  0  0
 10 22  1  0  0  0  0
 10 23  1  0  0  0  0
 11 15  1  0  0  0  0
 11 24  1  0  0  0  0
 12 14  1  0  0  0  0
 12 25  1  0  0  0  0
 12 26  1  0  0  0  0
 14 27  1  0  0  0  0
 14 28  1  0  0  0  0
 16 32  1  0  0  0  0
 16 33  1  0  0  0  0
 16 34  1  0  0  0  0
M  END
> <PUBCHEM_COMPOUND_CID>
44237179

> <PUBCHEM_CONFORMER_RMSD>
1

> <PUBCHEM_CONFORMER_DIVERSEORDER>
10
131
12
80
75
55
88
89
134
83
148
6
66
61
139
85
93
145
24
41
82
43
90
124
19
60
87
97
4
14
44
1
64
31
48
146
136
73
105
130
21
52
84
23
22
49
46
128
110
54
120
133
147
135
142
121
56
92
115
11
17
103
74
81
104
94
69
118
63
112
36
67
3
109
42
34
26
53
137
119
58
78
144
9
116
15
79
96
2
5
50
117
37
111
138
76
143
47
72
107
13
132
91
127
126
39
16
113
122
57
106
29
100
129
123
140
20
71
32
59
27
40
95
65
8
35
38
33
62
18
99
7
86
25
68
51
141
30
77
101
114
28
125
108
102
70
98
45

> <PUBCHEM_MMFF94_PARTIAL_CHARGES>
15
1 -0.46
11 0.34
13 0.66
14 0.23
15 0.66
16 0.23
2 -0.68
29 0.4
3 -0.65
30 0.5
31 0.5
4 -0.57
5 -0.65
6 -0.57
8 0.06

> <PUBCHEM_EFFECTIVE_ROTOR_COUNT>
9

> <PUBCHEM_PHARMACOPHORE_FEATURES>
9
1 16 hydrophobe
1 2 acceptor
1 2 donor
1 3 acceptor
1 4 acceptor
1 5 acceptor
1 6 acceptor
3 3 4 13 anion
3 5 6 15 anion

> <PUBCHEM_HEAVY_ATOM_COUNT>
16

> <PUBCHEM_ATOM_DEF_STEREO_COUNT>
0

> <PUBCHEM_ATOM_UDEF_STEREO_COUNT>
2

> <PUBCHEM_BOND_DEF_STEREO_COUNT>
0

> <PUBCHEM_BOND_UDEF_STEREO_COUNT>
0

> <PUBCHEM_ISOTOPIC_ATOM_COUNT>
0

> <PUBCHEM_COMPONENT_COUNT>
1

> <PUBCHEM_CACTVS_TAUTO_COUNT>
1

> <PUBCHEM_CONFORMER_ID>
02A3017B0000000A

> <PUBCHEM_MMFF94_ENERGY>
17.3612

> <PUBCHEM_FEATURE_SELFOVERLAP>
45.793

> <PUBCHEM_SHAPE_FINGERPRINT>
10646746 165 18408038520022816361
11086676 242 16917351454384162333
11615756 56 18187365407189695761
12077114 3 18187085027176411899
12119455 92 17167587093714982894
124424 183 18186804651479370090
12500047 106 18409736123095352147
13583140 156 17386301882441221498
13675066 3 17917710184440348203
14123255 352 18409452500972402209
14251732 17 18187930650217783575
14251764 30 14764062427781091922
14251764 75 17681825551739667001
14573314 32 18334850636969681086
15375462 189 14548750490273125888
17357990 137 17774422928841688943
18186145 218 17604693560914106631
20112054 60 18409443687894468723
20233049 118 18412263956225123929
20261772 1 17632296817282283269
20645477 70 16733250326957242918
21524375 3 18342457097492842675
22112679 90 17703502216604155165
231179 274 17240485809810961652
23402539 116 18187096035515000367
23532345 12 17917710167387118335
23557571 272 18114178572008425003
23559900 14 18188195598714312078
351380 180 18187937179085005769
4175511 71 17132113515776990071

> <PUBCHEM_SHAPE_MULTIPOLES>
303.78
8.46
2.08
1.35
1.89
0.07
0.76
3.07
-1.67
2.03
-0.48
-0.73
0.14
0.04

> <PUBCHEM_SHAPE_SELFOVERLAP>
566.223

> <PUBCHEM_SHAPE_VOLUME>
190.6

> <PUBCHEM_COORDINATE_TYPE>
2
5
10

$$$$

