11484
  -OEChem-06261205443D

 19 19  0     0  0  0  0  0  0999 V2000
    3.3979    2.4218    0.3443 Cl  0  0  0  0  0  0  0  0  0  0  0  0
    2.5644   -2.9061    0.1137 Cl  0  0  0  0  0  0  0  0  0  0  0  0
   -1.1945    0.4468   -0.6036 O   0  0  0  0  0  0  0  0  0  0  0  0
   -4.3403   -0.8430    0.5413 O   0  0  0  0  0  0  0  0  0  0  0  0
   -3.7038    1.2869    0.0450 O   0  0  0  0  0  0  0  0  0  0  0  0
    0.1230    0.2295   -0.3405 C   0  0  0  0  0  0  0  0  0  0  0  0
    0.6119   -1.0742   -0.2584 C   0  0  0  0  0  0  0  0  0  0  0  0
    0.9846    1.3105   -0.1537 C   0  0  0  0  0  0  0  0  0  0  0  0
    2.3349    1.0877    0.1154 C   0  0  0  0  0  0  0  0  0  0  0  0
    1.9624   -1.2970    0.0107 C   0  0  0  0  0  0  0  0  0  0  0  0
   -2.1183   -0.5435   -0.1546 C   0  0  0  0  0  0  0  0  0  0  0  0
    2.8238   -0.2160    0.1977 C   0  0  0  0  0  0  0  0  0  0  0  0
   -3.4460    0.0965    0.1426 C   0  0  0  0  0  0  0  0  0  0  0  0
   -0.0318   -1.9334   -0.4268 H   0  0  0  0  0  0  0  0  0  0  0  0
    0.5951    2.3237   -0.2197 H   0  0  0  0  0  0  0  0  0  0  0  0
   -2.2573   -1.2868   -0.9465 H   0  0  0  0  0  0  0  0  0  0  0  0
   -1.7854   -1.0113    0.7803 H   0  0  0  0  0  0  0  0  0  0  0  0
    3.8771   -0.3897    0.4075 H   0  0  0  0  0  0  0  0  0  0  0  0
   -5.2173   -0.4518    0.7417 H   0  0  0  0  0  0  0  0  0  0  0  0
  1  9  1  0  0  0  0
  2 10  1  0  0  0  0
  3  6  1  0  0  0  0
  3 11  1  0  0  0  0
  4 13  1  0  0  0  0
  4 19  1  0  0  0  0
  5 13  2  0  0  0  0
  6  7  2  0  0  0  0
  6  8  1  0  0  0  0
  7 10  1  0  0  0  0
  7 14  1  0  0  0  0
  8  9  2  0  0  0  0
  8 15  1  0  0  0  0
  9 12  1  0  0  0  0
 10 12  2  0  0  0  0
 11 13  1  0  0  0  0
 11 16  1  0  0  0  0
 11 17  1  0  0  0  0
 12 18  1  0  0  0  0
M  END
> <PUBCHEM_COMPOUND_CID>
11484

> <PUBCHEM_CONFORMER_RMSD>
0.6

> <PUBCHEM_CONFORMER_DIVERSEORDER>
1
7
3
6
2
12
4
10
5
11
9
8

> <PUBCHEM_MMFF94_PARTIAL_CHARGES>
17
1 -0.18
10 0.18
11 0.34
12 -0.15
13 0.66
14 0.15
15 0.15
18 0.15
19 0.5
2 -0.18
3 -0.36
4 -0.65
5 -0.57
6 0.08
7 -0.15
8 -0.15
9 0.18

> <PUBCHEM_EFFECTIVE_ROTOR_COUNT>
3

> <PUBCHEM_PHARMACOPHORE_FEATURES>
5
1 3 acceptor
1 4 acceptor
1 5 acceptor
3 4 5 13 anion
6 6 7 8 9 10 12 rings

> <PUBCHEM_HEAVY_ATOM_COUNT>
13

> <PUBCHEM_ATOM_DEF_STEREO_COUNT>
0

> <PUBCHEM_ATOM_UDEF_STEREO_COUNT>
0

> <PUBCHEM_BOND_DEF_STEREO_COUNT>
0

> <PUBCHEM_BOND_UDEF_STEREO_COUNT>
0

> <PUBCHEM_ISOTOPIC_ATOM_COUNT>
0

> <PUBCHEM_COMPONENT_COUNT>
1

> <PUBCHEM_CACTVS_TAUTO_COUNT>
1

> <PUBCHEM_CONFORMER_ID>
00002CDC00000001

> <PUBCHEM_MMFF94_ENERGY>
29.7833

> <PUBCHEM_FEATURE_SELFOVERLAP>
25.434

> <PUBCHEM_SHAPE_FINGERPRINT>
10465860 228 18408600379091721064
10608611 8 18413112783639490221
10980938 120 18408324362991783960
11471102 20 18410298025150210044
12251169 10 18335706056704990623
12346645 44 18263646173433676092
12346645 6 18410294692361070348
12932764 1 17603593997667348437
13296908 3 18272368715478374855
14144814 61 18410011044220598065
14252887 29 18131343094894130787
14325111 11 18410575072142290893
15219456 202 18271534164398566229
15442244 35 18120371209825702633
15501101 241 18272369801799048500
15775835 57 18114742612155474277
16945 1 18338251430845261062
170605 34 18187078408542125028
18380122 1 18060150824860080260
201361 129 18334573525447796832
20339313 130 18116149051047510430
20645477 70 18339371850305665191
20671657 1 18408600362149111878
20871998 22 17974007542378800822
21065199 12 18341888598267309505
21524375 3 17971192530391601892
22943178 12 18202286935303479301
23557571 272 17203334437516974901
2748010 2 17831883587198452366
33824 294 18341896255677403715
449060 50 18339922615325902709
4990 188 17968643939979853108
5104073 3 18412541042214770065
54173680 148 17401488646629439486
581208 293 18411987927050647030
6049 1 17988087819078853101
7364860 26 18408041831901569918
81228 2 17037552518402032962
81539 233 18343024341959567620

> <PUBCHEM_SHAPE_MULTIPOLES>
253.67
6.95
2.51
0.68
7.94
0.82
0
-1.13
1.25
-3.35
0.22
0.01
0
0.23

> <PUBCHEM_SHAPE_SELFOVERLAP>
507.216

> <PUBCHEM_SHAPE_VOLUME>
151.5

> <PUBCHEM_COORDINATE_TYPE>
2
5
10

$$$$

