440194
  -OEChem-07051212493D

 29 29  0     1  0  0  0  0  0999 V2000
    2.9321    0.1307    0.0891 P   0  0  0  0  0  0  0  0  0  0  0  0
    1.6589   -0.7708   -0.3265 O   0  0  0  0  0  0  0  0  0  0  0  0
   -0.3707   -2.7302    0.2014 O   0  0  0  0  0  0  0  0  0  0  0  0
    0.0228    1.1558   -1.5193 O   0  0  0  0  0  0  0  0  0  0  0  0
   -3.0065   -1.8677   -0.5226 O   0  0  0  0  0  0  0  0  0  0  0  0
   -1.6367    2.7078    0.1108 O   0  0  0  0  0  0  0  0  0  0  0  0
   -3.6304    0.7381    0.6566 O   0  0  0  0  0  0  0  0  0  0  0  0
    4.1866   -0.6414   -0.5783 O   0  0  0  0  0  0  0  0  0  0  0  0
    3.0931   -0.1917    1.6655 O   0  0  0  0  0  0  0  0  0  0  0  0
    2.8205    1.5879   -0.2518 O   0  0  0  0  0  0  0  0  0  0  0  0
    0.3894   -0.4446    0.2380 C   0  0  0  0  0  0  0  0  0  0  0  0
   -0.6698   -1.4191   -0.2871 C   0  0  2  0  0  0  0  0  0  0  0  0
    0.0419    1.0056   -0.0963 C   0  0  2  0  0  0  0  0  0  0  0  0
   -2.0768   -1.0485    0.1925 C   0  0  1  0  0  0  0  0  0  0  0  0
   -1.3300    1.3623    0.4748 C   0  0  2  0  0  0  0  0  0  0  0  0
   -2.4245    0.4258   -0.0469 C   0  0  0  0  0  0  0  0  0  0  0  0
    0.4759   -0.5676    1.3250 H   0  0  0  0  0  0  0  0  0  0  0  0
   -0.6274   -1.4837   -1.3813 H   0  0  0  0  0  0  0  0  0  0  0  0
    0.7413    1.7306    0.3140 H   0  0  0  0  0  0  0  0  0  0  0  0
   -2.1937   -1.3079    1.2523 H   0  0  0  0  0  0  0  0  0  0  0  0
   -1.2939    1.3312    1.5710 H   0  0  0  0  0  0  0  0  0  0  0  0
   -2.6346    0.6137   -1.1061 H   0  0  0  0  0  0  0  0  0  0  0  0
   -1.0584   -3.3297   -0.1355 H   0  0  0  0  0  0  0  0  0  0  0  0
   -0.2565    2.0675   -1.7106 H   0  0  0  0  0  0  0  0  0  0  0  0
   -3.8986   -1.6238   -0.2217 H   0  0  0  0  0  0  0  0  0  0  0  0
   -2.5198    2.9099    0.4645 H   0  0  0  0  0  0  0  0  0  0  0  0
   -3.4795    0.5714    1.6026 H   0  0  0  0  0  0  0  0  0  0  0  0
    5.0801   -0.2426   -0.5097 H   0  0  0  0  0  0  0  0  0  0  0  0
    3.7523    0.3128    2.1880 H   0  0  0  0  0  0  0  0  0  0  0  0
  1  2  1  0  0  0  0
  1  8  1  0  0  0  0
  1  9  1  0  0  0  0
  1 10  2  0  0  0  0
  2 11  1  0  0  0  0
  3 12  1  0  0  0  0
  3 23  1  0  0  0  0
  4 13  1  0  0  0  0
  4 24  1  0  0  0  0
  5 14  1  0  0  0  0
  5 25  1  0  0  0  0
  6 15  1  0  0  0  0
  6 26  1  0  0  0  0
  7 16  1  0  0  0  0
  7 27  1  0  0  0  0
  8 28  1  0  0  0  0
  9 29  1  0  0  0  0
 11 12  1  0  0  0  0
 11 13  1  0  0  0  0
 11 17  1  0  0  0  0
 12 14  1  0  0  0  0
 12 18  1  0  0  0  0
 13 15  1  0  0  0  0
 13 19  1  0  0  0  0
 14 16  1  0  0  0  0
 14 20  1  0  0  0  0
 15 16  1  0  0  0  0
 15 21  1  0  0  0  0
 16 22  1  0  0  0  0
M  END
> <PUBCHEM_COMPOUND_CID>
440194

> <PUBCHEM_CONFORMER_RMSD>
0.6

> <PUBCHEM_CONFORMER_DIVERSEORDER>
1
2
3

> <PUBCHEM_MMFF94_PARTIAL_CHARGES>
23
1 1.51
10 -0.7
11 0.28
12 0.28
13 0.28
14 0.28
15 0.28
16 0.28
2 -0.55
23 0.4
24 0.4
25 0.4
26 0.4
27 0.4
28 0.5
29 0.5
3 -0.68
4 -0.68
5 -0.68
6 -0.68
7 -0.68
8 -0.77
9 -0.77

> <PUBCHEM_EFFECTIVE_ROTOR_COUNT>
3.2

> <PUBCHEM_PHARMACOPHORE_FEATURES>
15
1 10 acceptor
1 3 acceptor
1 3 donor
1 4 acceptor
1 4 donor
1 5 acceptor
1 5 donor
1 6 acceptor
1 6 donor
1 7 acceptor
1 7 donor
1 8 acceptor
1 9 acceptor
4 1 8 9 10 anion
6 11 12 13 14 15 16 rings

> <PUBCHEM_HEAVY_ATOM_COUNT>
16

> <PUBCHEM_ATOM_DEF_STEREO_COUNT>
4

> <PUBCHEM_ATOM_UDEF_STEREO_COUNT>
0

> <PUBCHEM_BOND_DEF_STEREO_COUNT>
0

> <PUBCHEM_BOND_UDEF_STEREO_COUNT>
0

> <PUBCHEM_ISOTOPIC_ATOM_COUNT>
0

> <PUBCHEM_COMPONENT_COUNT>
1

> <PUBCHEM_CACTVS_TAUTO_COUNT>
1

> <PUBCHEM_CONFORMER_ID>
0006B78200000001

> <PUBCHEM_MMFF94_ENERGY>
9.9927

> <PUBCHEM_FEATURE_SELFOVERLAP>
76.176

> <PUBCHEM_SHAPE_FINGERPRINT>
11132069 177 18333455339101484936
12251169 10 18341898519372750792
12382932 28 18408880720370762249
12932764 1 17775292668314214492
13024252 1 14261349176138131389
13538477 17 18272937098470493210
14614273 12 18200317765670432093
14993402 34 18273216374117928311
15775835 57 18131067181915950864
16945 1 18338520849558653777
18175812 5 17676487237426771836
193761 8 17906451378819367411
20510252 161 18333731290882258392
20871998 184 18114458972778997391
21501502 16 18336826386234318636
2334 1 18194401096064483049
23402539 116 18188218602321941431
23419403 2 17184245639779358429
23463225 33 18342740736489245394
23557571 272 17968364663715206839
23559900 14 18259983782391203108
2748010 2 18265056838620607889
43471831 8 18341617065460095651
6333449 129 18334014994899451095
7364860 26 17829326135393991167
75552 356 18411417271920699871
81228 2 18337678503187056002

> <PUBCHEM_SHAPE_MULTIPOLES>
280.3
5.53
2.28
0.93
3.32
0.12
-0.06
0.11
-0.48
-1.34
0.09
0.4
-0.1
-0.31

> <PUBCHEM_SHAPE_SELFOVERLAP>
553.317

> <PUBCHEM_SHAPE_VOLUME>
167.9

> <PUBCHEM_COORDINATE_TYPE>
2
5
10

$$$$

