73201
  -OEChem-07051213083D

 34 36  0     1  0  0  0  0  0999 V2000
   -0.4660   -0.7498   -0.1323 O   0  0  0  0  0  0  0  0  0  0  0  0
    0.7911    3.1537   -0.2457 O   0  0  0  0  0  0  0  0  0  0  0  0
    3.2607    2.3637   -0.0013 O   0  0  0  0  0  0  0  0  0  0  0  0
    3.9990   -2.3236    0.1369 O   0  0  0  0  0  0  0  0  0  0  0  0
   -1.3101    0.3073    0.3500 C   0  0  1  0  0  0  0  0  0  0  0  0
   -1.0390    1.6102   -0.3998 C   0  0  0  0  0  0  0  0  0  0  0  0
    1.3579    0.8681   -0.0755 C   0  0  0  0  0  0  0  0  0  0  0  0
   -2.7533   -0.1229    0.1928 C   0  0  0  0  0  0  0  0  0  0  0  0
    0.4075    1.9903   -0.2182 C   0  0  0  0  0  0  0  0  0  0  0  0
    0.8680   -0.4413   -0.0631 C   0  0  0  0  0  0  0  0  0  0  0  0
    2.7319    1.1083    0.0025 C   0  0  0  0  0  0  0  0  0  0  0  0
    1.7583   -1.5144   -0.0064 C   0  0  0  0  0  0  0  0  0  0  0  0
   -3.7130    0.3085    1.1083 C   0  0  0  0  0  0  0  0  0  0  0  0
   -3.1224   -0.9508   -0.8671 C   0  0  0  0  0  0  0  0  0  0  0  0
    3.1310   -1.2767    0.0702 C   0  0  0  0  0  0  0  0  0  0  0  0
    3.6160    0.0315    0.0796 C   0  0  0  0  0  0  0  0  0  0  0  0
   -5.0425   -0.0882    0.9638 C   0  0  0  0  0  0  0  0  0  0  0  0
   -4.4518   -1.3473   -1.0117 C   0  0  0  0  0  0  0  0  0  0  0  0
   -5.4118   -0.9161   -0.0962 C   0  0  0  0  0  0  0  0  0  0  0  0
    5.3886   -2.0105    0.2133 C   0  0  0  0  0  0  0  0  0  0  0  0
   -1.1018    0.4277    1.4236 H   0  0  0  0  0  0  0  0  0  0  0  0
   -1.6684    2.4170   -0.0082 H   0  0  0  0  0  0  0  0  0  0  0  0
   -1.2233    1.5071   -1.4756 H   0  0  0  0  0  0  0  0  0  0  0  0
    1.3845   -2.5353   -0.0112 H   0  0  0  0  0  0  0  0  0  0  0  0
   -3.4378    0.9552    1.9371 H   0  0  0  0  0  0  0  0  0  0  0  0
   -2.3971   -1.2900   -1.6014 H   0  0  0  0  0  0  0  0  0  0  0  0
    4.6741    0.2647    0.1387 H   0  0  0  0  0  0  0  0  0  0  0  0
   -5.7902    0.2481    1.6761 H   0  0  0  0  0  0  0  0  0  0  0  0
   -4.7404   -1.9894   -1.8388 H   0  0  0  0  0  0  0  0  0  0  0  0
   -6.4471   -1.2241   -0.2094 H   0  0  0  0  0  0  0  0  0  0  0  0
    4.2297    2.3121    0.0581 H   0  0  0  0  0  0  0  0  0  0  0  0
    5.6286   -1.4627    1.1310 H   0  0  0  0  0  0  0  0  0  0  0  0
    5.7346   -1.4894   -0.6859 H   0  0  0  0  0  0  0  0  0  0  0  0
    5.9312   -2.9607    0.2590 H   0  0  0  0  0  0  0  0  0  0  0  0
  1  5  1  0  0  0  0
  1 10  1  0  0  0  0
  2  9  2  0  0  0  0
  3 11  1  0  0  0  0
  3 31  1  0  0  0  0
  4 15  1  0  0  0  0
  4 20  1  0  0  0  0
  5  6  1  0  0  0  0
  5  8  1  0  0  0  0
  5 21  1  0  0  0  0
  6  9  1  0  0  0  0
  6 22  1  0  0  0  0
  6 23  1  0  0  0  0
  7  9  1  0  0  0  0
  7 10  1  0  0  0  0
  7 11  2  0  0  0  0
  8 13  2  0  0  0  0
  8 14  1  0  0  0  0
 10 12  2  0  0  0  0
 11 16  1  0  0  0  0
 12 15  1  0  0  0  0
 12 24  1  0  0  0  0
 13 17  1  0  0  0  0
 13 25  1  0  0  0  0
 14 18  2  0  0  0  0
 14 26  1  0  0  0  0
 15 16  2  0  0  0  0
 16 27  1  0  0  0  0
 17 19  2  0  0  0  0
 17 28  1  0  0  0  0
 18 19  1  0  0  0  0
 18 29  1  0  0  0  0
 19 30  1  0  0  0  0
 20 32  1  0  0  0  0
 20 33  1  0  0  0  0
 20 34  1  0  0  0  0
M  END
> <PUBCHEM_COMPOUND_CID>
73201

> <PUBCHEM_CONFORMER_RMSD>
0.6

> <PUBCHEM_CONFORMER_DIVERSEORDER>
1
3
5
2
4

> <PUBCHEM_MMFF94_PARTIAL_CHARGES>
28
1 -0.36
10 0.08
11 0.08
12 -0.15
13 -0.15
14 -0.15
15 0.08
16 -0.15
17 -0.15
18 -0.15
19 -0.15
2 -0.57
20 0.28
24 0.15
25 0.15
26 0.15
27 0.15
28 0.15
29 0.15
3 -0.53
30 0.15
31 0.45
4 -0.36
5 0.42
6 0.06
7 0.09
8 -0.14
9 0.42

> <PUBCHEM_EFFECTIVE_ROTOR_COUNT>
2.6

> <PUBCHEM_PHARMACOPHORE_FEATURES>
7
1 1 acceptor
1 2 acceptor
1 3 donor
1 4 acceptor
6 1 5 6 7 9 10 rings
6 7 10 11 12 15 16 rings
6 8 13 14 17 18 19 rings

> <PUBCHEM_HEAVY_ATOM_COUNT>
20

> <PUBCHEM_ATOM_DEF_STEREO_COUNT>
1

> <PUBCHEM_ATOM_UDEF_STEREO_COUNT>
0

> <PUBCHEM_BOND_DEF_STEREO_COUNT>
0

> <PUBCHEM_BOND_UDEF_STEREO_COUNT>
0

> <PUBCHEM_ISOTOPIC_ATOM_COUNT>
0

> <PUBCHEM_COMPONENT_COUNT>
1

> <PUBCHEM_CACTVS_TAUTO_COUNT>
9

> <PUBCHEM_CONFORMER_ID>
00011DF100000001

> <PUBCHEM_MMFF94_ENERGY>
67.8546

> <PUBCHEM_FEATURE_SELFOVERLAP>
35.55

> <PUBCHEM_SHAPE_FINGERPRINT>
10062212 137 18040153981696123831
10411042 1 18339643459916316450
10622 236 17897752901988950743
11471102 20 18341333288543885749
11578080 2 17823726155581837577
11796584 16 16415489267374562499
12107183 9 18118674646716047457
12236239 1 18186517675551379651
12553582 1 18341341092404919946
13009979 54 18040986371441947681
13134695 92 18412543180628792189
13140716 1 18411417268011283418
13167823 11 18261110755834453095
13533116 47 18262801757710488491
13544653 18 18343861130184652621
13760787 5 18342453733873735695
13862211 1 18341053007906102850
14739800 52 17023476218129593880
14767858 380 18200858653062857902
14790565 3 17836640830120037316
15042514 8 17978791538724057192
15196674 1 18411419535426597525
15442244 35 18408318908610340345
15475509 84 17896031203680463952
15848702 151 18334292097805351735
17357779 13 17988939855202827541
17492 89 18193839245744879255
1813 80 18337377340053822062
18186145 218 17418376887417840843
18222031 100 18409739473048400258
19141452 34 18187927326372077919
200 152 18334861623448479731
20028762 73 18187369826221394751
20281475 54 18334580114038132247
20612939 158 18413107234346129839
20645477 70 18272375234959109875
20739085 24 18410285913205480140
21065198 48 18187641380445006625
21267235 1 18410284835079154286
21641784 216 17845072117425680292
221490 88 18342174462014722678
22182313 1 18199490855617426996
2255824 54 18265891354723967829
22950370 63 18410288142309395926
23175994 123 17703785916991226733
23402539 116 18337676424433674279
23522609 53 18121465151493286472
23559900 14 18271808982022863850
25147074 1 18338217362970061816
2871803 45 18131355232086788546
335352 9 18338799043534116389
33824 294 18340489954709481352
3421961 26 18410576180264939424
465052 167 18408315597132857822
474 4 18122907525564051593
5104073 3 18187640276638620115
5281201 14 17775288257266718589
573450 72 17675923192863435979
602551 16 15285926793237615573
7064713 232 17530964713391457363
76465 3 18269843163055287410
7970288 3 18340773748747960322
83771 10 18411136969517403813
8863177 126 17916287373840407867
9709674 26 18199183993273522443
9971528 1 18411141311729580520
9981440 41 17255412522367893641

> <PUBCHEM_SHAPE_MULTIPOLES>
388.11
10.83
2.5
0.83
4.31
1.19
-0.03
-6.66
-1.04
-2.9
0.28
0.86
-0.08
-0.75

> <PUBCHEM_SHAPE_SELFOVERLAP>
854.357

> <PUBCHEM_SHAPE_VOLUME>
208.2

> <PUBCHEM_COORDINATE_TYPE>
2
5
10

$$$$

