443307
  -OEChem-07051213012D

 65 68  0     1  0  0  0  0  0999 V2000
    5.1350   -3.4573    0.0000 O   0  0  0  0  0  0  0  0  0  0  0  0
    6.0010   -1.9573    0.0000 O   0  0  0  0  0  0  0  0  0  0  0  0
    2.5369   -1.9573    0.0000 O   0  0  0  0  0  0  0  0  0  0  0  0
    4.2690   -0.9573    0.0000 O   0  0  0  0  0  0  0  0  0  0  0  0
    2.5369   -3.9573    0.0000 O   0  0  0  0  0  0  0  0  0  0  0  0
    7.7331    0.0427    0.0000 O   0  0  0  0  0  0  0  0  0  0  0  0
    5.1350   -5.4573    0.0000 O   0  0  0  0  0  0  0  0  0  0  0  0
    3.4030   -5.4573    0.0000 O   0  0  0  0  0  0  0  0  0  0  0  0
    5.1350   -0.4573    0.0000 O   0  0  0  0  0  0  0  0  0  0  0  0
    7.7331    4.0427    0.0000 C   0  0  3  0  0  0  0  0  0  0  0  0
    6.8671    4.5427    0.0000 C   0  0  0  0  0  0  0  0  0  0  0  0
    3.4030   -2.4573    0.0000 C   0  0  2  0  0  0  0  0  0  0  0  0
    4.2690   -1.9573    0.0000 C   0  0  2  0  0  0  0  0  0  0  0  0
    3.4030   -3.4573    0.0000 C   0  0  1  0  0  0  0  0  0  0  0  0
    6.8671    5.5427    0.0000 C   0  0  0  0  0  0  0  0  0  0  0  0
    8.5991    4.5427    0.0000 C   0  0  0  0  0  0  0  0  0  0  0  0
    5.1350   -2.4573    0.0000 C   0  0  1  0  0  0  0  0  0  0  0  0
    7.7331    6.0427    0.0000 C   0  0  0  0  0  0  0  0  0  0  0  0
    4.2690   -3.9573    0.0000 C   0  0  1  0  0  0  0  0  0  0  0  0
    8.5991    5.5427    0.0000 C   0  0  0  0  0  0  0  0  0  0  0  0
    7.7331    3.0427    0.0000 C   0  0  0  0  0  0  0  0  0  0  0  0
    9.4931    4.0080    0.0000 C   0  0  0  0  0  0  0  0  0  0  0  0
    9.4931    6.0773    0.0000 C   0  0  0  0  0  0  0  0  0  0  0  0
    6.8671   -0.4573    0.0000 C   0  0  0  0  0  0  0  0  0  0  0  0
    6.8671    2.5427    0.0000 C   0  0  0  0  0  0  0  0  0  0  0  0
    8.5991    2.5427    0.0000 C   0  0  0  0  0  0  0  0  0  0  0  0
    4.2690   -4.9573    0.0000 C   0  0  0  0  0  0  0  0  0  0  0  0
    6.0010   -0.9573    0.0000 C   0  0  0  0  0  0  0  0  0  0  0  0
   10.3991    4.5218    0.0000 C   0  0  0  0  0  0  0  0  0  0  0  0
   10.3991    5.5635    0.0000 C   0  0  0  0  0  0  0  0  0  0  0  0
    7.7331    1.0427    0.0000 C   0  0  0  0  0  0  0  0  0  0  0  0
    6.8671    1.5427    0.0000 C   0  0  0  0  0  0  0  0  0  0  0  0
    8.5991    1.5427    0.0000 C   0  0  0  0  0  0  0  0  0  0  0  0
    7.3671   -1.3234    0.0000 C   0  0  0  0  0  0  0  0  0  0  0  0
    6.3671    0.4087    0.0000 C   0  0  0  0  0  0  0  0  0  0  0  0
    7.1962    3.7327    0.0000 H   0  0  0  0  0  0  0  0  0  0  0  0
    6.2565    4.6503    0.0000 H   0  0  0  0  0  0  0  0  0  0  0  0
    6.6550    3.9601    0.0000 H   0  0  0  0  0  0  0  0  0  0  0  0
    2.8660   -2.7673    0.0000 H   0  0  0  0  0  0  0  0  0  0  0  0
    3.7320   -1.6473    0.0000 H   0  0  0  0  0  0  0  0  0  0  0  0
    3.4030   -4.0773    0.0000 H   0  0  0  0  0  0  0  0  0  0  0  0
    6.6550    6.1253    0.0000 H   0  0  0  0  0  0  0  0  0  0  0  0
    6.2565    5.4350    0.0000 H   0  0  0  0  0  0  0  0  0  0  0  0
    5.1350   -1.8373    0.0000 H   0  0  0  0  0  0  0  0  0  0  0  0
    8.1316    6.5176    0.0000 H   0  0  0  0  0  0  0  0  0  0  0  0
    7.3346    6.5176    0.0000 H   0  0  0  0  0  0  0  0  0  0  0  0
    4.8059   -4.2673    0.0000 H   0  0  0  0  0  0  0  0  0  0  0  0
    9.4859    3.3880    0.0000 H   0  0  0  0  0  0  0  0  0  0  0  0
    9.4859    6.6973    0.0000 H   0  0  0  0  0  0  0  0  0  0  0  0
    6.3301    2.8527    0.0000 H   0  0  0  0  0  0  0  0  0  0  0  0
    9.1360    2.8527    0.0000 H   0  0  0  0  0  0  0  0  0  0  0  0
    2.5369   -1.3373    0.0000 H   0  0  0  0  0  0  0  0  0  0  0  0
    3.7320   -0.6473    0.0000 H   0  0  0  0  0  0  0  0  0  0  0  0
    2.0000   -3.6473    0.0000 H   0  0  0  0  0  0  0  0  0  0  0  0
   10.9349    4.2098    0.0000 H   0  0  0  0  0  0  0  0  0  0  0  0
   10.9349    5.8755    0.0000 H   0  0  0  0  0  0  0  0  0  0  0  0
    6.3301    1.2327    0.0000 H   0  0  0  0  0  0  0  0  0  0  0  0
    9.1360    1.2327    0.0000 H   0  0  0  0  0  0  0  0  0  0  0  0
    6.8301   -1.6334    0.0000 H   0  0  0  0  0  0  0  0  0  0  0  0
    7.6771   -1.8603    0.0000 H   0  0  0  0  0  0  0  0  0  0  0  0
    7.9040   -1.0134    0.0000 H   0  0  0  0  0  0  0  0  0  0  0  0
    6.9040    0.7187    0.0000 H   0  0  0  0  0  0  0  0  0  0  0  0
    6.0571    0.9456    0.0000 H   0  0  0  0  0  0  0  0  0  0  0  0
    5.8301    0.0987    0.0000 H   0  0  0  0  0  0  0  0  0  0  0  0
    5.1350   -6.0773    0.0000 H   0  0  0  0  0  0  0  0  0  0  0  0
  1 17  1  0  0  0  0
  1 19  1  0  0  0  0
 17  2  1  6  0  0  0
  2 28  1  0  0  0  0
 12  3  1  6  0  0  0
  3 52  1  0  0  0  0
 13  4  1  1  0  0  0
  4 53  1  0  0  0  0
 14  5  1  1  0  0  0
  5 54  1  0  0  0  0
  6 24  1  0  0  0  0
  6 31  1  0  0  0  0
  7 27  1  0  0  0  0
  7 65  1  0  0  0  0
  8 27  2  0  0  0  0
  9 28  2  0  0  0  0
 10 11  1  0  0  0  0
 10 16  1  0  0  0  0
 10 21  1  0  0  0  0
 10 36  1  0  0  0  0
 11 15  1  0  0  0  0
 11 37  1  0  0  0  0
 11 38  1  0  0  0  0
 12 13  1  0  0  0  0
 12 14  1  0  0  0  0
 12 39  1  0  0  0  0
 13 17  1  0  0  0  0
 13 40  1  0  0  0  0
 14 19  1  0  0  0  0
 14 41  1  0  0  0  0
 15 18  1  0  0  0  0
 15 42  1  0  0  0  0
 15 43  1  0  0  0  0
 16 20  1  0  0  0  0
 16 22  2  0  0  0  0
 17 44  1  0  0  0  0
 18 20  1  0  0  0  0
 18 45  1  0  0  0  0
 18 46  1  0  0  0  0
 19 27  1  6  0  0  0
 19 47  1  0  0  0  0
 20 23  2  0  0  0  0
 21 25  2  0  0  0  0
 21 26  1  0  0  0  0
 22 29  1  0  0  0  0
 22 48  1  0  0  0  0
 23 30  1  0  0  0  0
 23 49  1  0  0  0  0
 24 28  1  0  0  0  0
 24 34  1  0  0  0  0
 24 35  1  0  0  0  0
 25 32  1  0  0  0  0
 25 50  1  0  0  0  0
 26 33  2  0  0  0  0
 26 51  1  0  0  0  0
 29 30  2  0  0  0  0
 29 55  1  0  0  0  0
 30 56  1  0  0  0  0
 31 32  2  0  0  0  0
 31 33  1  0  0  0  0
 32 57  1  0  0  0  0
 33 58  1  0  0  0  0
 34 59  1  0  0  0  0
 34 60  1  0  0  0  0
 34 61  1  0  0  0  0
 35 62  1  0  0  0  0
 35 63  1  0  0  0  0
 35 64  1  0  0  0  0
M  END
> <PUBCHEM_COMPOUND_CID>
443307

> <PUBCHEM_COMPOUND_CANONICALIZED>
1

> <PUBCHEM_CACTVS_COMPLEXITY>
747

> <PUBCHEM_CACTVS_HBOND_ACCEPTOR>
9

> <PUBCHEM_CACTVS_HBOND_DONOR>
4

> <PUBCHEM_CACTVS_ROTATABLE_BOND>
7

> <PUBCHEM_CACTVS_SUBSKEYS>
AAADceB4PAAAAAAAAAAAAAAAAAAAAAAAAAA0YMEAAAAAAADBQAAAGgAACAAADVSwmAMyDoAABgCIAiDSCAICCAAgIAAIiAFGCIgdNjaEMR6ieCCl4BEPqAfK7PxOoAAAAAAQAABAAAQAACAAAAAAAAAAAA==

> <PUBCHEM_IUPAC_OPENEYE_NAME>
(2S,3S,4S,5R,6S)-3,4,5-trihydroxy-6-[2-methyl-2-(4-tetralin-1-ylphenoxy)propanoyl]oxy-tetrahydropyran-2-carboxylic acid

> <PUBCHEM_IUPAC_CAS_NAME>
(2S,3S,4S,5R,6S)-3,4,5-trihydroxy-6-[2-methyl-1-oxo-2-[4-(1,2,3,4-tetrahydronaphthalen-1-yl)phenoxy]propoxy]-2-oxanecarboxylic acid

> <PUBCHEM_IUPAC_NAME>
(2S,3S,4S,5R,6S)-3,4,5-trihydroxy-6-[2-methyl-2-[4-(1,2,3,4-tetrahydronaphthalen-1-yl)phenoxy]propanoyl]oxyoxane-2-carboxylic acid

> <PUBCHEM_IUPAC_SYSTEMATIC_NAME>
(2S,3S,4S,5R,6S)-6-[2-methyl-2-[4-(1,2,3,4-tetrahydronaphthalen-1-yl)phenoxy]propanoyl]oxy-3,4,5-tris(oxidanyl)oxane-2-carboxylic acid

> <PUBCHEM_IUPAC_TRADITIONAL_NAME>
(2S,3S,4S,5R,6S)-3,4,5-trihydroxy-6-[2-methyl-2-(4-tetralin-1-ylphenoxy)propanoyl]oxy-tetrahydropyran-2-carboxylic acid

> <PUBCHEM_IUPAC_INCHI>
InChI=1S/C26H30O9/c1-26(2,25(32)34-24-21(29)19(27)20(28)22(33-24)23(30)31)35-16-12-10-15(11-13-16)18-9-5-7-14-6-3-4-8-17(14)18/h3-4,6,8,10-13,18-22,24,27-29H,5,7,9H2,1-2H3,(H,30,31)/t18?,19-,20-,21+,22-,24-/m0/s1

> <PUBCHEM_IUPAC_INCHIKEY>
JGFJGYHYYUXOAR-OWOUXODFSA-N

> <PUBCHEM_XLOGP3_AA>
3.4

> <PUBCHEM_EXACT_MASS>
486.188983

> <PUBCHEM_MOLECULAR_FORMULA>
C26H30O9

> <PUBCHEM_MOLECULAR_WEIGHT>
486.511

> <PUBCHEM_OPENEYE_CAN_SMILES>
CC(C)(C(=O)OC1C(C(C(C(O1)C(=O)O)O)O)O)OC2=CC=C(C=C2)C3CCCC4=CC=CC=C34

> <PUBCHEM_OPENEYE_ISO_SMILES>
CC(C)(C(=O)O[C@H]1[C@@H]([C@H]([C@@H]([C@H](O1)C(=O)O)O)O)O)OC2=CC=C(C=C2)C3CCCC4=CC=CC=C34

> <PUBCHEM_CACTVS_TPSA>
143

> <PUBCHEM_MONOISOTOPIC_WEIGHT>
486.188983

> <PUBCHEM_TOTAL_CHARGE>
0

> <PUBCHEM_HEAVY_ATOM_COUNT>
35

> <PUBCHEM_ATOM_DEF_STEREO_COUNT>
5

> <PUBCHEM_ATOM_UDEF_STEREO_COUNT>
1

> <PUBCHEM_BOND_DEF_STEREO_COUNT>
0

> <PUBCHEM_BOND_UDEF_STEREO_COUNT>
0

> <PUBCHEM_ISOTOPIC_ATOM_COUNT>
0

> <PUBCHEM_COMPONENT_COUNT>
1

> <PUBCHEM_CACTVS_TAUTO_COUNT>
1

> <PUBCHEM_COORDINATE_TYPE>
1
5
255

> <PUBCHEM_BONDANNOTATIONS>
10  21  3
16  20  8
16  22  8
19  27  6
17  2  6
20  23  8
21  25  8
21  26  8
22  29  8
23  30  8
25  32  8
26  33  8
29  30  8
12  3  6
31  32  8
31  33  8
13  4  5
14  5  5

$$$$

