17396010
  -OEChem-06241222533D

 48 50  0     0  0  0  0  0  0999 V2000
   -1.8228   -2.4057   -0.1120 S   0  0  0  0  0  0  0  0  0  0  0  0
   -1.6835   -3.0031    1.2099 O   0  0  0  0  0  0  0  0  0  0  0  0
   -1.8983   -3.2715   -1.2813 O   0  0  0  0  0  0  0  0  0  0  0  0
   -0.5508   -1.2875   -0.3429 N   0  0  0  0  0  0  0  0  0  0  0  0
    6.0287    0.7350   -0.0587 N   0  0  0  0  0  0  0  0  0  0  0  0
    6.2224    1.1600   -1.3164 N   0  0  0  0  0  0  0  0  0  0  0  0
    7.3490   -0.7876   -0.9036 N   0  0  0  0  0  0  0  0  0  0  0  0
   -3.2337   -1.3775   -0.1184 C   0  0  0  0  0  0  0  0  0  0  0  0
   -0.3415   -0.2058    0.6301 C   0  0  0  0  0  0  0  0  0  0  0  0
   -5.4896    0.2636   -0.1290 C   0  0  0  0  0  0  0  0  0  0  0  0
   -6.6950    1.1419   -0.1350 C   0  0  0  0  0  0  0  0  0  0  0  0
    1.0941    0.2346    0.6919 C   0  0  0  0  0  0  0  0  0  0  0  0
   -6.3356    2.6208   -0.3352 C   0  0  0  0  0  0  0  0  0  0  0  0
   -3.7028   -0.8291    1.0753 C   0  0  0  0  0  0  0  0  0  0  0  0
   -3.8925   -1.1053   -1.3173 C   0  0  0  0  0  0  0  0  0  0  0  0
   -4.8307   -0.0086    1.0700 C   0  0  0  0  0  0  0  0  0  0  0  0
   -5.0204   -0.2848   -1.3226 C   0  0  0  0  0  0  0  0  0  0  0  0
    3.7583    1.0539    0.8076 C   0  0  0  0  0  0  0  0  0  0  0  0
    1.9743   -0.3786    1.5837 C   0  0  0  0  0  0  0  0  0  0  0  0
    1.5460    1.2575   -0.1419 C   0  0  0  0  0  0  0  0  0  0  0  0
    5.1824    1.4924    0.8694 C   0  0  0  0  0  0  0  0  0  0  0  0
    3.3063    0.0311    1.6414 C   0  0  0  0  0  0  0  0  0  0  0  0
    2.8780    1.6671   -0.0840 C   0  0  0  0  0  0  0  0  0  0  0  0
   -7.5712    3.5059   -0.3745 C   0  0  0  0  0  0  0  0  0  0  0  0
    6.7014   -0.4231    0.1787 C   0  0  0  0  0  0  0  0  0  0  0  0
    7.0276    0.2044   -1.7853 C   0  0  0  0  0  0  0  0  0  0  0  0
   -0.9732    0.6465    0.3530 H   0  0  0  0  0  0  0  0  0  0  0  0
   -0.6578   -0.5210    1.6309 H   0  0  0  0  0  0  0  0  0  0  0  0
   -7.2487    1.0188    0.8049 H   0  0  0  0  0  0  0  0  0  0  0  0
   -7.3839    0.8170   -0.9256 H   0  0  0  0  0  0  0  0  0  0  0  0
   -0.2568   -1.0867   -1.3071 H   0  0  0  0  0  0  0  0  0  0  0  0
   -5.7766    2.7475   -1.2705 H   0  0  0  0  0  0  0  0  0  0  0  0
   -5.6772    2.9588    0.4745 H   0  0  0  0  0  0  0  0  0  0  0  0
   -3.2039   -1.0248    2.0203 H   0  0  0  0  0  0  0  0  0  0  0  0
   -3.5406   -1.5150   -2.2598 H   0  0  0  0  0  0  0  0  0  0  0  0
   -5.1848    0.4150    2.0062 H   0  0  0  0  0  0  0  0  0  0  0  0
   -5.5227   -0.0772   -2.2638 H   0  0  0  0  0  0  0  0  0  0  0  0
    1.6344   -1.1780    2.2368 H   0  0  0  0  0  0  0  0  0  0  0  0
    0.8704    1.7415   -0.8421 H   0  0  0  0  0  0  0  0  0  0  0  0
    5.6020    1.3551    1.8732 H   0  0  0  0  0  0  0  0  0  0  0  0
    5.2924    2.5547    0.6206 H   0  0  0  0  0  0  0  0  0  0  0  0
    3.9820   -0.4555    2.3397 H   0  0  0  0  0  0  0  0  0  0  0  0
    3.2179    2.4644   -0.7398 H   0  0  0  0  0  0  0  0  0  0  0  0
   -8.2320    3.2195   -1.1988 H   0  0  0  0  0  0  0  0  0  0  0  0
   -8.1355    3.4319    0.5605 H   0  0  0  0  0  0  0  0  0  0  0  0
   -7.2841    4.5525   -0.5168 H   0  0  0  0  0  0  0  0  0  0  0  0
    6.6862   -0.9422    1.1266 H   0  0  0  0  0  0  0  0  0  0  0  0
    7.3919    0.2319   -2.8014 H   0  0  0  0  0  0  0  0  0  0  0  0
  1  2  2  0  0  0  0
  1  3  2  0  0  0  0
  1  4  1  0  0  0  0
  1  8  1  0  0  0  0
  4  9  1  0  0  0  0
  4 31  1  0  0  0  0
  5  6  1  0  0  0  0
  5 21  1  0  0  0  0
  5 25  1  0  0  0  0
  6 26  2  0  0  0  0
  7 25  2  0  0  0  0
  7 26  1  0  0  0  0
  8 14  2  0  0  0  0
  8 15  1  0  0  0  0
  9 12  1  0  0  0  0
  9 27  1  0  0  0  0
  9 28  1  0  0  0  0
 10 11  1  0  0  0  0
 10 16  2  0  0  0  0
 10 17  1  0  0  0  0
 11 13  1  0  0  0  0
 11 29  1  0  0  0  0
 11 30  1  0  0  0  0
 12 19  2  0  0  0  0
 12 20  1  0  0  0  0
 13 24  1  0  0  0  0
 13 32  1  0  0  0  0
 13 33  1  0  0  0  0
 14 16  1  0  0  0  0
 14 34  1  0  0  0  0
 15 17  2  0  0  0  0
 15 35  1  0  0  0  0
 16 36  1  0  0  0  0
 17 37  1  0  0  0  0
 18 21  1  0  0  0  0
 18 22  2  0  0  0  0
 18 23  1  0  0  0  0
 19 22  1  0  0  0  0
 19 38  1  0  0  0  0
 20 23  2  0  0  0  0
 20 39  1  0  0  0  0
 21 40  1  0  0  0  0
 21 41  1  0  0  0  0
 22 42  1  0  0  0  0
 23 43  1  0  0  0  0
 24 44  1  0  0  0  0
 24 45  1  0  0  0  0
 24 46  1  0  0  0  0
 25 47  1  0  0  0  0
 26 48  1  0  0  0  0
M  END
> <PUBCHEM_COMPOUND_CID>
17396010

> <PUBCHEM_CONFORMER_RMSD>
1

> <PUBCHEM_CONFORMER_DIVERSEORDER>
1
31
120
135
25
48
110
118
87
95
105
53
93
62
117
137
122
71
124
106
3
63
2
69
115
77
33
75
132
39
42
57
123
59
127
138
11
61
113
65
116
121
112
40
104
24
20
102
76
23
26
5
22
49
16
131
70
44
55
37
67
125
83
101
128
29
8
130
80
45
66
78
32
35
89
30
38
79
41
136
4
107
129
21
68
17
27
94
34
50
126
134
103
9
91
90
114
109
51
28
14
60
47
133
15
97
74
46
58
98
54
64
72
88
86
19
52
7
36
81
43
92
84
100
82
108
73
99
85
6
12
56
96
18
10
13
111
119

> <PUBCHEM_MMFF94_PARTIAL_CHARGES>
35
1 1.45
10 -0.14
11 0.14
12 -0.14
14 -0.15
15 -0.15
16 -0.15
17 -0.15
18 -0.14
19 -0.15
2 -0.65
20 -0.15
21 0.4
22 -0.15
23 -0.15
25 0.04
26 0.37
3 -0.65
31 0.42
34 0.15
35 0.15
36 0.15
37 0.15
38 0.15
39 0.15
4 -0.91
42 0.15
43 0.15
47 0.15
48 0.15
5 0.31
6 -0.71
7 -0.57
8 -0.01
9 0.5

> <PUBCHEM_EFFECTIVE_ROTOR_COUNT>
8

> <PUBCHEM_PHARMACOPHORE_FEATURES>
9
1 2 acceptor
1 24 hydrophobe
1 3 acceptor
1 4 donor
3 5 7 25 cation
3 6 7 26 cation
5 5 6 7 25 26 rings
6 12 18 19 20 22 23 rings
6 8 10 14 15 16 17 rings

> <PUBCHEM_HEAVY_ATOM_COUNT>
26

> <PUBCHEM_ATOM_DEF_STEREO_COUNT>
0

> <PUBCHEM_ATOM_UDEF_STEREO_COUNT>
0

> <PUBCHEM_BOND_DEF_STEREO_COUNT>
0

> <PUBCHEM_BOND_UDEF_STEREO_COUNT>
0

> <PUBCHEM_ISOTOPIC_ATOM_COUNT>
0

> <PUBCHEM_COMPONENT_COUNT>
1

> <PUBCHEM_CACTVS_TAUTO_COUNT>
1

> <PUBCHEM_CONFORMER_ID>
0109712A00000001

> <PUBCHEM_MMFF94_ENERGY>
36.7015

> <PUBCHEM_FEATURE_SELFOVERLAP>
48.436

> <PUBCHEM_SHAPE_FINGERPRINT>
10 15 14477248167293534833
10669705 176 18335426764378502455
10670039 82 18334859437558435769
10674148 151 18272370876437619400
10864689 126 18261401108483009849
11719270 70 13840257096600191748
11724838 91 7997966882798991330
11796584 16 17967812692378890214
12730499 353 13614250282904161336
13914758 101 15502646118182012155
14117953 113 18411139173511802397
14251732 16 10879996856750550550
14251758 9 18113894923640982618
14461889 52 10375870775658620988
14647877 103 17632297943028445781
14849402 71 13398334751729741006
14856354 85 16558464197684520315
14931854 50 17530972431949004753
15064981 113 16877940568378751621
15183329 4 18260264144865973386
15439362 3 18189898785254875407
15475509 8 18272085007340372604
1768 4 14332836055644389220
190975 80 10807926068204058053
19377110 9 9799419931559366854
20028762 73 8358259267276943400
21054139 6 6627752192849266885
21130935 74 10159712304080546108
21315764 119 18409160009689420710
21585481 104 17917129682031385294
21585482 111 18197500843452824877
21987483 16 7132419212931246068
22149856 69 11527673049941292941
22864921 10 18128541659605809205
22864921 47 7925633246022209948
23522609 53 17346587552763482948
23559900 14 17604153601783075288
2838139 119 18335427837930610285
38570 142 18131351912071956763
4015057 19 16009033813573793547
4280585 95 7493280041669457115
4325135 7 12175626161665136178
439807 62 7060083481560363441
474113 269 15647328715062205900
531348 171 16877939425885224159
6328613 192 18272367538552172132
9980921 52 13913714484757008676

> <PUBCHEM_SHAPE_MULTIPOLES>
507.25
22.04
2.9
1.45
10.01
0.17
0.08
-14.17
7.03
-5.86
0.43
1.17
0.31
0.32

> <PUBCHEM_SHAPE_SELFOVERLAP>
1061.223

> <PUBCHEM_SHAPE_VOLUME>
287.1

> <PUBCHEM_COORDINATE_TYPE>
2
5
10

$$$$

