46906053
  -OEChem-07051213013D

 38 38  0     1  0  0  0  0  0999 V2000
   -1.9612   -3.0664   -0.1719 P   0  0  0  0  0  0  0  0  0  0  0  0
    4.5740   -0.4256    0.1652 P   0  0  0  0  0  0  0  0  0  0  0  0
   -0.7210   -0.0310    0.3690 O   0  0  0  0  0  0  0  0  0  0  0  0
   -0.8738    3.4642   -0.7862 O   0  0  0  0  0  0  0  0  0  0  0  0
   -3.5672    2.9597    0.0420 O   0  0  0  0  0  0  0  0  0  0  0  0
   -2.3804   -1.6811    0.5458 O   0  0  0  0  0  0  0  0  0  0  0  0
   -3.1076    0.7698    1.6781 O   0  0  0  0  0  0  0  0  0  0  0  0
    1.6048    2.6463   -0.4001 O   0  0  0  0  0  0  0  0  0  0  0  0
    3.3757    0.6327    0.4009 O   0  0  0  0  0  0  0  0  0  0  0  0
   -0.3683   -2.9137   -0.4047 O   0  0  0  0  0  0  0  0  0  0  0  0
   -2.5726   -2.8948   -1.6591 O   0  0  0  0  0  0  0  0  0  0  0  0
   -2.3879   -4.3116    0.5490 O   0  0  0  0  0  0  0  0  0  0  0  0
    3.9574   -1.7984    0.7567 O   0  0  0  0  0  0  0  0  0  0  0  0
    4.5628   -0.6710   -1.4332 O   0  0  0  0  0  0  0  0  0  0  0  0
    5.8996   -0.0251    0.7436 O   0  0  0  0  0  0  0  0  0  0  0  0
   -0.2770    1.1635   -0.2828 C   0  0  1  0  0  0  0  0  0  0  0  0
   -1.2402    2.3269   -0.0085 C   0  0  2  0  0  0  0  0  0  0  0  0
   -2.6721    1.9355   -0.3831 C   0  0  1  0  0  0  0  0  0  0  0  0
   -3.0569    0.6022    0.2577 C   0  0  1  0  0  0  0  0  0  0  0  0
   -2.0090   -0.4574   -0.0812 C   0  0  1  0  0  0  0  0  0  0  0  0
    1.1327    1.4544    0.2229 C   0  0  1  0  0  0  0  0  0  0  0  0
    2.0880    0.3207   -0.1199 C   0  0  0  0  0  0  0  0  0  0  0  0
   -0.2257    0.9867   -1.3668 H   0  0  0  0  0  0  0  0  0  0  0  0
   -1.1991    2.6308    1.0439 H   0  0  0  0  0  0  0  0  0  0  0  0
   -2.7627    1.8658   -1.4744 H   0  0  0  0  0  0  0  0  0  0  0  0
   -4.0590    0.2886   -0.0524 H   0  0  0  0  0  0  0  0  0  0  0  0
   -1.9719   -0.5968   -1.1678 H   0  0  0  0  0  0  0  0  0  0  0  0
    1.1326    1.6199    1.3070 H   0  0  0  0  0  0  0  0  0  0  0  0
    1.7483   -0.6247    0.3128 H   0  0  0  0  0  0  0  0  0  0  0  0
    2.1711    0.2102   -1.2062 H   0  0  0  0  0  0  0  0  0  0  0  0
   -0.8768    3.2027   -1.7228 H   0  0  0  0  0  0  0  0  0  0  0  0
   -4.4669    2.6796   -0.1981 H   0  0  0  0  0  0  0  0  0  0  0  0
   -2.1967    0.8381    2.0105 H   0  0  0  0  0  0  0  0  0  0  0  0
    2.5089    2.8050   -0.0789 H   0  0  0  0  0  0  0  0  0  0  0  0
    0.1315   -3.6698   -0.7798 H   0  0  0  0  0  0  0  0  0  0  0  0
   -2.5312   -3.6533   -2.2797 H   0  0  0  0  0  0  0  0  0  0  0  0
    4.5328   -2.5906    0.8154 H   0  0  0  0  0  0  0  0  0  0  0  0
    5.2546   -1.2416   -1.8305 H   0  0  0  0  0  0  0  0  0  0  0  0
  1  6  1  0  0  0  0
  1 10  1  0  0  0  0
  1 11  1  0  0  0  0
  1 12  2  0  0  0  0
  2  9  1  0  0  0  0
  2 13  1  0  0  0  0
  2 14  1  0  0  0  0
  2 15  2  0  0  0  0
  3 16  1  0  0  0  0
  3 20  1  0  0  0  0
  4 17  1  0  0  0  0
  4 31  1  0  0  0  0
  5 18  1  0  0  0  0
  5 32  1  0  0  0  0
  6 20  1  0  0  0  0
  7 19  1  0  0  0  0
  7 33  1  0  0  0  0
  8 21  1  0  0  0  0
  8 34  1  0  0  0  0
  9 22  1  0  0  0  0
 10 35  1  0  0  0  0
 11 36  1  0  0  0  0
 13 37  1  0  0  0  0
 14 38  1  0  0  0  0
 16 17  1  0  0  0  0
 16 21  1  0  0  0  0
 16 23  1  0  0  0  0
 17 18  1  0  0  0  0
 17 24  1  0  0  0  0
 18 19  1  0  0  0  0
 18 25  1  0  0  0  0
 19 20  1  0  0  0  0
 19 26  1  0  0  0  0
 20 27  1  0  0  0  0
 21 22  1  0  0  0  0
 21 28  1  0  0  0  0
 22 29  1  0  0  0  0
 22 30  1  0  0  0  0
M  END
> <PUBCHEM_COMPOUND_CID>
46906053

> <PUBCHEM_CONFORMER_RMSD>
0.8

> <PUBCHEM_CONFORMER_DIVERSEORDER>
1
46
39
40
11
32
27
22
31
38
14
29
41
26
16
45
6
9
13
21
28
15
35
48
7
33
24
5
36
18
10
42
34
3
12
25
30
44
2
20
19
23
8
47
37
17
43
4

> <PUBCHEM_MMFF94_PARTIAL_CHARGES>
30
1 1.51
10 -0.77
11 -0.77
12 -0.7
13 -0.77
14 -0.77
15 -0.7
16 0.28
17 0.28
18 0.28
19 0.28
2 1.51
20 0.56
21 0.28
22 0.28
3 -0.56
31 0.4
32 0.4
33 0.4
34 0.4
35 0.5
36 0.5
37 0.5
38 0.5
4 -0.68
5 -0.68
6 -0.55
7 -0.68
8 -0.68
9 -0.55

> <PUBCHEM_EFFECTIVE_ROTOR_COUNT>
7.2

> <PUBCHEM_PHARMACOPHORE_FEATURES>
18
1 10 acceptor
1 11 acceptor
1 12 acceptor
1 13 acceptor
1 14 acceptor
1 15 acceptor
1 3 acceptor
1 4 acceptor
1 4 donor
1 5 acceptor
1 5 donor
1 7 acceptor
1 7 donor
1 8 acceptor
1 8 donor
4 1 10 11 12 anion
4 2 13 14 15 anion
6 3 16 17 18 19 20 rings

> <PUBCHEM_HEAVY_ATOM_COUNT>
22

> <PUBCHEM_ATOM_DEF_STEREO_COUNT>
6

> <PUBCHEM_ATOM_UDEF_STEREO_COUNT>
0

> <PUBCHEM_BOND_DEF_STEREO_COUNT>
0

> <PUBCHEM_BOND_UDEF_STEREO_COUNT>
0

> <PUBCHEM_ISOTOPIC_ATOM_COUNT>
0

> <PUBCHEM_COMPONENT_COUNT>
1

> <PUBCHEM_CACTVS_TAUTO_COUNT>
1

> <PUBCHEM_CONFORMER_ID>
02CBBAC500000001

> <PUBCHEM_MMFF94_ENERGY>
-14.5098

> <PUBCHEM_FEATURE_SELFOVERLAP>
91.45

> <PUBCHEM_SHAPE_FINGERPRINT>
10616163 171 18410855447855650838
11014199 57 18123467172851224122
11552529 35 17895479116015110410
12553582 1 17762052142722824463
12990986 174 18339925901128955970
13004483 165 18046355128097179583
13140716 1 18336823070197728585
13785724 45 17834088889407112475
138480 1 16681477923440132427
14251757 5 18337935871055542886
14790565 3 18049721024942012688
14866123 147 18410295821964518675
15006816 218 17905328785800173750
15042514 8 18339637842062248259
15099037 8 18193839236774188193
15403338 16 16122474044305199715
17804303 29 18410853300002984600
17859628 97 18125161790456635555
19141452 34 18409165519446762960
19591789 44 18122906700729565346
21478907 32 18194967340437571235
23184049 29 18265895752864995652
23402539 116 18334867121318141165
23558518 356 18128533773881504472
23559900 14 18262800791654011676
23598288 3 18058426777742675853
23622692 118 18190468151461694846
23728640 28 18411702114404952467
257057 1 18048882883959815669
2748010 2 18196074759263513589
3084891 72 18192715776340821513
532947 4 17903636628952183735
5385378 56 17760359294923910641
81228 2 18194135027209232009
9709674 26 18333732438113215014

> <PUBCHEM_SHAPE_MULTIPOLES>
384.15
8.49
4.59
0.99
14.59
2.85
0.08
1.51
-0.99
-5.4
0.68
-0.11
0.28
-0.32

> <PUBCHEM_SHAPE_SELFOVERLAP>
745.001

> <PUBCHEM_SHAPE_VOLUME>
232.9

> <PUBCHEM_COORDINATE_TYPE>
2
5
10

$$$$

