21209
  -OEChem-07051213142D

 16 16  0     0  0  0  0  0  0999 V2000
    2.0000    0.6550    0.0000 Cl  0  0  0  0  0  0  0  0  0  0  0  0
    3.7320    1.6550    0.0000 N   0  0  0  0  0  0  0  0  0  0  0  0
    5.4641   -1.3450    0.0000 N   0  0  0  0  0  0  0  0  0  0  0  0
    3.7320    0.6550    0.0000 C   0  0  0  0  0  0  0  0  0  0  0  0
    4.5981   -0.8450    0.0000 C   0  0  0  0  0  0  0  0  0  0  0  0
    4.5981    0.1550    0.0000 C   0  0  0  0  0  0  0  0  0  0  0  0
    2.8660    0.1550    0.0000 C   0  0  0  0  0  0  0  0  0  0  0  0
    3.7320   -1.3450    0.0000 C   0  0  0  0  0  0  0  0  0  0  0  0
    2.8660   -0.8450    0.0000 C   0  0  0  0  0  0  0  0  0  0  0  0
    5.1350    0.4650    0.0000 H   0  0  0  0  0  0  0  0  0  0  0  0
    3.7320   -1.9650    0.0000 H   0  0  0  0  0  0  0  0  0  0  0  0
    2.3291   -1.1550    0.0000 H   0  0  0  0  0  0  0  0  0  0  0  0
    4.2690    1.9650    0.0000 H   0  0  0  0  0  0  0  0  0  0  0  0
    3.1951    1.9650    0.0000 H   0  0  0  0  0  0  0  0  0  0  0  0
    5.4641   -1.9650    0.0000 H   0  0  0  0  0  0  0  0  0  0  0  0
    6.0010   -1.0350    0.0000 H   0  0  0  0  0  0  0  0  0  0  0  0
  1  7  1  0  0  0  0
  2  4  1  0  0  0  0
  2 13  1  0  0  0  0
  2 14  1  0  0  0  0
  3  5  1  0  0  0  0
  3 15  1  0  0  0  0
  3 16  1  0  0  0  0
  4  6  1  0  0  0  0
  4  7  2  0  0  0  0
  5  6  2  0  0  0  0
  5  8  1  0  0  0  0
  6 10  1  0  0  0  0
  7  9  1  0  0  0  0
  8  9  2  0  0  0  0
  8 11  1  0  0  0  0
  9 12  1  0  0  0  0
M  END
> <PUBCHEM_COMPOUND_CID>
21209

> <PUBCHEM_COMPOUND_CANONICALIZED>
1

> <PUBCHEM_CACTVS_COMPLEXITY>
97.1

> <PUBCHEM_CACTVS_HBOND_ACCEPTOR>
2

> <PUBCHEM_CACTVS_HBOND_DONOR>
2

> <PUBCHEM_CACTVS_ROTATABLE_BOND>
0

> <PUBCHEM_CACTVS_SUBSKEYS>
AAADcYBjAAAEAAAAAAAAAAAAAAAAAAAAAAAwAAAAAAAAAAABAAAAHAIQAAAACAqBECAwwIBAAACAACRCQACCAAAgBwAIiAAAZogIICKB09GAIABgkAAIyAcQAAAAAABAAAQAABAAAIAACAAAIAAAAAAAAA==

> <PUBCHEM_IUPAC_OPENEYE_NAME>
4-chlorobenzene-1,3-diamine

> <PUBCHEM_IUPAC_CAS_NAME>
4-chlorobenzene-1,3-diamine

> <PUBCHEM_IUPAC_NAME>
4-chlorobenzene-1,3-diamine

> <PUBCHEM_IUPAC_SYSTEMATIC_NAME>
4-chloranylbenzene-1,3-diamine

> <PUBCHEM_IUPAC_TRADITIONAL_NAME>
(3-amino-4-chloro-phenyl)amine

> <PUBCHEM_IUPAC_INCHI>
InChI=1S/C6H7ClN2/c7-5-2-1-4(8)3-6(5)9/h1-3H,8-9H2

> <PUBCHEM_IUPAC_INCHIKEY>
ZWUBBMDHSZDNTA-UHFFFAOYSA-N

> <PUBCHEM_XLOGP3>
0.8

> <PUBCHEM_EXACT_MASS>
142.029776

> <PUBCHEM_MOLECULAR_FORMULA>
C6H7ClN2

> <PUBCHEM_MOLECULAR_WEIGHT>
142.58618

> <PUBCHEM_OPENEYE_CAN_SMILES>
C1=CC(=C(C=C1N)N)Cl

> <PUBCHEM_OPENEYE_ISO_SMILES>
C1=CC(=C(C=C1N)N)Cl

> <PUBCHEM_CACTVS_TPSA>
52

> <PUBCHEM_MONOISOTOPIC_WEIGHT>
142.029776

> <PUBCHEM_TOTAL_CHARGE>
0

> <PUBCHEM_HEAVY_ATOM_COUNT>
9

> <PUBCHEM_ATOM_DEF_STEREO_COUNT>
0

> <PUBCHEM_ATOM_UDEF_STEREO_COUNT>
0

> <PUBCHEM_BOND_DEF_STEREO_COUNT>
0

> <PUBCHEM_BOND_UDEF_STEREO_COUNT>
0

> <PUBCHEM_ISOTOPIC_ATOM_COUNT>
0

> <PUBCHEM_COMPONENT_COUNT>
1

> <PUBCHEM_CACTVS_TAUTO_COUNT>
1

> <PUBCHEM_COORDINATE_TYPE>
1
5
255

> <PUBCHEM_BONDANNOTATIONS>
4  6  8
4  7  8
5  6  8
5  8  8
7  9  8
8  9  8

$$$$

