11062
  -OEChem-06261205173D

 34 36  0     0  0  0  0  0  0999 V2000
    0.4823   -2.3190    0.1292 O   0  0  0  0  0  0  0  0  0  0  0  0
   -0.5390    1.7060   -0.2188 O   0  0  0  0  0  0  0  0  0  0  0  0
    4.6901    1.4062   -0.3032 O   0  0  0  0  0  0  0  0  0  0  0  0
    2.0596    2.3043   -0.3281 O   0  0  0  0  0  0  0  0  0  0  0  0
    5.0877   -1.3388   -0.0557 O   0  0  0  0  0  0  0  0  0  0  0  0
   -6.6325    0.6781    0.0634 O   0  0  0  0  0  0  0  0  0  0  0  0
    1.2246    0.0328   -0.0998 C   0  0  0  0  0  0  0  0  0  0  0  0
   -1.1516   -0.5700    0.0116 C   0  0  0  0  0  0  0  0  0  0  0  0
   -0.0798    0.4112   -0.1048 C   0  0  0  0  0  0  0  0  0  0  0  0
    1.5287   -1.4064    0.0247 C   0  0  0  0  0  0  0  0  0  0  0  0
    2.3591    0.9617   -0.2111 C   0  0  0  0  0  0  0  0  0  0  0  0
   -2.5882   -0.2422    0.0254 C   0  0  0  0  0  0  0  0  0  0  0  0
    3.6309    0.5287   -0.1988 C   0  0  0  0  0  0  0  0  0  0  0  0
   -0.8125   -1.8625    0.1205 C   0  0  0  0  0  0  0  0  0  0  0  0
    2.7893   -1.8580    0.0385 C   0  0  0  0  0  0  0  0  0  0  0  0
    3.9339   -0.9230   -0.0711 C   0  0  0  0  0  0  0  0  0  0  0  0
   -3.2288    0.0232    1.2340 C   0  0  0  0  0  0  0  0  0  0  0  0
   -3.3021   -0.1994   -1.1706 C   0  0  0  0  0  0  0  0  0  0  0  0
   -4.5890    0.3328    1.2467 C   0  0  0  0  0  0  0  0  0  0  0  0
   -4.6622    0.1103   -1.1579 C   0  0  0  0  0  0  0  0  0  0  0  0
   -5.3055    0.3763    0.0507 C   0  0  0  0  0  0  0  0  0  0  0  0
    5.1047    1.8477    0.9751 C   0  0  0  0  0  0  0  0  0  0  0  0
   -1.5063   -2.6872    0.2148 H   0  0  0  0  0  0  0  0  0  0  0  0
    3.0138   -2.9152    0.1298 H   0  0  0  0  0  0  0  0  0  0  0  0
   -2.6835   -0.0058    2.1743 H   0  0  0  0  0  0  0  0  0  0  0  0
   -2.8143   -0.4033   -2.1207 H   0  0  0  0  0  0  0  0  0  0  0  0
   -5.0846    0.5394    2.1913 H   0  0  0  0  0  0  0  0  0  0  0  0
   -5.2091    0.1412   -2.0964 H   0  0  0  0  0  0  0  0  0  0  0  0
   -1.5028    1.7448   -0.3037 H   0  0  0  0  0  0  0  0  0  0  0  0
    1.1109    2.4565   -0.2081 H   0  0  0  0  0  0  0  0  0  0  0  0
    5.9552    2.5232    0.8426 H   0  0  0  0  0  0  0  0  0  0  0  0
    5.4348    1.0101    1.5997 H   0  0  0  0  0  0  0  0  0  0  0  0
    4.3100    2.4041    1.4841 H   0  0  0  0  0  0  0  0  0  0  0  0
   -6.9678    0.6633   -0.8495 H   0  0  0  0  0  0  0  0  0  0  0  0
  1 10  1  0  0  0  0
  1 14  1  0  0  0  0
  2  9  1  0  0  0  0
  2 29  1  0  0  0  0
  3 13  1  0  0  0  0
  3 22  1  0  0  0  0
  4 11  1  0  0  0  0
  4 30  1  0  0  0  0
  5 16  2  0  0  0  0
  6 21  1  0  0  0  0
  6 34  1  0  0  0  0
  7  9  2  0  0  0  0
  7 10  1  0  0  0  0
  7 11  1  0  0  0  0
  8  9  1  0  0  0  0
  8 12  1  0  0  0  0
  8 14  2  0  0  0  0
 10 15  2  0  0  0  0
 11 13  2  0  0  0  0
 12 17  2  0  0  0  0
 12 18  1  0  0  0  0
 13 16  1  0  0  0  0
 14 23  1  0  0  0  0
 15 16  1  0  0  0  0
 15 24  1  0  0  0  0
 17 19  1  0  0  0  0
 17 25  1  0  0  0  0
 18 20  2  0  0  0  0
 18 26  1  0  0  0  0
 19 21  2  0  0  0  0
 19 27  1  0  0  0  0
 20 21  1  0  0  0  0
 20 28  1  0  0  0  0
 22 31  1  0  0  0  0
 22 32  1  0  0  0  0
 22 33  1  0  0  0  0
M  END
> <PUBCHEM_COMPOUND_CID>
11062

> <PUBCHEM_CONFORMER_RMSD>
0.6

> <PUBCHEM_CONFORMER_DIVERSEORDER>
1

> <PUBCHEM_MMFF94_PARTIAL_CHARGES>
30
1 -0.15
10 0.08
11 0.08
12 0.03
13 0.09
14 -0.07
15 -0.14
16 0.54
17 -0.15
18 -0.15
19 -0.15
2 -0.53
20 -0.15
21 0.08
22 0.28
23 0.15
24 0.15
25 0.15
26 0.15
27 0.15
28 0.15
29 0.45
3 -0.36
30 0.45
34 0.45
4 -0.53
5 -0.57
6 -0.53
8 -0.03
9 0.08

> <PUBCHEM_EFFECTIVE_ROTOR_COUNT>
2

> <PUBCHEM_PHARMACOPHORE_FEATURES>
9
1 1 acceptor
1 2 donor
1 3 acceptor
1 4 donor
1 5 acceptor
1 6 donor
6 1 7 8 9 10 14 rings
6 12 17 18 19 20 21 rings
6 7 10 11 13 15 16 rings

> <PUBCHEM_HEAVY_ATOM_COUNT>
22

> <PUBCHEM_ATOM_DEF_STEREO_COUNT>
0

> <PUBCHEM_ATOM_UDEF_STEREO_COUNT>
0

> <PUBCHEM_BOND_DEF_STEREO_COUNT>
0

> <PUBCHEM_BOND_UDEF_STEREO_COUNT>
0

> <PUBCHEM_ISOTOPIC_ATOM_COUNT>
0

> <PUBCHEM_COMPONENT_COUNT>
1

> <PUBCHEM_CACTVS_TAUTO_COUNT>
24

> <PUBCHEM_CONFORMER_ID>
00002B3600000001

> <PUBCHEM_MMFF94_ENERGY>
78.5439

> <PUBCHEM_FEATURE_SELFOVERLAP>
45.708

> <PUBCHEM_SHAPE_FINGERPRINT>
10 15 17774720861800885208
10411042 1 17907016536619048882
11045977 3 17988351620471135219
11089746 13 17603867767826359616
11471102 20 18411982464084348622
12107183 9 17394154869596417331
12236239 1 17967252005672228167
12403259 415 18131075964760172237
12670546 56 18040714787722503177
13140716 1 18125439705369700896
13533116 47 18187082888578104082
13583140 156 16127834975270535095
13675066 3 17917706872851497851
13760787 5 18408324401593755271
13862211 1 18339927120768019946
14170010 4 18343300366849795293
14386348 63 17704347793086714331
14528608 73 18186522085543704966
14790565 3 18336540611879605585
15081414 286 18411976953873890876
15196674 1 18411136900861620382
15788980 27 17846497032649473747
16988056 13 14001484310514397489
17834072 33 17822014198612053135
18186145 218 18410007736668655358
18785283 64 17702089271169748141
200 152 18260552251214036845
20511986 3 17968392203203686101
20612939 158 18409728477905410990
20645477 70 18411702131363600294
21033648 144 18337401447710535725
21033648 29 17846510244026944493
21033650 10 16372100331055931560
21267235 1 18339073904166219350
21641784 216 17915721254185213692
22182313 1 18058464234463792116
23184049 59 18413101758094067695
23402539 116 17967818258170657135
23402655 69 18260270719886027350
23557571 272 16702019846211181903
23559900 14 18335701603609530830
29717793 49 17530962522720415726
300161 21 18040157296703968469
335352 9 18411416220434648878
34797466 226 15502373379094928401
34934 24 18337115558087595542
350125 39 18339640157081321044
4072396 5 18342751710499867640
4073 2 18060412492070250523
42630746 31 18408884057402433390
474 4 18409728426466075665
5104073 3 18340208496986759994
542803 24 17603865611404272811
602551 16 15285653057586269917
8272917 22 18335699485389294727
9981440 41 17176611661933956105
9999458 23 17846494829452726350

> <PUBCHEM_SHAPE_MULTIPOLES>
417.53
12.51
1.97
0.94
6.76
0.17
0.07
-3.83
0.74
-2.6
0.09
0.86
-0.12
0.1

> <PUBCHEM_SHAPE_SELFOVERLAP>
925.087

> <PUBCHEM_SHAPE_VOLUME>
222.2

> <PUBCHEM_COORDINATE_TYPE>
2
5
10

$$$$

