442047
  -OEChem-07051212562D

 57 60  0     1  0  0  0  0  0999 V2000
    5.7767   -2.1709    0.0000 O   0  0  0  0  0  0  0  0  0  0  0  0
    4.8282    1.4864    0.0000 O   0  0  0  0  0  0  0  0  0  0  0  0
    3.5511    0.5040    0.0000 O   0  0  0  0  0  0  0  0  0  0  0  0
    8.3163   -0.9038    0.0000 O   0  0  0  0  0  0  0  0  0  0  0  0
    7.5463   -2.1242    0.0000 O   0  0  0  0  0  0  0  0  0  0  0  0
    2.6344    1.0787    0.0000 O   0  0  0  0  0  0  0  0  0  0  0  0
    3.8565    2.2089    0.0000 O   0  0  0  0  0  0  0  0  0  0  0  0
    4.8749   -0.6129    0.0000 C   0  0  1  0  0  0  0  0  0  0  0  0
    5.7823   -0.1015    0.0000 C   0  0  1  0  0  0  0  0  0  0  0  0
    6.6508   -0.5972    0.0000 C   0  0  1  0  0  0  0  0  0  0  0  0
    3.9452   -0.0535    0.0000 C   0  0  1  0  0  0  0  0  0  0  0  0
    4.8720   -1.6546    0.0000 C   0  0  2  0  0  0  0  0  0  0  0  0
    5.6284    0.8865    0.0000 C   0  0  2  0  0  0  0  0  0  0  0  0
    6.6263    0.5841    0.0000 C   0  0  0  0  0  0  0  0  0  0  0  0
    3.0000   -0.5861    0.0000 C   0  0  0  0  0  0  0  0  0  0  0  0
    7.3024    1.5532    0.0000 C   0  0  1  0  0  0  0  0  0  0  0  0
    6.3049    1.6230    0.0000 C   0  0  0  0  0  0  0  0  0  0  0  0
    3.9394   -2.2089    0.0000 C   0  0  0  0  0  0  0  0  0  0  0  0
    4.5354    0.3277    0.0000 C   0  0  0  0  0  0  0  0  0  0  0  0
    2.9970   -1.6711    0.0000 C   0  0  0  0  0  0  0  0  0  0  0  0
    7.5799   -0.2272    0.0000 C   0  0  0  0  0  0  0  0  0  0  0  0
    6.6721   -1.6386    0.0000 C   0  0  0  0  0  0  0  0  0  0  0  0
    7.8698    0.7298    0.0000 C   0  0  0  0  0  0  0  0  0  0  0  0
    2.0000   -0.5796    0.0000 C   0  0  0  0  0  0  0  0  0  0  0  0
    2.5057    0.2832    0.0000 C   0  0  0  0  0  0  0  0  0  0  0  0
    3.6167    0.8910    0.0000 C   0  0  0  0  0  0  0  0  0  0  0  0
    8.8579    0.8838    0.0000 C   0  0  0  0  0  0  0  0  0  0  0  0
    3.2116    1.4446    0.0000 C   0  0  0  0  0  0  0  0  0  0  0  0
    2.2273    1.6210    0.0000 C   0  0  0  0  0  0  0  0  0  0  0  0
    5.0441    0.3198    0.0000 H   0  0  0  0  0  0  0  0  0  0  0  0
    4.4266    0.3373    0.0000 H   0  0  0  0  0  0  0  0  0  0  0  0
    4.8795   -2.5045    0.0000 H   0  0  0  0  0  0  0  0  0  0  0  0
    5.0969    0.5672    0.0000 H   0  0  0  0  0  0  0  0  0  0  0  0
    6.2521    1.0784    0.0000 H   0  0  0  0  0  0  0  0  0  0  0  0
    6.0407    0.3807    0.0000 H   0  0  0  0  0  0  0  0  0  0  0  0
    7.5489    2.3667    0.0000 H   0  0  0  0  0  0  0  0  0  0  0  0
    6.4846    2.2163    0.0000 H   0  0  0  0  0  0  0  0  0  0  0  0
    5.7664    1.9303    0.0000 H   0  0  0  0  0  0  0  0  0  0  0  0
    3.5444   -2.6869    0.0000 H   0  0  0  0  0  0  0  0  0  0  0  0
    4.3427   -2.6798    0.0000 H   0  0  0  0  0  0  0  0  0  0  0  0
    5.1463    0.4337    0.0000 H   0  0  0  0  0  0  0  0  0  0  0  0
    4.5371    0.9477    0.0000 H   0  0  0  0  0  0  0  0  0  0  0  0
    2.3865   -1.5634    0.0000 H   0  0  0  0  0  0  0  0  0  0  0  0
    2.7864   -2.2542    0.0000 H   0  0  0  0  0  0  0  0  0  0  0  0
    2.0041    0.0404    0.0000 H   0  0  0  0  0  0  0  0  0  0  0  0
    1.3800   -0.5755    0.0000 H   0  0  0  0  0  0  0  0  0  0  0  0
    1.9959   -1.1995    0.0000 H   0  0  0  0  0  0  0  0  0  0  0  0
    3.0446    0.5896    0.0000 H   0  0  0  0  0  0  0  0  0  0  0  0
    2.1992    0.8221    0.0000 H   0  0  0  0  0  0  0  0  0  0  0  0
    1.9667   -0.0233    0.0000 H   0  0  0  0  0  0  0  0  0  0  0  0
    4.0219    1.3602    0.0000 H   0  0  0  0  0  0  0  0  0  0  0  0
    4.9022    2.1019    0.0000 H   0  0  0  0  0  0  0  0  0  0  0  0
    9.2469    0.4010    0.0000 H   0  0  0  0  0  0  0  0  0  0  0  0
    9.0816    1.4620    0.0000 H   0  0  0  0  0  0  0  0  0  0  0  0
    2.3366    2.2313    0.0000 H   0  0  0  0  0  0  0  0  0  0  0  0
    1.6170    1.7303    0.0000 H   0  0  0  0  0  0  0  0  0  0  0  0
    2.1180    1.0107    0.0000 H   0  0  0  0  0  0  0  0  0  0  0  0
  1 12  1  0  0  0  0
  1 22  1  0  0  0  0
 13  2  1  1  0  0  0
  2 52  1  0  0  0  0
  3 19  1  0  0  0  0
  3 28  1  0  0  0  0
  4 21  2  0  0  0  0
  5 22  2  0  0  0  0
  6 26  2  0  0  0  0
  7 28  2  0  0  0  0
  8  9  1  0  0  0  0
  8 11  1  0  0  0  0
  8 12  1  0  0  0  0
  8 19  1  1  0  0  0
  9 10  1  0  0  0  0
  9 13  1  0  0  0  0
  9 30  1  1  0  0  0
 10 14  1  0  0  0  0
 10 21  1  0  0  0  0
 10 22  1  6  0  0  0
 11 15  1  0  0  0  0
 11 26  1  1  0  0  0
 11 31  1  0  0  0  0
 12 18  1  0  0  0  0
 12 32  1  6  0  0  0
 13 17  1  0  0  0  0
 13 33  1  0  0  0  0
 14 16  1  0  0  0  0
 14 34  1  0  0  0  0
 14 35  1  0  0  0  0
 15 20  1  0  0  0  0
 15 24  1  0  0  0  0
 15 25  1  0  0  0  0
 16 17  1  0  0  0  0
 16 23  1  0  0  0  0
 16 36  1  6  0  0  0
 17 37  1  0  0  0  0
 17 38  1  0  0  0  0
 18 20  1  0  0  0  0
 18 39  1  0  0  0  0
 18 40  1  0  0  0  0
 19 41  1  0  0  0  0
 19 42  1  0  0  0  0
 20 43  1  0  0  0  0
 20 44  1  0  0  0  0
 21 23  1  0  0  0  0
 23 27  2  0  0  0  0
 24 45  1  0  0  0  0
 24 46  1  0  0  0  0
 24 47  1  0  0  0  0
 25 48  1  0  0  0  0
 25 49  1  0  0  0  0
 25 50  1  0  0  0  0
 26 51  1  0  0  0  0
 27 53  1  0  0  0  0
 27 54  1  0  0  0  0
 28 29  1  0  0  0  0
 29 55  1  0  0  0  0
 29 56  1  0  0  0  0
 29 57  1  0  0  0  0
M  END
> <PUBCHEM_COMPOUND_CID>
442047

> <PUBCHEM_COMPOUND_CANONICALIZED>
1

> <PUBCHEM_CACTVS_COMPLEXITY>
814

> <PUBCHEM_CACTVS_HBOND_ACCEPTOR>
7

> <PUBCHEM_CACTVS_HBOND_DONOR>
1

> <PUBCHEM_CACTVS_ROTATABLE_BOND>
4

> <PUBCHEM_CACTVS_SUBSKEYS>
AAADceB4OAAAAAAAAAAAAAAAAAAAAYAAAAA0YIAABgAAAACQAAAAGgAACAAADxSggAICCAAABgCIAojSiAAAAAAgAAAAAAEAAEgAEBYIAQACQAAFoAAAAIHK7PjPgAAAAAAAAADAAAYAADAAAQAAAAAAAA==

> <PUBCHEM_IUPAC_INCHI>
InChI=1S/C22H28O7/c1-11-13-7-14(25)17-21(8-13,18(11)26)19(27)29-16-5-6-20(3,4)15(9-23)22(16,17)10-28-12(2)24/h9,13-17,25H,1,5-8,10H2,2-4H3/t13-,14+,15-,16+,17-,21+,22+/m1/s1

> <PUBCHEM_IUPAC_INCHIKEY>
QKDLQFSLLCQTOH-MVVUPFSZSA-N

> <PUBCHEM_XLOGP3_AA>
1.5

> <PUBCHEM_EXACT_MASS>
404.183503

> <PUBCHEM_MOLECULAR_FORMULA>
C22H28O7

> <PUBCHEM_MOLECULAR_WEIGHT>
404.45352

> <PUBCHEM_OPENEYE_CAN_SMILES>
CC(=O)OCC12C(CCC(C1C=O)(C)C)OC(=O)C34C2C(CC(C3)C(=C)C4=O)O

> <PUBCHEM_OPENEYE_ISO_SMILES>
CC(=O)OC[C@@]12[C@H](CCC([C@H]1C=O)(C)C)OC(=O)[C@]34[C@H]2[C@H](C[C@H](C3)C(=C)C4=O)O

> <PUBCHEM_CACTVS_TPSA>
107

> <PUBCHEM_MONOISOTOPIC_WEIGHT>
404.183503

> <PUBCHEM_TOTAL_CHARGE>
0

> <PUBCHEM_HEAVY_ATOM_COUNT>
29

> <PUBCHEM_ATOM_DEF_STEREO_COUNT>
7

> <PUBCHEM_ATOM_UDEF_STEREO_COUNT>
0

> <PUBCHEM_BOND_DEF_STEREO_COUNT>
0

> <PUBCHEM_BOND_UDEF_STEREO_COUNT>
0

> <PUBCHEM_ISOTOPIC_ATOM_COUNT>
0

> <PUBCHEM_COMPONENT_COUNT>
1

> <PUBCHEM_CACTVS_TAUTO_COUNT>
2

> <PUBCHEM_COORDINATE_TYPE>
1
5
255

> <PUBCHEM_BONDANNOTATIONS>
10  22  6
11  26  5
12  32  6
16  36  6
13  2  5
8  19  5
9  30  5

$$$$

