65542
  -OEChem-07051212502D

 48 51  0     1  0  0  0  0  0999 V2000
    7.4149   -1.8334    0.0000 O   0  0  0  0  0  0  0  0  0  0  0  0
    8.6500    2.4533    0.0000 O   0  0  0  0  0  0  0  0  0  0  0  0
    2.0000   -1.8542    0.0000 O   0  0  0  0  0  0  0  0  0  0  0  0
    6.5271   -0.3019    0.0000 C   0  0  2  0  0  0  0  0  0  0  0  0
    5.6610    0.1981    0.0000 C   0  0  1  0  0  0  0  0  0  0  0  0
    7.3931    0.1981    0.0000 C   0  0  1  0  0  0  0  0  0  0  0  0
    7.3931    1.1981    0.0000 C   0  0  2  0  0  0  0  0  0  0  0  0
    4.7510   -0.3088    0.0000 C   0  0  2  0  0  0  0  0  0  0  0  0
    5.6610    1.1981    0.0000 C   0  0  0  0  0  0  0  0  0  0  0  0
    6.5271    1.6981    0.0000 C   0  0  0  0  0  0  0  0  0  0  0  0
    6.5431   -1.3434    0.0000 C   0  0  1  0  0  0  0  0  0  0  0  0
    8.3393   -0.1066    0.0000 C   0  0  0  0  0  0  0  0  0  0  0  0
    4.7430   -1.3504    0.0000 C   0  0  0  0  0  0  0  0  0  0  0  0
    5.6451   -1.8712    0.0000 C   0  0  0  0  0  0  0  0  0  0  0  0
    8.3393    1.5028    0.0000 C   0  0  0  0  0  0  0  0  0  0  0  0
    8.9229    0.6981    0.0000 C   0  0  0  0  0  0  0  0  0  0  0  0
    3.8242    0.2553    0.0000 C   0  0  0  0  0  0  0  0  0  0  0  0
    7.3931    2.1981    0.0000 C   0  0  0  0  0  0  0  0  0  0  0  0
    4.7587    0.6912    0.0000 C   0  0  0  0  0  0  0  0  0  0  0  0
    2.8763   -0.2726    0.0000 C   0  0  0  0  0  0  0  0  0  0  0  0
    3.8076   -1.9001    0.0000 C   0  0  0  0  0  0  0  0  0  0  0  0
    2.8680   -1.3576    0.0000 C   0  0  0  0  0  0  0  0  0  0  0  0
    7.2664   -0.7212    0.0000 H   0  0  0  0  0  0  0  0  0  0  0  0
    6.3972    0.6231    0.0000 H   0  0  0  0  0  0  0  0  0  0  0  0
    7.4830   -0.6471    0.0000 H   0  0  0  0  0  0  0  0  0  0  0  0
    5.4490    1.7807    0.0000 H   0  0  0  0  0  0  0  0  0  0  0  0
    5.0504    1.0904    0.0000 H   0  0  0  0  0  0  0  0  0  0  0  0
    6.9256    2.1730    0.0000 H   0  0  0  0  0  0  0  0  0  0  0  0
    6.1285    2.1730    0.0000 H   0  0  0  0  0  0  0  0  0  0  0  0
    6.5491   -1.9634    0.0000 H   0  0  0  0  0  0  0  0  0  0  0  0
    8.0883   -0.6736    0.0000 H   0  0  0  0  0  0  0  0  0  0  0  0
    8.8767   -0.4159    0.0000 H   0  0  0  0  0  0  0  0  0  0  0  0
    5.2478   -2.3472    0.0000 H   0  0  0  0  0  0  0  0  0  0  0  0
    6.0460   -2.3441    0.0000 H   0  0  0  0  0  0  0  0  0  0  0  0
    9.3838    0.2834    0.0000 H   0  0  0  0  0  0  0  0  0  0  0  0
    9.3838    1.1128    0.0000 H   0  0  0  0  0  0  0  0  0  0  0  0
    4.2324    0.7220    0.0000 H   0  0  0  0  0  0  0  0  0  0  0  0
    3.4343    0.7374    0.0000 H   0  0  0  0  0  0  0  0  0  0  0  0
    8.0131    2.1981    0.0000 H   0  0  0  0  0  0  0  0  0  0  0  0
    7.3931    2.8181    0.0000 H   0  0  0  0  0  0  0  0  0  0  0  0
    6.7731    2.1981    0.0000 H   0  0  0  0  0  0  0  0  0  0  0  0
    5.3787    0.6864    0.0000 H   0  0  0  0  0  0  0  0  0  0  0  0
    4.7635    1.3112    0.0000 H   0  0  0  0  0  0  0  0  0  0  0  0
    4.1388    0.6960    0.0000 H   0  0  0  0  0  0  0  0  0  0  0  0
    2.6718    0.3127    0.0000 H   0  0  0  0  0  0  0  0  0  0  0  0
    2.2647   -0.3740    0.0000 H   0  0  0  0  0  0  0  0  0  0  0  0
    3.8100   -2.5201    0.0000 H   0  0  0  0  0  0  0  0  0  0  0  0
    7.4220   -2.4533    0.0000 H   0  0  0  0  0  0  0  0  0  0  0  0
 11  1  1  6  0  0  0
  1 48  1  0  0  0  0
  2 15  2  0  0  0  0
  3 22  2  0  0  0  0
  4  5  1  0  0  0  0
  4  6  1  0  0  0  0
  4 11  1  0  0  0  0
  4 23  1  1  0  0  0
  5  8  1  0  0  0  0
  5  9  1  0  0  0  0
  5 24  1  6  0  0  0
  6  7  1  0  0  0  0
  6 12  1  0  0  0  0
  6 25  1  6  0  0  0
  7 10  1  0  0  0  0
  7 15  1  0  0  0  0
  7 18  1  1  0  0  0
  8 13  1  0  0  0  0
  8 17  1  0  0  0  0
  8 19  1  1  0  0  0
  9 10  1  0  0  0  0
  9 26  1  0  0  0  0
  9 27  1  0  0  0  0
 10 28  1  0  0  0  0
 10 29  1  0  0  0  0
 11 14  1  0  0  0  0
 11 30  1  0  0  0  0
 12 16  1  0  0  0  0
 12 31  1  0  0  0  0
 12 32  1  0  0  0  0
 13 14  1  0  0  0  0
 13 21  2  0  0  0  0
 14 33  1  0  0  0  0
 14 34  1  0  0  0  0
 15 16  1  0  0  0  0
 16 35  1  0  0  0  0
 16 36  1  0  0  0  0
 17 20  1  0  0  0  0
 17 37  1  0  0  0  0
 17 38  1  0  0  0  0
 18 39  1  0  0  0  0
 18 40  1  0  0  0  0
 18 41  1  0  0  0  0
 19 42  1  0  0  0  0
 19 43  1  0  0  0  0
 19 44  1  0  0  0  0
 20 22  1  0  0  0  0
 20 45  1  0  0  0  0
 20 46  1  0  0  0  0
 21 22  1  0  0  0  0
 21 47  1  0  0  0  0
M  END
> <PUBCHEM_COMPOUND_CID>
65542

> <PUBCHEM_COMPOUND_CANONICALIZED>
1

> <PUBCHEM_CACTVS_COMPLEXITY>
577

> <PUBCHEM_CACTVS_HBOND_ACCEPTOR>
3

> <PUBCHEM_CACTVS_HBOND_DONOR>
1

> <PUBCHEM_CACTVS_ROTATABLE_BOND>
0

> <PUBCHEM_CACTVS_SUBSKEYS>
AAADceB4MAAAAAAAAAAAAAAAAAAAAYAAAAAwYIAAAAAAAGDAAAAAGgAACAAADxSggAICAAAAAgCIAqBSAAAAAAAgAAAACAEAAEgAEBIAAQAAQAAEwAAIAQOIzPDPgAAAAAAAAADAAAYAADAAAAAACAAAAA==

> <PUBCHEM_IUPAC_OPENEYE_NAME>
(7R,8R,9S,10R,13S,14S)-7-hydroxy-10,13-dimethyl-2,6,7,8,9,11,12,14,15,16-decahydro-1H-cyclopenta[a]phenanthrene-3,17-dione

> <PUBCHEM_IUPAC_CAS_NAME>
(7R,8R,9S,10R,13S,14S)-7-hydroxy-10,13-dimethyl-2,6,7,8,9,11,12,14,15,16-decahydro-1H-cyclopenta[a]phenanthrene-3,17-dione

> <PUBCHEM_IUPAC_NAME>
(7R,8R,9S,10R,13S,14S)-7-hydroxy-10,13-dimethyl-2,6,7,8,9,11,12,14,15,16-decahydro-1H-cyclopenta[a]phenanthrene-3,17-dione

> <PUBCHEM_IUPAC_SYSTEMATIC_NAME>
(7R,8R,9S,10R,13S,14S)-10,13-dimethyl-7-oxidanyl-2,6,7,8,9,11,12,14,15,16-decahydro-1H-cyclopenta[a]phenanthrene-3,17-dione

> <PUBCHEM_IUPAC_TRADITIONAL_NAME>
(7R,8R,9S,10R,13S,14S)-7-hydroxy-10,13-dimethyl-2,6,7,8,9,11,12,14,15,16-decahydro-1H-cyclopenta[a]phenanthrene-3,17-quinone

> <PUBCHEM_IUPAC_INCHI>
InChI=1S/C19H26O3/c1-18-7-5-12(20)9-11(18)10-15(21)17-13-3-4-16(22)19(13,2)8-6-14(17)18/h9,13-15,17,21H,3-8,10H2,1-2H3/t13-,14-,15+,17-,18-,19-/m0/s1

> <PUBCHEM_IUPAC_INCHIKEY>
LFWLQMQUJQUZBD-TYHLISGHSA-N

> <PUBCHEM_XLOGP3>
1.6

> <PUBCHEM_EXACT_MASS>
302.188195

> <PUBCHEM_MOLECULAR_FORMULA>
C19H26O3

> <PUBCHEM_MOLECULAR_WEIGHT>
302.40794

> <PUBCHEM_OPENEYE_CAN_SMILES>
CC12CCC3C(C1CCC2=O)C(CC4=CC(=O)CCC34C)O

> <PUBCHEM_OPENEYE_ISO_SMILES>
C[C@]12CC[C@H]3[C@H]([C@@H]1CCC2=O)[C@@H](CC4=CC(=O)CC[C@]34C)O

> <PUBCHEM_CACTVS_TPSA>
54.4

> <PUBCHEM_MONOISOTOPIC_WEIGHT>
302.188195

> <PUBCHEM_TOTAL_CHARGE>
0

> <PUBCHEM_HEAVY_ATOM_COUNT>
22

> <PUBCHEM_ATOM_DEF_STEREO_COUNT>
6

> <PUBCHEM_ATOM_UDEF_STEREO_COUNT>
0

> <PUBCHEM_BOND_DEF_STEREO_COUNT>
0

> <PUBCHEM_BOND_UDEF_STEREO_COUNT>
0

> <PUBCHEM_ISOTOPIC_ATOM_COUNT>
0

> <PUBCHEM_COMPONENT_COUNT>
1

> <PUBCHEM_CACTVS_TAUTO_COUNT>
10

> <PUBCHEM_COORDINATE_TYPE>
1
5
255

> <PUBCHEM_BONDANNOTATIONS>
11  1  6
4  23  5
5  24  6
6  25  6
7  18  5
8  19  5

$$$$

