5281266
  -OEChem-07051212553D

 70 72  0     1  0  0  0  0  0999 V2000
    1.8922    2.8466    2.1858 O   0  0  0  0  0  0  0  0  0  0  0  0
    5.9749   -2.6368   -0.7944 O   0  0  0  0  0  0  0  0  0  0  0  0
   -4.0484    0.3953    0.2144 O   0  0  0  0  0  0  0  0  0  0  0  0
   -4.5388    1.9527   -1.4208 O   0  0  0  0  0  0  0  0  0  0  0  0
   -6.3721   -2.4665    0.3309 N   0  0  0  0  0  0  0  0  0  0  0  0
    2.1299   -0.6811   -0.2379 C   0  0  1  0  0  0  0  0  0  0  0  0
    3.4552    0.0585    0.1843 C   0  0  2  0  0  0  0  0  0  0  0  0
    1.0742    0.4360   -0.6393 C   0  0  2  0  0  0  0  0  0  0  0  0
    0.8327    1.4666    0.5063 C   0  0  1  0  0  0  0  0  0  0  0  0
    4.7550   -0.8224    0.3180 C   0  0  0  0  0  0  0  0  0  0  0  0
    3.1935    0.9929    1.3792 C   0  0  0  0  0  0  0  0  0  0  0  0
    2.4300   -1.5751   -1.4703 C   0  0  0  0  0  0  0  0  0  0  0  0
    2.1559    2.0592    1.0262 C   0  0  2  0  0  0  0  0  0  0  0  0
    4.8942   -1.7171   -0.9473 C   0  0  2  0  0  0  0  0  0  0  0  0
   -0.2769   -0.1306   -1.1408 C   0  0  0  0  0  0  0  0  0  0  0  0
   -0.1949    2.5772    0.1171 C   0  0  2  0  0  0  0  0  0  0  0  0
    3.6286   -2.4977   -1.2835 C   0  0  0  0  0  0  0  0  0  0  0  0
    1.5446   -1.5786    0.8804 C   0  0  0  0  0  0  0  0  0  0  0  0
   -1.2551    0.9658   -1.5582 C   0  0  0  0  0  0  0  0  0  0  0  0
    6.0024    0.1077    0.3549 C   0  0  0  0  0  0  0  0  0  0  0  0
    4.8250   -1.6638    1.6102 C   0  0  0  0  0  0  0  0  0  0  0  0
   -1.4559    1.9438   -0.4352 C   0  0  0  0  0  0  0  0  0  0  0  0
    0.3395    3.6228   -0.8710 C   0  0  0  0  0  0  0  0  0  0  0  0
   -2.6717    2.2144    0.0639 C   0  0  0  0  0  0  0  0  0  0  0  0
   -3.8601    1.5419   -0.4928 C   0  0  0  0  0  0  0  0  0  0  0  0
   -5.1681   -0.3998   -0.1895 C   0  0  0  0  0  0  0  0  0  0  0  0
   -5.2350   -1.6345    0.6952 C   0  0  0  0  0  0  0  0  0  0  0  0
   -7.6230   -1.7124    0.4432 C   0  0  0  0  0  0  0  0  0  0  0  0
   -6.4276   -3.6652    1.1712 C   0  0  0  0  0  0  0  0  0  0  0  0
    3.6819    0.7281   -0.6627 H   0  0  0  0  0  0  0  0  0  0  0  0
    1.5107    0.9879   -1.4847 H   0  0  0  0  0  0  0  0  0  0  0  0
    0.3641    0.9294    1.3440 H   0  0  0  0  0  0  0  0  0  0  0  0
    2.8744    0.4358    2.2667 H   0  0  0  0  0  0  0  0  0  0  0  0
    4.1064    1.5138    1.6862 H   0  0  0  0  0  0  0  0  0  0  0  0
    2.6160   -0.9401   -2.3467 H   0  0  0  0  0  0  0  0  0  0  0  0
    1.5612   -2.1962   -1.7181 H   0  0  0  0  0  0  0  0  0  0  0  0
    2.5981    2.7237    0.2765 H   0  0  0  0  0  0  0  0  0  0  0  0
    5.1441   -1.0850   -1.8091 H   0  0  0  0  0  0  0  0  0  0  0  0
   -0.7539   -0.7339   -0.3601 H   0  0  0  0  0  0  0  0  0  0  0  0
   -0.1187   -0.7864   -2.0030 H   0  0  0  0  0  0  0  0  0  0  0  0
   -0.4532    3.1217    1.0363 H   0  0  0  0  0  0  0  0  0  0  0  0
    3.4235   -3.2577   -0.5214 H   0  0  0  0  0  0  0  0  0  0  0  0
    3.7947   -3.0664   -2.2076 H   0  0  0  0  0  0  0  0  0  0  0  0
    0.6372   -2.0916    0.5453 H   0  0  0  0  0  0  0  0  0  0  0  0
    2.2222   -2.3741    1.1829 H   0  0  0  0  0  0  0  0  0  0  0  0
    1.2837   -1.0200    1.7822 H   0  0  0  0  0  0  0  0  0  0  0  0
   -2.1769    0.4866   -1.9012 H   0  0  0  0  0  0  0  0  0  0  0  0
   -0.8576    1.4983   -2.4310 H   0  0  0  0  0  0  0  0  0  0  0  0
    6.0496    0.6940    1.2778 H   0  0  0  0  0  0  0  0  0  0  0  0
    6.9334   -0.4684    0.3008 H   0  0  0  0  0  0  0  0  0  0  0  0
    6.0024    0.8065   -0.4892 H   0  0  0  0  0  0  0  0  0  0  0  0
    4.1761   -2.5391    1.5861 H   0  0  0  0  0  0  0  0  0  0  0  0
    5.8394   -2.0471    1.7774 H   0  0  0  0  0  0  0  0  0  0  0  0
    4.5702   -1.0737    2.4955 H   0  0  0  0  0  0  0  0  0  0  0  0
    1.1090    4.2464   -0.4051 H   0  0  0  0  0  0  0  0  0  0  0  0
    0.7728    3.1670   -1.7665 H   0  0  0  0  0  0  0  0  0  0  0  0
   -0.4601    4.2989   -1.1955 H   0  0  0  0  0  0  0  0  0  0  0  0
    1.5123    2.2627    2.8643 H   0  0  0  0  0  0  0  0  0  0  0  0
    5.6966   -3.3393   -0.1831 H   0  0  0  0  0  0  0  0  0  0  0  0
   -2.8280    2.9091    0.8805 H   0  0  0  0  0  0  0  0  0  0  0  0
   -6.0553    0.2318   -0.0833 H   0  0  0  0  0  0  0  0  0  0  0  0
   -5.0472   -0.6863   -1.2413 H   0  0  0  0  0  0  0  0  0  0  0  0
   -4.2988   -2.1956    0.5773 H   0  0  0  0  0  0  0  0  0  0  0  0
   -5.2725   -1.3291    1.7498 H   0  0  0  0  0  0  0  0  0  0  0  0
   -7.7238   -1.2082    1.4113 H   0  0  0  0  0  0  0  0  0  0  0  0
   -8.4836   -2.3832    0.3285 H   0  0  0  0  0  0  0  0  0  0  0  0
   -7.7321   -0.9801   -0.3626 H   0  0  0  0  0  0  0  0  0  0  0  0
   -7.2464   -4.3208    0.8546 H   0  0  0  0  0  0  0  0  0  0  0  0
   -6.5688   -3.4210    2.2304 H   0  0  0  0  0  0  0  0  0  0  0  0
   -5.5048   -4.2476    1.0710 H   0  0  0  0  0  0  0  0  0  0  0  0
  1 13  1  0  0  0  0
  1 58  1  0  0  0  0
  2 14  1  0  0  0  0
  2 59  1  0  0  0  0
  3 25  1  0  0  0  0
  3 26  1  0  0  0  0
  4 25  2  0  0  0  0
  5 27  1  0  0  0  0
  5 28  1  0  0  0  0
  5 29  1  0  0  0  0
  6  7  1  0  0  0  0
  6  8  1  0  0  0  0
  6 12  1  0  0  0  0
  6 18  1  0  0  0  0
  7 10  1  0  0  0  0
  7 11  1  0  0  0  0
  7 30  1  0  0  0  0
  8  9  1  0  0  0  0
  8 15  1  0  0  0  0
  8 31  1  0  0  0  0
  9 13  1  0  0  0  0
  9 16  1  0  0  0  0
  9 32  1  0  0  0  0
 10 14  1  0  0  0  0
 10 20  1  0  0  0  0
 10 21  1  0  0  0  0
 11 13  1  0  0  0  0
 11 33  1  0  0  0  0
 11 34  1  0  0  0  0
 12 17  1  0  0  0  0
 12 35  1  0  0  0  0
 12 36  1  0  0  0  0
 13 37  1  0  0  0  0
 14 17  1  0  0  0  0
 14 38  1  0  0  0  0
 15 19  1  0  0  0  0
 15 39  1  0  0  0  0
 15 40  1  0  0  0  0
 16 22  1  0  0  0  0
 16 23  1  0  0  0  0
 16 41  1  0  0  0  0
 17 42  1  0  0  0  0
 17 43  1  0  0  0  0
 18 44  1  0  0  0  0
 18 45  1  0  0  0  0
 18 46  1  0  0  0  0
 19 22  1  0  0  0  0
 19 47  1  0  0  0  0
 19 48  1  0  0  0  0
 20 49  1  0  0  0  0
 20 50  1  0  0  0  0
 20 51  1  0  0  0  0
 21 52  1  0  0  0  0
 21 53  1  0  0  0  0
 21 54  1  0  0  0  0
 22 24  2  0  0  0  0
 23 55  1  0  0  0  0
 23 56  1  0  0  0  0
 23 57  1  0  0  0  0
 24 25  1  0  0  0  0
 24 60  1  0  0  0  0
 26 27  1  0  0  0  0
 26 61  1  0  0  0  0
 26 62  1  0  0  0  0
 27 63  1  0  0  0  0
 27 64  1  0  0  0  0
 28 65  1  0  0  0  0
 28 66  1  0  0  0  0
 28 67  1  0  0  0  0
 29 68  1  0  0  0  0
 29 69  1  0  0  0  0
 29 70  1  0  0  0  0
M  END
> <PUBCHEM_COMPOUND_CID>
5281266

> <PUBCHEM_CONFORMER_RMSD>
0.8

> <PUBCHEM_CONFORMER_DIVERSEORDER>
1
21
5
20
23
26
12
16
3
25
24
4
14
6
22
15
11
13
10
7
8
9
2
17
19
18

> <PUBCHEM_MMFF94_PARTIAL_CHARGES>
19
1 -0.68
13 0.28
14 0.28
16 0.14
19 0.14
2 -0.68
22 -0.28
24 -0.14
25 0.71
26 0.28
27 0.27
28 0.27
29 0.27
3 -0.43
4 -0.57
5 -0.81
58 0.4
59 0.4
60 0.15

> <PUBCHEM_EFFECTIVE_ROTOR_COUNT>
6.8

> <PUBCHEM_PHARMACOPHORE_FEATURES>
10
1 1 acceptor
1 1 donor
1 2 acceptor
1 2 donor
1 4 acceptor
1 5 cation
3 10 20 21 hydrophobe
6 6 7 10 12 14 17 rings
6 6 7 8 9 11 13 rings
6 8 9 15 16 19 22 rings

> <PUBCHEM_HEAVY_ATOM_COUNT>
29

> <PUBCHEM_ATOM_DEF_STEREO_COUNT>
7

> <PUBCHEM_ATOM_UDEF_STEREO_COUNT>
0

> <PUBCHEM_BOND_DEF_STEREO_COUNT>
1

> <PUBCHEM_BOND_UDEF_STEREO_COUNT>
0

> <PUBCHEM_ISOTOPIC_ATOM_COUNT>
0

> <PUBCHEM_COMPONENT_COUNT>
1

> <PUBCHEM_CACTVS_TAUTO_COUNT>
1

> <PUBCHEM_CONFORMER_ID>
005095F200000001

> <PUBCHEM_MMFF94_ENERGY>
100.9834

> <PUBCHEM_FEATURE_SELFOVERLAP>
50.771

> <PUBCHEM_SHAPE_FINGERPRINT>
10076449 9 17894899751387813062
10940486 97 17916861443670016901
10981352 41 18262239903111397279
11135609 12 18340208492860272173
117089 54 18116986883103266374
11796584 16 18199475539558002441
11828532 37 17771896148622977147
11963148 33 17981327785758987699
12035758 1 17968678055184484786
12166972 35 17704349953228580271
12422481 6 17967531225854893087
12623949 98 18187636977475904541
12633257 1 15574717967812156289
12778500 126 6338967629030727900
13075007 39 18333170557173964560
13140716 1 17970095299765915544
13690498 29 17918272082801976533
13782708 43 18413109472019290483
14251764 30 18337950194270750030
14787075 74 18336549429932611480
14950920 106 17458338612187051459
14955137 171 17895197748613392792
15183329 4 12895080613469893207
15510800 12 18341336592218080143
15721738 202 18113614560649137939
17138139 8 17775568653985377938
17492 89 18339641140766137853
18335252 98 18409164412057240086
20028762 73 18335980887789956711
20567600 70 18342175536310584067
20715895 44 9223237342454062271
21049683 271 18337104580342117412
21781051 124 18261105301790769438
22149856 69 18187634834255516897
2260408 40 16733529607237066703
23424784 1240 18334289898671625287
23559900 14 18341058475552490469
23569914 152 11813134838560341947
25122255 55 18343300345580596179
25222932 49 18201451259174685618
2838139 119 9871464288502697065
4073 2 18337109085239843849
437795 51 18187929422638222744
439807 62 18131634483040683763
465052 167 18333168371178178748
484989 97 18262791982576549718
5104073 3 18115031934306532280
636775 8 18189605216056675598
7495541 125 18341336669084145768
8863177 126 18410011026930257871

> <PUBCHEM_SHAPE_MULTIPOLES>
568.35
16
4.04
1.49
21.7
0.26
-0.14
-17.49
-2.82
2.7
-0.32
-0.99
0.04
3.22

> <PUBCHEM_SHAPE_SELFOVERLAP>
1165.874

> <PUBCHEM_SHAPE_VOLUME>
327.2

> <PUBCHEM_COORDINATE_TYPE>
2
5
10

$$$$

