5281699
  -OEChem-07051212593D

 35 37  0     0  0  0  0  0  0999 V2000
   -0.6295   -0.8742    0.1148 O   0  0  0  0  0  0  0  0  0  0  0  0
    0.4641    2.6438   -0.0089 O   0  0  0  0  0  0  0  0  0  0  0  0
   -4.6920    1.7558   -0.1444 O   0  0  0  0  0  0  0  0  0  0  0  0
   -2.3091    2.8317   -0.1075 O   0  0  0  0  0  0  0  0  0  0  0  0
    5.6629   -0.8131    0.3595 O   0  0  0  0  0  0  0  0  0  0  0  0
   -4.8805   -2.9849    0.0441 O   0  0  0  0  0  0  0  0  0  0  0  0
    4.3813   -0.6641   -2.1025 O   0  0  0  0  0  0  0  0  0  0  0  0
   -2.6282    0.4968   -0.0151 C   0  0  0  0  0  0  0  0  0  0  0  0
    0.1483    0.2730    0.1076 C   0  0  0  0  0  0  0  0  0  0  0  0
   -1.9927   -0.7406    0.0596 C   0  0  0  0  0  0  0  0  0  0  0  0
    1.5929   -0.0117    0.1701 C   0  0  0  0  0  0  0  0  0  0  0  0
   -0.3391    1.5246    0.0295 C   0  0  0  0  0  0  0  0  0  0  0  0
   -1.8078    1.7176   -0.0369 C   0  0  0  0  0  0  0  0  0  0  0  0
   -4.0222    0.5721   -0.0702 C   0  0  0  0  0  0  0  0  0  0  0  0
   -2.7485   -1.9131    0.0793 C   0  0  0  0  0  0  0  0  0  0  0  0
    2.3176   -0.2063   -1.0061 C   0  0  0  0  0  0  0  0  0  0  0  0
    2.2367   -0.0869    1.4056 C   0  0  0  0  0  0  0  0  0  0  0  0
   -4.1406   -1.8423    0.0247 C   0  0  0  0  0  0  0  0  0  0  0  0
   -4.7759   -0.6020   -0.0498 C   0  0  0  0  0  0  0  0  0  0  0  0
    3.6848   -0.4759   -0.9470 C   0  0  0  0  0  0  0  0  0  0  0  0
    4.3280   -0.5509    0.2886 C   0  0  0  0  0  0  0  0  0  0  0  0
    3.6040   -0.3565    1.4648 C   0  0  0  0  0  0  0  0  0  0  0  0
    6.5455    0.3072    0.3401 C   0  0  0  0  0  0  0  0  0  0  0  0
   -2.2558   -2.8805    0.1370 H   0  0  0  0  0  0  0  0  0  0  0  0
    1.8238   -0.1501   -1.9738 H   0  0  0  0  0  0  0  0  0  0  0  0
    1.6855    0.0616    2.3310 H   0  0  0  0  0  0  0  0  0  0  0  0
   -5.8611   -0.5451   -0.0925 H   0  0  0  0  0  0  0  0  0  0  0  0
    4.0984   -0.4143    2.4307 H   0  0  0  0  0  0  0  0  0  0  0  0
   -0.1192    3.4199   -0.0725 H   0  0  0  0  0  0  0  0  0  0  0  0
   -4.0701    2.4993   -0.1475 H   0  0  0  0  0  0  0  0  0  0  0  0
   -5.8235   -2.7508   -0.0005 H   0  0  0  0  0  0  0  0  0  0  0  0
    5.3026   -0.8789   -1.8768 H   0  0  0  0  0  0  0  0  0  0  0  0
    6.3815    0.9369    1.2203 H   0  0  0  0  0  0  0  0  0  0  0  0
    6.4076    0.8954   -0.5726 H   0  0  0  0  0  0  0  0  0  0  0  0
    7.5730   -0.0659    0.3637 H   0  0  0  0  0  0  0  0  0  0  0  0
  1  9  1  0  0  0  0
  1 10  1  0  0  0  0
  2 12  1  0  0  0  0
  2 29  1  0  0  0  0
  3 14  1  0  0  0  0
  3 30  1  0  0  0  0
  4 13  2  0  0  0  0
  5 21  1  0  0  0  0
  5 23  1  0  0  0  0
  6 18  1  0  0  0  0
  6 31  1  0  0  0  0
  7 20  1  0  0  0  0
  7 32  1  0  0  0  0
  8 10  1  0  0  0  0
  8 13  1  0  0  0  0
  8 14  2  0  0  0  0
  9 11  1  0  0  0  0
  9 12  2  0  0  0  0
 10 15  2  0  0  0  0
 11 16  2  0  0  0  0
 11 17  1  0  0  0  0
 12 13  1  0  0  0  0
 14 19  1  0  0  0  0
 15 18  1  0  0  0  0
 15 24  1  0  0  0  0
 16 20  1  0  0  0  0
 16 25  1  0  0  0  0
 17 22  2  0  0  0  0
 17 26  1  0  0  0  0
 18 19  2  0  0  0  0
 19 27  1  0  0  0  0
 20 21  2  0  0  0  0
 21 22  1  0  0  0  0
 22 28  1  0  0  0  0
 23 33  1  0  0  0  0
 23 34  1  0  0  0  0
 23 35  1  0  0  0  0
M  END
> <PUBCHEM_COMPOUND_CID>
5281699

> <PUBCHEM_CONFORMER_RMSD>
0.6

> <PUBCHEM_CONFORMER_DIVERSEORDER>
1
5
4
2
6
3

> <PUBCHEM_MMFF94_PARTIAL_CHARGES>
32
1 -0.16
10 0.08
11 0.03
12 0.09
13 0.47
14 0.08
15 -0.15
16 -0.15
17 -0.15
18 0.08
19 -0.15
2 -0.53
20 0.08
21 0.08
22 -0.15
23 0.28
24 0.15
25 0.15
26 0.15
27 0.15
28 0.15
29 0.45
3 -0.53
30 0.45
31 0.45
32 0.45
4 -0.57
5 -0.36
6 -0.53
7 -0.53
8 0.09
9 0.05

> <PUBCHEM_EFFECTIVE_ROTOR_COUNT>
2

> <PUBCHEM_PHARMACOPHORE_FEATURES>
10
1 1 acceptor
1 2 donor
1 3 donor
1 4 acceptor
1 5 acceptor
1 6 donor
1 7 donor
6 1 8 9 10 12 13 rings
6 11 16 17 20 21 22 rings
6 8 10 14 15 18 19 rings

> <PUBCHEM_HEAVY_ATOM_COUNT>
23

> <PUBCHEM_ATOM_DEF_STEREO_COUNT>
0

> <PUBCHEM_ATOM_UDEF_STEREO_COUNT>
0

> <PUBCHEM_BOND_DEF_STEREO_COUNT>
0

> <PUBCHEM_BOND_UDEF_STEREO_COUNT>
0

> <PUBCHEM_ISOTOPIC_ATOM_COUNT>
0

> <PUBCHEM_COMPONENT_COUNT>
1

> <PUBCHEM_CACTVS_TAUTO_COUNT>
156

> <PUBCHEM_CONFORMER_ID>
005097A300000001

> <PUBCHEM_MMFF94_ENERGY>
79.2492

> <PUBCHEM_FEATURE_SELFOVERLAP>
50.771

> <PUBCHEM_SHAPE_FINGERPRINT>
10319926 262 18191608504503227402
10411042 1 18195529195554179195
10595046 47 18343864407909240202
11046707 91 18412263917839384875
11315181 36 18202284684424176362
11370993 144 16878214355284283203
11552529 35 14491341625332991917
11796584 16 18119810459634495774
12107183 9 17551244294974800274
12236239 1 17775567567833060642
12390115 104 17972028417333470849
12553582 1 18341611499735770259
12616971 3 17132108065626891542
12788726 201 18201442548891423169
13140716 1 18337673019241981721
13288520 33 18411139117428462675
13540713 4 18196389022268611633
13740256 8 18339081492988114691
13782708 43 17822286933879449966
14386348 63 17894630370405894262
14910302 57 18194955460325727926
15196674 1 18411420570592915153
15961568 22 18268997497228409460
16752209 62 18343869922077880579
17138139 8 17487908799756908435
17349148 13 16988849393125446248
17492 89 17833554497023363175
17804303 29 18408888425711143153
17844677 252 18408881806697009289
18681886 176 18343303635604510338
19141452 34 17749108851334924751
200 152 16558753437993315028
20511986 3 17703525370994620784
21033648 29 17168440336186613346
21033650 10 18055048095076056484
21054139 6 17917715678078345730
21065201 7 18335422421486239730
21267235 1 18341328903957354595
2297311 6 18335415768555335962
23175994 123 17312820472706178177
23366157 5 17914897530570289981
23402539 116 18341618117948037958
23557571 272 18260550060786361136
23559900 14 18335426768014424232
3004659 81 17988369178191757315
314173 85 18260540117657138651
335352 9 18411987945364490797
34797466 226 18113889435047500492
4214541 1 18411421730091478408
4325135 7 18341049636783699076
474 4 17059479722418486604
5104073 3 18335980874730313121
602551 16 18408888438458979450
7495541 125 18187368705977728432
7970288 3 18339645512516091067

> <PUBCHEM_SHAPE_MULTIPOLES>
432.24
12.62
2.27
1.04
9.05
0.57
-0.17
-4.31
-0.14
-3.79
-0.04
1.57
-0.19
0.29

> <PUBCHEM_SHAPE_SELFOVERLAP>
962

> <PUBCHEM_SHAPE_VOLUME>
229

> <PUBCHEM_COORDINATE_TYPE>
2
5
10

$$$$

