2585
  -OEChem-07051212522D

 56 59  0     1  0  0  0  0  0999 V2000
    5.3923    2.3984    0.0000 O   0  0  0  0  0  0  0  0  0  0  0  0
    4.7524    0.5036    0.0000 O   0  0  0  0  0  0  0  0  0  0  0  0
    7.0743   -3.4472    0.0000 O   0  0  0  0  0  0  0  0  0  0  0  0
    5.1133   -3.8403    0.0000 O   0  0  0  0  0  0  0  0  0  0  0  0
    4.5274    5.6694    0.0000 N   0  0  0  0  0  0  0  0  0  0  0  0
    6.0733   -0.9981    0.0000 N   0  0  0  0  0  0  0  0  0  0  0  0
    5.0274    4.1306    0.0000 C   0  0  0  0  0  0  0  0  0  0  0  0
    4.0274    4.1306    0.0000 C   0  0  0  0  0  0  0  0  0  0  0  0
    5.3364    5.0816    0.0000 C   0  0  0  0  0  0  0  0  0  0  0  0
    3.7183    5.0816    0.0000 C   0  0  0  0  0  0  0  0  0  0  0  0
    5.7123    3.3458    0.0000 C   0  0  0  0  0  0  0  0  0  0  0  0
    5.7328    0.7002    0.0000 C   0  0  3  0  0  0  0  0  0  0  0  0
    6.0528    1.6476    0.0000 C   0  0  0  0  0  0  0  0  0  0  0  0
    6.3933   -0.0507    0.0000 C   0  0  0  0  0  0  0  0  0  0  0  0
    6.3518    5.3139    0.0000 C   0  0  0  0  0  0  0  0  0  0  0  0
    3.3424    3.3458    0.0000 C   0  0  0  0  0  0  0  0  0  0  0  0
    6.7328    3.5546    0.0000 C   0  0  0  0  0  0  0  0  0  0  0  0
    2.7029    5.3139    0.0000 C   0  0  0  0  0  0  0  0  0  0  0  0
    7.0547    4.5452    0.0000 C   0  0  0  0  0  0  0  0  0  0  0  0
    6.7338   -1.7489    0.0000 C   0  0  0  0  0  0  0  0  0  0  0  0
    2.3219    3.5546    0.0000 C   0  0  0  0  0  0  0  0  0  0  0  0
    2.0000    4.5452    0.0000 C   0  0  0  0  0  0  0  0  0  0  0  0
    6.4138   -2.6963    0.0000 C   0  0  0  0  0  0  0  0  0  0  0  0
    6.7543   -4.3946    0.0000 C   0  0  0  0  0  0  0  0  0  0  0  0
    5.7739   -4.5912    0.0000 C   0  0  0  0  0  0  0  0  0  0  0  0
    7.4148   -5.1454    0.0000 C   0  0  0  0  0  0  0  0  0  0  0  0
    5.4538   -5.5386    0.0000 C   0  0  0  0  0  0  0  0  0  0  0  0
    7.0948   -6.0928    0.0000 C   0  0  0  0  0  0  0  0  0  0  0  0
    6.1143   -6.2894    0.0000 C   0  0  0  0  0  0  0  0  0  0  0  0
    4.1329   -4.0369    0.0000 C   0  0  0  0  0  0  0  0  0  0  0  0
    5.3233    1.1657    0.0000 H   0  0  0  0  0  0  0  0  0  0  0  0
    4.5274    6.2894    0.0000 H   0  0  0  0  0  0  0  0  0  0  0  0
    6.5968    1.3502    0.0000 H   0  0  0  0  0  0  0  0  0  0  0  0
    6.4402    2.1317    0.0000 H   0  0  0  0  0  0  0  0  0  0  0  0
    6.9374   -0.3480    0.0000 H   0  0  0  0  0  0  0  0  0  0  0  0
    6.7807    0.4335    0.0000 H   0  0  0  0  0  0  0  0  0  0  0  0
    6.5365    5.9057    0.0000 H   0  0  0  0  0  0  0  0  0  0  0  0
    3.5408    2.7584    0.0000 H   0  0  0  0  0  0  0  0  0  0  0  0
    7.1459    3.0922    0.0000 H   0  0  0  0  0  0  0  0  0  0  0  0
    2.5182    5.9057    0.0000 H   0  0  0  0  0  0  0  0  0  0  0  0
    5.4654   -1.1200    0.0000 H   0  0  0  0  0  0  0  0  0  0  0  0
    7.6607    4.6764    0.0000 H   0  0  0  0  0  0  0  0  0  0  0  0
    7.2778   -2.0463    0.0000 H   0  0  0  0  0  0  0  0  0  0  0  0
    7.1212   -1.2648    0.0000 H   0  0  0  0  0  0  0  0  0  0  0  0
    1.9088    3.0922    0.0000 H   0  0  0  0  0  0  0  0  0  0  0  0
    1.3940    4.6764    0.0000 H   0  0  0  0  0  0  0  0  0  0  0  0
    5.8698   -2.3990    0.0000 H   0  0  0  0  0  0  0  0  0  0  0  0
    6.0265   -3.1804    0.0000 H   0  0  0  0  0  0  0  0  0  0  0  0
    4.5540   -0.0838    0.0000 H   0  0  0  0  0  0  0  0  0  0  0  0
    8.0227   -5.0235    0.0000 H   0  0  0  0  0  0  0  0  0  0  0  0
    4.8460   -5.6605    0.0000 H   0  0  0  0  0  0  0  0  0  0  0  0
    7.5043   -6.5584    0.0000 H   0  0  0  0  0  0  0  0  0  0  0  0
    5.9159   -6.8768    0.0000 H   0  0  0  0  0  0  0  0  0  0  0  0
    4.0110   -3.4290    0.0000 H   0  0  0  0  0  0  0  0  0  0  0  0
    3.5250   -4.1588    0.0000 H   0  0  0  0  0  0  0  0  0  0  0  0
    4.2547   -4.6448    0.0000 H   0  0  0  0  0  0  0  0  0  0  0  0
  1 11  1  0  0  0  0
  1 13  1  0  0  0  0
  2 12  1  0  0  0  0
  2 49  1  0  0  0  0
  3 23  1  0  0  0  0
  3 24  1  0  0  0  0
  4 25  1  0  0  0  0
  4 30  1  0  0  0  0
  5  9  1  0  0  0  0
  5 10  1  0  0  0  0
  5 32  1  0  0  0  0
  6 14  1  0  0  0  0
  6 20  1  0  0  0  0
  6 41  1  0  0  0  0
  7  8  1  0  0  0  0
  7  9  2  0  0  0  0
  7 11  1  0  0  0  0
  8 10  1  0  0  0  0
  8 16  2  0  0  0  0
  9 15  1  0  0  0  0
 10 18  2  0  0  0  0
 11 17  2  0  0  0  0
 12 13  1  0  0  0  0
 12 14  1  0  0  0  0
 12 31  1  0  0  0  0
 13 33  1  0  0  0  0
 13 34  1  0  0  0  0
 14 35  1  0  0  0  0
 14 36  1  0  0  0  0
 15 19  2  0  0  0  0
 15 37  1  0  0  0  0
 16 21  1  0  0  0  0
 16 38  1  0  0  0  0
 17 19  1  0  0  0  0
 17 39  1  0  0  0  0
 18 22  1  0  0  0  0
 18 40  1  0  0  0  0
 19 42  1  0  0  0  0
 20 23  1  0  0  0  0
 20 43  1  0  0  0  0
 20 44  1  0  0  0  0
 21 22  2  0  0  0  0
 21 45  1  0  0  0  0
 22 46  1  0  0  0  0
 23 47  1  0  0  0  0
 23 48  1  0  0  0  0
 24 25  1  0  0  0  0
 24 26  2  0  0  0  0
 25 27  2  0  0  0  0
 26 28  1  0  0  0  0
 26 50  1  0  0  0  0
 27 29  1  0  0  0  0
 27 51  1  0  0  0  0
 28 29  2  0  0  0  0
 28 52  1  0  0  0  0
 29 53  1  0  0  0  0
 30 54  1  0  0  0  0
 30 55  1  0  0  0  0
 30 56  1  0  0  0  0
M  END
> <PUBCHEM_COMPOUND_CID>
2585

> <PUBCHEM_COMPOUND_CANONICALIZED>
1

> <PUBCHEM_CACTVS_COMPLEXITY>
508

> <PUBCHEM_CACTVS_HBOND_ACCEPTOR>
5

> <PUBCHEM_CACTVS_HBOND_DONOR>
3

> <PUBCHEM_CACTVS_ROTATABLE_BOND>
10

> <PUBCHEM_CACTVS_SUBSKEYS>
AAADceB7OAAAAAAAAAAAAAAAAAAAAWAAAAAwYMAAAAAAAFgB/AAAHgAQCAAADBzhngYyxvLJlgCgAyRiRACCiCAhIiAImaA+7JgPNuLEsZuHOCrm0Bnb6Aew0OMOgAAAAgAKQAAAAAAEABSAAAAAAAAAAA==

> <PUBCHEM_IUPAC_OPENEYE_NAME>
1-(9H-carbazol-4-yloxy)-3-[2-(2-methoxyphenoxy)ethylamino]propan-2-ol

> <PUBCHEM_IUPAC_CAS_NAME>
1-(9H-carbazol-4-yloxy)-3-[2-(2-methoxyphenoxy)ethylamino]-2-propanol

> <PUBCHEM_IUPAC_NAME>
1-(9H-carbazol-4-yloxy)-3-[2-(2-methoxyphenoxy)ethylamino]propan-2-ol

> <PUBCHEM_IUPAC_SYSTEMATIC_NAME>
1-(9H-carbazol-4-yloxy)-3-[2-(2-methoxyphenoxy)ethylamino]propan-2-ol

> <PUBCHEM_IUPAC_TRADITIONAL_NAME>
1-(9H-carbazol-4-yloxy)-3-[2-(2-methoxyphenoxy)ethylamino]propan-2-ol

> <PUBCHEM_IUPAC_INCHI>
InChI=1S/C24H26N2O4/c1-28-21-10-4-5-11-22(21)29-14-13-25-15-17(27)16-30-23-12-6-9-20-24(23)18-7-2-3-8-19(18)26-20/h2-12,17,25-27H,13-16H2,1H3

> <PUBCHEM_IUPAC_INCHIKEY>
OGHNVEJMJSYVRP-UHFFFAOYSA-N

> <PUBCHEM_XLOGP3>
4.2

> <PUBCHEM_EXACT_MASS>
406.189257

> <PUBCHEM_MOLECULAR_FORMULA>
C24H26N2O4

> <PUBCHEM_MOLECULAR_WEIGHT>
406.47424

> <PUBCHEM_OPENEYE_CAN_SMILES>
COC1=CC=CC=C1OCCNCC(COC2=CC=CC3=C2C4=CC=CC=C4N3)O

> <PUBCHEM_OPENEYE_ISO_SMILES>
COC1=CC=CC=C1OCCNCC(COC2=CC=CC3=C2C4=CC=CC=C4N3)O

> <PUBCHEM_CACTVS_TPSA>
75.7

> <PUBCHEM_MONOISOTOPIC_WEIGHT>
406.189257

> <PUBCHEM_TOTAL_CHARGE>
0

> <PUBCHEM_HEAVY_ATOM_COUNT>
30

> <PUBCHEM_ATOM_DEF_STEREO_COUNT>
0

> <PUBCHEM_ATOM_UDEF_STEREO_COUNT>
1

> <PUBCHEM_BOND_DEF_STEREO_COUNT>
0

> <PUBCHEM_BOND_UDEF_STEREO_COUNT>
0

> <PUBCHEM_ISOTOPIC_ATOM_COUNT>
0

> <PUBCHEM_COMPONENT_COUNT>
1

> <PUBCHEM_CACTVS_TAUTO_COUNT>
1

> <PUBCHEM_COORDINATE_TYPE>
1
5
255

> <PUBCHEM_BONDANNOTATIONS>
10  18  8
11  17  8
15  19  8
16  21  8
17  19  8
18  22  8
12  2  3
21  22  8
24  25  8
24  26  8
25  27  8
26  28  8
27  29  8
28  29  8
5  10  8
5  9  8
7  11  8
7  8  8
7  9  8
8  10  8
8  16  8
9  15  8

$$$$

