10110
  -OEChem-07051212453D

  7  6  0     0  0  0  0  0  0999 V2000
   -1.1599   -1.1719    0.0000 O   0  0  0  0  0  0  0  0  0  0  0  0
   -1.1859    1.1130    0.0000 O   0  0  0  0  0  0  0  0  0  0  0  0
   -0.5778    0.0533   -0.0001 C   0  0  0  0  0  0  0  0  0  0  0  0
    0.8618    0.0170    0.0000 C   0  0  0  0  0  0  0  0  0  0  0  0
    2.0618   -0.0113    0.0000 C   0  0  0  0  0  0  0  0  0  0  0  0
   -2.1391   -1.1124    0.0001 H   0  0  0  0  0  0  0  0  0  0  0  0
    3.1265   -0.0364   -0.0001 H   0  0  0  0  0  0  0  0  0  0  0  0
  1  3  1  0  0  0  0
  1  6  1  0  0  0  0
  2  3  2  0  0  0  0
  3  4  1  0  0  0  0
  4  5  3  0  0  0  0
  5  7  1  0  0  0  0
M  END
> <PUBCHEM_COMPOUND_CID>
10110

> <PUBCHEM_CONFORMER_RMSD>
0.4

> <PUBCHEM_CONFORMER_DIVERSEORDER>
1

> <PUBCHEM_MMFF94_PARTIAL_CHARGES>
7
1 -0.65
2 -0.57
3 0.83
4 -0.1
5 -0.18
6 0.5
7 0.18

> <PUBCHEM_EFFECTIVE_ROTOR_COUNT>
0

> <PUBCHEM_PHARMACOPHORE_FEATURES>
4
1 1 acceptor
1 2 acceptor
1 5 hydrophobe
3 1 2 3 anion

> <PUBCHEM_HEAVY_ATOM_COUNT>
5

> <PUBCHEM_ATOM_DEF_STEREO_COUNT>
0

> <PUBCHEM_ATOM_UDEF_STEREO_COUNT>
0

> <PUBCHEM_BOND_DEF_STEREO_COUNT>
0

> <PUBCHEM_BOND_UDEF_STEREO_COUNT>
0

> <PUBCHEM_ISOTOPIC_ATOM_COUNT>
0

> <PUBCHEM_COMPONENT_COUNT>
1

> <PUBCHEM_CACTVS_TAUTO_COUNT>
1

> <PUBCHEM_CONFORMER_ID>
0000277E00000001

> <PUBCHEM_MMFF94_ENERGY>
1.6876

> <PUBCHEM_FEATURE_SELFOVERLAP>
20.352

> <PUBCHEM_SHAPE_FINGERPRINT>
139733 1 9294752881507088515
20096714 4 18269272529130845872
21015797 1 8646502816044937067
21040471 1 18194402414303035716
24536 1 18336275591043483404
5460574 1 9223229650415515904

> <PUBCHEM_SHAPE_MULTIPOLES>
91.16
2.2
1
0.58
0.98
0.04
0
0
0
-0.51
0
0.05
0
0

> <PUBCHEM_SHAPE_SELFOVERLAP>
167.3

> <PUBCHEM_SHAPE_VOLUME>
57.2

> <PUBCHEM_COORDINATE_TYPE>
2
5
10

$$$$

