68252
  -OEChem-07051212583D

 30 30  0     0  0  0  0  0  0999 V2000
    1.1220   -0.9833    0.8742 O   0  0  0  0  0  0  0  0  0  0  0  0
    1.5752   -1.5591   -1.3490 O   0  0  0  0  0  0  0  0  0  0  0  0
    1.0927    1.7755    0.1301 C   0  0  0  0  0  0  0  0  0  0  0  0
   -0.1237    0.9101    0.0924 C   0  0  0  0  0  0  0  0  0  0  0  0
   -0.0555   -0.4321    0.4657 C   0  0  0  0  0  0  0  0  0  0  0  0
    0.9493    2.9467    1.1195 C   0  0  0  0  0  0  0  0  0  0  0  0
    1.4765    2.3098   -1.2620 C   0  0  0  0  0  0  0  0  0  0  0  0
   -1.3376    1.4579   -0.3225 C   0  0  0  0  0  0  0  0  0  0  0  0
   -2.4150   -0.6790    0.0090 C   0  0  0  0  0  0  0  0  0  0  0  0
   -1.2011   -1.2266    0.4241 C   0  0  0  0  0  0  0  0  0  0  0  0
   -2.4832    0.6633   -0.3642 C   0  0  0  0  0  0  0  0  0  0  0  0
   -3.6401   -1.5281   -0.0367 C   0  0  0  0  0  0  0  0  0  0  0  0
    1.8850   -1.5385   -0.1651 C   0  0  0  0  0  0  0  0  0  0  0  0
    3.1553   -2.1166    0.3844 C   0  0  0  0  0  0  0  0  0  0  0  0
    1.9577    1.2007    0.4808 H   0  0  0  0  0  0  0  0  0  0  0  0
    0.1675    3.6500    0.8134 H   0  0  0  0  0  0  0  0  0  0  0  0
    1.8888    3.5056    1.1915 H   0  0  0  0  0  0  0  0  0  0  0  0
    0.6987    2.5809    2.1215 H   0  0  0  0  0  0  0  0  0  0  0  0
    1.6055    1.4863   -1.9731 H   0  0  0  0  0  0  0  0  0  0  0  0
    2.4212    2.8624   -1.2136 H   0  0  0  0  0  0  0  0  0  0  0  0
    0.7164    2.9867   -1.6664 H   0  0  0  0  0  0  0  0  0  0  0  0
   -1.4157    2.5005   -0.6177 H   0  0  0  0  0  0  0  0  0  0  0  0
   -1.1435   -2.2719    0.7184 H   0  0  0  0  0  0  0  0  0  0  0  0
   -3.4234    1.1018   -0.6878 H   0  0  0  0  0  0  0  0  0  0  0  0
   -3.3899   -2.5701   -0.2636 H   0  0  0  0  0  0  0  0  0  0  0  0
   -4.1575   -1.4931    0.9272 H   0  0  0  0  0  0  0  0  0  0  0  0
   -4.3290   -1.1873   -0.8171 H   0  0  0  0  0  0  0  0  0  0  0  0
    3.7413   -1.3288    0.8642 H   0  0  0  0  0  0  0  0  0  0  0  0
    3.7443   -2.5413   -0.4334 H   0  0  0  0  0  0  0  0  0  0  0  0
    2.9212   -2.9115    1.0966 H   0  0  0  0  0  0  0  0  0  0  0  0
  1  5  1  0  0  0  0
  1 13  1  0  0  0  0
  2 13  2  0  0  0  0
  3  4  1  0  0  0  0
  3  6  1  0  0  0  0
  3  7  1  0  0  0  0
  3 15  1  0  0  0  0
  4  5  2  0  0  0  0
  4  8  1  0  0  0  0
  5 10  1  0  0  0  0
  6 16  1  0  0  0  0
  6 17  1  0  0  0  0
  6 18  1  0  0  0  0
  7 19  1  0  0  0  0
  7 20  1  0  0  0  0
  7 21  1  0  0  0  0
  8 11  2  0  0  0  0
  8 22  1  0  0  0  0
  9 10  2  0  0  0  0
  9 11  1  0  0  0  0
  9 12  1  0  0  0  0
 10 23  1  0  0  0  0
 11 24  1  0  0  0  0
 12 25  1  0  0  0  0
 12 26  1  0  0  0  0
 12 27  1  0  0  0  0
 13 14  1  0  0  0  0
 14 28  1  0  0  0  0
 14 29  1  0  0  0  0
 14 30  1  0  0  0  0
M  END
> <PUBCHEM_COMPOUND_CID>
68252

> <PUBCHEM_CONFORMER_RMSD>
0.6

> <PUBCHEM_CONFORMER_DIVERSEORDER>
1
3
10
5
6
9
2
4
7
8

> <PUBCHEM_MMFF94_PARTIAL_CHARGES>
15
1 -0.23
10 -0.15
11 -0.15
12 0.14
13 0.66
14 0.06
2 -0.57
22 0.15
23 0.15
24 0.15
3 0.14
4 -0.14
5 0.08
8 -0.15
9 -0.14

> <PUBCHEM_EFFECTIVE_ROTOR_COUNT>
3

> <PUBCHEM_PHARMACOPHORE_FEATURES>
3
1 2 acceptor
3 3 6 7 hydrophobe
6 4 5 8 9 10 11 rings

> <PUBCHEM_HEAVY_ATOM_COUNT>
14

> <PUBCHEM_ATOM_DEF_STEREO_COUNT>
0

> <PUBCHEM_ATOM_UDEF_STEREO_COUNT>
0

> <PUBCHEM_BOND_DEF_STEREO_COUNT>
0

> <PUBCHEM_BOND_UDEF_STEREO_COUNT>
0

> <PUBCHEM_ISOTOPIC_ATOM_COUNT>
0

> <PUBCHEM_COMPONENT_COUNT>
1

> <PUBCHEM_CACTVS_TAUTO_COUNT>
1

> <PUBCHEM_CONFORMER_ID>
00010A9C00000001

> <PUBCHEM_MMFF94_ENERGY>
38.4927

> <PUBCHEM_FEATURE_SELFOVERLAP>
15.223

> <PUBCHEM_SHAPE_FINGERPRINT>
1 1 18121221969832498596
12138202 78 18340210687345726903
12532896 13 16891734199272633064
13380535 220 18271242832529991917
13380535 76 17910402684275646691
14817 1 11564930718760626004
15490181 7 17757554053548888292
161256 15 18341332193543269189
16945 1 17980482261343069001
17990270 104 18410862044476673907
193761 8 18412266138242862641
19868273 325 18195810897240724071
20645477 70 18267596715208969287
20711985 344 17686333574465023618
21041028 32 18336814394838726473
21501502 16 18410285896421061269
22213442 358 18409453612983907298
23402539 116 17905062691032681166
23419403 2 18053418536791018588
23552423 10 18272088271219832247
23557571 272 18118684563684718110
23559900 14 17905338669269508578
2748010 2 18272382940610428429
3071541 158 18343306997683116997
3071541 250 18410565184953489127
4663303 62 18262249832278856464
5493415 88 18412832412189585379
5902787 121 18341618152160336795
7364860 26 18335143029405026929
81228 2 17833541671685670690
81539 233 17983583996313597391

> <PUBCHEM_SHAPE_MULTIPOLES>
276.37
4.25
3.15
1.01
2.62
1.02
0.13
-2.62
0.23
-2.57
-0.18
-0.48
0.3
0.1

> <PUBCHEM_SHAPE_SELFOVERLAP>
565.225

> <PUBCHEM_SHAPE_VOLUME>
160.5

> <PUBCHEM_COORDINATE_TYPE>
2
5
10

$$$$

