17395837
  -OEChem-06241222522D

 36 38  0     0  0  0  0  0  0999 V2000
   10.3303   -2.1574    0.0000 S   0  0  0  0  0  0  0  0  0  0  0  0
    5.5443   -0.1474    0.0000 S   0  0  0  0  0  0  0  0  0  0  0  0
    7.7430   -2.1961    0.0000 O   0  0  0  0  0  0  0  0  0  0  0  0
    7.1279   -1.0747    0.0000 O   0  0  0  0  0  0  0  0  0  0  0  0
    9.1279   -1.0747    0.0000 N   0  0  0  0  0  0  0  0  0  0  0  0
    7.1279    0.6574    0.0000 N   0  0  0  0  0  0  0  0  0  0  0  0
    5.5443    1.4621    0.0000 N   0  0  0  0  0  0  0  0  0  0  0  0
    8.6279   -0.2087    0.0000 C   0  0  0  0  0  0  0  0  0  0  0  0
   10.1224   -1.1792    0.0000 C   0  0  0  0  0  0  0  0  0  0  0  0
    8.7212   -1.9882    0.0000 C   0  0  0  0  0  0  0  0  0  0  0  0
    9.4643   -2.6574    0.0000 C   0  0  0  0  0  0  0  0  0  0  0  0
    4.5981    1.1574    0.0000 C   0  0  0  0  0  0  0  0  0  0  0  0
    4.5981    0.1574    0.0000 C   0  0  0  0  0  0  0  0  0  0  0  0
    3.7320    1.6574    0.0000 C   0  0  0  0  0  0  0  0  0  0  0  0
    7.6279   -0.2087    0.0000 C   0  0  0  0  0  0  0  0  0  0  0  0
    2.8660    0.1574    0.0000 C   0  0  0  0  0  0  0  0  0  0  0  0
    6.1279    0.6574    0.0000 C   0  0  0  0  0  0  0  0  0  0  0  0
    3.7320   -0.3426    0.0000 C   0  0  0  0  0  0  0  0  0  0  0  0
    2.8660    1.1574    0.0000 C   0  0  0  0  0  0  0  0  0  0  0  0
    3.7320    2.6574    0.0000 C   0  0  0  0  0  0  0  0  0  0  0  0
    2.0000   -0.3426    0.0000 C   0  0  0  0  0  0  0  0  0  0  0  0
    9.2105    0.0034    0.0000 H   0  0  0  0  0  0  0  0  0  0  0  0
    8.5202    0.4019    0.0000 H   0  0  0  0  0  0  0  0  0  0  0  0
   10.7390   -1.1144    0.0000 H   0  0  0  0  0  0  0  0  0  0  0  0
   10.1224   -0.5592    0.0000 H   0  0  0  0  0  0  0  0  0  0  0  0
    9.0036   -3.0722    0.0000 H   0  0  0  0  0  0  0  0  0  0  0  0
    9.8287   -3.1590    0.0000 H   0  0  0  0  0  0  0  0  0  0  0  0
    3.7320   -0.9626    0.0000 H   0  0  0  0  0  0  0  0  0  0  0  0
    2.3291    1.4674    0.0000 H   0  0  0  0  0  0  0  0  0  0  0  0
    7.4379    1.1943    0.0000 H   0  0  0  0  0  0  0  0  0  0  0  0
    4.3520    2.6574    0.0000 H   0  0  0  0  0  0  0  0  0  0  0  0
    3.7320    3.2774    0.0000 H   0  0  0  0  0  0  0  0  0  0  0  0
    3.1120    2.6574    0.0000 H   0  0  0  0  0  0  0  0  0  0  0  0
    1.6900    0.1943    0.0000 H   0  0  0  0  0  0  0  0  0  0  0  0
    1.4631   -0.6526    0.0000 H   0  0  0  0  0  0  0  0  0  0  0  0
    2.3100   -0.8796    0.0000 H   0  0  0  0  0  0  0  0  0  0  0  0
  1  9  1  0  0  0  0
  1 11  1  0  0  0  0
  2 13  1  0  0  0  0
  2 17  1  0  0  0  0
  3 10  2  0  0  0  0
  4 15  2  0  0  0  0
  5  8  1  0  0  0  0
  5  9  1  0  0  0  0
  5 10  1  0  0  0  0
  6 15  1  0  0  0  0
  6 17  1  0  0  0  0
  6 30  1  0  0  0  0
  7 12  1  0  0  0  0
  7 17  2  0  0  0  0
  8 15  1  0  0  0  0
  8 22  1  0  0  0  0
  8 23  1  0  0  0  0
  9 24  1  0  0  0  0
  9 25  1  0  0  0  0
 10 11  1  0  0  0  0
 11 26  1  0  0  0  0
 11 27  1  0  0  0  0
 12 13  1  0  0  0  0
 12 14  2  0  0  0  0
 13 18  2  0  0  0  0
 14 19  1  0  0  0  0
 14 20  1  0  0  0  0
 16 18  1  0  0  0  0
 16 19  2  0  0  0  0
 16 21  1  0  0  0  0
 18 28  1  0  0  0  0
 19 29  1  0  0  0  0
 20 31  1  0  0  0  0
 20 32  1  0  0  0  0
 20 33  1  0  0  0  0
 21 34  1  0  0  0  0
 21 35  1  0  0  0  0
 21 36  1  0  0  0  0
M  END
> <PUBCHEM_COMPOUND_CID>
17395837

> <PUBCHEM_COMPOUND_CANONICALIZED>
1

> <PUBCHEM_CACTVS_COMPLEXITY>
434

> <PUBCHEM_CACTVS_HBOND_ACCEPTOR>
5

> <PUBCHEM_CACTVS_HBOND_DONOR>
1

> <PUBCHEM_CACTVS_ROTATABLE_BOND>
3

> <PUBCHEM_CACTVS_SUBSKEYS>
AAADccBzMABgAAAAAAAAAAAAAAAAAWLAAAAwAAAAAAAAAFgB8AAAHgQQAAAADAjF3gSz0bPIEAisAyVydACD8KlhCDlBmDyoRJiIYKLgmbGUIAholwLIyCcQgEAOCAACgAACAQAQAAUAAAQCAAAAAAAAAA==

> <PUBCHEM_IUPAC_OPENEYE_NAME>
N-(4,6-dimethyl-1,3-benzothiazol-2-yl)-2-(4-oxothiazolidin-3-yl)acetamide

> <PUBCHEM_IUPAC_CAS_NAME>
N-(4,6-dimethyl-1,3-benzothiazol-2-yl)-2-(4-oxo-3-thiazolidinyl)acetamide

> <PUBCHEM_IUPAC_NAME>
N-(4,6-dimethyl-1,3-benzothiazol-2-yl)-2-(4-oxo-1,3-thiazolidin-3-yl)acetamide

> <PUBCHEM_IUPAC_SYSTEMATIC_NAME>
N-(4,6-dimethyl-1,3-benzothiazol-2-yl)-2-(4-oxidanylidene-1,3-thiazolidin-3-yl)ethanamide

> <PUBCHEM_IUPAC_TRADITIONAL_NAME>
N-(4,6-dimethyl-1,3-benzothiazol-2-yl)-2-(4-ketothiazolidin-3-yl)acetamide

> <PUBCHEM_IUPAC_INCHI>
InChI=1S/C14H15N3O2S2/c1-8-3-9(2)13-10(4-8)21-14(16-13)15-11(18)5-17-7-20-6-12(17)19/h3-4H,5-7H2,1-2H3,(H,15,16,18)

> <PUBCHEM_IUPAC_INCHIKEY>
XCEFXFNOKZPWHQ-UHFFFAOYSA-N

> <PUBCHEM_XLOGP3_AA>
2.7

> <PUBCHEM_EXACT_MASS>
321.060569

> <PUBCHEM_MOLECULAR_FORMULA>
C14H15N3O2S2

> <PUBCHEM_MOLECULAR_WEIGHT>
321.4178

> <PUBCHEM_OPENEYE_CAN_SMILES>
CC1=CC(=C2C(=C1)SC(=N2)NC(=O)CN3CSCC3=O)C

> <PUBCHEM_OPENEYE_ISO_SMILES>
CC1=CC(=C2C(=C1)SC(=N2)NC(=O)CN3CSCC3=O)C

> <PUBCHEM_CACTVS_TPSA>
116

> <PUBCHEM_MONOISOTOPIC_WEIGHT>
321.060569

> <PUBCHEM_TOTAL_CHARGE>
0

> <PUBCHEM_HEAVY_ATOM_COUNT>
21

> <PUBCHEM_ATOM_DEF_STEREO_COUNT>
0

> <PUBCHEM_ATOM_UDEF_STEREO_COUNT>
0

> <PUBCHEM_BOND_DEF_STEREO_COUNT>
0

> <PUBCHEM_BOND_UDEF_STEREO_COUNT>
0

> <PUBCHEM_ISOTOPIC_ATOM_COUNT>
0

> <PUBCHEM_COMPONENT_COUNT>
1

> <PUBCHEM_CACTVS_TAUTO_COUNT>
10

> <PUBCHEM_COORDINATE_TYPE>
1
5
255

> <PUBCHEM_BONDANNOTATIONS>
12  13  8
12  14  8
13  18  8
14  19  8
16  18  8
16  19  8
2  13  8
2  17  8
7  12  8
7  17  8

$$$$

