441586
  -OEChem-07051212552D

 48 49  0     1  0  0  0  0  0999 V2000
    4.5981    4.0000    0.0000 O   0  0  0  0  0  0  0  0  0  0  0  0
    2.8660    3.0000    0.0000 O   0  0  0  0  0  0  0  0  0  0  0  0
   10.6603   -3.5000    0.0000 O   0  0  0  0  0  0  0  0  0  0  0  0
    6.3301    0.0000    0.0000 N   0  0  3  0  0  0  0  0  0  0  0  0
    7.1962   -0.5000    0.0000 C   0  0  0  0  0  0  0  0  0  0  0  0
    6.3301    1.0000    0.0000 C   0  0  0  0  0  0  0  0  0  0  0  0
    7.1962   -1.5000    0.0000 C   0  0  0  0  0  0  0  0  0  0  0  0
    5.4641    1.5000    0.0000 C   0  0  0  0  0  0  0  0  0  0  0  0
    8.0622   -2.0000    0.0000 C   0  0  0  0  0  0  0  0  0  0  0  0
    5.4641   -0.5000    0.0000 C   0  0  0  0  0  0  0  0  0  0  0  0
    5.4641    2.5000    0.0000 C   0  0  0  0  0  0  0  0  0  0  0  0
    4.5981    1.0000    0.0000 C   0  0  0  0  0  0  0  0  0  0  0  0
    8.0622   -3.0000    0.0000 C   0  0  0  0  0  0  0  0  0  0  0  0
    8.9282   -1.5000    0.0000 C   0  0  0  0  0  0  0  0  0  0  0  0
    4.5981    3.0000    0.0000 C   0  0  0  0  0  0  0  0  0  0  0  0
    3.7320    1.5000    0.0000 C   0  0  0  0  0  0  0  0  0  0  0  0
    3.7320    2.5000    0.0000 C   0  0  0  0  0  0  0  0  0  0  0  0
    8.9282   -3.5000    0.0000 C   0  0  0  0  0  0  0  0  0  0  0  0
    9.7942   -2.0000    0.0000 C   0  0  0  0  0  0  0  0  0  0  0  0
    9.7942   -3.0000    0.0000 C   0  0  0  0  0  0  0  0  0  0  0  0
    5.4641    4.5000    0.0000 C   0  0  0  0  0  0  0  0  0  0  0  0
    2.0000    2.5000    0.0000 C   0  0  0  0  0  0  0  0  0  0  0  0
   10.6603   -4.5000    0.0000 C   0  0  0  0  0  0  0  0  0  0  0  0
    7.8067   -0.6077    0.0000 H   0  0  0  0  0  0  0  0  0  0  0  0
    7.4082    0.0826    0.0000 H   0  0  0  0  0  0  0  0  0  0  0  0
    6.9407    0.8923    0.0000 H   0  0  0  0  0  0  0  0  0  0  0  0
    6.5422    1.5826    0.0000 H   0  0  0  0  0  0  0  0  0  0  0  0
    6.5856   -1.3923    0.0000 H   0  0  0  0  0  0  0  0  0  0  0  0
    6.9841   -2.0826    0.0000 H   0  0  0  0  0  0  0  0  0  0  0  0
    5.1541    0.0369    0.0000 H   0  0  0  0  0  0  0  0  0  0  0  0
    4.9272   -0.8100    0.0000 H   0  0  0  0  0  0  0  0  0  0  0  0
    5.7741   -1.0369    0.0000 H   0  0  0  0  0  0  0  0  0  0  0  0
    6.0010    2.8100    0.0000 H   0  0  0  0  0  0  0  0  0  0  0  0
    4.5981    0.3800    0.0000 H   0  0  0  0  0  0  0  0  0  0  0  0
    7.5252   -3.3100    0.0000 H   0  0  0  0  0  0  0  0  0  0  0  0
    8.9282   -0.8800    0.0000 H   0  0  0  0  0  0  0  0  0  0  0  0
    3.1951    1.1900    0.0000 H   0  0  0  0  0  0  0  0  0  0  0  0
    8.9282   -4.1200    0.0000 H   0  0  0  0  0  0  0  0  0  0  0  0
   10.3312   -1.6900    0.0000 H   0  0  0  0  0  0  0  0  0  0  0  0
    5.7741    3.9631    0.0000 H   0  0  0  0  0  0  0  0  0  0  0  0
    6.0010    4.8100    0.0000 H   0  0  0  0  0  0  0  0  0  0  0  0
    5.1541    5.0369    0.0000 H   0  0  0  0  0  0  0  0  0  0  0  0
    1.6900    3.0369    0.0000 H   0  0  0  0  0  0  0  0  0  0  0  0
    1.4631    2.1900    0.0000 H   0  0  0  0  0  0  0  0  0  0  0  0
    2.3100    1.9631    0.0000 H   0  0  0  0  0  0  0  0  0  0  0  0
   10.0403   -4.5000    0.0000 H   0  0  0  0  0  0  0  0  0  0  0  0
   10.6603   -5.1200    0.0000 H   0  0  0  0  0  0  0  0  0  0  0  0
   11.2803   -4.5000    0.0000 H   0  0  0  0  0  0  0  0  0  0  0  0
  1 15  1  0  0  0  0
  1 21  1  0  0  0  0
  2 17  1  0  0  0  0
  2 22  1  0  0  0  0
  3 20  1  0  0  0  0
  3 23  1  0  0  0  0
  4  5  1  0  0  0  0
  4  6  1  0  0  0  0
  4 10  1  0  0  0  0
  5  7  1  0  0  0  0
  5 24  1  0  0  0  0
  5 25  1  0  0  0  0
  6  8  1  0  0  0  0
  6 26  1  0  0  0  0
  6 27  1  0  0  0  0
  7  9  1  0  0  0  0
  7 28  1  0  0  0  0
  7 29  1  0  0  0  0
  8 11  2  0  0  0  0
  8 12  1  0  0  0  0
  9 13  2  0  0  0  0
  9 14  1  0  0  0  0
 10 30  1  0  0  0  0
 10 31  1  0  0  0  0
 10 32  1  0  0  0  0
 11 15  1  0  0  0  0
 11 33  1  0  0  0  0
 12 16  2  0  0  0  0
 12 34  1  0  0  0  0
 13 18  1  0  0  0  0
 13 35  1  0  0  0  0
 14 19  2  0  0  0  0
 14 36  1  0  0  0  0
 15 17  2  0  0  0  0
 16 17  1  0  0  0  0
 16 37  1  0  0  0  0
 18 20  2  0  0  0  0
 18 38  1  0  0  0  0
 19 20  1  0  0  0  0
 19 39  1  0  0  0  0
 21 40  1  0  0  0  0
 21 41  1  0  0  0  0
 21 42  1  0  0  0  0
 22 43  1  0  0  0  0
 22 44  1  0  0  0  0
 22 45  1  0  0  0  0
 23 46  1  0  0  0  0
 23 47  1  0  0  0  0
 23 48  1  0  0  0  0
M  END
> <PUBCHEM_COMPOUND_CID>
441586

> <PUBCHEM_COMPOUND_CANONICALIZED>
1

> <PUBCHEM_CACTVS_COMPLEXITY>
318

> <PUBCHEM_CACTVS_HBOND_ACCEPTOR>
4

> <PUBCHEM_CACTVS_HBOND_DONOR>
0

> <PUBCHEM_CACTVS_ROTATABLE_BOND>
8

> <PUBCHEM_CACTVS_SUBSKEYS>
AAADceB6MAAAAAAAAAAAAAAAAAAAAAAAAAAwYAAAAAAAAAABQAAAHgAAAAAADATBmAYyBoMABACAAiBCAACCCAAgIAAIiAAOjIgNJiKEsRuEMCpkwBGKqAew0JIOIAABAAAAQABAAAIAAACAAAAAAAAAAA==

> <PUBCHEM_IUPAC_OPENEYE_NAME>
N-[(3,4-dimethoxyphenyl)methyl]-2-(4-methoxyphenyl)-N-methyl-ethanamine

> <PUBCHEM_IUPAC_CAS_NAME>
N-[(3,4-dimethoxyphenyl)methyl]-2-(4-methoxyphenyl)-N-methylethanamine

> <PUBCHEM_IUPAC_NAME>
N-[(3,4-dimethoxyphenyl)methyl]-2-(4-methoxyphenyl)-N-methylethanamine

> <PUBCHEM_IUPAC_SYSTEMATIC_NAME>
N-[(3,4-dimethoxyphenyl)methyl]-2-(4-methoxyphenyl)-N-methyl-ethanamine

> <PUBCHEM_IUPAC_TRADITIONAL_NAME>
2-(4-methoxyphenyl)ethyl-methyl-veratryl-amine

> <PUBCHEM_IUPAC_INCHI>
InChI=1S/C19H25NO3/c1-20(12-11-15-5-8-17(21-2)9-6-15)14-16-7-10-18(22-3)19(13-16)23-4/h5-10,13H,11-12,14H2,1-4H3

> <PUBCHEM_IUPAC_INCHIKEY>
LTXRLUQBZWBCGH-UHFFFAOYSA-N

> <PUBCHEM_XLOGP3_AA>
3.6

> <PUBCHEM_EXACT_MASS>
315.183444

> <PUBCHEM_MOLECULAR_FORMULA>
C19H25NO3

> <PUBCHEM_MOLECULAR_WEIGHT>
315.4067

> <PUBCHEM_OPENEYE_CAN_SMILES>
CN(CCC1=CC=C(C=C1)OC)CC2=CC(=C(C=C2)OC)OC

> <PUBCHEM_OPENEYE_ISO_SMILES>
CN(CCC1=CC=C(C=C1)OC)CC2=CC(=C(C=C2)OC)OC

> <PUBCHEM_CACTVS_TPSA>
30.9

> <PUBCHEM_MONOISOTOPIC_WEIGHT>
315.183444

> <PUBCHEM_TOTAL_CHARGE>
0

> <PUBCHEM_HEAVY_ATOM_COUNT>
23

> <PUBCHEM_ATOM_DEF_STEREO_COUNT>
0

> <PUBCHEM_ATOM_UDEF_STEREO_COUNT>
0

> <PUBCHEM_BOND_DEF_STEREO_COUNT>
0

> <PUBCHEM_BOND_UDEF_STEREO_COUNT>
0

> <PUBCHEM_ISOTOPIC_ATOM_COUNT>
0

> <PUBCHEM_COMPONENT_COUNT>
1

> <PUBCHEM_CACTVS_TAUTO_COUNT>
1

> <PUBCHEM_COORDINATE_TYPE>
1
5
255

> <PUBCHEM_BONDANNOTATIONS>
11  15  8
12  16  8
13  18  8
14  19  8
15  17  8
16  17  8
18  20  8
19  20  8
8  11  8
8  12  8
9  13  8
9  14  8

$$$$

