9189
  -OEChem-06261203293D

 23 25  0     0  0  0  0  0  0999 V2000
    0.7247   -2.0166   -0.0001 N   0  0  0  0  0  0  0  0  0  0  0  0
   -0.7189    0.3986    0.0002 C   0  0  0  0  0  0  0  0  0  0  0  0
    0.7163    0.4009    0.0002 C   0  0  0  0  0  0  0  0  0  0  0  0
   -1.3928   -0.8405    0.0002 C   0  0  0  0  0  0  0  0  0  0  0  0
    1.3812   -0.8484    0.0000 C   0  0  0  0  0  0  0  0  0  0  0  0
   -1.5291    1.5619    0.0000 C   0  0  0  0  0  0  0  0  0  0  0  0
    1.5113    1.5744    0.0004 C   0  0  0  0  0  0  0  0  0  0  0  0
   -0.6237   -1.9950    0.0002 C   0  0  0  0  0  0  0  0  0  0  0  0
   -2.7971   -0.9060    0.0001 C   0  0  0  0  0  0  0  0  0  0  0  0
    2.7729   -0.8805   -0.0004 C   0  0  0  0  0  0  0  0  0  0  0  0
   -2.9256    1.4918   -0.0005 C   0  0  0  0  0  0  0  0  0  0  0  0
    2.9042    1.5169    0.0002 C   0  0  0  0  0  0  0  0  0  0  0  0
   -3.5597    0.2573   -0.0001 C   0  0  0  0  0  0  0  0  0  0  0  0
    3.5365    0.2852   -0.0003 C   0  0  0  0  0  0  0  0  0  0  0  0
   -1.0853    2.5543   -0.0002 H   0  0  0  0  0  0  0  0  0  0  0  0
    1.0567    2.5615    0.0006 H   0  0  0  0  0  0  0  0  0  0  0  0
   -1.0822   -2.9805    0.0002 H   0  0  0  0  0  0  0  0  0  0  0  0
   -3.3066   -1.8675    0.0002 H   0  0  0  0  0  0  0  0  0  0  0  0
    3.2915   -1.8381   -0.0006 H   0  0  0  0  0  0  0  0  0  0  0  0
   -3.5133    2.4052   -0.0008 H   0  0  0  0  0  0  0  0  0  0  0  0
    3.4878    2.4324    0.0002 H   0  0  0  0  0  0  0  0  0  0  0  0
   -4.6439    0.1995   -0.0002 H   0  0  0  0  0  0  0  0  0  0  0  0
    4.6206    0.2262   -0.0006 H   0  0  0  0  0  0  0  0  0  0  0  0
  1  5  1  0  0  0  0
  1  8  2  0  0  0  0
  2  3  1  0  0  0  0
  2  4  1  0  0  0  0
  2  6  2  0  0  0  0
  3  5  1  0  0  0  0
  3  7  2  0  0  0  0
  4  8  1  0  0  0  0
  4  9  2  0  0  0  0
  5 10  2  0  0  0  0
  6 11  1  0  0  0  0
  6 15  1  0  0  0  0
  7 12  1  0  0  0  0
  7 16  1  0  0  0  0
  8 17  1  0  0  0  0
  9 13  1  0  0  0  0
  9 18  1  0  0  0  0
 10 14  1  0  0  0  0
 10 19  1  0  0  0  0
 11 13  2  0  0  0  0
 11 20  1  0  0  0  0
 12 14  2  0  0  0  0
 12 21  1  0  0  0  0
 13 22  1  0  0  0  0
 14 23  1  0  0  0  0
M  END
> <PUBCHEM_COMPOUND_CID>
9189

> <PUBCHEM_CONFORMER_RMSD>
0.4

> <PUBCHEM_CONFORMER_DIVERSEORDER>
1

> <PUBCHEM_MMFF94_PARTIAL_CHARGES>
20
1 -0.62
10 -0.15
11 -0.15
12 -0.15
13 -0.15
14 -0.15
15 0.15
16 0.15
17 0.15
18 0.15
19 0.15
20 0.15
21 0.15
22 0.15
23 0.15
5 0.31
6 -0.15
7 -0.15
8 0.16
9 -0.15

> <PUBCHEM_EFFECTIVE_ROTOR_COUNT>
0

> <PUBCHEM_PHARMACOPHORE_FEATURES>
4
1 1 acceptor
6 1 2 3 4 5 8 rings
6 2 4 6 9 11 13 rings
6 3 5 7 10 12 14 rings

> <PUBCHEM_HEAVY_ATOM_COUNT>
14

> <PUBCHEM_ATOM_DEF_STEREO_COUNT>
0

> <PUBCHEM_ATOM_UDEF_STEREO_COUNT>
0

> <PUBCHEM_BOND_DEF_STEREO_COUNT>
0

> <PUBCHEM_BOND_UDEF_STEREO_COUNT>
0

> <PUBCHEM_ISOTOPIC_ATOM_COUNT>
0

> <PUBCHEM_COMPONENT_COUNT>
1

> <PUBCHEM_CACTVS_TAUTO_COUNT>
1

> <PUBCHEM_CONFORMER_ID>
000023E500000001

> <PUBCHEM_MMFF94_ENERGY>
47.2475

> <PUBCHEM_FEATURE_SELFOVERLAP>
20.351

> <PUBCHEM_SHAPE_FINGERPRINT>
10411042 1 16104731337759716259
10608611 8 18410858758679330597
10967382 1 18410855477308043973
11132069 177 18408892831936008736
11471102 20 18410579525949497941
12491281 212 18410845586009086513
13140716 1 18411418457342119529
13221675 6 18410855460128207271
13380535 76 18410857659162259179
13897977 150 18411140264005343701
14144814 61 18411419513962187264
14325111 11 18410855455833441345
15196674 1 18410575084663163365
15309172 13 18409721872520081395
15442244 35 18194120952353554474
15536298 74 18333732446550149030
15775835 57 18410288112133679525
16945 1 18410573993767986855
17844478 74 18272359837728122779
18186145 218 18261668259357763036
200 152 18114475504450868125
20510252 161 18261670376866343649
20645476 183 17845074187357095702
20871998 184 18116988884573324047
21267235 1 18410565189064021991
21501502 16 18410858758668332867
21524375 3 18410858758663330955
2334 1 18411136917940950949
23402539 116 18335150751661188860
23402655 69 18263375831792931949
23463225 33 18342460378277735298
23559900 14 18260544499463095692
238 59 15829205753309816205
25 1 18339642346876052773
2748010 2 18411134723207284141
335352 9 18122626320942862492
5104073 3 18410573989457007913
528886 8 18410579487041487256
53812653 166 18335706052531154392
54173680 148 18124312701255550842
69090 78 18334299742825903183
7364860 26 18191022507011795198
8809292 202 18272082790462073043
9709674 26 18336541634071272622

> <PUBCHEM_SHAPE_MULTIPOLES>
283.13
5.55
2.06
0.61
0.05
0.27
0
-1.39
0
-0.02
0
0
-0.01
0

> <PUBCHEM_SHAPE_SELFOVERLAP>
641.988

> <PUBCHEM_SHAPE_VOLUME>
147.1

> <PUBCHEM_COORDINATE_TYPE>
2
5
10

$$$$

