441174
  -OEChem-07051212522D

 64 68  0     1  0  0  0  0  0999 V2000
    2.5405    0.7925    0.0000 O   0  0  0  0  0  0  0  0  0  0  0  0
    2.5247   -1.2558    0.0000 O   0  0  0  0  0  0  0  0  0  0  0  0
    3.4446    2.2893    0.0000 O   0  0  0  0  0  0  0  0  0  0  0  0
    6.9088    0.2893    0.0000 O   0  0  0  0  0  0  0  0  0  0  0  0
    7.0009   -0.7562    0.0000 O   0  0  0  0  0  0  0  0  0  0  0  0
    4.2889    3.8208    0.0000 O   0  0  0  0  0  0  0  0  0  0  0  0
    7.8129    1.7862    0.0000 O   0  0  0  0  0  0  0  0  0  0  0  0
    7.8934   -2.3376    0.0000 O   0  0  0  0  0  0  0  0  0  0  0  0
    5.1702    5.4334    0.0000 O   0  0  0  0  0  0  0  0  0  0  0  0
    8.7850    5.4474    0.0000 O   0  0  0  0  0  0  0  0  0  0  0  0
    8.7998   -5.8274    0.0000 O   0  0  0  0  0  0  0  0  0  0  0  0
    7.0678   -5.8474    0.0000 O   0  0  0  0  0  0  0  0  0  0  0  0
    7.0447   -3.8476    0.0000 N   0  0  0  0  0  0  0  0  0  0  0  0
    3.4007    0.2825    0.0000 C   0  0  2  0  0  0  0  0  0  0  0  0
    3.3926   -0.7591    0.0000 C   0  0  2  0  0  0  0  0  0  0  0  0
    4.3107    0.7893    0.0000 C   0  0  0  0  0  0  0  0  0  0  0  0
    5.1767    0.2893    0.0000 C   0  0  0  0  0  0  0  0  0  0  0  0
    4.2947   -1.2799    0.0000 C   0  0  0  0  0  0  0  0  0  0  0  0
    5.1928   -0.7522    0.0000 C   0  0  0  0  0  0  0  0  0  0  0  0
    4.3107    1.7893    0.0000 C   0  0  0  0  0  0  0  0  0  0  0  0
    6.0427    0.7893    0.0000 C   0  0  0  0  0  0  0  0  0  0  0  0
    5.1767    2.2893    0.0000 C   0  0  0  0  0  0  0  0  0  0  0  0
    6.0427    1.7893    0.0000 C   0  0  0  0  0  0  0  0  0  0  0  0
    6.1447   -1.2728    0.0000 C   0  0  0  0  0  0  0  0  0  0  0  0
    4.2864   -2.3649    0.0000 C   0  0  0  0  0  0  0  0  0  0  0  0
    5.2260   -2.9074    0.0000 C   0  0  0  0  0  0  0  0  0  0  0  0
    6.1614   -2.3577    0.0000 C   0  0  0  0  0  0  0  0  0  0  0  0
    5.1606    3.3308    0.0000 C   0  0  0  0  0  0  0  0  0  0  0  0
    6.9527    2.2962    0.0000 C   0  0  0  0  0  0  0  0  0  0  0  0
    6.0587    3.8586    0.0000 C   0  0  0  0  0  0  0  0  0  0  0  0
    6.9608    3.3378    0.0000 C   0  0  0  0  0  0  0  0  0  0  0  0
    5.2298   -3.9074    0.0000 C   0  0  0  0  0  0  0  0  0  0  0  0
    7.0332   -2.8476    0.0000 C   0  0  0  0  0  0  0  0  0  0  0  0
    6.0420    4.9435    0.0000 C   0  0  0  0  0  0  0  0  0  0  0  0
    7.9086    3.8657    0.0000 C   0  0  0  0  0  0  0  0  0  0  0  0
    7.9170    4.9507    0.0000 C   0  0  0  0  0  0  0  0  0  0  0  0
    6.9774    5.4932    0.0000 C   0  0  0  0  0  0  0  0  0  0  0  0
    7.9165   -4.3375    0.0000 C   0  0  3  0  0  0  0  0  0  0  0  0
    8.7767   -3.8275    0.0000 C   0  0  0  0  0  0  0  0  0  0  0  0
    7.9280   -5.3374    0.0000 C   0  0  0  0  0  0  0  0  0  0  0  0
    8.7888    6.4473    0.0000 C   0  0  0  0  0  0  0  0  0  0  0  0
    3.4090    0.9024    0.0000 H   0  0  0  0  0  0  0  0  0  0  0  0
    2.8575   -0.4460    0.0000 H   0  0  0  0  0  0  0  0  0  0  0  0
    3.7482   -2.6728    0.0000 H   0  0  0  0  0  0  0  0  0  0  0  0
    2.0000    0.4887    0.0000 H   0  0  0  0  0  0  0  0  0  0  0  0
    2.5223   -1.8758    0.0000 H   0  0  0  0  0  0  0  0  0  0  0  0
    4.6098   -3.9098    0.0000 H   0  0  0  0  0  0  0  0  0  0  0  0
    5.2322   -4.5274    0.0000 H   0  0  0  0  0  0  0  0  0  0  0  0
    5.8498   -3.9050    0.0000 H   0  0  0  0  0  0  0  0  0  0  0  0
    2.9077    1.9793    0.0000 H   0  0  0  0  0  0  0  0  0  0  0  0
    7.4457    0.5993    0.0000 H   0  0  0  0  0  0  0  0  0  0  0  0
    8.4420    3.5495    0.0000 H   0  0  0  0  0  0  0  0  0  0  0  0
    7.5437   -1.0558    0.0000 H   0  0  0  0  0  0  0  0  0  0  0  0
    6.5114   -4.1637    0.0000 H   0  0  0  0  0  0  0  0  0  0  0  0
    6.9750    6.1132    0.0000 H   0  0  0  0  0  0  0  0  0  0  0  0
    7.9066   -3.4876    0.0000 H   0  0  0  0  0  0  0  0  0  0  0  0
    5.1630    6.0534    0.0000 H   0  0  0  0  0  0  0  0  0  0  0  0
    9.0928   -4.3608    0.0000 H   0  0  0  0  0  0  0  0  0  0  0  0
    9.3100   -3.5113    0.0000 H   0  0  0  0  0  0  0  0  0  0  0  0
    8.4605   -3.2942    0.0000 H   0  0  0  0  0  0  0  0  0  0  0  0
    9.4088    6.4450    0.0000 H   0  0  0  0  0  0  0  0  0  0  0  0
    8.7912    7.0673    0.0000 H   0  0  0  0  0  0  0  0  0  0  0  0
    8.1688    6.4497    0.0000 H   0  0  0  0  0  0  0  0  0  0  0  0
    8.8070   -6.4473    0.0000 H   0  0  0  0  0  0  0  0  0  0  0  0
 14  1  1  1  0  0  0
  1 45  1  0  0  0  0
 15  2  1  6  0  0  0
  2 46  1  0  0  0  0
  3 20  1  0  0  0  0
  3 50  1  0  0  0  0
  4 21  1  0  0  0  0
  4 51  1  0  0  0  0
  5 24  1  0  0  0  0
  5 53  1  0  0  0  0
  6 28  2  0  0  0  0
  7 29  2  0  0  0  0
  8 33  2  0  0  0  0
  9 34  1  0  0  0  0
  9 57  1  0  0  0  0
 10 36  1  0  0  0  0
 10 41  1  0  0  0  0
 11 40  1  0  0  0  0
 11 64  1  0  0  0  0
 12 40  2  0  0  0  0
 13 33  1  0  0  0  0
 13 38  1  0  0  0  0
 13 54  1  0  0  0  0
 14 15  1  0  0  0  0
 14 16  1  0  0  0  0
 14 42  1  0  0  0  0
 15 18  1  0  0  0  0
 15 43  1  0  0  0  0
 16 17  2  0  0  0  0
 16 20  1  0  0  0  0
 17 19  1  0  0  0  0
 17 21  1  0  0  0  0
 18 19  1  0  0  0  0
 18 25  2  0  0  0  0
 19 24  2  0  0  0  0
 20 22  2  0  0  0  0
 21 23  2  0  0  0  0
 22 23  1  0  0  0  0
 22 28  1  0  0  0  0
 23 29  1  0  0  0  0
 24 27  1  0  0  0  0
 25 26  1  0  0  0  0
 25 44  1  0  0  0  0
 26 27  2  0  0  0  0
 26 32  1  0  0  0  0
 27 33  1  0  0  0  0
 28 30  1  0  0  0  0
 29 31  1  0  0  0  0
 30 31  1  0  0  0  0
 30 34  2  0  0  0  0
 31 35  2  0  0  0  0
 32 47  1  0  0  0  0
 32 48  1  0  0  0  0
 32 49  1  0  0  0  0
 34 37  1  0  0  0  0
 35 36  1  0  0  0  0
 35 52  1  0  0  0  0
 36 37  2  0  0  0  0
 37 55  1  0  0  0  0
 38 39  1  0  0  0  0
 38 40  1  0  0  0  0
 38 56  1  0  0  0  0
 39 58  1  0  0  0  0
 39 59  1  0  0  0  0
 39 60  1  0  0  0  0
 41 61  1  0  0  0  0
 41 62  1  0  0  0  0
 41 63  1  0  0  0  0
M  END
> <PUBCHEM_COMPOUND_CID>
441174

> <PUBCHEM_COMPOUND_CANONICALIZED>
1

> <PUBCHEM_CACTVS_COMPLEXITY>
1080

> <PUBCHEM_CACTVS_HBOND_ACCEPTOR>
12

> <PUBCHEM_CACTVS_HBOND_DONOR>
8

> <PUBCHEM_CACTVS_ROTATABLE_BOND>
4

> <PUBCHEM_CACTVS_SUBSKEYS>
AAADceB6PAAAAAAAAAAAAAAAAAAAAAAAAAAwYMGDAAAAAADBUAAAHgAQCAAADDzhmAYyDoLABgCIAqHSGACCCAAkIAAAiIGODMgPNzaGtTuEcWhn9hWZuYfb7PzO4QADCAAYAADCAAYQADCAAAAAAAAAAA==

> <PUBCHEM_IUPAC_OPENEYE_NAME>
2-[[(5S,6S)-1,5,6,7,9,14-hexahydroxy-11-methoxy-3-methyl-8,13-dioxo-5,6-dihydrobenzo[a]tetracene-2-carbonyl]amino]propanoic acid

> <PUBCHEM_IUPAC_CAS_NAME>
2-[[[(5S,6S)-1,5,6,7,9,14-hexahydroxy-11-methoxy-3-methyl-8,13-dioxo-5,6-dihydrobenzo[a]tetracen-2-yl]-oxomethyl]amino]propanoic acid

> <PUBCHEM_IUPAC_NAME>
2-[[(5S,6S)-1,5,6,7,9,14-hexahydroxy-11-methoxy-3-methyl-8,13-dioxo-5,6-dihydrobenzo[a]tetracene-2-carbonyl]amino]propanoic acid

> <PUBCHEM_IUPAC_SYSTEMATIC_NAME>
2-[[(5S,6S)-11-methoxy-3-methyl-1,5,6,7,9,14-hexakis(oxidanyl)-8,13-bis(oxidanylidene)-5,6-dihydrobenzo[a]tetracen-2-yl]carbonylamino]propanoic acid

> <PUBCHEM_IUPAC_TRADITIONAL_NAME>
2-[[(5S,6S)-1,5,6,7,9,14-hexahydroxy-8,13-diketo-11-methoxy-3-methyl-5,6-dihydrobenzo[a]tetracene-2-carbonyl]amino]propionic acid

> <PUBCHEM_IUPAC_INCHI>
InChI=1S/C28H23NO12/c1-7-4-10-15(22(33)13(7)27(38)29-8(2)28(39)40)16-17(26(37)21(10)32)25(36)19-18(24(16)35)20(31)11-5-9(41-3)6-12(30)14(11)23(19)34/h4-6,8,21,26,30,32-33,35-37H,1-3H3,(H,29,38)(H,39,40)/t8?,21-,26-/m0/s1

> <PUBCHEM_IUPAC_INCHIKEY>
SBIJXMUETDVEQB-CJERNAKNSA-N

> <PUBCHEM_XLOGP3_AA>
2.4

> <PUBCHEM_EXACT_MASS>
565.122025

> <PUBCHEM_MOLECULAR_FORMULA>
C28H23NO12

> <PUBCHEM_MOLECULAR_WEIGHT>
565.48172

> <PUBCHEM_OPENEYE_CAN_SMILES>
CC1=C(C(=C2C(=C1)C(C(C3=C2C(=C4C(=C3O)C(=O)C5=C(C=C(C=C5C4=O)OC)O)O)O)O)O)C(=O)NC(C)C(=O)O

> <PUBCHEM_OPENEYE_ISO_SMILES>
CC1=C(C(=C2C(=C1)[C@@H]([C@H](C3=C2C(=C4C(=C3O)C(=O)C5=C(C=C(C=C5C4=O)OC)O)O)O)O)O)C(=O)NC(C)C(=O)O

> <PUBCHEM_CACTVS_TPSA>
231

> <PUBCHEM_MONOISOTOPIC_WEIGHT>
565.122025

> <PUBCHEM_TOTAL_CHARGE>
0

> <PUBCHEM_HEAVY_ATOM_COUNT>
41

> <PUBCHEM_ATOM_DEF_STEREO_COUNT>
2

> <PUBCHEM_ATOM_UDEF_STEREO_COUNT>
1

> <PUBCHEM_BOND_DEF_STEREO_COUNT>
0

> <PUBCHEM_BOND_UDEF_STEREO_COUNT>
0

> <PUBCHEM_ISOTOPIC_ATOM_COUNT>
0

> <PUBCHEM_COMPONENT_COUNT>
1

> <PUBCHEM_CACTVS_TAUTO_COUNT>
994

> <PUBCHEM_COORDINATE_TYPE>
1
5
255

> <PUBCHEM_BONDANNOTATIONS>
14  1  5
16  17  8
16  20  8
17  21  8
18  19  8
18  25  8
19  24  8
15  2  6
20  22  8
21  23  8
22  23  8
24  27  8
25  26  8
26  27  8
30  31  8
30  34  8
31  35  8
34  37  8
35  36  8
36  37  8
38  56  3

$$$$

