223999
  -OEChem-07051213053D

 43 46  0     1  0  0  0  0  0999 V2000
   -3.7266    0.9664    0.2222 O   0  0  0  0  0  0  0  0  0  0  0  0
   -5.8391    0.1862    0.1715 O   0  0  0  0  0  0  0  0  0  0  0  0
    6.1641   -0.0480   -0.2988 O   0  0  0  0  0  0  0  0  0  0  0  0
   -0.2808   -0.6716   -0.1049 C   0  0  1  0  0  0  0  0  0  0  0  0
   -1.7772   -0.5280    0.2704 C   0  0  1  0  0  0  0  0  0  0  0  0
   -2.3656    0.7979   -0.2553 C   0  0  2  0  0  0  0  0  0  0  0  0
    0.5357    0.5114    0.4984 C   0  0  2  0  0  0  0  0  0  0  0  0
   -1.5523    1.9656    0.3230 C   0  0  0  0  0  0  0  0  0  0  0  0
   -0.0559    1.8580    0.0309 C   0  0  0  0  0  0  0  0  0  0  0  0
    0.3423   -1.9878    0.3777 C   0  0  0  0  0  0  0  0  0  0  0  0
   -2.6738   -1.6728   -0.1945 C   0  0  0  0  0  0  0  0  0  0  0  0
    2.0357    0.3649    0.2523 C   0  0  0  0  0  0  0  0  0  0  0  0
    1.7562   -2.1354   -0.1761 C   0  0  0  0  0  0  0  0  0  0  0  0
   -2.4291    0.9220   -1.7909 C   0  0  0  0  0  0  0  0  0  0  0  0
    2.5996   -0.8965   -0.0288 C   0  0  0  0  0  0  0  0  0  0  0  0
   -4.1016   -1.4484    0.2757 C   0  0  0  0  0  0  0  0  0  0  0  0
   -4.6311   -0.0401    0.1732 C   0  0  0  0  0  0  0  0  0  0  0  0
    2.9056    1.4622    0.3891 C   0  0  0  0  0  0  0  0  0  0  0  0
    3.9867   -1.0191   -0.2255 C   0  0  0  0  0  0  0  0  0  0  0  0
    4.2832    1.3264    0.2020 C   0  0  0  0  0  0  0  0  0  0  0  0
    4.8237    0.0867   -0.1117 C   0  0  0  0  0  0  0  0  0  0  0  0
   -0.1889   -0.6513   -1.1993 H   0  0  0  0  0  0  0  0  0  0  0  0
   -1.8424   -0.5163    1.3697 H   0  0  0  0  0  0  0  0  0  0  0  0
    0.4198    0.4716    1.5924 H   0  0  0  0  0  0  0  0  0  0  0  0
   -1.7049    2.0093    1.4103 H   0  0  0  0  0  0  0  0  0  0  0  0
   -1.9360    2.9218   -0.0554 H   0  0  0  0  0  0  0  0  0  0  0  0
    0.1333    2.0004   -1.0401 H   0  0  0  0  0  0  0  0  0  0  0  0
    0.4303    2.6954    0.5430 H   0  0  0  0  0  0  0  0  0  0  0  0
   -0.2345   -2.8563    0.0469 H   0  0  0  0  0  0  0  0  0  0  0  0
    0.3618   -2.0133    1.4748 H   0  0  0  0  0  0  0  0  0  0  0  0
   -2.3381   -2.6321    0.2122 H   0  0  0  0  0  0  0  0  0  0  0  0
   -2.6431   -1.7745   -1.2848 H   0  0  0  0  0  0  0  0  0  0  0  0
    1.7001   -2.3811   -1.2444 H   0  0  0  0  0  0  0  0  0  0  0  0
    2.2421   -2.9786    0.3299 H   0  0  0  0  0  0  0  0  0  0  0  0
   -1.4543    0.8094   -2.2713 H   0  0  0  0  0  0  0  0  0  0  0  0
   -3.1134    0.1903   -2.2323 H   0  0  0  0  0  0  0  0  0  0  0  0
   -2.8306    1.9025   -2.0750 H   0  0  0  0  0  0  0  0  0  0  0  0
   -4.1794   -1.7312    1.3326 H   0  0  0  0  0  0  0  0  0  0  0  0
   -4.7671   -2.1066   -0.2944 H   0  0  0  0  0  0  0  0  0  0  0  0
    2.5318    2.4465    0.6542 H   0  0  0  0  0  0  0  0  0  0  0  0
    4.4149   -1.9902   -0.4655 H   0  0  0  0  0  0  0  0  0  0  0  0
    4.9211    2.1997    0.3095 H   0  0  0  0  0  0  0  0  0  0  0  0
    6.5879    0.8194   -0.1800 H   0  0  0  0  0  0  0  0  0  0  0  0
  1  6  1  0  0  0  0
  1 17  1  0  0  0  0
  2 17  2  0  0  0  0
  3 21  1  0  0  0  0
  3 43  1  0  0  0  0
  4  5  1  0  0  0  0
  4  7  1  0  0  0  0
  4 10  1  0  0  0  0
  4 22  1  0  0  0  0
  5  6  1  0  0  0  0
  5 11  1  0  0  0  0
  5 23  1  0  0  0  0
  6  8  1  0  0  0  0
  6 14  1  0  0  0  0
  7  9  1  0  0  0  0
  7 12  1  0  0  0  0
  7 24  1  0  0  0  0
  8  9  1  0  0  0  0
  8 25  1  0  0  0  0
  8 26  1  0  0  0  0
  9 27  1  0  0  0  0
  9 28  1  0  0  0  0
 10 13  1  0  0  0  0
 10 29  1  0  0  0  0
 10 30  1  0  0  0  0
 11 16  1  0  0  0  0
 11 31  1  0  0  0  0
 11 32  1  0  0  0  0
 12 15  2  0  0  0  0
 12 18  1  0  0  0  0
 13 15  1  0  0  0  0
 13 33  1  0  0  0  0
 13 34  1  0  0  0  0
 14 35  1  0  0  0  0
 14 36  1  0  0  0  0
 14 37  1  0  0  0  0
 15 19  1  0  0  0  0
 16 17  1  0  0  0  0
 16 38  1  0  0  0  0
 16 39  1  0  0  0  0
 18 20  2  0  0  0  0
 18 40  1  0  0  0  0
 19 21  2  0  0  0  0
 19 41  1  0  0  0  0
 20 21  1  0  0  0  0
 20 42  1  0  0  0  0
M  END
> <PUBCHEM_COMPOUND_CID>
223999

> <PUBCHEM_CONFORMER_RMSD>
0.6

> <PUBCHEM_CONFORMER_DIVERSEORDER>
1

> <PUBCHEM_MMFF94_PARTIAL_CHARGES>
18
1 -0.43
12 -0.14
13 0.14
15 -0.14
16 0.06
17 0.66
18 -0.15
19 -0.15
2 -0.57
20 -0.15
21 0.08
3 -0.53
40 0.15
41 0.15
42 0.15
43 0.45
6 0.28
7 0.14

> <PUBCHEM_EFFECTIVE_ROTOR_COUNT>
1.4

> <PUBCHEM_PHARMACOPHORE_FEATURES>
6
1 2 acceptor
1 3 donor
6 1 5 6 11 16 17 rings
6 12 15 18 19 20 21 rings
6 4 5 6 7 8 9 rings
6 4 7 10 12 13 15 rings

> <PUBCHEM_HEAVY_ATOM_COUNT>
21

> <PUBCHEM_ATOM_DEF_STEREO_COUNT>
4

> <PUBCHEM_ATOM_UDEF_STEREO_COUNT>
0

> <PUBCHEM_BOND_DEF_STEREO_COUNT>
0

> <PUBCHEM_BOND_UDEF_STEREO_COUNT>
0

> <PUBCHEM_ISOTOPIC_ATOM_COUNT>
0

> <PUBCHEM_COMPONENT_COUNT>
1

> <PUBCHEM_CACTVS_TAUTO_COUNT>
9

> <PUBCHEM_CONFORMER_ID>
00036AFF00000001

> <PUBCHEM_MMFF94_ENERGY>
61.9246

> <PUBCHEM_FEATURE_SELFOVERLAP>
30.502

> <PUBCHEM_SHAPE_FINGERPRINT>
10498660 4 18342745138904758860
10616163 171 18408322189733284839
10967382 1 18410012143341835818
11132069 177 18342741784624653057
11578080 2 17129595788805239655
12011746 2 18410298008508268133
12236239 1 17385442120377462985
12403259 415 18341059553393940444
12403814 3 17775568650201827157
12553582 1 18262253178132291385
12788726 201 17241605194600667601
12838862 33 18337973236775457337
128620 24 18202565081226913326
13140716 1 18265341607415241864
13224815 77 18412267254680827282
13402501 40 18411417289142793202
13533116 47 5978119993894635460
13583140 156 16772420381567906692
13862211 1 18410297994895788146
14617045 38 18411131446474538155
14787075 74 18341895147485904123
14790565 3 18409722937561623137
15196674 1 18337671918981020546
15536298 74 18334012787238697242
16945 1 18194694875737342474
1813 80 17418088815381978381
18186145 218 18411427206644175244
19141452 34 18260547784495827287
19591789 44 18265335001740014802
200 152 17894914031193781146
20645477 70 18261953059209185022
21267235 1 18409439276398832619
21421861 104 18057608865514131810
221357 26 18260265278610771500
23402539 116 18335988583996116238
23557571 272 17632297912435750997
23559900 14 18263086535285370080
2748010 2 18338246950746062784
2871803 45 18411983580601765698
3004659 81 18343015628278324782
335352 9 18409448076654693757
34934 24 18410859875972051907
350125 39 18410854339785672024
3545911 37 18410855468718096390
4214541 1 18409448106820016185
474229 33 18411418401797921986
5104073 3 18338517542217552514
9709674 26 18409442609367606150

> <PUBCHEM_SHAPE_MULTIPOLES>
414.56
10.75
2.08
0.82
2.26
0.24
0.26
-0.13
0.19
-0.03
-0.08
-0.36
-0.15
0.42

> <PUBCHEM_SHAPE_SELFOVERLAP>
902.428

> <PUBCHEM_SHAPE_VOLUME>
223.6

> <PUBCHEM_COORDINATE_TYPE>
2
5
10

$$$$

