8999
  -OEChem-06261203182D

  9  7  0     1  0  0  0  0  0999 V2000
    1.7321    1.0000    0.0000 S   0  0  3  0  0  0  0  0  0  0  0  0
    0.0000    1.0000    0.0000 Na  0  3  0  0  0  0  0  0  0  0  0  0
    3.4641    1.0000    0.0000 O   0  0  0  0  0  0  0  0  0  0  0  0
    0.8660    1.5000    0.0000 O   0  5  0  0  0  0  0  0  0  0  0  0
    1.7321    0.0000    0.0000 O   0  0  0  0  0  0  0  0  0  0  0  0
    2.5981    1.5000    0.0000 C   0  0  0  0  0  0  0  0  0  0  0  0
    2.9966    1.9749    0.0000 H   0  0  0  0  0  0  0  0  0  0  0  0
    2.1995    1.9749    0.0000 H   0  0  0  0  0  0  0  0  0  0  0  0
    4.0010    1.3100    0.0000 H   0  0  0  0  0  0  0  0  0  0  0  0
  1  4  1  0  0  0  0
  1  5  2  0  0  0  0
  1  6  1  0  0  0  0
  3  6  1  0  0  0  0
  3  9  1  0  0  0  0
  6  7  1  0  0  0  0
  6  8  1  0  0  0  0
M  CHG  2   2   1   4  -1
M  END
> <PUBCHEM_COMPOUND_CID>
8999

> <PUBCHEM_COMPOUND_CANONICALIZED>
1

> <PUBCHEM_CACTVS_COMPLEXITY>
36.6

> <PUBCHEM_CACTVS_HBOND_ACCEPTOR>
4

> <PUBCHEM_CACTVS_HBOND_DONOR>
1

> <PUBCHEM_CACTVS_ROTATABLE_BOND>
0

> <PUBCHEM_CACTVS_SUBSKEYS>
AAADcQAAMCBAAAAAAAAAAAAAAAAAAAAAAAAAAAAAAAAAAAAAAAAAEgQACAAAAAAAAAKAAAAAAgIAAAAAAGAAAAAAAAAAAAAAAAAAEAAAAAAAAAAAAAAAAAAAAAAAAAAAAAAAAAAAAAAAAAAAAAAAAAAAAA==

> <PUBCHEM_IUPAC_OPENEYE_NAME>
sodium hydroxymethanesulfinate

> <PUBCHEM_IUPAC_CAS_NAME>
sodium hydroxymethanesulfinate

> <PUBCHEM_IUPAC_NAME>
sodium hydroxymethanesulfinate

> <PUBCHEM_IUPAC_SYSTEMATIC_NAME>
sodium oxidanylmethanesulfinate

> <PUBCHEM_IUPAC_TRADITIONAL_NAME>
sodium hydroxymethanesulfinate

> <PUBCHEM_IUPAC_INCHI>
InChI=1S/CH4O3S.Na/c2-1-5(3)4;/h2H,1H2,(H,3,4);/q;+1/p-1

> <PUBCHEM_IUPAC_INCHIKEY>
XWGJFPHUCFXLBL-UHFFFAOYSA-M

> <PUBCHEM_EXACT_MASS>
117.970059

> <PUBCHEM_MOLECULAR_FORMULA>
CH3NaO3S

> <PUBCHEM_MOLECULAR_WEIGHT>
118.087489

> <PUBCHEM_OPENEYE_CAN_SMILES>
C(O)S(=O)[O-].[Na+]

> <PUBCHEM_OPENEYE_ISO_SMILES>
C(O)S(=O)[O-].[Na+]

> <PUBCHEM_CACTVS_TPSA>
79.6

> <PUBCHEM_MONOISOTOPIC_WEIGHT>
117.970059

> <PUBCHEM_TOTAL_CHARGE>
0

> <PUBCHEM_HEAVY_ATOM_COUNT>
6

> <PUBCHEM_ATOM_DEF_STEREO_COUNT>
0

> <PUBCHEM_ATOM_UDEF_STEREO_COUNT>
0

> <PUBCHEM_BOND_DEF_STEREO_COUNT>
0

> <PUBCHEM_BOND_UDEF_STEREO_COUNT>
0

> <PUBCHEM_ISOTOPIC_ATOM_COUNT>
0

> <PUBCHEM_COMPONENT_COUNT>
2

> <PUBCHEM_CACTVS_TAUTO_COUNT>
1

> <PUBCHEM_COORDINATE_TYPE>
1
5
255

$$$$

