443795
  -OEChem-07051213032D

 48 51  0     1  0  0  0  0  0999 V2000
    5.5320    1.5754    0.0000 O   0  0  0  0  0  0  0  0  0  0  0  0
    4.6497   -1.9592    0.0000 O   0  0  0  0  0  0  0  0  0  0  0  0
    4.3070    2.0536    0.0000 O   0  0  0  0  0  0  0  0  0  0  0  0
    6.3981    2.0754    0.0000 O   0  0  0  0  0  0  0  0  0  0  0  0
    2.8680   -0.9488    0.0000 O   0  0  0  0  0  0  0  0  0  0  0  0
    8.1465    2.1100    0.0000 O   0  0  0  0  0  0  0  0  0  0  0  0
    2.8718    2.0995    0.0000 O   0  0  0  0  0  0  0  0  0  0  0  0
    9.9837    2.1530    0.0000 O   0  0  0  0  0  0  0  0  0  0  0  0
   11.8031   -0.9705    0.0000 O   0  0  0  0  0  0  0  0  0  0  0  0
    5.5320   -0.4246    0.0000 C   0  0  1  0  0  0  0  0  0  0  0  0
    5.5320    0.5754    0.0000 C   0  0  1  0  0  0  0  0  0  0  0  0
    6.3981   -0.9246    0.0000 C   0  0  0  0  0  0  0  0  0  0  0  0
    4.6381   -0.9593    0.0000 C   0  0  1  0  0  0  0  0  0  0  0  0
    7.2641   -0.4246    0.0000 C   0  0  0  0  0  0  0  0  0  0  0  0
    6.3981    1.0754    0.0000 C   0  0  0  0  0  0  0  0  0  0  0  0
    4.6381    1.1100    0.0000 C   0  0  0  0  0  0  0  0  0  0  0  0
    7.2641    0.5754    0.0000 C   0  0  0  0  0  0  0  0  0  0  0  0
    3.7320   -0.4455    0.0000 C   0  0  0  0  0  0  0  0  0  0  0  0
    3.7320    0.5962    0.0000 C   0  0  0  0  0  0  0  0  0  0  0  0
    8.1580   -0.9593    0.0000 C   0  0  0  0  0  0  0  0  0  0  0  0
    8.1580    1.1100    0.0000 C   0  0  0  0  0  0  0  0  0  0  0  0
    9.0641   -0.4455    0.0000 C   0  0  0  0  0  0  0  0  0  0  0  0
    9.0641    0.5962    0.0000 C   0  0  0  0  0  0  0  0  0  0  0  0
    2.8680    1.0995    0.0000 C   0  0  0  0  0  0  0  0  0  0  0  0
    3.7895   -2.4692    0.0000 C   0  0  0  0  0  0  0  0  0  0  0  0
    9.9953    1.1531    0.0000 C   0  0  0  0  0  0  0  0  0  0  0  0
    9.9953   -1.0024    0.0000 C   0  0  0  0  0  0  0  0  0  0  0  0
    2.0000    0.6029    0.0000 C   0  0  0  0  0  0  0  0  0  0  0  0
   10.9391   -0.4671    0.0000 C   0  0  0  0  0  0  0  0  0  0  0  0
   10.9391    0.6179    0.0000 C   0  0  0  0  0  0  0  0  0  0  0  0
    5.5386   -1.2746    0.0000 H   0  0  0  0  0  0  0  0  0  0  0  0
    5.9995   -1.3996    0.0000 H   0  0  0  0  0  0  0  0  0  0  0  0
    6.7966   -1.3996    0.0000 H   0  0  0  0  0  0  0  0  0  0  0  0
    4.1042   -1.2745    0.0000 H   0  0  0  0  0  0  0  0  0  0  0  0
    8.1509   -1.5793    0.0000 H   0  0  0  0  0  0  0  0  0  0  0  0
    5.1335    2.0503    0.0000 H   0  0  0  0  0  0  0  0  0  0  0  0
    3.6977    2.1683    0.0000 H   0  0  0  0  0  0  0  0  0  0  0  0
    3.4733   -1.9359    0.0000 H   0  0  0  0  0  0  0  0  0  0  0  0
    3.2562   -2.7854    0.0000 H   0  0  0  0  0  0  0  0  0  0  0  0
    4.1057   -3.0025    0.0000 H   0  0  0  0  0  0  0  0  0  0  0  0
    9.9881   -1.6223    0.0000 H   0  0  0  0  0  0  0  0  0  0  0  0
    8.6798    2.4261    0.0000 H   0  0  0  0  0  0  0  0  0  0  0  0
    1.6921    1.1410    0.0000 H   0  0  0  0  0  0  0  0  0  0  0  0
    1.4619    0.2949    0.0000 H   0  0  0  0  0  0  0  0  0  0  0  0
    2.3079    0.0647    0.0000 H   0  0  0  0  0  0  0  0  0  0  0  0
   11.4748    0.9299    0.0000 H   0  0  0  0  0  0  0  0  0  0  0  0
   10.5170    2.4692    0.0000 H   0  0  0  0  0  0  0  0  0  0  0  0
   12.3413   -0.6625    0.0000 H   0  0  0  0  0  0  0  0  0  0  0  0
 11  1  1  6  0  0  0
  1 36  1  0  0  0  0
 13  2  1  6  0  0  0
  2 25  1  0  0  0  0
  3 16  1  0  0  0  0
  3 37  1  0  0  0  0
  4 15  2  0  0  0  0
  5 18  2  0  0  0  0
  6 21  1  0  0  0  0
  6 42  1  0  0  0  0
  7 24  2  0  0  0  0
  8 26  1  0  0  0  0
  8 47  1  0  0  0  0
  9 29  1  0  0  0  0
  9 48  1  0  0  0  0
 10 11  1  0  0  0  0
 10 12  1  0  0  0  0
 10 13  1  0  0  0  0
 10 31  1  6  0  0  0
 11 15  1  0  0  0  0
 11 16  1  0  0  0  0
 12 14  1  0  0  0  0
 12 32  1  0  0  0  0
 12 33  1  0  0  0  0
 13 18  1  0  0  0  0
 13 34  1  0  0  0  0
 14 17  1  0  0  0  0
 14 20  2  0  0  0  0
 15 17  1  0  0  0  0
 16 19  2  0  0  0  0
 17 21  2  0  0  0  0
 18 19  1  0  0  0  0
 19 24  1  0  0  0  0
 20 22  1  0  0  0  0
 20 35  1  0  0  0  0
 21 23  1  0  0  0  0
 22 23  1  0  0  0  0
 22 27  2  0  0  0  0
 23 26  2  0  0  0  0
 24 28  1  0  0  0  0
 25 38  1  0  0  0  0
 25 39  1  0  0  0  0
 25 40  1  0  0  0  0
 26 30  1  0  0  0  0
 27 29  1  0  0  0  0
 27 41  1  0  0  0  0
 28 43  1  0  0  0  0
 28 44  1  0  0  0  0
 28 45  1  0  0  0  0
 29 30  2  0  0  0  0
 30 46  1  0  0  0  0
M  END
> <PUBCHEM_COMPOUND_CID>
443795

> <PUBCHEM_COMPOUND_CANONICALIZED>
1

> <PUBCHEM_CACTVS_COMPLEXITY>
819

> <PUBCHEM_CACTVS_HBOND_ACCEPTOR>
9

> <PUBCHEM_CACTVS_HBOND_DONOR>
5

> <PUBCHEM_CACTVS_ROTATABLE_BOND>
2

> <PUBCHEM_CACTVS_SUBSKEYS>
AAADceB4PAAAAAAAAAAAAAAAAAAAAAAAAAAwYMEAAAAAAADBUAAAGgAACAAADVSgmAIyBsAABgCIAqBSAAICAAAkIAAAiAFGCMgJJzaKFRaAcUAl4BUJmQfK7vTu4AADCAAYAADAAAYQADAAAAAAAAAAAA==

> <PUBCHEM_IUPAC_OPENEYE_NAME>
(1S,4aR,12aS)-3-acetyl-4,4a,6,7,9-pentahydroxy-1-methoxy-12,12a-dihydro-1H-tetracene-2,5-dione

> <PUBCHEM_IUPAC_CAS_NAME>
(1S,4aR,12aS)-3-acetyl-4,4a,6,7,9-pentahydroxy-1-methoxy-12,12a-dihydro-1H-tetracene-2,5-dione

> <PUBCHEM_IUPAC_NAME>
(1S,4aR,12aS)-3-acetyl-4,4a,6,7,9-pentahydroxy-1-methoxy-12,12a-dihydro-1H-tetracene-2,5-dione

> <PUBCHEM_IUPAC_SYSTEMATIC_NAME>
(1S,4aR,12aS)-3-ethanoyl-1-methoxy-4,4a,6,7,9-pentakis(oxidanyl)-12,12a-dihydro-1H-tetracene-2,5-dione

> <PUBCHEM_IUPAC_TRADITIONAL_NAME>
(1S,4aR,12aS)-3-acetyl-4,4a,6,7,9-pentahydroxy-1-methoxy-12,12a-dihydro-1H-tetracene-2,5-quinone

> <PUBCHEM_IUPAC_INCHI>
InChI=1S/C21H18O9/c1-7(22)13-17(26)18(30-2)11-5-9-3-8-4-10(23)6-12(24)14(8)16(25)15(9)20(28)21(11,29)19(13)27/h3-4,6,11,18,23-25,27,29H,5H2,1-2H3/t11-,18-,21+/m0/s1

> <PUBCHEM_IUPAC_INCHIKEY>
KIDUWMLDPAHEJH-NKTYFGPESA-N

> <PUBCHEM_XLOGP3_AA>
1.7

> <PUBCHEM_EXACT_MASS>
414.095082

> <PUBCHEM_MOLECULAR_FORMULA>
C21H18O9

> <PUBCHEM_MOLECULAR_WEIGHT>
414.36222

> <PUBCHEM_OPENEYE_CAN_SMILES>
CC(=O)C1=C(C2(C(CC3=C(C2=O)C(=C4C(=C3)C=C(C=C4O)O)O)C(C1=O)OC)O)O

> <PUBCHEM_OPENEYE_ISO_SMILES>
CC(=O)C1=C([C@@]2([C@@H](CC3=C(C2=O)C(=C4C(=C3)C=C(C=C4O)O)O)[C@@H](C1=O)OC)O)O

> <PUBCHEM_CACTVS_TPSA>
162

> <PUBCHEM_MONOISOTOPIC_WEIGHT>
414.095082

> <PUBCHEM_TOTAL_CHARGE>
0

> <PUBCHEM_HEAVY_ATOM_COUNT>
30

> <PUBCHEM_ATOM_DEF_STEREO_COUNT>
3

> <PUBCHEM_ATOM_UDEF_STEREO_COUNT>
0

> <PUBCHEM_BOND_DEF_STEREO_COUNT>
0

> <PUBCHEM_BOND_UDEF_STEREO_COUNT>
0

> <PUBCHEM_ISOTOPIC_ATOM_COUNT>
0

> <PUBCHEM_COMPONENT_COUNT>
1

> <PUBCHEM_CACTVS_TAUTO_COUNT>
999

> <PUBCHEM_COORDINATE_TYPE>
1
5
255

> <PUBCHEM_BONDANNOTATIONS>
11  1  6
10  31  6
14  17  8
14  20  8
17  21  8
13  2  6
20  22  8
21  23  8
22  23  8
22  27  8
23  26  8
26  30  8
27  29  8
29  30  8

$$$$

