13888
  -OEChem-06241222403D

 22 22  0     0  0  0  0  0  0999 V2000
   -3.4999   -1.1062    0.0002 O   0  0  0  0  0  0  0  0  0  0  0  0
    3.5000   -1.1062    0.0004 O   0  0  0  0  0  0  0  0  0  0  0  0
   -1.3949   -0.0421    0.0002 C   0  0  0  0  0  0  0  0  0  0  0  0
    1.3948   -0.0420   -0.0008 C   0  0  0  0  0  0  0  0  0  0  0  0
   -0.6976    1.1659   -0.0001 C   0  0  0  0  0  0  0  0  0  0  0  0
    0.6973    1.1659   -0.0007 C   0  0  0  0  0  0  0  0  0  0  0  0
   -0.6974   -1.2501    0.0001 C   0  0  0  0  0  0  0  0  0  0  0  0
    0.6975   -1.2500   -0.0004 C   0  0  0  0  0  0  0  0  0  0  0  0
   -2.8488   -0.0422    0.0003 C   0  0  0  0  0  0  0  0  0  0  0  0
    2.8490   -0.0422   -0.0001 C   0  0  0  0  0  0  0  0  0  0  0  0
   -3.6180    1.2746    0.0001 C   0  0  0  0  0  0  0  0  0  0  0  0
    3.6179    1.2747    0.0009 C   0  0  0  0  0  0  0  0  0  0  0  0
   -1.2010    2.1277    0.0000 H   0  0  0  0  0  0  0  0  0  0  0  0
    1.2007    2.1277   -0.0009 H   0  0  0  0  0  0  0  0  0  0  0  0
   -1.2184   -2.2040    0.0004 H   0  0  0  0  0  0  0  0  0  0  0  0
    1.2185   -2.2039   -0.0002 H   0  0  0  0  0  0  0  0  0  0  0  0
   -3.3878    1.8468   -0.9023 H   0  0  0  0  0  0  0  0  0  0  0  0
   -3.3875    1.8474    0.9021 H   0  0  0  0  0  0  0  0  0  0  0  0
   -4.6919    1.0617    0.0004 H   0  0  0  0  0  0  0  0  0  0  0  0
    3.3870    1.8468    0.9032 H   0  0  0  0  0  0  0  0  0  0  0  0
    3.3880    1.8475   -0.9012 H   0  0  0  0  0  0  0  0  0  0  0  0
    4.6919    1.0619    0.0013 H   0  0  0  0  0  0  0  0  0  0  0  0
  1  9  2  0  0  0  0
  2 10  2  0  0  0  0
  3  5  2  0  0  0  0
  3  7  1  0  0  0  0
  3  9  1  0  0  0  0
  4  6  2  0  0  0  0
  4  8  1  0  0  0  0
  4 10  1  0  0  0  0
  5  6  1  0  0  0  0
  5 13  1  0  0  0  0
  6 14  1  0  0  0  0
  7  8  2  0  0  0  0
  7 15  1  0  0  0  0
  8 16  1  0  0  0  0
  9 11  1  0  0  0  0
 10 12  1  0  0  0  0
 11 17  1  0  0  0  0
 11 18  1  0  0  0  0
 11 19  1  0  0  0  0
 12 20  1  0  0  0  0
 12 21  1  0  0  0  0
 12 22  1  0  0  0  0
M  END
> <PUBCHEM_COMPOUND_CID>
13888

> <PUBCHEM_CONFORMER_RMSD>
0.6

> <PUBCHEM_CONFORMER_DIVERSEORDER>
1
6
3
4
2
5

> <PUBCHEM_MMFF94_PARTIAL_CHARGES>
16
1 -0.57
10 0.42
11 0.06
12 0.06
13 0.15
14 0.15
15 0.15
16 0.15
2 -0.57
3 0.09
4 0.09
5 -0.15
6 -0.15
7 -0.15
8 -0.15
9 0.42

> <PUBCHEM_EFFECTIVE_ROTOR_COUNT>
2

> <PUBCHEM_PHARMACOPHORE_FEATURES>
3
1 1 acceptor
1 2 acceptor
6 3 4 5 6 7 8 rings

> <PUBCHEM_HEAVY_ATOM_COUNT>
12

> <PUBCHEM_ATOM_DEF_STEREO_COUNT>
0

> <PUBCHEM_ATOM_UDEF_STEREO_COUNT>
0

> <PUBCHEM_BOND_DEF_STEREO_COUNT>
0

> <PUBCHEM_BOND_UDEF_STEREO_COUNT>
0

> <PUBCHEM_ISOTOPIC_ATOM_COUNT>
0

> <PUBCHEM_COMPONENT_COUNT>
1

> <PUBCHEM_CACTVS_TAUTO_COUNT>
3

> <PUBCHEM_CONFORMER_ID>
0000364000000001

> <PUBCHEM_MMFF94_ENERGY>
33.2168

> <PUBCHEM_FEATURE_SELFOVERLAP>
15.223

> <PUBCHEM_SHAPE_FINGERPRINT>
10219947 1 18410854360627083564
10608611 8 18410859862470049440
11062470 55 18410573985167457281
11132069 177 18409454703842102256
11471102 20 18410579504189863837
11543360 7 15647346194772394061
11806522 49 18266464209230526903
12032990 46 18410849966865321507
14144814 61 18410855455838514872
14325111 11 18410573980861830048
14993402 34 18410012108945148316
16945 1 18410855464423155078
18186145 218 18201721781715343566
193761 8 17546165667413136869
20645476 183 17916003699687161614
20645477 70 18334577992002918287
23235685 24 18410580586516263044
23402539 116 18260840310206794516
23402655 69 18191883404054150309
23463225 33 18340770433200960242
23559900 14 18334858342620960226
2748010 2 18122344571077701470
5104073 3 18410855464423149568
528886 8 18410017662649059339
53812653 166 18335425676902664673

> <PUBCHEM_SHAPE_MULTIPOLES>
235.22
6.35
1.55
0.6
0
0.03
0
0.84
0
0
0
0
0.02
0

> <PUBCHEM_SHAPE_SELFOVERLAP>
489.491

> <PUBCHEM_SHAPE_VOLUME>
134.4

> <PUBCHEM_COORDINATE_TYPE>
2
5
10

$$$$

