23724589
  -OEChem-07051213082D

 78 81  0     1  0  0  0  0  0999 V2000
   10.2963    0.1097    0.0000 O   0  0  0  0  0  0  0  0  0  0  0  0
    2.0000   -3.6598    0.0000 O   0  0  0  0  0  0  0  0  0  0  0  0
    7.3931   -0.6074    0.0000 C   0  0  1  0  0  0  0  0  0  0  0  0
    7.3931   -1.6074    0.0000 C   0  0  3  0  0  0  0  0  0  0  0  0
    6.5271   -2.1074    0.0000 C   0  0  1  0  0  0  0  0  0  0  0  0
    5.6610   -1.6074    0.0000 C   0  0  1  0  0  0  0  0  0  0  0  0
    4.7510   -2.1143    0.0000 C   0  0  2  0  0  0  0  0  0  0  0  0
    8.3393   -0.3027    0.0000 C   0  0  2  0  0  0  0  0  0  0  0  0
    6.5271   -0.1074    0.0000 C   0  0  0  0  0  0  0  0  0  0  0  0
    5.6610   -0.6074    0.0000 C   0  0  0  0  0  0  0  0  0  0  0  0
    8.3393   -1.9122    0.0000 C   0  0  0  0  0  0  0  0  0  0  0  0
    4.7430   -3.1559    0.0000 C   0  0  1  0  0  0  0  0  0  0  0  0
    6.5431   -3.1489    0.0000 C   0  0  0  0  0  0  0  0  0  0  0  0
    8.9229   -1.1074    0.0000 C   0  0  0  0  0  0  0  0  0  0  0  0
    5.6451   -3.6767    0.0000 C   0  0  0  0  0  0  0  0  0  0  0  0
    8.6500    0.6478    0.0000 C   0  0  1  0  0  0  0  0  0  0  0  0
    7.3931    0.3926    0.0000 C   0  0  0  0  0  0  0  0  0  0  0  0
    3.8242   -1.5502    0.0000 C   0  0  0  0  0  0  0  0  0  0  0  0
    4.7587   -1.1143    0.0000 C   0  0  0  0  0  0  0  0  0  0  0  0
    3.8076   -3.7056    0.0000 C   0  0  0  0  0  0  0  0  0  0  0  0
    2.8763   -2.0781    0.0000 C   0  0  0  0  0  0  0  0  0  0  0  0
    9.6285    0.8540    0.0000 C   0  0  2  0  0  0  0  0  0  0  0  0
    2.8680   -3.1631    0.0000 C   0  0  0  0  0  0  0  0  0  0  0  0
    7.9821    1.3921    0.0000 C   0  0  0  0  0  0  0  0  0  0  0  0
    9.9391    1.8046    0.0000 C   0  0  0  0  0  0  0  0  0  0  0  0
   10.9176    2.0108    0.0000 C   0  0  2  0  0  0  0  0  0  0  0  0
   11.2283    2.9613    0.0000 C   0  0  0  0  0  0  0  0  0  0  0  0
   11.5855    1.2665    0.0000 C   0  0  0  0  0  0  0  0  0  0  0  0
   12.2068    3.1675    0.0000 C   0  0  0  0  0  0  0  0  0  0  0  0
   10.5605    3.7056    0.0000 C   0  0  0  0  0  0  0  0  0  0  0  0
    7.4587   -2.2240    0.0000 H   0  0  0  0  0  0  0  0  0  0  0  0
    7.2664   -2.5267    0.0000 H   0  0  0  0  0  0  0  0  0  0  0  0
    6.3972   -1.1824    0.0000 H   0  0  0  0  0  0  0  0  0  0  0  0
    9.1790   -0.1708    0.0000 H   0  0  0  0  0  0  0  0  0  0  0  0
    6.9256    0.3675    0.0000 H   0  0  0  0  0  0  0  0  0  0  0  0
    6.1285    0.3675    0.0000 H   0  0  0  0  0  0  0  0  0  0  0  0
    5.4490   -0.0248    0.0000 H   0  0  0  0  0  0  0  0  0  0  0  0
    5.0504   -0.7151    0.0000 H   0  0  0  0  0  0  0  0  0  0  0  0
    8.0883   -2.4791    0.0000 H   0  0  0  0  0  0  0  0  0  0  0  0
    8.8767   -2.2214    0.0000 H   0  0  0  0  0  0  0  0  0  0  0  0
    4.7463   -4.0059    0.0000 H   0  0  0  0  0  0  0  0  0  0  0  0
    6.7612   -3.7293    0.0000 H   0  0  0  0  0  0  0  0  0  0  0  0
    7.1523   -3.0334    0.0000 H   0  0  0  0  0  0  0  0  0  0  0  0
    9.3838   -1.5222    0.0000 H   0  0  0  0  0  0  0  0  0  0  0  0
    9.3838   -0.6927    0.0000 H   0  0  0  0  0  0  0  0  0  0  0  0
    5.2478   -4.1527    0.0000 H   0  0  0  0  0  0  0  0  0  0  0  0
    6.0460   -4.1496    0.0000 H   0  0  0  0  0  0  0  0  0  0  0  0
    8.0433    0.5200    0.0000 H   0  0  0  0  0  0  0  0  0  0  0  0
    8.0131    0.3926    0.0000 H   0  0  0  0  0  0  0  0  0  0  0  0
    7.3931    1.0126    0.0000 H   0  0  0  0  0  0  0  0  0  0  0  0
    6.7731    0.3926    0.0000 H   0  0  0  0  0  0  0  0  0  0  0  0
    4.2324   -1.0835    0.0000 H   0  0  0  0  0  0  0  0  0  0  0  0
    3.4343   -1.0682    0.0000 H   0  0  0  0  0  0  0  0  0  0  0  0
    5.3787   -1.1191    0.0000 H   0  0  0  0  0  0  0  0  0  0  0  0
    4.7635   -0.4943    0.0000 H   0  0  0  0  0  0  0  0  0  0  0  0
    4.1388   -1.1095    0.0000 H   0  0  0  0  0  0  0  0  0  0  0  0
    3.4103   -4.1816    0.0000 H   0  0  0  0  0  0  0  0  0  0  0  0
    4.2085   -4.1785    0.0000 H   0  0  0  0  0  0  0  0  0  0  0  0
    2.6718   -1.4929    0.0000 H   0  0  0  0  0  0  0  0  0  0  0  0
    2.2647   -2.1795    0.0000 H   0  0  0  0  0  0  0  0  0  0  0  0
    9.4359    0.2647    0.0000 H   0  0  0  0  0  0  0  0  0  0  0  0
    8.4436    1.8062    0.0000 H   0  0  0  0  0  0  0  0  0  0  0  0
    7.5681    1.8536    0.0000 H   0  0  0  0  0  0  0  0  0  0  0  0
    7.5207    0.9781    0.0000 H   0  0  0  0  0  0  0  0  0  0  0  0
    9.9186    2.4242    0.0000 H   0  0  0  0  0  0  0  0  0  0  0  0
    9.3253    1.8919    0.0000 H   0  0  0  0  0  0  0  0  0  0  0  0
   10.9030    0.2376    0.0000 H   0  0  0  0  0  0  0  0  0  0  0  0
   10.7250    1.4215    0.0000 H   0  0  0  0  0  0  0  0  0  0  0  0
   11.4209    3.5506    0.0000 H   0  0  0  0  0  0  0  0  0  0  0  0
   11.1240    0.8524    0.0000 H   0  0  0  0  0  0  0  0  0  0  0  0
   11.9995    0.8050    0.0000 H   0  0  0  0  0  0  0  0  0  0  0  0
   12.0470    1.6805    0.0000 H   0  0  0  0  0  0  0  0  0  0  0  0
   11.0219    4.1197    0.0000 H   0  0  0  0  0  0  0  0  0  0  0  0
   10.1464    4.1671    0.0000 H   0  0  0  0  0  0  0  0  0  0  0  0
   10.0990    3.2915    0.0000 H   0  0  0  0  0  0  0  0  0  0  0  0
   12.3347    2.5608    0.0000 H   0  0  0  0  0  0  0  0  0  0  0  0
   12.8135    3.2954    0.0000 H   0  0  0  0  0  0  0  0  0  0  0  0
   12.0790    3.7742    0.0000 H   0  0  0  0  0  0  0  0  0  0  0  0
 22  1  1  6  0  0  0
  1 67  1  0  0  0  0
  2 23  2  0  0  0  0
  3  4  1  0  0  0  0
  3  8  1  0  0  0  0
  3  9  1  0  0  0  0
  3 17  1  1  0  0  0
  4  5  1  0  0  0  0
  4 11  1  0  0  0  0
  4 31  1  0  0  0  0
  5  6  1  0  0  0  0
  5 13  1  0  0  0  0
  5 32  1  1  0  0  0
  6  7  1  0  0  0  0
  6 10  1  0  0  0  0
  6 33  1  6  0  0  0
  7 12  1  0  0  0  0
  7 18  1  0  0  0  0
  7 19  1  1  0  0  0
  8 14  1  0  0  0  0
  8 16  1  0  0  0  0
  8 34  1  6  0  0  0
  9 10  1  0  0  0  0
  9 35  1  0  0  0  0
  9 36  1  0  0  0  0
 10 37  1  0  0  0  0
 10 38  1  0  0  0  0
 11 14  1  0  0  0  0
 11 39  1  0  0  0  0
 11 40  1  0  0  0  0
 12 15  1  0  0  0  0
 12 20  1  0  0  0  0
 12 41  1  6  0  0  0
 13 15  1  0  0  0  0
 13 42  1  0  0  0  0
 13 43  1  0  0  0  0
 14 44  1  0  0  0  0
 14 45  1  0  0  0  0
 15 46  1  0  0  0  0
 15 47  1  0  0  0  0
 16 22  1  0  0  0  0
 16 24  1  6  0  0  0
 16 48  1  0  0  0  0
 17 49  1  0  0  0  0
 17 50  1  0  0  0  0
 17 51  1  0  0  0  0
 18 21  1  0  0  0  0
 18 52  1  0  0  0  0
 18 53  1  0  0  0  0
 19 54  1  0  0  0  0
 19 55  1  0  0  0  0
 19 56  1  0  0  0  0
 20 23  1  0  0  0  0
 20 57  1  0  0  0  0
 20 58  1  0  0  0  0
 21 23  1  0  0  0  0
 21 59  1  0  0  0  0
 21 60  1  0  0  0  0
 22 25  1  0  0  0  0
 22 61  1  0  0  0  0
 24 62  1  0  0  0  0
 24 63  1  0  0  0  0
 24 64  1  0  0  0  0
 25 26  1  0  0  0  0
 25 65  1  0  0  0  0
 25 66  1  0  0  0  0
 26 27  1  0  0  0  0
 26 28  1  6  0  0  0
 26 68  1  0  0  0  0
 27 29  1  0  0  0  0
 27 30  1  0  0  0  0
 27 69  1  0  0  0  0
 28 70  1  0  0  0  0
 28 71  1  0  0  0  0
 28 72  1  0  0  0  0
 29 76  1  0  0  0  0
 29 77  1  0  0  0  0
 29 78  1  0  0  0  0
 30 73  1  0  0  0  0
 30 74  1  0  0  0  0
 30 75  1  0  0  0  0
M  END
> <PUBCHEM_COMPOUND_CID>
23724589

> <PUBCHEM_COMPOUND_CANONICALIZED>
1

> <PUBCHEM_CACTVS_COMPLEXITY>
641

> <PUBCHEM_CACTVS_HBOND_ACCEPTOR>
2

> <PUBCHEM_CACTVS_HBOND_DONOR>
1

> <PUBCHEM_CACTVS_ROTATABLE_BOND>
5

> <PUBCHEM_CACTVS_SUBSKEYS>
AAADcfB4MAAAAAAAAAAAAAAAAAAAAYAAAAAwYMAAAAAAAGDAAAAAGgAACAAADxSggAICAAAAAgAIAIAQAAAAAAAAAAAAAAEAAAAAEBIAAAAAQAAEAAAAAAGIyPCPgAAAAAAAAACAAAQAACAAAQAACAAAAA==

> <PUBCHEM_IUPAC_OPENEYE_NAME>
(5S,8R,9S,10S,13S,17R)-17-[(1S,2S,4R)-2-hydroxy-1,4,5-trimethyl-hexyl]-10,13-dimethyl-1,2,4,5,6,7,8,9,11,12,14,15,16,17-tetradecahydrocyclopenta[a]phenanthren-3-one

> <PUBCHEM_IUPAC_CAS_NAME>
(5S,8R,9S,10S,13S,17R)-17-[(2S,3S,5R)-3-hydroxy-5,6-dimethylheptan-2-yl]-10,13-dimethyl-1,2,4,5,6,7,8,9,11,12,14,15,16,17-tetradecahydrocyclopenta[a]phenanthren-3-one

> <PUBCHEM_IUPAC_NAME>
(5S,8R,9S,10S,13S,17R)-17-[(2S,3S,5R)-3-hydroxy-5,6-dimethylheptan-2-yl]-10,13-dimethyl-1,2,4,5,6,7,8,9,11,12,14,15,16,17-tetradecahydrocyclopenta[a]phenanthren-3-one

> <PUBCHEM_IUPAC_SYSTEMATIC_NAME>
(5S,8R,9S,10S,13S,17R)-17-[(2S,3S,5R)-5,6-dimethyl-3-oxidanyl-heptan-2-yl]-10,13-dimethyl-1,2,4,5,6,7,8,9,11,12,14,15,16,17-tetradecahydrocyclopenta[a]phenanthren-3-one

> <PUBCHEM_IUPAC_TRADITIONAL_NAME>
(5S,8R,9S,10S,13S,17R)-17-[(1S,2S,4R)-2-hydroxy-1,4,5-trimethyl-hexyl]-10,13-dimethyl-1,2,4,5,6,7,8,9,11,12,14,15,16,17-tetradecahydrocyclopenta[a]phenanthren-3-one

> <PUBCHEM_IUPAC_INCHI>
InChI=1S/C28H48O2/c1-17(2)18(3)15-26(30)19(4)23-9-10-24-22-8-7-20-16-21(29)11-13-27(20,5)25(22)12-14-28(23,24)6/h17-20,22-26,30H,7-16H2,1-6H3/t18-,19+,20+,22+,23-,24?,25+,26+,27+,28-/m1/s1

> <PUBCHEM_IUPAC_INCHIKEY>
XGIZPVUTLMXXTK-VUBQVMJGSA-N

> <PUBCHEM_XLOGP3_AA>
7.9

> <PUBCHEM_EXACT_MASS>
416.365431

> <PUBCHEM_MOLECULAR_FORMULA>
C28H48O2

> <PUBCHEM_MOLECULAR_WEIGHT>
416.67952

> <PUBCHEM_OPENEYE_CAN_SMILES>
CC(C)C(C)CC(C(C)C1CCC2C1(CCC3C2CCC4C3(CCC(=O)C4)C)C)O

> <PUBCHEM_OPENEYE_ISO_SMILES>
C[C@H](C[C@@H]([C@@H](C)[C@H]1CCC2[C@@]1(CC[C@H]3[C@H]2CC[C@@H]4[C@@]3(CCC(=O)C4)C)C)O)C(C)C

> <PUBCHEM_CACTVS_TPSA>
37.3

> <PUBCHEM_MONOISOTOPIC_WEIGHT>
416.365431

> <PUBCHEM_TOTAL_CHARGE>
0

> <PUBCHEM_HEAVY_ATOM_COUNT>
30

> <PUBCHEM_ATOM_DEF_STEREO_COUNT>
9

> <PUBCHEM_ATOM_UDEF_STEREO_COUNT>
1

> <PUBCHEM_BOND_DEF_STEREO_COUNT>
0

> <PUBCHEM_BOND_UDEF_STEREO_COUNT>
0

> <PUBCHEM_ISOTOPIC_ATOM_COUNT>
0

> <PUBCHEM_COMPONENT_COUNT>
1

> <PUBCHEM_CACTVS_TAUTO_COUNT>
3

> <PUBCHEM_COORDINATE_TYPE>
1
5
255

> <PUBCHEM_BONDANNOTATIONS>
22  1  6
12  41  6
16  24  6
26  28  6
3  17  5
4  11  3
5  32  5
6  33  6
7  19  5
8  34  6

$$$$

