27020
  -OEChem-07051213143D

 37 41  0     0  0  0  0  0  0999 V2000
    2.2199   -4.1359   -0.7277 Br  0  0  0  0  0  0  0  0  0  0  0  0
   -2.2203   -4.1368   -0.7245 Br  0  0  0  0  0  0  0  0  0  0  0  0
    5.3534    0.3798    0.8546 Br  0  0  0  0  0  0  0  0  0  0  0  0
   -5.3537    0.3811    0.8511 Br  0  0  0  0  0  0  0  0  0  0  0  0
   -0.0002    1.3801    1.6304 O   0  0  0  0  0  0  0  0  0  0  0  0
   -0.0002   -2.1637   -0.3826 O   0  0  0  0  0  0  0  0  0  0  0  0
   -0.0020    3.5731    2.3714 O   0  0  0  0  0  0  0  0  0  0  0  0
    4.7128   -2.5128   -0.0229 O   0  0  0  0  0  0  0  0  0  0  0  0
   -4.7136   -2.5116   -0.0232 O   0  0  0  0  0  0  0  0  0  0  0  0
    0.0000    0.6630    0.3551 C   0  0  0  0  0  0  0  0  0  0  0  0
    0.0004    1.7921   -0.6245 C   0  0  0  0  0  0  0  0  0  0  0  0
    1.2587   -0.1791    0.2865 C   0  0  0  0  0  0  0  0  0  0  0  0
   -1.2588   -0.1788    0.2860 C   0  0  0  0  0  0  0  0  0  0  0  0
    0.0004    2.9989    0.0515 C   0  0  0  0  0  0  0  0  0  0  0  0
    1.1806   -1.5241   -0.0925 C   0  0  0  0  0  0  0  0  0  0  0  0
   -1.1808   -1.5239   -0.0924 C   0  0  0  0  0  0  0  0  0  0  0  0
   -0.0002    2.7439    1.4839 C   0  0  0  0  0  0  0  0  0  0  0  0
    0.0008    1.7697   -2.0104 C   0  0  0  0  0  0  0  0  0  0  0  0
    2.5260    0.3624    0.5655 C   0  0  0  0  0  0  0  0  0  0  0  0
   -2.5262    0.3631    0.5646 C   0  0  0  0  0  0  0  0  0  0  0  0
    0.0011    4.2199   -0.5975 C   0  0  0  0  0  0  0  0  0  0  0  0
    2.3358   -2.3056   -0.2010 C   0  0  0  0  0  0  0  0  0  0  0  0
   -2.3362   -2.3055   -0.2002 C   0  0  0  0  0  0  0  0  0  0  0  0
    3.6781   -0.4193    0.4642 C   0  0  0  0  0  0  0  0  0  0  0  0
   -3.6784   -0.4187    0.4636 C   0  0  0  0  0  0  0  0  0  0  0  0
    0.0014    2.9887   -2.6949 C   0  0  0  0  0  0  0  0  0  0  0  0
    3.5830   -1.7529    0.0790 C   0  0  0  0  0  0  0  0  0  0  0  0
   -3.5834   -1.7526    0.0793 C   0  0  0  0  0  0  0  0  0  0  0  0
    0.0017    4.2056   -1.9925 C   0  0  0  0  0  0  0  0  0  0  0  0
    2.6113    1.4066    0.8588 H   0  0  0  0  0  0  0  0  0  0  0  0
   -2.6114    1.4075    0.8570 H   0  0  0  0  0  0  0  0  0  0  0  0
    0.0007    0.8333   -2.5581 H   0  0  0  0  0  0  0  0  0  0  0  0
    0.0013    5.1568   -0.0523 H   0  0  0  0  0  0  0  0  0  0  0  0
    0.0018    2.9965   -3.7815 H   0  0  0  0  0  0  0  0  0  0  0  0
    0.0022    5.1427   -2.5425 H   0  0  0  0  0  0  0  0  0  0  0  0
    4.4575   -3.4093   -0.3010 H   0  0  0  0  0  0  0  0  0  0  0  0
   -5.4796   -1.9584    0.2083 H   0  0  0  0  0  0  0  0  0  0  0  0
  1 22  1  0  0  0  0
  2 23  1  0  0  0  0
  3 24  1  0  0  0  0
  4 25  1  0  0  0  0
  5 10  1  0  0  0  0
  5 17  1  0  0  0  0
  6 15  1  0  0  0  0
  6 16  1  0  0  0  0
  7 17  2  0  0  0  0
  8 27  1  0  0  0  0
  8 36  1  0  0  0  0
  9 28  1  0  0  0  0
  9 37  1  0  0  0  0
 10 11  1  0  0  0  0
 10 12  1  0  0  0  0
 10 13  1  0  0  0  0
 11 14  1  0  0  0  0
 11 18  2  0  0  0  0
 12 15  1  0  0  0  0
 12 19  2  0  0  0  0
 13 16  1  0  0  0  0
 13 20  2  0  0  0  0
 14 17  1  0  0  0  0
 14 21  2  0  0  0  0
 15 22  2  0  0  0  0
 16 23  2  0  0  0  0
 18 26  1  0  0  0  0
 18 32  1  0  0  0  0
 19 24  1  0  0  0  0
 19 30  1  0  0  0  0
 20 25  1  0  0  0  0
 20 31  1  0  0  0  0
 21 29  1  0  0  0  0
 21 33  1  0  0  0  0
 22 27  1  0  0  0  0
 23 28  1  0  0  0  0
 24 27  2  0  0  0  0
 25 28  2  0  0  0  0
 26 29  2  0  0  0  0
 26 34  1  0  0  0  0
 29 35  1  0  0  0  0
M  END
> <PUBCHEM_COMPOUND_CID>
27020

> <PUBCHEM_CONFORMER_RMSD>
0.6

> <PUBCHEM_CONFORMER_DIVERSEORDER>
1

> <PUBCHEM_MMFF94_PARTIAL_CHARGES>
37
1 -0.11
10 0.71
11 -0.14
12 -0.14
13 -0.14
14 0.09
15 0.08
16 0.08
17 0.63
18 -0.15
19 -0.15
2 -0.11
20 -0.15
21 -0.15
22 0.11
23 0.11
24 0.11
25 0.11
26 -0.15
27 0.08
28 0.08
29 -0.15
3 -0.11
30 0.15
31 0.15
32 0.15
33 0.15
34 0.15
35 0.15
36 0.45
37 0.45
4 -0.11
5 -0.43
6 -0.17
7 -0.57
8 -0.53
9 -0.53

> <PUBCHEM_EFFECTIVE_ROTOR_COUNT>
0.4

> <PUBCHEM_PHARMACOPHORE_FEATURES>
13
1 1 hydrophobe
1 2 hydrophobe
1 3 hydrophobe
1 4 hydrophobe
1 6 acceptor
1 7 acceptor
1 8 donor
1 9 donor
5 5 10 11 14 17 rings
6 11 14 18 21 26 29 rings
6 12 15 19 22 24 27 rings
6 13 16 20 23 25 28 rings
6 6 10 12 13 15 16 rings

> <PUBCHEM_HEAVY_ATOM_COUNT>
29

> <PUBCHEM_ATOM_DEF_STEREO_COUNT>
0

> <PUBCHEM_ATOM_UDEF_STEREO_COUNT>
0

> <PUBCHEM_BOND_DEF_STEREO_COUNT>
0

> <PUBCHEM_BOND_UDEF_STEREO_COUNT>
0

> <PUBCHEM_ISOTOPIC_ATOM_COUNT>
0

> <PUBCHEM_COMPONENT_COUNT>
1

> <PUBCHEM_CACTVS_TAUTO_COUNT>
5

> <PUBCHEM_CONFORMER_ID>
0000698C00000001

> <PUBCHEM_MMFF94_ENERGY>
85.5255

> <PUBCHEM_FEATURE_SELFOVERLAP>
66.113

> <PUBCHEM_SHAPE_FINGERPRINT>
10162869 55 18334288787693673217
10165383 225 16751524468082659492
10940486 97 18337670789721405959
1100329 8 18190460463195980538
12035759 4 18126252364668776252
12422481 6 18054256266020721320
12788726 201 17915461807726024210
13004483 165 18271250529011055634
13140716 1 18334863801129482466
133893 2 17698449819035626563
13681431 1 18129085754208889804
14223421 5 18192713560622870026
14790565 3 18048313349911532016
14955137 171 18195221378614289882
15131766 46 15070633663735136786
15664445 248 18266998623436792252
1601671 61 18410572851290634531
17980427 23 18040715840680229967
1813 80 18131069320413979856
18336668 15 18339644417082184905
20028762 73 14946727116741371134
20600515 1 18409158905123384719
20642791 178 18053094034541584445
20739085 24 18340477881340095618
21033648 29 18260841431567987673
21285901 2 18267871759980860327
22907989 373 18055912345211178556
23366157 5 17911528588308924195
23419403 2 18120121435881680612
23559900 14 18051703140049361531
3178227 256 18339908373979487811
3380486 145 18413112757716439255
350125 39 18192426592604391058
4409770 3 17983314886415869671
46194498 28 17843980143581526911
469060 322 17488165192219080792
6443956 14 18336544923989399323
7399639 24 18337965566696972842
81228 2 18055616550565602098
9981440 41 17106564276336961234

> <PUBCHEM_SHAPE_MULTIPOLES>
591.23
7.61
6.09
1.63
0.01
1.4
0.51
-6.16
-2.7
0
2.57
0
2.25
0

> <PUBCHEM_SHAPE_SELFOVERLAP>
1291.522

> <PUBCHEM_SHAPE_VOLUME>
334.7

> <PUBCHEM_COORDINATE_TYPE>
2
5
10

$$$$

