11954067
  -OEChem-07051213063D

 50 50  0     1  0  0  0  0  0999 V2000
    3.1291    3.6827    0.2281 Br  0  0  0  0  0  0  0  0  0  0  0  0
    0.8592    0.8218    0.2787 S   0  0  0  0  0  0  0  0  0  0  0  0
   -0.7957    3.2590   -2.3049 O   0  0  0  0  0  0  0  0  0  0  0  0
   -1.8317   -2.7036   -1.6357 O   0  0  0  0  0  0  0  0  0  0  0  0
    2.0609   -2.6693    1.1168 O   0  0  0  0  0  0  0  0  0  0  0  0
   -4.5313   -1.2629   -1.2309 O   0  0  0  0  0  0  0  0  0  0  0  0
   -5.8245   -0.6828    0.5390 O   0  0  0  0  0  0  0  0  0  0  0  0
    4.3579   -0.0230    0.4262 O   0  0  0  0  0  0  0  0  0  0  0  0
    6.2882   -1.1519    0.8105 O   0  0  0  0  0  0  0  0  0  0  0  0
   -0.3717   -2.1651    0.0888 N   0  0  0  0  0  0  0  0  0  0  0  0
    3.1689   -1.9951   -0.8067 N   0  0  0  0  0  0  0  0  0  0  0  0
   -3.6674    0.6410    1.6306 N   0  0  0  0  0  0  0  0  0  0  0  0
    0.7568   -1.8000   -0.7359 C   0  0  1  0  0  0  0  0  0  0  0  0
    0.7090    2.3731   -0.6346 C   0  0  1  0  0  0  0  0  0  0  0  0
    0.7331   -0.3223   -1.1346 C   0  0  0  0  0  0  0  0  0  0  0  0
   -0.7734    2.5961   -1.0361 C   0  0  1  0  0  0  0  0  0  0  0  0
   -2.5908   -2.8977    0.6553 C   0  0  0  0  0  0  0  0  0  0  0  0
   -2.8920   -1.6794    1.5306 C   0  0  0  0  0  0  0  0  0  0  0  0
    1.2673    3.4926    0.2211 C   0  0  0  0  0  0  0  0  0  0  0  0
   -1.5823   -2.5903   -0.4386 C   0  0  0  0  0  0  0  0  0  0  0  0
    2.0434   -2.2150   -0.0254 C   0  0  0  0  0  0  0  0  0  0  0  0
   -3.4028   -0.4796    0.7250 C   0  0  1  0  0  0  0  0  0  0  0  0
   -1.5612    3.4257   -0.0570 C   0  0  0  0  0  0  0  0  0  0  0  0
    0.4715    4.3362    0.8984 C   0  0  0  0  0  0  0  0  0  0  0  0
   -0.9646    4.2093    0.8515 C   0  0  0  0  0  0  0  0  0  0  0  0
   -4.7154   -0.7986    0.0325 C   0  0  0  0  0  0  0  0  0  0  0  0
    4.5065   -2.2849   -0.3452 C   0  0  0  0  0  0  0  0  0  0  0  0
    5.1527   -1.1159    0.3525 C   0  0  0  0  0  0  0  0  0  0  0  0
    0.7006   -2.3987   -1.6549 H   0  0  0  0  0  0  0  0  0  0  0  0
    1.3136    2.3022   -1.5480 H   0  0  0  0  0  0  0  0  0  0  0  0
   -0.1991   -0.1266   -1.6728 H   0  0  0  0  0  0  0  0  0  0  0  0
    1.5555   -0.0972   -1.8209 H   0  0  0  0  0  0  0  0  0  0  0  0
   -1.3032    1.6507   -1.1855 H   0  0  0  0  0  0  0  0  0  0  0  0
   -0.2538   -2.1185    1.0963 H   0  0  0  0  0  0  0  0  0  0  0  0
   -2.1832   -3.7037    1.2775 H   0  0  0  0  0  0  0  0  0  0  0  0
   -3.5030   -3.2895    0.1931 H   0  0  0  0  0  0  0  0  0  0  0  0
   -1.9999   -1.3885    2.0986 H   0  0  0  0  0  0  0  0  0  0  0  0
   -3.6440   -1.9787    2.2732 H   0  0  0  0  0  0  0  0  0  0  0  0
   -2.6725   -0.1462   -0.0190 H   0  0  0  0  0  0  0  0  0  0  0  0
   -2.6453    3.3843   -0.1030 H   0  0  0  0  0  0  0  0  0  0  0  0
    0.8750    5.1431    1.5015 H   0  0  0  0  0  0  0  0  0  0  0  0
   -1.5514    4.8042    1.5425 H   0  0  0  0  0  0  0  0  0  0  0  0
    3.0656   -1.6343   -1.7500 H   0  0  0  0  0  0  0  0  0  0  0  0
   -1.7262    3.3735   -2.5641 H   0  0  0  0  0  0  0  0  0  0  0  0
   -2.8085    0.8964    2.1167 H   0  0  0  0  0  0  0  0  0  0  0  0
   -3.9391    1.4610    1.0890 H   0  0  0  0  0  0  0  0  0  0  0  0
    5.1040   -2.5397   -1.2249 H   0  0  0  0  0  0  0  0  0  0  0  0
    4.4750   -3.1309    0.3477 H   0  0  0  0  0  0  0  0  0  0  0  0
   -5.3821   -1.4800   -1.6681 H   0  0  0  0  0  0  0  0  0  0  0  0
    4.7999    0.7231    0.8847 H   0  0  0  0  0  0  0  0  0  0  0  0
  1 19  1  0  0  0  0
  2 14  1  0  0  0  0
  2 15  1  0  0  0  0
  3 16  1  0  0  0  0
  3 44  1  0  0  0  0
  4 20  2  0  0  0  0
  5 21  2  0  0  0  0
  6 26  1  0  0  0  0
  6 49  1  0  0  0  0
  7 26  2  0  0  0  0
  8 28  1  0  0  0  0
  8 50  1  0  0  0  0
  9 28  2  0  0  0  0
 10 13  1  0  0  0  0
 10 20  1  0  0  0  0
 10 34  1  0  0  0  0
 11 21  1  0  0  0  0
 11 27  1  0  0  0  0
 11 43  1  0  0  0  0
 12 22  1  0  0  0  0
 12 45  1  0  0  0  0
 12 46  1  0  0  0  0
 13 15  1  0  0  0  0
 13 21  1  0  0  0  0
 13 29  1  0  0  0  0
 14 16  1  0  0  0  0
 14 19  1  0  0  0  0
 14 30  1  0  0  0  0
 15 31  1  0  0  0  0
 15 32  1  0  0  0  0
 16 23  1  0  0  0  0
 16 33  1  0  0  0  0
 17 18  1  0  0  0  0
 17 20  1  0  0  0  0
 17 35  1  0  0  0  0
 17 36  1  0  0  0  0
 18 22  1  0  0  0  0
 18 37  1  0  0  0  0
 18 38  1  0  0  0  0
 19 24  2  0  0  0  0
 22 26  1  0  0  0  0
 22 39  1  0  0  0  0
 23 25  2  0  0  0  0
 23 40  1  0  0  0  0
 24 25  1  0  0  0  0
 24 41  1  0  0  0  0
 25 42  1  0  0  0  0
 27 28  1  0  0  0  0
 27 47  1  0  0  0  0
 27 48  1  0  0  0  0
M  END
> <PUBCHEM_COMPOUND_CID>
11954067

> <PUBCHEM_CONFORMER_RMSD>
1.2

> <PUBCHEM_CONFORMER_DIVERSEORDER>
1
125
127
143
148
142
54
61
82
132
5
114
85
45
153
80
119
105
33
13
15
137
46
49
12
124
44
118
27
26
95
23
14
156
81
65
159
68
116
98
117
121
42
56
66
43
37
104
115
91
62
140
10
141
36
20
150
57
32
158
135
64
29
34
87
48
99
131
73
94
128
83
6
155
157
75
79
40
126
47
11
92
53
130
110
146
100
160
35
52
25
21
78
151
22
3
19
145
112
51
70
154
129
39
77
103
111
31
55
113
97
72
134
58
144
120
133
41
38
123
136
67
30
8
102
107
152
17
50
69
63
149
74
60
89
71
147
28
138
108
90
106
76
84
93
139
59
96
16
86
109
101
2
88
18
122
9
7
24
4

> <PUBCHEM_MMFF94_PARTIAL_CHARGES>
37
1 -0.11
10 -0.73
11 -0.73
12 -0.99
13 0.36
14 0.37
15 0.23
16 0.42
17 0.06
19 -0.03
2 -0.46
20 0.57
21 0.57
22 0.33
23 -0.29
24 -0.15
25 -0.15
26 0.66
27 0.36
28 0.66
3 -0.68
34 0.37
4 -0.57
40 0.15
41 0.15
42 0.15
43 0.37
44 0.4
45 0.36
46 0.36
49 0.5
5 -0.57
50 0.5
6 -0.65
7 -0.57
8 -0.65
9 -0.57

> <PUBCHEM_EFFECTIVE_ROTOR_COUNT>
13.4

> <PUBCHEM_PHARMACOPHORE_FEATURES>
16
1 1 hydrophobe
1 10 donor
1 11 donor
1 12 cation
1 12 donor
1 3 acceptor
1 3 donor
1 4 acceptor
1 5 acceptor
1 6 acceptor
1 7 acceptor
1 8 acceptor
1 9 acceptor
3 6 7 26 anion
3 8 9 28 anion
6 14 16 19 23 24 25 rings

> <PUBCHEM_HEAVY_ATOM_COUNT>
28

> <PUBCHEM_ATOM_DEF_STEREO_COUNT>
2

> <PUBCHEM_ATOM_UDEF_STEREO_COUNT>
2

> <PUBCHEM_BOND_DEF_STEREO_COUNT>
0

> <PUBCHEM_BOND_UDEF_STEREO_COUNT>
0

> <PUBCHEM_ISOTOPIC_ATOM_COUNT>
0

> <PUBCHEM_COMPONENT_COUNT>
1

> <PUBCHEM_CACTVS_TAUTO_COUNT>
4

> <PUBCHEM_CONFORMER_ID>
00B6679300000001

> <PUBCHEM_MMFF94_ENERGY>
41.9096

> <PUBCHEM_FEATURE_SELFOVERLAP>
81.309

> <PUBCHEM_SHAPE_FINGERPRINT>
10006869 2 18051703427295270643
1100329 8 18338516339684997370
11370993 70 17615125487036839825
11646440 116 18271229591272718187
12156800 1 17841746141653451825
12422481 6 18123213220336176832
12788726 201 18271251645908670946
13140716 1 18339640027852357578
150020 26 17910382897345503049
15420108 30 17825108099921066398
17980427 23 17967524684440170827
20600515 1 18114727296297101287
20739085 24 18055918688946783716
2132832 1 17898023330219747511
21344244 246 18120386354740446015
23845131 108 17401767922367052072
392239 28 18338232799161261984
469060 322 17059202816869844694
6004065 56 18335991917597593847
653340 110 18120651598233644960
69474 34 18410857637967095006
9777508 108 17832422373391501328

> <PUBCHEM_SHAPE_MULTIPOLES>
529.99
9.45
6.45
1.36
0.97
6.55
-0.31
-7.64
2.39
2.85
0.13
-0.76
0.24
-0.02

> <PUBCHEM_SHAPE_SELFOVERLAP>
1042.889

> <PUBCHEM_SHAPE_VOLUME>
318.2

> <PUBCHEM_COORDINATE_TYPE>
2
5
10

$$$$

