441397
  -OEChem-07051212542D

 59 61  0     1  0  0  0  0  0999 V2000
    9.2365    3.0674    0.0000 S   0  0  0  0  0  0  0  0  0  0  0  0
    6.5715    1.0456    0.0000 O   0  0  0  0  0  0  0  0  0  0  0  0
    8.8764   -0.2449    0.0000 O   0  0  0  0  0  0  0  0  0  0  0  0
   10.5236    0.2904    0.0000 O   0  0  0  0  0  0  0  0  0  0  0  0
    5.3442    2.2488    0.0000 O   0  0  0  0  0  0  0  0  0  0  0  0
    8.5162   -1.9391    0.0000 O   0  0  0  0  0  0  0  0  0  0  0  0
    8.1561   -3.6333    0.0000 O   0  0  0  0  0  0  0  0  0  0  0  0
    9.8034   -3.0980    0.0000 O   0  0  0  0  0  0  0  0  0  0  0  0
    8.2854    1.7584    0.0000 N   0  0  0  0  0  0  0  0  0  0  0  0
    6.5715    3.4710    0.0000 N   0  0  0  0  0  0  0  0  0  0  0  0
    5.1602    4.8882    0.0000 N   0  0  0  0  0  0  0  0  0  0  0  0
    8.2854    2.7584    0.0000 C   0  0  1  0  0  0  0  0  0  0  0  0
    9.8242    2.2584    0.0000 C   0  0  0  0  0  0  0  0  0  0  0  0
    9.2365    1.4493    0.0000 C   0  0  2  0  0  0  0  0  0  0  0  0
    7.2771    2.7625    0.0000 C   0  0  1  0  0  0  0  0  0  0  0  0
    7.2771    1.7542    0.0000 C   0  0  0  0  0  0  0  0  0  0  0  0
   10.6333    2.8461    0.0000 C   0  0  0  0  0  0  0  0  0  0  0  0
   10.6333    1.6706    0.0000 C   0  0  0  0  0  0  0  0  0  0  0  0
    9.5455    0.4983    0.0000 C   0  0  0  0  0  0  0  0  0  0  0  0
    5.6050    3.2142    0.0000 C   0  0  0  0  0  0  0  0  0  0  0  0
    4.8994    3.9228    0.0000 C   0  0  1  0  0  0  0  0  0  0  0  0
    9.1854   -1.1959    0.0000 C   0  0  3  0  0  0  0  0  0  0  0  0
    3.9329    3.6659    0.0000 C   0  0  0  0  0  0  0  0  0  0  0  0
   10.1635   -1.4038    0.0000 C   0  0  0  0  0  0  0  0  0  0  0  0
    3.2273    4.3745    0.0000 C   0  0  0  0  0  0  0  0  0  0  0  0
    3.6721    2.7005    0.0000 C   0  0  0  0  0  0  0  0  0  0  0  0
    2.2608    4.1177    0.0000 C   0  0  0  0  0  0  0  0  0  0  0  0
    2.7056    2.4437    0.0000 C   0  0  0  0  0  0  0  0  0  0  0  0
    8.8252   -2.8901    0.0000 C   0  0  0  0  0  0  0  0  0  0  0  0
    2.0000    3.1523    0.0000 C   0  0  0  0  0  0  0  0  0  0  0  0
    8.4651   -4.5843    0.0000 C   0  0  0  0  0  0  0  0  0  0  0  0
    7.7960   -5.3275    0.0000 C   0  0  0  0  0  0  0  0  0  0  0  0
    8.1542    3.5982    0.0000 H   0  0  0  0  0  0  0  0  0  0  0  0
    8.7981    1.0109    0.0000 H   0  0  0  0  0  0  0  0  0  0  0  0
    6.7041    2.5258    0.0000 H   0  0  0  0  0  0  0  0  0  0  0  0
   10.9977    2.3445    0.0000 H   0  0  0  0  0  0  0  0  0  0  0  0
   11.1349    3.2106    0.0000 H   0  0  0  0  0  0  0  0  0  0  0  0
   10.2688    3.3477    0.0000 H   0  0  0  0  0  0  0  0  0  0  0  0
   10.2688    1.1690    0.0000 H   0  0  0  0  0  0  0  0  0  0  0  0
   11.1349    1.3061    0.0000 H   0  0  0  0  0  0  0  0  0  0  0  0
   10.9977    2.1721    0.0000 H   0  0  0  0  0  0  0  0  0  0  0  0
    6.7332    4.0696    0.0000 H   0  0  0  0  0  0  0  0  0  0  0  0
    4.4619    4.3621    0.0000 H   0  0  0  0  0  0  0  0  0  0  0  0
    8.3539   -1.0192    0.0000 H   0  0  0  0  0  0  0  0  0  0  0  0
    4.7227    5.3275    0.0000 H   0  0  0  0  0  0  0  0  0  0  0  0
    5.7594    5.0474    0.0000 H   0  0  0  0  0  0  0  0  0  0  0  0
   10.0346   -2.0103    0.0000 H   0  0  0  0  0  0  0  0  0  0  0  0
   10.7700   -1.5327    0.0000 H   0  0  0  0  0  0  0  0  0  0  0  0
   10.2924   -0.7974    0.0000 H   0  0  0  0  0  0  0  0  0  0  0  0
    3.3890    4.9730    0.0000 H   0  0  0  0  0  0  0  0  0  0  0  0
    4.1096    2.2612    0.0000 H   0  0  0  0  0  0  0  0  0  0  0  0
    1.8233    4.5570    0.0000 H   0  0  0  0  0  0  0  0  0  0  0  0
    2.5440    1.8452    0.0000 H   0  0  0  0  0  0  0  0  0  0  0  0
    1.4008    2.9930    0.0000 H   0  0  0  0  0  0  0  0  0  0  0  0
    8.8468   -5.0729    0.0000 H   0  0  0  0  0  0  0  0  0  0  0  0
    9.0126   -4.2933    0.0000 H   0  0  0  0  0  0  0  0  0  0  0  0
    7.3353   -4.9126    0.0000 H   0  0  0  0  0  0  0  0  0  0  0  0
    7.3812   -5.7882    0.0000 H   0  0  0  0  0  0  0  0  0  0  0  0
    8.2568   -5.7423    0.0000 H   0  0  0  0  0  0  0  0  0  0  0  0
  1 12  1  0  0  0  0
  1 13  1  0  0  0  0
  2 16  2  0  0  0  0
  3 19  1  0  0  0  0
  3 22  1  0  0  0  0
  4 19  2  0  0  0  0
  5 20  2  0  0  0  0
  6 22  1  0  0  0  0
  6 29  1  0  0  0  0
  7 29  1  0  0  0  0
  7 31  1  0  0  0  0
  8 29  2  0  0  0  0
  9 12  1  0  0  0  0
  9 14  1  0  0  0  0
  9 16  1  0  0  0  0
 15 10  1  1  0  0  0
 10 20  1  0  0  0  0
 10 42  1  0  0  0  0
 21 11  1  1  0  0  0
 11 45  1  0  0  0  0
 11 46  1  0  0  0  0
 12 15  1  0  0  0  0
 12 33  1  6  0  0  0
 13 14  1  0  0  0  0
 13 17  1  0  0  0  0
 13 18  1  0  0  0  0
 14 19  1  6  0  0  0
 14 34  1  0  0  0  0
 15 16  1  0  0  0  0
 15 35  1  0  0  0  0
 17 36  1  0  0  0  0
 17 37  1  0  0  0  0
 17 38  1  0  0  0  0
 18 39  1  0  0  0  0
 18 40  1  0  0  0  0
 18 41  1  0  0  0  0
 20 21  1  0  0  0  0
 21 23  1  0  0  0  0
 21 43  1  0  0  0  0
 22 24  1  0  0  0  0
 22 44  1  0  0  0  0
 23 25  2  0  0  0  0
 23 26  1  0  0  0  0
 24 47  1  0  0  0  0
 24 48  1  0  0  0  0
 24 49  1  0  0  0  0
 25 27  1  0  0  0  0
 25 50  1  0  0  0  0
 26 28  2  0  0  0  0
 26 51  1  0  0  0  0
 27 30  2  0  0  0  0
 27 52  1  0  0  0  0
 28 30  1  0  0  0  0
 28 53  1  0  0  0  0
 30 54  1  0  0  0  0
 31 32  1  0  0  0  0
 31 55  1  0  0  0  0
 31 56  1  0  0  0  0
 32 57  1  0  0  0  0
 32 58  1  0  0  0  0
 32 59  1  0  0  0  0
M  END
> <PUBCHEM_COMPOUND_CID>
441397

> <PUBCHEM_COMPOUND_CANONICALIZED>
1

> <PUBCHEM_CACTVS_COMPLEXITY>
756

> <PUBCHEM_CACTVS_HBOND_ACCEPTOR>
9

> <PUBCHEM_CACTVS_HBOND_DONOR>
2

> <PUBCHEM_CACTVS_ROTATABLE_BOND>
10

> <PUBCHEM_CACTVS_SUBSKEYS>
AAADceB7OABAAAAAAAAAAAAAAABYAWAAAAAwAAAABYAAAAABAAAAHgQQAAAADCj12AeyCIPABAiIAiHSGACCAABgABAIiIGIBIgaYDqglTG3IABklgC8iAcYiICOAAAAAAAAAAAAAAAAAAAAAAAAAAAAAA==

> <PUBCHEM_IUPAC_OPENEYE_NAME>
1-ethoxycarbonyloxyethyl (2S,5R,6R)-6-[[(2R)-2-amino-2-phenyl-acetyl]amino]-3,3-dimethyl-7-oxo-4-thia-1-azabicyclo[3.2.0]heptane-2-carboxylate

> <PUBCHEM_IUPAC_CAS_NAME>
(2S,5R,6R)-6-[[(2R)-2-amino-1-oxo-2-phenylethyl]amino]-3,3-dimethyl-7-oxo-4-thia-1-azabicyclo[3.2.0]heptane-2-carboxylic acid 1-ethoxycarbonyloxyethyl ester

> <PUBCHEM_IUPAC_NAME>
1-ethoxycarbonyloxyethyl (2S,5R,6R)-6-[[(2R)-2-amino-2-phenylacetyl]amino]-3,3-dimethyl-7-oxo-4-thia-1-azabicyclo[3.2.0]heptane-2-carboxylate

> <PUBCHEM_IUPAC_SYSTEMATIC_NAME>
1-ethoxycarbonyloxyethyl (2S,5R,6R)-6-[[(2R)-2-azanyl-2-phenyl-ethanoyl]amino]-3,3-dimethyl-7-oxidanylidene-4-thia-1-azabicyclo[3.2.0]heptane-2-carboxylate

> <PUBCHEM_IUPAC_TRADITIONAL_NAME>
(2S,5R,6R)-6-[[(2R)-2-amino-2-phenyl-acetyl]amino]-7-keto-3,3-dimethyl-4-thia-1-azabicyclo[3.2.0]heptane-2-carboxylic acid 1-carbethoxyoxyethyl ester

> <PUBCHEM_IUPAC_INCHI>
InChI=1S/C21H27N3O7S/c1-5-29-20(28)31-11(2)30-19(27)15-21(3,4)32-18-14(17(26)24(15)18)23-16(25)13(22)12-9-7-6-8-10-12/h6-11,13-15,18H,5,22H2,1-4H3,(H,23,25)/t11?,13-,14-,15+,18-/m1/s1

> <PUBCHEM_IUPAC_INCHIKEY>
PFOLLRNADZZWEX-FFGRCDKISA-N

> <PUBCHEM_XLOGP3>
2.7

> <PUBCHEM_EXACT_MASS>
465.156971

> <PUBCHEM_MOLECULAR_FORMULA>
C21H27N3O7S

> <PUBCHEM_MOLECULAR_WEIGHT>
465.51998

> <PUBCHEM_OPENEYE_CAN_SMILES>
CCOC(=O)OC(C)OC(=O)C1C(SC2N1C(=O)C2NC(=O)C(C3=CC=CC=C3)N)(C)C

> <PUBCHEM_OPENEYE_ISO_SMILES>
CCOC(=O)OC(C)OC(=O)[C@H]1C(S[C@H]2N1C(=O)[C@H]2NC(=O)[C@@H](C3=CC=CC=C3)N)(C)C

> <PUBCHEM_CACTVS_TPSA>
163

> <PUBCHEM_MONOISOTOPIC_WEIGHT>
465.156971

> <PUBCHEM_TOTAL_CHARGE>
0

> <PUBCHEM_HEAVY_ATOM_COUNT>
32

> <PUBCHEM_ATOM_DEF_STEREO_COUNT>
4

> <PUBCHEM_ATOM_UDEF_STEREO_COUNT>
1

> <PUBCHEM_BOND_DEF_STEREO_COUNT>
0

> <PUBCHEM_BOND_UDEF_STEREO_COUNT>
0

> <PUBCHEM_ISOTOPIC_ATOM_COUNT>
0

> <PUBCHEM_COMPONENT_COUNT>
1

> <PUBCHEM_CACTVS_TAUTO_COUNT>
4

> <PUBCHEM_COORDINATE_TYPE>
1
5
255

> <PUBCHEM_BONDANNOTATIONS>
15  10  5
21  11  5
12  33  6
14  19  6
22  44  3
23  25  8
23  26  8
25  27  8
26  28  8
27  30  8
28  30  8

$$$$

