5359371
  -OEChem-07051212523D

 46 49  0     1  0  0  0  0  0999 V2000
    3.9010    2.5086   -0.9931 O   0  0  0  0  0  0  0  0  0  0  0  0
   -2.3724   -0.3130    0.0602 N   0  0  2  0  0  0  0  0  0  0  0  0
    0.3673   -0.9612   -0.7542 C   0  0  2  0  0  0  0  0  0  0  0  0
   -0.3960   -1.7245    0.3650 C   0  0  2  0  0  0  0  0  0  0  0  0
   -1.3670   -0.7472    1.0558 C   0  0  1  0  0  0  0  0  0  0  0  0
   -0.6929   -0.4522   -1.7691 C   0  0  0  0  0  0  0  0  0  0  0  0
    1.3033   -1.9769   -1.4654 C   0  0  0  0  0  0  0  0  0  0  0  0
    0.5500   -2.4468    1.3451 C   0  0  0  0  0  0  0  0  0  0  0  0
    1.0921    0.2715   -0.1834 C   0  0  0  0  0  0  0  0  0  0  0  0
   -0.5818    0.3833    1.7529 C   0  0  0  0  0  0  0  0  0  0  0  0
   -1.8117    0.3681   -1.1094 C   0  0  0  0  0  0  0  0  0  0  0  0
    2.2536   -2.6904   -0.5023 C   0  0  0  0  0  0  0  0  0  0  0  0
    1.4889   -3.3995    0.6102 C   0  0  0  0  0  0  0  0  0  0  0  0
    0.6157    0.9010    0.9890 C   0  0  0  0  0  0  0  0  0  0  0  0
   -3.4742    0.4480    0.6405 C   0  0  0  0  0  0  0  0  0  0  0  0
    2.1933    0.8470   -0.8436 C   0  0  0  0  0  0  0  0  0  0  0  0
    1.2736    2.0361    1.4934 C   0  0  0  0  0  0  0  0  0  0  0  0
    2.8327    1.9798   -0.3357 C   0  0  0  0  0  0  0  0  0  0  0  0
    2.3774    2.5706    0.8358 C   0  0  0  0  0  0  0  0  0  0  0  0
   -4.5491    0.6069   -0.3827 C   0  0  0  0  0  0  0  0  0  0  0  0
   -5.0037    1.7909   -0.8088 C   0  0  0  0  0  0  0  0  0  0  0  0
   -1.0005   -2.5163   -0.1063 H   0  0  0  0  0  0  0  0  0  0  0  0
   -1.9083   -1.3052    1.8319 H   0  0  0  0  0  0  0  0  0  0  0  0
   -1.1536   -1.3120   -2.2755 H   0  0  0  0  0  0  0  0  0  0  0  0
   -0.2209    0.1507   -2.5557 H   0  0  0  0  0  0  0  0  0  0  0  0
    1.8782   -1.5105   -2.2721 H   0  0  0  0  0  0  0  0  0  0  0  0
    0.6898   -2.7446   -1.9579 H   0  0  0  0  0  0  0  0  0  0  0  0
   -0.0406   -3.0147    2.0739 H   0  0  0  0  0  0  0  0  0  0  0  0
    1.1552   -1.7380    1.9200 H   0  0  0  0  0  0  0  0  0  0  0  0
   -0.2112   -0.0011    2.7131 H   0  0  0  0  0  0  0  0  0  0  0  0
   -1.2413    1.2202    2.0056 H   0  0  0  0  0  0  0  0  0  0  0  0
   -1.4438    1.3679   -0.8481 H   0  0  0  0  0  0  0  0  0  0  0  0
   -2.5662    0.5149   -1.8907 H   0  0  0  0  0  0  0  0  0  0  0  0
    2.9606   -1.9751   -0.0668 H   0  0  0  0  0  0  0  0  0  0  0  0
    2.8498   -3.4243   -1.0567 H   0  0  0  0  0  0  0  0  0  0  0  0
    0.9074   -4.2259    0.1833 H   0  0  0  0  0  0  0  0  0  0  0  0
    2.1958   -3.8428    1.3204 H   0  0  0  0  0  0  0  0  0  0  0  0
   -3.9029   -0.0966    1.4903 H   0  0  0  0  0  0  0  0  0  0  0  0
   -3.1461    1.4257    1.0114 H   0  0  0  0  0  0  0  0  0  0  0  0
    2.5606    0.4220   -1.7732 H   0  0  0  0  0  0  0  0  0  0  0  0
    0.9195    2.5127    2.4047 H   0  0  0  0  0  0  0  0  0  0  0  0
    2.8707    3.4510    1.2377 H   0  0  0  0  0  0  0  0  0  0  0  0
   -4.9993   -0.2958   -0.7894 H   0  0  0  0  0  0  0  0  0  0  0  0
    4.0821    1.9741   -1.7853 H   0  0  0  0  0  0  0  0  0  0  0  0
   -5.7945    1.8410   -1.5493 H   0  0  0  0  0  0  0  0  0  0  0  0
   -4.5986    2.7237   -0.4326 H   0  0  0  0  0  0  0  0  0  0  0  0
  1 18  1  0  0  0  0
  1 44  1  0  0  0  0
  2  5  1  0  0  0  0
  2 11  1  0  0  0  0
  2 15  1  0  0  0  0
  3  4  1  0  0  0  0
  3  6  1  0  0  0  0
  3  7  1  0  0  0  0
  3  9  1  0  0  0  0
  4  5  1  0  0  0  0
  4  8  1  0  0  0  0
  4 22  1  0  0  0  0
  5 10  1  0  0  0  0
  5 23  1  0  0  0  0
  6 11  1  0  0  0  0
  6 24  1  0  0  0  0
  6 25  1  0  0  0  0
  7 12  1  0  0  0  0
  7 26  1  0  0  0  0
  7 27  1  0  0  0  0
  8 13  1  0  0  0  0
  8 28  1  0  0  0  0
  8 29  1  0  0  0  0
  9 14  2  0  0  0  0
  9 16  1  0  0  0  0
 10 14  1  0  0  0  0
 10 30  1  0  0  0  0
 10 31  1  0  0  0  0
 11 32  1  0  0  0  0
 11 33  1  0  0  0  0
 12 13  1  0  0  0  0
 12 34  1  0  0  0  0
 12 35  1  0  0  0  0
 13 36  1  0  0  0  0
 13 37  1  0  0  0  0
 14 17  1  0  0  0  0
 15 20  1  0  0  0  0
 15 38  1  0  0  0  0
 15 39  1  0  0  0  0
 16 18  2  0  0  0  0
 16 40  1  0  0  0  0
 17 19  2  0  0  0  0
 17 41  1  0  0  0  0
 18 19  1  0  0  0  0
 19 42  1  0  0  0  0
 20 21  2  0  0  0  0
 20 43  1  0  0  0  0
 21 45  1  0  0  0  0
 21 46  1  0  0  0  0
M  END
> <PUBCHEM_COMPOUND_CID>
5359371

> <PUBCHEM_CONFORMER_RMSD>
0.6

> <PUBCHEM_CONFORMER_DIVERSEORDER>
1
3
2
4
5

> <PUBCHEM_MMFF94_PARTIAL_CHARGES>
22
1 -0.53
10 0.14
11 0.27
14 -0.14
15 0.41
16 -0.15
17 -0.15
18 0.08
19 -0.15
2 -0.81
20 -0.29
21 -0.3
3 0.14
40 0.15
41 0.15
42 0.15
43 0.15
44 0.45
45 0.15
46 0.15
5 0.27
9 -0.14

> <PUBCHEM_EFFECTIVE_ROTOR_COUNT>
3.6

> <PUBCHEM_PHARMACOPHORE_FEATURES>
7
1 1 donor
1 2 cation
1 21 hydrophobe
6 2 3 4 5 6 11 rings
6 3 4 5 9 10 14 rings
6 3 4 7 8 12 13 rings
6 9 14 16 17 18 19 rings

> <PUBCHEM_HEAVY_ATOM_COUNT>
21

> <PUBCHEM_ATOM_DEF_STEREO_COUNT>
3

> <PUBCHEM_ATOM_UDEF_STEREO_COUNT>
0

> <PUBCHEM_BOND_DEF_STEREO_COUNT>
0

> <PUBCHEM_BOND_UDEF_STEREO_COUNT>
0

> <PUBCHEM_ISOTOPIC_ATOM_COUNT>
0

> <PUBCHEM_COMPONENT_COUNT>
1

> <PUBCHEM_CACTVS_TAUTO_COUNT>
3

> <PUBCHEM_CONFORMER_ID>
0051C70B00000001

> <PUBCHEM_MMFF94_ENERGY>
56.9333

> <PUBCHEM_FEATURE_SELFOVERLAP>
37.137

> <PUBCHEM_SHAPE_FINGERPRINT>
10165383 225 18196066890355971577
10863032 1 18339074900276677171
10948715 1 18270961232772155289
11578080 2 18056447687331144065
12035759 4 17240473719768342521
12173636 292 17907863907315750364
12592029 89 18413672417967472690
12730499 353 18409722942510179121
13004483 165 17546743997861580795
13009979 54 16589977463751832723
13132413 78 17834394896871955728
13134695 92 18046361978495702413
13294875 104 17896056385331559072
13464514 151 18336537296190954041
13681431 1 18119248608411519382
14181834 199 17825702042026218239
14817 1 14667889455865146118
14955137 171 18115036310910140586
15163728 17 17986932125000170021
16945 1 17823114796608137810
17980427 23 17534351325000040657
17980427 26 18059029387751565439
1813 80 17753897421478103375
18186145 218 17749946631581345537
18785283 64 18202002140079684896
19765921 60 18261675865749995635
20473742 2 18339363075402467247
20645476 183 18051691049521049440
21304303 282 17033369546109156888
21524375 3 18262802852262406749
22112679 90 17462545527598698467
22907989 373 17405147327067699694
23419403 2 17769332232643724314
23493267 7 18052532180401234632
23557571 272 17560503042164309425
238 59 18260261924056619025
25 1 18188479194872136193
2748010 2 16740005473401500616
298252 57 17458620056354971494
3286 77 17985546891068334855
3759504 43 18123182412250541964
394222 165 18333733511253723850
427121 178 17632576072082817777
495365 180 18200603613293010999
5895379 119 16736069625506367569
598444 67 17613413577164678938
6442390 28 18195806267693325059
6786 2 18200311013839593142
7364860 26 18337676420186017427
7471813 234 17971485241023546013
81228 2 17110733263040512434
81539 233 18411139125733495709
84936 182 18408320012332585033

> <PUBCHEM_SHAPE_MULTIPOLES>
421.32
6
3.45
1.61
8.8
0.8
0.06
-4.14
-1.83
-4.24
0.47
-0.14
0.04
0.21

> <PUBCHEM_SHAPE_SELFOVERLAP>
911.323

> <PUBCHEM_SHAPE_VOLUME>
227.1

> <PUBCHEM_COORDINATE_TYPE>
2
5
10

$$$$

