5281126
  -OEChem-07051212552D

 50 49  0     0  0  0  0  0  0999 V2000
    2.8660   -5.0950    0.0000 O   0  0  0  0  0  0  0  0  0  0  0  0
    2.0000   -3.5950    0.0000 O   0  0  0  0  0  0  0  0  0  0  0  0
    4.5981   -1.0950    0.0000 C   0  0  0  0  0  0  0  0  0  0  0  0
    5.4641   -0.5950    0.0000 C   0  0  0  0  0  0  0  0  0  0  0  0
    4.5981   -2.0950    0.0000 C   0  0  0  0  0  0  0  0  0  0  0  0
    5.4641    0.4050    0.0000 C   0  0  0  0  0  0  0  0  0  0  0  0
    3.7320   -2.5950    0.0000 C   0  0  0  0  0  0  0  0  0  0  0  0
    6.3301    0.9050    0.0000 C   0  0  0  0  0  0  0  0  0  0  0  0
    3.7320   -3.5950    0.0000 C   0  0  0  0  0  0  0  0  0  0  0  0
    6.3301    1.9050    0.0000 C   0  0  0  0  0  0  0  0  0  0  0  0
    2.8660   -4.0950    0.0000 C   0  0  0  0  0  0  0  0  0  0  0  0
   11.5263    3.9050    0.0000 C   0  0  0  0  0  0  0  0  0  0  0  0
   11.5263    4.9050    0.0000 C   0  0  0  0  0  0  0  0  0  0  0  0
   10.6603    3.4050    0.0000 C   0  0  0  0  0  0  0  0  0  0  0  0
    7.1962    2.4050    0.0000 C   0  0  0  0  0  0  0  0  0  0  0  0
   10.6603    2.4050    0.0000 C   0  0  0  0  0  0  0  0  0  0  0  0
   12.3923    5.4050    0.0000 C   0  0  0  0  0  0  0  0  0  0  0  0
    8.0622    1.9050    0.0000 C   0  0  0  0  0  0  0  0  0  0  0  0
    9.7942    1.9050    0.0000 C   0  0  0  0  0  0  0  0  0  0  0  0
    8.9282    2.4050    0.0000 C   0  0  0  0  0  0  0  0  0  0  0  0
    4.3860   -0.5124    0.0000 H   0  0  0  0  0  0  0  0  0  0  0  0
    3.9875   -1.2027    0.0000 H   0  0  0  0  0  0  0  0  0  0  0  0
    5.6762   -1.1776    0.0000 H   0  0  0  0  0  0  0  0  0  0  0  0
    6.0747   -0.4873    0.0000 H   0  0  0  0  0  0  0  0  0  0  0  0
    4.8101   -2.6776    0.0000 H   0  0  0  0  0  0  0  0  0  0  0  0
    5.2087   -1.9873    0.0000 H   0  0  0  0  0  0  0  0  0  0  0  0
    5.2520    0.9876    0.0000 H   0  0  0  0  0  0  0  0  0  0  0  0
    4.8535    0.2973    0.0000 H   0  0  0  0  0  0  0  0  0  0  0  0
    3.5200   -2.0124    0.0000 H   0  0  0  0  0  0  0  0  0  0  0  0
    3.1215   -2.7027    0.0000 H   0  0  0  0  0  0  0  0  0  0  0  0
    6.5422    0.3224    0.0000 H   0  0  0  0  0  0  0  0  0  0  0  0
    6.9407    1.0127    0.0000 H   0  0  0  0  0  0  0  0  0  0  0  0
    3.9441   -4.1776    0.0000 H   0  0  0  0  0  0  0  0  0  0  0  0
    4.3426   -3.4873    0.0000 H   0  0  0  0  0  0  0  0  0  0  0  0
    5.7932    2.2150    0.0000 H   0  0  0  0  0  0  0  0  0  0  0  0
   11.7383    3.3224    0.0000 H   0  0  0  0  0  0  0  0  0  0  0  0
   12.1369    4.0127    0.0000 H   0  0  0  0  0  0  0  0  0  0  0  0
   11.3142    5.4876    0.0000 H   0  0  0  0  0  0  0  0  0  0  0  0
   10.9157    4.7973    0.0000 H   0  0  0  0  0  0  0  0  0  0  0  0
   10.4482    3.9876    0.0000 H   0  0  0  0  0  0  0  0  0  0  0  0
   10.0497    3.2973    0.0000 H   0  0  0  0  0  0  0  0  0  0  0  0
    7.1962    3.0250    0.0000 H   0  0  0  0  0  0  0  0  0  0  0  0
   11.1972    2.0950    0.0000 H   0  0  0  0  0  0  0  0  0  0  0  0
   12.7023    4.8681    0.0000 H   0  0  0  0  0  0  0  0  0  0  0  0
   12.9292    5.7150    0.0000 H   0  0  0  0  0  0  0  0  0  0  0  0
   12.0823    5.9419    0.0000 H   0  0  0  0  0  0  0  0  0  0  0  0
    8.0622    1.2850    0.0000 H   0  0  0  0  0  0  0  0  0  0  0  0
    9.7942    1.2850    0.0000 H   0  0  0  0  0  0  0  0  0  0  0  0
    8.9282    3.0250    0.0000 H   0  0  0  0  0  0  0  0  0  0  0  0
    2.3291   -5.4050    0.0000 H   0  0  0  0  0  0  0  0  0  0  0  0
  1 11  1  0  0  0  0
  1 50  1  0  0  0  0
  2 11  2  0  0  0  0
  3  4  1  0  0  0  0
  3  5  1  0  0  0  0
  3 21  1  0  0  0  0
  3 22  1  0  0  0  0
  4  6  1  0  0  0  0
  4 23  1  0  0  0  0
  4 24  1  0  0  0  0
  5  7  1  0  0  0  0
  5 25  1  0  0  0  0
  5 26  1  0  0  0  0
  6  8  1  0  0  0  0
  6 27  1  0  0  0  0
  6 28  1  0  0  0  0
  7  9  1  0  0  0  0
  7 29  1  0  0  0  0
  7 30  1  0  0  0  0
  8 10  1  0  0  0  0
  8 31  1  0  0  0  0
  8 32  1  0  0  0  0
  9 11  1  0  0  0  0
  9 33  1  0  0  0  0
  9 34  1  0  0  0  0
 10 15  2  0  0  0  0
 10 35  1  0  0  0  0
 12 13  1  0  0  0  0
 12 14  1  0  0  0  0
 12 36  1  0  0  0  0
 12 37  1  0  0  0  0
 13 17  1  0  0  0  0
 13 38  1  0  0  0  0
 13 39  1  0  0  0  0
 14 16  1  0  0  0  0
 14 40  1  0  0  0  0
 14 41  1  0  0  0  0
 15 18  1  0  0  0  0
 15 42  1  0  0  0  0
 16 19  2  0  0  0  0
 16 43  1  0  0  0  0
 17 44  1  0  0  0  0
 17 45  1  0  0  0  0
 17 46  1  0  0  0  0
 18 20  2  0  0  0  0
 18 47  1  0  0  0  0
 19 20  1  0  0  0  0
 19 48  1  0  0  0  0
 20 49  1  0  0  0  0
M  END
> <PUBCHEM_COMPOUND_CID>
5281126

> <PUBCHEM_COMPOUND_CANONICALIZED>
1

> <PUBCHEM_CACTVS_COMPLEXITY>
301

> <PUBCHEM_CACTVS_HBOND_ACCEPTOR>
2

> <PUBCHEM_CACTVS_HBOND_DONOR>
1

> <PUBCHEM_CACTVS_ROTATABLE_BOND>
13

> <PUBCHEM_CACTVS_SUBSKEYS>
AAADceB4MAAAAAAAAAAAAAAAAAAAAAAAAAAAAAAAAAAAAAAAAAAAGgAACAAACACAgAACCAAAAgCIACDSCAAAAAAgAAAICAEAAAgIABIAAQAAQAAEgAAIgAOIyKCAAAAAAAAAAAAAAAAAAAAAAAAAAAAAAA==

> <PUBCHEM_IUPAC_OPENEYE_NAME>
(9Z,11E,13Z)-octadeca-9,11,13-trienoic acid

> <PUBCHEM_IUPAC_CAS_NAME>
(9Z,11E,13Z)-octadeca-9,11,13-trienoic acid

> <PUBCHEM_IUPAC_NAME>
(9Z,11E,13Z)-octadeca-9,11,13-trienoic acid

> <PUBCHEM_IUPAC_SYSTEMATIC_NAME>
(9Z,11E,13Z)-octadeca-9,11,13-trienoic acid

> <PUBCHEM_IUPAC_TRADITIONAL_NAME>
(9Z,11E,13Z)-octadeca-9,11,13-trienoic acid

> <PUBCHEM_IUPAC_INCHI>
InChI=1S/C18H30O2/c1-2-3-4-5-6-7-8-9-10-11-12-13-14-15-16-17-18(19)20/h5-10H,2-4,11-17H2,1H3,(H,19,20)/b6-5-,8-7+,10-9-

> <PUBCHEM_IUPAC_INCHIKEY>
CUXYLFPMQMFGPL-BGDVVUGTSA-N

> <PUBCHEM_XLOGP3>
6.4

> <PUBCHEM_EXACT_MASS>
278.22458

> <PUBCHEM_MOLECULAR_FORMULA>
C18H30O2

> <PUBCHEM_MOLECULAR_WEIGHT>
278.4296

> <PUBCHEM_OPENEYE_CAN_SMILES>
CCCCC=CC=CC=CCCCCCCCC(=O)O

> <PUBCHEM_OPENEYE_ISO_SMILES>
CCCC/C=C\C=C\C=C/CCCCCCCC(=O)O

> <PUBCHEM_CACTVS_TPSA>
37.3

> <PUBCHEM_MONOISOTOPIC_WEIGHT>
278.22458

> <PUBCHEM_TOTAL_CHARGE>
0

> <PUBCHEM_HEAVY_ATOM_COUNT>
20

> <PUBCHEM_ATOM_DEF_STEREO_COUNT>
0

> <PUBCHEM_ATOM_UDEF_STEREO_COUNT>
0

> <PUBCHEM_BOND_DEF_STEREO_COUNT>
3

> <PUBCHEM_BOND_UDEF_STEREO_COUNT>
0

> <PUBCHEM_ISOTOPIC_ATOM_COUNT>
0

> <PUBCHEM_COMPONENT_COUNT>
1

> <PUBCHEM_CACTVS_TAUTO_COUNT>
1

> <PUBCHEM_COORDINATE_TYPE>
1
5
255

$$$$

