587245
  -OEChem-07051213103D

 19 19  0     0  0  0  0  0  0999 V2000
   -0.9857    0.6721   -0.0010 C   0  0  0  0  0  0  0  0  0  0  0  0
    0.2035    1.5724   -0.0024 C   0  0  0  0  0  0  0  0  0  0  0  0
   -1.5417    0.2494   -1.2083 C   0  0  0  0  0  0  0  0  0  0  0  0
   -1.5421    0.2532    1.2075 C   0  0  0  0  0  0  0  0  0  0  0  0
   -2.6539   -0.5925   -1.2072 C   0  0  0  0  0  0  0  0  0  0  0  0
   -2.6543   -0.5887    1.2087 C   0  0  0  0  0  0  0  0  0  0  0  0
   -3.2102   -1.0116    0.0013 C   0  0  0  0  0  0  0  0  0  0  0  0
    1.4762    0.8284   -0.0009 C   0  0  0  0  0  0  0  0  0  0  0  0
    2.5077    0.2139    0.0001 C   0  0  0  0  0  0  0  0  0  0  0  0
    3.6854   -0.4902    0.0011 C   0  0  0  0  0  0  0  0  0  0  0  0
    4.7153   -1.1065    0.0010 C   0  0  0  0  0  0  0  0  0  0  0  0
    0.1665    2.2359   -0.8757 H   0  0  0  0  0  0  0  0  0  0  0  0
    0.1663    2.2388    0.8687 H   0  0  0  0  0  0  0  0  0  0  0  0
   -1.1172    0.5674   -2.1570 H   0  0  0  0  0  0  0  0  0  0  0  0
   -1.1180    0.5742    2.1553 H   0  0  0  0  0  0  0  0  0  0  0  0
   -3.0866   -0.9221   -2.1473 H   0  0  0  0  0  0  0  0  0  0  0  0
   -3.0873   -0.9153    2.1497 H   0  0  0  0  0  0  0  0  0  0  0  0
   -4.0761   -1.6672    0.0022 H   0  0  0  0  0  0  0  0  0  0  0  0
    5.6291   -1.6535    0.0008 H   0  0  0  0  0  0  0  0  0  0  0  0
  1  2  1  0  0  0  0
  1  3  2  0  0  0  0
  1  4  1  0  0  0  0
  2  8  1  0  0  0  0
  2 12  1  0  0  0  0
  2 13  1  0  0  0  0
  3  5  1  0  0  0  0
  3 14  1  0  0  0  0
  4  6  2  0  0  0  0
  4 15  1  0  0  0  0
  5  7  2  0  0  0  0
  5 16  1  0  0  0  0
  6  7  1  0  0  0  0
  6 17  1  0  0  0  0
  7 18  1  0  0  0  0
  8  9  3  0  0  0  0
  9 10  1  0  0  0  0
 10 11  3  0  0  0  0
 11 19  1  0  0  0  0
M  END
> <PUBCHEM_COMPOUND_CID>
587245

> <PUBCHEM_CONFORMER_RMSD>
0.4

> <PUBCHEM_CONFORMER_DIVERSEORDER>
1
2
3

> <PUBCHEM_MMFF94_PARTIAL_CHARGES>
15
1 -0.14
11 -0.18
14 0.15
15 0.15
16 0.15
17 0.15
18 0.15
19 0.18
2 0.34
3 -0.15
4 -0.15
5 -0.15
6 -0.15
7 -0.15
8 -0.2

> <PUBCHEM_EFFECTIVE_ROTOR_COUNT>
1

> <PUBCHEM_PHARMACOPHORE_FEATURES>
2
1 11 hydrophobe
6 1 3 4 5 6 7 rings

> <PUBCHEM_HEAVY_ATOM_COUNT>
11

> <PUBCHEM_ATOM_DEF_STEREO_COUNT>
0

> <PUBCHEM_ATOM_UDEF_STEREO_COUNT>
0

> <PUBCHEM_BOND_DEF_STEREO_COUNT>
0

> <PUBCHEM_BOND_UDEF_STEREO_COUNT>
0

> <PUBCHEM_ISOTOPIC_ATOM_COUNT>
0

> <PUBCHEM_COMPONENT_COUNT>
1

> <PUBCHEM_CACTVS_TAUTO_COUNT>
1

> <PUBCHEM_CONFORMER_ID>
0008F5ED00000001

> <PUBCHEM_MMFF94_ENERGY>
16.8554

> <PUBCHEM_FEATURE_SELFOVERLAP>
10.148

> <PUBCHEM_SHAPE_FINGERPRINT>
10465860 71 16128657427147961436
10857977 72 14635420534152556297
11127187 94 17346881139257830619
11137873 295 18272370892583623767
11543360 7 15913316980101031910
12186901 62 15554734373820649907
12251169 10 15791451513255724096
12897270 3 15913049780978415113
13296908 3 18341619204722547716
14123260 362 11167933697636590790
15775835 57 11312064244109204858
18186145 218 16630526219917983252
20201158 50 18060701697376021034
20281407 28 18334859437405078064
20300324 65 14405178456894441094
20361792 2 18409168788001297292
20645464 45 5184352914591692181
20671657 53 17846495946302368516
20711985 344 17987252190226457708
20871999 31 15554448466358581587
21061003 4 18412259523655480329
21119208 17 15339120143386974942
21650355 55 16009037146426047331
22485316 2 18409451388475405320
22926399 37 10807938150126520255
23403322 49 18131072675216364210
23500284 214 8070027787454877166
27216 239 6627458627423267990
3086196 2 15141255277889678941
528716 315 14836119944609652513
90316 7 16805311210850234649

> <PUBCHEM_SHAPE_MULTIPOLES>
226.37
7.38
1.25
1.15
8.65
0.17
0
-4.09
0.01
0.23
0
-1.11
-0.09
0

> <PUBCHEM_SHAPE_SELFOVERLAP>
463.297

> <PUBCHEM_SHAPE_VOLUME>
124.9

> <PUBCHEM_COORDINATE_TYPE>
2
5
10

$$$$

