5281261
  -OEChem-07051212552D

 82 87  0     1  0  0  0  0  0999 V2000
   10.5532    1.1739    0.0000 O   0  0  0  0  0  0  0  0  0  0  0  0
    6.3390   -0.3906    0.0000 O   0  0  0  0  0  0  0  0  0  0  0  0
   10.5532    2.1739    0.0000 O   0  0  0  0  0  0  0  0  0  0  0  0
    5.2395    1.1739    0.0000 O   0  0  0  0  0  0  0  0  0  0  0  0
    9.6992   -2.3954    0.0000 O   0  0  0  0  0  0  0  0  0  0  0  0
    7.6442   -1.5293    0.0000 O   0  0  0  0  0  0  0  0  0  0  0  0
    4.9610   -0.5356    0.0000 O   0  0  0  0  0  0  0  0  0  0  0  0
    8.7386   -0.4040    0.0000 N   0  0  3  0  0  0  0  0  0  0  0  0
    8.8211    0.1739    0.0000 C   0  0  1  0  0  0  0  0  0  0  0  0
    7.9551    1.6739    0.0000 C   0  0  2  0  0  0  0  0  0  0  0  0
    7.9551    0.6739    0.0000 C   0  0  1  0  0  0  0  0  0  0  0  0
    7.0415    1.2672    0.0000 C   0  0  3  0  0  0  0  0  0  0  0  0
    7.8332    0.0269    0.0000 C   0  0  3  0  0  0  0  0  0  0  0  0
    9.6871    0.6739    0.0000 C   0  0  2  0  0  0  0  0  0  0  0  0
    6.3724    2.0103    0.0000 C   0  0  2  0  0  0  0  0  0  0  0  0
   10.5971    0.1670    0.0000 C   0  0  2  0  0  0  0  0  0  0  0  0
    8.8211    2.1739    0.0000 C   0  0  0  0  0  0  0  0  0  0  0  0
    6.9965    0.3629    0.0000 C   0  0  1  0  0  0  0  0  0  0  0  0
    9.6871    1.6739    0.0000 C   0  0  2  0  0  0  0  0  0  0  0  0
    7.8506    2.6684    0.0000 C   0  0  0  0  0  0  0  0  0  0  0  0
    8.8050   -0.8676    0.0000 C   0  0  0  0  0  0  0  0  0  0  0  0
    6.2264    1.0131    0.0000 C   0  0  2  0  0  0  0  0  0  0  0  0
    6.8724    2.8763    0.0000 C   0  0  0  0  0  0  0  0  0  0  0  0
    9.7400   -0.3533    0.0000 C   0  0  0  0  0  0  0  0  0  0  0  0
   10.6052   -0.8746    0.0000 C   0  0  0  0  0  0  0  0  0  0  0  0
    9.7031   -1.3954    0.0000 C   0  0  2  0  0  0  0  0  0  0  0  0
   11.5971    0.1786    0.0000 C   0  0  0  0  0  0  0  0  0  0  0  0
    8.5431   -1.3847    0.0000 C   0  0  0  0  0  0  0  0  0  0  0  0
    6.4657    3.7899    0.0000 C   0  0  0  0  0  0  0  0  0  0  0  0
    6.6629   -1.3367    0.0000 C   0  0  0  0  0  0  0  0  0  0  0  0
    4.6067    0.3995    0.0000 C   0  0  0  0  0  0  0  0  0  0  0  0
    6.0055   -2.0902    0.0000 C   0  0  0  0  0  0  0  0  0  0  0  0
    3.6197    0.5603    0.0000 C   0  0  0  0  0  0  0  0  0  0  0  0
    5.0242   -1.8977    0.0000 C   0  0  0  0  0  0  0  0  0  0  0  0
    6.3294   -3.0363    0.0000 C   0  0  0  0  0  0  0  0  0  0  0  0
    3.2655    1.4955    0.0000 C   0  0  0  0  0  0  0  0  0  0  0  0
    2.9870   -0.2140    0.0000 C   0  0  0  0  0  0  0  0  0  0  0  0
    5.6720   -3.7899    0.0000 C   0  0  0  0  0  0  0  0  0  0  0  0
    2.0000   -0.0532    0.0000 C   0  0  0  0  0  0  0  0  0  0  0  0
    8.7636    0.9362    0.0000 H   0  0  0  0  0  0  0  0  0  0  0  0
    6.3652    0.7524    0.0000 H   0  0  0  0  0  0  0  0  0  0  0  0
    7.2705   -0.6102    0.0000 H   0  0  0  0  0  0  0  0  0  0  0  0
    5.5695    2.2893    0.0000 H   0  0  0  0  0  0  0  0  0  0  0  0
    9.2196    2.6488    0.0000 H   0  0  0  0  0  0  0  0  0  0  0  0
    8.4226    2.6488    0.0000 H   0  0  0  0  0  0  0  0  0  0  0  0
    7.1973   -0.2237    0.0000 H   0  0  0  0  0  0  0  0  0  0  0  0
   10.2241    1.3639    0.0000 H   0  0  0  0  0  0  0  0  0  0  0  0
    8.4706    2.6684    0.0000 H   0  0  0  0  0  0  0  0  0  0  0  0
    7.9154    3.2850    0.0000 H   0  0  0  0  0  0  0  0  0  0  0  0
    8.1959   -0.7521    0.0000 H   0  0  0  0  0  0  0  0  0  0  0  0
    8.5870   -1.4480    0.0000 H   0  0  0  0  0  0  0  0  0  0  0  0
    5.8342    0.5330    0.0000 H   0  0  0  0  0  0  0  0  0  0  0  0
    9.5521   -0.9441    0.0000 H   0  0  0  0  0  0  0  0  0  0  0  0
    9.5579    0.2394    0.0000 H   0  0  0  0  0  0  0  0  0  0  0  0
   10.8187   -1.4566    0.0000 H   0  0  0  0  0  0  0  0  0  0  0  0
   11.2152   -0.7638    0.0000 H   0  0  0  0  0  0  0  0  0  0  0  0
   10.2394   -1.7064    0.0000 H   0  0  0  0  0  0  0  0  0  0  0  0
   11.6042   -0.4414    0.0000 H   0  0  0  0  0  0  0  0  0  0  0  0
   12.2170    0.1858    0.0000 H   0  0  0  0  0  0  0  0  0  0  0  0
   11.5899    0.7986    0.0000 H   0  0  0  0  0  0  0  0  0  0  0  0
   11.1732    1.1739    0.0000 H   0  0  0  0  0  0  0  0  0  0  0  0
    7.9350   -1.2635    0.0000 H   0  0  0  0  0  0  0  0  0  0  0  0
    8.4218   -1.9928    0.0000 H   0  0  0  0  0  0  0  0  0  0  0  0
    9.1511   -1.5060    0.0000 H   0  0  0  0  0  0  0  0  0  0  0  0
   10.5532    2.7939    0.0000 H   0  0  0  0  0  0  0  0  0  0  0  0
    6.8301    4.2915    0.0000 H   0  0  0  0  0  0  0  0  0  0  0  0
    5.8491    3.8547    0.0000 H   0  0  0  0  0  0  0  0  0  0  0  0
   10.2350   -2.7074    0.0000 H   0  0  0  0  0  0  0  0  0  0  0  0
    5.1436   -1.2893    0.0000 H   0  0  0  0  0  0  0  0  0  0  0  0
    4.4158   -1.7783    0.0000 H   0  0  0  0  0  0  0  0  0  0  0  0
    4.9048   -2.5061    0.0000 H   0  0  0  0  0  0  0  0  0  0  0  0
    6.9378   -3.1557    0.0000 H   0  0  0  0  0  0  0  0  0  0  0  0
    3.8453    1.7151    0.0000 H   0  0  0  0  0  0  0  0  0  0  0  0
    3.0458    2.0753    0.0000 H   0  0  0  0  0  0  0  0  0  0  0  0
    2.6857    1.2758    0.0000 H   0  0  0  0  0  0  0  0  0  0  0  0
    3.2066   -0.7938    0.0000 H   0  0  0  0  0  0  0  0  0  0  0  0
    5.2048   -3.3823    0.0000 H   0  0  0  0  0  0  0  0  0  0  0  0
    5.2644   -4.2571    0.0000 H   0  0  0  0  0  0  0  0  0  0  0  0
    6.1392   -4.1975    0.0000 H   0  0  0  0  0  0  0  0  0  0  0  0
    2.0997    0.5587    0.0000 H   0  0  0  0  0  0  0  0  0  0  0  0
    1.3881    0.0464    0.0000 H   0  0  0  0  0  0  0  0  0  0  0  0
    1.9003   -0.6652    0.0000 H   0  0  0  0  0  0  0  0  0  0  0  0
 14  1  1  1  0  0  0
  1 61  1  0  0  0  0
 18  2  1  6  0  0  0
  2 30  1  0  0  0  0
 19  3  1  6  0  0  0
  3 65  1  0  0  0  0
 22  4  1  6  0  0  0
  4 31  1  0  0  0  0
 26  5  1  6  0  0  0
  5 68  1  0  0  0  0
  6 30  2  0  0  0  0
  7 31  2  0  0  0  0
  8 13  1  0  0  0  0
  8 24  1  0  0  0  0
  8 28  1  0  0  0  0
  9 11  1  0  0  0  0
  9 13  1  0  0  0  0
  9 14  1  0  0  0  0
  9 21  1  1  0  0  0
 10 11  1  0  0  0  0
 10 12  1  0  0  0  0
 10 17  1  6  0  0  0
 10 20  1  0  0  0  0
 11 18  1  0  0  0  0
 11 40  1  1  0  0  0
 12 13  1  0  0  0  0
 12 15  1  0  0  0  0
 12 41  1  0  0  0  0
 13 42  1  0  0  0  0
 14 16  1  0  0  0  0
 14 19  1  0  0  0  0
 15 22  1  0  0  0  0
 15 23  1  0  0  0  0
 15 43  1  1  0  0  0
 16 24  1  0  0  0  0
 16 25  1  0  0  0  0
 16 27  1  6  0  0  0
 17 19  1  0  0  0  0
 17 44  1  0  0  0  0
 17 45  1  0  0  0  0
 18 22  1  0  0  0  0
 18 46  1  0  0  0  0
 19 47  1  0  0  0  0
 20 23  1  0  0  0  0
 20 48  1  0  0  0  0
 20 49  1  0  0  0  0
 21 26  1  0  0  0  0
 21 50  1  0  0  0  0
 21 51  1  0  0  0  0
 22 52  1  0  0  0  0
 23 29  2  0  0  0  0
 24 53  1  0  0  0  0
 24 54  1  0  0  0  0
 25 26  1  0  0  0  0
 25 55  1  0  0  0  0
 25 56  1  0  0  0  0
 26 57  1  0  0  0  0
 27 58  1  0  0  0  0
 27 59  1  0  0  0  0
 27 60  1  0  0  0  0
 28 62  1  0  0  0  0
 28 63  1  0  0  0  0
 28 64  1  0  0  0  0
 29 66  1  0  0  0  0
 29 67  1  0  0  0  0
 30 32  1  0  0  0  0
 31 33  1  0  0  0  0
 32 34  1  0  0  0  0
 32 35  2  0  0  0  0
 33 36  1  0  0  0  0
 33 37  2  0  0  0  0
 34 69  1  0  0  0  0
 34 70  1  0  0  0  0
 34 71  1  0  0  0  0
 35 38  1  0  0  0  0
 35 72  1  0  0  0  0
 36 73  1  0  0  0  0
 36 74  1  0  0  0  0
 36 75  1  0  0  0  0
 37 39  1  0  0  0  0
 37 76  1  0  0  0  0
 38 77  1  0  0  0  0
 38 78  1  0  0  0  0
 38 79  1  0  0  0  0
 39 80  1  0  0  0  0
 39 81  1  0  0  0  0
 39 82  1  0  0  0  0
M  END
> <PUBCHEM_COMPOUND_CID>
5281261

> <PUBCHEM_COMPOUND_CANONICALIZED>
1

> <PUBCHEM_CACTVS_COMPLEXITY>
1210

> <PUBCHEM_CACTVS_HBOND_ACCEPTOR>
8

> <PUBCHEM_CACTVS_HBOND_DONOR>
3

> <PUBCHEM_CACTVS_ROTATABLE_BOND>
6

> <PUBCHEM_CACTVS_SUBSKEYS>
AAADcfB6OAAAAAAAAAAAAAAAAAAAAYMAAAA8YMEABgwWAFjAAAAAHgAACAAAD3zhgAYCCAMABgCIAiDSCAAAAAAgAAAACAEIAEgBFAIAoQAGUAAGwACDIYHw8P8PgAAAAAAAAADCAAYAADCAASAACQAAAA==

> <PUBCHEM_IUPAC_INCHI>
InChI=1S/C31H43NO7/c1-8-15(3)26(35)38-22-20-17(5)10-29-13-19(34)31(37)28(6)11-18(33)12-30(31,25(21(20)29)32(7)14-28)24(29)23(22)39-27(36)16(4)9-2/h8-9,18-25,33-34,37H,5,10-14H2,1-4,6-7H3/b15-8+,16-9+/t18-,19-,20+,21?,22+,23+,24+,25?,28-,29-,30-,31-/m0/s1

> <PUBCHEM_IUPAC_INCHIKEY>
PISLVTVZMHAKFK-CXROCBCRSA-N

> <PUBCHEM_XLOGP3_AA>
2.5

> <PUBCHEM_EXACT_MASS>
541.303953

> <PUBCHEM_MOLECULAR_FORMULA>
C31H43NO7

> <PUBCHEM_MOLECULAR_WEIGHT>
541.67562

> <PUBCHEM_OPENEYE_CAN_SMILES>
CC=C(C)C(=O)OC1C2C3C4C56CC(CC(C5(C(CC3(C6C1OC(=O)C(=CC)C)CC2=C)O)O)(CN4C)C)O

> <PUBCHEM_OPENEYE_ISO_SMILES>
C/C=C(\C)/C(=O)O[C@H]1[C@H]([C@@H]2[C@@]34C[C@@H]([C@]5([C@@]26C[C@H](C[C@]5(CN(C6C3[C@H]1C(=C)C4)C)C)O)O)O)OC(=O)/C(=C/C)/C

> <PUBCHEM_CACTVS_TPSA>
117

> <PUBCHEM_MONOISOTOPIC_WEIGHT>
541.303953

> <PUBCHEM_TOTAL_CHARGE>
0

> <PUBCHEM_HEAVY_ATOM_COUNT>
39

> <PUBCHEM_ATOM_DEF_STEREO_COUNT>
10

> <PUBCHEM_ATOM_UDEF_STEREO_COUNT>
2

> <PUBCHEM_BOND_DEF_STEREO_COUNT>
2

> <PUBCHEM_BOND_UDEF_STEREO_COUNT>
0

> <PUBCHEM_ISOTOPIC_ATOM_COUNT>
0

> <PUBCHEM_COMPONENT_COUNT>
1

> <PUBCHEM_CACTVS_TAUTO_COUNT>
1

> <PUBCHEM_COORDINATE_TYPE>
1
5
255

> <PUBCHEM_BONDANNOTATIONS>
14  1  5
10  17  6
11  40  5
12  41  3
13  42  3
15  43  5
16  27  6
18  2  6
19  3  6
22  4  6
26  5  6
9  21  5

$$$$

