443018
  -OEChem-07051213002D

 55 57  0     1  0  0  0  0  0999 V2000
    5.0366   -0.0587    0.0000 O   0  0  0  0  0  0  0  0  0  0  0  0
    4.9836    4.3375    0.0000 O   0  0  0  0  0  0  0  0  0  0  0  0
    4.1136   -3.6465    0.0000 O   0  0  0  0  0  0  0  0  0  0  0  0
    2.9945    4.1284    0.0000 O   0  0  0  0  0  0  0  0  0  0  0  0
    5.8457   -4.6465    0.0000 O   0  0  0  0  0  0  0  0  0  0  0  0
    6.3457    0.8924    0.0000 C   0  0  1  0  0  0  0  0  0  0  0  0
    6.6547   -0.0587    0.0000 C   0  0  1  0  0  0  0  0  0  0  0  0
    5.3457    0.8924    0.0000 C   0  0  2  0  0  0  0  0  0  0  0  0
    5.8457   -0.6465    0.0000 C   0  0  2  0  0  0  0  0  0  0  0  0
    6.9334    1.7014    0.0000 C   0  0  0  0  0  0  0  0  0  0  0  0
    7.6057   -0.3677    0.0000 C   0  0  0  0  0  0  0  0  0  0  0  0
    4.7579    1.7014    0.0000 C   0  0  0  0  0  0  0  0  0  0  0  0
    5.8457   -1.6465    0.0000 C   0  0  0  0  0  0  0  0  0  0  0  0
    5.1646    2.6149    0.0000 C   0  0  0  0  0  0  0  0  0  0  0  0
    4.9796   -2.1465    0.0000 C   0  0  0  0  0  0  0  0  0  0  0  0
    3.7634    1.5968    0.0000 C   0  0  0  0  0  0  0  0  0  0  0  0
    6.7117   -2.1465    0.0000 C   0  0  0  0  0  0  0  0  0  0  0  0
    4.5768    3.4239    0.0000 C   0  0  0  0  0  0  0  0  0  0  0  0
    4.9796   -3.1465    0.0000 C   0  0  0  0  0  0  0  0  0  0  0  0
    3.1756    2.4059    0.0000 C   0  0  0  0  0  0  0  0  0  0  0  0
    6.7117   -3.1465    0.0000 C   0  0  0  0  0  0  0  0  0  0  0  0
    3.5823    3.3194    0.0000 C   0  0  0  0  0  0  0  0  0  0  0  0
    5.8457   -3.6465    0.0000 C   0  0  0  0  0  0  0  0  0  0  0  0
    4.3958    5.1465    0.0000 C   0  0  0  0  0  0  0  0  0  0  0  0
    4.1136   -4.6465    0.0000 C   0  0  0  0  0  0  0  0  0  0  0  0
    2.0000    4.0239    0.0000 C   0  0  0  0  0  0  0  0  0  0  0  0
    6.7117   -5.1465    0.0000 C   0  0  0  0  0  0  0  0  0  0  0  0
    6.9580    0.7954    0.0000 H   0  0  0  0  0  0  0  0  0  0  0  0
    6.7517   -0.6711    0.0000 H   0  0  0  0  0  0  0  0  0  0  0  0
    5.6271    1.4448    0.0000 H   0  0  0  0  0  0  0  0  0  0  0  0
    6.3981   -0.9280    0.0000 H   0  0  0  0  0  0  0  0  0  0  0  0
    7.4350    1.3369    0.0000 H   0  0  0  0  0  0  0  0  0  0  0  0
    7.2979    2.2030    0.0000 H   0  0  0  0  0  0  0  0  0  0  0  0
    6.4319    2.0658    0.0000 H   0  0  0  0  0  0  0  0  0  0  0  0
    7.4142   -0.9574    0.0000 H   0  0  0  0  0  0  0  0  0  0  0  0
    8.1954   -0.5593    0.0000 H   0  0  0  0  0  0  0  0  0  0  0  0
    7.7973    0.2219    0.0000 H   0  0  0  0  0  0  0  0  0  0  0  0
    5.7812    2.6797    0.0000 H   0  0  0  0  0  0  0  0  0  0  0  0
    4.4427   -1.8365    0.0000 H   0  0  0  0  0  0  0  0  0  0  0  0
    3.5112    1.0304    0.0000 H   0  0  0  0  0  0  0  0  0  0  0  0
    7.2486   -1.8365    0.0000 H   0  0  0  0  0  0  0  0  0  0  0  0
    2.5590    2.3410    0.0000 H   0  0  0  0  0  0  0  0  0  0  0  0
    7.2486   -3.4565    0.0000 H   0  0  0  0  0  0  0  0  0  0  0  0
    4.8974    5.5109    0.0000 H   0  0  0  0  0  0  0  0  0  0  0  0
    4.0314    5.6481    0.0000 H   0  0  0  0  0  0  0  0  0  0  0  0
    3.8942    4.7821    0.0000 H   0  0  0  0  0  0  0  0  0  0  0  0
    3.4936   -4.6465    0.0000 H   0  0  0  0  0  0  0  0  0  0  0  0
    4.1136   -5.2665    0.0000 H   0  0  0  0  0  0  0  0  0  0  0  0
    4.7336   -4.6465    0.0000 H   0  0  0  0  0  0  0  0  0  0  0  0
    1.9352    4.6405    0.0000 H   0  0  0  0  0  0  0  0  0  0  0  0
    1.3834    3.9591    0.0000 H   0  0  0  0  0  0  0  0  0  0  0  0
    2.0648    3.4073    0.0000 H   0  0  0  0  0  0  0  0  0  0  0  0
    6.4017   -5.6834    0.0000 H   0  0  0  0  0  0  0  0  0  0  0  0
    7.2486   -5.4565    0.0000 H   0  0  0  0  0  0  0  0  0  0  0  0
    7.0217   -4.6096    0.0000 H   0  0  0  0  0  0  0  0  0  0  0  0
  1  8  1  0  0  0  0
  1  9  1  0  0  0  0
  2 18  1  0  0  0  0
  2 24  1  0  0  0  0
  3 19  1  0  0  0  0
  3 25  1  0  0  0  0
  4 22  1  0  0  0  0
  4 26  1  0  0  0  0
  5 23  1  0  0  0  0
  5 27  1  0  0  0  0
  6  7  1  0  0  0  0
  6  8  1  0  0  0  0
  6 10  1  1  0  0  0
  6 28  1  0  0  0  0
  7  9  1  0  0  0  0
  7 11  1  6  0  0  0
  7 29  1  0  0  0  0
  8 12  1  1  0  0  0
  8 30  1  0  0  0  0
  9 13  1  6  0  0  0
  9 31  1  0  0  0  0
 10 32  1  0  0  0  0
 10 33  1  0  0  0  0
 10 34  1  0  0  0  0
 11 35  1  0  0  0  0
 11 36  1  0  0  0  0
 11 37  1  0  0  0  0
 12 14  2  0  0  0  0
 12 16  1  0  0  0  0
 13 15  2  0  0  0  0
 13 17  1  0  0  0  0
 14 18  1  0  0  0  0
 14 38  1  0  0  0  0
 15 19  1  0  0  0  0
 15 39  1  0  0  0  0
 16 20  2  0  0  0  0
 16 40  1  0  0  0  0
 17 21  2  0  0  0  0
 17 41  1  0  0  0  0
 18 22  2  0  0  0  0
 19 23  2  0  0  0  0
 20 22  1  0  0  0  0
 20 42  1  0  0  0  0
 21 23  1  0  0  0  0
 21 43  1  0  0  0  0
 24 44  1  0  0  0  0
 24 45  1  0  0  0  0
 24 46  1  0  0  0  0
 25 47  1  0  0  0  0
 25 48  1  0  0  0  0
 25 49  1  0  0  0  0
 26 50  1  0  0  0  0
 26 51  1  0  0  0  0
 26 52  1  0  0  0  0
 27 53  1  0  0  0  0
 27 54  1  0  0  0  0
 27 55  1  0  0  0  0
M  END
> <PUBCHEM_COMPOUND_CID>
443018

> <PUBCHEM_COMPOUND_CANONICALIZED>
1

> <PUBCHEM_CACTVS_COMPLEXITY>
418

> <PUBCHEM_CACTVS_HBOND_ACCEPTOR>
5

> <PUBCHEM_CACTVS_HBOND_DONOR>
0

> <PUBCHEM_CACTVS_ROTATABLE_BOND>
6

> <PUBCHEM_CACTVS_SUBSKEYS>
AAADceB4OAAAAAAAAAAAAAAAAAAAASAAAAAwYAAAAAAAAAABQAAAGgAAAAAADRSgmAIyBoAABACAAiBCAAACCAAgIAAIiAAGiIgNJiKEMRqCMCIkwBEKqAfA4PwOoAABAAAAQABAAAIAAACAAAAAAAAAAA==

> <PUBCHEM_IUPAC_OPENEYE_NAME>
(2R,3S,4S,5R)-2,5-bis(3,4-dimethoxyphenyl)-3,4-dimethyl-tetrahydrofuran

> <PUBCHEM_IUPAC_CAS_NAME>
(2R,3S,4S,5R)-2,5-bis(3,4-dimethoxyphenyl)-3,4-dimethyloxolane

> <PUBCHEM_IUPAC_NAME>
(2R,3S,4S,5R)-2,5-bis(3,4-dimethoxyphenyl)-3,4-dimethyloxolane

> <PUBCHEM_IUPAC_SYSTEMATIC_NAME>
(2R,3S,4S,5R)-2,5-bis(3,4-dimethoxyphenyl)-3,4-dimethyl-oxolane

> <PUBCHEM_IUPAC_TRADITIONAL_NAME>
(2R,3S,4S,5R)-2,5-bis(3,4-dimethoxyphenyl)-3,4-dimethyl-tetrahydrofuran

> <PUBCHEM_IUPAC_INCHI>
InChI=1S/C22H28O5/c1-13-14(2)22(16-8-10-18(24-4)20(12-16)26-6)27-21(13)15-7-9-17(23-3)19(11-15)25-5/h7-14,21-22H,1-6H3/t13-,14-,21+,22+/m0/s1

> <PUBCHEM_IUPAC_INCHIKEY>
JLJAVUZBHSLLJL-HCIHMXRSSA-N

> <PUBCHEM_XLOGP3_AA>
4.4

> <PUBCHEM_EXACT_MASS>
372.193674

> <PUBCHEM_MOLECULAR_FORMULA>
C22H28O5

> <PUBCHEM_MOLECULAR_WEIGHT>
372.45472

> <PUBCHEM_OPENEYE_CAN_SMILES>
CC1C(C(OC1C2=CC(=C(C=C2)OC)OC)C3=CC(=C(C=C3)OC)OC)C

> <PUBCHEM_OPENEYE_ISO_SMILES>
C[C@H]1[C@@H]([C@@H](O[C@H]1C2=CC(=C(C=C2)OC)OC)C3=CC(=C(C=C3)OC)OC)C

> <PUBCHEM_CACTVS_TPSA>
46.2

> <PUBCHEM_MONOISOTOPIC_WEIGHT>
372.193674

> <PUBCHEM_TOTAL_CHARGE>
0

> <PUBCHEM_HEAVY_ATOM_COUNT>
27

> <PUBCHEM_ATOM_DEF_STEREO_COUNT>
4

> <PUBCHEM_ATOM_UDEF_STEREO_COUNT>
0

> <PUBCHEM_BOND_DEF_STEREO_COUNT>
0

> <PUBCHEM_BOND_UDEF_STEREO_COUNT>
0

> <PUBCHEM_ISOTOPIC_ATOM_COUNT>
0

> <PUBCHEM_COMPONENT_COUNT>
1

> <PUBCHEM_CACTVS_TAUTO_COUNT>
1

> <PUBCHEM_COORDINATE_TYPE>
1
5
255

> <PUBCHEM_BONDANNOTATIONS>
12  14  8
12  16  8
13  15  8
13  17  8
14  18  8
15  19  8
16  20  8
17  21  8
18  22  8
19  23  8
20  22  8
21  23  8
6  10  5
7  11  6
8  12  5
9  13  6

$$$$

