656767
  -OEChem-07051213043D

 47 49  0     0  0  0  0  0  0999 V2000
   -1.4132   -0.1449    1.2037 N   0  0  0  0  0  0  0  0  0  0  0  0
    2.6850   -0.1361    0.5437 N   0  0  0  0  0  0  0  0  0  0  0  0
   -0.8775   -1.2306    0.4686 C   0  0  0  0  0  0  0  0  0  0  0  0
    0.5174   -1.2895    0.2095 C   0  0  0  0  0  0  0  0  0  0  0  0
    4.8238    0.9717    0.9206 C   0  0  0  0  0  0  0  0  0  0  0  0
   -2.8512   -0.1036    1.4589 C   0  0  0  0  0  0  0  0  0  0  0  0
    1.4020   -0.1948    0.7196 C   0  0  0  0  0  0  0  0  0  0  0  0
    5.2018    0.9789   -0.5635 C   0  0  0  0  0  0  0  0  0  0  0  0
    3.3160    1.0305    1.1386 C   0  0  0  0  0  0  0  0  0  0  0  0
   -0.5687    0.8437    1.6615 C   0  0  0  0  0  0  0  0  0  0  0  0
    0.7517    0.8981    1.4816 C   0  0  0  0  0  0  0  0  0  0  0  0
    6.7196    0.9785   -0.7486 C   0  0  0  0  0  0  0  0  0  0  0  0
   -3.5620    0.6271    0.3538 C   0  0  0  0  0  0  0  0  0  0  0  0
   -1.6787   -2.2776   -0.0283 C   0  0  0  0  0  0  0  0  0  0  0  0
    1.0604   -2.3612   -0.5166 C   0  0  0  0  0  0  0  0  0  0  0  0
   -1.1285   -3.3386   -0.7499 C   0  0  0  0  0  0  0  0  0  0  0  0
    0.2375   -3.3798   -0.9927 C   0  0  0  0  0  0  0  0  0  0  0  0
    7.1013    0.9548   -2.2201 C   0  0  0  0  0  0  0  0  0  0  0  0
   -3.0431    1.8251   -0.1204 C   0  0  0  0  0  0  0  0  0  0  0  0
   -4.7288    0.0952   -0.1801 C   0  0  0  0  0  0  0  0  0  0  0  0
   -3.7024    2.5029   -1.1458 C   0  0  0  0  0  0  0  0  0  0  0  0
   -5.3878    0.7731   -1.2056 C   0  0  0  0  0  0  0  0  0  0  0  0
   -4.8746    1.9770   -1.6884 C   0  0  0  0  0  0  0  0  0  0  0  0
    5.2269    0.0663    1.3915 H   0  0  0  0  0  0  0  0  0  0  0  0
    5.2890    1.8296    1.4212 H   0  0  0  0  0  0  0  0  0  0  0  0
   -3.0437    0.4564    2.3860 H   0  0  0  0  0  0  0  0  0  0  0  0
   -3.2793   -1.0905    1.6663 H   0  0  0  0  0  0  0  0  0  0  0  0
    4.7744    1.8652   -1.0481 H   0  0  0  0  0  0  0  0  0  0  0  0
    4.7773    0.1005   -1.0637 H   0  0  0  0  0  0  0  0  0  0  0  0
    2.9634    1.9646    0.6821 H   0  0  0  0  0  0  0  0  0  0  0  0
    3.1820    1.0531    2.2280 H   0  0  0  0  0  0  0  0  0  0  0  0
   -1.0650    1.6215    2.2335 H   0  0  0  0  0  0  0  0  0  0  0  0
    1.2553    1.7493    1.9161 H   0  0  0  0  0  0  0  0  0  0  0  0
    7.1525    1.8690   -0.2781 H   0  0  0  0  0  0  0  0  0  0  0  0
    7.1552    0.1041   -0.2511 H   0  0  0  0  0  0  0  0  0  0  0  0
   -2.7541   -2.3052    0.1122 H   0  0  0  0  0  0  0  0  0  0  0  0
    2.1270   -2.4134   -0.7192 H   0  0  0  0  0  0  0  0  0  0  0  0
   -1.7710   -4.1307   -1.1237 H   0  0  0  0  0  0  0  0  0  0  0  0
    0.6656   -4.2048   -1.5545 H   0  0  0  0  0  0  0  0  0  0  0  0
    6.7062    1.8323   -2.7419 H   0  0  0  0  0  0  0  0  0  0  0  0
    8.1903    0.9564   -2.3292 H   0  0  0  0  0  0  0  0  0  0  0  0
    6.7120    0.0579   -2.7122 H   0  0  0  0  0  0  0  0  0  0  0  0
   -2.1537    2.2898    0.2852 H   0  0  0  0  0  0  0  0  0  0  0  0
   -5.1388   -0.8410    0.1882 H   0  0  0  0  0  0  0  0  0  0  0  0
   -3.3069    3.4436   -1.5179 H   0  0  0  0  0  0  0  0  0  0  0  0
   -6.3010    0.3639   -1.6280 H   0  0  0  0  0  0  0  0  0  0  0  0
   -5.3888    2.5056   -2.4859 H   0  0  0  0  0  0  0  0  0  0  0  0
  1  3  1  0  0  0  0
  1  6  1  0  0  0  0
  1 10  1  0  0  0  0
  2  7  2  0  0  0  0
  2  9  1  0  0  0  0
  3  4  1  0  0  0  0
  3 14  2  0  0  0  0
  4  7  1  0  0  0  0
  4 15  2  0  0  0  0
  5  8  1  0  0  0  0
  5  9  1  0  0  0  0
  5 24  1  0  0  0  0
  5 25  1  0  0  0  0
  6 13  1  0  0  0  0
  6 26  1  0  0  0  0
  6 27  1  0  0  0  0
  7 11  1  0  0  0  0
  8 12  1  0  0  0  0
  8 28  1  0  0  0  0
  8 29  1  0  0  0  0
  9 30  1  0  0  0  0
  9 31  1  0  0  0  0
 10 11  2  0  0  0  0
 10 32  1  0  0  0  0
 11 33  1  0  0  0  0
 12 18  1  0  0  0  0
 12 34  1  0  0  0  0
 12 35  1  0  0  0  0
 13 19  2  0  0  0  0
 13 20  1  0  0  0  0
 14 16  1  0  0  0  0
 14 36  1  0  0  0  0
 15 17  1  0  0  0  0
 15 37  1  0  0  0  0
 16 17  2  0  0  0  0
 16 38  1  0  0  0  0
 17 39  1  0  0  0  0
 18 40  1  0  0  0  0
 18 41  1  0  0  0  0
 18 42  1  0  0  0  0
 19 21  1  0  0  0  0
 19 43  1  0  0  0  0
 20 22  2  0  0  0  0
 20 44  1  0  0  0  0
 21 23  2  0  0  0  0
 21 45  1  0  0  0  0
 22 23  1  0  0  0  0
 22 46  1  0  0  0  0
 23 47  1  0  0  0  0
M  END
> <PUBCHEM_COMPOUND_CID>
656767

> <PUBCHEM_CONFORMER_RMSD>
0.8

> <PUBCHEM_CONFORMER_DIVERSEORDER>
1
24
49
58
42
57
15
38
45
6
48
8
34
46
56
31
39
43
30
54
9
20
36
53
61
13
44
50
33
4
51
7
47
41
3
22
55
26
11
17
52
40
2
35
60
25
19
23
59
5
12
16
18
28
29
10
32
37
21
27
14

> <PUBCHEM_MMFF94_PARTIAL_CHARGES>
30
1 -0.57
10 -0.05
11 -0.14
13 -0.14
14 -0.15
15 -0.15
16 -0.15
17 -0.15
19 -0.15
2 -0.7
20 -0.15
21 -0.15
22 -0.15
23 -0.15
3 0.1
32 0.15
33 0.15
36 0.15
37 0.15
38 0.15
39 0.15
4 0.09
43 0.15
44 0.15
45 0.15
46 0.15
47 0.15
6 0.51
7 0.35
9 0.25

> <PUBCHEM_EFFECTIVE_ROTOR_COUNT>
6

> <PUBCHEM_PHARMACOPHORE_FEATURES>
6
1 1 cation
1 18 hydrophobe
1 2 acceptor
6 1 3 4 7 10 11 rings
6 13 19 20 21 22 23 rings
6 3 4 14 15 16 17 rings

> <PUBCHEM_HEAVY_ATOM_COUNT>
23

> <PUBCHEM_ATOM_DEF_STEREO_COUNT>
0

> <PUBCHEM_ATOM_UDEF_STEREO_COUNT>
0

> <PUBCHEM_BOND_DEF_STEREO_COUNT>
0

> <PUBCHEM_BOND_UDEF_STEREO_COUNT>
0

> <PUBCHEM_ISOTOPIC_ATOM_COUNT>
0

> <PUBCHEM_COMPONENT_COUNT>
1

> <PUBCHEM_CACTVS_TAUTO_COUNT>
1

> <PUBCHEM_CONFORMER_ID>
000A057F00000001

> <PUBCHEM_MMFF94_ENERGY>
72.8029

> <PUBCHEM_FEATURE_SELFOVERLAP>
30.468

> <PUBCHEM_SHAPE_FINGERPRINT>
10165383 225 18334566946053531417
105312 117 18411139134418265724
10577160 183 18341618140346066602
10591671 39 18343298133055104359
10674148 151 15864067693729138347
107951 10 18201996603989004834
10871710 139 17190661174559440309
11796584 16 5978112323214834825
11991303 11 18339358570071996878
12555020 224 17895185598255913778
12596602 18 15769776857506918024
12760667 363 8718830881548958025
12969540 114 18261683618192449072
13257819 101 17918001610771654111
13257819 37 18410576171416717511
13383665 225 18268989951239747069
13583140 156 18060415789929550208
13911987 19 18334576854142416217
14211702 104 7709197732928507572
14251751 18 6122497995672788452
14747281 78 17829878086616857661
14930077 153 17984406465877802260
15163728 17 18269549610324604669
15183329 4 18187356650152097828
15961568 22 17846218899041782453
167882 2 18266178520659154034
173720 79 18197806407787015626
17492 54 18335149704179700849
17980427 23 17561361794810065461
20642791 268 14979951488798065334
21344244 181 16805612421196486695
21344244 78 13110384867186187245
21521239 73 16805329889905467708
21637258 2 5545190619009886577
21859007 373 18339099154690955288
22122407 14 16916770852574863636
22182313 1 18261657212765642531
23114952 82 18048329030973896133
23559900 14 17901683870610902595
266924 87 18116712017943625776
2838139 119 18060146439746326972
316301 35 7347728933925408693
3472631 163 17417262068949122077
3759504 43 18342461400216786219
4015057 19 16660927669466043936
4058900 60 18340202019938492491
4371632 12 13917425001202347960
44249763 50 18193567675411061656
44802255 64 18270949164700368926
46194498 28 17977397349896596445
69474 34 11600002167627352723

> <PUBCHEM_SHAPE_MULTIPOLES>
463.37
13.58
3.16
1.71
19.87
3.07
0.23
-11.81
8.69
-1.92
1.51
0.68
-0.69
0.77

> <PUBCHEM_SHAPE_SELFOVERLAP>
982.732

> <PUBCHEM_SHAPE_VOLUME>
254.8

> <PUBCHEM_COORDINATE_TYPE>
2
5
10

$$$$

