9311
  -OEChem-06261203363D

 47 46  0     0  0  0  0  0  0999 V2000
   -4.9865   -0.1011    0.0060 N   0  3  0  0  0  0  0  0  0  0  0  0
    4.9924   -0.1024    0.0017 N   0  3  0  0  0  0  0  0  0  0  0  0
   -3.7865    0.7697    0.0005 C   0  0  0  0  0  0  0  0  0  0  0  0
    3.8004    0.7803    0.0451 C   0  0  0  0  0  0  0  0  0  0  0  0
   -2.5393   -0.1008   -0.0404 C   0  0  0  0  0  0  0  0  0  0  0  0
    2.5451   -0.0800    0.0101 C   0  0  0  0  0  0  0  0  0  0  0  0
   -1.2716    0.7539   -0.0004 C   0  0  0  0  0  0  0  0  0  0  0  0
    1.2540    0.7429    0.0008 C   0  0  0  0  0  0  0  0  0  0  0  0
   -0.0126   -0.1162   -0.0050 C   0  0  0  0  0  0  0  0  0  0  0  0
   -6.2715    0.7393    0.0145 C   0  0  0  0  0  0  0  0  0  0  0  0
   -5.0143   -1.0008   -1.2379 C   0  0  0  0  0  0  0  0  0  0  0  0
   -5.0006   -1.0046    1.2473 C   0  0  0  0  0  0  0  0  0  0  0  0
    6.2848    0.7232    0.0649 C   0  0  0  0  0  0  0  0  0  0  0  0
    4.9913   -1.0782    1.1867 C   0  0  0  0  0  0  0  0  0  0  0  0
    5.0149   -0.9252   -1.2938 C   0  0  0  0  0  0  0  0  0  0  0  0
   -3.8094    1.3927    0.9026 H   0  0  0  0  0  0  0  0  0  0  0  0
   -3.8394    1.4253   -0.8771 H   0  0  0  0  0  0  0  0  0  0  0  0
    3.8415    1.4591   -0.8149 H   0  0  0  0  0  0  0  0  0  0  0  0
    3.8440    1.3772    0.9639 H   0  0  0  0  0  0  0  0  0  0  0  0
   -2.4917   -0.6993   -0.9554 H   0  0  0  0  0  0  0  0  0  0  0  0
   -2.4881   -0.7852    0.8110 H   0  0  0  0  0  0  0  0  0  0  0  0
    2.5098   -0.7152   -0.8793 H   0  0  0  0  0  0  0  0  0  0  0  0
    2.4869   -0.7342    0.8857 H   0  0  0  0  0  0  0  0  0  0  0  0
   -1.2782    1.3818    0.8990 H   0  0  0  0  0  0  0  0  0  0  0  0
   -1.2572    1.4282   -0.8656 H   0  0  0  0  0  0  0  0  0  0  0  0
    1.2524    1.3970   -0.8801 H   0  0  0  0  0  0  0  0  0  0  0  0
    1.2414    1.3977    0.8812 H   0  0  0  0  0  0  0  0  0  0  0  0
   -0.0115   -0.7610   -0.8921 H   0  0  0  0  0  0  0  0  0  0  0  0
   -0.0147   -0.7730    0.8732 H   0  0  0  0  0  0  0  0  0  0  0  0
   -6.2754    1.3623   -0.8847 H   0  0  0  0  0  0  0  0  0  0  0  0
   -7.1340    0.0664    0.0195 H   0  0  0  0  0  0  0  0  0  0  0  0
   -6.2637    1.3614    0.9142 H   0  0  0  0  0  0  0  0  0  0  0  0
   -4.8493   -0.3763   -2.1206 H   0  0  0  0  0  0  0  0  0  0  0  0
   -4.2568   -1.7835   -1.1518 H   0  0  0  0  0  0  0  0  0  0  0  0
   -6.0003   -1.4738   -1.2915 H   0  0  0  0  0  0  0  0  0  0  0  0
   -4.8216   -0.3836    2.1298 H   0  0  0  0  0  0  0  0  0  0  0  0
   -5.9874   -1.4744    1.3129 H   0  0  0  0  0  0  0  0  0  0  0  0
   -4.2476   -1.7898    1.1500 H   0  0  0  0  0  0  0  0  0  0  0  0
    7.1409    0.0430    0.0301 H   0  0  0  0  0  0  0  0  0  0  0  0
    6.2968    1.4006   -0.7940 H   0  0  0  0  0  0  0  0  0  0  0  0
    6.2810    1.2886    1.0014 H   0  0  0  0  0  0  0  0  0  0  0  0
    4.2303   -1.8482    1.0388 H   0  0  0  0  0  0  0  0  0  0  0  0
    5.9728   -1.5619    1.2273 H   0  0  0  0  0  0  0  0  0  0  0  0
    4.8157   -0.5091    2.1041 H   0  0  0  0  0  0  0  0  0  0  0  0
    4.2580   -1.7118   -1.2547 H   0  0  0  0  0  0  0  0  0  0  0  0
    4.8489   -0.2489   -2.1373 H   0  0  0  0  0  0  0  0  0  0  0  0
    6.0000   -1.3955   -1.3788 H   0  0  0  0  0  0  0  0  0  0  0  0
  1  3  1  0  0  0  0
  1 10  1  0  0  0  0
  1 11  1  0  0  0  0
  1 12  1  0  0  0  0
  2  4  1  0  0  0  0
  2 13  1  0  0  0  0
  2 14  1  0  0  0  0
  2 15  1  0  0  0  0
  3  5  1  0  0  0  0
  3 16  1  0  0  0  0
  3 17  1  0  0  0  0
  4  6  1  0  0  0  0
  4 18  1  0  0  0  0
  4 19  1  0  0  0  0
  5  7  1  0  0  0  0
  5 20  1  0  0  0  0
  5 21  1  0  0  0  0
  6  8  1  0  0  0  0
  6 22  1  0  0  0  0
  6 23  1  0  0  0  0
  7  9  1  0  0  0  0
  7 24  1  0  0  0  0
  7 25  1  0  0  0  0
  8  9  1  0  0  0  0
  8 26  1  0  0  0  0
  8 27  1  0  0  0  0
  9 28  1  0  0  0  0
  9 29  1  0  0  0  0
 10 30  1  0  0  0  0
 10 31  1  0  0  0  0
 10 32  1  0  0  0  0
 11 33  1  0  0  0  0
 11 34  1  0  0  0  0
 11 35  1  0  0  0  0
 12 36  1  0  0  0  0
 12 37  1  0  0  0  0
 12 38  1  0  0  0  0
 13 39  1  0  0  0  0
 13 40  1  0  0  0  0
 13 41  1  0  0  0  0
 14 42  1  0  0  0  0
 14 43  1  0  0  0  0
 14 44  1  0  0  0  0
 15 45  1  0  0  0  0
 15 46  1  0  0  0  0
 15 47  1  0  0  0  0
M  CHG  2   1   1   2   1
M  END
> <PUBCHEM_COMPOUND_CID>
9311

> <PUBCHEM_CONFORMER_RMSD>
0.8

> <PUBCHEM_CONFORMER_DIVERSEORDER>
1
35
37
33
18
16
34
3
39
17
2
38
32
11
36
19
15
21
7
10
27
12
14
9
4
23
29
28
26
25
5
22
13
20
24
31
6
30
8

> <PUBCHEM_MMFF94_PARTIAL_CHARGES>
10
1 -1.01
10 0.5
11 0.5
12 0.5
13 0.5
14 0.5
15 0.5
2 -1.01
3 0.5
4 0.5

> <PUBCHEM_EFFECTIVE_ROTOR_COUNT>
8

> <PUBCHEM_PHARMACOPHORE_FEATURES>
3
1 1 cation
1 2 cation
5 5 6 7 8 9 hydrophobe

> <PUBCHEM_HEAVY_ATOM_COUNT>
15

> <PUBCHEM_ATOM_DEF_STEREO_COUNT>
0

> <PUBCHEM_ATOM_UDEF_STEREO_COUNT>
0

> <PUBCHEM_BOND_DEF_STEREO_COUNT>
0

> <PUBCHEM_BOND_UDEF_STEREO_COUNT>
0

> <PUBCHEM_ISOTOPIC_ATOM_COUNT>
0

> <PUBCHEM_COMPONENT_COUNT>
1

> <PUBCHEM_CACTVS_TAUTO_COUNT>
1

> <PUBCHEM_CONFORMER_ID>
0000245F00000001

> <PUBCHEM_MMFF94_ENERGY>
45.1886

> <PUBCHEM_FEATURE_SELFOVERLAP>
15.223

> <PUBCHEM_SHAPE_FINGERPRINT>
11089746 13 12895072895070472004
11287383 113 18131630058744288272
11315181 36 16370727003142796899
12091667 2 18407760331112805413
12596602 18 15574716884742432583
13533116 47 18201445822104681194
13862211 1 18410299111545035031
14123238 8 18408886239340498828
1420 363 18343015588631537003
14251718 22 16702301234839938792
14528608 73 13686294669220990022
15716309 27 18333450941202686223
17834072 33 18411984658759837336
17834076 25 10664102254904264321
17844677 252 18201715150091328813
19489759 90 14117522043203216365
20645477 70 18340206401538551894
220451 1 16917065568570971251
23035841 295 17275103934039275649
23402539 116 18261116266398625013
23559900 14 17989208092747725817
42788 4 18410293609686589121
4463277 17 18410293613981829264
49783359 22 17458065950076920199
542803 24 12607406593663035037
8209 1 18410293609697151685

> <PUBCHEM_SHAPE_MULTIPOLES>
298.73
18.63
1.12
1.03
0.13
0.11
0.03
1.65
-0.06
-0.01
-0.02
0
0.42
0

> <PUBCHEM_SHAPE_SELFOVERLAP>
537.794

> <PUBCHEM_SHAPE_VOLUME>
196.9

> <PUBCHEM_COORDINATE_TYPE>
2
5
10

$$$$

