14261
  -OEChem-06241222422D

 64 63  0     0  0  0  0  0  0999 V2000
   10.6603    0.0600    0.0000 N   0  0  0  0  0  0  0  0  0  0  0  0
   14.1244    0.0600    0.0000 C   0  0  0  0  0  0  0  0  0  0  0  0
    7.1962    0.0600    0.0000 C   0  0  0  0  0  0  0  0  0  0  0  0
   13.2583    0.5600    0.0000 C   0  0  0  0  0  0  0  0  0  0  0  0
    8.0622    0.5600    0.0000 C   0  0  0  0  0  0  0  0  0  0  0  0
   14.9904    0.5600    0.0000 C   0  0  0  0  0  0  0  0  0  0  0  0
    6.3301    0.5600    0.0000 C   0  0  0  0  0  0  0  0  0  0  0  0
   12.3923    0.0600    0.0000 C   0  0  0  0  0  0  0  0  0  0  0  0
    8.9282    0.0600    0.0000 C   0  0  0  0  0  0  0  0  0  0  0  0
   15.8564    0.0600    0.0000 C   0  0  0  0  0  0  0  0  0  0  0  0
    5.4641    0.0600    0.0000 C   0  0  0  0  0  0  0  0  0  0  0  0
   11.5263    0.5600    0.0000 C   0  0  0  0  0  0  0  0  0  0  0  0
    9.7942    0.5600    0.0000 C   0  0  0  0  0  0  0  0  0  0  0  0
   16.7224    0.5600    0.0000 C   0  0  0  0  0  0  0  0  0  0  0  0
    4.5981    0.5600    0.0000 C   0  0  0  0  0  0  0  0  0  0  0  0
    3.7320    0.0600    0.0000 C   0  0  0  0  0  0  0  0  0  0  0  0
   17.5885    0.0600    0.0000 C   0  0  0  0  0  0  0  0  0  0  0  0
   18.4545    0.5600    0.0000 C   0  0  0  0  0  0  0  0  0  0  0  0
    2.8660    0.5600    0.0000 C   0  0  0  0  0  0  0  0  0  0  0  0
   19.3205    0.0600    0.0000 C   0  0  0  0  0  0  0  0  0  0  0  0
    2.0000    0.0600    0.0000 C   0  0  0  0  0  0  0  0  0  0  0  0
   13.7258   -0.4149    0.0000 H   0  0  0  0  0  0  0  0  0  0  0  0
   14.5229   -0.4149    0.0000 H   0  0  0  0  0  0  0  0  0  0  0  0
    6.7976   -0.4149    0.0000 H   0  0  0  0  0  0  0  0  0  0  0  0
    7.5947   -0.4149    0.0000 H   0  0  0  0  0  0  0  0  0  0  0  0
    8.4607    1.0350    0.0000 H   0  0  0  0  0  0  0  0  0  0  0  0
    7.6636    1.0350    0.0000 H   0  0  0  0  0  0  0  0  0  0  0  0
   13.6569    1.0350    0.0000 H   0  0  0  0  0  0  0  0  0  0  0  0
   12.8598    1.0350    0.0000 H   0  0  0  0  0  0  0  0  0  0  0  0
   15.3889    1.0350    0.0000 H   0  0  0  0  0  0  0  0  0  0  0  0
   14.5919    1.0350    0.0000 H   0  0  0  0  0  0  0  0  0  0  0  0
    6.7287    1.0350    0.0000 H   0  0  0  0  0  0  0  0  0  0  0  0
    5.9316    1.0350    0.0000 H   0  0  0  0  0  0  0  0  0  0  0  0
   11.9938   -0.4149    0.0000 H   0  0  0  0  0  0  0  0  0  0  0  0
   12.7908   -0.4149    0.0000 H   0  0  0  0  0  0  0  0  0  0  0  0
    8.5297   -0.4149    0.0000 H   0  0  0  0  0  0  0  0  0  0  0  0
    9.3267   -0.4149    0.0000 H   0  0  0  0  0  0  0  0  0  0  0  0
   15.4579   -0.4149    0.0000 H   0  0  0  0  0  0  0  0  0  0  0  0
   16.2549   -0.4149    0.0000 H   0  0  0  0  0  0  0  0  0  0  0  0
    5.0656   -0.4149    0.0000 H   0  0  0  0  0  0  0  0  0  0  0  0
    5.8626   -0.4149    0.0000 H   0  0  0  0  0  0  0  0  0  0  0  0
   11.9248    1.0350    0.0000 H   0  0  0  0  0  0  0  0  0  0  0  0
   11.1278    1.0350    0.0000 H   0  0  0  0  0  0  0  0  0  0  0  0
   10.1928    1.0350    0.0000 H   0  0  0  0  0  0  0  0  0  0  0  0
    9.3957    1.0350    0.0000 H   0  0  0  0  0  0  0  0  0  0  0  0
    4.9966    1.0350    0.0000 H   0  0  0  0  0  0  0  0  0  0  0  0
    4.1996    1.0350    0.0000 H   0  0  0  0  0  0  0  0  0  0  0  0
   17.1210    1.0350    0.0000 H   0  0  0  0  0  0  0  0  0  0  0  0
   16.3239    1.0350    0.0000 H   0  0  0  0  0  0  0  0  0  0  0  0
   10.6603   -0.5600    0.0000 H   0  0  0  0  0  0  0  0  0  0  0  0
   17.1899   -0.4149    0.0000 H   0  0  0  0  0  0  0  0  0  0  0  0
   17.9870   -0.4149    0.0000 H   0  0  0  0  0  0  0  0  0  0  0  0
    3.3335   -0.4149    0.0000 H   0  0  0  0  0  0  0  0  0  0  0  0
    4.1306   -0.4149    0.0000 H   0  0  0  0  0  0  0  0  0  0  0  0
   18.8530    1.0350    0.0000 H   0  0  0  0  0  0  0  0  0  0  0  0
   18.0560    1.0350    0.0000 H   0  0  0  0  0  0  0  0  0  0  0  0
    3.2646    1.0350    0.0000 H   0  0  0  0  0  0  0  0  0  0  0  0
    2.4675    1.0350    0.0000 H   0  0  0  0  0  0  0  0  0  0  0  0
   19.0105   -0.4769    0.0000 H   0  0  0  0  0  0  0  0  0  0  0  0
   19.8574   -0.2500    0.0000 H   0  0  0  0  0  0  0  0  0  0  0  0
   19.6305    0.5969    0.0000 H   0  0  0  0  0  0  0  0  0  0  0  0
    1.6900    0.5969    0.0000 H   0  0  0  0  0  0  0  0  0  0  0  0
    1.4631   -0.2500    0.0000 H   0  0  0  0  0  0  0  0  0  0  0  0
    2.3100   -0.4769    0.0000 H   0  0  0  0  0  0  0  0  0  0  0  0
  1 12  1  0  0  0  0
  1 13  1  0  0  0  0
  1 50  1  0  0  0  0
  2  4  1  0  0  0  0
  2  6  1  0  0  0  0
  2 22  1  0  0  0  0
  2 23  1  0  0  0  0
  3  5  1  0  0  0  0
  3  7  1  0  0  0  0
  3 24  1  0  0  0  0
  3 25  1  0  0  0  0
  4  8  1  0  0  0  0
  4 28  1  0  0  0  0
  4 29  1  0  0  0  0
  5  9  1  0  0  0  0
  5 26  1  0  0  0  0
  5 27  1  0  0  0  0
  6 10  1  0  0  0  0
  6 30  1  0  0  0  0
  6 31  1  0  0  0  0
  7 11  1  0  0  0  0
  7 32  1  0  0  0  0
  7 33  1  0  0  0  0
  8 12  1  0  0  0  0
  8 34  1  0  0  0  0
  8 35  1  0  0  0  0
  9 13  1  0  0  0  0
  9 36  1  0  0  0  0
  9 37  1  0  0  0  0
 10 14  1  0  0  0  0
 10 38  1  0  0  0  0
 10 39  1  0  0  0  0
 11 15  1  0  0  0  0
 11 40  1  0  0  0  0
 11 41  1  0  0  0  0
 12 42  1  0  0  0  0
 12 43  1  0  0  0  0
 13 44  1  0  0  0  0
 13 45  1  0  0  0  0
 14 17  1  0  0  0  0
 14 48  1  0  0  0  0
 14 49  1  0  0  0  0
 15 16  1  0  0  0  0
 15 46  1  0  0  0  0
 15 47  1  0  0  0  0
 16 19  1  0  0  0  0
 16 53  1  0  0  0  0
 16 54  1  0  0  0  0
 17 18  1  0  0  0  0
 17 51  1  0  0  0  0
 17 52  1  0  0  0  0
 18 20  1  0  0  0  0
 18 55  1  0  0  0  0
 18 56  1  0  0  0  0
 19 21  1  0  0  0  0
 19 57  1  0  0  0  0
 19 58  1  0  0  0  0
 20 59  1  0  0  0  0
 20 60  1  0  0  0  0
 20 61  1  0  0  0  0
 21 62  1  0  0  0  0
 21 63  1  0  0  0  0
 21 64  1  0  0  0  0
M  END
> <PUBCHEM_COMPOUND_CID>
14261

> <PUBCHEM_COMPOUND_CANONICALIZED>
1

> <PUBCHEM_CACTVS_COMPLEXITY>
149

> <PUBCHEM_CACTVS_HBOND_ACCEPTOR>
1

> <PUBCHEM_CACTVS_HBOND_DONOR>
1

> <PUBCHEM_CACTVS_ROTATABLE_BOND>
18

> <PUBCHEM_CACTVS_SUBSKEYS>
AAADcfB6AAAAAAAAAAAAAAAAAAAAAAAAAAAAAAAAAAAAAAAAAAAAHAAQAAAACADBAAQCAALAAAAAAAAAAAAAAAAAAAAAAIAIAAAAAAIAgAAEAAAAEACAAAEQgIAAAAAAAAAAAAAAAAAAAAAAAAAAAAAAAA==

> <PUBCHEM_IUPAC_OPENEYE_NAME>
N-decyldecan-1-amine

> <PUBCHEM_IUPAC_CAS_NAME>
N-decyl-1-decanamine

> <PUBCHEM_IUPAC_NAME>
N-decyldecan-1-amine

> <PUBCHEM_IUPAC_SYSTEMATIC_NAME>
N-decyldecan-1-amine

> <PUBCHEM_IUPAC_TRADITIONAL_NAME>
didecylamine

> <PUBCHEM_IUPAC_INCHI>
InChI=1S/C20H43N/c1-3-5-7-9-11-13-15-17-19-21-20-18-16-14-12-10-8-6-4-2/h21H,3-20H2,1-2H3

> <PUBCHEM_IUPAC_INCHIKEY>
GMTCPFCMAHMEMT-UHFFFAOYSA-N

> <PUBCHEM_XLOGP3_AA>
8.8

> <PUBCHEM_EXACT_MASS>
297.33955

> <PUBCHEM_MOLECULAR_FORMULA>
C20H43N

> <PUBCHEM_MOLECULAR_WEIGHT>
297.56212

> <PUBCHEM_OPENEYE_CAN_SMILES>
CCCCCCCCCCNCCCCCCCCCC

> <PUBCHEM_OPENEYE_ISO_SMILES>
CCCCCCCCCCNCCCCCCCCCC

> <PUBCHEM_CACTVS_TPSA>
12

> <PUBCHEM_MONOISOTOPIC_WEIGHT>
297.33955

> <PUBCHEM_TOTAL_CHARGE>
0

> <PUBCHEM_HEAVY_ATOM_COUNT>
21

> <PUBCHEM_ATOM_DEF_STEREO_COUNT>
0

> <PUBCHEM_ATOM_UDEF_STEREO_COUNT>
0

> <PUBCHEM_BOND_DEF_STEREO_COUNT>
0

> <PUBCHEM_BOND_UDEF_STEREO_COUNT>
0

> <PUBCHEM_ISOTOPIC_ATOM_COUNT>
0

> <PUBCHEM_COMPONENT_COUNT>
1

> <PUBCHEM_CACTVS_TAUTO_COUNT>
1

> <PUBCHEM_COORDINATE_TYPE>
1
5
255

$$$$

