46173888
  -OEChem-07051213103D

 21 22  0     1  0  0  0  0  0999 V2000
   -0.0837   -1.0719   -0.1273 O   0  0  0  0  0  0  0  0  0  0  0  0
   -3.5460    1.0243    0.7785 O   0  0  0  0  0  0  0  0  0  0  0  0
    2.5690   -0.3968    0.6184 O   0  0  0  0  0  0  0  0  0  0  0  0
    4.4798    0.4615   -0.3680 O   0  0  0  0  0  0  0  0  0  0  0  0
   -1.8238    0.3797   -0.6996 N   0  0  0  0  0  0  0  0  0  0  0  0
   -1.4222   -1.0333   -0.6786 C   0  0  2  0  0  0  0  0  0  0  0  0
   -0.6649    1.2238   -0.4806 C   0  0  0  0  0  0  0  0  0  0  0  0
    0.3056    0.2765    0.2558 C   0  0  2  0  0  0  0  0  0  0  0  0
   -2.6317   -1.2945    0.2341 C   0  0  0  0  0  0  0  0  0  0  0  0
   -2.8487    0.2294    0.1900 C   0  0  0  0  0  0  0  0  0  0  0  0
    1.7569    0.5085   -0.1131 C   0  0  0  0  0  0  0  0  0  0  0  0
    3.9097   -0.3070    0.3905 C   0  0  0  0  0  0  0  0  0  0  0  0
   -1.4703   -1.5024   -1.6660 H   0  0  0  0  0  0  0  0  0  0  0  0
   -0.9121    2.1037    0.1196 H   0  0  0  0  0  0  0  0  0  0  0  0
   -0.2864    1.5226   -1.4627 H   0  0  0  0  0  0  0  0  0  0  0  0
    0.1608    0.3378    1.3410 H   0  0  0  0  0  0  0  0  0  0  0  0
   -2.3960   -1.6796    1.2292 H   0  0  0  0  0  0  0  0  0  0  0  0
   -3.4422   -1.8731   -0.2156 H   0  0  0  0  0  0  0  0  0  0  0  0
    2.0459    1.5386    0.1250 H   0  0  0  0  0  0  0  0  0  0  0  0
    1.9067    0.3248   -1.1839 H   0  0  0  0  0  0  0  0  0  0  0  0
    4.4210   -1.0567    1.0138 H   0  0  0  0  0  0  0  0  0  0  0  0
  1  6  1  0  0  0  0
  1  8  1  0  0  0  0
  2 10  2  0  0  0  0
  3 11  1  0  0  0  0
  3 12  1  0  0  0  0
  4 12  2  0  0  0  0
  5  6  1  0  0  0  0
  5  7  1  0  0  0  0
  5 10  1  0  0  0  0
  6  9  1  0  0  0  0
  6 13  1  0  0  0  0
  7  8  1  0  0  0  0
  7 14  1  0  0  0  0
  7 15  1  0  0  0  0
  8 11  1  0  0  0  0
  8 16  1  0  0  0  0
  9 10  1  0  0  0  0
  9 17  1  0  0  0  0
  9 18  1  0  0  0  0
 11 19  1  0  0  0  0
 11 20  1  0  0  0  0
 12 21  1  0  0  0  0
M  END
> <PUBCHEM_COMPOUND_CID>
46173888

> <PUBCHEM_CONFORMER_RMSD>
0.6

> <PUBCHEM_CONFORMER_DIVERSEORDER>
1
11
12
5
17
4
16
2
7
6
15
13
14
3
10
8
9

> <PUBCHEM_MMFF94_PARTIAL_CHARGES>
13
1 -0.54
10 0.58
11 0.28
12 0.66
2 -0.57
21 0.06
3 -0.43
4 -0.57
5 -0.59
6 0.48
7 0.3
8 0.28
9 0.05

> <PUBCHEM_EFFECTIVE_ROTOR_COUNT>
3.8

> <PUBCHEM_PHARMACOPHORE_FEATURES>
4
1 1 acceptor
1 2 acceptor
1 4 acceptor
7 1 5 6 7 8 9 10 rings

> <PUBCHEM_HEAVY_ATOM_COUNT>
12

> <PUBCHEM_ATOM_DEF_STEREO_COUNT>
2

> <PUBCHEM_ATOM_UDEF_STEREO_COUNT>
0

> <PUBCHEM_BOND_DEF_STEREO_COUNT>
0

> <PUBCHEM_BOND_UDEF_STEREO_COUNT>
0

> <PUBCHEM_ISOTOPIC_ATOM_COUNT>
0

> <PUBCHEM_COMPONENT_COUNT>
1

> <PUBCHEM_CACTVS_TAUTO_COUNT>
2

> <PUBCHEM_CONFORMER_ID>
02C08EC000000001

> <PUBCHEM_MMFF94_ENERGY>
35.3019

> <PUBCHEM_FEATURE_SELFOVERLAP>
20.297

> <PUBCHEM_SHAPE_FINGERPRINT>
11062470 55 16081089281528815600
12162725 195 8142084286381821546
12251169 10 18412820283571031249
124424 183 15719392845555054610
12932764 1 18059872657213805024
13024252 1 15769781264649011823
14325111 11 18412548712693907490
14445660 50 18410852165978027152
14577589 140 17603868879463136671
19422 9 18271802376442231670
200 152 10447927248160847825
20645464 45 17676201368862028311
21293036 1 9151168749110371313
23402539 116 15430040968007384289

> <PUBCHEM_SHAPE_MULTIPOLES>
218.5
6.84
1.2
0.78
6.64
0.08
0.01
-0.22
-0.95
-0.75
0.04
-0.17
-0.03
-0.32

> <PUBCHEM_SHAPE_SELFOVERLAP>
451.152

> <PUBCHEM_SHAPE_VOLUME>
124.9

> <PUBCHEM_COORDINATE_TYPE>
2
5
10

$$$$

