17396032
  -OEChem-06241222532D

 42 44  0     0  0  0  0  0  0999 V2000
    2.8660   -2.0173    0.0000 O   0  0  0  0  0  0  0  0  0  0  0  0
    8.0622   -2.0173    0.0000 O   0  0  0  0  0  0  0  0  0  0  0  0
    5.4641    0.4827    0.0000 N   0  0  0  0  0  0  0  0  0  0  0  0
    3.7320   -0.5173    0.0000 N   0  0  0  0  0  0  0  0  0  0  0  0
    8.0622    0.9827    0.0000 N   0  0  0  0  0  0  0  0  0  0  0  0
    8.9282   -0.5173    0.0000 N   0  0  0  0  0  0  0  0  0  0  0  0
    4.5981    0.9827    0.0000 C   0  0  0  0  0  0  0  0  0  0  0  0
    5.4641   -0.5173    0.0000 C   0  0  0  0  0  0  0  0  0  0  0  0
    4.5981   -1.0173    0.0000 C   0  0  0  0  0  0  0  0  0  0  0  0
    3.7320    0.4827    0.0000 C   0  0  0  0  0  0  0  0  0  0  0  0
    6.3301    0.9827    0.0000 C   0  0  0  0  0  0  0  0  0  0  0  0
    7.1962    0.4827    0.0000 C   0  0  0  0  0  0  0  0  0  0  0  0
    2.8660   -1.0173    0.0000 C   0  0  0  0  0  0  0  0  0  0  0  0
    7.1962   -0.5173    0.0000 C   0  0  0  0  0  0  0  0  0  0  0  0
    8.9282    0.4827    0.0000 C   0  0  0  0  0  0  0  0  0  0  0  0
    2.0000   -0.5173    0.0000 C   0  0  0  0  0  0  0  0  0  0  0  0
    8.0622   -1.0173    0.0000 C   0  0  0  0  0  0  0  0  0  0  0  0
    9.8222    1.0174    0.0000 C   0  0  0  0  0  0  0  0  0  0  0  0
    9.8222   -1.0520    0.0000 C   0  0  0  0  0  0  0  0  0  0  0  0
   10.7282    0.5035    0.0000 C   0  0  0  0  0  0  0  0  0  0  0  0
   10.7282   -0.5381    0.0000 C   0  0  0  0  0  0  0  0  0  0  0  0
    9.8106    2.0173    0.0000 C   0  0  0  0  0  0  0  0  0  0  0  0
    5.6762   -1.0999    0.0000 H   0  0  0  0  0  0  0  0  0  0  0  0
    6.0747   -0.4096    0.0000 H   0  0  0  0  0  0  0  0  0  0  0  0
    4.9966    1.4576    0.0000 H   0  0  0  0  0  0  0  0  0  0  0  0
    4.1996    1.4576    0.0000 H   0  0  0  0  0  0  0  0  0  0  0  0
    4.1996   -1.4922    0.0000 H   0  0  0  0  0  0  0  0  0  0  0  0
    4.9966   -1.4922    0.0000 H   0  0  0  0  0  0  0  0  0  0  0  0
    3.5200    1.0653    0.0000 H   0  0  0  0  0  0  0  0  0  0  0  0
    3.1215    0.3750    0.0000 H   0  0  0  0  0  0  0  0  0  0  0  0
    6.7287    1.4576    0.0000 H   0  0  0  0  0  0  0  0  0  0  0  0
    5.9316    1.4576    0.0000 H   0  0  0  0  0  0  0  0  0  0  0  0
    6.6592   -0.8273    0.0000 H   0  0  0  0  0  0  0  0  0  0  0  0
    2.3100    0.0196    0.0000 H   0  0  0  0  0  0  0  0  0  0  0  0
    1.4631   -0.2073    0.0000 H   0  0  0  0  0  0  0  0  0  0  0  0
    1.6900   -1.0542    0.0000 H   0  0  0  0  0  0  0  0  0  0  0  0
    9.8150   -1.6719    0.0000 H   0  0  0  0  0  0  0  0  0  0  0  0
   11.2639    0.8156    0.0000 H   0  0  0  0  0  0  0  0  0  0  0  0
   11.2639   -0.8502    0.0000 H   0  0  0  0  0  0  0  0  0  0  0  0
   10.4305    2.0245    0.0000 H   0  0  0  0  0  0  0  0  0  0  0  0
    9.8034    2.6373    0.0000 H   0  0  0  0  0  0  0  0  0  0  0  0
    9.1906    2.0101    0.0000 H   0  0  0  0  0  0  0  0  0  0  0  0
  1 13  2  0  0  0  0
  2 17  2  0  0  0  0
  3  7  1  0  0  0  0
  3  8  1  0  0  0  0
  3 11  1  0  0  0  0
  4  9  1  0  0  0  0
  4 10  1  0  0  0  0
  4 13  1  0  0  0  0
  5 12  1  0  0  0  0
  5 15  2  0  0  0  0
  6 15  1  0  0  0  0
  6 17  1  0  0  0  0
  6 19  1  0  0  0  0
  7 10  1  0  0  0  0
  7 25  1  0  0  0  0
  7 26  1  0  0  0  0
  8  9  1  0  0  0  0
  8 23  1  0  0  0  0
  8 24  1  0  0  0  0
  9 27  1  0  0  0  0
  9 28  1  0  0  0  0
 10 29  1  0  0  0  0
 10 30  1  0  0  0  0
 11 12  1  0  0  0  0
 11 31  1  0  0  0  0
 11 32  1  0  0  0  0
 12 14  2  0  0  0  0
 13 16  1  0  0  0  0
 14 17  1  0  0  0  0
 14 33  1  0  0  0  0
 15 18  1  0  0  0  0
 16 34  1  0  0  0  0
 16 35  1  0  0  0  0
 16 36  1  0  0  0  0
 18 20  2  0  0  0  0
 18 22  1  0  0  0  0
 19 21  2  0  0  0  0
 19 37  1  0  0  0  0
 20 21  1  0  0  0  0
 20 38  1  0  0  0  0
 21 39  1  0  0  0  0
 22 40  1  0  0  0  0
 22 41  1  0  0  0  0
 22 42  1  0  0  0  0
M  END
> <PUBCHEM_COMPOUND_CID>
17396032

> <PUBCHEM_COMPOUND_CANONICALIZED>
1

> <PUBCHEM_CACTVS_COMPLEXITY>
622

> <PUBCHEM_CACTVS_HBOND_ACCEPTOR>
4

> <PUBCHEM_CACTVS_HBOND_DONOR>
0

> <PUBCHEM_CACTVS_ROTATABLE_BOND>
2

> <PUBCHEM_CACTVS_SUBSKEYS>
AAADceB7sAAAAAAAAAAAAAAAAAAAAAAAAAAsQIAAAAAAAACAAAAAHgAAAAAADAjBgAQDAAMAAACoAid2dACAAAEAAgAJCAAoAFAIQAAACQAUAAAABgCAgUAAAAAAAAAAAAAAAAAAAAAAAAAAAAAAAAAAAA==

> <PUBCHEM_IUPAC_OPENEYE_NAME>
2-[(4-acetylpiperazin-1-yl)methyl]-9-methyl-pyrido[1,2-a]pyrimidin-4-one

> <PUBCHEM_IUPAC_CAS_NAME>
2-[(4-acetyl-1-piperazinyl)methyl]-9-methyl-4-pyrido[1,2-a]pyrimidinone

> <PUBCHEM_IUPAC_NAME>
2-[(4-acetylpiperazin-1-yl)methyl]-9-methylpyrido[1,2-a]pyrimidin-4-one

> <PUBCHEM_IUPAC_SYSTEMATIC_NAME>
2-[(4-ethanoylpiperazin-1-yl)methyl]-9-methyl-pyrido[1,2-a]pyrimidin-4-one

> <PUBCHEM_IUPAC_TRADITIONAL_NAME>
2-[(4-acetylpiperazino)methyl]-9-methyl-pyrido[1,2-a]pyrimidin-4-one

> <PUBCHEM_IUPAC_INCHI>
InChI=1S/C16H20N4O2/c1-12-4-3-5-20-15(22)10-14(17-16(12)20)11-18-6-8-19(9-7-18)13(2)21/h3-5,10H,6-9,11H2,1-2H3

> <PUBCHEM_IUPAC_INCHIKEY>
IAGKHAQUTUHOHZ-UHFFFAOYSA-N

> <PUBCHEM_XLOGP3_AA>
-0.4

> <PUBCHEM_EXACT_MASS>
300.158626

> <PUBCHEM_MOLECULAR_FORMULA>
C16H20N4O2

> <PUBCHEM_MOLECULAR_WEIGHT>
300.3556

> <PUBCHEM_OPENEYE_CAN_SMILES>
CC1=CC=CN2C1=NC(=CC2=O)CN3CCN(CC3)C(=O)C

> <PUBCHEM_OPENEYE_ISO_SMILES>
CC1=CC=CN2C1=NC(=CC2=O)CN3CCN(CC3)C(=O)C

> <PUBCHEM_CACTVS_TPSA>
56.2

> <PUBCHEM_MONOISOTOPIC_WEIGHT>
300.158626

> <PUBCHEM_TOTAL_CHARGE>
0

> <PUBCHEM_HEAVY_ATOM_COUNT>
22

> <PUBCHEM_ATOM_DEF_STEREO_COUNT>
0

> <PUBCHEM_ATOM_UDEF_STEREO_COUNT>
0

> <PUBCHEM_BOND_DEF_STEREO_COUNT>
0

> <PUBCHEM_BOND_UDEF_STEREO_COUNT>
0

> <PUBCHEM_ISOTOPIC_ATOM_COUNT>
0

> <PUBCHEM_COMPONENT_COUNT>
1

> <PUBCHEM_CACTVS_TAUTO_COUNT>
1

> <PUBCHEM_COORDINATE_TYPE>
1
5
255

> <PUBCHEM_BONDANNOTATIONS>
12  14  8
14  17  8
15  18  8
18  20  8
19  21  8
20  21  8
5  12  8
5  15  8
6  15  8
6  17  8
6  19  8

$$$$

