14274
  -OEChem-06241222422D

 16 15  0     0  0  0  0  0  0999 V2000
    3.7321    2.2500    0.0000 Na  0  3  0  0  0  0  0  0  0  0  0  0
    2.8660    1.7500    0.0000 O   0  5  0  0  0  0  0  0  0  0  0  0
    2.8660   -1.2500    0.0000 C   0  0  0  0  0  0  0  0  0  0  0  0
    2.0000   -0.7500    0.0000 C   0  0  0  0  0  0  0  0  0  0  0  0
    3.7321   -0.7500    0.0000 C   0  0  0  0  0  0  0  0  0  0  0  0
    2.8660   -2.2500    0.0000 C   0  0  0  0  0  0  0  0  0  0  0  0
    2.0000    0.2500    0.0000 C   0  0  0  0  0  0  0  0  0  0  0  0
    3.7321    0.2500    0.0000 C   0  0  0  0  0  0  0  0  0  0  0  0
    2.8660    0.7500    0.0000 C   0  0  0  0  0  0  0  0  0  0  0  0
    1.4631   -1.0600    0.0000 H   0  0  0  0  0  0  0  0  0  0  0  0
    4.2690   -1.0600    0.0000 H   0  0  0  0  0  0  0  0  0  0  0  0
    2.2460   -2.2500    0.0000 H   0  0  0  0  0  0  0  0  0  0  0  0
    2.8660   -2.8700    0.0000 H   0  0  0  0  0  0  0  0  0  0  0  0
    3.4860   -2.2500    0.0000 H   0  0  0  0  0  0  0  0  0  0  0  0
    1.4631    0.5600    0.0000 H   0  0  0  0  0  0  0  0  0  0  0  0
    4.2690    0.5600    0.0000 H   0  0  0  0  0  0  0  0  0  0  0  0
  2  9  1  0  0  0  0
  3  4  2  0  0  0  0
  3  5  1  0  0  0  0
  3  6  1  0  0  0  0
  4  7  1  0  0  0  0
  4 10  1  0  0  0  0
  5  8  2  0  0  0  0
  5 11  1  0  0  0  0
  6 12  1  0  0  0  0
  6 13  1  0  0  0  0
  6 14  1  0  0  0  0
  7  9  2  0  0  0  0
  7 15  1  0  0  0  0
  8  9  1  0  0  0  0
  8 16  1  0  0  0  0
M  CHG  2   1   1   2  -1
M  END
> <PUBCHEM_COMPOUND_CID>
14274

> <PUBCHEM_COMPOUND_CANONICALIZED>
1

> <PUBCHEM_CACTVS_COMPLEXITY>
62.8

> <PUBCHEM_CACTVS_HBOND_ACCEPTOR>
1

> <PUBCHEM_CACTVS_HBOND_DONOR>
0

> <PUBCHEM_CACTVS_ROTATABLE_BOND>
0

> <PUBCHEM_CACTVS_SUBSKEYS>
AAADcYBgICAAAAAAAAAAAAAAAAAAAAAAAAAwAAAAAAAAAAABAAAAGgAAAAAADASAmAAyBoAAAACAAiBCAAACAAAgIAAIiAAGCIgIJiKAERKAMAAkwBEIiAeAwAAOIAAAAAAAAABAAAAAAAAAAAAAAAAAAA==

> <PUBCHEM_IUPAC_OPENEYE_NAME>
sodium 4-methylphenolate

> <PUBCHEM_IUPAC_CAS_NAME>
sodium 4-methylphenolate

> <PUBCHEM_IUPAC_NAME>
sodium 4-methylphenolate

> <PUBCHEM_IUPAC_SYSTEMATIC_NAME>
sodium 4-methylphenolate

> <PUBCHEM_IUPAC_TRADITIONAL_NAME>
sodium 4-methylphenolate

> <PUBCHEM_IUPAC_INCHI>
InChI=1S/C7H8O.Na/c1-6-2-4-7(8)5-3-6;/h2-5,8H,1H3;/q;+1/p-1

> <PUBCHEM_IUPAC_INCHIKEY>
ZECBPBHBGNLLMU-UHFFFAOYSA-M

> <PUBCHEM_EXACT_MASS>
130.039459

> <PUBCHEM_MOLECULAR_FORMULA>
C7H7NaO

> <PUBCHEM_MOLECULAR_WEIGHT>
130.119649

> <PUBCHEM_OPENEYE_CAN_SMILES>
CC1=CC=C(C=C1)[O-].[Na+]

> <PUBCHEM_OPENEYE_ISO_SMILES>
CC1=CC=C(C=C1)[O-].[Na+]

> <PUBCHEM_CACTVS_TPSA>
23.1

> <PUBCHEM_MONOISOTOPIC_WEIGHT>
130.039459

> <PUBCHEM_TOTAL_CHARGE>
0

> <PUBCHEM_HEAVY_ATOM_COUNT>
9

> <PUBCHEM_ATOM_DEF_STEREO_COUNT>
0

> <PUBCHEM_ATOM_UDEF_STEREO_COUNT>
0

> <PUBCHEM_BOND_DEF_STEREO_COUNT>
0

> <PUBCHEM_BOND_UDEF_STEREO_COUNT>
0

> <PUBCHEM_ISOTOPIC_ATOM_COUNT>
0

> <PUBCHEM_COMPONENT_COUNT>
2

> <PUBCHEM_CACTVS_TAUTO_COUNT>
1

> <PUBCHEM_COORDINATE_TYPE>
1
5
255

> <PUBCHEM_BONDANNOTATIONS>
3  4  8
3  5  8
4  7  8
5  8  8
7  9  8
8  9  8

$$$$

