46174010
  -OEChem-07051213112D

 64 63  0     1  0  0  0  0  0999 V2000
    3.4030   -3.1270    0.0000 P   0  0  0  0  0  0  0  0  0  0  0  0
   10.3312   -0.1270    0.0000 O   0  0  0  0  0  0  0  0  0  0  0  0
    7.7331   -2.6270    0.0000 O   0  0  0  0  0  0  0  0  0  0  0  0
    5.1350   -3.1270    0.0000 O   0  0  0  0  0  0  0  0  0  0  0  0
    6.8671   -3.1270    0.0000 O   0  0  0  0  0  0  0  0  0  0  0  0
    2.5369   -3.6270    0.0000 O   0  0  0  0  0  0  0  0  0  0  0  0
    2.9030   -2.2610    0.0000 O   0  0  0  0  0  0  0  0  0  0  0  0
    3.9030   -3.9930    0.0000 O   0  0  0  0  0  0  0  0  0  0  0  0
    9.4651   -1.6270    0.0000 N   0  0  0  0  0  0  0  0  0  0  0  0
   11.1972   -2.6270    0.0000 N   0  0  0  0  0  0  0  0  0  0  0  0
    6.8671   -1.1270    0.0000 N   0  0  0  0  0  0  0  0  0  0  0  0
   10.3312    1.8730    0.0000 N   0  0  0  0  0  0  0  0  0  0  0  0
   11.1972    3.3730    0.0000 N   0  0  0  0  0  0  0  0  0  0  0  0
    9.4651    3.3730    0.0000 N   0  0  0  0  0  0  0  0  0  0  0  0
   12.0632   -1.1270    0.0000 C   0  0  3  0  0  0  0  0  0  0  0  0
   11.1972   -1.6270    0.0000 C   0  0  3  0  0  0  0  0  0  0  0  0
    8.5991   -1.1270    0.0000 C   0  0  1  0  0  0  0  0  0  0  0  0
   12.9292   -1.6270    0.0000 C   0  0  0  0  0  0  0  0  0  0  0  0
    8.5991   -0.1270    0.0000 C   0  0  0  0  0  0  0  0  0  0  0  0
   10.3312   -1.1270    0.0000 C   0  0  0  0  0  0  0  0  0  0  0  0
   12.0632   -0.1270    0.0000 C   0  0  0  0  0  0  0  0  0  0  0  0
    9.4651    0.3730    0.0000 C   0  0  0  0  0  0  0  0  0  0  0  0
    7.7331   -1.6270    0.0000 C   0  0  0  0  0  0  0  0  0  0  0  0
   13.7953   -1.1270    0.0000 C   0  0  0  0  0  0  0  0  0  0  0  0
    9.4651    1.3730    0.0000 C   0  0  0  0  0  0  0  0  0  0  0  0
    6.0010   -1.6270    0.0000 C   0  0  1  0  0  0  0  0  0  0  0  0
    5.1350   -1.1270    0.0000 C   0  0  0  0  0  0  0  0  0  0  0  0
    6.0010   -2.6270    0.0000 C   0  0  0  0  0  0  0  0  0  0  0  0
    4.2690   -1.6270    0.0000 C   0  0  0  0  0  0  0  0  0  0  0  0
    4.2690   -2.6270    0.0000 C   0  0  0  0  0  0  0  0  0  0  0  0
   10.3312    2.8730    0.0000 C   0  0  0  0  0  0  0  0  0  0  0  0
   12.6002   -0.8170    0.0000 H   0  0  0  0  0  0  0  0  0  0  0  0
   10.6603   -1.9370    0.0000 H   0  0  0  0  0  0  0  0  0  0  0  0
    8.5991   -1.7470    0.0000 H   0  0  0  0  0  0  0  0  0  0  0  0
   12.5307   -2.1019    0.0000 H   0  0  0  0  0  0  0  0  0  0  0  0
   13.3278   -2.1019    0.0000 H   0  0  0  0  0  0  0  0  0  0  0  0
    8.3871    0.4556    0.0000 H   0  0  0  0  0  0  0  0  0  0  0  0
    7.9885   -0.2346    0.0000 H   0  0  0  0  0  0  0  0  0  0  0  0
    9.4651   -2.2470    0.0000 H   0  0  0  0  0  0  0  0  0  0  0  0
   12.6832   -0.1270    0.0000 H   0  0  0  0  0  0  0  0  0  0  0  0
   12.0632    0.4930    0.0000 H   0  0  0  0  0  0  0  0  0  0  0  0
   11.4432   -0.1270    0.0000 H   0  0  0  0  0  0  0  0  0  0  0  0
    9.6772   -0.2096    0.0000 H   0  0  0  0  0  0  0  0  0  0  0  0
   10.0757    0.4807    0.0000 H   0  0  0  0  0  0  0  0  0  0  0  0
   14.1053   -1.6639    0.0000 H   0  0  0  0  0  0  0  0  0  0  0  0
   14.3322   -0.8170    0.0000 H   0  0  0  0  0  0  0  0  0  0  0  0
   13.4853   -0.5901    0.0000 H   0  0  0  0  0  0  0  0  0  0  0  0
   11.7341   -2.9370    0.0000 H   0  0  0  0  0  0  0  0  0  0  0  0
   10.6603   -2.9370    0.0000 H   0  0  0  0  0  0  0  0  0  0  0  0
    9.2531    1.9556    0.0000 H   0  0  0  0  0  0  0  0  0  0  0  0
    8.8546    1.2654    0.0000 H   0  0  0  0  0  0  0  0  0  0  0  0
    6.8671   -0.5070    0.0000 H   0  0  0  0  0  0  0  0  0  0  0  0
    6.5380   -1.9370    0.0000 H   0  0  0  0  0  0  0  0  0  0  0  0
    5.1350   -0.5070    0.0000 H   0  0  0  0  0  0  0  0  0  0  0  0
    3.7320   -1.3170    0.0000 H   0  0  0  0  0  0  0  0  0  0  0  0
    4.4810   -3.2096    0.0000 H   0  0  0  0  0  0  0  0  0  0  0  0
    4.8796   -2.5193    0.0000 H   0  0  0  0  0  0  0  0  0  0  0  0
    5.1350   -3.7470    0.0000 H   0  0  0  0  0  0  0  0  0  0  0  0
   11.1972    3.9930    0.0000 H   0  0  0  0  0  0  0  0  0  0  0  0
   11.7341    3.0630    0.0000 H   0  0  0  0  0  0  0  0  0  0  0  0
    9.4651    3.9930    0.0000 H   0  0  0  0  0  0  0  0  0  0  0  0
    8.9282    3.0630    0.0000 H   0  0  0  0  0  0  0  0  0  0  0  0
    2.2830   -2.2610    0.0000 H   0  0  0  0  0  0  0  0  0  0  0  0
    2.0000   -3.3170    0.0000 H   0  0  0  0  0  0  0  0  0  0  0  0
  1  6  1  0  0  0  0
  1  7  1  0  0  0  0
  1  8  2  0  0  0  0
  1 30  1  0  0  0  0
  2 20  2  0  0  0  0
  3 23  2  0  0  0  0
  4 28  1  0  0  0  0
  4 58  1  0  0  0  0
  5 28  2  0  0  0  0
  6 64  1  0  0  0  0
  7 63  1  0  0  0  0
 17  9  1  6  0  0  0
  9 20  1  0  0  0  0
  9 39  1  0  0  0  0
 10 16  1  0  0  0  0
 10 48  1  0  0  0  0
 10 49  1  0  0  0  0
 11 23  1  0  0  0  0
 26 11  1  6  0  0  0
 11 52  1  0  0  0  0
 12 25  1  0  0  0  0
 12 31  2  0  0  0  0
 13 31  1  0  0  0  0
 13 59  1  0  0  0  0
 13 60  1  0  0  0  0
 14 31  1  0  0  0  0
 14 61  1  0  0  0  0
 14 62  1  0  0  0  0
 15 16  1  0  0  0  0
 15 18  1  0  0  0  0
 15 21  1  0  0  0  0
 15 32  1  0  0  0  0
 16 20  1  0  0  0  0
 16 33  1  0  0  0  0
 17 19  1  0  0  0  0
 17 23  1  0  0  0  0
 17 34  1  0  0  0  0
 18 24  1  0  0  0  0
 18 35  1  0  0  0  0
 18 36  1  0  0  0  0
 19 22  1  0  0  0  0
 19 37  1  0  0  0  0
 19 38  1  0  0  0  0
 21 40  1  0  0  0  0
 21 41  1  0  0  0  0
 21 42  1  0  0  0  0
 22 25  1  0  0  0  0
 22 43  1  0  0  0  0
 22 44  1  0  0  0  0
 24 45  1  0  0  0  0
 24 46  1  0  0  0  0
 24 47  1  0  0  0  0
 25 50  1  0  0  0  0
 25 51  1  0  0  0  0
 26 27  1  0  0  0  0
 26 28  1  0  0  0  0
 26 53  1  0  0  0  0
 27 29  2  0  0  0  0
 27 54  1  0  0  0  0
 29 30  1  0  0  0  0
 29 55  1  0  0  0  0
 30 56  1  0  0  0  0
 30 57  1  0  0  0  0
M  END
> <PUBCHEM_COMPOUND_CID>
46174010

> <PUBCHEM_COMPOUND_CANONICALIZED>
1

> <PUBCHEM_CACTVS_COMPLEXITY>
720

> <PUBCHEM_CACTVS_HBOND_ACCEPTOR>
9

> <PUBCHEM_CACTVS_HBOND_DONOR>
8

> <PUBCHEM_CACTVS_ROTATABLE_BOND>
14

> <PUBCHEM_CACTVS_SUBSKEYS>
AAADcfB7uAIAAAAAAAAAAAAAAAAAAAAAAAAAAAAAAAAAAAAAAAAAHggQCCAADSjJgAQDCALAAhCoQCHSPICAAAEgAAAICIGIAAgCQBIAgSAUQAAAVgCYAAIYAQAKAAAAAAAAAAAAAAAAAAAAAAAAAAAAAA==

> <PUBCHEM_IUPAC_OPENEYE_NAME>
(Z,2S)-2-[[(2S)-2-[(2-amino-3-methyl-pentanoyl)amino]-5-guanidino-pentanoyl]amino]-5-phosphono-pent-3-enoic acid

> <PUBCHEM_IUPAC_CAS_NAME>
(Z,2S)-2-[[(2S)-2-[(2-amino-3-methyl-1-oxopentyl)amino]-5-(diaminomethylideneamino)-1-oxopentyl]amino]-5-phosphono-3-pentenoic acid

> <PUBCHEM_IUPAC_NAME>
(Z,2S)-2-[[(2S)-2-[(2-amino-3-methylpentanoyl)amino]-5-(diaminomethylideneamino)pentanoyl]amino]-5-phosphonopent-3-enoic acid

> <PUBCHEM_IUPAC_SYSTEMATIC_NAME>
(Z,2S)-2-[[(2S)-2-[(2-azanyl-3-methyl-pentanoyl)amino]-5-[bis(azanyl)methylideneamino]pentanoyl]amino]-5-phosphono-pent-3-enoic acid

> <PUBCHEM_IUPAC_TRADITIONAL_NAME>
(Z,2S)-2-[[(2S)-2-[(2-amino-3-methyl-pentanoyl)amino]-5-guanidino-pentanoyl]amino]-5-phosphono-pent-3-enoic acid

> <PUBCHEM_IUPAC_INCHI>
InChI=1S/C17H33N6O7P/c1-3-10(2)13(18)15(25)22-11(6-4-8-21-17(19)20)14(24)23-12(16(26)27)7-5-9-31(28,29)30/h5,7,10-13H,3-4,6,8-9,18H2,1-2H3,(H,22,25)(H,23,24)(H,26,27)(H4,19,20,21)(H2,28,29,30)/b7-5-/t10?,11-,12-,13?/m0/s1

> <PUBCHEM_IUPAC_INCHIKEY>
XXASIZMFBGMRJL-DMOKIVMKSA-N

> <PUBCHEM_XLOGP3_AA>
-5.1

> <PUBCHEM_EXACT_MASS>
464.214834

> <PUBCHEM_MOLECULAR_FORMULA>
C17H33N6O7P

> <PUBCHEM_MOLECULAR_WEIGHT>
464.453682

> <PUBCHEM_OPENEYE_CAN_SMILES>
CCC(C)C(C(=O)NC(CCCN=C(N)N)C(=O)NC(C=CCP(=O)(O)O)C(=O)O)N

> <PUBCHEM_OPENEYE_ISO_SMILES>
CCC(C)C(C(=O)N[C@@H](CCCN=C(N)N)C(=O)N[C@@H](/C=C\CP(=O)(O)O)C(=O)O)N

> <PUBCHEM_CACTVS_TPSA>
243

> <PUBCHEM_MONOISOTOPIC_WEIGHT>
464.214834

> <PUBCHEM_TOTAL_CHARGE>
0

> <PUBCHEM_HEAVY_ATOM_COUNT>
31

> <PUBCHEM_ATOM_DEF_STEREO_COUNT>
2

> <PUBCHEM_ATOM_UDEF_STEREO_COUNT>
2

> <PUBCHEM_BOND_DEF_STEREO_COUNT>
1

> <PUBCHEM_BOND_UDEF_STEREO_COUNT>
0

> <PUBCHEM_ISOTOPIC_ATOM_COUNT>
0

> <PUBCHEM_COMPONENT_COUNT>
1

> <PUBCHEM_CACTVS_TAUTO_COUNT>
8

> <PUBCHEM_COORDINATE_TYPE>
1
5
255

> <PUBCHEM_BONDANNOTATIONS>
16  10  3
26  11  6
15  21  3
17  9  6

$$$$

