17395935
  -OEChem-06241222533D

 49 50  0     1  0  0  0  0  0999 V2000
   -2.1795   -1.8588    1.3276 O   0  0  0  0  0  0  0  0  0  0  0  0
    0.9334    2.3056    1.1321 O   0  0  0  0  0  0  0  0  0  0  0  0
   -5.4179    1.4192   -1.6993 O   0  0  0  0  0  0  0  0  0  0  0  0
    6.1996    0.9779   -1.0573 O   0  0  0  0  0  0  0  0  0  0  0  0
   -0.2578    0.3892    0.7058 N   0  0  0  0  0  0  0  0  0  0  0  0
    2.1105   -0.8341   -0.2245 N   0  0  0  0  0  0  0  0  0  0  0  0
   -1.5201    0.9172    1.1930 C   0  0  1  0  0  0  0  0  0  0  0  0
    2.1095    0.4625    0.2191 C   0  0  0  0  0  0  0  0  0  0  0  0
    3.3937    0.9477    0.1074 C   0  0  0  0  0  0  0  0  0  0  0  0
    4.1950   -0.0938   -0.4222 C   0  0  0  0  0  0  0  0  0  0  0  0
   -2.6932    0.3253    0.4839 C   0  0  0  0  0  0  0  0  0  0  0  0
    3.3759   -1.1836   -0.6183 C   0  0  0  0  0  0  0  0  0  0  0  0
    0.9063    1.1470    0.7133 C   0  0  0  0  0  0  0  0  0  0  0  0
   -1.5783    0.7419    2.7172 C   0  0  0  0  0  0  0  0  0  0  0  0
   -2.9722   -1.0377    0.5834 C   0  0  0  0  0  0  0  0  0  0  0  0
    3.8529    2.3045    0.4728 C   0  0  0  0  0  0  0  0  0  0  0  0
   -3.5149    1.1511   -0.2830 C   0  0  0  0  0  0  0  0  0  0  0  0
    3.6611   -2.5337   -1.1425 C   0  0  0  0  0  0  0  0  0  0  0  0
    5.5999   -0.0656   -0.7165 C   0  0  0  0  0  0  0  0  0  0  0  0
   -4.6158    0.6141   -0.9504 C   0  0  0  0  0  0  0  0  0  0  0  0
   -4.0730   -1.5750   -0.0841 C   0  0  0  0  0  0  0  0  0  0  0  0
   -4.8947   -0.7491   -0.8509 C   0  0  0  0  0  0  0  0  0  0  0  0
    6.4432   -1.3370   -0.6255 C   0  0  0  0  0  0  0  0  0  0  0  0
   -2.5382   -3.2383    1.3739 C   0  0  0  0  0  0  0  0  0  0  0  0
   -6.5255    0.8035   -2.3549 C   0  0  0  0  0  0  0  0  0  0  0  0
   -1.5091    1.9996    1.0085 H   0  0  0  0  0  0  0  0  0  0  0  0
   -0.2480   -0.5759    0.3959 H   0  0  0  0  0  0  0  0  0  0  0  0
    1.3106   -1.4498   -0.2621 H   0  0  0  0  0  0  0  0  0  0  0  0
   -1.4224   -0.2932    3.0356 H   0  0  0  0  0  0  0  0  0  0  0  0
   -0.7950    1.3367    3.2013 H   0  0  0  0  0  0  0  0  0  0  0  0
   -2.5427    1.0780    3.1139 H   0  0  0  0  0  0  0  0  0  0  0  0
    4.9397    2.3657    0.5743 H   0  0  0  0  0  0  0  0  0  0  0  0
    3.4409    2.6145    1.4385 H   0  0  0  0  0  0  0  0  0  0  0  0
    3.5417    3.0301   -0.2856 H   0  0  0  0  0  0  0  0  0  0  0  0
   -3.3082    2.2152   -0.3689 H   0  0  0  0  0  0  0  0  0  0  0  0
    4.2414   -3.1219   -0.4259 H   0  0  0  0  0  0  0  0  0  0  0  0
    2.7355   -3.0872   -1.3378 H   0  0  0  0  0  0  0  0  0  0  0  0
    4.2034   -2.4822   -2.0912 H   0  0  0  0  0  0  0  0  0  0  0  0
   -4.3504   -2.6231   -0.0528 H   0  0  0  0  0  0  0  0  0  0  0  0
   -5.7328   -1.2306   -1.3432 H   0  0  0  0  0  0  0  0  0  0  0  0
    6.3644   -1.9096   -1.5514 H   0  0  0  0  0  0  0  0  0  0  0  0
    6.1434   -1.9359    0.2379 H   0  0  0  0  0  0  0  0  0  0  0  0
    7.4916   -1.0568   -0.4794 H   0  0  0  0  0  0  0  0  0  0  0  0
   -3.5160   -3.3860    1.8450 H   0  0  0  0  0  0  0  0  0  0  0  0
   -2.4753   -3.7055    0.3852 H   0  0  0  0  0  0  0  0  0  0  0  0
   -1.8012   -3.7408    2.0092 H   0  0  0  0  0  0  0  0  0  0  0  0
   -6.1961    0.0643   -3.0931 H   0  0  0  0  0  0  0  0  0  0  0  0
   -7.2366    0.3837   -1.6354 H   0  0  0  0  0  0  0  0  0  0  0  0
   -7.0536    1.5898   -2.9042 H   0  0  0  0  0  0  0  0  0  0  0  0
  1 15  1  0  0  0  0
  1 24  1  0  0  0  0
  2 13  2  0  0  0  0
  3 20  1  0  0  0  0
  3 25  1  0  0  0  0
  4 19  2  0  0  0  0
  5  7  1  0  0  0  0
  5 13  1  0  0  0  0
  5 27  1  0  0  0  0
  6  8  1  0  0  0  0
  6 12  1  0  0  0  0
  6 28  1  0  0  0  0
  7 11  1  0  0  0  0
  7 14  1  0  0  0  0
  7 26  1  0  0  0  0
  8  9  2  0  0  0  0
  8 13  1  0  0  0  0
  9 10  1  0  0  0  0
  9 16  1  0  0  0  0
 10 12  2  0  0  0  0
 10 19  1  0  0  0  0
 11 15  2  0  0  0  0
 11 17  1  0  0  0  0
 12 18  1  0  0  0  0
 14 29  1  0  0  0  0
 14 30  1  0  0  0  0
 14 31  1  0  0  0  0
 15 21  1  0  0  0  0
 16 32  1  0  0  0  0
 16 33  1  0  0  0  0
 16 34  1  0  0  0  0
 17 20  2  0  0  0  0
 17 35  1  0  0  0  0
 18 36  1  0  0  0  0
 18 37  1  0  0  0  0
 18 38  1  0  0  0  0
 19 23  1  0  0  0  0
 20 22  1  0  0  0  0
 21 22  2  0  0  0  0
 21 39  1  0  0  0  0
 22 40  1  0  0  0  0
 23 41  1  0  0  0  0
 23 42  1  0  0  0  0
 23 43  1  0  0  0  0
 24 44  1  0  0  0  0
 24 45  1  0  0  0  0
 24 46  1  0  0  0  0
 25 47  1  0  0  0  0
 25 48  1  0  0  0  0
 25 49  1  0  0  0  0
M  END
> <PUBCHEM_COMPOUND_CID>
17395935

> <PUBCHEM_CONFORMER_RMSD>
0.8

> <PUBCHEM_CONFORMER_DIVERSEORDER>
6
27
113
52
68
81
156
290
239
45
276
258
268
264
109
101
251
158
133
15
79
54
232
18
87
218
208
278
120
263
56
39
267
214
215
243
282
141
73
179
153
46
125
187
95
121
80
224
65
288
44
77
281
150
116
205
189
91
102
64
200
253
50
255
246
161
240
269
181
235
28
26
123
167
135
165
100
265
90
122
160
254
190
259
139
151
106
155
137
60
149
228
38
78
266
172
49
286
142
162
201
84
245
227
185
270
152
43
94
279
274
144
213
107
115
89
198
275
252
249
42
233
40
248
173
183
34
206
197
51
76
229
129
127
72
159
132
119
138
199
260
271
83
86
67
180
186
188
219
277
108
21
177
63
146
48
196
212
210
59
13
291
163
110
262
69
9
71
93
97
85
112
182
225
104
12
171
105
238
175
22
209
257
82
170
11
283
216
234
184
237
62
280
202
195
176
247
236
66
58
220
111
285
131
134
124
164
126
242
244
19
25
143
17
226
130
174
272
157
61
41
70
74
47
223
284
140
53
3
92
204
154
192
36
10
33
207
55
29
37
178
191
241
261
193
128
99
7
221
98
147
31
273
23
24
230
5
57
194
8
2
287
168
222
250
217
14
35
1
118
75
30
166
20
145
103
88
16
289
169
231
211
117
4
256
203
32
148
136
114
96

> <PUBCHEM_MMFF94_PARTIAL_CHARGES>
29
1 -0.36
10 -0.09
11 -0.14
12 -0.33
13 0.71
15 0.08
16 0.18
17 -0.15
18 0.18
19 0.6
2 -0.57
20 0.08
21 -0.15
22 -0.15
23 0.06
24 0.28
25 0.28
27 0.37
28 0.27
3 -0.36
35 0.15
39 0.15
4 -0.57
40 0.15
5 -0.73
6 0.03
7 0.44
8 -0.24
9 -0.18

> <PUBCHEM_EFFECTIVE_ROTOR_COUNT>
7

> <PUBCHEM_PHARMACOPHORE_FEATURES>
9
1 1 acceptor
1 2 acceptor
1 3 acceptor
1 4 acceptor
1 5 donor
1 6 cation
1 6 donor
5 6 8 9 10 12 rings
6 11 15 17 20 21 22 rings

> <PUBCHEM_HEAVY_ATOM_COUNT>
25

> <PUBCHEM_ATOM_DEF_STEREO_COUNT>
0

> <PUBCHEM_ATOM_UDEF_STEREO_COUNT>
1

> <PUBCHEM_BOND_DEF_STEREO_COUNT>
0

> <PUBCHEM_BOND_UDEF_STEREO_COUNT>
0

> <PUBCHEM_ISOTOPIC_ATOM_COUNT>
0

> <PUBCHEM_COMPONENT_COUNT>
1

> <PUBCHEM_CACTVS_TAUTO_COUNT>
28

> <PUBCHEM_CONFORMER_ID>
010970DF00000006

> <PUBCHEM_MMFF94_ENERGY>
71.7248

> <PUBCHEM_FEATURE_SELFOVERLAP>
45.672

> <PUBCHEM_SHAPE_FINGERPRINT>
10366900 7 17894629266657393362
10447042 23 18186803604103182486
105312 117 16559026099713115019
107951 10 18060142038027477155
10803635 8 18202281402932330707
10835480 77 18410859824211262052
11315181 36 18113894957721048864
11796584 16 17989205950149817802
12596602 18 14273459180127171054
12788726 201 18264775526621007761
12892183 10 7132447799727457664
12895836 83 17632302280913077085
12895837 130 16916774150518175972
13668630 136 16588027904965580101
14931854 50 18409447024425162311
15163728 17 17058388105188091799
15183329 4 18336552706976795165
15188451 53 13984669144230653205
15880784 105 15719393923428393746
1601671 61 11023828332720438698
17349148 13 15647051526077870741
1813 80 14562816513011262577
18222031 100 17748829631331835424
18608769 82 18059847317403157571
19784866 240 16153433818496050413
200 152 17603583028062418377
20645477 70 18040429971572089222
21033650 10 17417812876244091473
21120745 212 13035756481612928017
21756936 100 15769775754232598273
22393880 68 18271812289184845450
23198884 109 17704073993095287911
23559900 14 18335987467225751624
3004659 81 18409735066606899480
312425 54 6988051193020903317
339767 52 18041003963950141358
351380 3 16732707150964459565
4015057 19 18187366493642556641
4098825 35 18409164420583871009
46194498 28 18056476149858134541
474113 269 17916034650071154010
5283173 99 18343024423158283932
5385378 56 13398359009678680384
9709674 26 18266178340380862315

> <PUBCHEM_SHAPE_MULTIPOLES>
481.05
15.44
2.51
1.77
4.61
1.26
-0.26
0.74
10.55
0.45
-0.67
-2.73
-0.2
2.19

> <PUBCHEM_SHAPE_SELFOVERLAP>
1017.152

> <PUBCHEM_SHAPE_VOLUME>
271.6

> <PUBCHEM_COORDINATE_TYPE>
2
5
10

$$$$

