53025
  -OEChem-07051212523D

 53 56  0     1  0  0  0  0  0999 V2000
   -0.8739    1.1232   -2.2360 S   0  0  0  0  0  0  0  0  0  0  0  0
   -4.4739   -1.4566   -0.3751 S   0  0  0  0  0  0  0  0  0  0  0  0
    3.6249   -1.0131    1.0311 S   0  0  0  0  0  0  0  0  0  0  0  0
    5.1657    0.7941   -0.1054 S   0  0  0  0  0  0  0  0  0  0  0  0
    0.9953    4.0983   -0.3073 O   0  0  0  0  0  0  0  0  0  0  0  0
   -0.1596    2.4704    2.1563 O   0  0  0  0  0  0  0  0  0  0  0  0
   -3.3308    2.4958    2.2366 O   0  0  0  0  0  0  0  0  0  0  0  0
    2.6345    1.9727    1.3861 O   0  0  0  0  0  0  0  0  0  0  0  0
   -3.3220    0.2089    2.2325 O   0  0  0  0  0  0  0  0  0  0  0  0
    6.3503   -4.1537   -0.2476 O   0  0  0  0  0  0  0  0  0  0  0  0
    7.3031   -0.4671   -1.5194 O   0  0  0  0  0  0  0  0  0  0  0  0
    5.1096   -3.4429    1.5147 O   0  0  0  0  0  0  0  0  0  0  0  0
   -1.3992    2.0539    0.1943 N   0  0  0  0  0  0  0  0  0  0  0  0
    1.4656    1.7264   -0.5937 N   0  0  0  0  0  0  0  0  0  0  0  0
   -6.6064   -3.2053   -0.1527 N   0  0  0  0  0  0  0  0  0  0  0  0
   -7.2265   -1.1615   -0.5287 N   0  0  0  0  0  0  0  0  0  0  0  0
   -7.9454   -3.2454   -0.1948 N   0  0  0  0  0  0  0  0  0  0  0  0
   -8.3191   -1.9924   -0.4245 N   0  0  0  0  0  0  0  0  0  0  0  0
    8.4725   -2.0733   -0.3851 N   0  0  0  0  0  0  0  0  0  0  0  0
    0.4588    2.7603   -0.3187 C   0  0  2  0  0  0  0  0  0  0  0  0
   -0.8636    2.5089   -1.0759 C   0  0  1  0  0  0  0  0  0  0  0  0
   -0.3638    2.4523    0.9649 C   0  0  0  0  0  0  0  0  0  0  0  0
   -2.6011    1.4366    0.3291 C   0  0  0  0  0  0  0  0  0  0  0  0
   -3.2624    0.9352   -0.7412 C   0  0  0  0  0  0  0  0  0  0  0  0
   -2.6863    0.9245   -2.1553 C   0  0  0  0  0  0  0  0  0  0  0  0
    2.4880    1.4119    0.2960 C   0  0  0  0  0  0  0  0  0  0  0  0
   -4.6354    0.3096   -0.6848 C   0  0  0  0  0  0  0  0  0  0  0  0
   -3.1208    1.2796    1.6956 C   0  0  0  0  0  0  0  0  0  0  0  0
    1.3655    4.6180   -1.5753 C   0  0  0  0  0  0  0  0  0  0  0  0
    3.4139    0.2965   -0.2226 C   0  0  0  0  0  0  0  0  0  0  0  0
    5.1580   -0.9015    0.2370 C   0  0  0  0  0  0  0  0  0  0  0  0
   -6.1775   -1.9327   -0.3569 C   0  0  0  0  0  0  0  0  0  0  0  0
    6.0908   -1.8317    0.0224 C   0  0  0  0  0  0  0  0  0  0  0  0
    7.3245   -1.3919   -0.7107 C   0  0  0  0  0  0  0  0  0  0  0  0
    5.7955   -3.1994    0.5335 C   0  0  0  0  0  0  0  0  0  0  0  0
   -5.8489   -4.4085    0.0818 C   0  0  0  0  0  0  0  0  0  0  0  0
   -1.3626    3.4151   -1.4391 H   0  0  0  0  0  0  0  0  0  0  0  0
    1.4312    1.2203   -1.4752 H   0  0  0  0  0  0  0  0  0  0  0  0
   -2.9078   -0.0270   -2.6496 H   0  0  0  0  0  0  0  0  0  0  0  0
   -3.1558    1.7209   -2.7433 H   0  0  0  0  0  0  0  0  0  0  0  0
   -5.1745    0.4873   -1.6225 H   0  0  0  0  0  0  0  0  0  0  0  0
   -5.2348    0.7676    0.1100 H   0  0  0  0  0  0  0  0  0  0  0  0
    1.8099    5.6056   -1.4255 H   0  0  0  0  0  0  0  0  0  0  0  0
    0.4882    4.7263   -2.2184 H   0  0  0  0  0  0  0  0  0  0  0  0
    2.1062    3.9729   -2.0566 H   0  0  0  0  0  0  0  0  0  0  0  0
    3.1344   -0.0878   -1.2121 H   0  0  0  0  0  0  0  0  0  0  0  0
   -3.6790    2.4376    3.1519 H   0  0  0  0  0  0  0  0  0  0  0  0
   -5.2619   -4.2777    0.9939 H   0  0  0  0  0  0  0  0  0  0  0  0
   -6.5327   -5.2531    0.2022 H   0  0  0  0  0  0  0  0  0  0  0  0
   -5.1974   -4.5825   -0.7779 H   0  0  0  0  0  0  0  0  0  0  0  0
    9.3578   -1.8394   -0.8222 H   0  0  0  0  0  0  0  0  0  0  0  0
    8.4892   -2.8248    0.2971 H   0  0  0  0  0  0  0  0  0  0  0  0
    6.1473   -5.0575    0.0756 H   0  0  0  0  0  0  0  0  0  0  0  0
  1 21  1  0  0  0  0
  1 25  1  0  0  0  0
  2 27  1  0  0  0  0
  2 32  1  0  0  0  0
  3 30  1  0  0  0  0
  3 31  1  0  0  0  0
  4 30  1  0  0  0  0
  4 31  1  0  0  0  0
  5 20  1  0  0  0  0
  5 29  1  0  0  0  0
  6 22  2  0  0  0  0
  7 28  1  0  0  0  0
  7 47  1  0  0  0  0
  8 26  2  0  0  0  0
  9 28  2  0  0  0  0
 10 35  1  0  0  0  0
 10 53  1  0  0  0  0
 11 34  2  0  0  0  0
 12 35  2  0  0  0  0
 13 21  1  0  0  0  0
 13 22  1  0  0  0  0
 13 23  1  0  0  0  0
 14 20  1  0  0  0  0
 14 26  1  0  0  0  0
 14 38  1  0  0  0  0
 15 17  1  0  0  0  0
 15 32  1  0  0  0  0
 15 36  1  0  0  0  0
 16 18  1  0  0  0  0
 16 32  2  0  0  0  0
 17 18  2  0  0  0  0
 19 34  1  0  0  0  0
 19 51  1  0  0  0  0
 19 52  1  0  0  0  0
 20 21  1  0  0  0  0
 20 22  1  0  0  0  0
 21 37  1  0  0  0  0
 23 24  2  0  0  0  0
 23 28  1  0  0  0  0
 24 25  1  0  0  0  0
 24 27  1  0  0  0  0
 25 39  1  0  0  0  0
 25 40  1  0  0  0  0
 26 30  1  0  0  0  0
 27 41  1  0  0  0  0
 27 42  1  0  0  0  0
 29 43  1  0  0  0  0
 29 44  1  0  0  0  0
 29 45  1  0  0  0  0
 30 46  1  0  0  0  0
 31 33  2  0  0  0  0
 33 34  1  0  0  0  0
 33 35  1  0  0  0  0
 36 48  1  0  0  0  0
 36 49  1  0  0  0  0
 36 50  1  0  0  0  0
M  END
> <PUBCHEM_COMPOUND_CID>
53025

> <PUBCHEM_CONFORMER_RMSD>
1.2

> <PUBCHEM_CONFORMER_DIVERSEORDER>
1
21
16
34
18
33
31
6
38
39
37
14
24
5
19
25
32
28
3
2
13
17
4
26
22
15
36
8
9
12
20
30
29
11
27
7
35
10
23

> <PUBCHEM_MMFF94_PARTIAL_CHARGES>
40
1 -0.45
10 -0.65
11 -0.57
12 -0.57
13 -0.39
14 -0.65
15 0.31
16 -0.34
17 -0.42
19 -0.8
2 -0.29
20 0.54
21 0.44
22 0.58
23 0.12
24 -0.28
25 0.37
26 0.58
27 0.37
28 0.71
29 0.28
3 -0.29
30 0.49
31 0.11
32 0.24
33 0.06
34 0.62
35 0.71
36 0.26
38 0.37
4 -0.29
47 0.5
5 -0.54
51 0.37
52 0.37
53 0.5
6 -0.57
7 -0.65
8 -0.57
9 -0.57

> <PUBCHEM_EFFECTIVE_ROTOR_COUNT>
11.2

> <PUBCHEM_PHARMACOPHORE_FEATURES>
18
1 10 acceptor
1 11 acceptor
1 12 acceptor
1 14 donor
1 19 donor
1 33 anion
1 5 acceptor
1 6 acceptor
1 7 acceptor
1 8 acceptor
1 9 acceptor
3 10 12 35 anion
3 15 16 32 cation
3 7 9 28 anion
4 13 20 21 22 rings
4 3 4 30 31 rings
5 15 16 17 18 32 rings
6 1 13 21 23 24 25 rings

> <PUBCHEM_HEAVY_ATOM_COUNT>
36

> <PUBCHEM_ATOM_DEF_STEREO_COUNT>
2

> <PUBCHEM_ATOM_UDEF_STEREO_COUNT>
0

> <PUBCHEM_BOND_DEF_STEREO_COUNT>
0

> <PUBCHEM_BOND_UDEF_STEREO_COUNT>
0

> <PUBCHEM_ISOTOPIC_ATOM_COUNT>
0

> <PUBCHEM_COMPONENT_COUNT>
1

> <PUBCHEM_CACTVS_TAUTO_COUNT>
4

> <PUBCHEM_CONFORMER_ID>
0000CF2100000001

> <PUBCHEM_MMFF94_ENERGY>
90.5447

> <PUBCHEM_FEATURE_SELFOVERLAP>
92.001

> <PUBCHEM_SHAPE_FINGERPRINT>
10533779 1 9799415485905173855
11607047 191 16447555600998094785
117089 54 18409163346404905542
12988421 55 5472855926714817301
131258 38 17755316573288160343
13248334 5 18051131393465698917
13690498 29 18060425737543572237
13782708 43 18339930295302194551
14068700 675 18334292046597774443
14251764 30 18412832382108905807
14340393 91 17917717907155797429
15475509 35 18189904123297655793
16120349 21 18408319995854010749
16728300 4 18187086157174713471
16994733 274 10159700175245344093
19438510 23 9618962014451454177
19841028 212 18410858728793635074
20715895 44 8790890700564230542
208703 8 18259987080425251378
21344244 246 18200027331851618676
21792938 324 7778751657142530964
23522609 53 18046876499200793304
23569914 2 10565364380665873235
24180151 214 17398085185595863937
255183 451 18272654498218191557
2748736 6 9223226338843204702
2838139 119 10231454317111582956
406291 66 18261114041479484919
439807 62 18411702080187833663
4461854 278 17313104121037263262
474113 269 17968388866731509639
484985 159 18267591389143287701
5028188 123 18188474879448317124
5718773 13 18410295804647018435
6057620 51 18343858932111274982
6691757 9 17751630182122432345
7970288 3 18411705399912651726
9831232 110 18199194997010961215
9896288 288 17604701317703989465

> <PUBCHEM_SHAPE_MULTIPOLES>
674.44
22.24
5.7
1.74
1.22
1.49
-0.34
35.32
3.5
-0.64
0.17
-0.7
-1.28
-1.31

> <PUBCHEM_SHAPE_SELFOVERLAP>
1391.866

> <PUBCHEM_SHAPE_VOLUME>
389

> <PUBCHEM_COORDINATE_TYPE>
2
5
10

$$$$

