5282350
  -OEChem-07051213043D

 69 70  0     1  0  0  0  0  0999 V2000
   -1.8984   -2.2029    0.9421 O   0  0  0  0  0  0  0  0  0  0  0  0
   -4.5534    1.5552   -2.1076 O   0  0  0  0  0  0  0  0  0  0  0  0
   -0.6658   -2.7815    0.4732 C   0  0  1  0  0  0  0  0  0  0  0  0
   -0.7125   -3.0773   -1.0348 C   0  0  0  0  0  0  0  0  0  0  0  0
    0.4976   -1.8563    0.8609 C   0  0  0  0  0  0  0  0  0  0  0  0
   -1.0163   -1.8207   -1.8382 C   0  0  0  0  0  0  0  0  0  0  0  0
   -0.5087   -4.1069    1.2328 C   0  0  0  0  0  0  0  0  0  0  0  0
   -2.1485   -1.0652   -1.2078 C   0  0  0  0  0  0  0  0  0  0  0  0
   -2.5120   -1.2903    0.1251 C   0  0  0  0  0  0  0  0  0  0  0  0
    1.8469   -2.4492    0.4479 C   0  0  0  0  0  0  0  0  0  0  0  0
   -3.5723   -0.5789    0.6940 C   0  0  0  0  0  0  0  0  0  0  0  0
   -2.8369   -0.0956   -1.9495 C   0  0  0  0  0  0  0  0  0  0  0  0
    2.9745   -1.5213    0.8048 C   0  0  0  0  0  0  0  0  0  0  0  0
   -4.2584    0.3752   -0.0559 C   0  0  0  0  0  0  0  0  0  0  0  0
   -3.8887    0.6195   -1.3763 C   0  0  0  0  0  0  0  0  0  0  0  0
    4.1590   -1.3771    0.1785 C   0  0  0  0  0  0  0  0  0  0  0  0
   -3.9881   -0.8155    2.1100 C   0  0  0  0  0  0  0  0  0  0  0  0
    5.2699   -0.4506    0.6261 C   0  0  0  0  0  0  0  0  0  0  0  0
    5.2596    0.9157   -0.0704 C   0  0  0  0  0  0  0  0  0  0  0  0
    4.4732   -2.2105   -1.0384 C   0  0  0  0  0  0  0  0  0  0  0  0
    4.0526    1.7421    0.2790 C   0  0  0  0  0  0  0  0  0  0  0  0
    3.1234    2.2335   -0.5632 C   0  0  0  0  0  0  0  0  0  0  0  0
    1.9505    3.0848   -0.1347 C   0  0  0  0  0  0  0  0  0  0  0  0
    0.6100    2.4131   -0.4395 C   0  0  0  0  0  0  0  0  0  0  0  0
    3.2247    1.9751   -2.0434 C   0  0  0  0  0  0  0  0  0  0  0  0
   -0.5384    3.2603    0.0317 C   0  0  0  0  0  0  0  0  0  0  0  0
   -1.1801    3.1852    1.2130 C   0  0  0  0  0  0  0  0  0  0  0  0
   -2.3383    4.0984    1.5132 C   0  0  0  0  0  0  0  0  0  0  0  0
   -0.8251    2.2419    2.3273 C   0  0  0  0  0  0  0  0  0  0  0  0
    0.1874   -3.5710   -1.4131 H   0  0  0  0  0  0  0  0  0  0  0  0
   -1.5340   -3.7867   -1.2166 H   0  0  0  0  0  0  0  0  0  0  0  0
    0.4769   -1.6763    1.9449 H   0  0  0  0  0  0  0  0  0  0  0  0
    0.3692   -0.8647    0.4126 H   0  0  0  0  0  0  0  0  0  0  0  0
   -0.1341   -1.1722   -1.8876 H   0  0  0  0  0  0  0  0  0  0  0  0
   -1.2763   -2.1069   -2.8642 H   0  0  0  0  0  0  0  0  0  0  0  0
    0.3201   -4.7181    0.8637 H   0  0  0  0  0  0  0  0  0  0  0  0
   -0.3705   -3.9342    2.3065 H   0  0  0  0  0  0  0  0  0  0  0  0
   -1.4227   -4.7067    1.1403 H   0  0  0  0  0  0  0  0  0  0  0  0
    1.8557   -2.6285   -0.6279 H   0  0  0  0  0  0  0  0  0  0  0  0
    2.0319   -3.3954    0.9650 H   0  0  0  0  0  0  0  0  0  0  0  0
   -2.5482    0.0957   -2.9807 H   0  0  0  0  0  0  0  0  0  0  0  0
    2.8209   -0.9273    1.7055 H   0  0  0  0  0  0  0  0  0  0  0  0
   -5.0807    0.9368    0.3806 H   0  0  0  0  0  0  0  0  0  0  0  0
   -4.8106   -0.1579    2.4112 H   0  0  0  0  0  0  0  0  0  0  0  0
   -3.1520   -0.6247    2.7908 H   0  0  0  0  0  0  0  0  0  0  0  0
   -4.3284   -1.8483    2.2384 H   0  0  0  0  0  0  0  0  0  0  0  0
    6.2411   -0.9344    0.4636 H   0  0  0  0  0  0  0  0  0  0  0  0
    5.1995   -0.3011    1.7122 H   0  0  0  0  0  0  0  0  0  0  0  0
    5.3760    0.7615   -1.1462 H   0  0  0  0  0  0  0  0  0  0  0  0
    6.1467    1.4748    0.2530 H   0  0  0  0  0  0  0  0  0  0  0  0
    4.4133   -1.5928   -1.9404 H   0  0  0  0  0  0  0  0  0  0  0  0
    5.4910   -2.6106   -0.9681 H   0  0  0  0  0  0  0  0  0  0  0  0
    3.8226   -3.0779   -1.1706 H   0  0  0  0  0  0  0  0  0  0  0  0
   -4.1646    1.5943   -2.9983 H   0  0  0  0  0  0  0  0  0  0  0  0
    3.9453    1.9694    1.3388 H   0  0  0  0  0  0  0  0  0  0  0  0
    2.0114    4.0574   -0.6402 H   0  0  0  0  0  0  0  0  0  0  0  0
    2.0185    3.2958    0.9407 H   0  0  0  0  0  0  0  0  0  0  0  0
    0.5710    1.4166    0.0113 H   0  0  0  0  0  0  0  0  0  0  0  0
    0.4903    2.2540   -1.5182 H   0  0  0  0  0  0  0  0  0  0  0  0
    4.2551    1.9650   -2.4079 H   0  0  0  0  0  0  0  0  0  0  0  0
    2.7415    1.0266   -2.2986 H   0  0  0  0  0  0  0  0  0  0  0  0
    2.7248    2.7704   -2.6082 H   0  0  0  0  0  0  0  0  0  0  0  0
   -0.8733    4.0037   -0.6904 H   0  0  0  0  0  0  0  0  0  0  0  0
   -2.5677    4.7697    0.6789 H   0  0  0  0  0  0  0  0  0  0  0  0
   -2.1161    4.7187    2.3877 H   0  0  0  0  0  0  0  0  0  0  0  0
   -3.2381    3.5105    1.7225 H   0  0  0  0  0  0  0  0  0  0  0  0
   -1.6541    1.5525    2.5154 H   0  0  0  0  0  0  0  0  0  0  0  0
   -0.6282    2.8031    3.2469 H   0  0  0  0  0  0  0  0  0  0  0  0
    0.0654    1.6432    2.1206 H   0  0  0  0  0  0  0  0  0  0  0  0
  1  3  1  0  0  0  0
  1  9  1  0  0  0  0
  2 15  1  0  0  0  0
  2 54  1  0  0  0  0
  3  4  1  0  0  0  0
  3  5  1  0  0  0  0
  3  7  1  0  0  0  0
  4  6  1  0  0  0  0
  4 30  1  0  0  0  0
  4 31  1  0  0  0  0
  5 10  1  0  0  0  0
  5 32  1  0  0  0  0
  5 33  1  0  0  0  0
  6  8  1  0  0  0  0
  6 34  1  0  0  0  0
  6 35  1  0  0  0  0
  7 36  1  0  0  0  0
  7 37  1  0  0  0  0
  7 38  1  0  0  0  0
  8  9  2  0  0  0  0
  8 12  1  0  0  0  0
  9 11  1  0  0  0  0
 10 13  1  0  0  0  0
 10 39  1  0  0  0  0
 10 40  1  0  0  0  0
 11 14  2  0  0  0  0
 11 17  1  0  0  0  0
 12 15  2  0  0  0  0
 12 41  1  0  0  0  0
 13 16  2  0  0  0  0
 13 42  1  0  0  0  0
 14 15  1  0  0  0  0
 14 43  1  0  0  0  0
 16 18  1  0  0  0  0
 16 20  1  0  0  0  0
 17 44  1  0  0  0  0
 17 45  1  0  0  0  0
 17 46  1  0  0  0  0
 18 19  1  0  0  0  0
 18 47  1  0  0  0  0
 18 48  1  0  0  0  0
 19 21  1  0  0  0  0
 19 49  1  0  0  0  0
 19 50  1  0  0  0  0
 20 51  1  0  0  0  0
 20 52  1  0  0  0  0
 20 53  1  0  0  0  0
 21 22  2  0  0  0  0
 21 55  1  0  0  0  0
 22 23  1  0  0  0  0
 22 25  1  0  0  0  0
 23 24  1  0  0  0  0
 23 56  1  0  0  0  0
 23 57  1  0  0  0  0
 24 26  1  0  0  0  0
 24 58  1  0  0  0  0
 24 59  1  0  0  0  0
 25 60  1  0  0  0  0
 25 61  1  0  0  0  0
 25 62  1  0  0  0  0
 26 27  2  0  0  0  0
 26 63  1  0  0  0  0
 27 28  1  0  0  0  0
 27 29  1  0  0  0  0
 28 64  1  0  0  0  0
 28 65  1  0  0  0  0
 28 66  1  0  0  0  0
 29 67  1  0  0  0  0
 29 68  1  0  0  0  0
 29 69  1  0  0  0  0
M  END
> <PUBCHEM_COMPOUND_CID>
5282350

> <PUBCHEM_CONFORMER_RMSD>
1.4

> <PUBCHEM_CONFORMER_DIVERSEORDER>
1
62
95
19
74
65
107
91
112
14
45
81
29
70
117
17
12
87
63
80
4
15
111
101
47
22
76
106
85
78
44
71
75
115
25
116
50
38
23
84
41
77
97
114
58
51
35
98
33
100
59
40
16
113
105
2
20
72
83
104
48
56
30
13
32
31
108
57
27
110
94
46
5
103
39
69
34
10
21
99
82
26
96
3
86
61
55
18
8
68
43
36
24
60
73
7
53
90
28
67
66
54
49
6
109
92
42
88
64
11
93
9
102
52
79
89
37

> <PUBCHEM_MMFF94_PARTIAL_CHARGES>
32
1 -0.36
10 0.14
11 -0.14
12 -0.15
13 -0.29
14 -0.15
15 0.08
16 -0.28
17 0.14
18 0.14
19 0.14
2 -0.53
20 0.14
21 -0.29
22 -0.28
23 0.14
24 0.14
25 0.14
26 -0.29
27 -0.28
28 0.14
29 0.14
3 0.28
41 0.15
42 0.15
43 0.15
54 0.45
55 0.15
6 0.14
63 0.15
8 -0.14
9 0.08

> <PUBCHEM_EFFECTIVE_ROTOR_COUNT>
9.8

> <PUBCHEM_PHARMACOPHORE_FEATURES>
9
1 1 acceptor
1 2 donor
1 20 hydrophobe
1 25 hydrophobe
3 27 28 29 hydrophobe
4 16 18 19 21 hydrophobe
4 22 23 24 26 hydrophobe
6 1 3 4 6 8 9 rings
6 8 9 11 12 14 15 rings

> <PUBCHEM_HEAVY_ATOM_COUNT>
29

> <PUBCHEM_ATOM_DEF_STEREO_COUNT>
1

> <PUBCHEM_ATOM_UDEF_STEREO_COUNT>
0

> <PUBCHEM_BOND_DEF_STEREO_COUNT>
2

> <PUBCHEM_BOND_UDEF_STEREO_COUNT>
0

> <PUBCHEM_ISOTOPIC_ATOM_COUNT>
0

> <PUBCHEM_COMPONENT_COUNT>
1

> <PUBCHEM_CACTVS_TAUTO_COUNT>
9

> <PUBCHEM_CONFORMER_ID>
00509A2E00000001

> <PUBCHEM_MMFF94_ENERGY>
58.3147

> <PUBCHEM_FEATURE_SELFOVERLAP>
45.709

> <PUBCHEM_SHAPE_FINGERPRINT>
10074138 170 15178733605076601146
10708813 3 18193558002527058376
107951 10 17131567097775306321
10871710 139 18189902104921255553
11513181 2 17896320401255772806
12156800 1 17686295005663766397
12422481 6 17973693013133100041
12788726 201 18114452410037904920
13122387 1 17834680778901940796
13165054 235 17757857876022020493
1361 2 16323458263161713484
14117953 113 16824753067663566508
14251757 17 18060146431113804424
14840074 17 18260540152069787345
15297060 5 17389388422112310336
20567600 299 18118689816661478768
20764821 26 17834111940453781616
23227448 37 18341614750615134726
25265897 201 16808726134978548114
3027735 51 18335415820137713369
3298306 158 18342186518457616205
338550 245 18341037618901163608
354706 35 17402642660896934669
437795 70 17755002431423557030
463206 1 18338516327185321440
469060 322 17203030998109101926
5081480 168 17970885947373962662
508706 21 17916877815341140750
7226269 152 18263649481065195080

> <PUBCHEM_SHAPE_MULTIPOLES>
585.07
9.55
5.41
1.99
6.87
1.49
-0.25
0.91
-1.25
-0.14
1.6
-1.77
0.39
-0.67

> <PUBCHEM_SHAPE_SELFOVERLAP>
1187.951

> <PUBCHEM_SHAPE_VOLUME>
341.7

> <PUBCHEM_COORDINATE_TYPE>
2
5
10

$$$$

