3650
  -OEChem-06251223343D

 15 15  0     1  0  0  0  0  0999 V2000
   -2.4208    0.4460   -0.3737 F   0  0  0  0  0  0  0  0  0  0  0  0
   -0.5277    1.6751    1.1478 O   0  0  0  0  0  0  0  0  0  0  0  0
   -1.4323   -1.9758    0.3488 O   0  0  0  0  0  0  0  0  0  0  0  0
    2.8833   -0.3814   -0.0577 O   0  0  0  0  0  0  0  0  0  0  0  0
    1.1364    1.0791   -0.3724 N   0  0  0  0  0  0  0  0  0  0  0  0
    0.7273   -1.1581    0.2090 N   0  0  0  0  0  0  0  0  0  0  0  0
   -0.2712    1.3720   -0.2182 C   0  0  1  0  0  0  0  0  0  0  0  0
   -1.1136    0.1875   -0.6461 C   0  0  1  0  0  0  0  0  0  0  0  0
   -0.6524   -1.0801    0.0334 C   0  0  0  0  0  0  0  0  0  0  0  0
    1.6709   -0.1642   -0.0710 C   0  0  0  0  0  0  0  0  0  0  0  0
   -0.5129    2.2585   -0.8125 H   0  0  0  0  0  0  0  0  0  0  0  0
   -1.0257    0.0252   -1.7267 H   0  0  0  0  0  0  0  0  0  0  0  0
    1.7728    1.8417   -0.5828 H   0  0  0  0  0  0  0  0  0  0  0  0
    1.0903   -2.0418    0.5558 H   0  0  0  0  0  0  0  0  0  0  0  0
    0.1410    2.3265    1.4191 H   0  0  0  0  0  0  0  0  0  0  0  0
  1  8  1  0  0  0  0
  2  7  1  0  0  0  0
  2 15  1  0  0  0  0
  3  9  2  0  0  0  0
  4 10  2  0  0  0  0
  5  7  1  0  0  0  0
  5 10  1  0  0  0  0
  5 13  1  0  0  0  0
  6  9  1  0  0  0  0
  6 10  1  0  0  0  0
  6 14  1  0  0  0  0
  7  8  1  0  0  0  0
  7 11  1  0  0  0  0
  8  9  1  0  0  0  0
  8 12  1  0  0  0  0
M  END
> <PUBCHEM_COMPOUND_CID>
3650

> <PUBCHEM_CONFORMER_RMSD>
0.4

> <PUBCHEM_CONFORMER_DIVERSEORDER>
2
1
5
4
3
6

> <PUBCHEM_MMFF94_PARTIAL_CHARGES>
13
1 -0.34
10 0.69
13 0.37
14 0.37
15 0.4
2 -0.68
3 -0.57
4 -0.57
5 -0.73
6 -0.49
7 0.58
8 0.4
9 0.57

> <PUBCHEM_EFFECTIVE_ROTOR_COUNT>
0.8

> <PUBCHEM_PHARMACOPHORE_FEATURES>
7
1 2 acceptor
1 2 donor
1 3 acceptor
1 4 acceptor
1 5 donor
1 6 donor
6 5 6 7 8 9 10 rings

> <PUBCHEM_HEAVY_ATOM_COUNT>
10

> <PUBCHEM_ATOM_DEF_STEREO_COUNT>
0

> <PUBCHEM_ATOM_UDEF_STEREO_COUNT>
2

> <PUBCHEM_BOND_DEF_STEREO_COUNT>
0

> <PUBCHEM_BOND_UDEF_STEREO_COUNT>
0

> <PUBCHEM_ISOTOPIC_ATOM_COUNT>
0

> <PUBCHEM_COMPONENT_COUNT>
1

> <PUBCHEM_CACTVS_TAUTO_COUNT>
5

> <PUBCHEM_CONFORMER_ID>
00000E4200000002

> <PUBCHEM_MMFF94_ENERGY>
13.2563

> <PUBCHEM_FEATURE_SELFOVERLAP>
35.605

> <PUBCHEM_SHAPE_FINGERPRINT>
12423570 1 17266105298406120573
13024252 1 14476952424139983340
15310529 11 16415203424547843356
16945 1 18343310278990515404
18185500 45 18342742931175270654
21040471 1 18269843162638114204
23235685 24 18339085994018856340
23552423 10 17987799588403402446
241688 4 17618505823175924722
2748010 2 18268150842465380694
29004967 10 17894628106826221502
5084963 1 17975706300379904630

> <PUBCHEM_SHAPE_MULTIPOLES>
170.95
2.64
1.76
0.76
1.11
0.15
-0.09
0.4
0.25
-0.56
-0.34
-0.13
-0.21
0.01

> <PUBCHEM_SHAPE_SELFOVERLAP>
351.024

> <PUBCHEM_SHAPE_VOLUME>
96.9

> <PUBCHEM_COORDINATE_TYPE>
2
5
10

$$$$

