5281772
  -OEChem-07051212592D

 35 36  0     0  0  0  0  0  0999 V2000
   10.7404    0.3047    0.0000 O   0  0  0  0  0  0  0  0  0  0  0  0
   10.7404   -1.3047    0.0000 O   0  0  0  0  0  0  0  0  0  0  0  0
    5.4641    1.5000    0.0000 O   0  0  0  0  0  0  0  0  0  0  0  0
    4.5981    0.0000    0.0000 N   0  0  0  0  0  0  0  0  0  0  0  0
    2.8660    0.0000    0.0000 C   0  0  0  0  0  0  0  0  0  0  0  0
    3.7320    0.5000    0.0000 C   0  0  0  0  0  0  0  0  0  0  0  0
    2.0000    0.5000    0.0000 C   0  0  0  0  0  0  0  0  0  0  0  0
    2.8660   -1.0000    0.0000 C   0  0  0  0  0  0  0  0  0  0  0  0
    9.7942    0.0000    0.0000 C   0  0  0  0  0  0  0  0  0  0  0  0
    8.0622    0.0000    0.0000 C   0  0  0  0  0  0  0  0  0  0  0  0
    9.7942   -1.0000    0.0000 C   0  0  0  0  0  0  0  0  0  0  0  0
    8.9282    0.5000    0.0000 C   0  0  0  0  0  0  0  0  0  0  0  0
    5.4641    0.5000    0.0000 C   0  0  0  0  0  0  0  0  0  0  0  0
    8.0622   -1.0000    0.0000 C   0  0  0  0  0  0  0  0  0  0  0  0
    8.9282   -1.5000    0.0000 C   0  0  0  0  0  0  0  0  0  0  0  0
    7.1962    0.5000    0.0000 C   0  0  0  0  0  0  0  0  0  0  0  0
    6.3301    0.0000    0.0000 C   0  0  0  0  0  0  0  0  0  0  0  0
   11.3241   -0.5000    0.0000 C   0  0  0  0  0  0  0  0  0  0  0  0
    2.8660    0.6200    0.0000 H   0  0  0  0  0  0  0  0  0  0  0  0
    4.1306    0.9749    0.0000 H   0  0  0  0  0  0  0  0  0  0  0  0
    3.3335    0.9749    0.0000 H   0  0  0  0  0  0  0  0  0  0  0  0
    2.2460   -1.0000    0.0000 H   0  0  0  0  0  0  0  0  0  0  0  0
    2.8660   -1.6200    0.0000 H   0  0  0  0  0  0  0  0  0  0  0  0
    3.4860   -1.0000    0.0000 H   0  0  0  0  0  0  0  0  0  0  0  0
    2.3100    1.0369    0.0000 H   0  0  0  0  0  0  0  0  0  0  0  0
    1.4631    0.8100    0.0000 H   0  0  0  0  0  0  0  0  0  0  0  0
    1.6900   -0.0369    0.0000 H   0  0  0  0  0  0  0  0  0  0  0  0
    4.5981   -0.6200    0.0000 H   0  0  0  0  0  0  0  0  0  0  0  0
    8.9282    1.1200    0.0000 H   0  0  0  0  0  0  0  0  0  0  0  0
    7.5252   -1.3100    0.0000 H   0  0  0  0  0  0  0  0  0  0  0  0
    8.9282   -2.1200    0.0000 H   0  0  0  0  0  0  0  0  0  0  0  0
    7.1962    1.1200    0.0000 H   0  0  0  0  0  0  0  0  0  0  0  0
   11.7849   -0.9147    0.0000 H   0  0  0  0  0  0  0  0  0  0  0  0
   11.7849   -0.0853    0.0000 H   0  0  0  0  0  0  0  0  0  0  0  0
    6.3301   -0.6200    0.0000 H   0  0  0  0  0  0  0  0  0  0  0  0
  1  9  1  0  0  0  0
  1 18  1  0  0  0  0
  2 11  1  0  0  0  0
  2 18  1  0  0  0  0
  3 13  2  0  0  0  0
  4  6  1  0  0  0  0
  4 13  1  0  0  0  0
  4 28  1  0  0  0  0
  5  6  1  0  0  0  0
  5  7  1  0  0  0  0
  5  8  1  0  0  0  0
  5 19  1  0  0  0  0
  6 20  1  0  0  0  0
  6 21  1  0  0  0  0
  7 25  1  0  0  0  0
  7 26  1  0  0  0  0
  7 27  1  0  0  0  0
  8 22  1  0  0  0  0
  8 23  1  0  0  0  0
  8 24  1  0  0  0  0
  9 11  2  0  0  0  0
  9 12  1  0  0  0  0
 10 12  2  0  0  0  0
 10 14  1  0  0  0  0
 10 16  1  0  0  0  0
 11 15  1  0  0  0  0
 12 29  1  0  0  0  0
 13 17  1  0  0  0  0
 14 15  2  0  0  0  0
 14 30  1  0  0  0  0
 15 31  1  0  0  0  0
 16 17  2  0  0  0  0
 16 32  1  0  0  0  0
 17 35  1  0  0  0  0
 18 33  1  0  0  0  0
 18 34  1  0  0  0  0
M  END
> <PUBCHEM_COMPOUND_CID>
5281772

> <PUBCHEM_COMPOUND_CANONICALIZED>
1

> <PUBCHEM_CACTVS_COMPLEXITY>
314

> <PUBCHEM_CACTVS_HBOND_ACCEPTOR>
3

> <PUBCHEM_CACTVS_HBOND_DONOR>
1

> <PUBCHEM_CACTVS_ROTATABLE_BOND>
4

> <PUBCHEM_CACTVS_SUBSKEYS>
AAADceByMAAAAAAAAAAAAAAAAAAAASAAAAAwAAAAAAAAAEgBAAAAHgAQAAAADQTBmAcyDoLABACIAiFSEACCCAAgIAAIiIAOiMgdJiKEMRqkMCIk1hGOqYeAwBAOIAABAAAAQABAAAIAAACAAAAAAAAAAA==

> <PUBCHEM_IUPAC_OPENEYE_NAME>
(E)-3-(1,3-benzodioxol-5-yl)-N-isobutyl-prop-2-enamide

> <PUBCHEM_IUPAC_CAS_NAME>
(E)-3-(1,3-benzodioxol-5-yl)-N-(2-methylpropyl)-2-propenamide

> <PUBCHEM_IUPAC_NAME>
(E)-3-(1,3-benzodioxol-5-yl)-N-(2-methylpropyl)prop-2-enamide

> <PUBCHEM_IUPAC_SYSTEMATIC_NAME>
(E)-3-(1,3-benzodioxol-5-yl)-N-(2-methylpropyl)prop-2-enamide

> <PUBCHEM_IUPAC_TRADITIONAL_NAME>
(E)-3-(1,3-benzodioxol-5-yl)-N-isobutyl-acrylamide

> <PUBCHEM_IUPAC_INCHI>
InChI=1S/C14H17NO3/c1-10(2)8-15-14(16)6-4-11-3-5-12-13(7-11)18-9-17-12/h3-7,10H,8-9H2,1-2H3,(H,15,16)/b6-4+

> <PUBCHEM_IUPAC_INCHIKEY>
WKWYNAMJWDRHBP-GQCTYLIASA-N

> <PUBCHEM_XLOGP3>
3.1

> <PUBCHEM_EXACT_MASS>
247.120843

> <PUBCHEM_MOLECULAR_FORMULA>
C14H17NO3

> <PUBCHEM_MOLECULAR_WEIGHT>
247.28968

> <PUBCHEM_OPENEYE_CAN_SMILES>
CC(C)CNC(=O)C=CC1=CC2=C(C=C1)OCO2

> <PUBCHEM_OPENEYE_ISO_SMILES>
CC(C)CNC(=O)/C=C/C1=CC2=C(C=C1)OCO2

> <PUBCHEM_CACTVS_TPSA>
47.6

> <PUBCHEM_MONOISOTOPIC_WEIGHT>
247.120843

> <PUBCHEM_TOTAL_CHARGE>
0

> <PUBCHEM_HEAVY_ATOM_COUNT>
18

> <PUBCHEM_ATOM_DEF_STEREO_COUNT>
0

> <PUBCHEM_ATOM_UDEF_STEREO_COUNT>
0

> <PUBCHEM_BOND_DEF_STEREO_COUNT>
1

> <PUBCHEM_BOND_UDEF_STEREO_COUNT>
0

> <PUBCHEM_ISOTOPIC_ATOM_COUNT>
0

> <PUBCHEM_COMPONENT_COUNT>
1

> <PUBCHEM_CACTVS_TAUTO_COUNT>
2

> <PUBCHEM_COORDINATE_TYPE>
1
5
255

> <PUBCHEM_BONDANNOTATIONS>
10  12  8
10  14  8
11  15  8
14  15  8
9  11  8
9  12  8

$$$$

