7935
  -OEChem-07051212473D

 16 16  0     0  0  0  0  0  0999 V2000
    2.4296    1.0518   -0.0002 N   0  0  0  0  0  0  0  0  0  0  0  0
   -2.4298    1.0516   -0.0002 N   0  0  0  0  0  0  0  0  0  0  0  0
    1.2080    0.3469    0.0001 C   0  0  0  0  0  0  0  0  0  0  0  0
   -1.2080    0.3468    0.0000 C   0  0  0  0  0  0  0  0  0  0  0  0
   -0.0001    1.0443    0.0002 C   0  0  0  0  0  0  0  0  0  0  0  0
    1.2081   -1.0480   -0.0001 C   0  0  0  0  0  0  0  0  0  0  0  0
   -1.2079   -1.0480    0.0001 C   0  0  0  0  0  0  0  0  0  0  0  0
    0.0001   -1.7454    0.0000 C   0  0  0  0  0  0  0  0  0  0  0  0
   -0.0001    2.1323    0.0003 H   0  0  0  0  0  0  0  0  0  0  0  0
    2.1427   -1.6030   -0.0002 H   0  0  0  0  0  0  0  0  0  0  0  0
   -2.1425   -1.6031    0.0000 H   0  0  0  0  0  0  0  0  0  0  0  0
    0.0001   -2.8315   -0.0002 H   0  0  0  0  0  0  0  0  0  0  0  0
    3.3056    0.5464    0.0003 H   0  0  0  0  0  0  0  0  0  0  0  0
    2.4306    2.0632    0.0006 H   0  0  0  0  0  0  0  0  0  0  0  0
   -2.4308    2.0630   -0.0009 H   0  0  0  0  0  0  0  0  0  0  0  0
   -3.3057    0.5462   -0.0010 H   0  0  0  0  0  0  0  0  0  0  0  0
  1  3  1  0  0  0  0
  1 13  1  0  0  0  0
  1 14  1  0  0  0  0
  2  4  1  0  0  0  0
  2 15  1  0  0  0  0
  2 16  1  0  0  0  0
  3  5  2  0  0  0  0
  3  6  1  0  0  0  0
  4  5  1  0  0  0  0
  4  7  2  0  0  0  0
  5  9  1  0  0  0  0
  6  8  2  0  0  0  0
  6 10  1  0  0  0  0
  7  8  1  0  0  0  0
  7 11  1  0  0  0  0
  8 12  1  0  0  0  0
M  END
> <PUBCHEM_COMPOUND_CID>
7935

> <PUBCHEM_CONFORMER_RMSD>
0.4

> <PUBCHEM_CONFORMER_DIVERSEORDER>
1

> <PUBCHEM_MMFF94_PARTIAL_CHARGES>
16
1 -0.9
10 0.15
11 0.15
12 0.15
13 0.4
14 0.4
15 0.4
16 0.4
2 -0.9
3 0.1
4 0.1
5 -0.15
6 -0.15
7 -0.15
8 -0.15
9 0.15

> <PUBCHEM_EFFECTIVE_ROTOR_COUNT>
0

> <PUBCHEM_PHARMACOPHORE_FEATURES>
5
1 1 cation
1 1 donor
1 2 cation
1 2 donor
6 3 4 5 6 7 8 rings

> <PUBCHEM_HEAVY_ATOM_COUNT>
8

> <PUBCHEM_ATOM_DEF_STEREO_COUNT>
0

> <PUBCHEM_ATOM_UDEF_STEREO_COUNT>
0

> <PUBCHEM_BOND_DEF_STEREO_COUNT>
0

> <PUBCHEM_BOND_UDEF_STEREO_COUNT>
0

> <PUBCHEM_ISOTOPIC_ATOM_COUNT>
0

> <PUBCHEM_COMPONENT_COUNT>
1

> <PUBCHEM_CACTVS_TAUTO_COUNT>
1

> <PUBCHEM_CONFORMER_ID>
00001EFF00000001

> <PUBCHEM_MMFF94_ENERGY>
38.9883

> <PUBCHEM_FEATURE_SELFOVERLAP>
25.371

> <PUBCHEM_SHAPE_FINGERPRINT>
16714656 1 18122339073720068142
18185500 45 17329146282963382763
20096714 4 18410292557461715179
21040471 1 18410573972350990752
23552423 10 18272367517277522798
241688 4 16896236716367811019
2748010 2 18410851066382126759
29004967 10 17981880053901254075

> <PUBCHEM_SHAPE_MULTIPOLES>
154.67
2.56
1.69
0.6
0
0.46
0
-1.09
0
0
0
0
0.02
0

> <PUBCHEM_SHAPE_SELFOVERLAP>
320.178

> <PUBCHEM_SHAPE_VOLUME>
89

> <PUBCHEM_COORDINATE_TYPE>
2
5
10

$$$$

