11485
  -OEChem-06261205443D

 19 19  0     0  0  0  0  0  0999 V2000
    4.1737    0.1558    0.9208 Cl  0  0  0  0  0  0  0  0  0  0  0  0
    1.8298   -1.3842   -0.2607 O   0  0  0  0  0  0  0  0  0  0  0  0
    0.7360    0.6996   -0.2227 N   0  0  0  0  0  0  0  0  0  0  0  0
   -0.6095    0.3579   -0.0835 C   0  0  0  0  0  0  0  0  0  0  0  0
   -1.5796    1.3577   -0.0129 C   0  0  0  0  0  0  0  0  0  0  0  0
   -0.9847   -0.9838   -0.0160 C   0  0  0  0  0  0  0  0  0  0  0  0
   -2.9248    1.0158    0.1253 C   0  0  0  0  0  0  0  0  0  0  0  0
   -2.3299   -1.3258    0.1220 C   0  0  0  0  0  0  0  0  0  0  0  0
   -3.3000   -0.3260    0.1927 C   0  0  0  0  0  0  0  0  0  0  0  0
    1.8421   -0.1570   -0.3100 C   0  0  0  0  0  0  0  0  0  0  0  0
    3.1469    0.5901   -0.4549 C   0  0  0  0  0  0  0  0  0  0  0  0
    0.9214    1.6990   -0.2679 H   0  0  0  0  0  0  0  0  0  0  0  0
   -1.3018    2.4074   -0.0643 H   0  0  0  0  0  0  0  0  0  0  0  0
   -0.2941   -1.8138   -0.0652 H   0  0  0  0  0  0  0  0  0  0  0  0
   -3.6803    1.7941    0.1803 H   0  0  0  0  0  0  0  0  0  0  0  0
   -2.6236   -2.3703    0.1742 H   0  0  0  0  0  0  0  0  0  0  0  0
   -4.3474   -0.5922    0.3001 H   0  0  0  0  0  0  0  0  0  0  0  0
    3.0164    1.6747   -0.4604 H   0  0  0  0  0  0  0  0  0  0  0  0
    3.6393    0.2823   -1.3813 H   0  0  0  0  0  0  0  0  0  0  0  0
  1 11  1  0  0  0  0
  2 10  2  0  0  0  0
  3  4  1  0  0  0  0
  3 10  1  0  0  0  0
  3 12  1  0  0  0  0
  4  5  2  0  0  0  0
  4  6  1  0  0  0  0
  5  7  1  0  0  0  0
  5 13  1  0  0  0  0
  6  8  2  0  0  0  0
  6 14  1  0  0  0  0
  7  9  2  0  0  0  0
  7 15  1  0  0  0  0
  8  9  1  0  0  0  0
  8 16  1  0  0  0  0
  9 17  1  0  0  0  0
 10 11  1  0  0  0  0
 11 18  1  0  0  0  0
 11 19  1  0  0  0  0
M  END
> <PUBCHEM_COMPOUND_CID>
11485

> <PUBCHEM_CONFORMER_RMSD>
0.6

> <PUBCHEM_CONFORMER_DIVERSEORDER>
1
4
3
5
2

> <PUBCHEM_MMFF94_PARTIAL_CHARGES>
17
1 -0.29
10 0.57
11 0.35
12 0.37
13 0.15
14 0.15
15 0.15
16 0.15
17 0.15
2 -0.57
3 -0.55
4 0.12
5 -0.15
6 -0.15
7 -0.15
8 -0.15
9 -0.15

> <PUBCHEM_EFFECTIVE_ROTOR_COUNT>
3

> <PUBCHEM_PHARMACOPHORE_FEATURES>
3
1 2 acceptor
1 3 donor
6 4 5 6 7 8 9 rings

> <PUBCHEM_HEAVY_ATOM_COUNT>
11

> <PUBCHEM_ATOM_DEF_STEREO_COUNT>
0

> <PUBCHEM_ATOM_UDEF_STEREO_COUNT>
0

> <PUBCHEM_BOND_DEF_STEREO_COUNT>
0

> <PUBCHEM_BOND_UDEF_STEREO_COUNT>
0

> <PUBCHEM_ISOTOPIC_ATOM_COUNT>
0

> <PUBCHEM_COMPONENT_COUNT>
1

> <PUBCHEM_CACTVS_TAUTO_COUNT>
2

> <PUBCHEM_CONFORMER_ID>
00002CDD00000001

> <PUBCHEM_MMFF94_ENERGY>
28.7508

> <PUBCHEM_FEATURE_SELFOVERLAP>
15.223

> <PUBCHEM_SHAPE_FINGERPRINT>
10608611 8 18335703866329821784
11062470 55 18410011026613396004
11132069 177 18409166614578721908
12251169 10 18343589534033636360
12932764 1 17313390032160534942
13024252 1 14692572117951471813
13380535 76 18410856568304012494
14144814 61 18412542128218970416
14325111 11 18410569630255183589
16945 1 18411129221675944309
20201158 50 18408039606570394863
20279233 1 18187363237729908406
20528008 55 18334300863606599993
20645464 45 18040435486046346519
20871998 184 18187357680485748551
23402539 116 18335430045601641215
23463225 33 18272653463183157310
23552423 10 18201431450637530671
23559900 14 18262517108768724862
2748010 2 18266731579260194679
3248919 1 17775275062884559062
369184 2 18187362155777886343
6333449 129 18335423460852319133
7364860 26 18189898810803158902

> <PUBCHEM_SHAPE_MULTIPOLES>
217.39
6.65
1.36
0.74
4.62
0.11
-0.07
-0.34
-1.28
-0.69
0.03
0.41
-0.02
0.02

> <PUBCHEM_SHAPE_SELFOVERLAP>
435.7

> <PUBCHEM_SHAPE_VOLUME>
128

> <PUBCHEM_COORDINATE_TYPE>
2
5
10

$$$$

