17396540
  -OEChem-06241222573D

 46 47  0     0  0  0  0  0  0999 V2000
    0.3704   -0.4891    0.0129 O   0  0  0  0  0  0  0  0  0  0  0  0
    6.9167    1.2081   -0.4806 O   0  0  0  0  0  0  0  0  0  0  0  0
    1.4399   -2.5146   -0.0801 O   0  0  0  0  0  0  0  0  0  0  0  0
    7.0414   -0.8293    0.5634 O   0  0  0  0  0  0  0  0  0  0  0  0
   -8.0547   -0.8663   -0.0952 O   0  0  0  0  0  0  0  0  0  0  0  0
   -1.7031    1.0899    0.0744 O   0  0  0  0  0  0  0  0  0  0  0  0
    2.8165    0.8218    0.0980 N   0  0  0  0  0  0  0  0  0  0  0  0
   -3.2552   -0.6801   -0.0316 N   0  0  0  0  0  0  0  0  0  0  0  0
    4.0404   -1.0293    0.0145 C   0  0  0  0  0  0  0  0  0  0  0  0
    4.9118    0.0860    0.0775 C   0  0  0  0  0  0  0  0  0  0  0  0
    4.1282    1.2177    0.1287 C   0  0  0  0  0  0  0  0  0  0  0  0
    2.7509   -0.5453    0.0288 C   0  0  0  0  0  0  0  0  0  0  0  0
    4.4426   -2.4501   -0.0544 C   0  0  0  0  0  0  0  0  0  0  0  0
    4.4872    2.6474    0.2041 C   0  0  0  0  0  0  0  0  0  0  0  0
    1.4901   -1.2905   -0.0182 C   0  0  0  0  0  0  0  0  0  0  0  0
    6.3475    0.0865    0.0888 C   0  0  0  0  0  0  0  0  0  0  0  0
   -0.8802   -1.1446   -0.0300 C   0  0  0  0  0  0  0  0  0  0  0  0
   -4.4925   -0.0355   -0.0110 C   0  0  0  0  0  0  0  0  0  0  0  0
   -1.9785   -0.1045    0.0133 C   0  0  0  0  0  0  0  0  0  0  0  0
   -5.6693   -0.7824   -0.0641 C   0  0  0  0  0  0  0  0  0  0  0  0
   -4.5524    1.3561    0.0628 C   0  0  0  0  0  0  0  0  0  0  0  0
   -6.9060   -0.1377   -0.0434 C   0  0  0  0  0  0  0  0  0  0  0  0
   -5.7891    2.0009    0.0834 C   0  0  0  0  0  0  0  0  0  0  0  0
   -6.9659    1.2539    0.0303 C   0  0  0  0  0  0  0  0  0  0  0  0
    8.3471    1.2736   -0.5024 C   0  0  0  0  0  0  0  0  0  0  0  0
   -9.2840   -0.1427   -0.0700 C   0  0  0  0  0  0  0  0  0  0  0  0
    2.0180    1.4415    0.1224 H   0  0  0  0  0  0  0  0  0  0  0  0
    5.4906   -2.5747   -0.3401 H   0  0  0  0  0  0  0  0  0  0  0  0
    3.8559   -2.9905   -0.8044 H   0  0  0  0  0  0  0  0  0  0  0  0
    4.2959   -2.9360    0.9157 H   0  0  0  0  0  0  0  0  0  0  0  0
    4.8692    3.0005   -0.7590 H   0  0  0  0  0  0  0  0  0  0  0  0
    3.6222    3.2667    0.4651 H   0  0  0  0  0  0  0  0  0  0  0  0
    5.2521    2.8201    0.9680 H   0  0  0  0  0  0  0  0  0  0  0  0
   -0.9746   -1.7172   -0.9595 H   0  0  0  0  0  0  0  0  0  0  0  0
   -0.9893   -1.8069    0.8360 H   0  0  0  0  0  0  0  0  0  0  0  0
   -3.2951   -1.6958   -0.0851 H   0  0  0  0  0  0  0  0  0  0  0  0
   -5.6312   -1.8678   -0.1216 H   0  0  0  0  0  0  0  0  0  0  0  0
   -3.6864    2.0015    0.1076 H   0  0  0  0  0  0  0  0  0  0  0  0
   -5.8360    3.0847    0.1410 H   0  0  0  0  0  0  0  0  0  0  0  0
   -7.8917    1.8186    0.0502 H   0  0  0  0  0  0  0  0  0  0  0  0
    8.6371    2.2125   -0.9812 H   0  0  0  0  0  0  0  0  0  0  0  0
    8.7537    0.4409   -1.0837 H   0  0  0  0  0  0  0  0  0  0  0  0
    8.7401    1.2622    0.5184 H   0  0  0  0  0  0  0  0  0  0  0  0
   -9.4080    0.4075    0.8690 H   0  0  0  0  0  0  0  0  0  0  0  0
   -9.3880    0.5047   -0.9474 H   0  0  0  0  0  0  0  0  0  0  0  0
  -10.0933   -0.8786   -0.1182 H   0  0  0  0  0  0  0  0  0  0  0  0
  1 15  1  0  0  0  0
  1 17  1  0  0  0  0
  2 16  1  0  0  0  0
  2 25  1  0  0  0  0
  3 15  2  0  0  0  0
  4 16  2  0  0  0  0
  5 22  1  0  0  0  0
  5 26  1  0  0  0  0
  6 19  2  0  0  0  0
  7 11  1  0  0  0  0
  7 12  1  0  0  0  0
  7 27  1  0  0  0  0
  8 18  1  0  0  0  0
  8 19  1  0  0  0  0
  8 36  1  0  0  0  0
  9 10  1  0  0  0  0
  9 12  2  0  0  0  0
  9 13  1  0  0  0  0
 10 11  2  0  0  0  0
 10 16  1  0  0  0  0
 11 14  1  0  0  0  0
 12 15  1  0  0  0  0
 13 28  1  0  0  0  0
 13 29  1  0  0  0  0
 13 30  1  0  0  0  0
 14 31  1  0  0  0  0
 14 32  1  0  0  0  0
 14 33  1  0  0  0  0
 17 19  1  0  0  0  0
 17 34  1  0  0  0  0
 17 35  1  0  0  0  0
 18 20  2  0  0  0  0
 18 21  1  0  0  0  0
 20 22  1  0  0  0  0
 20 37  1  0  0  0  0
 21 23  2  0  0  0  0
 21 38  1  0  0  0  0
 22 24  2  0  0  0  0
 23 24  1  0  0  0  0
 23 39  1  0  0  0  0
 24 40  1  0  0  0  0
 25 41  1  0  0  0  0
 25 42  1  0  0  0  0
 25 43  1  0  0  0  0
 26 44  1  0  0  0  0
 26 45  1  0  0  0  0
 26 46  1  0  0  0  0
M  END
> <PUBCHEM_COMPOUND_CID>
17396540

> <PUBCHEM_CONFORMER_RMSD>
1.2

> <PUBCHEM_CONFORMER_DIVERSEORDER>
2
39
66
21
32
52
65
79
28
51
14
47
25
80
27
41
50
30
34
60
43
76
70
62
82
42
56
71
69
26
75
29
1
73
81
63
55
68
33
46
15
72
6
59
23
20
35
18
58
5
38
12
16
13
57
9
10
36
17
31
40
53
22
74
24
64
78
4
49
61
19
7
54
11
77
37
44
3
8
67
45
48

> <PUBCHEM_MMFF94_PARTIAL_CHARGES>
32
1 -0.43
10 -0.09
11 -0.33
12 -0.24
13 0.18
14 0.18
15 0.81
16 0.81
17 0.34
18 0.12
19 0.57
2 -0.43
20 -0.15
21 -0.15
22 0.08
23 -0.15
24 -0.15
25 0.28
26 0.28
27 0.27
3 -0.57
36 0.37
37 0.15
38 0.15
39 0.15
4 -0.57
40 0.15
5 -0.36
6 -0.57
7 0.03
8 -0.55
9 -0.18

> <PUBCHEM_EFFECTIVE_ROTOR_COUNT>
9

> <PUBCHEM_PHARMACOPHORE_FEATURES>
9
1 3 acceptor
1 4 acceptor
1 5 acceptor
1 6 acceptor
1 7 cation
1 7 donor
1 8 donor
5 7 9 10 11 12 rings
6 18 20 21 22 23 24 rings

> <PUBCHEM_HEAVY_ATOM_COUNT>
26

> <PUBCHEM_ATOM_DEF_STEREO_COUNT>
0

> <PUBCHEM_ATOM_UDEF_STEREO_COUNT>
0

> <PUBCHEM_BOND_DEF_STEREO_COUNT>
0

> <PUBCHEM_BOND_UDEF_STEREO_COUNT>
0

> <PUBCHEM_ISOTOPIC_ATOM_COUNT>
0

> <PUBCHEM_COMPONENT_COUNT>
1

> <PUBCHEM_CACTVS_TAUTO_COUNT>
6

> <PUBCHEM_CONFORMER_ID>
0109733C00000002

> <PUBCHEM_MMFF94_ENERGY>
65.7107

> <PUBCHEM_FEATURE_SELFOVERLAP>
45.669

> <PUBCHEM_SHAPE_FINGERPRINT>
10 15 18131350799712161699
10050765 1 18122626329675364377
10165383 225 18343301441002816332
10299344 5 18113618985024673071
10411042 1 17978229693496077130
10595046 47 18336547222329678699
10835480 77 18340210816854564285
11315181 36 18408884054257219225
11638347 137 16917071083034958803
11719270 70 18260552255599441534
11724838 91 18343584031869319991
13167372 99 18335701697270922361
13533116 47 17274549843981225731
14123256 10 18335139791495421339
14251764 18 18342176665338369748
14251764 46 17704072889098691203
14856354 85 16515406249505868701
14933364 13 18409448094288269233
15183329 4 18334294283838249713
15419008 145 18198918074858411664
15419008 47 16917076555467009165
15840311 113 18060414691594601252
16989713 51 17386861513297605487
18335252 98 18409444791643359803
19611394 137 18057311813608644115
20157964 124 18408602578394583874
21150785 3 17676206870994748103
21315763 28 18410294726937021467
22224240 67 17346880044020240322
335352 9 18410006638359612678
34797466 226 17894343380954874517
350125 39 18411420618417927548
4073 2 18131063814308891050
4325135 7 18335421262219369447
5758199 1 18201719556790753250
67123 10 18411136922219970575

> <PUBCHEM_SHAPE_MULTIPOLES>
489.89
27.66
2.14
0.62
21.58
0.13
0
6.55
1.26
-2.22
-0.01
-0.19
0.03
-0.4

> <PUBCHEM_SHAPE_SELFOVERLAP>
1036.5

> <PUBCHEM_SHAPE_VOLUME>
275.2

> <PUBCHEM_COORDINATE_TYPE>
2
5
10

$$$$

