128959
  -OEChem-07051213002D

 72 76  0     1  0  0  0  0  0999 V2000
    5.1350   -1.2126    0.0000 O   0  0  0  0  0  0  0  0  0  0  0  0
    6.0010    0.2874    0.0000 O   0  0  0  0  0  0  0  0  0  0  0  0
    2.5369    0.2874    0.0000 O   0  0  0  0  0  0  0  0  0  0  0  0
    2.5369   -1.7126    0.0000 O   0  0  0  0  0  0  0  0  0  0  0  0
    4.2690    1.2874    0.0000 O   0  0  0  0  0  0  0  0  0  0  0  0
    3.4030   -3.2126    0.0000 O   0  0  0  0  0  0  0  0  0  0  0  0
    6.8671   -1.2126    0.0000 O   0  0  0  0  0  0  0  0  0  0  0  0
    6.8671    2.7874    0.0000 O   0  0  0  0  0  0  0  0  0  0  0  0
    6.9961   -3.3796    0.0000 O   0  0  0  0  0  0  0  0  0  0  0  0
    8.3899   -4.1844    0.0000 O   0  0  0  0  0  0  0  0  0  0  0  0
   12.1292   -0.2367    0.0000 O   0  0  0  0  0  0  0  0  0  0  0  0
   12.1292    1.8116    0.0000 O   0  0  0  0  0  0  0  0  0  0  0  0
    5.1350    2.7874    0.0000 O   0  0  0  0  0  0  0  0  0  0  0  0
    3.4030   -0.2126    0.0000 C   0  0  1  0  0  0  0  0  0  0  0  0
    3.4030   -1.2126    0.0000 C   0  0  1  0  0  0  0  0  0  0  0  0
    4.2690    0.2874    0.0000 C   0  0  2  0  0  0  0  0  0  0  0  0
    4.2690   -1.7126    0.0000 C   0  0  1  0  0  0  0  0  0  0  0  0
    5.1350   -0.2126    0.0000 C   0  0  1  0  0  0  0  0  0  0  0  0
    4.2690   -2.7126    0.0000 C   0  0  0  0  0  0  0  0  0  0  0  0
    7.7331    0.2874    0.0000 C   0  0  0  0  0  0  0  0  0  0  0  0
    6.8671   -0.2126    0.0000 C   0  0  0  0  0  0  0  0  0  0  0  0
    8.5991   -0.2126    0.0000 C   0  0  0  0  0  0  0  0  0  0  0  0
    7.7331    1.2874    0.0000 C   0  0  0  0  0  0  0  0  0  0  0  0
    9.4651    0.2874    0.0000 C   0  0  0  0  0  0  0  0  0  0  0  0
    9.4651    1.2874    0.0000 C   0  0  0  0  0  0  0  0  0  0  0  0
    8.5991   -1.2126    0.0000 C   0  0  0  0  0  0  0  0  0  0  0  0
    8.5991    1.7874    0.0000 C   0  0  0  0  0  0  0  0  0  0  0  0
    6.8671    1.7874    0.0000 C   0  0  0  0  0  0  0  0  0  0  0  0
   10.3591   -0.2472    0.0000 C   0  0  0  0  0  0  0  0  0  0  0  0
   10.3591    1.8221    0.0000 C   0  0  0  0  0  0  0  0  0  0  0  0
    7.7331   -1.7126    0.0000 C   0  0  0  0  0  0  0  0  0  0  0  0
    9.4651   -1.7126    0.0000 C   0  0  0  0  0  0  0  0  0  0  0  0
   11.2651    0.2666    0.0000 C   0  0  0  0  0  0  0  0  0  0  0  0
   11.2651    1.3082    0.0000 C   0  0  0  0  0  0  0  0  0  0  0  0
    7.7331   -2.7126    0.0000 C   0  0  0  0  0  0  0  0  0  0  0  0
    8.5991   -3.2126    0.0000 C   0  0  0  0  0  0  0  0  0  0  0  0
    9.4651   -2.7126    0.0000 C   0  0  0  0  0  0  0  0  0  0  0  0
    7.4012   -4.2874    0.0000 C   0  0  0  0  0  0  0  0  0  0  0  0
    6.0010    3.2874    0.0000 C   0  0  0  0  0  0  0  0  0  0  0  0
   12.9972    0.2599    0.0000 C   0  0  0  0  0  0  0  0  0  0  0  0
   12.1254    2.8116    0.0000 C   0  0  0  0  0  0  0  0  0  0  0  0
    6.0010    4.2874    0.0000 C   0  0  0  0  0  0  0  0  0  0  0  0
    3.4030    0.4074    0.0000 H   0  0  0  0  0  0  0  0  0  0  0  0
    3.4030   -1.8326    0.0000 H   0  0  0  0  0  0  0  0  0  0  0  0
    4.8059    0.5974    0.0000 H   0  0  0  0  0  0  0  0  0  0  0  0
    4.8059   -2.0226    0.0000 H   0  0  0  0  0  0  0  0  0  0  0  0
    5.1350    0.4074    0.0000 H   0  0  0  0  0  0  0  0  0  0  0  0
    4.4810   -3.2952    0.0000 H   0  0  0  0  0  0  0  0  0  0  0  0
    4.8796   -2.6049    0.0000 H   0  0  0  0  0  0  0  0  0  0  0  0
    2.0000   -0.0226    0.0000 H   0  0  0  0  0  0  0  0  0  0  0  0
    2.0000   -1.4026    0.0000 H   0  0  0  0  0  0  0  0  0  0  0  0
    3.7320    1.5974    0.0000 H   0  0  0  0  0  0  0  0  0  0  0  0
    3.4030   -3.8326    0.0000 H   0  0  0  0  0  0  0  0  0  0  0  0
    8.5991    2.4074    0.0000 H   0  0  0  0  0  0  0  0  0  0  0  0
    6.2565    1.8951    0.0000 H   0  0  0  0  0  0  0  0  0  0  0  0
    6.6550    1.2048    0.0000 H   0  0  0  0  0  0  0  0  0  0  0  0
   10.3519   -0.8672    0.0000 H   0  0  0  0  0  0  0  0  0  0  0  0
   10.3519    2.4421    0.0000 H   0  0  0  0  0  0  0  0  0  0  0  0
    7.1962   -1.4026    0.0000 H   0  0  0  0  0  0  0  0  0  0  0  0
   10.0021   -1.4026    0.0000 H   0  0  0  0  0  0  0  0  0  0  0  0
   10.0021   -3.0226    0.0000 H   0  0  0  0  0  0  0  0  0  0  0  0
    6.8116   -4.4792    0.0000 H   0  0  0  0  0  0  0  0  0  0  0  0
    7.5299   -4.8939    0.0000 H   0  0  0  0  0  0  0  0  0  0  0  0
   13.3051   -0.2782    0.0000 H   0  0  0  0  0  0  0  0  0  0  0  0
   13.5353    0.5679    0.0000 H   0  0  0  0  0  0  0  0  0  0  0  0
   12.6893    0.7981    0.0000 H   0  0  0  0  0  0  0  0  0  0  0  0
   12.7454    2.8140    0.0000 H   0  0  0  0  0  0  0  0  0  0  0  0
   12.1230    3.4316    0.0000 H   0  0  0  0  0  0  0  0  0  0  0  0
   11.5054    2.8092    0.0000 H   0  0  0  0  0  0  0  0  0  0  0  0
    6.6210    4.2874    0.0000 H   0  0  0  0  0  0  0  0  0  0  0  0
    6.0010    4.9074    0.0000 H   0  0  0  0  0  0  0  0  0  0  0  0
    5.3810    4.2874    0.0000 H   0  0  0  0  0  0  0  0  0  0  0  0
  1 17  1  0  0  0  0
  1 18  1  0  0  0  0
 18  2  1  6  0  0  0
  2 21  1  0  0  0  0
 14  3  1  6  0  0  0
  3 50  1  0  0  0  0
 15  4  1  1  0  0  0
  4 51  1  0  0  0  0
 16  5  1  1  0  0  0
  5 52  1  0  0  0  0
  6 19  1  0  0  0  0
  6 53  1  0  0  0  0
  7 21  2  0  0  0  0
  8 28  1  0  0  0  0
  8 39  1  0  0  0  0
  9 35  1  0  0  0  0
  9 38  1  0  0  0  0
 10 36  1  0  0  0  0
 10 38  1  0  0  0  0
 11 33  1  0  0  0  0
 11 40  1  0  0  0  0
 12 34  1  0  0  0  0
 12 41  1  0  0  0  0
 13 39  2  0  0  0  0
 14 15  1  0  0  0  0
 14 16  1  0  0  0  0
 14 43  1  0  0  0  0
 15 17  1  0  0  0  0
 15 44  1  0  0  0  0
 16 18  1  0  0  0  0
 16 45  1  0  0  0  0
 17 19  1  6  0  0  0
 17 46  1  0  0  0  0
 18 47  1  0  0  0  0
 19 48  1  0  0  0  0
 19 49  1  0  0  0  0
 20 21  1  0  0  0  0
 20 22  1  0  0  0  0
 20 23  2  0  0  0  0
 22 24  2  0  0  0  0
 22 26  1  0  0  0  0
 23 27  1  0  0  0  0
 23 28  1  0  0  0  0
 24 25  1  0  0  0  0
 24 29  1  0  0  0  0
 25 27  2  0  0  0  0
 25 30  1  0  0  0  0
 26 31  2  0  0  0  0
 26 32  1  0  0  0  0
 27 54  1  0  0  0  0
 28 55  1  0  0  0  0
 28 56  1  0  0  0  0
 29 33  2  0  0  0  0
 29 57  1  0  0  0  0
 30 34  2  0  0  0  0
 30 58  1  0  0  0  0
 31 35  1  0  0  0  0
 31 59  1  0  0  0  0
 32 37  2  0  0  0  0
 32 60  1  0  0  0  0
 33 34  1  0  0  0  0
 35 36  2  0  0  0  0
 36 37  1  0  0  0  0
 37 61  1  0  0  0  0
 38 62  1  0  0  0  0
 38 63  1  0  0  0  0
 39 42  1  0  0  0  0
 40 64  1  0  0  0  0
 40 65  1  0  0  0  0
 40 66  1  0  0  0  0
 41 67  1  0  0  0  0
 41 68  1  0  0  0  0
 41 69  1  0  0  0  0
 42 70  1  0  0  0  0
 42 71  1  0  0  0  0
 42 72  1  0  0  0  0
M  END
> <PUBCHEM_COMPOUND_CID>
128959

> <PUBCHEM_COMPOUND_CANONICALIZED>
1

> <PUBCHEM_CACTVS_COMPLEXITY>
933

> <PUBCHEM_CACTVS_HBOND_ACCEPTOR>
13

> <PUBCHEM_CACTVS_HBOND_DONOR>
4

> <PUBCHEM_CACTVS_ROTATABLE_BOND>
10

> <PUBCHEM_CACTVS_SUBSKEYS>
AAADceB4PAAAAAAAAAAAAAAAAAAAASAAAAA0YMEAAAAAAEjBVAAAGgAACAAADBSwmAMyDsAABgCIAiDSCAACCAAkIAAIiAEGiMgdNjKENRqicSIlwBEPqQfK6PyO4AADAAAQQADAAAYAACCAAAAAAAAAAA==

> <PUBCHEM_IUPAC_OPENEYE_NAME>
[(2S,3R,4S,5S,6R)-3,4,5-trihydroxy-6-(hydroxymethyl)tetrahydropyran-2-yl] 3-(acetoxymethyl)-1-(1,3-benzodioxol-5-yl)-6,7-dimethoxy-naphthalene-2-carboxylate

> <PUBCHEM_IUPAC_CAS_NAME>
3-(acetyloxymethyl)-1-(1,3-benzodioxol-5-yl)-6,7-dimethoxy-2-naphthalenecarboxylic acid [(2S,3R,4S,5S,6R)-3,4,5-trihydroxy-6-(hydroxymethyl)-2-oxanyl] ester

> <PUBCHEM_IUPAC_NAME>
[(2S,3R,4S,5S,6R)-3,4,5-trihydroxy-6-(hydroxymethyl)oxan-2-yl] 3-(acetyloxymethyl)-1-(1,3-benzodioxol-5-yl)-6,7-dimethoxynaphthalene-2-carboxylate

> <PUBCHEM_IUPAC_SYSTEMATIC_NAME>
[(2S,3R,4S,5S,6R)-6-(hydroxymethyl)-3,4,5-tris(oxidanyl)oxan-2-yl] 3-(acetyloxymethyl)-1-(1,3-benzodioxol-5-yl)-6,7-dimethoxy-naphthalene-2-carboxylate

> <PUBCHEM_IUPAC_TRADITIONAL_NAME>
3-(acetoxymethyl)-1-(1,3-benzodioxol-5-yl)-6,7-dimethoxy-naphthalene-2-carboxylic acid [(2S,3R,4S,5S,6R)-3,4,5-trihydroxy-6-methylol-tetrahydropyran-2-yl] ester

> <PUBCHEM_IUPAC_INCHI>
InChI=1S/C29H30O13/c1-13(31)38-11-16-6-15-8-19(36-2)20(37-3)9-17(15)23(14-4-5-18-21(7-14)40-12-39-18)24(16)28(35)42-29-27(34)26(33)25(32)22(10-30)41-29/h4-9,22,25-27,29-30,32-34H,10-12H2,1-3H3/t22-,25-,26+,27-,29+/m1/s1

> <PUBCHEM_IUPAC_INCHIKEY>
KQSAUOPDQAYSSQ-GPXXLQEOSA-N

> <PUBCHEM_XLOGP3_AA>
2

> <PUBCHEM_EXACT_MASS>
586.168641

> <PUBCHEM_MOLECULAR_FORMULA>
C29H30O13

> <PUBCHEM_MOLECULAR_WEIGHT>
586.5407

> <PUBCHEM_OPENEYE_CAN_SMILES>
CC(=O)OCC1=C(C(=C2C=C(C(=CC2=C1)OC)OC)C3=CC4=C(C=C3)OCO4)C(=O)OC5C(C(C(C(O5)CO)O)O)O

> <PUBCHEM_OPENEYE_ISO_SMILES>
CC(=O)OCC1=C(C(=C2C=C(C(=CC2=C1)OC)OC)C3=CC4=C(C=C3)OCO4)C(=O)O[C@H]5[C@@H]([C@H]([C@@H]([C@H](O5)CO)O)O)O

> <PUBCHEM_CACTVS_TPSA>
180

> <PUBCHEM_MONOISOTOPIC_WEIGHT>
586.168641

> <PUBCHEM_TOTAL_CHARGE>
0

> <PUBCHEM_HEAVY_ATOM_COUNT>
42

> <PUBCHEM_ATOM_DEF_STEREO_COUNT>
5

> <PUBCHEM_ATOM_UDEF_STEREO_COUNT>
0

> <PUBCHEM_BOND_DEF_STEREO_COUNT>
0

> <PUBCHEM_BOND_UDEF_STEREO_COUNT>
0

> <PUBCHEM_ISOTOPIC_ATOM_COUNT>
0

> <PUBCHEM_COMPONENT_COUNT>
1

> <PUBCHEM_CACTVS_TAUTO_COUNT>
1

> <PUBCHEM_COORDINATE_TYPE>
1
5
255

> <PUBCHEM_BONDANNOTATIONS>
17  19  6
18  2  6
20  22  8
20  23  8
22  24  8
23  27  8
24  25  8
24  29  8
25  27  8
25  30  8
26  31  8
26  32  8
29  33  8
14  3  6
30  34  8
31  35  8
32  37  8
33  34  8
35  36  8
36  37  8
15  4  5
16  5  5

$$$$

