11953832
  -OEChem-07051212493D

 86 88  0     1  0  0  0  0  0999 V2000
   -4.8711   -2.6600   -1.3906 P   0  0  0  0  0  0  0  0  0  0  0  0
    0.0473   -2.2416    1.4813 O   0  0  0  0  0  0  0  0  0  0  0  0
    0.7368   -0.4357    0.1141 O   0  0  0  0  0  0  0  0  0  0  0  0
   -2.1304    0.5410    0.9003 O   0  0  0  0  0  0  0  0  0  0  0  0
   -2.4560   -1.4269    2.7920 O   0  0  0  0  0  0  0  0  0  0  0  0
   -2.6563    0.7954   -1.3935 O   0  0  0  0  0  0  0  0  0  0  0  0
    2.1988   -2.8678   -0.2391 O   0  0  0  0  0  0  0  0  0  0  0  0
    4.8685    1.9823    0.5053 O   0  0  0  0  0  0  0  0  0  0  0  0
   -3.5513   -2.2567   -0.5444 O   0  0  0  0  0  0  0  0  0  0  0  0
    4.8447   -2.4810   -1.2267 O   0  0  0  0  0  0  0  0  0  0  0  0
   -3.4755    4.6440   -0.1310 O   0  0  0  0  0  0  0  0  0  0  0  0
   -1.1532    4.1420   -1.7121 O   0  0  0  0  0  0  0  0  0  0  0  0
   -0.6914    0.1693   -3.1989 O   0  0  0  0  0  0  0  0  0  0  0  0
   -5.2812   -4.0911   -0.7590 O   0  0  0  0  0  0  0  0  0  0  0  0
   -6.0106   -1.6628   -0.8230 O   0  0  0  0  0  0  0  0  0  0  0  0
   -4.6957   -2.6518   -2.8810 O   0  0  0  0  0  0  0  0  0  0  0  0
    2.1923    1.6029    1.5722 N   0  0  0  0  0  0  0  0  0  0  0  0
   -4.2278    2.3628    1.5915 N   0  0  0  0  0  0  0  0  0  0  0  0
    6.3589   -0.4709    0.2317 N   0  0  0  0  0  0  0  0  0  0  0  0
    2.5660    3.5805    0.2610 N   0  0  0  0  0  0  0  0  0  0  0  0
    1.6070    3.7062    2.3249 N   0  0  0  0  0  0  0  0  0  0  0  0
    8.5482   -0.9011   -0.3643 N   0  0  0  0  0  0  0  0  0  0  0  0
    7.0108   -0.8645   -2.0466 N   0  0  0  0  0  0  0  0  0  0  0  0
   -2.2820   -1.8358    1.4348 C   0  0  1  0  0  0  0  0  0  0  0  0
   -1.5836   -0.7390    0.6493 C   0  0  2  0  0  0  0  0  0  0  0  0
   -0.1479   -0.8573    1.1418 C   0  0  1  0  0  0  0  0  0  0  0  0
   -1.2167   -2.9308    1.3609 C   0  0  2  0  0  0  0  0  0  0  0  0
    2.1023   -0.5825    0.5144 C   0  0  2  0  0  0  0  0  0  0  0  0
    2.7794    0.7888    0.4932 C   0  0  2  0  0  0  0  0  0  0  0  0
    2.7830   -1.5754   -0.4296 C   0  0  1  0  0  0  0  0  0  0  0  0
    4.2880    0.6964    0.7371 C   0  0  1  0  0  0  0  0  0  0  0  0
    4.2890   -1.6732   -0.1856 C   0  0  2  0  0  0  0  0  0  0  0  0
    4.9627   -0.3003   -0.2081 C   0  0  2  0  0  0  0  0  0  0  0  0
   -3.6344   -2.2405    0.8705 C   0  0  0  0  0  0  0  0  0  0  0  0
   -3.1388    0.8816   -0.0493 C   0  0  2  0  0  0  0  0  0  0  0  0
   -3.7673    2.2595    0.2068 C   0  0  2  0  0  0  0  0  0  0  0  0
   -2.7874    3.3912   -0.1304 C   0  0  1  0  0  0  0  0  0  0  0  0
   -1.2957   -4.0035    2.4338 C   0  0  0  0  0  0  0  0  0  0  0  0
   -2.1959    3.1865   -1.5296 C   0  0  2  0  0  0  0  0  0  0  0  0
   -1.6490    1.7642   -1.6994 C   0  0  2  0  0  0  0  0  0  0  0  0
   -1.1898    1.4926   -3.1296 C   0  0  0  0  0  0  0  0  0  0  0  0
    2.1407    2.8775    1.3662 C   0  0  0  0  0  0  0  0  0  0  0  0
   -5.4598    1.6136    1.7813 C   0  0  0  0  0  0  0  0  0  0  0  0
    7.2244   -0.7280   -0.6929 C   0  0  0  0  0  0  0  0  0  0  0  0
   -1.5598   -0.9683   -0.4235 H   0  0  0  0  0  0  0  0  0  0  0  0
    0.0122   -0.2457    2.0386 H   0  0  0  0  0  0  0  0  0  0  0  0
   -1.2185   -3.4082    0.3727 H   0  0  0  0  0  0  0  0  0  0  0  0
    2.1654   -0.9798    1.5385 H   0  0  0  0  0  0  0  0  0  0  0  0
    2.5701    1.2256   -0.4912 H   0  0  0  0  0  0  0  0  0  0  0  0
    2.5738   -1.3062   -1.4720 H   0  0  0  0  0  0  0  0  0  0  0  0
    4.4919    0.4333    1.7827 H   0  0  0  0  0  0  0  0  0  0  0  0
    4.4916   -2.1943    0.7580 H   0  0  0  0  0  0  0  0  0  0  0  0
    4.9136    0.1304   -1.2156 H   0  0  0  0  0  0  0  0  0  0  0  0
   -3.9450    0.1539    0.0105 H   0  0  0  0  0  0  0  0  0  0  0  0
   -3.9179   -3.2332    1.2362 H   0  0  0  0  0  0  0  0  0  0  0  0
   -4.4222   -1.5577    1.2002 H   0  0  0  0  0  0  0  0  0  0  0  0
   -4.6224    2.3851   -0.4739 H   0  0  0  0  0  0  0  0  0  0  0  0
   -1.9872    3.4614    0.6168 H   0  0  0  0  0  0  0  0  0  0  0  0
   -0.4995   -4.7410    2.2826 H   0  0  0  0  0  0  0  0  0  0  0  0
   -2.2562   -4.5256    2.4138 H   0  0  0  0  0  0  0  0  0  0  0  0
   -1.1351   -3.5865    3.4336 H   0  0  0  0  0  0  0  0  0  0  0  0
   -2.9623    3.3918   -2.2871 H   0  0  0  0  0  0  0  0  0  0  0  0
   -0.7889    1.6031   -1.0371 H   0  0  0  0  0  0  0  0  0  0  0  0
   -2.9733   -2.1104    3.2509 H   0  0  0  0  0  0  0  0  0  0  0  0
   -4.4090    3.3427    1.8106 H   0  0  0  0  0  0  0  0  0  0  0  0
    2.3462   -3.1300    0.6857 H   0  0  0  0  0  0  0  0  0  0  0  0
    4.8029    2.1797   -0.4442 H   0  0  0  0  0  0  0  0  0  0  0  0
    4.5715   -2.1055   -2.0807 H   0  0  0  0  0  0  0  0  0  0  0  0
   -2.0279    1.5717   -3.8299 H   0  0  0  0  0  0  0  0  0  0  0  0
   -0.3977    2.1840   -3.4326 H   0  0  0  0  0  0  0  0  0  0  0  0
   -4.2022    4.5907   -0.7747 H   0  0  0  0  0  0  0  0  0  0  0  0
   -0.4499    3.9452   -1.0698 H   0  0  0  0  0  0  0  0  0  0  0  0
   -5.8250    1.7844    2.7995 H   0  0  0  0  0  0  0  0  0  0  0  0
   -5.3134    0.5360    1.6817 H   0  0  0  0  0  0  0  0  0  0  0  0
   -6.2487    1.9375    1.0944 H   0  0  0  0  0  0  0  0  0  0  0  0
   -0.4065    0.0174   -4.1160 H   0  0  0  0  0  0  0  0  0  0  0  0
    2.9885    3.1481   -0.5504 H   0  0  0  0  0  0  0  0  0  0  0  0
    2.4650    4.5895    0.2242 H   0  0  0  0  0  0  0  0  0  0  0  0
    1.2491    3.3342    3.1979 H   0  0  0  0  0  0  0  0  0  0  0  0
    1.5527    4.7096    2.1885 H   0  0  0  0  0  0  0  0  0  0  0  0
    9.2479   -1.1047   -1.0696 H   0  0  0  0  0  0  0  0  0  0  0  0
    8.8623   -0.8310    0.5975 H   0  0  0  0  0  0  0  0  0  0  0  0
    7.7848   -1.0683   -2.6702 H   0  0  0  0  0  0  0  0  0  0  0  0
    6.1021   -0.7782   -2.4834 H   0  0  0  0  0  0  0  0  0  0  0  0
   -6.0129   -4.5990   -1.1700 H   0  0  0  0  0  0  0  0  0  0  0  0
   -6.8988   -1.6712   -1.2390 H   0  0  0  0  0  0  0  0  0  0  0  0
  1  9  1  0  0  0  0
  1 14  1  0  0  0  0
  1 15  1  0  0  0  0
  1 16  2  0  0  0  0
  2 26  1  0  0  0  0
  2 27  1  0  0  0  0
  3 26  1  0  0  0  0
  3 28  1  0  0  0  0
  4 25  1  0  0  0  0
  4 35  1  0  0  0  0
  5 24  1  0  0  0  0
  5 64  1  0  0  0  0
  6 35  1  0  0  0  0
  6 40  1  0  0  0  0
  7 30  1  0  0  0  0
  7 66  1  0  0  0  0
  8 31  1  0  0  0  0
  8 67  1  0  0  0  0
  9 34  1  0  0  0  0
 10 32  1  0  0  0  0
 10 68  1  0  0  0  0
 11 37  1  0  0  0  0
 11 71  1  0  0  0  0
 12 39  1  0  0  0  0
 12 72  1  0  0  0  0
 13 41  1  0  0  0  0
 13 76  1  0  0  0  0
 14 85  1  0  0  0  0
 15 86  1  0  0  0  0
 17 29  1  0  0  0  0
 17 42  2  0  0  0  0
 18 36  1  0  0  0  0
 18 43  1  0  0  0  0
 18 65  1  0  0  0  0
 19 33  1  0  0  0  0
 19 44  2  0  0  0  0
 20 42  1  0  0  0  0
 20 77  1  0  0  0  0
 20 78  1  0  0  0  0
 21 42  1  0  0  0  0
 21 79  1  0  0  0  0
 21 80  1  0  0  0  0
 22 44  1  0  0  0  0
 22 81  1  0  0  0  0
 22 82  1  0  0  0  0
 23 44  1  0  0  0  0
 23 83  1  0  0  0  0
 23 84  1  0  0  0  0
 24 25  1  0  0  0  0
 24 27  1  0  0  0  0
 24 34  1  0  0  0  0
 25 26  1  0  0  0  0
 25 45  1  0  0  0  0
 26 46  1  0  0  0  0
 27 38  1  0  0  0  0
 27 47  1  0  0  0  0
 28 29  1  0  0  0  0
 28 30  1  0  0  0  0
 28 48  1  0  0  0  0
 29 31  1  0  0  0  0
 29 49  1  0  0  0  0
 30 32  1  0  0  0  0
 30 50  1  0  0  0  0
 31 33  1  0  0  0  0
 31 51  1  0  0  0  0
 32 33  1  0  0  0  0
 32 52  1  0  0  0  0
 33 53  1  0  0  0  0
 34 55  1  0  0  0  0
 34 56  1  0  0  0  0
 35 36  1  0  0  0  0
 35 54  1  0  0  0  0
 36 37  1  0  0  0  0
 36 57  1  0  0  0  0
 37 39  1  0  0  0  0
 37 58  1  0  0  0  0
 38 59  1  0  0  0  0
 38 60  1  0  0  0  0
 38 61  1  0  0  0  0
 39 40  1  0  0  0  0
 39 62  1  0  0  0  0
 40 41  1  0  0  0  0
 40 63  1  0  0  0  0
 41 69  1  0  0  0  0
 41 70  1  0  0  0  0
 43 73  1  0  0  0  0
 43 74  1  0  0  0  0
 43 75  1  0  0  0  0
M  END
> <PUBCHEM_COMPOUND_CID>
11953832

> <PUBCHEM_CONFORMER_RMSD>
1.4

> <PUBCHEM_CONFORMER_DIVERSEORDER>
1
2
4
5
3

> <PUBCHEM_MMFF94_PARTIAL_CHARGES>
61
1 1.51
10 -0.68
11 -0.68
12 -0.68
13 -0.68
14 -0.77
15 -0.77
16 -0.7
17 -0.7
18 -0.9
19 -0.7
2 -0.56
20 -0.85
21 -0.85
22 -0.85
23 -0.85
24 0.28
25 0.28
26 0.56
27 0.28
28 0.28
29 0.25
3 -0.56
30 0.28
31 0.28
32 0.28
33 0.25
34 0.28
35 0.56
36 0.27
37 0.28
39 0.28
4 -0.56
40 0.28
41 0.28
42 0.55
43 0.27
44 0.55
5 -0.68
6 -0.56
64 0.4
65 0.36
66 0.4
67 0.4
68 0.4
7 -0.68
71 0.4
72 0.4
76 0.4
77 0.4
78 0.4
79 0.4
8 -0.68
80 0.4
81 0.4
82 0.4
83 0.4
84 0.4
85 0.5
86 0.5
9 -0.55

> <PUBCHEM_EFFECTIVE_ROTOR_COUNT>
14.4

> <PUBCHEM_PHARMACOPHORE_FEATURES>
33
1 10 acceptor
1 10 donor
1 11 acceptor
1 11 donor
1 12 acceptor
1 12 donor
1 13 acceptor
1 13 donor
1 14 acceptor
1 15 acceptor
1 16 acceptor
1 18 cation
1 18 donor
1 2 acceptor
1 20 donor
1 21 donor
1 22 donor
1 23 donor
1 3 acceptor
1 4 acceptor
1 5 acceptor
1 5 donor
1 6 acceptor
1 7 acceptor
1 7 donor
1 8 acceptor
1 8 donor
4 1 14 15 16 anion
4 17 20 21 42 cation
4 19 22 23 44 cation
5 2 24 25 26 27 rings
6 28 29 30 31 32 33 rings
6 6 35 36 37 39 40 rings

> <PUBCHEM_HEAVY_ATOM_COUNT>
44

> <PUBCHEM_ATOM_DEF_STEREO_COUNT>
15

> <PUBCHEM_ATOM_UDEF_STEREO_COUNT>
0

> <PUBCHEM_BOND_DEF_STEREO_COUNT>
0

> <PUBCHEM_BOND_UDEF_STEREO_COUNT>
0

> <PUBCHEM_ISOTOPIC_ATOM_COUNT>
0

> <PUBCHEM_COMPONENT_COUNT>
1

> <PUBCHEM_CACTVS_TAUTO_COUNT>
4

> <PUBCHEM_CONFORMER_ID>
00B666A800000001

> <PUBCHEM_MMFF94_ENERGY>
108.3623

> <PUBCHEM_FEATURE_SELFOVERLAP>
167.723

> <PUBCHEM_SHAPE_FINGERPRINT>
10165383 225 18128812122059161985
10190206 1 18410863191855603303
11513181 2 17834674898827793612
12107698 1 18187368700933836943
131258 43 17911779294466454822
13383668 90 18113889464310880071
1361 2 17614861612477035263
13636023 20 18187652427238614074
13782708 43 18261670385957743046
140371 6 17837771132604728505
14068700 675 18341895130664783615
14279260 333 17972599059852172750
15276724 80 18335986450188836143
15324884 4 17767123103499092450
15361156 5 18340476799013624676
15975801 100 17559964379802936868
19311894 1 18190468357324576553
20764821 26 17842302511653301520
21927370 108 18129931292321840803
23559900 14 18125718985153522841
25019877 29 18338219579474036175
354706 132 18129660949921350444
4015057 19 18117555132882534530
469060 322 17274826865867867743
508706 21 18342455920249726322
5171179 24 18261398793236297544
5252454 2 17914902177613562561

> <PUBCHEM_SHAPE_MULTIPOLES>
786.44
14.67
5.56
2.52
24.1
2.18
-0.98
-5.85
-4.37
-6.53
0.61
-2.11
-0.06
0.68

> <PUBCHEM_SHAPE_SELFOVERLAP>
1612.77

> <PUBCHEM_SHAPE_VOLUME>
455.4

> <PUBCHEM_COORDINATE_TYPE>
2
5
10

$$$$

