440746
  -OEChem-07051212502D

 25 25  0     0  0  0  0  0  0999 V2000
    3.4030    0.6550    0.0000 O   0  0  0  0  0  0  0  0  0  0  0  0
    6.0010   -2.8450    0.0000 O   0  0  0  0  0  0  0  0  0  0  0  0
    4.2690    2.1550    0.0000 O   0  0  0  0  0  0  0  0  0  0  0  0
    6.0010    3.1550    0.0000 O   0  0  0  0  0  0  0  0  0  0  0  0
    6.8671    1.6550    0.0000 O   0  0  0  0  0  0  0  0  0  0  0  0
    2.5369   -0.8450    0.0000 N   0  0  0  0  0  0  0  0  0  0  0  0
    4.2690   -0.8450    0.0000 C   0  0  0  0  0  0  0  0  0  0  0  0
    3.4030   -1.3450    0.0000 C   0  0  0  0  0  0  0  0  0  0  0  0
    4.2690    0.1550    0.0000 C   0  0  0  0  0  0  0  0  0  0  0  0
    5.1350    0.6550    0.0000 C   0  0  0  0  0  0  0  0  0  0  0  0
    5.1350   -1.3450    0.0000 C   0  0  0  0  0  0  0  0  0  0  0  0
    3.4030   -2.3450    0.0000 C   0  0  0  0  0  0  0  0  0  0  0  0
    5.1350   -2.3450    0.0000 C   0  0  0  0  0  0  0  0  0  0  0  0
    4.2690   -2.8450    0.0000 C   0  0  0  0  0  0  0  0  0  0  0  0
    5.1350    1.6550    0.0000 C   0  0  0  0  0  0  0  0  0  0  0  0
    6.0010    2.1550    0.0000 C   0  0  0  0  0  0  0  0  0  0  0  0
    5.3471    0.0724    0.0000 H   0  0  0  0  0  0  0  0  0  0  0  0
    5.7456    0.7627    0.0000 H   0  0  0  0  0  0  0  0  0  0  0  0
    5.6720   -1.0350    0.0000 H   0  0  0  0  0  0  0  0  0  0  0  0
    2.8660   -2.6550    0.0000 H   0  0  0  0  0  0  0  0  0  0  0  0
    4.2690   -3.4650    0.0000 H   0  0  0  0  0  0  0  0  0  0  0  0
    2.0000   -1.1550    0.0000 H   0  0  0  0  0  0  0  0  0  0  0  0
    2.5369   -0.2250    0.0000 H   0  0  0  0  0  0  0  0  0  0  0  0
    6.0010   -3.4650    0.0000 H   0  0  0  0  0  0  0  0  0  0  0  0
    6.5380    3.4650    0.0000 H   0  0  0  0  0  0  0  0  0  0  0  0
  1  9  2  0  0  0  0
  2 13  1  0  0  0  0
  2 24  1  0  0  0  0
  3 15  2  0  0  0  0
  4 16  1  0  0  0  0
  4 25  1  0  0  0  0
  5 16  2  0  0  0  0
  6  8  1  0  0  0  0
  6 22  1  0  0  0  0
  6 23  1  0  0  0  0
  7  8  2  0  0  0  0
  7  9  1  0  0  0  0
  7 11  1  0  0  0  0
  8 12  1  0  0  0  0
  9 10  1  0  0  0  0
 10 15  1  0  0  0  0
 10 17  1  0  0  0  0
 10 18  1  0  0  0  0
 11 13  2  0  0  0  0
 11 19  1  0  0  0  0
 12 14  2  0  0  0  0
 12 20  1  0  0  0  0
 13 14  1  0  0  0  0
 14 21  1  0  0  0  0
 15 16  1  0  0  0  0
M  END
> <PUBCHEM_COMPOUND_CID>
440746

> <PUBCHEM_COMPOUND_CANONICALIZED>
1

> <PUBCHEM_CACTVS_COMPLEXITY>
314

> <PUBCHEM_CACTVS_HBOND_ACCEPTOR>
6

> <PUBCHEM_CACTVS_HBOND_DONOR>
3

> <PUBCHEM_CACTVS_ROTATABLE_BOND>
4

> <PUBCHEM_CACTVS_SUBSKEYS>
AAADccByOAAAAAAAAAAAAAAAAAAAAAAAAAAwAAAAAAAAAAABAAAAHgAQCAAADAyBmAAwzoBAAgCIAqTSSAKCAAAkIgAIiAFGbMgIJjqKlZOAcYBk0BEI2ce7ybCeAEABAAACAAAAgAIAAAQAAAAAAAAAAA==

> <PUBCHEM_IUPAC_OPENEYE_NAME>
4-(2-amino-5-hydroxy-phenyl)-2,4-dioxo-butanoic acid

> <PUBCHEM_IUPAC_CAS_NAME>
4-(2-amino-5-hydroxyphenyl)-2,4-dioxobutanoic acid

> <PUBCHEM_IUPAC_NAME>
4-(2-amino-5-hydroxyphenyl)-2,4-dioxobutanoic acid

> <PUBCHEM_IUPAC_SYSTEMATIC_NAME>
4-(2-azanyl-5-oxidanyl-phenyl)-2,4-bis(oxidanylidene)butanoic acid

> <PUBCHEM_IUPAC_TRADITIONAL_NAME>
4-(2-amino-5-hydroxy-phenyl)-2,4-diketo-butyric acid

> <PUBCHEM_IUPAC_INCHI>
InChI=1S/C10H9NO5/c11-7-2-1-5(12)3-6(7)8(13)4-9(14)10(15)16/h1-3,12H,4,11H2,(H,15,16)

> <PUBCHEM_IUPAC_INCHIKEY>
MISPYSDHCLFNAO-UHFFFAOYSA-N

> <PUBCHEM_XLOGP3_AA>
0.7

> <PUBCHEM_EXACT_MASS>
223.048072

> <PUBCHEM_MOLECULAR_FORMULA>
C10H9NO5

> <PUBCHEM_MOLECULAR_WEIGHT>
223.18216

> <PUBCHEM_OPENEYE_CAN_SMILES>
C1=CC(=C(C=C1O)C(=O)CC(=O)C(=O)O)N

> <PUBCHEM_OPENEYE_ISO_SMILES>
C1=CC(=C(C=C1O)C(=O)CC(=O)C(=O)O)N

> <PUBCHEM_CACTVS_TPSA>
118

> <PUBCHEM_MONOISOTOPIC_WEIGHT>
223.048072

> <PUBCHEM_TOTAL_CHARGE>
0

> <PUBCHEM_HEAVY_ATOM_COUNT>
16

> <PUBCHEM_ATOM_DEF_STEREO_COUNT>
0

> <PUBCHEM_ATOM_UDEF_STEREO_COUNT>
0

> <PUBCHEM_BOND_DEF_STEREO_COUNT>
0

> <PUBCHEM_BOND_UDEF_STEREO_COUNT>
0

> <PUBCHEM_ISOTOPIC_ATOM_COUNT>
0

> <PUBCHEM_COMPONENT_COUNT>
1

> <PUBCHEM_CACTVS_TAUTO_COUNT>
32

> <PUBCHEM_COORDINATE_TYPE>
1
5
255

> <PUBCHEM_BONDANNOTATIONS>
11  13  8
12  14  8
13  14  8
7  11  8
7  8  8
8  12  8

$$$$

