441784
  -OEChem-07051212563D

 68 72  0     1  0  0  0  0  0999 V2000
   -0.7882   -2.3196   -1.8041 O   0  0  0  0  0  0  0  0  0  0  0  0
    0.3689    2.1020   -0.1389 O   0  0  0  0  0  0  0  0  0  0  0  0
   -2.0221   -3.0991    0.0484 O   0  0  0  0  0  0  0  0  0  0  0  0
    0.2747   -2.6830    1.6966 O   0  0  0  0  0  0  0  0  0  0  0  0
    3.0486    0.2404    1.1780 O   0  0  0  0  0  0  0  0  0  0  0  0
   -3.7005   -1.7014    1.4383 O   0  0  0  0  0  0  0  0  0  0  0  0
    1.9487    2.6150    1.3625 O   0  0  0  0  0  0  0  0  0  0  0  0
   -5.7634   -0.0374    1.6919 O   0  0  0  0  0  0  0  0  0  0  0  0
    3.5638    1.2771   -0.8174 O   0  0  0  0  0  0  0  0  0  0  0  0
   -0.0473   -0.2148   -0.9632 C   0  0  2  0  0  0  0  0  0  0  0  0
   -1.1544   -0.7797   -0.0334 C   0  0  1  0  0  0  0  0  0  0  0  0
   -2.6127   -0.1453   -0.1986 C   0  0  2  0  0  0  0  0  0  0  0  0
    1.3852   -0.5404   -0.4042 C   0  0  2  0  0  0  0  0  0  0  0  0
   -0.9469   -2.2781   -0.3692 C   0  0  2  0  0  0  0  0  0  0  0  0
   -0.1176    1.2832   -1.2348 C   0  0  1  0  0  0  0  0  0  0  0  0
   -2.4720    1.4169   -0.3404 C   0  0  1  0  0  0  0  0  0  0  0  0
    1.6092   -2.0828   -0.2506 C   0  0  2  0  0  0  0  0  0  0  0  0
   -0.2690   -1.0490   -2.2365 C   0  0  0  0  0  0  0  0  0  0  0  0
    0.3563   -2.8072    0.2776 C   0  0  1  0  0  0  0  0  0  0  0  0
   -1.5379    1.7850   -1.5090 C   0  0  0  0  0  0  0  0  0  0  0  0
    1.6624    0.2899    0.8509 C   0  0  2  0  0  0  0  0  0  0  0  0
   -3.4366   -0.3495    1.1186 C   0  0  1  0  0  0  0  0  0  0  0  0
   -3.4068   -0.7419   -1.3965 C   0  0  0  0  0  0  0  0  0  0  0  0
   -3.8150    2.1420   -0.3291 C   0  0  0  0  0  0  0  0  0  0  0  0
    2.8673   -2.4994    0.5141 C   0  0  0  0  0  0  0  0  0  0  0  0
    1.3684    1.7603    0.6958 C   0  0  0  0  0  0  0  0  0  0  0  0
   -4.7729    0.3818    1.0942 C   0  0  0  0  0  0  0  0  0  0  0  0
   -4.8693    1.6574    0.3466 C   0  0  0  0  0  0  0  0  0  0  0  0
   -3.9361    3.4688   -1.0264 C   0  0  0  0  0  0  0  0  0  0  0  0
    3.8978    0.7737    0.2475 C   0  0  0  0  0  0  0  0  0  0  0  0
    5.3350    0.6234    0.7168 C   0  0  1  0  0  0  0  0  0  0  0  0
    6.2975    0.4466   -0.4667 C   0  0  0  0  0  0  0  0  0  0  0  0
    5.7036    1.8556    1.5384 C   0  0  0  0  0  0  0  0  0  0  0  0
    5.9813   -0.7905   -1.2973 C   0  0  0  0  0  0  0  0  0  0  0  0
   -0.8942   -0.5955    1.0146 H   0  0  0  0  0  0  0  0  0  0  0  0
    2.0760   -0.2628   -1.2058 H   0  0  0  0  0  0  0  0  0  0  0  0
    0.5098    1.5394   -2.0980 H   0  0  0  0  0  0  0  0  0  0  0  0
   -1.9757    1.7824    0.5727 H   0  0  0  0  0  0  0  0  0  0  0  0
    1.7688   -2.4663   -1.2690 H   0  0  0  0  0  0  0  0  0  0  0  0
   -0.9830   -0.6094   -2.9346 H   0  0  0  0  0  0  0  0  0  0  0  0
    0.6483   -1.2150   -2.8116 H   0  0  0  0  0  0  0  0  0  0  0  0
    0.4544   -3.8786    0.0576 H   0  0  0  0  0  0  0  0  0  0  0  0
   -1.9185    1.4075   -2.4624 H   0  0  0  0  0  0  0  0  0  0  0  0
   -1.4813    2.8757   -1.6106 H   0  0  0  0  0  0  0  0  0  0  0  0
    1.1041   -0.0742    1.7175 H   0  0  0  0  0  0  0  0  0  0  0  0
   -2.8805    0.0657    1.9690 H   0  0  0  0  0  0  0  0  0  0  0  0
   -4.4302   -0.3579   -1.4504 H   0  0  0  0  0  0  0  0  0  0  0  0
   -2.9589   -0.5080   -2.3614 H   0  0  0  0  0  0  0  0  0  0  0  0
   -3.5041   -1.8278   -1.3392 H   0  0  0  0  0  0  0  0  0  0  0  0
    2.9776   -3.5897    0.4932 H   0  0  0  0  0  0  0  0  0  0  0  0
    3.7605   -2.0820    0.0461 H   0  0  0  0  0  0  0  0  0  0  0  0
    2.8462   -2.1982    1.5650 H   0  0  0  0  0  0  0  0  0  0  0  0
   -1.7085   -4.0162    0.1128 H   0  0  0  0  0  0  0  0  0  0  0  0
    0.9454   -3.2686    2.0863 H   0  0  0  0  0  0  0  0  0  0  0  0
   -5.8216    2.1756    0.3790 H   0  0  0  0  0  0  0  0  0  0  0  0
   -4.2249   -2.0906    0.7190 H   0  0  0  0  0  0  0  0  0  0  0  0
   -4.9205    3.9264   -0.8777 H   0  0  0  0  0  0  0  0  0  0  0  0
   -3.7942    3.3516   -2.1054 H   0  0  0  0  0  0  0  0  0  0  0  0
   -3.1912    4.1723   -0.6408 H   0  0  0  0  0  0  0  0  0  0  0  0
    5.4024   -0.2705    1.3497 H   0  0  0  0  0  0  0  0  0  0  0  0
    6.2649    1.3273   -1.1200 H   0  0  0  0  0  0  0  0  0  0  0  0
    7.3250    0.3660   -0.0918 H   0  0  0  0  0  0  0  0  0  0  0  0
    5.0279    1.9717    2.3929 H   0  0  0  0  0  0  0  0  0  0  0  0
    6.7252    1.7765    1.9240 H   0  0  0  0  0  0  0  0  0  0  0  0
    5.6335    2.7698    0.9384 H   0  0  0  0  0  0  0  0  0  0  0  0
    6.0288   -1.6949   -0.6829 H   0  0  0  0  0  0  0  0  0  0  0  0
    6.7176   -0.8958   -2.1009 H   0  0  0  0  0  0  0  0  0  0  0  0
    4.9934   -0.7361   -1.7628 H   0  0  0  0  0  0  0  0  0  0  0  0
  1 14  1  0  0  0  0
  1 18  1  0  0  0  0
  2 15  1  0  0  0  0
  2 26  1  0  0  0  0
  3 14  1  0  0  0  0
  3 53  1  0  0  0  0
  4 19  1  0  0  0  0
  4 54  1  0  0  0  0
  5 21  1  0  0  0  0
  5 30  1  0  0  0  0
  6 22  1  0  0  0  0
  6 56  1  0  0  0  0
  7 26  2  0  0  0  0
  8 27  2  0  0  0  0
  9 30  2  0  0  0  0
 10 11  1  0  0  0  0
 10 13  1  0  0  0  0
 10 15  1  0  0  0  0
 10 18  1  0  0  0  0
 11 12  1  0  0  0  0
 11 14  1  0  0  0  0
 11 35  1  0  0  0  0
 12 16  1  0  0  0  0
 12 22  1  0  0  0  0
 12 23  1  0  0  0  0
 13 17  1  0  0  0  0
 13 21  1  0  0  0  0
 13 36  1  0  0  0  0
 14 19  1  0  0  0  0
 15 20  1  0  0  0  0
 15 37  1  0  0  0  0
 16 20  1  0  0  0  0
 16 24  1  0  0  0  0
 16 38  1  0  0  0  0
 17 19  1  0  0  0  0
 17 25  1  0  0  0  0
 17 39  1  0  0  0  0
 18 40  1  0  0  0  0
 18 41  1  0  0  0  0
 19 42  1  0  0  0  0
 20 43  1  0  0  0  0
 20 44  1  0  0  0  0
 21 26  1  0  0  0  0
 21 45  1  0  0  0  0
 22 27  1  0  0  0  0
 22 46  1  0  0  0  0
 23 47  1  0  0  0  0
 23 48  1  0  0  0  0
 23 49  1  0  0  0  0
 24 28  2  0  0  0  0
 24 29  1  0  0  0  0
 25 50  1  0  0  0  0
 25 51  1  0  0  0  0
 25 52  1  0  0  0  0
 27 28  1  0  0  0  0
 28 55  1  0  0  0  0
 29 57  1  0  0  0  0
 29 58  1  0  0  0  0
 29 59  1  0  0  0  0
 30 31  1  0  0  0  0
 31 32  1  0  0  0  0
 31 33  1  0  0  0  0
 31 60  1  0  0  0  0
 32 34  1  0  0  0  0
 32 61  1  0  0  0  0
 32 62  1  0  0  0  0
 33 63  1  0  0  0  0
 33 64  1  0  0  0  0
 33 65  1  0  0  0  0
 34 66  1  0  0  0  0
 34 67  1  0  0  0  0
 34 68  1  0  0  0  0
M  END
> <PUBCHEM_COMPOUND_CID>
441784

> <PUBCHEM_CONFORMER_RMSD>
0.8

> <PUBCHEM_CONFORMER_DIVERSEORDER>
1
3
6
4
2
5

> <PUBCHEM_MMFF94_PARTIAL_CHARGES>
27
1 -0.56
14 0.56
15 0.28
16 0.14
18 0.28
19 0.28
2 -0.43
21 0.34
22 0.34
24 -0.28
26 0.66
27 0.49
28 -0.14
29 0.14
3 -0.68
30 0.66
31 0.06
4 -0.68
5 -0.43
53 0.4
54 0.4
55 0.15
56 0.4
6 -0.68
7 -0.57
8 -0.57
9 -0.57

> <PUBCHEM_EFFECTIVE_ROTOR_COUNT>
5.6

> <PUBCHEM_PHARMACOPHORE_FEATURES>
16
1 1 acceptor
1 3 acceptor
1 3 donor
1 33 hydrophobe
1 34 hydrophobe
1 4 acceptor
1 4 donor
1 6 acceptor
1 6 donor
1 7 acceptor
1 8 acceptor
1 9 acceptor
6 10 11 12 15 16 20 rings
6 12 16 22 24 27 28 rings
6 2 10 13 15 21 26 rings
8 1 10 11 13 14 17 18 19 rings

> <PUBCHEM_HEAVY_ATOM_COUNT>
34

> <PUBCHEM_ATOM_DEF_STEREO_COUNT>
11

> <PUBCHEM_ATOM_UDEF_STEREO_COUNT>
1

> <PUBCHEM_BOND_DEF_STEREO_COUNT>
0

> <PUBCHEM_BOND_UDEF_STEREO_COUNT>
0

> <PUBCHEM_ISOTOPIC_ATOM_COUNT>
0

> <PUBCHEM_COMPONENT_COUNT>
1

> <PUBCHEM_CACTVS_TAUTO_COUNT>
13

> <PUBCHEM_CONFORMER_ID>
0006BDB800000001

> <PUBCHEM_MMFF94_ENERGY>
131.1269

> <PUBCHEM_FEATURE_SELFOVERLAP>
81.422

> <PUBCHEM_SHAPE_FINGERPRINT>
10165383 225 18335696144052353497
10675989 125 17260482877232213109
10863032 1 18342175626104016091
11007060 377 18262810553413562280
11112241 14 16879654591469086072
11115154 58 17030536075376830111
11273773 46 18118108390155110838
11488393 25 17827065509718152558
11578080 2 17201369717680919485
12011746 2 18411990147749141053
12166972 35 5833693712694614064
12422481 6 18268733738985702194
12633257 1 18336549313335336201
13140716 1 18124312697076075857
13544653 18 12319740280077545606
14223421 5 18270676606043725929
14341114 328 17203888578519118032
14790565 3 18337673147732265112
14856354 85 17203599372548416818
14955137 171 18270951380544959556
15183329 4 17022899069319784836
15209289 33 18339930290463985762
15420108 30 18260268594615629039
1601671 61 18408886256678961504
16945 1 18337394833735342575
1813 80 15984814973648216958
19784866 170 18271806860372387948
21033648 29 18334588948480620081
21279426 13 18335135458042355038
21756936 100 18409456856026918778
23402539 116 8646497327240347560
23559900 14 17842832497532428431
23569943 247 16807002367593493454
2838139 119 16081084900430364665
3298306 158 18337677506997470140
350125 39 18336266721972920891
392239 28 18272926090654021171
4058900 60 18124591148264532496
508706 21 18410577262285546198
5104073 3 18128256881360579641
5265222 85 18268135480406762276
56638632 33 16338366425279009931
6086070 43 17750537185273818685
7226269 152 18113339704665955616

> <PUBCHEM_SHAPE_MULTIPOLES>
646.88
11.48
3.39
1.64
8.81
0.62
0.17
-5.69
-2.65
-1.11
-0.08
-0.32
0.14
1.41

> <PUBCHEM_SHAPE_SELFOVERLAP>
1407.506

> <PUBCHEM_SHAPE_VOLUME>
343.7

> <PUBCHEM_COORDINATE_TYPE>
2
5
10

$$$$

