9543324
  -OEChem-07051213083D

 27 28  0     0  0  0  0  0  0999 V2000
    1.0399    0.6844    1.9191 O   0  0  0  0  0  0  0  0  0  0  0  0
    3.7293    0.2536    1.4861 O   0  0  0  0  0  0  0  0  0  0  0  0
   -2.1541   -2.7525   -0.1777 O   0  0  0  0  0  0  0  0  0  0  0  0
   -0.0847   -2.1782    0.5667 O   0  0  0  0  0  0  0  0  0  0  0  0
   -0.8200    0.5840   -0.2205 C   0  0  0  0  0  0  0  0  0  0  0  0
    0.5994    0.3606   -0.4158 C   0  0  0  0  0  0  0  0  0  0  0  0
   -1.6852   -0.4716    0.0671 C   0  0  0  0  0  0  0  0  0  0  0  0
    1.4877    0.4176    0.6576 C   0  0  0  0  0  0  0  0  0  0  0  0
   -1.3158    1.8836   -0.3246 C   0  0  0  0  0  0  0  0  0  0  0  0
    1.0717    0.0880   -1.6993 C   0  0  0  0  0  0  0  0  0  0  0  0
   -3.0463   -0.2277    0.2502 C   0  0  0  0  0  0  0  0  0  0  0  0
    2.8496    0.2018    0.4474 C   0  0  0  0  0  0  0  0  0  0  0  0
   -2.6769    2.1277   -0.1412 C   0  0  0  0  0  0  0  0  0  0  0  0
    2.4336   -0.1277   -1.9096 C   0  0  0  0  0  0  0  0  0  0  0  0
   -3.5421    1.0720    0.1461 C   0  0  0  0  0  0  0  0  0  0  0  0
    3.3225   -0.0708   -0.8362 C   0  0  0  0  0  0  0  0  0  0  0  0
   -1.2086   -1.8449    0.1848 C   0  0  0  0  0  0  0  0  0  0  0  0
   -0.6563    2.7193   -0.5472 H   0  0  0  0  0  0  0  0  0  0  0  0
    0.3932    0.0395   -2.5479 H   0  0  0  0  0  0  0  0  0  0  0  0
   -3.7458   -1.0243    0.4895 H   0  0  0  0  0  0  0  0  0  0  0  0
   -3.0629    3.1397   -0.2211 H   0  0  0  0  0  0  0  0  0  0  0  0
    2.8019   -0.3402   -2.9090 H   0  0  0  0  0  0  0  0  0  0  0  0
    4.3822   -0.2401   -1.0067 H   0  0  0  0  0  0  0  0  0  0  0  0
   -4.6012    1.2629    0.2922 H   0  0  0  0  0  0  0  0  0  0  0  0
    0.0779    0.8066    1.9335 H   0  0  0  0  0  0  0  0  0  0  0  0
    3.2318    0.4523    2.2984 H   0  0  0  0  0  0  0  0  0  0  0  0
   -1.8266   -3.6736   -0.0954 H   0  0  0  0  0  0  0  0  0  0  0  0
  1  8  1  0  0  0  0
  1 25  1  0  0  0  0
  2 12  1  0  0  0  0
  2 26  1  0  0  0  0
  3 17  1  0  0  0  0
  3 27  1  0  0  0  0
  4 17  2  0  0  0  0
  5  6  1  0  0  0  0
  5  7  1  0  0  0  0
  5  9  2  0  0  0  0
  6  8  2  0  0  0  0
  6 10  1  0  0  0  0
  7 11  2  0  0  0  0
  7 17  1  0  0  0  0
  8 12  1  0  0  0  0
  9 13  1  0  0  0  0
  9 18  1  0  0  0  0
 10 14  2  0  0  0  0
 10 19  1  0  0  0  0
 11 15  1  0  0  0  0
 11 20  1  0  0  0  0
 12 16  2  0  0  0  0
 13 15  2  0  0  0  0
 13 21  1  0  0  0  0
 14 16  1  0  0  0  0
 14 22  1  0  0  0  0
 15 24  1  0  0  0  0
 16 23  1  0  0  0  0
M  END
> <PUBCHEM_COMPOUND_CID>
9543324

> <PUBCHEM_CONFORMER_RMSD>
0.6

> <PUBCHEM_CONFORMER_DIVERSEORDER>
2
1

> <PUBCHEM_MMFF94_PARTIAL_CHARGES>
25
1 -0.53
10 -0.15
11 -0.15
12 0.08
13 -0.15
14 -0.15
15 -0.15
16 -0.15
17 0.63
18 0.15
19 0.15
2 -0.53
20 0.15
21 0.15
22 0.15
23 0.15
24 0.15
25 0.45
26 0.45
27 0.5
3 -0.65
4 -0.57
7 0.09
8 0.08
9 -0.15

> <PUBCHEM_EFFECTIVE_ROTOR_COUNT>
2

> <PUBCHEM_PHARMACOPHORE_FEATURES>
7
1 1 donor
1 2 donor
1 3 acceptor
1 4 acceptor
3 3 4 17 anion
6 5 7 9 11 13 15 rings
6 6 8 10 12 14 16 rings

> <PUBCHEM_HEAVY_ATOM_COUNT>
17

> <PUBCHEM_ATOM_DEF_STEREO_COUNT>
0

> <PUBCHEM_ATOM_UDEF_STEREO_COUNT>
0

> <PUBCHEM_BOND_DEF_STEREO_COUNT>
0

> <PUBCHEM_BOND_UDEF_STEREO_COUNT>
0

> <PUBCHEM_ISOTOPIC_ATOM_COUNT>
0

> <PUBCHEM_COMPONENT_COUNT>
1

> <PUBCHEM_CACTVS_TAUTO_COUNT>
13

> <PUBCHEM_CONFORMER_ID>
00919E9C00000002

> <PUBCHEM_MMFF94_ENERGY>
58.8353

> <PUBCHEM_FEATURE_SELFOVERLAP>
35.583

> <PUBCHEM_SHAPE_FINGERPRINT>
11471102 22 16588012520561205478
11582403 64 16597659716871712672
11725454 13 17245595304954830640
12236239 1 17489863843162916364
12500047 106 18409728499733720982
13140716 1 18196365927865068281
13538477 17 17917425385100661639
13581323 91 18344145890663599581
13898156 1 17774718667082815156
14817 1 14400411236263694591
15219456 202 17676488354107914156
15309172 13 18270105933496773257
15375462 175 18341315765119288717
15669948 3 18271796887394854470
15775835 57 18337389452193912233
15852999 172 18260824959656192150
16752209 62 18272658930945563559
16945 1 18411131437662797805
18186145 218 18042113431006108717
18219364 16 16516540876068799632
19049666 15 17895746434557943748
19422 9 17274815857070076977
20510252 161 18334851740713329889
20645476 183 17346018005508224991
21501502 16 18194119616487161796
22112679 90 17846782879770984236
23184049 29 18124314896152189311
23402539 116 18262816094200377597
23419403 2 17248119547945473513
23493267 7 18260543446663098376
23526113 38 17748823042398296602
23557571 272 18191857942833605548
23559900 14 18334285509968844918
2748010 2 18050568443969907543
276578 36 18196080260668071025
43471831 8 18272089461026481043
465052 167 17630298902266340299
474 4 13913477926742944522
69090 78 17749112188481919503
7364860 26 17760085520590692823
77492 1 17489863830251569276
81228 2 18265892463220961123
88987 49 18412539899320932612
90525 40 17917705833617118455
9981440 41 16908031745263258652

> <PUBCHEM_SHAPE_MULTIPOLES>
326.37
5.55
2.02
1.39
1
1.16
0.03
-1.19
-0.31
-2.14
-0.02
1.53
-0.16
0.21

> <PUBCHEM_SHAPE_SELFOVERLAP>
720.349

> <PUBCHEM_SHAPE_VOLUME>
174.8

> <PUBCHEM_COORDINATE_TYPE>
2
5
10

$$$$

