441125
  -OEChem-07051212523D

 26 27  0     1  0  0  0  0  0999 V2000
   -0.5868    0.1275   -1.4389 O   0  0  0  0  0  0  0  0  0  0  0  0
    0.9872    2.3102    1.7132 O   0  0  0  0  0  0  0  0  0  0  0  0
    1.7611   -2.5901    0.9861 O   0  0  0  0  0  0  0  0  0  0  0  0
    2.4689   -1.4694   -0.8683 O   0  0  0  0  0  0  0  0  0  0  0  0
    1.1695    0.7066   -0.0078 N   0  0  0  0  0  0  0  0  0  0  0  0
   -4.3108   -0.3825    0.5346 N   0  0  0  0  0  0  0  0  0  0  0  0
    0.5314    1.0333   -1.2896 C   0  0  2  0  0  0  0  0  0  0  0  0
    0.6855   -0.5673    0.4840 C   0  0  1  0  0  0  0  0  0  0  0  0
   -0.6268   -0.7858   -0.3044 C   0  0  1  0  0  0  0  0  0  0  0  0
    0.2986    2.4491   -0.7388 C   0  0  0  0  0  0  0  0  0  0  0  0
    0.8939    1.9108    0.5746 C   0  0  0  0  0  0  0  0  0  0  0  0
   -1.8632   -0.4590    0.5206 C   0  0  0  0  0  0  0  0  0  0  0  0
    1.7341   -1.5615    0.1037 C   0  0  0  0  0  0  0  0  0  0  0  0
   -3.1426   -0.7219   -0.2690 C   0  0  0  0  0  0  0  0  0  0  0  0
    1.2228    0.9700   -2.1355 H   0  0  0  0  0  0  0  0  0  0  0  0
    0.5512   -0.5333    1.5700 H   0  0  0  0  0  0  0  0  0  0  0  0
   -0.6918   -1.8072   -0.6970 H   0  0  0  0  0  0  0  0  0  0  0  0
   -0.7467    2.7567   -0.6580 H   0  0  0  0  0  0  0  0  0  0  0  0
    0.8925    3.2381   -1.2065 H   0  0  0  0  0  0  0  0  0  0  0  0
   -1.8420    0.5954    0.8244 H   0  0  0  0  0  0  0  0  0  0  0  0
   -1.8631   -1.0648    1.4354 H   0  0  0  0  0  0  0  0  0  0  0  0
   -3.2026   -1.7762   -0.5598 H   0  0  0  0  0  0  0  0  0  0  0  0
   -3.1659   -0.1264   -1.1874 H   0  0  0  0  0  0  0  0  0  0  0  0
   -4.2607    0.5960    0.8162 H   0  0  0  0  0  0  0  0  0  0  0  0
   -4.3011   -0.9230    1.3989 H   0  0  0  0  0  0  0  0  0  0  0  0
    2.4430   -3.2554    0.7525 H   0  0  0  0  0  0  0  0  0  0  0  0
  1  7  1  0  0  0  0
  1  9  1  0  0  0  0
  2 11  2  0  0  0  0
  3 13  1  0  0  0  0
  3 26  1  0  0  0  0
  4 13  2  0  0  0  0
  5  7  1  0  0  0  0
  5  8  1  0  0  0  0
  5 11  1  0  0  0  0
  6 14  1  0  0  0  0
  6 24  1  0  0  0  0
  6 25  1  0  0  0  0
  7 10  1  0  0  0  0
  7 15  1  0  0  0  0
  8  9  1  0  0  0  0
  8 13  1  0  0  0  0
  8 16  1  0  0  0  0
  9 12  1  0  0  0  0
  9 17  1  0  0  0  0
 10 11  1  0  0  0  0
 10 18  1  0  0  0  0
 10 19  1  0  0  0  0
 12 14  1  0  0  0  0
 12 20  1  0  0  0  0
 12 21  1  0  0  0  0
 14 22  1  0  0  0  0
 14 23  1  0  0  0  0
M  END
> <PUBCHEM_COMPOUND_CID>
441125

> <PUBCHEM_CONFORMER_RMSD>
0.6

> <PUBCHEM_CONFORMER_DIVERSEORDER>
1
4
7
3
6
5
2

> <PUBCHEM_MMFF94_PARTIAL_CHARGES>
16
1 -0.54
10 0.05
11 0.58
13 0.66
14 0.27
2 -0.57
24 0.36
25 0.36
26 0.5
3 -0.65
4 -0.57
5 -0.59
6 -0.99
7 0.48
8 0.36
9 0.28

> <PUBCHEM_EFFECTIVE_ROTOR_COUNT>
3.8

> <PUBCHEM_PHARMACOPHORE_FEATURES>
8
1 1 acceptor
1 2 acceptor
1 3 acceptor
1 4 acceptor
1 6 cation
1 6 donor
3 3 4 13 anion
7 1 5 7 8 9 10 11 rings

> <PUBCHEM_HEAVY_ATOM_COUNT>
14

> <PUBCHEM_ATOM_DEF_STEREO_COUNT>
3

> <PUBCHEM_ATOM_UDEF_STEREO_COUNT>
0

> <PUBCHEM_BOND_DEF_STEREO_COUNT>
0

> <PUBCHEM_BOND_UDEF_STEREO_COUNT>
0

> <PUBCHEM_ISOTOPIC_ATOM_COUNT>
0

> <PUBCHEM_COMPONENT_COUNT>
1

> <PUBCHEM_CACTVS_TAUTO_COUNT>
1

> <PUBCHEM_CONFORMER_ID>
0006BB2500000001

> <PUBCHEM_MMFF94_ENERGY>
33.6093

> <PUBCHEM_FEATURE_SELFOVERLAP>
40.65

> <PUBCHEM_SHAPE_FINGERPRINT>
12423570 1 14159364236938647996
12725867 57 18272091595313691933
13024252 1 13394082051026973750
13132413 78 18265600155983457869
14817 1 15763927511570829756
15490181 8 17620476805090252094
161256 15 18341337755220086028
16945 1 18058993060564351590
18410436 195 18335703896346736939
20559304 39 18261103063563525619
20708731 107 18200864081120641807
21524375 3 17537725391241863841
230 275 18193552273251571637
23419403 2 18051728630258107552
23526113 38 17274813692781431339
2748010 2 18127154019811306325
305870 269 18046636602852090841
7364860 26 18188206494603151915
81228 2 17834390507362794155

> <PUBCHEM_SHAPE_MULTIPOLES>
254.67
3.89
2.63
1.24
6.12
0.3
-0.04
-1.56
-0.51
-2.29
-0.53
-0.35
0.46
0.19

> <PUBCHEM_SHAPE_SELFOVERLAP>
529.34

> <PUBCHEM_SHAPE_VOLUME>
144.7

> <PUBCHEM_COORDINATE_TYPE>
2
5
10

$$$$

