47205670
  -OEChem-06241222593D

 41 41  0     0  0  0  0  0  0999 V2000
   -0.5711   -0.3376    0.6069 O   0  0  0  0  0  0  0  0  0  0  0  0
   -3.5304    0.5709   -1.3405 O   0  0  0  0  0  0  0  0  0  0  0  0
    0.5899    1.6582    0.1736 N   0  0  0  0  0  0  0  0  0  0  0  0
   -2.9248    0.9482    0.8686 N   0  0  0  0  0  0  0  0  0  0  0  0
    3.8712   -2.0218   -0.0075 C   0  0  0  0  0  0  0  0  0  0  0  0
    3.5420   -0.5710   -0.1099 C   0  0  0  0  0  0  0  0  0  0  0  0
    2.2293   -0.1385    0.0784 C   0  0  0  0  0  0  0  0  0  0  0  0
    3.1445   -2.8670   -1.0709 C   0  0  0  0  0  0  0  0  0  0  0  0
    3.5892   -2.5924    1.3955 C   0  0  0  0  0  0  0  0  0  0  0  0
    1.9214    1.2186   -0.0174 C   0  0  0  0  0  0  0  0  0  0  0  0
    4.5471    0.3538   -0.3941 C   0  0  0  0  0  0  0  0  0  0  0  0
    2.9265    2.1434   -0.3015 C   0  0  0  0  0  0  0  0  0  0  0  0
    4.2392    1.7109   -0.4901 C   0  0  0  0  0  0  0  0  0  0  0  0
   -4.8742   -0.3895    0.4296 C   0  0  0  0  0  0  0  0  0  0  0  0
   -5.7620   -0.9816   -0.6611 C   0  0  0  0  0  0  0  0  0  0  0  0
   -1.7615    1.7553    0.5864 C   0  0  0  0  0  0  0  0  0  0  0  0
   -0.5279    0.8797    0.4617 C   0  0  0  0  0  0  0  0  0  0  0  0
   -3.7203    0.4180   -0.1368 C   0  0  0  0  0  0  0  0  0  0  0  0
   -6.9281   -1.7576   -0.0709 C   0  0  0  0  0  0  0  0  0  0  0  0
    4.9469   -2.1547   -0.1866 H   0  0  0  0  0  0  0  0  0  0  0  0
    1.4897   -0.8948    0.2958 H   0  0  0  0  0  0  0  0  0  0  0  0
    3.9334   -3.6301    1.4634 H   0  0  0  0  0  0  0  0  0  0  0  0
    4.1139   -2.0133    2.1636 H   0  0  0  0  0  0  0  0  0  0  0  0
    2.5210   -2.5799    1.6373 H   0  0  0  0  0  0  0  0  0  0  0  0
    3.3492   -2.4856   -2.0774 H   0  0  0  0  0  0  0  0  0  0  0  0
    3.4838   -3.9078   -1.0305 H   0  0  0  0  0  0  0  0  0  0  0  0
    2.0588   -2.8655   -0.9259 H   0  0  0  0  0  0  0  0  0  0  0  0
    5.5749    0.0342   -0.5437 H   0  0  0  0  0  0  0  0  0  0  0  0
    2.7004    3.2038   -0.3789 H   0  0  0  0  0  0  0  0  0  0  0  0
    5.0216    2.4309   -0.7114 H   0  0  0  0  0  0  0  0  0  0  0  0
   -4.4596   -1.1918    1.0516 H   0  0  0  0  0  0  0  0  0  0  0  0
   -5.4654    0.2686    1.0777 H   0  0  0  0  0  0  0  0  0  0  0  0
    0.4515    2.6629    0.0868 H   0  0  0  0  0  0  0  0  0  0  0  0
   -6.1497   -0.1820   -1.3036 H   0  0  0  0  0  0  0  0  0  0  0  0
   -5.1717   -1.6460   -1.3034 H   0  0  0  0  0  0  0  0  0  0  0  0
   -1.6299    2.4544    1.4179 H   0  0  0  0  0  0  0  0  0  0  0  0
   -1.9117    2.3138   -0.3431 H   0  0  0  0  0  0  0  0  0  0  0  0
   -3.1488    0.7533    1.8402 H   0  0  0  0  0  0  0  0  0  0  0  0
   -7.5496   -2.1738   -0.8699 H   0  0  0  0  0  0  0  0  0  0  0  0
   -7.5580   -1.1096    0.5469 H   0  0  0  0  0  0  0  0  0  0  0  0
   -6.5734   -2.5862    0.5502 H   0  0  0  0  0  0  0  0  0  0  0  0
  1 17  2  0  0  0  0
  2 18  2  0  0  0  0
  3 10  1  0  0  0  0
  3 17  1  0  0  0  0
  3 33  1  0  0  0  0
  4 16  1  0  0  0  0
  4 18  1  0  0  0  0
  4 38  1  0  0  0  0
  5  6  1  0  0  0  0
  5  8  1  0  0  0  0
  5  9  1  0  0  0  0
  5 20  1  0  0  0  0
  6  7  2  0  0  0  0
  6 11  1  0  0  0  0
  7 10  1  0  0  0  0
  7 21  1  0  0  0  0
  8 25  1  0  0  0  0
  8 26  1  0  0  0  0
  8 27  1  0  0  0  0
  9 22  1  0  0  0  0
  9 23  1  0  0  0  0
  9 24  1  0  0  0  0
 10 12  2  0  0  0  0
 11 13  2  0  0  0  0
 11 28  1  0  0  0  0
 12 13  1  0  0  0  0
 12 29  1  0  0  0  0
 13 30  1  0  0  0  0
 14 15  1  0  0  0  0
 14 18  1  0  0  0  0
 14 31  1  0  0  0  0
 14 32  1  0  0  0  0
 15 19  1  0  0  0  0
 15 34  1  0  0  0  0
 15 35  1  0  0  0  0
 16 17  1  0  0  0  0
 16 36  1  0  0  0  0
 16 37  1  0  0  0  0
 19 39  1  0  0  0  0
 19 40  1  0  0  0  0
 19 41  1  0  0  0  0
M  END
> <PUBCHEM_COMPOUND_CID>
47205670

> <PUBCHEM_CONFORMER_RMSD>
1

> <PUBCHEM_CONFORMER_DIVERSEORDER>
1
19
70
52
75
33
48
25
39
84
9
83
6
8
26
57
63
32
65
55
85
51
86
43
60
22
87
29
74
71
66
67
13
88
24
61
18
16
47
41
64
31
58
4
78
72
35
30
27
14
37
73
53
34
5
20
54
23
45
59
56
76
69
11
81
82
3
49
80
2
10
68
44
36
42
62
38
79
12
15
77
40
46
17
7
50
21
28

> <PUBCHEM_MMFF94_PARTIAL_CHARGES>
21
1 -0.57
10 0.12
11 -0.15
12 -0.15
13 -0.15
14 0.06
16 0.36
17 0.57
18 0.57
2 -0.57
21 0.15
28 0.15
29 0.15
3 -0.55
30 0.15
33 0.37
38 0.37
4 -0.73
5 0.14
6 -0.14
7 -0.15

> <PUBCHEM_EFFECTIVE_ROTOR_COUNT>
8

> <PUBCHEM_PHARMACOPHORE_FEATURES>
7
1 1 acceptor
1 19 hydrophobe
1 2 acceptor
1 3 donor
1 4 donor
3 5 8 9 hydrophobe
6 6 7 10 11 12 13 rings

> <PUBCHEM_HEAVY_ATOM_COUNT>
19

> <PUBCHEM_ATOM_DEF_STEREO_COUNT>
0

> <PUBCHEM_ATOM_UDEF_STEREO_COUNT>
0

> <PUBCHEM_BOND_DEF_STEREO_COUNT>
0

> <PUBCHEM_BOND_UDEF_STEREO_COUNT>
0

> <PUBCHEM_ISOTOPIC_ATOM_COUNT>
0

> <PUBCHEM_COMPONENT_COUNT>
1

> <PUBCHEM_CACTVS_TAUTO_COUNT>
4

> <PUBCHEM_CONFORMER_ID>
02D04D2600000001

> <PUBCHEM_MMFF94_ENERGY>
40.3868

> <PUBCHEM_FEATURE_SELFOVERLAP>
35.52

> <PUBCHEM_SHAPE_FINGERPRINT>
10447042 23 18335708230127020389
10595046 47 18409444769999978129
11089746 13 10231758859972726521
12107183 9 17757821604500439633
12596602 18 17022616464160189787
12730499 353 18270113509602695104
13073987 5 18334575746204423361
13167823 11 18334010622717767181
13533116 47 18408321069010233537
13836976 161 18342168926588121980
13955234 65 17899139321763639017
1420 369 18260547857278071599
14251740 57 17968653929857862918
14576447 43 18408882936642770380
15003188 105 18272370923187127842
15183329 4 18408040732796156461
15239154 128 10519691293974011375
15537594 2 17895196558859641895
17134984 74 18202004279021566555
17492 89 18189894390854322702
17857418 61 18334016090564530443
200 152 18333449833307261545
20028762 73 18261675968856578574
20281475 54 18334573581213897457
20626108 58 18196381535781581394
20645477 70 18412260653574608042
21285901 2 17846786199649141004
22224240 67 18337397033529088912
23557571 272 17489593354997717189
23559900 14 18270115704331373320
23596394 208 17560806571059613027
2838139 119 9511198309179096451
3004659 81 18413108380949566222
312423 11 18263070158137096984
314194 84 18260547771737291947
33382 64 18335416842687485347
33824 294 18412261731985932808
34797466 226 16916782943001967685
351380 3 17822008684058733093
4259306 186 18409453566340303189
46194498 28 17775286006630366461
465052 167 18041274387907018645
5104073 3 18186803621024816729
5281201 14 17917710231500521813
6025842 7 18341328886492694332
9709674 26 18341320184746118586

> <PUBCHEM_SHAPE_MULTIPOLES>
369.31
14.2
2.81
0.98
23.66
1.43
0.02
7.26
-1.96
-3.26
0
-0.1
0.35
-0.82

> <PUBCHEM_SHAPE_SELFOVERLAP>
741.67

> <PUBCHEM_SHAPE_VOLUME>
216.6

> <PUBCHEM_COORDINATE_TYPE>
2
5
10

$$$$

