12781
  -OEChem-06261207212D

 15 15  0     0  0  0  0  0  0999 V2000
    2.8090    0.2239    0.0000 O   0  0  0  0  0  0  0  0  0  0  0  0
    5.9360   -1.7627    0.0000 O   0  5  0  0  0  0  0  0  0  0  0  0
    6.4712   -0.1154    0.0000 O   0  0  0  0  0  0  0  0  0  0  0  0
    5.7281   -0.7845    0.0000 N   0  3  0  0  0  0  0  0  0  0  0  0
    3.6180    0.8116    0.0000 C   0  0  0  0  0  0  0  0  0  0  0  0
    3.3090    1.7627    0.0000 C   0  0  0  0  0  0  0  0  0  0  0  0
    4.5691    0.5026    0.0000 C   0  0  0  0  0  0  0  0  0  0  0  0
    2.3090    1.7627    0.0000 C   0  0  0  0  0  0  0  0  0  0  0  0
    2.0000    0.8116    0.0000 C   0  0  0  0  0  0  0  0  0  0  0  0
    4.7770   -0.4755    0.0000 C   0  0  0  0  0  0  0  0  0  0  0  0
    3.6734    2.2643    0.0000 H   0  0  0  0  0  0  0  0  0  0  0  0
    5.0298    0.9175    0.0000 H   0  0  0  0  0  0  0  0  0  0  0  0
    1.9446    2.2643    0.0000 H   0  0  0  0  0  0  0  0  0  0  0  0
    1.4103    0.6200    0.0000 H   0  0  0  0  0  0  0  0  0  0  0  0
    4.3162   -0.8904    0.0000 H   0  0  0  0  0  0  0  0  0  0  0  0
  1  5  1  0  0  0  0
  1  9  1  0  0  0  0
  2  4  1  0  0  0  0
  3  4  2  0  0  0  0
  4 10  1  0  0  0  0
  5  6  2  0  0  0  0
  5  7  1  0  0  0  0
  6  8  1  0  0  0  0
  6 11  1  0  0  0  0
  7 10  2  3  0  0  0
  7 12  1  0  0  0  0
  8  9  2  0  0  0  0
  8 13  1  0  0  0  0
  9 14  1  0  0  0  0
 10 15  1  0  0  0  0
M  CHG  2   2  -1   4   1
M  END
> <PUBCHEM_COMPOUND_CID>
12781

> <PUBCHEM_COMPOUND_CANONICALIZED>
1

> <PUBCHEM_CACTVS_COMPLEXITY>
150

> <PUBCHEM_CACTVS_HBOND_ACCEPTOR>
3

> <PUBCHEM_CACTVS_HBOND_DONOR>
0

> <PUBCHEM_CACTVS_ROTATABLE_BOND>
1

> <PUBCHEM_CACTVS_SUBSKEYS>
AAADcYBiMAAAAAAAAAAAAAAAAAAAASAAAAAAAAAAAAAAAAABgAAAHgAEAAAACAThkAYwBIAQRECJAKhWwwACCAAkIgAIiAEGCMgMJjKENRqCGSCkwBEIqcaIAAAAAAAAAAAAAAAAAAAAAAAAAAAAAAAAAA==

> <PUBCHEM_IUPAC_OPENEYE_NAME>
2-(2-nitrovinyl)furan

> <PUBCHEM_IUPAC_CAS_NAME>
2-(2-nitroethenyl)furan

> <PUBCHEM_IUPAC_NAME>
2-(2-nitroethenyl)furan

> <PUBCHEM_IUPAC_SYSTEMATIC_NAME>
2-(2-nitroethenyl)furan

> <PUBCHEM_IUPAC_TRADITIONAL_NAME>
2-(2-nitrovinyl)furan

> <PUBCHEM_IUPAC_INCHI>
InChI=1S/C6H5NO3/c8-7(9)4-3-6-2-1-5-10-6/h1-5H

> <PUBCHEM_IUPAC_INCHIKEY>
WVUICGOYGDHVBH-UHFFFAOYSA-N

> <PUBCHEM_XLOGP3>
1.6

> <PUBCHEM_EXACT_MASS>
139.026943

> <PUBCHEM_MOLECULAR_FORMULA>
C6H5NO3

> <PUBCHEM_MOLECULAR_WEIGHT>
139.1088

> <PUBCHEM_OPENEYE_CAN_SMILES>
C1=COC(=C1)C=C[N+](=O)[O-]

> <PUBCHEM_OPENEYE_ISO_SMILES>
C1=COC(=C1)C=C[N+](=O)[O-]

> <PUBCHEM_CACTVS_TPSA>
59

> <PUBCHEM_MONOISOTOPIC_WEIGHT>
139.026943

> <PUBCHEM_TOTAL_CHARGE>
0

> <PUBCHEM_HEAVY_ATOM_COUNT>
10

> <PUBCHEM_ATOM_DEF_STEREO_COUNT>
0

> <PUBCHEM_ATOM_UDEF_STEREO_COUNT>
0

> <PUBCHEM_BOND_DEF_STEREO_COUNT>
0

> <PUBCHEM_BOND_UDEF_STEREO_COUNT>
1

> <PUBCHEM_ISOTOPIC_ATOM_COUNT>
0

> <PUBCHEM_COMPONENT_COUNT>
1

> <PUBCHEM_CACTVS_TAUTO_COUNT>
2

> <PUBCHEM_COORDINATE_TYPE>
1
5
255

> <PUBCHEM_BONDANNOTATIONS>
1  5  8
1  9  8
5  6  8
6  8  8
7  10  1
8  9  8

$$$$

