440333
  -OEChem-07051212492D

 38 37  0     1  0  0  0  0  0999 V2000
    3.4030    1.8100    0.0000 O   0  0  0  0  0  0  0  0  0  0  0  0
    4.2690    3.3100    0.0000 O   0  0  0  0  0  0  0  0  0  0  0  0
    2.5369   -2.6900    0.0000 O   0  0  0  0  0  0  0  0  0  0  0  0
    6.8671    0.8100    0.0000 O   0  0  0  0  0  0  0  0  0  0  0  0
    4.2690   -2.6900    0.0000 O   0  0  0  0  0  0  0  0  0  0  0  0
   10.3312    1.8100    0.0000 O   0  0  0  0  0  0  0  0  0  0  0  0
    9.4651    3.3100    0.0000 O   0  0  0  0  0  0  0  0  0  0  0  0
    6.0010    2.3100    0.0000 N   0  0  0  0  0  0  0  0  0  0  0  0
    2.5369   -0.6900    0.0000 N   0  0  0  0  0  0  0  0  0  0  0  0
    5.1350    0.8100    0.0000 C   0  0  0  0  0  0  0  0  0  0  0  0
    4.2690    0.3100    0.0000 C   0  0  0  0  0  0  0  0  0  0  0  0
    5.1350    1.8100    0.0000 C   0  0  1  0  0  0  0  0  0  0  0  0
    4.2690   -0.6900    0.0000 C   0  0  0  0  0  0  0  0  0  0  0  0
    3.4030   -1.1900    0.0000 C   0  0  1  0  0  0  0  0  0  0  0  0
    4.2690    2.3100    0.0000 C   0  0  0  0  0  0  0  0  0  0  0  0
    6.8671    1.8100    0.0000 C   0  0  0  0  0  0  0  0  0  0  0  0
    3.4030   -2.1900    0.0000 C   0  0  0  0  0  0  0  0  0  0  0  0
    7.7331    2.3100    0.0000 C   0  0  0  0  0  0  0  0  0  0  0  0
    8.5991    1.8100    0.0000 C   0  0  0  0  0  0  0  0  0  0  0  0
    9.4651    2.3100    0.0000 C   0  0  0  0  0  0  0  0  0  0  0  0
    5.3471    0.2274    0.0000 H   0  0  0  0  0  0  0  0  0  0  0  0
    5.7456    0.9177    0.0000 H   0  0  0  0  0  0  0  0  0  0  0  0
    4.0569    0.8926    0.0000 H   0  0  0  0  0  0  0  0  0  0  0  0
    3.6584    0.2023    0.0000 H   0  0  0  0  0  0  0  0  0  0  0  0
    5.1350    2.4300    0.0000 H   0  0  0  0  0  0  0  0  0  0  0  0
    4.4810   -1.2726    0.0000 H   0  0  0  0  0  0  0  0  0  0  0  0
    4.8796   -0.5823    0.0000 H   0  0  0  0  0  0  0  0  0  0  0  0
    2.8660   -1.5000    0.0000 H   0  0  0  0  0  0  0  0  0  0  0  0
    6.0010    2.9300    0.0000 H   0  0  0  0  0  0  0  0  0  0  0  0
    8.1316    2.7849    0.0000 H   0  0  0  0  0  0  0  0  0  0  0  0
    7.3346    2.7849    0.0000 H   0  0  0  0  0  0  0  0  0  0  0  0
    2.0000   -1.0000    0.0000 H   0  0  0  0  0  0  0  0  0  0  0  0
    2.5369   -0.0700    0.0000 H   0  0  0  0  0  0  0  0  0  0  0  0
    8.2006    1.3350    0.0000 H   0  0  0  0  0  0  0  0  0  0  0  0
    8.9976    1.3350    0.0000 H   0  0  0  0  0  0  0  0  0  0  0  0
    2.8660    2.1200    0.0000 H   0  0  0  0  0  0  0  0  0  0  0  0
    2.5369   -3.3100    0.0000 H   0  0  0  0  0  0  0  0  0  0  0  0
   10.8681    2.1200    0.0000 H   0  0  0  0  0  0  0  0  0  0  0  0
  1 15  1  0  0  0  0
  1 36  1  0  0  0  0
  2 15  2  0  0  0  0
  3 17  1  0  0  0  0
  3 37  1  0  0  0  0
  4 16  2  0  0  0  0
  5 17  2  0  0  0  0
  6 20  1  0  0  0  0
  6 38  1  0  0  0  0
  7 20  2  0  0  0  0
 12  8  1  1  0  0  0
  8 16  1  0  0  0  0
  8 29  1  0  0  0  0
 14  9  1  1  0  0  0
  9 32  1  0  0  0  0
  9 33  1  0  0  0  0
 10 11  1  0  0  0  0
 10 12  1  0  0  0  0
 10 21  1  0  0  0  0
 10 22  1  0  0  0  0
 11 13  1  0  0  0  0
 11 23  1  0  0  0  0
 11 24  1  0  0  0  0
 12 15  1  0  0  0  0
 12 25  1  0  0  0  0
 13 14  1  0  0  0  0
 13 26  1  0  0  0  0
 13 27  1  0  0  0  0
 14 17  1  0  0  0  0
 14 28  1  0  0  0  0
 16 18  1  0  0  0  0
 18 19  1  0  0  0  0
 18 30  1  0  0  0  0
 18 31  1  0  0  0  0
 19 20  1  0  0  0  0
 19 34  1  0  0  0  0
 19 35  1  0  0  0  0
M  END
> <PUBCHEM_COMPOUND_CID>
440333

> <PUBCHEM_COMPOUND_CANONICALIZED>
1

> <PUBCHEM_CACTVS_COMPLEXITY>
383

> <PUBCHEM_CACTVS_HBOND_ACCEPTOR>
8

> <PUBCHEM_CACTVS_HBOND_DONOR>
5

> <PUBCHEM_CACTVS_ROTATABLE_BOND>
10

> <PUBCHEM_CACTVS_SUBSKEYS>
AAADceBzOAAAAAAAAAAAAAAAAAAAAAAAAAAAAAAAAAAAAAAAAAAAHgAQCAAACCjBgAQACALAAgAIAAGQGAAAAAAAAAAAAIGIAAACABIAgCAEQAAEFgCQAAG/yCCAAAAAAAAAAAAAAAAAAAAAAAAAAAAAAA==

> <PUBCHEM_IUPAC_OPENEYE_NAME>
(2S,6S)-2-amino-6-(3-carboxypropanoylamino)heptanedioic acid

> <PUBCHEM_IUPAC_CAS_NAME>
(2S,6S)-2-amino-6-[(3-carboxy-1-oxopropyl)amino]heptanedioic acid

> <PUBCHEM_IUPAC_NAME>
(2S,6S)-2-amino-6-(3-carboxypropanoylamino)heptanedioic acid

> <PUBCHEM_IUPAC_SYSTEMATIC_NAME>
(2S,6S)-2-azanyl-6-[(4-oxidanyl-4-oxidanylidene-butanoyl)amino]heptanedioic acid

> <PUBCHEM_IUPAC_TRADITIONAL_NAME>
(2S,6S)-2-amino-6-(3-carboxypropanoylamino)pimelic acid

> <PUBCHEM_IUPAC_INCHI>
InChI=1S/C11H18N2O7/c12-6(10(17)18)2-1-3-7(11(19)20)13-8(14)4-5-9(15)16/h6-7H,1-5,12H2,(H,13,14)(H,15,16)(H,17,18)(H,19,20)/t6-,7-/m0/s1

> <PUBCHEM_IUPAC_INCHIKEY>
GLXUWZBUPATPBR-BQBZGAKWSA-N

> <PUBCHEM_XLOGP3_AA>
-3.9

> <PUBCHEM_EXACT_MASS>
290.111401

> <PUBCHEM_MOLECULAR_FORMULA>
C11H18N2O7

> <PUBCHEM_MOLECULAR_WEIGHT>
290.26982

> <PUBCHEM_OPENEYE_CAN_SMILES>
C(CC(C(=O)O)N)CC(C(=O)O)NC(=O)CCC(=O)O

> <PUBCHEM_OPENEYE_ISO_SMILES>
C(C[C@@H](C(=O)O)N)C[C@@H](C(=O)O)NC(=O)CCC(=O)O

> <PUBCHEM_CACTVS_TPSA>
167

> <PUBCHEM_MONOISOTOPIC_WEIGHT>
290.111401

> <PUBCHEM_TOTAL_CHARGE>
0

> <PUBCHEM_HEAVY_ATOM_COUNT>
20

> <PUBCHEM_ATOM_DEF_STEREO_COUNT>
2

> <PUBCHEM_ATOM_UDEF_STEREO_COUNT>
0

> <PUBCHEM_BOND_DEF_STEREO_COUNT>
0

> <PUBCHEM_BOND_UDEF_STEREO_COUNT>
0

> <PUBCHEM_ISOTOPIC_ATOM_COUNT>
0

> <PUBCHEM_COMPONENT_COUNT>
1

> <PUBCHEM_CACTVS_TAUTO_COUNT>
2

> <PUBCHEM_COORDINATE_TYPE>
1
5
255

> <PUBCHEM_BONDANNOTATIONS>
12  8  5
14  9  5

$$$$

