8604
  -OEChem-06261202573D

 45 47  0     1  0  0  0  0  0999 V2000
    2.3727    0.7956    1.9292 S   0  0  0  0  0  0  0  0  0  0  0  0
    1.1671   -0.0745   -2.2182 O   0  0  0  0  0  0  0  0  0  0  0  0
    4.9262   -2.4094   -0.4609 O   0  0  0  0  0  0  0  0  0  0  0  0
    4.9424   -0.5625   -1.7970 O   0  0  0  0  0  0  0  0  0  0  0  0
   -1.4228    1.5687   -1.6474 O   0  0  0  0  0  0  0  0  0  0  0  0
   -3.6335    1.1331   -0.2192 O   0  0  0  0  0  0  0  0  0  0  0  0
    2.8047    0.4671   -0.6072 N   0  0  0  0  0  0  0  0  0  0  0  0
   -0.0442    1.6078    0.2190 N   0  0  0  0  0  0  0  0  0  0  0  0
    2.5239    1.5927    0.2889 C   0  0  1  0  0  0  0  0  0  0  0  0
    3.6022   -0.5180    1.4470 C   0  0  0  0  0  0  0  0  0  0  0  0
    3.2956   -0.7744   -0.0442 C   0  0  2  0  0  0  0  0  0  0  0  0
    1.2234    1.8097   -0.4967 C   0  0  1  0  0  0  0  0  0  0  0  0
    1.6638    0.5998   -1.3447 C   0  0  0  0  0  0  0  0  0  0  0  0
    5.0096    0.0284    1.7232 C   0  0  0  0  0  0  0  0  0  0  0  0
    3.3506   -1.7687    2.2912 C   0  0  0  0  0  0  0  0  0  0  0  0
    4.4643   -1.2033   -0.8727 C   0  0  0  0  0  0  0  0  0  0  0  0
   -1.2755    1.5033   -0.4289 C   0  0  0  0  0  0  0  0  0  0  0  0
   -2.4371    1.2774    0.5278 C   0  0  1  0  0  0  0  0  0  0  0  0
   -2.6048    2.4572    1.4720 C   0  0  0  0  0  0  0  0  0  0  0  0
   -4.3074   -0.0553   -0.0901 C   0  0  0  0  0  0  0  0  0  0  0  0
   -3.6769   -1.2433   -0.4385 C   0  0  0  0  0  0  0  0  0  0  0  0
   -5.6122   -0.0556    0.3871 C   0  0  0  0  0  0  0  0  0  0  0  0
   -4.3622   -2.4511   -0.3078 C   0  0  0  0  0  0  0  0  0  0  0  0
   -6.2975   -1.2635    0.5177 C   0  0  0  0  0  0  0  0  0  0  0  0
   -5.6725   -2.4612    0.1702 C   0  0  0  0  0  0  0  0  0  0  0  0
    3.2687    2.3903    0.2139 H   0  0  0  0  0  0  0  0  0  0  0  0
    2.5021   -1.5231   -0.1718 H   0  0  0  0  0  0  0  0  0  0  0  0
    1.2122    2.7445   -1.0698 H   0  0  0  0  0  0  0  0  0  0  0  0
    5.2425    0.9046    1.1078 H   0  0  0  0  0  0  0  0  0  0  0  0
    5.1279    0.3165    2.7746 H   0  0  0  0  0  0  0  0  0  0  0  0
    5.7760   -0.7271    1.5173 H   0  0  0  0  0  0  0  0  0  0  0  0
    3.4764   -1.5633    3.3609 H   0  0  0  0  0  0  0  0  0  0  0  0
    2.3383   -2.1628    2.1439 H   0  0  0  0  0  0  0  0  0  0  0  0
    4.0527   -2.5685    2.0327 H   0  0  0  0  0  0  0  0  0  0  0  0
   -0.0292    1.5103    1.2312 H   0  0  0  0  0  0  0  0  0  0  0  0
   -2.2145    0.3835    1.1263 H   0  0  0  0  0  0  0  0  0  0  0  0
    5.6947   -2.7084   -0.9921 H   0  0  0  0  0  0  0  0  0  0  0  0
   -2.7511    3.3873    0.9107 H   0  0  0  0  0  0  0  0  0  0  0  0
   -1.7401    2.5915    2.1284 H   0  0  0  0  0  0  0  0  0  0  0  0
   -3.4931    2.3231    2.0991 H   0  0  0  0  0  0  0  0  0  0  0  0
   -2.6603   -1.2486   -0.8211 H   0  0  0  0  0  0  0  0  0  0  0  0
   -6.1018    0.8750    0.6590 H   0  0  0  0  0  0  0  0  0  0  0  0
   -3.8765   -3.3834   -0.5804 H   0  0  0  0  0  0  0  0  0  0  0  0
   -7.3177   -1.2715    0.8899 H   0  0  0  0  0  0  0  0  0  0  0  0
   -6.2063   -3.4016    0.2715 H   0  0  0  0  0  0  0  0  0  0  0  0
  1  9  1  0  0  0  0
  1 10  1  0  0  0  0
  2 13  2  0  0  0  0
  3 16  1  0  0  0  0
  3 37  1  0  0  0  0
  4 16  2  0  0  0  0
  5 17  2  0  0  0  0
  6 18  1  0  0  0  0
  6 20  1  0  0  0  0
  7  9  1  0  0  0  0
  7 11  1  0  0  0  0
  7 13  1  0  0  0  0
  8 12  1  0  0  0  0
  8 17  1  0  0  0  0
  8 35  1  0  0  0  0
  9 12  1  0  0  0  0
  9 26  1  0  0  0  0
 10 11  1  0  0  0  0
 10 14  1  0  0  0  0
 10 15  1  0  0  0  0
 11 16  1  0  0  0  0
 11 27  1  0  0  0  0
 12 13  1  0  0  0  0
 12 28  1  0  0  0  0
 14 29  1  0  0  0  0
 14 30  1  0  0  0  0
 14 31  1  0  0  0  0
 15 32  1  0  0  0  0
 15 33  1  0  0  0  0
 15 34  1  0  0  0  0
 17 18  1  0  0  0  0
 18 19  1  0  0  0  0
 18 36  1  0  0  0  0
 19 38  1  0  0  0  0
 19 39  1  0  0  0  0
 19 40  1  0  0  0  0
 20 21  2  0  0  0  0
 20 22  1  0  0  0  0
 21 23  1  0  0  0  0
 21 41  1  0  0  0  0
 22 24  2  0  0  0  0
 22 42  1  0  0  0  0
 23 25  2  0  0  0  0
 23 43  1  0  0  0  0
 24 25  1  0  0  0  0
 24 44  1  0  0  0  0
 25 45  1  0  0  0  0
M  END
> <PUBCHEM_COMPOUND_CID>
8604

> <PUBCHEM_CONFORMER_RMSD>
0.8

> <PUBCHEM_CONFORMER_DIVERSEORDER>
11
77
29
61
33
30
42
99
63
57
59
67
2
40
82
83
73
90
13
89
12
76
47
46
97
101
35
69
100
60
48
68
93
70
91
24
32
58
21
4
72
22
74
38
9
71
94
23
6
26
41
37
64
43
75
51
28
19
53
85
50
14
96
78
39
36
31
44
52
7
66
55
95
25
84
92
80
49
56
16
87
54
86
5
62
10
98
79
3
27
81
20
34
15
88
8
17
45
18
65
1

> <PUBCHEM_MMFF94_PARTIAL_CHARGES>
29
1 -0.45
10 0.23
11 0.36
12 0.28
13 0.58
16 0.66
17 0.57
18 0.34
2 -0.57
20 0.08
21 -0.15
22 -0.15
23 -0.15
24 -0.15
25 -0.15
3 -0.65
35 0.37
37 0.5
4 -0.57
41 0.15
42 0.15
43 0.15
44 0.15
45 0.15
5 -0.57
6 -0.36
7 -0.59
8 -0.65
9 0.44

> <PUBCHEM_EFFECTIVE_ROTOR_COUNT>
6.8

> <PUBCHEM_PHARMACOPHORE_FEATURES>
10
1 2 acceptor
1 3 acceptor
1 4 acceptor
1 5 acceptor
1 6 acceptor
1 8 donor
3 10 14 15 hydrophobe
3 3 4 16 anion
6 20 21 22 23 24 25 rings
7 1 7 9 10 11 12 13 rings

> <PUBCHEM_HEAVY_ATOM_COUNT>
25

> <PUBCHEM_ATOM_DEF_STEREO_COUNT>
4

> <PUBCHEM_ATOM_UDEF_STEREO_COUNT>
0

> <PUBCHEM_BOND_DEF_STEREO_COUNT>
0

> <PUBCHEM_BOND_UDEF_STEREO_COUNT>
0

> <PUBCHEM_ISOTOPIC_ATOM_COUNT>
0

> <PUBCHEM_COMPONENT_COUNT>
1

> <PUBCHEM_CACTVS_TAUTO_COUNT>
2

> <PUBCHEM_CONFORMER_ID>
0000219C0000000B

> <PUBCHEM_MMFF94_ENERGY>
75.2368

> <PUBCHEM_FEATURE_SELFOVERLAP>
50.808

> <PUBCHEM_SHAPE_FINGERPRINT>
10319926 262 17822566213737150393
10498660 4 10447934983608035495
10622 236 16914840268695356258
10928967 22 18130793377651130835
11069576 57 16127833979038726522
11545043 162 17604709005305149920
11720765 8 11742472499462412384
11796584 16 18341901847682391141
12410352 35 18271814514341706627
12422481 6 17167580492788118887
12596602 18 18410018745139424784
12633257 1 15719393906422454789
12892183 10 17895202142285692152
14178342 30 18042956752483190389
1420 369 18413109437991426179
14251740 57 18261954038034362959
14251751 18 18201169805477327089
14341114 176 17458344147682418928
14848178 5 18411426077194435375
14950920 106 16370723712713149075
15001296 14 18129384796119130971
15142526 21 5183766909338339023
15537594 2 18131344250229907403
17134984 74 17131546133502007683
17349148 13 18060134336828621467
17857418 61 18130795551046454947
1813 80 18059859416061941925
193927 3 18271803485097591371
1979834 28 17095787838313918983
20028762 73 18334577906536647655
20645477 70 16056878052654702968
21033648 29 16588600823369134256
21315759 148 18040436629024599282
21315764 371 18341901809275424242
21864079 5 7853274471617456467
235170 7 13973965432598463243
23559900 14 18333731304105159721
2838139 119 9654415230403982754
3004659 81 18343298137671818677
312425 54 18040710398756323107
316301 35 18335987562163437626
3472631 163 10015577290308460435
351380 3 18273493472844879879
44062 13 18130515214584464773
46194498 28 13397755321580043893
463206 1 17917149399556613403
5104073 3 17676203619335461536
7808743 9 9943519683564913581
7970288 3 18266738172257098590
8863177 126 18040997349737461334
960060 61 16272211898532083257

> <PUBCHEM_SHAPE_MULTIPOLES>
479.03
14.29
2.59
1.84
11.42
0.38
0.2
10.06
2.09
1.57
0.29
-2.63
0.03
-0.11

> <PUBCHEM_SHAPE_SELFOVERLAP>
1003.158

> <PUBCHEM_SHAPE_VOLUME>
273.1

> <PUBCHEM_COORDINATE_TYPE>
2
5
10

$$$$

