439668
  -OEChem-07051212463D

 66 68  0     1  0  0  0  0  0999 V2000
    0.5571    1.6379    0.6372 O   0  0  0  0  0  0  0  0  0  0  0  0
   -1.7350    1.0791    0.8700 O   0  0  0  0  0  0  0  0  0  0  0  0
    2.1126    0.0129   -0.9095 O   0  0  0  0  0  0  0  0  0  0  0  0
    4.4609    0.0285   -0.5845 O   0  0  0  0  0  0  0  0  0  0  0  0
   -3.9763   -0.4405    1.4718 O   0  0  0  0  0  0  0  0  0  0  0  0
    0.1156    3.4150   -2.5620 O   0  0  0  0  0  0  0  0  0  0  0  0
   -1.1217    5.1794   -0.6625 O   0  0  0  0  0  0  0  0  0  0  0  0
   -2.3176    3.7399    1.5449 O   0  0  0  0  0  0  0  0  0  0  0  0
    2.2914   -2.5237   -2.0963 O   0  0  0  0  0  0  0  0  0  0  0  0
   -1.6152   -2.0237   -0.8750 O   0  0  0  0  0  0  0  0  0  0  0  0
    3.7519   -4.0089   -0.0871 O   0  0  0  0  0  0  0  0  0  0  0  0
    4.4012   -2.3909    2.1960 O   0  0  0  0  0  0  0  0  0  0  0  0
   -4.0717   -1.9685   -2.3632 O   0  0  0  0  0  0  0  0  0  0  0  0
   -6.3904   -2.2225   -0.6502 O   0  0  0  0  0  0  0  0  0  0  0  0
   -5.2042   -2.4260    1.8849 O   0  0  0  0  0  0  0  0  0  0  0  0
    5.4665    1.6652    1.3552 O   0  0  0  0  0  0  0  0  0  0  0  0
    0.5508    1.8163   -0.7838 C   0  0  1  0  0  0  0  0  0  0  0  0
    0.2570    3.2774   -1.1501 C   0  0  2  0  0  0  0  0  0  0  0  0
   -1.0378    3.7623   -0.4947 C   0  0  1  0  0  0  0  0  0  0  0  0
   -1.0400    3.4350    0.9971 C   0  0  2  0  0  0  0  0  0  0  0  0
   -0.6886    1.9688    1.2544 C   0  0  2  0  0  0  0  0  0  0  0  0
   -2.7634   -1.0703    1.0434 C   0  0  1  0  0  0  0  0  0  0  0  0
    3.3727   -0.4850   -1.3554 C   0  0  1  0  0  0  0  0  0  0  0  0
    3.4199   -2.0132   -1.3953 C   0  0  1  0  0  0  0  0  0  0  0  0
   -2.7606   -1.2737   -0.4779 C   0  0  2  0  0  0  0  0  0  0  0  0
    1.9143    1.3602   -1.2961 C   0  0  0  0  0  0  0  0  0  0  0  0
    3.4574   -2.6133    0.0088 C   0  0  2  0  0  0  0  0  0  0  0  0
    4.5500   -1.9490    0.8488 C   0  0  1  0  0  0  0  0  0  0  0  0
    4.4528   -0.4190    0.7759 C   0  0  1  0  0  0  0  0  0  0  0  0
   -4.0070   -2.0334   -0.9366 C   0  0  1  0  0  0  0  0  0  0  0  0
   -1.6123   -0.1805    1.5046 C   0  0  0  0  0  0  0  0  0  0  0  0
   -5.2676   -1.4011   -0.3502 C   0  0  2  0  0  0  0  0  0  0  0  0
   -5.1474   -1.1982    1.1610 C   0  0  2  0  0  0  0  0  0  0  0  0
    5.6244    0.2636    1.4765 C   0  0  0  0  0  0  0  0  0  0  0  0
   -0.2075    1.1486   -1.2143 H   0  0  0  0  0  0  0  0  0  0  0  0
    1.0895    3.9212   -0.8412 H   0  0  0  0  0  0  0  0  0  0  0  0
   -1.9197    3.3402   -0.9906 H   0  0  0  0  0  0  0  0  0  0  0  0
   -0.3058    4.0789    1.4981 H   0  0  0  0  0  0  0  0  0  0  0  0
   -0.5431    1.8685    2.3379 H   0  0  0  0  0  0  0  0  0  0  0  0
   -2.6584   -2.0350    1.5567 H   0  0  0  0  0  0  0  0  0  0  0  0
    3.5238   -0.1415   -2.3871 H   0  0  0  0  0  0  0  0  0  0  0  0
    4.3174   -2.3360   -1.9384 H   0  0  0  0  0  0  0  0  0  0  0  0
   -2.7153   -0.3116   -1.0016 H   0  0  0  0  0  0  0  0  0  0  0  0
    2.7046    1.9791   -0.8546 H   0  0  0  0  0  0  0  0  0  0  0  0
    1.9560    1.4479   -2.3877 H   0  0  0  0  0  0  0  0  0  0  0  0
    2.4775   -2.5376    0.4943 H   0  0  0  0  0  0  0  0  0  0  0  0
    5.5355   -2.2836    0.5025 H   0  0  0  0  0  0  0  0  0  0  0  0
   -3.9445   -3.0970   -0.6793 H   0  0  0  0  0  0  0  0  0  0  0  0
    3.5280   -0.0664    1.2518 H   0  0  0  0  0  0  0  0  0  0  0  0
   -0.6486   -0.6400    1.2576 H   0  0  0  0  0  0  0  0  0  0  0  0
   -1.6753   -0.0428    2.5908 H   0  0  0  0  0  0  0  0  0  0  0  0
   -5.4318   -0.4305   -0.8355 H   0  0  0  0  0  0  0  0  0  0  0  0
   -6.0105   -0.6091    1.4924 H   0  0  0  0  0  0  0  0  0  0  0  0
    6.5735   -0.0077    1.0023 H   0  0  0  0  0  0  0  0  0  0  0  0
    5.6624    0.0018    2.5382 H   0  0  0  0  0  0  0  0  0  0  0  0
   -0.5965    2.8195   -2.8517 H   0  0  0  0  0  0  0  0  0  0  0  0
   -0.3552    5.5831   -0.2207 H   0  0  0  0  0  0  0  0  0  0  0  0
   -2.2912    3.5178    2.4912 H   0  0  0  0  0  0  0  0  0  0  0  0
    2.2904   -2.1224   -2.9820 H   0  0  0  0  0  0  0  0  0  0  0  0
   -1.6293   -2.8700   -0.3962 H   0  0  0  0  0  0  0  0  0  0  0  0
    4.6140   -4.1075   -0.5262 H   0  0  0  0  0  0  0  0  0  0  0  0
    3.5450   -2.0678    2.5249 H   0  0  0  0  0  0  0  0  0  0  0  0
   -4.1431   -1.0338   -2.6216 H   0  0  0  0  0  0  0  0  0  0  0  0
   -7.1758   -1.7969   -0.2659 H   0  0  0  0  0  0  0  0  0  0  0  0
   -5.5634   -2.2241    2.7655 H   0  0  0  0  0  0  0  0  0  0  0  0
    6.2229    2.0793    1.8045 H   0  0  0  0  0  0  0  0  0  0  0  0
  1 17  1  0  0  0  0
  1 21  1  0  0  0  0
  2 21  1  0  0  0  0
  2 31  1  0  0  0  0
  3 23  1  0  0  0  0
  3 26  1  0  0  0  0
  4 23  1  0  0  0  0
  4 29  1  0  0  0  0
  5 22  1  0  0  0  0
  5 33  1  0  0  0  0
  6 18  1  0  0  0  0
  6 56  1  0  0  0  0
  7 19  1  0  0  0  0
  7 57  1  0  0  0  0
  8 20  1  0  0  0  0
  8 58  1  0  0  0  0
  9 24  1  0  0  0  0
  9 59  1  0  0  0  0
 10 25  1  0  0  0  0
 10 60  1  0  0  0  0
 11 27  1  0  0  0  0
 11 61  1  0  0  0  0
 12 28  1  0  0  0  0
 12 62  1  0  0  0  0
 13 30  1  0  0  0  0
 13 63  1  0  0  0  0
 14 32  1  0  0  0  0
 14 64  1  0  0  0  0
 15 33  1  0  0  0  0
 15 65  1  0  0  0  0
 16 34  1  0  0  0  0
 16 66  1  0  0  0  0
 17 18  1  0  0  0  0
 17 26  1  0  0  0  0
 17 35  1  0  0  0  0
 18 19  1  0  0  0  0
 18 36  1  0  0  0  0
 19 20  1  0  0  0  0
 19 37  1  0  0  0  0
 20 21  1  0  0  0  0
 20 38  1  0  0  0  0
 21 39  1  0  0  0  0
 22 25  1  0  0  0  0
 22 31  1  0  0  0  0
 22 40  1  0  0  0  0
 23 24  1  0  0  0  0
 23 41  1  0  0  0  0
 24 27  1  0  0  0  0
 24 42  1  0  0  0  0
 25 30  1  0  0  0  0
 25 43  1  0  0  0  0
 26 44  1  0  0  0  0
 26 45  1  0  0  0  0
 27 28  1  0  0  0  0
 27 46  1  0  0  0  0
 28 29  1  0  0  0  0
 28 47  1  0  0  0  0
 29 34  1  0  0  0  0
 29 49  1  0  0  0  0
 30 32  1  0  0  0  0
 30 48  1  0  0  0  0
 31 50  1  0  0  0  0
 31 51  1  0  0  0  0
 32 33  1  0  0  0  0
 32 52  1  0  0  0  0
 33 53  1  0  0  0  0
 34 54  1  0  0  0  0
 34 55  1  0  0  0  0
M  END
> <PUBCHEM_COMPOUND_CID>
439668

> <PUBCHEM_CONFORMER_RMSD>
1.2

> <PUBCHEM_CONFORMER_DIVERSEORDER>
1
106
126
100
122
35
54
22
37
103
97
26
7
127
125
111
64
61
83
51
59
47
15
92
9
91
130
79
66
32
2
112
73
21
85
62
90
58
123
128
49
76
67
118
10
33
52
84
60
129
5
46
113
89
14
119
34
44
87
95
65
77
70
27
75
11
53
120
105
4
38
3
88
72
71
80
45
16
13
109
96
78
124
99
8
12
68
117
115
86
6
39
82
102
25
31
69
23
93
19
108
17
41
104
30
74
101
18
55
114
81
42
98
43
107
121
94
50
110
36
48
20
116
29
57
24
56
40
63
28

> <PUBCHEM_MMFF94_PARTIAL_CHARGES>
45
1 -0.56
10 -0.68
11 -0.68
12 -0.68
13 -0.68
14 -0.68
15 -0.68
16 -0.68
17 0.28
18 0.28
19 0.28
2 -0.56
20 0.28
21 0.56
22 0.28
23 0.56
24 0.28
25 0.28
26 0.28
27 0.28
28 0.28
29 0.28
3 -0.56
30 0.28
31 0.28
32 0.28
33 0.56
34 0.28
4 -0.56
5 -0.56
56 0.4
57 0.4
58 0.4
59 0.4
6 -0.68
60 0.4
61 0.4
62 0.4
63 0.4
64 0.4
65 0.4
66 0.4
7 -0.68
8 -0.68
9 -0.68

> <PUBCHEM_EFFECTIVE_ROTOR_COUNT>
10.6

> <PUBCHEM_PHARMACOPHORE_FEATURES>
30
1 1 acceptor
1 10 acceptor
1 10 donor
1 11 acceptor
1 11 donor
1 12 acceptor
1 12 donor
1 13 acceptor
1 13 donor
1 14 acceptor
1 14 donor
1 15 acceptor
1 15 donor
1 16 acceptor
1 16 donor
1 2 acceptor
1 3 acceptor
1 4 acceptor
1 5 acceptor
1 6 acceptor
1 6 donor
1 7 acceptor
1 7 donor
1 8 acceptor
1 8 donor
1 9 acceptor
1 9 donor
6 1 17 18 19 20 21 rings
6 4 23 24 27 28 29 rings
6 5 22 25 30 32 33 rings

> <PUBCHEM_HEAVY_ATOM_COUNT>
34

> <PUBCHEM_ATOM_DEF_STEREO_COUNT>
14

> <PUBCHEM_ATOM_UDEF_STEREO_COUNT>
1

> <PUBCHEM_BOND_DEF_STEREO_COUNT>
0

> <PUBCHEM_BOND_UDEF_STEREO_COUNT>
0

> <PUBCHEM_ISOTOPIC_ATOM_COUNT>
0

> <PUBCHEM_COMPONENT_COUNT>
1

> <PUBCHEM_CACTVS_TAUTO_COUNT>
1

> <PUBCHEM_CONFORMER_ID>
0006B57400000001

> <PUBCHEM_MMFF94_ENERGY>
95.4515

> <PUBCHEM_FEATURE_SELFOVERLAP>
152.409

> <PUBCHEM_SHAPE_FINGERPRINT>
10842051 180 18268717100377751660
11552529 35 18115868680104092312
11582403 64 14424301438082133705
11720765 8 18269846324336288573
11828532 37 16414634827441019235
12422481 6 17830418998992382681
12553582 1 18264473036210763166
12633046 712 17317587023459041092
12788726 201 18339631317621725650
13004483 165 18410017645179104669
13083527 12 18337391543975516708
13692114 37 17832986431653083585
13782708 43 17130695077764960947
14429115 67 18409445895085802210
1454969 45 18340199684288848484
14840074 17 18188491264078144182
1813 80 18411131416335680179
18603816 31 15549133659511047018
20775530 9 18410283688670903453
21315759 227 17987223448326425387
21458453 9 5544907018657257215
3459 110 18263935491769450536
44880168 125 16259578776940546034
463206 1 18192430770990625343
469060 322 15865508066525030892
6004065 56 18267308616849070379
613672 6 18342168938682031850
6438754 60 18130785642419805203
653340 110 18263081179228510364

> <PUBCHEM_SHAPE_MULTIPOLES>
605.8
12.43
5.57
2.09
1.35
5.64
0.27
-12.94
-3.6
1.27
1.1
-0.09
-0.07
-0.51

> <PUBCHEM_SHAPE_SELFOVERLAP>
1248.102

> <PUBCHEM_SHAPE_VOLUME>
339.7

> <PUBCHEM_COORDINATE_TYPE>
2
5
10

$$$$

