12767
  -OEChem-06261207203D

 10 10  0     0  0  0  0  0  0999 V2000
   -1.1572    1.3351   -1.0780 F   0  0  0  0  0  0  0  0  0  0  0  0
   -1.1566    1.3339    1.0793 F   0  0  0  0  0  0  0  0  0  0  0  0
   -1.1558   -1.3370    1.0776 F   0  0  0  0  0  0  0  0  0  0  0  0
   -1.1538   -1.3353   -1.0797 F   0  0  0  0  0  0  0  0  0  0  0  0
    1.9231    1.5906   -0.0003 F   0  0  0  0  0  0  0  0  0  0  0  0
    1.9253   -1.5878    0.0003 F   0  0  0  0  0  0  0  0  0  0  0  0
   -0.5610    0.7704    0.0001 C   0  0  0  0  0  0  0  0  0  0  0  0
   -0.5598   -0.7712    0.0000 C   0  0  0  0  0  0  0  0  0  0  0  0
    0.9474    0.6728   -0.0002 C   0  0  0  0  0  0  0  0  0  0  0  0
    0.9483   -0.6716    0.0008 C   0  0  0  0  0  0  0  0  0  0  0  0
  1  7  1  0  0  0  0
  2  7  1  0  0  0  0
  3  8  1  0  0  0  0
  4  8  1  0  0  0  0
  5  9  1  0  0  0  0
  6 10  1  0  0  0  0
  7  8  1  0  0  0  0
  7  9  1  0  0  0  0
  8 10  1  0  0  0  0
  9 10  2  0  0  0  0
M  END
> <PUBCHEM_COMPOUND_CID>
12767

> <PUBCHEM_CONFORMER_RMSD>
0.4

> <PUBCHEM_CONFORMER_DIVERSEORDER>
1

> <PUBCHEM_MMFF94_PARTIAL_CHARGES>
10
1 -0.3
10 0.01
2 -0.3
3 -0.3
4 -0.3
5 -0.15
6 -0.15
7 0.73
8 0.73
9 0.01

> <PUBCHEM_EFFECTIVE_ROTOR_COUNT>
0.4

> <PUBCHEM_PHARMACOPHORE_FEATURES>
1
4 7 8 9 10 rings

> <PUBCHEM_HEAVY_ATOM_COUNT>
10

> <PUBCHEM_ATOM_DEF_STEREO_COUNT>
0

> <PUBCHEM_ATOM_UDEF_STEREO_COUNT>
0

> <PUBCHEM_BOND_DEF_STEREO_COUNT>
0

> <PUBCHEM_BOND_UDEF_STEREO_COUNT>
0

> <PUBCHEM_ISOTOPIC_ATOM_COUNT>
0

> <PUBCHEM_COMPONENT_COUNT>
1

> <PUBCHEM_CACTVS_TAUTO_COUNT>
1

> <PUBCHEM_CONFORMER_ID>
000031DF00000001

> <PUBCHEM_MMFF94_ENERGY>
3.3243

> <PUBCHEM_FEATURE_SELFOVERLAP>
5.074

> <PUBCHEM_SHAPE_FINGERPRINT>
12423570 1 15401087780951409774
137420 1 7603477378359393025
21040471 1 17978508964082608030
29004967 10 17769935671206053443
5084963 1 18196935693456931729

> <PUBCHEM_SHAPE_MULTIPOLES>
162.15
1.89
1.81
0.92
0.73
0
0
0
0
0.11
0
-0.44
0
0

> <PUBCHEM_SHAPE_SELFOVERLAP>
342.377

> <PUBCHEM_SHAPE_VOLUME>
90.5

> <PUBCHEM_COORDINATE_TYPE>
2
5
10

$$$$

