12070
  -OEChem-06261206283D

 18 18  0     0  0  0  0  0  0999 V2000
    3.5652   -1.5845    0.2932 Br  0  0  0  0  0  0  0  0  0  0  0  0
   -2.4983    0.4556    0.3657 O   0  0  0  0  0  0  0  0  0  0  0  0
   -1.9426   -1.5727   -0.5703 O   0  0  0  0  0  0  0  0  0  0  0  0
   -0.2484    0.0362   -0.0952 C   0  0  0  0  0  0  0  0  0  0  0  0
    0.8145   -0.8550    0.0530 C   0  0  0  0  0  0  0  0  0  0  0  0
   -0.0010    1.4047   -0.2035 C   0  0  0  0  0  0  0  0  0  0  0  0
    2.1244   -0.3778    0.0929 C   0  0  0  0  0  0  0  0  0  0  0  0
    1.3090    1.8820   -0.1635 C   0  0  0  0  0  0  0  0  0  0  0  0
    2.3717    0.9907   -0.0155 C   0  0  0  0  0  0  0  0  0  0  0  0
   -1.6145   -0.4603   -0.1367 C   0  0  0  0  0  0  0  0  0  0  0  0
   -3.8801    0.0812    0.3799 C   0  0  0  0  0  0  0  0  0  0  0  0
    0.6218   -1.9221    0.1406 H   0  0  0  0  0  0  0  0  0  0  0  0
   -0.8074    2.1218   -0.3323 H   0  0  0  0  0  0  0  0  0  0  0  0
    1.5020    2.9473   -0.2507 H   0  0  0  0  0  0  0  0  0  0  0  0
    3.3866    1.3790    0.0130 H   0  0  0  0  0  0  0  0  0  0  0  0
   -4.2311   -0.1030   -0.6398 H   0  0  0  0  0  0  0  0  0  0  0  0
   -4.4528    0.9091    0.8058 H   0  0  0  0  0  0  0  0  0  0  0  0
   -4.0240   -0.8055    1.0043 H   0  0  0  0  0  0  0  0  0  0  0  0
  1  7  1  0  0  0  0
  2 10  1  0  0  0  0
  2 11  1  0  0  0  0
  3 10  2  0  0  0  0
  4  5  2  0  0  0  0
  4  6  1  0  0  0  0
  4 10  1  0  0  0  0
  5  7  1  0  0  0  0
  5 12  1  0  0  0  0
  6  8  2  0  0  0  0
  6 13  1  0  0  0  0
  7  9  2  0  0  0  0
  8  9  1  0  0  0  0
  8 14  1  0  0  0  0
  9 15  1  0  0  0  0
 11 16  1  0  0  0  0
 11 17  1  0  0  0  0
 11 18  1  0  0  0  0
M  END
> <PUBCHEM_COMPOUND_CID>
12070

> <PUBCHEM_CONFORMER_RMSD>
0.4

> <PUBCHEM_CONFORMER_DIVERSEORDER>
1
4
5
2
6
3

> <PUBCHEM_MMFF94_PARTIAL_CHARGES>
15
1 -0.11
10 0.63
11 0.28
12 0.15
13 0.15
14 0.15
15 0.15
2 -0.43
3 -0.57
4 0.09
5 -0.15
6 -0.15
7 0.11
8 -0.15
9 -0.15

> <PUBCHEM_EFFECTIVE_ROTOR_COUNT>
2

> <PUBCHEM_PHARMACOPHORE_FEATURES>
3
1 1 hydrophobe
1 3 acceptor
6 4 5 6 7 8 9 rings

> <PUBCHEM_HEAVY_ATOM_COUNT>
11

> <PUBCHEM_ATOM_DEF_STEREO_COUNT>
0

> <PUBCHEM_ATOM_UDEF_STEREO_COUNT>
0

> <PUBCHEM_BOND_DEF_STEREO_COUNT>
0

> <PUBCHEM_BOND_UDEF_STEREO_COUNT>
0

> <PUBCHEM_ISOTOPIC_ATOM_COUNT>
0

> <PUBCHEM_COMPONENT_COUNT>
1

> <PUBCHEM_CACTVS_TAUTO_COUNT>
1

> <PUBCHEM_CONFORMER_ID>
00002F2600000001

> <PUBCHEM_MMFF94_ENERGY>
28.8412

> <PUBCHEM_FEATURE_SELFOVERLAP>
15.223

> <PUBCHEM_SHAPE_FINGERPRINT>
10130415 120 18412263964767507706
10219947 1 18408601482808352939
12032990 46 18341327907007879626
12251169 10 18333734632398436930
12932764 1 18341331110932013893
14128692 85 18410856573068062462
14325111 11 18337952294820649729
15375462 189 18130511932754930922
15442244 35 18409165540995283473
161256 15 18342742935702599972
16945 1 18408889567850541012
17844478 74 17703788128609376685
18511873 20 18335700572142270171
20645477 70 18341618109490238519
207724 885 18411134753409218267
20871998 184 18046355403154109886
20871998 22 18191582163052296142
21040471 1 17907015080376436196
21501502 16 18337672984217500895
23402539 116 17531538680289336437
23463225 33 18410292531881900006
23552423 10 18268429027534130796
2748010 2 18269291208260244468
7364860 26 18334857178389579880

> <PUBCHEM_SHAPE_MULTIPOLES>
220.58
5.6
1.79
0.68
2.14
0.37
-0.01
-2.16
-0.87
-1.04
0.13
0.03
-0.05
-0.3

> <PUBCHEM_SHAPE_SELFOVERLAP>
442.845

> <PUBCHEM_SHAPE_VOLUME>
134

> <PUBCHEM_COORDINATE_TYPE>
2
5
10

$$$$

