13798
  -OEChem-06241222403D

 38 39  0     0  0  0  0  0  0999 V2000
    0.0669   -1.6572    0.6207 O   0  0  0  0  0  0  0  0  0  0  0  0
    4.1758    0.0395   -0.0343 N   0  0  0  0  0  0  0  0  0  0  0  0
   -1.2969   -1.6601    0.3543 N   0  0  0  0  0  0  0  0  0  0  0  0
    2.7508   -0.1258   -0.3190 C   0  0  0  0  0  0  0  0  0  0  0  0
    1.9355   -0.1864    0.9743 C   0  0  0  0  0  0  0  0  0  0  0  0
    4.4080    1.2771    0.7095 C   0  0  0  0  0  0  0  0  0  0  0  0
    4.9488    0.0363   -1.2756 C   0  0  0  0  0  0  0  0  0  0  0  0
    0.4665   -0.3800    0.6898 C   0  0  0  0  0  0  0  0  0  0  0  0
    5.8760    1.4351    1.0675 C   0  0  0  0  0  0  0  0  0  0  0  0
    4.7195   -1.2432   -2.0619 C   0  0  0  0  0  0  0  0  0  0  0  0
   -0.5403    0.4839    0.4868 C   0  0  0  0  0  0  0  0  0  0  0  0
   -1.6371   -0.3702    0.2787 C   0  0  0  0  0  0  0  0  0  0  0  0
   -2.9963    0.0169    0.0108 C   0  0  0  0  0  0  0  0  0  0  0  0
   -3.2595    1.2074   -0.6641 C   0  0  0  0  0  0  0  0  0  0  0  0
   -4.0462   -0.7996    0.4270 C   0  0  0  0  0  0  0  0  0  0  0  0
   -4.5775    1.5829   -0.9237 C   0  0  0  0  0  0  0  0  0  0  0  0
   -5.3642   -0.4240    0.1674 C   0  0  0  0  0  0  0  0  0  0  0  0
   -5.6299    0.7673   -0.5080 C   0  0  0  0  0  0  0  0  0  0  0  0
    2.3776    0.6814   -0.9642 H   0  0  0  0  0  0  0  0  0  0  0  0
    2.5574   -1.0693   -0.8411 H   0  0  0  0  0  0  0  0  0  0  0  0
    1.9982    0.7406    1.5529 H   0  0  0  0  0  0  0  0  0  0  0  0
    2.2920   -1.0002    1.6180 H   0  0  0  0  0  0  0  0  0  0  0  0
    4.0607    2.1608    0.1596 H   0  0  0  0  0  0  0  0  0  0  0  0
    3.8944    1.2630    1.6741 H   0  0  0  0  0  0  0  0  0  0  0  0
    4.7156    0.9029   -1.9072 H   0  0  0  0  0  0  0  0  0  0  0  0
    6.0221    0.0628   -1.0609 H   0  0  0  0  0  0  0  0  0  0  0  0
    6.2879    0.5207    1.5081 H   0  0  0  0  0  0  0  0  0  0  0  0
    6.4880    1.7228    0.2070 H   0  0  0  0  0  0  0  0  0  0  0  0
    5.9892    2.2337    1.8097 H   0  0  0  0  0  0  0  0  0  0  0  0
    4.7976   -2.1327   -1.4271 H   0  0  0  0  0  0  0  0  0  0  0  0
    3.7535   -1.2527   -2.5762 H   0  0  0  0  0  0  0  0  0  0  0  0
    5.4844   -1.3340   -2.8419 H   0  0  0  0  0  0  0  0  0  0  0  0
   -0.4991    1.5633    0.4918 H   0  0  0  0  0  0  0  0  0  0  0  0
   -2.4607    1.8590   -1.0093 H   0  0  0  0  0  0  0  0  0  0  0  0
   -3.8712   -1.7294    0.9627 H   0  0  0  0  0  0  0  0  0  0  0  0
   -4.7847    2.5093   -1.4514 H   0  0  0  0  0  0  0  0  0  0  0  0
   -6.1840   -1.0579    0.4925 H   0  0  0  0  0  0  0  0  0  0  0  0
   -6.6561    1.0597   -0.7102 H   0  0  0  0  0  0  0  0  0  0  0  0
  1  3  1  0  0  0  0
  1  8  1  0  0  0  0
  2  4  1  0  0  0  0
  2  6  1  0  0  0  0
  2  7  1  0  0  0  0
  3 12  2  0  0  0  0
  4  5  1  0  0  0  0
  4 19  1  0  0  0  0
  4 20  1  0  0  0  0
  5  8  1  0  0  0  0
  5 21  1  0  0  0  0
  5 22  1  0  0  0  0
  6  9  1  0  0  0  0
  6 23  1  0  0  0  0
  6 24  1  0  0  0  0
  7 10  1  0  0  0  0
  7 25  1  0  0  0  0
  7 26  1  0  0  0  0
  8 11  2  0  0  0  0
  9 27  1  0  0  0  0
  9 28  1  0  0  0  0
  9 29  1  0  0  0  0
 10 30  1  0  0  0  0
 10 31  1  0  0  0  0
 10 32  1  0  0  0  0
 11 12  1  0  0  0  0
 11 33  1  0  0  0  0
 12 13  1  0  0  0  0
 13 14  2  0  0  0  0
 13 15  1  0  0  0  0
 14 16  1  0  0  0  0
 14 34  1  0  0  0  0
 15 17  2  0  0  0  0
 15 35  1  0  0  0  0
 16 18  2  0  0  0  0
 16 36  1  0  0  0  0
 17 18  1  0  0  0  0
 17 37  1  0  0  0  0
 18 38  1  0  0  0  0
M  END
> <PUBCHEM_COMPOUND_CID>
13798

> <PUBCHEM_CONFORMER_RMSD>
0.8

> <PUBCHEM_CONFORMER_DIVERSEORDER>
2
26
28
21
5
15
7
19
29
10
17
27
9
14
16
25
24
6
11
8
4
30
18
12
20
22
1
13
23
3

> <PUBCHEM_MMFF94_PARTIAL_CHARGES>
22
1 -0.02
11 -0.15
12 0.23
13 0.05
14 -0.15
15 -0.15
16 -0.15
17 -0.15
18 -0.15
2 -0.81
3 -0.41
33 0.15
34 0.15
35 0.15
36 0.15
37 0.15
38 0.15
4 0.27
5 0.18
6 0.27
7 0.27
8 -0.04

> <PUBCHEM_EFFECTIVE_ROTOR_COUNT>
6

> <PUBCHEM_PHARMACOPHORE_FEATURES>
4
1 2 cation
1 3 acceptor
5 1 3 8 11 12 rings
6 13 14 15 16 17 18 rings

> <PUBCHEM_HEAVY_ATOM_COUNT>
18

> <PUBCHEM_ATOM_DEF_STEREO_COUNT>
0

> <PUBCHEM_ATOM_UDEF_STEREO_COUNT>
0

> <PUBCHEM_BOND_DEF_STEREO_COUNT>
0

> <PUBCHEM_BOND_UDEF_STEREO_COUNT>
0

> <PUBCHEM_ISOTOPIC_ATOM_COUNT>
0

> <PUBCHEM_COMPONENT_COUNT>
1

> <PUBCHEM_CACTVS_TAUTO_COUNT>
1

> <PUBCHEM_CONFORMER_ID>
000035E600000002

> <PUBCHEM_MMFF94_ENERGY>
30.5774

> <PUBCHEM_FEATURE_SELFOVERLAP>
20.297

> <PUBCHEM_SHAPE_FINGERPRINT>
10378564 45 18264487459132890902
10670039 82 17631442527134065468
10912923 1 15769772425242319970
11128504 68 17168146732296176144
11287383 113 18114181904269732186
11796584 16 5256397318917144117
12236239 1 16989128638787179368
12390115 104 18267859661728237913
12596602 18 13614515264568398525
12616971 3 15554452868610395810
12670543 26 18041557052584421141
12916748 109 18341892991417602864
13167372 99 15267351746460542356
13288520 33 7420947599615153193
13533116 47 18339082696296830738
13760787 5 16660359290220123014
14251764 18 16487258751518363080
14341114 328 16056876944363158197
14528608 73 17989484117167812103
14573314 32 18335415802746341076
15348495 7 11455880356443076908
16079462 125 18187939335058563400
17844677 252 17967524701055797648
17857418 61 14345797179372777639
1813 80 4678817255038750976
18222031 100 6050448119791091106
19784866 140 17530962531500449027
200 152 16008743628192285738
20281389 69 17846504746168332645
20374829 77 5761648175109556603
204376 136 15052009065671676049
20645477 56 18337393738418247442
20645477 70 17458616835783854574
21150785 3 17677062256781717997
212847 35 16917348122022530764
22061861 79 17822286916023853678
221357 26 17967534600966068497
23402539 116 18340215110840288549
23536379 177 16588019130410365985
23557571 272 18271230694989187487
23559900 14 18113615665104539818
2916195 48 18339369573682841416
29717793 49 16588016953025594084
3004659 81 15574707024240800268
3472631 163 17916859120081497252
34797466 226 18333729087521941197
351380 3 4751156311231907756
474 4 15984812731680296623
4990 188 18260547831218091494
5104073 3 17917434297653868761
542803 24 16702301256404439457
6025842 7 17240197730203178708
960060 61 16370724820930320744

> <PUBCHEM_SHAPE_MULTIPOLES>
354.6
14.94
1.49
1.27
3.77
0.01
-0.45
4.06
-3.49
0.64
-0.07
1.29
-0.17
2.36

> <PUBCHEM_SHAPE_SELFOVERLAP>
736.306

> <PUBCHEM_SHAPE_VOLUME>
205.2

> <PUBCHEM_COORDINATE_TYPE>
2
5
10

$$$$

