348154
  -OEChem-07051212593D

 23 23  0     0  0  0  0  0  0999 V2000
   -2.9661    2.0082    0.0672 O   0  0  0  0  0  0  0  0  0  0  0  0
   -4.1571   -0.4723    0.4563 O   0  0  0  0  0  0  0  0  0  0  0  0
    4.5154    0.1650    1.2348 O   0  0  0  0  0  0  0  0  0  0  0  0
    4.1124    0.1239   -1.0000 O   0  0  0  0  0  0  0  0  0  0  0  0
    1.3511   -0.1283   -0.7210 C   0  0  0  0  0  0  0  0  0  0  0  0
   -0.1047   -0.2159   -0.4100 C   0  0  0  0  0  0  0  0  0  0  0  0
    2.2419   -0.0157    0.5220 C   0  0  0  0  0  0  0  0  0  0  0  0
   -0.8685    0.9474   -0.3142 C   0  0  0  0  0  0  0  0  0  0  0  0
   -0.7026   -1.4610   -0.2145 C   0  0  0  0  0  0  0  0  0  0  0  0
   -2.2303    0.8654   -0.0229 C   0  0  0  0  0  0  0  0  0  0  0  0
   -2.0641   -1.5429    0.0768 C   0  0  0  0  0  0  0  0  0  0  0  0
   -2.8280   -0.3797    0.1726 C   0  0  0  0  0  0  0  0  0  0  0  0
    3.7006    0.1060    0.1528 C   0  0  0  0  0  0  0  0  0  0  0  0
    1.6520   -1.0040   -1.3122 H   0  0  0  0  0  0  0  0  0  0  0  0
    1.5292    0.7303   -1.3829 H   0  0  0  0  0  0  0  0  0  0  0  0
    1.9637    0.8690    1.1058 H   0  0  0  0  0  0  0  0  0  0  0  0
    2.1194   -0.9043    1.1516 H   0  0  0  0  0  0  0  0  0  0  0  0
   -0.4079    1.9210   -0.4636 H   0  0  0  0  0  0  0  0  0  0  0  0
   -0.1177   -2.3744   -0.2844 H   0  0  0  0  0  0  0  0  0  0  0  0
   -2.5170   -2.5193    0.2272 H   0  0  0  0  0  0  0  0  0  0  0  0
   -3.8851    1.7648    0.2743 H   0  0  0  0  0  0  0  0  0  0  0  0
   -4.3945   -1.4100    0.5586 H   0  0  0  0  0  0  0  0  0  0  0  0
    5.4602    0.2308    0.9789 H   0  0  0  0  0  0  0  0  0  0  0  0
  1 10  1  0  0  0  0
  1 21  1  0  0  0  0
  2 12  1  0  0  0  0
  2 22  1  0  0  0  0
  3 13  1  0  0  0  0
  3 23  1  0  0  0  0
  4 13  2  0  0  0  0
  5  6  1  0  0  0  0
  5  7  1  0  0  0  0
  5 14  1  0  0  0  0
  5 15  1  0  0  0  0
  6  8  2  0  0  0  0
  6  9  1  0  0  0  0
  7 13  1  0  0  0  0
  7 16  1  0  0  0  0
  7 17  1  0  0  0  0
  8 10  1  0  0  0  0
  8 18  1  0  0  0  0
  9 11  2  0  0  0  0
  9 19  1  0  0  0  0
 10 12  2  0  0  0  0
 11 12  1  0  0  0  0
 11 20  1  0  0  0  0
M  END
> <PUBCHEM_COMPOUND_CID>
348154

> <PUBCHEM_CONFORMER_RMSD>
0.6

> <PUBCHEM_CONFORMER_DIVERSEORDER>
2
3
9
7
14
12
8
5
11
1
13
10
4
6

> <PUBCHEM_MMFF94_PARTIAL_CHARGES>
19
1 -0.53
10 0.08
11 -0.15
12 0.08
13 0.66
18 0.15
19 0.15
2 -0.53
20 0.15
21 0.45
22 0.45
23 0.5
3 -0.65
4 -0.57
5 0.14
6 -0.14
7 0.06
8 -0.15
9 -0.15

> <PUBCHEM_EFFECTIVE_ROTOR_COUNT>
3

> <PUBCHEM_PHARMACOPHORE_FEATURES>
6
1 1 donor
1 2 donor
1 3 acceptor
1 4 acceptor
3 3 4 13 anion
6 6 8 9 10 11 12 rings

> <PUBCHEM_HEAVY_ATOM_COUNT>
13

> <PUBCHEM_ATOM_DEF_STEREO_COUNT>
0

> <PUBCHEM_ATOM_UDEF_STEREO_COUNT>
0

> <PUBCHEM_BOND_DEF_STEREO_COUNT>
0

> <PUBCHEM_BOND_UDEF_STEREO_COUNT>
0

> <PUBCHEM_ISOTOPIC_ATOM_COUNT>
0

> <PUBCHEM_COMPONENT_COUNT>
1

> <PUBCHEM_CACTVS_TAUTO_COUNT>
18

> <PUBCHEM_CONFORMER_ID>
00054FFA00000002

> <PUBCHEM_MMFF94_ENERGY>
24.5986

> <PUBCHEM_FEATURE_SELFOVERLAP>
30.508

> <PUBCHEM_SHAPE_FINGERPRINT>
10608611 8 18259988180116136128
11132069 177 18334295348799929287
12119455 92 17167863079829010495
12251169 10 18413109437711831724
12932764 1 17749115491090353710
13024252 1 13686302383267116399
13581323 91 18413669101915142326
13897977 58 18342168926002559276
14144814 61 18343867727438951026
14325111 11 18338515343236500606
15219456 202 18041836328306021318
16945 1 18339348704847985735
18186145 218 16443063902771702636
190213 19 17918278649347834258
19422 9 17846499244705220474
200 152 15267350608331111994
20279233 1 17748827406475381662
20510252 161 18261388987957718929
20645464 45 18040148518012296711
20645477 56 18040438759185953048
20645477 70 14764361439736869850
20871998 184 18261387798257377511
22485316 2 13758075177680774704
23048698 100 17132114624105236404
23402539 116 18336837416121765871
23559900 14 18262508321260473406
2748010 2 18123454236704653711
43471831 8 18272372017976507539
474 4 16843305793532662716
69090 78 17822014189948610167
77492 1 17632571635159782078
90316 7 17917156090778414004

> <PUBCHEM_SHAPE_MULTIPOLES>
244.06
7.7
1.38
0.85
6.37
0.14
0.02
0.75
1.52
-1.54
-0.02
0.7
0
0.09

> <PUBCHEM_SHAPE_SELFOVERLAP>
505.705

> <PUBCHEM_SHAPE_VOLUME>
139.3

> <PUBCHEM_COORDINATE_TYPE>
2
5
10

$$$$

