197810
  -OEChem-07051213033D

 45 50  0     1  0  0  0  0  0999 V2000
   -0.3650    1.3863    1.9865 O   0  0  0  0  0  0  0  0  0  0  0  0
   -4.5675   -1.7180    0.3878 O   0  0  0  0  0  0  0  0  0  0  0  0
   -5.9927    0.0161   -0.4811 O   0  0  0  0  0  0  0  0  0  0  0  0
    5.1258   -1.6499   -0.9074 O   0  0  0  0  0  0  0  0  0  0  0  0
    5.9419    0.4327   -0.0138 O   0  0  0  0  0  0  0  0  0  0  0  0
   -0.2097   -1.1853    0.8356 N   0  0  1  0  0  0  0  0  0  0  0  0
   -0.4342    0.9329   -0.4251 C   0  0  2  0  0  0  0  0  0  0  0  0
    0.3539   -0.4060   -0.2983 C   0  0  1  0  0  0  0  0  0  0  0  0
   -0.0654    1.9263    0.6995 C   0  0  2  0  0  0  0  0  0  0  0  0
   -1.9346    0.7107   -0.4657 C   0  0  0  0  0  0  0  0  0  0  0  0
    1.8484   -0.1001   -0.2038 C   0  0  0  0  0  0  0  0  0  0  0  0
    1.4184    2.2858    0.6436 C   0  0  0  0  0  0  0  0  0  0  0  0
   -1.5972   -1.5966    0.5304 C   0  0  0  0  0  0  0  0  0  0  0  0
    2.3349    1.1364    0.2956 C   0  0  0  0  0  0  0  0  0  0  0  0
   -2.4795   -0.4855    0.0303 C   0  0  0  0  0  0  0  0  0  0  0  0
    2.7683   -1.0735   -0.6473 C   0  0  0  0  0  0  0  0  0  0  0  0
   -2.7852    1.7178   -0.9783 C   0  0  0  0  0  0  0  0  0  0  0  0
    0.5567   -2.3732    1.2141 C   0  0  0  0  0  0  0  0  0  0  0  0
   -3.8583   -0.6284   -0.0228 C   0  0  0  0  0  0  0  0  0  0  0  0
    3.7221    1.3643    0.3866 C   0  0  0  0  0  0  0  0  0  0  0  0
    4.1183   -0.8128   -0.5393 C   0  0  0  0  0  0  0  0  0  0  0  0
   -4.6764    0.3592   -0.5229 C   0  0  0  0  0  0  0  0  0  0  0  0
    4.5829    0.3719   -0.0296 C   0  0  0  0  0  0  0  0  0  0  0  0
   -4.1700    1.5450   -1.0079 C   0  0  0  0  0  0  0  0  0  0  0  0
   -5.9162   -1.3003    0.0995 C   0  0  0  0  0  0  0  0  0  0  0  0
    6.2802   -0.8558   -0.5661 C   0  0  0  0  0  0  0  0  0  0  0  0
   -0.1538    1.3863   -1.3883 H   0  0  0  0  0  0  0  0  0  0  0  0
    0.2015   -0.9740   -1.2293 H   0  0  0  0  0  0  0  0  0  0  0  0
   -0.6433    2.8544    0.6130 H   0  0  0  0  0  0  0  0  0  0  0  0
    1.7291    2.7102    1.6064 H   0  0  0  0  0  0  0  0  0  0  0  0
    1.5599    3.0528   -0.1289 H   0  0  0  0  0  0  0  0  0  0  0  0
   -2.0445   -2.0000    1.4478 H   0  0  0  0  0  0  0  0  0  0  0  0
   -1.6003   -2.3921   -0.2273 H   0  0  0  0  0  0  0  0  0  0  0  0
    2.4274   -2.0176   -1.0610 H   0  0  0  0  0  0  0  0  0  0  0  0
   -2.3612    2.6451   -1.3569 H   0  0  0  0  0  0  0  0  0  0  0  0
    1.5355   -2.1020    1.6215 H   0  0  0  0  0  0  0  0  0  0  0  0
    0.6923   -3.0646    0.3753 H   0  0  0  0  0  0  0  0  0  0  0  0
    0.0490   -2.9172    2.0197 H   0  0  0  0  0  0  0  0  0  0  0  0
    4.1085    2.3086    0.7577 H   0  0  0  0  0  0  0  0  0  0  0  0
   -1.3297    1.2886    2.0515 H   0  0  0  0  0  0  0  0  0  0  0  0
   -4.8180    2.3194   -1.4023 H   0  0  0  0  0  0  0  0  0  0  0  0
   -6.4930   -1.3075    1.0315 H   0  0  0  0  0  0  0  0  0  0  0  0
   -6.3646   -2.0181   -0.5970 H   0  0  0  0  0  0  0  0  0  0  0  0
    6.8811   -0.7034   -1.4699 H   0  0  0  0  0  0  0  0  0  0  0  0
    6.8807   -1.4059    0.1675 H   0  0  0  0  0  0  0  0  0  0  0  0
  1  9  1  0  0  0  0
  1 40  1  0  0  0  0
  2 19  1  0  0  0  0
  2 25  1  0  0  0  0
  3 22  1  0  0  0  0
  3 25  1  0  0  0  0
  4 21  1  0  0  0  0
  4 26  1  0  0  0  0
  5 23  1  0  0  0  0
  5 26  1  0  0  0  0
  6  8  1  0  0  0  0
  6 13  1  0  0  0  0
  6 18  1  0  0  0  0
  7  8  1  0  0  0  0
  7  9  1  0  0  0  0
  7 10  1  0  0  0  0
  7 27  1  0  0  0  0
  8 11  1  0  0  0  0
  8 28  1  0  0  0  0
  9 12  1  0  0  0  0
  9 29  1  0  0  0  0
 10 15  2  0  0  0  0
 10 17  1  0  0  0  0
 11 14  1  0  0  0  0
 11 16  2  0  0  0  0
 12 14  1  0  0  0  0
 12 30  1  0  0  0  0
 12 31  1  0  0  0  0
 13 15  1  0  0  0  0
 13 32  1  0  0  0  0
 13 33  1  0  0  0  0
 14 20  2  0  0  0  0
 15 19  1  0  0  0  0
 16 21  1  0  0  0  0
 16 34  1  0  0  0  0
 17 24  2  0  0  0  0
 17 35  1  0  0  0  0
 18 36  1  0  0  0  0
 18 37  1  0  0  0  0
 18 38  1  0  0  0  0
 19 22  2  0  0  0  0
 20 23  1  0  0  0  0
 20 39  1  0  0  0  0
 21 23  2  0  0  0  0
 22 24  1  0  0  0  0
 24 41  1  0  0  0  0
 25 42  1  0  0  0  0
 25 43  1  0  0  0  0
 26 44  1  0  0  0  0
 26 45  1  0  0  0  0
M  END
> <PUBCHEM_COMPOUND_CID>
197810

> <PUBCHEM_CONFORMER_RMSD>
0.6

> <PUBCHEM_CONFORMER_DIVERSEORDER>
1
3
4
2

> <PUBCHEM_MMFF94_PARTIAL_CHARGES>
31
1 -0.68
10 -0.14
11 -0.14
12 0.14
13 0.41
14 -0.14
15 -0.14
16 -0.15
17 -0.15
18 0.27
19 0.08
2 -0.36
20 -0.15
21 0.08
22 0.08
23 0.08
24 -0.15
25 0.56
26 0.56
3 -0.36
34 0.15
35 0.15
39 0.15
4 -0.36
40 0.4
41 0.15
5 -0.36
6 -0.81
7 0.14
8 0.41
9 0.28

> <PUBCHEM_EFFECTIVE_ROTOR_COUNT>
2

> <PUBCHEM_PHARMACOPHORE_FEATURES>
13
1 1 acceptor
1 1 donor
1 2 acceptor
1 3 acceptor
1 4 acceptor
1 5 acceptor
1 6 cation
5 2 3 19 22 25 rings
5 4 5 21 23 26 rings
6 10 15 17 19 22 24 rings
6 11 14 16 20 21 23 rings
6 6 7 8 10 13 15 rings
6 7 8 9 11 12 14 rings

> <PUBCHEM_HEAVY_ATOM_COUNT>
26

> <PUBCHEM_ATOM_DEF_STEREO_COUNT>
3

> <PUBCHEM_ATOM_UDEF_STEREO_COUNT>
0

> <PUBCHEM_BOND_DEF_STEREO_COUNT>
0

> <PUBCHEM_BOND_UDEF_STEREO_COUNT>
0

> <PUBCHEM_ISOTOPIC_ATOM_COUNT>
0

> <PUBCHEM_COMPONENT_COUNT>
1

> <PUBCHEM_CACTVS_TAUTO_COUNT>
1

> <PUBCHEM_CONFORMER_ID>
000304B200000001

> <PUBCHEM_MMFF94_ENERGY>
79.1932

> <PUBCHEM_FEATURE_SELFOVERLAP>
66.356

> <PUBCHEM_SHAPE_FINGERPRINT>
10 15 18337965485361821344
10906281 52 18190155980649144460
11578080 2 13828695650361338244
12011746 2 18272657835728877183
12166972 35 18272927228915410612
12236239 1 15502374517297840668
12403259 415 18342185453100323109
12516196 113 17894914022667286440
12788726 201 18115029743741264496
13134695 92 17385730153569359697
13402501 40 18411136922272971582
13533116 47 17822291263090147072
13685833 64 18334290959448997239
13782708 43 18412829066431407551
14294032 229 17131003130342268797
14840074 17 16732702753102623468
15183329 4 18202003261235090722
15196674 1 18410856559687496292
15238133 3 6050445941852190984
15788980 27 16805325500422588485
17349148 13 17749383771864097568
17492 89 17971750236617651926
1813 80 14996279210706003856
18608769 82 18059286570651758523
19489759 90 17775003500855833055
19784866 140 18187086191033258985
200 152 17676489470999767148
20832881 197 18260546714621689985
21033648 29 18335998505518542401
21033650 10 17129568301436512316
21236236 1 18260826051074101481
21267235 1 18260259759688358246
21279426 13 18339363101040110054
21623969 137 17894908533794164670
21682296 61 18114455747084647295
221357 26 18408889537975771501
22393880 68 18342747359297225845
23175994 123 18113336405693189537
23402539 116 18342742913958498054
23522609 53 18121467289648807509
23559900 14 18411986823281241496
23569914 152 17328050048992072303
3004659 81 18272651256044720916
3323516 105 18410860953665789457
335352 9 18411982456042930165
3380486 145 18047739408719874275
350125 39 18342741849487252685
46194498 28 18202002080035273444
465052 167 17967529069564616990
5104073 3 17968098698360930376
5283173 99 18340207500396201500
6138700 20 18340486763738892234
9709674 26 18268148652021561987

> <PUBCHEM_SHAPE_MULTIPOLES>
500.74
13.11
2.19
1.04
1.82
0.03
0.23
-3.36
-3.42
-0.26
0.46
0.01
0.13
1.32

> <PUBCHEM_SHAPE_SELFOVERLAP>
1142.353

> <PUBCHEM_SHAPE_VOLUME>
258.9

> <PUBCHEM_COORDINATE_TYPE>
2
5
10

$$$$

