13866
  -OEChem-06241222402D

 21 21  0     0  0  0  0  0  0999 V2000
    2.8660    1.9050    0.0000 S   0  3  0  0  0  0  0  0  0  0  0  0
    2.8660   -2.0950    0.0000 O   0  0  0  0  0  0  0  0  0  0  0  0
    2.8660    0.9050    0.0000 C   0  0  0  0  0  0  0  0  0  0  0  0
    2.0000    0.4050    0.0000 C   0  0  0  0  0  0  0  0  0  0  0  0
    3.7320    0.4050    0.0000 C   0  0  0  0  0  0  0  0  0  0  0  0
    3.7320    2.4050    0.0000 C   0  0  0  0  0  0  0  0  0  0  0  0
    2.0000    2.4050    0.0000 C   0  0  0  0  0  0  0  0  0  0  0  0
    2.0000   -0.5950    0.0000 C   0  0  0  0  0  0  0  0  0  0  0  0
    3.7320   -0.5950    0.0000 C   0  0  0  0  0  0  0  0  0  0  0  0
    2.8660   -1.0950    0.0000 C   0  0  0  0  0  0  0  0  0  0  0  0
    1.4631    0.7150    0.0000 H   0  0  0  0  0  0  0  0  0  0  0  0
    4.2690    0.7150    0.0000 H   0  0  0  0  0  0  0  0  0  0  0  0
    4.0420    1.8681    0.0000 H   0  0  0  0  0  0  0  0  0  0  0  0
    4.2690    2.7150    0.0000 H   0  0  0  0  0  0  0  0  0  0  0  0
    2.3100    2.9419    0.0000 H   0  0  0  0  0  0  0  0  0  0  0  0
    1.4631    2.7150    0.0000 H   0  0  0  0  0  0  0  0  0  0  0  0
    1.6900    1.8681    0.0000 H   0  0  0  0  0  0  0  0  0  0  0  0
    3.4220    2.9419    0.0000 H   0  0  0  0  0  0  0  0  0  0  0  0
    1.4631   -0.9050    0.0000 H   0  0  0  0  0  0  0  0  0  0  0  0
    4.2690   -0.9050    0.0000 H   0  0  0  0  0  0  0  0  0  0  0  0
    2.3291   -2.4050    0.0000 H   0  0  0  0  0  0  0  0  0  0  0  0
  1  3  1  0  0  0  0
  1  6  1  0  0  0  0
  1  7  1  0  0  0  0
  2 10  1  0  0  0  0
  2 21  1  0  0  0  0
  3  4  2  0  0  0  0
  3  5  1  0  0  0  0
  4  8  1  0  0  0  0
  4 11  1  0  0  0  0
  5  9  2  0  0  0  0
  5 12  1  0  0  0  0
  6 13  1  0  0  0  0
  6 14  1  0  0  0  0
  6 18  1  0  0  0  0
  7 15  1  0  0  0  0
  7 16  1  0  0  0  0
  7 17  1  0  0  0  0
  8 10  2  0  0  0  0
  8 19  1  0  0  0  0
  9 10  1  0  0  0  0
  9 20  1  0  0  0  0
M  CHG  1   1   1
M  END
> <PUBCHEM_COMPOUND_CID>
13866

> <PUBCHEM_COMPOUND_CANONICALIZED>
1

> <PUBCHEM_CACTVS_COMPLEXITY>
95.4

> <PUBCHEM_CACTVS_HBOND_ACCEPTOR>
1

> <PUBCHEM_CACTVS_HBOND_DONOR>
1

> <PUBCHEM_CACTVS_ROTATABLE_BOND>
1

> <PUBCHEM_CACTVS_SUBSKEYS>
AAADccBwIABAAAAAAAAAAAAAAAAAAAAAAAAwAAAAAAAAAAABAAAAGgQACAAACASA0ACyB4AAAgiAACBCAAACAAAgKBAIiBgGCIgIJiKiERKAcAAkwBEImAeAQAAAAIAAAAAAAAABAAAAAAAAAAAAAAAAAA==

> <PUBCHEM_IUPAC_OPENEYE_NAME>
(4-hydroxyphenyl)-dimethyl-sulfonium

> <PUBCHEM_IUPAC_CAS_NAME>
(4-hydroxyphenyl)-dimethylsulfonium

> <PUBCHEM_IUPAC_NAME>
(4-hydroxyphenyl)-dimethylsulfanium

> <PUBCHEM_IUPAC_SYSTEMATIC_NAME>
(4-hydroxyphenyl)-dimethyl-sulfanium

> <PUBCHEM_IUPAC_TRADITIONAL_NAME>
(4-hydroxyphenyl)-dimethyl-sulfonium

> <PUBCHEM_IUPAC_INCHI>
InChI=1S/C8H10OS/c1-10(2)8-5-3-7(9)4-6-8/h3-6H,1-2H3/p+1

> <PUBCHEM_IUPAC_INCHIKEY>
QAEDNLDMOUKNMI-UHFFFAOYSA-O

> <PUBCHEM_XLOGP3_AA>
2.1

> <PUBCHEM_EXACT_MASS>
155.053061

> <PUBCHEM_MOLECULAR_FORMULA>
C8H11OS+

> <PUBCHEM_MOLECULAR_WEIGHT>
155.23734

> <PUBCHEM_OPENEYE_CAN_SMILES>
C[S+](C)C1=CC=C(C=C1)O

> <PUBCHEM_OPENEYE_ISO_SMILES>
C[S+](C)C1=CC=C(C=C1)O

> <PUBCHEM_CACTVS_TPSA>
21.2

> <PUBCHEM_MONOISOTOPIC_WEIGHT>
155.053061

> <PUBCHEM_TOTAL_CHARGE>
1

> <PUBCHEM_HEAVY_ATOM_COUNT>
10

> <PUBCHEM_ATOM_DEF_STEREO_COUNT>
0

> <PUBCHEM_ATOM_UDEF_STEREO_COUNT>
0

> <PUBCHEM_BOND_DEF_STEREO_COUNT>
0

> <PUBCHEM_BOND_UDEF_STEREO_COUNT>
0

> <PUBCHEM_ISOTOPIC_ATOM_COUNT>
0

> <PUBCHEM_COMPONENT_COUNT>
1

> <PUBCHEM_CACTVS_TAUTO_COUNT>
2

> <PUBCHEM_COORDINATE_TYPE>
1
5
255

> <PUBCHEM_BONDANNOTATIONS>
3  4  8
3  5  8
4  8  8
5  9  8
8  10  8
9  10  8

$$$$

