17395963
  -OEChem-06241222532D

 46 49  0     1  0  0  0  0  0999 V2000
    4.5274    0.9968    0.0000 S   0  0  0  0  0  0  0  0  0  0  0  0
    8.0321    0.0842    0.0000 S   0  0  0  0  0  0  0  0  0  0  0  0
    8.7883   -0.7477    0.0000 O   0  0  0  0  0  0  0  0  0  0  0  0
    5.3923   -2.2742    0.0000 O   0  0  0  0  0  0  0  0  0  0  0  0
    9.6201    2.2004    0.0000 O   0  0  0  0  0  0  0  0  0  0  0  0
    6.7328   -1.1181    0.0000 N   0  0  0  0  0  0  0  0  0  0  0  0
    6.3518    0.6413    0.0000 N   0  0  0  0  0  0  0  0  0  0  0  0
    8.3780   -1.6597    0.0000 C   0  0  3  0  0  0  0  0  0  0  0  0
    9.1186   -2.3316    0.0000 C   0  0  0  0  0  0  0  0  0  0  0  0
    7.3991   -1.8638    0.0000 C   0  0  0  0  0  0  0  0  0  0  0  0
    4.0274   -0.5421    0.0000 C   0  0  0  0  0  0  0  0  0  0  0  0
    3.3424   -1.3268    0.0000 C   0  0  0  0  0  0  0  0  0  0  0  0
    9.9866   -1.8350    0.0000 C   0  0  0  0  0  0  0  0  0  0  0  0
    2.3219   -1.1181    0.0000 C   0  0  0  0  0  0  0  0  0  0  0  0
    3.7183    0.4090    0.0000 C   0  0  0  0  0  0  0  0  0  0  0  0
    5.0274   -0.5421    0.0000 C   0  0  0  0  0  0  0  0  0  0  0  0
    2.0000   -0.1274    0.0000 C   0  0  0  0  0  0  0  0  0  0  0  0
    2.7029    0.6413    0.0000 C   0  0  0  0  0  0  0  0  0  0  0  0
    9.7824   -0.8561    0.0000 C   0  0  0  0  0  0  0  0  0  0  0  0
    5.7123   -1.3268    0.0000 C   0  0  0  0  0  0  0  0  0  0  0  0
    5.3364    0.4090    0.0000 C   0  0  0  0  0  0  0  0  0  0  0  0
    7.0547   -0.1274    0.0000 C   0  0  0  0  0  0  0  0  0  0  0  0
    8.3374    1.0365    0.0000 C   0  0  0  0  0  0  0  0  0  0  0  0
    9.3148    1.2482    0.0000 C   0  0  0  0  0  0  0  0  0  0  0  0
    7.9897   -1.1763    0.0000 H   0  0  0  0  0  0  0  0  0  0  0  0
    8.6562   -2.7447    0.0000 H   0  0  0  0  0  0  0  0  0  0  0  0
    9.4811   -2.8346    0.0000 H   0  0  0  0  0  0  0  0  0  0  0  0
    6.8720   -2.1903    0.0000 H   0  0  0  0  0  0  0  0  0  0  0  0
    7.6291   -2.4396    0.0000 H   0  0  0  0  0  0  0  0  0  0  0  0
    3.1160   -1.9040    0.0000 H   0  0  0  0  0  0  0  0  0  0  0  0
    3.8724   -1.6486    0.0000 H   0  0  0  0  0  0  0  0  0  0  0  0
   10.2365   -2.4024    0.0000 H   0  0  0  0  0  0  0  0  0  0  0  0
   10.5769   -1.6457    0.0000 H   0  0  0  0  0  0  0  0  0  0  0  0
    1.7081   -1.2060    0.0000 H   0  0  0  0  0  0  0  0  0  0  0  0
    2.3034   -1.7378    0.0000 H   0  0  0  0  0  0  0  0  0  0  0  0
    1.6208    0.3631    0.0000 H   0  0  0  0  0  0  0  0  0  0  0  0
    1.4518   -0.4171    0.0000 H   0  0  0  0  0  0  0  0  0  0  0  0
    2.9426    1.2131    0.0000 H   0  0  0  0  0  0  0  0  0  0  0  0
    2.1806    0.9752    0.0000 H   0  0  0  0  0  0  0  0  0  0  0  0
   10.3993   -0.7936    0.0000 H   0  0  0  0  0  0  0  0  0  0  0  0
    9.7848   -0.2361    0.0000 H   0  0  0  0  0  0  0  0  0  0  0  0
    8.3134    1.6560    0.0000 H   0  0  0  0  0  0  0  0  0  0  0  0
    7.7231    1.1204    0.0000 H   0  0  0  0  0  0  0  0  0  0  0  0
    9.3388    0.6286    0.0000 H   0  0  0  0  0  0  0  0  0  0  0  0
    9.9290    1.1642    0.0000 H   0  0  0  0  0  0  0  0  0  0  0  0
   10.2260    2.3316    0.0000 H   0  0  0  0  0  0  0  0  0  0  0  0
  1 15  1  0  0  0  0
  1 21  1  0  0  0  0
  2 22  1  0  0  0  0
  2 23  1  0  0  0  0
  3  8  1  0  0  0  0
  3 19  1  0  0  0  0
  4 20  2  0  0  0  0
  5 24  1  0  0  0  0
  5 46  1  0  0  0  0
  6 10  1  0  0  0  0
  6 20  1  0  0  0  0
  6 22  1  0  0  0  0
  7 21  1  0  0  0  0
  7 22  2  0  0  0  0
  8  9  1  0  0  0  0
  8 10  1  0  0  0  0
  8 25  1  0  0  0  0
  9 13  1  0  0  0  0
  9 26  1  0  0  0  0
  9 27  1  0  0  0  0
 10 28  1  0  0  0  0
 10 29  1  0  0  0  0
 11 12  1  0  0  0  0
 11 15  2  0  0  0  0
 11 16  1  0  0  0  0
 12 14  1  0  0  0  0
 12 30  1  0  0  0  0
 12 31  1  0  0  0  0
 13 19  1  0  0  0  0
 13 32  1  0  0  0  0
 13 33  1  0  0  0  0
 14 17  1  0  0  0  0
 14 34  1  0  0  0  0
 14 35  1  0  0  0  0
 15 18  1  0  0  0  0
 16 20  1  0  0  0  0
 16 21  2  0  0  0  0
 17 18  1  0  0  0  0
 17 36  1  0  0  0  0
 17 37  1  0  0  0  0
 18 38  1  0  0  0  0
 18 39  1  0  0  0  0
 19 40  1  0  0  0  0
 19 41  1  0  0  0  0
 23 24  1  0  0  0  0
 23 42  1  0  0  0  0
 23 43  1  0  0  0  0
 24 44  1  0  0  0  0
 24 45  1  0  0  0  0
M  END
> <PUBCHEM_COMPOUND_CID>
17395963

> <PUBCHEM_COMPOUND_CANONICALIZED>
1

> <PUBCHEM_CACTVS_COMPLEXITY>
516

> <PUBCHEM_CACTVS_HBOND_ACCEPTOR>
6

> <PUBCHEM_CACTVS_HBOND_DONOR>
1

> <PUBCHEM_CACTVS_ROTATABLE_BOND>
5

> <PUBCHEM_CACTVS_SUBSKEYS>
AAADceB7MABgAAAAAAAAAAAAAAAAASJAAAAwQAAAAAAAAEgBgAAAHgQACAAADBTl2AaBgYMABgisAgFQdACDEIFkCBABiBEIRMgKMDqg3JGHAYhkhgC4yUeYmMKOgAAAAAAAAAAAAAAAAAgAAAAAAAAAAA==

> <PUBCHEM_IUPAC_OPENEYE_NAME>
2-(2-hydroxyethylsulfanyl)-3-(tetrahydrofuran-2-ylmethyl)-5,6,7,8-tetrahydrobenzothiopheno[2,3-d]pyrimidin-4-one

> <PUBCHEM_IUPAC_CAS_NAME>
2-(2-hydroxyethylthio)-3-(2-oxolanylmethyl)-5,6,7,8-tetrahydro-[1]benzothiolo[2,3-d]pyrimidin-4-one

> <PUBCHEM_IUPAC_NAME>
2-(2-hydroxyethylsulfanyl)-3-(oxolan-2-ylmethyl)-5,6,7,8-tetrahydro-[1]benzothiolo[2,3-d]pyrimidin-4-one

> <PUBCHEM_IUPAC_SYSTEMATIC_NAME>
2-(2-hydroxyethylsulfanyl)-3-(oxolan-2-ylmethyl)-5,6,7,8-tetrahydro-[1]benzothiolo[2,3-d]pyrimidin-4-one

> <PUBCHEM_IUPAC_TRADITIONAL_NAME>
2-(2-hydroxyethylthio)-3-(tetrahydrofurfuryl)-5,6,7,8-tetrahydrobenzothiopheno[2,3-d]pyrimidin-4-one

> <PUBCHEM_IUPAC_INCHI>
InChI=1S/C17H22N2O3S2/c20-7-9-23-17-18-15-14(12-5-1-2-6-13(12)24-15)16(21)19(17)10-11-4-3-8-22-11/h11,20H,1-10H2

> <PUBCHEM_IUPAC_INCHIKEY>
PCMDRZCWJSUOCP-UHFFFAOYSA-N

> <PUBCHEM_XLOGP3_AA>
2.8

> <PUBCHEM_EXACT_MASS>
366.107185

> <PUBCHEM_MOLECULAR_FORMULA>
C17H22N2O3S2

> <PUBCHEM_MOLECULAR_WEIGHT>
366.49818

> <PUBCHEM_OPENEYE_CAN_SMILES>
C1CCC2=C(C1)C3=C(S2)N=C(N(C3=O)CC4CCCO4)SCCO

> <PUBCHEM_OPENEYE_ISO_SMILES>
C1CCC2=C(C1)C3=C(S2)N=C(N(C3=O)CC4CCCO4)SCCO

> <PUBCHEM_CACTVS_TPSA>
116

> <PUBCHEM_MONOISOTOPIC_WEIGHT>
366.107185

> <PUBCHEM_TOTAL_CHARGE>
0

> <PUBCHEM_HEAVY_ATOM_COUNT>
24

> <PUBCHEM_ATOM_DEF_STEREO_COUNT>
0

> <PUBCHEM_ATOM_UDEF_STEREO_COUNT>
1

> <PUBCHEM_BOND_DEF_STEREO_COUNT>
0

> <PUBCHEM_BOND_UDEF_STEREO_COUNT>
0

> <PUBCHEM_ISOTOPIC_ATOM_COUNT>
0

> <PUBCHEM_COMPONENT_COUNT>
1

> <PUBCHEM_CACTVS_TAUTO_COUNT>
1

> <PUBCHEM_COORDINATE_TYPE>
1
5
255

> <PUBCHEM_BONDANNOTATIONS>
1  15  8
1  21  8
11  15  8
11  16  8
16  20  8
16  21  8
6  20  8
6  22  8
7  21  8
7  22  8
8  10  3

$$$$

