1137
  -OEChem-07051212492D

 23 23  0     0  0  0  0  0  0999 V2000
    2.8090    0.4042    0.0000 S   0  0  0  0  0  0  0  0  0  0  0  0
    5.9360   -1.5823    0.0000 P   0  0  0  0  0  0  0  0  0  0  0  0
    5.7281   -0.6042    0.0000 O   0  0  0  0  0  0  0  0  0  0  0  0
    6.1439   -2.5605    0.0000 O   0  0  0  0  0  0  0  0  0  0  0  0
    6.9141   -1.3744    0.0000 O   0  0  0  0  0  0  0  0  0  0  0  0
    4.9578   -1.7902    0.0000 O   0  0  0  0  0  0  0  0  0  0  0  0
    2.3090    1.9430    0.0000 N   0  0  0  0  0  0  0  0  0  0  0  0
    4.5691    0.6830    0.0000 C   0  0  0  0  0  0  0  0  0  0  0  0
    3.6180    0.9920    0.0000 C   0  0  0  0  0  0  0  0  0  0  0  0
    4.7770   -0.2952    0.0000 C   0  0  0  0  0  0  0  0  0  0  0  0
    3.3090    1.9430    0.0000 C   0  0  0  0  0  0  0  0  0  0  0  0
    3.8968    2.7521    0.0000 C   0  0  0  0  0  0  0  0  0  0  0  0
    2.0000    0.9920    0.0000 C   0  0  0  0  0  0  0  0  0  0  0  0
    5.1887    0.7046    0.0000 H   0  0  0  0  0  0  0  0  0  0  0  0
    4.6554    1.2970    0.0000 H   0  0  0  0  0  0  0  0  0  0  0  0
    4.1574   -0.3168    0.0000 H   0  0  0  0  0  0  0  0  0  0  0  0
    4.6907   -0.9091    0.0000 H   0  0  0  0  0  0  0  0  0  0  0  0
    4.3984    2.3876    0.0000 H   0  0  0  0  0  0  0  0  0  0  0  0
    4.2612    3.2537    0.0000 H   0  0  0  0  0  0  0  0  0  0  0  0
    3.3952    3.1165    0.0000 H   0  0  0  0  0  0  0  0  0  0  0  0
    1.4103    0.8004    0.0000 H   0  0  0  0  0  0  0  0  0  0  0  0
    6.7335   -2.7521    0.0000 H   0  0  0  0  0  0  0  0  0  0  0  0
    7.1057   -0.7848    0.0000 H   0  0  0  0  0  0  0  0  0  0  0  0
  1  9  1  0  0  0  0
  1 13  1  0  0  0  0
  2  3  1  0  0  0  0
  2  4  1  0  0  0  0
  2  5  1  0  0  0  0
  2  6  2  0  0  0  0
  3 10  1  0  0  0  0
  4 22  1  0  0  0  0
  5 23  1  0  0  0  0
  7 11  1  0  0  0  0
  7 13  2  0  0  0  0
  8  9  1  0  0  0  0
  8 10  1  0  0  0  0
  8 14  1  0  0  0  0
  8 15  1  0  0  0  0
  9 11  2  0  0  0  0
 10 16  1  0  0  0  0
 10 17  1  0  0  0  0
 11 12  1  0  0  0  0
 12 18  1  0  0  0  0
 12 19  1  0  0  0  0
 12 20  1  0  0  0  0
 13 21  1  0  0  0  0
M  END
> <PUBCHEM_COMPOUND_CID>
1137

> <PUBCHEM_COMPOUND_CANONICALIZED>
1

> <PUBCHEM_CACTVS_COMPLEXITY>
209

> <PUBCHEM_CACTVS_HBOND_ACCEPTOR>
6

> <PUBCHEM_CACTVS_HBOND_DONOR>
2

> <PUBCHEM_CACTVS_ROTATABLE_BOND>
4

> <PUBCHEM_CACTVS_SUBSKEYS>
AAADccBiOAJAAAAAAAAAAAAAAAAAAWAAAAAAAAAAAAAAAAABgAAAHgQACCAACAih1gaGgRIIERikQQRhRIAA8KBxCDgAWBQ4QAgAIAJggAAEAAAkQAFISAKgAAAAAAAAAAAAAAAAAAAAAAAAAAAAAAAAAA==

> <PUBCHEM_IUPAC_OPENEYE_NAME>
2-(4-methylthiazol-5-yl)ethyl dihydrogen phosphate

> <PUBCHEM_IUPAC_CAS_NAME>
2-(4-methyl-5-thiazolyl)ethyl dihydrogen phosphate

> <PUBCHEM_IUPAC_NAME>
2-(4-methyl-1,3-thiazol-5-yl)ethyl dihydrogen phosphate

> <PUBCHEM_IUPAC_SYSTEMATIC_NAME>
2-(4-methyl-1,3-thiazol-5-yl)ethyl dihydrogen phosphate

> <PUBCHEM_IUPAC_TRADITIONAL_NAME>
2-(4-methylthiazol-5-yl)ethyl dihydrogen phosphate

> <PUBCHEM_IUPAC_INCHI>
InChI=1S/C6H10NO4PS/c1-5-6(13-4-7-5)2-3-11-12(8,9)10/h4H,2-3H2,1H3,(H2,8,9,10)

> <PUBCHEM_IUPAC_INCHIKEY>
OCYMERZCMYJQQO-UHFFFAOYSA-N

> <PUBCHEM_XLOGP3>
-0.3

> <PUBCHEM_EXACT_MASS>
223.006815

> <PUBCHEM_MOLECULAR_FORMULA>
C6H10NO4PS

> <PUBCHEM_MOLECULAR_WEIGHT>
223.186662

> <PUBCHEM_OPENEYE_CAN_SMILES>
CC1=C(SC=N1)CCOP(=O)(O)O

> <PUBCHEM_OPENEYE_ISO_SMILES>
CC1=C(SC=N1)CCOP(=O)(O)O

> <PUBCHEM_CACTVS_TPSA>
108

> <PUBCHEM_MONOISOTOPIC_WEIGHT>
223.006815

> <PUBCHEM_TOTAL_CHARGE>
0

> <PUBCHEM_HEAVY_ATOM_COUNT>
13

> <PUBCHEM_ATOM_DEF_STEREO_COUNT>
0

> <PUBCHEM_ATOM_UDEF_STEREO_COUNT>
0

> <PUBCHEM_BOND_DEF_STEREO_COUNT>
0

> <PUBCHEM_BOND_UDEF_STEREO_COUNT>
0

> <PUBCHEM_ISOTOPIC_ATOM_COUNT>
0

> <PUBCHEM_COMPONENT_COUNT>
1

> <PUBCHEM_CACTVS_TAUTO_COUNT>
1

> <PUBCHEM_COORDINATE_TYPE>
1
5
255

> <PUBCHEM_BONDANNOTATIONS>
1  13  8
1  9  8
7  11  8
7  13  8
9  11  8

$$$$

