20990
  -OEChem-07051213122D

 41 41  0     0  0  0  0  0  0999 V2000
    3.0000   -2.2500    0.0000 O   0  0  0  0  0  0  0  0  0  0  0  0
    4.7320   -2.2500    0.0000 O   0  0  0  0  0  0  0  0  0  0  0  0
    7.3301    2.2500    0.0000 O   0  0  0  0  0  0  0  0  0  0  0  0
    3.8660   -0.7500    0.0000 N   0  0  0  0  0  0  0  0  0  0  0  0
    5.5981    2.2500    0.0000 N   0  0  0  0  0  0  0  0  0  0  0  0
    6.4641    3.7500    0.0000 N   0  0  0  0  0  0  0  0  0  0  0  0
    3.0000   -3.2500    0.0000 C   0  0  0  0  0  0  0  0  0  0  0  0
    3.0000   -4.2500    0.0000 C   0  0  0  0  0  0  0  0  0  0  0  0
    2.0000   -3.2500    0.0000 C   0  0  0  0  0  0  0  0  0  0  0  0
    4.0000   -3.2500    0.0000 C   0  0  0  0  0  0  0  0  0  0  0  0
    3.8660   -1.7500    0.0000 C   0  0  0  0  0  0  0  0  0  0  0  0
    4.7320   -0.2500    0.0000 C   0  0  0  0  0  0  0  0  0  0  0  0
    5.5981    1.2500    0.0000 C   0  0  0  0  0  0  0  0  0  0  0  0
    4.7320    0.7500    0.0000 C   0  0  0  0  0  0  0  0  0  0  0  0
    5.5981   -0.7500    0.0000 C   0  0  0  0  0  0  0  0  0  0  0  0
    6.4641    0.7500    0.0000 C   0  0  0  0  0  0  0  0  0  0  0  0
    6.4641   -0.2500    0.0000 C   0  0  0  0  0  0  0  0  0  0  0  0
    6.4641    2.7500    0.0000 C   0  0  0  0  0  0  0  0  0  0  0  0
    7.3301    4.2500    0.0000 C   0  0  0  0  0  0  0  0  0  0  0  0
    5.5981    4.2500    0.0000 C   0  0  0  0  0  0  0  0  0  0  0  0
    2.3800   -4.2500    0.0000 H   0  0  0  0  0  0  0  0  0  0  0  0
    4.0000   -3.8700    0.0000 H   0  0  0  0  0  0  0  0  0  0  0  0
    4.6200   -3.2500    0.0000 H   0  0  0  0  0  0  0  0  0  0  0  0
    4.0000   -2.6300    0.0000 H   0  0  0  0  0  0  0  0  0  0  0  0
    2.0000   -2.6300    0.0000 H   0  0  0  0  0  0  0  0  0  0  0  0
    1.3800   -3.2500    0.0000 H   0  0  0  0  0  0  0  0  0  0  0  0
    2.0000   -3.8700    0.0000 H   0  0  0  0  0  0  0  0  0  0  0  0
    3.0000   -4.8700    0.0000 H   0  0  0  0  0  0  0  0  0  0  0  0
    3.6200   -4.2500    0.0000 H   0  0  0  0  0  0  0  0  0  0  0  0
    3.3291   -0.4400    0.0000 H   0  0  0  0  0  0  0  0  0  0  0  0
    4.1951    1.0600    0.0000 H   0  0  0  0  0  0  0  0  0  0  0  0
    5.5981   -1.3700    0.0000 H   0  0  0  0  0  0  0  0  0  0  0  0
    7.0010    1.0600    0.0000 H   0  0  0  0  0  0  0  0  0  0  0  0
    5.0611    2.5600    0.0000 H   0  0  0  0  0  0  0  0  0  0  0  0
    7.0010   -0.5600    0.0000 H   0  0  0  0  0  0  0  0  0  0  0  0
    5.9081    4.7869    0.0000 H   0  0  0  0  0  0  0  0  0  0  0  0
    5.0611    4.5600    0.0000 H   0  0  0  0  0  0  0  0  0  0  0  0
    5.2881    3.7131    0.0000 H   0  0  0  0  0  0  0  0  0  0  0  0
    7.6401    3.7131    0.0000 H   0  0  0  0  0  0  0  0  0  0  0  0
    7.8671    4.5600    0.0000 H   0  0  0  0  0  0  0  0  0  0  0  0
    7.0201    4.7869    0.0000 H   0  0  0  0  0  0  0  0  0  0  0  0
  1  7  1  0  0  0  0
  1 11  1  0  0  0  0
  2 11  2  0  0  0  0
  3 18  2  0  0  0  0
  4 11  1  0  0  0  0
  4 12  1  0  0  0  0
  4 30  1  0  0  0  0
  5 13  1  0  0  0  0
  5 18  1  0  0  0  0
  5 34  1  0  0  0  0
  6 18  1  0  0  0  0
  6 19  1  0  0  0  0
  6 20  1  0  0  0  0
  7  8  1  0  0  0  0
  7  9  1  0  0  0  0
  7 10  1  0  0  0  0
  8 21  1  0  0  0  0
  8 28  1  0  0  0  0
  8 29  1  0  0  0  0
  9 25  1  0  0  0  0
  9 26  1  0  0  0  0
  9 27  1  0  0  0  0
 10 22  1  0  0  0  0
 10 23  1  0  0  0  0
 10 24  1  0  0  0  0
 12 14  1  0  0  0  0
 12 15  2  0  0  0  0
 13 14  2  0  0  0  0
 13 16  1  0  0  0  0
 14 31  1  0  0  0  0
 15 17  1  0  0  0  0
 15 32  1  0  0  0  0
 16 17  2  0  0  0  0
 16 33  1  0  0  0  0
 17 35  1  0  0  0  0
 19 39  1  0  0  0  0
 19 40  1  0  0  0  0
 19 41  1  0  0  0  0
 20 36  1  0  0  0  0
 20 37  1  0  0  0  0
 20 38  1  0  0  0  0
M  END
> <PUBCHEM_COMPOUND_CID>
20990

> <PUBCHEM_COMPOUND_CANONICALIZED>
1

> <PUBCHEM_CACTVS_COMPLEXITY>
350

> <PUBCHEM_CACTVS_HBOND_ACCEPTOR>
3

> <PUBCHEM_CACTVS_HBOND_DONOR>
2

> <PUBCHEM_CACTVS_ROTATABLE_BOND>
4

> <PUBCHEM_CACTVS_SUBSKEYS>
AAADceBzMAAAAAAAAAAAAAAAAAAAAAAAAAAwAAAAAAAAAAABAAAAHgAQAAAADEyBkAQzyIPABACIACRCWACCAAAhAgAIiAAIZImIICLA0dGMIAholgJIyCcQAAAAAAAAAAQAAAAAAAAACAAAAAAAAAAAAA==

> <PUBCHEM_IUPAC_OPENEYE_NAME>
tert-butyl N-[3-(dimethylcarbamoylamino)phenyl]carbamate

> <PUBCHEM_IUPAC_CAS_NAME>
N-[3-[[dimethylamino(oxo)methyl]amino]phenyl]carbamic acid tert-butyl ester

> <PUBCHEM_IUPAC_NAME>
tert-butyl N-[3-(dimethylcarbamoylamino)phenyl]carbamate

> <PUBCHEM_IUPAC_SYSTEMATIC_NAME>
tert-butyl N-[3-(dimethylcarbamoylamino)phenyl]carbamate

> <PUBCHEM_IUPAC_TRADITIONAL_NAME>
N-[3-(dimethylcarbamoylamino)phenyl]carbamic acid tert-butyl ester

> <PUBCHEM_IUPAC_INCHI>
InChI=1S/C14H21N3O3/c1-14(2,3)20-13(19)16-11-8-6-7-10(9-11)15-12(18)17(4)5/h6-9H,1-5H3,(H,15,18)(H,16,19)

> <PUBCHEM_IUPAC_INCHIKEY>
UQVYUTAMNICZNI-UHFFFAOYSA-N

> <PUBCHEM_XLOGP3>
1.9

> <PUBCHEM_EXACT_MASS>
279.158292

> <PUBCHEM_MOLECULAR_FORMULA>
C14H21N3O3

> <PUBCHEM_MOLECULAR_WEIGHT>
279.33484

> <PUBCHEM_OPENEYE_CAN_SMILES>
CC(C)(C)OC(=O)NC1=CC=CC(=C1)NC(=O)N(C)C

> <PUBCHEM_OPENEYE_ISO_SMILES>
CC(C)(C)OC(=O)NC1=CC=CC(=C1)NC(=O)N(C)C

> <PUBCHEM_CACTVS_TPSA>
70.7

> <PUBCHEM_MONOISOTOPIC_WEIGHT>
279.158292

> <PUBCHEM_TOTAL_CHARGE>
0

> <PUBCHEM_HEAVY_ATOM_COUNT>
20

> <PUBCHEM_ATOM_DEF_STEREO_COUNT>
0

> <PUBCHEM_ATOM_UDEF_STEREO_COUNT>
0

> <PUBCHEM_BOND_DEF_STEREO_COUNT>
0

> <PUBCHEM_BOND_UDEF_STEREO_COUNT>
0

> <PUBCHEM_ISOTOPIC_ATOM_COUNT>
0

> <PUBCHEM_COMPONENT_COUNT>
1

> <PUBCHEM_CACTVS_TAUTO_COUNT>
4

> <PUBCHEM_COORDINATE_TYPE>
1
5
255

> <PUBCHEM_BONDANNOTATIONS>
12  14  8
12  15  8
13  14  8
13  16  8
15  17  8
16  17  8

$$$$

