439381
  -OEChem-07051212453D

 20 19  0     1  0  0  0  0  0999 V2000
   -0.2736    1.7871    0.4440 O   0  0  0  0  0  0  0  0  0  0  0  0
    2.9740    0.5828   -0.0844 O   0  0  0  0  0  0  0  0  0  0  0  0
   -2.1856   -1.2293    0.2992 O   0  0  0  0  0  0  0  0  0  0  0  0
   -2.5227    0.8467   -0.5478 O   0  0  0  0  0  0  0  0  0  0  0  0
    0.7310   -0.3994   -0.0359 C   0  0  0  0  0  0  0  0  0  0  0  0
   -0.4394    0.3794    0.6187 C   0  0  2  0  0  0  0  0  0  0  0  0
    0.6468   -1.9066    0.2520 C   0  0  0  0  0  0  0  0  0  0  0  0
    0.8171   -0.1793   -1.5554 C   0  0  0  0  0  0  0  0  0  0  0  0
    2.0635    0.0666    0.5561 C   0  0  0  0  0  0  0  0  0  0  0  0
   -1.8112    0.0519    0.0536 C   0  0  0  0  0  0  0  0  0  0  0  0
   -0.4683    0.2069    1.7006 H   0  0  0  0  0  0  0  0  0  0  0  0
   -0.1283   -2.3987   -0.3433 H   0  0  0  0  0  0  0  0  0  0  0  0
    1.5933   -2.4073    0.0129 H   0  0  0  0  0  0  0  0  0  0  0  0
    0.4450   -2.0984    1.3120 H   0  0  0  0  0  0  0  0  0  0  0  0
    0.9850    0.8722   -1.8125 H   0  0  0  0  0  0  0  0  0  0  0  0
   -0.1004   -0.5044   -2.0577 H   0  0  0  0  0  0  0  0  0  0  0  0
    1.6448   -0.7508   -1.9932 H   0  0  0  0  0  0  0  0  0  0  0  0
    2.1695   -0.0821    1.6459 H   0  0  0  0  0  0  0  0  0  0  0  0
   -0.3058    1.9857   -0.5066 H   0  0  0  0  0  0  0  0  0  0  0  0
   -3.0743   -1.4271   -0.0656 H   0  0  0  0  0  0  0  0  0  0  0  0
  1  6  1  0  0  0  0
  1 19  1  0  0  0  0
  2  9  2  0  0  0  0
  3 10  1  0  0  0  0
  3 20  1  0  0  0  0
  4 10  2  0  0  0  0
  5  6  1  0  0  0  0
  5  7  1  0  0  0  0
  5  8  1  0  0  0  0
  5  9  1  0  0  0  0
  6 10  1  0  0  0  0
  6 11  1  0  0  0  0
  7 12  1  0  0  0  0
  7 13  1  0  0  0  0
  7 14  1  0  0  0  0
  8 15  1  0  0  0  0
  8 16  1  0  0  0  0
  8 17  1  0  0  0  0
  9 18  1  0  0  0  0
M  END
> <PUBCHEM_COMPOUND_CID>
439381

> <PUBCHEM_CONFORMER_RMSD>
0.6

> <PUBCHEM_CONFORMER_DIVERSEORDER>
4
9
17
8
1
16
14
5
15
11
10
3
12
6
13
7
2

> <PUBCHEM_MMFF94_PARTIAL_CHARGES>
11
1 -0.68
10 0.66
18 0.06
19 0.4
2 -0.57
20 0.5
3 -0.65
4 -0.57
5 0.06
6 0.34
9 0.45

> <PUBCHEM_EFFECTIVE_ROTOR_COUNT>
3

> <PUBCHEM_PHARMACOPHORE_FEATURES>
7
1 1 acceptor
1 1 donor
1 2 acceptor
1 3 acceptor
1 4 acceptor
3 3 4 10 anion
3 5 7 8 hydrophobe

> <PUBCHEM_HEAVY_ATOM_COUNT>
10

> <PUBCHEM_ATOM_DEF_STEREO_COUNT>
0

> <PUBCHEM_ATOM_UDEF_STEREO_COUNT>
1

> <PUBCHEM_BOND_DEF_STEREO_COUNT>
0

> <PUBCHEM_BOND_UDEF_STEREO_COUNT>
0

> <PUBCHEM_ISOTOPIC_ATOM_COUNT>
0

> <PUBCHEM_COMPONENT_COUNT>
1

> <PUBCHEM_CACTVS_TAUTO_COUNT>
1

> <PUBCHEM_CONFORMER_ID>
0006B45500000004

> <PUBCHEM_MMFF94_ENERGY>
17.7919

> <PUBCHEM_FEATURE_SELFOVERLAP>
35.589

> <PUBCHEM_SHAPE_FINGERPRINT>
10857977 72 18262527987203383106
12423570 1 15683056515739665518
12897270 3 18335138721589752144
14325111 11 18412827971520228050
16945 1 18409452522009226416
21040471 1 18342171167811989786
23235687 12 17203886370810729151
23552423 10 18196933490043919379
24536 1 17272257370837464712
29004967 10 17603576418028550363
369184 2 18130791169731484920
5084963 1 18040995172267767216

> <PUBCHEM_SHAPE_MULTIPOLES>
182.32
3.25
1.48
0.98
0.06
0.31
-0.38
-0.48
-0.03
0.13
0.23
-0.2
0
0.11

> <PUBCHEM_SHAPE_SELFOVERLAP>
352.198

> <PUBCHEM_SHAPE_VOLUME>
110.7

> <PUBCHEM_COORDINATE_TYPE>
2
5
10

$$$$

