75699
  -OEChem-07051213093D

 36 36  0     1  0  0  0  0  0999 V2000
   -0.4273   -1.1062    0.4452 O   0  0  0  0  0  0  0  0  0  0  0  0
   -1.9402   -2.2802   -0.8470 O   0  0  0  0  0  0  0  0  0  0  0  0
    1.3127    0.4282   -0.2715 C   0  0  1  0  0  0  0  0  0  0  0  0
    0.0190   -0.3119   -0.6527 C   0  0  2  0  0  0  0  0  0  0  0  0
    1.0524    1.4736    0.8237 C   0  0  0  0  0  0  0  0  0  0  0  0
   -1.3477    1.7207    0.0416 C   0  0  1  0  0  0  0  0  0  0  0  0
   -1.0866    0.6708   -1.0503 C   0  0  0  0  0  0  0  0  0  0  0  0
   -0.0514    2.4491    0.4186 C   0  0  0  0  0  0  0  0  0  0  0  0
    2.4086   -0.5414    0.1750 C   0  0  0  0  0  0  0  0  0  0  0  0
   -2.4119    2.7177   -0.4145 C   0  0  0  0  0  0  0  0  0  0  0  0
    2.6486   -1.6045   -0.8932 C   0  0  0  0  0  0  0  0  0  0  0  0
    3.6980    0.2147    0.4827 C   0  0  0  0  0  0  0  0  0  0  0  0
   -1.5646   -1.8295    0.2267 C   0  0  0  0  0  0  0  0  0  0  0  0
   -2.3096   -2.0010    1.5157 C   0  0  0  0  0  0  0  0  0  0  0  0
    1.6603    0.9653   -1.1661 H   0  0  0  0  0  0  0  0  0  0  0  0
    0.2023   -0.9662   -1.5130 H   0  0  0  0  0  0  0  0  0  0  0  0
    1.9470    2.0719    1.0234 H   0  0  0  0  0  0  0  0  0  0  0  0
    0.7770    0.9816    1.7649 H   0  0  0  0  0  0  0  0  0  0  0  0
   -1.7307    1.2133    0.9361 H   0  0  0  0  0  0  0  0  0  0  0  0
   -2.0273    0.1637   -1.2874 H   0  0  0  0  0  0  0  0  0  0  0  0
   -0.7793    1.1831   -1.9722 H   0  0  0  0  0  0  0  0  0  0  0  0
   -0.2413    3.1429    1.2463 H   0  0  0  0  0  0  0  0  0  0  0  0
    0.2959    3.0548   -0.4284 H   0  0  0  0  0  0  0  0  0  0  0  0
    2.1056   -1.0581    1.0950 H   0  0  0  0  0  0  0  0  0  0  0  0
   -3.3500    2.2038   -0.6492 H   0  0  0  0  0  0  0  0  0  0  0  0
   -2.6196    3.4506    0.3722 H   0  0  0  0  0  0  0  0  0  0  0  0
   -2.0909    3.2626   -1.3087 H   0  0  0  0  0  0  0  0  0  0  0  0
    2.8164   -1.1559   -1.8783 H   0  0  0  0  0  0  0  0  0  0  0  0
    3.5332   -2.2037   -0.6488 H   0  0  0  0  0  0  0  0  0  0  0  0
    1.8146   -2.3090   -0.9665 H   0  0  0  0  0  0  0  0  0  0  0  0
    3.9820    0.8809   -0.3390 H   0  0  0  0  0  0  0  0  0  0  0  0
    4.5267   -0.4850    0.6411 H   0  0  0  0  0  0  0  0  0  0  0  0
    3.6195    0.8048    1.4005 H   0  0  0  0  0  0  0  0  0  0  0  0
   -2.6139   -1.0251    1.9016 H   0  0  0  0  0  0  0  0  0  0  0  0
   -1.6802   -2.5228    2.2410 H   0  0  0  0  0  0  0  0  0  0  0  0
   -3.2065   -2.6014    1.3388 H   0  0  0  0  0  0  0  0  0  0  0  0
  1  4  1  0  0  0  0
  1 13  1  0  0  0  0
  2 13  2  0  0  0  0
  3  4  1  0  0  0  0
  3  5  1  0  0  0  0
  3  9  1  0  0  0  0
  3 15  1  0  0  0  0
  4  7  1  0  0  0  0
  4 16  1  0  0  0  0
  5  8  1  0  0  0  0
  5 17  1  0  0  0  0
  5 18  1  0  0  0  0
  6  7  1  0  0  0  0
  6  8  1  0  0  0  0
  6 10  1  0  0  0  0
  6 19  1  0  0  0  0
  7 20  1  0  0  0  0
  7 21  1  0  0  0  0
  8 22  1  0  0  0  0
  8 23  1  0  0  0  0
  9 11  1  0  0  0  0
  9 12  1  0  0  0  0
  9 24  1  0  0  0  0
 10 25  1  0  0  0  0
 10 26  1  0  0  0  0
 10 27  1  0  0  0  0
 11 28  1  0  0  0  0
 11 29  1  0  0  0  0
 11 30  1  0  0  0  0
 12 31  1  0  0  0  0
 12 32  1  0  0  0  0
 12 33  1  0  0  0  0
 13 14  1  0  0  0  0
 14 34  1  0  0  0  0
 14 35  1  0  0  0  0
 14 36  1  0  0  0  0
M  END
> <PUBCHEM_COMPOUND_CID>
75699

> <PUBCHEM_CONFORMER_RMSD>
0.6

> <PUBCHEM_CONFORMER_DIVERSEORDER>
1
7
4
3
6
5
2

> <PUBCHEM_MMFF94_PARTIAL_CHARGES>
5
1 -0.43
13 0.66
14 0.06
2 -0.57
4 0.28

> <PUBCHEM_EFFECTIVE_ROTOR_COUNT>
4.2

> <PUBCHEM_PHARMACOPHORE_FEATURES>
3
1 2 acceptor
3 9 11 12 hydrophobe
6 3 4 5 6 7 8 rings

> <PUBCHEM_HEAVY_ATOM_COUNT>
14

> <PUBCHEM_ATOM_DEF_STEREO_COUNT>
3

> <PUBCHEM_ATOM_UDEF_STEREO_COUNT>
0

> <PUBCHEM_BOND_DEF_STEREO_COUNT>
0

> <PUBCHEM_BOND_UDEF_STEREO_COUNT>
0

> <PUBCHEM_ISOTOPIC_ATOM_COUNT>
0

> <PUBCHEM_COMPONENT_COUNT>
1

> <PUBCHEM_CACTVS_TAUTO_COUNT>
1

> <PUBCHEM_CONFORMER_ID>
000127B300000001

> <PUBCHEM_MMFF94_ENERGY>
27.606

> <PUBCHEM_FEATURE_SELFOVERLAP>
15.223

> <PUBCHEM_SHAPE_FINGERPRINT>
1 1 17550109602800429725
108231 29 18262518229370606497
11086676 242 18122034581960819307
12138202 78 17905060156975524605
12138202 97 18338801233640084260
12423570 1 8501249770973591468
12532896 13 18197785607291815165
13380535 76 18117289266312049924
14817 1 13803073361152167671
16945 1 18129370652300811748
18186145 218 17977107082552378180
193761 8 18265620891943424012
20645476 183 18055619870738839452
20711985 344 18199766794169698723
20871998 184 18335415772707995550
21061003 4 18115587024627738618
21501502 16 18339081467271331116
21524375 3 17835804475036769653
22802520 49 18042394915078954958
23419403 2 17694823672647658764
23559900 14 18189904304709655258
23598291 2 17537419739957664863
2748010 2 18260826033846415286
298252 57 17025741409419172805
3071541 236 18198916970439392832
3250762 1 18336274439771169776
528862 383 17335063841680185953
576247 118 18126545852384267554
81228 2 18342738511653929601
81539 233 17551232195915296605
8809292 202 18263927820651962942

> <PUBCHEM_SHAPE_MULTIPOLES>
276.37
4.24
3.13
1.1
3.2
0.14
-0.09
0.21
-0.15
-2.84
-0.36
-0.25
0.37
0.97

> <PUBCHEM_SHAPE_SELFOVERLAP>
541.936

> <PUBCHEM_SHAPE_VOLUME>
165.8

> <PUBCHEM_COORDINATE_TYPE>
2
5
10

$$$$

