656886
  -OEChem-07051213042D

 33 34  0     1  0  0  0  0  0999 V2000
    2.5369   -0.6550    0.0000 O   0  0  0  0  0  0  0  0  0  0  0  0
    3.4030   -2.1550    0.0000 O   0  0  0  0  0  0  0  0  0  0  0  0
    3.4030    1.8450    0.0000 O   0  0  0  0  0  0  0  0  0  0  0  0
    2.5369    0.3450    0.0000 O   0  0  0  0  0  0  0  0  0  0  0  0
    4.2690   -0.6550    0.0000 C   0  0  3  0  0  0  0  0  0  0  0  0
    5.1350   -1.1550    0.0000 C   0  0  0  0  0  0  0  0  0  0  0  0
    6.0010   -0.6550    0.0000 C   0  0  0  0  0  0  0  0  0  0  0  0
    4.2690    0.3450    0.0000 C   0  0  0  0  0  0  0  0  0  0  0  0
    6.8671   -1.1550    0.0000 C   0  0  0  0  0  0  0  0  0  0  0  0
    7.7331   -0.6550    0.0000 C   0  0  0  0  0  0  0  0  0  0  0  0
    6.0010    0.3450    0.0000 C   0  0  0  0  0  0  0  0  0  0  0  0
    7.7331    0.3450    0.0000 C   0  0  0  0  0  0  0  0  0  0  0  0
    3.4030   -1.1550    0.0000 C   0  0  0  0  0  0  0  0  0  0  0  0
    6.8671    0.8450    0.0000 C   0  0  0  0  0  0  0  0  0  0  0  0
    8.6270   -1.1897    0.0000 C   0  0  0  0  0  0  0  0  0  0  0  0
    3.4030    0.8450    0.0000 C   0  0  0  0  0  0  0  0  0  0  0  0
    8.6270    0.8797    0.0000 C   0  0  0  0  0  0  0  0  0  0  0  0
    9.5331   -0.6758    0.0000 C   0  0  0  0  0  0  0  0  0  0  0  0
    9.5331    0.3658    0.0000 C   0  0  0  0  0  0  0  0  0  0  0  0
    4.2690   -1.2750    0.0000 H   0  0  0  0  0  0  0  0  0  0  0  0
    4.7365   -1.6300    0.0000 H   0  0  0  0  0  0  0  0  0  0  0  0
    5.5335   -1.6300    0.0000 H   0  0  0  0  0  0  0  0  0  0  0  0
    4.8796    0.2373    0.0000 H   0  0  0  0  0  0  0  0  0  0  0  0
    4.4810    0.9276    0.0000 H   0  0  0  0  0  0  0  0  0  0  0  0
    6.8671   -1.7750    0.0000 H   0  0  0  0  0  0  0  0  0  0  0  0
    5.4641    0.6550    0.0000 H   0  0  0  0  0  0  0  0  0  0  0  0
    6.8671    1.4650    0.0000 H   0  0  0  0  0  0  0  0  0  0  0  0
    8.6199   -1.8096    0.0000 H   0  0  0  0  0  0  0  0  0  0  0  0
    8.6199    1.4996    0.0000 H   0  0  0  0  0  0  0  0  0  0  0  0
   10.0688   -0.9879    0.0000 H   0  0  0  0  0  0  0  0  0  0  0  0
   10.0688    0.6779    0.0000 H   0  0  0  0  0  0  0  0  0  0  0  0
    2.0000   -0.9650    0.0000 H   0  0  0  0  0  0  0  0  0  0  0  0
    2.8660    2.1550    0.0000 H   0  0  0  0  0  0  0  0  0  0  0  0
  1 13  1  0  0  0  0
  1 32  1  0  0  0  0
  2 13  2  0  0  0  0
  3 16  1  0  0  0  0
  3 33  1  0  0  0  0
  4 16  2  0  0  0  0
  5  6  1  0  0  0  0
  5  8  1  0  0  0  0
  5 13  1  0  0  0  0
  5 20  1  0  0  0  0
  6  7  1  0  0  0  0
  6 21  1  0  0  0  0
  6 22  1  0  0  0  0
  7  9  2  0  0  0  0
  7 11  1  0  0  0  0
  8 16  1  0  0  0  0
  8 23  1  0  0  0  0
  8 24  1  0  0  0  0
  9 10  1  0  0  0  0
  9 25  1  0  0  0  0
 10 12  1  0  0  0  0
 10 15  2  0  0  0  0
 11 14  2  0  0  0  0
 11 26  1  0  0  0  0
 12 14  1  0  0  0  0
 12 17  2  0  0  0  0
 14 27  1  0  0  0  0
 15 18  1  0  0  0  0
 15 28  1  0  0  0  0
 17 19  1  0  0  0  0
 17 29  1  0  0  0  0
 18 19  2  0  0  0  0
 18 30  1  0  0  0  0
 19 31  1  0  0  0  0
M  END
> <PUBCHEM_COMPOUND_CID>
656886

> <PUBCHEM_COMPOUND_CANONICALIZED>
1

> <PUBCHEM_CACTVS_COMPLEXITY>
339

> <PUBCHEM_CACTVS_HBOND_ACCEPTOR>
4

> <PUBCHEM_CACTVS_HBOND_DONOR>
2

> <PUBCHEM_CACTVS_ROTATABLE_BOND>
5

> <PUBCHEM_CACTVS_SUBSKEYS>
AAADccBwOAAAAAAAAAAAAAAAAAAAAAAAAAAwYAAAAAAAAADBUAAAGgAACAAADQCAmAAwCMAAAgCIAiDSCAACAAAgAAAIiAEAAIgIIDKAERCAYAAkgAAIiAfLyPCOwAACAAAQAACAAAQAACAAAAAAAAAAAA==

> <PUBCHEM_IUPAC_OPENEYE_NAME>
2-(2-naphthylmethyl)butanedioic acid

> <PUBCHEM_IUPAC_CAS_NAME>
2-(2-naphthalenylmethyl)butanedioic acid

> <PUBCHEM_IUPAC_NAME>
2-(naphthalen-2-ylmethyl)butanedioic acid

> <PUBCHEM_IUPAC_SYSTEMATIC_NAME>
2-(naphthalen-2-ylmethyl)butanedioic acid

> <PUBCHEM_IUPAC_TRADITIONAL_NAME>
2-(2-naphthylmethyl)succinic acid

> <PUBCHEM_IUPAC_INCHI>
InChI=1S/C15H14O4/c16-14(17)9-13(15(18)19)8-10-5-6-11-3-1-2-4-12(11)7-10/h1-7,13H,8-9H2,(H,16,17)(H,18,19)

> <PUBCHEM_IUPAC_INCHIKEY>
PYGFLAQSMTXFMU-UHFFFAOYSA-N

> <PUBCHEM_XLOGP3_AA>
2.5

> <PUBCHEM_EXACT_MASS>
258.089209

> <PUBCHEM_MOLECULAR_FORMULA>
C15H14O4

> <PUBCHEM_MOLECULAR_WEIGHT>
258.26926

> <PUBCHEM_OPENEYE_CAN_SMILES>
C1=CC=C2C=C(C=CC2=C1)CC(CC(=O)O)C(=O)O

> <PUBCHEM_OPENEYE_ISO_SMILES>
C1=CC=C2C=C(C=CC2=C1)CC(CC(=O)O)C(=O)O

> <PUBCHEM_CACTVS_TPSA>
74.6

> <PUBCHEM_MONOISOTOPIC_WEIGHT>
258.089209

> <PUBCHEM_TOTAL_CHARGE>
0

> <PUBCHEM_HEAVY_ATOM_COUNT>
19

> <PUBCHEM_ATOM_DEF_STEREO_COUNT>
0

> <PUBCHEM_ATOM_UDEF_STEREO_COUNT>
1

> <PUBCHEM_BOND_DEF_STEREO_COUNT>
0

> <PUBCHEM_BOND_UDEF_STEREO_COUNT>
0

> <PUBCHEM_ISOTOPIC_ATOM_COUNT>
0

> <PUBCHEM_COMPONENT_COUNT>
1

> <PUBCHEM_CACTVS_TAUTO_COUNT>
1

> <PUBCHEM_COORDINATE_TYPE>
1
5
255

> <PUBCHEM_BONDANNOTATIONS>
10  12  8
10  15  8
11  14  8
12  14  8
12  17  8
15  18  8
17  19  8
18  19  8
5  6  3
7  11  8
7  9  8
9  10  8

$$$$

