7846953
  -OEChem-06241222483D

 46 48  0     1  0  0  0  0  0999 V2000
   -1.1828    1.4245   -1.9771 S   0  0  0  0  0  0  0  0  0  0  0  0
   -1.4558   -2.6829    0.2742 O   0  0  0  0  0  0  0  0  0  0  0  0
   -0.2872   -2.6981   -1.7149 O   0  0  0  0  0  0  0  0  0  0  0  0
   -0.1778   -0.6634    1.6172 O   0  0  0  0  0  0  0  0  0  0  0  0
    1.8138   -1.8345    1.3982 N   0  0  0  0  0  0  0  0  0  0  0  0
   -2.8100    0.3874   -0.2658 N   0  0  0  0  0  0  0  0  0  0  0  0
   -2.6655   -0.8830   -2.4086 C   0  0  0  0  0  0  0  0  0  0  0  0
   -2.6744   -2.2328   -1.6896 C   0  0  0  0  0  0  0  0  0  0  0  0
   -0.2692   -2.9938    0.9853 C   0  0  1  0  0  0  0  0  0  0  0  0
   -2.3097    0.2417   -1.4705 C   0  0  0  0  0  0  0  0  0  0  0  0
    2.6937   -0.7357    1.7198 C   0  0  0  0  0  0  0  0  0  0  0  0
   -1.3276   -2.5610   -1.0862 C   0  0  0  0  0  0  0  0  0  0  0  0
   -1.3574    2.2262   -0.4607 C   0  0  0  0  0  0  0  0  0  0  0  0
   -2.2733    1.5214    0.3263 C   0  0  0  0  0  0  0  0  0  0  0  0
    0.4342   -1.7013    1.3744 C   0  0  0  0  0  0  0  0  0  0  0  0
   -0.6495   -3.8030    2.2150 C   0  0  0  0  0  0  0  0  0  0  0  0
    3.0929    0.0406    0.4983 C   0  0  0  0  0  0  0  0  0  0  0  0
   -0.7291    3.3946   -0.0005 C   0  0  0  0  0  0  0  0  0  0  0  0
   -2.5689    2.0053    1.6192 C   0  0  0  0  0  0  0  0  0  0  0  0
    4.2348   -0.3222   -0.2163 C   0  0  0  0  0  0  0  0  0  0  0  0
    2.3219    1.1242    0.0773 C   0  0  0  0  0  0  0  0  0  0  0  0
   -1.0395    3.8520    1.2826 C   0  0  0  0  0  0  0  0  0  0  0  0
   -1.9472    3.1679    2.0837 C   0  0  0  0  0  0  0  0  0  0  0  0
    4.6057    0.3987   -1.3514 C   0  0  0  0  0  0  0  0  0  0  0  0
    2.6929    1.8450   -1.0578 C   0  0  0  0  0  0  0  0  0  0  0  0
    3.8348    1.4821   -1.7722 C   0  0  0  0  0  0  0  0  0  0  0  0
   -3.6598   -0.6884   -2.8273 H   0  0  0  0  0  0  0  0  0  0  0  0
   -1.9627   -0.9266   -3.2496 H   0  0  0  0  0  0  0  0  0  0  0  0
   -2.9319   -3.0376   -2.3872 H   0  0  0  0  0  0  0  0  0  0  0  0
   -3.4426   -2.2417   -0.9065 H   0  0  0  0  0  0  0  0  0  0  0  0
    0.3968   -3.6152    0.3737 H   0  0  0  0  0  0  0  0  0  0  0  0
    3.5774   -1.1556    2.2137 H   0  0  0  0  0  0  0  0  0  0  0  0
    2.2067   -0.0766    2.4485 H   0  0  0  0  0  0  0  0  0  0  0  0
    2.2364   -2.7299    1.1714 H   0  0  0  0  0  0  0  0  0  0  0  0
   -1.3305   -3.2364    2.8602 H   0  0  0  0  0  0  0  0  0  0  0  0
    0.2328   -4.0706    2.8049 H   0  0  0  0  0  0  0  0  0  0  0  0
   -1.1735   -4.7202    1.9259 H   0  0  0  0  0  0  0  0  0  0  0  0
   -0.0226    3.9367   -0.6210 H   0  0  0  0  0  0  0  0  0  0  0  0
   -3.2758    1.4781    2.2535 H   0  0  0  0  0  0  0  0  0  0  0  0
    4.8427   -1.1656    0.1003 H   0  0  0  0  0  0  0  0  0  0  0  0
    1.4387    1.4200    0.6339 H   0  0  0  0  0  0  0  0  0  0  0  0
   -0.5646    4.7548    1.6577 H   0  0  0  0  0  0  0  0  0  0  0  0
   -2.1760    3.5384    3.0792 H   0  0  0  0  0  0  0  0  0  0  0  0
    5.4946    0.1161   -1.9078 H   0  0  0  0  0  0  0  0  0  0  0  0
    2.0988    2.6924   -1.3852 H   0  0  0  0  0  0  0  0  0  0  0  0
    4.1242    2.0441   -2.6553 H   0  0  0  0  0  0  0  0  0  0  0  0
  1 10  1  0  0  0  0
  1 13  1  0  0  0  0
  2  9  1  0  0  0  0
  2 12  1  0  0  0  0
  3 12  2  0  0  0  0
  4 15  2  0  0  0  0
  5 11  1  0  0  0  0
  5 15  1  0  0  0  0
  5 34  1  0  0  0  0
  6 10  2  0  0  0  0
  6 14  1  0  0  0  0
  7  8  1  0  0  0  0
  7 10  1  0  0  0  0
  7 27  1  0  0  0  0
  7 28  1  0  0  0  0
  8 12  1  0  0  0  0
  8 29  1  0  0  0  0
  8 30  1  0  0  0  0
  9 15  1  0  0  0  0
  9 16  1  0  0  0  0
  9 31  1  0  0  0  0
 11 17  1  0  0  0  0
 11 32  1  0  0  0  0
 11 33  1  0  0  0  0
 13 14  1  0  0  0  0
 13 18  2  0  0  0  0
 14 19  2  0  0  0  0
 16 35  1  0  0  0  0
 16 36  1  0  0  0  0
 16 37  1  0  0  0  0
 17 20  2  0  0  0  0
 17 21  1  0  0  0  0
 18 22  1  0  0  0  0
 18 38  1  0  0  0  0
 19 23  1  0  0  0  0
 19 39  1  0  0  0  0
 20 24  1  0  0  0  0
 20 40  1  0  0  0  0
 21 25  2  0  0  0  0
 21 41  1  0  0  0  0
 22 23  2  0  0  0  0
 22 42  1  0  0  0  0
 23 43  1  0  0  0  0
 24 26  2  0  0  0  0
 24 44  1  0  0  0  0
 25 26  1  0  0  0  0
 25 45  1  0  0  0  0
 26 46  1  0  0  0  0
M  END
> <PUBCHEM_COMPOUND_CID>
7846953

> <PUBCHEM_CONFORMER_RMSD>
1

> <PUBCHEM_CONFORMER_DIVERSEORDER>
1
110
85
159
44
155
214
236
166
311
348
115
168
75
87
28
170
16
51
362
47
333
37
152
332
326
261
113
264
151
129
35
212
79
262
187
352
238
321
120
283
60
309
280
266
340
334
260
198
328
94
274
327
109
9
354
107
147
64
95
32
123
114
204
293
7
160
65
346
209
215
191
344
63
301
181
271
207
140
268
91
273
80
99
21
243
81
282
180
234
128
50
237
171
201
149
11
174
103
145
227
358
353
194
304
278
161
345
90
24
208
299
142
308
285
221
365
66
286
173
230
184
306
135
98
78
26
254
150
220
341
25
229
84
157
76
124
13
202
119
186
188
216
315
127
137
86
52
267
197
316
211
360
92
133
165
290
183
70
359
361
27
317
55
41
192
169
335
122
245
242
330
284
336
367
153
3
82
292
132
193
136
2
225
195
73
189
347
30
233
287
53
300
231
364
106
102
167
22
224
72
69
43
349
190
39
96
240
121
182
279
337
125
246
164
4
54
199
148
144
93
366
339
218
235
116
355
329
58
71
143
118
259
88
217
294
108
310
276
46
298
33
219
177
101
232
36
29
250
59
319
265
200
130
288
248
228
252
77
249
8
163
263
255
223
275
258
297
162
269
45
302
291
322
342
307
314
313
23
241
206
213
210
324
83
305
56
303
105
57
253
247
14
42
277
251
289
320
325
256
20
226
17
331
295
185
239
257
62
156
158
179
111
312
270
350
363
112
31
15
68
131
138
12
67
134
323
281
318
272
49
172
343
146
89
357
154
338
48
74
205
10
97
356
6
61
244
296
38
40
34
196
178
351
5
18
100
117
126
139
175
203
141
19
104
176
222

> <PUBCHEM_MMFF94_PARTIAL_CHARGES>
35
1 -0.08
10 0.2
11 0.44
12 0.66
13 0.04
14 0.23
15 0.57
17 -0.14
18 -0.15
19 -0.15
2 -0.43
20 -0.15
21 -0.15
22 -0.15
23 -0.15
24 -0.15
25 -0.15
26 -0.15
3 -0.57
34 0.37
38 0.15
39 0.15
4 -0.57
40 0.15
41 0.15
42 0.15
43 0.15
44 0.15
45 0.15
46 0.15
5 -0.73
6 -0.57
7 0.18
8 0.06
9 0.34

> <PUBCHEM_EFFECTIVE_ROTOR_COUNT>
9

> <PUBCHEM_PHARMACOPHORE_FEATURES>
7
1 3 acceptor
1 4 acceptor
1 5 donor
1 6 acceptor
5 1 6 10 13 14 rings
6 13 14 18 19 22 23 rings
6 17 20 21 24 25 26 rings

> <PUBCHEM_HEAVY_ATOM_COUNT>
26

> <PUBCHEM_ATOM_DEF_STEREO_COUNT>
1

> <PUBCHEM_ATOM_UDEF_STEREO_COUNT>
0

> <PUBCHEM_BOND_DEF_STEREO_COUNT>
0

> <PUBCHEM_BOND_UDEF_STEREO_COUNT>
0

> <PUBCHEM_ISOTOPIC_ATOM_COUNT>
0

> <PUBCHEM_COMPONENT_COUNT>
1

> <PUBCHEM_CACTVS_TAUTO_COUNT>
4

> <PUBCHEM_CONFORMER_ID>
0077BC2900000001

> <PUBCHEM_MMFF94_ENERGY>
43.3868

> <PUBCHEM_FEATURE_SELFOVERLAP>
35.592

> <PUBCHEM_SHAPE_FINGERPRINT>
11112662 9 18122873612539108385
11244481 83 17041729545637927577
11578080 2 17604141537811011888
12156800 1 16547135933456627338
12539773 59 18411141294512535447
12788726 201 18336546023374387620
128993 33 17975695305057982992
13009979 54 17979674343192517498
133893 2 17620201270201044021
13402501 40 16614202569507146928
13965767 371 16244098786638650859
14114207 22 10873456768310042102
14123250 116 18411693279762764932
14251751 93 18118118297821008268
14713325 29 18194655160871478526
20600515 1 17974890273679374421
20775438 99 16390182581597094982
23419403 2 17258773725012885717
238 59 17417268618246370316
3459 83 18060142085662266934
35225 105 18129639938133923908
469060 322 15911625819221113690
50150288 127 16755144773374258252
5951187 136 5826901763562035057
6287921 2 17830166170998960651

> <PUBCHEM_SHAPE_MULTIPOLES>
511.35
6.08
5.01
2.54
7.65
0.81
0.11
-1.95
2.36
-3.36
-2.29
-0.95
0.57
-2.53

> <PUBCHEM_SHAPE_SELFOVERLAP>
1077.095

> <PUBCHEM_SHAPE_VOLUME>
288.1

> <PUBCHEM_COORDINATE_TYPE>
2
5
10

$$$$

