361185
  -OEChem-07051213112D

 31 35  0     0  0  0  0  0  0999 V2000
    2.8760    1.7731    0.0000 O   0  0  0  0  0  0  0  0  0  0  0  0
    2.0000    3.3114    0.0000 O   0  0  0  0  0  0  0  0  0  0  0  0
    4.6520   -0.2337    0.0000 C   0  0  0  0  0  0  0  0  0  0  0  0
    4.6681   -1.2752    0.0000 C   0  0  0  0  0  0  0  0  0  0  0  0
    3.7860    0.2663    0.0000 C   0  0  0  0  0  0  0  0  0  0  0  0
    5.5180    0.2663    0.0000 C   0  0  0  0  0  0  0  0  0  0  0  0
    3.7700   -1.8030    0.0000 C   0  0  0  0  0  0  0  0  0  0  0  0
    5.5452   -1.7380    0.0000 C   0  0  0  0  0  0  0  0  0  0  0  0
    3.7860    1.2663    0.0000 C   0  0  0  0  0  0  0  0  0  0  0  0
    4.6520    1.7663    0.0000 C   0  0  0  0  0  0  0  0  0  0  0  0
    5.5180    1.2663    0.0000 C   0  0  0  0  0  0  0  0  0  0  0  0
    2.8760   -0.2406    0.0000 C   0  0  0  0  0  0  0  0  0  0  0  0
    6.3775   -0.2285    0.0000 C   0  0  0  0  0  0  0  0  0  0  0  0
    2.8680   -1.2822    0.0000 C   0  0  0  0  0  0  0  0  0  0  0  0
    6.3909   -1.2201    0.0000 C   0  0  0  0  0  0  0  0  0  0  0  0
    3.7961   -2.8445    0.0000 C   0  0  0  0  0  0  0  0  0  0  0  0
    5.5953   -2.7786    0.0000 C   0  0  0  0  0  0  0  0  0  0  0  0
    4.7149   -3.3356    0.0000 C   0  0  0  0  0  0  0  0  0  0  0  0
    4.6681    2.8078    0.0000 C   0  0  0  0  0  0  0  0  0  0  0  0
    3.7700    3.3356    0.0000 C   0  0  0  0  0  0  0  0  0  0  0  0
    2.8680    2.8147    0.0000 C   0  0  0  0  0  0  0  0  0  0  0  0
    6.0550    1.5763    0.0000 H   0  0  0  0  0  0  0  0  0  0  0  0
    2.3427    0.0756    0.0000 H   0  0  0  0  0  0  0  0  0  0  0  0
    6.9121    0.0855    0.0000 H   0  0  0  0  0  0  0  0  0  0  0  0
    2.3298   -1.5901    0.0000 H   0  0  0  0  0  0  0  0  0  0  0  0
    6.9339   -1.5195    0.0000 H   0  0  0  0  0  0  0  0  0  0  0  0
    3.2684   -3.1698    0.0000 H   0  0  0  0  0  0  0  0  0  0  0  0
    6.1455   -3.0645    0.0000 H   0  0  0  0  0  0  0  0  0  0  0  0
    4.7376   -3.9551    0.0000 H   0  0  0  0  0  0  0  0  0  0  0  0
    5.2086    3.1116    0.0000 H   0  0  0  0  0  0  0  0  0  0  0  0
    3.7724    3.9555    0.0000 H   0  0  0  0  0  0  0  0  0  0  0  0
  1  9  1  0  0  0  0
  1 21  1  0  0  0  0
  2 21  2  0  0  0  0
  3  4  1  0  0  0  0
  3  5  2  0  0  0  0
  3  6  1  0  0  0  0
  4  7  1  0  0  0  0
  4  8  2  0  0  0  0
  5  9  1  0  0  0  0
  5 12  1  0  0  0  0
  6 11  2  0  0  0  0
  6 13  1  0  0  0  0
  7 14  1  0  0  0  0
  7 16  2  0  0  0  0
  8 15  1  0  0  0  0
  8 17  1  0  0  0  0
  9 10  2  0  0  0  0
 10 11  1  0  0  0  0
 10 19  1  0  0  0  0
 11 22  1  0  0  0  0
 12 14  2  0  0  0  0
 12 23  1  0  0  0  0
 13 15  2  0  0  0  0
 13 24  1  0  0  0  0
 14 25  1  0  0  0  0
 15 26  1  0  0  0  0
 16 18  1  0  0  0  0
 16 27  1  0  0  0  0
 17 18  2  0  0  0  0
 17 28  1  0  0  0  0
 18 29  1  0  0  0  0
 19 20  2  0  0  0  0
 19 30  1  0  0  0  0
 20 21  1  0  0  0  0
 20 31  1  0  0  0  0
M  END
> <PUBCHEM_COMPOUND_CID>
361185

> <PUBCHEM_COMPOUND_CANONICALIZED>
1

> <PUBCHEM_CACTVS_COMPLEXITY>
482

> <PUBCHEM_CACTVS_HBOND_ACCEPTOR>
2

> <PUBCHEM_CACTVS_HBOND_DONOR>
0

> <PUBCHEM_CACTVS_ROTATABLE_BOND>
0

> <PUBCHEM_CACTVS_SUBSKEYS>
AAADccB4MAAAAAAAAAAAAAAAAAAAAAAAAAAwYMGCAAAAAADBVAAAGgAAAAAADASAmAAwDsAABACIAiDSCAACCAAgIAAIiAAECMgMJiKEMRqCOiCkwBEIqYeAwPAO4AADAAAYAADAAAYAADAAAAAAAAAAAA==

> <PUBCHEM_IUPAC_OPENEYE_NAME>
pyreno[1,2-b]pyran-9-one

> <PUBCHEM_IUPAC_CAS_NAME>
9-pyreno[1,2-b]pyranone

> <PUBCHEM_IUPAC_NAME>
pyreno[1,2-b]pyran-9-one

> <PUBCHEM_IUPAC_SYSTEMATIC_NAME>
pyreno[1,2-b]pyran-9-one

> <PUBCHEM_IUPAC_TRADITIONAL_NAME>
pyreno[1,2-b]pyran-9-one

> <PUBCHEM_IUPAC_INCHI>
InChI=1S/C19H10O2/c20-16-9-7-14-10-13-5-4-11-2-1-3-12-6-8-15(19(14)21-16)18(13)17(11)12/h1-10H

> <PUBCHEM_IUPAC_INCHIKEY>
NHGPSFSQAVBCRE-UHFFFAOYSA-N

> <PUBCHEM_XLOGP3_AA>
5

> <PUBCHEM_EXACT_MASS>
270.06808

> <PUBCHEM_MOLECULAR_FORMULA>
C19H10O2

> <PUBCHEM_MOLECULAR_WEIGHT>
270.2815

> <PUBCHEM_OPENEYE_CAN_SMILES>
C1=CC2=C3C(=C1)C=CC4=C3C(=CC5=C4OC(=O)C=C5)C=C2

> <PUBCHEM_OPENEYE_ISO_SMILES>
C1=CC2=C3C(=C1)C=CC4=C3C(=CC5=C4OC(=O)C=C5)C=C2

> <PUBCHEM_CACTVS_TPSA>
26.3

> <PUBCHEM_MONOISOTOPIC_WEIGHT>
270.06808

> <PUBCHEM_TOTAL_CHARGE>
0

> <PUBCHEM_HEAVY_ATOM_COUNT>
21

> <PUBCHEM_ATOM_DEF_STEREO_COUNT>
0

> <PUBCHEM_ATOM_UDEF_STEREO_COUNT>
0

> <PUBCHEM_BOND_DEF_STEREO_COUNT>
0

> <PUBCHEM_BOND_UDEF_STEREO_COUNT>
0

> <PUBCHEM_ISOTOPIC_ATOM_COUNT>
0

> <PUBCHEM_COMPONENT_COUNT>
1

> <PUBCHEM_CACTVS_TAUTO_COUNT>
1

> <PUBCHEM_COORDINATE_TYPE>
1
5
255

> <PUBCHEM_BONDANNOTATIONS>
1  21  8
1  9  8
10  11  8
10  19  8
12  14  8
13  15  8
16  18  8
17  18  8
19  20  8
20  21  8
3  4  8
3  5  8
3  6  8
4  7  8
4  8  8
5  12  8
5  9  8
6  11  8
6  13  8
7  14  8
7  16  8
8  15  8
8  17  8
9  10  8

$$$$

