24892737
  -OEChem-07051212483D

 61 63  0     1  0  0  0  0  0999 V2000
   -2.1783   -1.8544   -1.5446 P   0  0  1  0  0  0  0  0  0  0  0  0
    0.1132   -3.5493   -0.8139 P   0  0  2  0  0  0  0  0  0  0  0  0
   -1.4920    0.7912    0.8189 O   0  0  0  0  0  0  0  0  0  0  0  0
    3.4890   -1.2060    0.4975 O   0  0  0  0  0  0  0  0  0  0  0  0
   -3.9571    2.0739   -0.3519 O   0  0  0  0  0  0  0  0  0  0  0  0
   -2.5583   -0.4292   -0.8864 O   0  0  0  0  0  0  0  0  0  0  0  0
   -4.8964   -0.3757    0.5732 O   0  0  0  0  0  0  0  0  0  0  0  0
   -5.9668    2.0828    1.6008 O   0  0  0  0  0  0  0  0  0  0  0  0
    4.0858   -1.3428    3.4970 O   0  0  0  0  0  0  0  0  0  0  0  0
    1.4958   -3.0813   -0.1163 O   0  0  0  0  0  0  0  0  0  0  0  0
   -0.6756   -2.1550   -1.0295 O   0  0  0  0  0  0  0  0  0  0  0  0
   -3.0714   -2.9295   -0.7297 O   0  0  0  0  0  0  0  0  0  0  0  0
   -2.3418   -1.9169   -3.0357 O   0  0  0  0  0  0  0  0  0  0  0  0
   -0.7108   -4.2513    0.3880 O   0  0  0  0  0  0  0  0  0  0  0  0
    4.6896    2.7463    0.4328 O   0  0  0  0  0  0  0  0  0  0  0  0
    0.2590   -4.3825   -2.0537 O   0  0  0  0  0  0  0  0  0  0  0  0
    1.7595    3.4317   -3.0448 O   0  0  0  0  0  0  0  0  0  0  0  0
    3.1823    1.0398   -0.0832 N   0  0  0  0  0  0  0  0  0  0  0  0
    3.2220    3.0752   -1.2987 N   0  0  0  0  0  0  0  0  0  0  0  0
   -3.6841    1.7115    1.0015 C   0  0  1  0  0  0  0  0  0  0  0  0
   -3.7514    0.2002    1.1618 C   0  0  2  0  0  0  0  0  0  0  0  0
   -2.2033    1.9481    1.3188 C   0  0  2  0  0  0  0  0  0  0  0  0
   -2.4440   -0.2465    0.5205 C   0  0  2  0  0  0  0  0  0  0  0  0
   -4.6396    2.4762    1.9050 C   0  0  0  0  0  0  0  0  0  0  0  0
    2.8710   -1.1186    2.7847 C   0  0  2  0  0  0  0  0  0  0  0  0
    2.8414   -1.9771    1.5280 C   0  0  1  0  0  0  0  0  0  0  0  0
    2.8541    0.2899    2.2376 C   0  0  0  0  0  0  0  0  0  0  0  0
    3.6389    0.1493    0.9434 C   0  0  1  0  0  0  0  0  0  0  0  0
   -1.5911    3.2004    0.7140 C   0  0  0  0  0  0  0  0  0  0  0  0
    1.4271   -2.2919    1.0582 C   0  0  0  0  0  0  0  0  0  0  0  0
    2.1444    0.6238   -0.9074 C   0  0  0  0  0  0  0  0  0  0  0  0
    3.7668    2.3123   -0.2599 C   0  0  0  0  0  0  0  0  0  0  0  0
    1.6254    1.3563   -1.9005 C   0  0  0  0  0  0  0  0  0  0  0  0
    2.1895    2.7097   -2.1492 C   0  0  0  0  0  0  0  0  0  0  0  0
    0.5074    0.8892   -2.7761 C   0  0  0  0  0  0  0  0  0  0  0  0
   -3.7389   -0.0540    2.2299 H   0  0  0  0  0  0  0  0  0  0  0  0
   -2.0431    1.9567    2.4043 H   0  0  0  0  0  0  0  0  0  0  0  0
   -2.0907   -1.1720    0.9872 H   0  0  0  0  0  0  0  0  0  0  0  0
   -4.5628    3.5558    1.7395 H   0  0  0  0  0  0  0  0  0  0  0  0
   -4.4477    2.2655    2.9622 H   0  0  0  0  0  0  0  0  0  0  0  0
    2.0437   -1.3152    3.4732 H   0  0  0  0  0  0  0  0  0  0  0  0
    3.4146   -2.9042    1.6391 H   0  0  0  0  0  0  0  0  0  0  0  0
    1.8201    0.5988    2.0410 H   0  0  0  0  0  0  0  0  0  0  0  0
    3.3072    1.0307    2.9038 H   0  0  0  0  0  0  0  0  0  0  0  0
    4.7067    0.3150    1.1297 H   0  0  0  0  0  0  0  0  0  0  0  0
   -1.5806    3.1548   -0.3803 H   0  0  0  0  0  0  0  0  0  0  0  0
   -0.5434    3.2905    1.0223 H   0  0  0  0  0  0  0  0  0  0  0  0
   -2.1237    4.1012    1.0313 H   0  0  0  0  0  0  0  0  0  0  0  0
   -3.9650    3.0439   -0.4142 H   0  0  0  0  0  0  0  0  0  0  0  0
    0.8421   -1.3891    0.8686 H   0  0  0  0  0  0  0  0  0  0  0  0
    0.9183   -2.8635    1.8408 H   0  0  0  0  0  0  0  0  0  0  0  0
   -4.7925   -1.3414    0.6176 H   0  0  0  0  0  0  0  0  0  0  0  0
   -6.5564    2.5840    2.1897 H   0  0  0  0  0  0  0  0  0  0  0  0
    4.0827   -2.2697    3.7914 H   0  0  0  0  0  0  0  0  0  0  0  0
    1.7332   -0.3583   -0.7387 H   0  0  0  0  0  0  0  0  0  0  0  0
    3.6275    3.9955   -1.4449 H   0  0  0  0  0  0  0  0  0  0  0  0
   -3.1015   -3.8575   -1.0459 H   0  0  0  0  0  0  0  0  0  0  0  0
   -0.3860    1.5007   -2.6132 H   0  0  0  0  0  0  0  0  0  0  0  0
    0.2428   -0.1534   -2.5799 H   0  0  0  0  0  0  0  0  0  0  0  0
    0.7906    0.9596   -3.8315 H   0  0  0  0  0  0  0  0  0  0  0  0
   -0.9533   -3.7282    1.1811 H   0  0  0  0  0  0  0  0  0  0  0  0
  1  6  1  0  0  0  0
  1 11  1  0  0  0  0
  1 12  1  0  0  0  0
  1 13  2  0  0  0  0
  2 10  1  0  0  0  0
  2 11  1  0  0  0  0
  2 14  1  0  0  0  0
  2 16  2  0  0  0  0
  3 22  1  0  0  0  0
  3 23  1  0  0  0  0
  4 26  1  0  0  0  0
  4 28  1  0  0  0  0
  5 20  1  0  0  0  0
  5 49  1  0  0  0  0
  6 23  1  0  0  0  0
  7 21  1  0  0  0  0
  7 52  1  0  0  0  0
  8 24  1  0  0  0  0
  8 53  1  0  0  0  0
  9 25  1  0  0  0  0
  9 54  1  0  0  0  0
 10 30  1  0  0  0  0
 12 57  1  0  0  0  0
 14 61  1  0  0  0  0
 15 32  2  0  0  0  0
 17 34  2  0  0  0  0
 18 28  1  0  0  0  0
 18 31  1  0  0  0  0
 18 32  1  0  0  0  0
 19 32  1  0  0  0  0
 19 34  1  0  0  0  0
 19 56  1  0  0  0  0
 20 21  1  0  0  0  0
 20 22  1  0  0  0  0
 20 24  1  0  0  0  0
 21 23  1  0  0  0  0
 21 36  1  0  0  0  0
 22 29  1  0  0  0  0
 22 37  1  0  0  0  0
 23 38  1  0  0  0  0
 24 39  1  0  0  0  0
 24 40  1  0  0  0  0
 25 26  1  0  0  0  0
 25 27  1  0  0  0  0
 25 41  1  0  0  0  0
 26 30  1  0  0  0  0
 26 42  1  0  0  0  0
 27 28  1  0  0  0  0
 27 43  1  0  0  0  0
 27 44  1  0  0  0  0
 28 45  1  0  0  0  0
 29 46  1  0  0  0  0
 29 47  1  0  0  0  0
 29 48  1  0  0  0  0
 30 50  1  0  0  0  0
 30 51  1  0  0  0  0
 31 33  2  0  0  0  0
 31 55  1  0  0  0  0
 33 34  1  0  0  0  0
 33 35  1  0  0  0  0
 35 58  1  0  0  0  0
 35 59  1  0  0  0  0
 35 60  1  0  0  0  0
M  END
> <PUBCHEM_COMPOUND_CID>
24892737

> <PUBCHEM_CONFORMER_RMSD>
1.4

> <PUBCHEM_CONFORMER_DIVERSEORDER>
1
82
63
110
2
23
85
30
99
50
74
21
100
96
6
11
39
89
104
12
53
111
107
66
73
76
51
59
8
79
28
86
45
72
98
94
16
71
106
38
78
97
4
91
40
10
103
61
113
105
49
20
15
44
60
102
37
75
47
95
42
88
84
69
32
54
83
7
19
70
67
41
34
26
90
29
68
62
33
112
109
35
3
80
48
55
101
5
18
22
25
77
52
58
46
108
81
92
31
93
87
65
13
27
14
36
43
64
24
17
9
57
56

> <PUBCHEM_MMFF94_PARTIAL_CHARGES>
41
1 1.51
10 -0.55
11 -0.54
12 -0.77
13 -0.7
14 -0.77
15 -0.57
16 -0.7
17 -0.57
18 -0.47
19 -0.49
2 1.51
20 0.28
21 0.28
22 0.28
23 0.56
24 0.28
25 0.28
26 0.28
28 0.58
3 -0.56
30 0.28
31 -0.04
32 0.69
33 -0.12
34 0.62
35 0.14
4 -0.56
49 0.4
5 -0.68
52 0.4
53 0.4
54 0.4
55 0.15
56 0.37
57 0.5
6 -0.55
61 0.5
7 -0.68
8 -0.68
9 -0.68

> <PUBCHEM_EFFECTIVE_ROTOR_COUNT>
11

> <PUBCHEM_PHARMACOPHORE_FEATURES>
20
1 12 acceptor
1 13 acceptor
1 14 acceptor
1 15 acceptor
1 16 acceptor
1 17 acceptor
1 19 donor
1 3 acceptor
1 4 acceptor
1 5 acceptor
1 5 donor
1 7 acceptor
1 7 donor
1 8 acceptor
1 8 donor
1 9 acceptor
1 9 donor
5 3 20 21 22 23 rings
5 4 25 26 27 28 rings
6 18 19 31 32 33 34 rings

> <PUBCHEM_HEAVY_ATOM_COUNT>
35

> <PUBCHEM_ATOM_DEF_STEREO_COUNT>
7

> <PUBCHEM_ATOM_UDEF_STEREO_COUNT>
0

> <PUBCHEM_BOND_DEF_STEREO_COUNT>
0

> <PUBCHEM_BOND_UDEF_STEREO_COUNT>
0

> <PUBCHEM_ISOTOPIC_ATOM_COUNT>
0

> <PUBCHEM_COMPONENT_COUNT>
1

> <PUBCHEM_CACTVS_TAUTO_COUNT>
3

> <PUBCHEM_CONFORMER_ID>
017BD54100000001

> <PUBCHEM_MMFF94_ENERGY>
51.9097

> <PUBCHEM_FEATURE_SELFOVERLAP>
101.536

> <PUBCHEM_SHAPE_FINGERPRINT>
12539773 59 17978808808788068334
12788726 201 17975404725251998863
13009979 54 17979384996237027026
13726171 33 17605818244860545440
13965767 371 18342457049694243260
150020 26 17611454620952974459
15274700 34 18201725102717184333
15297060 5 18041266717127226034
15420108 30 18341339942039259440
16067690 210 17537441721341731828
19319366 153 17770216059529859746
20511986 3 18340770334443904837
21796203 349 17917713552343620056
21860390 5 17988348386344521194
23559900 14 17903619020171650523
35225 105 17749117651295191436
50150288 127 16399375675593978061
5895379 119 18190471467656703050
6287921 2 18336545014126261774
6609424 69 17838611511443916693

> <PUBCHEM_SHAPE_MULTIPOLES>
629.98
9.12
5.3
3.09
6.66
2.92
-0.43
-6.21
5.79
-0.7
-2.43
-1.84
-0.17
-4.45

> <PUBCHEM_SHAPE_SELFOVERLAP>
1287.263

> <PUBCHEM_SHAPE_VOLUME>
367.1

> <PUBCHEM_COORDINATE_TYPE>
2
5
10

$$$$

