11740
  -OEChem-06261206032D

 55 58  0     1  0  0  0  0  0999 V2000
    8.0319    1.2610    0.0000 O   0  0  0  0  0  0  0  0  0  0  0  0
    4.7950    0.5046    0.0000 O   0  0  0  0  0  0  0  0  0  0  0  0
   10.0622    0.4874    0.0000 O   0  0  0  0  0  0  0  0  0  0  0  0
    9.8566    2.4768    0.0000 O   0  0  0  0  0  0  0  0  0  0  0  0
    2.0000   -3.0477    0.0000 O   0  0  0  0  0  0  0  0  0  0  0  0
    7.3931    0.0046    0.0000 C   0  0  3  0  0  0  0  0  0  0  0  0
    7.3931   -0.9954    0.0000 C   0  0  3  0  0  0  0  0  0  0  0  0
    6.5271   -1.4954    0.0000 C   0  0  3  0  0  0  0  0  0  0  0  0
    5.6610   -0.9954    0.0000 C   0  0  3  0  0  0  0  0  0  0  0  0
    6.5271    0.5046    0.0000 C   0  0  0  0  0  0  0  0  0  0  0  0
    8.3393    0.3094    0.0000 C   0  0  3  0  0  0  0  0  0  0  0  0
    5.6610    0.0046    0.0000 C   0  0  3  0  0  0  0  0  0  0  0  0
    4.7510   -1.5022    0.0000 C   0  0  3  0  0  0  0  0  0  0  0  0
    8.3393   -1.3001    0.0000 C   0  0  0  0  0  0  0  0  0  0  0  0
    6.5431   -2.5369    0.0000 C   0  0  0  0  0  0  0  0  0  0  0  0
    8.9229   -0.4954    0.0000 C   0  0  0  0  0  0  0  0  0  0  0  0
    7.3931    1.0046    0.0000 C   0  0  0  0  0  0  0  0  0  0  0  0
    5.6451   -3.0646    0.0000 C   0  0  0  0  0  0  0  0  0  0  0  0
    4.7430   -2.5438    0.0000 C   0  0  0  0  0  0  0  0  0  0  0  0
    4.7587   -0.5022    0.0000 C   0  0  0  0  0  0  0  0  0  0  0  0
    9.1493    0.8957    0.0000 C   0  0  0  0  0  0  0  0  0  0  0  0
    3.8242   -0.9381    0.0000 C   0  0  0  0  0  0  0  0  0  0  0  0
    3.8076   -3.0935    0.0000 C   0  0  0  0  0  0  0  0  0  0  0  0
    9.9229   -0.4954    0.0000 C   0  0  0  0  0  0  0  0  0  0  0  0
    2.8763   -1.4661    0.0000 C   0  0  0  0  0  0  0  0  0  0  0  0
    9.0465    1.8904    0.0000 C   0  0  0  0  0  0  0  0  0  0  0  0
    2.8680   -2.5510    0.0000 C   0  0  0  0  0  0  0  0  0  0  0  0
    7.4830   -1.8406    0.0000 H   0  0  0  0  0  0  0  0  0  0  0  0
    7.2664   -1.9147    0.0000 H   0  0  0  0  0  0  0  0  0  0  0  0
    6.3972   -0.5704    0.0000 H   0  0  0  0  0  0  0  0  0  0  0  0
    6.9256    0.9796    0.0000 H   0  0  0  0  0  0  0  0  0  0  0  0
    6.1285    0.9796    0.0000 H   0  0  0  0  0  0  0  0  0  0  0  0
    5.6610    0.8546    0.0000 H   0  0  0  0  0  0  0  0  0  0  0  0
    8.0883   -1.8670    0.0000 H   0  0  0  0  0  0  0  0  0  0  0  0
    8.8767   -1.6093    0.0000 H   0  0  0  0  0  0  0  0  0  0  0  0
    6.7612   -3.1173    0.0000 H   0  0  0  0  0  0  0  0  0  0  0  0
    7.1523   -2.4214    0.0000 H   0  0  0  0  0  0  0  0  0  0  0  0
    8.0131    1.0046    0.0000 H   0  0  0  0  0  0  0  0  0  0  0  0
    7.3931    1.6246    0.0000 H   0  0  0  0  0  0  0  0  0  0  0  0
    6.7731    1.0046    0.0000 H   0  0  0  0  0  0  0  0  0  0  0  0
    5.2478   -3.5406    0.0000 H   0  0  0  0  0  0  0  0  0  0  0  0
    6.0460   -3.5375    0.0000 H   0  0  0  0  0  0  0  0  0  0  0  0
    5.3787   -0.5070    0.0000 H   0  0  0  0  0  0  0  0  0  0  0  0
    4.7635    0.1177    0.0000 H   0  0  0  0  0  0  0  0  0  0  0  0
    4.1388   -0.4975    0.0000 H   0  0  0  0  0  0  0  0  0  0  0  0
    3.8361   -0.3183    0.0000 H   0  0  0  0  0  0  0  0  0  0  0  0
    8.4476    1.7210    0.0000 H   0  0  0  0  0  0  0  0  0  0  0  0
    4.7950    1.1246    0.0000 H   0  0  0  0  0  0  0  0  0  0  0  0
    3.8100   -3.7135    0.0000 H   0  0  0  0  0  0  0  0  0  0  0  0
   10.2329   -1.0323    0.0000 H   0  0  0  0  0  0  0  0  0  0  0  0
   10.2329    0.0416    0.0000 H   0  0  0  0  0  0  0  0  0  0  0  0
    2.3430   -1.1499    0.0000 H   0  0  0  0  0  0  0  0  0  0  0  0
    8.7757    2.4482    0.0000 H   0  0  0  0  0  0  0  0  0  0  0  0
    8.4502    1.7206    0.0000 H   0  0  0  0  0  0  0  0  0  0  0  0
    9.7928    3.0935    0.0000 H   0  0  0  0  0  0  0  0  0  0  0  0
  1 11  1  0  0  0  0
  1 47  1  0  0  0  0
  2 12  1  0  0  0  0
  2 48  1  0  0  0  0
  3 21  2  0  0  0  0
  4 26  1  0  0  0  0
  4 55  1  0  0  0  0
  5 27  2  0  0  0  0
  6  7  1  0  0  0  0
  6 10  1  0  0  0  0
  6 11  1  0  0  0  0
  6 17  1  0  0  0  0
  7  8  1  0  0  0  0
  7 14  1  0  0  0  0
  7 28  1  0  0  0  0
  8  9  1  0  0  0  0
  8 15  1  0  0  0  0
  8 29  1  0  0  0  0
  9 12  1  0  0  0  0
  9 13  1  0  0  0  0
  9 30  1  0  0  0  0
 10 12  1  0  0  0  0
 10 31  1  0  0  0  0
 10 32  1  0  0  0  0
 11 16  1  0  0  0  0
 11 21  1  0  0  0  0
 12 33  1  0  0  0  0
 13 19  1  0  0  0  0
 13 20  1  0  0  0  0
 13 22  1  0  0  0  0
 14 16  1  0  0  0  0
 14 34  1  0  0  0  0
 14 35  1  0  0  0  0
 15 18  1  0  0  0  0
 15 36  1  0  0  0  0
 15 37  1  0  0  0  0
 16 24  2  0  0  0  0
 17 38  1  0  0  0  0
 17 39  1  0  0  0  0
 17 40  1  0  0  0  0
 18 19  1  0  0  0  0
 18 41  1  0  0  0  0
 18 42  1  0  0  0  0
 19 23  2  0  0  0  0
 20 43  1  0  0  0  0
 20 44  1  0  0  0  0
 20 45  1  0  0  0  0
 21 26  1  0  0  0  0
 22 25  2  0  0  0  0
 22 46  1  0  0  0  0
 23 27  1  0  0  0  0
 23 49  1  0  0  0  0
 24 50  1  0  0  0  0
 24 51  1  0  0  0  0
 25 27  1  0  0  0  0
 25 52  1  0  0  0  0
 26 53  1  0  0  0  0
 26 54  1  0  0  0  0
M  END
> <PUBCHEM_COMPOUND_CID>
11740

> <PUBCHEM_COMPOUND_CANONICALIZED>
1

> <PUBCHEM_CACTVS_COMPLEXITY>
795

> <PUBCHEM_CACTVS_HBOND_ACCEPTOR>
5

> <PUBCHEM_CACTVS_HBOND_DONOR>
3

> <PUBCHEM_CACTVS_ROTATABLE_BOND>
2

> <PUBCHEM_CACTVS_SUBSKEYS>
AAADceB4OAAAAAAAAAAAAAAAAAAAAYAAAAAwYIAAAAAAAGDAAAAAGgAACAAAD1SggAICAAAAAgCIAqBSAAIAAAAgAAAICAFAAEgAFBIAAQAAQAAFgAAIEYPIzPDPgAAAAAAAAADAAAYAADAAAYAADAAAAA==

> <PUBCHEM_IUPAC_OPENEYE_NAME>
11,17-dihydroxy-17-(2-hydroxyacetyl)-10,13-dimethyl-16-methylene-6,7,8,9,11,12,14,15-octahydrocyclopenta[a]phenanthren-3-one

> <PUBCHEM_IUPAC_CAS_NAME>
11,17-dihydroxy-17-(2-hydroxy-1-oxoethyl)-10,13-dimethyl-16-methylene-6,7,8,9,11,12,14,15-octahydrocyclopenta[a]phenanthren-3-one

> <PUBCHEM_IUPAC_NAME>
11,17-dihydroxy-17-(2-hydroxyacetyl)-10,13-dimethyl-16-methylidene-6,7,8,9,11,12,14,15-octahydrocyclopenta[a]phenanthren-3-one

> <PUBCHEM_IUPAC_SYSTEMATIC_NAME>
10,13-dimethyl-16-methylidene-11,17-bis(oxidanyl)-17-(2-oxidanylethanoyl)-6,7,8,9,11,12,14,15-octahydrocyclopenta[a]phenanthren-3-one

> <PUBCHEM_IUPAC_TRADITIONAL_NAME>
17-glycoloyl-11,17-dihydroxy-10,13-dimethyl-16-methylene-6,7,8,9,11,12,14,15-octahydrocyclopenta[a]phenanthren-3-one

> <PUBCHEM_IUPAC_INCHI>
InChI=1S/C22H28O5/c1-12-8-16-15-5-4-13-9-14(24)6-7-20(13,2)19(15)17(25)10-21(16,3)22(12,27)18(26)11-23/h6-7,9,15-17,19,23,25,27H,1,4-5,8,10-11H2,2-3H3

> <PUBCHEM_IUPAC_INCHIKEY>
WSVOMANDJDYYEY-UHFFFAOYSA-N

> <PUBCHEM_XLOGP3>
1.6

> <PUBCHEM_EXACT_MASS>
372.193674

> <PUBCHEM_MOLECULAR_FORMULA>
C22H28O5

> <PUBCHEM_MOLECULAR_WEIGHT>
372.45472

> <PUBCHEM_OPENEYE_CAN_SMILES>
CC12CC(C3C(C1CC(=C)C2(C(=O)CO)O)CCC4=CC(=O)C=CC34C)O

> <PUBCHEM_OPENEYE_ISO_SMILES>
CC12CC(C3C(C1CC(=C)C2(C(=O)CO)O)CCC4=CC(=O)C=CC34C)O

> <PUBCHEM_CACTVS_TPSA>
94.8

> <PUBCHEM_MONOISOTOPIC_WEIGHT>
372.193674

> <PUBCHEM_TOTAL_CHARGE>
0

> <PUBCHEM_HEAVY_ATOM_COUNT>
27

> <PUBCHEM_ATOM_DEF_STEREO_COUNT>
0

> <PUBCHEM_ATOM_UDEF_STEREO_COUNT>
7

> <PUBCHEM_BOND_DEF_STEREO_COUNT>
0

> <PUBCHEM_BOND_UDEF_STEREO_COUNT>
0

> <PUBCHEM_ISOTOPIC_ATOM_COUNT>
0

> <PUBCHEM_COMPONENT_COUNT>
1

> <PUBCHEM_CACTVS_TAUTO_COUNT>
9

> <PUBCHEM_COORDINATE_TYPE>
1
5
255

> <PUBCHEM_BONDANNOTATIONS>
11  21  3
12  33  3
13  20  3
6  17  3
7  28  3
8  29  3
9  30  3

$$$$

