5280566
  -OEChem-07051212483D

 20 19  0     0  0  0  0  0  0999 V2000
   -3.9175   -0.9151    0.8935 O   0  0  0  0  0  0  0  0  0  0  0  0
   -3.2753   -0.5525   -1.2568 O   0  0  0  0  0  0  0  0  0  0  0  0
    0.7465   -0.9678    0.2906 O   0  0  0  0  0  0  0  0  0  0  0  0
    3.0742   -1.7760   -0.1509 O   0  0  0  0  0  0  0  0  0  0  0  0
    3.8690    0.3818   -0.1597 O   0  0  0  0  0  0  0  0  0  0  0  0
   -1.1053    1.0149   -0.5680 C   0  0  0  0  0  0  0  0  0  0  0  0
   -2.0090    0.4653    0.5300 C   0  0  0  0  0  0  0  0  0  0  0  0
   -0.0032    1.8575    0.0069 C   0  0  0  0  0  0  0  0  0  0  0  0
   -3.1174   -0.3704   -0.0567 C   0  0  0  0  0  0  0  0  0  0  0  0
    1.1950    1.3649    0.3474 C   0  0  0  0  0  0  0  0  0  0  0  0
    1.5609   -0.0609    0.1939 C   0  0  0  0  0  0  0  0  0  0  0  0
    2.9821   -0.4418   -0.0702 C   0  0  0  0  0  0  0  0  0  0  0  0
   -0.7230    0.2181   -1.2159 H   0  0  0  0  0  0  0  0  0  0  0  0
   -1.6942    1.6545   -1.2394 H   0  0  0  0  0  0  0  0  0  0  0  0
   -2.4687    1.2909    1.0860 H   0  0  0  0  0  0  0  0  0  0  0  0
   -1.4489   -0.1584    1.2336 H   0  0  0  0  0  0  0  0  0  0  0  0
   -0.1955    2.9185    0.1396 H   0  0  0  0  0  0  0  0  0  0  0  0
    1.9670    2.0377    0.7066 H   0  0  0  0  0  0  0  0  0  0  0  0
   -4.6311   -1.4624    0.5015 H   0  0  0  0  0  0  0  0  0  0  0  0
    3.9942   -2.0759   -0.3118 H   0  0  0  0  0  0  0  0  0  0  0  0
  1  9  1  0  0  0  0
  1 19  1  0  0  0  0
  2  9  2  0  0  0  0
  3 11  2  0  0  0  0
  4 12  1  0  0  0  0
  4 20  1  0  0  0  0
  5 12  2  0  0  0  0
  6  7  1  0  0  0  0
  6  8  1  0  0  0  0
  6 13  1  0  0  0  0
  6 14  1  0  0  0  0
  7  9  1  0  0  0  0
  7 15  1  0  0  0  0
  7 16  1  0  0  0  0
  8 10  2  0  0  0  0
  8 17  1  0  0  0  0
 10 11  1  0  0  0  0
 10 18  1  0  0  0  0
 11 12  1  0  0  0  0
M  END
> <PUBCHEM_COMPOUND_CID>
5280566

> <PUBCHEM_CONFORMER_RMSD>
0.6

> <PUBCHEM_CONFORMER_DIVERSEORDER>
4
30
56
61
12
41
1
57
14
16
62
22
58
38
59
53
10
33
31
8
40
2
26
11
60
35
7
45
29
19
23
18
50
43
46
39
47
15
44
51
27
25
6
42
49
21
48
37
55
24
52
17
36
20
34
3
9
5
32
28
13
54

> <PUBCHEM_MMFF94_PARTIAL_CHARGES>
16
1 -0.65
10 -0.14
11 0.56
12 0.72
17 0.15
18 0.15
19 0.5
2 -0.57
20 0.5
3 -0.57
4 -0.65
5 -0.57
6 0.14
7 0.06
8 -0.29
9 0.66

> <PUBCHEM_EFFECTIVE_ROTOR_COUNT>
5

> <PUBCHEM_PHARMACOPHORE_FEATURES>
7
1 1 acceptor
1 2 acceptor
1 3 acceptor
1 4 acceptor
1 5 acceptor
3 1 2 9 anion
3 4 5 12 anion

> <PUBCHEM_HEAVY_ATOM_COUNT>
12

> <PUBCHEM_ATOM_DEF_STEREO_COUNT>
0

> <PUBCHEM_ATOM_UDEF_STEREO_COUNT>
0

> <PUBCHEM_BOND_DEF_STEREO_COUNT>
1

> <PUBCHEM_BOND_UDEF_STEREO_COUNT>
0

> <PUBCHEM_ISOTOPIC_ATOM_COUNT>
0

> <PUBCHEM_COMPONENT_COUNT>
1

> <PUBCHEM_CACTVS_TAUTO_COUNT>
3

> <PUBCHEM_CONFORMER_ID>
0050933600000004

> <PUBCHEM_MMFF94_ENERGY>
19.016

> <PUBCHEM_FEATURE_SELFOVERLAP>
35.649

> <PUBCHEM_SHAPE_FINGERPRINT>
11543360 7 15841538657236340426
12032990 46 18411414038047624858
12932764 1 17095538317572097592
14252887 29 18040424495446705670
15375462 189 18187081745620775376
19422 9 18261105322473762448
20201158 50 18272090495854785619
20281407 28 18334580160987529248
20645477 70 18338248072170266815
20653085 51 10663808715506999936
20671657 53 17561362893963022652
20711985 344 17916040133868573877
20871998 22 18261100924226733036
20871999 31 16845578595751768191
21293036 1 17847059965169727392
22485316 2 18334299785538173213
23402539 116 18130510833591066060
25610 137 18411133641255729820
305870 269 7060388002450532245
42627469 27 10663821901056364965
449060 23 18040712584446153629
581208 293 18335992956383690688
83771 10 18335420175028420305

> <PUBCHEM_SHAPE_MULTIPOLES>
217.61
6.65
1.58
0.82
1
0.24
0.08
-2.98
0.16
-0.52
-0.02
0.62
-0.05
0.15

> <PUBCHEM_SHAPE_SELFOVERLAP>
427.174

> <PUBCHEM_SHAPE_VOLUME>
128.3

> <PUBCHEM_COORDINATE_TYPE>
2
5
10

$$$$

