441756
  -OEChem-07051212562D

 48 54  0     1  0  0  0  0  0999 V2000
    2.5500    0.2455    0.0000 O   0  0  0  0  0  0  0  0  0  0  0  0
    7.2254   -1.4961    0.0000 O   0  0  0  0  0  0  0  0  0  0  0  0
    3.8941    1.2483    0.0000 N   0  0  3  0  0  0  0  0  0  0  0  0
    4.7882   -0.3003    0.0000 C   0  0  1  0  0  0  0  0  0  0  0  0
    4.7882    0.7321    0.0000 C   0  0  3  0  0  0  0  0  0  0  0  0
    3.8941   -0.8165    0.0000 C   0  0  2  0  0  0  0  0  0  0  0  0
    5.2018    0.2618    0.0000 C   0  0  2  0  0  0  0  0  0  0  0  0
    5.5954   -0.9440    0.0000 C   0  0  1  0  0  0  0  0  0  0  0  0
    3.5500    0.2388    0.0000 C   0  0  2  0  0  0  0  0  0  0  0  0
    5.5954    1.3758    0.0000 C   0  0  3  0  0  0  0  0  0  0  0  0
    3.0000   -0.3003    0.0000 C   0  0  2  0  0  0  0  0  0  0  0  0
    4.2153    0.4683    0.0000 C   0  0  0  0  0  0  0  0  0  0  0  0
    3.0000    0.7321    0.0000 C   0  0  0  0  0  0  0  0  0  0  0  0
    4.7889   -1.3212    0.0000 C   0  0  0  0  0  0  0  0  0  0  0  0
    6.6019    1.1461    0.0000 C   0  0  0  0  0  0  0  0  0  0  0  0
    5.7295    0.7665    0.0000 C   0  0  0  0  0  0  0  0  0  0  0  0
    7.0499    0.2159    0.0000 C   0  0  1  0  0  0  0  0  0  0  0  0
    6.6019   -0.7143    0.0000 C   0  0  0  0  0  0  0  0  0  0  0  0
    2.9993   -1.2295    0.0000 C   0  0  0  0  0  0  0  0  0  0  0  0
    3.8060   -1.7591    0.0000 C   0  0  0  0  0  0  0  0  0  0  0  0
    6.5096    0.7665    0.0000 C   0  0  0  0  0  0  0  0  0  0  0  0
    2.0000   -0.3000    0.0000 C   0  0  0  0  0  0  0  0  0  0  0  0
    6.6309    1.7591    0.0000 C   0  0  0  0  0  0  0  0  0  0  0  0
    4.7247    1.5797    0.0000 H   0  0  0  0  0  0  0  0  0  0  0  0
    4.3244   -1.5496    0.0000 H   0  0  0  0  0  0  0  0  0  0  0  0
    5.5910   -1.7940    0.0000 H   0  0  0  0  0  0  0  0  0  0  0  0
    5.4062    2.2045    0.0000 H   0  0  0  0  0  0  0  0  0  0  0  0
    4.5396    0.9967    0.0000 H   0  0  0  0  0  0  0  0  0  0  0  0
    4.2542   -0.1505    0.0000 H   0  0  0  0  0  0  0  0  0  0  0  0
    2.7880    1.3147    0.0000 H   0  0  0  0  0  0  0  0  0  0  0  0
    2.3894    0.6244    0.0000 H   0  0  0  0  0  0  0  0  0  0  0  0
    4.9600   -1.9172    0.0000 H   0  0  0  0  0  0  0  0  0  0  0  0
    5.4028   -1.2346    0.0000 H   0  0  0  0  0  0  0  0  0  0  0  0
    7.2064    1.2840    0.0000 H   0  0  0  0  0  0  0  0  0  0  0  0
    6.6019    1.7661    0.0000 H   0  0  0  0  0  0  0  0  0  0  0  0
    5.8944    1.3642    0.0000 H   0  0  0  0  0  0  0  0  0  0  0  0
    5.1972    1.0844    0.0000 H   0  0  0  0  0  0  0  0  0  0  0  0
    7.8999    0.2159    0.0000 H   0  0  0  0  0  0  0  0  0  0  0  0
    2.3910   -1.1099    0.0000 H   0  0  0  0  0  0  0  0  0  0  0  0
    2.7650   -1.8035    0.0000 H   0  0  0  0  0  0  0  0  0  0  0  0
    3.3738   -2.2037    0.0000 H   0  0  0  0  0  0  0  0  0  0  0  0
    4.1608   -2.2676    0.0000 H   0  0  0  0  0  0  0  0  0  0  0  0
    2.0002    0.3200    0.0000 H   0  0  0  0  0  0  0  0  0  0  0  0
    1.3800   -0.2997    0.0000 H   0  0  0  0  0  0  0  0  0  0  0  0
    1.9998   -0.9200    0.0000 H   0  0  0  0  0  0  0  0  0  0  0  0
    2.2436    0.7845    0.0000 H   0  0  0  0  0  0  0  0  0  0  0  0
    7.2015    2.0017    0.0000 H   0  0  0  0  0  0  0  0  0  0  0  0
    6.1356    2.1320    0.0000 H   0  0  0  0  0  0  0  0  0  0  0  0
  9  1  1  1  0  0  0
  1 46  1  0  0  0  0
  2 18  2  0  0  0  0
  3  5  1  0  0  0  0
  3  9  1  0  0  0  0
  3 13  1  0  0  0  0
  4  5  1  0  0  0  0
  4  6  1  0  0  0  0
  4  8  1  0  0  0  0
  4 14  1  1  0  0  0
  5 10  1  0  0  0  0
  5 24  1  0  0  0  0
  6  9  1  0  0  0  0
  6 11  1  0  0  0  0
  6 25  1  6  0  0  0
  7  8  1  0  0  0  0
  7 10  1  0  0  0  0
  7 12  1  6  0  0  0
  7 16  1  0  0  0  0
  8 18  1  0  0  0  0
  8 26  1  6  0  0  0
  9 12  1  0  0  0  0
 10 15  1  0  0  0  0
 10 27  1  0  0  0  0
 11 13  1  0  0  0  0
 11 19  1  0  0  0  0
 11 22  1  6  0  0  0
 12 28  1  0  0  0  0
 12 29  1  0  0  0  0
 13 30  1  0  0  0  0
 13 31  1  0  0  0  0
 14 20  1  0  0  0  0
 14 32  1  0  0  0  0
 14 33  1  0  0  0  0
 15 17  1  0  0  0  0
 15 34  1  0  0  0  0
 15 35  1  0  0  0  0
 16 21  1  0  0  0  0
 16 36  1  0  0  0  0
 16 37  1  0  0  0  0
 17 18  1  0  0  0  0
 17 21  1  0  0  0  0
 17 38  1  6  0  0  0
 19 20  1  0  0  0  0
 19 39  1  0  0  0  0
 19 40  1  0  0  0  0
 20 41  1  0  0  0  0
 20 42  1  0  0  0  0
 21 23  2  0  0  0  0
 22 43  1  0  0  0  0
 22 44  1  0  0  0  0
 22 45  1  0  0  0  0
 23 47  1  0  0  0  0
 23 48  1  0  0  0  0
M  END
> <PUBCHEM_COMPOUND_CID>
441756

> <PUBCHEM_COMPOUND_CANONICALIZED>
1

> <PUBCHEM_CACTVS_COMPLEXITY>
731

> <PUBCHEM_CACTVS_HBOND_ACCEPTOR>
3

> <PUBCHEM_CACTVS_HBOND_DONOR>
1

> <PUBCHEM_CACTVS_ROTATABLE_BOND>
0

> <PUBCHEM_CACTVS_SUBSKEYS>
AAADceB6MAAAAAAAAAAAAAAAAAAAAeLEAAA8YMGDBgAWAADAAAAAHgAACAAADyzBgAQCAAMAAgCIAoBSAAAAAAAgAAAAAAEIAAgAABIAgQAEQAAEgACAAAG83fPfgAAAAAAAAADQAAaAADQAASAACQAAAA==

> <PUBCHEM_IUPAC_INCHI>
InChI=1S/C20H25NO2/c1-10-7-18-8-20(23)16-17(2)4-3-5-19(16)14(18)13(22)11(10)6-12(18)15(19)21(20)9-17/h11-12,14-16,23H,1,3-9H2,2H3/t11-,12?,14-,15?,16-,17+,18+,19+,20+/m1/s1

> <PUBCHEM_IUPAC_INCHIKEY>
YWJLOJZDBLDKSA-MLJITFGKSA-N

> <PUBCHEM_XLOGP3_AA>
1.9

> <PUBCHEM_EXACT_MASS>
311.188529

> <PUBCHEM_MOLECULAR_FORMULA>
C20H25NO2

> <PUBCHEM_MOLECULAR_WEIGHT>
311.418

> <PUBCHEM_OPENEYE_CAN_SMILES>
CC12CCCC34C1C5(CC67C3C(=O)C(CC6C4N5C2)C(=C)C7)O

> <PUBCHEM_OPENEYE_ISO_SMILES>
C[C@@]12CCC[C@]34[C@@H]1[C@]5(C[C@]67[C@H]3C(=O)[C@H](CC6C4N5C2)C(=C)C7)O

> <PUBCHEM_CACTVS_TPSA>
40.5

> <PUBCHEM_MONOISOTOPIC_WEIGHT>
311.188529

> <PUBCHEM_TOTAL_CHARGE>
0

> <PUBCHEM_HEAVY_ATOM_COUNT>
23

> <PUBCHEM_ATOM_DEF_STEREO_COUNT>
7

> <PUBCHEM_ATOM_UDEF_STEREO_COUNT>
2

> <PUBCHEM_BOND_DEF_STEREO_COUNT>
0

> <PUBCHEM_BOND_UDEF_STEREO_COUNT>
0

> <PUBCHEM_ISOTOPIC_ATOM_COUNT>
0

> <PUBCHEM_COMPONENT_COUNT>
1

> <PUBCHEM_CACTVS_TAUTO_COUNT>
1

> <PUBCHEM_COORDINATE_TYPE>
1
5
255

> <PUBCHEM_BONDANNOTATIONS>
9  1  5
10  27  3
11  22  6
17  38  6
4  14  5
5  24  3
6  25  6
7  12  6
8  26  6

$$$$

