656692
  -OEChem-07051213033D

 34 35  0     0  0  0  0  0  0999 V2000
    1.2088   -3.1533    0.6261 O   0  0  0  0  0  0  0  0  0  0  0  0
    4.5445    2.0856    0.3154 O   0  0  0  0  0  0  0  0  0  0  0  0
   -4.7917    1.7605    0.1627 O   0  0  0  0  0  0  0  0  0  0  0  0
   -0.0068   -1.1992   -0.2561 C   0  0  0  0  0  0  0  0  0  0  0  0
    1.1963   -0.3314   -0.1049 C   0  0  0  0  0  0  0  0  0  0  0  0
   -1.3383   -0.3760   -0.1399 C   0  0  0  0  0  0  0  0  0  0  0  0
    0.0423   -2.3557    0.8180 C   0  0  0  0  0  0  0  0  0  0  0  0
   -0.1321   -1.9534   -1.6379 C   0  0  0  0  0  0  0  0  0  0  0  0
    1.3911    0.3923    1.0715 C   0  0  0  0  0  0  0  0  0  0  0  0
   -1.5322    0.6182   -1.0431 C   0  0  0  0  0  0  0  0  0  0  0  0
    2.1266   -0.2426   -1.1405 C   0  0  0  0  0  0  0  0  0  0  0  0
   -2.1939   -0.7209    0.8559 C   0  0  0  0  0  0  0  0  0  0  0  0
    2.5163    1.2048    1.2123 C   0  0  0  0  0  0  0  0  0  0  0  0
   -2.7151    1.3502   -0.9389 C   0  0  0  0  0  0  0  0  0  0  0  0
    3.2516    0.5697   -0.9996 C   0  0  0  0  0  0  0  0  0  0  0  0
   -3.3767    0.0110    0.9599 C   0  0  0  0  0  0  0  0  0  0  0  0
    3.4466    1.2934    0.1767 C   0  0  0  0  0  0  0  0  0  0  0  0
   -3.6373    1.0465    0.0626 C   0  0  0  0  0  0  0  0  0  0  0  0
   -0.8138   -3.0337    0.7201 H   0  0  0  0  0  0  0  0  0  0  0  0
    0.0792   -1.9738    1.8445 H   0  0  0  0  0  0  0  0  0  0  0  0
    0.7098   -2.6344   -1.8091 H   0  0  0  0  0  0  0  0  0  0  0  0
   -1.0474   -2.5582   -1.6707 H   0  0  0  0  0  0  0  0  0  0  0  0
   -0.1731   -1.2681   -2.4924 H   0  0  0  0  0  0  0  0  0  0  0  0
    0.6794    0.3425    1.8909 H   0  0  0  0  0  0  0  0  0  0  0  0
   -0.8209    0.8697   -1.8214 H   0  0  0  0  0  0  0  0  0  0  0  0
    2.0241   -0.7838   -2.0746 H   0  0  0  0  0  0  0  0  0  0  0  0
   -2.0480   -1.5024    1.5873 H   0  0  0  0  0  0  0  0  0  0  0  0
    2.6561    1.7640    2.1335 H   0  0  0  0  0  0  0  0  0  0  0  0
   -2.9119    2.1568   -1.6399 H   0  0  0  0  0  0  0  0  0  0  0  0
    3.9735    0.6350   -1.8092 H   0  0  0  0  0  0  0  0  0  0  0  0
   -4.0869   -0.2332    1.7455 H   0  0  0  0  0  0  0  0  0  0  0  0
    1.1924   -3.8502    1.3041 H   0  0  0  0  0  0  0  0  0  0  0  0
    4.5180    2.5108    1.1898 H   0  0  0  0  0  0  0  0  0  0  0  0
   -5.3113    1.4160    0.9093 H   0  0  0  0  0  0  0  0  0  0  0  0
  1  7  1  0  0  0  0
  1 32  1  0  0  0  0
  2 17  1  0  0  0  0
  2 33  1  0  0  0  0
  3 18  1  0  0  0  0
  3 34  1  0  0  0  0
  4  5  1  0  0  0  0
  4  6  1  0  0  0  0
  4  7  1  0  0  0  0
  4  8  1  0  0  0  0
  5  9  2  0  0  0  0
  5 11  1  0  0  0  0
  6 10  2  0  0  0  0
  6 12  1  0  0  0  0
  7 19  1  0  0  0  0
  7 20  1  0  0  0  0
  8 21  1  0  0  0  0
  8 22  1  0  0  0  0
  8 23  1  0  0  0  0
  9 13  1  0  0  0  0
  9 24  1  0  0  0  0
 10 14  1  0  0  0  0
 10 25  1  0  0  0  0
 11 15  2  0  0  0  0
 11 26  1  0  0  0  0
 12 16  2  0  0  0  0
 12 27  1  0  0  0  0
 13 17  2  0  0  0  0
 13 28  1  0  0  0  0
 14 18  2  0  0  0  0
 14 29  1  0  0  0  0
 15 17  1  0  0  0  0
 15 30  1  0  0  0  0
 16 18  1  0  0  0  0
 16 31  1  0  0  0  0
M  END
> <PUBCHEM_COMPOUND_CID>
656692

> <PUBCHEM_CONFORMER_RMSD>
0.6

> <PUBCHEM_CONFORMER_DIVERSEORDER>
1
4
5
6
3
2

> <PUBCHEM_MMFF94_PARTIAL_CHARGES>
28
1 -0.68
10 -0.15
11 -0.15
12 -0.15
13 -0.15
14 -0.15
15 -0.15
16 -0.15
17 0.08
18 0.08
2 -0.53
24 0.15
25 0.15
26 0.15
27 0.15
28 0.15
29 0.15
3 -0.53
30 0.15
31 0.15
32 0.4
33 0.45
34 0.45
4 0.29
5 -0.14
6 -0.14
7 0.28
9 -0.15

> <PUBCHEM_EFFECTIVE_ROTOR_COUNT>
3

> <PUBCHEM_PHARMACOPHORE_FEATURES>
7
1 1 acceptor
1 1 donor
1 2 donor
1 3 donor
1 8 hydrophobe
6 5 9 11 13 15 17 rings
6 6 10 12 14 16 18 rings

> <PUBCHEM_HEAVY_ATOM_COUNT>
18

> <PUBCHEM_ATOM_DEF_STEREO_COUNT>
0

> <PUBCHEM_ATOM_UDEF_STEREO_COUNT>
0

> <PUBCHEM_BOND_DEF_STEREO_COUNT>
0

> <PUBCHEM_BOND_UDEF_STEREO_COUNT>
0

> <PUBCHEM_ISOTOPIC_ATOM_COUNT>
0

> <PUBCHEM_COMPONENT_COUNT>
1

> <PUBCHEM_CACTVS_TAUTO_COUNT>
3

> <PUBCHEM_CONFORMER_ID>
000A053400000001

> <PUBCHEM_MMFF94_ENERGY>
67.9266

> <PUBCHEM_FEATURE_SELFOVERLAP>
35.52

> <PUBCHEM_SHAPE_FINGERPRINT>
10498660 4 18409169917794266117
10618630 7 10591768692148462532
10922049 32 18409441475385164894
11132069 177 17918270948482145669
12173636 292 18054227635762658342
122479 349 18337670798284836524
12251169 10 16343705425941073077
12363563 72 9007062378465516384
12532896 13 18338237068263944862
12633257 1 16343701010751914857
12730499 353 18261662766801258915
13134695 92 17691148331509031439
13294875 104 18115042878057204130
13544653 18 11312059820319133810
13764800 53 18343014493541762945
13878862 14 17837785782997644821
14178342 30 17846483843221691555
14341114 328 16630516311149064373
14787075 74 18043810884265751745
15309172 13 18342459209877897133
15422964 175 11167952384749295257
15775835 57 18407763624846195869
16945 1 18129938971063709839
1813 80 10303536168586865210
18186145 218 17895462679080257980
18785283 64 18202002183288184666
19765921 60 18260835886037220619
19784866 9 18339365283168430586
200 152 5472871384744850008
20361792 2 9151175371823315259
20671657 1 18267022949862829411
21524375 3 18335143068007121478
21618674 25 18271807960464264489
21731228 192 18202286874825913994
22854114 111 18338801216191105023
231179 274 18334293184200007968
23175994 123 17834675276664264875
23382010 3 15574721269919430990
23402539 116 17977111153928459446
23402655 69 16950557792006673568
23403322 49 8934734287382284392
23419403 2 17540479860911181030
23559900 14 17630595933198137919
25 1 17968088724961656040
27216 239 18268149755933977161
2748010 2 17487054711714108655
276578 36 18343022207223723322
298252 57 17603586313770616942
305870 269 18342465845787239258
3060560 45 17531813579164416453
3082319 5 15285355115452056293
427121 178 18201143447368520107
474 4 18408886235172677745
495365 180 18195820780582652573
5104073 3 18057314193078743273
5895379 119 16593647732259991729
633830 44 18334294287959046124
6442390 28 18340195307020938995
7226269 152 18113908139556312888
7364860 26 18196654218332891826
7808743 9 18126561228731593372
81228 2 17834683686231232122
90316 7 16630530639497405709

> <PUBCHEM_SHAPE_MULTIPOLES>
352.82
7.01
2.41
1.32
1.18
1.52
-0.17
-6.27
0.61
-0.6
0.27
-0.16
0.22
0.5

> <PUBCHEM_SHAPE_SELFOVERLAP>
761.947

> <PUBCHEM_SHAPE_VOLUME>
193.4

> <PUBCHEM_COORDINATE_TYPE>
2
5
10

$$$$

