7846950
  -OEChem-06241222483D

 44 46  0     0  0  0  0  0  0999 V2000
   -3.9280    2.0790    0.1055 S   0  0  0  0  0  0  0  0  0  0  0  0
    3.1292    0.0436    1.8362 F   0  0  0  0  0  0  0  0  0  0  0  0
   -3.0036   -2.1010    1.0303 O   0  0  0  0  0  0  0  0  0  0  0  0
   -2.7162   -2.6960   -1.1801 O   0  0  0  0  0  0  0  0  0  0  0  0
   -0.7011   -0.6530    1.4806 O   0  0  0  0  0  0  0  0  0  0  0  0
    1.4030   -1.4894   -1.3963 O   0  0  0  0  0  0  0  0  0  0  0  0
   -2.1281    0.7380   -1.1652 N   0  0  0  0  0  0  0  0  0  0  0  0
    0.5308   -2.5592    0.9866 N   0  0  0  0  0  0  0  0  0  0  0  0
    1.7116   -1.8677    0.8677 N   0  0  0  0  0  0  0  0  0  0  0  0
   -4.4368   -0.1662   -1.4469 C   0  0  0  0  0  0  0  0  0  0  0  0
   -3.4140    0.8014   -0.9092 C   0  0  0  0  0  0  0  0  0  0  0  0
   -4.6320   -1.3571   -0.5073 C   0  0  0  0  0  0  0  0  0  0  0  0
   -2.2961    2.6204    0.2339 C   0  0  0  0  0  0  0  0  0  0  0  0
   -1.4734    1.7749   -0.5166 C   0  0  0  0  0  0  0  0  0  0  0  0
   -3.3493   -2.1297   -0.2998 C   0  0  0  0  0  0  0  0  0  0  0  0
   -1.7808    3.7145    0.9474 C   0  0  0  0  0  0  0  0  0  0  0  0
   -0.0864    2.0359   -0.5526 C   0  0  0  0  0  0  0  0  0  0  0  0
   -0.4047    3.9506    0.8949 C   0  0  0  0  0  0  0  0  0  0  0  0
    0.4333    3.1234    0.1553 C   0  0  0  0  0  0  0  0  0  0  0  0
   -1.8207   -2.7863    1.3828 C   0  0  0  0  0  0  0  0  0  0  0  0
    3.3663   -0.6476   -0.4246 C   0  0  0  0  0  0  0  0  0  0  0  0
   -0.6237   -1.8649    1.2958 C   0  0  0  0  0  0  0  0  0  0  0  0
    2.0670   -1.3668   -0.3701 C   0  0  0  0  0  0  0  0  0  0  0  0
    3.8387    0.0314    0.6987 C   0  0  0  0  0  0  0  0  0  0  0  0
    4.1143   -0.6531   -1.6020 C   0  0  0  0  0  0  0  0  0  0  0  0
    5.0591    0.7048    0.6443 C   0  0  0  0  0  0  0  0  0  0  0  0
    5.3346    0.0205   -1.6562 C   0  0  0  0  0  0  0  0  0  0  0  0
    5.8070    0.6995   -0.5331 C   0  0  0  0  0  0  0  0  0  0  0  0
   -4.0937   -0.5205   -2.4269 H   0  0  0  0  0  0  0  0  0  0  0  0
   -5.3975    0.3356   -1.6125 H   0  0  0  0  0  0  0  0  0  0  0  0
   -5.3744   -2.0510   -0.9169 H   0  0  0  0  0  0  0  0  0  0  0  0
   -5.0193   -1.0185    0.4614 H   0  0  0  0  0  0  0  0  0  0  0  0
   -2.4290    4.3645    1.5271 H   0  0  0  0  0  0  0  0  0  0  0  0
    0.5771    1.3975   -1.1285 H   0  0  0  0  0  0  0  0  0  0  0  0
    0.0147    4.7920    1.4402 H   0  0  0  0  0  0  0  0  0  0  0  0
    1.5013    3.3216    0.1265 H   0  0  0  0  0  0  0  0  0  0  0  0
   -1.9158   -3.1045    2.4266 H   0  0  0  0  0  0  0  0  0  0  0  0
   -1.6816   -3.6928    0.7825 H   0  0  0  0  0  0  0  0  0  0  0  0
    0.5742   -3.5634    0.8490 H   0  0  0  0  0  0  0  0  0  0  0  0
    3.7648   -1.1802   -2.4859 H   0  0  0  0  0  0  0  0  0  0  0  0
    2.2751   -1.7888    1.7075 H   0  0  0  0  0  0  0  0  0  0  0  0
    5.4267    1.2333    1.5189 H   0  0  0  0  0  0  0  0  0  0  0  0
    5.9176    0.0155   -2.5726 H   0  0  0  0  0  0  0  0  0  0  0  0
    6.7572    1.2237   -0.5753 H   0  0  0  0  0  0  0  0  0  0  0  0
  1 11  1  0  0  0  0
  1 13  1  0  0  0  0
  2 24  1  0  0  0  0
  3 15  1  0  0  0  0
  3 20  1  0  0  0  0
  4 15  2  0  0  0  0
  5 22  2  0  0  0  0
  6 23  2  0  0  0  0
  7 11  2  0  0  0  0
  7 14  1  0  0  0  0
  8  9  1  0  0  0  0
  8 22  1  0  0  0  0
  8 39  1  0  0  0  0
  9 23  1  0  0  0  0
  9 41  1  0  0  0  0
 10 11  1  0  0  0  0
 10 12  1  0  0  0  0
 10 29  1  0  0  0  0
 10 30  1  0  0  0  0
 12 15  1  0  0  0  0
 12 31  1  0  0  0  0
 12 32  1  0  0  0  0
 13 14  1  0  0  0  0
 13 16  2  0  0  0  0
 14 17  2  0  0  0  0
 16 18  1  0  0  0  0
 16 33  1  0  0  0  0
 17 19  1  0  0  0  0
 17 34  1  0  0  0  0
 18 19  2  0  0  0  0
 18 35  1  0  0  0  0
 19 36  1  0  0  0  0
 20 22  1  0  0  0  0
 20 37  1  0  0  0  0
 20 38  1  0  0  0  0
 21 23  1  0  0  0  0
 21 24  1  0  0  0  0
 21 25  2  0  0  0  0
 24 26  2  0  0  0  0
 25 27  1  0  0  0  0
 25 40  1  0  0  0  0
 26 28  1  0  0  0  0
 26 42  1  0  0  0  0
 27 28  2  0  0  0  0
 27 43  1  0  0  0  0
 28 44  1  0  0  0  0
M  END
> <PUBCHEM_COMPOUND_CID>
7846950

> <PUBCHEM_CONFORMER_RMSD>
1.4

> <PUBCHEM_CONFORMER_DIVERSEORDER>
1
25
67
30
40
3
69
31
50
70
22
18
23
39
8
4
60
68
53
61
47
58
15
11
66
16
52
56
20
36
2
41
44
27
28
12
57
35
48
17
21
49
24
6
14
9
34
7
54
46
32
33
5
42
43
19
55
29
63
13
71
59
45
62
64
26
38
72
10
51
37
65

> <PUBCHEM_MMFF94_PARTIAL_CHARGES>
38
1 -0.08
10 0.18
11 0.2
12 0.06
13 0.04
14 0.23
15 0.66
16 -0.15
17 -0.15
18 -0.15
19 -0.15
2 -0.19
20 0.34
21 0.09
22 0.57
23 0.54
24 0.19
25 -0.15
26 -0.15
27 -0.15
28 -0.15
3 -0.43
33 0.15
34 0.15
35 0.15
36 0.15
39 0.37
4 -0.57
40 0.15
41 0.37
42 0.15
43 0.15
44 0.15
5 -0.57
6 -0.57
7 -0.57
8 -0.43
9 -0.43

> <PUBCHEM_EFFECTIVE_ROTOR_COUNT>
10

> <PUBCHEM_PHARMACOPHORE_FEATURES>
9
1 4 acceptor
1 5 acceptor
1 6 acceptor
1 7 acceptor
1 8 donor
1 9 donor
5 1 7 11 13 14 rings
6 13 14 16 17 18 19 rings
6 21 24 25 26 27 28 rings

> <PUBCHEM_HEAVY_ATOM_COUNT>
28

> <PUBCHEM_ATOM_DEF_STEREO_COUNT>
0

> <PUBCHEM_ATOM_UDEF_STEREO_COUNT>
0

> <PUBCHEM_BOND_DEF_STEREO_COUNT>
0

> <PUBCHEM_BOND_UDEF_STEREO_COUNT>
0

> <PUBCHEM_ISOTOPIC_ATOM_COUNT>
0

> <PUBCHEM_COMPONENT_COUNT>
1

> <PUBCHEM_CACTVS_TAUTO_COUNT>
8

> <PUBCHEM_CONFORMER_ID>
0077BC2600000001

> <PUBCHEM_MMFF94_ENERGY>
51.6527

> <PUBCHEM_FEATURE_SELFOVERLAP>
47.28

> <PUBCHEM_SHAPE_FINGERPRINT>
10006869 2 18196368346090152035
10498660 4 18413107277575351522
10673678 19 17338456905238088029
108634 29 18411415107963908574
1100329 8 18411416211760499929
11578080 2 15648433719826935585
11646440 116 18340474570274004843
12788726 201 18412548733941916977
13402501 40 18265342715928618016
13583140 156 15123494909526695340
14081887 123 18337118954831830768
14123250 116 18195242441234012481
14363568 33 17476338527291507000
14787075 74 18412268324112165388
14790565 3 17759241087256152033
14931854 50 18342468062259247159
15629462 23 16808400976822899240
161222 10 18125417929690409956
17357779 13 18334573491224948738
17492 54 18201730578235633695
17818456 19 18199206133835533418
19319366 153 17916030238680519299
20642791 35 18337964402660459393
20764821 26 18269549447015542688
235170 7 17675921019261961454
23557571 272 18408879638012863630
23559900 14 18266189335429282613
3052486 1 18272371966868708480
354706 132 18340477972426745140
392239 28 18410293597202744128
469060 322 17345165901513925057
6287921 2 17762340618696655187

> <PUBCHEM_SHAPE_MULTIPOLES>
534.38
10.52
4.38
1.56
11.11
2.45
0.01
-0.87
-3.69
-4.37
1.55
0.43
-0.55
0

> <PUBCHEM_SHAPE_SELFOVERLAP>
1136.633

> <PUBCHEM_SHAPE_VOLUME>
299.6

> <PUBCHEM_COORDINATE_TYPE>
2
5
10

$$$$

