17395307
  -OEChem-06241222492D

 40 42  0     0  0  0  0  0  0999 V2000
    5.5981    1.4827    0.0000 S   0  0  0  0  0  0  0  0  0  0  0  0
    3.0000   -2.0173    0.0000 F   0  0  0  0  0  0  0  0  0  0  0  0
    2.0000   -1.0173    0.0000 F   0  0  0  0  0  0  0  0  0  0  0  0
    4.0000   -1.0173    0.0000 F   0  0  0  0  0  0  0  0  0  0  0  0
    8.1962   -1.0173    0.0000 O   0  0  0  0  0  0  0  0  0  0  0  0
    9.0622    0.4827    0.0000 N   0  0  0  0  0  0  0  0  0  0  0  0
    8.1962    1.9827    0.0000 N   0  0  0  0  0  0  0  0  0  0  0  0
    9.0622    1.4827    0.0000 C   0  0  0  0  0  0  0  0  0  0  0  0
    7.3301    1.4827    0.0000 C   0  0  0  0  0  0  0  0  0  0  0  0
    6.4641    1.9827    0.0000 C   0  0  0  0  0  0  0  0  0  0  0  0
    3.8660    1.4827    0.0000 C   0  0  0  0  0  0  0  0  0  0  0  0
    4.7320    1.9827    0.0000 C   0  0  0  0  0  0  0  0  0  0  0  0
    9.9561   -0.0520    0.0000 C   0  0  0  0  0  0  0  0  0  0  0  0
    8.1962   -0.0173    0.0000 C   0  0  0  0  0  0  0  0  0  0  0  0
   10.8622    0.4619    0.0000 C   0  0  0  0  0  0  0  0  0  0  0  0
    7.3301    0.4827    0.0000 C   0  0  0  0  0  0  0  0  0  0  0  0
    9.9561    2.0173    0.0000 C   0  0  0  0  0  0  0  0  0  0  0  0
   10.8622    1.5035    0.0000 C   0  0  0  0  0  0  0  0  0  0  0  0
    3.8660    0.4827    0.0000 C   0  0  0  0  0  0  0  0  0  0  0  0
    3.0000   -0.0173    0.0000 C   0  0  0  0  0  0  0  0  0  0  0  0
    3.0000    1.9827    0.0000 C   0  0  0  0  0  0  0  0  0  0  0  0
   11.7263   -0.0415    0.0000 C   0  0  0  0  0  0  0  0  0  0  0  0
    2.1340    0.4827    0.0000 C   0  0  0  0  0  0  0  0  0  0  0  0
    2.1340    1.4827    0.0000 C   0  0  0  0  0  0  0  0  0  0  0  0
    3.0000   -1.0173    0.0000 C   0  0  0  0  0  0  0  0  0  0  0  0
    6.8626    2.4576    0.0000 H   0  0  0  0  0  0  0  0  0  0  0  0
    6.0656    2.4576    0.0000 H   0  0  0  0  0  0  0  0  0  0  0  0
    5.1306    2.4576    0.0000 H   0  0  0  0  0  0  0  0  0  0  0  0
    4.3335    2.4576    0.0000 H   0  0  0  0  0  0  0  0  0  0  0  0
    9.9490   -0.6720    0.0000 H   0  0  0  0  0  0  0  0  0  0  0  0
    6.7932    0.1727    0.0000 H   0  0  0  0  0  0  0  0  0  0  0  0
    9.9490    2.6373    0.0000 H   0  0  0  0  0  0  0  0  0  0  0  0
   11.3979    1.8156    0.0000 H   0  0  0  0  0  0  0  0  0  0  0  0
    4.4030    0.1727    0.0000 H   0  0  0  0  0  0  0  0  0  0  0  0
    3.0000    2.6027    0.0000 H   0  0  0  0  0  0  0  0  0  0  0  0
   11.4142   -0.5772    0.0000 H   0  0  0  0  0  0  0  0  0  0  0  0
   12.2620   -0.3535    0.0000 H   0  0  0  0  0  0  0  0  0  0  0  0
   12.0383    0.4943    0.0000 H   0  0  0  0  0  0  0  0  0  0  0  0
    1.5970    0.1727    0.0000 H   0  0  0  0  0  0  0  0  0  0  0  0
    1.5970    1.7927    0.0000 H   0  0  0  0  0  0  0  0  0  0  0  0
  1 10  1  0  0  0  0
  1 12  1  0  0  0  0
  2 25  1  0  0  0  0
  3 25  1  0  0  0  0
  4 25  1  0  0  0  0
  5 14  2  0  0  0  0
  6  8  1  0  0  0  0
  6 13  1  0  0  0  0
  6 14  1  0  0  0  0
  7  8  2  0  0  0  0
  7  9  1  0  0  0  0
  8 17  1  0  0  0  0
  9 10  1  0  0  0  0
  9 16  2  0  0  0  0
 10 26  1  0  0  0  0
 10 27  1  0  0  0  0
 11 12  1  0  0  0  0
 11 19  2  0  0  0  0
 11 21  1  0  0  0  0
 12 28  1  0  0  0  0
 12 29  1  0  0  0  0
 13 15  2  0  0  0  0
 13 30  1  0  0  0  0
 14 16  1  0  0  0  0
 15 18  1  0  0  0  0
 15 22  1  0  0  0  0
 16 31  1  0  0  0  0
 17 18  2  0  0  0  0
 17 32  1  0  0  0  0
 18 33  1  0  0  0  0
 19 20  1  0  0  0  0
 19 34  1  0  0  0  0
 20 23  2  0  0  0  0
 20 25  1  0  0  0  0
 21 24  2  0  0  0  0
 21 35  1  0  0  0  0
 22 36  1  0  0  0  0
 22 37  1  0  0  0  0
 22 38  1  0  0  0  0
 23 24  1  0  0  0  0
 23 39  1  0  0  0  0
 24 40  1  0  0  0  0
M  END
> <PUBCHEM_COMPOUND_CID>
17395307

> <PUBCHEM_COMPOUND_CANONICALIZED>
1

> <PUBCHEM_CACTVS_COMPLEXITY>
664

> <PUBCHEM_CACTVS_HBOND_ACCEPTOR>
6

> <PUBCHEM_CACTVS_HBOND_DONOR>
0

> <PUBCHEM_CACTVS_ROTATABLE_BOND>
4

> <PUBCHEM_CACTVS_SUBSKEYS>
AAADccB7IYBAAAAAAAAAAAAAAAAAAAAAAAAwQIAAAAAAAACBAAAAHwQAAAAADAjF2BSzAIMAAAioAid2dACCAAEgAhAJiAAYANgIICKgGRCAIAAghgCoiUcAgEAOAAACAAAAAAAAAAQAAAAAAAAAAAAAAA==

> <PUBCHEM_IUPAC_OPENEYE_NAME>
7-methyl-2-[[3-(trifluoromethyl)phenyl]methylsulfanylmethyl]pyrido[1,2-a]pyrimidin-4-one

> <PUBCHEM_IUPAC_CAS_NAME>
7-methyl-2-[[[3-(trifluoromethyl)phenyl]methylthio]methyl]-4-pyrido[1,2-a]pyrimidinone

> <PUBCHEM_IUPAC_NAME>
7-methyl-2-[[3-(trifluoromethyl)phenyl]methylsulfanylmethyl]pyrido[1,2-a]pyrimidin-4-one

> <PUBCHEM_IUPAC_SYSTEMATIC_NAME>
7-methyl-2-[[3-(trifluoromethyl)phenyl]methylsulfanylmethyl]pyrido[1,2-a]pyrimidin-4-one

> <PUBCHEM_IUPAC_TRADITIONAL_NAME>
7-methyl-2-[[[3-(trifluoromethyl)benzyl]thio]methyl]pyrido[1,2-a]pyrimidin-4-one

> <PUBCHEM_IUPAC_INCHI>
InChI=1S/C18H15F3N2OS/c1-12-5-6-16-22-15(8-17(24)23(16)9-12)11-25-10-13-3-2-4-14(7-13)18(19,20)21/h2-9H,10-11H2,1H3

> <PUBCHEM_IUPAC_INCHIKEY>
CTZHGPFWGZJFDR-UHFFFAOYSA-N

> <PUBCHEM_XLOGP3_AA>
2.9

> <PUBCHEM_EXACT_MASS>
364.085719

> <PUBCHEM_MOLECULAR_FORMULA>
C18H15F3N2OS

> <PUBCHEM_MOLECULAR_WEIGHT>
364.38471

> <PUBCHEM_OPENEYE_CAN_SMILES>
CC1=CN2C(=NC(=CC2=O)CSCC3=CC(=CC=C3)C(F)(F)F)C=C1

> <PUBCHEM_OPENEYE_ISO_SMILES>
CC1=CN2C(=NC(=CC2=O)CSCC3=CC(=CC=C3)C(F)(F)F)C=C1

> <PUBCHEM_CACTVS_TPSA>
58

> <PUBCHEM_MONOISOTOPIC_WEIGHT>
364.085719

> <PUBCHEM_TOTAL_CHARGE>
0

> <PUBCHEM_HEAVY_ATOM_COUNT>
25

> <PUBCHEM_ATOM_DEF_STEREO_COUNT>
0

> <PUBCHEM_ATOM_UDEF_STEREO_COUNT>
0

> <PUBCHEM_BOND_DEF_STEREO_COUNT>
0

> <PUBCHEM_BOND_UDEF_STEREO_COUNT>
0

> <PUBCHEM_ISOTOPIC_ATOM_COUNT>
0

> <PUBCHEM_COMPONENT_COUNT>
1

> <PUBCHEM_CACTVS_TAUTO_COUNT>
1

> <PUBCHEM_COORDINATE_TYPE>
1
5
255

> <PUBCHEM_BONDANNOTATIONS>
11  19  8
11  21  8
13  15  8
14  16  8
15  18  8
17  18  8
19  20  8
20  23  8
21  24  8
23  24  8
6  13  8
6  14  8
6  8  8
7  8  8
7  9  8
8  17  8
9  16  8

$$$$

