7750
  -OEChem-06261202173D

 15 14  0     0  0  0  0  0  0999 V2000
   -0.6853    0.6682   -0.2352 O   0  0  0  0  0  0  0  0  0  0  0  0
    0.4647   -1.3456   -0.0600 O   0  0  0  0  0  0  0  0  0  0  0  0
    1.6378    0.7794    0.0278 C   0  0  0  0  0  0  0  0  0  0  0  0
    2.9230   -0.0073    0.2178 C   0  0  0  0  0  0  0  0  0  0  0  0
    0.4293   -0.1225   -0.0939 C   0  0  0  0  0  0  0  0  0  0  0  0
   -1.8677   -0.0373   -0.3471 C   0  0  0  0  0  0  0  0  0  0  0  0
   -2.9018    0.0651    0.4905 C   0  0  0  0  0  0  0  0  0  0  0  0
    1.7129    1.3825   -0.8832 H   0  0  0  0  0  0  0  0  0  0  0  0
    1.4904    1.4427    0.8867 H   0  0  0  0  0  0  0  0  0  0  0  0
    3.1027   -0.6775   -0.6293 H   0  0  0  0  0  0  0  0  0  0  0  0
    2.8792   -0.6188    1.1251 H   0  0  0  0  0  0  0  0  0  0  0  0
    3.7766    0.6721    0.3038 H   0  0  0  0  0  0  0  0  0  0  0  0
   -1.8739   -0.6860   -1.2132 H   0  0  0  0  0  0  0  0  0  0  0  0
   -3.8010   -0.5189    0.3303 H   0  0  0  0  0  0  0  0  0  0  0  0
   -2.8645    0.7309    1.3453 H   0  0  0  0  0  0  0  0  0  0  0  0
  1  5  1  0  0  0  0
  1  6  1  0  0  0  0
  2  5  2  0  0  0  0
  3  4  1  0  0  0  0
  3  5  1  0  0  0  0
  3  8  1  0  0  0  0
  3  9  1  0  0  0  0
  4 10  1  0  0  0  0
  4 11  1  0  0  0  0
  4 12  1  0  0  0  0
  6  7  2  0  0  0  0
  6 13  1  0  0  0  0
  7 14  1  0  0  0  0
  7 15  1  0  0  0  0
M  END
> <PUBCHEM_COMPOUND_CID>
7750

> <PUBCHEM_CONFORMER_RMSD>
0.4

> <PUBCHEM_CONFORMER_DIVERSEORDER>
1
32
33
8
28
39
38
26
31
14
36
7
19
16
2
23
20
17
18
25
10
9
37
13
27
29
12
5
21
35
15
3
11
6
4
24
22
34
30

> <PUBCHEM_MMFF94_PARTIAL_CHARGES>
9
1 -0.23
13 0.15
14 0.15
15 0.15
2 -0.57
3 0.06
5 0.66
6 -0.07
7 -0.3

> <PUBCHEM_EFFECTIVE_ROTOR_COUNT>
3

> <PUBCHEM_PHARMACOPHORE_FEATURES>
2
1 2 acceptor
1 4 hydrophobe

> <PUBCHEM_HEAVY_ATOM_COUNT>
7

> <PUBCHEM_ATOM_DEF_STEREO_COUNT>
0

> <PUBCHEM_ATOM_UDEF_STEREO_COUNT>
0

> <PUBCHEM_BOND_DEF_STEREO_COUNT>
0

> <PUBCHEM_BOND_UDEF_STEREO_COUNT>
0

> <PUBCHEM_ISOTOPIC_ATOM_COUNT>
0

> <PUBCHEM_COMPONENT_COUNT>
1

> <PUBCHEM_CACTVS_TAUTO_COUNT>
1

> <PUBCHEM_CONFORMER_ID>
00001E4600000001

> <PUBCHEM_MMFF94_ENERGY>
10.358

> <PUBCHEM_FEATURE_SELFOVERLAP>
10.148

> <PUBCHEM_SHAPE_FINGERPRINT>
10857977 72 18130791114139626649
11062470 55 12031791357279995463
14325111 11 18409730634095102912
14390081 3 17385444327858927449
16714656 1 18341334413825115988
20096714 4 18336270050409142460
21040471 1 18337391530805057110
29004967 10 18201432597346286921
5460574 1 8718830894212008388

> <PUBCHEM_SHAPE_MULTIPOLES>
132.32
4.29
0.94
0.66
0.35
0.17
0.02
-0.3
0.69
-0.2
-0.02
0.12
-0.02
-0.01

> <PUBCHEM_SHAPE_SELFOVERLAP>
240.779

> <PUBCHEM_SHAPE_VOLUME>
84.9

> <PUBCHEM_COORDINATE_TYPE>
2
5
10

$$$$

