9925873
  -OEChem-07051213093D

 40 44  0     1  0  0  0  0  0999 V2000
    1.3843    0.8988    1.2129 O   0  0  0  0  0  0  0  0  0  0  0  0
    1.6352    3.0641   -0.2280 O   0  0  0  0  0  0  0  0  0  0  0  0
    3.5440   -0.9454    0.6118 O   0  0  0  0  0  0  0  0  0  0  0  0
   -3.4838   -0.9097    0.4453 N   0  0  0  0  0  0  0  0  0  0  0  0
   -0.9623    0.5297    0.6730 C   0  0  2  0  0  0  0  0  0  0  0  0
   -1.9938    0.8510   -0.4183 C   0  0  2  0  0  0  0  0  0  0  0  0
    0.1111    1.5983    0.9853 C   0  0  2  0  0  0  0  0  0  0  0  0
   -2.7243   -0.4835   -0.7482 C   0  0  1  0  0  0  0  0  0  0  0  0
   -0.0462   -0.5310    0.1554 C   0  0  0  0  0  0  0  0  0  0  0  0
   -1.6990    0.0342    1.9330 C   0  0  0  0  0  0  0  0  0  0  0  0
   -1.7785   -1.6111   -1.2711 C   0  0  0  0  0  0  0  0  0  0  0  0
   -0.3886   -1.5693   -0.6938 C   0  0  0  0  0  0  0  0  0  0  0  0
   -2.6590   -1.1263    1.6347 C   0  0  0  0  0  0  0  0  0  0  0  0
    0.2654    2.6895   -0.1061 C   0  0  2  0  0  0  0  0  0  0  0  0
   -1.3547    1.5246   -1.6054 C   0  0  0  0  0  0  0  0  0  0  0  0
    1.2510   -0.2899    0.5479 C   0  0  0  0  0  0  0  0  0  0  0  0
   -0.3076    2.3497   -1.4563 C   0  0  0  0  0  0  0  0  0  0  0  0
    0.6239   -2.4623   -1.0485 C   0  0  0  0  0  0  0  0  0  0  0  0
    2.2653   -1.1612    0.2163 C   0  0  0  0  0  0  0  0  0  0  0  0
    1.9381   -2.2676   -0.5784 C   0  0  0  0  0  0  0  0  0  0  0  0
    4.3795   -0.1826   -0.2614 C   0  0  0  0  0  0  0  0  0  0  0  0
   -2.7375    1.5632   -0.0302 H   0  0  0  0  0  0  0  0  0  0  0  0
   -0.1156    2.1078    1.9308 H   0  0  0  0  0  0  0  0  0  0  0  0
   -3.4728   -0.2944   -1.5286 H   0  0  0  0  0  0  0  0  0  0  0  0
   -2.2751    0.8682    2.3558 H   0  0  0  0  0  0  0  0  0  0  0  0
   -0.9912   -0.2824    2.7098 H   0  0  0  0  0  0  0  0  0  0  0  0
   -1.6837   -1.4885   -2.3582 H   0  0  0  0  0  0  0  0  0  0  0  0
   -2.2239   -2.5991   -1.1019 H   0  0  0  0  0  0  0  0  0  0  0  0
   -2.0978   -2.0625    1.5345 H   0  0  0  0  0  0  0  0  0  0  0  0
   -3.3210   -1.2659    2.4970 H   0  0  0  0  0  0  0  0  0  0  0  0
   -0.2679    3.5868    0.2320 H   0  0  0  0  0  0  0  0  0  0  0  0
   -4.0021   -1.7624    0.2354 H   0  0  0  0  0  0  0  0  0  0  0  0
   -1.7787    1.3687   -2.5925 H   0  0  0  0  0  0  0  0  0  0  0  0
    0.0970    2.8525   -2.3300 H   0  0  0  0  0  0  0  0  0  0  0  0
    0.4127   -3.2981   -1.7101 H   0  0  0  0  0  0  0  0  0  0  0  0
    2.7126   -2.9727   -0.8714 H   0  0  0  0  0  0  0  0  0  0  0  0
    2.1278    2.2849   -0.5370 H   0  0  0  0  0  0  0  0  0  0  0  0
    5.3764   -0.1247    0.1840 H   0  0  0  0  0  0  0  0  0  0  0  0
    3.9875    0.8323   -0.3763 H   0  0  0  0  0  0  0  0  0  0  0  0
    4.4593   -0.6691   -1.2386 H   0  0  0  0  0  0  0  0  0  0  0  0
  1  7  1  0  0  0  0
  1 16  1  0  0  0  0
  2 14  1  0  0  0  0
  2 37  1  0  0  0  0
  3 19  1  0  0  0  0
  3 21  1  0  0  0  0
  4  8  1  0  0  0  0
  4 13  1  0  0  0  0
  4 32  1  0  0  0  0
  5  6  1  0  0  0  0
  5  7  1  0  0  0  0
  5  9  1  0  0  0  0
  5 10  1  0  0  0  0
  6  8  1  0  0  0  0
  6 15  1  0  0  0  0
  6 22  1  0  0  0  0
  7 14  1  0  0  0  0
  7 23  1  0  0  0  0
  8 11  1  0  0  0  0
  8 24  1  0  0  0  0
  9 12  2  0  0  0  0
  9 16  1  0  0  0  0
 10 13  1  0  0  0  0
 10 25  1  0  0  0  0
 10 26  1  0  0  0  0
 11 12  1  0  0  0  0
 11 27  1  0  0  0  0
 11 28  1  0  0  0  0
 12 18  1  0  0  0  0
 13 29  1  0  0  0  0
 13 30  1  0  0  0  0
 14 17  1  0  0  0  0
 14 31  1  0  0  0  0
 15 17  2  0  0  0  0
 15 33  1  0  0  0  0
 16 19  2  0  0  0  0
 17 34  1  0  0  0  0
 18 20  2  0  0  0  0
 18 35  1  0  0  0  0
 19 20  1  0  0  0  0
 20 36  1  0  0  0  0
 21 38  1  0  0  0  0
 21 39  1  0  0  0  0
 21 40  1  0  0  0  0
M  END
> <PUBCHEM_COMPOUND_CID>
9925873

> <PUBCHEM_CONFORMER_RMSD>
0.6

> <PUBCHEM_CONFORMER_DIVERSEORDER>
1

> <PUBCHEM_MMFF94_PARTIAL_CHARGES>
26
1 -0.36
11 0.14
12 -0.14
13 0.27
14 0.42
15 -0.29
16 0.08
17 -0.29
18 -0.15
19 0.08
2 -0.68
20 -0.15
21 0.28
3 -0.36
32 0.36
33 0.15
34 0.15
35 0.15
36 0.15
37 0.4
4 -0.9
5 0.14
6 0.14
7 0.28
8 0.27
9 -0.14

> <PUBCHEM_EFFECTIVE_ROTOR_COUNT>
2.2

> <PUBCHEM_PHARMACOPHORE_FEATURES>
11
1 1 acceptor
1 2 acceptor
1 2 donor
1 3 acceptor
1 4 cation
1 4 donor
5 1 5 7 9 16 rings
6 4 5 6 8 10 13 rings
6 5 6 7 14 15 17 rings
6 5 6 8 9 11 12 rings
6 9 12 16 18 19 20 rings

> <PUBCHEM_HEAVY_ATOM_COUNT>
21

> <PUBCHEM_ATOM_DEF_STEREO_COUNT>
5

> <PUBCHEM_ATOM_UDEF_STEREO_COUNT>
0

> <PUBCHEM_BOND_DEF_STEREO_COUNT>
0

> <PUBCHEM_BOND_UDEF_STEREO_COUNT>
0

> <PUBCHEM_ISOTOPIC_ATOM_COUNT>
0

> <PUBCHEM_COMPONENT_COUNT>
1

> <PUBCHEM_CACTVS_TAUTO_COUNT>
1

> <PUBCHEM_CONFORMER_ID>
009774F100000001

> <PUBCHEM_MMFF94_ENERGY>
80.913

> <PUBCHEM_FEATURE_SELFOVERLAP>
57.991

> <PUBCHEM_SHAPE_FINGERPRINT>
10863032 1 17607255538896874341
10948715 1 17624704848348446149
11961588 58 17273161165338192909
12035758 1 18269839868936742985
12403814 3 18411704304854116922
12423570 1 12747639436641656369
12592029 89 17767673963087503881
13024252 1 16916498293590815731
13027679 85 18113908151644408193
13140716 1 18116722802675071242
13172582 1 18333730195581311970
13299463 15 17755603854960194492
141345 1 12128174542565990173
14142880 1 18116714212682249240
14181834 199 18266171730315261623
144361 1 18195265329151695193
14614273 12 18191311678691037782
14817 1 9284406606302576545
14955137 171 18044064926838313730
15309172 13 18040434425342944514
16945 1 17822870752403442787
17357779 13 18264508289581825895
17492 54 18269843004051521902
19868273 325 18340768246772352350
21029758 27 18412539882141076062
21524375 3 16541574968683992516
21623110 236 18044103350206704576
2334 1 17829624859117533582
23419403 2 17487886814103311249
23493267 7 17985272013029379274
23557571 272 18199457947582798934
23559900 14 17914912052503109866
25 1 15671529278936806620
2748010 2 18191894329633000464
576247 118 18128231528453409027
5845 1 17980449533391593233
81228 2 17839720892647815633

> <PUBCHEM_SHAPE_MULTIPOLES>
409.58
4.57
2.94
1.54
3.28
1.44
0.18
-1.76
0.55
0.61
-1.02
-0.91
0.06
0.45

> <PUBCHEM_SHAPE_SELFOVERLAP>
928.105

> <PUBCHEM_SHAPE_VOLUME>
211.8

> <PUBCHEM_COORDINATE_TYPE>
2
5
10

$$$$

