441808
  -OEChem-07051212563D

 68 72  0     1  0  0  0  0  0999 V2000
   -0.8512   -2.2053    1.7253 O   0  0  0  0  0  0  0  0  0  0  0  0
   -0.1768    2.1641    0.1332 O   0  0  0  0  0  0  0  0  0  0  0  0
    1.5605   -3.0602    0.4354 O   0  0  0  0  0  0  0  0  0  0  0  0
   -0.9743   -2.2909   -1.9583 O   0  0  0  0  0  0  0  0  0  0  0  0
   -2.9659    0.3485   -1.2091 O   0  0  0  0  0  0  0  0  0  0  0  0
    3.8221   -1.9088   -1.2759 O   0  0  0  0  0  0  0  0  0  0  0  0
   -1.8780    2.8072   -1.1955 O   0  0  0  0  0  0  0  0  0  0  0  0
    5.9723   -0.3665   -1.5215 O   0  0  0  0  0  0  0  0  0  0  0  0
   -3.5693    1.3149    0.7968 O   0  0  0  0  0  0  0  0  0  0  0  0
    0.1278   -0.1826    0.9013 C   0  0  2  0  0  0  0  0  0  0  0  0
    1.1875   -0.6982   -0.1539 C   0  0  1  0  0  0  0  0  0  0  0  0
   -1.3053   -0.3612    0.3949 C   0  0  2  0  0  0  0  0  0  0  0  0
    2.6916   -0.2380    0.1458 C   0  0  2  0  0  0  0  0  0  0  0  0
   -1.4092   -1.8838    0.4219 C   0  0  1  0  0  0  0  0  0  0  0  0
    0.2926    1.3027    1.2197 C   0  0  1  0  0  0  0  0  0  0  0  0
    0.9602   -2.1974   -0.5241 C   0  0  2  0  0  0  0  0  0  0  0  0
    0.0155   -1.1111    2.1228 C   0  0  0  0  0  0  0  0  0  0  0  0
    2.6703    1.3281    0.3313 C   0  0  1  0  0  0  0  0  0  0  0  0
   -0.5305   -2.5822   -0.6373 C   0  0  2  0  0  0  0  0  0  0  0  0
    1.7350    1.7269    1.4939 C   0  0  0  0  0  0  0  0  0  0  0  0
   -1.5962    0.4434   -0.8525 C   0  0  2  0  0  0  0  0  0  0  0  0
    3.6004   -0.5180   -1.0921 C   0  0  1  0  0  0  0  0  0  0  0  0
    3.3280   -0.9168    1.3895 C   0  0  0  0  0  0  0  0  0  0  0  0
   -2.8496   -2.3891    0.3958 C   0  0  0  0  0  0  0  0  0  0  0  0
    4.0642    1.9466    0.3898 C   0  0  0  0  0  0  0  0  0  0  0  0
   -1.2649    1.9035   -0.6328 C   0  0  0  0  0  0  0  0  0  0  0  0
    4.9785    0.1192   -0.9826 C   0  0  0  0  0  0  0  0  0  0  0  0
    5.1172    1.3835   -0.2237 C   0  0  0  0  0  0  0  0  0  0  0  0
    4.2431    3.2670    1.0881 C   0  0  0  0  0  0  0  0  0  0  0  0
   -3.8610    0.8251   -0.2867 C   0  0  0  0  0  0  0  0  0  0  0  0
   -5.2810    0.6307   -0.7906 C   0  0  1  0  0  0  0  0  0  0  0  0
   -6.2603    0.3878    0.3669 C   0  0  0  0  0  0  0  0  0  0  0  0
   -5.6804    1.8673   -1.5909 C   0  0  0  0  0  0  0  0  0  0  0  0
   -5.9132   -0.8561    1.1749 C   0  0  0  0  0  0  0  0  0  0  0  0
    0.9515   -0.1656   -1.0855 H   0  0  0  0  0  0  0  0  0  0  0  0
   -1.9475   -0.0143    1.2126 H   0  0  0  0  0  0  0  0  0  0  0  0
   -0.3133    1.5809    2.0912 H   0  0  0  0  0  0  0  0  0  0  0  0
    1.4494   -2.4038   -1.4811 H   0  0  0  0  0  0  0  0  0  0  0  0
    0.9503   -1.5263    2.4925 H   0  0  0  0  0  0  0  0  0  0  0  0
   -0.4722   -0.6138    2.9697 H   0  0  0  0  0  0  0  0  0  0  0  0
    2.2311    1.7619   -0.5810 H   0  0  0  0  0  0  0  0  0  0  0  0
   -0.6217   -3.6682   -0.5025 H   0  0  0  0  0  0  0  0  0  0  0  0
    2.0816    1.3152    2.4468 H   0  0  0  0  0  0  0  0  0  0  0  0
    1.7360    2.8177    1.6091 H   0  0  0  0  0  0  0  0  0  0  0  0
   -1.0205    0.1237   -1.7225 H   0  0  0  0  0  0  0  0  0  0  0  0
    3.1368   -0.1307   -2.0069 H   0  0  0  0  0  0  0  0  0  0  0  0
    3.3793   -2.0032    1.3128 H   0  0  0  0  0  0  0  0  0  0  0  0
    4.3592   -0.5876    1.5555 H   0  0  0  0  0  0  0  0  0  0  0  0
    2.7994   -0.6819    2.3133 H   0  0  0  0  0  0  0  0  0  0  0  0
   -3.3751   -2.1171   -0.5223 H   0  0  0  0  0  0  0  0  0  0  0  0
   -2.8710   -3.4818    0.4838 H   0  0  0  0  0  0  0  0  0  0  0  0
   -3.3947   -2.0160    1.2643 H   0  0  0  0  0  0  0  0  0  0  0  0
    0.9190   -3.2603    1.1358 H   0  0  0  0  0  0  0  0  0  0  0  0
   -0.4452   -2.8261   -2.5739 H   0  0  0  0  0  0  0  0  0  0  0  0
    6.1040    1.8336   -0.2005 H   0  0  0  0  0  0  0  0  0  0  0  0
    4.3681   -2.2398   -0.5439 H   0  0  0  0  0  0  0  0  0  0  0  0
    4.0508    3.1654    2.1609 H   0  0  0  0  0  0  0  0  0  0  0  0
    3.5609    4.0148    0.6708 H   0  0  0  0  0  0  0  0  0  0  0  0
    5.2599    3.6599    0.9776 H   0  0  0  0  0  0  0  0  0  0  0  0
   -5.2987   -0.2492   -1.4462 H   0  0  0  0  0  0  0  0  0  0  0  0
   -6.2887    1.2536    1.0399 H   0  0  0  0  0  0  0  0  0  0  0  0
   -7.2718    0.2684   -0.0404 H   0  0  0  0  0  0  0  0  0  0  0  0
   -4.9908    2.0315   -2.4261 H   0  0  0  0  0  0  0  0  0  0  0  0
   -6.6890    1.7574   -2.0022 H   0  0  0  0  0  0  0  0  0  0  0  0
   -5.6609    2.7684   -0.9676 H   0  0  0  0  0  0  0  0  0  0  0  0
   -5.7666   -1.7252    0.5275 H   0  0  0  0  0  0  0  0  0  0  0  0
   -6.7318   -1.0878    1.8647 H   0  0  0  0  0  0  0  0  0  0  0  0
   -5.0210   -0.6947    1.7838 H   0  0  0  0  0  0  0  0  0  0  0  0
  1 14  1  0  0  0  0
  1 17  1  0  0  0  0
  2 15  1  0  0  0  0
  2 26  1  0  0  0  0
  3 16  1  0  0  0  0
  3 53  1  0  0  0  0
  4 19  1  0  0  0  0
  4 54  1  0  0  0  0
  5 21  1  0  0  0  0
  5 30  1  0  0  0  0
  6 22  1  0  0  0  0
  6 56  1  0  0  0  0
  7 26  2  0  0  0  0
  8 27  2  0  0  0  0
  9 30  2  0  0  0  0
 10 11  1  0  0  0  0
 10 12  1  0  0  0  0
 10 15  1  0  0  0  0
 10 17  1  0  0  0  0
 11 13  1  0  0  0  0
 11 16  1  0  0  0  0
 11 35  1  0  0  0  0
 12 14  1  0  0  0  0
 12 21  1  0  0  0  0
 12 36  1  0  0  0  0
 13 18  1  0  0  0  0
 13 22  1  0  0  0  0
 13 23  1  0  0  0  0
 14 19  1  0  0  0  0
 14 24  1  0  0  0  0
 15 20  1  0  0  0  0
 15 37  1  0  0  0  0
 16 19  1  0  0  0  0
 16 38  1  0  0  0  0
 17 39  1  0  0  0  0
 17 40  1  0  0  0  0
 18 20  1  0  0  0  0
 18 25  1  0  0  0  0
 18 41  1  0  0  0  0
 19 42  1  0  0  0  0
 20 43  1  0  0  0  0
 20 44  1  0  0  0  0
 21 26  1  0  0  0  0
 21 45  1  0  0  0  0
 22 27  1  0  0  0  0
 22 46  1  0  0  0  0
 23 47  1  0  0  0  0
 23 48  1  0  0  0  0
 23 49  1  0  0  0  0
 24 50  1  0  0  0  0
 24 51  1  0  0  0  0
 24 52  1  0  0  0  0
 25 28  2  0  0  0  0
 25 29  1  0  0  0  0
 27 28  1  0  0  0  0
 28 55  1  0  0  0  0
 29 57  1  0  0  0  0
 29 58  1  0  0  0  0
 29 59  1  0  0  0  0
 30 31  1  0  0  0  0
 31 32  1  0  0  0  0
 31 33  1  0  0  0  0
 31 60  1  0  0  0  0
 32 34  1  0  0  0  0
 32 61  1  0  0  0  0
 32 62  1  0  0  0  0
 33 63  1  0  0  0  0
 33 64  1  0  0  0  0
 33 65  1  0  0  0  0
 34 66  1  0  0  0  0
 34 67  1  0  0  0  0
 34 68  1  0  0  0  0
M  END
> <PUBCHEM_COMPOUND_CID>
441808

> <PUBCHEM_CONFORMER_RMSD>
0.8

> <PUBCHEM_CONFORMER_DIVERSEORDER>
1
8
6
2
4
3
7
5

> <PUBCHEM_MMFF94_PARTIAL_CHARGES>
28
1 -0.56
14 0.28
15 0.28
16 0.28
17 0.28
18 0.14
19 0.28
2 -0.43
21 0.34
22 0.34
25 -0.28
26 0.66
27 0.49
28 -0.14
29 0.14
3 -0.68
30 0.66
31 0.06
4 -0.68
5 -0.43
53 0.4
54 0.4
55 0.15
56 0.4
6 -0.68
7 -0.57
8 -0.57
9 -0.57

> <PUBCHEM_EFFECTIVE_ROTOR_COUNT>
5.6

> <PUBCHEM_PHARMACOPHORE_FEATURES>
16
1 1 acceptor
1 3 acceptor
1 3 donor
1 33 hydrophobe
1 34 hydrophobe
1 4 acceptor
1 4 donor
1 6 acceptor
1 6 donor
1 7 acceptor
1 8 acceptor
1 9 acceptor
6 10 11 13 15 18 20 rings
6 13 18 22 25 27 28 rings
6 2 10 12 15 21 26 rings
8 1 10 11 12 14 16 17 19 rings

> <PUBCHEM_HEAVY_ATOM_COUNT>
34

> <PUBCHEM_ATOM_DEF_STEREO_COUNT>
12

> <PUBCHEM_ATOM_UDEF_STEREO_COUNT>
0

> <PUBCHEM_BOND_DEF_STEREO_COUNT>
0

> <PUBCHEM_BOND_UDEF_STEREO_COUNT>
0

> <PUBCHEM_ISOTOPIC_ATOM_COUNT>
0

> <PUBCHEM_COMPONENT_COUNT>
1

> <PUBCHEM_CACTVS_TAUTO_COUNT>
13

> <PUBCHEM_CONFORMER_ID>
0006BDD000000001

> <PUBCHEM_MMFF94_ENERGY>
137.9075

> <PUBCHEM_FEATURE_SELFOVERLAP>
81.36

> <PUBCHEM_SHAPE_FINGERPRINT>
10076449 9 18265031614050994166
10165383 225 18343014519279736604
10863032 1 18341055137993201114
11421498 54 16370997564228170867
11488393 25 18045214101468832743
11578080 2 17170690877807145568
12011746 2 18410854369792109141
12035758 1 18336830801270691657
12236239 1 15841552972283151825
12403259 415 18413108355633534025
12730499 353 18411696586539358354
12788726 201 17603580880468267489
12969540 114 18272100400291931133
13140716 1 18338808827100150186
13402501 40 18410007723809997213
13617811 41 18131350808830312773
14341114 328 15410896271143868741
14787075 74 17917708003024203595
14790565 3 18338234856382206589
14955137 171 18269547265789549045
1601671 61 18409167710286155419
16945 1 18340772662194164962
17349148 13 10015288192123508325
173720 79 17560810930736326520
17492 54 18339924917322638125
17980427 23 17628369177634720212
18608769 82 18339919308465069379
20691752 17 17845391984497454527
20775438 99 17532965760161000406
21033648 29 18266743476931683624
21521721 280 18334289843037153345
21792961 116 18266720516384757126
22121540 332 17771370800638370621
22182313 1 18266175032886694826
22393880 68 18335705996812870862
23559900 14 18260265223340595136
238 59 17906770181167171701
244849 19 16227472646197858707
335352 9 18334290964572029444
350125 39 17987245597667234682
4340502 62 17418093238960974747
469060 322 16844745109734405591
484989 97 18337659841870990514
6669772 16 18411146826815767834

> <PUBCHEM_SHAPE_MULTIPOLES>
646.88
11.78
3.22
1.61
6
0.24
0.1
-5.07
-2.53
-0.69
-0.01
-0.05
0.21
1.95

> <PUBCHEM_SHAPE_SELFOVERLAP>
1407.448

> <PUBCHEM_SHAPE_VOLUME>
345.1

> <PUBCHEM_COORDINATE_TYPE>
2
5
10

$$$$

