51090961
  -OEChem-06241223013D

 37 39  0     0  0  0  0  0  0999 V2000
   -6.7322    0.0492    0.1776 O   0  0  0  0  0  0  0  0  0  0  0  0
    5.6261   -1.1745    0.2596 O   0  0  0  0  0  0  0  0  0  0  0  0
    2.2924    1.7552   -0.3694 O   0  0  0  0  0  0  0  0  0  0  0  0
   -3.9307   -0.0058   -0.0403 N   0  0  0  0  0  0  0  0  0  0  0  0
   -0.5529   -1.4526    0.2358 N   0  0  0  0  0  0  0  0  0  0  0  0
    1.5784   -0.4452    0.0454 N   0  0  0  0  0  0  0  0  0  0  0  0
    4.2375   -1.1282    0.2277 N   0  0  0  0  0  0  0  0  0  0  0  0
   -4.5827    0.8805    0.9336 C   0  0  0  0  0  0  0  0  0  0  0  0
   -4.7299   -1.1593   -0.4680 C   0  0  0  0  0  0  0  0  0  0  0  0
   -6.1243   -0.6969   -0.8762 C   0  0  0  0  0  0  0  0  0  0  0  0
   -5.9844    1.2343    0.4499 C   0  0  0  0  0  0  0  0  0  0  0  0
   -2.5347   -0.0924   -0.0231 C   0  0  0  0  0  0  0  0  0  0  0  0
   -1.7444    1.0319   -0.2350 C   0  0  0  0  0  0  0  0  0  0  0  0
   -1.8959   -1.3004    0.2058 C   0  0  0  0  0  0  0  0  0  0  0  0
   -0.3590    0.9152   -0.2119 C   0  0  0  0  0  0  0  0  0  0  0  0
    0.1826   -0.3378    0.0255 C   0  0  0  0  0  0  0  0  0  0  0  0
    2.5197    0.5709   -0.1463 C   0  0  0  0  0  0  0  0  0  0  0  0
    3.9403    0.1472   -0.0369 C   0  0  0  0  0  0  0  0  0  0  0  0
    5.0891    0.9443   -0.1806 C   0  0  0  0  0  0  0  0  0  0  0  0
    6.1215    0.0655    0.0151 C   0  0  0  0  0  0  0  0  0  0  0  0
    7.5836    0.1989    0.0118 C   0  0  0  0  0  0  0  0  0  0  0  0
   -4.2659   -1.6705   -1.3197 H   0  0  0  0  0  0  0  0  0  0  0  0
   -4.8120   -1.8689    0.3646 H   0  0  0  0  0  0  0  0  0  0  0  0
   -4.6428    0.3564    1.8955 H   0  0  0  0  0  0  0  0  0  0  0  0
   -4.0199    1.8071    1.0906 H   0  0  0  0  0  0  0  0  0  0  0  0
   -6.5157    1.7966    1.2242 H   0  0  0  0  0  0  0  0  0  0  0  0
   -5.9506    1.8593   -0.4507 H   0  0  0  0  0  0  0  0  0  0  0  0
   -6.0916   -0.0835   -1.7849 H   0  0  0  0  0  0  0  0  0  0  0  0
   -6.7591   -1.5640   -1.0847 H   0  0  0  0  0  0  0  0  0  0  0  0
   -2.1920    2.0027   -0.4311 H   0  0  0  0  0  0  0  0  0  0  0  0
   -2.4410   -2.2201    0.3921 H   0  0  0  0  0  0  0  0  0  0  0  0
    0.1840    1.8290   -0.3875 H   0  0  0  0  0  0  0  0  0  0  0  0
    1.9263   -1.3837    0.2265 H   0  0  0  0  0  0  0  0  0  0  0  0
    5.1611    2.0005   -0.3947 H   0  0  0  0  0  0  0  0  0  0  0  0
    7.8858    1.2306   -0.1935 H   0  0  0  0  0  0  0  0  0  0  0  0
    8.0268   -0.4430   -0.7558 H   0  0  0  0  0  0  0  0  0  0  0  0
    7.9985   -0.0888    0.9827 H   0  0  0  0  0  0  0  0  0  0  0  0
  1 10  1  0  0  0  0
  1 11  1  0  0  0  0
  2  7  1  0  0  0  0
  2 20  1  0  0  0  0
  3 17  2  0  0  0  0
  4  8  1  0  0  0  0
  4  9  1  0  0  0  0
  4 12  1  0  0  0  0
  5 14  1  0  0  0  0
  5 16  2  0  0  0  0
  6 16  1  0  0  0  0
  6 17  1  0  0  0  0
  6 33  1  0  0  0  0
  7 18  2  0  0  0  0
  8 11  1  0  0  0  0
  8 24  1  0  0  0  0
  8 25  1  0  0  0  0
  9 10  1  0  0  0  0
  9 22  1  0  0  0  0
  9 23  1  0  0  0  0
 10 28  1  0  0  0  0
 10 29  1  0  0  0  0
 11 26  1  0  0  0  0
 11 27  1  0  0  0  0
 12 13  1  0  0  0  0
 12 14  2  0  0  0  0
 13 15  2  0  0  0  0
 13 30  1  0  0  0  0
 14 31  1  0  0  0  0
 15 16  1  0  0  0  0
 15 32  1  0  0  0  0
 17 18  1  0  0  0  0
 18 19  1  0  0  0  0
 19 20  2  0  0  0  0
 19 34  1  0  0  0  0
 20 21  1  0  0  0  0
 21 35  1  0  0  0  0
 21 36  1  0  0  0  0
 21 37  1  0  0  0  0
M  END
> <PUBCHEM_COMPOUND_CID>
51090961

> <PUBCHEM_CONFORMER_RMSD>
0.8

> <PUBCHEM_CONFORMER_DIVERSEORDER>
1
6
8
2
5
9
3
7
4

> <PUBCHEM_MMFF94_PARTIAL_CHARGES>
26
1 -0.56
10 0.28
11 0.28
12 0.1
13 -0.15
14 0.16
15 -0.15
16 0.43
17 0.72
18 0.2
19 -0.15
2 -0.02
20 -0.04
21 0.18
3 -0.57
30 0.15
31 0.15
32 0.15
33 0.37
34 0.15
4 -0.84
5 -0.62
6 -0.55
7 -0.41
8 0.37
9 0.37

> <PUBCHEM_EFFECTIVE_ROTOR_COUNT>
5.2

> <PUBCHEM_PHARMACOPHORE_FEATURES>
8
1 1 acceptor
1 3 acceptor
1 4 cation
1 6 donor
1 7 acceptor
5 2 7 18 19 20 rings
6 1 4 8 9 10 11 rings
6 5 12 13 14 15 16 rings

> <PUBCHEM_HEAVY_ATOM_COUNT>
21

> <PUBCHEM_ATOM_DEF_STEREO_COUNT>
0

> <PUBCHEM_ATOM_UDEF_STEREO_COUNT>
0

> <PUBCHEM_BOND_DEF_STEREO_COUNT>
0

> <PUBCHEM_BOND_UDEF_STEREO_COUNT>
0

> <PUBCHEM_ISOTOPIC_ATOM_COUNT>
0

> <PUBCHEM_COMPONENT_COUNT>
1

> <PUBCHEM_CACTVS_TAUTO_COUNT>
3

> <PUBCHEM_CONFORMER_ID>
030B961100000001

> <PUBCHEM_MMFF94_ENERGY>
60.3182

> <PUBCHEM_FEATURE_SELFOVERLAP>
40.594

> <PUBCHEM_SHAPE_FINGERPRINT>
10299344 5 18409728469853572406
10968037 39 18272370862518878775
11089746 13 18408603643372205249
11315181 36 18113336397662034505
11524674 6 16225768501842685039
12091667 2 18114180826797417235
12166972 35 18334575715696949961
12236239 1 18334576841304642685
12516196 113 18187086148590300072
13288520 33 18260268530285863637
13533116 47 18335704992159944794
13862211 1 18413110567098436927
1420 363 16773793709992406113
14251764 18 18411139134787498048
14251764 46 18410856559639789573
15183329 4 18413674612268434306
15419008 47 15647057087685954266
18006028 8 18260550017388360024
18681886 176 18114472171339955595
19141452 34 18412545379678278534
19489759 90 17022900160099053331
200 152 18113901554442564731
20281389 69 18342177769176957592
21236236 1 18341896342020036765
21267235 1 18341889684245110676
22224240 67 17530689793025204294
23402539 116 18259706696602121677
23521765 1 18335421265881340268
23522609 53 18195781094584827684
23536379 177 18186238441687754555
23559900 14 18337959969584537488
29717793 49 18260260846536669380
3004659 81 18343865511695002548
335352 9 18413388709169853365
350125 39 18411982481074859324
3545911 37 18342458140895205630
397830 11 15696853862029236721
4073 2 18058726897716069146
4325135 7 18334576841046232183
4340502 62 15068619387795844324
4463277 17 18411700988865122689
5104073 3 18271807852958200968
542803 24 18040716969824040328
8209 1 18410575084663085428

> <PUBCHEM_SHAPE_MULTIPOLES>
394.64
19.3
1.37
0.72
8.8
0
0
0.36
0.12
-0.45
0.02
-0.49
0.03
-0.86

> <PUBCHEM_SHAPE_SELFOVERLAP>
842.614

> <PUBCHEM_SHAPE_VOLUME>
218.2

> <PUBCHEM_COORDINATE_TYPE>
2
5
10

$$$$

