44237185
  -OEChem-07051213102D

134134  0     0  0  0  0  0  0999 V2000
    2.5369  -12.1900    0.0000 O   0  0  0  0  0  0  0  0  0  0  0  0
    6.0010  -14.1900    0.0000 O   0  0  0  0  0  0  0  0  0  0  0  0
   11.1972   -0.1900    0.0000 C   0  0  0  0  0  0  0  0  0  0  0  0
   12.9292    2.8100    0.0000 C   0  0  0  0  0  0  0  0  0  0  0  0
    9.4651   -3.1900    0.0000 C   0  0  0  0  0  0  0  0  0  0  0  0
   11.1972    0.8100    0.0000 C   0  0  0  0  0  0  0  0  0  0  0  0
   12.9292    3.8100    0.0000 C   0  0  0  0  0  0  0  0  0  0  0  0
    9.4651   -2.1900    0.0000 C   0  0  0  0  0  0  0  0  0  0  0  0
   14.6613    5.8100    0.0000 C   0  0  0  0  0  0  0  0  0  0  0  0
   10.3312   -0.6900    0.0000 C   0  0  0  0  0  0  0  0  0  0  0  0
   12.0632    2.3100    0.0000 C   0  0  0  0  0  0  0  0  0  0  0  0
    7.7331   -6.1900    0.0000 C   0  0  0  0  0  0  0  0  0  0  0  0
   14.6613    6.8100    0.0000 C   0  0  0  0  0  0  0  0  0  0  0  0
    7.7331   -5.1900    0.0000 C   0  0  0  0  0  0  0  0  0  0  0  0
    8.5991   -3.6900    0.0000 C   0  0  0  0  0  0  0  0  0  0  0  0
   13.7953    5.3100    0.0000 C   0  0  0  0  0  0  0  0  0  0  0  0
   12.0632    1.3100    0.0000 C   0  0  0  0  0  0  0  0  0  0  0  0
   10.3312   -1.6900    0.0000 C   0  0  0  0  0  0  0  0  0  0  0  0
   13.7953    4.3100    0.0000 C   0  0  0  0  0  0  0  0  0  0  0  0
   16.3933    8.8100    0.0000 C   0  0  0  0  0  0  0  0  0  0  0  0
    6.8671   -6.6900    0.0000 C   0  0  0  0  0  0  0  0  0  0  0  0
    8.5991   -4.6900    0.0000 C   0  0  0  0  0  0  0  0  0  0  0  0
   15.5273    8.3100    0.0000 C   0  0  0  0  0  0  0  0  0  0  0  0
   15.5273    7.3100    0.0000 C   0  0  0  0  0  0  0  0  0  0  0  0
    6.0010   -8.1900    0.0000 C   0  0  0  0  0  0  0  0  0  0  0  0
   16.3933    9.8100    0.0000 C   0  0  0  0  0  0  0  0  0  0  0  0
    6.0010   -9.1900    0.0000 C   0  0  0  0  0  0  0  0  0  0  0  0
    6.8671   -7.6900    0.0000 C   0  0  0  0  0  0  0  0  0  0  0  0
    9.4651   -0.1900    0.0000 C   0  0  0  0  0  0  0  0  0  0  0  0
   11.1972    2.8100    0.0000 C   0  0  0  0  0  0  0  0  0  0  0  0
    5.1350   -9.6900    0.0000 C   0  0  0  0  0  0  0  0  0  0  0  0
    7.7331   -3.1900    0.0000 C   0  0  0  0  0  0  0  0  0  0  0  0
   12.9292    5.8100    0.0000 C   0  0  0  0  0  0  0  0  0  0  0  0
   17.2594   10.3100    0.0000 C   0  0  0  0  0  0  0  0  0  0  0  0
   17.2594   11.3100    0.0000 C   0  0  0  0  0  0  0  0  0  0  0  0
   18.1254   11.8100    0.0000 C   0  0  0  0  0  0  0  0  0  0  0  0
    6.0010   -6.1900    0.0000 C   0  0  0  0  0  0  0  0  0  0  0  0
   14.6613    8.8100    0.0000 C   0  0  0  0  0  0  0  0  0  0  0  0
    5.1350  -10.6900    0.0000 C   0  0  0  0  0  0  0  0  0  0  0  0
    4.2690  -11.1900    0.0000 C   0  0  0  0  0  0  0  0  0  0  0  0
   18.1254   12.8100    0.0000 C   0  0  0  0  0  0  0  0  0  0  0  0
    4.2690   -9.1900    0.0000 C   0  0  0  0  0  0  0  0  0  0  0  0
    4.2690  -12.1900    0.0000 C   0  0  0  0  0  0  0  0  0  0  0  0
   16.3933   11.8100    0.0000 C   0  0  0  0  0  0  0  0  0  0  0  0
   18.9914   13.3100    0.0000 C   0  0  0  0  0  0  0  0  0  0  0  0
    3.4030  -12.6900    0.0000 C   0  0  0  0  0  0  0  0  0  0  0  0
    5.1350  -12.6900    0.0000 C   0  0  0  0  0  0  0  0  0  0  0  0
    3.4030  -13.6900    0.0000 C   0  0  0  0  0  0  0  0  0  0  0  0
   18.9914   14.3100    0.0000 C   0  0  0  0  0  0  0  0  0  0  0  0
    5.1350  -13.6900    0.0000 C   0  0  0  0  0  0  0  0  0  0  0  0
    4.2690  -14.1900    0.0000 C   0  0  0  0  0  0  0  0  0  0  0  0
    2.5369  -14.1900    0.0000 C   0  0  0  0  0  0  0  0  0  0  0  0
   19.8574   14.8100    0.0000 C   0  0  0  0  0  0  0  0  0  0  0  0
   18.1254   14.8100    0.0000 C   0  0  0  0  0  0  0  0  0  0  0  0
   11.4092   -0.7726    0.0000 H   0  0  0  0  0  0  0  0  0  0  0  0
   11.8078   -0.0823    0.0000 H   0  0  0  0  0  0  0  0  0  0  0  0
   13.1413    2.2274    0.0000 H   0  0  0  0  0  0  0  0  0  0  0  0
   13.5398    2.9177    0.0000 H   0  0  0  0  0  0  0  0  0  0  0  0
    9.6772   -3.7726    0.0000 H   0  0  0  0  0  0  0  0  0  0  0  0
   10.0757   -3.0823    0.0000 H   0  0  0  0  0  0  0  0  0  0  0  0
   10.9851    1.3926    0.0000 H   0  0  0  0  0  0  0  0  0  0  0  0
   10.5866    0.7023    0.0000 H   0  0  0  0  0  0  0  0  0  0  0  0
   12.7172    4.3926    0.0000 H   0  0  0  0  0  0  0  0  0  0  0  0
   12.3187    3.7023    0.0000 H   0  0  0  0  0  0  0  0  0  0  0  0
    9.2531   -1.6074    0.0000 H   0  0  0  0  0  0  0  0  0  0  0  0
    8.8546   -2.2977    0.0000 H   0  0  0  0  0  0  0  0  0  0  0  0
   14.8733    5.2274    0.0000 H   0  0  0  0  0  0  0  0  0  0  0  0
   15.2719    5.9177    0.0000 H   0  0  0  0  0  0  0  0  0  0  0  0
    7.9451   -6.7726    0.0000 H   0  0  0  0  0  0  0  0  0  0  0  0
    8.3437   -6.0823    0.0000 H   0  0  0  0  0  0  0  0  0  0  0  0
   14.4492    7.3926    0.0000 H   0  0  0  0  0  0  0  0  0  0  0  0
   14.0507    6.7023    0.0000 H   0  0  0  0  0  0  0  0  0  0  0  0
    7.5210   -4.6074    0.0000 H   0  0  0  0  0  0  0  0  0  0  0  0
    7.1225   -5.2977    0.0000 H   0  0  0  0  0  0  0  0  0  0  0  0
   12.6002    1.0000    0.0000 H   0  0  0  0  0  0  0  0  0  0  0  0
   10.8681   -2.0000    0.0000 H   0  0  0  0  0  0  0  0  0  0  0  0
   14.3322    4.0000    0.0000 H   0  0  0  0  0  0  0  0  0  0  0  0
   16.6054    8.2274    0.0000 H   0  0  0  0  0  0  0  0  0  0  0  0
   17.0039    8.9177    0.0000 H   0  0  0  0  0  0  0  0  0  0  0  0
    9.1360   -5.0000    0.0000 H   0  0  0  0  0  0  0  0  0  0  0  0
   16.0643    7.0000    0.0000 H   0  0  0  0  0  0  0  0  0  0  0  0
    5.7890   -7.6074    0.0000 H   0  0  0  0  0  0  0  0  0  0  0  0
    5.3905   -8.2977    0.0000 H   0  0  0  0  0  0  0  0  0  0  0  0
   16.1813   10.3926    0.0000 H   0  0  0  0  0  0  0  0  0  0  0  0
   15.7828    9.7023    0.0000 H   0  0  0  0  0  0  0  0  0  0  0  0
    6.2131   -9.7726    0.0000 H   0  0  0  0  0  0  0  0  0  0  0  0
    6.6116   -9.0823    0.0000 H   0  0  0  0  0  0  0  0  0  0  0  0
    7.4040   -8.0000    0.0000 H   0  0  0  0  0  0  0  0  0  0  0  0
    9.7751    0.3469    0.0000 H   0  0  0  0  0  0  0  0  0  0  0  0
    8.9282    0.1200    0.0000 H   0  0  0  0  0  0  0  0  0  0  0  0
    9.1551   -0.7269    0.0000 H   0  0  0  0  0  0  0  0  0  0  0  0
   11.5072    3.3469    0.0000 H   0  0  0  0  0  0  0  0  0  0  0  0
   10.6603    3.1200    0.0000 H   0  0  0  0  0  0  0  0  0  0  0  0
   10.8872    2.2731    0.0000 H   0  0  0  0  0  0  0  0  0  0  0  0
    8.0431   -2.6531    0.0000 H   0  0  0  0  0  0  0  0  0  0  0  0
    7.1962   -2.8800    0.0000 H   0  0  0  0  0  0  0  0  0  0  0  0
    7.4231   -3.7269    0.0000 H   0  0  0  0  0  0  0  0  0  0  0  0
   13.2392    6.3469    0.0000 H   0  0  0  0  0  0  0  0  0  0  0  0
   12.3923    6.1200    0.0000 H   0  0  0  0  0  0  0  0  0  0  0  0
   12.6192    5.2731    0.0000 H   0  0  0  0  0  0  0  0  0  0  0  0
   17.7963   10.0000    0.0000 H   0  0  0  0  0  0  0  0  0  0  0  0
   18.3374   11.2274    0.0000 H   0  0  0  0  0  0  0  0  0  0  0  0
   18.7360   11.9177    0.0000 H   0  0  0  0  0  0  0  0  0  0  0  0
    6.3110   -5.6531    0.0000 H   0  0  0  0  0  0  0  0  0  0  0  0
    5.4641   -5.8800    0.0000 H   0  0  0  0  0  0  0  0  0  0  0  0
    5.6910   -6.7269    0.0000 H   0  0  0  0  0  0  0  0  0  0  0  0
   14.9713    9.3469    0.0000 H   0  0  0  0  0  0  0  0  0  0  0  0
   14.1244    9.1200    0.0000 H   0  0  0  0  0  0  0  0  0  0  0  0
   14.3513    8.2731    0.0000 H   0  0  0  0  0  0  0  0  0  0  0  0
    5.6720  -11.0000    0.0000 H   0  0  0  0  0  0  0  0  0  0  0  0
    4.0569  -10.6074    0.0000 H   0  0  0  0  0  0  0  0  0  0  0  0
    3.6584  -11.2977    0.0000 H   0  0  0  0  0  0  0  0  0  0  0  0
   17.9133   13.3926    0.0000 H   0  0  0  0  0  0  0  0  0  0  0  0
   17.5148   12.7023    0.0000 H   0  0  0  0  0  0  0  0  0  0  0  0
    4.5790   -8.6531    0.0000 H   0  0  0  0  0  0  0  0  0  0  0  0
    3.7320   -8.8800    0.0000 H   0  0  0  0  0  0  0  0  0  0  0  0
    3.9590   -9.7269    0.0000 H   0  0  0  0  0  0  0  0  0  0  0  0
   16.7033   12.3469    0.0000 H   0  0  0  0  0  0  0  0  0  0  0  0
   15.8564   12.1200    0.0000 H   0  0  0  0  0  0  0  0  0  0  0  0
   16.0833   11.2731    0.0000 H   0  0  0  0  0  0  0  0  0  0  0  0
   19.5284   13.0000    0.0000 H   0  0  0  0  0  0  0  0  0  0  0  0
    5.6720  -12.3800    0.0000 H   0  0  0  0  0  0  0  0  0  0  0  0
    4.2690  -14.8100    0.0000 H   0  0  0  0  0  0  0  0  0  0  0  0
    2.2269  -13.6531    0.0000 H   0  0  0  0  0  0  0  0  0  0  0  0
    2.0000  -14.5000    0.0000 H   0  0  0  0  0  0  0  0  0  0  0  0
    2.8469  -14.7269    0.0000 H   0  0  0  0  0  0  0  0  0  0  0  0
   18.4354   15.3469    0.0000 H   0  0  0  0  0  0  0  0  0  0  0  0
   17.5885   15.1200    0.0000 H   0  0  0  0  0  0  0  0  0  0  0  0
   17.8154   14.2731    0.0000 H   0  0  0  0  0  0  0  0  0  0  0  0
   20.1674   14.2731    0.0000 H   0  0  0  0  0  0  0  0  0  0  0  0
   20.3944   15.1200    0.0000 H   0  0  0  0  0  0  0  0  0  0  0  0
   19.5474   15.3469    0.0000 H   0  0  0  0  0  0  0  0  0  0  0  0
    2.0000  -12.5000    0.0000 H   0  0  0  0  0  0  0  0  0  0  0  0
    6.0010  -14.8100    0.0000 H   0  0  0  0  0  0  0  0  0  0  0  0
  1 46  1  0  0  0  0
  1133  1  0  0  0  0
  2 50  1  0  0  0  0
  2134  1  0  0  0  0
  3  6  1  0  0  0  0
  3 10  1  0  0  0  0
  3 55  1  0  0  0  0
  3 56  1  0  0  0  0
  4  7  1  0  0  0  0
  4 11  1  0  0  0  0
  4 57  1  0  0  0  0
  4 58  1  0  0  0  0
  5  8  1  0  0  0  0
  5 15  1  0  0  0  0
  5 59  1  0  0  0  0
  5 60  1  0  0  0  0
  6 17  1  0  0  0  0
  6 61  1  0  0  0  0
  6 62  1  0  0  0  0
  7 19  1  0  0  0  0
  7 63  1  0  0  0  0
  7 64  1  0  0  0  0
  8 18  1  0  0  0  0
  8 65  1  0  0  0  0
  8 66  1  0  0  0  0
  9 13  1  0  0  0  0
  9 16  1  0  0  0  0
  9 67  1  0  0  0  0
  9 68  1  0  0  0  0
 10 18  2  0  0  0  0
 10 29  1  0  0  0  0
 11 17  2  0  0  0  0
 11 30  1  0  0  0  0
 12 14  1  0  0  0  0
 12 21  1  0  0  0  0
 12 69  1  0  0  0  0
 12 70  1  0  0  0  0
 13 24  1  0  0  0  0
 13 71  1  0  0  0  0
 13 72  1  0  0  0  0
 14 22  1  0  0  0  0
 14 73  1  0  0  0  0
 14 74  1  0  0  0  0
 15 22  2  0  0  0  0
 15 32  1  0  0  0  0
 16 19  2  0  0  0  0
 16 33  1  0  0  0  0
 17 75  1  0  0  0  0
 18 76  1  0  0  0  0
 19 77  1  0  0  0  0
 20 23  1  0  0  0  0
 20 26  1  0  0  0  0
 20 78  1  0  0  0  0
 20 79  1  0  0  0  0
 21 28  2  0  0  0  0
 21 37  1  0  0  0  0
 22 80  1  0  0  0  0
 23 24  2  0  0  0  0
 23 38  1  0  0  0  0
 24 81  1  0  0  0  0
 25 27  1  0  0  0  0
 25 28  1  0  0  0  0
 25 82  1  0  0  0  0
 25 83  1  0  0  0  0
 26 34  1  0  0  0  0
 26 84  1  0  0  0  0
 26 85  1  0  0  0  0
 27 31  1  0  0  0  0
 27 86  1  0  0  0  0
 27 87  1  0  0  0  0
 28 88  1  0  0  0  0
 29 89  1  0  0  0  0
 29 90  1  0  0  0  0
 29 91  1  0  0  0  0
 30 92  1  0  0  0  0
 30 93  1  0  0  0  0
 30 94  1  0  0  0  0
 31 39  2  0  0  0  0
 31 42  1  0  0  0  0
 32 95  1  0  0  0  0
 32 96  1  0  0  0  0
 32 97  1  0  0  0  0
 33 98  1  0  0  0  0
 33 99  1  0  0  0  0
 33100  1  0  0  0  0
 34 35  2  0  0  0  0
 34101  1  0  0  0  0
 35 36  1  0  0  0  0
 35 44  1  0  0  0  0
 36 41  1  0  0  0  0
 36102  1  0  0  0  0
 36103  1  0  0  0  0
 37104  1  0  0  0  0
 37105  1  0  0  0  0
 37106  1  0  0  0  0
 38107  1  0  0  0  0
 38108  1  0  0  0  0
 38109  1  0  0  0  0
 39 40  1  0  0  0  0
 39110  1  0  0  0  0
 40 43  1  0  0  0  0
 40111  1  0  0  0  0
 40112  1  0  0  0  0
 41 45  1  0  0  0  0
 41113  1  0  0  0  0
 41114  1  0  0  0  0
 42115  1  0  0  0  0
 42116  1  0  0  0  0
 42117  1  0  0  0  0
 43 46  2  0  0  0  0
 43 47  1  0  0  0  0
 44118  1  0  0  0  0
 44119  1  0  0  0  0
 44120  1  0  0  0  0
 45 49  2  0  0  0  0
 45121  1  0  0  0  0
 46 48  1  0  0  0  0
 47 50  2  0  0  0  0
 47122  1  0  0  0  0
 48 51  2  0  0  0  0
 48 52  1  0  0  0  0
 49 53  1  0  0  0  0
 49 54  1  0  0  0  0
 50 51  1  0  0  0  0
 51123  1  0  0  0  0
 52124  1  0  0  0  0
 52125  1  0  0  0  0
 52126  1  0  0  0  0
 53130  1  0  0  0  0
 53131  1  0  0  0  0
 53132  1  0  0  0  0
 54127  1  0  0  0  0
 54128  1  0  0  0  0
 54129  1  0  0  0  0
M  END
> <PUBCHEM_COMPOUND_CID>
44237185

> <PUBCHEM_COMPOUND_CANONICALIZED>
1

> <PUBCHEM_CACTVS_COMPLEXITY>
1330

> <PUBCHEM_CACTVS_HBOND_ACCEPTOR>
2

> <PUBCHEM_CACTVS_HBOND_DONOR>
2

> <PUBCHEM_CACTVS_ROTATABLE_BOND>
26

> <PUBCHEM_CACTVS_SUBSKEYS>
AAADcfB8MAAAAAAAAAAAAAAAAAAAAAAAAAAwAAAAAAAAAAABAAAAGgAACAAADASAmAAyBoAAAgCAAiBCAAACAAAgIAAAiAAGCIgIJiKCERKAcAAkwBEImAfAwPAOAQADAAAIAAACAAYAABAAAAAAAAAAAA==

> <PUBCHEM_IUPAC_OPENEYE_NAME>
2-methyl-6-[(2E,6E,10E,14E,18E,22E,26E,30E)-3,7,11,15,19,23,27,31,35-nonamethylhexatriaconta-2,6,10,14,18,22,26,30,34-nonaenyl]benzene-1,4-diol

> <PUBCHEM_IUPAC_CAS_NAME>
2-methyl-6-[(2E,6E,10E,14E,18E,22E,26E,30E)-3,7,11,15,19,23,27,31,35-nonamethylhexatriaconta-2,6,10,14,18,22,26,30,34-nonaenyl]benzene-1,4-diol

> <PUBCHEM_IUPAC_NAME>
2-methyl-6-[(2E,6E,10E,14E,18E,22E,26E,30E)-3,7,11,15,19,23,27,31,35-nonamethylhexatriaconta-2,6,10,14,18,22,26,30,34-nonaenyl]benzene-1,4-diol

> <PUBCHEM_IUPAC_SYSTEMATIC_NAME>
2-methyl-6-[(2E,6E,10E,14E,18E,22E,26E,30E)-3,7,11,15,19,23,27,31,35-nonamethylhexatriaconta-2,6,10,14,18,22,26,30,34-nonaenyl]benzene-1,4-diol

> <PUBCHEM_IUPAC_TRADITIONAL_NAME>
2-methyl-6-[(2E,6E,10E,14E,18E,22E,26E,30E)-3,7,11,15,19,23,27,31,35-nonamethylhexatriaconta-2,6,10,14,18,22,26,30,34-nonaenyl]hydroquinone

> <PUBCHEM_IUPAC_INCHI>
InChI=1S/C52H80O2/c1-40(2)20-12-21-41(3)22-13-23-42(4)24-14-25-43(5)26-15-27-44(6)28-16-29-45(7)30-17-31-46(8)32-18-33-47(9)34-19-35-48(10)36-37-50-39-51(53)38-49(11)52(50)54/h20,22,24,26,28,30,32,34,36,38-39,53-54H,12-19,21,23,25,27,29,31,33,35,37H2,1-11H3/b41-22+,42-24+,43-26+,44-28+,45-30+,46-32+,47-34+,48-36+

> <PUBCHEM_IUPAC_INCHIKEY>
SWKACZQJGXABCN-JSGWLJPKSA-N

> <PUBCHEM_XLOGP3_AA>
18.4

> <PUBCHEM_EXACT_MASS>
736.615832

> <PUBCHEM_MOLECULAR_FORMULA>
C52H80O2

> <PUBCHEM_MOLECULAR_WEIGHT>
737.1904

> <PUBCHEM_OPENEYE_CAN_SMILES>
CC1=CC(=CC(=C1O)CC=C(C)CCC=C(C)CCC=C(C)CCC=C(C)CCC=C(C)CCC=C(C)CCC=C(C)CCC=C(C)CCC=C(C)C)O

> <PUBCHEM_OPENEYE_ISO_SMILES>
CC1=CC(=CC(=C1O)C/C=C(\C)/CC/C=C(\C)/CC/C=C(\C)/CC/C=C(\C)/CC/C=C(\C)/CC/C=C(\C)/CC/C=C(\C)/CC/C=C(\C)/CCC=C(C)C)O

> <PUBCHEM_CACTVS_TPSA>
40.5

> <PUBCHEM_MONOISOTOPIC_WEIGHT>
736.615832

> <PUBCHEM_TOTAL_CHARGE>
0

> <PUBCHEM_HEAVY_ATOM_COUNT>
54

> <PUBCHEM_ATOM_DEF_STEREO_COUNT>
0

> <PUBCHEM_ATOM_UDEF_STEREO_COUNT>
0

> <PUBCHEM_BOND_DEF_STEREO_COUNT>
8

> <PUBCHEM_BOND_UDEF_STEREO_COUNT>
0

> <PUBCHEM_ISOTOPIC_ATOM_COUNT>
0

> <PUBCHEM_COMPONENT_COUNT>
1

> <PUBCHEM_CACTVS_TAUTO_COUNT>
96

> <PUBCHEM_COORDINATE_TYPE>
1
5
255

> <PUBCHEM_BONDANNOTATIONS>
43  46  8
43  47  8
46  48  8
47  50  8
48  51  8
50  51  8

$$$$

