442907
  -OEChem-07051213003D

 33 35  0     0  0  0  0  0  0999 V2000
   -1.9917   -2.5467    0.3668 O   0  0  0  0  0  0  0  0  0  0  0  0
   -0.4971    1.0572   -0.8670 N   0  0  0  0  0  0  0  0  0  0  0  0
   -0.2906   -1.3270   -0.5854 N   0  0  0  0  0  0  0  0  0  0  0  0
    1.5102   -0.0749   -1.5867 C   0  0  0  0  0  0  0  0  0  0  0  0
    0.1520   -0.1200   -0.9728 C   0  0  0  0  0  0  0  0  0  0  0  0
   -2.2937   -0.1793    0.1303 C   0  0  0  0  0  0  0  0  0  0  0  0
   -1.7222    1.0242   -0.3141 C   0  0  0  0  0  0  0  0  0  0  0  0
    2.6298    0.1398   -0.5879 C   0  0  0  0  0  0  0  0  0  0  0  0
   -1.5197   -1.3243   -0.0362 C   0  0  0  0  0  0  0  0  0  0  0  0
   -3.5755   -0.2018    0.7068 C   0  0  0  0  0  0  0  0  0  0  0  0
   -2.4669    2.1915   -0.1643 C   0  0  0  0  0  0  0  0  0  0  0  0
    3.2307   -0.9601   -0.0031 C   0  0  0  0  0  0  0  0  0  0  0  0
    3.0235    1.4304   -0.2847 C   0  0  0  0  0  0  0  0  0  0  0  0
   -4.2976    0.9796    0.8443 C   0  0  0  0  0  0  0  0  0  0  0  0
   -3.7424    2.1774    0.4081 C   0  0  0  0  0  0  0  0  0  0  0  0
    4.2607   -0.7625    0.9166 C   0  0  0  0  0  0  0  0  0  0  0  0
    4.0536    1.6280    0.6348 C   0  0  0  0  0  0  0  0  0  0  0  0
    4.6721    0.5315    1.2355 C   0  0  0  0  0  0  0  0  0  0  0  0
   -1.1353   -3.6631    0.1590 C   0  0  0  0  0  0  0  0  0  0  0  0
    1.5432    0.7172   -2.3468 H   0  0  0  0  0  0  0  0  0  0  0  0
    1.6921   -1.0039   -2.1436 H   0  0  0  0  0  0  0  0  0  0  0  0
   -4.0226   -1.1304    1.0525 H   0  0  0  0  0  0  0  0  0  0  0  0
   -2.0550    3.1423   -0.4975 H   0  0  0  0  0  0  0  0  0  0  0  0
    2.9157   -1.9712   -0.2442 H   0  0  0  0  0  0  0  0  0  0  0  0
    2.5467    2.2901   -0.7463 H   0  0  0  0  0  0  0  0  0  0  0  0
   -5.2878    0.9663    1.2890 H   0  0  0  0  0  0  0  0  0  0  0  0
   -4.2992    3.1043    0.5116 H   0  0  0  0  0  0  0  0  0  0  0  0
    4.7420   -1.6162    1.3847 H   0  0  0  0  0  0  0  0  0  0  0  0
    4.3737    2.6355    0.8836 H   0  0  0  0  0  0  0  0  0  0  0  0
    5.4739    0.6853    1.9518 H   0  0  0  0  0  0  0  0  0  0  0  0
   -0.9334   -3.8122   -0.9072 H   0  0  0  0  0  0  0  0  0  0  0  0
   -1.6500   -4.5544    0.5303 H   0  0  0  0  0  0  0  0  0  0  0  0
   -0.2025   -3.5551    0.7229 H   0  0  0  0  0  0  0  0  0  0  0  0
  1  9  1  0  0  0  0
  1 19  1  0  0  0  0
  2  5  2  0  0  0  0
  2  7  1  0  0  0  0
  3  5  1  0  0  0  0
  3  9  2  0  0  0  0
  4  5  1  0  0  0  0
  4  8  1  0  0  0  0
  4 20  1  0  0  0  0
  4 21  1  0  0  0  0
  6  7  1  0  0  0  0
  6  9  1  0  0  0  0
  6 10  2  0  0  0  0
  7 11  2  0  0  0  0
  8 12  2  0  0  0  0
  8 13  1  0  0  0  0
 10 14  1  0  0  0  0
 10 22  1  0  0  0  0
 11 15  1  0  0  0  0
 11 23  1  0  0  0  0
 12 16  1  0  0  0  0
 12 24  1  0  0  0  0
 13 17  2  0  0  0  0
 13 25  1  0  0  0  0
 14 15  2  0  0  0  0
 14 26  1  0  0  0  0
 15 27  1  0  0  0  0
 16 18  2  0  0  0  0
 16 28  1  0  0  0  0
 17 18  1  0  0  0  0
 17 29  1  0  0  0  0
 18 30  1  0  0  0  0
 19 31  1  0  0  0  0
 19 32  1  0  0  0  0
 19 33  1  0  0  0  0
M  END
> <PUBCHEM_COMPOUND_CID>
442907

> <PUBCHEM_CONFORMER_RMSD>
0.6

> <PUBCHEM_CONFORMER_DIVERSEORDER>
1
7
15
14
2
10
16
13
12
8
9
11
3
6
4
5

> <PUBCHEM_MMFF94_PARTIAL_CHARGES>
27
1 -0.36
10 -0.15
11 -0.15
12 -0.15
13 -0.15
14 -0.15
15 -0.15
16 -0.15
17 -0.15
18 -0.15
19 0.28
2 -0.62
22 0.15
23 0.15
24 0.15
25 0.15
26 0.15
27 0.15
28 0.15
29 0.15
3 -0.62
30 0.15
4 0.29
5 0.48
7 0.31
8 -0.14
9 0.39

> <PUBCHEM_EFFECTIVE_ROTOR_COUNT>
3

> <PUBCHEM_PHARMACOPHORE_FEATURES>
4
3 2 3 5 cation
6 2 3 5 6 7 9 rings
6 6 7 10 11 14 15 rings
6 8 12 13 16 17 18 rings

> <PUBCHEM_HEAVY_ATOM_COUNT>
19

> <PUBCHEM_ATOM_DEF_STEREO_COUNT>
0

> <PUBCHEM_ATOM_UDEF_STEREO_COUNT>
0

> <PUBCHEM_BOND_DEF_STEREO_COUNT>
0

> <PUBCHEM_BOND_UDEF_STEREO_COUNT>
0

> <PUBCHEM_ISOTOPIC_ATOM_COUNT>
0

> <PUBCHEM_COMPONENT_COUNT>
1

> <PUBCHEM_CACTVS_TAUTO_COUNT>
1

> <PUBCHEM_CONFORMER_ID>
0006C21B00000001

> <PUBCHEM_MMFF94_ENERGY>
58.0844

> <PUBCHEM_FEATURE_SELFOVERLAP>
20.329

> <PUBCHEM_SHAPE_FINGERPRINT>
10319926 262 18335710425430471178
10366900 7 18115314358523606176
10498660 4 15357983326439895352
11132069 177 18408879663893482789
11265709 11 17832986044884370623
11370993 70 18337675311963083906
11543360 7 8646766716448106160
121448 382 18337405889397744847
12173636 292 18409733967105749839
122479 349 18186803586480233924
12251169 10 18341895186467625060
12403259 415 18265605657963307805
12553582 1 17691666914540436455
12633257 1 18340498824106857834
12670546 177 7637394129700870624
12788726 201 17911501113340049099
12839892 36 18343294895156633435
12892183 10 18272086084833533048
13004483 165 17829342293166830815
13140716 1 18051402977558740907
13583140 156 17060347322533113885
13675066 3 17917990602696737781
14081887 123 18193000309555358058
14178342 30 18270398283199061838
14289901 80 18270963419475115568
14341114 176 18410854378635361864
14341114 328 18201162027830072344
14420673 8 18126004004238791650
14787075 74 18040719156384621113
15042514 8 18269827636933362587
15295992 7 17749118763955556472
15842332 3 17701526321389971470
16110190 28 18199203948193032458
17804303 29 18269267027647037718
1813 80 16486970743717041150
18186145 218 17823683342972602053
19862831 5 6050444803817966364
20361792 2 15841559556995440310
20510252 161 18334005108248836705
21033648 29 18268448977895461356
21065199 12 18410013217563649386
212916 134 18336272335247270289
21650355 55 18195529194857541599
21713013 43 11383840402352440896
21731228 192 18339077193784061915
21756936 100 17899705562184150252
22950370 63 9439111083655261085
23402539 116 18335427816503312007
23419403 2 17546756762751440887
23503953 91 18342464716453472600
23557571 272 18043232579313753870
23559900 14 18262498386673868966
23728640 28 18341891857747047859
27216 239 17822862969843490256
2748010 2 17982427572485632471
351380 180 18334017232677937833
4028521 119 6555415309930186352
4072396 5 17988916821498862201
4340502 62 18336818819082263401
495365 180 17458340900940532926
5104073 3 18411417310744178912
5924683 9 18262529082462741527
633830 44 17896598577750476973
7097593 13 18272095985218472696
7364860 26 17762611090315456111
90316 7 17918273177354343141
9709674 26 18334292054898045918
9862522 239 17916315011854243253

> <PUBCHEM_SHAPE_MULTIPOLES>
375.18
8.91
2.8
1.1
4.81
2.25
0.11
-3.93
-3.9
-2.13
-0.32
0.6
-0.09
0.09

> <PUBCHEM_SHAPE_SELFOVERLAP>
824.991

> <PUBCHEM_SHAPE_VOLUME>
201.8

> <PUBCHEM_COORDINATE_TYPE>
2
5
10

$$$$

