17396331
  -OEChem-06241222563D

 32 33  0     0  0  0  0  0  0999 V2000
   -1.8755   -2.9895    0.3715 Cl  0  0  0  0  0  0  0  0  0  0  0  0
   -6.4393   -0.3392   -0.6386 Cl  0  0  0  0  0  0  0  0  0  0  0  0
    2.3901    0.4498   -0.6597 S   0  0  0  0  0  0  0  0  0  0  0  0
   -0.2978    2.0983    0.5245 O   0  0  0  0  0  0  0  0  0  0  0  0
    5.0714   -0.1352   -0.9163 N   0  0  0  0  0  0  0  0  0  0  0  0
   -0.7042   -0.2193    0.5172 N   0  0  0  0  0  0  0  0  0  0  0  0
   -2.7092    0.9206    0.0752 N   0  0  0  0  0  0  0  0  0  0  0  0
    4.3674   -0.0344    1.1875 N   0  0  0  0  0  0  0  0  0  0  0  0
    4.0153    0.0761   -0.0741 C   0  0  0  0  0  0  0  0  0  0  0  0
    1.5139    0.6020    0.9155 C   0  0  0  0  0  0  0  0  0  0  0  0
   -2.0790   -0.2640    0.2414 C   0  0  0  0  0  0  0  0  0  0  0  0
    0.0626    0.9294    0.6349 C   0  0  0  0  0  0  0  0  0  0  0  0
   -4.0334    0.8640   -0.1911 C   0  0  0  0  0  0  0  0  0  0  0  0
    6.1667   -0.3969   -0.1424 C   0  0  0  0  0  0  0  0  0  0  0  0
   -2.7075   -1.4958    0.1544 C   0  0  0  0  0  0  0  0  0  0  0  0
    5.0743   -0.0983   -2.3616 C   0  0  0  0  0  0  0  0  0  0  0  0
   -4.7533   -0.3151   -0.2984 C   0  0  0  0  0  0  0  0  0  0  0  0
   -4.0703   -1.5132   -0.1210 C   0  0  0  0  0  0  0  0  0  0  0  0
    5.7075   -0.3286    1.1519 C   0  0  0  0  0  0  0  0  0  0  0  0
   -4.6997    2.1894   -0.3708 C   0  0  0  0  0  0  0  0  0  0  0  0
    1.9421    1.4129    1.5142 H   0  0  0  0  0  0  0  0  0  0  0  0
    1.5941   -0.3256    1.4920 H   0  0  0  0  0  0  0  0  0  0  0  0
   -0.2455   -1.1202    0.6315 H   0  0  0  0  0  0  0  0  0  0  0  0
    7.1435   -0.6016   -0.5581 H   0  0  0  0  0  0  0  0  0  0  0  0
    4.3816   -0.8586   -2.7312 H   0  0  0  0  0  0  0  0  0  0  0  0
    4.7702    0.9001   -2.6854 H   0  0  0  0  0  0  0  0  0  0  0  0
    6.0815   -0.3113   -2.7296 H   0  0  0  0  0  0  0  0  0  0  0  0
   -4.6005   -2.4600   -0.1975 H   0  0  0  0  0  0  0  0  0  0  0  0
    6.2734   -0.4769    2.0599 H   0  0  0  0  0  0  0  0  0  0  0  0
   -5.4856    2.3326    0.3778 H   0  0  0  0  0  0  0  0  0  0  0  0
   -3.9804    3.0072   -0.2517 H   0  0  0  0  0  0  0  0  0  0  0  0
   -5.1293    2.2743   -1.3740 H   0  0  0  0  0  0  0  0  0  0  0  0
  1 15  1  0  0  0  0
  2 17  1  0  0  0  0
  3  9  1  0  0  0  0
  3 10  1  0  0  0  0
  4 12  2  0  0  0  0
  5  9  1  0  0  0  0
  5 14  1  0  0  0  0
  5 16  1  0  0  0  0
  6 11  1  0  0  0  0
  6 12  1  0  0  0  0
  6 23  1  0  0  0  0
  7 11  1  0  0  0  0
  7 13  2  0  0  0  0
  8  9  2  0  0  0  0
  8 19  1  0  0  0  0
 10 12  1  0  0  0  0
 10 21  1  0  0  0  0
 10 22  1  0  0  0  0
 11 15  2  0  0  0  0
 13 17  1  0  0  0  0
 13 20  1  0  0  0  0
 14 19  2  0  0  0  0
 14 24  1  0  0  0  0
 15 18  1  0  0  0  0
 16 25  1  0  0  0  0
 16 26  1  0  0  0  0
 16 27  1  0  0  0  0
 17 18  2  0  0  0  0
 18 28  1  0  0  0  0
 19 29  1  0  0  0  0
 20 30  1  0  0  0  0
 20 31  1  0  0  0  0
 20 32  1  0  0  0  0
M  END
> <PUBCHEM_COMPOUND_CID>
17396331

> <PUBCHEM_CONFORMER_RMSD>
0.8

> <PUBCHEM_CONFORMER_DIVERSEORDER>
1
114
64
93
62
122
135
102
91
40
76
105
112
116
28
65
130
17
94
117
80
12
127
74
101
115
132
95
35
50
42
134
19
63
8
32
107
87
5
123
113
126
70
53
73
13
84
99
21
72
83
131
48
128
90
103
118
59
109
26
49
29
61
121
129
27
81
108
52
4
85
20
89
120
34
110
92
66
56
7
51
69
78
119
47
106
2
96
36
16
41
25
55
10
3
37
45
98
15
104
38
46
31
54
14
6
77
100
67
18
24
82
124
30
11
44
22
60
86
88
33
125
23
39
75
97
79
111
58
68
57
133
9
43
71

> <PUBCHEM_MMFF94_PARTIAL_CHARGES>
24
1 -0.18
10 0.29
11 0.43
12 0.57
13 0.17
14 -0.3
15 0.18
16 0.26
17 0.18
18 -0.15
19 0.08
2 -0.18
20 0.14
23 0.37
24 0.15
28 0.15
29 0.15
3 -0.29
4 -0.57
5 0.05
6 -0.55
7 -0.62
8 -0.57
9 0.24

> <PUBCHEM_EFFECTIVE_ROTOR_COUNT>
5

> <PUBCHEM_PHARMACOPHORE_FEATURES>
6
1 4 acceptor
1 6 donor
1 7 acceptor
3 5 8 9 cation
5 5 8 9 14 19 rings
6 7 11 13 15 17 18 rings

> <PUBCHEM_HEAVY_ATOM_COUNT>
20

> <PUBCHEM_ATOM_DEF_STEREO_COUNT>
0

> <PUBCHEM_ATOM_UDEF_STEREO_COUNT>
0

> <PUBCHEM_BOND_DEF_STEREO_COUNT>
0

> <PUBCHEM_BOND_UDEF_STEREO_COUNT>
0

> <PUBCHEM_ISOTOPIC_ATOM_COUNT>
0

> <PUBCHEM_COMPONENT_COUNT>
1

> <PUBCHEM_CACTVS_TAUTO_COUNT>
3

> <PUBCHEM_CONFORMER_ID>
0109726B00000001

> <PUBCHEM_MMFF94_ENERGY>
37.2493

> <PUBCHEM_FEATURE_SELFOVERLAP>
30.452

> <PUBCHEM_SHAPE_FINGERPRINT>
10 15 17604445024864191226
10803635 8 18272094906775525631
11128504 68 16988561282324003740
11796584 16 18409166576367589242
12236239 1 17704074005637298368
12516196 113 16950285100411819008
12616971 3 17060623300420807274
13288520 33 18335423452795238385
13533116 47 14634865366801195038
13668630 136 16877941624908466991
13685833 64 17312821559127181711
14251731 8 18409731772161307065
14251752 14 18202007650311729033
14386348 63 17822008705523032798
14848160 23 17603586335445601542
15042514 8 18196936566232676539
15183329 4 18201999936613886140
15880784 105 15646767899201297054
17834072 8 18413673499929933421
17844677 252 18408884018811343312
17870717 6 18334002896145422511
19489759 90 18334295374791253101
20374829 77 18408043991726619009
20645477 70 16950278521017592188
21267235 1 18411981330893334675
21279426 13 18189896606983399671
21781051 124 18129090140278361011
2215653 11 18040155114828842759
22849339 104 18268696243178130279
23175994 123 17530683182701374889
23198884 109 16702303447180632345
23402539 116 18411423929151819724
23536379 177 17275107240705111920
23557571 272 18040713723288285416
23559900 14 18263371295468879209
239999 70 17966969410020289610
300161 21 17703508814322774220
3004659 81 18343581833315536708
314173 85 17968087621213226552
335352 9 18410580561790802021
34797466 226 18114457877784058132
4015057 19 17023763224897385865
44062 13 18337390422719994583
5283173 99 18335706069558699008
542803 24 17275102842853831560
559249 180 18342463668043635026
960060 61 17703784809037279436
9709674 26 18047479928639593915

> <PUBCHEM_SHAPE_MULTIPOLES>
393.39
16.28
1.95
1.22
9.81
0.69
0.52
0.74
3.68
-3.07
-0.21
2.21
-0.03
0.06

> <PUBCHEM_SHAPE_SELFOVERLAP>
797.094

> <PUBCHEM_SHAPE_VOLUME>
235.1

> <PUBCHEM_COORDINATE_TYPE>
2
5
10

$$$$

