14199
  -OEChem-06241222422D

 81 86  0     0  0  0  0  0  0999 V2000
    7.5183    0.0000    0.0000 Ba  0  2  0  0  0  0  0  0  0  0  0  0
    6.6523    1.5000    0.0000 S   0  0  0  0  0  0  0  0  0  0  0  0
    6.6523    8.3370    0.0000 S   0  0  0  0  0  0  0  0  0  0  0  0
    6.6523    0.5000    0.0000 O   0  5  0  0  0  0  0  0  0  0  0  0
    6.6523    7.3370    0.0000 O   0  5  0  0  0  0  0  0  0  0  0  0
    5.6523    1.5000    0.0000 O   0  0  0  0  0  0  0  0  0  0  0  0
    7.6523    1.5000    0.0000 O   0  0  0  0  0  0  0  0  0  0  0  0
    5.6523    8.3370    0.0000 O   0  0  0  0  0  0  0  0  0  0  0  0
    7.6523    8.3370    0.0000 O   0  0  0  0  0  0  0  0  0  0  0  0
    4.0542    1.0000    0.0000 O   0  0  0  0  0  0  0  0  0  0  0  0
    4.0542    7.8370    0.0000 O   0  0  0  0  0  0  0  0  0  0  0  0
    4.9203    2.5000    0.0000 N   0  0  0  0  0  0  0  0  0  0  0  0
    4.9203    9.3370    0.0000 N   0  0  0  0  0  0  0  0  0  0  0  0
    4.0542    3.0000    0.0000 N   0  0  0  0  0  0  0  0  0  0  0  0
    4.0542    9.8370    0.0000 N   0  0  0  0  0  0  0  0  0  0  0  0
    7.5183    3.0000    0.0000 C   0  0  0  0  0  0  0  0  0  0  0  0
    7.5183    9.8370    0.0000 C   0  0  0  0  0  0  0  0  0  0  0  0
    6.6523    2.5000    0.0000 C   0  0  0  0  0  0  0  0  0  0  0  0
    6.6523    9.3370    0.0000 C   0  0  0  0  0  0  0  0  0  0  0  0
    7.5183    4.0000    0.0000 C   0  0  0  0  0  0  0  0  0  0  0  0
    7.5183   10.8370    0.0000 C   0  0  0  0  0  0  0  0  0  0  0  0
    5.7863    3.0000    0.0000 C   0  0  0  0  0  0  0  0  0  0  0  0
    5.7863    9.8370    0.0000 C   0  0  0  0  0  0  0  0  0  0  0  0
    6.6523    4.5000    0.0000 C   0  0  0  0  0  0  0  0  0  0  0  0
    6.6523   11.3370    0.0000 C   0  0  0  0  0  0  0  0  0  0  0  0
    8.4123    2.4653    0.0000 C   0  0  0  0  0  0  0  0  0  0  0  0
    8.4123    9.3023    0.0000 C   0  0  0  0  0  0  0  0  0  0  0  0
    5.7863    4.0000    0.0000 C   0  0  0  0  0  0  0  0  0  0  0  0
    5.7863   10.8370    0.0000 C   0  0  0  0  0  0  0  0  0  0  0  0
    8.4123    4.5347    0.0000 C   0  0  0  0  0  0  0  0  0  0  0  0
    8.4123   11.3717    0.0000 C   0  0  0  0  0  0  0  0  0  0  0  0
    2.3222    3.0000    0.0000 C   0  0  0  0  0  0  0  0  0  0  0  0
    2.3222    9.8370    0.0000 C   0  0  0  0  0  0  0  0  0  0  0  0
    1.4562    2.5000    0.0000 C   0  0  0  0  0  0  0  0  0  0  0  0
    1.4562    9.3370    0.0000 C   0  0  0  0  0  0  0  0  0  0  0  0
    3.1882    2.5000    0.0000 C   0  0  0  0  0  0  0  0  0  0  0  0
    3.1882    9.3370    0.0000 C   0  0  0  0  0  0  0  0  0  0  0  0
    9.3183    2.9792    0.0000 C   0  0  0  0  0  0  0  0  0  0  0  0
    9.3183    9.8162    0.0000 C   0  0  0  0  0  0  0  0  0  0  0  0
    9.3183    4.0208    0.0000 C   0  0  0  0  0  0  0  0  0  0  0  0
    9.3183   10.8578    0.0000 C   0  0  0  0  0  0  0  0  0  0  0  0
    3.1882    1.5000    0.0000 C   0  0  0  0  0  0  0  0  0  0  0  0
    3.1882    8.3370    0.0000 C   0  0  0  0  0  0  0  0  0  0  0  0
    1.4562    1.5000    0.0000 C   0  0  0  0  0  0  0  0  0  0  0  0
    1.4562    8.3370    0.0000 C   0  0  0  0  0  0  0  0  0  0  0  0
    2.3382    4.0415    0.0000 C   0  0  0  0  0  0  0  0  0  0  0  0
    2.3382   10.8785    0.0000 C   0  0  0  0  0  0  0  0  0  0  0  0
    0.5462    3.0068    0.0000 C   0  0  0  0  0  0  0  0  0  0  0  0
    0.5462    9.8439    0.0000 C   0  0  0  0  0  0  0  0  0  0  0  0
    2.3222    1.0000    0.0000 C   0  0  0  0  0  0  0  0  0  0  0  0
    2.3222    7.8370    0.0000 C   0  0  0  0  0  0  0  0  0  0  0  0
    1.4402    4.5693    0.0000 C   0  0  0  0  0  0  0  0  0  0  0  0
    1.4402   11.4063    0.0000 C   0  0  0  0  0  0  0  0  0  0  0  0
    0.5381    4.0484    0.0000 C   0  0  0  0  0  0  0  0  0  0  0  0
    0.5381   10.8855    0.0000 C   0  0  0  0  0  0  0  0  0  0  0  0
    6.6523    5.1200    0.0000 H   0  0  0  0  0  0  0  0  0  0  0  0
    6.6523   11.9570    0.0000 H   0  0  0  0  0  0  0  0  0  0  0  0
    8.4051    1.8454    0.0000 H   0  0  0  0  0  0  0  0  0  0  0  0
    8.4051    8.6824    0.0000 H   0  0  0  0  0  0  0  0  0  0  0  0
    5.2493    4.3100    0.0000 H   0  0  0  0  0  0  0  0  0  0  0  0
    5.2493   11.1470    0.0000 H   0  0  0  0  0  0  0  0  0  0  0  0
    8.4051    5.1546    0.0000 H   0  0  0  0  0  0  0  0  0  0  0  0
    8.4051   11.9916    0.0000 H   0  0  0  0  0  0  0  0  0  0  0  0
    9.8541    2.6671    0.0000 H   0  0  0  0  0  0  0  0  0  0  0  0
    9.8541    9.5041    0.0000 H   0  0  0  0  0  0  0  0  0  0  0  0
    9.8541    4.3329    0.0000 H   0  0  0  0  0  0  0  0  0  0  0  0
    9.8541   11.1699    0.0000 H   0  0  0  0  0  0  0  0  0  0  0  0
    0.9192    1.1900    0.0000 H   0  0  0  0  0  0  0  0  0  0  0  0
    0.9192    8.0270    0.0000 H   0  0  0  0  0  0  0  0  0  0  0  0
    2.8787    4.3453    0.0000 H   0  0  0  0  0  0  0  0  0  0  0  0
    2.8787   11.1823    0.0000 H   0  0  0  0  0  0  0  0  0  0  0  0
    0.0128    2.6907    0.0000 H   0  0  0  0  0  0  0  0  0  0  0  0
    0.0128    9.5277    0.0000 H   0  0  0  0  0  0  0  0  0  0  0  0
    2.3222    0.3800    0.0000 H   0  0  0  0  0  0  0  0  0  0  0  0
    2.3222    7.2170    0.0000 H   0  0  0  0  0  0  0  0  0  0  0  0
    1.4426    5.1893    0.0000 H   0  0  0  0  0  0  0  0  0  0  0  0
    1.4426   12.0263    0.0000 H   0  0  0  0  0  0  0  0  0  0  0  0
    0.0000    4.3564    0.0000 H   0  0  0  0  0  0  0  0  0  0  0  0
    0.0000   11.1934    0.0000 H   0  0  0  0  0  0  0  0  0  0  0  0
    4.0542    0.3800    0.0000 H   0  0  0  0  0  0  0  0  0  0  0  0
    4.0542    7.2170    0.0000 H   0  0  0  0  0  0  0  0  0  0  0  0
  2  4  1  0  0  0  0
  2  6  2  0  0  0  0
  2  7  2  0  0  0  0
  2 18  1  0  0  0  0
  3  5  1  0  0  0  0
  3  8  2  0  0  0  0
  3  9  2  0  0  0  0
  3 19  1  0  0  0  0
 10 42  1  0  0  0  0
 10 80  1  0  0  0  0
 11 43  1  0  0  0  0
 11 81  1  0  0  0  0
 12 14  2  0  0  0  0
 12 22  1  0  0  0  0
 13 15  2  0  0  0  0
 13 23  1  0  0  0  0
 14 36  1  0  0  0  0
 15 37  1  0  0  0  0
 16 18  1  0  0  0  0
 16 20  1  0  0  0  0
 16 26  2  0  0  0  0
 17 19  1  0  0  0  0
 17 21  1  0  0  0  0
 17 27  2  0  0  0  0
 18 22  2  0  0  0  0
 19 23  2  0  0  0  0
 20 24  1  0  0  0  0
 20 30  2  0  0  0  0
 21 25  1  0  0  0  0
 21 31  2  0  0  0  0
 22 28  1  0  0  0  0
 23 29  1  0  0  0  0
 24 28  2  0  0  0  0
 24 56  1  0  0  0  0
 25 29  2  0  0  0  0
 25 57  1  0  0  0  0
 26 38  1  0  0  0  0
 26 58  1  0  0  0  0
 27 39  1  0  0  0  0
 27 59  1  0  0  0  0
 28 60  1  0  0  0  0
 29 61  1  0  0  0  0
 30 40  1  0  0  0  0
 30 62  1  0  0  0  0
 31 41  1  0  0  0  0
 31 63  1  0  0  0  0
 32 34  1  0  0  0  0
 32 36  1  0  0  0  0
 32 46  2  0  0  0  0
 33 35  1  0  0  0  0
 33 37  1  0  0  0  0
 33 47  2  0  0  0  0
 34 44  1  0  0  0  0
 34 48  2  0  0  0  0
 35 45  1  0  0  0  0
 35 49  2  0  0  0  0
 36 42  2  0  0  0  0
 37 43  2  0  0  0  0
 38 40  2  0  0  0  0
 38 64  1  0  0  0  0
 39 41  2  0  0  0  0
 39 65  1  0  0  0  0
 40 66  1  0  0  0  0
 41 67  1  0  0  0  0
 42 50  1  0  0  0  0
 43 51  1  0  0  0  0
 44 50  2  0  0  0  0
 44 68  1  0  0  0  0
 45 51  2  0  0  0  0
 45 69  1  0  0  0  0
 46 52  1  0  0  0  0
 46 70  1  0  0  0  0
 47 53  1  0  0  0  0
 47 71  1  0  0  0  0
 48 54  1  0  0  0  0
 48 72  1  0  0  0  0
 49 55  1  0  0  0  0
 49 73  1  0  0  0  0
 50 74  1  0  0  0  0
 51 75  1  0  0  0  0
 52 54  2  0  0  0  0
 52 76  1  0  0  0  0
 53 55  2  0  0  0  0
 53 77  1  0  0  0  0
 54 78  1  0  0  0  0
 55 79  1  0  0  0  0
M  CHG  3   1   2   4  -1   5  -1
M  END
> <PUBCHEM_COMPOUND_CID>
14199

> <PUBCHEM_COMPOUND_CANONICALIZED>
1

> <PUBCHEM_CACTVS_COMPLEXITY>
634

> <PUBCHEM_CACTVS_HBOND_ACCEPTOR>
12

> <PUBCHEM_CACTVS_HBOND_DONOR>
2

> <PUBCHEM_CACTVS_ROTATABLE_BOND>
4

> <PUBCHEM_CACTVS_SUBSKEYS>
AAADceB/vABgAAAAAAAEAAAAAAAAAAAAAAAwYMGDAAAAAADBVAAAHgQICAAADAyB2AAwx8AAAgKCAiRCQHDCAEAgIgAIiBQHbIgKJiKSkZOAcABkwBEI2AeQwLAOqAABwAAWEQBQAAOAACwiAAAAAAAAAA==

> <PUBCHEM_IUPAC_OPENEYE_NAME>
barium(2+); 2-[(2-hydroxy-1-naphthyl)azo]naphthalene-1-sulfonate

> <PUBCHEM_IUPAC_CAS_NAME>
barium(2+); 2-[(2-hydroxy-1-naphthalenyl)azo]-1-naphthalenesulfonate

> <PUBCHEM_IUPAC_NAME>
barium(2+); 2-[(2-hydroxynaphthalen-1-yl)diazenyl]naphthalene-1-sulfonate

> <PUBCHEM_IUPAC_SYSTEMATIC_NAME>
barium(2+); 2-[(2-oxidanylnaphthalen-1-yl)diazenyl]naphthalene-1-sulfonate

> <PUBCHEM_IUPAC_TRADITIONAL_NAME>
barium(2+); 2-[(2-hydroxy-1-naphthyl)azo]naphthalene-1-sulfonate

> <PUBCHEM_IUPAC_INCHI>
InChI=1S/2C20H14N2O4S.Ba/c2*23-18-12-10-13-5-1-3-7-15(13)19(18)22-21-17-11-9-14-6-2-4-8-16(14)20(17)27(24,25)26;/h2*1-12,23H,(H,24,25,26);/q;;+2/p-2

> <PUBCHEM_IUPAC_INCHIKEY>
LFZDEAVRTJKYAF-UHFFFAOYSA-L

> <PUBCHEM_EXACT_MASS>
892.024453

> <PUBCHEM_MOLECULAR_FORMULA>
C40H26BaN4O8S2

> <PUBCHEM_MOLECULAR_WEIGHT>
892.11344

> <PUBCHEM_OPENEYE_CAN_SMILES>
C1=CC=C2C(=C1)C=CC(=C2N=NC3=C(C4=CC=CC=C4C=C3)S(=O)(=O)[O-])O.C1=CC=C2C(=C1)C=CC(=C2N=NC3=C(C4=CC=CC=C4C=C3)S(=O)(=O)[O-])O.[Ba+2]

> <PUBCHEM_OPENEYE_ISO_SMILES>
C1=CC=C2C(=C1)C=CC(=C2N=NC3=C(C4=CC=CC=C4C=C3)S(=O)(=O)[O-])O.C1=CC=C2C(=C1)C=CC(=C2N=NC3=C(C4=CC=CC=C4C=C3)S(=O)(=O)[O-])O.[Ba+2]

> <PUBCHEM_CACTVS_TPSA>
221

> <PUBCHEM_MONOISOTOPIC_WEIGHT>
892.024453

> <PUBCHEM_TOTAL_CHARGE>
0

> <PUBCHEM_HEAVY_ATOM_COUNT>
55

> <PUBCHEM_ATOM_DEF_STEREO_COUNT>
0

> <PUBCHEM_ATOM_UDEF_STEREO_COUNT>
0

> <PUBCHEM_BOND_DEF_STEREO_COUNT>
0

> <PUBCHEM_BOND_UDEF_STEREO_COUNT>
0

> <PUBCHEM_ISOTOPIC_ATOM_COUNT>
0

> <PUBCHEM_COMPONENT_COUNT>
3

> <PUBCHEM_CACTVS_TAUTO_COUNT>
5

> <PUBCHEM_COORDINATE_TYPE>
1
5
255

> <PUBCHEM_BONDANNOTATIONS>
16  18  8
16  20  8
16  26  8
17  19  8
17  21  8
17  27  8
18  22  8
19  23  8
20  24  8
20  30  8
21  25  8
21  31  8
22  28  8
23  29  8
24  28  8
25  29  8
26  38  8
27  39  8
30  40  8
31  41  8
32  34  8
32  36  8
32  46  8
33  35  8
33  37  8
33  47  8
34  44  8
34  48  8
35  45  8
35  49  8
36  42  8
37  43  8
38  40  8
39  41  8
42  50  8
43  51  8
44  50  8
45  51  8
46  52  8
47  53  8
48  54  8
49  55  8
52  54  8
53  55  8

$$$$

