100492
  -OEChem-07051212592D

 44 48  0     0  0  0  0  0  0999 V2000
    8.7939   -1.3824    0.0000 O   0  0  0  0  0  0  0  0  0  0  0  0
    6.3981   -3.3824    0.0000 O   0  0  0  0  0  0  0  0  0  0  0  0
    8.0011    2.7846    0.0000 O   0  0  0  0  0  0  0  0  0  0  0  0
    6.6073    3.5894    0.0000 O   0  0  0  0  0  0  0  0  0  0  0  0
    2.8680   -0.3583    0.0000 O   0  0  0  0  0  0  0  0  0  0  0  0
    2.8680   -2.4066    0.0000 O   0  0  0  0  0  0  0  0  0  0  0  0
    8.5210    0.3728    0.0000 O   0  0  0  0  0  0  0  0  0  0  0  0
    6.3981   -0.3824    0.0000 C   0  0  0  0  0  0  0  0  0  0  0  0
    7.2641   -0.8824    0.0000 C   0  0  0  0  0  0  0  0  0  0  0  0
    7.2641   -1.8824    0.0000 C   0  0  0  0  0  0  0  0  0  0  0  0
    5.5320   -0.8824    0.0000 C   0  0  0  0  0  0  0  0  0  0  0  0
    5.5320   -1.8824    0.0000 C   0  0  0  0  0  0  0  0  0  0  0  0
    6.3981   -2.3824    0.0000 C   0  0  0  0  0  0  0  0  0  0  0  0
    6.3981    0.6176    0.0000 C   0  0  0  0  0  0  0  0  0  0  0  0
    8.2103   -2.1872    0.0000 C   0  0  0  0  0  0  0  0  0  0  0  0
    8.2103   -0.5777    0.0000 C   0  0  0  0  0  0  0  0  0  0  0  0
    4.6381   -0.3478    0.0000 C   0  0  0  0  0  0  0  0  0  0  0  0
    4.6381   -2.4171    0.0000 C   0  0  0  0  0  0  0  0  0  0  0  0
    7.2641    1.1176    0.0000 C   0  0  0  0  0  0  0  0  0  0  0  0
    3.7320   -0.8616    0.0000 C   0  0  0  0  0  0  0  0  0  0  0  0
    3.7320   -1.9032    0.0000 C   0  0  0  0  0  0  0  0  0  0  0  0
    5.5320    1.1176    0.0000 C   0  0  0  0  0  0  0  0  0  0  0  0
    7.2641    2.1176    0.0000 C   0  0  0  0  0  0  0  0  0  0  0  0
    6.3981    2.6176    0.0000 C   0  0  0  0  0  0  0  0  0  0  0  0
    5.5320    2.1176    0.0000 C   0  0  0  0  0  0  0  0  0  0  0  0
    7.5960    3.6924    0.0000 C   0  0  0  0  0  0  0  0  0  0  0  0
    2.0000   -0.8549    0.0000 C   0  0  0  0  0  0  0  0  0  0  0  0
    2.8718   -3.4066    0.0000 C   0  0  0  0  0  0  0  0  0  0  0  0
    7.9593   -2.7541    0.0000 H   0  0  0  0  0  0  0  0  0  0  0  0
    8.7477   -2.4964    0.0000 H   0  0  0  0  0  0  0  0  0  0  0  0
    4.6453    0.2722    0.0000 H   0  0  0  0  0  0  0  0  0  0  0  0
    4.6453   -3.0371    0.0000 H   0  0  0  0  0  0  0  0  0  0  0  0
    7.8010    0.8076    0.0000 H   0  0  0  0  0  0  0  0  0  0  0  0
    4.9951    0.8076    0.0000 H   0  0  0  0  0  0  0  0  0  0  0  0
    4.9951    2.4276    0.0000 H   0  0  0  0  0  0  0  0  0  0  0  0
    6.9350   -3.6924    0.0000 H   0  0  0  0  0  0  0  0  0  0  0  0
    8.1856    3.8842    0.0000 H   0  0  0  0  0  0  0  0  0  0  0  0
    7.4673    4.2989    0.0000 H   0  0  0  0  0  0  0  0  0  0  0  0
    1.6921   -0.3168    0.0000 H   0  0  0  0  0  0  0  0  0  0  0  0
    1.4619   -1.1629    0.0000 H   0  0  0  0  0  0  0  0  0  0  0  0
    2.3079   -1.3931    0.0000 H   0  0  0  0  0  0  0  0  0  0  0  0
    2.2518   -3.4090    0.0000 H   0  0  0  0  0  0  0  0  0  0  0  0
    2.8742   -4.0266    0.0000 H   0  0  0  0  0  0  0  0  0  0  0  0
    3.4918   -3.4042    0.0000 H   0  0  0  0  0  0  0  0  0  0  0  0
  1 15  1  0  0  0  0
  1 16  1  0  0  0  0
  2 13  1  0  0  0  0
  2 36  1  0  0  0  0
  3 23  1  0  0  0  0
  3 26  1  0  0  0  0
  4 24  1  0  0  0  0
  4 26  1  0  0  0  0
  5 20  1  0  0  0  0
  5 27  1  0  0  0  0
  6 21  1  0  0  0  0
  6 28  1  0  0  0  0
  7 16  2  0  0  0  0
  8  9  2  0  0  0  0
  8 11  1  0  0  0  0
  8 14  1  0  0  0  0
  9 10  1  0  0  0  0
  9 16  1  0  0  0  0
 10 13  2  0  0  0  0
 10 15  1  0  0  0  0
 11 12  1  0  0  0  0
 11 17  2  0  0  0  0
 12 13  1  0  0  0  0
 12 18  2  0  0  0  0
 14 19  2  0  0  0  0
 14 22  1  0  0  0  0
 15 29  1  0  0  0  0
 15 30  1  0  0  0  0
 17 20  1  0  0  0  0
 17 31  1  0  0  0  0
 18 21  1  0  0  0  0
 18 32  1  0  0  0  0
 19 23  1  0  0  0  0
 19 33  1  0  0  0  0
 20 21  2  0  0  0  0
 22 25  2  0  0  0  0
 22 34  1  0  0  0  0
 23 24  2  0  0  0  0
 24 25  1  0  0  0  0
 25 35  1  0  0  0  0
 26 37  1  0  0  0  0
 26 38  1  0  0  0  0
 27 39  1  0  0  0  0
 27 40  1  0  0  0  0
 27 41  1  0  0  0  0
 28 42  1  0  0  0  0
 28 43  1  0  0  0  0
 28 44  1  0  0  0  0
M  END
> <PUBCHEM_COMPOUND_CID>
100492

> <PUBCHEM_COMPOUND_CANONICALIZED>
1

> <PUBCHEM_CACTVS_COMPLEXITY>
597

> <PUBCHEM_CACTVS_HBOND_ACCEPTOR>
7

> <PUBCHEM_CACTVS_HBOND_DONOR>
1

> <PUBCHEM_CACTVS_ROTATABLE_BOND>
3

> <PUBCHEM_CACTVS_SUBSKEYS>
AAADceB4OAAAAAAAAAAAAAAAAAAAASJAAAAwYMAAAAAAAEjBVAAAGgAACAAADASgmAMyDsAABgCIAiDSCAACCAAkIAAIiAEGiMgdJzKGNRqicSIlwBEOuQfK6PyO4AADAAAYQADAAAYAADCAAAAAAAAAAA==

> <PUBCHEM_IUPAC_OPENEYE_NAME>
9-(1,3-benzodioxol-5-yl)-4-hydroxy-6,7-dimethoxy-3H-benzo[f]isobenzofuran-1-one

> <PUBCHEM_IUPAC_CAS_NAME>
9-(1,3-benzodioxol-5-yl)-4-hydroxy-6,7-dimethoxy-3H-benzo[f]isobenzofuran-1-one

> <PUBCHEM_IUPAC_NAME>
9-(1,3-benzodioxol-5-yl)-4-hydroxy-6,7-dimethoxy-3H-benzo[f][2]benzofuran-1-one

> <PUBCHEM_IUPAC_SYSTEMATIC_NAME>
9-(1,3-benzodioxol-5-yl)-6,7-dimethoxy-4-oxidanyl-3H-benzo[f][2]benzofuran-1-one

> <PUBCHEM_IUPAC_TRADITIONAL_NAME>
9-(1,3-benzodioxol-5-yl)-4-hydroxy-6,7-dimethoxy-3H-benz[f]isobenzofuran-1-one

> <PUBCHEM_IUPAC_INCHI>
InChI=1S/C21H16O7/c1-24-15-6-11-12(7-16(15)25-2)20(22)13-8-26-21(23)19(13)18(11)10-3-4-14-17(5-10)28-9-27-14/h3-7,22H,8-9H2,1-2H3

> <PUBCHEM_IUPAC_INCHIKEY>
VMEJANRODATDOF-UHFFFAOYSA-N

> <PUBCHEM_XLOGP3_AA>
3.6

> <PUBCHEM_EXACT_MASS>
380.089603

> <PUBCHEM_MOLECULAR_FORMULA>
C21H16O7

> <PUBCHEM_MOLECULAR_WEIGHT>
380.34754

> <PUBCHEM_OPENEYE_CAN_SMILES>
COC1=C(C=C2C(=C1)C(=C3C(=C2O)COC3=O)C4=CC5=C(C=C4)OCO5)OC

> <PUBCHEM_OPENEYE_ISO_SMILES>
COC1=C(C=C2C(=C1)C(=C3C(=C2O)COC3=O)C4=CC5=C(C=C4)OCO5)OC

> <PUBCHEM_CACTVS_TPSA>
83.4

> <PUBCHEM_MONOISOTOPIC_WEIGHT>
380.089603

> <PUBCHEM_TOTAL_CHARGE>
0

> <PUBCHEM_HEAVY_ATOM_COUNT>
28

> <PUBCHEM_ATOM_DEF_STEREO_COUNT>
0

> <PUBCHEM_ATOM_UDEF_STEREO_COUNT>
0

> <PUBCHEM_BOND_DEF_STEREO_COUNT>
0

> <PUBCHEM_BOND_UDEF_STEREO_COUNT>
0

> <PUBCHEM_ISOTOPIC_ATOM_COUNT>
0

> <PUBCHEM_COMPONENT_COUNT>
1

> <PUBCHEM_CACTVS_TAUTO_COUNT>
1

> <PUBCHEM_COORDINATE_TYPE>
1
5
255

> <PUBCHEM_BONDANNOTATIONS>
10  13  8
11  12  8
11  17  8
12  13  8
12  18  8
14  19  8
14  22  8
17  20  8
18  21  8
19  23  8
20  21  8
22  25  8
23  24  8
24  25  8
8  11  8
8  9  8
9  10  8

$$$$

