9576951
  -OEChem-07051213093D

 30 30  0     0  0  0  0  0  0999 V2000
    2.8886   -2.0084   -1.7293 O   0  0  0  0  0  0  0  0  0  0  0  0
    3.4258    2.2416    1.2218 O   0  0  0  0  0  0  0  0  0  0  0  0
    4.2594   -1.8959    0.0760 O   0  0  0  0  0  0  0  0  0  0  0  0
    3.9489    1.0540   -0.6760 O   0  0  0  0  0  0  0  0  0  0  0  0
   -1.6070    2.0600   -1.1757 O   0  0  0  0  0  0  0  0  0  0  0  0
    0.7756    1.2220   -0.1310 N   0  0  0  0  0  0  0  0  0  0  0  0
   -0.3854    0.5689    0.1070 N   0  0  0  0  0  0  0  0  0  0  0  0
   -5.1013   -1.0795    0.4438 N   0  0  0  0  0  0  0  0  0  0  0  0
    1.7914   -0.5063    1.2548 C   0  0  0  0  0  0  0  0  0  0  0  0
    1.8436   -1.7618    0.3876 C   0  0  0  0  0  0  0  0  0  0  0  0
    1.8528    0.7453    0.4103 C   0  0  0  0  0  0  0  0  0  0  0  0
    3.1317   -1.8912   -0.3968 C   0  0  0  0  0  0  0  0  0  0  0  0
   -2.7887    0.3134   -0.1449 C   0  0  0  0  0  0  0  0  0  0  0  0
    3.2102    1.3606    0.2364 C   0  0  0  0  0  0  0  0  0  0  0  0
   -1.5448    1.0623   -0.4617 C   0  0  0  0  0  0  0  0  0  0  0  0
   -3.8314    0.3455   -1.0400 C   0  0  0  0  0  0  0  0  0  0  0  0
   -2.8603   -0.3901    1.0338 C   0  0  0  0  0  0  0  0  0  0  0  0
   -4.9684   -0.3690   -0.6987 C   0  0  0  0  0  0  0  0  0  0  0  0
   -4.0409   -1.0716    1.2825 C   0  0  0  0  0  0  0  0  0  0  0  0
    2.6720   -0.4986    1.9114 H   0  0  0  0  0  0  0  0  0  0  0  0
    0.9403   -0.5093    1.9418 H   0  0  0  0  0  0  0  0  0  0  0  0
    0.9995   -1.7873   -0.3106 H   0  0  0  0  0  0  0  0  0  0  0  0
    1.7579   -2.6560    1.0152 H   0  0  0  0  0  0  0  0  0  0  0  0
   -0.3777   -0.3017    0.6172 H   0  0  0  0  0  0  0  0  0  0  0  0
   -3.7893    0.8911   -1.9755 H   0  0  0  0  0  0  0  0  0  0  0  0
   -2.0741   -0.4159    1.7782 H   0  0  0  0  0  0  0  0  0  0  0  0
   -5.8300   -0.3900   -1.3579 H   0  0  0  0  0  0  0  0  0  0  0  0
   -4.1715   -1.6418    2.1964 H   0  0  0  0  0  0  0  0  0  0  0  0
    3.7183   -2.0929   -2.2457 H   0  0  0  0  0  0  0  0  0  0  0  0
    4.3061    2.6687    1.1527 H   0  0  0  0  0  0  0  0  0  0  0  0
  1 12  1  0  0  0  0
  1 29  1  0  0  0  0
  2 14  1  0  0  0  0
  2 30  1  0  0  0  0
  3 12  2  0  0  0  0
  4 14  2  0  0  0  0
  5 15  2  0  0  0  0
  6  7  1  0  0  0  0
  6 11  2  0  0  0  0
  7 15  1  0  0  0  0
  7 24  1  0  0  0  0
  8 18  2  0  0  0  0
  8 19  1  0  0  0  0
  9 10  1  0  0  0  0
  9 11  1  0  0  0  0
  9 20  1  0  0  0  0
  9 21  1  0  0  0  0
 10 12  1  0  0  0  0
 10 22  1  0  0  0  0
 10 23  1  0  0  0  0
 11 14  1  0  0  0  0
 13 15  1  0  0  0  0
 13 16  2  0  0  0  0
 13 17  1  0  0  0  0
 16 18  1  0  0  0  0
 16 25  1  0  0  0  0
 17 19  2  0  0  0  0
 17 26  1  0  0  0  0
 18 27  1  0  0  0  0
 19 28  1  0  0  0  0
M  END
> <PUBCHEM_COMPOUND_CID>
9576951

> <PUBCHEM_CONFORMER_RMSD>
0.8

> <PUBCHEM_CONFORMER_DIVERSEORDER>
4
3
5
13
11
14
15
10
18
17
6
16
12
8
2
9
7
19
1

> <PUBCHEM_MMFF94_PARTIAL_CHARGES>
26
1 -0.65
10 0.06
11 0.39
12 0.66
13 0.09
14 0.72
15 0.54
16 -0.15
17 -0.15
18 0.16
19 0.16
2 -0.65
24 0.37
25 0.15
26 0.15
27 0.15
28 0.15
29 0.5
3 -0.57
30 0.5
4 -0.57
5 -0.57
6 -0.51
7 -0.37
8 -0.62
9 0.06

> <PUBCHEM_EFFECTIVE_ROTOR_COUNT>
7

> <PUBCHEM_PHARMACOPHORE_FEATURES>
11
1 1 acceptor
1 2 acceptor
1 3 acceptor
1 4 acceptor
1 5 acceptor
1 6 acceptor
1 7 donor
1 8 acceptor
3 1 3 12 anion
3 2 4 14 anion
6 8 13 16 17 18 19 rings

> <PUBCHEM_HEAVY_ATOM_COUNT>
19

> <PUBCHEM_ATOM_DEF_STEREO_COUNT>
0

> <PUBCHEM_ATOM_UDEF_STEREO_COUNT>
0

> <PUBCHEM_BOND_DEF_STEREO_COUNT>
1

> <PUBCHEM_BOND_UDEF_STEREO_COUNT>
0

> <PUBCHEM_ISOTOPIC_ATOM_COUNT>
0

> <PUBCHEM_COMPONENT_COUNT>
1

> <PUBCHEM_CACTVS_TAUTO_COUNT>
3

> <PUBCHEM_CONFORMER_ID>
009221F700000004

> <PUBCHEM_MMFF94_ENERGY>
50.1168

> <PUBCHEM_FEATURE_SELFOVERLAP>
55.935

> <PUBCHEM_SHAPE_FINGERPRINT>
11405975 8 18338519775869993345
12596602 18 16009039358076105867
13296908 3 18273215313561569433
13533116 47 17894632552666278395
13583140 156 15864648283187064923
13911882 115 18269546152765045027
13955234 65 18260554394413300170
14252887 29 18341327808249986289
14386348 63 18130787837343278443
15375358 24 17917438583862288025
15635459 17 18343302548228815235
18186145 218 17917433167829438873
20279233 1 17846502521680858449
20645477 70 18334867137980759847
20693207 138 18272373126135358293
221490 88 18341048622675402082
23557571 272 17704080611313149173
23559900 14 18060143171101511028
23596394 208 18272655670395446990
239999 70 18272089383526769218
2871803 45 18131354128459541619
312423 11 18188479267839165913
3323516 105 18410848863512075798
5104073 3 18340491148684250489
6049 1 18270402805504024076
9709674 26 18273500057135051369

> <PUBCHEM_SHAPE_MULTIPOLES>
346.72
10.34
2.19
1.24
5.8
0.1
-0.05
2.75
-0.38
-2.56
-0.2
0.04
0.18
1.62

> <PUBCHEM_SHAPE_SELFOVERLAP>
719.612

> <PUBCHEM_SHAPE_VOLUME>
194.4

> <PUBCHEM_COORDINATE_TYPE>
2
5
10

$$$$

