122841
  -OEChem-07051213002D

 32 32  0     0  0  0  0  0  0999 V2000
    4.2690   -2.7500    0.0000 O   0  0  0  0  0  0  0  0  0  0  0  0
    2.5369    0.2500    0.0000 O   0  0  0  0  0  0  0  0  0  0  0  0
    6.0010    0.2500    0.0000 O   0  0  0  0  0  0  0  0  0  0  0  0
    3.4030    1.7500    0.0000 O   0  0  0  0  0  0  0  0  0  0  0  0
    4.2690    0.2500    0.0000 C   0  0  0  0  0  0  0  0  0  0  0  0
    5.1350    1.7500    0.0000 C   0  0  0  0  0  0  0  0  0  0  0  0
    4.2690    1.2500    0.0000 C   0  0  0  0  0  0  0  0  0  0  0  0
    3.4030   -1.2500    0.0000 C   0  0  0  0  0  0  0  0  0  0  0  0
    3.4030   -0.2500    0.0000 C   0  0  0  0  0  0  0  0  0  0  0  0
    5.1350    2.7500    0.0000 C   0  0  0  0  0  0  0  0  0  0  0  0
    5.1350   -0.2500    0.0000 C   0  0  0  0  0  0  0  0  0  0  0  0
    4.2690   -1.7500    0.0000 C   0  0  0  0  0  0  0  0  0  0  0  0
    5.1350   -1.2500    0.0000 C   0  0  0  0  0  0  0  0  0  0  0  0
    2.5369   -1.7500    0.0000 C   0  0  0  0  0  0  0  0  0  0  0  0
    6.0010    3.2500    0.0000 C   0  0  0  0  0  0  0  0  0  0  0  0
    5.1350   -3.2500    0.0000 C   0  0  0  0  0  0  0  0  0  0  0  0
    5.3471    1.1674    0.0000 H   0  0  0  0  0  0  0  0  0  0  0  0
    5.7456    1.8577    0.0000 H   0  0  0  0  0  0  0  0  0  0  0  0
    4.9230    3.3326    0.0000 H   0  0  0  0  0  0  0  0  0  0  0  0
    4.5244    2.6423    0.0000 H   0  0  0  0  0  0  0  0  0  0  0  0
    5.6720   -1.5600    0.0000 H   0  0  0  0  0  0  0  0  0  0  0  0
    2.2269   -1.2131    0.0000 H   0  0  0  0  0  0  0  0  0  0  0  0
    2.0000   -2.0600    0.0000 H   0  0  0  0  0  0  0  0  0  0  0  0
    2.8469   -2.2869    0.0000 H   0  0  0  0  0  0  0  0  0  0  0  0
    6.3110    2.7131    0.0000 H   0  0  0  0  0  0  0  0  0  0  0  0
    6.5380    3.5600    0.0000 H   0  0  0  0  0  0  0  0  0  0  0  0
    5.6910    3.7869    0.0000 H   0  0  0  0  0  0  0  0  0  0  0  0
    2.0000   -0.0600    0.0000 H   0  0  0  0  0  0  0  0  0  0  0  0
    6.5380   -0.0600    0.0000 H   0  0  0  0  0  0  0  0  0  0  0  0
    4.8250   -3.7869    0.0000 H   0  0  0  0  0  0  0  0  0  0  0  0
    5.6720   -3.5600    0.0000 H   0  0  0  0  0  0  0  0  0  0  0  0
    5.4450   -2.7131    0.0000 H   0  0  0  0  0  0  0  0  0  0  0  0
  1 12  1  0  0  0  0
  1 16  1  0  0  0  0
  2  9  1  0  0  0  0
  2 28  1  0  0  0  0
  3 11  1  0  0  0  0
  3 29  1  0  0  0  0
  4  7  2  0  0  0  0
  5  7  1  0  0  0  0
  5  9  2  0  0  0  0
  5 11  1  0  0  0  0
  6  7  1  0  0  0  0
  6 10  1  0  0  0  0
  6 17  1  0  0  0  0
  6 18  1  0  0  0  0
  8  9  1  0  0  0  0
  8 12  2  0  0  0  0
  8 14  1  0  0  0  0
 10 15  1  0  0  0  0
 10 19  1  0  0  0  0
 10 20  1  0  0  0  0
 11 13  2  0  0  0  0
 12 13  1  0  0  0  0
 13 21  1  0  0  0  0
 14 22  1  0  0  0  0
 14 23  1  0  0  0  0
 14 24  1  0  0  0  0
 15 25  1  0  0  0  0
 15 26  1  0  0  0  0
 15 27  1  0  0  0  0
 16 30  1  0  0  0  0
 16 31  1  0  0  0  0
 16 32  1  0  0  0  0
M  END
> <PUBCHEM_COMPOUND_CID>
122841

> <PUBCHEM_COMPOUND_CANONICALIZED>
1

> <PUBCHEM_CACTVS_COMPLEXITY>
241

> <PUBCHEM_CACTVS_HBOND_ACCEPTOR>
4

> <PUBCHEM_CACTVS_HBOND_DONOR>
2

> <PUBCHEM_CACTVS_ROTATABLE_BOND>
4

> <PUBCHEM_CACTVS_SUBSKEYS>
AAADceBwOAAAAAAAAAAAAAAAAAAAAAAAAAAwAAAAAAAAAAABAAAAGgAACAAADASAmAIyBoAABgCIAqBSAAACCAAkIAAAiAEGCMgMJzaGNBqAcWAl4BUIuQeI7OzOIAACCAAIAABAAAQQABAAAAAAAAAAAA==

> <PUBCHEM_IUPAC_OPENEYE_NAME>
1-(2,6-dihydroxy-4-methoxy-3-methyl-phenyl)butan-1-one

> <PUBCHEM_IUPAC_CAS_NAME>
1-(2,6-dihydroxy-4-methoxy-3-methylphenyl)-1-butanone

> <PUBCHEM_IUPAC_NAME>
1-(2,6-dihydroxy-4-methoxy-3-methylphenyl)butan-1-one

> <PUBCHEM_IUPAC_SYSTEMATIC_NAME>
1-[4-methoxy-3-methyl-2,6-bis(oxidanyl)phenyl]butan-1-one

> <PUBCHEM_IUPAC_TRADITIONAL_NAME>
1-(2,6-dihydroxy-4-methoxy-3-methyl-phenyl)butan-1-one

> <PUBCHEM_IUPAC_INCHI>
InChI=1S/C12H16O4/c1-4-5-8(13)11-9(14)6-10(16-3)7(2)12(11)15/h6,14-15H,4-5H2,1-3H3

> <PUBCHEM_IUPAC_INCHIKEY>
GJRJTYFSORWKBE-UHFFFAOYSA-N

> <PUBCHEM_XLOGP3_AA>
2.6

> <PUBCHEM_EXACT_MASS>
224.104859

> <PUBCHEM_MOLECULAR_FORMULA>
C12H16O4

> <PUBCHEM_MOLECULAR_WEIGHT>
224.25304

> <PUBCHEM_OPENEYE_CAN_SMILES>
CCCC(=O)C1=C(C(=C(C=C1O)OC)C)O

> <PUBCHEM_OPENEYE_ISO_SMILES>
CCCC(=O)C1=C(C(=C(C=C1O)OC)C)O

> <PUBCHEM_CACTVS_TPSA>
66.8

> <PUBCHEM_MONOISOTOPIC_WEIGHT>
224.104859

> <PUBCHEM_TOTAL_CHARGE>
0

> <PUBCHEM_HEAVY_ATOM_COUNT>
16

> <PUBCHEM_ATOM_DEF_STEREO_COUNT>
0

> <PUBCHEM_ATOM_UDEF_STEREO_COUNT>
0

> <PUBCHEM_BOND_DEF_STEREO_COUNT>
0

> <PUBCHEM_BOND_UDEF_STEREO_COUNT>
0

> <PUBCHEM_ISOTOPIC_ATOM_COUNT>
0

> <PUBCHEM_COMPONENT_COUNT>
1

> <PUBCHEM_CACTVS_TAUTO_COUNT>
22

> <PUBCHEM_COORDINATE_TYPE>
1
5
255

> <PUBCHEM_BONDANNOTATIONS>
11  13  8
12  13  8
5  11  8
5  9  8
8  12  8
8  9  8

$$$$

