14994
  -OEChem-07051213123D

 29 29  0     0  0  0  0  0  0999 V2000
   -1.6808   -1.8650   -0.0037 O   0  0  0  0  0  0  0  0  0  0  0  0
    2.2274   -2.9852   -0.0047 O   0  5  0  0  0  0  0  0  0  0  0  0
    0.1053   -3.5475   -0.0047 O   0  0  0  0  0  0  0  0  0  0  0  0
    2.0073    3.2153    0.0002 O   0  5  0  0  0  0  0  0  0  0  0  0
    3.5331    1.6371   -0.0006 O   0  0  0  0  0  0  0  0  0  0  0  0
    1.0112   -2.6808   -0.0044 N   0  3  0  0  0  0  0  0  0  0  0  0
    2.3331    2.0037   -0.0007 N   0  3  0  0  0  0  0  0  0  0  0  0
   -2.4616    0.8626   -0.0015 C   0  0  0  0  0  0  0  0  0  0  0  0
   -0.9895    0.4184   -0.0018 C   0  0  0  0  0  0  0  0  0  0  0  0
   -2.5389    2.4047   -0.0004 C   0  0  0  0  0  0  0  0  0  0  0  0
   -3.1685    0.3179    1.2586 C   0  0  0  0  0  0  0  0  0  0  0  0
   -3.2646    0.3664   -1.2252 C   0  0  0  0  0  0  0  0  0  0  0  0
   -0.6939   -0.9220   -0.0028 C   0  0  0  0  0  0  0  0  0  0  0  0
   -0.0288    1.4006   -0.0012 C   0  0  0  0  0  0  0  0  0  0  0  0
    0.6470   -1.3061   -0.0032 C   0  0  0  0  0  0  0  0  0  0  0  0
    1.3121    1.0166   -0.0014 C   0  0  0  0  0  0  0  0  0  0  0  0
    1.6500   -0.3367   -0.0024 C   0  0  0  0  0  0  0  0  0  0  0  0
   -3.5899    2.7244    0.0109 H   0  0  0  0  0  0  0  0  0  0  0  0
   -2.0942    2.8521    0.8969 H   0  0  0  0  0  0  0  0  0  0  0  0
   -2.1070    2.8537   -0.9031 H   0  0  0  0  0  0  0  0  0  0  0  0
   -2.6044    0.5672    2.1655 H   0  0  0  0  0  0  0  0  0  0  0  0
   -4.1646    0.7651    1.3646 H   0  0  0  0  0  0  0  0  0  0  0  0
   -3.3204   -0.7645    1.2507 H   0  0  0  0  0  0  0  0  0  0  0  0
   -4.2781    0.7848   -1.2287 H   0  0  0  0  0  0  0  0  0  0  0  0
   -2.7761    0.6720   -2.1580 H   0  0  0  0  0  0  0  0  0  0  0  0
   -3.3733   -0.7212   -1.2586 H   0  0  0  0  0  0  0  0  0  0  0  0
   -0.2413    2.4597   -0.0020 H   0  0  0  0  0  0  0  0  0  0  0  0
    2.6965   -0.6328   -0.0027 H   0  0  0  0  0  0  0  0  0  0  0  0
   -1.3673   -2.6818   -0.4216 H   0  0  0  0  0  0  0  0  0  0  0  0
  1 13  1  0  0  0  0
  1 29  1  0  0  0  0
  2  6  1  0  0  0  0
  3  6  2  0  0  0  0
  4  7  1  0  0  0  0
  5  7  2  0  0  0  0
  6 15  1  0  0  0  0
  7 16  1  0  0  0  0
  8  9  1  0  0  0  0
  8 10  1  0  0  0  0
  8 11  1  0  0  0  0
  8 12  1  0  0  0  0
  9 13  2  0  0  0  0
  9 14  1  0  0  0  0
 10 18  1  0  0  0  0
 10 19  1  0  0  0  0
 10 20  1  0  0  0  0
 11 21  1  0  0  0  0
 11 22  1  0  0  0  0
 11 23  1  0  0  0  0
 12 24  1  0  0  0  0
 12 25  1  0  0  0  0
 12 26  1  0  0  0  0
 13 15  1  0  0  0  0
 14 16  2  0  0  0  0
 14 27  1  0  0  0  0
 15 17  2  0  0  0  0
 16 17  1  0  0  0  0
 17 28  1  0  0  0  0
M  CHG  4   2  -1   4  -1   6   1   7   1
M  END
> <PUBCHEM_COMPOUND_CID>
14994

> <PUBCHEM_CONFORMER_RMSD>
0.6

> <PUBCHEM_CONFORMER_DIVERSEORDER>
1

> <PUBCHEM_MMFF94_PARTIAL_CHARGES>
17
1 -0.53
13 0.08
14 -0.15
15 0.13
16 0.13
17 -0.15
2 -0.52
27 0.15
28 0.15
29 0.45
3 -0.52
4 -0.52
5 -0.52
6 0.91
7 0.91
8 0.14
9 -0.14

> <PUBCHEM_EFFECTIVE_ROTOR_COUNT>
3

> <PUBCHEM_PHARMACOPHORE_FEATURES>
9
1 1 donor
1 2 acceptor
1 2 anion
1 3 acceptor
1 4 acceptor
1 4 anion
1 5 acceptor
4 8 10 11 12 hydrophobe
6 9 13 14 15 16 17 rings

> <PUBCHEM_HEAVY_ATOM_COUNT>
17

> <PUBCHEM_ATOM_DEF_STEREO_COUNT>
0

> <PUBCHEM_ATOM_UDEF_STEREO_COUNT>
0

> <PUBCHEM_BOND_DEF_STEREO_COUNT>
0

> <PUBCHEM_BOND_UDEF_STEREO_COUNT>
0

> <PUBCHEM_ISOTOPIC_ATOM_COUNT>
0

> <PUBCHEM_COMPONENT_COUNT>
1

> <PUBCHEM_CACTVS_TAUTO_COUNT>
6

> <PUBCHEM_CONFORMER_ID>
00003A9200000001

> <PUBCHEM_MMFF94_ENERGY>
73.6278

> <PUBCHEM_FEATURE_SELFOVERLAP>
45.832

> <PUBCHEM_SHAPE_FINGERPRINT>
1 1 18411134736139795284
10967382 1 18338517555171096668
12553582 1 17762055849469732271
12759256 9 18265334099960367411
13132413 78 17759241082343109716
13140716 1 18338515235820101032
13380535 76 18340776952665773584
14614273 12 18199196083516335247
14648413 74 18196932390827755769
14790565 3 17835507229731886889
14817 1 8480981734457085241
15042514 8 17908421355727236954
15309172 13 18267013973470929689
15490181 7 18410001118255771503
15490181 8 18411429405371999275
16945 1 18410574019695883785
17990270 104 18196093476292847465
193761 8 18410573993889455559
19591789 44 18266729182531494554
20510252 161 17902509281404031088
20645477 70 18270410494143979693
21041028 32 17833535066105519569
21160774 45 17835807395983867495
21524375 3 18187927209943795716
2334 1 18194683657288026980
23402539 116 17684935700012167199
23419403 2 17410725454719585954
23552423 10 18264213672057936461
23557571 272 17038647082059445788
23598291 2 17896885554690842781
2748010 2 18268421348053471190
305870 269 18410855481714164336
3071541 12 18265894837984486820
3071541 158 17911233141766338836
3091708 16 9118381316728381442
31174 14 18196911457457439465
34934 24 17547017789146456235
352729 6 18194684761289898312
43471831 8 18340489950208863746
458136 41 18267840866122967745
54173680 148 17618785752175470274
7364860 26 18338236092989545632
7832392 63 17832149694492293685
81228 2 17401484849493078848

> <PUBCHEM_SHAPE_MULTIPOLES>
310.54
4.68
3.73
0.78
1.82
0.36
0.01
-1.13
-0.04
-3.45
-0.01
0.69
0.05
0.01

> <PUBCHEM_SHAPE_SELFOVERLAP>
657.03

> <PUBCHEM_SHAPE_VOLUME>
175.8

> <PUBCHEM_COORDINATE_TYPE>
2
5
10

$$$$

