5281226
  -OEChem-07051212553D

 59 58  0     0  0  0  0  0  0999 V2000
    8.0109    3.9987   -0.2963 O   0  0  0  0  0  0  0  0  0  0  0  0
    5.9162    3.0784   -0.5695 O   0  0  0  0  0  0  0  0  0  0  0  0
  -11.9691    1.2662   -0.2409 O   0  0  0  0  0  0  0  0  0  0  0  0
  -10.9789   -0.5403   -1.2012 O   0  0  0  0  0  0  0  0  0  0  0  0
    3.2576   -3.1062   -0.2595 C   0  0  0  0  0  0  0  0  0  0  0  0
   -2.3208   -0.4623    0.4096 C   0  0  0  0  0  0  0  0  0  0  0  0
    2.3290   -2.2127    0.1360 C   0  0  0  0  0  0  0  0  0  0  0  0
    4.6818   -3.0366    0.0316 C   0  0  0  0  0  0  0  0  0  0  0  0
   -1.3673   -1.3402    0.0290 C   0  0  0  0  0  0  0  0  0  0  0  0
   -3.7392   -0.5934    0.0725 C   0  0  0  0  0  0  0  0  0  0  0  0
    7.6533   -0.8131    0.2926 C   0  0  0  0  0  0  0  0  0  0  0  0
    0.9046   -2.2480   -0.1337 C   0  0  0  0  0  0  0  0  0  0  0  0
    0.0561   -1.3045    0.3069 C   0  0  0  0  0  0  0  0  0  0  0  0
    2.8628   -4.3277   -1.0475 C   0  0  0  0  0  0  0  0  0  0  0  0
    5.4067   -1.9057    0.0145 C   0  0  0  0  0  0  0  0  0  0  0  0
   -1.9081    0.7348    1.2351 C   0  0  0  0  0  0  0  0  0  0  0  0
    6.8309   -1.8844    0.2828 C   0  0  0  0  0  0  0  0  0  0  0  0
   -7.1764    0.8128    0.3380 C   0  0  0  0  0  0  0  0  0  0  0  0
   -4.7251    0.2506    0.4259 C   0  0  0  0  0  0  0  0  0  0  0  0
   -6.1091    0.0390    0.0434 C   0  0  0  0  0  0  0  0  0  0  0  0
    9.1330   -0.8743    0.5806 C   0  0  0  0  0  0  0  0  0  0  0  0
   -7.1159    2.0831    1.1495 C   0  0  0  0  0  0  0  0  0  0  0  0
    7.0790    0.5069    0.0023 C   0  0  0  0  0  0  0  0  0  0  0  0
   -8.4933    0.3986   -0.1608 C   0  0  0  0  0  0  0  0  0  0  0  0
    7.7432    1.6732   -0.0311 C   0  0  0  0  0  0  0  0  0  0  0  0
   -9.6560    1.0401    0.0331 C   0  0  0  0  0  0  0  0  0  0  0  0
    7.1127    2.9813   -0.3294 C   0  0  0  0  0  0  0  0  0  0  0  0
  -10.9022    0.4850   -0.5416 C   0  0  0  0  0  0  0  0  0  0  0  0
    7.4836    5.3008   -0.5719 C   0  0  0  0  0  0  0  0  0  0  0  0
    2.6597   -1.3578    0.7257 H   0  0  0  0  0  0  0  0  0  0  0  0
    5.1644   -3.9868    0.2522 H   0  0  0  0  0  0  0  0  0  0  0  0
   -1.6887   -2.1962   -0.5659 H   0  0  0  0  0  0  0  0  0  0  0  0
   -3.9880   -1.4708   -0.5238 H   0  0  0  0  0  0  0  0  0  0  0  0
    0.5130   -3.0809   -0.7093 H   0  0  0  0  0  0  0  0  0  0  0  0
    0.4679   -0.4862    0.8843 H   0  0  0  0  0  0  0  0  0  0  0  0
    2.5227   -5.1224   -0.3749 H   0  0  0  0  0  0  0  0  0  0  0  0
    3.7084   -4.7203   -1.6257 H   0  0  0  0  0  0  0  0  0  0  0  0
    2.0789   -4.1212   -1.7825 H   0  0  0  0  0  0  0  0  0  0  0  0
    4.8883   -0.9880   -0.2312 H   0  0  0  0  0  0  0  0  0  0  0  0
   -2.4410    0.7294    2.1936 H   0  0  0  0  0  0  0  0  0  0  0  0
   -2.1641    1.6602    0.7054 H   0  0  0  0  0  0  0  0  0  0  0  0
   -0.8513    0.8168    1.4846 H   0  0  0  0  0  0  0  0  0  0  0  0
    7.2755   -2.8551    0.5011 H   0  0  0  0  0  0  0  0  0  0  0  0
   -4.4982    1.1283    1.0182 H   0  0  0  0  0  0  0  0  0  0  0  0
   -6.2718   -0.8602   -0.5524 H   0  0  0  0  0  0  0  0  0  0  0  0
    9.7145   -0.5161   -0.2755 H   0  0  0  0  0  0  0  0  0  0  0  0
    9.4535   -1.9026    0.7817 H   0  0  0  0  0  0  0  0  0  0  0  0
    9.3857   -0.2783    1.4639 H   0  0  0  0  0  0  0  0  0  0  0  0
   -6.1124    2.3405    1.4938 H   0  0  0  0  0  0  0  0  0  0  0  0
   -7.4700    2.9339    0.5566 H   0  0  0  0  0  0  0  0  0  0  0  0
   -7.7402    1.9953    2.0459 H   0  0  0  0  0  0  0  0  0  0  0  0
    6.0194    0.5805   -0.2070 H   0  0  0  0  0  0  0  0  0  0  0  0
   -8.4999   -0.5226   -0.7423 H   0  0  0  0  0  0  0  0  0  0  0  0
    8.8106    1.7154    0.1652 H   0  0  0  0  0  0  0  0  0  0  0  0
   -9.7355    1.9610    0.5989 H   0  0  0  0  0  0  0  0  0  0  0  0
    7.0607    5.3323   -1.5807 H   0  0  0  0  0  0  0  0  0  0  0  0
    6.7281    5.5688    0.1728 H   0  0  0  0  0  0  0  0  0  0  0  0
    8.3051    6.0197   -0.5131 H   0  0  0  0  0  0  0  0  0  0  0  0
  -12.8022    0.9090   -0.6158 H   0  0  0  0  0  0  0  0  0  0  0  0
  1 27  1  0  0  0  0
  1 29  1  0  0  0  0
  2 27  2  0  0  0  0
  3 28  1  0  0  0  0
  3 59  1  0  0  0  0
  4 28  2  0  0  0  0
  5  7  2  0  0  0  0
  5  8  1  0  0  0  0
  5 14  1  0  0  0  0
  6  9  2  0  0  0  0
  6 10  1  0  0  0  0
  6 16  1  0  0  0  0
  7 12  1  0  0  0  0
  7 30  1  0  0  0  0
  8 15  2  0  0  0  0
  8 31  1  0  0  0  0
  9 13  1  0  0  0  0
  9 32  1  0  0  0  0
 10 19  2  0  0  0  0
 10 33  1  0  0  0  0
 11 17  2  0  0  0  0
 11 21  1  0  0  0  0
 11 23  1  0  0  0  0
 12 13  2  0  0  0  0
 12 34  1  0  0  0  0
 13 35  1  0  0  0  0
 14 36  1  0  0  0  0
 14 37  1  0  0  0  0
 14 38  1  0  0  0  0
 15 17  1  0  0  0  0
 15 39  1  0  0  0  0
 16 40  1  0  0  0  0
 16 41  1  0  0  0  0
 16 42  1  0  0  0  0
 17 43  1  0  0  0  0
 18 20  2  0  0  0  0
 18 22  1  0  0  0  0
 18 24  1  0  0  0  0
 19 20  1  0  0  0  0
 19 44  1  0  0  0  0
 20 45  1  0  0  0  0
 21 46  1  0  0  0  0
 21 47  1  0  0  0  0
 21 48  1  0  0  0  0
 22 49  1  0  0  0  0
 22 50  1  0  0  0  0
 22 51  1  0  0  0  0
 23 25  2  0  0  0  0
 23 52  1  0  0  0  0
 24 26  2  0  0  0  0
 24 53  1  0  0  0  0
 25 27  1  0  0  0  0
 25 54  1  0  0  0  0
 26 28  1  0  0  0  0
 26 55  1  0  0  0  0
 29 56  1  0  0  0  0
 29 57  1  0  0  0  0
 29 58  1  0  0  0  0
M  END
> <PUBCHEM_COMPOUND_CID>
5281226

> <PUBCHEM_CONFORMER_RMSD>
1

> <PUBCHEM_CONFORMER_DIVERSEORDER>
1
118
13
36
31
9
14
93
35
37
96
109
16
105
53
39
10
33
83
50
69
18
100
38
5
15
21
25
30
95
103
92
22
81
46
57
115
85
49
32
28
101
6
110
114
8
29
11
77
23
45
119
42
34
89
27
99
2
40
4
62
113
88
94
82
73
7
59
51
79
78
17
111
41
44
87
72
61
19
90
66
3
117
52
116
91
102
75
71
48
54
65
76
70
20
68
67
107
58
64
104
43
108
86
84
98
63
24
26
60
12
47
106
74
55
80
56
112
97

> <PUBCHEM_MMFF94_PARTIAL_CHARGES>
44
1 -0.43
10 -0.15
11 -0.14
12 -0.15
13 -0.15
14 0.14
15 -0.15
16 0.14
17 -0.15
18 -0.14
19 -0.15
2 -0.57
20 -0.15
21 0.14
22 0.14
23 -0.15
24 -0.15
25 -0.14
26 -0.14
27 0.71
28 0.71
29 0.28
3 -0.65
30 0.15
31 0.15
32 0.15
33 0.15
34 0.15
35 0.15
39 0.15
4 -0.57
43 0.15
44 0.15
45 0.15
5 -0.14
52 0.15
53 0.15
54 0.15
55 0.15
59 0.5
6 -0.14
7 -0.15
8 -0.15
9 -0.15

> <PUBCHEM_EFFECTIVE_ROTOR_COUNT>
11

> <PUBCHEM_PHARMACOPHORE_FEATURES>
8
1 14 hydrophobe
1 16 hydrophobe
1 2 acceptor
1 21 hydrophobe
1 22 hydrophobe
1 3 acceptor
1 4 acceptor
3 3 4 28 anion

> <PUBCHEM_HEAVY_ATOM_COUNT>
29

> <PUBCHEM_ATOM_DEF_STEREO_COUNT>
0

> <PUBCHEM_ATOM_UDEF_STEREO_COUNT>
0

> <PUBCHEM_BOND_DEF_STEREO_COUNT>
9

> <PUBCHEM_BOND_UDEF_STEREO_COUNT>
0

> <PUBCHEM_ISOTOPIC_ATOM_COUNT>
0

> <PUBCHEM_COMPONENT_COUNT>
1

> <PUBCHEM_CACTVS_TAUTO_COUNT>
1

> <PUBCHEM_CONFORMER_ID>
005095CA00000001

> <PUBCHEM_MMFF94_ENERGY>
69.5449

> <PUBCHEM_FEATURE_SELFOVERLAP>
40.652

> <PUBCHEM_SHAPE_FINGERPRINT>
10168742 298 15357694193299307949
10533779 1 18262803948651011016
11135609 127 18410292506486681574
11374522 174 17913758437636868052
11578821 258 18337673147965120725
11828042 163 18338224966486684284
11828042 206 18341335609045323861
11966995 178 16877954823042528171
12144603 126 18113904879544337551
12888983 3 17916599746569331060
14142895 15 18408323285409037215
15145344 44 18260545640727625977
155225 6 18267861684910957420
15840311 113 18411416228998170870
16120349 18 18411419526989513826
16728433 110 18412824712552666889
17686467 74 18202278131332860817
20771845 171 17313659451771416150
21049683 271 17894636993561950761
21362267 2 18271538541530138093
21781055 127 13901911150608405805
21792934 111 17561080323621874278
444735 82 18409727400195816744
54583773 228 18334858278239012903
6057620 51 18041279980435116211
67123 10 18261114119268794419

> <PUBCHEM_SHAPE_MULTIPOLES>
573.33
44.1
5.15
0.86
89.91
4.43
-0.03
31.96
5.53
-20.17
1.57
0.59
0.03
-2.24

> <PUBCHEM_SHAPE_SELFOVERLAP>
1134.728

> <PUBCHEM_SHAPE_VOLUME>
338.6

> <PUBCHEM_COORDINATE_TYPE>
2
5
10

$$$$

