5336
  -OEChem-06261200383D

 28 29  0     0  0  0  0  0  0999 V2000
    0.0984    2.1440   -0.1214 S   0  0  0  0  0  0  0  0  0  0  0  0
   -0.4882    3.2723    0.5921 O   0  0  0  0  0  0  0  0  0  0  0  0
    0.5709    2.3448   -1.4858 O   0  0  0  0  0  0  0  0  0  0  0  0
    1.3760    1.5071    0.8433 N   0  0  0  0  0  0  0  0  0  0  0  0
    2.5643    0.1383   -0.6665 N   0  0  0  0  0  0  0  0  0  0  0  0
   -3.8853   -2.2705   -0.1165 N   0  0  0  0  0  0  0  0  0  0  0  0
   -1.0712    0.8476   -0.1200 C   0  0  0  0  0  0  0  0  0  0  0  0
   -2.0529    0.7952    0.8696 C   0  0  0  0  0  0  0  0  0  0  0  0
   -1.0239   -0.1357   -1.1083 C   0  0  0  0  0  0  0  0  0  0  0  0
    1.8995    0.2115    0.5032 C   0  0  0  0  0  0  0  0  0  0  0  0
   -2.9400   -1.2237   -0.1170 C   0  0  0  0  0  0  0  0  0  0  0  0
   -2.9872   -0.2405    0.8710 C   0  0  0  0  0  0  0  0  0  0  0  0
   -1.9583   -1.1713   -1.1067 C   0  0  0  0  0  0  0  0  0  0  0  0
    1.6996   -0.8496    1.3637 C   0  0  0  0  0  0  0  0  0  0  0  0
    2.2231   -2.0837    0.9948 C   0  0  0  0  0  0  0  0  0  0  0  0
    2.9168   -2.2083   -0.2038 C   0  0  0  0  0  0  0  0  0  0  0  0
    3.0585   -1.0773   -0.9916 C   0  0  0  0  0  0  0  0  0  0  0  0
    1.2793    1.6688    1.8547 H   0  0  0  0  0  0  0  0  0  0  0  0
   -2.1043    1.5455    1.6534 H   0  0  0  0  0  0  0  0  0  0  0  0
   -0.2685   -0.1158   -1.8886 H   0  0  0  0  0  0  0  0  0  0  0  0
   -3.7463   -0.2713    1.6484 H   0  0  0  0  0  0  0  0  0  0  0  0
   -1.9108   -1.9319   -1.8819 H   0  0  0  0  0  0  0  0  0  0  0  0
    1.1548   -0.7397    2.2949 H   0  0  0  0  0  0  0  0  0  0  0  0
    2.0897   -2.9472    1.6397 H   0  0  0  0  0  0  0  0  0  0  0  0
   -4.5962   -2.3102    0.6017 H   0  0  0  0  0  0  0  0  0  0  0  0
   -3.8502   -2.9846   -0.8317 H   0  0  0  0  0  0  0  0  0  0  0  0
    3.3328   -3.1606   -0.5118 H   0  0  0  0  0  0  0  0  0  0  0  0
    3.5903   -1.1216   -1.9363 H   0  0  0  0  0  0  0  0  0  0  0  0
  1  2  2  0  0  0  0
  1  3  2  0  0  0  0
  1  4  1  0  0  0  0
  1  7  1  0  0  0  0
  4 10  1  0  0  0  0
  4 18  1  0  0  0  0
  5 10  1  0  0  0  0
  5 17  2  0  0  0  0
  6 11  1  0  0  0  0
  6 25  1  0  0  0  0
  6 26  1  0  0  0  0
  7  8  2  0  0  0  0
  7  9  1  0  0  0  0
  8 12  1  0  0  0  0
  8 19  1  0  0  0  0
  9 13  2  0  0  0  0
  9 20  1  0  0  0  0
 10 14  2  0  0  0  0
 11 12  2  0  0  0  0
 11 13  1  0  0  0  0
 12 21  1  0  0  0  0
 13 22  1  0  0  0  0
 14 15  1  0  0  0  0
 14 23  1  0  0  0  0
 15 16  2  0  0  0  0
 15 24  1  0  0  0  0
 16 17  1  0  0  0  0
 16 27  1  0  0  0  0
 17 28  1  0  0  0  0
M  END
> <PUBCHEM_COMPOUND_CID>
5336

> <PUBCHEM_CONFORMER_RMSD>
0.6

> <PUBCHEM_CONFORMER_DIVERSEORDER>
1
16
2
19
7
20
22
8
3
9
4
17
21
11
14
18
5
15
13
12
10
6

> <PUBCHEM_MMFF94_PARTIAL_CHARGES>
28
1 1.45
10 0.51
11 0.1
12 -0.15
13 -0.15
14 -0.15
15 -0.15
16 -0.15
17 0.16
18 0.42
19 0.15
2 -0.65
20 0.15
21 0.15
22 0.15
23 0.15
24 0.15
25 0.4
26 0.4
27 0.15
28 0.15
3 -0.65
4 -0.76
5 -0.62
6 -0.9
7 -0.01
8 -0.15
9 -0.15

> <PUBCHEM_EFFECTIVE_ROTOR_COUNT>
3

> <PUBCHEM_PHARMACOPHORE_FEATURES>
8
1 2 acceptor
1 3 acceptor
1 4 donor
1 5 acceptor
1 6 cation
1 6 donor
6 5 10 14 15 16 17 rings
6 7 8 9 11 12 13 rings

> <PUBCHEM_HEAVY_ATOM_COUNT>
17

> <PUBCHEM_ATOM_DEF_STEREO_COUNT>
0

> <PUBCHEM_ATOM_UDEF_STEREO_COUNT>
0

> <PUBCHEM_BOND_DEF_STEREO_COUNT>
0

> <PUBCHEM_BOND_UDEF_STEREO_COUNT>
0

> <PUBCHEM_ISOTOPIC_ATOM_COUNT>
0

> <PUBCHEM_COMPONENT_COUNT>
1

> <PUBCHEM_CACTVS_TAUTO_COUNT>
2

> <PUBCHEM_CONFORMER_ID>
000014D800000001

> <PUBCHEM_MMFF94_ENERGY>
47.1164

> <PUBCHEM_FEATURE_SELFOVERLAP>
40.614

> <PUBCHEM_SHAPE_FINGERPRINT>
10618630 7 18411703226738269290
12553582 1 18411135865753422667
13533116 47 18123176906751854691
15276787 5 15502654961498464802
15375462 189 18342446050029647587
16752209 62 17907873043001404025
16945 1 18118124903190727969
17492 54 17486477218974991300
18186145 218 10951775221831951731
18522851 12 18339629148447275234
18981168 100 9294429732699932360
20291156 8 18410006645884215955
20361792 2 18341057379718092831
20442098 301 17968101880341333095
20559304 39 18044935675823280809
20645476 183 17335053946244334516
20645477 70 18052547569401152343
21731516 1 18340490061856810442
22445834 79 18189053092971163659
2255824 54 18053099515136404957
23402539 116 18272650173602270478
23557571 272 18266479752611474978
23728640 28 17331981910419095611
2748010 2 18264791954633180317
49207404 50 8069186751633984255
5845 1 7459075157619560972
598444 67 17322379854035839615
7364860 26 18046626707294991393
81228 2 18122646086430331361
90525 40 17693091177345342210
94968 8 18342174414828630891

> <PUBCHEM_SHAPE_MULTIPOLES>
327.02
5.35
2.98
1.28
0.55
1.4
0.06
-4.55
-0.08
0.39
0.03
-0.24
0.02
-0.43

> <PUBCHEM_SHAPE_SELFOVERLAP>
685.739

> <PUBCHEM_SHAPE_VOLUME>
184.6

> <PUBCHEM_COORDINATE_TYPE>
2
5
10

$$$$

