440133
  -OEChem-07051212483D

 30 30  0     1  0  0  0  0  0999 V2000
    2.4113   -0.0224    0.1066 P   0  0  0  0  0  0  0  0  0  0  0  0
    0.9585   -0.0669    0.8047 O   0  0  0  0  0  0  0  0  0  0  0  0
   -1.0186    1.6846   -1.6919 O   0  0  0  0  0  0  0  0  0  0  0  0
   -2.1414    1.8500    0.9264 O   0  0  0  0  0  0  0  0  0  0  0  0
    3.3049   -1.0253    1.0070 O   0  0  0  0  0  0  0  0  0  0  0  0
    2.9563    1.4409    0.5273 O   0  0  0  0  0  0  0  0  0  0  0  0
    2.4213   -0.3026   -1.3678 O   0  0  0  0  0  0  0  0  0  0  0  0
   -0.2487   -1.8984   -1.2303 N   0  0  0  0  0  0  0  0  0  0  0  0
   -1.4476   -1.7181    1.5682 N   0  0  0  0  0  0  0  0  0  0  0  0
   -0.0368    0.8382    0.3378 C   0  0  0  0  0  0  0  0  0  0  0  0
   -1.0902   -0.7181   -1.4284 C   0  0  2  0  0  0  0  0  0  0  0  0
   -2.1104   -0.5683    0.9504 C   0  0  1  0  0  0  0  0  0  0  0  0
   -0.2967    0.5740   -1.1548 C   0  0  1  0  0  0  0  0  0  0  0  0
   -1.3065    0.7222    1.1992 C   0  0  2  0  0  0  0  0  0  0  0  0
   -2.3555   -0.7899   -0.5543 C   0  0  0  0  0  0  0  0  0  0  0  0
    0.3477    1.8602    0.4491 H   0  0  0  0  0  0  0  0  0  0  0  0
   -1.4234   -0.7249   -2.4736 H   0  0  0  0  0  0  0  0  0  0  0  0
   -3.0969   -0.4684    1.4206 H   0  0  0  0  0  0  0  0  0  0  0  0
    0.5983    0.5842   -1.7603 H   0  0  0  0  0  0  0  0  0  0  0  0
   -1.0363    0.7837    2.2604 H   0  0  0  0  0  0  0  0  0  0  0  0
   -3.0675   -0.0333   -0.9100 H   0  0  0  0  0  0  0  0  0  0  0  0
   -2.8599   -1.7536   -0.7090 H   0  0  0  0  0  0  0  0  0  0  0  0
    0.2315   -1.8484   -0.3357 H   0  0  0  0  0  0  0  0  0  0  0  0
    0.4934   -1.9000   -1.9301 H   0  0  0  0  0  0  0  0  0  0  0  0
   -1.5322   -1.6437    2.5822 H   0  0  0  0  0  0  0  0  0  0  0  0
   -0.4464   -1.6880    1.3889 H   0  0  0  0  0  0  0  0  0  0  0  0
   -1.1689    1.5141   -2.6374 H   0  0  0  0  0  0  0  0  0  0  0  0
   -2.3367    1.8691   -0.0250 H   0  0  0  0  0  0  0  0  0  0  0  0
    4.2308   -1.2065    0.7384 H   0  0  0  0  0  0  0  0  0  0  0  0
    3.8007    1.7608    0.1443 H   0  0  0  0  0  0  0  0  0  0  0  0
  1  2  1  0  0  0  0
  1  5  1  0  0  0  0
  1  6  1  0  0  0  0
  1  7  2  0  0  0  0
  2 10  1  0  0  0  0
  3 13  1  0  0  0  0
  3 27  1  0  0  0  0
  4 14  1  0  0  0  0
  4 28  1  0  0  0  0
  5 29  1  0  0  0  0
  6 30  1  0  0  0  0
  8 11  1  0  0  0  0
  8 23  1  0  0  0  0
  8 24  1  0  0  0  0
  9 12  1  0  0  0  0
  9 25  1  0  0  0  0
  9 26  1  0  0  0  0
 10 13  1  0  0  0  0
 10 14  1  0  0  0  0
 10 16  1  0  0  0  0
 11 13  1  0  0  0  0
 11 15  1  0  0  0  0
 11 17  1  0  0  0  0
 12 14  1  0  0  0  0
 12 15  1  0  0  0  0
 12 18  1  0  0  0  0
 13 19  1  0  0  0  0
 14 20  1  0  0  0  0
 15 21  1  0  0  0  0
 15 22  1  0  0  0  0
M  END
> <PUBCHEM_COMPOUND_CID>
440133

> <PUBCHEM_CONFORMER_RMSD>
0.6

> <PUBCHEM_CONFORMER_DIVERSEORDER>
1
5
4
2
3

> <PUBCHEM_MMFF94_PARTIAL_CHARGES>
22
1 1.51
10 0.28
11 0.27
12 0.27
13 0.28
14 0.28
2 -0.55
23 0.36
24 0.36
25 0.36
26 0.36
27 0.4
28 0.4
29 0.5
3 -0.68
30 0.5
4 -0.68
5 -0.77
6 -0.77
7 -0.7
8 -0.99
9 -0.99

> <PUBCHEM_EFFECTIVE_ROTOR_COUNT>
3.2

> <PUBCHEM_PHARMACOPHORE_FEATURES>
13
1 3 acceptor
1 3 donor
1 4 acceptor
1 4 donor
1 5 acceptor
1 6 acceptor
1 7 acceptor
1 8 cation
1 8 donor
1 9 cation
1 9 donor
4 1 5 6 7 anion
6 10 11 12 13 14 15 rings

> <PUBCHEM_HEAVY_ATOM_COUNT>
15

> <PUBCHEM_ATOM_DEF_STEREO_COUNT>
4

> <PUBCHEM_ATOM_UDEF_STEREO_COUNT>
0

> <PUBCHEM_BOND_DEF_STEREO_COUNT>
0

> <PUBCHEM_BOND_UDEF_STEREO_COUNT>
0

> <PUBCHEM_ISOTOPIC_ATOM_COUNT>
0

> <PUBCHEM_COMPONENT_COUNT>
1

> <PUBCHEM_CACTVS_TAUTO_COUNT>
1

> <PUBCHEM_CONFORMER_ID>
0006B74500000001

> <PUBCHEM_MMFF94_ENERGY>
-1.2

> <PUBCHEM_FEATURE_SELFOVERLAP>
66.01

> <PUBCHEM_SHAPE_FINGERPRINT>
12423570 1 14161506558368345645
12932764 1 18272372009892325192
13024252 1 15985110751076746605
14817 1 14594577731355537773
15076042 46 17385711504725920864
16945 1 18260820531893069099
20473742 2 17323511264733882533
20645464 45 4751154133962835888
23419403 2 13915469129383970871
2748010 2 17386552691145164644
369184 2 18272941522065164424
5084963 1 18272380805563321754

> <PUBCHEM_SHAPE_MULTIPOLES>
267.36
3.99
1.73
1.67
3.43
0.11
0
-0.39
-0.94
-0.53
0.2
-0.44
0.08
0.02

> <PUBCHEM_SHAPE_SELFOVERLAP>
521.819

> <PUBCHEM_SHAPE_VOLUME>
162.4

> <PUBCHEM_COORDINATE_TYPE>
2
5
10

$$$$

