440697
  -OEChem-07051212503D

 55 58  0     1  0  0  0  0  0999 V2000
    0.2891   -2.4438    0.5447 O   0  0  0  0  0  0  0  0  0  0  0  0
   -5.2459    0.2747    0.8336 O   0  0  0  0  0  0  0  0  0  0  0  0
    6.4018   -0.4245   -0.8829 O   0  0  0  0  0  0  0  0  0  0  0  0
   -6.2217   -1.9630   -0.2888 O   0  0  0  0  0  0  0  0  0  0  0  0
   -1.1623    1.2279   -0.3905 C   0  0  1  0  0  0  0  0  0  0  0  0
    0.2496    1.1275    0.2027 C   0  0  1  0  0  0  0  0  0  0  0  0
   -2.0820    0.0657    0.0476 C   0  0  1  0  0  0  0  0  0  0  0  0
    0.9017   -0.2111   -0.2671 C   0  0  1  0  0  0  0  0  0  0  0  0
    2.3741   -0.3718    0.2583 C   0  0  2  0  0  0  0  0  0  0  0  0
    3.1770    0.8932   -0.2028 C   0  0  1  0  0  0  0  0  0  0  0  0
   -3.3912    0.5100   -0.6403 C   0  0  2  0  0  0  0  0  0  0  0  0
    1.1070    2.3340   -0.2003 C   0  0  0  0  0  0  0  0  0  0  0  0
   -1.9971    2.4699   -0.0942 C   0  0  0  0  0  0  0  0  0  0  0  0
   -1.4897   -1.2378   -0.4900 C   0  0  0  0  0  0  0  0  0  0  0  0
    2.5476    2.2039    0.2817 C   0  0  0  0  0  0  0  0  0  0  0  0
   -0.0584   -1.3916    0.0120 C   0  0  0  0  0  0  0  0  0  0  0  0
   -3.4349    2.0369   -0.4287 C   0  0  0  0  0  0  0  0  0  0  0  0
    3.0642   -1.5985   -0.4090 C   0  0  0  0  0  0  0  0  0  0  0  0
   -2.2625   -0.0509    1.5842 C   0  0  0  0  0  0  0  0  0  0  0  0
    4.6611    0.8370    0.1709 C   0  0  0  0  0  0  0  0  0  0  0  0
    2.3992   -0.5350    1.7982 C   0  0  0  0  0  0  0  0  0  0  0  0
    4.5533   -1.7228   -0.0938 C   0  0  0  0  0  0  0  0  0  0  0  0
   -4.6221   -0.1712   -0.1284 C   0  0  0  0  0  0  0  0  0  0  0  0
    5.2884   -0.4312   -0.3581 C   0  0  0  0  0  0  0  0  0  0  0  0
   -5.0462   -1.4275   -0.8588 C   0  0  0  0  0  0  0  0  0  0  0  0
   -1.0497    1.1883   -1.4872 H   0  0  0  0  0  0  0  0  0  0  0  0
    0.1701    1.1356    1.2949 H   0  0  0  0  0  0  0  0  0  0  0  0
    0.9638   -0.1780   -1.3665 H   0  0  0  0  0  0  0  0  0  0  0  0
    3.1377    0.9144   -1.3037 H   0  0  0  0  0  0  0  0  0  0  0  0
   -3.3320    0.3299   -1.7227 H   0  0  0  0  0  0  0  0  0  0  0  0
    0.6801    3.2557    0.2119 H   0  0  0  0  0  0  0  0  0  0  0  0
    1.1022    2.4455   -1.2922 H   0  0  0  0  0  0  0  0  0  0  0  0
   -1.6897    3.3274   -0.7014 H   0  0  0  0  0  0  0  0  0  0  0  0
   -1.9196    2.7644    0.9582 H   0  0  0  0  0  0  0  0  0  0  0  0
   -1.4647   -1.2573   -1.5854 H   0  0  0  0  0  0  0  0  0  0  0  0
   -2.0700   -2.1040   -0.1557 H   0  0  0  0  0  0  0  0  0  0  0  0
    3.1232    3.0562   -0.1002 H   0  0  0  0  0  0  0  0  0  0  0  0
    2.5839    2.2721    1.3750 H   0  0  0  0  0  0  0  0  0  0  0  0
   -4.1132    2.3603    0.3677 H   0  0  0  0  0  0  0  0  0  0  0  0
   -3.7751    2.5277   -1.3485 H   0  0  0  0  0  0  0  0  0  0  0  0
    2.9468   -1.5248   -1.4987 H   0  0  0  0  0  0  0  0  0  0  0  0
    2.5837   -2.5353   -0.1114 H   0  0  0  0  0  0  0  0  0  0  0  0
   -2.6991    0.8504    2.0253 H   0  0  0  0  0  0  0  0  0  0  0  0
   -2.9204   -0.8905    1.8365 H   0  0  0  0  0  0  0  0  0  0  0  0
   -1.3173   -0.2379    2.1026 H   0  0  0  0  0  0  0  0  0  0  0  0
    4.8206    0.8837    1.2524 H   0  0  0  0  0  0  0  0  0  0  0  0
    5.1872    1.6887   -0.2766 H   0  0  0  0  0  0  0  0  0  0  0  0
    1.9012    0.2894    2.3149 H   0  0  0  0  0  0  0  0  0  0  0  0
    1.9057   -1.4587    2.1141 H   0  0  0  0  0  0  0  0  0  0  0  0
    3.4170   -0.5809    2.1955 H   0  0  0  0  0  0  0  0  0  0  0  0
    4.9902   -2.5088   -0.7198 H   0  0  0  0  0  0  0  0  0  0  0  0
    4.7181   -2.0040    0.9511 H   0  0  0  0  0  0  0  0  0  0  0  0
   -4.2607   -2.1808   -0.7836 H   0  0  0  0  0  0  0  0  0  0  0  0
   -5.2357   -1.1979   -1.9111 H   0  0  0  0  0  0  0  0  0  0  0  0
   -6.9375   -1.3219   -0.4378 H   0  0  0  0  0  0  0  0  0  0  0  0
  1 16  2  0  0  0  0
  2 23  2  0  0  0  0
  3 24  2  0  0  0  0
  4 25  1  0  0  0  0
  4 55  1  0  0  0  0
  5  6  1  0  0  0  0
  5  7  1  0  0  0  0
  5 13  1  0  0  0  0
  5 26  1  0  0  0  0
  6  8  1  0  0  0  0
  6 12  1  0  0  0  0
  6 27  1  0  0  0  0
  7 11  1  0  0  0  0
  7 14  1  0  0  0  0
  7 19  1  0  0  0  0
  8  9  1  0  0  0  0
  8 16  1  0  0  0  0
  8 28  1  0  0  0  0
  9 10  1  0  0  0  0
  9 18  1  0  0  0  0
  9 21  1  0  0  0  0
 10 15  1  0  0  0  0
 10 20  1  0  0  0  0
 10 29  1  0  0  0  0
 11 17  1  0  0  0  0
 11 23  1  0  0  0  0
 11 30  1  0  0  0  0
 12 15  1  0  0  0  0
 12 31  1  0  0  0  0
 12 32  1  0  0  0  0
 13 17  1  0  0  0  0
 13 33  1  0  0  0  0
 13 34  1  0  0  0  0
 14 16  1  0  0  0  0
 14 35  1  0  0  0  0
 14 36  1  0  0  0  0
 15 37  1  0  0  0  0
 15 38  1  0  0  0  0
 17 39  1  0  0  0  0
 17 40  1  0  0  0  0
 18 22  1  0  0  0  0
 18 41  1  0  0  0  0
 18 42  1  0  0  0  0
 19 43  1  0  0  0  0
 19 44  1  0  0  0  0
 19 45  1  0  0  0  0
 20 24  1  0  0  0  0
 20 46  1  0  0  0  0
 20 47  1  0  0  0  0
 21 48  1  0  0  0  0
 21 49  1  0  0  0  0
 21 50  1  0  0  0  0
 22 24  1  0  0  0  0
 22 51  1  0  0  0  0
 22 52  1  0  0  0  0
 23 25  1  0  0  0  0
 25 53  1  0  0  0  0
 25 54  1  0  0  0  0
M  END
> <PUBCHEM_COMPOUND_CID>
440697

> <PUBCHEM_CONFORMER_RMSD>
0.8

> <PUBCHEM_CONFORMER_DIVERSEORDER>
1
5
10
2
9
8
6
3
7
4

> <PUBCHEM_MMFF94_PARTIAL_CHARGES>
14
1 -0.57
11 0.06
14 0.06
16 0.45
2 -0.57
20 0.06
22 0.06
23 0.45
24 0.45
25 0.34
3 -0.57
4 -0.68
55 0.4
8 0.06

> <PUBCHEM_EFFECTIVE_ROTOR_COUNT>
3.8

> <PUBCHEM_PHARMACOPHORE_FEATURES>
9
1 1 acceptor
1 2 acceptor
1 3 acceptor
1 4 acceptor
1 4 donor
5 5 7 11 13 17 rings
6 5 6 7 8 14 16 rings
6 6 8 9 10 12 15 rings
6 9 10 18 20 22 24 rings

> <PUBCHEM_HEAVY_ATOM_COUNT>
25

> <PUBCHEM_ATOM_DEF_STEREO_COUNT>
5

> <PUBCHEM_ATOM_UDEF_STEREO_COUNT>
2

> <PUBCHEM_BOND_DEF_STEREO_COUNT>
0

> <PUBCHEM_BOND_UDEF_STEREO_COUNT>
0

> <PUBCHEM_ISOTOPIC_ATOM_COUNT>
0

> <PUBCHEM_COMPONENT_COUNT>
1

> <PUBCHEM_CACTVS_TAUTO_COUNT>
36

> <PUBCHEM_CONFORMER_ID>
0006B97900000001

> <PUBCHEM_MMFF94_ENERGY>
75.0709

> <PUBCHEM_FEATURE_SELFOVERLAP>
45.77

> <PUBCHEM_SHAPE_FINGERPRINT>
10 15 18341901741331816488
10366900 7 17703790322936745008
11089746 13 12751236982478936663
11578080 2 16518234068057000290
11963148 33 18337117782497008135
12011746 2 18273778246002799198
12166972 35 18113616755314492624
12236239 1 17822007597215755145
12403259 226 18410300228400478069
12403259 415 18261120693919440328
12403260 363 18412263943129413557
12596602 18 17240763960657091418
12616971 3 13912332269627525376
12916754 54 18335421266414356601
13140716 1 18339638915587632067
13224815 77 18272091633931474177
13288520 33 18335421262377586037
13533116 47 18041280946159010336
13583140 156 16343699919808778625
13862211 1 18412548721284075994
14787075 74 18413106156140585299
14790565 3 18339354279272989284
15142383 8 14418124141191392835
15196674 1 18410857702222715028
16945 1 18268440186244371949
17349148 13 18411141346067940469
17492 89 18337113474654683783
18681886 176 18410860932301911216
19591789 44 18411422842503689423
200 152 18113901563117038289
20028762 73 18260553290359675207
20645477 70 18341618075119885628
21033648 29 18340498823548416072
21267235 1 18409443674334340199
21279426 13 18195808698665608572
21682296 61 18262227932399188070
21709351 56 18412550907659878501
221357 26 18409732863151598116
22393880 68 18270973434980179701
23402539 116 18410015442346276221
23522609 53 18121184723755730316
23559900 14 18410300198324923593
335352 9 18410013256624862037
34797466 226 17603861166688556924
350125 39 18410009957472916653
4214541 1 18409449227769635157
465052 167 18261671484925701479
484989 97 17986101925339455835
5104073 3 18335425711178066032
7495541 125 17386012740804988394
9709674 26 18342457015260521705

> <PUBCHEM_SHAPE_MULTIPOLES>
491.01
12.07
2.44
1
0.91
0.52
-0.36
-4.23
2.02
0.56
0.18
0.03
-0.13
-0.05

> <PUBCHEM_SHAPE_SELFOVERLAP>
1049.679

> <PUBCHEM_SHAPE_VOLUME>
270.3

> <PUBCHEM_COORDINATE_TYPE>
2
5
10

$$$$

