8972
  -OEChem-06261203172D

 52 54  0     1  0  0  0  0  0999 V2000
    2.0660    4.0173    0.0000 Cl  0  0  0  0  0  0  0  0  0  0  0  0
    2.0000   -4.0068    0.0000 Cl  0  0  0  0  0  0  0  0  0  0  0  0
    9.0602   -1.9585    0.0000 O   0  0  0  0  0  0  0  0  0  0  0  0
    3.7981    2.0173    0.0000 N   0  0  3  0  0  0  0  0  0  0  0  0
    5.5301   -0.9827    0.0000 N   0  0  0  0  0  0  0  0  0  0  0  0
    5.5301   -3.9827    0.0000 N   0  0  0  0  0  0  0  0  0  0  0  0
    3.7981    1.0173    0.0000 C   0  0  0  0  0  0  0  0  0  0  0  0
    4.6641    0.5173    0.0000 C   0  0  0  0  0  0  0  0  0  0  0  0
    4.6641   -0.4827    0.0000 C   0  0  0  0  0  0  0  0  0  0  0  0
    5.5301   -1.9827    0.0000 C   0  0  0  0  0  0  0  0  0  0  0  0
    2.9320    2.5173    0.0000 C   0  0  0  0  0  0  0  0  0  0  0  0
    4.6641    2.5173    0.0000 C   0  0  0  0  0  0  0  0  0  0  0  0
    6.3961   -2.4827    0.0000 C   0  0  0  0  0  0  0  0  0  0  0  0
    4.6641   -2.4827    0.0000 C   0  0  0  0  0  0  0  0  0  0  0  0
    6.3961   -3.4827    0.0000 C   0  0  0  0  0  0  0  0  0  0  0  0
    4.6641   -3.4827    0.0000 C   0  0  0  0  0  0  0  0  0  0  0  0
    2.9320    3.5173    0.0000 C   0  0  0  0  0  0  0  0  0  0  0  0
    4.6641    3.5173    0.0000 C   0  0  0  0  0  0  0  0  0  0  0  0
    7.2901   -1.9480    0.0000 C   0  0  0  0  0  0  0  0  0  0  0  0
    3.7702   -1.9480    0.0000 C   0  0  0  0  0  0  0  0  0  0  0  0
    7.2901   -4.0173    0.0000 C   0  0  0  0  0  0  0  0  0  0  0  0
    3.7702   -4.0173    0.0000 C   0  0  0  0  0  0  0  0  0  0  0  0
    8.1962   -2.4618    0.0000 C   0  0  0  0  0  0  0  0  0  0  0  0
    8.1962   -3.5035    0.0000 C   0  0  0  0  0  0  0  0  0  0  0  0
    2.8641   -2.4618    0.0000 C   0  0  0  0  0  0  0  0  0  0  0  0
    2.8641   -3.5035    0.0000 C   0  0  0  0  0  0  0  0  0  0  0  0
    9.9282   -2.4552    0.0000 C   0  0  0  0  0  0  0  0  0  0  0  0
    3.1875    1.1250    0.0000 H   0  0  0  0  0  0  0  0  0  0  0  0
    3.5860    0.4347    0.0000 H   0  0  0  0  0  0  0  0  0  0  0  0
    5.2747    0.4097    0.0000 H   0  0  0  0  0  0  0  0  0  0  0  0
    4.8762    1.0999    0.0000 H   0  0  0  0  0  0  0  0  0  0  0  0
    4.0535   -0.3750    0.0000 H   0  0  0  0  0  0  0  0  0  0  0  0
    4.4520   -1.0653    0.0000 H   0  0  0  0  0  0  0  0  0  0  0  0
    2.3215    2.6250    0.0000 H   0  0  0  0  0  0  0  0  0  0  0  0
    2.7200    1.9347    0.0000 H   0  0  0  0  0  0  0  0  0  0  0  0
    4.8762    1.9347    0.0000 H   0  0  0  0  0  0  0  0  0  0  0  0
    5.2747    2.6250    0.0000 H   0  0  0  0  0  0  0  0  0  0  0  0
    6.0671   -0.6727    0.0000 H   0  0  0  0  0  0  0  0  0  0  0  0
    3.5426    3.4097    0.0000 H   0  0  0  0  0  0  0  0  0  0  0  0
    3.1441    4.0999    0.0000 H   0  0  0  0  0  0  0  0  0  0  0  0
    5.2841    3.5173    0.0000 H   0  0  0  0  0  0  0  0  0  0  0  0
    4.6641    4.1373    0.0000 H   0  0  0  0  0  0  0  0  0  0  0  0
    4.0441    3.5173    0.0000 H   0  0  0  0  0  0  0  0  0  0  0  0
    7.2829   -1.3280    0.0000 H   0  0  0  0  0  0  0  0  0  0  0  0
    3.7773   -1.3280    0.0000 H   0  0  0  0  0  0  0  0  0  0  0  0
    7.2829   -4.6373    0.0000 H   0  0  0  0  0  0  0  0  0  0  0  0
    3.7773   -4.6373    0.0000 H   0  0  0  0  0  0  0  0  0  0  0  0
    8.7319   -3.8156    0.0000 H   0  0  0  0  0  0  0  0  0  0  0  0
    2.3284   -2.1498    0.0000 H   0  0  0  0  0  0  0  0  0  0  0  0
    9.6203   -2.9933    0.0000 H   0  0  0  0  0  0  0  0  0  0  0  0
   10.4663   -2.7631    0.0000 H   0  0  0  0  0  0  0  0  0  0  0  0
   10.2361   -1.9170    0.0000 H   0  0  0  0  0  0  0  0  0  0  0  0
  1 17  1  0  0  0  0
  2 26  1  0  0  0  0
  3 23  1  0  0  0  0
  3 27  1  0  0  0  0
  4  7  1  0  0  0  0
  4 11  1  0  0  0  0
  4 12  1  0  0  0  0
  5  9  1  0  0  0  0
  5 10  1  0  0  0  0
  5 38  1  0  0  0  0
  6 15  2  0  0  0  0
  6 16  1  0  0  0  0
  7  8  1  0  0  0  0
  7 28  1  0  0  0  0
  7 29  1  0  0  0  0
  8  9  1  0  0  0  0
  8 30  1  0  0  0  0
  8 31  1  0  0  0  0
  9 32  1  0  0  0  0
  9 33  1  0  0  0  0
 10 13  2  0  0  0  0
 10 14  1  0  0  0  0
 11 17  1  0  0  0  0
 11 34  1  0  0  0  0
 11 35  1  0  0  0  0
 12 18  1  0  0  0  0
 12 36  1  0  0  0  0
 12 37  1  0  0  0  0
 13 15  1  0  0  0  0
 13 19  1  0  0  0  0
 14 16  2  0  0  0  0
 14 20  1  0  0  0  0
 15 21  1  0  0  0  0
 16 22  1  0  0  0  0
 17 39  1  0  0  0  0
 17 40  1  0  0  0  0
 18 41  1  0  0  0  0
 18 42  1  0  0  0  0
 18 43  1  0  0  0  0
 19 23  2  0  0  0  0
 19 44  1  0  0  0  0
 20 25  2  0  0  0  0
 20 45  1  0  0  0  0
 21 24  2  0  0  0  0
 21 46  1  0  0  0  0
 22 26  2  0  0  0  0
 22 47  1  0  0  0  0
 23 24  1  0  0  0  0
 24 48  1  0  0  0  0
 25 26  1  0  0  0  0
 25 49  1  0  0  0  0
 27 50  1  0  0  0  0
 27 51  1  0  0  0  0
 27 52  1  0  0  0  0
M  END
> <PUBCHEM_COMPOUND_CID>
8972

> <PUBCHEM_COMPOUND_CANONICALIZED>
1

> <PUBCHEM_CACTVS_COMPLEXITY>
442

> <PUBCHEM_CACTVS_HBOND_ACCEPTOR>
4

> <PUBCHEM_CACTVS_HBOND_DONOR>
1

> <PUBCHEM_CACTVS_ROTATABLE_BOND>
9

> <PUBCHEM_CACTVS_SUBSKEYS>
AAADceB7IAAGAAAAAAAAAAAAAAAAAAAAAAA8YIAAAAAAAACx/AAAHgIQAAAADA/BnmYyxvPIFACgAyRiRACCiCAhJyAImKA+bpgMJuLF89vENChk0BHI6AewwPAOBEABAAICAAAIgAIABAQAAAAAAAAAAA==

> <PUBCHEM_IUPAC_OPENEYE_NAME>
N'-(2-chloroethyl)-N-(6-chloro-2-methoxy-acridin-9-yl)-N'-ethyl-propane-1,3-diamine

> <PUBCHEM_IUPAC_CAS_NAME>
N'-(2-chloroethyl)-N-(6-chloro-2-methoxy-9-acridinyl)-N'-ethylpropane-1,3-diamine

> <PUBCHEM_IUPAC_NAME>
N'-(2-chloroethyl)-N-(6-chloro-2-methoxyacridin-9-yl)-N'-ethylpropane-1,3-diamine

> <PUBCHEM_IUPAC_SYSTEMATIC_NAME>
N-(6-chloranyl-2-methoxy-acridin-9-yl)-N'-(2-chloroethyl)-N'-ethyl-propane-1,3-diamine

> <PUBCHEM_IUPAC_TRADITIONAL_NAME>
2-chloroethyl-[3-[(6-chloro-2-methoxy-acridin-9-yl)amino]propyl]-ethyl-amine

> <PUBCHEM_IUPAC_INCHI>
InChI=1S/C21H25Cl2N3O/c1-3-26(12-9-22)11-4-10-24-21-17-7-5-15(23)13-20(17)25-19-8-6-16(27-2)14-18(19)21/h5-8,13-14H,3-4,9-12H2,1-2H3,(H,24,25)

> <PUBCHEM_IUPAC_INCHIKEY>
OIFINQAUHKZSBV-UHFFFAOYSA-N

> <PUBCHEM_XLOGP3_AA>
5.5

> <PUBCHEM_EXACT_MASS>
405.137468

> <PUBCHEM_MOLECULAR_FORMULA>
C21H25Cl2N3O

> <PUBCHEM_MOLECULAR_WEIGHT>
406.3487

> <PUBCHEM_OPENEYE_CAN_SMILES>
CCN(CCCNC1=C2C=C(C=CC2=NC3=C1C=CC(=C3)Cl)OC)CCCl

> <PUBCHEM_OPENEYE_ISO_SMILES>
CCN(CCCNC1=C2C=C(C=CC2=NC3=C1C=CC(=C3)Cl)OC)CCCl

> <PUBCHEM_CACTVS_TPSA>
37.4

> <PUBCHEM_MONOISOTOPIC_WEIGHT>
405.137468

> <PUBCHEM_TOTAL_CHARGE>
0

> <PUBCHEM_HEAVY_ATOM_COUNT>
27

> <PUBCHEM_ATOM_DEF_STEREO_COUNT>
0

> <PUBCHEM_ATOM_UDEF_STEREO_COUNT>
0

> <PUBCHEM_BOND_DEF_STEREO_COUNT>
0

> <PUBCHEM_BOND_UDEF_STEREO_COUNT>
0

> <PUBCHEM_ISOTOPIC_ATOM_COUNT>
0

> <PUBCHEM_COMPONENT_COUNT>
1

> <PUBCHEM_CACTVS_TAUTO_COUNT>
2

> <PUBCHEM_COORDINATE_TYPE>
1
5
255

> <PUBCHEM_BONDANNOTATIONS>
10  13  8
10  14  8
13  15  8
13  19  8
14  16  8
14  20  8
15  21  8
16  22  8
19  23  8
20  25  8
21  24  8
22  26  8
23  24  8
25  26  8
6  15  8
6  16  8

$$$$

