11953923
  -OEChem-07051212562D

 98102  0     1  0  0  0  0  0999 V2000
    6.8660   -1.5278    0.0000 O   0  0  0  0  0  0  0  0  0  0  0  0
   11.5501   -2.4440    0.0000 O   0  0  0  0  0  0  0  0  0  0  0  0
    7.5416    0.1032    0.0000 O   0  0  0  0  0  0  0  0  0  0  0  0
    6.8660    0.2043    0.0000 O   0  0  0  0  0  0  0  0  0  0  0  0
   13.1298   -0.9524    0.0000 O   0  0  0  0  0  0  0  0  0  0  0  0
    4.8660    1.9364    0.0000 O   0  0  0  0  0  0  0  0  0  0  0  0
    4.8660   -1.5278    0.0000 O   0  0  0  0  0  0  0  0  0  0  0  0
    2.0000    1.4364    0.0000 O   0  0  0  0  0  0  0  0  0  0  0  0
    3.8660    0.2043    0.0000 O   0  0  0  0  0  0  0  0  0  0  0  0
    6.3660    2.8024    0.0000 O   0  0  0  0  0  0  0  0  0  0  0  0
    3.0000    3.4364    0.0000 O   0  0  0  0  0  0  0  0  0  0  0  0
   10.0965   -0.6039    0.0000 C   0  0  2  0  0  0  0  0  0  0  0  0
    9.1726   -2.8343    0.0000 C   0  0  1  0  0  0  0  0  0  0  0  0
   10.4792   -1.5278    0.0000 C   0  0  0  0  0  0  0  0  0  0  0  0
    9.1726   -0.2212    0.0000 C   0  0  2  0  0  0  0  0  0  0  0  0
   11.4700   -1.4472    0.0000 C   0  0  1  0  0  0  0  0  0  0  0  0
    8.2487   -2.4516    0.0000 C   0  0  0  0  0  0  0  0  0  0  0  0
   10.8540    0.0398    0.0000 C   0  0  0  0  0  0  0  0  0  0  0  0
    7.8660   -1.5278    0.0000 C   0  0  2  0  0  0  0  0  0  0  0  0
    8.2487   -0.6039    0.0000 C   0  0  2  0  0  0  0  0  0  0  0  0
   11.7012   -0.4804    0.0000 C   0  0  0  0  0  0  0  0  0  0  0  0
   10.0965   -2.4516    0.0000 C   0  0  0  0  0  0  0  0  0  0  0  0
    9.0920   -3.8251    0.0000 C   0  0  0  0  0  0  0  0  0  0  0  0
    7.6051   -3.2092    0.0000 C   0  0  0  0  0  0  0  0  0  0  0  0
    8.1252   -4.0564    0.0000 C   0  0  0  0  0  0  0  0  0  0  0  0
    9.9099   -3.5099    0.0000 C   0  0  0  0  0  0  0  0  0  0  0  0
    9.1726    0.7788    0.0000 C   0  0  0  0  0  0  0  0  0  0  0  0
   12.4427   -1.6790    0.0000 C   0  0  0  0  0  0  0  0  0  0  0  0
    6.6080   -3.1325    0.0000 C   0  0  0  0  0  0  0  0  0  0  0  0
    6.3660   -0.6617    0.0000 C   0  0  1  0  0  0  0  0  0  0  0  0
    5.3660   -0.6617    0.0000 C   0  0  1  0  0  0  0  0  0  0  0  0
    5.3660    1.0703    0.0000 C   0  0  1  0  0  0  0  0  0  0  0  0
    4.8660    0.2043    0.0000 C   0  0  2  0  0  0  0  0  0  0  0  0
    6.0430   -3.9576    0.0000 C   0  0  0  0  0  0  0  0  0  0  0  0
    6.1760   -2.2306    0.0000 C   0  0  0  0  0  0  0  0  0  0  0  0
    6.3660    1.0703    0.0000 C   0  0  1  0  0  0  0  0  0  0  0  0
    3.8660    1.9364    0.0000 C   0  0  1  0  0  0  0  0  0  0  0  0
    2.8660    1.9364    0.0000 C   0  0  2  0  0  0  0  0  0  0  0  0
    6.8660    1.9364    0.0000 C   0  0  0  0  0  0  0  0  0  0  0  0
    2.0000    2.4364    0.0000 C   0  0  0  0  0  0  0  0  0  0  0  0
   14.1026   -1.1841    0.0000 C   0  0  0  0  0  0  0  0  0  0  0  0
    3.8660    2.9364    0.0000 C   0  0  0  0  0  0  0  0  0  0  0  0
    3.8660    0.9364    0.0000 C   0  0  0  0  0  0  0  0  0  0  0  0
    6.8660    3.6684    0.0000 C   0  0  0  0  0  0  0  0  0  0  0  0
    9.9646    0.2358    0.0000 H   0  0  0  0  0  0  0  0  0  0  0  0
    9.6881    0.1233    0.0000 H   0  0  0  0  0  0  0  0  0  0  0  0
   11.2322    0.5311    0.0000 H   0  0  0  0  0  0  0  0  0  0  0  0
   10.4052    0.4675    0.0000 H   0  0  0  0  0  0  0  0  0  0  0  0
    7.5216   -2.0433    0.0000 H   0  0  0  0  0  0  0  0  0  0  0  0
    7.6406   -0.7248    0.0000 H   0  0  0  0  0  0  0  0  0  0  0  0
   12.2857   -0.6872    0.0000 H   0  0  0  0  0  0  0  0  0  0  0  0
   11.9683    0.0792    0.0000 H   0  0  0  0  0  0  0  0  0  0  0  0
   10.5349   -2.8900    0.0000 H   0  0  0  0  0  0  0  0  0  0  0  0
    9.1721   -4.4399    0.0000 H   0  0  0  0  0  0  0  0  0  0  0  0
    9.7118   -3.8102    0.0000 H   0  0  0  0  0  0  0  0  0  0  0  0
    7.5657   -4.3234    0.0000 H   0  0  0  0  0  0  0  0  0  0  0  0
    8.3320   -4.6408    0.0000 H   0  0  0  0  0  0  0  0  0  0  0  0
    9.4910   -3.9670    0.0000 H   0  0  0  0  0  0  0  0  0  0  0  0
   10.3670   -3.9288    0.0000 H   0  0  0  0  0  0  0  0  0  0  0  0
   10.3287   -3.0528    0.0000 H   0  0  0  0  0  0  0  0  0  0  0  0
    9.7926    0.7788    0.0000 H   0  0  0  0  0  0  0  0  0  0  0  0
    9.1726    1.3988    0.0000 H   0  0  0  0  0  0  0  0  0  0  0  0
    8.5526    0.7788    0.0000 H   0  0  0  0  0  0  0  0  0  0  0  0
   12.1965   -2.2480    0.0000 H   0  0  0  0  0  0  0  0  0  0  0  0
   12.9603   -2.0202    0.0000 H   0  0  0  0  0  0  0  0  0  0  0  0
    6.9583   -2.6209    0.0000 H   0  0  0  0  0  0  0  0  0  0  0  0
    6.0560   -1.1987    0.0000 H   0  0  0  0  0  0  0  0  0  0  0  0
   12.1102   -2.7099    0.0000 H   0  0  0  0  0  0  0  0  0  0  0  0
    7.7021    0.7021    0.0000 H   0  0  0  0  0  0  0  0  0  0  0  0
    4.7460   -0.6617    0.0000 H   0  0  0  0  0  0  0  0  0  0  0  0
    4.7460    1.0703    0.0000 H   0  0  0  0  0  0  0  0  0  0  0  0
    4.5560    0.7412    0.0000 H   0  0  0  0  0  0  0  0  0  0  0  0
    5.5315   -3.6073    0.0000 H   0  0  0  0  0  0  0  0  0  0  0  0
    5.6928   -4.4691    0.0000 H   0  0  0  0  0  0  0  0  0  0  0  0
    6.5546   -4.3079    0.0000 H   0  0  0  0  0  0  0  0  0  0  0  0
    6.7351   -1.9628    0.0000 H   0  0  0  0  0  0  0  0  0  0  0  0
    5.9081   -1.6715    0.0000 H   0  0  0  0  0  0  0  0  0  0  0  0
    5.6168   -2.4985    0.0000 H   0  0  0  0  0  0  0  0  0  0  0  0
    6.9860    1.0703    0.0000 H   0  0  0  0  0  0  0  0  0  0  0  0
    3.0265    1.3375    0.0000 H   0  0  0  0  0  0  0  0  0  0  0  0
    7.3410    1.5378    0.0000 H   0  0  0  0  0  0  0  0  0  0  0  0
    7.3410    2.3349    0.0000 H   0  0  0  0  0  0  0  0  0  0  0  0
    2.2120    3.0190    0.0000 H   0  0  0  0  0  0  0  0  0  0  0  0
    1.3894    2.5440    0.0000 H   0  0  0  0  0  0  0  0  0  0  0  0
    4.2460   -1.5278    0.0000 H   0  0  0  0  0  0  0  0  0  0  0  0
    4.4766    2.8287    0.0000 H   0  0  0  0  0  0  0  0  0  0  0  0
    4.0781    3.5190    0.0000 H   0  0  0  0  0  0  0  0  0  0  0  0
   13.9589   -1.7873    0.0000 H   0  0  0  0  0  0  0  0  0  0  0  0
   14.7057   -1.3278    0.0000 H   0  0  0  0  0  0  0  0  0  0  0  0
   14.2463   -0.5810    0.0000 H   0  0  0  0  0  0  0  0  0  0  0  0
    3.2460    0.9364    0.0000 H   0  0  0  0  0  0  0  0  0  0  0  0
    3.8660    0.3164    0.0000 H   0  0  0  0  0  0  0  0  0  0  0  0
    4.4860    0.9364    0.0000 H   0  0  0  0  0  0  0  0  0  0  0  0
    3.5560   -0.3326    0.0000 H   0  0  0  0  0  0  0  0  0  0  0  0
    3.0000    4.0564    0.0000 H   0  0  0  0  0  0  0  0  0  0  0  0
    7.4030    3.3584    0.0000 H   0  0  0  0  0  0  0  0  0  0  0  0
    7.1760    4.2053    0.0000 H   0  0  0  0  0  0  0  0  0  0  0  0
    6.3291    3.9784    0.0000 H   0  0  0  0  0  0  0  0  0  0  0  0
 19  1  1  1  0  0  0
 30  1  1  6  0  0  0
 16  2  1  1  0  0  0
  2 68  1  0  0  0  0
 20  3  1  6  0  0  0
  3 69  1  0  0  0  0
  4 30  1  0  0  0  0
  4 36  1  0  0  0  0
  5 28  1  0  0  0  0
  5 41  1  0  0  0  0
 32  6  1  6  0  0  0
 37  6  1  1  0  0  0
 31  7  1  6  0  0  0
  7 85  1  0  0  0  0
 38  8  1  1  0  0  0
  8 40  1  0  0  0  0
 33  9  1  1  0  0  0
  9 94  1  0  0  0  0
 10 39  1  0  0  0  0
 10 44  1  0  0  0  0
 11 42  1  0  0  0  0
 11 95  1  0  0  0  0
 12 14  1  0  0  0  0
 12 15  1  0  0  0  0
 12 18  1  0  0  0  0
 12 45  1  1  0  0  0
 13 17  1  0  0  0  0
 13 22  1  0  0  0  0
 13 23  1  0  0  0  0
 13 26  1  6  0  0  0
 14 16  1  0  0  0  0
 14 22  2  0  0  0  0
 15 20  1  0  0  0  0
 15 27  1  6  0  0  0
 15 46  1  0  0  0  0
 16 21  1  0  0  0  0
 16 28  1  0  0  0  0
 17 19  1  0  0  0  0
 17 24  2  0  0  0  0
 18 21  1  0  0  0  0
 18 47  1  0  0  0  0
 18 48  1  0  0  0  0
 19 20  1  0  0  0  0
 19 49  1  0  0  0  0
 20 50  1  0  0  0  0
 21 51  1  0  0  0  0
 21 52  1  0  0  0  0
 22 53  1  0  0  0  0
 23 25  1  0  0  0  0
 23 54  1  0  0  0  0
 23 55  1  0  0  0  0
 24 25  1  0  0  0  0
 24 29  1  0  0  0  0
 25 56  1  0  0  0  0
 25 57  1  0  0  0  0
 26 58  1  0  0  0  0
 26 59  1  0  0  0  0
 26 60  1  0  0  0  0
 27 61  1  0  0  0  0
 27 62  1  0  0  0  0
 27 63  1  0  0  0  0
 28 64  1  0  0  0  0
 28 65  1  0  0  0  0
 29 34  1  0  0  0  0
 29 35  1  0  0  0  0
 29 66  1  0  0  0  0
 30 31  1  0  0  0  0
 30 67  1  0  0  0  0
 31 33  1  0  0  0  0
 31 70  1  0  0  0  0
 32 33  1  0  0  0  0
 32 36  1  0  0  0  0
 32 71  1  0  0  0  0
 33 72  1  0  0  0  0
 34 73  1  0  0  0  0
 34 74  1  0  0  0  0
 34 75  1  0  0  0  0
 35 76  1  0  0  0  0
 35 77  1  0  0  0  0
 35 78  1  0  0  0  0
 36 39  1  1  0  0  0
 36 79  1  0  0  0  0
 37 38  1  0  0  0  0
 37 42  1  0  0  0  0
 37 43  1  0  0  0  0
 38 40  1  0  0  0  0
 38 80  1  0  0  0  0
 39 81  1  0  0  0  0
 39 82  1  0  0  0  0
 40 83  1  0  0  0  0
 40 84  1  0  0  0  0
 41 88  1  0  0  0  0
 41 89  1  0  0  0  0
 41 90  1  0  0  0  0
 42 86  1  0  0  0  0
 42 87  1  0  0  0  0
 43 91  1  0  0  0  0
 43 92  1  0  0  0  0
 43 93  1  0  0  0  0
 44 96  1  0  0  0  0
 44 97  1  0  0  0  0
 44 98  1  0  0  0  0
M  END
> <PUBCHEM_COMPOUND_CID>
11953923

> <PUBCHEM_COMPOUND_CANONICALIZED>
1

> <PUBCHEM_CACTVS_COMPLEXITY>
1090

> <PUBCHEM_CACTVS_HBOND_ACCEPTOR>
11

> <PUBCHEM_CACTVS_HBOND_DONOR>
5

> <PUBCHEM_CACTVS_ROTATABLE_BOND>
11

> <PUBCHEM_CACTVS_SUBSKEYS>
AAADcfB8PAAAAAAAAAAAAAAAEgAAAYIAAAAkAAAAAAAQAAAAAAAAGgAACAAAD1SwgAMCCAAABgCAAiBCAAAAAAAgAAAACAAAAAgRFAIAIQAiUAAFwAAPMAPA4PwPgAAAAAAAAAAAAAAAAAAAAYAAAAAAAA==

> <PUBCHEM_IUPAC_INCHI>
InChI=1S/C33H54O11/c1-17(2)19-8-10-31(4)12-21-20(9-11-33(21,38)16-40-7)18(3)25(35)29(24(19)31)43-30-27(37)26(36)28(22(42-30)13-39-6)44-32(5,15-34)23-14-41-23/h12,17-18,20,22-23,25-30,34-38H,8-11,13-16H2,1-7H3/b21-12+/t18-,20+,22-,23+,25-,26-,27-,28-,29-,30-,31-,32-,33+/m1/s1

> <PUBCHEM_IUPAC_INCHIKEY>
ZLOOJZZIGCIITD-RTZQVEJRSA-N

> <PUBCHEM_XLOGP3_AA>
-0.5

> <PUBCHEM_EXACT_MASS>
626.366613

> <PUBCHEM_MOLECULAR_FORMULA>
C33H54O11

> <PUBCHEM_MOLECULAR_WEIGHT>
626.77526

> <PUBCHEM_OPENEYE_CAN_SMILES>
CC1C2CCC(C2=CC3(CCC(=C3C(C1O)OC4C(C(C(C(O4)COC)OC(C)(CO)C5CO5)O)O)C(C)C)C)(COC)O

> <PUBCHEM_OPENEYE_ISO_SMILES>
C[C@@H]1[C@@H]\2CC[C@@](/C2=C/[C@]3(CCC(=C3[C@H]([C@@H]1O)O[C@@H]4[C@@H]([C@H]([C@@H]([C@H](O4)COC)O[C@](C)(CO)[C@@H]5CO5)O)O)C(C)C)C)(COC)O

> <PUBCHEM_CACTVS_TPSA>
160

> <PUBCHEM_MONOISOTOPIC_WEIGHT>
626.366613

> <PUBCHEM_TOTAL_CHARGE>
0

> <PUBCHEM_HEAVY_ATOM_COUNT>
44

> <PUBCHEM_ATOM_DEF_STEREO_COUNT>
13

> <PUBCHEM_ATOM_UDEF_STEREO_COUNT>
0

> <PUBCHEM_BOND_DEF_STEREO_COUNT>
1

> <PUBCHEM_BOND_UDEF_STEREO_COUNT>
0

> <PUBCHEM_ISOTOPIC_ATOM_COUNT>
0

> <PUBCHEM_COMPONENT_COUNT>
1

> <PUBCHEM_CACTVS_TAUTO_COUNT>
1

> <PUBCHEM_COORDINATE_TYPE>
1
5
255

> <PUBCHEM_BONDANNOTATIONS>
19  1  5
30  1  6
12  45  5
13  26  6
15  27  6
16  2  5
20  3  6
36  39  5
32  6  6
37  6  5
31  7  6
38  8  5
33  9  5

$$$$

