4041
  -OEChem-06251223502D

 34 36  0     1  0  0  0  0  0999 V2000
    6.8547    0.0492    0.0000 Cl  0  0  0  0  0  0  0  0  0  0  0  0
    3.4088   -2.0984    0.0000 N   0  0  3  0  0  0  0  0  0  0  0  0
    2.4339   -0.0740    0.0000 N   0  0  0  0  0  0  0  0  0  0  0  0
    2.4339   -1.8759    0.0000 C   0  0  0  0  0  0  0  0  0  0  0  0
    4.1906   -1.4749    0.0000 C   0  0  0  0  0  0  0  0  0  0  0  0
    4.1906   -0.4749    0.0000 C   0  0  0  0  0  0  0  0  0  0  0  0
    2.0000   -0.9749    0.0000 C   0  0  0  0  0  0  0  0  0  0  0  0
    3.4088    0.1486    0.0000 C   0  0  0  0  0  0  0  0  0  0  0  0
    5.0846   -2.0096    0.0000 C   0  0  0  0  0  0  0  0  0  0  0  0
    3.6313   -3.0734    0.0000 C   0  0  0  0  0  0  0  0  0  0  0  0
    3.6313    1.1235    0.0000 C   0  0  0  0  0  0  0  0  0  0  0  0
    5.0846    0.0597    0.0000 C   0  0  0  0  0  0  0  0  0  0  0  0
    5.9906   -1.4957    0.0000 C   0  0  0  0  0  0  0  0  0  0  0  0
    5.9906   -0.4541    0.0000 C   0  0  0  0  0  0  0  0  0  0  0  0
    4.5869    1.4182    0.0000 C   0  0  0  0  0  0  0  0  0  0  0  0
    2.8983    1.8037    0.0000 C   0  0  0  0  0  0  0  0  0  0  0  0
    4.8094    2.3932    0.0000 C   0  0  0  0  0  0  0  0  0  0  0  0
    3.1208    2.7786    0.0000 C   0  0  0  0  0  0  0  0  0  0  0  0
    4.0764    3.0734    0.0000 C   0  0  0  0  0  0  0  0  0  0  0  0
    1.8294   -2.0139    0.0000 H   0  0  0  0  0  0  0  0  0  0  0  0
    2.4339   -2.4959    0.0000 H   0  0  0  0  0  0  0  0  0  0  0  0
    1.5153   -0.5884    0.0000 H   0  0  0  0  0  0  0  0  0  0  0  0
    1.5153   -1.3615    0.0000 H   0  0  0  0  0  0  0  0  0  0  0  0
    5.0774   -2.6296    0.0000 H   0  0  0  0  0  0  0  0  0  0  0  0
    3.0269   -3.2113    0.0000 H   0  0  0  0  0  0  0  0  0  0  0  0
    3.7693   -3.6778    0.0000 H   0  0  0  0  0  0  0  0  0  0  0  0
    4.2358   -2.9354    0.0000 H   0  0  0  0  0  0  0  0  0  0  0  0
    5.0774    0.6797    0.0000 H   0  0  0  0  0  0  0  0  0  0  0  0
    6.5264   -1.8078    0.0000 H   0  0  0  0  0  0  0  0  0  0  0  0
    5.0414    0.9965    0.0000 H   0  0  0  0  0  0  0  0  0  0  0  0
    2.3058    1.6209    0.0000 H   0  0  0  0  0  0  0  0  0  0  0  0
    5.4019    2.5759    0.0000 H   0  0  0  0  0  0  0  0  0  0  0  0
    2.6663    3.2003    0.0000 H   0  0  0  0  0  0  0  0  0  0  0  0
    4.2143    3.6778    0.0000 H   0  0  0  0  0  0  0  0  0  0  0  0
  1 14  1  0  0  0  0
  2  4  1  0  0  0  0
  2  5  1  0  0  0  0
  2 10  1  0  0  0  0
  3  7  1  0  0  0  0
  3  8  2  0  0  0  0
  4  7  1  0  0  0  0
  4 20  1  0  0  0  0
  4 21  1  0  0  0  0
  5  6  2  0  0  0  0
  5  9  1  0  0  0  0
  6  8  1  0  0  0  0
  6 12  1  0  0  0  0
  7 22  1  0  0  0  0
  7 23  1  0  0  0  0
  8 11  1  0  0  0  0
  9 13  2  0  0  0  0
  9 24  1  0  0  0  0
 10 25  1  0  0  0  0
 10 26  1  0  0  0  0
 10 27  1  0  0  0  0
 11 15  2  0  0  0  0
 11 16  1  0  0  0  0
 12 14  2  0  0  0  0
 12 28  1  0  0  0  0
 13 14  1  0  0  0  0
 13 29  1  0  0  0  0
 15 17  1  0  0  0  0
 15 30  1  0  0  0  0
 16 18  2  0  0  0  0
 16 31  1  0  0  0  0
 17 19  2  0  0  0  0
 17 32  1  0  0  0  0
 18 19  1  0  0  0  0
 18 33  1  0  0  0  0
 19 34  1  0  0  0  0
M  END
> <PUBCHEM_COMPOUND_CID>
4041

> <PUBCHEM_COMPOUND_CANONICALIZED>
1

> <PUBCHEM_CACTVS_COMPLEXITY>
336

> <PUBCHEM_CACTVS_HBOND_ACCEPTOR>
2

> <PUBCHEM_CACTVS_HBOND_DONOR>
0

> <PUBCHEM_CACTVS_ROTATABLE_BOND>
1

> <PUBCHEM_CACTVS_SUBSKEYS>
AAADccB7AAAEAAAAAAAAAAAAAAAAAAAAAAAwYAAABAAAAAABQAAAHAIAAAAADArBGCQywIMAAACgAyRiRACCAAAhBwAIiAAoZpgIYKLBk5GUIAhggADIyAcQgMAOAABAIAACAAAAAIBAAAQAAAAAAAAAAA==

> <PUBCHEM_IUPAC_OPENEYE_NAME>
7-chloro-1-methyl-5-phenyl-2,3-dihydro-1,4-benzodiazepine

> <PUBCHEM_IUPAC_CAS_NAME>
7-chloro-1-methyl-5-phenyl-2,3-dihydro-1,4-benzodiazepine

> <PUBCHEM_IUPAC_NAME>
7-chloro-1-methyl-5-phenyl-2,3-dihydro-1,4-benzodiazepine

> <PUBCHEM_IUPAC_SYSTEMATIC_NAME>
7-chloranyl-1-methyl-5-phenyl-2,3-dihydro-1,4-benzodiazepine

> <PUBCHEM_IUPAC_TRADITIONAL_NAME>
7-chloro-1-methyl-5-phenyl-2,3-dihydro-1,4-benzodiazepine

> <PUBCHEM_IUPAC_INCHI>
InChI=1S/C16H15ClN2/c1-19-10-9-18-16(12-5-3-2-4-6-12)14-11-13(17)7-8-15(14)19/h2-8,11H,9-10H2,1H3

> <PUBCHEM_IUPAC_INCHIKEY>
YLCXGBZIZBEVPZ-UHFFFAOYSA-N

> <PUBCHEM_XLOGP3>
4.4

> <PUBCHEM_EXACT_MASS>
270.092376

> <PUBCHEM_MOLECULAR_FORMULA>
C16H15ClN2

> <PUBCHEM_MOLECULAR_WEIGHT>
270.7567

> <PUBCHEM_OPENEYE_CAN_SMILES>
CN1CCN=C(C2=C1C=CC(=C2)Cl)C3=CC=CC=C3

> <PUBCHEM_OPENEYE_ISO_SMILES>
CN1CCN=C(C2=C1C=CC(=C2)Cl)C3=CC=CC=C3

> <PUBCHEM_CACTVS_TPSA>
15.6

> <PUBCHEM_MONOISOTOPIC_WEIGHT>
270.092376

> <PUBCHEM_TOTAL_CHARGE>
0

> <PUBCHEM_HEAVY_ATOM_COUNT>
19

> <PUBCHEM_ATOM_DEF_STEREO_COUNT>
0

> <PUBCHEM_ATOM_UDEF_STEREO_COUNT>
0

> <PUBCHEM_BOND_DEF_STEREO_COUNT>
0

> <PUBCHEM_BOND_UDEF_STEREO_COUNT>
0

> <PUBCHEM_ISOTOPIC_ATOM_COUNT>
0

> <PUBCHEM_COMPONENT_COUNT>
1

> <PUBCHEM_CACTVS_TAUTO_COUNT>
1

> <PUBCHEM_COORDINATE_TYPE>
1
5
255

> <PUBCHEM_BONDANNOTATIONS>
11  15  8
11  16  8
12  14  8
13  14  8
15  17  8
16  18  8
17  19  8
18  19  8
5  6  8
5  9  8
6  12  8
9  13  8

$$$$

