442316
  -OEChem-07051212572D

 39 41  0     1  0  0  0  0  0999 V2000
    3.3648    0.4843    0.0000 O   0  0  0  0  0  0  0  0  0  0  0  0
    8.1298   -0.9980    0.0000 O   0  0  0  0  0  0  0  0  0  0  0  0
    9.3161    0.3160    0.0000 O   0  0  0  0  0  0  0  0  0  0  0  0
    2.0000   -0.6526    0.0000 O   0  0  0  0  0  0  0  0  0  0  0  0
    6.3796   -0.5771    0.0000 C   0  0  2  0  0  0  0  0  0  0  0  0
    6.6021    0.3978    0.0000 C   0  0  2  0  0  0  0  0  0  0  0  0
    5.9786    1.1796    0.0000 C   0  0  1  0  0  0  0  0  0  0  0  0
    5.4786   -1.0110    0.0000 C   0  0  0  0  0  0  0  0  0  0  0  0
    4.5777   -0.5771    0.0000 C   0  0  1  0  0  0  0  0  0  0  0  0
    4.3552    0.3978    0.0000 C   0  0  2  0  0  0  0  0  0  0  0  0
    4.9786    1.1796    0.0000 C   0  0  0  0  0  0  0  0  0  0  0  0
    7.1322   -1.2973    0.0000 C   0  0  0  0  0  0  0  0  0  0  0  0
    7.5926    0.7201    0.0000 C   0  0  0  0  0  0  0  0  0  0  0  0
    6.1571   -1.5521    0.0000 C   0  0  0  0  0  0  0  0  0  0  0  0
    3.7230   -1.0848    0.0000 C   0  0  0  0  0  0  0  0  0  0  0  0
    6.4125    2.0806    0.0000 C   0  0  0  0  0  0  0  0  0  0  0  0
    8.3616    0.0175    0.0000 C   0  0  0  0  0  0  0  0  0  0  0  0
    2.9749   -0.4301    0.0000 C   0  0  0  0  0  0  0  0  0  0  0  0
    3.6316   -2.0806    0.0000 C   0  0  0  0  0  0  0  0  0  0  0  0
    6.8464    1.2119    0.0000 H   0  0  0  0  0  0  0  0  0  0  0  0
    6.5948    1.2490    0.0000 H   0  0  0  0  0  0  0  0  0  0  0  0
    5.0921   -1.4958    0.0000 H   0  0  0  0  0  0  0  0  0  0  0  0
    5.8652   -1.4958    0.0000 H   0  0  0  0  0  0  0  0  0  0  0  0
    4.6147   -1.4263    0.0000 H   0  0  0  0  0  0  0  0  0  0  0  0
    4.0201    1.1790    0.0000 H   0  0  0  0  0  0  0  0  0  0  0  0
    5.1166    1.7841    0.0000 H   0  0  0  0  0  0  0  0  0  0  0  0
    4.4200    1.4486    0.0000 H   0  0  0  0  0  0  0  0  0  0  0  0
    6.6332   -1.6653    0.0000 H   0  0  0  0  0  0  0  0  0  0  0  0
    7.4093   -1.8519    0.0000 H   0  0  0  0  0  0  0  0  0  0  0  0
    8.0830    1.0995    0.0000 H   0  0  0  0  0  0  0  0  0  0  0  0
    7.3027    1.2682    0.0000 H   0  0  0  0  0  0  0  0  0  0  0  0
    5.5526   -1.4141    0.0000 H   0  0  0  0  0  0  0  0  0  0  0  0
    6.0191   -2.1565    0.0000 H   0  0  0  0  0  0  0  0  0  0  0  0
    6.7615   -1.6900    0.0000 H   0  0  0  0  0  0  0  0  0  0  0  0
    6.9711    1.8116    0.0000 H   0  0  0  0  0  0  0  0  0  0  0  0
    6.6816    2.6392    0.0000 H   0  0  0  0  0  0  0  0  0  0  0  0
    5.8539    2.3496    0.0000 H   0  0  0  0  0  0  0  0  0  0  0  0
    3.0686   -2.3402    0.0000 H   0  0  0  0  0  0  0  0  0  0  0  0
    4.1380   -2.4383    0.0000 H   0  0  0  0  0  0  0  0  0  0  0  0
  1 10  1  0  0  0  0
  1 18  1  0  0  0  0
  2 12  1  0  0  0  0
  2 17  1  0  0  0  0
  3 17  2  0  0  0  0
  4 18  2  0  0  0  0
  5  6  1  0  0  0  0
  5  8  1  0  0  0  0
  5 12  1  0  0  0  0
  5 14  1  6  0  0  0
  6  7  1  0  0  0  0
  6 13  1  0  0  0  0
  6 20  1  1  0  0  0
  7 11  1  0  0  0  0
  7 16  1  1  0  0  0
  7 21  1  0  0  0  0
  8  9  1  0  0  0  0
  8 22  1  0  0  0  0
  8 23  1  0  0  0  0
  9 10  1  0  0  0  0
  9 15  1  0  0  0  0
  9 24  1  1  0  0  0
 10 11  1  0  0  0  0
 10 25  1  6  0  0  0
 11 26  1  0  0  0  0
 11 27  1  0  0  0  0
 12 28  1  0  0  0  0
 12 29  1  0  0  0  0
 13 17  1  0  0  0  0
 13 30  1  0  0  0  0
 13 31  1  0  0  0  0
 14 32  1  0  0  0  0
 14 33  1  0  0  0  0
 14 34  1  0  0  0  0
 15 18  1  0  0  0  0
 15 19  2  0  0  0  0
 16 35  1  0  0  0  0
 16 36  1  0  0  0  0
 16 37  1  0  0  0  0
 19 38  1  0  0  0  0
 19 39  1  0  0  0  0
M  END
> <PUBCHEM_COMPOUND_CID>
442316

> <PUBCHEM_COMPOUND_CANONICALIZED>
1

> <PUBCHEM_CACTVS_COMPLEXITY>
455

> <PUBCHEM_CACTVS_HBOND_ACCEPTOR>
4

> <PUBCHEM_CACTVS_HBOND_DONOR>
0

> <PUBCHEM_CACTVS_ROTATABLE_BOND>
0

> <PUBCHEM_CACTVS_SUBSKEYS>
AAADceBwOAAAAAAAAAAAAAAAAAAAASAAAAAkAAAABgAAAACQAAAAGgAAAAAADxSggAICCAAABACIAgDSCAAAAAAgAAAAAAEAAEgABBIAIQACAAAEwAAAIIGK7PyPgAAAAAAAAAAAAAAAAAAAAAAAAAAAAA==

> <PUBCHEM_IUPAC_OPENEYE_NAME>
(4aS,5R,6aS,9aR,10aS)-5,10a-dimethyl-9-methylene-1,4,4a,5,6,6a,9a,10-octahydrofuro[3,4]cyclohepta[5,7-b]pyran-3,8-dione

> <PUBCHEM_IUPAC_CAS_NAME>
(4aS,5R,6aS,9aR,10aS)-5,10a-dimethyl-9-methylene-1,4,4a,5,6,6a,9a,10-octahydrofuro[3,4]cyclohepta[5,7-b]pyran-3,8-dione

> <PUBCHEM_IUPAC_NAME>
(4aS,5R,6aS,9aR,10aS)-5,10a-dimethyl-9-methylidene-1,4,4a,5,6,6a,9a,10-octahydrofuro[3,4]cyclohepta[5,7-b]pyran-3,8-dione

> <PUBCHEM_IUPAC_SYSTEMATIC_NAME>
(4aS,5R,6aS,9aR,10aS)-5,10a-dimethyl-9-methylidene-1,4,4a,5,6,6a,9a,10-octahydrofuro[3,4]cyclohepta[5,7-b]pyran-3,8-dione

> <PUBCHEM_IUPAC_TRADITIONAL_NAME>
(4aS,5R,6aS,9aR,10aS)-5,10a-dimethyl-9-methylene-1,4,4a,5,6,6a,9a,10-octahydrofuro[3,4]cyclohepta[5,7-b]pyran-3,8-quinone

> <PUBCHEM_IUPAC_INCHI>
InChI=1S/C15H20O4/c1-8-4-12-10(9(2)14(17)19-12)6-15(3)7-18-13(16)5-11(8)15/h8,10-12H,2,4-7H2,1,3H3/t8-,10-,11+,12+,15-/m1/s1

> <PUBCHEM_IUPAC_INCHIKEY>
GKYRUDQNQRLJRF-UXVFLIALSA-N

> <PUBCHEM_XLOGP3_AA>
2.4

> <PUBCHEM_EXACT_MASS>
264.136159

> <PUBCHEM_MOLECULAR_FORMULA>
C15H20O4

> <PUBCHEM_MOLECULAR_WEIGHT>
264.3169

> <PUBCHEM_OPENEYE_CAN_SMILES>
CC1CC2C(CC3(C1CC(=O)OC3)C)C(=C)C(=O)O2

> <PUBCHEM_OPENEYE_ISO_SMILES>
C[C@@H]1C[C@H]2[C@H](C[C@]3([C@H]1CC(=O)OC3)C)C(=C)C(=O)O2

> <PUBCHEM_CACTVS_TPSA>
52.6

> <PUBCHEM_MONOISOTOPIC_WEIGHT>
264.136159

> <PUBCHEM_TOTAL_CHARGE>
0

> <PUBCHEM_HEAVY_ATOM_COUNT>
19

> <PUBCHEM_ATOM_DEF_STEREO_COUNT>
5

> <PUBCHEM_ATOM_UDEF_STEREO_COUNT>
0

> <PUBCHEM_BOND_DEF_STEREO_COUNT>
0

> <PUBCHEM_BOND_UDEF_STEREO_COUNT>
0

> <PUBCHEM_ISOTOPIC_ATOM_COUNT>
0

> <PUBCHEM_COMPONENT_COUNT>
1

> <PUBCHEM_CACTVS_TAUTO_COUNT>
2

> <PUBCHEM_COORDINATE_TYPE>
1
5
255

> <PUBCHEM_BONDANNOTATIONS>
10  25  6
5  14  6
6  20  5
7  16  5
9  24  5

$$$$

