10627
  -OEChem-06261204462D

 59 60  0     1  0  0  0  0  0999 V2000
    4.5743    0.3590    0.0000 O   0  0  0  0  0  0  0  0  0  0  0  0
    8.0698    0.1576    0.0000 O   0  0  0  0  0  0  0  0  0  0  0  0
    9.5652   -0.0206    0.0000 O   0  0  0  0  0  0  0  0  0  0  0  0
   11.3160   -1.4115    0.0000 O   0  0  0  0  0  0  0  0  0  0  0  0
    8.2022   -2.2883    0.0000 O   0  0  0  0  0  0  0  0  0  0  0  0
    7.7126   -1.5372    0.0000 O   0  0  0  0  0  0  0  0  0  0  0  0
    2.9270    0.8943    0.0000 O   0  0  0  0  0  0  0  0  0  0  0  0
    5.8344    2.6191    0.0000 N   0  0  3  0  0  0  0  0  0  0  0  0
    5.8344    1.6191    0.0000 C   0  0  3  0  0  0  0  0  0  0  0  0
    4.8834    1.3101    0.0000 C   0  0  3  0  0  0  0  0  0  0  0  0
    4.2956    2.1191    0.0000 C   0  0  0  0  0  0  0  0  0  0  0  0
    4.8834    2.9281    0.0000 C   0  0  0  0  0  0  0  0  0  0  0  0
    6.7806    1.3144    0.0000 C   0  0  0  0  0  0  0  0  0  0  0  0
    6.7806    2.9238    0.0000 C   0  0  0  0  0  0  0  0  0  0  0  0
    7.3642    2.1191    0.0000 C   0  0  0  0  0  0  0  0  0  0  0  0
    7.0913    0.3639    0.0000 C   0  0  0  0  0  0  0  0  0  0  0  0
    9.3590   -0.9991    0.0000 C   0  0  3  0  0  0  0  0  0  0  0  0
   10.3375   -1.2053    0.0000 C   0  0  0  0  0  0  0  0  0  0  0  0
    8.3804   -0.7929    0.0000 C   0  0  0  0  0  0  0  0  0  0  0  0
    9.1527   -1.9776    0.0000 C   0  0  3  0  0  0  0  0  0  0  0  0
    3.5962    0.1511    0.0000 C   0  0  0  0  0  0  0  0  0  0  0  0
   10.6482   -2.1558    0.0000 C   0  0  0  0  0  0  0  0  0  0  0  0
   10.5437   -0.2268    0.0000 C   0  0  0  0  0  0  0  0  0  0  0  0
    9.4634   -2.9281    0.0000 C   0  0  0  0  0  0  0  0  0  0  0  0
    3.2872   -0.7999    0.0000 C   0  0  0  0  0  0  0  0  0  0  0  0
    3.9563   -1.5431    0.0000 C   0  0  0  0  0  0  0  0  0  0  0  0
    2.3090   -1.0078    0.0000 C   0  0  0  0  0  0  0  0  0  0  0  0
    2.0000   -1.9589    0.0000 C   0  0  0  0  0  0  0  0  0  0  0  0
    5.8355    0.7691    0.0000 H   0  0  0  0  0  0  0  0  0  0  0  0
    4.0438    1.1771    0.0000 H   0  0  0  0  0  0  0  0  0  0  0  0
    3.8348    2.5340    0.0000 H   0  0  0  0  0  0  0  0  0  0  0  0
    3.8348    1.7042    0.0000 H   0  0  0  0  0  0  0  0  0  0  0  0
    5.1355    3.4945    0.0000 H   0  0  0  0  0  0  0  0  0  0  0  0
    4.3464    3.2381    0.0000 H   0  0  0  0  0  0  0  0  0  0  0  0
    7.3180    3.2331    0.0000 H   0  0  0  0  0  0  0  0  0  0  0  0
    6.5296    3.4908    0.0000 H   0  0  0  0  0  0  0  0  0  0  0  0
    7.9842    2.1191    0.0000 H   0  0  0  0  0  0  0  0  0  0  0  0
    6.4775    0.2765    0.0000 H   0  0  0  0  0  0  0  0  0  0  0  0
    7.0707   -0.2558    0.0000 H   0  0  0  0  0  0  0  0  0  0  0  0
    8.5201   -1.4099    0.0000 H   0  0  0  0  0  0  0  0  0  0  0  0
   11.1504   -0.3547    0.0000 H   0  0  0  0  0  0  0  0  0  0  0  0
   10.6715    0.3799    0.0000 H   0  0  0  0  0  0  0  0  0  0  0  0
    9.9370   -0.0990    0.0000 H   0  0  0  0  0  0  0  0  0  0  0  0
   10.0589   -2.3485    0.0000 H   0  0  0  0  0  0  0  0  0  0  0  0
   10.8409   -2.7451    0.0000 H   0  0  0  0  0  0  0  0  0  0  0  0
   11.2375   -1.9632    0.0000 H   0  0  0  0  0  0  0  0  0  0  0  0
    8.8741   -3.1207    0.0000 H   0  0  0  0  0  0  0  0  0  0  0  0
    9.6560   -3.5174    0.0000 H   0  0  0  0  0  0  0  0  0  0  0  0
   10.0527   -2.7355    0.0000 H   0  0  0  0  0  0  0  0  0  0  0  0
    9.1037    0.3935    0.0000 H   0  0  0  0  0  0  0  0  0  0  0  0
   11.7300   -0.9501    0.0000 H   0  0  0  0  0  0  0  0  0  0  0  0
    8.0744   -2.8949    0.0000 H   0  0  0  0  0  0  0  0  0  0  0  0
    3.4956   -1.9579    0.0000 H   0  0  0  0  0  0  0  0  0  0  0  0
    4.3712   -2.0038    0.0000 H   0  0  0  0  0  0  0  0  0  0  0  0
    4.4170   -1.1282    0.0000 H   0  0  0  0  0  0  0  0  0  0  0  0
    1.8942   -0.5471    0.0000 H   0  0  0  0  0  0  0  0  0  0  0  0
    1.4103   -1.7673    0.0000 H   0  0  0  0  0  0  0  0  0  0  0  0
    1.8084   -2.5486    0.0000 H   0  0  0  0  0  0  0  0  0  0  0  0
    2.5897   -2.1505    0.0000 H   0  0  0  0  0  0  0  0  0  0  0  0
  1 10  1  0  0  0  0
  1 21  1  0  0  0  0
  2 16  1  0  0  0  0
  2 19  1  0  0  0  0
  3 17  1  0  0  0  0
  3 50  1  0  0  0  0
  4 18  1  0  0  0  0
  4 51  1  0  0  0  0
  5 20  1  0  0  0  0
  5 52  1  0  0  0  0
  6 19  2  0  0  0  0
  7 21  2  0  0  0  0
  8  9  1  0  0  0  0
  8 12  1  0  0  0  0
  8 14  1  0  0  0  0
  9 10  1  0  0  0  0
  9 13  1  0  0  0  0
  9 29  1  0  0  0  0
 10 11  1  0  0  0  0
 10 30  1  0  0  0  0
 11 12  1  0  0  0  0
 11 31  1  0  0  0  0
 11 32  1  0  0  0  0
 12 33  1  0  0  0  0
 12 34  1  0  0  0  0
 13 15  2  0  0  0  0
 13 16  1  0  0  0  0
 14 15  1  0  0  0  0
 14 35  1  0  0  0  0
 14 36  1  0  0  0  0
 15 37  1  0  0  0  0
 16 38  1  0  0  0  0
 16 39  1  0  0  0  0
 17 18  1  0  0  0  0
 17 19  1  0  0  0  0
 17 20  1  0  0  0  0
 18 22  1  0  0  0  0
 18 23  1  0  0  0  0
 20 24  1  0  0  0  0
 20 40  1  0  0  0  0
 21 25  1  0  0  0  0
 22 44  1  0  0  0  0
 22 45  1  0  0  0  0
 22 46  1  0  0  0  0
 23 41  1  0  0  0  0
 23 42  1  0  0  0  0
 23 43  1  0  0  0  0
 24 47  1  0  0  0  0
 24 48  1  0  0  0  0
 24 49  1  0  0  0  0
 25 26  1  0  0  0  0
 25 27  2  3  0  0  0
 26 53  1  0  0  0  0
 26 54  1  0  0  0  0
 26 55  1  0  0  0  0
 27 28  1  0  0  0  0
 27 56  1  0  0  0  0
 28 57  1  0  0  0  0
 28 58  1  0  0  0  0
 28 59  1  0  0  0  0
M  END
> <PUBCHEM_COMPOUND_CID>
10627

> <PUBCHEM_COMPOUND_CANONICALIZED>
1

> <PUBCHEM_CACTVS_COMPLEXITY>
684

> <PUBCHEM_CACTVS_HBOND_ACCEPTOR>
8

> <PUBCHEM_CACTVS_HBOND_DONOR>
3

> <PUBCHEM_CACTVS_ROTATABLE_BOND>
9

> <PUBCHEM_CACTVS_SUBSKEYS>
AAADceB6OAAAAAAAAAAAAAAAAAAAAWIAAAAAAAAAAAAQAAAAAAAAHgAACAAADHzhgAYCCAMABgCIAiDSCAKAAAAgAAAACAFIAEgDFBYAoQAHUAAH4ACbIYPQQAAOgAAAAAAAAAAAAAAAAAAAAAAAAAAAAA==

> <PUBCHEM_IUPAC_OPENEYE_NAME>
[7-(2-methylbut-2-enoyloxy)-5,6,7,8-tetrahydro-3H-pyrrolizin-1-yl]methyl 2,3-dihydroxy-2-(1-hydroxyethyl)-3-methyl-butanoate

> <PUBCHEM_IUPAC_CAS_NAME>
2,3-dihydroxy-2-(1-hydroxyethyl)-3-methylbutanoic acid [7-(2-methyl-1-oxobut-2-enoxy)-5,6,7,8-tetrahydro-3H-pyrrolizin-1-yl]methyl ester

> <PUBCHEM_IUPAC_NAME>
[7-(2-methylbut-2-enoyloxy)-5,6,7,8-tetrahydro-3H-pyrrolizin-1-yl]methyl 2,3-dihydroxy-2-(1-hydroxyethyl)-3-methylbutanoate

> <PUBCHEM_IUPAC_SYSTEMATIC_NAME>
[7-(2-methylbut-2-enoyloxy)-5,6,7,8-tetrahydro-3H-pyrrolizin-1-yl]methyl 2-(1-hydroxyethyl)-3-methyl-2,3-bis(oxidanyl)butanoate

> <PUBCHEM_IUPAC_TRADITIONAL_NAME>
2,3-dihydroxy-2-(1-hydroxyethyl)-3-methyl-butyric acid [7-(2-methylbut-2-enoyloxy)-5,6,7,8-tetrahydro-3H-pyrrolizin-1-yl]methyl ester

> <PUBCHEM_IUPAC_INCHI>
InChI=1S/C20H31NO7/c1-6-12(2)17(23)28-15-8-10-21-9-7-14(16(15)21)11-27-18(24)20(26,13(3)22)19(4,5)25/h6-7,13,15-16,22,25-26H,8-11H2,1-5H3

> <PUBCHEM_IUPAC_INCHIKEY>
HRSGCYGUWHGOPY-UHFFFAOYSA-N

> <PUBCHEM_XLOGP3_AA>
-0.1

> <PUBCHEM_EXACT_MASS>
397.210052

> <PUBCHEM_MOLECULAR_FORMULA>
C20H31NO7

> <PUBCHEM_MOLECULAR_WEIGHT>
397.46264

> <PUBCHEM_OPENEYE_CAN_SMILES>
CC=C(C)C(=O)OC1CCN2C1C(=CC2)COC(=O)C(C(C)O)(C(C)(C)O)O

> <PUBCHEM_OPENEYE_ISO_SMILES>
CC=C(C)C(=O)OC1CCN2C1C(=CC2)COC(=O)C(C(C)O)(C(C)(C)O)O

> <PUBCHEM_CACTVS_TPSA>
117

> <PUBCHEM_MONOISOTOPIC_WEIGHT>
397.210052

> <PUBCHEM_TOTAL_CHARGE>
0

> <PUBCHEM_HEAVY_ATOM_COUNT>
28

> <PUBCHEM_ATOM_DEF_STEREO_COUNT>
0

> <PUBCHEM_ATOM_UDEF_STEREO_COUNT>
4

> <PUBCHEM_BOND_DEF_STEREO_COUNT>
0

> <PUBCHEM_BOND_UDEF_STEREO_COUNT>
1

> <PUBCHEM_ISOTOPIC_ATOM_COUNT>
0

> <PUBCHEM_COMPONENT_COUNT>
1

> <PUBCHEM_CACTVS_TAUTO_COUNT>
1

> <PUBCHEM_COORDINATE_TYPE>
1
5
255

> <PUBCHEM_BONDANNOTATIONS>
10  30  3
17  18  3
20  40  3
25  27  1
9  29  3

$$$$

