7777
  -OEChem-06261202183D

 29 28  0     0  0  0  0  0  0999 V2000
    0.0023   -1.0496    0.2584 N   0  0  0  0  0  0  0  0  0  0  0  0
   -3.1005    1.9780    0.0001 N   0  0  0  0  0  0  0  0  0  0  0  0
    3.4947    1.5343    0.3745 N   0  0  0  0  0  0  0  0  0  0  0  0
   -1.3872   -1.4422    0.0570 C   0  0  0  0  0  0  0  0  0  0  0  0
    0.5782   -0.5346   -0.9852 C   0  0  0  0  0  0  0  0  0  0  0  0
   -2.2454   -0.2767   -0.4399 C   0  0  0  0  0  0  0  0  0  0  0  0
    2.0098   -0.0314   -0.7883 C   0  0  0  0  0  0  0  0  0  0  0  0
    0.7910   -2.1796    0.7529 C   0  0  0  0  0  0  0  0  0  0  0  0
   -2.2539    0.9114    0.5236 C   0  0  0  0  0  0  0  0  0  0  0  0
    2.1110    1.0904    0.2469 C   0  0  0  0  0  0  0  0  0  0  0  0
   -1.4648   -2.2715   -0.6583 H   0  0  0  0  0  0  0  0  0  0  0  0
   -1.8103   -1.7984    1.0051 H   0  0  0  0  0  0  0  0  0  0  0  0
    0.5681   -1.2979   -1.7743 H   0  0  0  0  0  0  0  0  0  0  0  0
    0.0225    0.3277   -1.3650 H   0  0  0  0  0  0  0  0  0  0  0  0
   -3.2754   -0.6502   -0.5305 H   0  0  0  0  0  0  0  0  0  0  0  0
   -1.9750    0.0329   -1.4553 H   0  0  0  0  0  0  0  0  0  0  0  0
    2.3617    0.3510   -1.7565 H   0  0  0  0  0  0  0  0  0  0  0  0
    2.6924   -0.8523   -0.5393 H   0  0  0  0  0  0  0  0  0  0  0  0
    0.9210   -2.9616   -0.0042 H   0  0  0  0  0  0  0  0  0  0  0  0
    0.2993   -2.6351    1.6211 H   0  0  0  0  0  0  0  0  0  0  0  0
    1.7745   -1.8664    1.1155 H   0  0  0  0  0  0  0  0  0  0  0  0
   -1.2446    1.3086    0.6704 H   0  0  0  0  0  0  0  0  0  0  0  0
   -2.6351    0.5992    1.5018 H   0  0  0  0  0  0  0  0  0  0  0  0
    1.7672    0.7502    1.2285 H   0  0  0  0  0  0  0  0  0  0  0  0
    1.4838    1.9377   -0.0513 H   0  0  0  0  0  0  0  0  0  0  0  0
   -2.7339    2.2987   -0.8953 H   0  0  0  0  0  0  0  0  0  0  0  0
   -3.0612    2.7795    0.6283 H   0  0  0  0  0  0  0  0  0  0  0  0
    3.5395    2.3175    1.0251 H   0  0  0  0  0  0  0  0  0  0  0  0
    3.8257    1.8886   -0.5220 H   0  0  0  0  0  0  0  0  0  0  0  0
  1  4  1  0  0  0  0
  1  5  1  0  0  0  0
  1  8  1  0  0  0  0
  2  9  1  0  0  0  0
  2 26  1  0  0  0  0
  2 27  1  0  0  0  0
  3 10  1  0  0  0  0
  3 28  1  0  0  0  0
  3 29  1  0  0  0  0
  4  6  1  0  0  0  0
  4 11  1  0  0  0  0
  4 12  1  0  0  0  0
  5  7  1  0  0  0  0
  5 13  1  0  0  0  0
  5 14  1  0  0  0  0
  6  9  1  0  0  0  0
  6 15  1  0  0  0  0
  6 16  1  0  0  0  0
  7 10  1  0  0  0  0
  7 17  1  0  0  0  0
  7 18  1  0  0  0  0
  8 19  1  0  0  0  0
  8 20  1  0  0  0  0
  8 21  1  0  0  0  0
  9 22  1  0  0  0  0
  9 23  1  0  0  0  0
 10 24  1  0  0  0  0
 10 25  1  0  0  0  0
M  END
> <PUBCHEM_COMPOUND_CID>
7777

> <PUBCHEM_CONFORMER_RMSD>
0.6

> <PUBCHEM_CONFORMER_DIVERSEORDER>
6
5
82
59
77
39
3
81
35
58
78
43
1
80
24
47
34
74
40
54
21
12
72
42
62
67
79
4
15
69
7
22
76
75
57
50
26
36
38
70
11
28
71
33
60
27
9
16
55
64
65
32
45
46
63
66
23
52
73
19
29
18
49
51
30
17
20
41
13
14
31
53
56
48
68
61
44
8
10
25
37
2

> <PUBCHEM_MMFF94_PARTIAL_CHARGES>
12
1 -0.81
10 0.27
2 -0.99
26 0.36
27 0.36
28 0.36
29 0.36
3 -0.99
4 0.27
5 0.27
8 0.27
9 0.27

> <PUBCHEM_EFFECTIVE_ROTOR_COUNT>
6

> <PUBCHEM_PHARMACOPHORE_FEATURES>
5
1 1 cation
1 2 cation
1 2 donor
1 3 cation
1 3 donor

> <PUBCHEM_HEAVY_ATOM_COUNT>
10

> <PUBCHEM_ATOM_DEF_STEREO_COUNT>
0

> <PUBCHEM_ATOM_UDEF_STEREO_COUNT>
0

> <PUBCHEM_BOND_DEF_STEREO_COUNT>
0

> <PUBCHEM_BOND_UDEF_STEREO_COUNT>
0

> <PUBCHEM_ISOTOPIC_ATOM_COUNT>
0

> <PUBCHEM_COMPONENT_COUNT>
1

> <PUBCHEM_CACTVS_TAUTO_COUNT>
1

> <PUBCHEM_CONFORMER_ID>
00001E6100000006

> <PUBCHEM_MMFF94_ENERGY>
2.0584

> <PUBCHEM_FEATURE_SELFOVERLAP>
25.371

> <PUBCHEM_SHAPE_FINGERPRINT>
10149128 76 18334856151386052357
13839132 238 18336259072419843708
14390081 3 18408038515859600917
15775835 57 18410852196079942225
170605 34 18334572477496609221
17834069 15 18413394237294000776
18342897 96 18261395520392005437
19973954 147 18263917748526418484
20653085 51 18041825281618357270
21040471 1 18201145564592568862
230 275 18271516589376378285
23211744 41 18261660476871943038
23402539 116 18046636602857632143
23552449 1 17617373983392914030
305870 269 18342741840280042290

> <PUBCHEM_SHAPE_MULTIPOLES>
190.85
4.69
2.18
0.9
0.47
0.17
0.1
-3.71
-0.31
-0.21
-0.56
0.19
0.15
0.02

> <PUBCHEM_SHAPE_SELFOVERLAP>
339.92

> <PUBCHEM_SHAPE_VOLUME>
123

> <PUBCHEM_COORDINATE_TYPE>
2
5
10

$$$$

