224006
  -OEChem-07051213073D

 60 63  0     1  0  0  0  0  0999 V2000
    4.7384   -0.7405   -0.3395 O   0  0  0  0  0  0  0  0  0  0  0  0
   -2.4440    2.0830   -0.5579 O   0  0  0  0  0  0  0  0  0  0  0  0
   -6.0081   -1.7979    1.1173 O   0  0  0  0  0  0  0  0  0  0  0  0
    6.1538   -0.1612    1.3921 O   0  0  0  0  0  0  0  0  0  0  0  0
   -1.8909    4.0522    0.5158 O   0  0  0  0  0  0  0  0  0  0  0  0
    1.3721    0.2537    0.6609 C   0  0  2  0  0  0  0  0  0  0  0  0
    2.2679   -0.5679   -0.2856 C   0  0  2  0  0  0  0  0  0  0  0  0
   -0.0710    0.3696    0.1581 C   0  0  1  0  0  0  0  0  0  0  0  0
   -0.6762   -1.0635    0.0322 C   0  0  1  0  0  0  0  0  0  0  0  0
   -2.1787   -1.0529   -0.4484 C   0  0  2  0  0  0  0  0  0  0  0  0
    1.7115   -1.9957   -0.3417 C   0  0  0  0  0  0  0  0  0  0  0  0
    0.2399   -2.0110   -0.7924 C   0  0  0  0  0  0  0  0  0  0  0  0
    3.6115   -0.4282    0.4565 C   0  0  2  0  0  0  0  0  0  0  0  0
    2.1799    1.5269    0.9000 C   0  0  0  0  0  0  0  0  0  0  0  0
   -0.9261    1.2160    1.1126 C   0  0  0  0  0  0  0  0  0  0  0  0
    3.6426    1.0472    0.8983 C   0  0  0  0  0  0  0  0  0  0  0  0
   -2.9877   -0.0462    0.3864 C   0  0  0  0  0  0  0  0  0  0  0  0
   -2.3752    1.3137    0.6416 C   0  0  2  0  0  0  0  0  0  0  0  0
    2.3843    0.0010   -1.7224 C   0  0  0  0  0  0  0  0  0  0  0  0
   -2.7606   -2.4846   -0.2489 C   0  0  0  0  0  0  0  0  0  0  0  0
   -2.3016   -0.6769   -1.9432 C   0  0  0  0  0  0  0  0  0  0  0  0
   -4.2762   -2.5446   -0.3551 C   0  0  0  0  0  0  0  0  0  0  0  0
   -4.2016   -0.3126    0.9002 C   0  0  0  0  0  0  0  0  0  0  0  0
   -4.9065   -1.5833    0.6155 C   0  0  0  0  0  0  0  0  0  0  0  0
    5.9619   -0.5618    0.2520 C   0  0  0  0  0  0  0  0  0  0  0  0
   -1.9255    3.3438   -0.4812 C   0  0  0  0  0  0  0  0  0  0  0  0
    7.0561   -0.9305   -0.7033 C   0  0  0  0  0  0  0  0  0  0  0  0
   -1.3898    3.7521   -1.8200 C   0  0  0  0  0  0  0  0  0  0  0  0
    1.3279   -0.2638    1.6341 H   0  0  0  0  0  0  0  0  0  0  0  0
   -0.0677    0.8587   -0.8211 H   0  0  0  0  0  0  0  0  0  0  0  0
   -0.6796   -1.4774    1.0539 H   0  0  0  0  0  0  0  0  0  0  0  0
    1.7764   -2.4649    0.6487 H   0  0  0  0  0  0  0  0  0  0  0  0
    2.3108   -2.6181   -1.0170 H   0  0  0  0  0  0  0  0  0  0  0  0
    0.1921   -1.7541   -1.8553 H   0  0  0  0  0  0  0  0  0  0  0  0
   -0.1191   -3.0427   -0.7098 H   0  0  0  0  0  0  0  0  0  0  0  0
    3.6139   -1.0791    1.3423 H   0  0  0  0  0  0  0  0  0  0  0  0
    1.9201    2.0060    1.8495 H   0  0  0  0  0  0  0  0  0  0  0  0
    2.0170    2.2606    0.1026 H   0  0  0  0  0  0  0  0  0  0  0  0
   -0.4672    2.2013    1.2325 H   0  0  0  0  0  0  0  0  0  0  0  0
   -0.9117    0.7558    2.1104 H   0  0  0  0  0  0  0  0  0  0  0  0
    4.2482    1.6766    0.2362 H   0  0  0  0  0  0  0  0  0  0  0  0
    4.0602    1.1401    1.9071 H   0  0  0  0  0  0  0  0  0  0  0  0
   -2.9531    1.8436    1.4110 H   0  0  0  0  0  0  0  0  0  0  0  0
    2.8222    1.0040   -1.7404 H   0  0  0  0  0  0  0  0  0  0  0  0
    3.0252   -0.6401   -2.3388 H   0  0  0  0  0  0  0  0  0  0  0  0
    1.4192    0.0681   -2.2313 H   0  0  0  0  0  0  0  0  0  0  0  0
   -2.4734   -2.8612    0.7430 H   0  0  0  0  0  0  0  0  0  0  0  0
   -2.3362   -3.1829   -0.9798 H   0  0  0  0  0  0  0  0  0  0  0  0
   -1.7237    0.2162   -2.1977 H   0  0  0  0  0  0  0  0  0  0  0  0
   -1.9459   -1.4851   -2.5915 H   0  0  0  0  0  0  0  0  0  0  0  0
   -3.3420   -0.4771   -2.2250 H   0  0  0  0  0  0  0  0  0  0  0  0
   -4.6131   -3.5578   -0.1089 H   0  0  0  0  0  0  0  0  0  0  0  0
   -4.6241   -2.3054   -1.3648 H   0  0  0  0  0  0  0  0  0  0  0  0
   -4.7402    0.4128    1.5013 H   0  0  0  0  0  0  0  0  0  0  0  0
    7.0049   -0.2915   -1.5884 H   0  0  0  0  0  0  0  0  0  0  0  0
    6.9645   -1.9832   -0.9821 H   0  0  0  0  0  0  0  0  0  0  0  0
    8.0258   -0.7802   -0.2202 H   0  0  0  0  0  0  0  0  0  0  0  0
   -2.1911    3.7292   -2.5628 H   0  0  0  0  0  0  0  0  0  0  0  0
   -0.5748    3.0852   -2.1120 H   0  0  0  0  0  0  0  0  0  0  0  0
   -1.0013    4.7727   -1.7591 H   0  0  0  0  0  0  0  0  0  0  0  0
  1 13  1  0  0  0  0
  1 25  1  0  0  0  0
  2 18  1  0  0  0  0
  2 26  1  0  0  0  0
  3 24  2  0  0  0  0
  4 25  2  0  0  0  0
  5 26  2  0  0  0  0
  6  7  1  0  0  0  0
  6  8  1  0  0  0  0
  6 14  1  0  0  0  0
  6 29  1  0  0  0  0
  7 11  1  0  0  0  0
  7 13  1  0  0  0  0
  7 19  1  0  0  0  0
  8  9  1  0  0  0  0
  8 15  1  0  0  0  0
  8 30  1  0  0  0  0
  9 10  1  0  0  0  0
  9 12  1  0  0  0  0
  9 31  1  0  0  0  0
 10 17  1  0  0  0  0
 10 20  1  0  0  0  0
 10 21  1  0  0  0  0
 11 12  1  0  0  0  0
 11 32  1  0  0  0  0
 11 33  1  0  0  0  0
 12 34  1  0  0  0  0
 12 35  1  0  0  0  0
 13 16  1  0  0  0  0
 13 36  1  0  0  0  0
 14 16  1  0  0  0  0
 14 37  1  0  0  0  0
 14 38  1  0  0  0  0
 15 18  1  0  0  0  0
 15 39  1  0  0  0  0
 15 40  1  0  0  0  0
 16 41  1  0  0  0  0
 16 42  1  0  0  0  0
 17 18  1  0  0  0  0
 17 23  2  0  0  0  0
 18 43  1  0  0  0  0
 19 44  1  0  0  0  0
 19 45  1  0  0  0  0
 19 46  1  0  0  0  0
 20 22  1  0  0  0  0
 20 47  1  0  0  0  0
 20 48  1  0  0  0  0
 21 49  1  0  0  0  0
 21 50  1  0  0  0  0
 21 51  1  0  0  0  0
 22 24  1  0  0  0  0
 22 52  1  0  0  0  0
 22 53  1  0  0  0  0
 23 24  1  0  0  0  0
 23 54  1  0  0  0  0
 25 27  1  0  0  0  0
 26 28  1  0  0  0  0
 27 55  1  0  0  0  0
 27 56  1  0  0  0  0
 27 57  1  0  0  0  0
 28 58  1  0  0  0  0
 28 59  1  0  0  0  0
 28 60  1  0  0  0  0
M  END
> <PUBCHEM_COMPOUND_CID>
224006

> <PUBCHEM_CONFORMER_RMSD>
0.8

> <PUBCHEM_CONFORMER_DIVERSEORDER>
1
4
2
3

> <PUBCHEM_MMFF94_PARTIAL_CHARGES>
17
1 -0.43
10 0.14
13 0.28
17 -0.28
18 0.42
2 -0.43
22 0.06
23 -0.14
24 0.49
25 0.66
26 0.66
27 0.06
28 0.06
3 -0.57
4 -0.57
5 -0.57
54 0.15

> <PUBCHEM_EFFECTIVE_ROTOR_COUNT>
5.8

> <PUBCHEM_PHARMACOPHORE_FEATURES>
7
1 3 acceptor
1 4 acceptor
1 5 acceptor
5 6 7 13 14 16 rings
6 10 17 20 22 23 24 rings
6 6 7 8 9 11 12 rings
6 8 9 10 15 17 18 rings

> <PUBCHEM_HEAVY_ATOM_COUNT>
28

> <PUBCHEM_ATOM_DEF_STEREO_COUNT>
7

> <PUBCHEM_ATOM_UDEF_STEREO_COUNT>
0

> <PUBCHEM_BOND_DEF_STEREO_COUNT>
0

> <PUBCHEM_BOND_UDEF_STEREO_COUNT>
0

> <PUBCHEM_ISOTOPIC_ATOM_COUNT>
0

> <PUBCHEM_COMPONENT_COUNT>
1

> <PUBCHEM_CACTVS_TAUTO_COUNT>
2

> <PUBCHEM_CONFORMER_ID>
00036B0600000001

> <PUBCHEM_MMFF94_ENERGY>
83.9887

> <PUBCHEM_FEATURE_SELFOVERLAP>
35.616

> <PUBCHEM_SHAPE_FINGERPRINT>
10369192 42 17168423754130623396
10670039 82 18341316865306325948
11045515 52 18130512929450944741
11101153 10 18201430338700593524
11315181 36 13038901136476623990
11578080 2 17983011451735423254
11595378 159 18270982192634599120
12107183 9 17695077982499664818
12107698 1 18131350799991976776
12166972 35 17560518400228790822
12236239 1 17989486325371956138
12403259 226 18334864874665084416
12403259 415 18040443191908902456
12403814 3 18408603678048318369
12422481 6 17968374554824221475
12553582 1 18339372868223424723
12788726 201 18270943688142221541
13009979 54 18130776829115180790
13140716 1 18117840997368321723
13583140 156 18188221995451184334
14117953 113 18410011048811023533
14223421 5 18335698399057850695
14251751 93 18337677515729660672
14294032 229 18198897209522542333
14341114 176 18259982648398667242
14347332 77 18413392038223233512
14713325 29 18339361988622812321
14856354 85 18341321207012450686
14955137 171 18195800774699016523
15196674 1 18115026299145863650
15484559 13 14366358687374948110
16087824 20 18339643464929319221
17349148 13 17846778494794088666
1813 80 18267857303563871469
18927931 339 18410571781960270671
200 152 14476967757426879451
20739085 24 18192704554033778225
21033650 10 18053915581009086622
21267235 1 18261384534198185930
21279426 13 18044653342491746166
2132832 1 17918269831632679612
22182313 1 17822566231027783270
23402539 116 18272371966557660307
23522609 53 18046593816641667720
23557571 272 18342457049630601775
23559900 14 18334021579110599016
238 59 16615356563043467669
23845131 108 17760638571093611313
3187 122 18342740715373423285
335352 9 18259982656640565527
350125 39 18334292050718921640
4409770 3 18341906233545490733
469060 322 18341596140679655489
5104073 3 18041280963623684378

> <PUBCHEM_SHAPE_MULTIPOLES>
546.88
12.15
3.51
1.36
15.42
3.87
-0.44
-7.03
2.49
-4.48
-0.99
-0.1
0.42
0.93

> <PUBCHEM_SHAPE_SELFOVERLAP>
1165.55

> <PUBCHEM_SHAPE_VOLUME>
300.7

> <PUBCHEM_COORDINATE_TYPE>
2
5
10

$$$$

