656738
  -OEChem-07051213042D

 55 55  0     1  0  0  0  0  0999 V2000
    8.2331    1.1830    0.0000 O   0  0  0  0  0  0  0  0  0  0  0  0
    2.5369    0.3170    0.0000 O   0  0  0  0  0  0  0  0  0  0  0  0
    3.4030   -1.1830    0.0000 O   0  0  0  0  0  0  0  0  0  0  0  0
    8.7331    0.3170    0.0000 C   0  0  2  0  0  0  0  0  0  0  0  0
    7.7331    0.3170    0.0000 C   0  0  1  0  0  0  0  0  0  0  0  0
    9.5991   -0.1830    0.0000 C   0  0  0  0  0  0  0  0  0  0  0  0
    6.8671   -0.1830    0.0000 C   0  0  0  0  0  0  0  0  0  0  0  0
   10.4651    0.3170    0.0000 C   0  0  0  0  0  0  0  0  0  0  0  0
    6.0010    0.3170    0.0000 C   0  0  0  0  0  0  0  0  0  0  0  0
   11.3312   -0.1830    0.0000 C   0  0  0  0  0  0  0  0  0  0  0  0
   12.1972    0.3170    0.0000 C   0  0  0  0  0  0  0  0  0  0  0  0
    5.1350   -0.1830    0.0000 C   0  0  0  0  0  0  0  0  0  0  0  0
   13.0632   -0.1830    0.0000 C   0  0  0  0  0  0  0  0  0  0  0  0
   13.9292    0.3170    0.0000 C   0  0  0  0  0  0  0  0  0  0  0  0
    4.2690    0.3170    0.0000 C   0  0  0  0  0  0  0  0  0  0  0  0
   14.7953   -0.1830    0.0000 C   0  0  0  0  0  0  0  0  0  0  0  0
   15.6613    0.3170    0.0000 C   0  0  0  0  0  0  0  0  0  0  0  0
   16.5273   -0.1830    0.0000 C   0  0  0  0  0  0  0  0  0  0  0  0
    3.4030   -0.1830    0.0000 C   0  0  0  0  0  0  0  0  0  0  0  0
   17.3933    0.3170    0.0000 C   0  0  0  0  0  0  0  0  0  0  0  0
   18.2594   -0.1830    0.0000 C   0  0  0  0  0  0  0  0  0  0  0  0
    9.1715    0.7554    0.0000 H   0  0  0  0  0  0  0  0  0  0  0  0
    7.2947    0.7554    0.0000 H   0  0  0  0  0  0  0  0  0  0  0  0
    9.2006   -0.6580    0.0000 H   0  0  0  0  0  0  0  0  0  0  0  0
    9.9976   -0.6580    0.0000 H   0  0  0  0  0  0  0  0  0  0  0  0
    6.4685   -0.6580    0.0000 H   0  0  0  0  0  0  0  0  0  0  0  0
    7.2656   -0.6580    0.0000 H   0  0  0  0  0  0  0  0  0  0  0  0
   10.8637    0.7919    0.0000 H   0  0  0  0  0  0  0  0  0  0  0  0
   10.0666    0.7919    0.0000 H   0  0  0  0  0  0  0  0  0  0  0  0
    6.3996    0.7919    0.0000 H   0  0  0  0  0  0  0  0  0  0  0  0
    5.6025    0.7919    0.0000 H   0  0  0  0  0  0  0  0  0  0  0  0
   10.9326   -0.6580    0.0000 H   0  0  0  0  0  0  0  0  0  0  0  0
   11.7297   -0.6580    0.0000 H   0  0  0  0  0  0  0  0  0  0  0  0
   12.5957    0.7919    0.0000 H   0  0  0  0  0  0  0  0  0  0  0  0
   11.7987    0.7919    0.0000 H   0  0  0  0  0  0  0  0  0  0  0  0
    4.7365   -0.6580    0.0000 H   0  0  0  0  0  0  0  0  0  0  0  0
    5.5335   -0.6580    0.0000 H   0  0  0  0  0  0  0  0  0  0  0  0
   12.6647   -0.6580    0.0000 H   0  0  0  0  0  0  0  0  0  0  0  0
   13.4617   -0.6580    0.0000 H   0  0  0  0  0  0  0  0  0  0  0  0
   14.3278    0.7919    0.0000 H   0  0  0  0  0  0  0  0  0  0  0  0
   13.5307    0.7919    0.0000 H   0  0  0  0  0  0  0  0  0  0  0  0
    4.6675    0.7919    0.0000 H   0  0  0  0  0  0  0  0  0  0  0  0
    3.8705    0.7919    0.0000 H   0  0  0  0  0  0  0  0  0  0  0  0
   14.3967   -0.6580    0.0000 H   0  0  0  0  0  0  0  0  0  0  0  0
   15.1938   -0.6580    0.0000 H   0  0  0  0  0  0  0  0  0  0  0  0
   16.0598    0.7919    0.0000 H   0  0  0  0  0  0  0  0  0  0  0  0
   15.2628    0.7919    0.0000 H   0  0  0  0  0  0  0  0  0  0  0  0
   16.1288   -0.6580    0.0000 H   0  0  0  0  0  0  0  0  0  0  0  0
   16.9258   -0.6580    0.0000 H   0  0  0  0  0  0  0  0  0  0  0  0
   17.7919    0.7919    0.0000 H   0  0  0  0  0  0  0  0  0  0  0  0
   16.9948    0.7919    0.0000 H   0  0  0  0  0  0  0  0  0  0  0  0
   17.9494   -0.7199    0.0000 H   0  0  0  0  0  0  0  0  0  0  0  0
   18.7963   -0.4930    0.0000 H   0  0  0  0  0  0  0  0  0  0  0  0
   18.5694    0.3539    0.0000 H   0  0  0  0  0  0  0  0  0  0  0  0
    2.0000    0.0070    0.0000 H   0  0  0  0  0  0  0  0  0  0  0  0
  1  4  1  0  0  0  0
  1  5  1  0  0  0  0
  2 19  1  0  0  0  0
  2 55  1  0  0  0  0
  3 19  2  0  0  0  0
  4  5  1  0  0  0  0
  4  6  1  1  0  0  0
  4 22  1  0  0  0  0
  5  7  1  1  0  0  0
  5 23  1  0  0  0  0
  6  8  1  0  0  0  0
  6 24  1  0  0  0  0
  6 25  1  0  0  0  0
  7  9  1  0  0  0  0
  7 26  1  0  0  0  0
  7 27  1  0  0  0  0
  8 10  1  0  0  0  0
  8 28  1  0  0  0  0
  8 29  1  0  0  0  0
  9 12  1  0  0  0  0
  9 30  1  0  0  0  0
  9 31  1  0  0  0  0
 10 11  1  0  0  0  0
 10 32  1  0  0  0  0
 10 33  1  0  0  0  0
 11 13  1  0  0  0  0
 11 34  1  0  0  0  0
 11 35  1  0  0  0  0
 12 15  1  0  0  0  0
 12 36  1  0  0  0  0
 12 37  1  0  0  0  0
 13 14  1  0  0  0  0
 13 38  1  0  0  0  0
 13 39  1  0  0  0  0
 14 16  1  0  0  0  0
 14 40  1  0  0  0  0
 14 41  1  0  0  0  0
 15 19  1  0  0  0  0
 15 42  1  0  0  0  0
 15 43  1  0  0  0  0
 16 17  1  0  0  0  0
 16 44  1  0  0  0  0
 16 45  1  0  0  0  0
 17 18  1  0  0  0  0
 17 46  1  0  0  0  0
 17 47  1  0  0  0  0
 18 20  1  0  0  0  0
 18 48  1  0  0  0  0
 18 49  1  0  0  0  0
 20 21  1  0  0  0  0
 20 50  1  0  0  0  0
 20 51  1  0  0  0  0
 21 52  1  0  0  0  0
 21 53  1  0  0  0  0
 21 54  1  0  0  0  0
M  END
> <PUBCHEM_COMPOUND_CID>
656738

> <PUBCHEM_COMPOUND_CANONICALIZED>
1

> <PUBCHEM_CACTVS_COMPLEXITY>
265

> <PUBCHEM_CACTVS_HBOND_ACCEPTOR>
3

> <PUBCHEM_CACTVS_HBOND_DONOR>
1

> <PUBCHEM_CACTVS_ROTATABLE_BOND>
15

> <PUBCHEM_CACTVS_SUBSKEYS>
AAADcfB4MAAAAAAAAAAAAAAAEgAAAAAAAAAAAAAAAAAAAAAAAAAAGgAACAAACBSggAICCAAABgAIAACQCAAAAAAAAAAAAAEAAAAAABIAAAACQAAEAAAAAAGIyKCAAAAAAAAAAAAAAAAAAAAAAAAAAAAAAA==

> <PUBCHEM_IUPAC_OPENEYE_NAME>
5-[(2R,3S)-3-undecyloxiran-2-yl]pentanoic acid

> <PUBCHEM_IUPAC_CAS_NAME>
5-[(2R,3S)-3-undecyl-2-oxiranyl]pentanoic acid

> <PUBCHEM_IUPAC_NAME>
5-[(2R,3S)-3-undecyloxiran-2-yl]pentanoic acid

> <PUBCHEM_IUPAC_SYSTEMATIC_NAME>
5-[(2R,3S)-3-undecyloxiran-2-yl]pentanoic acid

> <PUBCHEM_IUPAC_TRADITIONAL_NAME>
5-[(2R,3S)-3-undecyloxiran-2-yl]valeric acid

> <PUBCHEM_IUPAC_INCHI>
InChI=1S/C18H34O3/c1-2-3-4-5-6-7-8-9-10-13-16-17(21-16)14-11-12-15-18(19)20/h16-17H,2-15H2,1H3,(H,19,20)/t16-,17+/m0/s1

> <PUBCHEM_IUPAC_INCHIKEY>
PVMIAUUBHIBDJY-DLBZAZTESA-N

> <PUBCHEM_XLOGP3_AA>
6.1

> <PUBCHEM_EXACT_MASS>
298.250795

> <PUBCHEM_MOLECULAR_FORMULA>
C18H34O3

> <PUBCHEM_MOLECULAR_WEIGHT>
298.46076

> <PUBCHEM_OPENEYE_CAN_SMILES>
CCCCCCCCCCCC1C(O1)CCCCC(=O)O

> <PUBCHEM_OPENEYE_ISO_SMILES>
CCCCCCCCCCC[C@H]1[C@H](O1)CCCCC(=O)O

> <PUBCHEM_CACTVS_TPSA>
49.8

> <PUBCHEM_MONOISOTOPIC_WEIGHT>
298.250795

> <PUBCHEM_TOTAL_CHARGE>
0

> <PUBCHEM_HEAVY_ATOM_COUNT>
21

> <PUBCHEM_ATOM_DEF_STEREO_COUNT>
2

> <PUBCHEM_ATOM_UDEF_STEREO_COUNT>
0

> <PUBCHEM_BOND_DEF_STEREO_COUNT>
0

> <PUBCHEM_BOND_UDEF_STEREO_COUNT>
0

> <PUBCHEM_ISOTOPIC_ATOM_COUNT>
0

> <PUBCHEM_COMPONENT_COUNT>
1

> <PUBCHEM_CACTVS_TAUTO_COUNT>
1

> <PUBCHEM_COORDINATE_TYPE>
1
5
255

> <PUBCHEM_BONDANNOTATIONS>
4  6  5
5  7  5

$$$$

