4475
  -OEChem-06261200092D

 57 61  0     1  0  0  0  0  0999 V2000
    2.0000    5.0321    0.0000 Br  0  0  0  0  0  0  0  0  0  0  0  0
    5.5354   -2.0029    0.0000 O   0  0  0  0  0  0  0  0  0  0  0  0
    4.6116    1.5422    0.0000 O   0  0  0  0  0  0  0  0  0  0  0  0
    2.8795    1.5355    0.0000 O   0  0  0  0  0  0  0  0  0  0  0  0
    7.2835    0.0386    0.0000 N   0  0  3  0  0  0  0  0  0  0  0  0
    8.2715   -4.1516    0.0000 N   0  0  0  0  0  0  0  0  0  0  0  0
    4.6000    4.5422    0.0000 N   0  0  0  0  0  0  0  0  0  0  0  0
    6.4014   -1.5029    0.0000 C   0  0  3  0  0  0  0  0  0  0  0  0
    7.2674   -1.0029    0.0000 C   0  0  3  0  0  0  0  0  0  0  0  0
    5.4914   -0.9961    0.0000 C   0  0  0  0  0  0  0  0  0  0  0  0
    5.4834    0.0455    0.0000 C   0  0  3  0  0  0  0  0  0  0  0  0
    8.1334   -1.5029    0.0000 C   0  0  0  0  0  0  0  0  0  0  0  0
    6.4014   -2.5029    0.0000 C   0  0  0  0  0  0  0  0  0  0  0  0
    6.3854    0.5663    0.0000 C   0  0  0  0  0  0  0  0  0  0  0  0
    7.2674   -3.0029    0.0000 C   0  0  0  0  0  0  0  0  0  0  0  0
    8.1334   -2.5029    0.0000 C   0  0  0  0  0  0  0  0  0  0  0  0
    4.6154    0.5422    0.0000 C   0  0  0  0  0  0  0  0  0  0  0  0
    7.2835   -4.0444    0.0000 C   0  0  0  0  0  0  0  0  0  0  0  0
    8.1552    0.5285    0.0000 C   0  0  0  0  0  0  0  0  0  0  0  0
    5.4914   -3.0098    0.0000 C   0  0  0  0  0  0  0  0  0  0  0  0
    8.7514   -3.2813    0.0000 C   0  0  0  0  0  0  0  0  0  0  0  0
    6.3854   -4.5722    0.0000 C   0  0  0  0  0  0  0  0  0  0  0  0
    5.4834   -4.0514    0.0000 C   0  0  0  0  0  0  0  0  0  0  0  0
    4.6693   -1.5029    0.0000 C   0  0  0  0  0  0  0  0  0  0  0  0
    8.7328   -5.0388    0.0000 C   0  0  0  0  0  0  0  0  0  0  0  0
    3.7436    2.0388    0.0000 C   0  0  0  0  0  0  0  0  0  0  0  0
    3.7398    3.0388    0.0000 C   0  0  0  0  0  0  0  0  0  0  0  0
    2.8718    3.5355    0.0000 C   0  0  0  0  0  0  0  0  0  0  0  0
    4.6038    3.5422    0.0000 C   0  0  0  0  0  0  0  0  0  0  0  0
    2.8680    4.5355    0.0000 C   0  0  0  0  0  0  0  0  0  0  0  0
    3.7320    5.0388    0.0000 C   0  0  0  0  0  0  0  0  0  0  0  0
    8.0068   -0.5836    0.0000 H   0  0  0  0  0  0  0  0  0  0  0  0
    4.8797   -0.8947    0.0000 H   0  0  0  0  0  0  0  0  0  0  0  0
    5.2868   -1.5814    0.0000 H   0  0  0  0  0  0  0  0  0  0  0  0
    4.7497   -0.3837    0.0000 H   0  0  0  0  0  0  0  0  0  0  0  0
    8.7440   -1.6106    0.0000 H   0  0  0  0  0  0  0  0  0  0  0  0
    8.3455   -0.9203    0.0000 H   0  0  0  0  0  0  0  0  0  0  0  0
    6.7864    1.0392    0.0000 H   0  0  0  0  0  0  0  0  0  0  0  0
    5.9881    1.0423    0.0000 H   0  0  0  0  0  0  0  0  0  0  0  0
    4.0044    0.6475    0.0000 H   0  0  0  0  0  0  0  0  0  0  0  0
    4.4056   -0.0412    0.0000 H   0  0  0  0  0  0  0  0  0  0  0  0
    8.4590   -0.0119    0.0000 H   0  0  0  0  0  0  0  0  0  0  0  0
    8.6957    0.8323    0.0000 H   0  0  0  0  0  0  0  0  0  0  0  0
    7.8514    1.0690    0.0000 H   0  0  0  0  0  0  0  0  0  0  0  0
    4.9581   -2.6936    0.0000 H   0  0  0  0  0  0  0  0  0  0  0  0
    9.3692   -3.2295    0.0000 H   0  0  0  0  0  0  0  0  0  0  0  0
    6.3878   -5.1922    0.0000 H   0  0  0  0  0  0  0  0  0  0  0  0
    4.9452   -4.3593    0.0000 H   0  0  0  0  0  0  0  0  0  0  0  0
    4.9793   -0.9660    0.0000 H   0  0  0  0  0  0  0  0  0  0  0  0
    4.1324   -1.1929    0.0000 H   0  0  0  0  0  0  0  0  0  0  0  0
    4.3593   -2.0398    0.0000 H   0  0  0  0  0  0  0  0  0  0  0  0
    8.1827   -5.3248    0.0000 H   0  0  0  0  0  0  0  0  0  0  0  0
    9.0188   -5.5889    0.0000 H   0  0  0  0  0  0  0  0  0  0  0  0
    9.2829   -4.7528    0.0000 H   0  0  0  0  0  0  0  0  0  0  0  0
    2.3361    3.2234    0.0000 H   0  0  0  0  0  0  0  0  0  0  0  0
    5.1420    3.2342    0.0000 H   0  0  0  0  0  0  0  0  0  0  0  0
    3.7296    5.6588    0.0000 H   0  0  0  0  0  0  0  0  0  0  0  0
  1 30  1  0  0  0  0
  2  8  1  0  0  0  0
  2 24  1  0  0  0  0
  3 17  1  0  0  0  0
  3 26  1  0  0  0  0
  4 26  2  0  0  0  0
  5  9  1  0  0  0  0
  5 14  1  0  0  0  0
  5 19  1  0  0  0  0
  6 18  1  0  0  0  0
  6 21  1  0  0  0  0
  6 25  1  0  0  0  0
  7 29  2  0  0  0  0
  7 31  1  0  0  0  0
  8  9  1  0  0  0  0
  8 10  1  0  0  0  0
  8 13  1  0  0  0  0
  9 12  1  0  0  0  0
  9 32  1  0  0  0  0
 10 11  1  0  0  0  0
 10 33  1  0  0  0  0
 10 34  1  0  0  0  0
 11 14  1  0  0  0  0
 11 17  1  0  0  0  0
 11 35  1  0  0  0  0
 12 16  1  0  0  0  0
 12 36  1  0  0  0  0
 12 37  1  0  0  0  0
 13 15  2  0  0  0  0
 13 20  1  0  0  0  0
 14 38  1  0  0  0  0
 14 39  1  0  0  0  0
 15 16  1  0  0  0  0
 15 18  1  0  0  0  0
 16 21  2  0  0  0  0
 17 40  1  0  0  0  0
 17 41  1  0  0  0  0
 18 22  2  0  0  0  0
 19 42  1  0  0  0  0
 19 43  1  0  0  0  0
 19 44  1  0  0  0  0
 20 23  2  0  0  0  0
 20 45  1  0  0  0  0
 21 46  1  0  0  0  0
 22 23  1  0  0  0  0
 22 47  1  0  0  0  0
 23 48  1  0  0  0  0
 24 49  1  0  0  0  0
 24 50  1  0  0  0  0
 24 51  1  0  0  0  0
 25 52  1  0  0  0  0
 25 53  1  0  0  0  0
 25 54  1  0  0  0  0
 26 27  1  0  0  0  0
 27 28  2  0  0  0  0
 27 29  1  0  0  0  0
 28 30  1  0  0  0  0
 28 55  1  0  0  0  0
 29 56  1  0  0  0  0
 30 31  2  0  0  0  0
 31 57  1  0  0  0  0
M  END
> <PUBCHEM_COMPOUND_CID>
4475

> <PUBCHEM_COMPOUND_CANONICALIZED>
1

> <PUBCHEM_CACTVS_COMPLEXITY>
681

> <PUBCHEM_CACTVS_HBOND_ACCEPTOR>
5

> <PUBCHEM_CACTVS_HBOND_DONOR>
0

> <PUBCHEM_CACTVS_ROTATABLE_BOND>
5

> <PUBCHEM_CACTVS_SUBSKEYS>
AAADceB7MAAAEAAAAAAAAAAAAAAAAWAAAAA8eIEAAAAAAFjx/AAAHgBAAAABrWzhngY+yPMMFACoAzT3TACCgCA1AiQI2CE4bPgKJvrAtZmHMYhmwAHY69f40fMOgAAAQAASAADQAAaAADQgAAAAAAAAAA==

> <PUBCHEM_IUPAC_OPENEYE_NAME>
(10a-methoxy-4,7-dimethyl-6a,8,9,10-tetrahydro-6H-indolo[4,3-fg]quinoline-9-yl)methyl 5-bromopyridine-3-carboxylate

> <PUBCHEM_IUPAC_CAS_NAME>
5-bromo-3-pyridinecarboxylic acid (10a-methoxy-4,7-dimethyl-6a,8,9,10-tetrahydro-6H-indolo[4,3-fg]quinoline-9-yl)methyl ester

> <PUBCHEM_IUPAC_NAME>
(10a-methoxy-4,7-dimethyl-6a,8,9,10-tetrahydro-6H-indolo[4,3-fg]quinoline-9-yl)methyl 5-bromopyridine-3-carboxylate

> <PUBCHEM_IUPAC_SYSTEMATIC_NAME>
(10a-methoxy-4,7-dimethyl-6a,8,9,10-tetrahydro-6H-indolo[4,3-fg]quinoline-9-yl)methyl 5-bromanylpyridine-3-carboxylate

> <PUBCHEM_IUPAC_TRADITIONAL_NAME>
5-bromonicotinic acid (10a-methoxy-4,7-dimethyl-6a,8,9,10-tetrahydro-6H-indolo[4,3-fg]quinoline-9-yl)methyl ester

> <PUBCHEM_IUPAC_INCHI>
InChI=1S/C24H26BrN3O3/c1-27-13-17-8-21-24(30-3,19-5-4-6-20(27)22(17)19)9-15(12-28(21)2)14-31-23(29)16-7-18(25)11-26-10-16/h4-7,10-11,13,15,21H,8-9,12,14H2,1-3H3

> <PUBCHEM_IUPAC_INCHIKEY>
YSEXMKHXIOCEJA-UHFFFAOYSA-N

> <PUBCHEM_XLOGP3_AA>
3.2

> <PUBCHEM_EXACT_MASS>
483.115754

> <PUBCHEM_MOLECULAR_FORMULA>
C24H26BrN3O3

> <PUBCHEM_MOLECULAR_WEIGHT>
484.38554

> <PUBCHEM_OPENEYE_CAN_SMILES>
CN1CC(CC2(C1CC3=CN(C4=CC=CC2=C34)C)OC)COC(=O)C5=CC(=CN=C5)Br

> <PUBCHEM_OPENEYE_ISO_SMILES>
CN1CC(CC2(C1CC3=CN(C4=CC=CC2=C34)C)OC)COC(=O)C5=CC(=CN=C5)Br

> <PUBCHEM_CACTVS_TPSA>
56.6

> <PUBCHEM_MONOISOTOPIC_WEIGHT>
483.115754

> <PUBCHEM_TOTAL_CHARGE>
0

> <PUBCHEM_HEAVY_ATOM_COUNT>
31

> <PUBCHEM_ATOM_DEF_STEREO_COUNT>
0

> <PUBCHEM_ATOM_UDEF_STEREO_COUNT>
3

> <PUBCHEM_BOND_DEF_STEREO_COUNT>
0

> <PUBCHEM_BOND_UDEF_STEREO_COUNT>
0

> <PUBCHEM_ISOTOPIC_ATOM_COUNT>
0

> <PUBCHEM_COMPONENT_COUNT>
1

> <PUBCHEM_CACTVS_TAUTO_COUNT>
1

> <PUBCHEM_COORDINATE_TYPE>
1
5
255

> <PUBCHEM_BONDANNOTATIONS>
11  35  3
13  15  8
13  20  8
15  16  8
15  18  8
16  21  8
18  22  8
8  2  3
20  23  8
22  23  8
27  28  8
27  29  8
28  30  8
30  31  8
6  18  8
6  21  8
7  29  8
7  31  8
9  32  3

$$$$

