7010
  -OEChem-06261201402D

 55 54  0     1  0  0  0  0  0999 V2000
    8.3531    4.3700    0.0000 Br  0  5  0  0  0  0  0  0  0  0  0  0
    3.1350    5.1200    0.0000 O   0  0  0  0  0  0  0  0  0  0  0  0
    4.0010    3.6200    0.0000 O   0  0  0  0  0  0  0  0  0  0  0  0
    4.8671    7.1200    0.0000 N   0  3  0  0  0  0  0  0  0  0  0  0
    4.0010    6.6200    0.0000 C   0  0  0  0  0  0  0  0  0  0  0  0
    5.7331    7.6200    0.0000 C   0  0  0  0  0  0  0  0  0  0  0  0
    4.3671    7.9860    0.0000 C   0  0  0  0  0  0  0  0  0  0  0  0
    5.3671    6.2540    0.0000 C   0  0  0  0  0  0  0  0  0  0  0  0
    4.0010    5.6200    0.0000 C   0  0  0  0  0  0  0  0  0  0  0  0
    2.2690    3.6200    0.0000 C   0  0  3  0  0  0  0  0  0  0  0  0
    1.4030    4.1200    0.0000 C   0  0  3  0  0  0  0  0  0  0  0  0
    3.3671    7.9860    0.0000 C   0  0  0  0  0  0  0  0  0  0  0  0
    5.7331    8.6200    0.0000 C   0  0  0  0  0  0  0  0  0  0  0  0
    1.4030    5.1200    0.0000 C   0  0  0  0  0  0  0  0  0  0  0  0
    3.1350    4.1200    0.0000 C   0  0  0  0  0  0  0  0  0  0  0  0
    2.2690    2.6200    0.0000 C   0  0  0  0  0  0  0  0  0  0  0  0
    0.5369    3.6200    0.0000 C   0  0  0  0  0  0  0  0  0  0  0  0
    0.5369    5.6200    0.0000 C   0  0  0  0  0  0  0  0  0  0  0  0
    1.4030    2.1200    0.0000 C   0  0  0  0  0  0  0  0  0  0  0  0
    3.1350    2.1200    0.0000 C   0  0  0  0  0  0  0  0  0  0  0  0
    1.4030    1.1200    0.0000 C   0  0  0  0  0  0  0  0  0  0  0  0
    3.1350    1.1200    0.0000 C   0  0  0  0  0  0  0  0  0  0  0  0
    2.2690    0.6200    0.0000 C   0  0  0  0  0  0  0  0  0  0  0  0
    3.7890    7.2026    0.0000 H   0  0  0  0  0  0  0  0  0  0  0  0
    3.3905    6.5123    0.0000 H   0  0  0  0  0  0  0  0  0  0  0  0
    5.9451    7.0374    0.0000 H   0  0  0  0  0  0  0  0  0  0  0  0
    6.3437    7.7277    0.0000 H   0  0  0  0  0  0  0  0  0  0  0  0
    4.9497    8.1981    0.0000 H   0  0  0  0  0  0  0  0  0  0  0  0
    4.2594    8.5966    0.0000 H   0  0  0  0  0  0  0  0  0  0  0  0
    4.8301    5.9440    0.0000 H   0  0  0  0  0  0  0  0  0  0  0  0
    5.6771    5.7170    0.0000 H   0  0  0  0  0  0  0  0  0  0  0  0
    5.9040    6.5640    0.0000 H   0  0  0  0  0  0  0  0  0  0  0  0
    4.2131    5.0374    0.0000 H   0  0  0  0  0  0  0  0  0  0  0  0
    4.6116    5.7277    0.0000 H   0  0  0  0  0  0  0  0  0  0  0  0
    1.4030    3.2700    0.0000 H   0  0  0  0  0  0  0  0  0  0  0  0
    2.2690    4.4700    0.0000 H   0  0  0  0  0  0  0  0  0  0  0  0
    3.3671    8.6060    0.0000 H   0  0  0  0  0  0  0  0  0  0  0  0
    2.7471    7.9860    0.0000 H   0  0  0  0  0  0  0  0  0  0  0  0
    3.3671    7.3660    0.0000 H   0  0  0  0  0  0  0  0  0  0  0  0
    6.3531    8.6200    0.0000 H   0  0  0  0  0  0  0  0  0  0  0  0
    5.7331    9.2400    0.0000 H   0  0  0  0  0  0  0  0  0  0  0  0
    5.1131    8.6200    0.0000 H   0  0  0  0  0  0  0  0  0  0  0  0
    2.0135    5.0123    0.0000 H   0  0  0  0  0  0  0  0  0  0  0  0
    1.6150    5.7026    0.0000 H   0  0  0  0  0  0  0  0  0  0  0  0
    0.2269    4.1569    0.0000 H   0  0  0  0  0  0  0  0  0  0  0  0
    0.0000    3.3100    0.0000 H   0  0  0  0  0  0  0  0  0  0  0  0
    0.8469    3.0831    0.0000 H   0  0  0  0  0  0  0  0  0  0  0  0
    0.8469    6.1569    0.0000 H   0  0  0  0  0  0  0  0  0  0  0  0
    0.0000    5.9300    0.0000 H   0  0  0  0  0  0  0  0  0  0  0  0
    0.2269    5.0831    0.0000 H   0  0  0  0  0  0  0  0  0  0  0  0
    0.8660    2.4300    0.0000 H   0  0  0  0  0  0  0  0  0  0  0  0
    3.6720    2.4300    0.0000 H   0  0  0  0  0  0  0  0  0  0  0  0
    0.8660    0.8100    0.0000 H   0  0  0  0  0  0  0  0  0  0  0  0
    3.6720    0.8100    0.0000 H   0  0  0  0  0  0  0  0  0  0  0  0
    2.2690    0.0000    0.0000 H   0  0  0  0  0  0  0  0  0  0  0  0
  2  9  1  0  0  0  0
  2 15  1  0  0  0  0
  3 15  2  0  0  0  0
  4  5  1  0  0  0  0
  4  6  1  0  0  0  0
  4  7  1  0  0  0  0
  4  8  1  0  0  0  0
  5  9  1  0  0  0  0
  5 24  1  0  0  0  0
  5 25  1  0  0  0  0
  6 13  1  0  0  0  0
  6 26  1  0  0  0  0
  6 27  1  0  0  0  0
  7 12  1  0  0  0  0
  7 28  1  0  0  0  0
  7 29  1  0  0  0  0
  8 30  1  0  0  0  0
  8 31  1  0  0  0  0
  8 32  1  0  0  0  0
  9 33  1  0  0  0  0
  9 34  1  0  0  0  0
 10 11  1  0  0  0  0
 10 15  1  0  0  0  0
 10 16  1  0  0  0  0
 10 36  1  0  0  0  0
 11 14  1  0  0  0  0
 11 17  1  0  0  0  0
 11 35  1  0  0  0  0
 12 37  1  0  0  0  0
 12 38  1  0  0  0  0
 12 39  1  0  0  0  0
 13 40  1  0  0  0  0
 13 41  1  0  0  0  0
 13 42  1  0  0  0  0
 14 18  1  0  0  0  0
 14 43  1  0  0  0  0
 14 44  1  0  0  0  0
 16 19  2  0  0  0  0
 16 20  1  0  0  0  0
 17 45  1  0  0  0  0
 17 46  1  0  0  0  0
 17 47  1  0  0  0  0
 18 48  1  0  0  0  0
 18 49  1  0  0  0  0
 18 50  1  0  0  0  0
 19 21  1  0  0  0  0
 19 51  1  0  0  0  0
 20 22  2  0  0  0  0
 20 52  1  0  0  0  0
 21 23  2  0  0  0  0
 21 53  1  0  0  0  0
 22 23  1  0  0  0  0
 22 54  1  0  0  0  0
 23 55  1  0  0  0  0
M  CHG  2   1  -1   4   1
M  END
> <PUBCHEM_COMPOUND_CID>
7010

> <PUBCHEM_COMPOUND_CANONICALIZED>
1

> <PUBCHEM_CACTVS_COMPLEXITY>
319

> <PUBCHEM_CACTVS_HBOND_ACCEPTOR>
3

> <PUBCHEM_CACTVS_HBOND_DONOR>
0

> <PUBCHEM_CACTVS_ROTATABLE_BOND>
10

> <PUBCHEM_CACTVS_SUBSKEYS>
AAADcfB6MAAAEAAAAAAAAAAAAAAAAAAAAAAwAAAAAAAAAAABAAAAHgAAAAAADQDhmAYyCIMABACIAiDSCAACAAAgAAAIiAEIAIgKIDKAFRCDIAAkwAGYiAeIyOCOgAAAAAAAAAAAAAAAAAAAAAAAAAAAAA==

> <PUBCHEM_IUPAC_OPENEYE_NAME>
diethyl-methyl-[2-(3-methyl-2-phenyl-pentanoyl)oxyethyl]ammonium bromide

> <PUBCHEM_IUPAC_CAS_NAME>
diethyl-methyl-[2-(3-methyl-1-oxo-2-phenylpentoxy)ethyl]ammonium bromide

> <PUBCHEM_IUPAC_NAME>
diethyl-methyl-[2-(3-methyl-2-phenylpentanoyl)oxyethyl]azanium bromide

> <PUBCHEM_IUPAC_SYSTEMATIC_NAME>
diethyl-methyl-[2-(3-methyl-2-phenyl-pentanoyl)oxyethyl]azanium bromide

> <PUBCHEM_IUPAC_TRADITIONAL_NAME>
diethyl-methyl-[2-(3-methyl-2-phenyl-pentanoyl)oxyethyl]ammonium bromide

> <PUBCHEM_IUPAC_INCHI>
InChI=1S/C19H32NO2.BrH/c1-6-16(4)18(17-12-10-9-11-13-17)19(21)22-15-14-20(5,7-2)8-3;/h9-13,16,18H,6-8,14-15H2,1-5H3;1H/q+1;/p-1

> <PUBCHEM_IUPAC_INCHIKEY>
CEJGGHKJHDHLAZ-UHFFFAOYSA-M

> <PUBCHEM_EXACT_MASS>
385.161641

> <PUBCHEM_MOLECULAR_FORMULA>
C19H32BrNO2

> <PUBCHEM_MOLECULAR_WEIGHT>
386.36688

> <PUBCHEM_OPENEYE_CAN_SMILES>
CCC(C)C(C1=CC=CC=C1)C(=O)OCC[N+](C)(CC)CC.[Br-]

> <PUBCHEM_OPENEYE_ISO_SMILES>
CCC(C)C(C1=CC=CC=C1)C(=O)OCC[N+](C)(CC)CC.[Br-]

> <PUBCHEM_CACTVS_TPSA>
26.3

> <PUBCHEM_MONOISOTOPIC_WEIGHT>
385.161641

> <PUBCHEM_TOTAL_CHARGE>
0

> <PUBCHEM_HEAVY_ATOM_COUNT>
23

> <PUBCHEM_ATOM_DEF_STEREO_COUNT>
0

> <PUBCHEM_ATOM_UDEF_STEREO_COUNT>
2

> <PUBCHEM_BOND_DEF_STEREO_COUNT>
0

> <PUBCHEM_BOND_UDEF_STEREO_COUNT>
0

> <PUBCHEM_ISOTOPIC_ATOM_COUNT>
0

> <PUBCHEM_COMPONENT_COUNT>
2

> <PUBCHEM_CACTVS_TAUTO_COUNT>
1

> <PUBCHEM_COORDINATE_TYPE>
1
5
255

> <PUBCHEM_BONDANNOTATIONS>
10  36  3
11  35  3
16  19  8
16  20  8
19  21  8
20  22  8
21  23  8
22  23  8

$$$$

