440427
  -OEChem-07051212493D

 69 72  0     1  0  0  0  0  0999 V2000
    2.0562   -1.3942   -0.9848 O   0  0  0  0  0  0  0  0  0  0  0  0
   -2.2807    1.9022    1.7679 O   0  0  0  0  0  0  0  0  0  0  0  0
   -5.0172   -2.2630    2.0289 O   0  0  0  0  0  0  0  0  0  0  0  0
    4.6253   -3.2933    1.5931 O   0  0  0  0  0  0  0  0  0  0  0  0
    4.9063   -2.9669   -0.6365 O   0  0  0  0  0  0  0  0  0  0  0  0
    1.3673    0.9011   -0.4379 C   0  0  1  0  0  0  0  0  0  0  0  0
    0.2181    1.6318    0.2992 C   0  0  2  0  0  0  0  0  0  0  0  0
   -1.1626    1.3938   -0.3347 C   0  0  1  0  0  0  0  0  0  0  0  0
   -1.4665   -0.1338   -0.2997 C   0  0  1  0  0  0  0  0  0  0  0  0
   -2.8749   -0.4972   -0.9085 C   0  0  2  0  0  0  0  0  0  0  0  0
    2.5716    1.4262    0.3923 C   0  0  2  0  0  0  0  0  0  0  0  0
    1.0796   -0.6102   -0.3093 C   0  0  1  0  0  0  0  0  0  0  0  0
   -0.2997   -0.9673   -0.8953 C   0  0  0  0  0  0  0  0  0  0  0  0
   -4.0060    0.4113   -0.3106 C   0  0  2  0  0  0  0  0  0  0  0  0
    0.7180    3.0659    0.4267 C   0  0  0  0  0  0  0  0  0  0  0  0
   -2.2680    2.1926    0.3741 C   0  0  1  0  0  0  0  0  0  0  0  0
    2.2313    2.9168    0.6420 C   0  0  0  0  0  0  0  0  0  0  0  0
   -3.6341    1.9017   -0.2365 C   0  0  0  0  0  0  0  0  0  0  0  0
   -3.1767   -2.0022   -0.5969 C   0  0  0  0  0  0  0  0  0  0  0  0
    1.5168    1.3091   -1.9267 C   0  0  0  0  0  0  0  0  0  0  0  0
    3.9662    1.2668   -0.2015 C   0  0  2  0  0  0  0  0  0  0  0  0
   -4.5008   -0.1492    1.0304 C   0  0  0  0  0  0  0  0  0  0  0  0
   -2.8898   -0.3094   -2.4464 C   0  0  0  0  0  0  0  0  0  0  0  0
   -4.6607   -2.2856   -0.3702 C   0  0  0  0  0  0  0  0  0  0  0  0
   -5.1949   -1.5035    0.8349 C   0  0  1  0  0  0  0  0  0  0  0  0
    4.2581   -0.2223   -0.4778 C   0  0  0  0  0  0  0  0  0  0  0  0
    5.0074    1.8954    0.7303 C   0  0  0  0  0  0  0  0  0  0  0  0
    4.2729   -1.0909    0.7815 C   0  0  0  0  0  0  0  0  0  0  0  0
    4.6375   -2.5255    0.4721 C   0  0  0  0  0  0  0  0  0  0  0  0
    0.1710    1.2362    1.3275 H   0  0  0  0  0  0  0  0  0  0  0  0
   -1.1397    1.7328   -1.3762 H   0  0  0  0  0  0  0  0  0  0  0  0
   -1.5057   -0.4133    0.7642 H   0  0  0  0  0  0  0  0  0  0  0  0
    2.5436    0.9435    1.3797 H   0  0  0  0  0  0  0  0  0  0  0  0
    1.0937   -0.9049    0.7471 H   0  0  0  0  0  0  0  0  0  0  0  0
   -0.4762   -2.0361   -0.7232 H   0  0  0  0  0  0  0  0  0  0  0  0
   -0.2600   -0.8619   -1.9844 H   0  0  0  0  0  0  0  0  0  0  0  0
   -4.8760    0.3732   -0.9839 H   0  0  0  0  0  0  0  0  0  0  0  0
    0.2491    3.5923    1.2643 H   0  0  0  0  0  0  0  0  0  0  0  0
    0.5151    3.6437   -0.4820 H   0  0  0  0  0  0  0  0  0  0  0  0
   -2.0641    3.2650    0.2744 H   0  0  0  0  0  0  0  0  0  0  0  0
    2.7577    3.5881   -0.0462 H   0  0  0  0  0  0  0  0  0  0  0  0
    2.5075    3.2081    1.6618 H   0  0  0  0  0  0  0  0  0  0  0  0
   -3.6498    2.3132   -1.2539 H   0  0  0  0  0  0  0  0  0  0  0  0
   -4.4108    2.4382    0.3228 H   0  0  0  0  0  0  0  0  0  0  0  0
   -2.6412   -2.3189    0.3078 H   0  0  0  0  0  0  0  0  0  0  0  0
   -2.8057   -2.6440   -1.4055 H   0  0  0  0  0  0  0  0  0  0  0  0
    0.6082    1.1222   -2.5052 H   0  0  0  0  0  0  0  0  0  0  0  0
    1.7464    2.3731   -2.0435 H   0  0  0  0  0  0  0  0  0  0  0  0
    2.3161    0.7542   -2.4261 H   0  0  0  0  0  0  0  0  0  0  0  0
    4.0410    1.8002   -1.1573 H   0  0  0  0  0  0  0  0  0  0  0  0
   -3.6733   -0.2500    1.7423 H   0  0  0  0  0  0  0  0  0  0  0  0
   -5.2120    0.5411    1.5009 H   0  0  0  0  0  0  0  0  0  0  0  0
   -3.8834   -0.5234   -2.8573 H   0  0  0  0  0  0  0  0  0  0  0  0
   -2.6298    0.7117   -2.7397 H   0  0  0  0  0  0  0  0  0  0  0  0
   -2.1945   -0.9875   -2.9507 H   0  0  0  0  0  0  0  0  0  0  0  0
   -5.2192   -2.0044   -1.2709 H   0  0  0  0  0  0  0  0  0  0  0  0
   -4.8058   -3.3623   -0.2248 H   0  0  0  0  0  0  0  0  0  0  0  0
   -6.2732   -1.3505    0.7097 H   0  0  0  0  0  0  0  0  0  0  0  0
    1.8297   -2.3301   -0.8490 H   0  0  0  0  0  0  0  0  0  0  0  0
    3.8153   -0.5979   -1.3937 H   0  0  0  0  0  0  0  0  0  0  0  0
    5.3119   -0.2308   -0.8092 H   0  0  0  0  0  0  0  0  0  0  0  0
   -2.9842    2.4369    2.1736 H   0  0  0  0  0  0  0  0  0  0  0  0
    4.9023    1.5464    1.7628 H   0  0  0  0  0  0  0  0  0  0  0  0
    6.0231    1.6597    0.3948 H   0  0  0  0  0  0  0  0  0  0  0  0
    4.9249    2.9870    0.7415 H   0  0  0  0  0  0  0  0  0  0  0  0
   -5.5042   -3.0978    1.9212 H   0  0  0  0  0  0  0  0  0  0  0  0
    5.0254   -0.7238    1.4877 H   0  0  0  0  0  0  0  0  0  0  0  0
    3.3055   -1.1048    1.2863 H   0  0  0  0  0  0  0  0  0  0  0  0
    4.8572   -4.2265    1.3992 H   0  0  0  0  0  0  0  0  0  0  0  0
  1 12  1  0  0  0  0
  1 59  1  0  0  0  0
  2 16  1  0  0  0  0
  2 62  1  0  0  0  0
  3 25  1  0  0  0  0
  3 66  1  0  0  0  0
  4 29  1  0  0  0  0
  4 69  1  0  0  0  0
  5 29  2  0  0  0  0
  6  7  1  0  0  0  0
  6 11  1  0  0  0  0
  6 12  1  0  0  0  0
  6 20  1  0  0  0  0
  7  8  1  0  0  0  0
  7 15  1  0  0  0  0
  7 30  1  0  0  0  0
  8  9  1  0  0  0  0
  8 16  1  0  0  0  0
  8 31  1  0  0  0  0
  9 10  1  0  0  0  0
  9 13  1  0  0  0  0
  9 32  1  0  0  0  0
 10 14  1  0  0  0  0
 10 19  1  0  0  0  0
 10 23  1  0  0  0  0
 11 17  1  0  0  0  0
 11 21  1  0  0  0  0
 11 33  1  0  0  0  0
 12 13  1  0  0  0  0
 12 34  1  0  0  0  0
 13 35  1  0  0  0  0
 13 36  1  0  0  0  0
 14 18  1  0  0  0  0
 14 22  1  0  0  0  0
 14 37  1  0  0  0  0
 15 17  1  0  0  0  0
 15 38  1  0  0  0  0
 15 39  1  0  0  0  0
 16 18  1  0  0  0  0
 16 40  1  0  0  0  0
 17 41  1  0  0  0  0
 17 42  1  0  0  0  0
 18 43  1  0  0  0  0
 18 44  1  0  0  0  0
 19 24  1  0  0  0  0
 19 45  1  0  0  0  0
 19 46  1  0  0  0  0
 20 47  1  0  0  0  0
 20 48  1  0  0  0  0
 20 49  1  0  0  0  0
 21 26  1  0  0  0  0
 21 27  1  0  0  0  0
 21 50  1  0  0  0  0
 22 25  1  0  0  0  0
 22 51  1  0  0  0  0
 22 52  1  0  0  0  0
 23 53  1  0  0  0  0
 23 54  1  0  0  0  0
 23 55  1  0  0  0  0
 24 25  1  0  0  0  0
 24 56  1  0  0  0  0
 24 57  1  0  0  0  0
 25 58  1  0  0  0  0
 26 28  1  0  0  0  0
 26 60  1  0  0  0  0
 26 61  1  0  0  0  0
 27 63  1  0  0  0  0
 27 64  1  0  0  0  0
 27 65  1  0  0  0  0
 28 29  1  0  0  0  0
 28 67  1  0  0  0  0
 28 68  1  0  0  0  0
M  END
> <PUBCHEM_COMPOUND_CID>
440427

> <PUBCHEM_CONFORMER_RMSD>
0.8

> <PUBCHEM_CONFORMER_DIVERSEORDER>
1
2
3

> <PUBCHEM_MMFF94_PARTIAL_CHARGES>
14
1 -0.68
12 0.28
16 0.28
2 -0.68
25 0.28
28 0.06
29 0.66
3 -0.68
4 -0.65
5 -0.57
59 0.4
62 0.4
66 0.4
69 0.5

> <PUBCHEM_EFFECTIVE_ROTOR_COUNT>
6.2

> <PUBCHEM_PHARMACOPHORE_FEATURES>
14
1 1 acceptor
1 1 donor
1 2 acceptor
1 2 donor
1 27 hydrophobe
1 3 acceptor
1 3 donor
1 4 acceptor
1 5 acceptor
3 4 5 29 anion
5 6 7 11 15 17 rings
6 10 14 19 22 24 25 rings
6 6 7 8 9 12 13 rings
6 8 9 10 14 16 18 rings

> <PUBCHEM_HEAVY_ATOM_COUNT>
29

> <PUBCHEM_ATOM_DEF_STEREO_COUNT>
11

> <PUBCHEM_ATOM_UDEF_STEREO_COUNT>
0

> <PUBCHEM_BOND_DEF_STEREO_COUNT>
0

> <PUBCHEM_BOND_UDEF_STEREO_COUNT>
0

> <PUBCHEM_ISOTOPIC_ATOM_COUNT>
0

> <PUBCHEM_COMPONENT_COUNT>
1

> <PUBCHEM_CACTVS_TAUTO_COUNT>
1

> <PUBCHEM_CONFORMER_ID>
0006B86B00000001

> <PUBCHEM_MMFF94_ENERGY>
119.2653

> <PUBCHEM_FEATURE_SELFOVERLAP>
71.202

> <PUBCHEM_SHAPE_FINGERPRINT>
1100329 8 18120094132916660504
11135609 12 18273209773090888929
11135926 11 18337965485219337900
11578080 2 17988097697789016532
11796584 16 17846230993589909960
11963148 33 18125162632292130019
12107183 9 18120089739033371840
12403259 226 18411142432795679293
12422481 6 17822843294804152487
12633257 1 18187922944972549521
12892183 10 18336272266876290708
13140716 1 18262516025899116808
13224815 77 18260828151291795837
13533116 47 18411418375748491562
13583140 156 18335713697578677461
14341114 176 18335134263297712825
14420673 8 18120934177223217942
14790565 3 18049164363612113764
15196674 1 18407762538362252196
17349148 13 18130784521117030724
17492 89 18408888425400199078
1813 80 17632297908568110052
19319366 153 18124031222584915740
21033650 10 15840719632885144668
21267235 1 18334568019864050436
21421861 104 18260537914259943858
23559900 14 17896313804718476582
23598288 3 18114189657091838351
25222932 49 18190744137633907238
2838139 119 8790014368765518914
335352 9 18263365965583367437
345986 75 17967249793220875992
350125 39 18261950730878169329
3680242 22 18261943103231958249
460360 51 18411134770578772108
5104073 3 18334294296580681528
5486654 36 18339640160758908779
6034566 193 7780641867632786106
6823239 73 17749934666329642406
7970288 3 18053659180010090019

> <PUBCHEM_SHAPE_MULTIPOLES>
567.46
11.75
3.61
1.5
0.77
0.83
0.2
7.8
-3.38
2.87
-1.13
-0.96
0.34
-0.09

> <PUBCHEM_SHAPE_SELFOVERLAP>
1193.994

> <PUBCHEM_SHAPE_VOLUME>
316.5

> <PUBCHEM_COORDINATE_TYPE>
2
5
10

$$$$

