3081304
  -OEChem-07051213122D

 35 37  0     0  0  0  0  0  0999 V2000
    7.1279   -2.1830    0.0000 Cl  0  0  0  0  0  0  0  0  0  0  0  0
   10.1279   -0.4510    0.0000 Cl  0  0  0  0  0  0  0  0  0  0  0  0
    7.1279   -0.4510    0.0000 S   0  0  0  0  0  0  0  0  0  0  0  0
    2.0000   -1.4510    0.0000 F   0  0  0  0  0  0  0  0  0  0  0  0
    3.7320    1.5490    0.0000 O   0  0  0  0  0  0  0  0  0  0  0  0
    7.1279   -1.4510    0.0000 O   0  0  0  0  0  0  0  0  0  0  0  0
    7.1279    0.5490    0.0000 O   0  0  0  0  0  0  0  0  0  0  0  0
    4.5981    0.0490    0.0000 N   0  0  0  0  0  0  0  0  0  0  0  0
    8.1279   -0.4510    0.0000 N   0  0  0  0  0  0  0  0  0  0  0  0
    5.5443    0.3538    0.0000 N   0  0  0  0  0  0  0  0  0  0  0  0
    5.5443   -1.2557    0.0000 N   0  0  0  0  0  0  0  0  0  0  0  0
    2.8660    0.0490    0.0000 N   0  0  0  0  0  0  0  0  0  0  0  0
    6.1279   -0.4510    0.0000 C   0  0  0  0  0  0  0  0  0  0  0  0
    4.5981   -0.9510    0.0000 C   0  0  0  0  0  0  0  0  0  0  0  0
    3.7320    0.5490    0.0000 C   0  0  0  0  0  0  0  0  0  0  0  0
    8.6279   -1.3170    0.0000 C   0  0  0  0  0  0  0  0  0  0  0  0
    3.7320   -1.4510    0.0000 C   0  0  0  0  0  0  0  0  0  0  0  0
    8.1279   -2.1830    0.0000 C   0  0  0  0  0  0  0  0  0  0  0  0
    9.6279   -1.3170    0.0000 C   0  0  0  0  0  0  0  0  0  0  0  0
    2.8660   -0.9510    0.0000 C   0  0  0  0  0  0  0  0  0  0  0  0
    2.8660    2.0490    0.0000 C   0  0  0  0  0  0  0  0  0  0  0  0
    8.6279   -3.0490    0.0000 C   0  0  0  0  0  0  0  0  0  0  0  0
   10.1279   -2.1830    0.0000 C   0  0  0  0  0  0  0  0  0  0  0  0
    9.6279   -3.0490    0.0000 C   0  0  0  0  0  0  0  0  0  0  0  0
    2.8660    3.0490    0.0000 C   0  0  0  0  0  0  0  0  0  0  0  0
    8.4379    0.0860    0.0000 H   0  0  0  0  0  0  0  0  0  0  0  0
    3.7320   -2.0710    0.0000 H   0  0  0  0  0  0  0  0  0  0  0  0
    2.2554    2.1567    0.0000 H   0  0  0  0  0  0  0  0  0  0  0  0
    2.6540    1.4664    0.0000 H   0  0  0  0  0  0  0  0  0  0  0  0
    8.3179   -3.5860    0.0000 H   0  0  0  0  0  0  0  0  0  0  0  0
   10.7479   -2.1830    0.0000 H   0  0  0  0  0  0  0  0  0  0  0  0
    9.9379   -3.5860    0.0000 H   0  0  0  0  0  0  0  0  0  0  0  0
    3.4860    3.0490    0.0000 H   0  0  0  0  0  0  0  0  0  0  0  0
    2.8660    3.6690    0.0000 H   0  0  0  0  0  0  0  0  0  0  0  0
    2.2460    3.0490    0.0000 H   0  0  0  0  0  0  0  0  0  0  0  0
  1 18  1  0  0  0  0
  2 19  1  0  0  0  0
  3  6  2  0  0  0  0
  3  7  2  0  0  0  0
  3  9  1  0  0  0  0
  3 13  1  0  0  0  0
  4 20  1  0  0  0  0
  5 15  1  0  0  0  0
  5 21  1  0  0  0  0
  8 10  1  0  0  0  0
  8 14  1  0  0  0  0
  8 15  1  0  0  0  0
  9 16  1  0  0  0  0
  9 26  1  0  0  0  0
 10 13  2  0  0  0  0
 11 13  1  0  0  0  0
 11 14  2  0  0  0  0
 12 15  2  0  0  0  0
 12 20  1  0  0  0  0
 14 17  1  0  0  0  0
 16 18  2  0  0  0  0
 16 19  1  0  0  0  0
 17 20  2  0  0  0  0
 17 27  1  0  0  0  0
 18 22  1  0  0  0  0
 19 23  2  0  0  0  0
 21 25  1  0  0  0  0
 21 28  1  0  0  0  0
 21 29  1  0  0  0  0
 22 24  2  0  0  0  0
 22 30  1  0  0  0  0
 23 24  1  0  0  0  0
 23 31  1  0  0  0  0
 24 32  1  0  0  0  0
 25 33  1  0  0  0  0
 25 34  1  0  0  0  0
 25 35  1  0  0  0  0
M  END
> <PUBCHEM_COMPOUND_CID>
3081304

> <PUBCHEM_COMPOUND_CANONICALIZED>
1

> <PUBCHEM_CACTVS_COMPLEXITY>
558

> <PUBCHEM_CACTVS_HBOND_ACCEPTOR>
8

> <PUBCHEM_CACTVS_HBOND_DONOR>
1

> <PUBCHEM_CACTVS_ROTATABLE_BOND>
5

> <PUBCHEM_CACTVS_SUBSKEYS>
AAADccBzsQBGAAAAAAAAAAAAAAAAAWAAAAA8QAAAAAAAAFgB8AAAHwYYQAAACAqhkyoz8J5IFAKiACZiZHCa1CshB6AdmCAwZpiIKCLB29GMpAhoiAJIyCcQAAAAAAAAAACAABAAAAAAAQAAIAAAAAAAAA==

> <PUBCHEM_IUPAC_OPENEYE_NAME>
N-(2,6-dichlorophenyl)-5-ethoxy-7-fluoro-[1,2,4]triazolo[1,5-c]pyrimidine-2-sulfonamide

> <PUBCHEM_IUPAC_CAS_NAME>
N-(2,6-dichlorophenyl)-5-ethoxy-7-fluoro-[1,2,4]triazolo[1,5-c]pyrimidine-2-sulfonamide

> <PUBCHEM_IUPAC_NAME>
N-(2,6-dichlorophenyl)-5-ethoxy-7-fluoro-[1,2,4]triazolo[1,5-c]pyrimidine-2-sulfonamide

> <PUBCHEM_IUPAC_SYSTEMATIC_NAME>
N-[2,6-bis(chloranyl)phenyl]-5-ethoxy-7-fluoranyl-[1,2,4]triazolo[1,5-c]pyrimidine-2-sulfonamide

> <PUBCHEM_IUPAC_TRADITIONAL_NAME>
N-(2,6-dichlorophenyl)-5-ethoxy-7-fluoro-[1,2,4]triazolo[1,5-c]pyrimidine-2-sulfonamide

> <PUBCHEM_IUPAC_INCHI>
InChI=1S/C13H10Cl2FN5O3S/c1-2-24-13-17-9(16)6-10-18-12(19-21(10)13)25(22,23)20-11-7(14)4-3-5-8(11)15/h3-6,20H,2H2,1H3

> <PUBCHEM_IUPAC_INCHIKEY>
QNXAVFXEJCPCJO-UHFFFAOYSA-N

> <PUBCHEM_XLOGP3_AA>
3.3

> <PUBCHEM_EXACT_MASS>
404.986544

> <PUBCHEM_MOLECULAR_FORMULA>
C13H10Cl2FN5O3S

> <PUBCHEM_MOLECULAR_WEIGHT>
406.219603

> <PUBCHEM_OPENEYE_CAN_SMILES>
CCOC1=NC(=CC2=NC(=NN21)S(=O)(=O)NC3=C(C=CC=C3Cl)Cl)F

> <PUBCHEM_OPENEYE_ISO_SMILES>
CCOC1=NC(=CC2=NC(=NN21)S(=O)(=O)NC3=C(C=CC=C3Cl)Cl)F

> <PUBCHEM_CACTVS_TPSA>
107

> <PUBCHEM_MONOISOTOPIC_WEIGHT>
404.986544

> <PUBCHEM_TOTAL_CHARGE>
0

> <PUBCHEM_HEAVY_ATOM_COUNT>
25

> <PUBCHEM_ATOM_DEF_STEREO_COUNT>
0

> <PUBCHEM_ATOM_UDEF_STEREO_COUNT>
0

> <PUBCHEM_BOND_DEF_STEREO_COUNT>
0

> <PUBCHEM_BOND_UDEF_STEREO_COUNT>
0

> <PUBCHEM_ISOTOPIC_ATOM_COUNT>
0

> <PUBCHEM_COMPONENT_COUNT>
1

> <PUBCHEM_CACTVS_TAUTO_COUNT>
1

> <PUBCHEM_COORDINATE_TYPE>
1
5
255

> <PUBCHEM_BONDANNOTATIONS>
10  13  8
11  13  8
11  14  8
12  15  8
12  20  8
14  17  8
16  18  8
16  19  8
17  20  8
18  22  8
19  23  8
22  24  8
23  24  8
8  10  8
8  14  8
8  15  8

$$$$

