49852389
  -OEChem-07051213152D

 20 20  0     1  0  0  0  0  0999 V2000
    6.8671    0.3450    0.0000 O   0  0  0  0  0  0  0  0  0  0  0  0
    2.5369   -0.1550    0.0000 O   0  0  0  0  0  0  0  0  0  0  0  0
    3.4030    1.3450    0.0000 O   0  0  0  0  0  0  0  0  0  0  0  0
    5.1350    1.3450    0.0000 N   0  0  0  0  0  0  0  0  0  0  0  0
    5.1350    0.3450    0.0000 C   0  0  1  0  0  0  0  0  0  0  0  0
    4.2690   -0.1550    0.0000 C   0  0  1  0  0  0  0  0  0  0  0  0
    6.0010   -0.1550    0.0000 C   0  0  0  0  0  0  0  0  0  0  0  0
    6.0010   -1.1550    0.0000 C   0  0  0  0  0  0  0  0  0  0  0  0
    4.2690   -1.1550    0.0000 C   0  0  0  0  0  0  0  0  0  0  0  0
    5.1350   -1.6550    0.0000 C   0  0  0  0  0  0  0  0  0  0  0  0
    3.4030    0.3450    0.0000 C   0  0  0  0  0  0  0  0  0  0  0  0
    5.6720    0.6550    0.0000 H   0  0  0  0  0  0  0  0  0  0  0  0
    4.2690    0.4650    0.0000 H   0  0  0  0  0  0  0  0  0  0  0  0
    6.2131   -1.7376    0.0000 H   0  0  0  0  0  0  0  0  0  0  0  0
    6.6116   -1.0473    0.0000 H   0  0  0  0  0  0  0  0  0  0  0  0
    3.7320   -1.4650    0.0000 H   0  0  0  0  0  0  0  0  0  0  0  0
    5.1350   -2.2750    0.0000 H   0  0  0  0  0  0  0  0  0  0  0  0
    5.6720    1.6550    0.0000 H   0  0  0  0  0  0  0  0  0  0  0  0
    4.5981    1.6550    0.0000 H   0  0  0  0  0  0  0  0  0  0  0  0
    2.0000    0.1550    0.0000 H   0  0  0  0  0  0  0  0  0  0  0  0
  1  7  2  0  0  0  0
  2 11  1  0  0  0  0
  2 20  1  0  0  0  0
  3 11  2  0  0  0  0
  5  4  1  6  0  0  0
  4 18  1  0  0  0  0
  4 19  1  0  0  0  0
  5  6  1  0  0  0  0
  5  7  1  0  0  0  0
  5 12  1  0  0  0  0
  6  9  1  0  0  0  0
  6 11  1  1  0  0  0
  6 13  1  0  0  0  0
  7  8  1  0  0  0  0
  8 10  1  0  0  0  0
  8 14  1  0  0  0  0
  8 15  1  0  0  0  0
  9 10  2  0  0  0  0
  9 16  1  0  0  0  0
 10 17  1  0  0  0  0
M  END
> <PUBCHEM_COMPOUND_CID>
49852389

> <PUBCHEM_COMPOUND_CANONICALIZED>
1

> <PUBCHEM_CACTVS_COMPLEXITY>
222

> <PUBCHEM_CACTVS_HBOND_ACCEPTOR>
4

> <PUBCHEM_CACTVS_HBOND_DONOR>
2

> <PUBCHEM_CACTVS_ROTATABLE_BOND>
1

> <PUBCHEM_CACTVS_SUBSKEYS>
AAADccBiMAAAAAAAAAAAAAAAAAAAAAAAAAAgAAAAAAAAAAAAAAAAHgAQCAAADSzBgAQACABAAgCIAKDSCAAAAAAgAAAICIGAAAgAABoAgQAAQAAG0AAIAAOLSAAMAAAAAAAAAAAAAAAAAAAAAAAAAAAAAA==

> <PUBCHEM_IUPAC_OPENEYE_NAME>
(1R,6S)-6-amino-5-oxo-cyclohex-2-ene-1-carboxylic acid

> <PUBCHEM_IUPAC_CAS_NAME>
(1R,6S)-6-amino-5-oxo-1-cyclohex-2-enecarboxylic acid

> <PUBCHEM_IUPAC_NAME>
(1R,6S)-6-amino-5-oxocyclohex-2-ene-1-carboxylic acid

> <PUBCHEM_IUPAC_SYSTEMATIC_NAME>
(1R,6S)-6-azanyl-5-oxidanylidene-cyclohex-2-ene-1-carboxylic acid

> <PUBCHEM_IUPAC_TRADITIONAL_NAME>
(1R,6S)-6-amino-5-keto-cyclohex-2-ene-1-carboxylic acid

> <PUBCHEM_IUPAC_INCHI>
InChI=1S/C7H9NO3/c8-6-4(7(10)11)2-1-3-5(6)9/h1-2,4,6H,3,8H2,(H,10,11)/t4-,6+/m1/s1

> <PUBCHEM_IUPAC_INCHIKEY>
AQGCSVBPRRQXIN-XINAWCOVSA-N

> <PUBCHEM_XLOGP3_AA>
-2.5

> <PUBCHEM_EXACT_MASS>
155.058243

> <PUBCHEM_MOLECULAR_FORMULA>
C7H9NO3

> <PUBCHEM_MOLECULAR_WEIGHT>
155.15126

> <PUBCHEM_OPENEYE_CAN_SMILES>
C1C=CC(C(C1=O)N)C(=O)O

> <PUBCHEM_OPENEYE_ISO_SMILES>
C1C=C[C@H]([C@@H](C1=O)N)C(=O)O

> <PUBCHEM_CACTVS_TPSA>
80.4

> <PUBCHEM_MONOISOTOPIC_WEIGHT>
155.058243

> <PUBCHEM_TOTAL_CHARGE>
0

> <PUBCHEM_HEAVY_ATOM_COUNT>
11

> <PUBCHEM_ATOM_DEF_STEREO_COUNT>
2

> <PUBCHEM_ATOM_UDEF_STEREO_COUNT>
0

> <PUBCHEM_BOND_DEF_STEREO_COUNT>
0

> <PUBCHEM_BOND_UDEF_STEREO_COUNT>
0

> <PUBCHEM_ISOTOPIC_ATOM_COUNT>
0

> <PUBCHEM_COMPONENT_COUNT>
1

> <PUBCHEM_CACTVS_TAUTO_COUNT>
26

> <PUBCHEM_COORDINATE_TYPE>
1
5
255

> <PUBCHEM_BONDANNOTATIONS>
5  4  6
6  11  5

$$$$

