9184
  -OEChem-06261203293D

 34 38  0     0  0  0  0  0  0999 V2000
    0.5577    1.2459    0.0008 N   0  0  0  0  0  0  0  0  0  0  0  0
   -0.5577   -1.2460    0.0006 N   0  0  0  0  0  0  0  0  0  0  0  0
    1.3617    0.1660    0.0006 C   0  0  0  0  0  0  0  0  0  0  0  0
   -1.3616   -0.1661    0.0006 C   0  0  0  0  0  0  0  0  0  0  0  0
    2.7702    0.2845    0.0003 C   0  0  0  0  0  0  0  0  0  0  0  0
   -2.7702   -0.2845    0.0002 C   0  0  0  0  0  0  0  0  0  0  0  0
    0.7764   -1.1023    0.0007 C   0  0  0  0  0  0  0  0  0  0  0  0
   -0.7765    1.1024    0.0006 C   0  0  0  0  0  0  0  0  0  0  0  0
    3.5814   -0.8753   -0.0001 C   0  0  0  0  0  0  0  0  0  0  0  0
   -3.5814    0.8752    0.0000 C   0  0  0  0  0  0  0  0  0  0  0  0
    1.5844   -2.2314    0.0006 C   0  0  0  0  0  0  0  0  0  0  0  0
   -1.5844    2.2313    0.0005 C   0  0  0  0  0  0  0  0  0  0  0  0
    2.9721   -2.1295    0.0002 C   0  0  0  0  0  0  0  0  0  0  0  0
   -2.9722    2.1295    0.0002 C   0  0  0  0  0  0  0  0  0  0  0  0
    3.4167    1.5389   -0.0002 C   0  0  0  0  0  0  0  0  0  0  0  0
   -3.4167   -1.5388   -0.0002 C   0  0  0  0  0  0  0  0  0  0  0  0
    4.9816   -0.7579   -0.0007 C   0  0  0  0  0  0  0  0  0  0  0  0
   -4.9816    0.7580   -0.0006 C   0  0  0  0  0  0  0  0  0  0  0  0
    4.8094    1.6425   -0.0009 C   0  0  0  0  0  0  0  0  0  0  0  0
   -4.8094   -1.6425   -0.0009 C   0  0  0  0  0  0  0  0  0  0  0  0
    5.5913    0.4945   -0.0012 C   0  0  0  0  0  0  0  0  0  0  0  0
   -5.5914   -0.4945   -0.0012 C   0  0  0  0  0  0  0  0  0  0  0  0
    1.1332   -3.2218    0.0006 H   0  0  0  0  0  0  0  0  0  0  0  0
   -1.1332    3.2218    0.0006 H   0  0  0  0  0  0  0  0  0  0  0  0
    3.5663   -3.0405    0.0001 H   0  0  0  0  0  0  0  0  0  0  0  0
   -3.5665    3.0404   -0.0001 H   0  0  0  0  0  0  0  0  0  0  0  0
    2.8391    2.4614    0.0000 H   0  0  0  0  0  0  0  0  0  0  0  0
   -2.8391   -2.4614    0.0000 H   0  0  0  0  0  0  0  0  0  0  0  0
    5.6112   -1.6454   -0.0009 H   0  0  0  0  0  0  0  0  0  0  0  0
   -5.6112    1.6456   -0.0009 H   0  0  0  0  0  0  0  0  0  0  0  0
    5.2799    2.6213   -0.0013 H   0  0  0  0  0  0  0  0  0  0  0  0
   -5.2799   -2.6214   -0.0012 H   0  0  0  0  0  0  0  0  0  0  0  0
    6.6744    0.5725   -0.0017 H   0  0  0  0  0  0  0  0  0  0  0  0
   -6.6745   -0.5725   -0.0018 H   0  0  0  0  0  0  0  0  0  0  0  0
  1  3  2  0  0  0  0
  1  8  1  0  0  0  0
  2  4  1  0  0  0  0
  2  7  2  0  0  0  0
  3  5  1  0  0  0  0
  3  7  1  0  0  0  0
  4  6  1  0  0  0  0
  4  8  2  0  0  0  0
  5  9  1  0  0  0  0
  5 15  2  0  0  0  0
  6 10  1  0  0  0  0
  6 16  2  0  0  0  0
  7 11  1  0  0  0  0
  8 12  1  0  0  0  0
  9 13  1  0  0  0  0
  9 17  2  0  0  0  0
 10 14  1  0  0  0  0
 10 18  2  0  0  0  0
 11 13  2  0  0  0  0
 11 23  1  0  0  0  0
 12 14  2  0  0  0  0
 12 24  1  0  0  0  0
 13 25  1  0  0  0  0
 14 26  1  0  0  0  0
 15 19  1  0  0  0  0
 15 27  1  0  0  0  0
 16 20  1  0  0  0  0
 16 28  1  0  0  0  0
 17 21  1  0  0  0  0
 17 29  1  0  0  0  0
 18 22  1  0  0  0  0
 18 30  1  0  0  0  0
 19 21  2  0  0  0  0
 19 31  1  0  0  0  0
 20 22  2  0  0  0  0
 20 32  1  0  0  0  0
 21 33  1  0  0  0  0
 22 34  1  0  0  0  0
M  END
> <PUBCHEM_COMPOUND_CID>
9184

> <PUBCHEM_CONFORMER_RMSD>
0.6

> <PUBCHEM_CONFORMER_DIVERSEORDER>
1

> <PUBCHEM_MMFF94_PARTIAL_CHARGES>
30
1 -0.62
11 -0.15
12 -0.15
13 -0.15
14 -0.15
15 -0.15
16 -0.15
17 -0.15
18 -0.15
19 -0.15
2 -0.62
20 -0.15
21 -0.15
22 -0.15
23 0.15
24 0.15
25 0.15
26 0.15
27 0.15
28 0.15
29 0.15
3 0.31
30 0.15
31 0.15
32 0.15
33 0.15
34 0.15
4 0.31
7 0.31
8 0.31

> <PUBCHEM_EFFECTIVE_ROTOR_COUNT>
0

> <PUBCHEM_PHARMACOPHORE_FEATURES>
7
1 1 acceptor
1 2 acceptor
6 1 2 3 4 7 8 rings
6 3 5 7 9 11 13 rings
6 4 6 8 10 12 14 rings
6 5 9 15 17 19 21 rings
6 6 10 16 18 20 22 rings

> <PUBCHEM_HEAVY_ATOM_COUNT>
22

> <PUBCHEM_ATOM_DEF_STEREO_COUNT>
0

> <PUBCHEM_ATOM_UDEF_STEREO_COUNT>
0

> <PUBCHEM_BOND_DEF_STEREO_COUNT>
0

> <PUBCHEM_BOND_UDEF_STEREO_COUNT>
0

> <PUBCHEM_ISOTOPIC_ATOM_COUNT>
0

> <PUBCHEM_COMPONENT_COUNT>
1

> <PUBCHEM_CACTVS_TAUTO_COUNT>
1

> <PUBCHEM_CONFORMER_ID>
000023E000000001

> <PUBCHEM_MMFF94_ENERGY>
78.3924

> <PUBCHEM_FEATURE_SELFOVERLAP>
35.648

> <PUBCHEM_SHAPE_FINGERPRINT>
10 15 18338527331535125512
10090160 65 18201723924788304374
10411042 1 16969421817601566890
10595046 47 18410575071778177032
10616163 171 18408885152698293111
10906281 52 18269816688670724145
11135609 12 17773299159692299611
11488393 25 17387673119739225694
11578080 2 17130162024424304279
11963148 33 18340212877601090027
12107183 9 17689998259520537307
12236239 1 18410573989446418461
12403259 226 18340210803458154100
12403259 415 18261119560391024064
12788726 201 17096643387177900817
13140716 1 17978229361521721609
13167823 11 18409731785067359926
13224815 77 18410575106137915418
13533116 47 17274833497112835002
13862211 1 18410578357502323319
14341114 176 18411131459058512839
14528608 73 18409728435282753244
14787075 74 18411702054053760187
14790565 3 18337386050232030764
15196674 1 18410574006626287621
15536298 74 18336264630302748790
15788980 27 16558752325417417903
15927050 60 17326049555561127796
15961568 22 18060414686656439172
17349148 13 17917709097713213396
17492 89 18337954626698546606
17844677 252 18335694000826476358
1813 80 17275098453286382013
18681886 176 18409451367544050368
19591789 44 18264490581093975768
200 152 18187366532270478729
20645477 70 18334292115159385326
21236236 1 18335701667860402289
21267235 1 18410284830826287598
21673915 165 18411136943700088311
221490 88 18338510949775496802
22393880 68 18267581489122065518
23402539 116 18411705361384416919
23559900 14 18264778829276290880
239999 70 18259979393013995078
245318 6 17128156245113148532
2871803 45 18413392046349106795
3004659 81 18343301487899277122
335352 9 18410575110432883134
34797466 226 17530958056065476820
34934 24 18411423929763534887
350125 39 18410575080964470412
3545911 37 18412261748406205205
4073 2 18131626755619292418
4214541 1 18410575132097928545
4325135 7 18410856555344822597
4340502 62 17060337422485739106
474 4 17846210038856013780
474229 33 18410012113345863790
5104073 3 18410574032396092314
5283173 99 18059023898899490453
5486654 2 18338794520453369126
7495541 125 17821734905468225168
77779 3 18409729603170992134
9709674 26 18411411851756764586

> <PUBCHEM_SHAPE_MULTIPOLES>
442.79
12.27
2.34
0.61
0
0
0
0
-0.01
0
0
0
0
0

> <PUBCHEM_SHAPE_SELFOVERLAP>
1035.367

> <PUBCHEM_SHAPE_VOLUME>
222.1

> <PUBCHEM_COORDINATE_TYPE>
2
5
10

$$$$

