2540
  -OEChem-07051212542D

 79 84  0     1  0  0  0  0  0999 V2000
    2.8660    1.7500    0.0000 O   0  0  0  0  0  0  0  0  0  0  0  0
    3.7320    0.2500    0.0000 O   0  0  0  0  0  0  0  0  0  0  0  0
    4.5981    1.7500    0.0000 O   0  0  0  0  0  0  0  0  0  0  0  0
    4.5981   -1.2500    0.0000 O   0  0  0  0  0  0  0  0  0  0  0  0
    8.8600   -3.7500    0.0000 O   0  0  0  0  0  0  0  0  0  0  0  0
    6.3301   -1.2500    0.0000 O   0  0  0  0  0  0  0  0  0  0  0  0
    7.2764   -2.9453    0.0000 N   0  0  0  0  0  0  0  0  0  0  0  0
    7.2764   -4.5547    0.0000 N   0  0  0  0  0  0  0  0  0  0  0  0
   10.1491    0.4221    0.0000 N   0  0  0  0  0  0  0  0  0  0  0  0
   11.3535    1.5027    0.0000 N   0  0  0  0  0  0  0  0  0  0  0  0
    9.7440    1.3364    0.0000 N   0  0  0  0  0  0  0  0  0  0  0  0
   10.4883    2.0042    0.0000 N   0  0  0  0  0  0  0  0  0  0  0  0
    2.8660    2.7500    0.0000 C   0  0  0  0  0  0  0  0  0  0  0  0
    3.7320    3.2500    0.0000 C   0  0  0  0  0  0  0  0  0  0  0  0
    2.0000    3.2500    0.0000 C   0  0  0  0  0  0  0  0  0  0  0  0
    2.0000    4.2500    0.0000 C   0  0  0  0  0  0  0  0  0  0  0  0
    3.7320    4.2500    0.0000 C   0  0  0  0  0  0  0  0  0  0  0  0
    2.8660    4.7500    0.0000 C   0  0  0  0  0  0  0  0  0  0  0  0
    3.7320    1.2500    0.0000 C   0  0  0  0  0  0  0  0  0  0  0  0
    6.3301   -3.2500    0.0000 C   0  0  0  0  0  0  0  0  0  0  0  0
    7.5870   -1.9948    0.0000 C   0  0  0  0  0  0  0  0  0  0  0  0
    4.5981   -0.2500    0.0000 C   0  0  3  0  0  0  0  0  0  0  0  0
    6.3301   -4.2500    0.0000 C   0  0  0  0  0  0  0  0  0  0  0  0
    5.4641   -2.7500    0.0000 C   0  0  0  0  0  0  0  0  0  0  0  0
    7.8600   -3.7500    0.0000 C   0  0  0  0  0  0  0  0  0  0  0  0
    8.5655   -1.7885    0.0000 C   0  0  0  0  0  0  0  0  0  0  0  0
    5.4641   -4.7500    0.0000 C   0  0  0  0  0  0  0  0  0  0  0  0
    5.4641   -1.7500    0.0000 C   0  0  0  0  0  0  0  0  0  0  0  0
    4.5981   -3.2500    0.0000 C   0  0  0  0  0  0  0  0  0  0  0  0
    8.8762   -0.8380    0.0000 C   0  0  0  0  0  0  0  0  0  0  0  0
    9.2334   -2.5328    0.0000 C   0  0  0  0  0  0  0  0  0  0  0  0
    5.4641    0.2500    0.0000 C   0  0  0  0  0  0  0  0  0  0  0  0
    4.5981   -4.2500    0.0000 C   0  0  0  0  0  0  0  0  0  0  0  0
   10.5225   -1.3761    0.0000 C   0  0  0  0  0  0  0  0  0  0  0  0
    9.8547   -0.6318    0.0000 C   0  0  0  0  0  0  0  0  0  0  0  0
   10.2119   -2.3266    0.0000 C   0  0  0  0  0  0  0  0  0  0  0  0
   11.5010   -1.1699    0.0000 C   0  0  0  0  0  0  0  0  0  0  0  0
    9.3600   -4.6160    0.0000 C   0  0  0  0  0  0  0  0  0  0  0  0
   11.8117   -0.2194    0.0000 C   0  0  0  0  0  0  0  0  0  0  0  0
   12.1689   -1.9142    0.0000 C   0  0  0  0  0  0  0  0  0  0  0  0
   12.7902   -0.0131    0.0000 C   0  0  0  0  0  0  0  0  0  0  0  0
   10.3600   -4.6160    0.0000 C   0  0  0  0  0  0  0  0  0  0  0  0
   13.1474   -1.7080    0.0000 C   0  0  0  0  0  0  0  0  0  0  0  0
   11.1439    0.5249    0.0000 C   0  0  0  0  0  0  0  0  0  0  0  0
   13.4580   -0.7574    0.0000 C   0  0  0  0  0  0  0  0  0  0  0  0
    3.4030    2.4400    0.0000 H   0  0  0  0  0  0  0  0  0  0  0  0
    1.3894    3.3577    0.0000 H   0  0  0  0  0  0  0  0  0  0  0  0
    1.7880    2.6674    0.0000 H   0  0  0  0  0  0  0  0  0  0  0  0
    3.9441    2.6674    0.0000 H   0  0  0  0  0  0  0  0  0  0  0  0
    4.3426    3.3577    0.0000 H   0  0  0  0  0  0  0  0  0  0  0  0
    1.7880    4.8326    0.0000 H   0  0  0  0  0  0  0  0  0  0  0  0
    1.3894    4.1423    0.0000 H   0  0  0  0  0  0  0  0  0  0  0  0
    4.3426    4.1423    0.0000 H   0  0  0  0  0  0  0  0  0  0  0  0
    3.9441    4.8326    0.0000 H   0  0  0  0  0  0  0  0  0  0  0  0
    3.2646    5.2250    0.0000 H   0  0  0  0  0  0  0  0  0  0  0  0
    2.4675    5.2250    0.0000 H   0  0  0  0  0  0  0  0  0  0  0  0
    7.5664   -1.3751    0.0000 H   0  0  0  0  0  0  0  0  0  0  0  0
    6.9732   -1.9074    0.0000 H   0  0  0  0  0  0  0  0  0  0  0  0
    4.5981    0.3700    0.0000 H   0  0  0  0  0  0  0  0  0  0  0  0
    5.4641   -5.3700    0.0000 H   0  0  0  0  0  0  0  0  0  0  0  0
    4.0611   -2.9400    0.0000 H   0  0  0  0  0  0  0  0  0  0  0  0
    8.4621   -0.3765    0.0000 H   0  0  0  0  0  0  0  0  0  0  0  0
    9.0407   -3.1222    0.0000 H   0  0  0  0  0  0  0  0  0  0  0  0
    4.0611   -4.5600    0.0000 H   0  0  0  0  0  0  0  0  0  0  0  0
    5.7741   -0.2869    0.0000 H   0  0  0  0  0  0  0  0  0  0  0  0
    6.0010    0.5600    0.0000 H   0  0  0  0  0  0  0  0  0  0  0  0
    5.1541    0.7869    0.0000 H   0  0  0  0  0  0  0  0  0  0  0  0
   10.0473   -0.0425    0.0000 H   0  0  0  0  0  0  0  0  0  0  0  0
   10.6259   -2.7881    0.0000 H   0  0  0  0  0  0  0  0  0  0  0  0
    8.7774   -4.8281    0.0000 H   0  0  0  0  0  0  0  0  0  0  0  0
    9.4676   -5.2266    0.0000 H   0  0  0  0  0  0  0  0  0  0  0  0
   11.9763   -2.5035    0.0000 H   0  0  0  0  0  0  0  0  0  0  0  0
   12.9828    0.5762    0.0000 H   0  0  0  0  0  0  0  0  0  0  0  0
   10.3600   -5.2360    0.0000 H   0  0  0  0  0  0  0  0  0  0  0  0
   10.9800   -4.6160    0.0000 H   0  0  0  0  0  0  0  0  0  0  0  0
   10.3600   -3.9960    0.0000 H   0  0  0  0  0  0  0  0  0  0  0  0
   13.5614   -2.1694    0.0000 H   0  0  0  0  0  0  0  0  0  0  0  0
   14.0647   -0.6296    0.0000 H   0  0  0  0  0  0  0  0  0  0  0  0
    9.1378    1.4663    0.0000 H   0  0  0  0  0  0  0  0  0  0  0  0
  1 13  1  0  0  0  0
  1 19  1  0  0  0  0
  2 19  1  0  0  0  0
  2 22  1  0  0  0  0
  3 19  2  0  0  0  0
  4 22  1  0  0  0  0
  4 28  1  0  0  0  0
  5 25  1  0  0  0  0
  5 38  1  0  0  0  0
  6 28  2  0  0  0  0
  7 20  1  0  0  0  0
  7 21  1  0  0  0  0
  7 25  1  0  0  0  0
  8 23  1  0  0  0  0
  8 25  2  0  0  0  0
  9 11  1  0  0  0  0
  9 44  2  0  0  0  0
 10 12  2  0  0  0  0
 10 44  1  0  0  0  0
 11 12  1  0  0  0  0
 11 79  1  0  0  0  0
 13 14  1  0  0  0  0
 13 15  1  0  0  0  0
 13 46  1  0  0  0  0
 14 17  1  0  0  0  0
 14 49  1  0  0  0  0
 14 50  1  0  0  0  0
 15 16  1  0  0  0  0
 15 47  1  0  0  0  0
 15 48  1  0  0  0  0
 16 18  1  0  0  0  0
 16 51  1  0  0  0  0
 16 52  1  0  0  0  0
 17 18  1  0  0  0  0
 17 53  1  0  0  0  0
 17 54  1  0  0  0  0
 18 55  1  0  0  0  0
 18 56  1  0  0  0  0
 20 23  1  0  0  0  0
 20 24  2  0  0  0  0
 21 26  1  0  0  0  0
 21 57  1  0  0  0  0
 21 58  1  0  0  0  0
 22 32  1  0  0  0  0
 22 59  1  0  0  0  0
 23 27  2  0  0  0  0
 24 28  1  0  0  0  0
 24 29  1  0  0  0  0
 26 30  2  0  0  0  0
 26 31  1  0  0  0  0
 27 33  1  0  0  0  0
 27 60  1  0  0  0  0
 29 33  2  0  0  0  0
 29 61  1  0  0  0  0
 30 35  1  0  0  0  0
 30 62  1  0  0  0  0
 31 36  2  0  0  0  0
 31 63  1  0  0  0  0
 32 65  1  0  0  0  0
 32 66  1  0  0  0  0
 32 67  1  0  0  0  0
 33 64  1  0  0  0  0
 34 35  2  0  0  0  0
 34 36  1  0  0  0  0
 34 37  1  0  0  0  0
 35 68  1  0  0  0  0
 36 69  1  0  0  0  0
 37 39  1  0  0  0  0
 37 40  2  0  0  0  0
 38 42  1  0  0  0  0
 38 70  1  0  0  0  0
 38 71  1  0  0  0  0
 39 41  2  0  0  0  0
 39 44  1  0  0  0  0
 40 43  1  0  0  0  0
 40 72  1  0  0  0  0
 41 45  1  0  0  0  0
 41 73  1  0  0  0  0
 42 74  1  0  0  0  0
 42 75  1  0  0  0  0
 42 76  1  0  0  0  0
 43 45  2  0  0  0  0
 43 77  1  0  0  0  0
 45 78  1  0  0  0  0
M  END
> <PUBCHEM_COMPOUND_CID>
2540

> <PUBCHEM_COMPOUND_CANONICALIZED>
1

> <PUBCHEM_CACTVS_COMPLEXITY>
962

> <PUBCHEM_CACTVS_HBOND_ACCEPTOR>
10

> <PUBCHEM_CACTVS_HBOND_DONOR>
1

> <PUBCHEM_CACTVS_ROTATABLE_BOND>
13

> <PUBCHEM_CACTVS_SUBSKEYS>
AAADcfB/uAAAAAAAAAAAAAAAAAAAAWLAAAAwYMGAAAAAAFgB/AAAHgAYAAAADBzxnwcz2LcOFACqAybybACCgC8lEqAd+CE4fNiYbrrAvZm+MYhuwAPM6ee8yOCOwAAAQAASACCAAACAACQAQAAAAAAAAA==

> <PUBCHEM_IUPAC_OPENEYE_NAME>
1-(cyclohexoxycarbonyloxy)ethyl 2-ethoxy-3-[[4-[2-(2H-tetrazol-5-yl)phenyl]phenyl]methyl]benzimidazole-4-carboxylate

> <PUBCHEM_IUPAC_CAS_NAME>
2-ethoxy-3-[[4-[2-(2H-tetrazol-5-yl)phenyl]phenyl]methyl]-4-benzimidazolecarboxylic acid 1-[cyclohexyloxy(oxo)methoxy]ethyl ester

> <PUBCHEM_IUPAC_NAME>
1-cyclohexyloxycarbonyloxyethyl 2-ethoxy-3-[[4-[2-(2H-tetrazol-5-yl)phenyl]phenyl]methyl]benzimidazole-4-carboxylate

> <PUBCHEM_IUPAC_SYSTEMATIC_NAME>
1-cyclohexyloxycarbonyloxyethyl 2-ethoxy-3-[[4-[2-(2H-1,2,3,4-tetrazol-5-yl)phenyl]phenyl]methyl]benzimidazole-4-carboxylate

> <PUBCHEM_IUPAC_TRADITIONAL_NAME>
2-ethoxy-3-[4-[2-(2H-tetrazol-5-yl)phenyl]benzyl]benzimidazole-4-carboxylic acid 1-(cyclohexoxycarbonyloxy)ethyl ester

> <PUBCHEM_IUPAC_INCHI>
InChI=1S/C33H34N6O6/c1-3-42-32-34-28-15-9-14-27(31(40)43-21(2)44-33(41)45-24-10-5-4-6-11-24)29(28)39(32)20-22-16-18-23(19-17-22)25-12-7-8-13-26(25)30-35-37-38-36-30/h7-9,12-19,21,24H,3-6,10-11,20H2,1-2H3,(H,35,36,37,38)

> <PUBCHEM_IUPAC_INCHIKEY>
GHOSNRCGJFBJIB-UHFFFAOYSA-N

> <PUBCHEM_XLOGP3_AA>
7

> <PUBCHEM_EXACT_MASS>
610.253983

> <PUBCHEM_MOLECULAR_FORMULA>
C33H34N6O6

> <PUBCHEM_MOLECULAR_WEIGHT>
610.65966

> <PUBCHEM_OPENEYE_CAN_SMILES>
CCOC1=NC2=CC=CC(=C2N1CC3=CC=C(C=C3)C4=CC=CC=C4C5=NNN=N5)C(=O)OC(C)OC(=O)OC6CCCCC6

> <PUBCHEM_OPENEYE_ISO_SMILES>
CCOC1=NC2=CC=CC(=C2N1CC3=CC=C(C=C3)C4=CC=CC=C4C5=NNN=N5)C(=O)OC(C)OC(=O)OC6CCCCC6

> <PUBCHEM_CACTVS_TPSA>
143

> <PUBCHEM_MONOISOTOPIC_WEIGHT>
610.253983

> <PUBCHEM_TOTAL_CHARGE>
0

> <PUBCHEM_HEAVY_ATOM_COUNT>
45

> <PUBCHEM_ATOM_DEF_STEREO_COUNT>
0

> <PUBCHEM_ATOM_UDEF_STEREO_COUNT>
1

> <PUBCHEM_BOND_DEF_STEREO_COUNT>
0

> <PUBCHEM_BOND_UDEF_STEREO_COUNT>
0

> <PUBCHEM_ISOTOPIC_ATOM_COUNT>
0

> <PUBCHEM_COMPONENT_COUNT>
1

> <PUBCHEM_CACTVS_TAUTO_COUNT>
2

> <PUBCHEM_COORDINATE_TYPE>
1
5
255

> <PUBCHEM_BONDANNOTATIONS>
10  12  8
10  44  8
11  12  8
20  23  8
20  24  8
22  32  3
23  27  8
24  29  8
26  30  8
26  31  8
27  33  8
29  33  8
30  35  8
31  36  8
34  35  8
34  36  8
37  39  8
37  40  8
39  41  8
40  43  8
41  45  8
43  45  8
7  20  8
7  25  8
8  23  8
8  25  8
9  11  8
9  44  8

$$$$

