17396619
  -OEChem-06241222573D

 44 46  0     0  0  0  0  0  0999 V2000
    2.4106   -2.6175    0.5610 S   0  0  0  0  0  0  0  0  0  0  0  0
   -2.1013   -1.5649   -1.2243 O   0  0  0  0  0  0  0  0  0  0  0  0
   -4.4546   -1.6776    0.4371 O   0  0  0  0  0  0  0  0  0  0  0  0
    1.8471    3.4537   -0.8599 O   0  0  0  0  0  0  0  0  0  0  0  0
    3.5373   -3.3925    1.0610 O   0  0  0  0  0  0  0  0  0  0  0  0
    1.1985   -2.5061    1.3610 O   0  0  0  0  0  0  0  0  0  0  0  0
    0.5048    2.3710    0.6914 N   0  0  0  0  0  0  0  0  0  0  0  0
   -1.6361    3.1712   -0.2433 C   0  0  0  0  0  0  0  0  0  0  0  0
   -2.3612    1.8794   -0.0678 C   0  0  0  0  0  0  0  0  0  0  0  0
   -0.5110    3.3858    0.7764 C   0  0  0  0  0  0  0  0  0  0  0  0
   -2.5952   -0.4723   -0.5607 C   0  0  0  0  0  0  0  0  0  0  0  0
   -1.9193    0.7359   -0.7335 C   0  0  0  0  0  0  0  0  0  0  0  0
   -3.7293   -0.5294    0.2532 C   0  0  0  0  0  0  0  0  0  0  0  0
   -3.4778    1.8161    0.7665 C   0  0  0  0  0  0  0  0  0  0  0  0
   -4.1624    0.6115    0.9292 C   0  0  0  0  0  0  0  0  0  0  0  0
   -2.6409   -2.7875   -0.7145 C   0  0  0  0  0  0  0  0  0  0  0  0
   -4.1432   -2.6685   -0.5461 C   0  0  0  0  0  0  0  0  0  0  0  0
    2.5613    1.3440   -0.1268 C   0  0  0  0  0  0  0  0  0  0  0  0
    2.9869   -1.0141    0.1806 C   0  0  0  0  0  0  0  0  0  0  0  0
    1.6171    2.4910   -0.1327 C   0  0  0  0  0  0  0  0  0  0  0  0
    2.1009    0.0631    0.1779 C   0  0  0  0  0  0  0  0  0  0  0  0
    3.9078    1.5477   -0.4285 C   0  0  0  0  0  0  0  0  0  0  0  0
    4.3334   -0.8104   -0.1211 C   0  0  0  0  0  0  0  0  0  0  0  0
    4.7939    0.4705   -0.4256 C   0  0  0  0  0  0  0  0  0  0  0  0
    1.9329   -3.2997   -1.0107 C   0  0  0  0  0  0  0  0  0  0  0  0
   -1.2275    3.2247   -1.2613 H   0  0  0  0  0  0  0  0  0  0  0  0
   -2.3468    4.0044   -0.1702 H   0  0  0  0  0  0  0  0  0  0  0  0
   -0.0535    4.3682    0.6163 H   0  0  0  0  0  0  0  0  0  0  0  0
   -0.9071    3.3616    1.7977 H   0  0  0  0  0  0  0  0  0  0  0  0
   -1.0466    0.7776   -1.3807 H   0  0  0  0  0  0  0  0  0  0  0  0
   -3.8261    2.7001    1.2943 H   0  0  0  0  0  0  0  0  0  0  0  0
   -5.0359    0.5729    1.5743 H   0  0  0  0  0  0  0  0  0  0  0  0
    0.4012    1.5704    1.3056 H   0  0  0  0  0  0  0  0  0  0  0  0
   -2.3996   -3.5808   -1.4287 H   0  0  0  0  0  0  0  0  0  0  0  0
   -2.1441   -3.0198    0.2357 H   0  0  0  0  0  0  0  0  0  0  0  0
   -4.6350   -2.3945   -1.4877 H   0  0  0  0  0  0  0  0  0  0  0  0
   -4.5639   -3.6195   -0.2049 H   0  0  0  0  0  0  0  0  0  0  0  0
    1.0499   -0.1229    0.3771 H   0  0  0  0  0  0  0  0  0  0  0  0
    4.2860    2.5388   -0.6647 H   0  0  0  0  0  0  0  0  0  0  0  0
    5.0400   -1.6355   -0.1319 H   0  0  0  0  0  0  0  0  0  0  0  0
    5.8421    0.6290   -0.6614 H   0  0  0  0  0  0  0  0  0  0  0  0
    2.8047   -3.3246   -1.6671 H   0  0  0  0  0  0  0  0  0  0  0  0
    1.1405   -2.6829   -1.4394 H   0  0  0  0  0  0  0  0  0  0  0  0
    1.5646   -4.3139   -0.8420 H   0  0  0  0  0  0  0  0  0  0  0  0
  1  5  2  0  0  0  0
  1  6  2  0  0  0  0
  1 19  1  0  0  0  0
  1 25  1  0  0  0  0
  2 11  1  0  0  0  0
  2 16  1  0  0  0  0
  3 13  1  0  0  0  0
  3 17  1  0  0  0  0
  4 20  2  0  0  0  0
  7 10  1  0  0  0  0
  7 20  1  0  0  0  0
  7 33  1  0  0  0  0
  8  9  1  0  0  0  0
  8 10  1  0  0  0  0
  8 26  1  0  0  0  0
  8 27  1  0  0  0  0
  9 12  2  0  0  0  0
  9 14  1  0  0  0  0
 10 28  1  0  0  0  0
 10 29  1  0  0  0  0
 11 12  1  0  0  0  0
 11 13  2  0  0  0  0
 12 30  1  0  0  0  0
 13 15  1  0  0  0  0
 14 15  2  0  0  0  0
 14 31  1  0  0  0  0
 15 32  1  0  0  0  0
 16 17  1  0  0  0  0
 16 34  1  0  0  0  0
 16 35  1  0  0  0  0
 17 36  1  0  0  0  0
 17 37  1  0  0  0  0
 18 20  1  0  0  0  0
 18 21  2  0  0  0  0
 18 22  1  0  0  0  0
 19 21  1  0  0  0  0
 19 23  2  0  0  0  0
 21 38  1  0  0  0  0
 22 24  2  0  0  0  0
 22 39  1  0  0  0  0
 23 24  1  0  0  0  0
 23 40  1  0  0  0  0
 24 41  1  0  0  0  0
 25 42  1  0  0  0  0
 25 43  1  0  0  0  0
 25 44  1  0  0  0  0
M  END
> <PUBCHEM_COMPOUND_CID>
17396619

> <PUBCHEM_CONFORMER_RMSD>
0.8

> <PUBCHEM_CONFORMER_DIVERSEORDER>
2
135
99
103
38
127
74
63
72
101
121
156
17
146
58
110
36
164
20
133
42
50
11
29
87
40
37
117
115
102
13
139
90
149
64
158
76
94
15
142
18
153
59
120
49
124
166
71
5
106
34
119
47
122
80
45
123
86
125
16
43
25
68
46
81
9
24
130
35
65
26
79
14
69
134
60
28
96
57
1
31
89
61
85
161
105
33
95
19
51
129
93
66
109
88
62
39
44
126
162
54
141
53
145
77
136
22
157
67
30
84
32
151
73
147
138
114
27
165
56
52
154
152
159
70
148
8
6
108
112
75
140
131
23
160
82
143
150
12
21
92
3
144
118
163
100
48
7
113
137
41
107
55
155
78
91
116
4
98
10
111
97
128
83
132
104

> <PUBCHEM_MMFF94_PARTIAL_CHARGES>
33
1 1.2
10 0.3
11 0.08
12 -0.15
13 0.08
14 -0.15
15 -0.15
16 0.28
17 0.28
18 0.09
19 -0.01
2 -0.36
20 0.54
21 -0.15
22 -0.15
23 -0.15
24 -0.15
25 0.11
3 -0.36
30 0.15
31 0.15
32 0.15
33 0.37
38 0.15
39 0.15
4 -0.57
40 0.15
41 0.15
5 -0.65
6 -0.65
7 -0.73
8 0.14
9 -0.14

> <PUBCHEM_EFFECTIVE_ROTOR_COUNT>
6.8

> <PUBCHEM_PHARMACOPHORE_FEATURES>
9
1 2 acceptor
1 3 acceptor
1 4 acceptor
1 5 acceptor
1 6 acceptor
1 7 donor
6 18 19 21 22 23 24 rings
6 2 3 11 13 16 17 rings
6 9 11 12 13 14 15 rings

> <PUBCHEM_HEAVY_ATOM_COUNT>
25

> <PUBCHEM_ATOM_DEF_STEREO_COUNT>
0

> <PUBCHEM_ATOM_UDEF_STEREO_COUNT>
0

> <PUBCHEM_BOND_DEF_STEREO_COUNT>
0

> <PUBCHEM_BOND_UDEF_STEREO_COUNT>
0

> <PUBCHEM_ISOTOPIC_ATOM_COUNT>
0

> <PUBCHEM_COMPONENT_COUNT>
1

> <PUBCHEM_CACTVS_TAUTO_COUNT>
2

> <PUBCHEM_CONFORMER_ID>
0109738B00000002

> <PUBCHEM_MMFF94_ENERGY>
59.3721

> <PUBCHEM_FEATURE_SELFOVERLAP>
45.729

> <PUBCHEM_SHAPE_FINGERPRINT>
10616163 171 18408602595320894838
114674 6 17904211325488243857
11513181 2 17679588014799312439
11578080 2 17559972059172600319
12038231 1 18338236067256963975
12553582 1 18409176493119605717
12596599 1 17896293883890095161
12633257 1 18264489670809186287
12788726 201 17606400105850272433
13122387 1 18049160265479362799
13140716 1 18261674774786682560
14117953 113 17545323441606740949
14178342 30 18337125504973968696
14251757 5 17544739588396130662
14765038 42 18116410605844765344
14931854 50 18341050701286593278
15403338 16 16192831811089234785
15537594 2 18338498773284665393
15927050 60 16750711340685013911
16110190 28 18192429886464349682
17492 89 18339642372725757474
17909252 39 17823113766723576070
19930381 70 18123191191126810811
20291156 8 18409167684063028085
20621476 13 5298334268416173951
20764821 26 17765428755985399202
21673915 165 18337953394179387708
21857420 4 15149734513847627302
229767 44 16899637493111852690
23379529 103 17974561709182098238
23559900 14 18264499386473550689
3246872 21 18265054630628181414
3737641 26 18410563011779262618
392239 28 18126837197470664123
4283 87 18411421691473572608
463206 1 18338791221876125553
5081480 168 17318126797084027150
5309563 4 18194680363576112435
532947 4 15816502081629981724
6433294 58 18337109089545276304
6823239 73 17897148320959057934
7097593 13 18410291432354454565

> <PUBCHEM_SHAPE_MULTIPOLES>
484.01
9.38
5.07
1.02
0.04
0.27
0.06
3.52
0.29
-0.39
-0.03
0.07
0.34
-1.54

> <PUBCHEM_SHAPE_SELFOVERLAP>
1025.895

> <PUBCHEM_SHAPE_VOLUME>
271.4

> <PUBCHEM_COORDINATE_TYPE>
2
5
10

$$$$

