5460194
  -OEChem-07051213013D

 34 34  0     1  0  0  0  0  0999 V2000
    0.7798   -0.6803    1.0689 O   0  0  0  0  0  0  0  0  0  0  0  0
   -0.9452    0.0693   -0.3783 O   0  0  0  0  0  0  0  0  0  0  0  0
    2.5917    2.4899   -0.9018 O   0  0  0  0  0  0  0  0  0  0  0  0
    3.4423   -0.2499   -1.4236 O   0  0  0  0  0  0  0  0  0  0  0  0
    1.3764    2.0892    1.5520 O   0  0  0  0  0  0  0  0  0  0  0  0
    1.6291   -3.2732    0.9152 O   0  0  0  0  0  0  0  0  0  0  0  0
   -2.9463   -0.8120   -2.1813 O   0  0  0  0  0  0  0  0  0  0  0  0
   -4.2815   -0.0317    0.9237 O   0  0  0  0  0  0  0  0  0  0  0  0
   -2.9864    1.7173    0.2619 O   0  0  0  0  0  0  0  0  0  0  0  0
    1.7678    1.3415   -0.7196 C   0  0  1  0  0  0  0  0  0  0  0  0
    2.6180    0.1322   -0.3256 C   0  0  1  0  0  0  0  0  0  0  0  0
    0.7268    1.6478    0.3585 C   0  0  1  0  0  0  0  0  0  0  0  0
    1.7129   -1.0481    0.0496 C   0  0  1  0  0  0  0  0  0  0  0  0
   -0.0854    0.4015    0.7066 C   0  0  2  0  0  0  0  0  0  0  0  0
    2.5230   -2.2280    0.5793 C   0  0  0  0  0  0  0  0  0  0  0  0
   -2.1362   -0.5575    0.0759 C   0  0  2  0  0  0  0  0  0  0  0  0
   -2.6425   -1.5240   -0.9867 C   0  0  0  0  0  0  0  0  0  0  0  0
   -3.1443    0.5159    0.4254 C   0  0  0  0  0  0  0  0  0  0  0  0
    1.2773    1.1449   -1.6810 H   0  0  0  0  0  0  0  0  0  0  0  0
    3.2813    0.4070    0.5036 H   0  0  0  0  0  0  0  0  0  0  0  0
    0.0757    2.4626    0.0232 H   0  0  0  0  0  0  0  0  0  0  0  0
    1.1492   -1.3970   -0.8261 H   0  0  0  0  0  0  0  0  0  0  0  0
   -0.6715    0.6336    1.6056 H   0  0  0  0  0  0  0  0  0  0  0  0
    3.0678   -1.9498    1.4876 H   0  0  0  0  0  0  0  0  0  0  0  0
    3.2291   -2.6051   -0.1658 H   0  0  0  0  0  0  0  0  0  0  0  0
    2.0131    3.2287   -1.1568 H   0  0  0  0  0  0  0  0  0  0  0  0
    4.1288   -0.8495   -1.0864 H   0  0  0  0  0  0  0  0  0  0  0  0
    1.8335    1.3301    1.9514 H   0  0  0  0  0  0  0  0  0  0  0  0
   -1.9302   -1.1384    0.9850 H   0  0  0  0  0  0  0  0  0  0  0  0
   -1.8779   -2.2686   -1.2309 H   0  0  0  0  0  0  0  0  0  0  0  0
   -3.5487   -2.0445   -0.6635 H   0  0  0  0  0  0  0  0  0  0  0  0
    2.1640   -4.0102    1.2562 H   0  0  0  0  0  0  0  0  0  0  0  0
   -2.1381   -0.3454   -2.4553 H   0  0  0  0  0  0  0  0  0  0  0  0
   -4.9513    0.6510    1.1418 H   0  0  0  0  0  0  0  0  0  0  0  0
  1 13  1  0  0  0  0
  1 14  1  0  0  0  0
  2 14  1  0  0  0  0
  2 16  1  0  0  0  0
  3 10  1  0  0  0  0
  3 26  1  0  0  0  0
  4 11  1  0  0  0  0
  4 27  1  0  0  0  0
  5 12  1  0  0  0  0
  5 28  1  0  0  0  0
  6 15  1  0  0  0  0
  6 32  1  0  0  0  0
  7 17  1  0  0  0  0
  7 33  1  0  0  0  0
  8 18  1  0  0  0  0
  8 34  1  0  0  0  0
  9 18  2  0  0  0  0
 10 11  1  0  0  0  0
 10 12  1  0  0  0  0
 10 19  1  0  0  0  0
 11 13  1  0  0  0  0
 11 20  1  0  0  0  0
 12 14  1  0  0  0  0
 12 21  1  0  0  0  0
 13 15  1  0  0  0  0
 13 22  1  0  0  0  0
 14 23  1  0  0  0  0
 15 24  1  0  0  0  0
 15 25  1  0  0  0  0
 16 17  1  0  0  0  0
 16 18  1  0  0  0  0
 16 29  1  0  0  0  0
 17 30  1  0  0  0  0
 17 31  1  0  0  0  0
M  END
> <PUBCHEM_COMPOUND_CID>
5460194

> <PUBCHEM_CONFORMER_RMSD>
0.8

> <PUBCHEM_CONFORMER_DIVERSEORDER>
1
25
20
27
16
10
17
23
13
24
12
6
30
22
28
19
11
32
5
14
15
7
26
29
18
3
31
21
9
8
2
4

> <PUBCHEM_MMFF94_PARTIAL_CHARGES>
24
1 -0.56
10 0.28
11 0.28
12 0.28
13 0.28
14 0.56
15 0.28
16 0.34
17 0.28
18 0.66
2 -0.56
26 0.4
27 0.4
28 0.4
3 -0.68
32 0.4
33 0.4
34 0.5
4 -0.68
5 -0.68
6 -0.68
7 -0.68
8 -0.65
9 -0.57

> <PUBCHEM_EFFECTIVE_ROTOR_COUNT>
6.2

> <PUBCHEM_PHARMACOPHORE_FEATURES>
16
1 1 acceptor
1 2 acceptor
1 3 acceptor
1 3 donor
1 4 acceptor
1 4 donor
1 5 acceptor
1 5 donor
1 6 acceptor
1 6 donor
1 7 acceptor
1 7 donor
1 8 acceptor
1 9 acceptor
3 8 9 18 anion
6 1 10 11 12 13 14 rings

> <PUBCHEM_HEAVY_ATOM_COUNT>
18

> <PUBCHEM_ATOM_DEF_STEREO_COUNT>
6

> <PUBCHEM_ATOM_UDEF_STEREO_COUNT>
0

> <PUBCHEM_BOND_DEF_STEREO_COUNT>
0

> <PUBCHEM_BOND_UDEF_STEREO_COUNT>
0

> <PUBCHEM_ISOTOPIC_ATOM_COUNT>
0

> <PUBCHEM_COMPONENT_COUNT>
1

> <PUBCHEM_CACTVS_TAUTO_COUNT>
1

> <PUBCHEM_CONFORMER_ID>
005350E200000001

> <PUBCHEM_MMFF94_ENERGY>
41.8321

> <PUBCHEM_FEATURE_SELFOVERLAP>
81.316

> <PUBCHEM_SHAPE_FINGERPRINT>
11578080 2 18046092555203305120
12553582 1 18196097861386651314
12932764 1 18187647977314488529
13083527 12 15290482057032058743
14178342 30 18192163589849140355
15279307 12 18336262345327731135
15375462 189 18409165549421811299
15775835 57 18189605073494072213
15852999 172 17699599981213010347
16752209 62 17532645935532183361
16945 1 18272653450197944246
18186145 218 18200872868660607356
18981168 100 16128105571327245885
19786989 88 17703504389826062012
201361 129 18412534405831069785
20559304 39 18409167748550295699
20600515 1 16660645210530235754
20645476 183 18336537296438990831
20820808 20 18270106916938866960
21524375 3 17102021918455797696
22112679 90 18049714419824734064
2255824 54 18341330007267759022
22802520 49 17703239532188680637
22854114 111 18413101749715311585
232386 152 18041851717231871266
23402539 116 18335979848765865902
23419403 2 17049145554299123640
23557571 272 15141253083404275671
23598291 2 18259698982782887837
25 1 18130779036812766540
2748010 2 16460230246893074216
6049 1 16988566852828099583
7364860 26 18408888446932518842
74978 22 17821731615686903817
7615 1 18187943763137943327
7832392 63 18335700567847705481
8030462 33 18263090928983600997
81228 2 17261614266027151410

> <PUBCHEM_SHAPE_MULTIPOLES>
317.61
6.04
2.63
1.35
4.37
0.74
-0.39
0.38
-0.97
-2.09
0.53
0.22
0.09
-1.17

> <PUBCHEM_SHAPE_SELFOVERLAP>
638.76

> <PUBCHEM_SHAPE_VOLUME>
182.6

> <PUBCHEM_COORDINATE_TYPE>
2
5
10

$$$$

