439715
  -OEChem-07051212472D

 31 33  0     1  0  0  0  0  0999 V2000
    6.0771   -1.0278    0.0000 P   0  0  3  0  0  0  0  0  0  0  0  0
    3.0084   -1.0278    0.0000 O   0  0  0  0  0  0  0  0  0  0  0  0
    5.4935   -0.2231    0.0000 O   0  0  0  0  0  0  0  0  0  0  0  0
    5.4935   -1.8325    0.0000 O   0  0  0  0  0  0  0  0  0  0  0  0
    6.8861   -1.6156    0.0000 O   0  0  0  0  0  0  0  0  0  0  0  0
    2.3090   -2.9958    0.0000 O   0  0  0  0  0  0  0  0  0  0  0  0
    6.8861   -0.4400    0.0000 O   0  0  0  0  0  0  0  0  0  0  0  0
    4.9344    1.2675    0.0000 O   0  0  0  0  0  0  0  0  0  0  0  0
    2.3601    3.5854    0.0000 O   0  0  0  0  0  0  0  0  0  0  0  0
    3.2872    0.7323    0.0000 N   0  0  0  0  0  0  0  0  0  0  0  0
    3.6473    2.4265    0.0000 N   0  0  0  0  0  0  0  0  0  0  0  0
    4.5472   -0.5278    0.0000 C   0  0  2  0  0  0  0  0  0  0  0  0
    4.5472   -1.5278    0.0000 C   0  0  1  0  0  0  0  0  0  0  0  0
    3.5962   -0.2188    0.0000 C   0  0  1  0  0  0  0  0  0  0  0  0
    3.5962   -1.8368    0.0000 C   0  0  1  0  0  0  0  0  0  0  0  0
    3.2872   -2.7879    0.0000 C   0  0  0  0  0  0  0  0  0  0  0  0
    3.9563    1.4754    0.0000 C   0  0  0  0  0  0  0  0  0  0  0  0
    2.3090    0.9402    0.0000 C   0  0  0  0  0  0  0  0  0  0  0  0
    2.0000    1.8912    0.0000 C   0  0  0  0  0  0  0  0  0  0  0  0
    2.6691    2.6344    0.0000 C   0  0  0  0  0  0  0  0  0  0  0  0
    4.5483    0.3222    0.0000 H   0  0  0  0  0  0  0  0  0  0  0  0
    4.5483   -2.3778    0.0000 H   0  0  0  0  0  0  0  0  0  0  0  0
    2.9838   -0.1218    0.0000 H   0  0  0  0  0  0  0  0  0  0  0  0
    2.9838   -1.9338    0.0000 H   0  0  0  0  0  0  0  0  0  0  0  0
    3.3088   -3.4075    0.0000 H   0  0  0  0  0  0  0  0  0  0  0  0
    3.9011   -2.8742    0.0000 H   0  0  0  0  0  0  0  0  0  0  0  0
    1.8942    0.4794    0.0000 H   0  0  0  0  0  0  0  0  0  0  0  0
    6.8213   -2.2322    0.0000 H   0  0  0  0  0  0  0  0  0  0  0  0
    2.1174   -3.5854    0.0000 H   0  0  0  0  0  0  0  0  0  0  0  0
    4.0621    2.8872    0.0000 H   0  0  0  0  0  0  0  0  0  0  0  0
    1.3936    2.0202    0.0000 H   0  0  0  0  0  0  0  0  0  0  0  0
  1  3  1  0  0  0  0
  1  4  1  0  0  0  0
  1  5  1  0  0  0  0
  1  7  2  0  0  0  0
  2 14  1  0  0  0  0
  2 15  1  0  0  0  0
  3 12  1  0  0  0  0
  4 13  1  0  0  0  0
  5 28  1  0  0  0  0
  6 16  1  0  0  0  0
  6 29  1  0  0  0  0
  8 17  2  0  0  0  0
  9 20  2  0  0  0  0
 14 10  1  1  0  0  0
 10 17  1  0  0  0  0
 10 18  1  0  0  0  0
 11 17  1  0  0  0  0
 11 20  1  0  0  0  0
 11 30  1  0  0  0  0
 12 13  1  0  0  0  0
 12 14  1  0  0  0  0
 12 21  1  1  0  0  0
 13 15  1  0  0  0  0
 13 22  1  1  0  0  0
 14 23  1  0  0  0  0
 15 16  1  1  0  0  0
 15 24  1  0  0  0  0
 16 25  1  0  0  0  0
 16 26  1  0  0  0  0
 18 19  2  0  0  0  0
 18 27  1  0  0  0  0
 19 20  1  0  0  0  0
 19 31  1  0  0  0  0
M  END
> <PUBCHEM_COMPOUND_CID>
439715

> <PUBCHEM_COMPOUND_CANONICALIZED>
1

> <PUBCHEM_CACTVS_COMPLEXITY>
536

> <PUBCHEM_CACTVS_HBOND_ACCEPTOR>
8

> <PUBCHEM_CACTVS_HBOND_DONOR>
3

> <PUBCHEM_CACTVS_ROTATABLE_BOND>
2

> <PUBCHEM_CACTVS_SUBSKEYS>
AAADccBzPAIAAAAAAAAAAAAAAAAAASJAAAAgAAAAAAASAAAAAAAAHgAQCCAACBThgAYBAAPABxCIQCFWUICAAAAAAgAIAAAIAECDEAIAgAAOQAAPFyITAMDwMAIAAAAAAAAAAAAAAAAAAAAAAAAAAAAAAA==

> <PUBCHEM_IUPAC_OPENEYE_NAME>
1-[(3aR,4R,6R,6aR)-2-hydroxy-6-(hydroxymethyl)-2-oxo-3a,4,6,6a-tetrahydrofuro[3,4-d][1,3,2]dioxaphosphol-4-yl]pyrimidine-2,4-dione

> <PUBCHEM_IUPAC_CAS_NAME>
1-[(3aR,4R,6R,6aR)-2-hydroxy-6-(hydroxymethyl)-2-oxo-3a,4,6,6a-tetrahydrofuro[3,4-d][1,3,2]dioxaphosphol-4-yl]pyrimidine-2,4-dione

> <PUBCHEM_IUPAC_NAME>
1-[(3aR,4R,6R,6aR)-2-hydroxy-6-(hydroxymethyl)-2-oxo-3a,4,6,6a-tetrahydrofuro[3,4-d][1,3,2]dioxaphosphol-4-yl]pyrimidine-2,4-dione

> <PUBCHEM_IUPAC_SYSTEMATIC_NAME>
1-[(3aR,4R,6R,6aR)-6-(hydroxymethyl)-2-oxidanyl-2-oxidanylidene-3a,4,6,6a-tetrahydrofuro[3,4-d][1,3,2]dioxaphosphol-4-yl]pyrimidine-2,4-dione

> <PUBCHEM_IUPAC_TRADITIONAL_NAME>
1-[(3aR,4R,6R,6aR)-2-hydroxy-2-keto-6-methylol-3a,4,6,6a-tetrahydrofuro[3,4-d][1,3,2]dioxaphosphol-4-yl]pyrimidine-2,4-quinone

> <PUBCHEM_IUPAC_INCHI>
InChI=1S/C9H11N2O8P/c12-3-4-6-7(19-20(15,16)18-6)8(17-4)11-2-1-5(13)10-9(11)14/h1-2,4,6-8,12H,3H2,(H,15,16)(H,10,13,14)/t4-,6-,7-,8-/m1/s1

> <PUBCHEM_IUPAC_INCHIKEY>
HWDMHJDYMFRXOX-XVFCMESISA-N

> <PUBCHEM_XLOGP3_AA>
-3

> <PUBCHEM_EXACT_MASS>
306.025302

> <PUBCHEM_MOLECULAR_FORMULA>
C9H11N2O8P

> <PUBCHEM_MOLECULAR_WEIGHT>
306.166002

> <PUBCHEM_OPENEYE_CAN_SMILES>
C1=CN(C(=O)NC1=O)C2C3C(C(O2)CO)OP(=O)(O3)O

> <PUBCHEM_OPENEYE_ISO_SMILES>
C1=CN(C(=O)NC1=O)[C@H]2[C@H]3[C@@H]([C@H](O2)CO)OP(=O)(O3)O

> <PUBCHEM_CACTVS_TPSA>
135

> <PUBCHEM_MONOISOTOPIC_WEIGHT>
306.025302

> <PUBCHEM_TOTAL_CHARGE>
0

> <PUBCHEM_HEAVY_ATOM_COUNT>
20

> <PUBCHEM_ATOM_DEF_STEREO_COUNT>
4

> <PUBCHEM_ATOM_UDEF_STEREO_COUNT>
0

> <PUBCHEM_BOND_DEF_STEREO_COUNT>
0

> <PUBCHEM_BOND_UDEF_STEREO_COUNT>
0

> <PUBCHEM_ISOTOPIC_ATOM_COUNT>
0

> <PUBCHEM_COMPONENT_COUNT>
1

> <PUBCHEM_CACTVS_TAUTO_COUNT>
3

> <PUBCHEM_COORDINATE_TYPE>
1
5
255

> <PUBCHEM_BONDANNOTATIONS>
14  10  5
10  17  8
10  18  8
11  17  8
11  20  8
12  21  5
13  22  5
15  16  5
18  19  8
19  20  8

$$$$

