12918
  -OEChem-06261207322D

 37 38  0     0  0  0  0  0  0999 V2000
    5.4641    0.4050    0.0000 I   0  0  0  0  0  0  0  0  0  0  0  0
    2.0000    0.4050    0.0000 I   0  0  0  0  0  0  0  0  0  0  0  0
    3.7320    1.4050    0.0000 O   0  0  0  0  0  0  0  0  0  0  0  0
    7.1962    3.4050    0.0000 O   0  0  0  0  0  0  0  0  0  0  0  0
    2.8660   -4.0950    0.0000 O   0  0  0  0  0  0  0  0  0  0  0  0
    3.7320   -1.5950    0.0000 C   0  0  0  0  0  0  0  0  0  0  0  0
    3.7320   -2.5950    0.0000 C   0  0  0  0  0  0  0  0  0  0  0  0
    4.5981    1.9050    0.0000 C   0  0  0  0  0  0  0  0  0  0  0  0
    6.3301    1.9050    0.0000 C   0  0  0  0  0  0  0  0  0  0  0  0
    5.4641    3.4050    0.0000 C   0  0  0  0  0  0  0  0  0  0  0  0
    3.7320    0.4050    0.0000 C   0  0  0  0  0  0  0  0  0  0  0  0
    6.3301    2.9050    0.0000 C   0  0  0  0  0  0  0  0  0  0  0  0
    5.4641    1.4050    0.0000 C   0  0  0  0  0  0  0  0  0  0  0  0
    4.5981    2.9050    0.0000 C   0  0  0  0  0  0  0  0  0  0  0  0
    4.5981   -1.0950    0.0000 C   0  0  0  0  0  0  0  0  0  0  0  0
    2.8660   -1.0950    0.0000 C   0  0  0  0  0  0  0  0  0  0  0  0
    4.5981   -0.0950    0.0000 C   0  0  0  0  0  0  0  0  0  0  0  0
    2.8660   -0.0950    0.0000 C   0  0  0  0  0  0  0  0  0  0  0  0
    2.8660   -3.0950    0.0000 C   0  0  0  0  0  0  0  0  0  0  0  0
    7.1962    1.4050    0.0000 C   0  0  0  0  0  0  0  0  0  0  0  0
    5.4641    4.4050    0.0000 C   0  0  0  0  0  0  0  0  0  0  0  0
    3.9441   -3.1776    0.0000 H   0  0  0  0  0  0  0  0  0  0  0  0
    4.3426   -2.4873    0.0000 H   0  0  0  0  0  0  0  0  0  0  0  0
    5.4641    0.7850    0.0000 H   0  0  0  0  0  0  0  0  0  0  0  0
    4.0611    3.2150    0.0000 H   0  0  0  0  0  0  0  0  0  0  0  0
    5.1350   -1.4050    0.0000 H   0  0  0  0  0  0  0  0  0  0  0  0
    2.3291   -1.4050    0.0000 H   0  0  0  0  0  0  0  0  0  0  0  0
    2.6540   -2.5124    0.0000 H   0  0  0  0  0  0  0  0  0  0  0  0
    2.2554   -3.2027    0.0000 H   0  0  0  0  0  0  0  0  0  0  0  0
    6.8862    0.8681    0.0000 H   0  0  0  0  0  0  0  0  0  0  0  0
    7.7331    1.0950    0.0000 H   0  0  0  0  0  0  0  0  0  0  0  0
    7.5062    1.9419    0.0000 H   0  0  0  0  0  0  0  0  0  0  0  0
    6.0841    4.4050    0.0000 H   0  0  0  0  0  0  0  0  0  0  0  0
    5.4641    5.0250    0.0000 H   0  0  0  0  0  0  0  0  0  0  0  0
    4.8441    4.4050    0.0000 H   0  0  0  0  0  0  0  0  0  0  0  0
    7.1962    4.0250    0.0000 H   0  0  0  0  0  0  0  0  0  0  0  0
    2.3291   -4.4050    0.0000 H   0  0  0  0  0  0  0  0  0  0  0  0
  1 17  1  0  0  0  0
  2 18  1  0  0  0  0
  3  8  1  0  0  0  0
  3 11  1  0  0  0  0
  4 12  1  0  0  0  0
  4 36  1  0  0  0  0
  5 19  1  0  0  0  0
  5 37  1  0  0  0  0
  6  7  1  0  0  0  0
  6 15  2  0  0  0  0
  6 16  1  0  0  0  0
  7 19  1  0  0  0  0
  7 22  1  0  0  0  0
  7 23  1  0  0  0  0
  8 13  2  0  0  0  0
  8 14  1  0  0  0  0
  9 12  2  0  0  0  0
  9 13  1  0  0  0  0
  9 20  1  0  0  0  0
 10 12  1  0  0  0  0
 10 14  2  0  0  0  0
 10 21  1  0  0  0  0
 11 17  2  0  0  0  0
 11 18  1  0  0  0  0
 13 24  1  0  0  0  0
 14 25  1  0  0  0  0
 15 17  1  0  0  0  0
 15 26  1  0  0  0  0
 16 18  2  0  0  0  0
 16 27  1  0  0  0  0
 19 28  1  0  0  0  0
 19 29  1  0  0  0  0
 20 30  1  0  0  0  0
 20 31  1  0  0  0  0
 20 32  1  0  0  0  0
 21 33  1  0  0  0  0
 21 34  1  0  0  0  0
 21 35  1  0  0  0  0
M  END
> <PUBCHEM_COMPOUND_CID>
12918

> <PUBCHEM_COMPOUND_CANONICALIZED>
1

> <PUBCHEM_CACTVS_COMPLEXITY>
305

> <PUBCHEM_CACTVS_HBOND_ACCEPTOR>
3

> <PUBCHEM_CACTVS_HBOND_DONOR>
2

> <PUBCHEM_CACTVS_ROTATABLE_BOND>
4

> <PUBCHEM_CACTVS_SUBSKEYS>
AAADceB4MAAAAwAAAAAAAAAAAAAAAAAAAAAwYAAAAAAAAAABQAAAGgAgCAAADASimAIyBoAABgCAAiBCAAACCAAgIAAAiAAGCIgMNiKGMRqCeCCkwBEIuAfAwPAOIQADAAAIAABCAAYAABAAAAAAAAAAAA==

> <PUBCHEM_IUPAC_OPENEYE_NAME>
4-[4-(2-hydroxyethyl)-2,6-diiodo-phenoxy]-2,6-dimethyl-phenol

> <PUBCHEM_IUPAC_CAS_NAME>
4-[4-(2-hydroxyethyl)-2,6-diiodophenoxy]-2,6-dimethylphenol

> <PUBCHEM_IUPAC_NAME>
4-[4-(2-hydroxyethyl)-2,6-diiodophenoxy]-2,6-dimethylphenol

> <PUBCHEM_IUPAC_SYSTEMATIC_NAME>
4-[4-(2-hydroxyethyl)-2,6-bis(iodanyl)phenoxy]-2,6-dimethyl-phenol

> <PUBCHEM_IUPAC_TRADITIONAL_NAME>
4-[4-(2-hydroxyethyl)-2,6-diiodo-phenoxy]-2,6-dimethyl-phenol

> <PUBCHEM_IUPAC_INCHI>
InChI=1S/C16H16I2O3/c1-9-5-12(6-10(2)15(9)20)21-16-13(17)7-11(3-4-19)8-14(16)18/h5-8,19-20H,3-4H2,1-2H3

> <PUBCHEM_IUPAC_INCHIKEY>
HCMDSBFDUIXNIL-UHFFFAOYSA-N

> <PUBCHEM_XLOGP3_AA>
4.7

> <PUBCHEM_EXACT_MASS>
509.91889

> <PUBCHEM_MOLECULAR_FORMULA>
C16H16I2O3

> <PUBCHEM_MOLECULAR_WEIGHT>
510.10538

> <PUBCHEM_OPENEYE_CAN_SMILES>
CC1=CC(=CC(=C1O)C)OC2=C(C=C(C=C2I)CCO)I

> <PUBCHEM_OPENEYE_ISO_SMILES>
CC1=CC(=CC(=C1O)C)OC2=C(C=C(C=C2I)CCO)I

> <PUBCHEM_CACTVS_TPSA>
49.7

> <PUBCHEM_MONOISOTOPIC_WEIGHT>
509.91889

> <PUBCHEM_TOTAL_CHARGE>
0

> <PUBCHEM_HEAVY_ATOM_COUNT>
21

> <PUBCHEM_ATOM_DEF_STEREO_COUNT>
0

> <PUBCHEM_ATOM_UDEF_STEREO_COUNT>
0

> <PUBCHEM_BOND_DEF_STEREO_COUNT>
0

> <PUBCHEM_BOND_UDEF_STEREO_COUNT>
0

> <PUBCHEM_ISOTOPIC_ATOM_COUNT>
0

> <PUBCHEM_COMPONENT_COUNT>
1

> <PUBCHEM_CACTVS_TAUTO_COUNT>
2

> <PUBCHEM_COORDINATE_TYPE>
1
5
255

> <PUBCHEM_BONDANNOTATIONS>
10  12  8
10  14  8
11  17  8
11  18  8
15  17  8
16  18  8
6  15  8
6  16  8
8  13  8
8  14  8
9  12  8
9  13  8

$$$$

