443208
  -OEChem-07051213013D

 71 73  0     1  0  0  0  0  0999 V2000
   -3.0793   -2.4694    0.8528 P   0  0  1  0  0  0  0  0  0  0  0  0
   -0.4987   -3.8276    0.4618 P   0  0  2  0  0  0  0  0  0  0  0  0
   -1.5766    0.4608    0.2011 O   0  0  0  0  0  0  0  0  0  0  0  0
   -4.9709    1.2253   -0.5142 O   0  0  0  0  0  0  0  0  0  0  0  0
   -3.4731   -0.9315    0.5552 O   0  0  0  0  0  0  0  0  0  0  0  0
   -4.5749    0.9938    2.2545 O   0  0  0  0  0  0  0  0  0  0  0  0
    2.6470   -0.5386   -1.5712 O   0  0  0  0  0  0  0  0  0  0  0  0
    4.3663   -2.9561   -2.3274 O   0  0  0  0  0  0  0  0  0  0  0  0
    0.6749   -3.3964   -0.5648 O   0  0  0  0  0  0  0  0  0  0  0  0
   -1.5500   -2.6051    0.3467 O   0  0  0  0  0  0  0  0  0  0  0  0
   -2.9454   -2.5504    2.4632 O   0  0  0  0  0  0  0  0  0  0  0  0
   -4.0166   -3.4800    0.2578 O   0  0  0  0  0  0  0  0  0  0  0  0
    0.1604   -3.6040    1.9220 O   0  0  0  0  0  0  0  0  0  0  0  0
   -1.0942   -5.1866    0.2364 O   0  0  0  0  0  0  0  0  0  0  0  0
    6.0493    1.5686   -0.5469 O   0  0  0  0  0  0  0  0  0  0  0  0
    3.5196    3.8884    2.5136 O   0  0  0  0  0  0  0  0  0  0  0  0
   -3.2346    3.0372   -2.0020 N   0  0  0  0  0  0  0  0  0  0  0  0
    3.8849    0.8090   -0.1130 N   0  0  0  0  0  0  0  0  0  0  0  0
    4.7770    2.7157    0.9780 N   0  0  0  0  0  0  0  0  0  0  0  0
   -2.8127    2.3654   -0.7715 C   0  0  2  0  0  0  0  0  0  0  0  0
   -1.9022    1.1279   -1.0354 C   0  0  0  0  0  0  0  0  0  0  0  0
   -4.0145    2.0536    0.1378 C   0  0  2  0  0  0  0  0  0  0  0  0
   -3.5000    1.3527    1.3960 C   0  0  2  0  0  0  0  0  0  0  0  0
   -2.6604    0.1187    1.0670 C   0  0  2  0  0  0  0  0  0  0  0  0
   -2.4645    0.1125   -2.0460 C   0  0  0  0  0  0  0  0  0  0  0  0
   -0.5416    1.6029   -1.5862 C   0  0  0  0  0  0  0  0  0  0  0  0
    2.3456   -1.9445   -1.4779 C   0  0  1  0  0  0  0  0  0  0  0  0
    3.6555   -2.6390   -1.1326 C   0  0  2  0  0  0  0  0  0  0  0  0
   -4.4430    2.4110   -2.5356 C   0  0  0  0  0  0  0  0  0  0  0  0
   -3.4617    4.4599   -1.7535 C   0  0  0  0  0  0  0  0  0  0  0  0
    4.4087   -1.5831   -0.3571 C   0  0  0  0  0  0  0  0  0  0  0  0
    3.9507   -0.2962   -1.0238 C   0  0  1  0  0  0  0  0  0  0  0  0
    1.2787   -2.1245   -0.4059 C   0  0  0  0  0  0  0  0  0  0  0  0
    2.7128    1.0054    0.6062 C   0  0  0  0  0  0  0  0  0  0  0  0
    4.9807    1.6820    0.0570 C   0  0  0  0  0  0  0  0  0  0  0  0
    2.5213    1.9955    1.4867 C   0  0  0  0  0  0  0  0  0  0  0  0
    3.6309    2.9576    1.7201 C   0  0  0  0  0  0  0  0  0  0  0  0
    1.2510    2.1890    2.2508 C   0  0  0  0  0  0  0  0  0  0  0  0
   -2.1796    3.0571   -0.1934 H   0  0  0  0  0  0  0  0  0  0  0  0
   -4.5405    2.9686    0.4333 H   0  0  0  0  0  0  0  0  0  0  0  0
   -2.8635    2.0608    1.9427 H   0  0  0  0  0  0  0  0  0  0  0  0
   -2.2098   -0.2302    2.0020 H   0  0  0  0  0  0  0  0  0  0  0  0
   -1.8147   -0.7723   -2.0725 H   0  0  0  0  0  0  0  0  0  0  0  0
   -3.4485   -0.2744   -1.7783 H   0  0  0  0  0  0  0  0  0  0  0  0
   -2.4912    0.5088   -3.0659 H   0  0  0  0  0  0  0  0  0  0  0  0
    0.1375    0.7562   -1.7321 H   0  0  0  0  0  0  0  0  0  0  0  0
   -0.6431    2.1255   -2.5428 H   0  0  0  0  0  0  0  0  0  0  0  0
   -0.0458    2.2742   -0.8757 H   0  0  0  0  0  0  0  0  0  0  0  0
    1.9613   -2.2696   -2.4513 H   0  0  0  0  0  0  0  0  0  0  0  0
    3.5289   -3.5678   -0.5684 H   0  0  0  0  0  0  0  0  0  0  0  0
    5.4970   -1.6923   -0.4012 H   0  0  0  0  0  0  0  0  0  0  0  0
    4.1089   -1.6107    0.6974 H   0  0  0  0  0  0  0  0  0  0  0  0
   -5.6683    1.0194    0.1314 H   0  0  0  0  0  0  0  0  0  0  0  0
    4.6144   -0.0477   -1.8604 H   0  0  0  0  0  0  0  0  0  0  0  0
   -4.4378    1.3363   -2.7013 H   0  0  0  0  0  0  0  0  0  0  0  0
   -5.3716    2.7430   -2.0532 H   0  0  0  0  0  0  0  0  0  0  0  0
   -4.5501    2.7955   -3.5612 H   0  0  0  0  0  0  0  0  0  0  0  0
   -2.5446    4.9435   -1.3983 H   0  0  0  0  0  0  0  0  0  0  0  0
   -3.7308    4.9663   -2.6877 H   0  0  0  0  0  0  0  0  0  0  0  0
   -4.2583    4.6538   -1.0276 H   0  0  0  0  0  0  0  0  0  0  0  0
   -5.0767    1.8033    2.4505 H   0  0  0  0  0  0  0  0  0  0  0  0
    1.7080   -2.0340    0.5957 H   0  0  0  0  0  0  0  0  0  0  0  0
    0.5097   -1.3539   -0.5117 H   0  0  0  0  0  0  0  0  0  0  0  0
    3.8328   -3.6032   -2.8195 H   0  0  0  0  0  0  0  0  0  0  0  0
    1.9070    0.3037    0.4479 H   0  0  0  0  0  0  0  0  0  0  0  0
   -2.8368   -3.4288    2.8859 H   0  0  0  0  0  0  0  0  0  0  0  0
    5.5527    3.3574    1.1166 H   0  0  0  0  0  0  0  0  0  0  0  0
    0.8012    3.1566    2.0057 H   0  0  0  0  0  0  0  0  0  0  0  0
    1.4432    2.1566    3.3282 H   0  0  0  0  0  0  0  0  0  0  0  0
    0.5135    1.4123    2.0231 H   0  0  0  0  0  0  0  0  0  0  0  0
    0.4548   -2.7086    2.1916 H   0  0  0  0  0  0  0  0  0  0  0  0
  1  5  1  0  0  0  0
  1 10  1  0  0  0  0
  1 11  1  0  0  0  0
  1 12  2  0  0  0  0
  2  9  1  0  0  0  0
  2 10  1  0  0  0  0
  2 13  1  0  0  0  0
  2 14  2  0  0  0  0
  3 21  1  0  0  0  0
  3 24  1  0  0  0  0
  4 22  1  0  0  0  0
  4 53  1  0  0  0  0
  5 24  1  0  0  0  0
  6 23  1  0  0  0  0
  6 61  1  0  0  0  0
  7 27  1  0  0  0  0
  7 32  1  0  0  0  0
  8 28  1  0  0  0  0
  8 64  1  0  0  0  0
  9 33  1  0  0  0  0
 11 66  1  0  0  0  0
 13 71  1  0  0  0  0
 15 35  2  0  0  0  0
 16 37  2  0  0  0  0
 17 20  1  0  0  0  0
 17 29  1  0  0  0  0
 17 30  1  0  0  0  0
 18 32  1  0  0  0  0
 18 34  1  0  0  0  0
 18 35  1  0  0  0  0
 19 35  1  0  0  0  0
 19 37  1  0  0  0  0
 19 67  1  0  0  0  0
 20 21  1  0  0  0  0
 20 22  1  0  0  0  0
 20 39  1  0  0  0  0
 21 25  1  0  0  0  0
 21 26  1  0  0  0  0
 22 23  1  0  0  0  0
 22 40  1  0  0  0  0
 23 24  1  0  0  0  0
 23 41  1  0  0  0  0
 24 42  1  0  0  0  0
 25 43  1  0  0  0  0
 25 44  1  0  0  0  0
 25 45  1  0  0  0  0
 26 46  1  0  0  0  0
 26 47  1  0  0  0  0
 26 48  1  0  0  0  0
 27 28  1  0  0  0  0
 27 33  1  0  0  0  0
 27 49  1  0  0  0  0
 28 31  1  0  0  0  0
 28 50  1  0  0  0  0
 29 55  1  0  0  0  0
 29 56  1  0  0  0  0
 29 57  1  0  0  0  0
 30 58  1  0  0  0  0
 30 59  1  0  0  0  0
 30 60  1  0  0  0  0
 31 32  1  0  0  0  0
 31 51  1  0  0  0  0
 31 52  1  0  0  0  0
 32 54  1  0  0  0  0
 33 62  1  0  0  0  0
 33 63  1  0  0  0  0
 34 36  2  0  0  0  0
 34 65  1  0  0  0  0
 36 37  1  0  0  0  0
 36 38  1  0  0  0  0
 38 68  1  0  0  0  0
 38 69  1  0  0  0  0
 38 70  1  0  0  0  0
M  END
> <PUBCHEM_COMPOUND_CID>
443208

> <PUBCHEM_CONFORMER_RMSD>
1.4

> <PUBCHEM_CONFORMER_DIVERSEORDER>
1
12
5
91
71
76
67
98
21
89
118
39
129
86
90
130
136
109
105
111
84
115
34
7
77
25
73
3
61
41
8
37
112
74
128
96
82
48
64
31
75
70
125
81
22
46
13
78
132
97
69
85
88
9
65
80
100
87
103
56
24
110
36
116
104
133
101
11
49
94
29
95
32
124
106
117
33
23
92
53
127
59
44
16
119
108
99
50
30
18
47
113
54
45
42
131
134
107
83
126
60
43
121
68
62
14
55
72
15
35
123
58
79
122
38
2
102
28
66
20
93
63
57
52
51
10
17
19
4
114
40
27
26
120
6
135

> <PUBCHEM_MMFF94_PARTIAL_CHARGES>
42
1 1.51
10 -0.54
11 -0.77
12 -0.7
13 -0.77
14 -0.7
15 -0.57
16 -0.57
17 -0.81
18 -0.47
19 -0.49
2 1.51
20 0.27
21 0.28
22 0.28
23 0.28
24 0.56
27 0.28
28 0.28
29 0.27
3 -0.56
30 0.27
32 0.58
33 0.28
34 -0.04
35 0.69
36 -0.12
37 0.62
38 0.14
4 -0.68
5 -0.55
53 0.4
6 -0.68
61 0.4
64 0.4
65 0.15
66 0.5
67 0.37
7 -0.56
71 0.5
8 -0.68
9 -0.55

> <PUBCHEM_EFFECTIVE_ROTOR_COUNT>
11.2

> <PUBCHEM_PHARMACOPHORE_FEATURES>
20
1 11 acceptor
1 12 acceptor
1 13 acceptor
1 14 acceptor
1 15 acceptor
1 16 acceptor
1 17 cation
1 19 donor
1 3 acceptor
1 4 acceptor
1 4 donor
1 6 acceptor
1 6 donor
1 7 acceptor
1 8 acceptor
1 8 donor
3 21 25 26 hydrophobe
5 7 27 28 31 32 rings
6 18 19 34 35 36 37 rings
6 3 20 21 22 23 24 rings

> <PUBCHEM_HEAVY_ATOM_COUNT>
38

> <PUBCHEM_ATOM_DEF_STEREO_COUNT>
7

> <PUBCHEM_ATOM_UDEF_STEREO_COUNT>
0

> <PUBCHEM_BOND_DEF_STEREO_COUNT>
0

> <PUBCHEM_BOND_UDEF_STEREO_COUNT>
0

> <PUBCHEM_ISOTOPIC_ATOM_COUNT>
0

> <PUBCHEM_COMPONENT_COUNT>
1

> <PUBCHEM_CACTVS_TAUTO_COUNT>
3

> <PUBCHEM_CONFORMER_ID>
0006C34800000001

> <PUBCHEM_MMFF94_ENERGY>
79.6437

> <PUBCHEM_FEATURE_SELFOVERLAP>
101.518

> <PUBCHEM_SHAPE_FINGERPRINT>
10256941 240 18056231052996075596
10842077 115 18337128799002855608
11135926 11 18113612405319892128
12522641 24 17690848178812203421
13383661 66 17176899747398026495
13402501 40 18117271454871982418
13561361 72 18121221970127878648
13583140 156 18113613456700643493
140371 6 17908418061455925639
14114206 34 17467601104039462404
15351339 4 17404865242115890138
16067690 210 17417519199302053880
20764821 26 18334290985366624442
21033648 29 18200031888321289781
23559900 14 17914609703194303508
25019877 29 15728092993699152542
3298306 158 18053947526443259391
4015057 19 18114749350969776213
4371632 12 18263664964369497621
469060 322 17758134604552478871
4742675 86 17754189586881127438
508706 21 18342454828979860222
550186 83 15552462919878007668
7399639 24 17974013847158293208

> <PUBCHEM_SHAPE_MULTIPOLES>
692.61
11.27
6.35
2.45
4.69
3.95
-0.23
-7.09
1.71
-0.67
-1.07
-0.77
-1.17
5.82

> <PUBCHEM_SHAPE_SELFOVERLAP>
1409.958

> <PUBCHEM_SHAPE_VOLUME>
405.4

> <PUBCHEM_COORDINATE_TYPE>
2
5
10

$$$$

