257426
  -OEChem-07051213062D

 37 39  0     0  0  0  0  0  0999 V2000
    4.6783   -2.9656    0.0000 O   0  0  0  0  0  0  0  0  0  0  0  0
    5.9674   -0.1994    0.0000 O   0  0  0  0  0  0  0  0  0  0  0  0
    2.3176    2.5716    0.0000 O   0  0  0  0  0  0  0  0  0  0  0  0
    6.2619   -2.1609    0.0000 C   0  0  0  0  0  0  0  0  0  0  0  0
    5.2619   -2.1609    0.0000 C   0  0  0  0  0  0  0  0  0  0  0  0
    4.6783   -1.3562    0.0000 C   0  0  0  0  0  0  0  0  0  0  0  0
    3.7320   -1.6609    0.0000 C   0  0  0  0  0  0  0  0  0  0  0  0
    3.7320   -2.6609    0.0000 C   0  0  0  0  0  0  0  0  0  0  0  0
    6.7619   -3.0269    0.0000 C   0  0  0  0  0  0  0  0  0  0  0  0
    6.7619   -1.2949    0.0000 C   0  0  0  0  0  0  0  0  0  0  0  0
    4.9889   -0.4056    0.0000 C   0  0  0  0  0  0  0  0  0  0  0  0
    2.8660   -1.1609    0.0000 C   0  0  0  0  0  0  0  0  0  0  0  0
    2.8660   -3.1609    0.0000 C   0  0  0  0  0  0  0  0  0  0  0  0
    4.3211    0.3387    0.0000 C   0  0  0  0  0  0  0  0  0  0  0  0
    2.0000   -1.6609    0.0000 C   0  0  0  0  0  0  0  0  0  0  0  0
    2.0000   -2.6609    0.0000 C   0  0  0  0  0  0  0  0  0  0  0  0
    3.3426    0.1324    0.0000 C   0  0  0  0  0  0  0  0  0  0  0  0
    4.6318    1.2892    0.0000 C   0  0  0  0  0  0  0  0  0  0  0  0
    2.6747    0.8767    0.0000 C   0  0  0  0  0  0  0  0  0  0  0  0
    3.9639    2.0335    0.0000 C   0  0  0  0  0  0  0  0  0  0  0  0
    2.9854    1.8273    0.0000 C   0  0  0  0  0  0  0  0  0  0  0  0
    5.9519   -1.6240    0.0000 H   0  0  0  0  0  0  0  0  0  0  0  0
    6.2249   -3.3369    0.0000 H   0  0  0  0  0  0  0  0  0  0  0  0
    7.0719   -3.5638    0.0000 H   0  0  0  0  0  0  0  0  0  0  0  0
    7.2988   -1.6049    0.0000 H   0  0  0  0  0  0  0  0  0  0  0  0
    7.0719   -0.7579    0.0000 H   0  0  0  0  0  0  0  0  0  0  0  0
    6.2249   -0.9849    0.0000 H   0  0  0  0  0  0  0  0  0  0  0  0
    7.2988   -2.7169    0.0000 H   0  0  0  0  0  0  0  0  0  0  0  0
    2.8660   -0.5409    0.0000 H   0  0  0  0  0  0  0  0  0  0  0  0
    2.8660   -3.7809    0.0000 H   0  0  0  0  0  0  0  0  0  0  0  0
    1.4631   -1.3509    0.0000 H   0  0  0  0  0  0  0  0  0  0  0  0
    1.4631   -2.9709    0.0000 H   0  0  0  0  0  0  0  0  0  0  0  0
    3.1500   -0.4569    0.0000 H   0  0  0  0  0  0  0  0  0  0  0  0
    5.2384    1.4170    0.0000 H   0  0  0  0  0  0  0  0  0  0  0  0
    2.0681    0.7489    0.0000 H   0  0  0  0  0  0  0  0  0  0  0  0
    4.1565    2.6228    0.0000 H   0  0  0  0  0  0  0  0  0  0  0  0
    2.5102    3.1609    0.0000 H   0  0  0  0  0  0  0  0  0  0  0  0
  1  5  1  0  0  0  0
  1  8  1  0  0  0  0
  2 11  2  0  0  0  0
  3 21  1  0  0  0  0
  3 37  1  0  0  0  0
  4  5  1  0  0  0  0
  4  9  1  0  0  0  0
  4 10  1  0  0  0  0
  4 22  1  0  0  0  0
  5  6  2  0  0  0  0
  6  7  1  0  0  0  0
  6 11  1  0  0  0  0
  7  8  1  0  0  0  0
  7 12  2  0  0  0  0
  8 13  2  0  0  0  0
  9 23  1  0  0  0  0
  9 24  1  0  0  0  0
  9 28  1  0  0  0  0
 10 25  1  0  0  0  0
 10 26  1  0  0  0  0
 10 27  1  0  0  0  0
 11 14  1  0  0  0  0
 12 15  1  0  0  0  0
 12 29  1  0  0  0  0
 13 16  1  0  0  0  0
 13 30  1  0  0  0  0
 14 17  2  0  0  0  0
 14 18  1  0  0  0  0
 15 16  2  0  0  0  0
 15 31  1  0  0  0  0
 16 32  1  0  0  0  0
 17 19  1  0  0  0  0
 17 33  1  0  0  0  0
 18 20  2  0  0  0  0
 18 34  1  0  0  0  0
 19 21  2  0  0  0  0
 19 35  1  0  0  0  0
 20 21  1  0  0  0  0
 20 36  1  0  0  0  0
M  END
> <PUBCHEM_COMPOUND_CID>
257426

> <PUBCHEM_COMPOUND_CANONICALIZED>
1

> <PUBCHEM_CACTVS_COMPLEXITY>
371

> <PUBCHEM_CACTVS_HBOND_ACCEPTOR>
3

> <PUBCHEM_CACTVS_HBOND_DONOR>
1

> <PUBCHEM_CACTVS_ROTATABLE_BOND>
3

> <PUBCHEM_CACTVS_SUBSKEYS>
AAADceB4MAAAAAAAAAAAAAAAAAAAASAAAAAwYAAAAAAAAEgB9AAAGgAACAAADQSAmAAyBsAABkCIAqBSAAACCAAkIAAIiAEGCMgMJjaONRqCeWCk4BEIuYeLzPDOoAAAAAAIAABAAAAAABAAAAAAAAAAAA==

> <PUBCHEM_IUPAC_OPENEYE_NAME>
(4-hydroxyphenyl)-(2-isopropylbenzofuran-3-yl)methanone

> <PUBCHEM_IUPAC_CAS_NAME>
(4-hydroxyphenyl)-(2-propan-2-yl-3-benzofuranyl)methanone

> <PUBCHEM_IUPAC_NAME>
(4-hydroxyphenyl)-(2-propan-2-yl-1-benzofuran-3-yl)methanone

> <PUBCHEM_IUPAC_SYSTEMATIC_NAME>
(4-hydroxyphenyl)-(2-propan-2-yl-1-benzofuran-3-yl)methanone

> <PUBCHEM_IUPAC_TRADITIONAL_NAME>
(4-hydroxyphenyl)-(2-isopropylbenzofuran-3-yl)methanone

> <PUBCHEM_IUPAC_INCHI>
InChI=1S/C18H16O3/c1-11(2)18-16(14-5-3-4-6-15(14)21-18)17(20)12-7-9-13(19)10-8-12/h3-11,19H,1-2H3

> <PUBCHEM_IUPAC_INCHIKEY>
XAQBOJLRKOBRFJ-UHFFFAOYSA-N

> <PUBCHEM_XLOGP3_AA>
4.5

> <PUBCHEM_EXACT_MASS>
280.109944

> <PUBCHEM_MOLECULAR_FORMULA>
C18H16O3

> <PUBCHEM_MOLECULAR_WEIGHT>
280.31784

> <PUBCHEM_OPENEYE_CAN_SMILES>
CC(C)C1=C(C2=CC=CC=C2O1)C(=O)C3=CC=C(C=C3)O

> <PUBCHEM_OPENEYE_ISO_SMILES>
CC(C)C1=C(C2=CC=CC=C2O1)C(=O)C3=CC=C(C=C3)O

> <PUBCHEM_CACTVS_TPSA>
50.4

> <PUBCHEM_MONOISOTOPIC_WEIGHT>
280.109944

> <PUBCHEM_TOTAL_CHARGE>
0

> <PUBCHEM_HEAVY_ATOM_COUNT>
21

> <PUBCHEM_ATOM_DEF_STEREO_COUNT>
0

> <PUBCHEM_ATOM_UDEF_STEREO_COUNT>
0

> <PUBCHEM_BOND_DEF_STEREO_COUNT>
0

> <PUBCHEM_BOND_UDEF_STEREO_COUNT>
0

> <PUBCHEM_ISOTOPIC_ATOM_COUNT>
0

> <PUBCHEM_COMPONENT_COUNT>
1

> <PUBCHEM_CACTVS_TAUTO_COUNT>
4

> <PUBCHEM_COORDINATE_TYPE>
1
5
255

> <PUBCHEM_BONDANNOTATIONS>
1  5  8
1  8  8
12  15  8
13  16  8
14  17  8
14  18  8
15  16  8
17  19  8
18  20  8
19  21  8
20  21  8
5  6  8
6  7  8
7  12  8
7  8  8
8  13  8

$$$$

