23736
  -OEChem-07051212493D

 18 17  0     0  0  0  0  0  0999 V2000
    2.0435   -0.2813    0.6232 S   0  3  0  0  0  0  0  0  0  0  0  0
   -3.0266   -0.7386    0.2631 O   0  5  0  0  0  0  0  0  0  0  0  0
   -2.1244    1.1663   -0.6154 O   0  0  0  0  0  0  0  0  0  0  0  0
    0.4832    0.4645    0.0955 C   0  0  0  0  0  0  0  0  0  0  0  0
   -0.6949   -0.4458    0.3997 C   0  0  0  0  0  0  0  0  0  0  0  0
    3.1095    1.0854    0.1084 C   0  0  0  0  0  0  0  0  0  0  0  0
    2.2920   -1.3022   -0.8484 C   0  0  0  0  0  0  0  0  0  0  0  0
   -2.0822    0.0517   -0.0261 C   0  0  0  0  0  0  0  0  0  0  0  0
    0.5231    0.7175   -0.9691 H   0  0  0  0  0  0  0  0  0  0  0  0
    0.3663    1.4030    0.6492 H   0  0  0  0  0  0  0  0  0  0  0  0
   -0.5506   -1.4187   -0.0866 H   0  0  0  0  0  0  0  0  0  0  0  0
   -0.7362   -0.6401    1.4797 H   0  0  0  0  0  0  0  0  0  0  0  0
    2.9663    1.9223    0.7965 H   0  0  0  0  0  0  0  0  0  0  0  0
    2.8776    1.4081   -0.9095 H   0  0  0  0  0  0  0  0  0  0  0  0
    4.1509    0.7579    0.1580 H   0  0  0  0  0  0  0  0  0  0  0  0
    3.3133   -1.6914   -0.8334 H   0  0  0  0  0  0  0  0  0  0  0  0
    2.1402   -0.7290   -1.7662 H   0  0  0  0  0  0  0  0  0  0  0  0
    1.5967   -2.1444   -0.8238 H   0  0  0  0  0  0  0  0  0  0  0  0
  1  4  1  0  0  0  0
  1  6  1  0  0  0  0
  1  7  1  0  0  0  0
  2  8  1  0  0  0  0
  3  8  2  0  0  0  0
  4  5  1  0  0  0  0
  4  9  1  0  0  0  0
  4 10  1  0  0  0  0
  5  8  1  0  0  0  0
  5 11  1  0  0  0  0
  5 12  1  0  0  0  0
  6 13  1  0  0  0  0
  6 14  1  0  0  0  0
  6 15  1  0  0  0  0
  7 16  1  0  0  0  0
  7 17  1  0  0  0  0
  7 18  1  0  0  0  0
M  CHG  2   1   1   2  -1
M  END
> <PUBCHEM_COMPOUND_CID>
23736

> <PUBCHEM_CONFORMER_RMSD>
0.6

> <PUBCHEM_CONFORMER_DIVERSEORDER>
2
1
4
6
5
3

> <PUBCHEM_EFFECTIVE_ROTOR_COUNT>
3

> <PUBCHEM_PHARMACOPHORE_FEATURES>
3
1 2 acceptor
1 3 acceptor
3 2 3 8 anion

> <PUBCHEM_HEAVY_ATOM_COUNT>
8

> <PUBCHEM_ATOM_DEF_STEREO_COUNT>
0

> <PUBCHEM_ATOM_UDEF_STEREO_COUNT>
0

> <PUBCHEM_BOND_DEF_STEREO_COUNT>
0

> <PUBCHEM_BOND_UDEF_STEREO_COUNT>
0

> <PUBCHEM_ISOTOPIC_ATOM_COUNT>
0

> <PUBCHEM_COMPONENT_COUNT>
1

> <PUBCHEM_CACTVS_TAUTO_COUNT>
1

> <PUBCHEM_CONFORMER_ID>
00005CB800000002

> <PUBCHEM_MMFF94_ENERGY>
9.5566

> <PUBCHEM_FEATURE_SELFOVERLAP>
15.278

> <PUBCHEM_SHAPE_FINGERPRINT>
12897270 3 18259983769189893944
12932741 1 18411699928081865366
12932764 1 17988639756683230019
14325111 11 18341898497470535872
14390081 3 18131073744272681176
15310529 11 18113620088108555781
170605 34 18342177718190835360
19973954 147 18337390542899684704
20651381 32 18041002898486677660
20653085 51 18267016344240110121
23552423 10 18338232790239024266
29004967 10 18040720276822277394
3248919 1 18187373167673197768
5460574 1 7997975682137220672

> <PUBCHEM_SHAPE_MULTIPOLES>
156.75
5.1
1.23
0.82
0.89
0.05
-0.02
-0.25
-0.2
-0.6
-0.24
-0.19
0.08
0.51

> <PUBCHEM_SHAPE_SELFOVERLAP>
268.742

> <PUBCHEM_SHAPE_VOLUME>
106.2

> <PUBCHEM_COORDINATE_TYPE>
2
5
10

$$$$

