46173823
  -OEChem-07051213093D

 90 93  0     1  0  0  0  0  0999 V2000
   -2.5310    0.6347   -2.4467 Br  0  0  0  0  0  0  0  0  0  0  0  0
    1.0727    2.3864    0.7332 O   0  0  0  0  0  0  0  0  0  0  0  0
    1.4616    0.7190   -0.8681 O   0  0  0  0  0  0  0  0  0  0  0  0
    2.7476   -0.7389    1.2305 O   0  0  0  0  0  0  0  0  0  0  0  0
    3.3521   -0.4828   -1.7096 O   0  0  0  0  0  0  0  0  0  0  0  0
    1.7586   -2.4801   -0.7923 O   0  0  0  0  0  0  0  0  0  0  0  0
   -0.4680   -1.9031   -0.9723 O   0  0  0  0  0  0  0  0  0  0  0  0
    4.1340   -1.7719    2.7536 O   0  0  0  0  0  0  0  0  0  0  0  0
   -4.7061    2.0998    1.1749 O   0  0  0  0  0  0  0  0  0  0  0  0
    0.9046   -5.2176    1.4722 O   0  0  0  0  0  0  0  0  0  0  0  0
   -6.8056   -2.2939    0.6701 O   0  0  0  0  0  0  0  0  0  0  0  0
    2.0228    1.8755   -0.2336 C   0  0  1  0  0  0  0  0  0  0  0  0
    2.1975    3.0149   -1.3043 C   0  0  0  0  0  0  0  0  0  0  0  0
    3.3102    1.5396    0.5614 C   0  0  0  0  0  0  0  0  0  0  0  0
    2.9569    2.4777   -2.5389 C   0  0  0  0  0  0  0  0  0  0  0  0
    2.2950    1.2193   -3.1226 C   0  0  2  0  0  0  0  0  0  0  0  0
    0.6983    1.4588    1.7599 C   0  0  1  0  0  0  0  0  0  0  0  0
    1.9242    1.1171    2.6262 C   0  0  2  0  0  0  0  0  0  0  0  0
    3.0662    0.5774    1.7389 C   0  0  1  0  0  0  0  0  0  0  0  0
    2.1095    0.1529   -2.0177 C   0  0  2  0  0  0  0  0  0  0  0  0
    0.8034    3.5346   -1.7555 C   0  0  0  0  0  0  0  0  0  0  0  0
    2.9601    4.2389   -0.7539 C   0  0  0  0  0  0  0  0  0  0  0  0
   -0.4199    2.1324    2.5508 C   0  0  2  0  0  0  0  0  0  0  0  0
    1.1648   -0.9727   -2.5003 C   0  0  0  0  0  0  0  0  0  0  0  0
    3.0876    0.7256   -4.3377 C   0  0  0  0  0  0  0  0  0  0  0  0
    1.5824    0.1587    3.7680 C   0  0  0  0  0  0  0  0  0  0  0  0
   -1.6268    2.4035    1.6294 C   0  0  0  0  0  0  0  0  0  0  0  0
    0.1072    3.4098    3.2100 C   0  0  0  0  0  0  0  0  0  0  0  0
   -2.4895    1.1635    1.3670 C   0  0  0  0  0  0  0  0  0  0  0  0
    0.6946   -1.8402   -1.3488 C   0  0  0  0  0  0  0  0  0  0  0  0
    3.3301   -1.8166    1.8277 C   0  0  0  0  0  0  0  0  0  0  0  0
    2.9275   -3.1315    1.1866 C   0  0  0  0  0  0  0  0  0  0  0  0
   -3.6774    1.4433    0.4313 C   0  0  1  0  0  0  0  0  0  0  0  0
    1.5685   -3.1327    0.4796 C   0  0  2  0  0  0  0  0  0  0  0  0
    1.0892   -4.5576    0.2246 C   0  0  1  0  0  0  0  0  0  0  0  0
   -4.2761    0.2045   -0.1932 C   0  0  0  0  0  0  0  0  0  0  0  0
    2.0800   -5.3436   -0.6187 C   0  0  0  0  0  0  0  0  0  0  0  0
   -5.2630   -0.4787    0.5172 C   0  0  0  0  0  0  0  0  0  0  0  0
   -3.8688   -0.2603   -1.4437 C   0  0  0  0  0  0  0  0  0  0  0  0
   -5.5486    2.8610    0.3249 C   0  0  0  0  0  0  0  0  0  0  0  0
   -5.8426   -1.6269   -0.0228 C   0  0  0  0  0  0  0  0  0  0  0  0
   -4.4485   -1.4082   -1.9839 C   0  0  0  0  0  0  0  0  0  0  0  0
   -5.4354   -2.0915   -1.2734 C   0  0  0  0  0  0  0  0  0  0  0  0
    4.0797    1.1220   -0.0924 H   0  0  0  0  0  0  0  0  0  0  0  0
    3.7185    2.4567    1.0015 H   0  0  0  0  0  0  0  0  0  0  0  0
    3.9945    2.2476   -2.2633 H   0  0  0  0  0  0  0  0  0  0  0  0
    3.0129    3.2547   -3.3129 H   0  0  0  0  0  0  0  0  0  0  0  0
    1.3033    1.5135   -3.4889 H   0  0  0  0  0  0  0  0  0  0  0  0
    0.3127    0.5432    1.2970 H   0  0  0  0  0  0  0  0  0  0  0  0
    2.3292    2.0373    3.0648 H   0  0  0  0  0  0  0  0  0  0  0  0
    3.9921    0.5361    2.3263 H   0  0  0  0  0  0  0  0  0  0  0  0
    4.0110    4.0070   -0.5521 H   0  0  0  0  0  0  0  0  0  0  0  0
    2.9528    5.0630   -1.4772 H   0  0  0  0  0  0  0  0  0  0  0  0
    2.5081    4.6093    0.1726 H   0  0  0  0  0  0  0  0  0  0  0  0
    0.8920    4.1965   -2.6247 H   0  0  0  0  0  0  0  0  0  0  0  0
    0.1250    2.7198   -2.0245 H   0  0  0  0  0  0  0  0  0  0  0  0
    0.3161    4.1122   -0.9617 H   0  0  0  0  0  0  0  0  0  0  0  0
   -0.7671    1.4708    3.3531 H   0  0  0  0  0  0  0  0  0  0  0  0
    0.2681   -0.5477   -2.9620 H   0  0  0  0  0  0  0  0  0  0  0  0
    1.6395   -1.6256   -3.2415 H   0  0  0  0  0  0  0  0  0  0  0  0
    2.5996   -0.1335   -4.8075 H   0  0  0  0  0  0  0  0  0  0  0  0
    3.1614    1.5145   -5.0942 H   0  0  0  0  0  0  0  0  0  0  0  0
    4.1059    0.4322   -4.0624 H   0  0  0  0  0  0  0  0  0  0  0  0
    2.4894   -0.1549    4.2953 H   0  0  0  0  0  0  0  0  0  0  0  0
    0.9376    0.6363    4.5116 H   0  0  0  0  0  0  0  0  0  0  0  0
    1.0698   -0.7373    3.4032 H   0  0  0  0  0  0  0  0  0  0  0  0
   -1.3116    2.8488    0.6791 H   0  0  0  0  0  0  0  0  0  0  0  0
   -2.2706    3.1526    2.1089 H   0  0  0  0  0  0  0  0  0  0  0  0
   -0.7177    3.9515    3.6873 H   0  0  0  0  0  0  0  0  0  0  0  0
    0.8288    3.2007    4.0044 H   0  0  0  0  0  0  0  0  0  0  0  0
    0.5657    4.0945    2.4894 H   0  0  0  0  0  0  0  0  0  0  0  0
    3.1913   -1.3833   -1.3876 H   0  0  0  0  0  0  0  0  0  0  0  0
   -1.8604    0.3849    0.9210 H   0  0  0  0  0  0  0  0  0  0  0  0
   -2.8559    0.7715    2.3244 H   0  0  0  0  0  0  0  0  0  0  0  0
    2.9293   -3.8660    2.0001 H   0  0  0  0  0  0  0  0  0  0  0  0
    3.7332   -3.3768    0.4844 H   0  0  0  0  0  0  0  0  0  0  0  0
   -3.3406    2.1429   -0.3410 H   0  0  0  0  0  0  0  0  0  0  0  0
    0.8395   -2.5865    1.0926 H   0  0  0  0  0  0  0  0  0  0  0  0
    0.1242   -4.5365   -0.2942 H   0  0  0  0  0  0  0  0  0  0  0  0
    2.3014   -4.8513   -1.5701 H   0  0  0  0  0  0  0  0  0  0  0  0
    3.0170   -5.5326   -0.0847 H   0  0  0  0  0  0  0  0  0  0  0  0
    1.6665   -6.3334   -0.8456 H   0  0  0  0  0  0  0  0  0  0  0  0
   -5.5802   -0.1430    1.5014 H   0  0  0  0  0  0  0  0  0  0  0  0
    0.5901   -6.1184    1.2845 H   0  0  0  0  0  0  0  0  0  0  0  0
   -6.3274    3.3177    0.9424 H   0  0  0  0  0  0  0  0  0  0  0  0
   -6.0383    2.2423   -0.4328 H   0  0  0  0  0  0  0  0  0  0  0  0
   -4.9845    3.6667   -0.1560 H   0  0  0  0  0  0  0  0  0  0  0  0
   -4.1437   -1.7856   -2.9567 H   0  0  0  0  0  0  0  0  0  0  0  0
   -5.8832   -2.9853   -1.6992 H   0  0  0  0  0  0  0  0  0  0  0  0
   -6.9650   -1.8344    1.5124 H   0  0  0  0  0  0  0  0  0  0  0  0
  1 39  1  0  0  0  0
  2 12  1  0  0  0  0
  2 17  1  0  0  0  0
  3 12  1  0  0  0  0
  3 20  1  0  0  0  0
  4 19  1  0  0  0  0
  4 31  1  0  0  0  0
  5 20  1  0  0  0  0
  5 72  1  0  0  0  0
  6 30  1  0  0  0  0
  6 34  1  0  0  0  0
  7 30  2  0  0  0  0
  8 31  2  0  0  0  0
  9 33  1  0  0  0  0
  9 40  1  0  0  0  0
 10 35  1  0  0  0  0
 10 84  1  0  0  0  0
 11 41  1  0  0  0  0
 11 90  1  0  0  0  0
 12 13  1  0  0  0  0
 12 14  1  0  0  0  0
 13 15  1  0  0  0  0
 13 21  1  0  0  0  0
 13 22  1  0  0  0  0
 14 19  1  0  0  0  0
 14 44  1  0  0  0  0
 14 45  1  0  0  0  0
 15 16  1  0  0  0  0
 15 46  1  0  0  0  0
 15 47  1  0  0  0  0
 16 20  1  0  0  0  0
 16 25  1  0  0  0  0
 16 48  1  0  0  0  0
 17 18  1  0  0  0  0
 17 23  1  0  0  0  0
 17 49  1  0  0  0  0
 18 19  1  0  0  0  0
 18 26  1  0  0  0  0
 18 50  1  0  0  0  0
 19 51  1  0  0  0  0
 20 24  1  0  0  0  0
 21 55  1  0  0  0  0
 21 56  1  0  0  0  0
 21 57  1  0  0  0  0
 22 52  1  0  0  0  0
 22 53  1  0  0  0  0
 22 54  1  0  0  0  0
 23 27  1  0  0  0  0
 23 28  1  0  0  0  0
 23 58  1  0  0  0  0
 24 30  1  0  0  0  0
 24 59  1  0  0  0  0
 24 60  1  0  0  0  0
 25 61  1  0  0  0  0
 25 62  1  0  0  0  0
 25 63  1  0  0  0  0
 26 64  1  0  0  0  0
 26 65  1  0  0  0  0
 26 66  1  0  0  0  0
 27 29  1  0  0  0  0
 27 67  1  0  0  0  0
 27 68  1  0  0  0  0
 28 69  1  0  0  0  0
 28 70  1  0  0  0  0
 28 71  1  0  0  0  0
 29 33  1  0  0  0  0
 29 73  1  0  0  0  0
 29 74  1  0  0  0  0
 31 32  1  0  0  0  0
 32 34  1  0  0  0  0
 32 75  1  0  0  0  0
 32 76  1  0  0  0  0
 33 36  1  0  0  0  0
 33 77  1  0  0  0  0
 34 35  1  0  0  0  0
 34 78  1  0  0  0  0
 35 37  1  0  0  0  0
 35 79  1  0  0  0  0
 36 38  1  0  0  0  0
 36 39  2  0  0  0  0
 37 80  1  0  0  0  0
 37 81  1  0  0  0  0
 37 82  1  0  0  0  0
 38 41  2  0  0  0  0
 38 83  1  0  0  0  0
 39 42  1  0  0  0  0
 40 85  1  0  0  0  0
 40 86  1  0  0  0  0
 40 87  1  0  0  0  0
 41 43  1  0  0  0  0
 42 43  2  0  0  0  0
 42 88  1  0  0  0  0
 43 89  1  0  0  0  0
M  END
> <PUBCHEM_COMPOUND_CID>
46173823

> <PUBCHEM_CONFORMER_RMSD>
1.2

> <PUBCHEM_CONFORMER_DIVERSEORDER>
1
67
50
64
69
28
61
20
60
13
71
68
31
63
70
22
11
33
74
5
66
65
44
56
39
72
34
40
57
24
53
52
15
77
41
36
75
29
76
48
38
54
3
18
21
59
17
10
58
45
55
8
9
27
49
42
30
47
62
43
4
51
37
25
35
46
32
12
23
19
16
7
73
2
14
6
26

> <PUBCHEM_MMFF94_PARTIAL_CHARGES>
35
1 -0.11
10 -0.68
11 -0.53
12 0.56
17 0.28
19 0.28
2 -0.56
20 0.56
24 0.06
3 -0.56
30 0.66
31 0.66
32 0.06
33 0.42
34 0.28
35 0.28
36 -0.14
38 -0.15
39 0.11
4 -0.43
40 0.28
41 0.08
42 -0.15
43 -0.15
5 -0.68
6 -0.43
7 -0.57
72 0.4
8 -0.57
83 0.15
84 0.4
88 0.15
89 0.15
9 -0.56
90 0.45

> <PUBCHEM_EFFECTIVE_ROTOR_COUNT>
9.6

> <PUBCHEM_PHARMACOPHORE_FEATURES>
16
1 1 hydrophobe
1 10 acceptor
1 10 donor
1 11 donor
1 2 acceptor
1 28 hydrophobe
1 3 acceptor
1 5 acceptor
1 5 donor
1 7 acceptor
1 8 acceptor
1 9 acceptor
3 13 21 22 hydrophobe
6 2 12 14 17 18 19 rings
6 3 12 13 15 16 20 rings
6 36 38 39 41 42 43 rings

> <PUBCHEM_HEAVY_ATOM_COUNT>
43

> <PUBCHEM_ATOM_DEF_STEREO_COUNT>
9

> <PUBCHEM_ATOM_UDEF_STEREO_COUNT>
1

> <PUBCHEM_BOND_DEF_STEREO_COUNT>
0

> <PUBCHEM_BOND_UDEF_STEREO_COUNT>
0

> <PUBCHEM_ISOTOPIC_ATOM_COUNT>
0

> <PUBCHEM_COMPONENT_COUNT>
1

> <PUBCHEM_CACTVS_TAUTO_COUNT>
3

> <PUBCHEM_CONFORMER_ID>
02C08E7F00000001

> <PUBCHEM_MMFF94_ENERGY>
130.5277

> <PUBCHEM_FEATURE_SELFOVERLAP>
81.267

> <PUBCHEM_SHAPE_FINGERPRINT>
10928967 22 18114740435424661571
12156800 1 17315905835694013918
12422481 6 16154291505857904802
13165054 342 17549271328305728729
14674994 50 17042047334230517783
15264996 154 18408880737715318215
16114785 44 15761863419409140260
19319366 153 18263642866731111927
20764821 26 18120949312946562027
24941158 1 16988840579256332176
35225 105 17693101764266069379
404807 78 17411327725400211491
460360 51 18260552255904753517
469060 322 17839473516176421874
5080951 261 16046191087749470042
5081480 168 16271641308111807165
513532 50 16271939172482869291
563151 248 17485665758130430340
5776283 40 17028520652555291905
6823239 73 16805874182415570293
86090 222 17901382291425185107

> <PUBCHEM_SHAPE_MULTIPOLES>
832.17
10.21
5.98
3.97
21.56
5.66
-0.62
2.05
-0.64
-3.76
1.23
-4
-1.91
-2.9

> <PUBCHEM_SHAPE_SELFOVERLAP>
1727.353

> <PUBCHEM_SHAPE_VOLUME>
482.1

> <PUBCHEM_COORDINATE_TYPE>
2
5
10

$$$$

