197001
  -OEChem-07051213153D

 46 50  0     1  0  0  0  0  0999 V2000
   -0.1094   -2.7834    0.2196 O   0  0  0  0  0  0  0  0  0  0  0  0
   -2.7409   -3.3086    0.1774 O   0  0  0  0  0  0  0  0  0  0  0  0
    4.9778    0.9073    0.0249 O   0  0  0  0  0  0  0  0  0  0  0  0
    4.3566   -1.3320   -0.6082 O   0  0  0  0  0  0  0  0  0  0  0  0
   -2.0666    3.0778    0.1899 N   0  0  2  0  0  0  0  0  0  0  0  0
   -1.0069    2.1036   -0.1811 C   0  0  2  0  0  0  0  0  0  0  0  0
   -1.4644    0.6462   -0.0587 C   0  0  0  0  0  0  0  0  0  0  0  0
    0.2640    2.2976    0.6763 C   0  0  0  0  0  0  0  0  0  0  0  0
   -2.8387    0.3360   -0.0491 C   0  0  0  0  0  0  0  0  0  0  0  0
   -0.4946   -0.3878   -0.0190 C   0  0  0  0  0  0  0  0  0  0  0  0
   -3.3101    2.7636   -0.5314 C   0  0  0  0  0  0  0  0  0  0  0  0
   -3.8713    1.4284   -0.0518 C   0  0  0  0  0  0  0  0  0  0  0  0
    1.3316    1.2868    0.3177 C   0  0  0  0  0  0  0  0  0  0  0  0
    0.9457   -0.0400   -0.0261 C   0  0  0  0  0  0  0  0  0  0  0  0
   -0.9493   -1.7168    0.0598 C   0  0  0  0  0  0  0  0  0  0  0  0
   -3.2521   -0.9971    0.0314 C   0  0  0  0  0  0  0  0  0  0  0  0
   -1.6785    4.4607   -0.1078 C   0  0  0  0  0  0  0  0  0  0  0  0
    2.6848    1.6636    0.3675 C   0  0  0  0  0  0  0  0  0  0  0  0
   -2.3115   -2.0180    0.0827 C   0  0  0  0  0  0  0  0  0  0  0  0
    1.9554   -0.9634   -0.3610 C   0  0  0  0  0  0  0  0  0  0  0  0
    3.6308    0.7188    0.0411 C   0  0  0  0  0  0  0  0  0  0  0  0
    3.2758   -0.5569   -0.3172 C   0  0  0  0  0  0  0  0  0  0  0  0
    5.4324   -0.3971   -0.3887 C   0  0  0  0  0  0  0  0  0  0  0  0
    0.1847   -3.1759    1.5566 C   0  0  0  0  0  0  0  0  0  0  0  0
   -2.9453   -4.0136   -1.0447 C   0  0  0  0  0  0  0  0  0  0  0  0
   -0.7457    2.2494   -1.2409 H   0  0  0  0  0  0  0  0  0  0  0  0
    0.0356    2.1930    1.7453 H   0  0  0  0  0  0  0  0  0  0  0  0
    0.6758    3.3007    0.5215 H   0  0  0  0  0  0  0  0  0  0  0  0
   -3.1371    2.7397   -1.6160 H   0  0  0  0  0  0  0  0  0  0  0  0
   -4.0713    3.5312   -0.3433 H   0  0  0  0  0  0  0  0  0  0  0  0
   -4.7110    1.1467   -0.6986 H   0  0  0  0  0  0  0  0  0  0  0  0
   -4.2586    1.5367    0.9694 H   0  0  0  0  0  0  0  0  0  0  0  0
   -4.3125   -1.2367    0.0623 H   0  0  0  0  0  0  0  0  0  0  0  0
   -2.5037    5.1483    0.1121 H   0  0  0  0  0  0  0  0  0  0  0  0
   -1.3950    4.5938   -1.1579 H   0  0  0  0  0  0  0  0  0  0  0  0
   -0.8500    4.7899    0.5258 H   0  0  0  0  0  0  0  0  0  0  0  0
    2.9789    2.6695    0.6484 H   0  0  0  0  0  0  0  0  0  0  0  0
    1.7569   -1.9687   -0.7092 H   0  0  0  0  0  0  0  0  0  0  0  0
    6.0952   -0.8000    0.3858 H   0  0  0  0  0  0  0  0  0  0  0  0
    6.0016   -0.2919   -1.3195 H   0  0  0  0  0  0  0  0  0  0  0  0
   -0.6969   -3.6180    2.0306 H   0  0  0  0  0  0  0  0  0  0  0  0
    0.5388   -2.3265    2.1497 H   0  0  0  0  0  0  0  0  0  0  0  0
    0.9755   -3.9306    1.5248 H   0  0  0  0  0  0  0  0  0  0  0  0
   -3.2759   -5.0278   -0.8041 H   0  0  0  0  0  0  0  0  0  0  0  0
   -2.0133   -4.0756   -1.6152 H   0  0  0  0  0  0  0  0  0  0  0  0
   -3.7208   -3.5255   -1.6437 H   0  0  0  0  0  0  0  0  0  0  0  0
  1 15  1  0  0  0  0
  1 24  1  0  0  0  0
  2 19  1  0  0  0  0
  2 25  1  0  0  0  0
  3 21  1  0  0  0  0
  3 23  1  0  0  0  0
  4 22  1  0  0  0  0
  4 23  1  0  0  0  0
  5  6  1  0  0  0  0
  5 11  1  0  0  0  0
  5 17  1  0  0  0  0
  6  7  1  0  0  0  0
  6  8  1  0  0  0  0
  6 26  1  0  0  0  0
  7  9  1  0  0  0  0
  7 10  2  0  0  0  0
  8 13  1  0  0  0  0
  8 27  1  0  0  0  0
  8 28  1  0  0  0  0
  9 12  1  0  0  0  0
  9 16  2  0  0  0  0
 10 14  1  0  0  0  0
 10 15  1  0  0  0  0
 11 12  1  0  0  0  0
 11 29  1  0  0  0  0
 11 30  1  0  0  0  0
 12 31  1  0  0  0  0
 12 32  1  0  0  0  0
 13 14  1  0  0  0  0
 13 18  2  0  0  0  0
 14 20  2  0  0  0  0
 15 19  2  0  0  0  0
 16 19  1  0  0  0  0
 16 33  1  0  0  0  0
 17 34  1  0  0  0  0
 17 35  1  0  0  0  0
 17 36  1  0  0  0  0
 18 21  1  0  0  0  0
 18 37  1  0  0  0  0
 20 22  1  0  0  0  0
 20 38  1  0  0  0  0
 21 22  2  0  0  0  0
 23 39  1  0  0  0  0
 23 40  1  0  0  0  0
 24 41  1  0  0  0  0
 24 42  1  0  0  0  0
 24 43  1  0  0  0  0
 25 44  1  0  0  0  0
 25 45  1  0  0  0  0
 25 46  1  0  0  0  0
M  END
> <PUBCHEM_COMPOUND_CID>
197001

> <PUBCHEM_CONFORMER_RMSD>
0.6

> <PUBCHEM_CONFORMER_DIVERSEORDER>
1
3
2

> <PUBCHEM_MMFF94_PARTIAL_CHARGES>
26
1 -0.36
11 0.27
12 0.14
13 -0.14
15 0.08
16 -0.15
17 0.27
18 -0.15
19 0.08
2 -0.36
20 -0.15
21 0.08
22 0.08
23 0.56
24 0.28
25 0.28
3 -0.36
33 0.15
37 0.15
38 0.15
4 -0.36
5 -0.81
6 0.41
7 -0.14
8 0.14
9 -0.14

> <PUBCHEM_EFFECTIVE_ROTOR_COUNT>
3.4

> <PUBCHEM_PHARMACOPHORE_FEATURES>
10
1 1 acceptor
1 2 acceptor
1 3 acceptor
1 4 acceptor
1 5 cation
5 3 4 21 22 23 rings
6 13 14 18 20 21 22 rings
6 5 6 7 9 11 12 rings
6 6 7 8 10 13 14 rings
6 7 9 10 15 16 19 rings

> <PUBCHEM_HEAVY_ATOM_COUNT>
25

> <PUBCHEM_ATOM_DEF_STEREO_COUNT>
1

> <PUBCHEM_ATOM_UDEF_STEREO_COUNT>
0

> <PUBCHEM_BOND_DEF_STEREO_COUNT>
0

> <PUBCHEM_BOND_UDEF_STEREO_COUNT>
0

> <PUBCHEM_ISOTOPIC_ATOM_COUNT>
0

> <PUBCHEM_COMPONENT_COUNT>
1

> <PUBCHEM_CACTVS_TAUTO_COUNT>
1

> <PUBCHEM_CONFORMER_ID>
0003018900000001

> <PUBCHEM_MMFF94_ENERGY>
98.4856

> <PUBCHEM_FEATURE_SELFOVERLAP>
50.993

> <PUBCHEM_SHAPE_FINGERPRINT>
10006869 2 18270683190413772787
10319926 262 18263667142555643056
10411042 1 18122343471698728559
10616163 171 18409445873742893022
10693767 8 17826816754187626519
10967382 1 18194683889395875417
1100329 8 18267863892101803681
11578080 2 16517397399515726747
12173636 292 18267588090012513605
12403259 226 18117562829421015730
12553582 1 17836356047759019259
12788726 201 18342461426038889386
13140716 1 18339634539073992761
13690498 29 18263904589321968558
138480 1 16609134460905707829
140371 6 17691973656951622057
14363568 33 17116890541156965552
14508225 48 18120104888026427647
14790565 3 18192703664755002329
14955137 171 18126832821309841955
15042514 8 18411694357947203771
15196674 1 18409165494146184588
16087824 20 18410575094635096253
16752209 62 18412552032624519280
16945 1 18339652251445287697
19591789 44 18194680607977408353
20510252 161 18408321098748372864
20775438 99 16961871574195273231
21267235 1 18338789022774047182
21478907 32 18265336105947620967
2334 1 18195248815250283881
23402539 116 18409454686968123404
23419403 2 17314523542770571273
23558518 356 18342735204819132008
23559900 14 18262236729230292134
238 59 16619021205254939277
2748010 2 18265062323230749273
3091708 16 9345801007593613841
335352 9 18337670918375161588
350125 39 18411692171587570321
394222 165 17769936010524288242
5104073 3 18334858290854415834
81228 2 18196935470071166497
8809292 202 18411133606916694298
9709674 26 18261388979557578022
9981440 41 18124597749945524809

> <PUBCHEM_SHAPE_MULTIPOLES>
486.03
7.91
4.95
0.82
9.64
0.36
-0.11
-0.11
1.52
-5.9
-0.04
-0.01
0.44
0.04

> <PUBCHEM_SHAPE_SELFOVERLAP>
1088.913

> <PUBCHEM_SHAPE_VOLUME>
257.7

> <PUBCHEM_COORDINATE_TYPE>
2
5
10

$$$$

