69776
  -OEChem-07051213053D

 32 33  0     0  0  0  0  0  0999 V2000
    6.6610    1.0791    0.2288 O   0  5  0  0  0  0  0  0  0  0  0  0
   -6.6534    1.0790   -0.2699 O   0  5  0  0  0  0  0  0  0  0  0  0
    6.6477   -1.1160    0.2206 O   0  0  0  0  0  0  0  0  0  0  0  0
   -6.6400   -1.1162   -0.2605 O   0  0  0  0  0  0  0  0  0  0  0  0
    6.0517   -0.0144    0.1422 N   0  3  0  0  0  0  0  0  0  0  0  0
   -6.0453   -0.0146   -0.1737 N   0  3  0  0  0  0  0  0  0  0  0  0
    0.4034    0.0247   -0.6284 C   0  0  0  0  0  0  0  0  0  0  0  0
   -0.4092    0.0250    0.6816 C   0  0  0  0  0  0  0  0  0  0  0  0
    1.8810    0.0139   -0.4271 C   0  0  0  0  0  0  0  0  0  0  0  0
   -1.9014    0.0141    0.4555 C   0  0  0  0  0  0  0  0  0  0  0  0
    2.5796    1.2171   -0.3280 C   0  0  0  0  0  0  0  0  0  0  0  0
   -2.5807    1.2173    0.3480 C   0  0  0  0  0  0  0  0  0  0  0  0
    2.5644   -1.1988   -0.3376 C   0  0  0  0  0  0  0  0  0  0  0  0
   -2.5656   -1.1986    0.3590 C   0  0  0  0  0  0  0  0  0  0  0  0
    3.9616    1.2075   -0.1395 C   0  0  0  0  0  0  0  0  0  0  0  0
   -3.9598    1.2076    0.1387 C   0  0  0  0  0  0  0  0  0  0  0  0
    3.9464   -1.2083   -0.1489 C   0  0  0  0  0  0  0  0  0  0  0  0
   -3.9447   -1.2082    0.1495 C   0  0  0  0  0  0  0  0  0  0  0  0
    4.6451   -0.0051   -0.0498 C   0  0  0  0  0  0  0  0  0  0  0  0
   -4.6417   -0.0051    0.0394 C   0  0  0  0  0  0  0  0  0  0  0  0
    0.1145   -0.8414   -1.2395 H   0  0  0  0  0  0  0  0  0  0  0  0
    0.1245    0.8983   -1.2335 H   0  0  0  0  0  0  0  0  0  0  0  0
   -0.1292   -0.8429    1.2941 H   0  0  0  0  0  0  0  0  0  0  0  0
   -0.1392    0.9007    1.2873 H   0  0  0  0  0  0  0  0  0  0  0  0
    2.0578    2.1683   -0.3940 H   0  0  0  0  0  0  0  0  0  0  0  0
   -2.0574    2.1664    0.4218 H   0  0  0  0  0  0  0  0  0  0  0  0
    2.0307   -2.1428   -0.4111 H   0  0  0  0  0  0  0  0  0  0  0  0
   -2.0303   -2.1402    0.4414 H   0  0  0  0  0  0  0  0  0  0  0  0
    4.4728    2.1641   -0.0662 H   0  0  0  0  0  0  0  0  0  0  0  0
   -4.4698    2.1641    0.0574 H   0  0  0  0  0  0  0  0  0  0  0  0
    4.4455   -2.1717   -0.0831 H   0  0  0  0  0  0  0  0  0  0  0  0
   -4.4426   -2.1717    0.0768 H   0  0  0  0  0  0  0  0  0  0  0  0
  1  5  1  0  0  0  0
  2  6  1  0  0  0  0
  3  5  2  0  0  0  0
  4  6  2  0  0  0  0
  5 19  1  0  0  0  0
  6 20  1  0  0  0  0
  7  8  1  0  0  0  0
  7  9  1  0  0  0  0
  7 21  1  0  0  0  0
  7 22  1  0  0  0  0
  8 10  1  0  0  0  0
  8 23  1  0  0  0  0
  8 24  1  0  0  0  0
  9 11  2  0  0  0  0
  9 13  1  0  0  0  0
 10 12  2  0  0  0  0
 10 14  1  0  0  0  0
 11 15  1  0  0  0  0
 11 25  1  0  0  0  0
 12 16  1  0  0  0  0
 12 26  1  0  0  0  0
 13 17  2  0  0  0  0
 13 27  1  0  0  0  0
 14 18  2  0  0  0  0
 14 28  1  0  0  0  0
 15 19  2  0  0  0  0
 15 29  1  0  0  0  0
 16 20  2  0  0  0  0
 16 30  1  0  0  0  0
 17 19  1  0  0  0  0
 17 31  1  0  0  0  0
 18 20  1  0  0  0  0
 18 32  1  0  0  0  0
M  CHG  4   1  -1   2  -1   5   1   6   1
M  END
> <PUBCHEM_COMPOUND_CID>
69776

> <PUBCHEM_CONFORMER_RMSD>
0.8

> <PUBCHEM_CONFORMER_DIVERSEORDER>
1
3
2

> <PUBCHEM_MMFF94_PARTIAL_CHARGES>
28
1 -0.52
10 -0.14
11 -0.15
12 -0.15
13 -0.15
14 -0.15
15 -0.15
16 -0.15
17 -0.15
18 -0.15
19 0.13
2 -0.52
20 0.13
25 0.15
26 0.15
27 0.15
28 0.15
29 0.15
3 -0.52
30 0.15
31 0.15
32 0.15
4 -0.52
5 0.91
6 0.91
7 0.14
8 0.14
9 -0.14

> <PUBCHEM_EFFECTIVE_ROTOR_COUNT>
5

> <PUBCHEM_PHARMACOPHORE_FEATURES>
8
1 1 acceptor
1 1 anion
1 2 acceptor
1 2 anion
1 3 acceptor
1 4 acceptor
6 10 12 14 16 18 20 rings
6 9 11 13 15 17 19 rings

> <PUBCHEM_HEAVY_ATOM_COUNT>
20

> <PUBCHEM_ATOM_DEF_STEREO_COUNT>
0

> <PUBCHEM_ATOM_UDEF_STEREO_COUNT>
0

> <PUBCHEM_BOND_DEF_STEREO_COUNT>
0

> <PUBCHEM_BOND_UDEF_STEREO_COUNT>
0

> <PUBCHEM_ISOTOPIC_ATOM_COUNT>
0

> <PUBCHEM_COMPONENT_COUNT>
1

> <PUBCHEM_CACTVS_TAUTO_COUNT>
1

> <PUBCHEM_CONFORMER_ID>
0001109000000001

> <PUBCHEM_MMFF94_ENERGY>
60.0269

> <PUBCHEM_FEATURE_SELFOVERLAP>
40.758

> <PUBCHEM_SHAPE_FINGERPRINT>
10 15 18261683584829671912
10595046 47 18408321094774892321
10968037 39 18334294262837854591
11315181 36 18186516597140126801
11719270 70 18260551147545293678
12091667 2 18343018892152360651
12166972 35 18411698768525909912
12236239 1 18409730664038606666
12516196 113 17967250896853514088
12730499 353 7637402934837657484
13533116 47 17203057377851021202
1420 363 5473140738817260924
14251764 18 18343864407402974460
14251764 46 18410857663446410634
17834076 25 18410855460128168294
19489759 90 18411981369057611753
200 152 18040715879028921745
20281389 69 18131634491024229676
20645477 70 18261669380418379494
21267235 1 18410566288570095691
22224240 67 18411142416427576330
23402539 116 18410577275787412213
23536379 177 18412826897678170835
23559900 14 18337677412423858841
26918003 58 18411416198231591002
29717793 49 18335414677939533302
300161 21 18412266137847015883
3004659 81 18343865515499437592
347723 3 15770058332446152648
34797466 226 17240757359830745532
351380 180 18411417302011825169
3545911 37 18410854364916802060
4073 2 17988918925800976146
4214541 1 18411697703426150833
4325135 7 18186240628179425821
5104073 3 18339071708957689099
542803 24 16774075163436180158
7495541 125 17676207922881875913
9971528 1 17704069569374152836

> <PUBCHEM_SHAPE_MULTIPOLES>
378.15
18.09
1.41
0.7
0.13
0
-0.01
0.15
0.2
0
0
-0.02
0
0

> <PUBCHEM_SHAPE_SELFOVERLAP>
809.447

> <PUBCHEM_SHAPE_VOLUME>
209.8

> <PUBCHEM_COORDINATE_TYPE>
2
5
10

$$$$

