12644579
  -OEChem-07051213113D

 27 27  0     0  0  0  0  0  0999 V2000
    2.8856    0.1860   -0.0220 O   0  0  0  0  0  0  0  0  0  0  0  0
   -2.5692   -0.6020    0.1528 O   0  0  0  0  0  0  0  0  0  0  0  0
   -1.5128    1.9581    0.3898 O   0  0  0  0  0  0  0  0  0  0  0  0
    1.0091   -1.3037   -0.0984 C   0  0  0  0  0  0  0  0  0  0  0  0
    1.5393   -0.0189    0.0205 C   0  0  0  0  0  0  0  0  0  0  0  0
   -1.2224   -0.4021    0.1115 C   0  0  0  0  0  0  0  0  0  0  0  0
   -0.3717   -1.4953   -0.0527 C   0  0  0  0  0  0  0  0  0  0  0  0
   -0.6923    0.8825    0.2304 C   0  0  0  0  0  0  0  0  0  0  0  0
    0.6885    1.0742    0.1849 C   0  0  0  0  0  0  0  0  0  0  0  0
    1.9051   -2.4847   -0.2761 C   0  0  0  0  0  0  0  0  0  0  0  0
    3.3580    1.5118    0.1042 C   0  0  0  0  0  0  0  0  0  0  0  0
   -3.0467   -1.9261    0.0271 C   0  0  0  0  0  0  0  0  0  0  0  0
   -1.9706    2.6201   -0.7718 C   0  0  0  0  0  0  0  0  0  0  0  0
   -0.7340   -2.5133   -0.1502 H   0  0  0  0  0  0  0  0  0  0  0  0
    1.0398    2.0961    0.2838 H   0  0  0  0  0  0  0  0  0  0  0  0
    2.4915   -2.3811   -1.1951 H   0  0  0  0  0  0  0  0  0  0  0  0
    2.5869   -2.5755    0.5760 H   0  0  0  0  0  0  0  0  0  0  0  0
    1.3434   -3.4221   -0.3484 H   0  0  0  0  0  0  0  0  0  0  0  0
    3.0187    2.1451   -0.7228 H   0  0  0  0  0  0  0  0  0  0  0  0
    4.4510    1.4772    0.0467 H   0  0  0  0  0  0  0  0  0  0  0  0
    3.1071    1.9421    1.0799 H   0  0  0  0  0  0  0  0  0  0  0  0
   -2.7103   -2.5603    0.8546 H   0  0  0  0  0  0  0  0  0  0  0  0
   -2.7967   -2.3577   -0.9483 H   0  0  0  0  0  0  0  0  0  0  0  0
   -4.1397   -1.8872    0.0838 H   0  0  0  0  0  0  0  0  0  0  0  0
   -2.6186    3.4471   -0.4681 H   0  0  0  0  0  0  0  0  0  0  0  0
   -2.5504    1.9404   -1.4045 H   0  0  0  0  0  0  0  0  0  0  0  0
   -1.1298    3.0299   -1.3407 H   0  0  0  0  0  0  0  0  0  0  0  0
  1  5  1  0  0  0  0
  1 11  1  0  0  0  0
  2  6  1  0  0  0  0
  2 12  1  0  0  0  0
  3  8  1  0  0  0  0
  3 13  1  0  0  0  0
  4  5  1  0  0  0  0
  4  7  2  0  0  0  0
  4 10  1  0  0  0  0
  5  9  2  0  0  0  0
  6  7  1  0  0  0  0
  6  8  2  0  0  0  0
  7 14  1  0  0  0  0
  8  9  1  0  0  0  0
  9 15  1  0  0  0  0
 10 16  1  0  0  0  0
 10 17  1  0  0  0  0
 10 18  1  0  0  0  0
 11 19  1  0  0  0  0
 11 20  1  0  0  0  0
 11 21  1  0  0  0  0
 12 22  1  0  0  0  0
 12 23  1  0  0  0  0
 12 24  1  0  0  0  0
 13 25  1  0  0  0  0
 13 26  1  0  0  0  0
 13 27  1  0  0  0  0
M  END
> <PUBCHEM_COMPOUND_CID>
12644579

> <PUBCHEM_CONFORMER_RMSD>
0.6

> <PUBCHEM_CONFORMER_DIVERSEORDER>
1
3
6
5
2
4

> <PUBCHEM_MMFF94_PARTIAL_CHARGES>
15
1 -0.36
10 0.14
11 0.28
12 0.28
13 0.28
14 0.15
15 0.15
2 -0.36
3 -0.36
4 -0.14
5 0.08
6 0.08
7 -0.15
8 0.08
9 -0.15

> <PUBCHEM_EFFECTIVE_ROTOR_COUNT>
3

> <PUBCHEM_PHARMACOPHORE_FEATURES>
4
1 1 acceptor
1 2 acceptor
1 3 acceptor
6 4 5 6 7 8 9 rings

> <PUBCHEM_HEAVY_ATOM_COUNT>
13

> <PUBCHEM_ATOM_DEF_STEREO_COUNT>
0

> <PUBCHEM_ATOM_UDEF_STEREO_COUNT>
0

> <PUBCHEM_BOND_DEF_STEREO_COUNT>
0

> <PUBCHEM_BOND_UDEF_STEREO_COUNT>
0

> <PUBCHEM_ISOTOPIC_ATOM_COUNT>
0

> <PUBCHEM_COMPONENT_COUNT>
1

> <PUBCHEM_CACTVS_TAUTO_COUNT>
1

> <PUBCHEM_CONFORMER_ID>
00C0F0E300000001

> <PUBCHEM_MMFF94_ENERGY>
62.5368

> <PUBCHEM_FEATURE_SELFOVERLAP>
20.302

> <PUBCHEM_SHAPE_FINGERPRINT>
10967382 1 18121499051094640706
11206711 2 18410290302582890092
11680986 33 18118973739479748698
13380535 21 18264759025177015544
13380535 76 18194131921531255748
14614273 12 18412548712367165365
14648413 74 18194118753372581346
15042514 8 18050289159627549706
15279308 100 17908420599723211636
15490181 7 17912927480821614713
161256 15 18335125510207267126
16945 1 18410854326351903594
193761 8 18338234989220029762
19973954 147 18337952419089884170
20510252 161 18261391092613325176
20511035 2 17899436442983902670
20588541 1 18265609883947239883
21501502 16 18337954609401859930
2334 1 18337952393325374666
23402539 116 18117847590316856694
23419403 2 16179129516167658386
23552423 10 18269549597460691258
23559900 14 17758392264643532158
2748010 2 18265048209693797662
3250762 1 18338516472760281870
528886 8 18191872210472395866
589210 1 18338516472781348302
7364860 26 18261954180100404662
81228 2 18272360993190584329

> <PUBCHEM_SHAPE_MULTIPOLES>
249.93
4.41
2.91
0.67
0.88
0.3
-0.04
0.14
-0.04
-0.82
-0.43
-0.08
0.12
0.44

> <PUBCHEM_SHAPE_SELFOVERLAP>
512.733

> <PUBCHEM_SHAPE_VOLUME>
146.5

> <PUBCHEM_COORDINATE_TYPE>
2
5
10

$$$$

