440906
  -OEChem-07051212513D

 52 54  0     1  0  0  0  0  0999 V2000
    0.3398    0.0063    0.7781 O   0  0  0  0  0  0  0  0  0  0  0  0
   -0.5917   -0.6680   -1.2832 O   0  0  0  0  0  0  0  0  0  0  0  0
    2.3975   -0.8286    0.0620 O   0  0  0  0  0  0  0  0  0  0  0  0
    1.4458    2.6101    0.8488 O   0  0  0  0  0  0  0  0  0  0  0  0
    4.3543    2.5574    1.3160 O   0  0  0  0  0  0  0  0  0  0  0  0
    5.6449    0.7547   -0.5387 O   0  0  0  0  0  0  0  0  0  0  0  0
   -3.9684    2.1381    0.2198 O   0  0  0  0  0  0  0  0  0  0  0  0
   -3.8601    1.8108   -2.0694 O   0  0  0  0  0  0  0  0  0  0  0  0
    3.5584   -2.8136   -1.4440 O   0  0  0  0  0  0  0  0  0  0  0  0
   -1.6420   -1.3521    0.8571 C   0  0  1  0  0  0  0  0  0  0  0  0
   -2.6974   -0.2271    0.7366 C   0  0  2  0  0  0  0  0  0  0  0  0
   -2.3875   -2.6044    0.3690 C   0  0  2  0  0  0  0  0  0  0  0  0
   -4.0559   -0.9436    0.8923 C   0  0  0  0  0  0  0  0  0  0  0  0
   -3.7520   -2.4332    1.0293 C   0  0  0  0  0  0  0  0  0  0  0  0
   -0.3575   -1.0314    0.0840 C   0  0  2  0  0  0  0  0  0  0  0  0
   -2.5732    0.4987   -0.5726 C   0  0  0  0  0  0  0  0  0  0  0  0
   -1.7168   -3.9123    0.7619 C   0  0  0  0  0  0  0  0  0  0  0  0
    1.5677    0.3290    0.1259 C   0  0  2  0  0  0  0  0  0  0  0  0
   -1.6098    0.2326   -1.4619 C   0  0  0  0  0  0  0  0  0  0  0  0
    2.2514    1.4346    0.9301 C   0  0  1  0  0  0  0  0  0  0  0  0
    3.6471    1.7372    0.3846 C   0  0  2  0  0  0  0  0  0  0  0  0
    4.4513    0.4534    0.1794 C   0  0  1  0  0  0  0  0  0  0  0  0
    3.6365   -0.5786   -0.6040 C   0  0  1  0  0  0  0  0  0  0  0  0
   -3.5340    1.5475   -0.9223 C   0  0  0  0  0  0  0  0  0  0  0  0
    4.3728   -1.9094   -0.7203 C   0  0  0  0  0  0  0  0  0  0  0  0
   -4.9207    3.1918    0.0418 C   0  0  0  0  0  0  0  0  0  0  0  0
   -1.3949   -1.4714    1.9223 H   0  0  0  0  0  0  0  0  0  0  0  0
   -2.5473    0.4872    1.5561 H   0  0  0  0  0  0  0  0  0  0  0  0
   -2.5088   -2.5837   -0.7218 H   0  0  0  0  0  0  0  0  0  0  0  0
   -4.7128   -0.7801    0.0298 H   0  0  0  0  0  0  0  0  0  0  0  0
   -4.5927   -0.5810    1.7760 H   0  0  0  0  0  0  0  0  0  0  0  0
   -3.7105   -2.7051    2.0914 H   0  0  0  0  0  0  0  0  0  0  0  0
   -4.5219   -3.0518    0.5574 H   0  0  0  0  0  0  0  0  0  0  0  0
    0.2699   -1.9292    0.0770 H   0  0  0  0  0  0  0  0  0  0  0  0
   -1.5426   -3.9656    1.8418 H   0  0  0  0  0  0  0  0  0  0  0  0
   -2.3433   -4.7649    0.4797 H   0  0  0  0  0  0  0  0  0  0  0  0
   -0.7521   -4.0265    0.2584 H   0  0  0  0  0  0  0  0  0  0  0  0
    1.3535    0.6928   -0.8874 H   0  0  0  0  0  0  0  0  0  0  0  0
   -1.5239    0.6902   -2.4385 H   0  0  0  0  0  0  0  0  0  0  0  0
    2.3085    1.1622    1.9906 H   0  0  0  0  0  0  0  0  0  0  0  0
    3.5921    2.3072   -0.5511 H   0  0  0  0  0  0  0  0  0  0  0  0
    4.7421    0.0566    1.1608 H   0  0  0  0  0  0  0  0  0  0  0  0
    3.4218   -0.2198   -1.6199 H   0  0  0  0  0  0  0  0  0  0  0  0
    4.5552   -2.3424    0.2688 H   0  0  0  0  0  0  0  0  0  0  0  0
    5.3232   -1.8038   -1.2509 H   0  0  0  0  0  0  0  0  0  0  0  0
    1.3868    2.8713   -0.0860 H   0  0  0  0  0  0  0  0  0  0  0  0
    3.8218    3.3585    1.4592 H   0  0  0  0  0  0  0  0  0  0  0  0
    6.2478   -0.0017   -0.4448 H   0  0  0  0  0  0  0  0  0  0  0  0
    4.0426   -3.6550   -1.4999 H   0  0  0  0  0  0  0  0  0  0  0  0
   -5.8251    2.8069   -0.4391 H   0  0  0  0  0  0  0  0  0  0  0  0
   -4.4830    4.0018   -0.5494 H   0  0  0  0  0  0  0  0  0  0  0  0
   -5.1859    3.5805    1.0285 H   0  0  0  0  0  0  0  0  0  0  0  0
  1 15  1  0  0  0  0
  1 18  1  0  0  0  0
  2 15  1  0  0  0  0
  2 19  1  0  0  0  0
  3 18  1  0  0  0  0
  3 23  1  0  0  0  0
  4 20  1  0  0  0  0
  4 46  1  0  0  0  0
  5 21  1  0  0  0  0
  5 47  1  0  0  0  0
  6 22  1  0  0  0  0
  6 48  1  0  0  0  0
  7 24  1  0  0  0  0
  7 26  1  0  0  0  0
  8 24  2  0  0  0  0
  9 25  1  0  0  0  0
  9 49  1  0  0  0  0
 10 11  1  0  0  0  0
 10 12  1  0  0  0  0
 10 15  1  0  0  0  0
 10 27  1  0  0  0  0
 11 13  1  0  0  0  0
 11 16  1  0  0  0  0
 11 28  1  0  0  0  0
 12 14  1  0  0  0  0
 12 17  1  0  0  0  0
 12 29  1  0  0  0  0
 13 14  1  0  0  0  0
 13 30  1  0  0  0  0
 13 31  1  0  0  0  0
 14 32  1  0  0  0  0
 14 33  1  0  0  0  0
 15 34  1  0  0  0  0
 16 19  2  0  0  0  0
 16 24  1  0  0  0  0
 17 35  1  0  0  0  0
 17 36  1  0  0  0  0
 17 37  1  0  0  0  0
 18 20  1  0  0  0  0
 18 38  1  0  0  0  0
 19 39  1  0  0  0  0
 20 21  1  0  0  0  0
 20 40  1  0  0  0  0
 21 22  1  0  0  0  0
 21 41  1  0  0  0  0
 22 23  1  0  0  0  0
 22 42  1  0  0  0  0
 23 25  1  0  0  0  0
 23 43  1  0  0  0  0
 25 44  1  0  0  0  0
 25 45  1  0  0  0  0
 26 50  1  0  0  0  0
 26 51  1  0  0  0  0
 26 52  1  0  0  0  0
M  END
> <PUBCHEM_COMPOUND_CID>
440906

> <PUBCHEM_CONFORMER_RMSD>
0.8

> <PUBCHEM_CONFORMER_DIVERSEORDER>
2
147
117
87
148
50
44
45
144
4
26
136
70
21
119
32
63
84
102
149
6
74
79
36
99
139
24
134
115
75
29
145
142
68
103
116
48
140
12
114
91
40
13
8
52
73
19
35
101
118
97
11
82
141
65
112
98
3
55
38
143
33
57
95
126
14
96
66
128
69
124
1
120
17
58
18
121
133
86
111
146
46
5
94
109
138
43
23
100
123
37
51
62
54
113
106
127
89
41
49
78
125
61
85
105
108
15
104
151
122
137
30
28
93
83
88
76
92
77
27
42
67
56
34
131
7
60
39
59
90
72
64
22
81
150
53
132
129
31
47
135
16
110
130
80
25
71
107
9
10
20

> <PUBCHEM_MMFF94_PARTIAL_CHARGES>
26
1 -0.56
11 0.14
15 0.56
16 -0.12
18 0.56
19 -0.07
2 -0.36
20 0.28
21 0.28
22 0.28
23 0.28
24 0.71
25 0.28
26 0.28
3 -0.56
39 0.15
4 -0.68
46 0.4
47 0.4
48 0.4
49 0.4
5 -0.68
6 -0.68
7 -0.43
8 -0.57
9 -0.68

> <PUBCHEM_EFFECTIVE_ROTOR_COUNT>
7.2

> <PUBCHEM_PHARMACOPHORE_FEATURES>
15
1 1 acceptor
1 2 acceptor
1 3 acceptor
1 4 acceptor
1 4 donor
1 5 acceptor
1 5 donor
1 6 acceptor
1 6 donor
1 8 acceptor
1 9 acceptor
1 9 donor
5 10 11 12 13 14 rings
6 2 10 11 15 16 19 rings
6 3 18 20 21 22 23 rings

> <PUBCHEM_HEAVY_ATOM_COUNT>
26

> <PUBCHEM_ATOM_DEF_STEREO_COUNT>
9

> <PUBCHEM_ATOM_UDEF_STEREO_COUNT>
0

> <PUBCHEM_BOND_DEF_STEREO_COUNT>
0

> <PUBCHEM_BOND_UDEF_STEREO_COUNT>
0

> <PUBCHEM_ISOTOPIC_ATOM_COUNT>
0

> <PUBCHEM_COMPONENT_COUNT>
1

> <PUBCHEM_CACTVS_TAUTO_COUNT>
1

> <PUBCHEM_CONFORMER_ID>
0006BA4A00000002

> <PUBCHEM_MMFF94_ENERGY>
71.6108

> <PUBCHEM_FEATURE_SELFOVERLAP>
76.392

> <PUBCHEM_SHAPE_FINGERPRINT>
10165383 225 17985255524887397701
10369192 42 18050001096361164876
1100329 8 16609414840391373440
11370993 144 18262784225295465787
11405975 8 18342742948587281162
12173636 292 18341618105316408599
12507560 40 18409446964289870732
12623949 98 17972853900983281639
12788726 201 18123778386492631047
13140716 1 18057047015721080467
13583140 156 18260265209606445470
14251757 17 18409444799853220362
14790565 3 17979630465985936609
14866123 147 17109301141051680938
15230672 131 18129379466518767290
15961568 22 17556298367628981820
17349148 13 15068623790168685030
17844677 252 18270113505540141720
1813 80 17058933243168792343
20645477 56 18341610404260516955
20645477 70 17603577513857121390
20693207 138 18264750130669426782
21033648 29 18411706491029790497
21033650 10 17632280320761116764
21065198 57 18411417289432820026
21065199 12 18337388236538903922
21279426 13 18265046027755387901
23557571 272 18201153265642562134
23559900 14 18264204716808641874
283562 15 18271530810847142907
3380486 145 18049998888684514915
350125 39 18341324535885690459
3729539 64 17694494154003991455
469060 322 16888663825852639231
5104073 3 18272377477222215488
6287921 2 18056190268128947060
633830 44 18191036783836268397
7399639 24 17831024520297501672
81228 2 17773880801079609419
9709674 26 18409730621284320430
9981440 41 17174944892505816065

> <PUBCHEM_SHAPE_MULTIPOLES>
482.24
10.87
3.83
1.32
7.1
1.04
0.38
-4.13
0.46
-2.9
-0.56
-0.28
-0.16
3.01

> <PUBCHEM_SHAPE_SELFOVERLAP>
1010.805

> <PUBCHEM_SHAPE_VOLUME>
268.5

> <PUBCHEM_COORDINATE_TYPE>
2
5
10

$$$$

