104926
  -OEChem-07051213002D

 47 49  0     1  0  0  0  0  0999 V2000
   11.6603    1.8170    0.0000 Cl  0  0  0  0  0  0  0  0  0  0  0  0
   10.7942    3.3170    0.0000 Cl  0  0  0  0  0  0  0  0  0  0  0  0
    6.3301   -3.6830    0.0000 F   0  0  0  0  0  0  0  0  0  0  0  0
    7.1962    0.8170    0.0000 O   0  0  0  0  0  0  0  0  0  0  0  0
    6.3301    2.3170    0.0000 O   0  0  0  0  0  0  0  0  0  0  0  0
    4.5981   -2.6830    0.0000 O   0  0  0  0  0  0  0  0  0  0  0  0
    4.5981    1.3170    0.0000 N   0  0  0  0  0  0  0  0  0  0  0  0
    8.5622    3.1830    0.0000 C   0  0  0  0  0  0  0  0  0  0  0  0
    9.0622    2.3170    0.0000 C   0  0  3  0  0  0  0  0  0  0  0  0
    8.0622    2.3170    0.0000 C   0  0  3  0  0  0  0  0  0  0  0  0
    9.4282    3.6830    0.0000 C   0  0  0  0  0  0  0  0  0  0  0  0
    7.6962    3.6830    0.0000 C   0  0  0  0  0  0  0  0  0  0  0  0
    9.9282    1.8170    0.0000 C   0  0  0  0  0  0  0  0  0  0  0  0
    7.1962    1.8170    0.0000 C   0  0  0  0  0  0  0  0  0  0  0  0
   10.7942    2.3170    0.0000 C   0  0  0  0  0  0  0  0  0  0  0  0
    6.3301    0.3170    0.0000 C   0  0  3  0  0  0  0  0  0  0  0  0
    6.3301   -0.6830    0.0000 C   0  0  0  0  0  0  0  0  0  0  0  0
    5.4641    0.8170    0.0000 C   0  0  0  0  0  0  0  0  0  0  0  0
    5.4641   -1.1830    0.0000 C   0  0  0  0  0  0  0  0  0  0  0  0
    7.1962   -1.1830    0.0000 C   0  0  0  0  0  0  0  0  0  0  0  0
    5.4641   -2.1830    0.0000 C   0  0  0  0  0  0  0  0  0  0  0  0
    7.1962   -2.1830    0.0000 C   0  0  0  0  0  0  0  0  0  0  0  0
    6.3301   -2.6830    0.0000 C   0  0  0  0  0  0  0  0  0  0  0  0
    3.7320   -2.1830    0.0000 C   0  0  0  0  0  0  0  0  0  0  0  0
    3.7320   -1.1830    0.0000 C   0  0  0  0  0  0  0  0  0  0  0  0
    2.8660   -2.6830    0.0000 C   0  0  0  0  0  0  0  0  0  0  0  0
    2.8660   -0.6830    0.0000 C   0  0  0  0  0  0  0  0  0  0  0  0
    2.0000   -2.1830    0.0000 C   0  0  0  0  0  0  0  0  0  0  0  0
    2.0000   -1.1830    0.0000 C   0  0  0  0  0  0  0  0  0  0  0  0
    8.8422    1.4959    0.0000 H   0  0  0  0  0  0  0  0  0  0  0  0
    8.2822    1.4959    0.0000 H   0  0  0  0  0  0  0  0  0  0  0  0
    8.0062    4.2200    0.0000 H   0  0  0  0  0  0  0  0  0  0  0  0
    7.1592    3.9930    0.0000 H   0  0  0  0  0  0  0  0  0  0  0  0
    7.3862    3.1461    0.0000 H   0  0  0  0  0  0  0  0  0  0  0  0
    9.7382    3.1461    0.0000 H   0  0  0  0  0  0  0  0  0  0  0  0
    9.9651    3.9930    0.0000 H   0  0  0  0  0  0  0  0  0  0  0  0
    9.1182    4.2200    0.0000 H   0  0  0  0  0  0  0  0  0  0  0  0
    9.9282    1.1970    0.0000 H   0  0  0  0  0  0  0  0  0  0  0  0
    7.0662   -0.1080    0.0000 H   0  0  0  0  0  0  0  0  0  0  0  0
    4.9272   -0.8730    0.0000 H   0  0  0  0  0  0  0  0  0  0  0  0
    7.7331   -0.8730    0.0000 H   0  0  0  0  0  0  0  0  0  0  0  0
    7.7331   -2.4930    0.0000 H   0  0  0  0  0  0  0  0  0  0  0  0
    4.2690   -0.8730    0.0000 H   0  0  0  0  0  0  0  0  0  0  0  0
    2.8660   -3.3030    0.0000 H   0  0  0  0  0  0  0  0  0  0  0  0
    2.8660   -0.0630    0.0000 H   0  0  0  0  0  0  0  0  0  0  0  0
    1.4631   -2.4930    0.0000 H   0  0  0  0  0  0  0  0  0  0  0  0
    1.4631   -0.8730    0.0000 H   0  0  0  0  0  0  0  0  0  0  0  0
  1 15  1  0  0  0  0
  2 15  1  0  0  0  0
  3 23  1  0  0  0  0
  4 14  1  0  0  0  0
  4 16  1  0  0  0  0
  5 14  2  0  0  0  0
  6 21  1  0  0  0  0
  6 24  1  0  0  0  0
  7 18  3  0  0  0  0
  8  9  1  0  0  0  0
  8 10  1  0  0  0  0
  8 11  1  0  0  0  0
  8 12  1  0  0  0  0
  9 10  1  0  0  0  0
  9 13  1  0  0  0  0
  9 30  1  0  0  0  0
 10 14  1  0  0  0  0
 10 31  1  0  0  0  0
 11 35  1  0  0  0  0
 11 36  1  0  0  0  0
 11 37  1  0  0  0  0
 12 32  1  0  0  0  0
 12 33  1  0  0  0  0
 12 34  1  0  0  0  0
 13 15  2  0  0  0  0
 13 38  1  0  0  0  0
 16 17  1  0  0  0  0
 16 18  1  0  0  0  0
 16 39  1  0  0  0  0
 17 19  2  0  0  0  0
 17 20  1  0  0  0  0
 19 21  1  0  0  0  0
 19 40  1  0  0  0  0
 20 22  2  0  0  0  0
 20 41  1  0  0  0  0
 21 23  2  0  0  0  0
 22 23  1  0  0  0  0
 22 42  1  0  0  0  0
 24 25  2  0  0  0  0
 24 26  1  0  0  0  0
 25 27  1  0  0  0  0
 25 43  1  0  0  0  0
 26 28  2  0  0  0  0
 26 44  1  0  0  0  0
 27 29  2  0  0  0  0
 27 45  1  0  0  0  0
 28 29  1  0  0  0  0
 28 46  1  0  0  0  0
 29 47  1  0  0  0  0
M  END
> <PUBCHEM_COMPOUND_CID>
104926

> <PUBCHEM_COMPOUND_CANONICALIZED>
1

> <PUBCHEM_CACTVS_COMPLEXITY>
679

> <PUBCHEM_CACTVS_HBOND_ACCEPTOR>
5

> <PUBCHEM_CACTVS_HBOND_DONOR>
0

> <PUBCHEM_CACTVS_ROTATABLE_BOND>
7

> <PUBCHEM_CACTVS_SUBSKEYS>
AAADceB6MQAGAAAAAAAAAAAAGAAAAAAAAAAwYAAAAAAAAAABQAAAHwIAAAAADxahmIoyDoAABACYBiDSCAACCAAgIAAIiAEGCIgMpjKEMRqCOCCkwBEIqA/IwLAPgAABAAAAAAAAAAIAAAAAAAAAAAAAAA==

> <PUBCHEM_IUPAC_OPENEYE_NAME>
[cyano-(4-fluoro-3-phenoxy-phenyl)methyl] 3-(2,2-dichlorovinyl)-2,2-dimethyl-cyclopropanecarboxylate

> <PUBCHEM_IUPAC_CAS_NAME>
3-(2,2-dichloroethenyl)-2,2-dimethyl-1-cyclopropanecarboxylic acid [cyano-(4-fluoro-3-phenoxyphenyl)methyl] ester

> <PUBCHEM_IUPAC_NAME>
[cyano-(4-fluoro-3-phenoxyphenyl)methyl] 3-(2,2-dichloroethenyl)-2,2-dimethylcyclopropane-1-carboxylate

> <PUBCHEM_IUPAC_SYSTEMATIC_NAME>
[cyano-(4-fluoranyl-3-phenoxy-phenyl)methyl] 3-[2,2-bis(chloranyl)ethenyl]-2,2-dimethyl-cyclopropane-1-carboxylate

> <PUBCHEM_IUPAC_TRADITIONAL_NAME>
3-(2,2-dichlorovinyl)-2,2-dimethyl-cyclopropanecarboxylic acid [cyano-(4-fluoro-3-phenoxy-phenyl)methyl] ester

> <PUBCHEM_IUPAC_INCHI>
InChI=1S/C22H18Cl2FNO3/c1-22(2)15(11-19(23)24)20(22)21(27)29-18(12-26)13-8-9-16(25)17(10-13)28-14-6-4-3-5-7-14/h3-11,15,18,20H,1-2H3

> <PUBCHEM_IUPAC_INCHIKEY>
QQODLKZGRKWIFG-UHFFFAOYSA-N

> <PUBCHEM_XLOGP3>
6.2

> <PUBCHEM_EXACT_MASS>
433.064777

> <PUBCHEM_MOLECULAR_FORMULA>
C22H18Cl2FNO3

> <PUBCHEM_MOLECULAR_WEIGHT>
434.287623

> <PUBCHEM_OPENEYE_CAN_SMILES>
CC1(C(C1C(=O)OC(C#N)C2=CC(=C(C=C2)F)OC3=CC=CC=C3)C=C(Cl)Cl)C

> <PUBCHEM_OPENEYE_ISO_SMILES>
CC1(C(C1C(=O)OC(C#N)C2=CC(=C(C=C2)F)OC3=CC=CC=C3)C=C(Cl)Cl)C

> <PUBCHEM_CACTVS_TPSA>
59.3

> <PUBCHEM_MONOISOTOPIC_WEIGHT>
433.064777

> <PUBCHEM_TOTAL_CHARGE>
0

> <PUBCHEM_HEAVY_ATOM_COUNT>
29

> <PUBCHEM_ATOM_DEF_STEREO_COUNT>
0

> <PUBCHEM_ATOM_UDEF_STEREO_COUNT>
3

> <PUBCHEM_BOND_DEF_STEREO_COUNT>
0

> <PUBCHEM_BOND_UDEF_STEREO_COUNT>
0

> <PUBCHEM_ISOTOPIC_ATOM_COUNT>
0

> <PUBCHEM_COMPONENT_COUNT>
1

> <PUBCHEM_CACTVS_TAUTO_COUNT>
1

> <PUBCHEM_COORDINATE_TYPE>
1
5
255

> <PUBCHEM_BONDANNOTATIONS>
10  31  3
16  39  3
17  19  8
17  20  8
19  21  8
20  22  8
21  23  8
22  23  8
24  25  8
24  26  8
25  27  8
26  28  8
27  29  8
28  29  8
9  30  3

$$$$

