5282319
  -OEChem-07051213042D

 62 62  0     1  0  0  0  0  0999 V2000
    2.3100   -4.3450    0.0000 O   0  0  0  0  0  0  0  0  0  0  0  0
    4.1760   -6.8450    0.0000 O   0  0  0  0  0  0  0  0  0  0  0  0
    9.3722    7.1550    0.0000 O   0  0  0  0  0  0  0  0  0  0  0  0
    5.0420   -4.3450    0.0000 C   0  0  0  0  0  0  0  0  0  0  0  0
    3.3100   -4.3450    0.0000 C   0  0  2  0  0  0  0  0  0  0  0  0
    5.0420   -5.3450    0.0000 C   0  0  0  0  0  0  0  0  0  0  0  0
    4.1760   -5.8450    0.0000 C   0  0  1  0  0  0  0  0  0  0  0  0
    3.3100   -5.3450    0.0000 C   0  0  0  0  0  0  0  0  0  0  0  0
    4.1760   -3.8450    0.0000 C   0  0  0  0  0  0  0  0  0  0  0  0
    6.0420   -4.3450    0.0000 C   0  0  0  0  0  0  0  0  0  0  0  0
    5.5420   -3.4790    0.0000 C   0  0  0  0  0  0  0  0  0  0  0  0
    2.8100   -3.4790    0.0000 C   0  0  0  0  0  0  0  0  0  0  0  0
    4.1760   -2.8450    0.0000 C   0  0  0  0  0  0  0  0  0  0  0  0
    4.1760   -1.8450    0.0000 C   0  0  0  0  0  0  0  0  0  0  0  0
    5.0420   -1.3450    0.0000 C   0  0  0  0  0  0  0  0  0  0  0  0
    5.9081   -1.8450    0.0000 C   0  0  0  0  0  0  0  0  0  0  0  0
    5.0420   -0.3450    0.0000 C   0  0  0  0  0  0  0  0  0  0  0  0
    5.9081    0.1550    0.0000 C   0  0  0  0  0  0  0  0  0  0  0  0
    5.9081    1.1550    0.0000 C   0  0  0  0  0  0  0  0  0  0  0  0
    6.7741    1.6550    0.0000 C   0  0  0  0  0  0  0  0  0  0  0  0
    7.6401    1.1550    0.0000 C   0  0  0  0  0  0  0  0  0  0  0  0
    6.7741    2.6550    0.0000 C   0  0  0  0  0  0  0  0  0  0  0  0
    7.6401    3.1550    0.0000 C   0  0  0  0  0  0  0  0  0  0  0  0
    7.6401    4.1550    0.0000 C   0  0  0  0  0  0  0  0  0  0  0  0
    8.5062    4.6550    0.0000 C   0  0  0  0  0  0  0  0  0  0  0  0
    8.5062    5.6550    0.0000 C   0  0  0  0  0  0  0  0  0  0  0  0
    7.6401    6.1550    0.0000 C   0  0  0  0  0  0  0  0  0  0  0  0
    9.3722    6.1550    0.0000 C   0  0  0  0  0  0  0  0  0  0  0  0
    5.2541   -5.9276    0.0000 H   0  0  0  0  0  0  0  0  0  0  0  0
    5.6526   -5.2373    0.0000 H   0  0  0  0  0  0  0  0  0  0  0  0
    4.7130   -6.1550    0.0000 H   0  0  0  0  0  0  0  0  0  0  0  0
    2.6994   -5.2373    0.0000 H   0  0  0  0  0  0  0  0  0  0  0  0
    3.0980   -5.9276    0.0000 H   0  0  0  0  0  0  0  0  0  0  0  0
    6.0420   -4.9650    0.0000 H   0  0  0  0  0  0  0  0  0  0  0  0
    6.6620   -4.3450    0.0000 H   0  0  0  0  0  0  0  0  0  0  0  0
    6.0420   -3.7250    0.0000 H   0  0  0  0  0  0  0  0  0  0  0  0
    6.0790   -3.7890    0.0000 H   0  0  0  0  0  0  0  0  0  0  0  0
    5.8520   -2.9420    0.0000 H   0  0  0  0  0  0  0  0  0  0  0  0
    5.0051   -3.1690    0.0000 H   0  0  0  0  0  0  0  0  0  0  0  0
    3.3469   -3.1690    0.0000 H   0  0  0  0  0  0  0  0  0  0  0  0
    2.5000   -2.9420    0.0000 H   0  0  0  0  0  0  0  0  0  0  0  0
    2.2731   -3.7890    0.0000 H   0  0  0  0  0  0  0  0  0  0  0  0
    2.0000   -4.8819    0.0000 H   0  0  0  0  0  0  0  0  0  0  0  0
    4.7130   -7.1550    0.0000 H   0  0  0  0  0  0  0  0  0  0  0  0
    3.6391   -1.5350    0.0000 H   0  0  0  0  0  0  0  0  0  0  0  0
    5.5981   -2.3819    0.0000 H   0  0  0  0  0  0  0  0  0  0  0  0
    6.4450   -2.1550    0.0000 H   0  0  0  0  0  0  0  0  0  0  0  0
    6.2181   -1.3081    0.0000 H   0  0  0  0  0  0  0  0  0  0  0  0
    4.5051   -0.0350    0.0000 H   0  0  0  0  0  0  0  0  0  0  0  0
    6.4450   -0.1550    0.0000 H   0  0  0  0  0  0  0  0  0  0  0  0
    5.3711    1.4650    0.0000 H   0  0  0  0  0  0  0  0  0  0  0  0
    7.3301    0.6181    0.0000 H   0  0  0  0  0  0  0  0  0  0  0  0
    8.1771    0.8450    0.0000 H   0  0  0  0  0  0  0  0  0  0  0  0
    7.9501    1.6919    0.0000 H   0  0  0  0  0  0  0  0  0  0  0  0
    6.2372    2.9650    0.0000 H   0  0  0  0  0  0  0  0  0  0  0  0
    8.1771    2.8450    0.0000 H   0  0  0  0  0  0  0  0  0  0  0  0
    7.1032    4.4650    0.0000 H   0  0  0  0  0  0  0  0  0  0  0  0
    9.0431    4.3450    0.0000 H   0  0  0  0  0  0  0  0  0  0  0  0
    7.9501    6.6919    0.0000 H   0  0  0  0  0  0  0  0  0  0  0  0
    7.1032    6.4650    0.0000 H   0  0  0  0  0  0  0  0  0  0  0  0
    7.3301    5.6181    0.0000 H   0  0  0  0  0  0  0  0  0  0  0  0
    9.9091    5.8450    0.0000 H   0  0  0  0  0  0  0  0  0  0  0  0
  5  1  1  1  0  0  0
  1 43  1  0  0  0  0
  7  2  1  6  0  0  0
  2 44  1  0  0  0  0
  3 28  2  0  0  0  0
  4  6  1  0  0  0  0
  4  9  1  0  0  0  0
  4 10  1  0  0  0  0
  4 11  1  0  0  0  0
  5  8  1  0  0  0  0
  5  9  1  0  0  0  0
  5 12  1  0  0  0  0
  6  7  1  0  0  0  0
  6 29  1  0  0  0  0
  6 30  1  0  0  0  0
  7  8  1  0  0  0  0
  7 31  1  0  0  0  0
  8 32  1  0  0  0  0
  8 33  1  0  0  0  0
  9 13  2  0  0  0  0
 10 34  1  0  0  0  0
 10 35  1  0  0  0  0
 10 36  1  0  0  0  0
 11 37  1  0  0  0  0
 11 38  1  0  0  0  0
 11 39  1  0  0  0  0
 12 40  1  0  0  0  0
 12 41  1  0  0  0  0
 12 42  1  0  0  0  0
 13 14  2  0  0  0  0
 14 15  1  0  0  0  0
 14 45  1  0  0  0  0
 15 16  1  0  0  0  0
 15 17  2  0  0  0  0
 16 46  1  0  0  0  0
 16 47  1  0  0  0  0
 16 48  1  0  0  0  0
 17 18  1  0  0  0  0
 17 49  1  0  0  0  0
 18 19  2  0  0  0  0
 18 50  1  0  0  0  0
 19 20  1  0  0  0  0
 19 51  1  0  0  0  0
 20 21  1  0  0  0  0
 20 22  2  0  0  0  0
 21 52  1  0  0  0  0
 21 53  1  0  0  0  0
 21 54  1  0  0  0  0
 22 23  1  0  0  0  0
 22 55  1  0  0  0  0
 23 24  2  0  0  0  0
 23 56  1  0  0  0  0
 24 25  1  0  0  0  0
 24 57  1  0  0  0  0
 25 26  2  0  0  0  0
 25 58  1  0  0  0  0
 26 27  1  0  0  0  0
 26 28  1  0  0  0  0
 27 59  1  0  0  0  0
 27 60  1  0  0  0  0
 27 61  1  0  0  0  0
 28 62  1  0  0  0  0
M  END
> <PUBCHEM_COMPOUND_CID>
5282319

> <PUBCHEM_COMPOUND_CANONICALIZED>
1

> <PUBCHEM_CACTVS_COMPLEXITY>
781

> <PUBCHEM_CACTVS_HBOND_ACCEPTOR>
3

> <PUBCHEM_CACTVS_HBOND_DONOR>
2

> <PUBCHEM_CACTVS_ROTATABLE_BOND>
6

> <PUBCHEM_CACTVS_SUBSKEYS>
AAADcfB4MAAAAAAAAAAAAAAAAAAAAAAAAAAwAAAAAAAAAAAAAAAAGgAACAAADlSggAICAAAAAgCIAihSgAAAAAAgAAAICAEAAEgIFAIAAQAAQAAFgAAIkYOA4FQPAAAAAAAAAAAAAAYQAAAAAAAAAAAAAA==

> <PUBCHEM_IUPAC_OPENEYE_NAME>
(2E,4E,6E,8E,10E)-13-[(2R,4S)-2,4-dihydroxy-2,6,6-trimethyl-cyclohexylidene]-2,7,11-trimethyl-trideca-2,4,6,8,10,12-hexaenal

> <PUBCHEM_IUPAC_CAS_NAME>
(2E,4E,6E,8E,10E)-13-[(2R,4S)-2,4-dihydroxy-2,6,6-trimethylcyclohexylidene]-2,7,11-trimethyltrideca-2,4,6,8,10,12-hexaenal

> <PUBCHEM_IUPAC_NAME>
(2E,4E,6E,8E,10E)-13-[(2R,4S)-2,4-dihydroxy-2,6,6-trimethylcyclohexylidene]-2,7,11-trimethyltrideca-2,4,6,8,10,12-hexaenal

> <PUBCHEM_IUPAC_SYSTEMATIC_NAME>
(2E,4E,6E,8E,10E)-2,7,11-trimethyl-13-[(4S,6R)-2,2,6-trimethyl-4,6-bis(oxidanyl)cyclohexylidene]trideca-2,4,6,8,10,12-hexaenal

> <PUBCHEM_IUPAC_TRADITIONAL_NAME>
(2E,4E,6E,8E,10E)-13-[(2R,4S)-2,4-dihydroxy-2,6,6-trimethyl-cyclohexylidene]-2,7,11-trimethyl-trideca-2,4,6,8,10,12-hexaenal

> <PUBCHEM_IUPAC_INCHI>
InChI=1S/C25H34O3/c1-19(10-7-8-11-21(3)18-26)12-9-13-20(2)14-15-23-24(4,5)16-22(27)17-25(23,6)28/h7-14,18,22,27-28H,16-17H2,1-6H3/b8-7+,12-9+,19-10+,20-13+,21-11+/t15?,22-,25+/m0/s1

> <PUBCHEM_IUPAC_INCHIKEY>
MFDUGTOOXGORRX-ZROAIIAPSA-N

> <PUBCHEM_XLOGP3_AA>
4.6

> <PUBCHEM_EXACT_MASS>
382.250795

> <PUBCHEM_MOLECULAR_FORMULA>
C25H34O3

> <PUBCHEM_MOLECULAR_WEIGHT>
382.53566

> <PUBCHEM_OPENEYE_CAN_SMILES>
CC(=CC=CC=C(C)C=O)C=CC=C(C)C=C=C1C(CC(CC1(C)O)O)(C)C

> <PUBCHEM_OPENEYE_ISO_SMILES>
C/C(=C\C=C\C=C(/C)\C=O)/C=C/C=C(\C)/C=C=C1[C@](C[C@H](CC1(C)C)O)(C)O

> <PUBCHEM_CACTVS_TPSA>
57.5

> <PUBCHEM_MONOISOTOPIC_WEIGHT>
382.250795

> <PUBCHEM_TOTAL_CHARGE>
0

> <PUBCHEM_HEAVY_ATOM_COUNT>
28

> <PUBCHEM_ATOM_DEF_STEREO_COUNT>
2

> <PUBCHEM_ATOM_UDEF_STEREO_COUNT>
0

> <PUBCHEM_BOND_DEF_STEREO_COUNT>
5

> <PUBCHEM_BOND_UDEF_STEREO_COUNT>
0

> <PUBCHEM_ISOTOPIC_ATOM_COUNT>
0

> <PUBCHEM_COMPONENT_COUNT>
1

> <PUBCHEM_CACTVS_TAUTO_COUNT>
1

> <PUBCHEM_COORDINATE_TYPE>
1
5
255

> <PUBCHEM_BONDANNOTATIONS>
5  1  5
7  2  6

$$$$

