54691342
  -OEChem-07051213032D

 24 25  0     0  0  0  0  0  0999 V2000
    4.2690    1.1377    0.0000 O   0  0  0  0  0  0  0  0  0  0  0  0
    4.2690   -1.8623    0.0000 O   0  0  0  0  0  0  0  0  0  0  0  0
    7.7991    1.1618    0.0000 O   0  0  0  0  0  0  0  0  0  0  0  0
    2.5369    1.1377    0.0000 O   0  0  0  0  0  0  0  0  0  0  0  0
    2.5369   -0.8623    0.0000 N   0  0  0  0  0  0  0  0  0  0  0  0
    5.1350   -0.3623    0.0000 C   0  0  0  0  0  0  0  0  0  0  0  0
    5.1350    0.6377    0.0000 C   0  0  0  0  0  0  0  0  0  0  0  0
    6.0290    1.1724    0.0000 C   0  0  0  0  0  0  0  0  0  0  0  0
    4.2690   -0.8623    0.0000 C   0  0  0  0  0  0  0  0  0  0  0  0
    6.0290   -0.8970    0.0000 C   0  0  0  0  0  0  0  0  0  0  0  0
    6.9350    0.6585    0.0000 C   0  0  0  0  0  0  0  0  0  0  0  0
    3.4030   -0.3623    0.0000 C   0  0  0  0  0  0  0  0  0  0  0  0
    6.9350   -0.3831    0.0000 C   0  0  0  0  0  0  0  0  0  0  0  0
    6.0174    2.1723    0.0000 C   0  0  0  0  0  0  0  0  0  0  0  0
    3.4030    0.6377    0.0000 C   0  0  0  0  0  0  0  0  0  0  0  0
    6.0218   -1.5169    0.0000 H   0  0  0  0  0  0  0  0  0  0  0  0
    7.4708   -0.6952    0.0000 H   0  0  0  0  0  0  0  0  0  0  0  0
    6.6374    2.1795    0.0000 H   0  0  0  0  0  0  0  0  0  0  0  0
    6.0102    2.7923    0.0000 H   0  0  0  0  0  0  0  0  0  0  0  0
    5.3974    2.1651    0.0000 H   0  0  0  0  0  0  0  0  0  0  0  0
    2.0000   -0.5523    0.0000 H   0  0  0  0  0  0  0  0  0  0  0  0
    2.5369   -1.4823    0.0000 H   0  0  0  0  0  0  0  0  0  0  0  0
    4.8059   -2.1723    0.0000 H   0  0  0  0  0  0  0  0  0  0  0  0
    8.3372    0.8539    0.0000 H   0  0  0  0  0  0  0  0  0  0  0  0
  1  7  1  0  0  0  0
  1 15  1  0  0  0  0
  2  9  1  0  0  0  0
  2 23  1  0  0  0  0
  3 11  1  0  0  0  0
  3 24  1  0  0  0  0
  4 15  2  0  0  0  0
  5 12  1  0  0  0  0
  5 21  1  0  0  0  0
  5 22  1  0  0  0  0
  6  7  2  0  0  0  0
  6  9  1  0  0  0  0
  6 10  1  0  0  0  0
  7  8  1  0  0  0  0
  8 11  2  0  0  0  0
  8 14  1  0  0  0  0
  9 12  2  0  0  0  0
 10 13  2  0  0  0  0
 10 16  1  0  0  0  0
 11 13  1  0  0  0  0
 12 15  1  0  0  0  0
 13 17  1  0  0  0  0
 14 18  1  0  0  0  0
 14 19  1  0  0  0  0
 14 20  1  0  0  0  0
M  END
> <PUBCHEM_COMPOUND_CID>
54691342

> <PUBCHEM_COMPOUND_CANONICALIZED>
1

> <PUBCHEM_CACTVS_COMPLEXITY>
325

> <PUBCHEM_CACTVS_HBOND_ACCEPTOR>
5

> <PUBCHEM_CACTVS_HBOND_DONOR>
3

> <PUBCHEM_CACTVS_ROTATABLE_BOND>
0

> <PUBCHEM_CACTVS_SUBSKEYS>
AAADccByOAAAAAAAAAAAAAAAAAAAAAAAAAAwQAAAAAAAAACBAAAAHgAQCAAADAyBmAAyDoBABgCIAiTSSAACCAAgIAAIiACGCMgOJyKGMBqDeiClwBUIuQeA4GwOIAACCAAIAABAAAQQABAAAAAAAAAAAA==

> <PUBCHEM_IUPAC_OPENEYE_NAME>
3-amino-4,7-dihydroxy-8-methyl-chromen-2-one

> <PUBCHEM_IUPAC_CAS_NAME>
3-amino-4,7-dihydroxy-8-methyl-1-benzopyran-2-one

> <PUBCHEM_IUPAC_NAME>
3-amino-4,7-dihydroxy-8-methylchromen-2-one

> <PUBCHEM_IUPAC_SYSTEMATIC_NAME>
3-azanyl-8-methyl-4,7-bis(oxidanyl)chromen-2-one

> <PUBCHEM_IUPAC_TRADITIONAL_NAME>
3-amino-4,7-dihydroxy-8-methyl-coumarin

> <PUBCHEM_IUPAC_INCHI>
InChI=1S/C10H9NO4/c1-4-6(12)3-2-5-8(13)7(11)10(14)15-9(4)5/h2-3,12-13H,11H2,1H3

> <PUBCHEM_IUPAC_INCHIKEY>
RYDWGVPXXFYEQD-UHFFFAOYSA-N

> <PUBCHEM_XLOGP3_AA>
0.8

> <PUBCHEM_EXACT_MASS>
207.053158

> <PUBCHEM_MOLECULAR_FORMULA>
C10H9NO4

> <PUBCHEM_MOLECULAR_WEIGHT>
207.18276

> <PUBCHEM_OPENEYE_CAN_SMILES>
CC1=C(C=CC2=C1OC(=O)C(=C2O)N)O

> <PUBCHEM_OPENEYE_ISO_SMILES>
CC1=C(C=CC2=C1OC(=O)C(=C2O)N)O

> <PUBCHEM_CACTVS_TPSA>
92.8

> <PUBCHEM_MONOISOTOPIC_WEIGHT>
207.053158

> <PUBCHEM_TOTAL_CHARGE>
0

> <PUBCHEM_HEAVY_ATOM_COUNT>
15

> <PUBCHEM_ATOM_DEF_STEREO_COUNT>
0

> <PUBCHEM_ATOM_UDEF_STEREO_COUNT>
0

> <PUBCHEM_BOND_DEF_STEREO_COUNT>
0

> <PUBCHEM_BOND_UDEF_STEREO_COUNT>
0

> <PUBCHEM_ISOTOPIC_ATOM_COUNT>
0

> <PUBCHEM_COMPONENT_COUNT>
1

> <PUBCHEM_CACTVS_TAUTO_COUNT>
28

> <PUBCHEM_COORDINATE_TYPE>
1
5
255

> <PUBCHEM_BONDANNOTATIONS>
1  15  8
1  7  8
10  13  8
11  13  8
12  15  8
6  10  8
6  7  8
6  9  8
7  8  8
8  11  8
9  12  8

$$$$

