11168362
  -OEChem-07051213103D

 69 73  0     1  0  0  0  0  0999 V2000
    1.8051    2.5138   -0.4029 O   0  0  0  0  0  0  0  0  0  0  0  0
    3.5850   -0.0832    1.7671 O   0  0  0  0  0  0  0  0  0  0  0  0
   -4.4098    1.5144    0.1625 O   0  0  0  0  0  0  0  0  0  0  0  0
   -4.6077   -0.7588   -0.3248 O   0  0  0  0  0  0  0  0  0  0  0  0
   -2.8775    2.0245   -2.0999 O   0  0  0  0  0  0  0  0  0  0  0  0
   -6.9896    1.4673    1.3247 O   0  0  0  0  0  0  0  0  0  0  0  0
   -8.6848   -0.6393    0.1545 O   0  0  0  0  0  0  0  0  0  0  0  0
   -7.3074   -3.1804    0.1854 O   0  0  0  0  0  0  0  0  0  0  0  0
    7.6147   -2.6739    0.3120 O   0  0  0  0  0  0  0  0  0  0  0  0
    9.4462   -0.7502   -0.5076 O   0  0  0  0  0  0  0  0  0  0  0  0
   -3.1571   -3.0733   -0.6330 O   0  0  0  0  0  0  0  0  0  0  0  0
    1.8690    0.1881    0.1596 C   0  0  2  0  0  0  0  0  0  0  0  0
    3.1665    0.5800   -0.4944 C   0  0  2  0  0  0  0  0  0  0  0  0
    1.2418    1.5452    0.5055 C   0  0  2  0  0  0  0  0  0  0  0  0
    4.1152    0.7326    0.7022 C   0  0  2  0  0  0  0  0  0  0  0  0
    2.8214    1.8777   -1.1900 C   0  0  0  0  0  0  0  0  0  0  0  0
    2.3189   -0.6182    1.3573 C   0  0  0  0  0  0  0  0  0  0  0  0
   -0.2653    1.5381    0.4106 C   0  0  0  0  0  0  0  0  0  0  0  0
    5.5357    0.3338    0.3808 C   0  0  0  0  0  0  0  0  0  0  0  0
   -0.8884    1.7872   -0.8123 C   0  0  0  0  0  0  0  0  0  0  0  0
   -1.0342    1.2821    1.5458 C   0  0  0  0  0  0  0  0  0  0  0  0
    5.9307   -1.0002    0.4943 C   0  0  0  0  0  0  0  0  0  0  0  0
    6.4567    1.2986   -0.0309 C   0  0  0  0  0  0  0  0  0  0  0  0
   -2.2806    1.7801   -0.9000 C   0  0  0  0  0  0  0  0  0  0  0  0
   -2.4264    1.2753    1.4581 C   0  0  0  0  0  0  0  0  0  0  0  0
   -6.5664    0.5014    0.3628 C   0  0  1  0  0  0  0  0  0  0  0  0
   -5.0600    0.2956    0.5214 C   0  0  2  0  0  0  0  0  0  0  0  0
   -7.3321   -0.8034    0.5832 C   0  0  2  0  0  0  0  0  0  0  0  0
   -3.0438    1.5242    0.2356 C   0  0  0  0  0  0  0  0  0  0  0  0
   -6.7168   -1.9487   -0.2211 C   0  0  1  0  0  0  0  0  0  0  0  0
   -5.2039   -2.0159   -0.0003 C   0  0  1  0  0  0  0  0  0  0  0  0
    7.2429   -1.3685    0.1969 C   0  0  0  0  0  0  0  0  0  0  0  0
    7.7689    0.9303   -0.3280 C   0  0  0  0  0  0  0  0  0  0  0  0
    8.1619   -0.4031   -0.2141 C   0  0  0  0  0  0  0  0  0  0  0  0
   -4.5511   -3.0758   -0.8821 C   0  0  0  0  0  0  0  0  0  0  0  0
   -3.1386    0.8984   -2.9353 C   0  0  0  0  0  0  0  0  0  0  0  0
    7.4611   -3.4958   -0.8435 C   0  0  0  0  0  0  0  0  0  0  0  0
    1.2239   -0.3961   -0.5064 H   0  0  0  0  0  0  0  0  0  0  0  0
    3.5259   -0.1780   -1.1996 H   0  0  0  0  0  0  0  0  0  0  0  0
    1.5317    1.8795    1.5100 H   0  0  0  0  0  0  0  0  0  0  0  0
    4.1148    1.7597    1.0892 H   0  0  0  0  0  0  0  0  0  0  0  0
    2.3953    1.6868   -2.1810 H   0  0  0  0  0  0  0  0  0  0  0  0
    3.6737    2.5531   -1.3049 H   0  0  0  0  0  0  0  0  0  0  0  0
    1.6174   -0.5854    2.1955 H   0  0  0  0  0  0  0  0  0  0  0  0
    2.4807   -1.6662    1.0825 H   0  0  0  0  0  0  0  0  0  0  0  0
   -0.3041    1.9790   -1.7086 H   0  0  0  0  0  0  0  0  0  0  0  0
   -0.5606    1.0894    2.5047 H   0  0  0  0  0  0  0  0  0  0  0  0
    5.2250   -1.7665    0.8047 H   0  0  0  0  0  0  0  0  0  0  0  0
    6.1625    2.3406   -0.1251 H   0  0  0  0  0  0  0  0  0  0  0  0
   -3.0071    1.0929    2.3576 H   0  0  0  0  0  0  0  0  0  0  0  0
   -6.7978    0.9156   -0.6258 H   0  0  0  0  0  0  0  0  0  0  0  0
   -7.3738   -1.0636    1.6480 H   0  0  0  0  0  0  0  0  0  0  0  0
   -4.8319    0.0567    1.5684 H   0  0  0  0  0  0  0  0  0  0  0  0
   -6.9395   -1.8094   -1.2868 H   0  0  0  0  0  0  0  0  0  0  0  0
   -4.9704   -2.2547    1.0463 H   0  0  0  0  0  0  0  0  0  0  0  0
    8.4745    1.6925   -0.6477 H   0  0  0  0  0  0  0  0  0  0  0  0
   -4.9378   -4.0760   -0.6675 H   0  0  0  0  0  0  0  0  0  0  0  0
   -4.7003   -2.8598   -1.9452 H   0  0  0  0  0  0  0  0  0  0  0  0
   -6.7987    1.1144    2.2105 H   0  0  0  0  0  0  0  0  0  0  0  0
   -9.0582    0.1075    0.6533 H   0  0  0  0  0  0  0  0  0  0  0  0
   -8.2679   -3.0991    0.0563 H   0  0  0  0  0  0  0  0  0  0  0  0
    9.9364    0.0464   -0.7746 H   0  0  0  0  0  0  0  0  0  0  0  0
   -4.0899    0.4402   -2.6524 H   0  0  0  0  0  0  0  0  0  0  0  0
   -2.3337    0.1578   -2.8809 H   0  0  0  0  0  0  0  0  0  0  0  0
   -3.2183    1.2506   -3.9675 H   0  0  0  0  0  0  0  0  0  0  0  0
   -2.8259   -2.1786   -0.8227 H   0  0  0  0  0  0  0  0  0  0  0  0
    8.0649   -3.1130   -1.6722 H   0  0  0  0  0  0  0  0  0  0  0  0
    6.4083   -3.5491   -1.1386 H   0  0  0  0  0  0  0  0  0  0  0  0
    7.8063   -4.5033   -0.5956 H   0  0  0  0  0  0  0  0  0  0  0  0
  1 14  1  0  0  0  0
  1 16  1  0  0  0  0
  2 15  1  0  0  0  0
  2 17  1  0  0  0  0
  3 27  1  0  0  0  0
  3 29  1  0  0  0  0
  4 27  1  0  0  0  0
  4 31  1  0  0  0  0
  5 24  1  0  0  0  0
  5 36  1  0  0  0  0
  6 26  1  0  0  0  0
  6 59  1  0  0  0  0
  7 28  1  0  0  0  0
  7 60  1  0  0  0  0
  8 30  1  0  0  0  0
  8 61  1  0  0  0  0
  9 32  1  0  0  0  0
  9 37  1  0  0  0  0
 10 34  1  0  0  0  0
 10 62  1  0  0  0  0
 11 35  1  0  0  0  0
 11 66  1  0  0  0  0
 12 13  1  0  0  0  0
 12 14  1  0  0  0  0
 12 17  1  0  0  0  0
 12 38  1  0  0  0  0
 13 15  1  0  0  0  0
 13 16  1  0  0  0  0
 13 39  1  0  0  0  0
 14 18  1  0  0  0  0
 14 40  1  0  0  0  0
 15 19  1  0  0  0  0
 15 41  1  0  0  0  0
 16 42  1  0  0  0  0
 16 43  1  0  0  0  0
 17 44  1  0  0  0  0
 17 45  1  0  0  0  0
 18 20  2  0  0  0  0
 18 21  1  0  0  0  0
 19 22  2  0  0  0  0
 19 23  1  0  0  0  0
 20 24  1  0  0  0  0
 20 46  1  0  0  0  0
 21 25  2  0  0  0  0
 21 47  1  0  0  0  0
 22 32  1  0  0  0  0
 22 48  1  0  0  0  0
 23 33  2  0  0  0  0
 23 49  1  0  0  0  0
 24 29  2  0  0  0  0
 25 29  1  0  0  0  0
 25 50  1  0  0  0  0
 26 27  1  0  0  0  0
 26 28  1  0  0  0  0
 26 51  1  0  0  0  0
 27 53  1  0  0  0  0
 28 30  1  0  0  0  0
 28 52  1  0  0  0  0
 30 31  1  0  0  0  0
 30 54  1  0  0  0  0
 31 35  1  0  0  0  0
 31 55  1  0  0  0  0
 32 34  2  0  0  0  0
 33 34  1  0  0  0  0
 33 56  1  0  0  0  0
 35 57  1  0  0  0  0
 35 58  1  0  0  0  0
 36 63  1  0  0  0  0
 36 64  1  0  0  0  0
 36 65  1  0  0  0  0
 37 67  1  0  0  0  0
 37 68  1  0  0  0  0
 37 69  1  0  0  0  0
M  END
> <PUBCHEM_COMPOUND_CID>
11168362

> <PUBCHEM_CONFORMER_RMSD>
1

> <PUBCHEM_CONFORMER_DIVERSEORDER>
1
38
316
27
207
285
78
351
157
338
292
242
356
132
209
301
267
51
283
197
205
41
158
229
330
345
262
140
127
156
128
276
235
104
347
350
67
136
250
332
230
71
263
58
171
14
141
224
255
309
125
237
155
196
109
303
217
295
159
77
143
118
187
327
241
45
352
256
101
179
286
311
198
86
54
133
270
91
21
251
212
348
313
81
165
318
26
248
61
102
312
112
211
174
221
260
254
349
164
162
170
119
160
37
216
183
60
257
252
43
186
130
28
145
32
182
59
339
218
108
299
79
11
261
333
175
325
306
47
75
213
192
202
215
90
105
149
134
94
342
168
151
344
291
271
243
70
20
173
48
253
84
363
152
169
240
66
9
238
199
50
144
232
354
89
353
124
148
343
166
15
296
249
153
310
246
73
287
137
30
272
314
39
154
189
247
359
331
95
284
92
320
6
317
40
355
281
184
52
135
42
107
88
259
31
208
305
80
278
236
226
214
74
357
269
315
245
360
163
334
7
24
341
35
274
289
181
239
49
335
63
288
220
69
300
195
64
113
200
326
8
219
298
329
210
34
139
111
177
304
55
294
33
185
206
98
319
302
44
150
117
188
204
266
142
290
324
122
191
223
87
337
258
233
180
231
178
323
193
129
22
225
121
68
123
25
194
308
307
93
72
18
277
103
203
115
13
23
264
201
265
172
358
36
53
275
147
76
280
161
328
83
228
16
5
126
85
222
190
146
362
19
138
62
131
273
106
279
56
116
17
96
268
29
176
321
12
322
10
340
57
244
3
46
282
293
234
297
336
2
167
361
227
346
110
120
99
65
4
100
97
82
114

> <PUBCHEM_MMFF94_PARTIAL_CHARGES>
46
1 -0.56
10 -0.53
11 -0.68
14 0.42
15 0.42
16 0.28
17 0.28
18 -0.14
19 -0.14
2 -0.56
20 -0.15
21 -0.15
22 -0.15
23 -0.15
24 0.08
25 -0.15
26 0.28
27 0.56
28 0.28
29 0.08
3 -0.36
30 0.28
31 0.28
32 0.08
33 -0.15
34 0.08
35 0.28
36 0.28
37 0.28
4 -0.56
46 0.15
47 0.15
48 0.15
49 0.15
5 -0.36
50 0.15
56 0.15
59 0.4
6 -0.68
60 0.4
61 0.4
62 0.45
66 0.4
7 -0.68
8 -0.68
9 -0.36

> <PUBCHEM_EFFECTIVE_ROTOR_COUNT>
9.4

> <PUBCHEM_PHARMACOPHORE_FEATURES>
20
1 1 acceptor
1 10 donor
1 11 acceptor
1 11 donor
1 2 acceptor
1 3 acceptor
1 4 acceptor
1 5 acceptor
1 6 acceptor
1 6 donor
1 7 acceptor
1 7 donor
1 8 acceptor
1 8 donor
1 9 acceptor
5 1 12 13 14 16 rings
5 2 12 13 15 17 rings
6 18 20 21 24 25 29 rings
6 19 22 23 32 33 34 rings
6 4 26 27 28 30 31 rings

> <PUBCHEM_HEAVY_ATOM_COUNT>
37

> <PUBCHEM_ATOM_DEF_STEREO_COUNT>
9

> <PUBCHEM_ATOM_UDEF_STEREO_COUNT>
0

> <PUBCHEM_BOND_DEF_STEREO_COUNT>
0

> <PUBCHEM_BOND_UDEF_STEREO_COUNT>
0

> <PUBCHEM_ISOTOPIC_ATOM_COUNT>
0

> <PUBCHEM_COMPONENT_COUNT>
1

> <PUBCHEM_CACTVS_TAUTO_COUNT>
3

> <PUBCHEM_CONFORMER_ID>
00AA6A6A00000001

> <PUBCHEM_MMFF94_ENERGY>
140.7314

> <PUBCHEM_FEATURE_SELFOVERLAP>
102.034

> <PUBCHEM_SHAPE_FINGERPRINT>
10 15 16370727006831707136
10299344 5 18411135827050958480
11103572 155 18336546139497318655
11135609 12 18333449841902120494
11135609 99 18260266318108895356
11497681 19 18343302556655173786
11524674 6 17095526180121165855
117089 54 17913484645966772931
12082328 90 18336266842079641548
12166972 35 18411699872791480136
125118 31 8790593820130873946
13248334 5 18050848814724740336
13383668 251 18268159669378613408
13668630 136 18343022211555750296
13690498 29 17988651804378232341
13782708 43 18336267950977048648
14118638 360 16128382618108667928
15183329 4 16845299314812373128
15198563 99 16343436063573946477
15352257 5 18333449850618927966
1577012 14 15769503130677569620
16120349 21 18410292515086879877
17324776 126 16738076986084239663
18603816 31 17895203152209668863
18643901 69 18273215300935150061
19841028 212 18337672044611791082
2026 5 18199468956122848170
23516275 137 18195788881486922579
23522609 53 18127097885022349013
3178227 256 16515405158251937488
4625314 4 18341895199168339165
484985 159 17459207213493088711
504579 68 15554440804432090776
5385378 56 5833718954940573436
54039377 194 18341610383181566259
563151 74 5761661394539483236
6058803 2 15766713755530041801
9831232 110 18191864733852355174
9896288 288 17314219149943775929
999808 66 18334860515172759999

> <PUBCHEM_SHAPE_MULTIPOLES>
696.88
27.78
3.23
1.46
17.74
2.9
0.63
18.9
-0.52
-1.13
0.83
-1.08
-0.61
-0.16

> <PUBCHEM_SHAPE_SELFOVERLAP>
1507.156

> <PUBCHEM_SHAPE_VOLUME>
382.9

> <PUBCHEM_COORDINATE_TYPE>
2
5
10

$$$$

