439932
  -OEChem-07051212482D

 48 47  0     1  0  0  0  0  0999 V2000
    7.7331    0.5000    0.0000 S   0  0  0  0  0  0  0  0  0  0  0  0
    6.8671    1.0000    0.0000 O   0  0  0  0  0  0  0  0  0  0  0  0
    9.4651    3.5000    0.0000 O   0  0  0  0  0  0  0  0  0  0  0  0
    2.5369    2.5000    0.0000 O   0  0  0  0  0  0  0  0  0  0  0  0
    3.4030    1.0000    0.0000 O   0  0  0  0  0  0  0  0  0  0  0  0
    8.5991   -1.0000    0.0000 O   0  0  0  0  0  0  0  0  0  0  0  0
   12.9292    2.5000    0.0000 O   0  0  0  0  0  0  0  0  0  0  0  0
    6.0010   -3.5000    0.0000 O   0  0  0  0  0  0  0  0  0  0  0  0
   12.0632    1.0000    0.0000 O   0  0  0  0  0  0  0  0  0  0  0  0
    5.1350   -2.0000    0.0000 O   0  0  0  0  0  0  0  0  0  0  0  0
    7.7331    2.5000    0.0000 N   0  0  0  0  0  0  0  0  0  0  0  0
   10.3312    2.0000    0.0000 N   0  0  0  0  0  0  0  0  0  0  0  0
    4.2690    3.5000    0.0000 N   0  0  0  0  0  0  0  0  0  0  0  0
    8.5991    2.0000    0.0000 C   0  0  1  0  0  0  0  0  0  0  0  0
    5.1350    2.0000    0.0000 C   0  0  0  0  0  0  0  0  0  0  0  0
    6.0010    2.5000    0.0000 C   0  0  0  0  0  0  0  0  0  0  0  0
    4.2690    2.5000    0.0000 C   0  0  1  0  0  0  0  0  0  0  0  0
    8.5991    1.0000    0.0000 C   0  0  0  0  0  0  0  0  0  0  0  0
    6.8671    2.0000    0.0000 C   0  0  0  0  0  0  0  0  0  0  0  0
    9.4651    2.5000    0.0000 C   0  0  0  0  0  0  0  0  0  0  0  0
    3.4030    2.0000    0.0000 C   0  0  0  0  0  0  0  0  0  0  0  0
    6.8671   -1.0000    0.0000 C   0  0  0  0  0  0  0  0  0  0  0  0
    7.7331   -0.5000    0.0000 C   0  0  0  0  0  0  0  0  0  0  0  0
   11.1972    2.5000    0.0000 C   0  0  0  0  0  0  0  0  0  0  0  0
    6.8671   -2.0000    0.0000 C   0  0  0  0  0  0  0  0  0  0  0  0
   12.0632    2.0000    0.0000 C   0  0  0  0  0  0  0  0  0  0  0  0
    6.0010   -2.5000    0.0000 C   0  0  0  0  0  0  0  0  0  0  0  0
    8.5991    2.6200    0.0000 H   0  0  0  0  0  0  0  0  0  0  0  0
    4.7365    1.5250    0.0000 H   0  0  0  0  0  0  0  0  0  0  0  0
    5.5335    1.5250    0.0000 H   0  0  0  0  0  0  0  0  0  0  0  0
    6.3996    2.9750    0.0000 H   0  0  0  0  0  0  0  0  0  0  0  0
    5.6025    2.9750    0.0000 H   0  0  0  0  0  0  0  0  0  0  0  0
    4.8059    2.8100    0.0000 H   0  0  0  0  0  0  0  0  0  0  0  0
    7.7331    3.1200    0.0000 H   0  0  0  0  0  0  0  0  0  0  0  0
    8.8112    0.4174    0.0000 H   0  0  0  0  0  0  0  0  0  0  0  0
    9.2097    1.1077    0.0000 H   0  0  0  0  0  0  0  0  0  0  0  0
   10.3312    1.3800    0.0000 H   0  0  0  0  0  0  0  0  0  0  0  0
    3.7320    3.8100    0.0000 H   0  0  0  0  0  0  0  0  0  0  0  0
    4.8059    3.8100    0.0000 H   0  0  0  0  0  0  0  0  0  0  0  0
    6.6550   -0.4174    0.0000 H   0  0  0  0  0  0  0  0  0  0  0  0
    6.2565   -1.1077    0.0000 H   0  0  0  0  0  0  0  0  0  0  0  0
   11.5957    2.9750    0.0000 H   0  0  0  0  0  0  0  0  0  0  0  0
   10.7987    2.9750    0.0000 H   0  0  0  0  0  0  0  0  0  0  0  0
    7.0791   -2.5826    0.0000 H   0  0  0  0  0  0  0  0  0  0  0  0
    7.4776   -1.8923    0.0000 H   0  0  0  0  0  0  0  0  0  0  0  0
    2.0000    2.1900    0.0000 H   0  0  0  0  0  0  0  0  0  0  0  0
   13.4662    2.1900    0.0000 H   0  0  0  0  0  0  0  0  0  0  0  0
    5.4641   -3.8100    0.0000 H   0  0  0  0  0  0  0  0  0  0  0  0
  1 18  1  0  0  0  0
  1 23  1  0  0  0  0
  2 19  2  0  0  0  0
  3 20  2  0  0  0  0
  4 21  1  0  0  0  0
  4 46  1  0  0  0  0
  5 21  2  0  0  0  0
  6 23  2  0  0  0  0
  7 26  1  0  0  0  0
  7 47  1  0  0  0  0
  8 27  1  0  0  0  0
  8 48  1  0  0  0  0
  9 26  2  0  0  0  0
 10 27  2  0  0  0  0
 14 11  1  6  0  0  0
 11 19  1  0  0  0  0
 11 34  1  0  0  0  0
 12 20  1  0  0  0  0
 12 24  1  0  0  0  0
 12 37  1  0  0  0  0
 17 13  1  1  0  0  0
 13 38  1  0  0  0  0
 13 39  1  0  0  0  0
 14 18  1  0  0  0  0
 14 20  1  0  0  0  0
 14 28  1  0  0  0  0
 15 16  1  0  0  0  0
 15 17  1  0  0  0  0
 15 29  1  0  0  0  0
 15 30  1  0  0  0  0
 16 19  1  0  0  0  0
 16 31  1  0  0  0  0
 16 32  1  0  0  0  0
 17 21  1  0  0  0  0
 17 33  1  0  0  0  0
 18 35  1  0  0  0  0
 18 36  1  0  0  0  0
 22 23  1  0  0  0  0
 22 25  1  0  0  0  0
 22 40  1  0  0  0  0
 22 41  1  0  0  0  0
 24 26  1  0  0  0  0
 24 42  1  0  0  0  0
 24 43  1  0  0  0  0
 25 27  1  0  0  0  0
 25 44  1  0  0  0  0
 25 45  1  0  0  0  0
M  END
> <PUBCHEM_COMPOUND_CID>
439932

> <PUBCHEM_COMPOUND_CANONICALIZED>
1

> <PUBCHEM_CACTVS_COMPLEXITY>
596

> <PUBCHEM_CACTVS_HBOND_ACCEPTOR>
11

> <PUBCHEM_CACTVS_HBOND_DONOR>
6

> <PUBCHEM_CACTVS_ROTATABLE_BOND>
14

> <PUBCHEM_CACTVS_SUBSKEYS>
AAADceBzPABAAAAAAAAAAAAAAAAAAAAAAAAAAAAAAAAAAAAAAAAAHgQQCAAACCjFwASACALAAggIAAGQGAAAAAAAABAAAIGIAAACQBIggCAUQAAEFgCwAACfFwIAAAAAAAAAAAAAAAAAAAAAAAAAAAAAAA==

> <PUBCHEM_IUPAC_OPENEYE_NAME>
(2S)-2-amino-5-[[(1R)-2-(carboxymethylamino)-1-(3-carboxypropanoylsulfanylmethyl)-2-oxo-ethyl]amino]-5-oxo-pentanoic acid

> <PUBCHEM_IUPAC_CAS_NAME>
(2S)-2-amino-5-[[(2R)-1-(carboxymethylamino)-3-[(3-carboxy-1-oxopropyl)thio]-1-oxopropan-2-yl]amino]-5-oxopentanoic acid

> <PUBCHEM_IUPAC_NAME>
(2S)-2-amino-5-[[(2R)-1-(carboxymethylamino)-3-(3-carboxypropanoylsulfanyl)-1-oxopropan-2-yl]amino]-5-oxopentanoic acid

> <PUBCHEM_IUPAC_SYSTEMATIC_NAME>
(2S)-2-azanyl-5-[[(2R)-1-(2-hydroxy-2-oxoethylamino)-1-oxidanylidene-3-(4-oxidanyl-4-oxidanylidene-butanoyl)sulfanyl-propan-2-yl]amino]-5-oxidanylidene-pentanoic acid

> <PUBCHEM_IUPAC_TRADITIONAL_NAME>
(2S)-2-amino-5-[[(1R)-2-(carboxymethylamino)-1-[(3-carboxypropanoylthio)methyl]-2-keto-ethyl]amino]-5-keto-valeric acid

> <PUBCHEM_IUPAC_INCHI>
InChI=1S/C14H21N3O9S/c15-7(14(25)26)1-2-9(18)17-8(13(24)16-5-11(21)22)6-27-12(23)4-3-10(19)20/h7-8H,1-6,15H2,(H,16,24)(H,17,18)(H,19,20)(H,21,22)(H,25,26)/t7-,8-/m0/s1

> <PUBCHEM_IUPAC_INCHIKEY>
CEWPGJBJGGBRQM-YUMQZZPRSA-N

> <PUBCHEM_XLOGP3_AA>
-4.9

> <PUBCHEM_EXACT_MASS>
407.09985

> <PUBCHEM_MOLECULAR_FORMULA>
C14H21N3O9S

> <PUBCHEM_MOLECULAR_WEIGHT>
407.39624

> <PUBCHEM_OPENEYE_CAN_SMILES>
C(CC(=O)NC(CSC(=O)CCC(=O)O)C(=O)NCC(=O)O)C(C(=O)O)N

> <PUBCHEM_OPENEYE_ISO_SMILES>
C(CC(=O)N[C@@H](CSC(=O)CCC(=O)O)C(=O)NCC(=O)O)[C@@H](C(=O)O)N

> <PUBCHEM_CACTVS_TPSA>
239

> <PUBCHEM_MONOISOTOPIC_WEIGHT>
407.09985

> <PUBCHEM_TOTAL_CHARGE>
0

> <PUBCHEM_HEAVY_ATOM_COUNT>
27

> <PUBCHEM_ATOM_DEF_STEREO_COUNT>
2

> <PUBCHEM_ATOM_UDEF_STEREO_COUNT>
0

> <PUBCHEM_BOND_DEF_STEREO_COUNT>
0

> <PUBCHEM_BOND_UDEF_STEREO_COUNT>
0

> <PUBCHEM_ISOTOPIC_ATOM_COUNT>
0

> <PUBCHEM_COMPONENT_COUNT>
1

> <PUBCHEM_CACTVS_TAUTO_COUNT>
4

> <PUBCHEM_COORDINATE_TYPE>
1
5
255

> <PUBCHEM_BONDANNOTATIONS>
14  11  6
17  13  5

$$$$

