5281766
  -OEChem-07051212593D

 42 43  0     1  0  0  0  0  0999 V2000
   -0.4816    1.2395   -0.1883 O   0  0  0  0  0  0  0  0  0  0  0  0
   -4.0333   -1.4986   -1.3377 O   0  0  0  0  0  0  0  0  0  0  0  0
   -2.7063    2.6293   -1.3229 O   0  0  0  0  0  0  0  0  0  0  0  0
   -1.3545   -1.3913   -0.3168 O   0  0  0  0  0  0  0  0  0  0  0  0
   -6.1241   -0.0906    1.1479 O   0  0  0  0  0  0  0  0  0  0  0  0
   -6.4432   -1.7593   -0.3717 O   0  0  0  0  0  0  0  0  0  0  0  0
    0.2548    1.2058    2.0012 O   0  0  0  0  0  0  0  0  0  0  0  0
    7.8459   -0.9990   -1.0102 O   0  0  0  0  0  0  0  0  0  0  0  0
   -4.3182   -0.6067   -0.2668 C   0  0  0  0  0  0  0  0  0  0  0  0
   -1.8309    0.9446    0.1690 C   0  0  0  0  0  0  0  0  0  0  0  0
   -4.1844    0.8432   -0.7370 C   0  0  0  0  0  0  0  0  0  0  0  0
   -3.3867   -0.9127    0.9150 C   0  0  0  0  0  0  0  0  0  0  0  0
   -2.7341    1.2317   -1.0327 C   0  0  1  0  0  0  0  0  0  0  0  0
   -1.9326   -0.5083    0.6452 C   0  0  1  0  0  0  0  0  0  0  0  0
   -5.7334   -0.9045    0.1369 C   0  0  0  0  0  0  0  0  0  0  0  0
    0.4396    1.0737    0.8018 C   0  0  0  0  0  0  0  0  0  0  0  0
    1.7240    0.7019    0.1662 C   0  0  0  0  0  0  0  0  0  0  0  0
    2.7982    0.4696    0.9342 C   0  0  0  0  0  0  0  0  0  0  0  0
    4.1249    0.0835    0.4223 C   0  0  0  0  0  0  0  0  0  0  0  0
    4.4422    0.3375   -0.9019 C   0  0  0  0  0  0  0  0  0  0  0  0
    5.0294   -0.5262    1.2766 C   0  0  0  0  0  0  0  0  0  0  0  0
    5.6984   -0.0282   -1.3855 C   0  0  0  0  0  0  0  0  0  0  0  0
    6.2857   -0.8919    0.7931 C   0  0  0  0  0  0  0  0  0  0  0  0
    6.6204   -0.6428   -0.5380 C   0  0  0  0  0  0  0  0  0  0  0  0
   -2.1204    1.6250    0.9821 H   0  0  0  0  0  0  0  0  0  0  0  0
   -4.5898    1.5395    0.0095 H   0  0  0  0  0  0  0  0  0  0  0  0
   -4.7845    1.0089   -1.6420 H   0  0  0  0  0  0  0  0  0  0  0  0
   -3.4188   -1.9891    1.1298 H   0  0  0  0  0  0  0  0  0  0  0  0
   -3.7246   -0.3881    1.8175 H   0  0  0  0  0  0  0  0  0  0  0  0
   -2.3614    0.7151   -1.9245 H   0  0  0  0  0  0  0  0  0  0  0  0
   -1.3635   -0.6627    1.5668 H   0  0  0  0  0  0  0  0  0  0  0  0
   -4.5699   -1.2354   -2.1049 H   0  0  0  0  0  0  0  0  0  0  0  0
   -3.2738    2.7793   -2.0981 H   0  0  0  0  0  0  0  0  0  0  0  0
   -1.8835   -1.3483   -1.1305 H   0  0  0  0  0  0  0  0  0  0  0  0
   -7.0477   -0.2689    1.4259 H   0  0  0  0  0  0  0  0  0  0  0  0
    1.7293    0.6099   -0.9136 H   0  0  0  0  0  0  0  0  0  0  0  0
    2.7232    0.5514    2.0163 H   0  0  0  0  0  0  0  0  0  0  0  0
    3.7653    0.8326   -1.5909 H   0  0  0  0  0  0  0  0  0  0  0  0
    4.7831   -0.7282    2.3156 H   0  0  0  0  0  0  0  0  0  0  0  0
    5.9491    0.1754   -2.4232 H   0  0  0  0  0  0  0  0  0  0  0  0
    6.9994   -1.3708    1.4580 H   0  0  0  0  0  0  0  0  0  0  0  0
    7.9057   -0.7527   -1.9493 H   0  0  0  0  0  0  0  0  0  0  0  0
  1 10  1  0  0  0  0
  1 16  1  0  0  0  0
  2  9  1  0  0  0  0
  2 32  1  0  0  0  0
  3 13  1  0  0  0  0
  3 33  1  0  0  0  0
  4 14  1  0  0  0  0
  4 34  1  0  0  0  0
  5 15  1  0  0  0  0
  5 35  1  0  0  0  0
  6 15  2  0  0  0  0
  7 16  2  0  0  0  0
  8 24  1  0  0  0  0
  8 42  1  0  0  0  0
  9 11  1  0  0  0  0
  9 12  1  0  0  0  0
  9 15  1  0  0  0  0
 10 13  1  0  0  0  0
 10 14  1  0  0  0  0
 10 25  1  0  0  0  0
 11 13  1  0  0  0  0
 11 26  1  0  0  0  0
 11 27  1  0  0  0  0
 12 14  1  0  0  0  0
 12 28  1  0  0  0  0
 12 29  1  0  0  0  0
 13 30  1  0  0  0  0
 14 31  1  0  0  0  0
 16 17  1  0  0  0  0
 17 18  2  0  0  0  0
 17 36  1  0  0  0  0
 18 19  1  0  0  0  0
 18 37  1  0  0  0  0
 19 20  2  0  0  0  0
 19 21  1  0  0  0  0
 20 22  1  0  0  0  0
 20 38  1  0  0  0  0
 21 23  2  0  0  0  0
 21 39  1  0  0  0  0
 22 24  2  0  0  0  0
 22 40  1  0  0  0  0
 23 24  1  0  0  0  0
 23 41  1  0  0  0  0
M  END
> <PUBCHEM_COMPOUND_CID>
5281766

> <PUBCHEM_CONFORMER_RMSD>
0.8

> <PUBCHEM_CONFORMER_DIVERSEORDER>
1
30
21
31
39
46
18
27
5
8
40
26
12
2
4
10
44
34
19
33
25
3
23
43
7
35
38
37
6
36
32
47
22
13
17
45
11
20
16
29
9
42
24
15
14
28
41

> <PUBCHEM_MMFF94_PARTIAL_CHARGES>
33
1 -0.43
10 0.28
13 0.28
14 0.28
15 0.66
16 0.71
17 -0.14
18 -0.18
19 0.03
2 -0.68
20 -0.15
21 -0.15
22 -0.15
23 -0.15
24 0.08
3 -0.68
32 0.4
33 0.4
34 0.4
35 0.5
36 0.15
37 0.15
38 0.15
39 0.15
4 -0.68
40 0.15
41 0.15
42 0.45
5 -0.65
6 -0.57
7 -0.57
8 -0.53
9 0.34

> <PUBCHEM_EFFECTIVE_ROTOR_COUNT>
6.2

> <PUBCHEM_PHARMACOPHORE_FEATURES>
13
1 2 acceptor
1 2 donor
1 3 acceptor
1 3 donor
1 4 acceptor
1 4 donor
1 5 acceptor
1 6 acceptor
1 7 acceptor
1 8 donor
3 5 6 15 anion
6 19 20 21 22 23 24 rings
6 9 10 11 12 13 14 rings

> <PUBCHEM_HEAVY_ATOM_COUNT>
24

> <PUBCHEM_ATOM_DEF_STEREO_COUNT>
2

> <PUBCHEM_ATOM_UDEF_STEREO_COUNT>
0

> <PUBCHEM_BOND_DEF_STEREO_COUNT>
1

> <PUBCHEM_BOND_UDEF_STEREO_COUNT>
0

> <PUBCHEM_ISOTOPIC_ATOM_COUNT>
0

> <PUBCHEM_COMPONENT_COUNT>
1

> <PUBCHEM_CACTVS_TAUTO_COUNT>
2

> <PUBCHEM_CONFORMER_ID>
005097E600000001

> <PUBCHEM_MMFF94_ENERGY>
64.6397

> <PUBCHEM_FEATURE_SELFOVERLAP>
66.039

> <PUBCHEM_SHAPE_FINGERPRINT>
10 15 5328459319712661466
10299344 5 18273492381907122331
10595046 47 17704072928202004164
10670039 82 17418097645856045740
11524674 6 17240766168518760463
12166972 35 18410853253180227100
12236239 1 16917352558085430924
12516196 113 17312822663007597760
12596602 18 5184058250076448966
12616971 3 15502384404655837368
12954195 1 18342745160680567909
13288520 33 18342459236243897365
13668630 136 18260263058286817878
13673619 4 18408042888368865265
13685833 64 17894630340393799386
13782708 43 18261117309896557067
14251764 18 5472851567412240512
14347332 77 18271814539758238317
14528608 73 14692575411806324600
14617045 38 18409445899523616506
14849402 71 4750571406487533370
15003188 100 14907891648950944102
15183329 4 17346599690525541042
15348495 7 15864362293857126978
15537594 2 18408608062661931418
15716309 27 16081088195392609112
1577012 14 17131836516641699476
16992828 155 16269969023750975669
17780758 139 15791735187208191663
17844677 252 18407478860347289968
1813 80 16660352667750539168
18335252 98 14261343657363996425
18643901 69 18410284826483717982
18927931 339 18343023281398194071
2026 5 18192989542991303694
20281389 69 9151179740332842202
21150785 3 15985100804085515466
21267235 1 18131067100807340635
21424621 283 10015042988393708095
21623969 137 17167859773210646990
21859007 373 14708308396840208001
221357 26 16272212985839200844
2297311 6 18343584044870519557
23035841 295 18333730217045520962
23081809 10 17203332264633054072
23198884 109 16845573127604246570
23522609 53 18195778882666133461
23559900 14 17844808096594822084
246663 6 18342172246582101843
3004659 81 18413388727114684656
312425 54 5111997327781485422
335352 9 18131639985378989445
34797466 226 18410006612363332260
351380 3 18410296899684318018
3663271 9 5472847169792822318
497634 4 16917353653544548591
5104073 3 16009306647640884498
7226269 152 7925918080105775335

> <PUBCHEM_SHAPE_MULTIPOLES>
446.95
19.1
1.6
1.37
15.96
0.54
0.15
-8.35
-4.66
-1.97
-0.34
0.65
0.06
0

> <PUBCHEM_SHAPE_SELFOVERLAP>
948.053

> <PUBCHEM_SHAPE_VOLUME>
246.4

> <PUBCHEM_COORDINATE_TYPE>
2
5
10

$$$$

