442415
  -OEChem-07051212583D

 42 44  0     1  0  0  0  0  0999 V2000
   -0.1799    1.2866    0.0013 O   0  0  0  0  0  0  0  0  0  0  0  0
   -1.4495   -2.1239    0.6408 O   0  0  0  0  0  0  0  0  0  0  0  0
    1.2092   -2.4544    0.9691 O   0  0  0  0  0  0  0  0  0  0  0  0
    3.6412   -1.6185    0.7278 O   0  0  0  0  0  0  0  0  0  0  0  0
    5.2831    0.4720    0.1284 O   0  0  0  0  0  0  0  0  0  0  0  0
    4.2221    2.9482   -0.4935 O   0  0  0  0  0  0  0  0  0  0  0  0
   -6.4043    1.7826    0.1070 O   0  0  0  0  0  0  0  0  0  0  0  0
   -0.5380   -2.3692   -1.4679 O   0  0  0  0  0  0  0  0  0  0  0  0
   -0.9973    0.1207   -0.1885 C   0  0  1  0  0  0  0  0  0  0  0  0
   -0.6783   -0.9539    0.8531 C   0  0  2  0  0  0  0  0  0  0  0  0
    0.7840   -1.3271    0.7462 C   0  0  0  0  0  0  0  0  0  0  0  0
    1.6972   -0.2248    0.3849 C   0  0  0  0  0  0  0  0  0  0  0  0
   -2.4453    0.5653   -0.1092 C   0  0  0  0  0  0  0  0  0  0  0  0
    1.1627    1.0214    0.0494 C   0  0  0  0  0  0  0  0  0  0  0  0
    3.0812   -0.4172    0.4070 C   0  0  0  0  0  0  0  0  0  0  0  0
    2.0183    2.0882   -0.2314 C   0  0  0  0  0  0  0  0  0  0  0  0
   -3.2732    0.4363   -1.2223 C   0  0  0  0  0  0  0  0  0  0  0  0
   -2.9424    1.1022    1.0764 C   0  0  0  0  0  0  0  0  0  0  0  0
    3.9304    0.6485    0.1076 C   0  0  0  0  0  0  0  0  0  0  0  0
    3.4004    1.8999   -0.2064 C   0  0  0  0  0  0  0  0  0  0  0  0
   -4.6046    0.8462   -1.1494 C   0  0  0  0  0  0  0  0  0  0  0  0
   -4.2738    1.5119    1.1493 C   0  0  0  0  0  0  0  0  0  0  0  0
   -5.1049    1.3839    0.0365 C   0  0  0  0  0  0  0  0  0  0  0  0
   -1.2835   -2.7397   -0.5711 C   0  0  0  0  0  0  0  0  0  0  0  0
   -2.1559   -3.9555   -0.6536 C   0  0  0  0  0  0  0  0  0  0  0  0
    5.9011    0.0705   -1.0916 C   0  0  0  0  0  0  0  0  0  0  0  0
   -0.8062   -0.1958   -1.2180 H   0  0  0  0  0  0  0  0  0  0  0  0
   -0.8413   -0.6101    1.8809 H   0  0  0  0  0  0  0  0  0  0  0  0
    1.6019    3.0619   -0.4784 H   0  0  0  0  0  0  0  0  0  0  0  0
   -2.8989    0.0181   -2.1526 H   0  0  0  0  0  0  0  0  0  0  0  0
   -2.3082    1.2202    1.9505 H   0  0  0  0  0  0  0  0  0  0  0  0
   -5.2418    0.7405   -2.0233 H   0  0  0  0  0  0  0  0  0  0  0  0
   -4.6573    1.9321    2.0751 H   0  0  0  0  0  0  0  0  0  0  0  0
    2.9581   -2.2854    0.8924 H   0  0  0  0  0  0  0  0  0  0  0  0
   -3.2049   -3.6646   -0.5577 H   0  0  0  0  0  0  0  0  0  0  0  0
   -1.8786   -4.6637    0.1312 H   0  0  0  0  0  0  0  0  0  0  0  0
   -2.0150   -4.4380   -1.6250 H   0  0  0  0  0  0  0  0  0  0  0  0
    3.6804    3.7322   -0.6879 H   0  0  0  0  0  0  0  0  0  0  0  0
    5.5077   -0.8953   -1.4241 H   0  0  0  0  0  0  0  0  0  0  0  0
    6.9751   -0.0329   -0.9138 H   0  0  0  0  0  0  0  0  0  0  0  0
    5.7470    0.8256   -1.8688 H   0  0  0  0  0  0  0  0  0  0  0  0
   -6.8306    1.6211   -0.7522 H   0  0  0  0  0  0  0  0  0  0  0  0
  1  9  1  0  0  0  0
  1 14  1  0  0  0  0
  2 10  1  0  0  0  0
  2 24  1  0  0  0  0
  3 11  2  0  0  0  0
  4 15  1  0  0  0  0
  4 34  1  0  0  0  0
  5 19  1  0  0  0  0
  5 26  1  0  0  0  0
  6 20  1  0  0  0  0
  6 38  1  0  0  0  0
  7 23  1  0  0  0  0
  7 42  1  0  0  0  0
  8 24  2  0  0  0  0
  9 10  1  0  0  0  0
  9 13  1  0  0  0  0
  9 27  1  0  0  0  0
 10 11  1  0  0  0  0
 10 28  1  0  0  0  0
 11 12  1  0  0  0  0
 12 14  2  0  0  0  0
 12 15  1  0  0  0  0
 13 17  2  0  0  0  0
 13 18  1  0  0  0  0
 14 16  1  0  0  0  0
 15 19  2  0  0  0  0
 16 20  2  0  0  0  0
 16 29  1  0  0  0  0
 17 21  1  0  0  0  0
 17 30  1  0  0  0  0
 18 22  2  0  0  0  0
 18 31  1  0  0  0  0
 19 20  1  0  0  0  0
 21 23  2  0  0  0  0
 21 32  1  0  0  0  0
 22 23  1  0  0  0  0
 22 33  1  0  0  0  0
 24 25  1  0  0  0  0
 25 35  1  0  0  0  0
 25 36  1  0  0  0  0
 25 37  1  0  0  0  0
 26 39  1  0  0  0  0
 26 40  1  0  0  0  0
 26 41  1  0  0  0  0
M  END
> <PUBCHEM_COMPOUND_CID>
442415

> <PUBCHEM_CONFORMER_RMSD>
0.8

> <PUBCHEM_CONFORMER_DIVERSEORDER>
1
3
6
7
10
4
9
8
5
2

> <PUBCHEM_MMFF94_PARTIAL_CHARGES>
34
1 -0.36
10 0.34
11 0.42
12 0.09
13 -0.14
14 0.08
15 0.08
16 -0.15
17 -0.15
18 -0.15
19 0.08
2 -0.43
20 0.08
21 -0.15
22 -0.15
23 0.08
24 0.66
25 0.06
26 0.28
29 0.15
3 -0.57
30 0.15
31 0.15
32 0.15
33 0.15
34 0.45
38 0.45
4 -0.53
42 0.45
5 -0.36
6 -0.53
7 -0.53
8 -0.57
9 0.42

> <PUBCHEM_EFFECTIVE_ROTOR_COUNT>
4.6

> <PUBCHEM_PHARMACOPHORE_FEATURES>
10
1 1 acceptor
1 3 acceptor
1 4 donor
1 5 acceptor
1 6 donor
1 7 donor
1 8 acceptor
6 1 9 10 11 12 14 rings
6 12 14 15 16 19 20 rings
6 13 17 18 21 22 23 rings

> <PUBCHEM_HEAVY_ATOM_COUNT>
26

> <PUBCHEM_ATOM_DEF_STEREO_COUNT>
2

> <PUBCHEM_ATOM_UDEF_STEREO_COUNT>
0

> <PUBCHEM_BOND_DEF_STEREO_COUNT>
0

> <PUBCHEM_BOND_UDEF_STEREO_COUNT>
0

> <PUBCHEM_ISOTOPIC_ATOM_COUNT>
0

> <PUBCHEM_COMPONENT_COUNT>
1

> <PUBCHEM_CACTVS_TAUTO_COUNT>
42

> <PUBCHEM_CONFORMER_ID>
0006C02F00000001

> <PUBCHEM_MMFF94_ENERGY>
86.3931

> <PUBCHEM_FEATURE_SELFOVERLAP>
50.774

> <PUBCHEM_SHAPE_FINGERPRINT>
10411042 1 17549266281720026586
1100329 8 18411989065660222402
11578080 2 17606132688353528760
11796584 16 15574716910754622516
12236239 1 18114187488355321785
12643181 29 18335131017421087926
12788726 201 17749384926946881529
12954195 1 18261675861840553247
13140716 1 18343026553878216448
13540713 5 18198919023919199994
13583140 156 17847057774899813899
14790565 3 18337668719494895657
15099037 51 18411418427688843748
15131766 46 15840118024516408142
15196674 1 18269835324945499008
16752209 62 17970079858736384207
17138139 8 17754494238229628127
18603816 31 17096095791975123630
20602899 9 17095238094868364191
20739085 24 17978219788103032921
20775438 99 15805013740430570199
21033648 144 18337966584130014420
21033648 29 17560533866506951973
21307412 95 17969758931007601934
229495 10 17272594942366730406
23227448 37 18341615867153027463
23558518 356 17771343063570032992
23559900 14 18261393300711876744
23598288 3 18116999879452277263
25147074 1 18200046049023058770
335352 9 18413387649188656868
34934 24 18341898485208067866
350125 39 18196928877612709201
38695281 34 18337113483639497279
4340502 62 16415193528948592233
474 4 18336265760221980633
5104073 3 18200601272562651016
633830 44 18115582781353277917
6669772 16 18337667628631303062
7164475 11 17976542710763912510
7832392 63 18339646642307669864
8272917 22 18192430994961544197
9981440 41 16886697929175076768
9999458 23 18059574736612217066

> <PUBCHEM_SHAPE_MULTIPOLES>
488.11
11.25
3.34
1.1
0.42
2.98
0.09
-7.84
1.59
-1.1
0.46
-0.46
0.2
-1.06

> <PUBCHEM_SHAPE_SELFOVERLAP>
1074.116

> <PUBCHEM_SHAPE_VOLUME>
260.7

> <PUBCHEM_COORDINATE_TYPE>
2
5
10

$$$$

