582812
  -OEChem-06241222443D

 11 11  0     0  0  0  0  0  0999 V2000
   -2.4060    0.8423    0.0003 F   0  0  0  0  0  0  0  0  0  0  0  0
   -1.5989   -1.7322    0.0008 O   0  0  0  0  0  0  0  0  0  0  0  0
    2.7901   -0.3039    0.0006 O   0  0  0  0  0  0  0  0  0  0  0  0
    0.6405   -1.0975   -0.0008 N   0  0  0  0  0  0  0  0  0  0  0  0
    1.0648    1.2013    0.0000 N   0  0  0  0  0  0  0  0  0  0  0  0
   -0.2517    1.5159    0.0000 N   0  0  0  0  0  0  0  0  0  0  0  0
   -0.7157   -0.8904   -0.0006 C   0  0  0  0  0  0  0  0  0  0  0  0
    1.5780   -0.0804    0.0001 C   0  0  0  0  0  0  0  0  0  0  0  0
   -1.1010    0.5449   -0.0005 C   0  0  0  0  0  0  0  0  0  0  0  0
    0.9778   -2.0556   -0.0008 H   0  0  0  0  0  0  0  0  0  0  0  0
    1.6886    2.0020    0.0005 H   0  0  0  0  0  0  0  0  0  0  0  0
  1  9  1  0  0  0  0
  2  7  2  0  0  0  0
  3  8  2  0  0  0  0
  4  7  1  0  0  0  0
  4  8  1  0  0  0  0
  4 10  1  0  0  0  0
  5  6  1  0  0  0  0
  5  8  1  0  0  0  0
  5 11  1  0  0  0  0
  6  9  2  0  0  0  0
  7  9  1  0  0  0  0
M  END
> <PUBCHEM_COMPOUND_CID>
582812

> <PUBCHEM_CONFORMER_RMSD>
0.4

> <PUBCHEM_CONFORMER_DIVERSEORDER>
1

> <PUBCHEM_MMFF94_PARTIAL_CHARGES>
11
1 -0.22
10 0.37
11 0.37
2 -0.57
3 -0.57
4 -0.49
5 -0.37
6 -0.51
7 0.63
8 0.69
9 0.67

> <PUBCHEM_EFFECTIVE_ROTOR_COUNT>
0

> <PUBCHEM_PHARMACOPHORE_FEATURES>
6
1 2 acceptor
1 3 acceptor
1 4 donor
1 5 donor
1 6 acceptor
6 4 5 6 7 8 9 rings

> <PUBCHEM_HEAVY_ATOM_COUNT>
9

> <PUBCHEM_ATOM_DEF_STEREO_COUNT>
0

> <PUBCHEM_ATOM_UDEF_STEREO_COUNT>
0

> <PUBCHEM_BOND_DEF_STEREO_COUNT>
0

> <PUBCHEM_BOND_UDEF_STEREO_COUNT>
0

> <PUBCHEM_ISOTOPIC_ATOM_COUNT>
0

> <PUBCHEM_COMPONENT_COUNT>
1

> <PUBCHEM_CACTVS_TAUTO_COUNT>
6

> <PUBCHEM_CONFORMER_ID>
0008E49C00000001

> <PUBCHEM_MMFF94_ENERGY>
16.3102

> <PUBCHEM_FEATURE_SELFOVERLAP>
30.489

> <PUBCHEM_SHAPE_FINGERPRINT>
16714656 1 18339358672997477260
18185500 45 18341897389516724946
21040471 1 18338797947721103172
23235685 24 18336833107536364004
23552423 10 18201156538407700046
29004967 10 17917417791567028808

> <PUBCHEM_SHAPE_MULTIPOLES>
151.26
2.8
1.57
0.55
0.81
0.08
0
0.13
0
-0.55
0
0
0.01
0

> <PUBCHEM_SHAPE_SELFOVERLAP>
314.347

> <PUBCHEM_SHAPE_VOLUME>
84.7

> <PUBCHEM_COORDINATE_TYPE>
2
5
10

$$$$

