5282151
  -OEChem-07051213033D

 71 75  0     1  0  0  0  0  0999 V2000
    1.6451    1.6661    0.1463 O   0  0  0  0  0  0  0  0  0  0  0  0
   -1.0902    0.8732    2.4615 O   0  0  0  0  0  0  0  0  0  0  0  0
    1.8202    0.3384   -1.8127 O   0  0  0  0  0  0  0  0  0  0  0  0
   -0.5002    3.5140   -0.6403 O   0  0  0  0  0  0  0  0  0  0  0  0
   -2.0622    4.3088    1.6474 O   0  0  0  0  0  0  0  0  0  0  0  0
    2.9044    2.6609   -3.1129 O   0  0  0  0  0  0  0  0  0  0  0  0
    5.3884    2.4517   -1.8756 O   0  0  0  0  0  0  0  0  0  0  0  0
    5.4097   -0.3503   -1.3331 O   0  0  0  0  0  0  0  0  0  0  0  0
   -2.7761    1.3449    4.5781 O   0  0  0  0  0  0  0  0  0  0  0  0
   -1.0812   -0.9649    0.2626 O   0  0  0  0  0  0  0  0  0  0  0  0
    2.4339   -0.2178    3.3819 O   0  0  0  0  0  0  0  0  0  0  0  0
    1.8962   -4.5618    1.5637 O   0  0  0  0  0  0  0  0  0  0  0  0
   -0.0673   -4.8896   -0.1463 O   0  0  0  0  0  0  0  0  0  0  0  0
   -6.0598    0.6650   -3.2782 O   0  0  0  0  0  0  0  0  0  0  0  0
    0.2836    1.5717    0.5649 C   0  0  2  0  0  0  0  0  0  0  0  0
   -0.3039    2.9816    0.6709 C   0  0  2  0  0  0  0  0  0  0  0  0
    0.2352    0.8525    1.9217 C   0  0  2  0  0  0  0  0  0  0  0  0
   -1.6569    2.9684    1.3820 C   0  0  1  0  0  0  0  0  0  0  0  0
   -1.5698    2.1971    2.7003 C   0  0  1  0  0  0  0  0  0  0  0  0
    1.7549    1.6628   -1.2728 C   0  0  2  0  0  0  0  0  0  0  0  0
    2.9748    2.4782   -1.6980 C   0  0  1  0  0  0  0  0  0  0  0  0
    4.2710    1.7546   -1.3294 C   0  0  1  0  0  0  0  0  0  0  0  0
    4.2658    0.3195   -1.8573 C   0  0  2  0  0  0  0  0  0  0  0  0
    2.9820   -0.3990   -1.4193 C   0  0  2  0  0  0  0  0  0  0  0  0
    0.6638   -0.5975    1.8103 C   0  0  0  0  0  0  0  0  0  0  0  0
   -2.9321    2.0761    3.3756 C   0  0  0  0  0  0  0  0  0  0  0  0
   -0.0216   -1.4745    0.9691 C   0  0  0  0  0  0  0  0  0  0  0  0
    2.8618   -1.7865   -2.0434 C   0  0  0  0  0  0  0  0  0  0  0  0
    1.7501   -1.0575    2.5550 C   0  0  0  0  0  0  0  0  0  0  0  0
    0.3796   -2.8061    0.8754 C   0  0  0  0  0  0  0  0  0  0  0  0
    2.1503   -2.3913    2.4597 C   0  0  0  0  0  0  0  0  0  0  0  0
    1.4664   -3.2707    1.6195 C   0  0  0  0  0  0  0  0  0  0  0  0
   -0.3621   -3.7094   -0.0177 C   0  0  0  0  0  0  0  0  0  0  0  0
   -1.7773   -1.8115   -0.5868 C   0  0  0  0  0  0  0  0  0  0  0  0
   -1.4923   -3.1122   -0.7575 C   0  0  0  0  0  0  0  0  0  0  0  0
   -2.9005   -1.1627   -1.2925 C   0  0  0  0  0  0  0  0  0  0  0  0
   -3.2976   -1.6208   -2.5511 C   0  0  0  0  0  0  0  0  0  0  0  0
   -3.5709   -0.0871   -0.7045 C   0  0  0  0  0  0  0  0  0  0  0  0
   -4.3582   -1.0072   -3.2177 C   0  0  0  0  0  0  0  0  0  0  0  0
   -4.6316    0.5264   -1.3711 C   0  0  0  0  0  0  0  0  0  0  0  0
   -5.0253    0.0663   -2.6276 C   0  0  0  0  0  0  0  0  0  0  0  0
   -0.2962    1.0469   -0.1982 H   0  0  0  0  0  0  0  0  0  0  0  0
    0.4015    3.6520    1.1778 H   0  0  0  0  0  0  0  0  0  0  0  0
    0.8918    1.3825    2.6228 H   0  0  0  0  0  0  0  0  0  0  0  0
   -2.4127    2.5191    0.7269 H   0  0  0  0  0  0  0  0  0  0  0  0
   -0.8873    2.6960    3.4018 H   0  0  0  0  0  0  0  0  0  0  0  0
    0.8830    2.1119   -1.7537 H   0  0  0  0  0  0  0  0  0  0  0  0
    2.9662    3.4741   -1.2419 H   0  0  0  0  0  0  0  0  0  0  0  0
    4.3991    1.7521   -0.2397 H   0  0  0  0  0  0  0  0  0  0  0  0
    4.3633    0.3292   -2.9497 H   0  0  0  0  0  0  0  0  0  0  0  0
    2.9759   -0.5272   -0.3304 H   0  0  0  0  0  0  0  0  0  0  0  0
   -3.6451    1.5342    2.7454 H   0  0  0  0  0  0  0  0  0  0  0  0
   -3.3517    3.0561    3.6202 H   0  0  0  0  0  0  0  0  0  0  0  0
   -0.7348    4.4524   -0.5462 H   0  0  0  0  0  0  0  0  0  0  0  0
   -2.2340    4.7403    0.7936 H   0  0  0  0  0  0  0  0  0  0  0  0
    3.6561   -2.4560   -1.7020 H   0  0  0  0  0  0  0  0  0  0  0  0
    1.8977   -2.2387   -1.7895 H   0  0  0  0  0  0  0  0  0  0  0  0
    2.8982   -1.7264   -3.1368 H   0  0  0  0  0  0  0  0  0  0  0  0
    2.7568    1.7941   -3.5273 H   0  0  0  0  0  0  0  0  0  0  0  0
    6.1878    1.9508   -1.6395 H   0  0  0  0  0  0  0  0  0  0  0  0
    5.4876   -1.2052   -1.7885 H   0  0  0  0  0  0  0  0  0  0  0  0
    2.9970   -2.7523    3.0391 H   0  0  0  0  0  0  0  0  0  0  0  0
   -2.4004    0.4777    4.3483 H   0  0  0  0  0  0  0  0  0  0  0  0
    3.1530   -0.7110    3.8127 H   0  0  0  0  0  0  0  0  0  0  0  0
   -2.0545   -3.7789   -1.4007 H   0  0  0  0  0  0  0  0  0  0  0  0
    1.3534   -5.0745    0.9454 H   0  0  0  0  0  0  0  0  0  0  0  0
   -2.7897   -2.4392   -3.0544 H   0  0  0  0  0  0  0  0  0  0  0  0
   -3.2949    0.2817    0.2797 H   0  0  0  0  0  0  0  0  0  0  0  0
   -4.6522   -1.3716   -4.1985 H   0  0  0  0  0  0  0  0  0  0  0  0
   -5.1490    1.3605   -0.9049 H   0  0  0  0  0  0  0  0  0  0  0  0
   -6.1953    0.2193   -4.1321 H   0  0  0  0  0  0  0  0  0  0  0  0
  1 15  1  0  0  0  0
  1 20  1  0  0  0  0
  2 17  1  0  0  0  0
  2 19  1  0  0  0  0
  3 20  1  0  0  0  0
  3 24  1  0  0  0  0
  4 16  1  0  0  0  0
  4 54  1  0  0  0  0
  5 18  1  0  0  0  0
  5 55  1  0  0  0  0
  6 21  1  0  0  0  0
  6 59  1  0  0  0  0
  7 22  1  0  0  0  0
  7 60  1  0  0  0  0
  8 23  1  0  0  0  0
  8 61  1  0  0  0  0
  9 26  1  0  0  0  0
  9 63  1  0  0  0  0
 10 27  1  0  0  0  0
 10 34  1  0  0  0  0
 11 29  1  0  0  0  0
 11 64  1  0  0  0  0
 12 32  1  0  0  0  0
 12 66  1  0  0  0  0
 13 33  2  0  0  0  0
 14 41  1  0  0  0  0
 14 71  1  0  0  0  0
 15 16  1  0  0  0  0
 15 17  1  0  0  0  0
 15 42  1  0  0  0  0
 16 18  1  0  0  0  0
 16 43  1  0  0  0  0
 17 25  1  0  0  0  0
 17 44  1  0  0  0  0
 18 19  1  0  0  0  0
 18 45  1  0  0  0  0
 19 26  1  0  0  0  0
 19 46  1  0  0  0  0
 20 21  1  0  0  0  0
 20 47  1  0  0  0  0
 21 22  1  0  0  0  0
 21 48  1  0  0  0  0
 22 23  1  0  0  0  0
 22 49  1  0  0  0  0
 23 24  1  0  0  0  0
 23 50  1  0  0  0  0
 24 28  1  0  0  0  0
 24 51  1  0  0  0  0
 25 27  1  0  0  0  0
 25 29  2  0  0  0  0
 26 52  1  0  0  0  0
 26 53  1  0  0  0  0
 27 30  2  0  0  0  0
 28 56  1  0  0  0  0
 28 57  1  0  0  0  0
 28 58  1  0  0  0  0
 29 31  1  0  0  0  0
 30 32  1  0  0  0  0
 30 33  1  0  0  0  0
 31 32  2  0  0  0  0
 31 62  1  0  0  0  0
 33 35  1  0  0  0  0
 34 35  2  0  0  0  0
 34 36  1  0  0  0  0
 35 65  1  0  0  0  0
 36 37  2  0  0  0  0
 36 38  1  0  0  0  0
 37 39  1  0  0  0  0
 37 67  1  0  0  0  0
 38 40  2  0  0  0  0
 38 68  1  0  0  0  0
 39 41  2  0  0  0  0
 39 69  1  0  0  0  0
 40 41  1  0  0  0  0
 40 70  1  0  0  0  0
M  END
> <PUBCHEM_COMPOUND_CID>
5282151

> <PUBCHEM_CONFORMER_RMSD>
1

> <PUBCHEM_CONFORMER_DIVERSEORDER>
1
39
26
42
8
36
19
24
22
23
10
27
12
31
35
41
30
7
43
16
20
3
2
33
25
28
14
37
29
21
40
18
9
15
17
34
13
11
5
32
38
6
4

> <PUBCHEM_MMFF94_PARTIAL_CHARGES>
55
1 -0.56
10 -0.16
11 -0.53
12 -0.53
13 -0.57
14 -0.53
15 0.28
16 0.28
17 0.42
18 0.28
19 0.28
2 -0.56
20 0.56
21 0.28
22 0.28
23 0.28
24 0.28
25 -0.14
26 0.28
27 0.08
29 0.08
3 -0.56
30 0.09
31 -0.15
32 0.08
33 0.47
34 0.05
35 -0.14
36 0.03
37 -0.15
38 -0.15
39 -0.15
4 -0.68
40 -0.15
41 0.08
5 -0.68
54 0.4
55 0.4
59 0.4
6 -0.68
60 0.4
61 0.4
62 0.15
63 0.4
64 0.45
65 0.15
66 0.45
67 0.15
68 0.15
69 0.15
7 -0.68
70 0.15
71 0.45
8 -0.68
9 -0.68

> <PUBCHEM_EFFECTIVE_ROTOR_COUNT>
7.4

> <PUBCHEM_PHARMACOPHORE_FEATURES>
25
1 1 acceptor
1 10 acceptor
1 11 donor
1 12 donor
1 13 acceptor
1 14 donor
1 2 acceptor
1 3 acceptor
1 4 acceptor
1 4 donor
1 5 acceptor
1 5 donor
1 6 acceptor
1 6 donor
1 7 acceptor
1 7 donor
1 8 acceptor
1 8 donor
1 9 acceptor
1 9 donor
6 10 27 30 33 34 35 rings
6 2 15 16 17 18 19 rings
6 25 27 29 30 31 32 rings
6 3 20 21 22 23 24 rings
6 36 37 38 39 40 41 rings

> <PUBCHEM_HEAVY_ATOM_COUNT>
41

> <PUBCHEM_ATOM_DEF_STEREO_COUNT>
10

> <PUBCHEM_ATOM_UDEF_STEREO_COUNT>
0

> <PUBCHEM_BOND_DEF_STEREO_COUNT>
0

> <PUBCHEM_BOND_UDEF_STEREO_COUNT>
0

> <PUBCHEM_ISOTOPIC_ATOM_COUNT>
0

> <PUBCHEM_COMPONENT_COUNT>
1

> <PUBCHEM_CACTVS_TAUTO_COUNT>
57

> <PUBCHEM_CONFORMER_ID>
0050996700000001

> <PUBCHEM_MMFF94_ENERGY>
128.7488

> <PUBCHEM_FEATURE_SELFOVERLAP>
126.959

> <PUBCHEM_SHAPE_FINGERPRINT>
11445158 3 17126717099807535676
11578080 2 7956783969477557560
12035759 4 18339359772371890016
12058002 1 17608652708717412337
12156800 1 17242747625525603414
12788726 201 18187366566419292141
133893 2 17487894729611980234
13642711 20 17631714058913500785
14114206 34 18114460076991877893
15274700 242 18268122341716610088
15324884 4 14806009402224179771
15444296 8 15737887537641456453
469060 322 17335639972846677627
5081480 168 16878782669947542383
513532 50 17461189619493103255
550186 7 16109259525242082185

> <PUBCHEM_SHAPE_MULTIPOLES>
761.59
8.38
5.28
4.41
2.77
1.73
1.75
-1.97
-10.42
-0.29
2.36
1.3
-1.69
-4.73

> <PUBCHEM_SHAPE_SELFOVERLAP>
1663.88

> <PUBCHEM_SHAPE_VOLUME>
407.7

> <PUBCHEM_COORDINATE_TYPE>
2
5
10

$$$$

