5284549
  -OEChem-07051212523D

 35 36  0     1  0  0  0  0  0999 V2000
    1.2375   -2.0401    0.3036 S   0  0  0  0  0  0  0  0  0  0  0  0
   -1.6298   -1.3066    0.4406 S   0  0  0  0  0  0  0  0  0  0  0  0
   -3.9664    0.4193    0.1136 S   0  0  0  0  0  0  0  0  0  0  0  0
    1.0621   -2.9855   -0.7783 O   0  0  0  0  0  0  0  0  0  0  0  0
    1.1788   -2.4163    1.7000 O   0  0  0  0  0  0  0  0  0  0  0  0
   -4.3824   -0.5099    1.1579 O   0  0  0  0  0  0  0  0  0  0  0  0
   -4.1753    1.8532    0.2711 O   0  0  0  0  0  0  0  0  0  0  0  0
    1.7953    1.9697    0.2535 N   0  0  0  0  0  0  0  0  0  0  0  0
   -4.7071   -0.0776   -1.3544 N   0  0  0  0  0  0  0  0  0  0  0  0
    2.7081   -1.0327    0.0162 C   0  0  2  0  0  0  0  0  0  0  0  0
    1.3805    1.0515   -0.8087 C   0  0  1  0  0  0  0  0  0  0  0  0
    2.4687   -0.0075   -1.1122 C   0  0  0  0  0  0  0  0  0  0  0  0
    0.0686    0.4367   -0.4111 C   0  0  0  0  0  0  0  0  0  0  0  0
   -0.0387   -0.8490    0.0732 C   0  0  0  0  0  0  0  0  0  0  0  0
    3.8987   -1.9325   -0.2993 C   0  0  0  0  0  0  0  0  0  0  0  0
   -1.2184    1.0585   -0.4770 C   0  0  0  0  0  0  0  0  0  0  0  0
   -2.2267    0.2252   -0.0400 C   0  0  0  0  0  0  0  0  0  0  0  0
    3.0693    2.5894   -0.0728 C   0  0  0  0  0  0  0  0  0  0  0  0
    3.4769    3.5541    1.0241 C   0  0  0  0  0  0  0  0  0  0  0  0
    2.9065   -0.5074    0.9578 H   0  0  0  0  0  0  0  0  0  0  0  0
    1.2121    1.6271   -1.7297 H   0  0  0  0  0  0  0  0  0  0  0  0
    2.1337   -0.5657   -2.0002 H   0  0  0  0  0  0  0  0  0  0  0  0
    3.4117    0.4450   -1.4336 H   0  0  0  0  0  0  0  0  0  0  0  0
    4.0531   -2.6678    0.4975 H   0  0  0  0  0  0  0  0  0  0  0  0
    3.7492   -2.4824   -1.2345 H   0  0  0  0  0  0  0  0  0  0  0  0
    4.8157   -1.3421   -0.3962 H   0  0  0  0  0  0  0  0  0  0  0  0
    1.0884    2.6948    0.3777 H   0  0  0  0  0  0  0  0  0  0  0  0
   -1.3925    2.0681   -0.8274 H   0  0  0  0  0  0  0  0  0  0  0  0
    3.8835    1.8624   -0.1272 H   0  0  0  0  0  0  0  0  0  0  0  0
    3.0148    3.1280   -1.0258 H   0  0  0  0  0  0  0  0  0  0  0  0
    2.7425    4.3586    1.1389 H   0  0  0  0  0  0  0  0  0  0  0  0
    3.5768    3.0422    1.9875 H   0  0  0  0  0  0  0  0  0  0  0  0
    4.4419    4.0135    0.7861 H   0  0  0  0  0  0  0  0  0  0  0  0
   -4.5367    0.5131   -2.1785 H   0  0  0  0  0  0  0  0  0  0  0  0
   -4.6644   -1.0809   -1.5745 H   0  0  0  0  0  0  0  0  0  0  0  0
  1  4  2  0  0  0  0
  1  5  2  0  0  0  0
  1 10  1  0  0  0  0
  1 14  1  0  0  0  0
  2 14  1  0  0  0  0
  2 17  1  0  0  0  0
  3  6  2  0  0  0  0
  3  7  2  0  0  0  0
  3  9  1  0  0  0  0
  3 17  1  0  0  0  0
  8 11  1  0  0  0  0
  8 18  1  0  0  0  0
  8 27  1  0  0  0  0
  9 34  1  0  0  0  0
  9 35  1  0  0  0  0
 10 12  1  0  0  0  0
 10 15  1  0  0  0  0
 10 20  1  0  0  0  0
 11 12  1  0  0  0  0
 11 13  1  0  0  0  0
 11 21  1  0  0  0  0
 12 22  1  0  0  0  0
 12 23  1  0  0  0  0
 13 14  2  0  0  0  0
 13 16  1  0  0  0  0
 15 24  1  0  0  0  0
 15 25  1  0  0  0  0
 15 26  1  0  0  0  0
 16 17  2  0  0  0  0
 16 28  1  0  0  0  0
 18 19  1  0  0  0  0
 18 29  1  0  0  0  0
 18 30  1  0  0  0  0
 19 31  1  0  0  0  0
 19 32  1  0  0  0  0
 19 33  1  0  0  0  0
M  END
> <PUBCHEM_COMPOUND_CID>
5284549

> <PUBCHEM_CONFORMER_RMSD>
0.6

> <PUBCHEM_CONFORMER_DIVERSEORDER>
1
6
4
5
3
2

> <PUBCHEM_MMFF94_PARTIAL_CHARGES>
20
1 1.26
10 0.11
11 0.45
13 -0.18
14 -0.02
16 -0.15
17 -0.02
18 0.27
2 -0.08
27 0.36
28 0.15
3 1.5
34 0.42
35 0.42
4 -0.65
5 -0.65
6 -0.65
7 -0.65
8 -0.9
9 -0.98

> <PUBCHEM_EFFECTIVE_ROTOR_COUNT>
3.6

> <PUBCHEM_PHARMACOPHORE_FEATURES>
9
1 4 acceptor
1 5 acceptor
1 6 acceptor
1 7 acceptor
1 8 cation
1 8 donor
1 9 donor
5 2 13 14 16 17 rings
6 1 10 11 12 13 14 rings

> <PUBCHEM_HEAVY_ATOM_COUNT>
19

> <PUBCHEM_ATOM_DEF_STEREO_COUNT>
2

> <PUBCHEM_ATOM_UDEF_STEREO_COUNT>
0

> <PUBCHEM_BOND_DEF_STEREO_COUNT>
0

> <PUBCHEM_BOND_UDEF_STEREO_COUNT>
0

> <PUBCHEM_ISOTOPIC_ATOM_COUNT>
0

> <PUBCHEM_COMPONENT_COUNT>
1

> <PUBCHEM_CACTVS_TAUTO_COUNT>
1

> <PUBCHEM_CONFORMER_ID>
0050A2C500000001

> <PUBCHEM_MMFF94_ENERGY>
15.1211

> <PUBCHEM_FEATURE_SELFOVERLAP>
45.742

> <PUBCHEM_SHAPE_FINGERPRINT>
11471102 20 18342175600244515823
11680986 33 18342168917507446610
12403259 415 18202844362066543429
13140716 1 18341612581608625490
14178342 30 18056195769733697747
15536298 74 18410290298277132573
16945 1 18336251440194646638
18186145 218 18263067869088190333
200 152 18262521506641221111
20511035 2 18056742266142590670
20645477 70 18411144645072426647
20671657 1 18410291419263616341
21403212 168 18195555652294305744
21452121 103 18409736140417574784
21524375 3 18267592299212046212
2255824 54 18409446990228596788
2334 1 18125713500517338998
23402539 116 18191312786692698206
23419403 2 17342416113063957710
23557571 272 16773511157833355991
23558518 356 18054791672306330322
23559900 14 18335706082358451072
2748010 2 18199171902507794590
3286 77 18341609356093337612
474 4 18336273336054109056
495365 180 18409460175883768221
5104073 3 18341323440695501833
5895379 119 16952796505092146137
633830 44 18187071850396316957
6443956 14 18193831763831767214
7364860 26 18409448102704117572
81228 2 16825888854547811284
84936 182 18187927244346115760
9981440 41 17903928751458737768

> <PUBCHEM_SHAPE_MULTIPOLES>
369.12
7.81
3.42
1.09
7.71
0.94
-0.1
3.12
-0.12
-4.65
-0.9
0.06
-0.16
0.72

> <PUBCHEM_SHAPE_SELFOVERLAP>
726.876

> <PUBCHEM_SHAPE_VOLUME>
221.5

> <PUBCHEM_COORDINATE_TYPE>
2
5
10

$$$$

