17395355
  -OEChem-06241222493D

 34 35  0     0  0  0  0  0  0999 V2000
   -6.6113   -1.9805    1.6876 Br  0  0  0  0  0  0  0  0  0  0  0  0
   -4.4422   -0.3968    0.6293 O   0  0  0  0  0  0  0  0  0  0  0  0
    6.5933   -0.9313   -0.2911 O   0  0  0  0  0  0  0  0  0  0  0  0
    0.1080   -0.5380    0.1493 O   0  0  0  0  0  0  0  0  0  0  0  0
   -2.3623    1.4702   -1.5752 O   0  0  0  0  0  0  0  0  0  0  0  0
    1.5703    1.2611    0.5560 N   0  0  0  0  0  0  0  0  0  0  0  0
   -2.0762    0.9518    0.6453 N   0  0  0  0  0  0  0  0  0  0  0  0
    2.8339    0.7100    0.3415 C   0  0  0  0  0  0  0  0  0  0  0  0
   -0.8044    1.6014    0.7717 C   0  0  0  0  0  0  0  0  0  0  0  0
    0.3188    0.6320    0.4517 C   0  0  0  0  0  0  0  0  0  0  0  0
    2.9571   -0.6302   -0.0250 C   0  0  0  0  0  0  0  0  0  0  0  0
    3.9741    1.4988    0.4947 C   0  0  0  0  0  0  0  0  0  0  0  0
    5.3605   -0.3928   -0.0851 C   0  0  0  0  0  0  0  0  0  0  0  0
    4.2204   -1.1816   -0.2383 C   0  0  0  0  0  0  0  0  0  0  0  0
    5.2374    0.9475    0.2814 C   0  0  0  0  0  0  0  0  0  0  0  0
   -2.7932    0.9281   -0.5558 C   0  0  0  0  0  0  0  0  0  0  0  0
   -4.0662    0.1940   -0.5355 C   0  0  0  0  0  0  0  0  0  0  0  0
   -5.0058   -0.0281   -1.5152 C   0  0  0  0  0  0  0  0  0  0  0  0
   -6.0243   -0.8053   -0.9138 C   0  0  0  0  0  0  0  0  0  0  0  0
   -5.6347   -1.0027    0.3905 C   0  0  0  0  0  0  0  0  0  0  0  0
    6.6468   -2.3076   -0.6639 C   0  0  0  0  0  0  0  0  0  0  0  0
   -0.7490    2.4622    0.0976 H   0  0  0  0  0  0  0  0  0  0  0  0
   -0.7023    1.9429    1.8064 H   0  0  0  0  0  0  0  0  0  0  0  0
    1.5658    2.2439    0.8211 H   0  0  0  0  0  0  0  0  0  0  0  0
    2.1221   -1.3028   -0.1625 H   0  0  0  0  0  0  0  0  0  0  0  0
    3.8931    2.5446    0.7802 H   0  0  0  0  0  0  0  0  0  0  0  0
   -2.4553    0.4726    1.4574 H   0  0  0  0  0  0  0  0  0  0  0  0
    4.2452   -2.2287   -0.5206 H   0  0  0  0  0  0  0  0  0  0  0  0
    6.1220    1.5666    0.4028 H   0  0  0  0  0  0  0  0  0  0  0  0
   -4.9660    0.3235   -2.5363 H   0  0  0  0  0  0  0  0  0  0  0  0
   -6.9274   -1.1717   -1.3816 H   0  0  0  0  0  0  0  0  0  0  0  0
    6.2484   -2.9541    0.1255 H   0  0  0  0  0  0  0  0  0  0  0  0
    6.1596   -2.4822   -1.6292 H   0  0  0  0  0  0  0  0  0  0  0  0
    7.7030   -2.5681   -0.7874 H   0  0  0  0  0  0  0  0  0  0  0  0
  1 20  1  0  0  0  0
  2 17  1  0  0  0  0
  2 20  1  0  0  0  0
  3 13  1  0  0  0  0
  3 21  1  0  0  0  0
  4 10  2  0  0  0  0
  5 16  2  0  0  0  0
  6  8  1  0  0  0  0
  6 10  1  0  0  0  0
  6 24  1  0  0  0  0
  7  9  1  0  0  0  0
  7 16  1  0  0  0  0
  7 27  1  0  0  0  0
  8 11  2  0  0  0  0
  8 12  1  0  0  0  0
  9 10  1  0  0  0  0
  9 22  1  0  0  0  0
  9 23  1  0  0  0  0
 11 14  1  0  0  0  0
 11 25  1  0  0  0  0
 12 15  2  0  0  0  0
 12 26  1  0  0  0  0
 13 14  2  0  0  0  0
 13 15  1  0  0  0  0
 14 28  1  0  0  0  0
 15 29  1  0  0  0  0
 16 17  1  0  0  0  0
 17 18  2  0  0  0  0
 18 19  1  0  0  0  0
 18 30  1  0  0  0  0
 19 20  2  0  0  0  0
 19 31  1  0  0  0  0
 21 32  1  0  0  0  0
 21 33  1  0  0  0  0
 21 34  1  0  0  0  0
M  END
> <PUBCHEM_COMPOUND_CID>
17395355

> <PUBCHEM_CONFORMER_RMSD>
0.8

> <PUBCHEM_CONFORMER_DIVERSEORDER>
1
49
15
69
35
19
53
37
34
16
61
24
20
30
39
5
13
78
76
2
48
79
68
14
3
32
50
58
71
10
22
46
36
47
51
70
23
72
18
65
42
17
8
25
11
57
54
66
12
7
43
56
73
31
75
60
63
29
62
21
77
38
6
67
28
26
27
41
4
45
64
40
9
44
59
55
74
52
33

> <PUBCHEM_MMFF94_PARTIAL_CHARGES>
29
1 -0.06
10 0.57
11 -0.15
12 -0.15
13 0.08
14 -0.15
15 -0.15
16 0.71
17 0.05
18 -0.15
19 -0.15
2 -0.28
20 0.2
21 0.28
24 0.37
25 0.15
26 0.15
27 0.37
28 0.15
29 0.15
3 -0.36
30 0.15
31 0.15
4 -0.57
5 -0.57
6 -0.55
7 -0.73
8 0.12
9 0.36

> <PUBCHEM_EFFECTIVE_ROTOR_COUNT>
7

> <PUBCHEM_PHARMACOPHORE_FEATURES>
9
1 1 hydrophobe
1 2 acceptor
1 3 acceptor
1 4 acceptor
1 5 acceptor
1 6 donor
1 7 donor
5 2 17 18 19 20 rings
6 8 11 12 13 14 15 rings

> <PUBCHEM_HEAVY_ATOM_COUNT>
21

> <PUBCHEM_ATOM_DEF_STEREO_COUNT>
0

> <PUBCHEM_ATOM_UDEF_STEREO_COUNT>
0

> <PUBCHEM_BOND_DEF_STEREO_COUNT>
0

> <PUBCHEM_BOND_UDEF_STEREO_COUNT>
0

> <PUBCHEM_ISOTOPIC_ATOM_COUNT>
0

> <PUBCHEM_COMPONENT_COUNT>
1

> <PUBCHEM_CACTVS_TAUTO_COUNT>
4

> <PUBCHEM_CONFORMER_ID>
01096E9B00000001

> <PUBCHEM_MMFF94_ENERGY>
49.852

> <PUBCHEM_FEATURE_SELFOVERLAP>
45.669

> <PUBCHEM_SHAPE_FINGERPRINT>
10554248 39 12103574069575020368
11089746 13 13901905605293449414
117890 112 8574713507281585076
12166972 35 18342172272193948868
12236239 1 17385724690233496960
12596602 18 15357701846962800627
12616971 3 16298396746921592812
13073987 5 18113900481334231192
13103583 49 16733262353434947993
13533116 47 18040719152253112880
13668630 136 18411135866243870550
13685833 64 18409727335945309267
13782708 43 18343868844183526946
13862211 1 17967818244890161814
13955234 65 17969231027697483720
14123256 34 18261105309900227038
1420 363 18413388722234103001
14350574 20 18409449189304612560
14528608 73 15267344006955932612
14848160 23 18343585131322808303
15048467 5 11455885871639689262
15238133 3 5328463730417091586
15348495 7 5978092579144316726
15716309 27 17967251996744709359
17844677 252 18259984877001936241
17870717 6 17775571927652172831
18335252 98 18270957934648741768
18643901 69 17704069557159436523
19489759 90 16702026387398841845
200 152 18186523206541050185
20028762 73 17822014237663138950
20281389 69 8646773296121790703
20621476 21 18200585913611978499
20645477 70 18334857251678142110
21150785 3 17275098419322340550
21267235 1 18114175363751919670
21623969 137 18260823787341486855
21682296 61 18334010618391223079
220451 1 17530963536179911380
22288116 15 14907889445643517931
22950370 63 17676210139196075433
2297311 6 17918275346834579405
2303208 19 18342738498816435515
23035841 295 17967251992318074767
23081809 10 16950848011853154017
23522609 53 17314489458121879961
23559900 14 18342461387315923528
2767999 5 12751241397699723916
3004659 81 18412549825190729000
314194 84 18041001713276079499
34797466 226 17704066253263819612
351380 3 17748832911995616797
445580 160 18131344181537467147
46194498 28 18131636651867702700
465052 167 18113616803181176686
5104073 3 17676490596576663768
5718773 13 18265899245512917794
999808 66 18341887460270242411

> <PUBCHEM_SHAPE_MULTIPOLES>
404.67
19.9
1.91
1.2
0.43
0.57
0.08
12.69
0.76
0.9
-0.21
-2.07
0.11
2.53

> <PUBCHEM_SHAPE_SELFOVERLAP>
841.648

> <PUBCHEM_SHAPE_VOLUME>
234.7

> <PUBCHEM_COORDINATE_TYPE>
2
5
10

$$$$

