3083597
  -OEChem-07051213113D

 20 22  0     0  0  0  0  0  0999 V2000
   -3.1636   -1.0399    0.0001 O   0  0  0  0  0  0  0  0  0  0  0  0
   -2.9534    1.3609    0.0008 O   0  0  0  0  0  0  0  0  0  0  0  0
    1.8753    1.1510   -0.0006 O   0  0  0  0  0  0  0  0  0  0  0  0
    4.1562    0.9487    0.0002 O   0  0  0  0  0  0  0  0  0  0  0  0
   -1.8634   -0.6356   -0.0007 C   0  0  0  0  0  0  0  0  0  0  0  0
   -1.7438    0.7370   -0.0003 C   0  0  0  0  0  0  0  0  0  0  0  0
    0.5057   -0.8704   -0.0007 C   0  0  0  0  0  0  0  0  0  0  0  0
    0.6082    0.5291   -0.0008 C   0  0  0  0  0  0  0  0  0  0  0  0
   -0.7592   -1.4679   -0.0010 C   0  0  0  0  0  0  0  0  0  0  0  0
   -0.5137    1.3589   -0.0006 C   0  0  0  0  0  0  0  0  0  0  0  0
   -3.8478    0.2295    0.0015 C   0  0  0  0  0  0  0  0  0  0  0  0
    1.7272   -1.6582    0.0004 C   0  0  0  0  0  0  0  0  0  0  0  0
    2.9188   -1.0556    0.0014 C   0  0  0  0  0  0  0  0  0  0  0  0
    3.0536    0.4124    0.0005 C   0  0  0  0  0  0  0  0  0  0  0  0
   -0.8791   -2.5465   -0.0008 H   0  0  0  0  0  0  0  0  0  0  0  0
   -0.4227    2.4387   -0.0003 H   0  0  0  0  0  0  0  0  0  0  0  0
   -4.4851    0.2857   -0.8884 H   0  0  0  0  0  0  0  0  0  0  0  0
   -4.4828    0.2849    0.8932 H   0  0  0  0  0  0  0  0  0  0  0  0
    1.6547   -2.7402    0.0008 H   0  0  0  0  0  0  0  0  0  0  0  0
    3.8326   -1.6400    0.0023 H   0  0  0  0  0  0  0  0  0  0  0  0
  1  5  1  0  0  0  0
  1 11  1  0  0  0  0
  2  6  1  0  0  0  0
  2 11  1  0  0  0  0
  3  8  1  0  0  0  0
  3 14  1  0  0  0  0
  4 14  2  0  0  0  0
  5  6  2  0  0  0  0
  5  9  1  0  0  0  0
  6 10  1  0  0  0  0
  7  8  1  0  0  0  0
  7  9  2  0  0  0  0
  7 12  1  0  0  0  0
  8 10  2  0  0  0  0
  9 15  1  0  0  0  0
 10 16  1  0  0  0  0
 11 17  1  0  0  0  0
 11 18  1  0  0  0  0
 12 13  2  0  0  0  0
 12 19  1  0  0  0  0
 13 14  1  0  0  0  0
 13 20  1  0  0  0  0
M  END
> <PUBCHEM_COMPOUND_CID>
3083597

> <PUBCHEM_CONFORMER_RMSD>
0.4

> <PUBCHEM_CONFORMER_DIVERSEORDER>
1

> <PUBCHEM_MMFF94_PARTIAL_CHARGES>
18
1 -0.36
10 -0.15
11 0.56
12 -0.18
13 -0.14
14 0.71
15 0.15
16 0.15
19 0.15
2 -0.36
20 0.15
3 -0.23
4 -0.57
5 0.08
6 0.08
7 0.03
8 0.08
9 -0.15

> <PUBCHEM_EFFECTIVE_ROTOR_COUNT>
0.6

> <PUBCHEM_PHARMACOPHORE_FEATURES>
6
1 1 acceptor
1 2 acceptor
1 4 acceptor
5 1 2 5 6 11 rings
6 3 7 8 12 13 14 rings
6 5 6 7 8 9 10 rings

> <PUBCHEM_HEAVY_ATOM_COUNT>
14

> <PUBCHEM_ATOM_DEF_STEREO_COUNT>
0

> <PUBCHEM_ATOM_UDEF_STEREO_COUNT>
0

> <PUBCHEM_BOND_DEF_STEREO_COUNT>
0

> <PUBCHEM_BOND_UDEF_STEREO_COUNT>
0

> <PUBCHEM_ISOTOPIC_ATOM_COUNT>
0

> <PUBCHEM_COMPONENT_COUNT>
1

> <PUBCHEM_CACTVS_TAUTO_COUNT>
1

> <PUBCHEM_CONFORMER_ID>
002F0D4D00000001

> <PUBCHEM_MMFF94_ENERGY>
42.1107

> <PUBCHEM_FEATURE_SELFOVERLAP>
30.632

> <PUBCHEM_SHAPE_FINGERPRINT>
10608611 8 18411422846788444956
10967382 1 18410855481639999494
10980938 120 18410574006906076882
11132069 177 18409454686799253168
11471102 20 18410579508511068463
11806522 49 18339083675195679831
12032990 46 18410848871775216107
12491281 212 18262506095755166417
12932764 1 17240776072306642515
13221675 6 18410011022387104430
13380535 76 18411982446920608970
14144814 61 18410855485903240451
14325111 11 18410856585420220800
14897335 6 18409733954205082038
15196674 1 18410855481603056742
15219456 202 18410572920036582511
15442244 35 18121780800996724722
15536298 74 18334575776258423750
15775835 57 18408600366127334016
16945 1 18338798909793738503
17844478 74 18059849593271035013
18186145 218 18340484581388694662
193761 8 17618221702446508143
19591789 44 15677712176506669931
200 152 18114191813376443303
20201158 50 18411136943705551490
20510252 161 18260827128804801521
20645477 70 18336833107853161319
21267235 1 18410565214849799426
21501502 16 18337955700318232891
23402539 116 18335431140011212590
23402655 69 18335149734461029397
23463225 33 18413108380944135582
23552423 10 18343863337671359031
23559900 14 18263648536261969730
2748010 2 18339079396964888071
3312278 4 18408882923530736017
449060 62 18335699459624453578
4990 188 18040703788996625372
5104073 3 18411136960880023435
528886 8 18410579474214744042
53812653 166 18334298643314308024
69090 78 18334018285092482191
7364860 26 18263082279067718494
9709674 26 18410288099354714510

> <PUBCHEM_SHAPE_MULTIPOLES>
264.64
6.18
1.65
0.59
0.25
0.17
0
-0.94
0
0.25
0
0
0.02
0

> <PUBCHEM_SHAPE_SELFOVERLAP>
597.005

> <PUBCHEM_SHAPE_VOLUME>
139

> <PUBCHEM_COORDINATE_TYPE>
2
5
10

$$$$

