10593857
  -OEChem-07051213092D

 50 49  0     1  0  0  0  0  0999 V2000
    4.2690    5.5000    0.0000 O   0  0  0  0  0  0  0  0  0  0  0  0
   14.6613   -4.5000    0.0000 O   0  0  0  0  0  0  0  0  0  0  0  0
   14.6613   -6.5000    0.0000 O   0  0  0  0  0  0  0  0  0  0  0  0
    5.1350    4.0000    0.0000 C   0  0  0  0  0  0  0  0  0  0  0  0
    6.0010    4.5000    0.0000 C   0  0  0  0  0  0  0  0  0  0  0  0
    4.2690    4.5000    0.0000 C   0  0  3  0  0  0  0  0  0  0  0  0
    6.8671    4.0000    0.0000 C   0  0  0  0  0  0  0  0  0  0  0  0
    3.4030    4.0000    0.0000 C   0  0  0  0  0  0  0  0  0  0  0  0
    7.7331    4.5000    0.0000 C   0  0  0  0  0  0  0  0  0  0  0  0
    2.5369    4.5000    0.0000 C   0  0  0  0  0  0  0  0  0  0  0  0
    8.5991    4.0000    0.0000 C   0  0  0  0  0  0  0  0  0  0  0  0
    9.4651   -1.5000    0.0000 C   0  0  0  0  0  0  0  0  0  0  0  0
    8.5991   -1.0000    0.0000 C   0  0  0  0  0  0  0  0  0  0  0  0
    9.4651   -2.5000    0.0000 C   0  0  0  0  0  0  0  0  0  0  0  0
    8.5991    3.0000    0.0000 C   0  0  0  0  0  0  0  0  0  0  0  0
    2.5369    5.5000    0.0000 C   0  0  0  0  0  0  0  0  0  0  0  0
    8.5991    0.0000    0.0000 C   0  0  0  0  0  0  0  0  0  0  0  0
   10.3312   -3.0000    0.0000 C   0  0  0  0  0  0  0  0  0  0  0  0
    8.5991    2.0000    0.0000 C   0  0  0  0  0  0  0  0  0  0  0  0
   13.7953   -5.0000    0.0000 C   0  0  3  0  0  0  0  0  0  0  0  0
    8.5991    1.0000    0.0000 C   0  0  0  0  0  0  0  0  0  0  0  0
   13.7953   -6.0000    0.0000 C   0  0  0  0  0  0  0  0  0  0  0  0
    2.5369    6.5000    0.0000 C   0  0  0  0  0  0  0  0  0  0  0  0
   11.1972   -3.5000    0.0000 C   0  0  0  0  0  0  0  0  0  0  0  0
   12.9292   -4.5000    0.0000 C   0  0  0  0  0  0  0  0  0  0  0  0
   12.0632   -4.0000    0.0000 C   0  0  0  0  0  0  0  0  0  0  0  0
    4.7365    3.5250    0.0000 H   0  0  0  0  0  0  0  0  0  0  0  0
    5.5335    3.5250    0.0000 H   0  0  0  0  0  0  0  0  0  0  0  0
    6.3996    4.9750    0.0000 H   0  0  0  0  0  0  0  0  0  0  0  0
    5.6025    4.9750    0.0000 H   0  0  0  0  0  0  0  0  0  0  0  0
    5.0051    4.9250    0.0000 H   0  0  0  0  0  0  0  0  0  0  0  0
    6.4685    3.5250    0.0000 H   0  0  0  0  0  0  0  0  0  0  0  0
    7.2656    3.5250    0.0000 H   0  0  0  0  0  0  0  0  0  0  0  0
    3.4030    3.3800    0.0000 H   0  0  0  0  0  0  0  0  0  0  0  0
    7.7331    5.1200    0.0000 H   0  0  0  0  0  0  0  0  0  0  0  0
    4.8059    5.8100    0.0000 H   0  0  0  0  0  0  0  0  0  0  0  0
    2.0000    4.1900    0.0000 H   0  0  0  0  0  0  0  0  0  0  0  0
    9.1360    4.3100    0.0000 H   0  0  0  0  0  0  0  0  0  0  0  0
   10.0757   -1.6077    0.0000 H   0  0  0  0  0  0  0  0  0  0  0  0
    9.6772   -0.9174    0.0000 H   0  0  0  0  0  0  0  0  0  0  0  0
    7.9885   -0.8923    0.0000 H   0  0  0  0  0  0  0  0  0  0  0  0
    8.3871   -1.5826    0.0000 H   0  0  0  0  0  0  0  0  0  0  0  0
    8.8546   -2.3923    0.0000 H   0  0  0  0  0  0  0  0  0  0  0  0
    9.2531   -3.0826    0.0000 H   0  0  0  0  0  0  0  0  0  0  0  0
   14.5314   -5.4250    0.0000 H   0  0  0  0  0  0  0  0  0  0  0  0
   13.1847   -5.8923    0.0000 H   0  0  0  0  0  0  0  0  0  0  0  0
   13.5832   -6.5826    0.0000 H   0  0  0  0  0  0  0  0  0  0  0  0
    2.5369    7.1200    0.0000 H   0  0  0  0  0  0  0  0  0  0  0  0
   14.6613   -3.8800    0.0000 H   0  0  0  0  0  0  0  0  0  0  0  0
   14.6613   -7.1200    0.0000 H   0  0  0  0  0  0  0  0  0  0  0  0
  1  6  1  0  0  0  0
  1 36  1  0  0  0  0
  2 20  1  0  0  0  0
  2 49  1  0  0  0  0
  3 22  1  0  0  0  0
  3 50  1  0  0  0  0
  4  5  1  0  0  0  0
  4  6  1  0  0  0  0
  4 27  1  0  0  0  0
  4 28  1  0  0  0  0
  5  7  1  0  0  0  0
  5 29  1  0  0  0  0
  5 30  1  0  0  0  0
  6  8  1  0  0  0  0
  6 31  1  0  0  0  0
  7  9  1  0  0  0  0
  7 32  1  0  0  0  0
  7 33  1  0  0  0  0
  8 10  2  0  0  0  0
  8 34  1  0  0  0  0
  9 11  2  0  0  0  0
  9 35  1  0  0  0  0
 10 16  1  0  0  0  0
 10 37  1  0  0  0  0
 11 15  1  0  0  0  0
 11 38  1  0  0  0  0
 12 13  1  0  0  0  0
 12 14  1  0  0  0  0
 12 39  1  0  0  0  0
 12 40  1  0  0  0  0
 13 17  1  0  0  0  0
 13 41  1  0  0  0  0
 13 42  1  0  0  0  0
 14 18  1  0  0  0  0
 14 43  1  0  0  0  0
 14 44  1  0  0  0  0
 15 19  3  0  0  0  0
 16 23  3  0  0  0  0
 17 21  3  0  0  0  0
 18 24  3  0  0  0  0
 19 21  1  0  0  0  0
 20 22  1  0  0  0  0
 20 25  1  0  0  0  0
 20 45  1  0  0  0  0
 22 46  1  0  0  0  0
 22 47  1  0  0  0  0
 23 48  1  0  0  0  0
 24 26  1  0  0  0  0
 25 26  3  0  0  0  0
M  END
> <PUBCHEM_COMPOUND_CID>
10593857

> <PUBCHEM_COMPOUND_CANONICALIZED>
1

> <PUBCHEM_CACTVS_COMPLEXITY>
781

> <PUBCHEM_CACTVS_HBOND_ACCEPTOR>
3

> <PUBCHEM_CACTVS_HBOND_DONOR>
3

> <PUBCHEM_CACTVS_ROTATABLE_BOND>
10

> <PUBCHEM_CACTVS_SUBSKEYS>
AAADceB4MAAAAAAAAAAAAAAAAAAAAAAAAAAAAAAAAAAAAAAAAAAAGgAACAAACBSggAIAAAAAAgDAGCBCAAgAAAAgAAAICAAAAAgBFAIAAQAAUAAEgAAJEAOAAAAAAAAAAAAAAAAAAAAAAAAAAAAAAAAAAA==

> <PUBCHEM_IUPAC_OPENEYE_NAME>
(14Z,20Z)-tricosa-14,20-dien-3,5,10,12,22-pentayne-1,2,19-triol

> <PUBCHEM_IUPAC_CAS_NAME>
(14Z,20Z)-tricosa-14,20-dien-3,5,10,12,22-pentayne-1,2,19-triol

> <PUBCHEM_IUPAC_NAME>
(14Z,20Z)-tricosa-14,20-dien-3,5,10,12,22-pentayne-1,2,19-triol

> <PUBCHEM_IUPAC_SYSTEMATIC_NAME>
(14Z,20Z)-tricosa-14,20-dien-3,5,10,12,22-pentayne-1,2,19-triol

> <PUBCHEM_IUPAC_TRADITIONAL_NAME>
(14Z,20Z)-tricosa-14,20-dien-3,5,10,12,22-pentayne-1,2,19-triol

> <PUBCHEM_IUPAC_INCHI>
InChI=1S/C23H24O3/c1-2-3-18-22(25)19-16-14-12-10-8-6-4-5-7-9-11-13-15-17-20-23(26)21-24/h1,3,10,12,18,22-26H,7,9,11,14,16,19,21H2/b12-10-,18-3-

> <PUBCHEM_IUPAC_INCHIKEY>
MCGQEEDLOVPSRE-WUYTVGJRSA-N

> <PUBCHEM_XLOGP3_AA>
3.2

> <PUBCHEM_EXACT_MASS>
348.172545

> <PUBCHEM_MOLECULAR_FORMULA>
C23H24O3

> <PUBCHEM_MOLECULAR_WEIGHT>
348.43486

> <PUBCHEM_OPENEYE_CAN_SMILES>
C#CC=CC(CCCC=CC#CC#CCCCC#CC#CC(CO)O)O

> <PUBCHEM_OPENEYE_ISO_SMILES>
C#C/C=C\C(CCC/C=C\C#CC#CCCCC#CC#CC(CO)O)O

> <PUBCHEM_CACTVS_TPSA>
60.7

> <PUBCHEM_MONOISOTOPIC_WEIGHT>
348.172545

> <PUBCHEM_TOTAL_CHARGE>
0

> <PUBCHEM_HEAVY_ATOM_COUNT>
26

> <PUBCHEM_ATOM_DEF_STEREO_COUNT>
0

> <PUBCHEM_ATOM_UDEF_STEREO_COUNT>
2

> <PUBCHEM_BOND_DEF_STEREO_COUNT>
2

> <PUBCHEM_BOND_UDEF_STEREO_COUNT>
0

> <PUBCHEM_ISOTOPIC_ATOM_COUNT>
0

> <PUBCHEM_COMPONENT_COUNT>
1

> <PUBCHEM_CACTVS_TAUTO_COUNT>
1

> <PUBCHEM_COORDINATE_TYPE>
1
5
255

> <PUBCHEM_BONDANNOTATIONS>
20  45  3
6  31  3

$$$$

