2347
  -OEChem-07051213043D

 43 44  0     0  0  0  0  0  0999 V2000
    2.9058    0.2133   -0.1350 O   0  0  0  0  0  0  0  0  0  0  0  0
   -1.4724   -0.3161    0.4134 O   0  0  0  0  0  0  0  0  0  0  0  0
    3.0787   -1.0234    1.7990 O   0  0  0  0  0  0  0  0  0  0  0  0
    0.2684   -0.1399    1.9091 O   0  0  0  0  0  0  0  0  0  0  0  0
    3.9371    2.3190   -0.6208 C   0  0  0  0  0  0  0  0  0  0  0  0
    4.8595    3.4213   -0.1082 C   0  0  0  0  0  0  0  0  0  0  0  0
    3.7596    1.2111    0.4077 C   0  0  0  0  0  0  0  0  0  0  0  0
    1.7479   -1.8211   -0.0114 C   0  0  0  0  0  0  0  0  0  0  0  0
    0.3776   -1.7089    0.1171 C   0  0  0  0  0  0  0  0  0  0  0  0
    5.0684    4.5043   -1.1546 C   0  0  0  0  0  0  0  0  0  0  0  0
    2.6462   -0.8548    0.6694 C   0  0  0  0  0  0  0  0  0  0  0  0
    2.3328   -2.8205   -0.7655 C   0  0  0  0  0  0  0  0  0  0  0  0
   -2.1871    0.7107    1.1096 C   0  0  0  0  0  0  0  0  0  0  0  0
   -3.4995    0.9466    0.4216 C   0  0  0  0  0  0  0  0  0  0  0  0
   -0.4409   -2.6319   -0.5339 C   0  0  0  0  0  0  0  0  0  0  0  0
   -0.2460   -0.6584    0.9112 C   0  0  0  0  0  0  0  0  0  0  0  0
    1.5142   -3.7434   -1.4166 C   0  0  0  0  0  0  0  0  0  0  0  0
    0.1275   -3.6491   -1.3008 C   0  0  0  0  0  0  0  0  0  0  0  0
   -3.5835    1.8907   -0.5959 C   0  0  0  0  0  0  0  0  0  0  0  0
   -4.6198    0.2188    0.8072 C   0  0  0  0  0  0  0  0  0  0  0  0
   -4.8034    2.1099   -1.2356 C   0  0  0  0  0  0  0  0  0  0  0  0
   -5.8396    0.4381    0.1673 C   0  0  0  0  0  0  0  0  0  0  0  0
   -5.9314    1.3837   -0.8542 C   0  0  0  0  0  0  0  0  0  0  0  0
    2.9559    2.7347   -0.8821 H   0  0  0  0  0  0  0  0  0  0  0  0
    4.3369    1.8902   -1.5483 H   0  0  0  0  0  0  0  0  0  0  0  0
    5.8321    2.9963    0.1657 H   0  0  0  0  0  0  0  0  0  0  0  0
    4.4352    3.8707    0.7970 H   0  0  0  0  0  0  0  0  0  0  0  0
    4.7312    0.7656    0.6514 H   0  0  0  0  0  0  0  0  0  0  0  0
    3.3115    1.6169    1.3224 H   0  0  0  0  0  0  0  0  0  0  0  0
    5.5241    4.0921   -2.0606 H   0  0  0  0  0  0  0  0  0  0  0  0
    4.1178    4.9720   -1.4301 H   0  0  0  0  0  0  0  0  0  0  0  0
    5.7307    5.2842   -0.7659 H   0  0  0  0  0  0  0  0  0  0  0  0
    3.4119   -2.9001   -0.8599 H   0  0  0  0  0  0  0  0  0  0  0  0
   -2.3524    0.4044    2.1499 H   0  0  0  0  0  0  0  0  0  0  0  0
   -1.5917    1.6321    1.1199 H   0  0  0  0  0  0  0  0  0  0  0  0
   -1.5242   -2.5962   -0.4530 H   0  0  0  0  0  0  0  0  0  0  0  0
    1.9566   -4.5359   -2.0130 H   0  0  0  0  0  0  0  0  0  0  0  0
   -0.5094   -4.3700   -1.8051 H   0  0  0  0  0  0  0  0  0  0  0  0
   -2.7106    2.4603   -0.9026 H   0  0  0  0  0  0  0  0  0  0  0  0
   -4.5590   -0.5217    1.5999 H   0  0  0  0  0  0  0  0  0  0  0  0
   -4.8748    2.8456   -2.0314 H   0  0  0  0  0  0  0  0  0  0  0  0
   -6.7180   -0.1278    0.4637 H   0  0  0  0  0  0  0  0  0  0  0  0
   -6.8812    1.5542   -1.3527 H   0  0  0  0  0  0  0  0  0  0  0  0
  1  7  1  0  0  0  0
  1 11  1  0  0  0  0
  2 13  1  0  0  0  0
  2 16  1  0  0  0  0
  3 11  2  0  0  0  0
  4 16  2  0  0  0  0
  5  6  1  0  0  0  0
  5  7  1  0  0  0  0
  5 24  1  0  0  0  0
  5 25  1  0  0  0  0
  6 10  1  0  0  0  0
  6 26  1  0  0  0  0
  6 27  1  0  0  0  0
  7 28  1  0  0  0  0
  7 29  1  0  0  0  0
  8  9  1  0  0  0  0
  8 11  1  0  0  0  0
  8 12  2  0  0  0  0
  9 15  2  0  0  0  0
  9 16  1  0  0  0  0
 10 30  1  0  0  0  0
 10 31  1  0  0  0  0
 10 32  1  0  0  0  0
 12 17  1  0  0  0  0
 12 33  1  0  0  0  0
 13 14  1  0  0  0  0
 13 34  1  0  0  0  0
 13 35  1  0  0  0  0
 14 19  2  0  0  0  0
 14 20  1  0  0  0  0
 15 18  1  0  0  0  0
 15 36  1  0  0  0  0
 17 18  2  0  0  0  0
 17 37  1  0  0  0  0
 18 38  1  0  0  0  0
 19 21  1  0  0  0  0
 19 39  1  0  0  0  0
 20 22  2  0  0  0  0
 20 40  1  0  0  0  0
 21 23  2  0  0  0  0
 21 41  1  0  0  0  0
 22 23  1  0  0  0  0
 22 42  1  0  0  0  0
 23 43  1  0  0  0  0
M  END
> <PUBCHEM_COMPOUND_CID>
2347

> <PUBCHEM_CONFORMER_RMSD>
1

> <PUBCHEM_CONFORMER_DIVERSEORDER>
1
82
42
161
84
133
167
113
145
98
177
3
37
200
141
115
93
77
203
188
92
66
148
45
4
123
72
71
180
15
127
85
152
104
97
20
78
56
76
121
129
183
118
6
189
174
81
191
193
11
22
151
181
122
26
187
162
111
163
75
88
91
64
150
116
137
120
31
136
94
9
65
44
40
160
132
124
13
156
105
186
96
165
168
59
173
114
176
139
32
184
135
30
107
185
169
53
102
54
100
198
73
70
17
57
62
138
2
68
7
14
58
90
159
38
47
23
106
36
83
55
95
110
182
195
43
10
179
28
112
49
61
143
154
27
74
34
126
35
33
201
86
134
128
157
60
190
172
24
87
178
192
158
142
117
41
130
46
175
79
48
166
170
39
29
12
171
52
144
164
196
202
80
16
131
5
119
67
99
108
101
18
199
21
153
8
51
69
197
25
63
19
89
149
109
204
140
194
146
50
147
155
125
103

> <PUBCHEM_MMFF94_PARTIAL_CHARGES>
29
1 -0.43
11 0.63
12 -0.15
13 0.42
14 -0.14
15 -0.15
16 0.63
17 -0.15
18 -0.15
19 -0.15
2 -0.43
20 -0.15
21 -0.15
22 -0.15
23 -0.15
3 -0.57
33 0.15
36 0.15
37 0.15
38 0.15
39 0.15
4 -0.57
40 0.15
41 0.15
42 0.15
43 0.15
7 0.28
8 0.09
9 0.09

> <PUBCHEM_EFFECTIVE_ROTOR_COUNT>
9

> <PUBCHEM_PHARMACOPHORE_FEATURES>
5
1 10 hydrophobe
1 3 acceptor
1 4 acceptor
6 14 19 20 21 22 23 rings
6 8 9 12 15 17 18 rings

> <PUBCHEM_HEAVY_ATOM_COUNT>
23

> <PUBCHEM_ATOM_DEF_STEREO_COUNT>
0

> <PUBCHEM_ATOM_UDEF_STEREO_COUNT>
0

> <PUBCHEM_BOND_DEF_STEREO_COUNT>
0

> <PUBCHEM_BOND_UDEF_STEREO_COUNT>
0

> <PUBCHEM_ISOTOPIC_ATOM_COUNT>
0

> <PUBCHEM_COMPONENT_COUNT>
1

> <PUBCHEM_CACTVS_TAUTO_COUNT>
1

> <PUBCHEM_CONFORMER_ID>
0000092B00000001

> <PUBCHEM_MMFF94_ENERGY>
59.671

> <PUBCHEM_FEATURE_SELFOVERLAP>
25.373

> <PUBCHEM_SHAPE_FINGERPRINT>
10871710 139 17836643024916007188
10937287 8 18337669694715644324
12293681 4 16684303659970660646
12633257 1 15051452627237282772
12788726 201 17829343388451887886
12895837 130 17767678361657203220
13583140 156 17916297410967871539
13836976 161 18188497976838091434
13911987 19 18261383395921290857
14142880 1 17912087149105903932
14251764 38 18199753707542348637
14774955 27 18413108342400595969
15475509 35 8285614547315280461
15537594 2 17168440328620142823
15575132 122 18123462791583031876
15849732 13 18337120081021137130
15961568 22 17989201568571272925
16120349 189 18128255576171212652
16992828 155 17913495636207828452
17134986 127 18335975411837912494
17980427 26 17632032861994287738
20645477 70 18043535134444205267
21033648 29 15338854087532670301
21365058 113 17828749974274162126
22149856 69 18040711498959196819
23559900 14 18194401328082875211
239999 70 18265335204057483211
24893989 43 15145516921030705453
2838139 119 18272093755941009892
3057174 1 18113328700722223822
312423 11 17170111688951655627
328310 1195 18127421257129913733
34797466 226 18340771546262284213
46194498 28 18339930441199505981
5223283 242 17472136658497925437
5281201 14 18120654897153454983
6034566 193 18267868280893982805
6327066 14 18268147565759541356
7808743 9 18194402187107826920

> <PUBCHEM_SHAPE_MULTIPOLES>
449.85
12.27
5.22
1.4
10.51
0.12
-0.18
16.53
2.35
-8.6
3.39
-0.12
-0.25
-0.2

> <PUBCHEM_SHAPE_SELFOVERLAP>
945.784

> <PUBCHEM_SHAPE_VOLUME>
253.2

> <PUBCHEM_COORDINATE_TYPE>
2
5
10

$$$$

