193475
  -OEChem-07051212483D

 24 23  0     1  0  0  0  0  0999 V2000
    3.6560   -0.0560   -0.0760 P   0  0  0  0  0  0  0  0  0  0  0  0
    2.1485   -0.5460    0.2356 O   0  0  0  0  0  0  0  0  0  0  0  0
   -3.9517    1.5364    0.6092 O   0  0  0  0  0  0  0  0  0  0  0  0
    1.0227    1.2600   -0.6114 O   0  0  0  0  0  0  0  0  0  0  0  0
   -4.8855   -0.0509   -0.7141 O   0  0  0  0  0  0  0  0  0  0  0  0
    3.8577    1.2263    0.8893 O   0  0  0  0  0  0  0  0  0  0  0  0
    4.5694   -1.1869    0.6335 O   0  0  0  0  0  0  0  0  0  0  0  0
    3.9795    0.1872   -1.5211 O   0  0  0  0  0  0  0  0  0  0  0  0
   -2.9545   -1.8590   -0.1705 N   0  0  0  0  0  0  0  0  0  0  0  0
   -1.4940    0.1433   -0.0355 C   0  0  0  0  0  0  0  0  0  0  0  0
   -2.7869   -0.5391    0.4375 C   0  0  1  0  0  0  0  0  0  0  0  0
   -0.2066   -0.5814    0.3567 C   0  0  0  0  0  0  0  0  0  0  0  0
    1.0314    0.1628   -0.0704 C   0  0  0  0  0  0  0  0  0  0  0  0
   -3.9860    0.3032    0.0371 C   0  0  0  0  0  0  0  0  0  0  0  0
   -1.5199    0.2737   -1.1266 H   0  0  0  0  0  0  0  0  0  0  0  0
   -1.4540    1.1616    0.3742 H   0  0  0  0  0  0  0  0  0  0  0  0
   -2.8007   -0.6483    1.5274 H   0  0  0  0  0  0  0  0  0  0  0  0
   -0.1702   -0.7037    1.4449 H   0  0  0  0  0  0  0  0  0  0  0  0
   -0.1745   -1.5697   -0.1141 H   0  0  0  0  0  0  0  0  0  0  0  0
   -2.2139   -2.4821    0.1478 H   0  0  0  0  0  0  0  0  0  0  0  0
   -2.8483   -1.7904   -1.1823 H   0  0  0  0  0  0  0  0  0  0  0  0
   -4.7231    2.0825    0.3464 H   0  0  0  0  0  0  0  0  0  0  0  0
    3.4705    2.0870    0.6219 H   0  0  0  0  0  0  0  0  0  0  0  0
    4.7005   -2.0454    0.1775 H   0  0  0  0  0  0  0  0  0  0  0  0
  1  2  1  0  0  0  0
  1  6  1  0  0  0  0
  1  7  1  0  0  0  0
  1  8  2  0  0  0  0
  2 13  1  0  0  0  0
  3 14  1  0  0  0  0
  3 22  1  0  0  0  0
  4 13  2  0  0  0  0
  5 14  2  0  0  0  0
  6 23  1  0  0  0  0
  7 24  1  0  0  0  0
  9 11  1  0  0  0  0
  9 20  1  0  0  0  0
  9 21  1  0  0  0  0
 10 11  1  0  0  0  0
 10 12  1  0  0  0  0
 10 15  1  0  0  0  0
 10 16  1  0  0  0  0
 11 14  1  0  0  0  0
 11 17  1  0  0  0  0
 12 13  1  0  0  0  0
 12 18  1  0  0  0  0
 12 19  1  0  0  0  0
M  END
> <PUBCHEM_COMPOUND_CID>
193475

> <PUBCHEM_CONFORMER_RMSD>
0.6

> <PUBCHEM_CONFORMER_DIVERSEORDER>
5
212
31
141
168
178
42
235
236
69
183
203
210
73
11
267
64
209
96
57
78
243
231
176
167
129
8
142
138
9
23
13
242
85
163
150
7
204
71
72
36
76
171
49
234
233
48
156
56
117
146
121
257
12
164
237
128
14
260
268
187
181
226
39
261
219
126
10
228
18
118
81
4
258
180
223
19
247
87
38
263
264
37
47
206
213
192
145
240
29
61
252
199
68
88
248
184
53
136
224
172
102
32
162
170
58
124
89
26
238
250
83
134
208
246
186
17
131
266
153
16
46
218
45
80
84
222
245
189
43
241
113
149
160
66
77
34
147
40
265
132
216
1
253
106
211
92
152
20
251
21
175
28
256
86
54
22
244
269
55
75
174
112
65
35
201
205
44
197
220
198
166
182
144
95
173
70
108
50
196
116
227
165
195
2
33
270
135
151
6
98
91
221
107
52
79
105
101
41
161
94
214
30
125
185
190
123
24
97
133
254
215
103
25
148
158
262
82
114
3
139
229
191
179
259
217
67
63
90
157
249
154
255
239
202
200
155
51
15
115
225
111
74
104
119
140
127
99
109
122
60
110
27
143
194
159
169
207
120
232
62
137
230
177
59
93
188
100
130
193

> <PUBCHEM_MMFF94_PARTIAL_CHARGES>
18
1 1.51
11 0.33
12 0.06
13 0.66
14 0.66
2 -0.42
20 0.36
21 0.36
22 0.5
23 0.5
24 0.5
3 -0.65
4 -0.57
5 -0.57
6 -0.77
7 -0.77
8 -0.7
9 -0.99

> <PUBCHEM_EFFECTIVE_ROTOR_COUNT>
6

> <PUBCHEM_PHARMACOPHORE_FEATURES>
10
1 3 acceptor
1 4 acceptor
1 5 acceptor
1 6 acceptor
1 7 acceptor
1 8 acceptor
1 9 cation
1 9 donor
3 3 5 14 anion
4 1 6 7 8 anion

> <PUBCHEM_HEAVY_ATOM_COUNT>
14

> <PUBCHEM_ATOM_DEF_STEREO_COUNT>
1

> <PUBCHEM_ATOM_UDEF_STEREO_COUNT>
0

> <PUBCHEM_BOND_DEF_STEREO_COUNT>
0

> <PUBCHEM_BOND_UDEF_STEREO_COUNT>
0

> <PUBCHEM_ISOTOPIC_ATOM_COUNT>
0

> <PUBCHEM_COMPONENT_COUNT>
1

> <PUBCHEM_CACTVS_TAUTO_COUNT>
1

> <PUBCHEM_CONFORMER_ID>
0002F3C300000005

> <PUBCHEM_MMFF94_ENERGY>
-21.5084

> <PUBCHEM_FEATURE_SELFOVERLAP>
50.841

> <PUBCHEM_SHAPE_FINGERPRINT>
10014705 185 18201444657978490029
10680689 15 18334005069551926379
11401426 45 18343588425415050826
124424 183 17676207970142385779
12932764 1 13829856751413689875
13760787 5 17489868232767094966
14123238 8 18408323280760206733
15375358 24 18113052744409157887
17834072 33 18272369728990495015
17834072 8 18412261757001434302
18186145 218 18040987428162203234
19026448 4 17749385940759213418
1986462 14 18411980239476055031
200 152 7637394100152882193
20279233 1 17749103391982890575
20281475 54 17917711271077623394
20300324 65 17968099712052469209
20645477 56 18261947536007479025
20645477 70 16298658473632850302
22485316 2 18412266116641230746
23402539 116 18259993678222745573
23402655 69 18201997729026998292
23559900 14 18187081746264334098
522135 26 17418373606279117290
573450 72 18410863174111270691

> <PUBCHEM_SHAPE_MULTIPOLES>
245.9
10.49
1.28
0.88
0.11
0.08
0.15
-0.28
0.29
-0.39
-0.13
0.58
-0.1
-0.34

> <PUBCHEM_SHAPE_SELFOVERLAP>
461.667

> <PUBCHEM_SHAPE_VOLUME>
152.6

> <PUBCHEM_COORDINATE_TYPE>
2
5
10

$$$$

