9121
  -OEChem-07051213142D

 44 50  0     0  0  0  0  0  0999 V2000
    6.5410   -0.1827    0.0000 C   0  0  0  0  0  0  0  0  0  0  0  0
    5.6750    0.3173    0.0000 C   0  0  0  0  0  0  0  0  0  0  0  0
    7.4070    0.3173    0.0000 C   0  0  0  0  0  0  0  0  0  0  0  0
    5.6750    1.3173    0.0000 C   0  0  0  0  0  0  0  0  0  0  0  0
    6.5249   -1.2242    0.0000 C   0  0  0  0  0  0  0  0  0  0  0  0
    4.7810   -0.2174    0.0000 C   0  0  0  0  0  0  0  0  0  0  0  0
    7.4070    1.3173    0.0000 C   0  0  0  0  0  0  0  0  0  0  0  0
    6.5410    1.8173    0.0000 C   0  0  0  0  0  0  0  0  0  0  0  0
    3.8749    0.2965    0.0000 C   0  0  0  0  0  0  0  0  0  0  0  0
    7.4230   -1.7520    0.0000 C   0  0  0  0  0  0  0  0  0  0  0  0
    4.7810    1.8520    0.0000 C   0  0  0  0  0  0  0  0  0  0  0  0
    8.3170   -0.1896    0.0000 C   0  0  0  0  0  0  0  0  0  0  0  0
    3.8749    1.3381    0.0000 C   0  0  0  0  0  0  0  0  0  0  0  0
    8.3250   -1.2312    0.0000 C   0  0  0  0  0  0  0  0  0  0  0  0
    4.8188   -1.2084    0.0000 C   0  0  0  0  0  0  0  0  0  0  0  0
    5.6902   -1.6818    0.0000 C   0  0  0  0  0  0  0  0  0  0  0  0
    6.5249    2.8588    0.0000 C   0  0  0  0  0  0  0  0  0  0  0  0
    8.3170    1.8241    0.0000 C   0  0  0  0  0  0  0  0  0  0  0  0
    2.9438   -0.2604    0.0000 C   0  0  0  0  0  0  0  0  0  0  0  0
    7.4062   -2.8368    0.0000 C   0  0  0  0  0  0  0  0  0  0  0  0
    9.2729   -1.7591    0.0000 C   0  0  0  0  0  0  0  0  0  0  0  0
    2.9438    1.8950    0.0000 C   0  0  0  0  0  0  0  0  0  0  0  0
    8.3250    2.8657    0.0000 C   0  0  0  0  0  0  0  0  0  0  0  0
    7.4230    3.3866    0.0000 C   0  0  0  0  0  0  0  0  0  0  0  0
    8.3416   -3.3866    0.0000 C   0  0  0  0  0  0  0  0  0  0  0  0
    2.0000    0.2748    0.0000 C   0  0  0  0  0  0  0  0  0  0  0  0
    9.2813   -2.8441    0.0000 C   0  0  0  0  0  0  0  0  0  0  0  0
    2.0000    1.3598    0.0000 C   0  0  0  0  0  0  0  0  0  0  0  0
    8.8503    0.1266    0.0000 H   0  0  0  0  0  0  0  0  0  0  0  0
    4.7882    2.4719    0.0000 H   0  0  0  0  0  0  0  0  0  0  0  0
    4.2921   -1.5354    0.0000 H   0  0  0  0  0  0  0  0  0  0  0  0
    5.6913   -2.3018    0.0000 H   0  0  0  0  0  0  0  0  0  0  0  0
    5.9844    3.1626    0.0000 H   0  0  0  0  0  0  0  0  0  0  0  0
    8.8503    1.5079    0.0000 H   0  0  0  0  0  0  0  0  0  0  0  0
    2.9510   -0.8804    0.0000 H   0  0  0  0  0  0  0  0  0  0  0  0
    6.8657   -3.1406    0.0000 H   0  0  0  0  0  0  0  0  0  0  0  0
    2.9510    2.5150    0.0000 H   0  0  0  0  0  0  0  0  0  0  0  0
    9.8062   -1.4429    0.0000 H   0  0  0  0  0  0  0  0  0  0  0  0
    7.4206    4.0066    0.0000 H   0  0  0  0  0  0  0  0  0  0  0  0
    8.8632    3.1737    0.0000 H   0  0  0  0  0  0  0  0  0  0  0  0
    1.4643   -0.0373    0.0000 H   0  0  0  0  0  0  0  0  0  0  0  0
    8.3393   -4.0066    0.0000 H   0  0  0  0  0  0  0  0  0  0  0  0
    9.8194   -3.1520    0.0000 H   0  0  0  0  0  0  0  0  0  0  0  0
    1.4643    1.6719    0.0000 H   0  0  0  0  0  0  0  0  0  0  0  0
  1  2  1  0  0  0  0
  1  3  1  0  0  0  0
  1  5  2  0  0  0  0
  2  4  1  0  0  0  0
  2  6  2  0  0  0  0
  3  7  1  0  0  0  0
  3 12  2  0  0  0  0
  4  8  1  0  0  0  0
  4 11  2  0  0  0  0
  5 10  1  0  0  0  0
  5 16  1  0  0  0  0
  6  9  1  0  0  0  0
  6 15  1  0  0  0  0
  7  8  1  0  0  0  0
  7 18  2  0  0  0  0
  8 17  2  0  0  0  0
  9 13  1  0  0  0  0
  9 19  2  0  0  0  0
 10 14  1  0  0  0  0
 10 20  2  0  0  0  0
 11 13  1  0  0  0  0
 11 30  1  0  0  0  0
 12 14  1  0  0  0  0
 12 29  1  0  0  0  0
 13 22  2  0  0  0  0
 14 21  2  0  0  0  0
 15 16  2  0  0  0  0
 15 31  1  0  0  0  0
 16 32  1  0  0  0  0
 17 24  1  0  0  0  0
 17 33  1  0  0  0  0
 18 23  1  0  0  0  0
 18 34  1  0  0  0  0
 19 26  1  0  0  0  0
 19 35  1  0  0  0  0
 20 25  1  0  0  0  0
 20 36  1  0  0  0  0
 21 27  1  0  0  0  0
 21 38  1  0  0  0  0
 22 28  1  0  0  0  0
 22 37  1  0  0  0  0
 23 24  2  0  0  0  0
 23 40  1  0  0  0  0
 24 39  1  0  0  0  0
 25 27  2  0  0  0  0
 25 42  1  0  0  0  0
 26 28  2  0  0  0  0
 26 41  1  0  0  0  0
 27 43  1  0  0  0  0
 28 44  1  0  0  0  0
M  END
> <PUBCHEM_COMPOUND_CID>
9121

> <PUBCHEM_COMPOUND_CANONICALIZED>
1

> <PUBCHEM_CACTVS_COMPLEXITY>
541

> <PUBCHEM_CACTVS_HBOND_ACCEPTOR>
0

> <PUBCHEM_CACTVS_HBOND_DONOR>
0

> <PUBCHEM_CACTVS_ROTATABLE_BOND>
0

> <PUBCHEM_CACTVS_SUBSKEYS>
AAADceB4AAAAAAAAAAAAAAAAAAAAAAAAAAAwYMGDAAAAAADBVAAAGAAAAAAADACAGAAwAMAAAACAAiBCAAACAAAgAAAIiAAAAIgIICKAERCAIAAggAAIiAcAgMAOwAACAAAQAACAAAQAACAAAAAAAAAAAA==

> <PUBCHEM_IUPAC_INCHI>
InChI=1S/C28H16/c1-3-9-19-17(7-1)15-25-21-11-5-6-12-22(21)26-16-18-8-2-4-10-20(18)24-14-13-23(19)27(25)28(24)26/h1-16H

> <PUBCHEM_IUPAC_INCHIKEY>
LMNAZSSKDBUVFA-UHFFFAOYSA-N

> <PUBCHEM_XLOGP3_AA>
8.3

> <PUBCHEM_EXACT_MASS>
352.125201

> <PUBCHEM_MOLECULAR_FORMULA>
C28H16

> <PUBCHEM_MOLECULAR_WEIGHT>
352.42664

> <PUBCHEM_OPENEYE_CAN_SMILES>
C1=CC=C2C3=C4C(=CC2=C1)C5=CC=CC=C5C6=CC7=CC=CC=C7C(=C64)C=C3

> <PUBCHEM_OPENEYE_ISO_SMILES>
C1=CC=C2C3=C4C(=CC2=C1)C5=CC=CC=C5C6=CC7=CC=CC=C7C(=C64)C=C3

> <PUBCHEM_CACTVS_TPSA>
0

> <PUBCHEM_MONOISOTOPIC_WEIGHT>
352.125201

> <PUBCHEM_TOTAL_CHARGE>
0

> <PUBCHEM_HEAVY_ATOM_COUNT>
28

> <PUBCHEM_ATOM_DEF_STEREO_COUNT>
0

> <PUBCHEM_ATOM_UDEF_STEREO_COUNT>
0

> <PUBCHEM_BOND_DEF_STEREO_COUNT>
0

> <PUBCHEM_BOND_UDEF_STEREO_COUNT>
0

> <PUBCHEM_ISOTOPIC_ATOM_COUNT>
0

> <PUBCHEM_COMPONENT_COUNT>
1

> <PUBCHEM_CACTVS_TAUTO_COUNT>
1

> <PUBCHEM_COORDINATE_TYPE>
1
5
255

> <PUBCHEM_BONDANNOTATIONS>
1  2  8
1  3  8
1  5  8
10  14  8
10  20  8
11  13  8
12  14  8
13  22  8
14  21  8
15  16  8
17  24  8
18  23  8
19  26  8
2  4  8
2  6  8
20  25  8
21  27  8
22  28  8
23  24  8
25  27  8
26  28  8
3  12  8
3  7  8
4  11  8
4  8  8
5  10  8
5  16  8
6  15  8
6  9  8
7  18  8
7  8  8
8  17  8
9  13  8
9  19  8

$$$$

