10304
  -OEChem-06261204273D

 72 73  0     0  0  0  0  0  0999 V2000
   -4.4354   -2.0879   -0.2055 O   0  0  0  0  0  0  0  0  0  0  0  0
    4.3583    2.1315   -0.1008 O   0  0  0  0  0  0  0  0  0  0  0  0
   -4.8875    1.2950    0.3405 N   0  0  0  0  0  0  0  0  0  0  0  0
    4.8021   -1.2592    0.4182 N   0  0  0  0  0  0  0  0  0  0  0  0
   -3.0792   -0.1422   -0.4934 C   0  0  0  0  0  0  0  0  0  0  0  0
    3.0079    0.1892   -0.4356 C   0  0  0  0  0  0  0  0  0  0  0  0
   -0.6907   -0.2914   -0.1613 C   0  0  0  0  0  0  0  0  0  0  0  0
    0.6136    0.3348   -0.1459 C   0  0  0  0  0  0  0  0  0  0  0  0
   -4.2778    0.6790   -0.8384 C   0  0  0  0  0  0  0  0  0  0  0  0
    4.2226   -0.6348   -0.7705 C   0  0  0  0  0  0  0  0  0  0  0  0
   -1.8216    0.4610   -0.4793 C   0  0  0  0  0  0  0  0  0  0  0  0
    1.7502   -0.4139   -0.4514 C   0  0  0  0  0  0  0  0  0  0  0  0
   -2.0754   -2.2499    0.1283 C   0  0  0  0  0  0  0  0  0  0  0  0
    1.9925    2.2899    0.1914 C   0  0  0  0  0  0  0  0  0  0  0  0
   -3.2061   -1.4975   -0.1897 C   0  0  0  0  0  0  0  0  0  0  0  0
    3.1289    1.5411   -0.1143 C   0  0  0  0  0  0  0  0  0  0  0  0
   -0.8176   -1.6467    0.1424 C   0  0  0  0  0  0  0  0  0  0  0  0
    0.7349    1.6867    0.1756 C   0  0  0  0  0  0  0  0  0  0  0  0
   -4.1120    2.4592    0.7666 C   0  0  0  0  0  0  0  0  0  0  0  0
   -6.2707    1.6763    0.0595 C   0  0  0  0  0  0  0  0  0  0  0  0
    3.8094   -2.0957    1.0915 C   0  0  0  0  0  0  0  0  0  0  0  0
    5.9780   -2.0507    0.0580 C   0  0  0  0  0  0  0  0  0  0  0  0
   -2.1920   -3.7021    0.4561 C   0  0  0  0  0  0  0  0  0  0  0  0
    2.1029    3.7383    0.5377 C   0  0  0  0  0  0  0  0  0  0  0  0
   -4.7304    3.1127    1.9907 C   0  0  0  0  0  0  0  0  0  0  0  0
   -7.1059    0.4674   -0.3267 C   0  0  0  0  0  0  0  0  0  0  0  0
    4.3945   -2.7530    2.3300 C   0  0  0  0  0  0  0  0  0  0  0  0
    7.0459   -1.1845   -0.5881 C   0  0  0  0  0  0  0  0  0  0  0  0
   -2.0714   -4.5896   -0.7547 C   0  0  0  0  0  0  0  0  0  0  0  0
    2.0046    4.6395   -0.6649 C   0  0  0  0  0  0  0  0  0  0  0  0
   -1.1561   -5.5558   -0.8899 C   0  0  0  0  0  0  0  0  0  0  0  0
    2.9835    5.4533   -1.0761 C   0  0  0  0  0  0  0  0  0  0  0  0
   -3.9980    1.4510   -1.5714 H   0  0  0  0  0  0  0  0  0  0  0  0
   -4.9453    0.0378   -1.4191 H   0  0  0  0  0  0  0  0  0  0  0  0
    4.9298    0.0063   -1.3064 H   0  0  0  0  0  0  0  0  0  0  0  0
    3.9380   -1.4006   -1.5076 H   0  0  0  0  0  0  0  0  0  0  0  0
   -1.7451    1.5063   -0.7677 H   0  0  0  0  0  0  0  0  0  0  0  0
    1.6788   -1.4561   -0.7525 H   0  0  0  0  0  0  0  0  0  0  0  0
    0.0397   -2.2531    0.4241 H   0  0  0  0  0  0  0  0  0  0  0  0
   -0.1279    2.2896    0.4481 H   0  0  0  0  0  0  0  0  0  0  0  0
   -3.1042    2.1579    1.0662 H   0  0  0  0  0  0  0  0  0  0  0  0
   -4.0121    3.2053   -0.0319 H   0  0  0  0  0  0  0  0  0  0  0  0
   -6.3339    2.4375   -0.7284 H   0  0  0  0  0  0  0  0  0  0  0  0
   -6.7530    2.0849    0.9531 H   0  0  0  0  0  0  0  0  0  0  0  0
    2.9830   -1.4911    1.4758 H   0  0  0  0  0  0  0  0  0  0  0  0
    3.3968   -2.8681    0.4304 H   0  0  0  0  0  0  0  0  0  0  0  0
    6.4527   -2.4716    0.9500 H   0  0  0  0  0  0  0  0  0  0  0  0
    5.7242   -2.8861   -0.6066 H   0  0  0  0  0  0  0  0  0  0  0  0
   -3.1519   -3.9078    0.9464 H   0  0  0  0  0  0  0  0  0  0  0  0
   -1.4356   -3.9688    1.2066 H   0  0  0  0  0  0  0  0  0  0  0  0
    3.0298    3.9260    1.0949 H   0  0  0  0  0  0  0  0  0  0  0  0
    1.3019    4.0134    1.2368 H   0  0  0  0  0  0  0  0  0  0  0  0
   -5.6235    3.6972    1.7487 H   0  0  0  0  0  0  0  0  0  0  0  0
   -4.9804    2.3776    2.7635 H   0  0  0  0  0  0  0  0  0  0  0  0
   -4.0126    3.8142    2.4313 H   0  0  0  0  0  0  0  0  0  0  0  0
   -6.9338    0.1229   -1.3496 H   0  0  0  0  0  0  0  0  0  0  0  0
   -6.9655   -0.3659    0.3692 H   0  0  0  0  0  0  0  0  0  0  0  0
   -8.1677    0.7385   -0.2801 H   0  0  0  0  0  0  0  0  0  0  0  0
    5.0537   -3.5923    2.0877 H   0  0  0  0  0  0  0  0  0  0  0  0
    4.9402   -2.0366    2.9537 H   0  0  0  0  0  0  0  0  0  0  0  0
    3.5842   -3.1648    2.9430 H   0  0  0  0  0  0  0  0  0  0  0  0
    6.8048   -0.9231   -1.6229 H   0  0  0  0  0  0  0  0  0  0  0  0
    7.2230   -0.2649   -0.0197 H   0  0  0  0  0  0  0  0  0  0  0  0
    7.9935   -1.7344   -0.6205 H   0  0  0  0  0  0  0  0  0  0  0  0
   -5.1212   -1.4257   -0.0307 H   0  0  0  0  0  0  0  0  0  0  0  0
    5.0457    1.4673    0.0686 H   0  0  0  0  0  0  0  0  0  0  0  0
   -2.7912   -4.4438   -1.5567 H   0  0  0  0  0  0  0  0  0  0  0  0
    1.0692    4.6330   -1.2194 H   0  0  0  0  0  0  0  0  0  0  0  0
   -0.4207   -5.7521   -0.1177 H   0  0  0  0  0  0  0  0  0  0  0  0
   -1.1309   -6.1673   -1.7852 H   0  0  0  0  0  0  0  0  0  0  0  0
    3.9337    5.5042   -0.5562 H   0  0  0  0  0  0  0  0  0  0  0  0
    2.8446    6.0833   -1.9478 H   0  0  0  0  0  0  0  0  0  0  0  0
  1 15  1  0  0  0  0
  1 65  1  0  0  0  0
  2 16  1  0  0  0  0
  2 66  1  0  0  0  0
  3  9  1  0  0  0  0
  3 19  1  0  0  0  0
  3 20  1  0  0  0  0
  4 10  1  0  0  0  0
  4 21  1  0  0  0  0
  4 22  1  0  0  0  0
  5  9  1  0  0  0  0
  5 11  2  0  0  0  0
  5 15  1  0  0  0  0
  6 10  1  0  0  0  0
  6 12  2  0  0  0  0
  6 16  1  0  0  0  0
  7  8  1  0  0  0  0
  7 11  1  0  0  0  0
  7 17  2  0  0  0  0
  8 12  1  0  0  0  0
  8 18  2  0  0  0  0
  9 33  1  0  0  0  0
  9 34  1  0  0  0  0
 10 35  1  0  0  0  0
 10 36  1  0  0  0  0
 11 37  1  0  0  0  0
 12 38  1  0  0  0  0
 13 15  2  0  0  0  0
 13 17  1  0  0  0  0
 13 23  1  0  0  0  0
 14 16  2  0  0  0  0
 14 18  1  0  0  0  0
 14 24  1  0  0  0  0
 17 39  1  0  0  0  0
 18 40  1  0  0  0  0
 19 25  1  0  0  0  0
 19 41  1  0  0  0  0
 19 42  1  0  0  0  0
 20 26  1  0  0  0  0
 20 43  1  0  0  0  0
 20 44  1  0  0  0  0
 21 27  1  0  0  0  0
 21 45  1  0  0  0  0
 21 46  1  0  0  0  0
 22 28  1  0  0  0  0
 22 47  1  0  0  0  0
 22 48  1  0  0  0  0
 23 29  1  0  0  0  0
 23 49  1  0  0  0  0
 23 50  1  0  0  0  0
 24 30  1  0  0  0  0
 24 51  1  0  0  0  0
 24 52  1  0  0  0  0
 25 53  1  0  0  0  0
 25 54  1  0  0  0  0
 25 55  1  0  0  0  0
 26 56  1  0  0  0  0
 26 57  1  0  0  0  0
 26 58  1  0  0  0  0
 27 59  1  0  0  0  0
 27 60  1  0  0  0  0
 27 61  1  0  0  0  0
 28 62  1  0  0  0  0
 28 63  1  0  0  0  0
 28 64  1  0  0  0  0
 29 31  2  0  0  0  0
 29 67  1  0  0  0  0
 30 32  2  0  0  0  0
 30 68  1  0  0  0  0
 31 69  1  0  0  0  0
 31 70  1  0  0  0  0
 32 71  1  0  0  0  0
 32 72  1  0  0  0  0
M  END
> <PUBCHEM_COMPOUND_CID>
10304

> <PUBCHEM_CONFORMER_RMSD>
1.2

> <PUBCHEM_CONFORMER_DIVERSEORDER>
12
10
3
2
4
30
7
24
29
9
34
17
28
19
1
16
32
6
15
11
18
21
31
27
14
23
20
13
26
5
25
22
33
8

> <PUBCHEM_MMFF94_PARTIAL_CHARGES>
38
1 -0.53
10 0.41
11 -0.15
12 -0.15
13 -0.14
14 -0.14
15 0.08
16 0.08
17 -0.15
18 -0.15
19 0.27
2 -0.53
20 0.27
21 0.27
22 0.27
23 0.28
24 0.28
29 -0.29
3 -0.81
30 -0.29
31 -0.3
32 -0.3
37 0.15
38 0.15
39 0.15
4 -0.81
40 0.15
5 -0.14
6 -0.14
65 0.45
66 0.45
67 0.15
68 0.15
69 0.15
70 0.15
71 0.15
72 0.15
9 0.41

> <PUBCHEM_EFFECTIVE_ROTOR_COUNT>
13

> <PUBCHEM_PHARMACOPHORE_FEATURES>
8
1 1 donor
1 2 donor
1 3 cation
1 31 hydrophobe
1 32 hydrophobe
1 4 cation
6 5 7 11 13 15 17 rings
6 6 8 12 14 16 18 rings

> <PUBCHEM_HEAVY_ATOM_COUNT>
32

> <PUBCHEM_ATOM_DEF_STEREO_COUNT>
0

> <PUBCHEM_ATOM_UDEF_STEREO_COUNT>
0

> <PUBCHEM_BOND_DEF_STEREO_COUNT>
0

> <PUBCHEM_BOND_UDEF_STEREO_COUNT>
0

> <PUBCHEM_ISOTOPIC_ATOM_COUNT>
0

> <PUBCHEM_COMPONENT_COUNT>
1

> <PUBCHEM_CACTVS_TAUTO_COUNT>
5

> <PUBCHEM_CONFORMER_ID>
000028400000000C

> <PUBCHEM_MMFF94_ENERGY>
84.85

> <PUBCHEM_FEATURE_SELFOVERLAP>
40.594

> <PUBCHEM_SHAPE_FINGERPRINT>
10050765 1 18267021648345197151
102385 1 18194684756936915366
10906281 52 18190163745891974190
10940486 97 18411696561202039156
1100329 8 18410575110443471456
11227688 84 17253718170412144750
11405975 8 18411138000262043137
12107183 9 18410575136213268849
12633257 1 18338800120990262543
12788726 201 18056200413447965458
14394314 77 18341618161467261034
14466204 15 18193557994047835385
14705955 166 17243036793469003450
14790565 3 18265610064657450761
14849402 71 18340763827763195057
15183329 4 18339924912779750839
15444296 121 18408879655430239750
16087824 20 18195807598764629757
17492 89 18122345679512333358
19319366 153 17703508917255096082
20028762 73 18188212125706061071
20286276 3 18195806267487661630
21033648 29 17386307462062642682
21065198 57 18266459815061985366
21133410 127 17844819074917373941
21133410 171 17182839369236397358
22311459 1 18338237189044859367
23559900 14 18336834091527012464
249057 3 18410575089037265238
3178227 256 18339911728016376513
335352 9 18410574010952994911
3383291 50 18334577962455416955
345986 75 17628655329634721834
3534868 343 17619911652156316191
392239 28 18263064605894195249
4073 2 18200029521830583088
463206 1 18272654558722214674
5104073 3 18411702067007208387
6086070 43 18127711502762483437
6371009 1 18335990860951509097
7226269 152 17822855423633690921

> <PUBCHEM_SHAPE_MULTIPOLES>
636.84
14.53
7
1.18
2.38
0.28
-0.59
0.78
-1.13
-1.52
0.98
-0.34
-0.07
-3.16

> <PUBCHEM_SHAPE_SELFOVERLAP>
1314.724

> <PUBCHEM_SHAPE_VOLUME>
370.1

> <PUBCHEM_COORDINATE_TYPE>
2
5
10

$$$$

