13935024
  -OEChem-07051213082D

 46 48  0     1  0  0  0  0  0999 V2000
    7.5376    2.2369    0.0000 O   0  0  0  0  0  0  0  0  0  0  0  0
    9.8835    1.1450    0.0000 O   0  0  0  0  0  0  0  0  0  0  0  0
    9.8873    3.3206    0.0000 O   0  0  0  0  0  0  0  0  0  0  0  0
    8.4898    4.7384    0.0000 O   0  0  0  0  0  0  0  0  0  0  0  0
    2.5369   -4.3284    0.0000 O   0  0  0  0  0  0  0  0  0  0  0  0
    7.8133    0.4763    0.0000 N   0  0  0  0  0  0  0  0  0  0  0  0
    7.8133   -1.1332    0.0000 N   0  0  0  0  0  0  0  0  0  0  0  0
    6.0010    0.6716    0.0000 N   0  0  0  0  0  0  0  0  0  0  0  0
    6.0010   -2.3284    0.0000 N   0  0  0  0  0  0  0  0  0  0  0  0
    5.1350   -0.8284    0.0000 N   0  0  0  0  0  0  0  0  0  0  0  0
    9.0755    1.7342    0.0000 C   0  0  1  0  0  0  0  0  0  0  0  0
    8.1240    1.4268    0.0000 C   0  0  1  0  0  0  0  0  0  0  0  0
    9.0773    2.7342    0.0000 C   0  0  1  0  0  0  0  0  0  0  0  0
    8.1268    3.0449    0.0000 C   0  0  1  0  0  0  0  0  0  0  0  0
    7.8194    3.9964    0.0000 C   0  0  0  0  0  0  0  0  0  0  0  0
    6.8671    0.1716    0.0000 C   0  0  0  0  0  0  0  0  0  0  0  0
    8.3969   -0.3284    0.0000 C   0  0  0  0  0  0  0  0  0  0  0  0
    6.8671   -0.8284    0.0000 C   0  0  0  0  0  0  0  0  0  0  0  0
    6.0010   -1.3284    0.0000 C   0  0  0  0  0  0  0  0  0  0  0  0
    5.1350    0.1716    0.0000 C   0  0  0  0  0  0  0  0  0  0  0  0
    5.1350   -2.8284    0.0000 C   0  0  0  0  0  0  0  0  0  0  0  0
    5.1350   -3.8284    0.0000 C   0  0  0  0  0  0  0  0  0  0  0  0
    4.2690   -4.3284    0.0000 C   0  0  0  0  0  0  0  0  0  0  0  0
    3.4030   -3.8284    0.0000 C   0  0  0  0  0  0  0  0  0  0  0  0
    4.2690   -5.3284    0.0000 C   0  0  0  0  0  0  0  0  0  0  0  0
    9.6284    2.0147    0.0000 H   0  0  0  0  0  0  0  0  0  0  0  0
    8.5616    0.9877    0.0000 H   0  0  0  0  0  0  0  0  0  0  0  0
    8.9813    3.3467    0.0000 H   0  0  0  0  0  0  0  0  0  0  0  0
    7.5146    3.1429    0.0000 H   0  0  0  0  0  0  0  0  0  0  0  0
    7.4385    4.4857    0.0000 H   0  0  0  0  0  0  0  0  0  0  0  0
    7.2714    3.7063    0.0000 H   0  0  0  0  0  0  0  0  0  0  0  0
   10.4504    1.3962    0.0000 H   0  0  0  0  0  0  0  0  0  0  0  0
   10.4533    3.0674    0.0000 H   0  0  0  0  0  0  0  0  0  0  0  0
    9.0169   -0.3284    0.0000 H   0  0  0  0  0  0  0  0  0  0  0  0
    8.2992    5.3284    0.0000 H   0  0  0  0  0  0  0  0  0  0  0  0
    4.5981    0.4816    0.0000 H   0  0  0  0  0  0  0  0  0  0  0  0
    6.5380   -2.6384    0.0000 H   0  0  0  0  0  0  0  0  0  0  0  0
    4.9230   -2.2458    0.0000 H   0  0  0  0  0  0  0  0  0  0  0  0
    4.5244   -2.9361    0.0000 H   0  0  0  0  0  0  0  0  0  0  0  0
    5.6720   -4.1384    0.0000 H   0  0  0  0  0  0  0  0  0  0  0  0
    3.8015   -3.3535    0.0000 H   0  0  0  0  0  0  0  0  0  0  0  0
    3.0044   -3.3535    0.0000 H   0  0  0  0  0  0  0  0  0  0  0  0
    3.6490   -5.3284    0.0000 H   0  0  0  0  0  0  0  0  0  0  0  0
    4.2690   -5.9484    0.0000 H   0  0  0  0  0  0  0  0  0  0  0  0
    4.8890   -5.3284    0.0000 H   0  0  0  0  0  0  0  0  0  0  0  0
    2.0000   -4.0184    0.0000 H   0  0  0  0  0  0  0  0  0  0  0  0
  1 12  1  0  0  0  0
  1 14  1  0  0  0  0
 11  2  1  1  0  0  0
  2 32  1  0  0  0  0
 13  3  1  1  0  0  0
  3 33  1  0  0  0  0
  4 15  1  0  0  0  0
  4 35  1  0  0  0  0
  5 24  1  0  0  0  0
  5 46  1  0  0  0  0
 12  6  1  6  0  0  0
  6 16  1  0  0  0  0
  6 17  1  0  0  0  0
  7 17  2  0  0  0  0
  7 18  1  0  0  0  0
  8 16  2  0  0  0  0
  8 20  1  0  0  0  0
  9 19  1  0  0  0  0
  9 21  1  0  0  0  0
  9 37  1  0  0  0  0
 10 19  1  0  0  0  0
 10 20  2  0  0  0  0
 11 12  1  0  0  0  0
 11 13  1  0  0  0  0
 11 26  1  0  0  0  0
 12 27  1  0  0  0  0
 13 14  1  0  0  0  0
 13 28  1  0  0  0  0
 14 15  1  6  0  0  0
 14 29  1  0  0  0  0
 15 30  1  0  0  0  0
 15 31  1  0  0  0  0
 16 18  1  0  0  0  0
 17 34  1  0  0  0  0
 18 19  2  0  0  0  0
 20 36  1  0  0  0  0
 21 22  1  0  0  0  0
 21 38  1  0  0  0  0
 21 39  1  0  0  0  0
 22 23  2  0  0  0  0
 22 40  1  0  0  0  0
 23 24  1  0  0  0  0
 23 25  1  0  0  0  0
 24 41  1  0  0  0  0
 24 42  1  0  0  0  0
 25 43  1  0  0  0  0
 25 44  1  0  0  0  0
 25 45  1  0  0  0  0
M  END
> <PUBCHEM_COMPOUND_CID>
13935024

> <PUBCHEM_COMPOUND_CANONICALIZED>
1

> <PUBCHEM_CACTVS_COMPLEXITY>
481

> <PUBCHEM_CACTVS_HBOND_ACCEPTOR>
9

> <PUBCHEM_CACTVS_HBOND_DONOR>
5

> <PUBCHEM_CACTVS_ROTATABLE_BOND>
6

> <PUBCHEM_CACTVS_SUBSKEYS>
AAADceBzuAAAAAAAAAAAAAAAAAAAAWJAAAAsAAAAAAAAAFgB+AAAHgAQCAAADBzhlwYH8L/MFgCgAyZjZACAgC0REKABWKAoVBCDXAJAyUAeVAgPEALTECDwMAIAAAAAAAAAAAAAAAAAAAAAAAAAAAAAAA==

> <PUBCHEM_IUPAC_OPENEYE_NAME>
(2R,3S,4R,5R)-2-(hydroxymethyl)-5-[6-[[(Z)-4-hydroxy-3-methyl-but-2-enyl]amino]purin-9-yl]tetrahydrofuran-3,4-diol

> <PUBCHEM_IUPAC_CAS_NAME>
(2R,3S,4R,5R)-2-(hydroxymethyl)-5-[6-[[(Z)-4-hydroxy-3-methylbut-2-enyl]amino]-9-purinyl]oxolane-3,4-diol

> <PUBCHEM_IUPAC_NAME>
(2R,3S,4R,5R)-2-(hydroxymethyl)-5-[6-[[(Z)-4-hydroxy-3-methylbut-2-enyl]amino]purin-9-yl]oxolane-3,4-diol

> <PUBCHEM_IUPAC_SYSTEMATIC_NAME>
(2R,3S,4R,5R)-2-(hydroxymethyl)-5-[6-[[(Z)-3-methyl-4-oxidanyl-but-2-enyl]amino]purin-9-yl]oxolane-3,4-diol

> <PUBCHEM_IUPAC_TRADITIONAL_NAME>
(2R,3R,4S,5R)-2-[6-[[(Z)-4-hydroxy-3-methyl-but-2-enyl]amino]purin-9-yl]-5-methylol-tetrahydrofuran-3,4-diol

> <PUBCHEM_IUPAC_INCHI>
InChI=1S/C15H21N5O5/c1-8(4-21)2-3-16-13-10-14(18-6-17-13)20(7-19-10)15-12(24)11(23)9(5-22)25-15/h2,6-7,9,11-12,15,21-24H,3-5H2,1H3,(H,16,17,18)/b8-2-/t9-,11-,12-,15-/m1/s1

> <PUBCHEM_IUPAC_INCHIKEY>
GOSWTRUMMSCNCW-BAJUWZQUSA-N

> <PUBCHEM_XLOGP3>
-0.1

> <PUBCHEM_EXACT_MASS>
351.154269

> <PUBCHEM_MOLECULAR_FORMULA>
C15H21N5O5

> <PUBCHEM_MOLECULAR_WEIGHT>
351.35774

> <PUBCHEM_OPENEYE_CAN_SMILES>
CC(=CCNC1=NC=NC2=C1N=CN2C3C(C(C(O3)CO)O)O)CO

> <PUBCHEM_OPENEYE_ISO_SMILES>
C/C(=C/CNC1=NC=NC2=C1N=CN2[C@H]3[C@@H]([C@@H]([C@H](O3)CO)O)O)/CO

> <PUBCHEM_CACTVS_TPSA>
146

> <PUBCHEM_MONOISOTOPIC_WEIGHT>
351.154269

> <PUBCHEM_TOTAL_CHARGE>
0

> <PUBCHEM_HEAVY_ATOM_COUNT>
25

> <PUBCHEM_ATOM_DEF_STEREO_COUNT>
4

> <PUBCHEM_ATOM_UDEF_STEREO_COUNT>
0

> <PUBCHEM_BOND_DEF_STEREO_COUNT>
1

> <PUBCHEM_BOND_UDEF_STEREO_COUNT>
0

> <PUBCHEM_ISOTOPIC_ATOM_COUNT>
0

> <PUBCHEM_COMPONENT_COUNT>
1

> <PUBCHEM_CACTVS_TAUTO_COUNT>
3

> <PUBCHEM_COORDINATE_TYPE>
1
5
255

> <PUBCHEM_BONDANNOTATIONS>
10  19  8
10  20  8
14  15  6
16  18  8
18  19  8
11  2  5
13  3  5
12  6  6
6  16  8
6  17  8
7  17  8
7  18  8
8  16  8
8  20  8

$$$$

