6926
  -OEChem-07051212513D

 18 18  0     0  0  0  0  0  0999 V2000
    1.7581    0.2519    0.0892 S   0  0  0  0  0  0  0  0  0  0  0  0
    2.2332   -0.2616   -1.3871 O   0  0  0  0  0  0  0  0  0  0  0  0
    2.1716    1.6405    0.2123 O   0  0  0  0  0  0  0  0  0  0  0  0
    2.1704   -0.7386    1.0694 O   0  0  0  0  0  0  0  0  0  0  0  0
   -0.0156   -2.2272    0.0090 N   0  0  0  0  0  0  0  0  0  0  0  0
    0.0080    0.2166    0.0415 C   0  0  0  0  0  0  0  0  0  0  0  0
   -0.6938   -0.9883    0.0057 C   0  0  0  0  0  0  0  0  0  0  0  0
   -0.6845    1.4275    0.0370 C   0  0  0  0  0  0  0  0  0  0  0  0
   -2.0881   -0.9824   -0.0346 C   0  0  0  0  0  0  0  0  0  0  0  0
   -2.0788    1.4333   -0.0033 C   0  0  0  0  0  0  0  0  0  0  0  0
   -2.7806    0.2283   -0.0391 C   0  0  0  0  0  0  0  0  0  0  0  0
   -0.1702    2.3835    0.0613 H   0  0  0  0  0  0  0  0  0  0  0  0
   -2.6478   -1.9139   -0.0629 H   0  0  0  0  0  0  0  0  0  0  0  0
   -2.6185    2.3759   -0.0076 H   0  0  0  0  0  0  0  0  0  0  0  0
   -3.8662    0.2331   -0.0708 H   0  0  0  0  0  0  0  0  0  0  0  0
   -0.5466   -3.0879   -0.0190 H   0  0  0  0  0  0  0  0  0  0  0  0
    0.9936   -2.2694    0.0227 H   0  0  0  0  0  0  0  0  0  0  0  0
    1.9453    0.3014   -2.1437 H   0  0  0  0  0  0  0  0  0  0  0  0
  1  2  1  0  0  0  0
  1  3  2  0  0  0  0
  1  4  2  0  0  0  0
  1  6  1  0  0  0  0
  2 18  1  0  0  0  0
  5  7  1  0  0  0  0
  5 16  1  0  0  0  0
  5 17  1  0  0  0  0
  6  7  1  0  0  0  0
  6  8  2  0  0  0  0
  7  9  2  0  0  0  0
  8 10  1  0  0  0  0
  8 12  1  0  0  0  0
  9 11  1  0  0  0  0
  9 13  1  0  0  0  0
 10 11  2  0  0  0  0
 10 14  1  0  0  0  0
 11 15  1  0  0  0  0
M  END
> <PUBCHEM_COMPOUND_CID>
6926

> <PUBCHEM_CONFORMER_RMSD>
0.4

> <PUBCHEM_CONFORMER_DIVERSEORDER>
1
2
3

> <PUBCHEM_MMFF94_PARTIAL_CHARGES>
18
1 1.49
10 -0.15
11 -0.15
12 0.15
13 0.15
14 0.15
15 0.15
16 0.4
17 0.4
18 0.5
2 -0.68
3 -0.65
4 -0.65
5 -0.9
6 -0.01
7 0.1
8 -0.15
9 -0.15

> <PUBCHEM_EFFECTIVE_ROTOR_COUNT>
1

> <PUBCHEM_PHARMACOPHORE_FEATURES>
7
1 2 acceptor
1 3 acceptor
1 4 acceptor
1 5 cation
1 5 donor
4 1 2 3 4 anion
6 6 7 8 9 10 11 rings

> <PUBCHEM_HEAVY_ATOM_COUNT>
11

> <PUBCHEM_ATOM_DEF_STEREO_COUNT>
0

> <PUBCHEM_ATOM_UDEF_STEREO_COUNT>
0

> <PUBCHEM_BOND_DEF_STEREO_COUNT>
0

> <PUBCHEM_BOND_UDEF_STEREO_COUNT>
0

> <PUBCHEM_ISOTOPIC_ATOM_COUNT>
0

> <PUBCHEM_COMPONENT_COUNT>
1

> <PUBCHEM_CACTVS_TAUTO_COUNT>
1

> <PUBCHEM_CONFORMER_ID>
00001B0E00000001

> <PUBCHEM_MMFF94_ENERGY>
29.856

> <PUBCHEM_FEATURE_SELFOVERLAP>
35.577

> <PUBCHEM_SHAPE_FINGERPRINT>
12524768 44 18262233296644022365
12897270 3 18410572911684076813
12932764 1 18201434796280053501
14325111 11 18410858758948174105
15775835 57 18273210928189242908
16945 1 18337390564585153969
18185500 45 18054232020502235274
20645464 45 18113908134559322248
20645476 183 17774710983370829695
20871998 184 17899693457963717711
21040471 1 18338516468602282601
23552423 10 18200873955013032861
23559900 14 18116705421876036302
241688 4 17113256101070759795
2748010 2 18338518534639957005
29004967 10 16226051088946587121
369184 2 18342747299220379217
5084963 1 17968090953806972681

> <PUBCHEM_SHAPE_MULTIPOLES>
207.64
3.67
1.81
0.81
0.15
0.26
0.1
-0.57
0.08
-0.16
-0.08
0.48
0.08
-0.02

> <PUBCHEM_SHAPE_SELFOVERLAP>
421.407

> <PUBCHEM_SHAPE_VOLUME>
120.9

> <PUBCHEM_COORDINATE_TYPE>
2
5
10

$$$$

