3032472
  -OEChem-07051213132D

 26 26  0     0  0  0  0  0  0999 V2000
    5.4641    1.5600    0.0000 S   0  0  0  0  0  0  0  0  0  0  0  0
    3.7320   -1.4400    0.0000 N   0  0  0  0  0  0  0  0  0  0  0  0
    4.5981    0.0600    0.0000 N   0  0  0  0  0  0  0  0  0  0  0  0
    5.4641   -1.4400    0.0000 N   0  0  0  0  0  0  0  0  0  0  0  0
    6.3301    0.0600    0.0000 N   0  0  0  0  0  0  0  0  0  0  0  0
    7.1962   -1.4400    0.0000 N   0  0  0  0  0  0  0  0  0  0  0  0
    8.0622   -0.9400    0.0000 N   0  3  0  0  0  0  0  0  0  0  0  0
    8.9282   -0.4400    0.0000 N   0  5  0  0  0  0  0  0  0  0  0  0
    2.8660   -0.9400    0.0000 C   0  0  0  0  0  0  0  0  0  0  0  0
    2.0000   -1.4400    0.0000 C   0  0  0  0  0  0  0  0  0  0  0  0
    2.8660    0.0600    0.0000 C   0  0  0  0  0  0  0  0  0  0  0  0
    4.5981   -0.9400    0.0000 C   0  0  0  0  0  0  0  0  0  0  0  0
    5.4641    0.5600    0.0000 C   0  0  0  0  0  0  0  0  0  0  0  0
    6.3301   -0.9400    0.0000 C   0  0  0  0  0  0  0  0  0  0  0  0
    6.3301    2.0600    0.0000 C   0  0  0  0  0  0  0  0  0  0  0  0
    3.4030   -0.6300    0.0000 H   0  0  0  0  0  0  0  0  0  0  0  0
    3.7320   -2.0600    0.0000 H   0  0  0  0  0  0  0  0  0  0  0  0
    3.4860    0.0600    0.0000 H   0  0  0  0  0  0  0  0  0  0  0  0
    2.8660    0.6800    0.0000 H   0  0  0  0  0  0  0  0  0  0  0  0
    2.2460    0.0600    0.0000 H   0  0  0  0  0  0  0  0  0  0  0  0
    1.6900   -0.9031    0.0000 H   0  0  0  0  0  0  0  0  0  0  0  0
    1.4631   -1.7500    0.0000 H   0  0  0  0  0  0  0  0  0  0  0  0
    2.3100   -1.9769    0.0000 H   0  0  0  0  0  0  0  0  0  0  0  0
    6.6401    1.5231    0.0000 H   0  0  0  0  0  0  0  0  0  0  0  0
    6.8671    2.3700    0.0000 H   0  0  0  0  0  0  0  0  0  0  0  0
    6.0201    2.5969    0.0000 H   0  0  0  0  0  0  0  0  0  0  0  0
  1 13  1  0  0  0  0
  1 15  1  0  0  0  0
  2  9  1  0  0  0  0
  2 12  1  0  0  0  0
  2 17  1  0  0  0  0
  3 12  1  0  0  0  0
  3 13  2  0  0  0  0
  4 12  2  0  0  0  0
  4 14  1  0  0  0  0
  5 13  1  0  0  0  0
  5 14  2  0  0  0  0
  6  7  2  0  0  0  0
  6 14  1  0  0  0  0
  7  8  2  0  0  0  0
  9 10  1  0  0  0  0
  9 11  1  0  0  0  0
  9 16  1  0  0  0  0
 10 21  1  0  0  0  0
 10 22  1  0  0  0  0
 10 23  1  0  0  0  0
 11 18  1  0  0  0  0
 11 19  1  0  0  0  0
 11 20  1  0  0  0  0
 15 24  1  0  0  0  0
 15 25  1  0  0  0  0
 15 26  1  0  0  0  0
M  CHG  2   7   1   8  -1
M  END
> <PUBCHEM_COMPOUND_CID>
3032472

> <PUBCHEM_COMPOUND_CANONICALIZED>
1

> <PUBCHEM_CACTVS_COMPLEXITY>
240

> <PUBCHEM_CACTVS_HBOND_ACCEPTOR>
7

> <PUBCHEM_CACTVS_HBOND_DONOR>
1

> <PUBCHEM_CACTVS_ROTATABLE_BOND>
4

> <PUBCHEM_CACTVS_SUBSKEYS>
AAADccBjgABAAAAAAAAAAAAAAAAAAAAAAAAsAAAAAAAAAAABgAAAHAQYAAAACCjBAASDEAbIEAgiAAAAJAAAUAlAAIABAIAIAACACAAACAAAAAAIEAIAAAAAAAAAAAAAAAAAAAAAAAAAAAAAAAAAAAAAAA==

> <PUBCHEM_IUPAC_OPENEYE_NAME>
4-azido-N-isopropyl-6-methylsulfanyl-1,3,5-triazin-2-amine

> <PUBCHEM_IUPAC_CAS_NAME>
4-azido-6-(methylthio)-N-propan-2-yl-1,3,5-triazin-2-amine

> <PUBCHEM_IUPAC_NAME>
4-azido-6-methylsulfanyl-N-propan-2-yl-1,3,5-triazin-2-amine

> <PUBCHEM_IUPAC_SYSTEMATIC_NAME>
4-azido-6-methylsulfanyl-N-propan-2-yl-1,3,5-triazin-2-amine

> <PUBCHEM_IUPAC_TRADITIONAL_NAME>
[4-azido-6-(methylthio)-s-triazin-2-yl]-isopropyl-amine

> <PUBCHEM_IUPAC_INCHI>
InChI=1S/C7H11N7S/c1-4(2)9-5-10-6(13-14-8)12-7(11-5)15-3/h4H,1-3H3,(H,9,10,11,12)

> <PUBCHEM_IUPAC_INCHIKEY>
AFIIBUOYKYSPKB-UHFFFAOYSA-N

> <PUBCHEM_XLOGP3>
3.7

> <PUBCHEM_EXACT_MASS>
225.079664

> <PUBCHEM_MOLECULAR_FORMULA>
C7H11N7S

> <PUBCHEM_MOLECULAR_WEIGHT>
225.27414

> <PUBCHEM_OPENEYE_CAN_SMILES>
CC(C)NC1=NC(=NC(=N1)N=[N+]=[N-])SC

> <PUBCHEM_OPENEYE_ISO_SMILES>
CC(C)NC1=NC(=NC(=N1)N=[N+]=[N-])SC

> <PUBCHEM_CACTVS_TPSA>
90.4

> <PUBCHEM_MONOISOTOPIC_WEIGHT>
225.079664

> <PUBCHEM_TOTAL_CHARGE>
0

> <PUBCHEM_HEAVY_ATOM_COUNT>
15

> <PUBCHEM_ATOM_DEF_STEREO_COUNT>
0

> <PUBCHEM_ATOM_UDEF_STEREO_COUNT>
0

> <PUBCHEM_BOND_DEF_STEREO_COUNT>
0

> <PUBCHEM_BOND_UDEF_STEREO_COUNT>
1

> <PUBCHEM_ISOTOPIC_ATOM_COUNT>
0

> <PUBCHEM_COMPONENT_COUNT>
1

> <PUBCHEM_CACTVS_TAUTO_COUNT>
4

> <PUBCHEM_COORDINATE_TYPE>
1
5
255

> <PUBCHEM_BONDANNOTATIONS>
3  12  8
3  13  8
4  12  8
4  14  8
5  13  8
5  14  8
6  7  1

$$$$

