10007317
  -OEChem-07051213083D

 94 94  0     0  0  0  0  0  0999 V2000
  -16.0926   -2.2063    0.9802 C   0  0  0  0  0  0  0  0  0  0  0  0
  -15.4641   -1.3199   -0.1129 C   0  0  0  0  0  0  0  0  0  0  0  0
  -14.2869   -0.4498    0.3463 C   0  0  0  0  0  0  0  0  0  0  0  0
  -13.6658    0.3677   -0.7963 C   0  0  0  0  0  0  0  0  0  0  0  0
  -17.1678   -3.1418    0.4274 C   0  0  0  0  0  0  0  0  0  0  0  0
  -16.6438   -1.3879    2.1477 C   0  0  0  0  0  0  0  0  0  0  0  0
  -12.4793    1.2234   -0.3887 C   0  0  0  0  0  0  0  0  0  0  0  0
  -12.8296    2.6015    0.1075 C   0  0  0  0  0  0  0  0  0  0  0  0
  -11.2292    0.7330   -0.5125 C   0  0  0  0  0  0  0  0  0  0  0  0
   -9.9847    1.4086   -0.2026 C   0  0  0  0  0  0  0  0  0  0  0  0
   12.7372   -0.0659    1.2977 C   0  0  0  0  0  0  0  0  0  0  0  0
   12.2027   -0.0608    0.0092 C   0  0  0  0  0  0  0  0  0  0  0  0
   13.8886    0.6697    1.5780 C   0  0  0  0  0  0  0  0  0  0  0  0
   12.8200    0.6795   -0.9991 C   0  0  0  0  0  0  0  0  0  0  0  0
   -8.7851    0.8239   -0.3638 C   0  0  0  0  0  0  0  0  0  0  0  0
   14.5058    1.4102    0.5697 C   0  0  0  0  0  0  0  0  0  0  0  0
   13.9717    1.4149   -0.7188 C   0  0  0  0  0  0  0  0  0  0  0  0
   12.0863   -0.8561    2.3910 C   0  0  0  0  0  0  0  0  0  0  0  0
   10.9861   -0.8370   -0.2902 C   0  0  0  0  0  0  0  0  0  0  0  0
   14.4825    0.6836    2.9486 C   0  0  0  0  0  0  0  0  0  0  0  0
   12.2789    0.7116   -2.3926 C   0  0  0  0  0  0  0  0  0  0  0  0
   -7.4732    1.4149   -0.0754 C   0  0  0  0  0  0  0  0  0  0  0  0
    9.7327   -0.3672   -0.1599 C   0  0  0  0  0  0  0  0  0  0  0  0
   -7.4544    2.8210    0.4702 C   0  0  0  0  0  0  0  0  0  0  0  0
    8.5001   -1.1057   -0.4406 C   0  0  0  0  0  0  0  0  0  0  0  0
   -6.3720    0.6665   -0.3033 C   0  0  0  0  0  0  0  0  0  0  0  0
    8.6365   -2.5307   -0.9264 C   0  0  0  0  0  0  0  0  0  0  0  0
    7.2588   -0.5926   -0.2952 C   0  0  0  0  0  0  0  0  0  0  0  0
   -4.9870    1.0509   -0.1103 C   0  0  0  0  0  0  0  0  0  0  0  0
    5.9801   -1.2338   -0.5440 C   0  0  0  0  0  0  0  0  0  0  0  0
   -3.9044    0.2898   -0.3435 C   0  0  0  0  0  0  0  0  0  0  0  0
   -2.5030    0.6383   -0.1629 C   0  0  0  0  0  0  0  0  0  0  0  0
    4.8071   -0.6040   -0.3570 C   0  0  0  0  0  0  0  0  0  0  0  0
    3.4665   -1.1579   -0.5803 C   0  0  0  0  0  0  0  0  0  0  0  0
   -1.4609   -0.1778   -0.4176 C   0  0  0  0  0  0  0  0  0  0  0  0
   -2.2853    2.0237    0.3821 C   0  0  0  0  0  0  0  0  0  0  0  0
    2.3999   -0.3660   -0.3352 C   0  0  0  0  0  0  0  0  0  0  0  0
    3.3799   -2.5859   -1.0587 C   0  0  0  0  0  0  0  0  0  0  0  0
   -0.0501    0.1083   -0.2591 C   0  0  0  0  0  0  0  0  0  0  0  0
    0.9979   -0.6941   -0.5086 C   0  0  0  0  0  0  0  0  0  0  0  0
  -15.2947   -2.8453    1.3821 H   0  0  0  0  0  0  0  0  0  0  0  0
  -16.2402   -0.6718   -0.5402 H   0  0  0  0  0  0  0  0  0  0  0  0
  -15.1188   -1.9670   -0.9296 H   0  0  0  0  0  0  0  0  0  0  0  0
  -14.6207    0.2419    1.1276 H   0  0  0  0  0  0  0  0  0  0  0  0
  -13.5192   -1.0921    0.7953 H   0  0  0  0  0  0  0  0  0  0  0  0
  -13.3600   -0.3229   -1.5939 H   0  0  0  0  0  0  0  0  0  0  0  0
  -14.4328    1.0085   -1.2504 H   0  0  0  0  0  0  0  0  0  0  0  0
  -18.0095   -2.5742    0.0168 H   0  0  0  0  0  0  0  0  0  0  0  0
  -17.5527   -3.8033    1.2107 H   0  0  0  0  0  0  0  0  0  0  0  0
  -16.7612   -3.7706   -0.3716 H   0  0  0  0  0  0  0  0  0  0  0  0
  -17.3871   -0.6610    1.8036 H   0  0  0  0  0  0  0  0  0  0  0  0
  -15.8492   -0.8457    2.6687 H   0  0  0  0  0  0  0  0  0  0  0  0
  -17.1253   -2.0388    2.8856 H   0  0  0  0  0  0  0  0  0  0  0  0
  -13.3349    3.1659   -0.6833 H   0  0  0  0  0  0  0  0  0  0  0  0
  -11.9703    3.1916    0.4307 H   0  0  0  0  0  0  0  0  0  0  0  0
  -13.5084    2.5294    0.9639 H   0  0  0  0  0  0  0  0  0  0  0  0
  -11.1200   -0.2833   -0.8904 H   0  0  0  0  0  0  0  0  0  0  0  0
  -10.0444    2.4229    0.1726 H   0  0  0  0  0  0  0  0  0  0  0  0
   -8.7627   -0.1971   -0.7454 H   0  0  0  0  0  0  0  0  0  0  0  0
   15.4041    1.9880    0.7706 H   0  0  0  0  0  0  0  0  0  0  0  0
   14.4658    1.9980   -1.4915 H   0  0  0  0  0  0  0  0  0  0  0  0
   11.5526   -1.7351    2.0157 H   0  0  0  0  0  0  0  0  0  0  0  0
   11.3770   -0.2255    2.9368 H   0  0  0  0  0  0  0  0  0  0  0  0
   12.8150   -1.2598    3.1008 H   0  0  0  0  0  0  0  0  0  0  0  0
   11.1846   -1.8478   -0.6356 H   0  0  0  0  0  0  0  0  0  0  0  0
   13.7292    0.9389    3.7013 H   0  0  0  0  0  0  0  0  0  0  0  0
   14.9260   -0.2890    3.1852 H   0  0  0  0  0  0  0  0  0  0  0  0
   15.2767    1.4337    3.0349 H   0  0  0  0  0  0  0  0  0  0  0  0
   12.1954   -0.3014   -2.8004 H   0  0  0  0  0  0  0  0  0  0  0  0
   11.2967    1.1952   -2.4125 H   0  0  0  0  0  0  0  0  0  0  0  0
   12.9318    1.2738   -3.0696 H   0  0  0  0  0  0  0  0  0  0  0  0
    9.5953    0.6553    0.1893 H   0  0  0  0  0  0  0  0  0  0  0  0
   -6.4565    3.2034    0.6912 H   0  0  0  0  0  0  0  0  0  0  0  0
   -7.9028    3.5156   -0.2490 H   0  0  0  0  0  0  0  0  0  0  0  0
   -8.0186    2.8750    1.4082 H   0  0  0  0  0  0  0  0  0  0  0  0
   -6.4962   -0.3452   -0.6905 H   0  0  0  0  0  0  0  0  0  0  0  0
    9.1731   -3.1291   -0.1803 H   0  0  0  0  0  0  0  0  0  0  0  0
    9.2108   -2.5529   -1.8605 H   0  0  0  0  0  0  0  0  0  0  0  0
    7.7137   -3.0706   -1.1320 H   0  0  0  0  0  0  0  0  0  0  0  0
    7.1860    0.4378    0.0553 H   0  0  0  0  0  0  0  0  0  0  0  0
   -4.8339    2.0593    0.2556 H   0  0  0  0  0  0  0  0  0  0  0  0
    5.9682   -2.2561   -0.8946 H   0  0  0  0  0  0  0  0  0  0  0  0
   -4.0708   -0.7213   -0.7160 H   0  0  0  0  0  0  0  0  0  0  0  0
    4.8324    0.4273   -0.0044 H   0  0  0  0  0  0  0  0  0  0  0  0
   -1.6760   -1.1767   -0.7972 H   0  0  0  0  0  0  0  0  0  0  0  0
   -2.7890    2.1412    1.3494 H   0  0  0  0  0  0  0  0  0  0  0  0
   -1.2484    2.3059    0.5629 H   0  0  0  0  0  0  0  0  0  0  0  0
   -2.6791    2.7754   -0.3127 H   0  0  0  0  0  0  0  0  0  0  0  0
    2.5727    0.6504    0.0198 H   0  0  0  0  0  0  0  0  0  0  0  0
    3.8620   -3.2604   -0.3419 H   0  0  0  0  0  0  0  0  0  0  0  0
    2.3595   -2.9518   -1.1853 H   0  0  0  0  0  0  0  0  0  0  0  0
    3.8739   -2.6943   -2.0309 H   0  0  0  0  0  0  0  0  0  0  0  0
    0.2103    1.0971    0.1050 H   0  0  0  0  0  0  0  0  0  0  0  0
    0.7677   -1.6889   -0.8784 H   0  0  0  0  0  0  0  0  0  0  0  0
  1  2  1  0  0  0  0
  1  5  1  0  0  0  0
  1  6  1  0  0  0  0
  1 41  1  0  0  0  0
  2  3  1  0  0  0  0
  2 42  1  0  0  0  0
  2 43  1  0  0  0  0
  3  4  1  0  0  0  0
  3 44  1  0  0  0  0
  3 45  1  0  0  0  0
  4  7  1  0  0  0  0
  4 46  1  0  0  0  0
  4 47  1  0  0  0  0
  5 48  1  0  0  0  0
  5 49  1  0  0  0  0
  5 50  1  0  0  0  0
  6 51  1  0  0  0  0
  6 52  1  0  0  0  0
  6 53  1  0  0  0  0
  7  8  1  0  0  0  0
  7  9  2  0  0  0  0
  8 54  1  0  0  0  0
  8 55  1  0  0  0  0
  8 56  1  0  0  0  0
  9 10  1  0  0  0  0
  9 57  1  0  0  0  0
 10 15  2  0  0  0  0
 10 58  1  0  0  0  0
 11 12  1  0  0  0  0
 11 13  2  0  0  0  0
 11 18  1  0  0  0  0
 12 14  2  0  0  0  0
 12 19  1  0  0  0  0
 13 16  1  0  0  0  0
 13 20  1  0  0  0  0
 14 17  1  0  0  0  0
 14 21  1  0  0  0  0
 15 22  1  0  0  0  0
 15 59  1  0  0  0  0
 16 17  2  0  0  0  0
 16 60  1  0  0  0  0
 17 61  1  0  0  0  0
 18 62  1  0  0  0  0
 18 63  1  0  0  0  0
 18 64  1  0  0  0  0
 19 23  2  0  0  0  0
 19 65  1  0  0  0  0
 20 66  1  0  0  0  0
 20 67  1  0  0  0  0
 20 68  1  0  0  0  0
 21 69  1  0  0  0  0
 21 70  1  0  0  0  0
 21 71  1  0  0  0  0
 22 24  1  0  0  0  0
 22 26  2  0  0  0  0
 23 25  1  0  0  0  0
 23 72  1  0  0  0  0
 24 73  1  0  0  0  0
 24 74  1  0  0  0  0
 24 75  1  0  0  0  0
 25 27  1  0  0  0  0
 25 28  2  0  0  0  0
 26 29  1  0  0  0  0
 26 76  1  0  0  0  0
 27 77  1  0  0  0  0
 27 78  1  0  0  0  0
 27 79  1  0  0  0  0
 28 30  1  0  0  0  0
 28 80  1  0  0  0  0
 29 31  2  0  0  0  0
 29 81  1  0  0  0  0
 30 33  2  0  0  0  0
 30 82  1  0  0  0  0
 31 32  1  0  0  0  0
 31 83  1  0  0  0  0
 32 35  2  0  0  0  0
 32 36  1  0  0  0  0
 33 34  1  0  0  0  0
 33 84  1  0  0  0  0
 34 37  2  0  0  0  0
 34 38  1  0  0  0  0
 35 39  1  0  0  0  0
 35 85  1  0  0  0  0
 36 86  1  0  0  0  0
 36 87  1  0  0  0  0
 36 88  1  0  0  0  0
 37 40  1  0  0  0  0
 37 89  1  0  0  0  0
 38 90  1  0  0  0  0
 38 91  1  0  0  0  0
 38 92  1  0  0  0  0
 39 40  2  0  0  0  0
 39 93  1  0  0  0  0
 40 94  1  0  0  0  0
M  END
> <PUBCHEM_COMPOUND_CID>
10007317

> <PUBCHEM_CONFORMER_RMSD>
1.6

> <PUBCHEM_CONFORMER_DIVERSEORDER>
4
35
19
3
38
32
7
8
41
46
23
34
6
5
43
12
21
30
27
22
37
39
29
33
42
1
17
25
31
36
9
16
14
44
40
26
47
28
11
10
15
45
2
18
24
13
20

> <PUBCHEM_MMFF94_PARTIAL_CHARGES>
52
10 -0.15
11 -0.14
12 0.03
13 -0.14
14 -0.14
15 -0.15
16 -0.15
17 -0.15
18 0.14
19 -0.18
20 0.14
21 0.14
22 -0.14
23 -0.15
24 0.14
25 -0.14
26 -0.15
27 0.14
28 -0.15
29 -0.15
30 -0.15
31 -0.15
32 -0.14
33 -0.15
34 -0.14
35 -0.15
36 0.14
37 -0.15
38 0.14
39 -0.15
4 0.14
40 -0.15
57 0.15
58 0.15
59 0.15
60 0.15
61 0.15
65 0.15
7 -0.28
72 0.15
76 0.15
8 0.14
80 0.15
81 0.15
82 0.15
83 0.15
84 0.15
85 0.15
89 0.15
9 -0.15
93 0.15
94 0.15

> <PUBCHEM_EFFECTIVE_ROTOR_COUNT>
14

> <PUBCHEM_PHARMACOPHORE_FEATURES>
8
1 24 hydrophobe
1 27 hydrophobe
1 36 hydrophobe
1 38 hydrophobe
1 8 hydrophobe
3 1 5 6 hydrophobe
5 1 2 3 4 7 hydrophobe
6 11 12 13 14 16 17 rings

> <PUBCHEM_HEAVY_ATOM_COUNT>
40

> <PUBCHEM_ATOM_DEF_STEREO_COUNT>
0

> <PUBCHEM_ATOM_UDEF_STEREO_COUNT>
0

> <PUBCHEM_BOND_DEF_STEREO_COUNT>
10

> <PUBCHEM_BOND_UDEF_STEREO_COUNT>
0

> <PUBCHEM_ISOTOPIC_ATOM_COUNT>
0

> <PUBCHEM_COMPONENT_COUNT>
1

> <PUBCHEM_CACTVS_TAUTO_COUNT>
1

> <PUBCHEM_CONFORMER_ID>
0098B31500000004

> <PUBCHEM_MMFF94_ENERGY>
97.2903

> <PUBCHEM_FEATURE_SELFOVERLAP>
40.596

> <PUBCHEM_SHAPE_FINGERPRINT>
12559415 86 6122503484313821931
14251920 17 18186523219895320468
15061470 23 18411139177336894276
21026386 74 13912902896112676658
21057603 192 10591773090945164839
23528521 120 16298390167849022524
3991529 128 15791734109329766677
9663363 56 16343701049358908021
9937071 3 14405182899125001952

> <PUBCHEM_SHAPE_MULTIPOLES>
823.18
109.98
2.42
1.56
151.03
0.54
0.95
15.46
35.96
8.38
0.07
-6.22
0.13
3.68

> <PUBCHEM_SHAPE_SELFOVERLAP>
1645.247

> <PUBCHEM_SHAPE_VOLUME>
481

> <PUBCHEM_COORDINATE_TYPE>
2
5
10

$$$$

