53309
  -OEChem-07051213013D

 40 41  0     1  0  0  0  0  0999 V2000
    1.5965   -0.0630    2.7861 Cl  0  0  0  0  0  0  0  0  0  0  0  0
    5.5469    0.9510   -0.7261 Cl  0  0  0  0  0  0  0  0  0  0  0  0
   -2.8577   -0.7469    1.1578 O   0  0  0  0  0  0  0  0  0  0  0  0
   -0.5510   -1.4614   -0.4080 N   0  0  0  0  0  0  0  0  0  0  0  0
   -0.5838   -2.1730    0.7029 N   0  0  0  0  0  0  0  0  0  0  0  0
    0.3813   -3.2820   -1.0496 N   0  0  0  0  0  0  0  0  0  0  0  0
   -3.4292    1.2013   -0.2156 C   0  0  0  0  0  0  0  0  0  0  0  0
   -2.6505   -0.1562   -0.1285 C   0  0  1  0  0  0  0  0  0  0  0  0
   -1.1152   -0.0884   -0.4063 C   0  0  1  0  0  0  0  0  0  0  0  0
   -0.3201    0.8410    0.5478 C   0  0  0  0  0  0  0  0  0  0  0  0
   -4.8952    0.9586   -0.6294 C   0  0  0  0  0  0  0  0  0  0  0  0
   -2.7860    2.1029   -1.2943 C   0  0  0  0  0  0  0  0  0  0  0  0
   -3.4071    1.9747    1.1131 C   0  0  0  0  0  0  0  0  0  0  0  0
    1.1640    0.8575    0.2575 C   0  0  0  0  0  0  0  0  0  0  0  0
    0.0078   -2.0871   -1.4449 C   0  0  0  0  0  0  0  0  0  0  0  0
    2.0839    0.4646    1.2166 C   0  0  0  0  0  0  0  0  0  0  0  0
    1.5701    1.2786   -0.9996 C   0  0  0  0  0  0  0  0  0  0  0  0
    0.0016   -3.2885    0.2621 C   0  0  0  0  0  0  0  0  0  0  0  0
    3.4447    0.4935    0.9116 C   0  0  0  0  0  0  0  0  0  0  0  0
    2.9307    1.3075   -1.3044 C   0  0  0  0  0  0  0  0  0  0  0  0
    3.8682    0.9150   -0.3489 C   0  0  0  0  0  0  0  0  0  0  0  0
   -3.0762   -0.8536   -0.8630 H   0  0  0  0  0  0  0  0  0  0  0  0
   -0.9782    0.2525   -1.4397 H   0  0  0  0  0  0  0  0  0  0  0  0
   -0.6366    1.8815    0.4658 H   0  0  0  0  0  0  0  0  0  0  0  0
   -0.5484    0.5595    1.5788 H   0  0  0  0  0  0  0  0  0  0  0  0
   -4.9539    0.4640   -1.6053 H   0  0  0  0  0  0  0  0  0  0  0  0
   -5.4097    0.3228    0.0992 H   0  0  0  0  0  0  0  0  0  0  0  0
   -5.4523    1.8998   -0.6990 H   0  0  0  0  0  0  0  0  0  0  0  0
   -1.8015    2.4919   -1.0377 H   0  0  0  0  0  0  0  0  0  0  0  0
   -2.7103    1.5756   -2.2524 H   0  0  0  0  0  0  0  0  0  0  0  0
   -3.4140    2.9851   -1.4736 H   0  0  0  0  0  0  0  0  0  0  0  0
   -3.9501    1.4335    1.8963 H   0  0  0  0  0  0  0  0  0  0  0  0
   -2.4057    2.1756    1.4923 H   0  0  0  0  0  0  0  0  0  0  0  0
   -3.9050    2.9458    1.0026 H   0  0  0  0  0  0  0  0  0  0  0  0
   -3.8109   -0.9104    1.2561 H   0  0  0  0  0  0  0  0  0  0  0  0
    0.1282   -1.6733   -2.4362 H   0  0  0  0  0  0  0  0  0  0  0  0
    0.8562    1.6025   -1.7510 H   0  0  0  0  0  0  0  0  0  0  0  0
    0.1568   -4.1324    0.9175 H   0  0  0  0  0  0  0  0  0  0  0  0
    4.1773    0.1875    1.6556 H   0  0  0  0  0  0  0  0  0  0  0  0
    3.2465    1.6412   -2.2896 H   0  0  0  0  0  0  0  0  0  0  0  0
  1 16  1  0  0  0  0
  2 21  1  0  0  0  0
  3  8  1  0  0  0  0
  3 35  1  0  0  0  0
  4  5  1  0  0  0  0
  4  9  1  0  0  0  0
  4 15  1  0  0  0  0
  5 18  2  0  0  0  0
  6 15  2  0  0  0  0
  6 18  1  0  0  0  0
  7  8  1  0  0  0  0
  7 11  1  0  0  0  0
  7 12  1  0  0  0  0
  7 13  1  0  0  0  0
  8  9  1  0  0  0  0
  8 22  1  0  0  0  0
  9 10  1  0  0  0  0
  9 23  1  0  0  0  0
 10 14  1  0  0  0  0
 10 24  1  0  0  0  0
 10 25  1  0  0  0  0
 11 26  1  0  0  0  0
 11 27  1  0  0  0  0
 11 28  1  0  0  0  0
 12 29  1  0  0  0  0
 12 30  1  0  0  0  0
 12 31  1  0  0  0  0
 13 32  1  0  0  0  0
 13 33  1  0  0  0  0
 13 34  1  0  0  0  0
 14 16  2  0  0  0  0
 14 17  1  0  0  0  0
 15 36  1  0  0  0  0
 16 19  1  0  0  0  0
 17 20  2  0  0  0  0
 17 37  1  0  0  0  0
 18 38  1  0  0  0  0
 19 21  2  0  0  0  0
 19 39  1  0  0  0  0
 20 21  1  0  0  0  0
 20 40  1  0  0  0  0
M  END
> <PUBCHEM_COMPOUND_CID>
53309

> <PUBCHEM_CONFORMER_RMSD>
0.8

> <PUBCHEM_CONFORMER_DIVERSEORDER>
1
27
9
40
37
33
31
11
28
50
36
42
17
30
10
8
22
49
18
48
46
26
16
24
21
7
6
14
15
4
38
44
41
12
32
47
20
5
13
2
45
19
39
23
25
3
35
43
34
29

> <PUBCHEM_MMFF94_PARTIAL_CHARGES>
23
1 -0.18
10 0.14
14 -0.14
15 0.04
16 0.18
17 -0.15
18 0.37
19 -0.15
2 -0.18
20 -0.15
21 0.18
3 -0.68
35 0.4
36 0.15
37 0.15
38 0.15
39 0.15
4 0.31
40 0.15
5 -0.71
6 -0.57
8 0.28
9 0.26

> <PUBCHEM_EFFECTIVE_ROTOR_COUNT>
5

> <PUBCHEM_PHARMACOPHORE_FEATURES>
7
1 3 acceptor
1 3 donor
3 4 6 15 cation
3 5 6 18 cation
4 7 11 12 13 hydrophobe
5 4 5 6 15 18 rings
6 14 16 17 19 20 21 rings

> <PUBCHEM_HEAVY_ATOM_COUNT>
21

> <PUBCHEM_ATOM_DEF_STEREO_COUNT>
0

> <PUBCHEM_ATOM_UDEF_STEREO_COUNT>
2

> <PUBCHEM_BOND_DEF_STEREO_COUNT>
0

> <PUBCHEM_BOND_UDEF_STEREO_COUNT>
0

> <PUBCHEM_ISOTOPIC_ATOM_COUNT>
0

> <PUBCHEM_COMPONENT_COUNT>
1

> <PUBCHEM_CACTVS_TAUTO_COUNT>
1

> <PUBCHEM_CONFORMER_ID>
0000D03D00000001

> <PUBCHEM_MMFF94_ENERGY>
58.6156

> <PUBCHEM_FEATURE_SELFOVERLAP>
38.313

> <PUBCHEM_SHAPE_FINGERPRINT>
10382601 240 18125990805133682849
107951 10 18201146686091086654
11370993 70 18335135393359350308
12166972 35 5689590607020865256
12236239 1 18060703870793197720
12422481 6 17692283006645996682
12500047 106 18262520291265657620
12592029 89 18343018942779566226
12633257 1 16558205898108369521
12788726 201 17908430155809615442
13257819 101 17417549006780952637
133893 2 18048871094079331851
13583140 156 16774077358760943997
13681431 1 17684083969532744063
14181834 199 17756451578757759551
14251751 93 18340764849474586550
14251764 3 17603877671356058953
15309172 13 18410854352332840409
16752209 62 18193853552021998711
16945 1 18197778804005680418
1813 80 11239714236007977329
18186145 218 17458347416115569073
20645476 183 18272090452905092970
20681677 155 18340206289800551068
21069387 34 14490465353426412308
21524375 3 18410295804725990519
21756936 100 17417525797099736212
22907989 373 18048876295247752343
23402539 116 17676482874104626088
23419403 2 17478275076458349298
23493267 7 18272366455940390696
23526113 38 17385713703991717324
23557571 272 17900833643332824032
23559900 14 17982457297896466791
23598288 3 17913758427891235678
23598291 2 17774179936866765930
298252 57 18342172254744495712
34934 24 18059580153046259116
465052 167 17769918109686635019
474 4 18340769355406755637
6138700 20 18192425501698912270
633830 44 17531256062345241433
7364860 26 17971760123288929847
7495541 125 7420645251240224709
7832392 63 18200316494634737236
81228 2 17685510749146982323
81539 233 18341058526838260375
8272917 22 17274552043252270689
90525 40 18343584005851479198

> <PUBCHEM_SHAPE_MULTIPOLES>
415.1
8.03
2.91
1.72
1.78
3.26
-0.92
-6.22
1.32
-0.96
0.83
0.75
0
-0.23

> <PUBCHEM_SHAPE_SELFOVERLAP>
850.496

> <PUBCHEM_SHAPE_VOLUME>
243.8

> <PUBCHEM_COORDINATE_TYPE>
2
5
10

$$$$

