5281218
  -OEChem-07051212553D

 40 40  0     1  0  0  0  0  0999 V2000
   -5.5588   -2.0089    1.1217 O   0  0  0  0  0  0  0  0  0  0  0  0
    5.0561   -2.9000   -0.1144 O   0  0  0  0  0  0  0  0  0  0  0  0
   -4.4975   -2.8568   -0.6954 O   0  0  0  0  0  0  0  0  0  0  0  0
    6.0549   -0.8809   -0.4628 O   0  0  0  0  0  0  0  0  0  0  0  0
   -4.6832    2.8311   -1.6418 O   0  0  0  0  0  0  0  0  0  0  0  0
   -4.1991    2.9946    0.5682 O   0  0  0  0  0  0  0  0  0  0  0  0
    3.2187    3.1514   -0.8269 O   0  0  0  0  0  0  0  0  0  0  0  0
    2.9675    3.2121    1.4579 O   0  0  0  0  0  0  0  0  0  0  0  0
   -2.1787   -1.5709   -0.0986 N   0  0  0  0  0  0  0  0  0  0  0  0
    3.9646    0.4707    0.3654 N   0  0  0  0  0  0  0  0  0  0  0  0
   -3.3101   -1.3064    0.7579 C   0  0  1  0  0  0  0  0  0  0  0  0
    2.6512   -1.4258   -0.5932 C   0  0  0  0  0  0  0  0  0  0  0  0
    3.7805   -0.9844    0.3385 C   0  0  1  0  0  0  0  0  0  0  0  0
   -3.6057    0.1995    0.7999 C   0  0  0  0  0  0  0  0  0  0  0  0
    1.4129   -0.6013   -0.3664 C   0  0  0  0  0  0  0  0  0  0  0  0
   -4.0054    0.8354   -0.5384 C   0  0  0  0  0  0  0  0  0  0  0  0
    0.1409   -1.2091   -0.6583 C   0  0  0  0  0  0  0  0  0  0  0  0
    1.5080    0.6562    0.0869 C   0  0  0  0  0  0  0  0  0  0  0  0
   -0.9451   -1.0391    0.1001 C   0  0  0  0  0  0  0  0  0  0  0  0
    2.8826    1.1614    0.2805 C   0  0  0  0  0  0  0  0  0  0  0  0
   -4.4863   -2.1415    0.2980 C   0  0  0  0  0  0  0  0  0  0  0  0
    5.0872   -1.5450   -0.1221 C   0  0  0  0  0  0  0  0  0  0  0  0
   -4.2801    2.3204   -0.4493 C   0  0  0  0  0  0  0  0  0  0  0  0
    3.0248    2.6371    0.3925 C   0  0  0  0  0  0  0  0  0  0  0  0
   -3.0638   -1.6542    1.7698 H   0  0  0  0  0  0  0  0  0  0  0  0
    2.9502   -1.3366   -1.6462 H   0  0  0  0  0  0  0  0  0  0  0  0
    2.4397   -2.4883   -0.4153 H   0  0  0  0  0  0  0  0  0  0  0  0
    3.6082   -1.3299    1.3661 H   0  0  0  0  0  0  0  0  0  0  0  0
   -2.7518    0.7496    1.2141 H   0  0  0  0  0  0  0  0  0  0  0  0
   -4.4247    0.3730    1.5114 H   0  0  0  0  0  0  0  0  0  0  0  0
   -2.3066   -2.1468   -0.9248 H   0  0  0  0  0  0  0  0  0  0  0  0
   -4.9144    0.3541   -0.9160 H   0  0  0  0  0  0  0  0  0  0  0  0
   -3.2038    0.6963   -1.2718 H   0  0  0  0  0  0  0  0  0  0  0  0
    0.0921   -1.8398   -1.5421 H   0  0  0  0  0  0  0  0  0  0  0  0
    0.6689    1.3213    0.2476 H   0  0  0  0  0  0  0  0  0  0  0  0
   -0.8880   -0.4437    1.0060 H   0  0  0  0  0  0  0  0  0  0  0  0
   -6.3202   -2.5487    0.8198 H   0  0  0  0  0  0  0  0  0  0  0  0
    5.9052   -3.2879   -0.4158 H   0  0  0  0  0  0  0  0  0  0  0  0
   -4.8820    3.7897   -1.5804 H   0  0  0  0  0  0  0  0  0  0  0  0
    3.3209    4.1268   -0.8078 H   0  0  0  0  0  0  0  0  0  0  0  0
  1 21  1  0  0  0  0
  1 37  1  0  0  0  0
  2 22  1  0  0  0  0
  2 38  1  0  0  0  0
  3 21  2  0  0  0  0
  4 22  2  0  0  0  0
  5 23  1  0  0  0  0
  5 39  1  0  0  0  0
  6 23  2  0  0  0  0
  7 24  1  0  0  0  0
  7 40  1  0  0  0  0
  8 24  2  0  0  0  0
  9 11  1  0  0  0  0
  9 19  1  0  0  0  0
  9 31  1  0  0  0  0
 10 13  1  0  0  0  0
 10 20  2  0  0  0  0
 11 14  1  0  0  0  0
 11 21  1  0  0  0  0
 11 25  1  0  0  0  0
 12 13  1  0  0  0  0
 12 15  1  0  0  0  0
 12 26  1  0  0  0  0
 12 27  1  0  0  0  0
 13 22  1  0  0  0  0
 13 28  1  0  0  0  0
 14 16  1  0  0  0  0
 14 29  1  0  0  0  0
 14 30  1  0  0  0  0
 15 17  1  0  0  0  0
 15 18  2  0  0  0  0
 16 23  1  0  0  0  0
 16 32  1  0  0  0  0
 16 33  1  0  0  0  0
 17 19  2  0  0  0  0
 17 34  1  0  0  0  0
 18 20  1  0  0  0  0
 18 35  1  0  0  0  0
 19 36  1  0  0  0  0
 20 24  1  0  0  0  0
M  END
> <PUBCHEM_COMPOUND_CID>
5281218

> <PUBCHEM_CONFORMER_RMSD>
1

> <PUBCHEM_CONFORMER_DIVERSEORDER>
1
10
22
13
25
38
20
52
24
36
17
50
47
46
26
34
31
32
19
41
28
2
29
40
6
45
16
7
11
39
8
18
54
23
37
14
56
33
9
53
49
21
3
48
30
55
51
43
35
42
12
4
5
27
44
15

> <PUBCHEM_MMFF94_PARTIAL_CHARGES>
31
1 -0.65
10 -0.7
11 0.43
12 0.14
13 0.31
15 -0.14
16 0.06
17 -0.15
18 -0.14
19 -0.05
2 -0.65
20 0.44
21 0.66
22 0.66
23 0.66
24 0.72
3 -0.57
31 0.4
34 0.15
35 0.15
36 0.15
37 0.5
38 0.5
39 0.5
4 -0.57
40 0.5
5 -0.65
6 -0.57
7 -0.65
8 -0.57
9 -0.87

> <PUBCHEM_EFFECTIVE_ROTOR_COUNT>
9.4

> <PUBCHEM_PHARMACOPHORE_FEATURES>
16
1 1 acceptor
1 10 acceptor
1 2 acceptor
1 3 acceptor
1 4 acceptor
1 5 acceptor
1 6 acceptor
1 7 acceptor
1 8 acceptor
1 9 cation
1 9 donor
3 1 3 21 anion
3 2 4 22 anion
3 5 6 23 anion
3 7 8 24 anion
6 10 12 13 15 18 20 rings

> <PUBCHEM_HEAVY_ATOM_COUNT>
24

> <PUBCHEM_ATOM_DEF_STEREO_COUNT>
2

> <PUBCHEM_ATOM_UDEF_STEREO_COUNT>
0

> <PUBCHEM_BOND_DEF_STEREO_COUNT>
1

> <PUBCHEM_BOND_UDEF_STEREO_COUNT>
0

> <PUBCHEM_ISOTOPIC_ATOM_COUNT>
0

> <PUBCHEM_COMPONENT_COUNT>
1

> <PUBCHEM_CACTVS_TAUTO_COUNT>
3

> <PUBCHEM_CONFORMER_ID>
005095C200000001

> <PUBCHEM_MMFF94_ENERGY>
43.548

> <PUBCHEM_FEATURE_SELFOVERLAP>
81.428

> <PUBCHEM_SHAPE_FINGERPRINT>
10670039 82 18126270961682671284
11405975 8 18411418436104594753
11545043 162 18273493485545133195
12107183 9 18124034786827659202
13533116 47 18338514119182013995
13583140 156 18408324414822010007
14251764 38 18409731764004304989
14466204 15 18268152135509292066
14790565 3 17979353063403334516
15003188 100 18338529633094290077
17349148 13 17095237025532023618
17492 89 18410855417347885219
17844677 252 18410851044949566159
17868525 174 18340775956840107032
21033648 29 17604450590192708738
21065198 57 18411419496714019003
21279426 13 18267019634412009590
21315763 129 18410293601223527922
21315764 268 18410294688245405521
21709351 56 18333452053541525310
23559900 14 18334583485323650826
4214541 1 18410854378181694035
508706 21 18200889460372940853
5104073 3 18411140238024427168
5281201 14 18408882902045414802
6328613 192 18271799155834354380
90127 26 18201433658002729794

> <PUBCHEM_SHAPE_MULTIPOLES>
436.99
14.08
4.03
0.99
1.73
2.61
0.01
-2.65
0.09
1.29
0.1
0.63
0.42
1.81

> <PUBCHEM_SHAPE_SELFOVERLAP>
899.354

> <PUBCHEM_SHAPE_VOLUME>
247

> <PUBCHEM_COORDINATE_TYPE>
2
5
10

$$$$

