10454
  -OEChem-06261204342D

 19 18  0     0  0  0  0  0  0999 V2000
    2.8660   -0.0670    0.0000 S   0  0  0  0  0  0  0  0  0  0  0  0
    8.0622    0.9330    0.0000 S   0  0  0  0  0  0  0  0  0  0  0  0
    2.3660    0.7990    0.0000 O   0  0  0  0  0  0  0  0  0  0  0  0
    3.3660   -0.9330    0.0000 O   0  0  0  0  0  0  0  0  0  0  0  0
    6.3301   -0.0670    0.0000 N   0  0  0  0  0  0  0  0  0  0  0  0
    3.7320    0.4330    0.0000 C   0  0  0  0  0  0  0  0  0  0  0  0
    4.5981   -0.0670    0.0000 C   0  0  0  0  0  0  0  0  0  0  0  0
    5.4641    0.4330    0.0000 C   0  0  0  0  0  0  0  0  0  0  0  0
    2.0000   -0.5670    0.0000 C   0  0  0  0  0  0  0  0  0  0  0  0
    7.1962    0.4330    0.0000 C   0  0  0  0  0  0  0  0  0  0  0  0
    4.1306    0.9080    0.0000 H   0  0  0  0  0  0  0  0  0  0  0  0
    3.3335    0.9080    0.0000 H   0  0  0  0  0  0  0  0  0  0  0  0
    4.1996   -0.5419    0.0000 H   0  0  0  0  0  0  0  0  0  0  0  0
    4.9966   -0.5419    0.0000 H   0  0  0  0  0  0  0  0  0  0  0  0
    5.8626    0.9080    0.0000 H   0  0  0  0  0  0  0  0  0  0  0  0
    5.0656    0.9080    0.0000 H   0  0  0  0  0  0  0  0  0  0  0  0
    1.6900   -0.0301    0.0000 H   0  0  0  0  0  0  0  0  0  0  0  0
    1.4631   -0.8770    0.0000 H   0  0  0  0  0  0  0  0  0  0  0  0
    2.3100   -1.1039    0.0000 H   0  0  0  0  0  0  0  0  0  0  0  0
  1  3  2  0  0  0  0
  1  4  2  0  0  0  0
  1  6  1  0  0  0  0
  1  9  1  0  0  0  0
  2 10  2  0  0  0  0
  5  8  1  0  0  0  0
  5 10  2  0  0  0  0
  6  7  1  0  0  0  0
  6 11  1  0  0  0  0
  6 12  1  0  0  0  0
  7  8  1  0  0  0  0
  7 13  1  0  0  0  0
  7 14  1  0  0  0  0
  8 15  1  0  0  0  0
  8 16  1  0  0  0  0
  9 17  1  0  0  0  0
  9 18  1  0  0  0  0
  9 19  1  0  0  0  0
M  END
> <PUBCHEM_COMPOUND_CID>
10454

> <PUBCHEM_COMPOUND_CANONICALIZED>
1

> <PUBCHEM_CACTVS_COMPLEXITY>
221

> <PUBCHEM_CACTVS_HBOND_ACCEPTOR>
4

> <PUBCHEM_CACTVS_HBOND_DONOR>
0

> <PUBCHEM_CACTVS_ROTATABLE_BOND>
4

> <PUBCHEM_CACTVS_SUBSKEYS>
AAADccBiMABgAAAAAAAAAAAAAAAAAAAAAAAAAAAAAAAAAAAAAAAAHAQAAAAACADFQASCAAIAAAokAAAABHBAAAAAABAAAAAAAAAAAAAgAAAAAAAAAAAAAAAAAAAAAAAAAAAAAAAAAAAAAAAAAAAAAAAAAA==

> <PUBCHEM_IUPAC_OPENEYE_NAME>
1-isothiocyanato-3-methylsulfonyl-propane

> <PUBCHEM_IUPAC_CAS_NAME>
1-isothiocyanato-3-methylsulfonylpropane

> <PUBCHEM_IUPAC_NAME>
1-isothiocyanato-3-methylsulfonylpropane

> <PUBCHEM_IUPAC_SYSTEMATIC_NAME>
1-isothiocyanato-3-methylsulfonyl-propane

> <PUBCHEM_IUPAC_TRADITIONAL_NAME>
1-isothiocyanato-3-mesyl-propane

> <PUBCHEM_IUPAC_INCHI>
InChI=1S/C5H9NO2S2/c1-10(7,8)4-2-3-6-5-9/h2-4H2,1H3

> <PUBCHEM_IUPAC_INCHIKEY>
ZSJGCHNCYSHQEU-UHFFFAOYSA-N

> <PUBCHEM_XLOGP3_AA>
1.3

> <PUBCHEM_EXACT_MASS>
179.007471

> <PUBCHEM_MOLECULAR_FORMULA>
C5H9NO2S2

> <PUBCHEM_MOLECULAR_WEIGHT>
179.26046

> <PUBCHEM_OPENEYE_CAN_SMILES>
CS(=O)(=O)CCCN=C=S

> <PUBCHEM_OPENEYE_ISO_SMILES>
CS(=O)(=O)CCCN=C=S

> <PUBCHEM_CACTVS_TPSA>
87

> <PUBCHEM_MONOISOTOPIC_WEIGHT>
179.007471

> <PUBCHEM_TOTAL_CHARGE>
0

> <PUBCHEM_HEAVY_ATOM_COUNT>
10

> <PUBCHEM_ATOM_DEF_STEREO_COUNT>
0

> <PUBCHEM_ATOM_UDEF_STEREO_COUNT>
0

> <PUBCHEM_BOND_DEF_STEREO_COUNT>
0

> <PUBCHEM_BOND_UDEF_STEREO_COUNT>
0

> <PUBCHEM_ISOTOPIC_ATOM_COUNT>
0

> <PUBCHEM_COMPONENT_COUNT>
1

> <PUBCHEM_CACTVS_TAUTO_COUNT>
1

> <PUBCHEM_COORDINATE_TYPE>
1
5
255

$$$$

