5282320
  -OEChem-07051213043D

 62 63  0     1  0  0  0  0  0999 V2000
   -5.2048   -0.7550    1.4658 O   0  0  0  0  0  0  0  0  0  0  0  0
   -9.2915   -0.9199    0.1280 O   0  0  0  0  0  0  0  0  0  0  0  0
   11.9348   -0.8651    0.2873 O   0  0  0  0  0  0  0  0  0  0  0  0
   -5.0966   -0.1363    0.1664 C   0  0  2  0  0  0  0  0  0  0  0  0
   -5.9884    0.4180    1.2505 C   0  0  1  0  0  0  0  0  0  0  0  0
   -5.6607   -0.9554   -0.9819 C   0  0  0  0  0  0  0  0  0  0  0  0
   -7.4623    0.1943    1.2284 C   0  0  0  0  0  0  0  0  0  0  0  0
   -7.2037   -0.8417   -1.0477 C   0  0  0  0  0  0  0  0  0  0  0  0
   -7.8801   -0.9614    0.3192 C   0  0  2  0  0  0  0  0  0  0  0  0
   -5.5272    1.5543    2.1077 C   0  0  0  0  0  0  0  0  0  0  0  0
   -3.8738    0.6234   -0.1272 C   0  0  0  0  0  0  0  0  0  0  0  0
   -5.0878   -0.4176   -2.3101 C   0  0  0  0  0  0  0  0  0  0  0  0
   -5.2333   -2.4300   -0.8499 C   0  0  0  0  0  0  0  0  0  0  0  0
   -2.6172    0.1711    0.0293 C   0  0  0  0  0  0  0  0  0  0  0  0
   -1.3832    0.9013   -0.2563 C   0  0  0  0  0  0  0  0  0  0  0  0
   -1.5152    2.3123   -0.7820 C   0  0  0  0  0  0  0  0  0  0  0  0
   -0.1440    0.3938   -0.0790 C   0  0  0  0  0  0  0  0  0  0  0  0
    1.1372    1.0293   -0.3297 C   0  0  0  0  0  0  0  0  0  0  0  0
    2.3083    0.4068   -0.1086 C   0  0  0  0  0  0  0  0  0  0  0  0
    3.6514    0.9565   -0.3272 C   0  0  0  0  0  0  0  0  0  0  0  0
    3.7429    2.3666   -0.8550 C   0  0  0  0  0  0  0  0  0  0  0  0
    4.7153    0.1738   -0.0451 C   0  0  0  0  0  0  0  0  0  0  0  0
    6.1208    0.5037   -0.1806 C   0  0  0  0  0  0  0  0  0  0  0  0
    7.1020   -0.3592    0.1320 C   0  0  0  0  0  0  0  0  0  0  0  0
    8.5078   -0.0321   -0.0001 C   0  0  0  0  0  0  0  0  0  0  0  0
    9.5444   -0.8376    0.2907 C   0  0  0  0  0  0  0  0  0  0  0  0
    9.5086   -2.2424    0.8089 C   0  0  0  0  0  0  0  0  0  0  0  0
   10.8967   -0.2517    0.0662 C   0  0  0  0  0  0  0  0  0  0  0  0
   -7.9618    1.1144    0.8972 H   0  0  0  0  0  0  0  0  0  0  0  0
   -7.8382    0.0045    2.2417 H   0  0  0  0  0  0  0  0  0  0  0  0
   -7.4903    0.1256   -1.4854 H   0  0  0  0  0  0  0  0  0  0  0  0
   -7.6124   -1.5949   -1.7344 H   0  0  0  0  0  0  0  0  0  0  0  0
   -7.6369   -1.9200    0.7902 H   0  0  0  0  0  0  0  0  0  0  0  0
   -6.0704    1.5631    3.0592 H   0  0  0  0  0  0  0  0  0  0  0  0
   -4.4612    1.5037    2.3538 H   0  0  0  0  0  0  0  0  0  0  0  0
   -5.7174    2.5080    1.6044 H   0  0  0  0  0  0  0  0  0  0  0  0
   -4.0395    1.6323   -0.4970 H   0  0  0  0  0  0  0  0  0  0  0  0
   -5.2862    0.6528   -2.4413 H   0  0  0  0  0  0  0  0  0  0  0  0
   -4.0105   -0.5892   -2.4129 H   0  0  0  0  0  0  0  0  0  0  0  0
   -5.5577   -0.9305   -3.1591 H   0  0  0  0  0  0  0  0  0  0  0  0
   -5.6285   -2.8916    0.0609 H   0  0  0  0  0  0  0  0  0  0  0  0
   -5.5906   -3.0222   -1.7000 H   0  0  0  0  0  0  0  0  0  0  0  0
   -4.1423   -2.5264   -0.8130 H   0  0  0  0  0  0  0  0  0  0  0  0
   -9.5345   -1.6773   -0.4314 H   0  0  0  0  0  0  0  0  0  0  0  0
   -2.4826   -0.8423    0.4042 H   0  0  0  0  0  0  0  0  0  0  0  0
   -2.0586    2.9310   -0.0575 H   0  0  0  0  0  0  0  0  0  0  0  0
   -2.0805    2.3089   -1.7219 H   0  0  0  0  0  0  0  0  0  0  0  0
   -0.5904    2.8462   -0.9943 H   0  0  0  0  0  0  0  0  0  0  0  0
   -0.0750   -0.6261    0.3015 H   0  0  0  0  0  0  0  0  0  0  0  0
    1.1529    2.0416   -0.7081 H   0  0  0  0  0  0  0  0  0  0  0  0
    2.2788   -0.6140    0.2733 H   0  0  0  0  0  0  0  0  0  0  0  0
    3.2662    3.0680   -0.1609 H   0  0  0  0  0  0  0  0  0  0  0  0
    4.7664    2.7187   -0.9976 H   0  0  0  0  0  0  0  0  0  0  0  0
    3.2485    2.4444   -1.8298 H   0  0  0  0  0  0  0  0  0  0  0  0
    4.5306   -0.8328    0.3325 H   0  0  0  0  0  0  0  0  0  0  0  0
    6.3851    1.4892   -0.5490 H   0  0  0  0  0  0  0  0  0  0  0  0
    6.8420   -1.3462    0.5013 H   0  0  0  0  0  0  0  0  0  0  0  0
    8.7066    0.9724   -0.3725 H   0  0  0  0  0  0  0  0  0  0  0  0
    8.4968   -2.6276    0.9530 H   0  0  0  0  0  0  0  0  0  0  0  0
   10.0158   -2.9161    0.1099 H   0  0  0  0  0  0  0  0  0  0  0  0
   10.0197   -2.3016    1.7758 H   0  0  0  0  0  0  0  0  0  0  0  0
   10.9209    0.7829   -0.3159 H   0  0  0  0  0  0  0  0  0  0  0  0
  1  4  1  0  0  0  0
  1  5  1  0  0  0  0
  2  9  1  0  0  0  0
  2 44  1  0  0  0  0
  3 28  2  0  0  0  0
  4  5  1  0  0  0  0
  4  6  1  0  0  0  0
  4 11  1  0  0  0  0
  5  7  1  0  0  0  0
  5 10  1  0  0  0  0
  6  8  1  0  0  0  0
  6 12  1  0  0  0  0
  6 13  1  0  0  0  0
  7  9  1  0  0  0  0
  7 29  1  0  0  0  0
  7 30  1  0  0  0  0
  8  9  1  0  0  0  0
  8 31  1  0  0  0  0
  8 32  1  0  0  0  0
  9 33  1  0  0  0  0
 10 34  1  0  0  0  0
 10 35  1  0  0  0  0
 10 36  1  0  0  0  0
 11 14  2  0  0  0  0
 11 37  1  0  0  0  0
 12 38  1  0  0  0  0
 12 39  1  0  0  0  0
 12 40  1  0  0  0  0
 13 41  1  0  0  0  0
 13 42  1  0  0  0  0
 13 43  1  0  0  0  0
 14 15  1  0  0  0  0
 14 45  1  0  0  0  0
 15 16  1  0  0  0  0
 15 17  2  0  0  0  0
 16 46  1  0  0  0  0
 16 47  1  0  0  0  0
 16 48  1  0  0  0  0
 17 18  1  0  0  0  0
 17 49  1  0  0  0  0
 18 19  2  0  0  0  0
 18 50  1  0  0  0  0
 19 20  1  0  0  0  0
 19 51  1  0  0  0  0
 20 21  1  0  0  0  0
 20 22  2  0  0  0  0
 21 52  1  0  0  0  0
 21 53  1  0  0  0  0
 21 54  1  0  0  0  0
 22 23  1  0  0  0  0
 22 55  1  0  0  0  0
 23 24  2  0  0  0  0
 23 56  1  0  0  0  0
 24 25  1  0  0  0  0
 24 57  1  0  0  0  0
 25 26  2  0  0  0  0
 25 58  1  0  0  0  0
 26 27  1  0  0  0  0
 26 28  1  0  0  0  0
 27 59  1  0  0  0  0
 27 60  1  0  0  0  0
 27 61  1  0  0  0  0
 28 62  1  0  0  0  0
M  END
> <PUBCHEM_COMPOUND_CID>
5282320

> <PUBCHEM_CONFORMER_RMSD>
1

> <PUBCHEM_CONFORMER_DIVERSEORDER>
1
6
28
9
14
2
22
10
13
21
24
36
20
16
25
19
30
11
38
4
17
18
5
3
12
31
40
23
15
39
34
32
8
33
27
26
35
37
29
7

> <PUBCHEM_MMFF94_PARTIAL_CHARGES>
36
1 -0.3
10 0.09
11 -0.19
14 -0.15
15 -0.14
16 0.14
17 -0.15
18 -0.15
19 -0.15
2 -0.68
20 -0.14
21 0.14
22 -0.15
23 -0.15
24 -0.15
25 -0.15
26 -0.12
27 0.14
28 0.5
3 -0.57
37 0.15
4 0.09
44 0.4
45 0.15
49 0.15
5 -0.04
50 0.15
51 0.15
55 0.15
56 0.15
57 0.15
58 0.15
6 0.09
62 0.06
7 0.09
9 0.28

> <PUBCHEM_EFFECTIVE_ROTOR_COUNT>
8

> <PUBCHEM_PHARMACOPHORE_FEATURES>
9
1 1 acceptor
1 16 hydrophobe
1 2 acceptor
1 2 donor
1 21 hydrophobe
1 27 hydrophobe
1 3 acceptor
3 6 12 13 hydrophobe
7 1 4 5 6 7 8 9 rings

> <PUBCHEM_HEAVY_ATOM_COUNT>
28

> <PUBCHEM_ATOM_DEF_STEREO_COUNT>
3

> <PUBCHEM_ATOM_UDEF_STEREO_COUNT>
0

> <PUBCHEM_BOND_DEF_STEREO_COUNT>
6

> <PUBCHEM_BOND_UDEF_STEREO_COUNT>
0

> <PUBCHEM_ISOTOPIC_ATOM_COUNT>
0

> <PUBCHEM_COMPONENT_COUNT>
1

> <PUBCHEM_CACTVS_TAUTO_COUNT>
1

> <PUBCHEM_CONFORMER_ID>
00509A1000000001

> <PUBCHEM_MMFF94_ENERGY>
66.9201

> <PUBCHEM_FEATURE_SELFOVERLAP>
45.669

> <PUBCHEM_SHAPE_FINGERPRINT>
10 15 13840263697716661276
10054150 59 12385533827350528697
10299344 5 18333729100375084084
11135926 11 18411423920941998935
11315181 36 17530963545903872009
11463208 3 17917141682197442707
12082328 90 15841559590801387958
12498461 61 17749111042343583791
13553643 46 5906044838680037314
13974486 7 16011589010753475831
14150022 121 16950555631902161192
14251764 46 18410573980856483850
14344974 52 11959719457117454860
15247644 1 18411980251966240547
15419008 47 16558477396340736845
15461852 350 12895064120383844544
155225 1 8430319034551849058
15690457 1 18413109464209629202
16728433 110 18273216371047340228
17093844 174 15936126370336149557
1754908 1 17603594028365369522
1754911 235 11024104348651246098
1818759 1 18342174480118037222
19315958 150 6699813086245167116
2026 5 18270121357357940082
20609170 92 13901907842855932184
21150785 3 13039188099899117336
21267235 1 18130786768218636292
21360443 89 15502386583031983909
21362267 20 18333736802255000446
21792961 116 16917067767736988973
232437 2 18408885153779422286
23528940 14 18113622244837228015
23576562 1 12966543328408785950
246663 6 17847057797055261736
44389302 135 18187087296064655422
4874694 18 16660361502460610189
54039377 194 18343021099639346812
636775 8 13470394553839710409
67123 10 18411982460765281852
9953998 17 16226049981356688957
9962374 69 18341618079899747004

> <PUBCHEM_SHAPE_MULTIPOLES>
558.62
40.14
1.84
1.34
94.67
0
0.02
-20.67
8.04
0.05
-0.21
-3.11
0.11
-2.71

> <PUBCHEM_SHAPE_SELFOVERLAP>
1137.632

> <PUBCHEM_SHAPE_VOLUME>
324.7

> <PUBCHEM_COORDINATE_TYPE>
2
5
10

$$$$

