442112
  -OEChem-07051212573D

 46 48  0     1  0  0  0  0  0999 V2000
   -2.8179   -3.1573   -0.8519 O   0  0  0  0  0  0  0  0  0  0  0  0
    2.9198   -1.2386    1.4853 O   0  0  0  0  0  0  0  0  0  0  0  0
    4.4749    0.1251   -0.3718 O   0  0  0  0  0  0  0  0  0  0  0  0
   -3.2033    0.9136    0.8463 N   0  0  2  0  0  0  0  0  0  0  0  0
   -1.1735    0.7894   -0.3416 C   0  0  2  0  0  0  0  0  0  0  0  0
   -1.9565    0.1228    0.8316 C   0  0  2  0  0  0  0  0  0  0  0  0
   -1.5033    2.2866   -0.1046 C   0  0  0  0  0  0  0  0  0  0  0  0
   -1.7808    0.3498   -1.7144 C   0  0  0  0  0  0  0  0  0  0  0  0
   -2.1978   -1.3834    0.6325 C   0  0  0  0  0  0  0  0  0  0  0  0
   -2.7910    2.3129    0.7155 C   0  0  0  0  0  0  0  0  0  0  0  0
   -1.9067   -1.1635   -1.8509 C   0  0  0  0  0  0  0  0  0  0  0  0
   -2.7709   -1.7387   -0.7353 C   0  0  1  0  0  0  0  0  0  0  0  0
    0.3516    0.6071   -0.3473 C   0  0  0  0  0  0  0  0  0  0  0  0
   -4.0251    0.7080    2.0324 C   0  0  0  0  0  0  0  0  0  0  0  0
    0.9559   -0.2413    0.5801 C   0  0  0  0  0  0  0  0  0  0  0  0
    1.1318    1.2911   -1.2793 C   0  0  0  0  0  0  0  0  0  0  0  0
    2.3410   -0.4061    0.5754 C   0  0  0  0  0  0  0  0  0  0  0  0
    2.5168    1.1265   -1.2841 C   0  0  0  0  0  0  0  0  0  0  0  0
    3.1214    0.2778   -0.3567 C   0  0  0  0  0  0  0  0  0  0  0  0
    3.0760   -2.6046    1.1064 C   0  0  0  0  0  0  0  0  0  0  0  0
    5.2376    1.0229    0.4323 C   0  0  0  0  0  0  0  0  0  0  0  0
   -1.4380    0.2813    1.7876 H   0  0  0  0  0  0  0  0  0  0  0  0
   -1.6196    2.8364   -1.0460 H   0  0  0  0  0  0  0  0  0  0  0  0
   -0.7141    2.7894    0.4696 H   0  0  0  0  0  0  0  0  0  0  0  0
   -1.1937    0.7341   -2.5564 H   0  0  0  0  0  0  0  0  0  0  0  0
   -2.7823    0.7837   -1.8406 H   0  0  0  0  0  0  0  0  0  0  0  0
   -1.2656   -1.9416    0.7733 H   0  0  0  0  0  0  0  0  0  0  0  0
   -2.8574   -1.7796    1.4143 H   0  0  0  0  0  0  0  0  0  0  0  0
   -2.5861    2.7766    1.6889 H   0  0  0  0  0  0  0  0  0  0  0  0
   -3.5677    2.9012    0.2162 H   0  0  0  0  0  0  0  0  0  0  0  0
   -2.3500   -1.4151   -2.8221 H   0  0  0  0  0  0  0  0  0  0  0  0
   -0.9154   -1.6338   -1.8493 H   0  0  0  0  0  0  0  0  0  0  0  0
   -3.7985   -1.3696   -0.8247 H   0  0  0  0  0  0  0  0  0  0  0  0
   -3.4738    0.9008    2.9596 H   0  0  0  0  0  0  0  0  0  0  0  0
   -4.4170   -0.3128    2.0691 H   0  0  0  0  0  0  0  0  0  0  0  0
   -4.8975    1.3710    2.0096 H   0  0  0  0  0  0  0  0  0  0  0  0
    0.4004   -0.7753    1.3402 H   0  0  0  0  0  0  0  0  0  0  0  0
    0.6842    1.9648   -2.0045 H   0  0  0  0  0  0  0  0  0  0  0  0
   -1.9073   -3.4951   -0.8032 H   0  0  0  0  0  0  0  0  0  0  0  0
    3.1189    1.6636   -2.0120 H   0  0  0  0  0  0  0  0  0  0  0  0
    3.7128   -2.6884    0.2203 H   0  0  0  0  0  0  0  0  0  0  0  0
    2.1007   -3.0627    0.9132 H   0  0  0  0  0  0  0  0  0  0  0  0
    3.5549   -3.1368    1.9328 H   0  0  0  0  0  0  0  0  0  0  0  0
    5.0875    2.0555    0.1016 H   0  0  0  0  0  0  0  0  0  0  0  0
    6.2952    0.7696    0.3196 H   0  0  0  0  0  0  0  0  0  0  0  0
    4.9642    0.9224    1.4875 H   0  0  0  0  0  0  0  0  0  0  0  0
  1 12  1  0  0  0  0
  1 39  1  0  0  0  0
  2 17  1  0  0  0  0
  2 20  1  0  0  0  0
  3 19  1  0  0  0  0
  3 21  1  0  0  0  0
  4  6  1  0  0  0  0
  4 10  1  0  0  0  0
  4 14  1  0  0  0  0
  5  6  1  0  0  0  0
  5  7  1  0  0  0  0
  5  8  1  0  0  0  0
  5 13  1  0  0  0  0
  6  9  1  0  0  0  0
  6 22  1  0  0  0  0
  7 10  1  0  0  0  0
  7 23  1  0  0  0  0
  7 24  1  0  0  0  0
  8 11  1  0  0  0  0
  8 25  1  0  0  0  0
  8 26  1  0  0  0  0
  9 12  1  0  0  0  0
  9 27  1  0  0  0  0
  9 28  1  0  0  0  0
 10 29  1  0  0  0  0
 10 30  1  0  0  0  0
 11 12  1  0  0  0  0
 11 31  1  0  0  0  0
 11 32  1  0  0  0  0
 12 33  1  0  0  0  0
 13 15  2  0  0  0  0
 13 16  1  0  0  0  0
 14 34  1  0  0  0  0
 14 35  1  0  0  0  0
 14 36  1  0  0  0  0
 15 17  1  0  0  0  0
 15 37  1  0  0  0  0
 16 18  2  0  0  0  0
 16 38  1  0  0  0  0
 17 19  2  0  0  0  0
 18 19  1  0  0  0  0
 18 40  1  0  0  0  0
 20 41  1  0  0  0  0
 20 42  1  0  0  0  0
 20 43  1  0  0  0  0
 21 44  1  0  0  0  0
 21 45  1  0  0  0  0
 21 46  1  0  0  0  0
M  END
> <PUBCHEM_COMPOUND_CID>
442112

> <PUBCHEM_CONFORMER_RMSD>
0.6

> <PUBCHEM_CONFORMER_DIVERSEORDER>
1
39
16
20
49
15
9
5
31
37
17
43
34
21
38
48
35
30
28
8
44
22
47
23
14
18
33
12
24
6
19
10
45
26
4
41
36
3
29
46
11
13
40
7
42
32
25
2
27

> <PUBCHEM_MMFF94_PARTIAL_CHARGES>
21
1 -0.68
10 0.27
12 0.28
13 -0.14
14 0.27
15 -0.15
16 -0.15
17 0.08
18 -0.15
19 0.08
2 -0.36
20 0.28
21 0.28
3 -0.36
37 0.15
38 0.15
39 0.4
4 -0.81
40 0.15
5 0.14
6 0.27

> <PUBCHEM_EFFECTIVE_ROTOR_COUNT>
4.4

> <PUBCHEM_PHARMACOPHORE_FEATURES>
8
1 1 acceptor
1 1 donor
1 2 acceptor
1 3 acceptor
1 4 cation
5 4 5 6 7 10 rings
6 13 15 16 17 18 19 rings
6 5 6 8 9 11 12 rings

> <PUBCHEM_HEAVY_ATOM_COUNT>
21

> <PUBCHEM_ATOM_DEF_STEREO_COUNT>
3

> <PUBCHEM_ATOM_UDEF_STEREO_COUNT>
0

> <PUBCHEM_BOND_DEF_STEREO_COUNT>
0

> <PUBCHEM_BOND_UDEF_STEREO_COUNT>
0

> <PUBCHEM_ISOTOPIC_ATOM_COUNT>
0

> <PUBCHEM_COMPONENT_COUNT>
1

> <PUBCHEM_CACTVS_TAUTO_COUNT>
1

> <PUBCHEM_CONFORMER_ID>
0006BF0000000001

> <PUBCHEM_MMFF94_ENERGY>
83.9362

> <PUBCHEM_FEATURE_SELFOVERLAP>
40.772

> <PUBCHEM_SHAPE_FINGERPRINT>
11405975 8 17894908568749708988
11578080 2 18197805235493844853
12553582 1 17917988378367811356
12788726 201 18187375328695829847
12824470 246 18267875973576126439
12892183 10 18128801105541706153
13140716 1 17557688184732974000
13224815 77 18059864973707041296
13296908 3 16558469815649027008
13538477 17 18409725149627789309
13583140 156 17096675204306068002
14178342 30 18272654545583475064
14289901 80 18409174303177038408
14787075 74 17689449187118483004
15295992 7 15213570252053578995
15375462 189 18271799112262085000
16945 1 18261380174975094469
17349148 13 17632027364388461048
1813 80 14116927203233731681
18981168 100 14924232560213032552
19433438 48 18343586213797004728
200 152 18130233640032072534
20442098 301 18412543245121509354
22112679 90 18264195929506066229
22445834 79 18201711881641938672
23493267 7 16950281819251879514
23557571 272 17676481718584051312
23566358 27 18130209550114578998
23728640 28 18264499557934515595
34934 24 18342175595918244020
427121 178 17170923072898599315
5104073 3 18040440971579446690
633830 44 18200577139193915180
7097593 13 18340766043749652028
81228 2 17894919486435262853
90525 40 18339921627382970543
9981440 41 7922477704096672606

> <PUBCHEM_SHAPE_MULTIPOLES>
409.58
7.9
2.53
1.66
7.11
1.3
0.12
-0.15
-2.42
-1.23
0.01
-1.02
0.19
-1.94

> <PUBCHEM_SHAPE_SELFOVERLAP>
866.335

> <PUBCHEM_SHAPE_VOLUME>
231.8

> <PUBCHEM_COORDINATE_TYPE>
2
5
10

$$$$

