1613
  -OEChem-07051212463D

 41 44  0     0  0  0  0  0  0999 V2000
   -1.0621   -1.7696    1.5343 S   0  0  0  0  0  0  0  0  0  0  0  0
   -6.7952   -0.2916   -1.5883 F   0  0  0  0  0  0  0  0  0  0  0  0
   -6.6289    1.3552   -0.1869 F   0  0  0  0  0  0  0  0  0  0  0  0
   -5.5564    1.4275   -2.0771 F   0  0  0  0  0  0  0  0  0  0  0  0
    1.3164    2.6437    1.2347 O   0  0  0  0  0  0  0  0  0  0  0  0
    4.1381   -3.9686   -1.1230 O   0  0  0  0  0  0  0  0  0  0  0  0
    2.4941   -2.4805   -1.6402 O   0  0  0  0  0  0  0  0  0  0  0  0
    1.6500    0.3715    1.5657 N   0  0  0  0  0  0  0  0  0  0  0  0
    2.3387   -0.7725    1.2890 N   0  0  0  0  0  0  0  0  0  0  0  0
   -1.5422    0.7595    1.3748 N   0  0  0  0  0  0  0  0  0  0  0  0
    0.5723    0.2099    2.5278 C   0  0  0  0  0  0  0  0  0  0  0  0
    3.7468    0.4845   -0.2546 C   0  0  0  0  0  0  0  0  0  0  0  0
    3.0454    1.6510    0.0284 C   0  0  0  0  0  0  0  0  0  0  0  0
    3.3190   -0.7395    0.4436 C   0  0  0  0  0  0  0  0  0  0  0  0
    1.9311    1.6072    0.9918 C   0  0  0  0  0  0  0  0  0  0  0  0
   -0.6965   -0.1308    1.8073 C   0  0  0  0  0  0  0  0  0  0  0  0
   -2.6016    0.1097    0.7583 C   0  0  0  0  0  0  0  0  0  0  0  0
   -2.5172   -1.2858    0.7460 C   0  0  0  0  0  0  0  0  0  0  0  0
    4.0479   -2.0348    0.1734 C   0  0  0  0  0  0  0  0  0  0  0  0
    4.8060    0.5080   -1.1666 C   0  0  0  0  0  0  0  0  0  0  0  0
    3.3972    2.8518   -0.5984 C   0  0  0  0  0  0  0  0  0  0  0  0
   -3.7228    0.7260    0.1613 C   0  0  0  0  0  0  0  0  0  0  0  0
   -4.7173   -0.0624   -0.4249 C   0  0  0  0  0  0  0  0  0  0  0  0
   -3.5123   -2.0839    0.1591 C   0  0  0  0  0  0  0  0  0  0  0  0
    5.1567    1.7058   -1.7917 C   0  0  0  0  0  0  0  0  0  0  0  0
    4.4539    2.8754   -1.5084 C   0  0  0  0  0  0  0  0  0  0  0  0
   -4.6114   -1.4489   -0.4248 C   0  0  0  0  0  0  0  0  0  0  0  0
   -5.9013    0.5923   -1.0547 C   0  0  0  0  0  0  0  0  0  0  0  0
    3.4515   -2.8100   -0.9557 C   0  0  0  0  0  0  0  0  0  0  0  0
    0.8507   -0.5522    3.2655 H   0  0  0  0  0  0  0  0  0  0  0  0
    0.4329    1.1510    3.0725 H   0  0  0  0  0  0  0  0  0  0  0  0
    3.9662   -2.6524    1.0774 H   0  0  0  0  0  0  0  0  0  0  0  0
    5.1135   -1.8705    0.0001 H   0  0  0  0  0  0  0  0  0  0  0  0
    5.3711   -0.3788   -1.4306 H   0  0  0  0  0  0  0  0  0  0  0  0
    2.8629    3.7752   -0.3929 H   0  0  0  0  0  0  0  0  0  0  0  0
   -3.8064    1.8096    0.1608 H   0  0  0  0  0  0  0  0  0  0  0  0
   -3.4361   -3.1669    0.1556 H   0  0  0  0  0  0  0  0  0  0  0  0
    5.9770    1.7256   -2.5036 H   0  0  0  0  0  0  0  0  0  0  0  0
    4.7285    3.8055   -1.9972 H   0  0  0  0  0  0  0  0  0  0  0  0
   -5.3824   -2.0662   -0.8794 H   0  0  0  0  0  0  0  0  0  0  0  0
    3.7740   -4.5069   -1.8579 H   0  0  0  0  0  0  0  0  0  0  0  0
  1 16  1  0  0  0  0
  1 18  1  0  0  0  0
  2 28  1  0  0  0  0
  3 28  1  0  0  0  0
  4 28  1  0  0  0  0
  5 15  2  0  0  0  0
  6 29  1  0  0  0  0
  6 41  1  0  0  0  0
  7 29  2  0  0  0  0
  8  9  1  0  0  0  0
  8 11  1  0  0  0  0
  8 15  1  0  0  0  0
  9 14  2  0  0  0  0
 10 16  2  0  0  0  0
 10 17  1  0  0  0  0
 11 16  1  0  0  0  0
 11 30  1  0  0  0  0
 11 31  1  0  0  0  0
 12 13  1  0  0  0  0
 12 14  1  0  0  0  0
 12 20  2  0  0  0  0
 13 15  1  0  0  0  0
 13 21  2  0  0  0  0
 14 19  1  0  0  0  0
 17 18  2  0  0  0  0
 17 22  1  0  0  0  0
 18 24  1  0  0  0  0
 19 29  1  0  0  0  0
 19 32  1  0  0  0  0
 19 33  1  0  0  0  0
 20 25  1  0  0  0  0
 20 34  1  0  0  0  0
 21 26  1  0  0  0  0
 21 35  1  0  0  0  0
 22 23  2  0  0  0  0
 22 36  1  0  0  0  0
 23 27  1  0  0  0  0
 23 28  1  0  0  0  0
 24 27  2  0  0  0  0
 24 37  1  0  0  0  0
 25 26  2  0  0  0  0
 25 38  1  0  0  0  0
 26 39  1  0  0  0  0
 27 40  1  0  0  0  0
M  END
> <PUBCHEM_COMPOUND_CID>
1613

> <PUBCHEM_CONFORMER_RMSD>
0.8

> <PUBCHEM_CONFORMER_DIVERSEORDER>
1
36
24
61
58
43
35
33
50
31
27
49
19
54
3
30
22
46
47
53
32
20
23
59
55
48
42
18
51
41
13
29
57
17
21
25
56
34
60
26
45
2
39
37
12
38
44
28
40
52
7
16
11
15
6
8
10
5
9
14
4

> <PUBCHEM_MMFF94_PARTIAL_CHARGES>
37
1 -0.08
10 -0.57
11 0.48
12 0.09
13 0.09
14 0.3
15 0.54
16 0.2
17 0.23
18 0.04
19 0.12
2 -0.34
20 -0.15
21 -0.15
22 -0.15
23 -0.14
24 -0.15
25 -0.15
26 -0.15
27 -0.15
28 1.16
29 0.66
3 -0.34
34 0.15
35 0.15
36 0.15
37 0.15
38 0.15
39 0.15
4 -0.34
40 0.15
41 0.5
5 -0.57
6 -0.65
7 -0.57
8 -0.3
9 -0.51

> <PUBCHEM_EFFECTIVE_ROTOR_COUNT>
5

> <PUBCHEM_PHARMACOPHORE_FEATURES>
10
1 10 acceptor
1 5 acceptor
1 6 acceptor
1 7 acceptor
1 9 acceptor
3 6 7 29 anion
5 1 10 16 17 18 rings
6 12 13 20 21 25 26 rings
6 17 18 22 23 24 27 rings
6 8 9 12 13 14 15 rings

> <PUBCHEM_HEAVY_ATOM_COUNT>
29

> <PUBCHEM_ATOM_DEF_STEREO_COUNT>
0

> <PUBCHEM_ATOM_UDEF_STEREO_COUNT>
0

> <PUBCHEM_BOND_DEF_STEREO_COUNT>
0

> <PUBCHEM_BOND_UDEF_STEREO_COUNT>
0

> <PUBCHEM_ISOTOPIC_ATOM_COUNT>
0

> <PUBCHEM_COMPONENT_COUNT>
1

> <PUBCHEM_CACTVS_TAUTO_COUNT>
1

> <PUBCHEM_CONFORMER_ID>
0000064D00000001

> <PUBCHEM_MMFF94_ENERGY>
62.6069

> <PUBCHEM_FEATURE_SELFOVERLAP>
50.897

> <PUBCHEM_SHAPE_FINGERPRINT>
10319926 262 9510645309962890241
10928967 22 17241331248749709983
11069576 57 17822846606429965670
11135926 11 18263342760428376520
11720765 8 18270127949762720778
11796584 16 15791741780510401239
12892183 10 8430313541510366955
13627167 48 17988359390341650869
13782708 43 15142108461239348669
14341114 328 12031780370943654097
14415361 349 17392456094441688358
14537116 161 18337688468514048349
14848178 5 13912327846249222581
15003188 33 18410007784045229233
15183329 4 18334294280049658201
15188451 53 6483359919796348857
15210252 30 17346319245962128708
15475509 84 9871211418045782982
16989378 47 17606088880204399414
17134984 74 17968383342280102847
17909252 39 18334016107607730824
18608769 82 17772742767990461075
20567600 234 12679457613023826731
21792934 111 7565073766255444327
22289505 5 18343019982678707220
22393880 68 18189892007452980048
23559900 14 18334301989073148491
238 59 18264758879702178330
27425 322 17632580401241183363
2838139 119 17702102465710051620
3004659 81 18336831982608640098
312425 54 6988054465617287807
312425 83 18343584048975342679
3472631 163 17489028154259379589
34797466 226 18273497867060484975
3610482 184 17896296135144679033
376196 1 17843116996783690192
392239 28 9943807790071459997
4066623 53 17917436492355977988
4098825 35 18272082769272131611
4280585 95 18049425235841533438
44802255 64 17408208424271464052
46194498 28 18343584070423701596
463206 1 17385735689972199007
633830 44 17917441908235806987
7970288 3 14562517479739117877
960060 61 18187083944633559329
9658208 31 16415184681215723059

> <PUBCHEM_SHAPE_MULTIPOLES>
546.28
14.59
3.39
1.98
18.12
1.36
0.31
-4.31
-10.18
-5.04
-1.49
-0.06
-0.06
0.95

> <PUBCHEM_SHAPE_SELFOVERLAP>
1200.224

> <PUBCHEM_SHAPE_VOLUME>
299.4

> <PUBCHEM_COORDINATE_TYPE>
2
5
10

$$$$

