442808
  -OEChem-07051212592D

 33 35  0     0  0  0  0  0  0999 V2000
    6.0290    2.7100    0.0000 O   0  0  0  0  0  0  0  0  0  0  0  0
    2.5369    2.6753    0.0000 O   0  0  0  0  0  0  0  0  0  0  0  0
    2.5369    0.6753    0.0000 O   0  0  0  0  0  0  0  0  0  0  0  0
    7.7991    2.6994    0.0000 O   0  0  0  0  0  0  0  0  0  0  0  0
    5.9827   -3.3591    0.0000 O   0  0  0  0  0  0  0  0  0  0  0  0
    5.1350    1.1753    0.0000 C   0  0  0  0  0  0  0  0  0  0  0  0
    6.0290    0.6406    0.0000 C   0  0  0  0  0  0  0  0  0  0  0  0
    5.1350    2.1753    0.0000 C   0  0  0  0  0  0  0  0  0  0  0  0
    6.0174   -0.3593    0.0000 C   0  0  0  0  0  0  0  0  0  0  0  0
    4.2690    0.6753    0.0000 C   0  0  0  0  0  0  0  0  0  0  0  0
    6.9350    1.1545    0.0000 C   0  0  0  0  0  0  0  0  0  0  0  0
    4.2690    2.6753    0.0000 C   0  0  0  0  0  0  0  0  0  0  0  0
    3.4030    1.1753    0.0000 C   0  0  0  0  0  0  0  0  0  0  0  0
    3.4030    2.1753    0.0000 C   0  0  0  0  0  0  0  0  0  0  0  0
    5.1456   -0.8493    0.0000 C   0  0  0  0  0  0  0  0  0  0  0  0
    6.8776   -0.8693    0.0000 C   0  0  0  0  0  0  0  0  0  0  0  0
    6.9350    2.1961    0.0000 C   0  0  0  0  0  0  0  0  0  0  0  0
    5.1341   -1.8492    0.0000 C   0  0  0  0  0  0  0  0  0  0  0  0
    6.8660   -1.8692    0.0000 C   0  0  0  0  0  0  0  0  0  0  0  0
    5.9943   -2.3592    0.0000 C   0  0  0  0  0  0  0  0  0  0  0  0
    2.5369    3.6753    0.0000 C   0  0  0  0  0  0  0  0  0  0  0  0
    4.2690    0.0553    0.0000 H   0  0  0  0  0  0  0  0  0  0  0  0
    7.4708    0.8424    0.0000 H   0  0  0  0  0  0  0  0  0  0  0  0
    4.2690    3.2953    0.0000 H   0  0  0  0  0  0  0  0  0  0  0  0
    4.6123   -0.5331    0.0000 H   0  0  0  0  0  0  0  0  0  0  0  0
    7.4181   -0.5655    0.0000 H   0  0  0  0  0  0  0  0  0  0  0  0
    4.5936   -2.1530    0.0000 H   0  0  0  0  0  0  0  0  0  0  0  0
    7.3993   -2.1854    0.0000 H   0  0  0  0  0  0  0  0  0  0  0  0
    2.0000    0.9853    0.0000 H   0  0  0  0  0  0  0  0  0  0  0  0
    3.1569    3.6753    0.0000 H   0  0  0  0  0  0  0  0  0  0  0  0
    2.5369    4.2953    0.0000 H   0  0  0  0  0  0  0  0  0  0  0  0
    1.9169    3.6753    0.0000 H   0  0  0  0  0  0  0  0  0  0  0  0
    6.5160   -3.6753    0.0000 H   0  0  0  0  0  0  0  0  0  0  0  0
  1  8  1  0  0  0  0
  1 17  1  0  0  0  0
  2 14  1  0  0  0  0
  2 21  1  0  0  0  0
  3 13  1  0  0  0  0
  3 29  1  0  0  0  0
  4 17  2  0  0  0  0
  5 20  1  0  0  0  0
  5 33  1  0  0  0  0
  6  7  1  0  0  0  0
  6  8  1  0  0  0  0
  6 10  2  0  0  0  0
  7  9  1  0  0  0  0
  7 11  2  0  0  0  0
  8 12  2  0  0  0  0
  9 15  2  0  0  0  0
  9 16  1  0  0  0  0
 10 13  1  0  0  0  0
 10 22  1  0  0  0  0
 11 17  1  0  0  0  0
 11 23  1  0  0  0  0
 12 14  1  0  0  0  0
 12 24  1  0  0  0  0
 13 14  2  0  0  0  0
 15 18  1  0  0  0  0
 15 25  1  0  0  0  0
 16 19  2  0  0  0  0
 16 26  1  0  0  0  0
 18 20  2  0  0  0  0
 18 27  1  0  0  0  0
 19 20  1  0  0  0  0
 19 28  1  0  0  0  0
 21 30  1  0  0  0  0
 21 31  1  0  0  0  0
 21 32  1  0  0  0  0
M  END
> <PUBCHEM_COMPOUND_CID>
442808

> <PUBCHEM_COMPOUND_CANONICALIZED>
1

> <PUBCHEM_CACTVS_COMPLEXITY>
424

> <PUBCHEM_CACTVS_HBOND_ACCEPTOR>
5

> <PUBCHEM_CACTVS_HBOND_DONOR>
2

> <PUBCHEM_CACTVS_ROTATABLE_BOND>
2

> <PUBCHEM_CACTVS_SUBSKEYS>
AAADccB4OAAAAAAAAAAAAAAAAAAAAAAAAAAwYIAAAAAAAACBQAAAGgAACAAADASAmAIyDoAABgCIAiDSCAACCAAgIAAIiAAGiMgNJyKGMRqCeiOlwBULuQfA4PwOIQABCAAIQABCAAIQABCAAAAAAAAAAA==

> <PUBCHEM_IUPAC_OPENEYE_NAME>
6-hydroxy-4-(4-hydroxyphenyl)-7-methoxy-chromen-2-one

> <PUBCHEM_IUPAC_CAS_NAME>
6-hydroxy-4-(4-hydroxyphenyl)-7-methoxy-1-benzopyran-2-one

> <PUBCHEM_IUPAC_NAME>
6-hydroxy-4-(4-hydroxyphenyl)-7-methoxychromen-2-one

> <PUBCHEM_IUPAC_SYSTEMATIC_NAME>
4-(4-hydroxyphenyl)-7-methoxy-6-oxidanyl-chromen-2-one

> <PUBCHEM_IUPAC_TRADITIONAL_NAME>
6-hydroxy-4-(4-hydroxyphenyl)-7-methoxy-coumarin

> <PUBCHEM_IUPAC_INCHI>
InChI=1S/C16H12O5/c1-20-15-8-14-12(6-13(15)18)11(7-16(19)21-14)9-2-4-10(17)5-3-9/h2-8,17-18H,1H3

> <PUBCHEM_IUPAC_INCHIKEY>
HUGUGFBIYQBLCS-UHFFFAOYSA-N

> <PUBCHEM_XLOGP3_AA>
2.3

> <PUBCHEM_EXACT_MASS>
284.068473

> <PUBCHEM_MOLECULAR_FORMULA>
C16H12O5

> <PUBCHEM_MOLECULAR_WEIGHT>
284.26348

> <PUBCHEM_OPENEYE_CAN_SMILES>
COC1=C(C=C2C(=CC(=O)OC2=C1)C3=CC=C(C=C3)O)O

> <PUBCHEM_OPENEYE_ISO_SMILES>
COC1=C(C=C2C(=CC(=O)OC2=C1)C3=CC=C(C=C3)O)O

> <PUBCHEM_CACTVS_TPSA>
76

> <PUBCHEM_MONOISOTOPIC_WEIGHT>
284.068473

> <PUBCHEM_TOTAL_CHARGE>
0

> <PUBCHEM_HEAVY_ATOM_COUNT>
21

> <PUBCHEM_ATOM_DEF_STEREO_COUNT>
0

> <PUBCHEM_ATOM_UDEF_STEREO_COUNT>
0

> <PUBCHEM_BOND_DEF_STEREO_COUNT>
0

> <PUBCHEM_BOND_UDEF_STEREO_COUNT>
0

> <PUBCHEM_ISOTOPIC_ATOM_COUNT>
0

> <PUBCHEM_COMPONENT_COUNT>
1

> <PUBCHEM_CACTVS_TAUTO_COUNT>
12

> <PUBCHEM_COORDINATE_TYPE>
1
5
255

> <PUBCHEM_BONDANNOTATIONS>
1  17  8
1  8  8
10  13  8
11  17  8
12  14  8
13  14  8
15  18  8
16  19  8
18  20  8
19  20  8
6  10  8
6  7  8
6  8  8
7  11  8
8  12  8
9  15  8
9  16  8

$$$$

