7942
  -OEChem-06261202282D

 24 24  0     0  0  0  0  0  0999 V2000
    4.5981    1.5000    0.0000 O   0  0  0  0  0  0  0  0  0  0  0  0
    2.8660   -1.5000    0.0000 O   0  0  0  0  0  0  0  0  0  0  0  0
    6.3301    1.5000    0.0000 O   0  0  0  0  0  0  0  0  0  0  0  0
    3.7320   -3.0000    0.0000 O   0  0  0  0  0  0  0  0  0  0  0  0
    4.5981    0.5000    0.0000 C   0  0  0  0  0  0  0  0  0  0  0  0
    3.7320   -1.0000    0.0000 C   0  0  0  0  0  0  0  0  0  0  0  0
    3.7320    0.0000    0.0000 C   0  0  0  0  0  0  0  0  0  0  0  0
    5.4641    0.0000    0.0000 C   0  0  0  0  0  0  0  0  0  0  0  0
    4.5981   -1.5000    0.0000 C   0  0  0  0  0  0  0  0  0  0  0  0
    5.4641   -1.0000    0.0000 C   0  0  0  0  0  0  0  0  0  0  0  0
    5.4641    2.0000    0.0000 C   0  0  0  0  0  0  0  0  0  0  0  0
    2.8660   -2.5000    0.0000 C   0  0  0  0  0  0  0  0  0  0  0  0
    5.4641    3.0000    0.0000 C   0  0  0  0  0  0  0  0  0  0  0  0
    2.0000   -3.0000    0.0000 C   0  0  0  0  0  0  0  0  0  0  0  0
    3.1951    0.3100    0.0000 H   0  0  0  0  0  0  0  0  0  0  0  0
    6.0010    0.3100    0.0000 H   0  0  0  0  0  0  0  0  0  0  0  0
    4.5981   -2.1200    0.0000 H   0  0  0  0  0  0  0  0  0  0  0  0
    6.0010   -1.3100    0.0000 H   0  0  0  0  0  0  0  0  0  0  0  0
    6.0841    3.0000    0.0000 H   0  0  0  0  0  0  0  0  0  0  0  0
    5.4641    3.6200    0.0000 H   0  0  0  0  0  0  0  0  0  0  0  0
    4.8441    3.0000    0.0000 H   0  0  0  0  0  0  0  0  0  0  0  0
    1.6900   -2.4631    0.0000 H   0  0  0  0  0  0  0  0  0  0  0  0
    1.4631   -3.3100    0.0000 H   0  0  0  0  0  0  0  0  0  0  0  0
    2.3100   -3.5369    0.0000 H   0  0  0  0  0  0  0  0  0  0  0  0
  1  5  1  0  0  0  0
  1 11  1  0  0  0  0
  2  6  1  0  0  0  0
  2 12  1  0  0  0  0
  3 11  2  0  0  0  0
  4 12  2  0  0  0  0
  5  7  2  0  0  0  0
  5  8  1  0  0  0  0
  6  7  1  0  0  0  0
  6  9  2  0  0  0  0
  7 15  1  0  0  0  0
  8 10  2  0  0  0  0
  8 16  1  0  0  0  0
  9 10  1  0  0  0  0
  9 17  1  0  0  0  0
 10 18  1  0  0  0  0
 11 13  1  0  0  0  0
 12 14  1  0  0  0  0
 13 19  1  0  0  0  0
 13 20  1  0  0  0  0
 13 21  1  0  0  0  0
 14 22  1  0  0  0  0
 14 23  1  0  0  0  0
 14 24  1  0  0  0  0
M  END
> <PUBCHEM_COMPOUND_CID>
7942

> <PUBCHEM_COMPOUND_CANONICALIZED>
1

> <PUBCHEM_CACTVS_COMPLEXITY>
202

> <PUBCHEM_CACTVS_HBOND_ACCEPTOR>
4

> <PUBCHEM_CACTVS_HBOND_DONOR>
0

> <PUBCHEM_CACTVS_ROTATABLE_BOND>
4

> <PUBCHEM_CACTVS_SUBSKEYS>
AAADccBwOAAAAAAAAAAAAAAAAAAAAAAAAAAwAAAAAAAAAAABAAAAGgAAAAAACASAkAAyDoAABACIACDSCAACCAAgIAAIiAAGCIgMJyKEMRqCOiClwBUIqAeAYAwAAAAACAAAAAAAAAAQAAAAAAAAAAAAAA==

> <PUBCHEM_IUPAC_OPENEYE_NAME>
(3-acetoxyphenyl) acetate

> <PUBCHEM_IUPAC_CAS_NAME>
acetic acid (3-acetyloxyphenyl) ester

> <PUBCHEM_IUPAC_NAME>
(3-acetyloxyphenyl) acetate

> <PUBCHEM_IUPAC_SYSTEMATIC_NAME>
(3-acetyloxyphenyl) ethanoate

> <PUBCHEM_IUPAC_TRADITIONAL_NAME>
acetic acid (3-acetoxyphenyl) ester

> <PUBCHEM_IUPAC_INCHI>
InChI=1S/C10H10O4/c1-7(11)13-9-4-3-5-10(6-9)14-8(2)12/h3-6H,1-2H3

> <PUBCHEM_IUPAC_INCHIKEY>
STOUHHBZBQBYHH-UHFFFAOYSA-N

> <PUBCHEM_XLOGP3>
1.4

> <PUBCHEM_EXACT_MASS>
194.057909

> <PUBCHEM_MOLECULAR_FORMULA>
C10H10O4

> <PUBCHEM_MOLECULAR_WEIGHT>
194.184

> <PUBCHEM_OPENEYE_CAN_SMILES>
CC(=O)OC1=CC(=CC=C1)OC(=O)C

> <PUBCHEM_OPENEYE_ISO_SMILES>
CC(=O)OC1=CC(=CC=C1)OC(=O)C

> <PUBCHEM_CACTVS_TPSA>
52.6

> <PUBCHEM_MONOISOTOPIC_WEIGHT>
194.057909

> <PUBCHEM_TOTAL_CHARGE>
0

> <PUBCHEM_HEAVY_ATOM_COUNT>
14

> <PUBCHEM_ATOM_DEF_STEREO_COUNT>
0

> <PUBCHEM_ATOM_UDEF_STEREO_COUNT>
0

> <PUBCHEM_BOND_DEF_STEREO_COUNT>
0

> <PUBCHEM_BOND_UDEF_STEREO_COUNT>
0

> <PUBCHEM_ISOTOPIC_ATOM_COUNT>
0

> <PUBCHEM_COMPONENT_COUNT>
1

> <PUBCHEM_CACTVS_TAUTO_COUNT>
1

> <PUBCHEM_COORDINATE_TYPE>
1
5
255

> <PUBCHEM_BONDANNOTATIONS>
5  7  8
5  8  8
6  7  8
6  9  8
8  10  8
9  10  8

$$$$

