72120
  -OEChem-07051213032D

 16 12  0     0  0  0  0  0  0999 V2000
    3.3987   -0.4862    0.0000 Pt  0  2  0  0  0  0  0  0  0  0  0  0
    2.5896    0.1016    0.0000 O   0  0  0  0  0  0  0  0  0  0  0  0
    4.2077    0.1016    0.0000 O   0  0  0  0  0  0  0  0  0  0  0  0
    4.4865    1.8616    0.0000 O   0  0  0  0  0  0  0  0  0  0  0  0
    2.8109   -1.2952    0.0000 N   0  5  0  0  0  0  0  0  0  0  0  0
    3.9865   -1.2952    0.0000 N   0  5  0  0  0  0  0  0  0  0  0  0
    2.8987    1.0526    0.0000 C   0  0  0  0  0  0  0  0  0  0  0  0
    3.8987    1.0526    0.0000 C   0  0  0  0  0  0  0  0  0  0  0  0
    2.0000   -0.0900    0.0000 H   0  0  0  0  0  0  0  0  0  0  0  0
    2.9635    1.6692    0.0000 H   0  0  0  0  0  0  0  0  0  0  0  0
    2.2922    1.1815    0.0000 H   0  0  0  0  0  0  0  0  0  0  0  0
    4.7973   -0.0900    0.0000 H   0  0  0  0  0  0  0  0  0  0  0  0
    3.0631   -1.8616    0.0000 H   0  0  0  0  0  0  0  0  0  0  0  0
    2.1943   -1.2304    0.0000 H   0  0  0  0  0  0  0  0  0  0  0  0
    4.6031   -1.2304    0.0000 H   0  0  0  0  0  0  0  0  0  0  0  0
    3.7343   -1.8616    0.0000 H   0  0  0  0  0  0  0  0  0  0  0  0
  2  7  1  0  0  0  0
  2  9  1  0  0  0  0
  3  8  1  0  0  0  0
  3 12  1  0  0  0  0
  4  8  2  0  0  0  0
  5 13  1  0  0  0  0
  5 14  1  0  0  0  0
  6 15  1  0  0  0  0
  6 16  1  0  0  0  0
  7  8  1  0  0  0  0
  7 10  1  0  0  0  0
  7 11  1  0  0  0  0
M  CHG  3   1   2   5  -1   6  -1
M  END
> <PUBCHEM_COMPOUND_CID>
72120

> <PUBCHEM_COMPOUND_CANONICALIZED>
1

> <PUBCHEM_CACTVS_COMPLEXITY>
50.5

> <PUBCHEM_CACTVS_HBOND_ACCEPTOR>
5

> <PUBCHEM_CACTVS_HBOND_DONOR>
4

> <PUBCHEM_CACTVS_ROTATABLE_BOND>
0

> <PUBCHEM_CACTVS_SUBSKEYS>
AAADccBDMAAAAAAAAAAABAAAAAAAASAAAAAAAAAAAAAAAAAAAAAAGgAQCAAAAACggAIACAAAAgAIAACQCAIAAAAAAAAAAABAAAABEAAAAAAAAAAAAAABAAAAAAAAAAAAAAAAAAAAAAAAAAAAAAAAAAAAAA==

> <PUBCHEM_IUPAC_OPENEYE_NAME>
azanide; 2-hydroxyacetic acid; platinum(2+)

> <PUBCHEM_IUPAC_CAS_NAME>
azanide; 2-hydroxyacetic acid; platinum(2+)

> <PUBCHEM_IUPAC_NAME>
azanide; 2-hydroxyacetic acid; platinum(2+)

> <PUBCHEM_IUPAC_SYSTEMATIC_NAME>
azanide; 2-oxidanylethanoic acid; platinum(2+)

> <PUBCHEM_IUPAC_TRADITIONAL_NAME>
azanide; glycolic acid; platinum(2+)

> <PUBCHEM_IUPAC_INCHI>
InChI=1S/C2H4O3.2H2N.Pt/c3-1-2(4)5;;;/h3H,1H2,(H,4,5);2*1H2;/q;2*-1;+2

> <PUBCHEM_IUPAC_INCHIKEY>
KLNFSAOEKUDMFA-UHFFFAOYSA-N

> <PUBCHEM_EXACT_MASS>
303.018283

> <PUBCHEM_MOLECULAR_FORMULA>
C2H8N2O3Pt

> <PUBCHEM_MOLECULAR_WEIGHT>
303.18052

> <PUBCHEM_OPENEYE_CAN_SMILES>
C(C(=O)O)O.[NH2-].[NH2-].[Pt+2]

> <PUBCHEM_OPENEYE_ISO_SMILES>
C(C(=O)O)O.[NH2-].[NH2-].[Pt+2]

> <PUBCHEM_CACTVS_TPSA>
59.5

> <PUBCHEM_MONOISOTOPIC_WEIGHT>
303.018283

> <PUBCHEM_TOTAL_CHARGE>
0

> <PUBCHEM_HEAVY_ATOM_COUNT>
8

> <PUBCHEM_ATOM_DEF_STEREO_COUNT>
0

> <PUBCHEM_ATOM_UDEF_STEREO_COUNT>
0

> <PUBCHEM_BOND_DEF_STEREO_COUNT>
0

> <PUBCHEM_BOND_UDEF_STEREO_COUNT>
0

> <PUBCHEM_ISOTOPIC_ATOM_COUNT>
0

> <PUBCHEM_COMPONENT_COUNT>
4

> <PUBCHEM_CACTVS_TAUTO_COUNT>
4

> <PUBCHEM_NONSTANDARDBOND>
1  2  6
1  3  6
1  5  6
1  6  6

> <PUBCHEM_COORDINATE_TYPE>
1
5
255

$$$$

