443449
  -OEChem-07051213023D

 47 52  0     1  0  0  0  0  0999 V2000
   -1.1990   -1.3862    1.0484 O   0  0  0  0  0  0  0  0  0  0  0  0
   -3.4728   -0.3290   -1.9126 O   0  0  0  0  0  0  0  0  0  0  0  0
    4.4153   -0.5741    1.3545 O   0  0  0  0  0  0  0  0  0  0  0  0
   -2.7542   -0.6491    2.5794 O   0  0  0  0  0  0  0  0  0  0  0  0
    0.4796    3.3685    0.8755 O   0  0  0  0  0  0  0  0  0  0  0  0
   -0.3673    3.0045   -1.2092 O   0  0  0  0  0  0  0  0  0  0  0  0
   -0.8643   -1.0366   -0.3137 C   0  0  1  0  0  0  0  0  0  0  0  0
   -1.2512    0.4321   -0.3905 C   0  0  1  0  0  0  0  0  0  0  0  0
    1.1662    0.3265   -0.0050 C   0  0  1  0  0  0  0  0  0  0  0  0
    0.6493   -1.0495   -0.5620 C   0  0  1  0  0  0  0  0  0  0  0  0
   -2.5997    0.3599    0.3424 C   0  0  1  0  0  0  0  0  0  0  0  0
   -0.0946    1.1577    0.3264 C   0  0  1  0  0  0  0  0  0  0  0  0
   -3.6312   -0.3722   -0.4930 C   0  0  2  0  0  0  0  0  0  0  0  0
   -1.6812   -1.9231   -1.2748 C   0  0  0  0  0  0  0  0  0  0  0  0
   -3.1495   -1.5751   -1.2693 C   0  0  2  0  0  0  0  0  0  0  0  0
    2.0955    0.1078    1.2000 C   0  0  0  0  0  0  0  0  0  0  0  0
    1.3654   -2.2760    0.0259 C   0  0  0  0  0  0  0  0  0  0  0  0
    2.1636    0.9576   -1.0082 C   0  0  0  0  0  0  0  0  0  0  0  0
    3.2645   -0.6254    0.5316 C   0  0  2  0  0  0  0  0  0  0  0  0
   -2.2248   -0.5765    1.4829 C   0  0  0  0  0  0  0  0  0  0  0  0
    2.8763   -2.0794    0.2045 C   0  0  0  0  0  0  0  0  0  0  0  0
    3.4319    0.1882   -0.7384 C   0  0  0  0  0  0  0  0  0  0  0  0
   -3.1203    1.7045    0.8236 C   0  0  0  0  0  0  0  0  0  0  0  0
   -0.0236    2.5889   -0.1127 C   0  0  0  0  0  0  0  0  0  0  0  0
    4.5263    0.2560   -1.5058 C   0  0  0  0  0  0  0  0  0  0  0  0
   -1.3424    0.7730   -1.4288 H   0  0  0  0  0  0  0  0  0  0  0  0
    0.8103   -1.0605   -1.6490 H   0  0  0  0  0  0  0  0  0  0  0  0
   -0.2672    1.1504    1.4106 H   0  0  0  0  0  0  0  0  0  0  0  0
   -4.6287   -0.3964   -0.0765 H   0  0  0  0  0  0  0  0  0  0  0  0
   -1.5749   -2.9735   -0.9796 H   0  0  0  0  0  0  0  0  0  0  0  0
   -1.3088   -1.8284   -2.3015 H   0  0  0  0  0  0  0  0  0  0  0  0
   -3.8091   -2.4114   -1.4466 H   0  0  0  0  0  0  0  0  0  0  0  0
    1.6373   -0.4731    2.0086 H   0  0  0  0  0  0  0  0  0  0  0  0
    2.4182    1.0593    1.6450 H   0  0  0  0  0  0  0  0  0  0  0  0
    1.1759   -3.1576   -0.5980 H   0  0  0  0  0  0  0  0  0  0  0  0
    0.9498   -2.5200    1.0111 H   0  0  0  0  0  0  0  0  0  0  0  0
    2.3553    2.0129   -0.7840 H   0  0  0  0  0  0  0  0  0  0  0  0
    1.8306    0.8710   -2.0472 H   0  0  0  0  0  0  0  0  0  0  0  0
    3.2251   -2.7542    0.9970 H   0  0  0  0  0  0  0  0  0  0  0  0
    3.3951   -2.4144   -0.7033 H   0  0  0  0  0  0  0  0  0  0  0  0
   -2.4480    2.1724    1.5498 H   0  0  0  0  0  0  0  0  0  0  0  0
   -3.2578    2.3941   -0.0162 H   0  0  0  0  0  0  0  0  0  0  0  0
   -4.0919    1.5946    1.3195 H   0  0  0  0  0  0  0  0  0  0  0  0
    4.1923   -0.9900    2.2047 H   0  0  0  0  0  0  0  0  0  0  0  0
    5.4174   -0.3125   -1.2635 H   0  0  0  0  0  0  0  0  0  0  0  0
    4.5486    0.8798   -2.3928 H   0  0  0  0  0  0  0  0  0  0  0  0
    0.5363    4.3099    0.6061 H   0  0  0  0  0  0  0  0  0  0  0  0
  1  7  1  0  0  0  0
  1 20  1  0  0  0  0
  2 13  1  0  0  0  0
  2 15  1  0  0  0  0
  3 19  1  0  0  0  0
  3 44  1  0  0  0  0
  4 20  2  0  0  0  0
  5 24  1  0  0  0  0
  5 47  1  0  0  0  0
  6 24  2  0  0  0  0
  7  8  1  0  0  0  0
  7 10  1  0  0  0  0
  7 14  1  0  0  0  0
  8 11  1  0  0  0  0
  8 12  1  0  0  0  0
  8 26  1  0  0  0  0
  9 10  1  0  0  0  0
  9 12  1  0  0  0  0
  9 16  1  0  0  0  0
  9 18  1  0  0  0  0
 10 17  1  0  0  0  0
 10 27  1  0  0  0  0
 11 13  1  0  0  0  0
 11 20  1  0  0  0  0
 11 23  1  0  0  0  0
 12 24  1  0  0  0  0
 12 28  1  0  0  0  0
 13 15  1  0  0  0  0
 13 29  1  0  0  0  0
 14 15  1  0  0  0  0
 14 30  1  0  0  0  0
 14 31  1  0  0  0  0
 15 32  1  0  0  0  0
 16 19  1  0  0  0  0
 16 33  1  0  0  0  0
 16 34  1  0  0  0  0
 17 21  1  0  0  0  0
 17 35  1  0  0  0  0
 17 36  1  0  0  0  0
 18 22  1  0  0  0  0
 18 37  1  0  0  0  0
 18 38  1  0  0  0  0
 19 21  1  0  0  0  0
 19 22  1  0  0  0  0
 21 39  1  0  0  0  0
 21 40  1  0  0  0  0
 22 25  2  0  0  0  0
 23 41  1  0  0  0  0
 23 42  1  0  0  0  0
 23 43  1  0  0  0  0
 25 45  1  0  0  0  0
 25 46  1  0  0  0  0
M  END
> <PUBCHEM_COMPOUND_CID>
443449

> <PUBCHEM_CONFORMER_RMSD>
0.6

> <PUBCHEM_CONFORMER_DIVERSEORDER>
1
2

> <PUBCHEM_MMFF94_PARTIAL_CHARGES>
24
1 -0.43
11 0.16
12 0.06
13 -0.05
14 0.09
15 -0.05
18 0.14
19 0.42
2 -0.3
20 0.66
22 -0.28
24 0.66
25 -0.3
29 0.1
3 -0.68
32 0.1
4 -0.57
44 0.4
45 0.15
46 0.15
47 0.5
5 -0.65
6 -0.57
7 0.28

> <PUBCHEM_EFFECTIVE_ROTOR_COUNT>
2.6

> <PUBCHEM_PHARMACOPHORE_FEATURES>
10
1 2 acceptor
1 3 acceptor
1 3 donor
1 4 acceptor
1 5 acceptor
1 6 acceptor
3 5 6 24 anion
5 7 8 9 10 12 rings
8 9 10 16 17 18 19 21 22 rings
9 1 2 7 8 11 13 14 15 20 rings

> <PUBCHEM_HEAVY_ATOM_COUNT>
25

> <PUBCHEM_ATOM_DEF_STEREO_COUNT>
8

> <PUBCHEM_ATOM_UDEF_STEREO_COUNT>
1

> <PUBCHEM_BOND_DEF_STEREO_COUNT>
0

> <PUBCHEM_BOND_UDEF_STEREO_COUNT>
0

> <PUBCHEM_ISOTOPIC_ATOM_COUNT>
0

> <PUBCHEM_COMPONENT_COUNT>
1

> <PUBCHEM_CACTVS_TAUTO_COUNT>
1

> <PUBCHEM_CONFORMER_ID>
0006C43900000001

> <PUBCHEM_MMFF94_ENERGY>
98.897

> <PUBCHEM_FEATURE_SELFOVERLAP>
50.919

> <PUBCHEM_SHAPE_FINGERPRINT>
104564 63 18338507659709144484
10863032 1 17823143487132158147
11132069 177 18187086186838544338
11370993 70 15863788404769547038
11578080 2 17678487279269627385
12422481 6 17689694773438510065
12553582 1 18410287004316817352
12596599 1 17821722802250410686
12633257 1 17980720980120633819
12788726 201 18128263482852342416
13140716 1 18265054630569561704
13224815 77 18412824685807124894
133893 2 18050566240267102093
13583140 156 16988562343096614242
13965767 371 17607507313969018515
14181834 199 18047483226694961932
14787075 74 17342631411095069698
14955137 171 17899942054870461697
16752209 62 18269562787494914676
16945 1 18261958444823432107
17349148 13 18130801095965590298
19862831 5 17846224358008005214
19868273 325 18408606958944325012
20691752 17 18341623572582949296
21197605 99 17760913440468883345
2334 1 18122063105049731980
23419403 2 17765765369932045948
23493267 7 17489587874355235216
23558518 356 17911240842726972928
23559900 14 15936407853628650590
238 59 17841728313186112039
296302 2 17132113533094151934
3286 77 16370723717118392638
34934 24 18338795718648991833
350125 39 17549249342373382430
352729 6 17615696566603671324
6992083 37 18187078473135251131
74978 22 18264209101891025663
81228 2 18199189670872193008

> <PUBCHEM_SHAPE_MULTIPOLES>
479.27
6.73
2.64
1.61
3.11
1.68
0.31
-1.47
-0.54
-0.26
-0.24
-0.62
-0.19
-0.8

> <PUBCHEM_SHAPE_SELFOVERLAP>
1091.646

> <PUBCHEM_SHAPE_VOLUME>
249.5

> <PUBCHEM_COORDINATE_TYPE>
2
5
10

$$$$

