4984721
  -OEChem-07051213133D

 17 17  0     0  0  0  0  0  0999 V2000
   -2.1466    1.9013    0.0010 O   0  0  0  0  0  0  0  0  0  0  0  0
    3.0779   -0.8938    0.0016 O   0  5  0  0  0  0  0  0  0  0  0  0
    2.7724    1.2800   -0.0004 O   0  0  0  0  0  0  0  0  0  0  0  0
    2.3229    0.1084    0.0003 N   0  3  0  0  0  0  0  0  0  0  0  0
   -3.2413   -0.6911    0.0006 N   0  0  0  0  0  0  0  0  0  0  0  0
   -1.8454   -0.4791   -0.0001 C   0  0  0  0  0  0  0  0  0  0  0  0
    0.9170   -0.0892   -0.0010 C   0  0  0  0  0  0  0  0  0  0  0  0
   -1.3236    0.8146   -0.0003 C   0  0  0  0  0  0  0  0  0  0  0  0
    0.0576    1.0096   -0.0008 C   0  0  0  0  0  0  0  0  0  0  0  0
   -0.9860   -1.5778   -0.0002 C   0  0  0  0  0  0  0  0  0  0  0  0
    0.3951   -1.3828   -0.0007 C   0  0  0  0  0  0  0  0  0  0  0  0
    0.4355    2.0294   -0.0005 H   0  0  0  0  0  0  0  0  0  0  0  0
    1.0341   -2.2622   -0.0006 H   0  0  0  0  0  0  0  0  0  0  0  0
   -1.3798   -2.5911    0.0001 H   0  0  0  0  0  0  0  0  0  0  0  0
   -3.9011    0.0652    0.0991 H   0  0  0  0  0  0  0  0  0  0  0  0
   -3.5922   -1.6406    0.0041 H   0  0  0  0  0  0  0  0  0  0  0  0
   -3.0655    1.6246   -0.1341 H   0  0  0  0  0  0  0  0  0  0  0  0
  1  8  1  0  0  0  0
  1 17  1  0  0  0  0
  2  4  1  0  0  0  0
  3  4  2  0  0  0  0
  4  7  1  0  0  0  0
  5  6  1  0  0  0  0
  5 15  1  0  0  0  0
  5 16  1  0  0  0  0
  6  8  2  0  0  0  0
  6 10  1  0  0  0  0
  7  9  2  0  0  0  0
  7 11  1  0  0  0  0
  8  9  1  0  0  0  0
  9 12  1  0  0  0  0
 10 11  2  0  0  0  0
 10 14  1  0  0  0  0
 11 13  1  0  0  0  0
M  CHG  2   2  -1   4   1
M  END
> <PUBCHEM_COMPOUND_CID>
4984721

> <PUBCHEM_CONFORMER_RMSD>
0.4

> <PUBCHEM_CONFORMER_DIVERSEORDER>
1

> <PUBCHEM_MMFF94_PARTIAL_CHARGES>
17
1 -0.53
10 -0.15
11 -0.15
12 0.15
13 0.15
14 0.15
15 0.4
16 0.4
17 0.45
2 -0.52
3 -0.52
4 0.91
5 -0.9
6 0.1
7 0.13
8 0.08
9 -0.15

> <PUBCHEM_EFFECTIVE_ROTOR_COUNT>
1

> <PUBCHEM_PHARMACOPHORE_FEATURES>
7
1 1 donor
1 2 acceptor
1 2 anion
1 3 acceptor
1 5 cation
1 5 donor
6 6 7 8 9 10 11 rings

> <PUBCHEM_HEAVY_ATOM_COUNT>
11

> <PUBCHEM_ATOM_DEF_STEREO_COUNT>
0

> <PUBCHEM_ATOM_UDEF_STEREO_COUNT>
0

> <PUBCHEM_BOND_DEF_STEREO_COUNT>
0

> <PUBCHEM_BOND_UDEF_STEREO_COUNT>
0

> <PUBCHEM_ISOTOPIC_ATOM_COUNT>
0

> <PUBCHEM_COMPONENT_COUNT>
1

> <PUBCHEM_CACTVS_TAUTO_COUNT>
7

> <PUBCHEM_CONFORMER_ID>
004C0F9100000001

> <PUBCHEM_MMFF94_ENERGY>
41.9656

> <PUBCHEM_FEATURE_SELFOVERLAP>
35.605

> <PUBCHEM_SHAPE_FINGERPRINT>
12032990 46 18340198584202279003
12897270 3 18411421717285593895
12932764 1 17530971250231045862
13380535 76 18194406817018885167
14325111 11 18410856581278331744
16945 1 18338798918389025799
193761 8 17906453582121817959
19973954 147 18410291402374092348
20871998 184 18115864097004995351
21040471 1 18338516455559138148
23402655 69 18192731127645727285
23552423 10 18344144795784763582
241688 4 18048886190958033363
2748010 2 18266456688457766655
369184 2 18334859398338857314
5084963 1 18260266356251820098

> <PUBCHEM_SHAPE_MULTIPOLES>
198.8
4.16
1.71
0.57
1.26
0.2
0
0.17
0
-0.41
0
-0.03
-0.02
0

> <PUBCHEM_SHAPE_SELFOVERLAP>
419.425

> <PUBCHEM_SHAPE_VOLUME>
111.8

> <PUBCHEM_COORDINATE_TYPE>
2
5
10

$$$$

