6142
  -OEChem-06261201082D

 21 21  0     0  0  0  0  0  0999 V2000
    5.4641    0.5950    0.0000 O   0  0  0  0  0  0  0  0  0  0  0  0
    3.7320    0.5950    0.0000 N   0  0  0  0  0  0  0  0  0  0  0  0
    4.5981    2.0950    0.0000 N   0  0  0  0  0  0  0  0  0  0  0  0
    2.8660   -1.9050    0.0000 C   0  0  0  0  0  0  0  0  0  0  0  0
    3.7320   -0.4050    0.0000 C   0  0  0  0  0  0  0  0  0  0  0  0
    2.8660   -0.9050    0.0000 C   0  0  0  0  0  0  0  0  0  0  0  0
    3.7320   -2.4050    0.0000 C   0  0  0  0  0  0  0  0  0  0  0  0
    4.5981   -0.9050    0.0000 C   0  0  0  0  0  0  0  0  0  0  0  0
    4.5981   -1.9050    0.0000 C   0  0  0  0  0  0  0  0  0  0  0  0
    2.0000   -2.4050    0.0000 C   0  0  0  0  0  0  0  0  0  0  0  0
    4.5981    1.0950    0.0000 C   0  0  0  0  0  0  0  0  0  0  0  0
    2.3291   -0.5950    0.0000 H   0  0  0  0  0  0  0  0  0  0  0  0
    5.1350   -0.5950    0.0000 H   0  0  0  0  0  0  0  0  0  0  0  0
    3.7320   -3.0250    0.0000 H   0  0  0  0  0  0  0  0  0  0  0  0
    5.1350   -2.2150    0.0000 H   0  0  0  0  0  0  0  0  0  0  0  0
    1.6900   -1.8681    0.0000 H   0  0  0  0  0  0  0  0  0  0  0  0
    1.4631   -2.7150    0.0000 H   0  0  0  0  0  0  0  0  0  0  0  0
    2.3100   -2.9419    0.0000 H   0  0  0  0  0  0  0  0  0  0  0  0
    3.1951    0.9050    0.0000 H   0  0  0  0  0  0  0  0  0  0  0  0
    5.1350    2.4050    0.0000 H   0  0  0  0  0  0  0  0  0  0  0  0
    4.0611    2.4050    0.0000 H   0  0  0  0  0  0  0  0  0  0  0  0
  1 11  2  0  0  0  0
  2  5  1  0  0  0  0
  2 11  1  0  0  0  0
  2 19  1  0  0  0  0
  3 11  1  0  0  0  0
  3 20  1  0  0  0  0
  3 21  1  0  0  0  0
  4  6  2  0  0  0  0
  4  7  1  0  0  0  0
  4 10  1  0  0  0  0
  5  6  1  0  0  0  0
  5  8  2  0  0  0  0
  6 12  1  0  0  0  0
  7  9  2  0  0  0  0
  7 14  1  0  0  0  0
  8  9  1  0  0  0  0
  8 13  1  0  0  0  0
  9 15  1  0  0  0  0
 10 16  1  0  0  0  0
 10 17  1  0  0  0  0
 10 18  1  0  0  0  0
M  END
> <PUBCHEM_COMPOUND_CID>
6142

> <PUBCHEM_COMPOUND_CANONICALIZED>
1

> <PUBCHEM_CACTVS_COMPLEXITY>
147

> <PUBCHEM_CACTVS_HBOND_ACCEPTOR>
1

> <PUBCHEM_CACTVS_HBOND_DONOR>
2

> <PUBCHEM_CACTVS_ROTATABLE_BOND>
1

> <PUBCHEM_CACTVS_SUBSKEYS>
AAADccBzIAAAAAAAAAAAAAAAAAAAAAAAAAAwAAAAAAAAAAABAAAAHgAQAAAADAiBGAAzwILAAACIAiRCUACCAAAhAgAIiAAAZIiIICLAkZGEIAhglAJIyCcQgAAOAAAAQAAAAAAAAACAAAAAAAAAAAAAAA==

> <PUBCHEM_IUPAC_OPENEYE_NAME>
m-tolylurea

> <PUBCHEM_IUPAC_CAS_NAME>
(3-methylphenyl)urea

> <PUBCHEM_IUPAC_NAME>
(3-methylphenyl)urea

> <PUBCHEM_IUPAC_SYSTEMATIC_NAME>
1-(3-methylphenyl)urea

> <PUBCHEM_IUPAC_TRADITIONAL_NAME>
m-tolylurea

> <PUBCHEM_IUPAC_INCHI>
InChI=1S/C8H10N2O/c1-6-3-2-4-7(5-6)10-8(9)11/h2-5H,1H3,(H3,9,10,11)

> <PUBCHEM_IUPAC_INCHIKEY>
UVQVMNIYFXZXCI-UHFFFAOYSA-N

> <PUBCHEM_XLOGP3>
1.3

> <PUBCHEM_EXACT_MASS>
150.079313

> <PUBCHEM_MOLECULAR_FORMULA>
C8H10N2O

> <PUBCHEM_MOLECULAR_WEIGHT>
150.1778

> <PUBCHEM_OPENEYE_CAN_SMILES>
CC1=CC(=CC=C1)NC(=O)N

> <PUBCHEM_OPENEYE_ISO_SMILES>
CC1=CC(=CC=C1)NC(=O)N

> <PUBCHEM_CACTVS_TPSA>
55.1

> <PUBCHEM_MONOISOTOPIC_WEIGHT>
150.079313

> <PUBCHEM_TOTAL_CHARGE>
0

> <PUBCHEM_HEAVY_ATOM_COUNT>
11

> <PUBCHEM_ATOM_DEF_STEREO_COUNT>
0

> <PUBCHEM_ATOM_UDEF_STEREO_COUNT>
0

> <PUBCHEM_BOND_DEF_STEREO_COUNT>
0

> <PUBCHEM_BOND_UDEF_STEREO_COUNT>
0

> <PUBCHEM_ISOTOPIC_ATOM_COUNT>
0

> <PUBCHEM_COMPONENT_COUNT>
1

> <PUBCHEM_CACTVS_TAUTO_COUNT>
3

> <PUBCHEM_COORDINATE_TYPE>
1
5
255

> <PUBCHEM_BONDANNOTATIONS>
4  6  8
4  7  8
5  6  8
5  8  8
7  9  8
8  9  8

$$$$

