259037
  -OEChem-07051213153D

 74 78  0     1  0  0  0  0  0999 V2000
    3.0053    0.4397    1.2236 O   0  0  0  0  0  0  0  0  0  0  0  0
   -7.4373    0.4052    0.0875 O   0  0  0  0  0  0  0  0  0  0  0  0
    7.4524    1.9335    0.6099 O   0  0  0  0  0  0  0  0  0  0  0  0
   -0.5149    0.1764    0.8326 C   0  0  2  0  0  0  0  0  0  0  0  0
    0.2110   -0.9425    0.0510 C   0  0  1  0  0  0  0  0  0  0  0  0
   -1.6819    0.7883    0.0500 C   0  0  1  0  0  0  0  0  0  0  0  0
   -2.7214   -0.3385   -0.2565 C   0  0  1  0  0  0  0  0  0  0  0  0
   -3.9817    0.2148   -1.0231 C   0  0  2  0  0  0  0  0  0  0  0  0
    1.3249   -1.2903    1.0748 C   0  0  2  0  0  0  0  0  0  0  0  0
   -0.7996   -2.0732   -0.1901 C   0  0  0  0  0  0  0  0  0  0  0  0
    0.6283    1.0769    1.2943 C   0  0  0  0  0  0  0  0  0  0  0  0
   -2.0568   -1.5727   -0.9258 C   0  0  0  0  0  0  0  0  0  0  0  0
   -4.6028    1.4038   -0.2156 C   0  0  2  0  0  0  0  0  0  0  0  0
    1.7081    0.0656    1.7111 C   0  0  2  0  0  0  0  0  0  0  0  0
   -2.3267    1.9467    0.8216 C   0  0  0  0  0  0  0  0  0  0  0  0
   -3.5645    2.4901    0.1144 C   0  0  0  0  0  0  0  0  0  0  0  0
   -5.0782   -0.8708   -1.2267 C   0  0  0  0  0  0  0  0  0  0  0  0
    0.7937   -0.4746   -1.3091 C   0  0  0  0  0  0  0  0  0  0  0  0
   -5.3179    0.9418    1.0772 C   0  0  0  0  0  0  0  0  0  0  0  0
    2.6539   -1.7582    0.5988 C   0  0  0  0  0  0  0  0  0  0  0  0
   -3.5968    0.7059   -2.4433 C   0  0  0  0  0  0  0  0  0  0  0  0
   -5.7511   -1.3271    0.0663 C   0  0  0  0  0  0  0  0  0  0  0  0
   -6.3530   -0.1513    0.8280 C   0  0  2  0  0  0  0  0  0  0  0  0
    3.5289   -0.7540    0.7178 C   0  0  0  0  0  0  0  0  0  0  0  0
    2.8499   -3.1475    0.1094 C   0  0  0  0  0  0  0  0  0  0  0  0
    4.9713   -0.7192    0.3578 C   0  0  0  0  0  0  0  0  0  0  0  0
    5.2680    0.3347   -0.7147 C   0  0  0  0  0  0  0  0  0  0  0  0
    6.7519    0.3870   -1.1340 C   0  0  2  0  0  0  0  0  0  0  0  0
    7.7061    0.6587    0.0366 C   0  0  0  0  0  0  0  0  0  0  0  0
    6.9313    1.4507   -2.2236 C   0  0  0  0  0  0  0  0  0  0  0  0
   -0.9464   -0.2624    1.7484 H   0  0  0  0  0  0  0  0  0  0  0  0
   -1.2990    1.2023   -0.8881 H   0  0  0  0  0  0  0  0  0  0  0  0
   -3.0688   -0.7022    0.7205 H   0  0  0  0  0  0  0  0  0  0  0  0
    0.9336   -1.9527    1.8581 H   0  0  0  0  0  0  0  0  0  0  0  0
   -1.1109   -2.5095    0.7681 H   0  0  0  0  0  0  0  0  0  0  0  0
   -0.3396   -2.8868   -0.7633 H   0  0  0  0  0  0  0  0  0  0  0  0
    0.9775    1.7488    0.5030 H   0  0  0  0  0  0  0  0  0  0  0  0
    0.3306    1.6989    2.1450 H   0  0  0  0  0  0  0  0  0  0  0  0
   -1.7981   -1.3514   -1.9655 H   0  0  0  0  0  0  0  0  0  0  0  0
   -2.7670   -2.4061   -0.9570 H   0  0  0  0  0  0  0  0  0  0  0  0
   -5.3694    1.8797   -0.8441 H   0  0  0  0  0  0  0  0  0  0  0  0
    1.7620   -0.0162    2.8045 H   0  0  0  0  0  0  0  0  0  0  0  0
   -1.6053    2.7647    0.9362 H   0  0  0  0  0  0  0  0  0  0  0  0
   -2.5883    1.6246    1.8364 H   0  0  0  0  0  0  0  0  0  0  0  0
   -4.0226    3.2684    0.7371 H   0  0  0  0  0  0  0  0  0  0  0  0
   -3.2548    2.9926   -0.8098 H   0  0  0  0  0  0  0  0  0  0  0  0
   -4.6751   -1.7435   -1.7520 H   0  0  0  0  0  0  0  0  0  0  0  0
   -5.8572   -0.4717   -1.8915 H   0  0  0  0  0  0  0  0  0  0  0  0
    1.5273    0.3297   -1.2004 H   0  0  0  0  0  0  0  0  0  0  0  0
    1.2915   -1.3035   -1.8245 H   0  0  0  0  0  0  0  0  0  0  0  0
    0.0269   -0.1033   -1.9939 H   0  0  0  0  0  0  0  0  0  0  0  0
   -4.5932    0.5732    1.8109 H   0  0  0  0  0  0  0  0  0  0  0  0
   -5.8108    1.8108    1.5317 H   0  0  0  0  0  0  0  0  0  0  0  0
   -2.7916    1.4442   -2.4373 H   0  0  0  0  0  0  0  0  0  0  0  0
   -3.2784   -0.1238   -3.0830 H   0  0  0  0  0  0  0  0  0  0  0  0
   -4.4554    1.1753   -2.9383 H   0  0  0  0  0  0  0  0  0  0  0  0
   -6.5439   -2.0399   -0.1910 H   0  0  0  0  0  0  0  0  0  0  0  0
   -5.0329   -1.8586    0.7000 H   0  0  0  0  0  0  0  0  0  0  0  0
   -6.7595   -0.5059    1.7817 H   0  0  0  0  0  0  0  0  0  0  0  0
    2.5809   -3.8639    0.8922 H   0  0  0  0  0  0  0  0  0  0  0  0
    3.8841   -3.3488   -0.1808 H   0  0  0  0  0  0  0  0  0  0  0  0
    2.2188   -3.3412   -0.7630 H   0  0  0  0  0  0  0  0  0  0  0  0
    5.5303   -0.4978    1.2736 H   0  0  0  0  0  0  0  0  0  0  0  0
    5.3212   -1.6957    0.0084 H   0  0  0  0  0  0  0  0  0  0  0  0
   -7.8149    1.1283    0.6167 H   0  0  0  0  0  0  0  0  0  0  0  0
    4.9495    1.3249   -0.3640 H   0  0  0  0  0  0  0  0  0  0  0  0
    4.6597    0.1166   -1.6031 H   0  0  0  0  0  0  0  0  0  0  0  0
    7.0205   -0.5864   -1.5642 H   0  0  0  0  0  0  0  0  0  0  0  0
    7.6439   -0.1051    0.8168 H   0  0  0  0  0  0  0  0  0  0  0  0
    8.7413    0.6621   -0.3215 H   0  0  0  0  0  0  0  0  0  0  0  0
    6.3168    1.2133   -3.0987 H   0  0  0  0  0  0  0  0  0  0  0  0
    7.9744    1.4965   -2.5538 H   0  0  0  0  0  0  0  0  0  0  0  0
    6.6416    2.4462   -1.8712 H   0  0  0  0  0  0  0  0  0  0  0  0
    6.5990    1.8849    1.0725 H   0  0  0  0  0  0  0  0  0  0  0  0
  1 14  1  0  0  0  0
  1 24  1  0  0  0  0
  2 23  1  0  0  0  0
  2 65  1  0  0  0  0
  3 29  1  0  0  0  0
  3 74  1  0  0  0  0
  4  5  1  0  0  0  0
  4  6  1  0  0  0  0
  4 11  1  0  0  0  0
  4 31  1  0  0  0  0
  5  9  1  0  0  0  0
  5 10  1  0  0  0  0
  5 18  1  0  0  0  0
  6  7  1  0  0  0  0
  6 15  1  0  0  0  0
  6 32  1  0  0  0  0
  7  8  1  0  0  0  0
  7 12  1  0  0  0  0
  7 33  1  0  0  0  0
  8 13  1  0  0  0  0
  8 17  1  0  0  0  0
  8 21  1  0  0  0  0
  9 14  1  0  0  0  0
  9 20  1  0  0  0  0
  9 34  1  0  0  0  0
 10 12  1  0  0  0  0
 10 35  1  0  0  0  0
 10 36  1  0  0  0  0
 11 14  1  0  0  0  0
 11 37  1  0  0  0  0
 11 38  1  0  0  0  0
 12 39  1  0  0  0  0
 12 40  1  0  0  0  0
 13 16  1  0  0  0  0
 13 19  1  0  0  0  0
 13 41  1  0  0  0  0
 14 42  1  0  0  0  0
 15 16  1  0  0  0  0
 15 43  1  0  0  0  0
 15 44  1  0  0  0  0
 16 45  1  0  0  0  0
 16 46  1  0  0  0  0
 17 22  1  0  0  0  0
 17 47  1  0  0  0  0
 17 48  1  0  0  0  0
 18 49  1  0  0  0  0
 18 50  1  0  0  0  0
 18 51  1  0  0  0  0
 19 23  1  0  0  0  0
 19 52  1  0  0  0  0
 19 53  1  0  0  0  0
 20 24  2  0  0  0  0
 20 25  1  0  0  0  0
 21 54  1  0  0  0  0
 21 55  1  0  0  0  0
 21 56  1  0  0  0  0
 22 23  1  0  0  0  0
 22 57  1  0  0  0  0
 22 58  1  0  0  0  0
 23 59  1  0  0  0  0
 24 26  1  0  0  0  0
 25 60  1  0  0  0  0
 25 61  1  0  0  0  0
 25 62  1  0  0  0  0
 26 27  1  0  0  0  0
 26 63  1  0  0  0  0
 26 64  1  0  0  0  0
 27 28  1  0  0  0  0
 27 66  1  0  0  0  0
 27 67  1  0  0  0  0
 28 29  1  0  0  0  0
 28 30  1  0  0  0  0
 28 68  1  0  0  0  0
 29 69  1  0  0  0  0
 29 70  1  0  0  0  0
 30 71  1  0  0  0  0
 30 72  1  0  0  0  0
 30 73  1  0  0  0  0
M  END
> <PUBCHEM_COMPOUND_CID>
259037

> <PUBCHEM_CONFORMER_RMSD>
0.8

> <PUBCHEM_CONFORMER_DIVERSEORDER>
3
23
8
18
9
17
5
14
21
13
10
20
7
4
15
12
22
11
19
6
16
2
1

> <PUBCHEM_MMFF94_PARTIAL_CHARGES>
13
1 -0.36
14 0.28
2 -0.68
20 -0.28
23 0.28
24 -0.06
25 0.14
26 0.14
29 0.28
3 -0.68
65 0.4
74 0.4
9 0.14

> <PUBCHEM_EFFECTIVE_ROTOR_COUNT>
6

> <PUBCHEM_PHARMACOPHORE_FEATURES>
11
1 1 acceptor
1 2 acceptor
1 2 donor
1 3 acceptor
1 3 donor
1 30 hydrophobe
5 1 9 14 20 24 rings
5 4 5 9 11 14 rings
6 4 5 6 7 10 12 rings
6 6 7 8 13 15 16 rings
6 8 13 17 19 22 23 rings

> <PUBCHEM_HEAVY_ATOM_COUNT>
30

> <PUBCHEM_ATOM_DEF_STEREO_COUNT>
10

> <PUBCHEM_ATOM_UDEF_STEREO_COUNT>
0

> <PUBCHEM_BOND_DEF_STEREO_COUNT>
0

> <PUBCHEM_BOND_UDEF_STEREO_COUNT>
0

> <PUBCHEM_ISOTOPIC_ATOM_COUNT>
0

> <PUBCHEM_COMPONENT_COUNT>
1

> <PUBCHEM_CACTVS_TAUTO_COUNT>
1

> <PUBCHEM_CONFORMER_ID>
0003F3DD00000003

> <PUBCHEM_MMFF94_ENERGY>
94.4813

> <PUBCHEM_FEATURE_SELFOVERLAP>
56.294

> <PUBCHEM_SHAPE_FINGERPRINT>
10 15 15482666858619089636
10670039 82 18409732884990801652
10674148 151 16732977652727133122
11089746 13 8718823185204719611
11719270 70 11600006561616494920
11796584 16 4895266023377305876
12236239 1 18130507521527741634
12403259 415 17894927247193481137
12596602 18 17560801073707228545
12788726 201 17241324818903398232
13224815 77 18340212998518316611
13540713 5 17826784030941944314
13631057 29 17917428662720534419
13690498 29 17824551768449685678
13782708 43 5183478850620005925
13911987 19 18341346551962007191
14767858 380 18410854356822902028
14849402 71 17917419874769144932
14856354 85 18334009463646459407
15183329 4 16515683359920268910
15461852 350 14620786098542381394
15475509 8 16877651383898165288
15537594 2 17822300110237577447
15685185 35 17843387498398664764
18335252 98 18272082795342771843
18608769 82 18337390444215839355
19319366 153 18341058501138028810
20105231 36 17676761011701772647
20567600 234 16200143279903918054
21150785 3 18202282485253201770
21796203 349 18119780596853176537
21859007 373 8141818135775239539
22224240 67 15841550760496132330
23522609 53 18116130316078646401
23559900 14 4823200732689813878
23569943 247 4678268517243057956
2838139 119 17418380164989629980
335352 9 18259992579069878845
34797466 226 17988920098031583446
350125 39 18334577958101849361
392239 28 14045737153597209060
4073 2 18201433705828229739
4098825 35 17531517789388736022
4258327 124 17131253663862446494
4325135 7 18272367577406934997
5104073 3 13829582010640348340
5265222 85 17822013056240520902
53794403 172 18194685870062387384
543368 44 18412546521907503101

> <PUBCHEM_SHAPE_MULTIPOLES>
599.78
18.98
2.23
1.61
17.11
0.55
0.6
-7.41
3.78
0.65
-0.06
0.43
-0.43
-1.23

> <PUBCHEM_SHAPE_SELFOVERLAP>
1268.957

> <PUBCHEM_SHAPE_VOLUME>
334.9

> <PUBCHEM_COORDINATE_TYPE>
2
5
10

$$$$

