69141
  -OEChem-07051212513D

 18 19  0     0  0  0  0  0  0999 V2000
   -1.6676   -2.1236    0.0001 O   0  0  0  0  0  0  0  0  0  0  0  0
   -0.7324    1.8164    0.0000 N   0  0  0  0  0  0  0  0  0  0  0  0
    0.0500   -0.4838   -0.0002 C   0  0  0  0  0  0  0  0  0  0  0  0
    0.3245    0.8976   -0.0002 C   0  0  0  0  0  0  0  0  0  0  0  0
   -1.3687   -0.9363   -0.0001 C   0  0  0  0  0  0  0  0  0  0  0  0
    1.0879   -1.4189   -0.0001 C   0  0  0  0  0  0  0  0  0  0  0  0
    1.6557    1.3247    0.0000 C   0  0  0  0  0  0  0  0  0  0  0  0
   -2.4219    0.1149    0.0001 C   0  0  0  0  0  0  0  0  0  0  0  0
   -2.0313    1.3940    0.0001 C   0  0  0  0  0  0  0  0  0  0  0  0
    2.4102   -0.9758    0.0001 C   0  0  0  0  0  0  0  0  0  0  0  0
    2.6936    0.3907    0.0002 C   0  0  0  0  0  0  0  0  0  0  0  0
   -0.5411    2.8092   -0.0005 H   0  0  0  0  0  0  0  0  0  0  0  0
    0.8874   -2.4864    0.0000 H   0  0  0  0  0  0  0  0  0  0  0  0
    1.8947    2.3853    0.0001 H   0  0  0  0  0  0  0  0  0  0  0  0
   -3.4636   -0.1788    0.0002 H   0  0  0  0  0  0  0  0  0  0  0  0
   -2.7480    2.2066    0.0001 H   0  0  0  0  0  0  0  0  0  0  0  0
    3.2228   -1.6966    0.0002 H   0  0  0  0  0  0  0  0  0  0  0  0
    3.7259    0.7291    0.0003 H   0  0  0  0  0  0  0  0  0  0  0  0
  1  5  2  0  0  0  0
  2  4  1  0  0  0  0
  2  9  1  0  0  0  0
  2 12  1  0  0  0  0
  3  4  1  0  0  0  0
  3  5  1  0  0  0  0
  3  6  2  0  0  0  0
  4  7  2  0  0  0  0
  5  8  1  0  0  0  0
  6 10  1  0  0  0  0
  6 13  1  0  0  0  0
  7 11  1  0  0  0  0
  7 14  1  0  0  0  0
  8  9  2  0  0  0  0
  8 15  1  0  0  0  0
  9 16  1  0  0  0  0
 10 11  2  0  0  0  0
 10 17  1  0  0  0  0
 11 18  1  0  0  0  0
M  END
> <PUBCHEM_COMPOUND_CID>
69141

> <PUBCHEM_CONFORMER_RMSD>
0.4

> <PUBCHEM_CONFORMER_DIVERSEORDER>
1

> <PUBCHEM_MMFF94_PARTIAL_CHARGES>
18
1 -0.57
10 -0.15
11 -0.15
12 0.4
13 0.15
14 0.15
15 0.15
16 0.15
17 0.15
18 0.15
2 -0.6
3 0.09
4 0.1
5 0.47
6 -0.15
7 -0.15
8 -0.14
9 -0.05

> <PUBCHEM_EFFECTIVE_ROTOR_COUNT>
0

> <PUBCHEM_PHARMACOPHORE_FEATURES>
5
1 1 acceptor
1 2 cation
1 2 donor
6 2 3 4 5 8 9 rings
6 3 4 6 7 10 11 rings

> <PUBCHEM_HEAVY_ATOM_COUNT>
11

> <PUBCHEM_ATOM_DEF_STEREO_COUNT>
0

> <PUBCHEM_ATOM_UDEF_STEREO_COUNT>
0

> <PUBCHEM_BOND_DEF_STEREO_COUNT>
0

> <PUBCHEM_BOND_UDEF_STEREO_COUNT>
0

> <PUBCHEM_ISOTOPIC_ATOM_COUNT>
0

> <PUBCHEM_COMPONENT_COUNT>
1

> <PUBCHEM_CACTVS_TAUTO_COUNT>
3

> <PUBCHEM_CONFORMER_ID>
00010E1500000001

> <PUBCHEM_MMFF94_ENERGY>
33.865

> <PUBCHEM_FEATURE_SELFOVERLAP>
25.396

> <PUBCHEM_SHAPE_FINGERPRINT>
12423570 1 11952770448808470249
12524768 44 18336824289979041991
12897270 3 18410293562605258430
13380535 76 18337115660549911526
14325111 11 18338797930588960105
16945 1 18410575114859829220
193761 8 15456494804789961696
19973954 147 18410853235503920532
20871998 184 18187643566119474575
21040471 1 18338517568087673028
21501502 16 18410012117556168686
23552423 10 18272368625041247676
23559900 14 18262231257721733646
241688 4 15095928379001490537
2748010 2 18266178318568227140
369184 2 18411140255130462049
5084963 1 17970354921357953121
528886 8 18409735040668199778
66348 1 18410294670564408910

> <PUBCHEM_SHAPE_MULTIPOLES>
215.52
3.59
1.98
0.6
0.51
0.23
0
-0.06
0
-0.46
0
0.02
-0.01
0

> <PUBCHEM_SHAPE_SELFOVERLAP>
471.3

> <PUBCHEM_SHAPE_VOLUME>
115.3

> <PUBCHEM_COORDINATE_TYPE>
2
5
10

$$$$

