443135
  -OEChem-07051213013D

 19 19  0     1  0  0  0  0  0999 V2000
    2.3292   -0.9380    0.7265 O   0  0  0  0  0  0  0  0  0  0  0  0
    1.7657    0.2997    0.2771 C   0  0  2  0  0  0  0  0  0  0  0  0
    0.2894    0.1403    0.1365 C   0  0  0  0  0  0  0  0  0  0  0  0
    2.4529    0.6896   -1.0326 C   0  0  0  0  0  0  0  0  0  0  0  0
   -0.5525    1.2340    0.3386 C   0  0  0  0  0  0  0  0  0  0  0  0
   -0.2494   -1.1024   -0.1973 C   0  0  0  0  0  0  0  0  0  0  0  0
   -1.9331    1.0852    0.2070 C   0  0  0  0  0  0  0  0  0  0  0  0
   -1.6302   -1.2511   -0.3290 C   0  0  0  0  0  0  0  0  0  0  0  0
   -2.4719   -0.1573   -0.1268 C   0  0  0  0  0  0  0  0  0  0  0  0
    1.9882    1.0448    1.0500 H   0  0  0  0  0  0  0  0  0  0  0  0
    2.0656    1.6370   -1.4208 H   0  0  0  0  0  0  0  0  0  0  0  0
    2.3092   -0.0814   -1.7983 H   0  0  0  0  0  0  0  0  0  0  0  0
    3.5335    0.7889   -0.8837 H   0  0  0  0  0  0  0  0  0  0  0  0
   -0.1448    2.2077    0.5971 H   0  0  0  0  0  0  0  0  0  0  0  0
    0.3824   -1.9684   -0.3745 H   0  0  0  0  0  0  0  0  0  0  0  0
   -2.5886    1.9369    0.3636 H   0  0  0  0  0  0  0  0  0  0  0  0
   -2.0500   -2.2176   -0.5922 H   0  0  0  0  0  0  0  0  0  0  0  0
   -3.5468   -0.2730   -0.2304 H   0  0  0  0  0  0  0  0  0  0  0  0
    3.2842   -0.7985    0.8458 H   0  0  0  0  0  0  0  0  0  0  0  0
  1  2  1  0  0  0  0
  1 19  1  0  0  0  0
  2  3  1  0  0  0  0
  2  4  1  0  0  0  0
  2 10  1  0  0  0  0
  3  5  2  0  0  0  0
  3  6  1  0  0  0  0
  4 11  1  0  0  0  0
  4 12  1  0  0  0  0
  4 13  1  0  0  0  0
  5  7  1  0  0  0  0
  5 14  1  0  0  0  0
  6  8  2  0  0  0  0
  6 15  1  0  0  0  0
  7  9  2  0  0  0  0
  7 16  1  0  0  0  0
  8  9  1  0  0  0  0
  8 17  1  0  0  0  0
  9 18  1  0  0  0  0
M  END
> <PUBCHEM_COMPOUND_CID>
443135

> <PUBCHEM_CONFORMER_RMSD>
0.4

> <PUBCHEM_CONFORMER_DIVERSEORDER>
1
2
3

> <PUBCHEM_MMFF94_PARTIAL_CHARGES>
14
1 -0.68
14 0.15
15 0.15
16 0.15
17 0.15
18 0.15
19 0.4
2 0.42
3 -0.14
5 -0.15
6 -0.15
7 -0.15
8 -0.15
9 -0.15

> <PUBCHEM_EFFECTIVE_ROTOR_COUNT>
1

> <PUBCHEM_PHARMACOPHORE_FEATURES>
3
1 1 acceptor
1 1 donor
6 3 5 6 7 8 9 rings

> <PUBCHEM_HEAVY_ATOM_COUNT>
9

> <PUBCHEM_ATOM_DEF_STEREO_COUNT>
1

> <PUBCHEM_ATOM_UDEF_STEREO_COUNT>
0

> <PUBCHEM_BOND_DEF_STEREO_COUNT>
0

> <PUBCHEM_BOND_UDEF_STEREO_COUNT>
0

> <PUBCHEM_ISOTOPIC_ATOM_COUNT>
0

> <PUBCHEM_COMPONENT_COUNT>
1

> <PUBCHEM_CACTVS_TAUTO_COUNT>
1

> <PUBCHEM_CONFORMER_ID>
0006C2FF00000001

> <PUBCHEM_MMFF94_ENERGY>
20.7066

> <PUBCHEM_FEATURE_SELFOVERLAP>
15.223

> <PUBCHEM_SHAPE_FINGERPRINT>
12897270 3 18337384938009301804
15310529 11 17703789206435028317
16714656 1 18334289847168395157
16945 1 18187365432721908113
18185500 45 18341055116254353994
20645464 45 17313396607966526810
21040471 1 18189615114974408625
23552423 10 18343021133329210738
2748010 2 17902522484539375303
29004967 10 16056881333798590220
369184 2 18260277342783360059
5084963 1 18201445821281546464

> <PUBCHEM_SHAPE_MULTIPOLES>
179.35
3.58
1.38
0.82
0.92
0.05
0.08
-0.06
0.35
-0.39
-0.04
0.39
-0.01
-0.43

> <PUBCHEM_SHAPE_SELFOVERLAP>
366.046

> <PUBCHEM_SHAPE_VOLUME>
104.5

> <PUBCHEM_COORDINATE_TYPE>
2
5
10

$$$$

