5462447
  -OEChem-07051212583D

 46 49  0     1  0  0  0  0  0999 V2000
   -4.8570    0.1095   -0.0900 O   0  0  0  0  0  0  0  0  0  0  0  0
    1.2790    1.8072    0.6330 N   0  0  1  0  0  0  0  0  0  0  0  0
   -2.7581   -0.4674   -0.8266 N   0  0  0  0  0  0  0  0  0  0  0  0
    0.7771    0.4445    0.2705 C   0  0  1  0  0  0  0  0  0  0  0  0
    1.4222   -0.0040   -1.0796 C   0  0  2  0  0  0  0  0  0  0  0  0
    0.8700   -1.3853   -1.4661 C   0  0  1  0  0  0  0  0  0  0  0  0
    1.1653   -0.5949    1.3801 C   0  0  0  0  0  0  0  0  0  0  0  0
    0.7399   -2.0412    1.0409 C   0  0  1  0  0  0  0  0  0  0  0  0
    1.1569   -2.4455   -0.3826 C   0  0  0  0  0  0  0  0  0  0  0  0
   -0.7674    0.3666    0.1746 C   0  0  0  0  0  0  0  0  0  0  0  0
    2.9590    0.0412   -1.0456 C   0  0  0  0  0  0  0  0  0  0  0  0
   -0.6371   -1.2296   -1.7648 C   0  0  0  0  0  0  0  0  0  0  0  0
   -1.3847   -0.3696   -0.7747 C   0  0  0  0  0  0  0  0  0  0  0  0
    3.4493    1.4133   -0.5956 C   0  0  0  0  0  0  0  0  0  0  0  0
    2.7526    1.8812    0.6843 C   0  0  0  0  0  0  0  0  0  0  0  0
   -1.6067    0.9908    1.2685 C   0  0  0  0  0  0  0  0  0  0  0  0
    1.3122   -3.0224    2.0665 C   0  0  0  0  0  0  0  0  0  0  0  0
    0.7682    2.8896   -0.2234 C   0  0  0  0  0  0  0  0  0  0  0  0
   -3.0038    1.3530    0.7830 C   0  0  0  0  0  0  0  0  0  0  0  0
   -3.6368    0.2632   -0.0521 C   0  0  0  0  0  0  0  0  0  0  0  0
    1.1156    0.6909   -1.8758 H   0  0  0  0  0  0  0  0  0  0  0  0
    1.3523   -1.7258   -2.3921 H   0  0  0  0  0  0  0  0  0  0  0  0
    0.7208   -0.3060    2.3424 H   0  0  0  0  0  0  0  0  0  0  0  0
    2.2465   -0.6038    1.5539 H   0  0  0  0  0  0  0  0  0  0  0  0
   -0.3513   -2.1190    1.1176 H   0  0  0  0  0  0  0  0  0  0  0  0
    0.6604   -3.3869   -0.6512 H   0  0  0  0  0  0  0  0  0  0  0  0
    2.2313   -2.6691   -0.3926 H   0  0  0  0  0  0  0  0  0  0  0  0
    3.3597   -0.1792   -2.0423 H   0  0  0  0  0  0  0  0  0  0  0  0
    3.3714   -0.7198   -0.3755 H   0  0  0  0  0  0  0  0  0  0  0  0
   -1.0958   -2.2249   -1.8234 H   0  0  0  0  0  0  0  0  0  0  0  0
   -0.7528   -0.7732   -2.7571 H   0  0  0  0  0  0  0  0  0  0  0  0
    4.5327    1.3794   -0.4319 H   0  0  0  0  0  0  0  0  0  0  0  0
    3.2823    2.1399   -1.3998 H   0  0  0  0  0  0  0  0  0  0  0  0
    3.1218    1.2989    1.5356 H   0  0  0  0  0  0  0  0  0  0  0  0
    3.0676    2.9086    0.9094 H   0  0  0  0  0  0  0  0  0  0  0  0
   -1.6808    0.2726    2.0951 H   0  0  0  0  0  0  0  0  0  0  0  0
   -1.1418    1.8910    1.6809 H   0  0  0  0  0  0  0  0  0  0  0  0
    0.9790   -4.0436    1.8534 H   0  0  0  0  0  0  0  0  0  0  0  0
    2.4074   -3.0150    2.0587 H   0  0  0  0  0  0  0  0  0  0  0  0
    0.9789   -2.7643    3.0772 H   0  0  0  0  0  0  0  0  0  0  0  0
    1.1111    3.8596    0.1559 H   0  0  0  0  0  0  0  0  0  0  0  0
   -0.3236    2.9460   -0.2158 H   0  0  0  0  0  0  0  0  0  0  0  0
    1.0884    2.8096   -1.2663 H   0  0  0  0  0  0  0  0  0  0  0  0
   -3.1525   -1.1374   -1.4811 H   0  0  0  0  0  0  0  0  0  0  0  0
   -2.9659    2.2578    0.1642 H   0  0  0  0  0  0  0  0  0  0  0  0
   -3.6504    1.5612    1.6424 H   0  0  0  0  0  0  0  0  0  0  0  0
  1 20  2  0  0  0  0
  2  4  1  0  0  0  0
  2 15  1  0  0  0  0
  2 18  1  0  0  0  0
  3 13  1  0  0  0  0
  3 20  1  0  0  0  0
  3 44  1  0  0  0  0
  4  5  1  0  0  0  0
  4  7  1  0  0  0  0
  4 10  1  0  0  0  0
  5  6  1  0  0  0  0
  5 11  1  0  0  0  0
  5 21  1  0  0  0  0
  6  9  1  0  0  0  0
  6 12  1  0  0  0  0
  6 22  1  0  0  0  0
  7  8  1  0  0  0  0
  7 23  1  0  0  0  0
  7 24  1  0  0  0  0
  8  9  1  0  0  0  0
  8 17  1  0  0  0  0
  8 25  1  0  0  0  0
  9 26  1  0  0  0  0
  9 27  1  0  0  0  0
 10 13  2  0  0  0  0
 10 16  1  0  0  0  0
 11 14  1  0  0  0  0
 11 28  1  0  0  0  0
 11 29  1  0  0  0  0
 12 13  1  0  0  0  0
 12 30  1  0  0  0  0
 12 31  1  0  0  0  0
 14 15  1  0  0  0  0
 14 32  1  0  0  0  0
 14 33  1  0  0  0  0
 15 34  1  0  0  0  0
 15 35  1  0  0  0  0
 16 19  1  0  0  0  0
 16 36  1  0  0  0  0
 16 37  1  0  0  0  0
 17 38  1  0  0  0  0
 17 39  1  0  0  0  0
 17 40  1  0  0  0  0
 18 41  1  0  0  0  0
 18 42  1  0  0  0  0
 18 43  1  0  0  0  0
 19 20  1  0  0  0  0
 19 45  1  0  0  0  0
 19 46  1  0  0  0  0
M  END
> <PUBCHEM_COMPOUND_CID>
5462447

> <PUBCHEM_CONFORMER_RMSD>
0.6

> <PUBCHEM_CONFORMER_DIVERSEORDER>
1
2

> <PUBCHEM_MMFF94_PARTIAL_CHARGES>
13
1 -0.57
10 -0.28
12 0.14
13 -0.03
15 0.27
16 0.14
18 0.27
19 0.06
2 -0.81
20 0.57
3 -0.54
4 0.41
44 0.37

> <PUBCHEM_EFFECTIVE_ROTOR_COUNT>
2.2

> <PUBCHEM_PHARMACOPHORE_FEATURES>
7
1 1 acceptor
1 2 cation
1 3 donor
6 2 4 5 11 14 15 rings
6 3 10 13 16 19 20 rings
6 4 5 6 10 12 13 rings
6 4 5 6 7 8 9 rings

> <PUBCHEM_HEAVY_ATOM_COUNT>
20

> <PUBCHEM_ATOM_DEF_STEREO_COUNT>
4

> <PUBCHEM_ATOM_UDEF_STEREO_COUNT>
0

> <PUBCHEM_BOND_DEF_STEREO_COUNT>
0

> <PUBCHEM_BOND_UDEF_STEREO_COUNT>
0

> <PUBCHEM_ISOTOPIC_ATOM_COUNT>
0

> <PUBCHEM_COMPONENT_COUNT>
1

> <PUBCHEM_CACTVS_TAUTO_COUNT>
2

> <PUBCHEM_CONFORMER_ID>
005359AF00000001

> <PUBCHEM_MMFF94_ENERGY>
48.5245

> <PUBCHEM_FEATURE_SELFOVERLAP>
37.145

> <PUBCHEM_SHAPE_FINGERPRINT>
10382601 240 18265600142966772041
10863032 1 18340480080453184134
10948715 1 18337106761572749132
10967382 1 18040428880392186669
11578080 2 17344070933402691188
12326174 3 18341048613747792386
12423570 1 14178406301395695910
12491281 212 17896021188143198020
12532896 13 18124602985515614616
12592029 89 18341615897349589481
12644460 14 18261661675705479659
13009979 54 16881022619487593227
13464514 151 18338783632589973840
13583140 156 18273224097318270629
14142880 1 16759732850402066005
144361 1 17749381598373281766
14787075 74 17546170701605834207
14817 1 15580968622274976194
15848702 105 17968375628618741007
15852999 172 17203319001341241891
15906896 17 17763747585579427330
16945 1 17749661905403614334
1813 80 17979078511407359810
19765921 60 18339084787127738944
20559304 39 18187932845220294059
20600515 1 17328880201196869144
20645476 183 17983288236307620732
20905425 154 18192708075627795436
21421861 104 17911228730729463552
21524375 3 18337106770120589628
22112679 90 18044657739546207226
231179 274 18412832378067367029
23419403 2 17691071164148297506
23493267 7 18260265214228596431
23558518 356 17690853258739474076
23559900 14 17823979150830231559
25 1 18410569557314566788
2748010 2 17535184445497153932
298252 57 17968089777297287150
3060560 45 18333733498416418205
3759504 43 18057313990756116316
394222 165 18335708225689563611
404807 14 15943123860310488486
404807 78 16910338546703020591
427121 178 17988634177784755651
430814 3 18261683557967766622
4340502 62 18201715133665450403
474 4 18339637832860708644
528886 8 17822007588536110956
7364860 26 18260829340522775111
81228 2 17264976087174509930
81539 233 18413390921246978045
8272917 22 18271527589172764617
84936 31 17774733059592544850
9981440 41 17176605056733385376
9999458 23 18343016645130409509

> <PUBCHEM_SHAPE_MULTIPOLES>
395.76
5.21
2.84
1.62
5.45
0.58
0.14
-2.08
-0.38
-2.06
1.03
-0.43
0.97
-0.7

> <PUBCHEM_SHAPE_SELFOVERLAP>
849.008

> <PUBCHEM_SHAPE_VOLUME>
215

> <PUBCHEM_COORDINATE_TYPE>
2
5
10

$$$$

