445948
  -OEChem-07051213112D

 21 21  0     1  0  0  0  0  0999 V2000
    4.2690   -1.6550    0.0000 O   0  0  0  0  0  0  0  0  0  0  0  0
    6.0010    0.3450    0.0000 O   0  0  0  0  0  0  0  0  0  0  0  0
    4.2690    1.3450    0.0000 O   0  0  0  0  0  0  0  0  0  0  0  0
    2.5369    0.3450    0.0000 O   0  0  0  0  0  0  0  0  0  0  0  0
    2.5369   -1.6550    0.0000 O   0  0  0  0  0  0  0  0  0  0  0  0
    5.1350   -0.1550    0.0000 C   0  0  1  0  0  0  0  0  0  0  0  0
    4.2690    0.3450    0.0000 C   0  0  2  0  0  0  0  0  0  0  0  0
    5.1350   -1.1550    0.0000 C   0  0  2  0  0  0  0  0  0  0  0  0
    3.4030   -0.1550    0.0000 C   0  0  1  0  0  0  0  0  0  0  0  0
    3.4030   -1.1550    0.0000 C   0  0  0  0  0  0  0  0  0  0  0  0
    6.0010   -1.6550    0.0000 C   0  0  0  0  0  0  0  0  0  0  0  0
    5.1350    0.4650    0.0000 H   0  0  0  0  0  0  0  0  0  0  0  0
    4.8059    0.6550    0.0000 H   0  0  0  0  0  0  0  0  0  0  0  0
    5.1350   -1.7750    0.0000 H   0  0  0  0  0  0  0  0  0  0  0  0
    3.4030    0.4650    0.0000 H   0  0  0  0  0  0  0  0  0  0  0  0
    5.6910   -2.1919    0.0000 H   0  0  0  0  0  0  0  0  0  0  0  0
    6.5380   -1.9650    0.0000 H   0  0  0  0  0  0  0  0  0  0  0  0
    6.3110   -1.1181    0.0000 H   0  0  0  0  0  0  0  0  0  0  0  0
    6.5380    0.0350    0.0000 H   0  0  0  0  0  0  0  0  0  0  0  0
    4.8059    1.6550    0.0000 H   0  0  0  0  0  0  0  0  0  0  0  0
    2.0000    0.0350    0.0000 H   0  0  0  0  0  0  0  0  0  0  0  0
  1  8  1  0  0  0  0
  1 10  1  0  0  0  0
  6  2  1  6  0  0  0
  2 19  1  0  0  0  0
  7  3  1  6  0  0  0
  3 20  1  0  0  0  0
  9  4  1  1  0  0  0
  4 21  1  0  0  0  0
  5 10  2  0  0  0  0
  6  7  1  0  0  0  0
  6  8  1  0  0  0  0
  6 12  1  0  0  0  0
  7  9  1  0  0  0  0
  7 13  1  0  0  0  0
  8 11  1  6  0  0  0
  8 14  1  0  0  0  0
  9 10  1  0  0  0  0
  9 15  1  0  0  0  0
 11 16  1  0  0  0  0
 11 17  1  0  0  0  0
 11 18  1  0  0  0  0
M  END
> <PUBCHEM_COMPOUND_CID>
445948

> <PUBCHEM_COMPOUND_CANONICALIZED>
1

> <PUBCHEM_CACTVS_COMPLEXITY>
168

> <PUBCHEM_CACTVS_HBOND_ACCEPTOR>
5

> <PUBCHEM_CACTVS_HBOND_DONOR>
3

> <PUBCHEM_CACTVS_ROTATABLE_BOND>
0

> <PUBCHEM_CACTVS_SUBSKEYS>
AAADccBgOAAAAAAAAAAAAAAAAAAAAAAAAAAkAAAAAAAAAAAAAAAAGgAACAAACBSggAICCAAABgAIAACQCAIAAAAAAAAAAAFAAAABEBYAAAACQAAFIAADAAHKTABAAAAAAAAAAAAAAAAAAAAAAAAAAAAAAA==

> <PUBCHEM_IUPAC_OPENEYE_NAME>
(3S,4R,5S,6S)-3,4,5-trihydroxy-6-methyl-tetrahydropyran-2-one

> <PUBCHEM_IUPAC_CAS_NAME>
(3S,4R,5S,6S)-3,4,5-trihydroxy-6-methyl-2-oxanone

> <PUBCHEM_IUPAC_NAME>
(3S,4R,5S,6S)-3,4,5-trihydroxy-6-methyloxan-2-one

> <PUBCHEM_IUPAC_SYSTEMATIC_NAME>
(3S,4R,5S,6S)-6-methyl-3,4,5-tris(oxidanyl)oxan-2-one

> <PUBCHEM_IUPAC_TRADITIONAL_NAME>
(3S,4R,5S,6S)-3,4,5-trihydroxy-6-methyl-tetrahydropyran-2-one

> <PUBCHEM_IUPAC_INCHI>
InChI=1S/C6H10O5/c1-2-3(7)4(8)5(9)6(10)11-2/h2-5,7-9H,1H3/t2-,3+,4+,5-/m0/s1

> <PUBCHEM_IUPAC_INCHIKEY>
ZVAHHEYPLKVJSO-RSJOWCBRSA-N

> <PUBCHEM_XLOGP3_AA>
-1.5

> <PUBCHEM_EXACT_MASS>
162.052823

> <PUBCHEM_MOLECULAR_FORMULA>
C6H10O5

> <PUBCHEM_MOLECULAR_WEIGHT>
162.1406

> <PUBCHEM_OPENEYE_CAN_SMILES>
CC1C(C(C(C(=O)O1)O)O)O

> <PUBCHEM_OPENEYE_ISO_SMILES>
C[C@H]1[C@H]([C@H]([C@@H](C(=O)O1)O)O)O

> <PUBCHEM_CACTVS_TPSA>
87

> <PUBCHEM_MONOISOTOPIC_WEIGHT>
162.052823

> <PUBCHEM_TOTAL_CHARGE>
0

> <PUBCHEM_HEAVY_ATOM_COUNT>
11

> <PUBCHEM_ATOM_DEF_STEREO_COUNT>
4

> <PUBCHEM_ATOM_UDEF_STEREO_COUNT>
0

> <PUBCHEM_BOND_DEF_STEREO_COUNT>
0

> <PUBCHEM_BOND_UDEF_STEREO_COUNT>
0

> <PUBCHEM_ISOTOPIC_ATOM_COUNT>
0

> <PUBCHEM_COMPONENT_COUNT>
1

> <PUBCHEM_CACTVS_TAUTO_COUNT>
8

> <PUBCHEM_COORDINATE_TYPE>
1
5
255

> <PUBCHEM_BONDANNOTATIONS>
6  2  6
7  3  6
9  4  5
8  11  6

$$$$

