137547
  -OEChem-07051212513D

 10  9  0     0  0  0  0  0  0999 V2000
    2.2293    0.4646    0.0306 O   0  0  0  0  0  0  0  0  0  0  0  0
    0.8113   -1.3110   -0.0176 O   0  0  0  0  0  0  0  0  0  0  0  0
   -0.1089    0.9194   -0.0337 C   0  0  0  0  0  0  0  0  0  0  0  0
    0.9961   -0.1008   -0.0010 C   0  0  0  0  0  0  0  0  0  0  0  0
   -1.4240    0.2760   -0.0021 C   0  0  0  0  0  0  0  0  0  0  0  0
   -2.5038   -0.2482    0.0238 C   0  0  0  0  0  0  0  0  0  0  0  0
   -0.0031    1.5128   -0.9476 H   0  0  0  0  0  0  0  0  0  0  0  0
    0.0032    1.5780    0.8338 H   0  0  0  0  0  0  0  0  0  0  0  0
    2.9411   -0.2103    0.0434 H   0  0  0  0  0  0  0  0  0  0  0  0
   -3.4614   -0.7136    0.0467 H   0  0  0  0  0  0  0  0  0  0  0  0
  1  4  1  0  0  0  0
  1  9  1  0  0  0  0
  2  4  2  0  0  0  0
  3  4  1  0  0  0  0
  3  5  1  0  0  0  0
  3  7  1  0  0  0  0
  3  8  1  0  0  0  0
  5  6  3  0  0  0  0
  6 10  1  0  0  0  0
M  END
> <PUBCHEM_COMPOUND_CID>
137547

> <PUBCHEM_CONFORMER_RMSD>
0.4

> <PUBCHEM_CONFORMER_DIVERSEORDER>
1
3
2

> <PUBCHEM_MMFF94_PARTIAL_CHARGES>
8
1 -0.65
10 0.18
2 -0.57
3 0.26
4 0.66
5 -0.2
6 -0.18
9 0.5

> <PUBCHEM_EFFECTIVE_ROTOR_COUNT>
1

> <PUBCHEM_PHARMACOPHORE_FEATURES>
4
1 1 acceptor
1 2 acceptor
1 6 hydrophobe
3 1 2 4 anion

> <PUBCHEM_HEAVY_ATOM_COUNT>
6

> <PUBCHEM_ATOM_DEF_STEREO_COUNT>
0

> <PUBCHEM_ATOM_UDEF_STEREO_COUNT>
0

> <PUBCHEM_BOND_DEF_STEREO_COUNT>
0

> <PUBCHEM_BOND_UDEF_STEREO_COUNT>
0

> <PUBCHEM_ISOTOPIC_ATOM_COUNT>
0

> <PUBCHEM_COMPONENT_COUNT>
1

> <PUBCHEM_CACTVS_TAUTO_COUNT>
1

> <PUBCHEM_CONFORMER_ID>
0002194B00000001

> <PUBCHEM_MMFF94_ENERGY>
2.7652

> <PUBCHEM_FEATURE_SELFOVERLAP>
20.355

> <PUBCHEM_SHAPE_FINGERPRINT>
139733 1 9151164355459099693
16714656 1 18408882902018995716
20096714 4 18334296426905402704
21040471 1 18338516335447759918
24536 1 18120388793390027393
29004967 10 18343577443378944833
5460574 1 9223236243132351457

> <PUBCHEM_SHAPE_MULTIPOLES>
111.74
3.01
1.02
0.58
0.71
0.15
0
0.1
0.04
-0.2
-0.01
0.05
-0.02
0.01

> <PUBCHEM_SHAPE_SELFOVERLAP>
206.047

> <PUBCHEM_SHAPE_VOLUME>
69.8

> <PUBCHEM_COORDINATE_TYPE>
2
5
10

$$$$

