442076
  -OEChem-07051212562D

 61 63  0     1  0  0  0  0  0999 V2000
    3.7749    0.5408    0.0000 O   0  0  0  0  0  0  0  0  0  0  0  0
    7.1211   -2.0016    0.0000 O   0  0  0  0  0  0  0  0  0  0  0  0
    2.0000   -2.5649    0.0000 O   0  0  0  0  0  0  0  0  0  0  0  0
    5.2582    1.4352    0.0000 O   0  0  0  0  0  0  0  0  0  0  0  0
    4.2255    3.1480    0.0000 O   0  0  0  0  0  0  0  0  0  0  0  0
    4.5816   -2.6040    0.0000 C   0  0  1  0  0  0  0  0  0  0  0  0
    3.7155   -2.1040    0.0000 C   0  0  2  0  0  0  0  0  0  0  0  0
    3.7155   -1.1040    0.0000 C   0  0  1  0  0  0  0  0  0  0  0  0
    5.5523   -2.4996    0.0000 C   0  0  2  0  0  0  0  0  0  0  0  0
    4.5816   -0.6040    0.0000 C   0  0  3  0  0  0  0  0  0  0  0  0
    5.4476   -2.1040    0.0000 C   0  0  0  0  0  0  0  0  0  0  0  0
    4.3723   -3.5758    0.0000 C   0  0  0  0  0  0  0  0  0  0  0  0
    4.2913   -0.3155    0.0000 C   0  0  1  0  0  0  0  0  0  0  0  0
    5.4476   -1.1040    0.0000 C   0  0  0  0  0  0  0  0  0  0  0  0
    2.9785   -2.7711    0.0000 C   0  0  0  0  0  0  0  0  0  0  0  0
    6.1577   -1.7336    0.0000 C   0  0  1  0  0  0  0  0  0  0  0  0
    3.3836   -3.6789    0.0000 C   0  0  0  0  0  0  0  0  0  0  0  0
    6.0348   -0.7650    0.0000 C   0  0  2  0  0  0  0  0  0  0  0  0
    5.2574   -0.1743    0.0000 C   0  0  0  0  0  0  0  0  0  0  0  0
    2.7648   -0.7939    0.0000 C   0  0  0  0  0  0  0  0  0  0  0  0
    6.0358   -3.3750    0.0000 C   0  0  0  0  0  0  0  0  0  0  0  0
    4.5816    0.3960    0.0000 C   0  0  0  0  0  0  0  0  0  0  0  0
    7.0263   -0.6344    0.0000 C   0  0  0  0  0  0  0  0  0  0  0  0
    6.6436    0.0284    0.0000 C   0  0  0  0  0  0  0  0  0  0  0  0
    4.2584    1.4162    0.0000 C   0  0  0  0  0  0  0  0  0  0  0  0
    6.2609    0.9523    0.0000 C   0  0  0  0  0  0  0  0  0  0  0  0
    3.7420    2.2726    0.0000 C   0  0  0  0  0  0  0  0  0  0  0  0
    2.9794   -1.6790    0.0000 H   0  0  0  0  0  0  0  0  0  0  0  0
    6.1702   -2.5505    0.0000 H   0  0  0  0  0  0  0  0  0  0  0  0
    5.3177   -0.1790    0.0000 H   0  0  0  0  0  0  0  0  0  0  0  0
    5.6596   -2.6866    0.0000 H   0  0  0  0  0  0  0  0  0  0  0  0
    6.0582   -1.9964    0.0000 H   0  0  0  0  0  0  0  0  0  0  0  0
    4.3714   -4.1958    0.0000 H   0  0  0  0  0  0  0  0  0  0  0  0
    4.9888   -3.6419    0.0000 H   0  0  0  0  0  0  0  0  0  0  0  0
    3.6719   -0.2882    0.0000 H   0  0  0  0  0  0  0  0  0  0  0  0
    6.0582   -1.2117    0.0000 H   0  0  0  0  0  0  0  0  0  0  0  0
    5.6596   -0.5214    0.0000 H   0  0  0  0  0  0  0  0  0  0  0  0
    6.3500   -2.3230    0.0000 H   0  0  0  0  0  0  0  0  0  0  0  0
    2.7940   -3.8707    0.0000 H   0  0  0  0  0  0  0  0  0  0  0  0
    3.5124   -4.2854    0.0000 H   0  0  0  0  0  0  0  0  0  0  0  0
    5.7463    0.2070    0.0000 H   0  0  0  0  0  0  0  0  0  0  0  0
    5.0138    0.3959    0.0000 H   0  0  0  0  0  0  0  0  0  0  0  0
    2.9571   -0.2044    0.0000 H   0  0  0  0  0  0  0  0  0  0  0  0
    2.1754   -0.6016    0.0000 H   0  0  0  0  0  0  0  0  0  0  0  0
    2.5725   -1.3833    0.0000 H   0  0  0  0  0  0  0  0  0  0  0  0
    5.4930   -3.6748    0.0000 H   0  0  0  0  0  0  0  0  0  0  0  0
    6.3355   -3.9178    0.0000 H   0  0  0  0  0  0  0  0  0  0  0  0
    6.5785   -3.0753    0.0000 H   0  0  0  0  0  0  0  0  0  0  0  0
    5.2016    0.3960    0.0000 H   0  0  0  0  0  0  0  0  0  0  0  0
    4.5816    1.0160    0.0000 H   0  0  0  0  0  0  0  0  0  0  0  0
    3.9616    0.3960    0.0000 H   0  0  0  0  0  0  0  0  0  0  0  0
    7.1072   -1.2491    0.0000 H   0  0  0  0  0  0  0  0  0  0  0  0
    7.6410   -0.5535    0.0000 H   0  0  0  0  0  0  0  0  0  0  0  0
    6.9454   -0.0197    0.0000 H   0  0  0  0  0  0  0  0  0  0  0  0
    7.2583   -0.0525    0.0000 H   0  0  0  0  0  0  0  0  0  0  0  0
    7.2759   -2.6020    0.0000 H   0  0  0  0  0  0  0  0  0  0  0  0
    6.6384    1.4441    0.0000 H   0  0  0  0  0  0  0  0  0  0  0  0
    5.6462    1.0332    0.0000 H   0  0  0  0  0  0  0  0  0  0  0  0
    3.2596    2.6620    0.0000 H   0  0  0  0  0  0  0  0  0  0  0  0
    3.2747    1.8651    0.0000 H   0  0  0  0  0  0  0  0  0  0  0  0
    3.9053    3.6789    0.0000 H   0  0  0  0  0  0  0  0  0  0  0  0
 13  1  1  6  0  0  0
  1 25  1  0  0  0  0
 16  2  1  1  0  0  0
  2 56  1  0  0  0  0
  3 15  2  0  0  0  0
  4 25  2  0  0  0  0
  5 27  1  0  0  0  0
  5 61  1  0  0  0  0
  6  7  1  0  0  0  0
  6  9  1  0  0  0  0
  6 11  1  0  0  0  0
  6 12  1  1  0  0  0
  7  8  1  0  0  0  0
  7 15  1  0  0  0  0
  7 28  1  6  0  0  0
  8 10  1  0  0  0  0
  8 13  1  0  0  0  0
  8 20  1  1  0  0  0
  9 16  1  0  0  0  0
  9 21  1  6  0  0  0
  9 29  1  0  0  0  0
 10 14  1  0  0  0  0
 10 22  1  0  0  0  0
 10 30  1  0  0  0  0
 11 14  1  0  0  0  0
 11 31  1  0  0  0  0
 11 32  1  0  0  0  0
 12 17  1  0  0  0  0
 12 33  1  0  0  0  0
 12 34  1  0  0  0  0
 13 19  1  0  0  0  0
 13 35  1  0  0  0  0
 14 36  1  0  0  0  0
 14 37  1  0  0  0  0
 15 17  1  0  0  0  0
 16 18  1  0  0  0  0
 16 38  1  0  0  0  0
 17 39  1  0  0  0  0
 17 40  1  0  0  0  0
 18 19  1  0  0  0  0
 18 23  1  6  0  0  0
 18 24  1  0  0  0  0
 19 41  1  0  0  0  0
 19 42  1  0  0  0  0
 20 43  1  0  0  0  0
 20 44  1  0  0  0  0
 20 45  1  0  0  0  0
 21 46  1  0  0  0  0
 21 47  1  0  0  0  0
 21 48  1  0  0  0  0
 22 49  1  0  0  0  0
 22 50  1  0  0  0  0
 22 51  1  0  0  0  0
 23 52  1  0  0  0  0
 23 53  1  0  0  0  0
 23 54  1  0  0  0  0
 24 26  2  0  0  0  0
 24 55  1  0  0  0  0
 25 27  1  0  0  0  0
 26 57  1  0  0  0  0
 26 58  1  0  0  0  0
 27 59  1  0  0  0  0
 27 60  1  0  0  0  0
M  END
> <PUBCHEM_COMPOUND_CID>
442076

> <PUBCHEM_COMPOUND_CANONICALIZED>
1

> <PUBCHEM_CACTVS_COMPLEXITY>
645

> <PUBCHEM_CACTVS_HBOND_ACCEPTOR>
5

> <PUBCHEM_CACTVS_HBOND_DONOR>
2

> <PUBCHEM_CACTVS_ROTATABLE_BOND>
4

> <PUBCHEM_CACTVS_SUBSKEYS>
AAADcfB4OAAAAAAAAAAAAAAAAAAAAYAAAAAwAAAAAAAYAGDAAAAAGgAACAAADxSggAICCAAABgCIAKDSCAIAAAAgAAAIAAFAAAgBEBIAAAACQAAEwAADAAHKzPDPgAAAAAAAAACAAAQAACAAAAAACAAAAA==

> <PUBCHEM_IUPAC_INCHI>
InChI=1S/C22H34O5/c1-6-20(4)11-16(27-17(25)12-23)21(5)13(2)7-9-22(14(3)19(20)26)10-8-15(24)18(21)22/h6,13-14,16,18-19,23,26H,1,7-12H2,2-5H3/t13?,14-,16+,18-,19-,20+,21-,22-/m0/s1

> <PUBCHEM_IUPAC_INCHIKEY>
ZRZNJUXESFHSIO-ZXVYJXQESA-N

> <PUBCHEM_XLOGP3_AA>
3.5

> <PUBCHEM_EXACT_MASS>
378.240624

> <PUBCHEM_MOLECULAR_FORMULA>
C22H34O5

> <PUBCHEM_MOLECULAR_WEIGHT>
378.50236

> <PUBCHEM_OPENEYE_CAN_SMILES>
CC1CCC23CCC(=O)C2C1(C(CC(C(C3C)O)(C)C=C)OC(=O)CO)C

> <PUBCHEM_OPENEYE_ISO_SMILES>
C[C@H]1[C@@H]([C@](C[C@H]([C@]2([C@H]3[C@@]1(CCC2C)CCC3=O)C)OC(=O)CO)(C)C=C)O

> <PUBCHEM_CACTVS_TPSA>
83.8

> <PUBCHEM_MONOISOTOPIC_WEIGHT>
378.240624

> <PUBCHEM_TOTAL_CHARGE>
0

> <PUBCHEM_HEAVY_ATOM_COUNT>
27

> <PUBCHEM_ATOM_DEF_STEREO_COUNT>
7

> <PUBCHEM_ATOM_UDEF_STEREO_COUNT>
1

> <PUBCHEM_BOND_DEF_STEREO_COUNT>
0

> <PUBCHEM_BOND_UDEF_STEREO_COUNT>
0

> <PUBCHEM_ISOTOPIC_ATOM_COUNT>
0

> <PUBCHEM_COMPONENT_COUNT>
1

> <PUBCHEM_CACTVS_TAUTO_COUNT>
2

> <PUBCHEM_COORDINATE_TYPE>
1
5
255

> <PUBCHEM_BONDANNOTATIONS>
13  1  6
10  30  3
18  23  6
16  2  5
6  12  5
7  28  6
8  20  5
9  21  6

$$$$

