14227
  -OEChem-06241222422D

 76 75  0     0  0  0  0  0  0999 V2000
    8.9282    2.7500    0.0000 N   0  0  0  0  0  0  0  0  0  0  0  0
    9.7942    3.2500    0.0000 C   0  0  0  0  0  0  0  0  0  0  0  0
    8.0622    3.2500    0.0000 C   0  0  0  0  0  0  0  0  0  0  0  0
    8.9282    1.7500    0.0000 C   0  0  0  0  0  0  0  0  0  0  0  0
   10.6603    2.7500    0.0000 C   0  0  0  0  0  0  0  0  0  0  0  0
    7.1962    2.7500    0.0000 C   0  0  0  0  0  0  0  0  0  0  0  0
    8.0622    1.2500    0.0000 C   0  0  0  0  0  0  0  0  0  0  0  0
   11.5263    3.2500    0.0000 C   0  0  0  0  0  0  0  0  0  0  0  0
    6.3301    3.2500    0.0000 C   0  0  0  0  0  0  0  0  0  0  0  0
    8.0622    0.2500    0.0000 C   0  0  0  0  0  0  0  0  0  0  0  0
    7.1962   -0.2500    0.0000 C   0  0  0  0  0  0  0  0  0  0  0  0
    5.4641    2.7500    0.0000 C   0  0  0  0  0  0  0  0  0  0  0  0
   12.3923    2.7500    0.0000 C   0  0  0  0  0  0  0  0  0  0  0  0
   13.2583    3.2500    0.0000 C   0  0  0  0  0  0  0  0  0  0  0  0
    4.5981    3.2500    0.0000 C   0  0  0  0  0  0  0  0  0  0  0  0
    7.1962   -1.2500    0.0000 C   0  0  0  0  0  0  0  0  0  0  0  0
   14.1244    2.7500    0.0000 C   0  0  0  0  0  0  0  0  0  0  0  0
    3.7320    2.7500    0.0000 C   0  0  0  0  0  0  0  0  0  0  0  0
    6.3301   -1.7500    0.0000 C   0  0  0  0  0  0  0  0  0  0  0  0
    6.3301   -2.7500    0.0000 C   0  0  0  0  0  0  0  0  0  0  0  0
    2.8660    3.2500    0.0000 C   0  0  0  0  0  0  0  0  0  0  0  0
   14.9904    3.2500    0.0000 C   0  0  0  0  0  0  0  0  0  0  0  0
   15.8564    2.7500    0.0000 C   0  0  0  0  0  0  0  0  0  0  0  0
    2.0000    2.7500    0.0000 C   0  0  0  0  0  0  0  0  0  0  0  0
    5.4641   -3.2500    0.0000 C   0  0  0  0  0  0  0  0  0  0  0  0
    9.1403    1.1674    0.0000 H   0  0  0  0  0  0  0  0  0  0  0  0
    9.5388    1.8577    0.0000 H   0  0  0  0  0  0  0  0  0  0  0  0
    8.4607    3.7250    0.0000 H   0  0  0  0  0  0  0  0  0  0  0  0
    7.6636    3.7250    0.0000 H   0  0  0  0  0  0  0  0  0  0  0  0
   10.1928    3.7250    0.0000 H   0  0  0  0  0  0  0  0  0  0  0  0
    9.3957    3.7250    0.0000 H   0  0  0  0  0  0  0  0  0  0  0  0
   10.2617    2.2750    0.0000 H   0  0  0  0  0  0  0  0  0  0  0  0
   11.0588    2.2750    0.0000 H   0  0  0  0  0  0  0  0  0  0  0  0
    6.7976    2.2750    0.0000 H   0  0  0  0  0  0  0  0  0  0  0  0
    7.5947    2.2750    0.0000 H   0  0  0  0  0  0  0  0  0  0  0  0
    7.8501    1.8326    0.0000 H   0  0  0  0  0  0  0  0  0  0  0  0
    7.4516    1.1423    0.0000 H   0  0  0  0  0  0  0  0  0  0  0  0
    8.2742   -0.3326    0.0000 H   0  0  0  0  0  0  0  0  0  0  0  0
    8.6728    0.3577    0.0000 H   0  0  0  0  0  0  0  0  0  0  0  0
    6.7287    3.7250    0.0000 H   0  0  0  0  0  0  0  0  0  0  0  0
    5.9316    3.7250    0.0000 H   0  0  0  0  0  0  0  0  0  0  0  0
   11.9248    3.7250    0.0000 H   0  0  0  0  0  0  0  0  0  0  0  0
   11.1278    3.7250    0.0000 H   0  0  0  0  0  0  0  0  0  0  0  0
   11.9938    2.2750    0.0000 H   0  0  0  0  0  0  0  0  0  0  0  0
   12.7908    2.2750    0.0000 H   0  0  0  0  0  0  0  0  0  0  0  0
    5.0656    2.2750    0.0000 H   0  0  0  0  0  0  0  0  0  0  0  0
    5.8626    2.2750    0.0000 H   0  0  0  0  0  0  0  0  0  0  0  0
    6.9841    0.3326    0.0000 H   0  0  0  0  0  0  0  0  0  0  0  0
    6.5856   -0.3577    0.0000 H   0  0  0  0  0  0  0  0  0  0  0  0
    7.4082   -1.8326    0.0000 H   0  0  0  0  0  0  0  0  0  0  0  0
    7.8067   -1.1423    0.0000 H   0  0  0  0  0  0  0  0  0  0  0  0
    4.9966    3.7250    0.0000 H   0  0  0  0  0  0  0  0  0  0  0  0
    4.1996    3.7250    0.0000 H   0  0  0  0  0  0  0  0  0  0  0  0
   13.6569    3.7250    0.0000 H   0  0  0  0  0  0  0  0  0  0  0  0
   12.8598    3.7250    0.0000 H   0  0  0  0  0  0  0  0  0  0  0  0
    6.1181   -1.1674    0.0000 H   0  0  0  0  0  0  0  0  0  0  0  0
    5.7196   -1.8577    0.0000 H   0  0  0  0  0  0  0  0  0  0  0  0
    3.3335    2.2750    0.0000 H   0  0  0  0  0  0  0  0  0  0  0  0
    4.1306    2.2750    0.0000 H   0  0  0  0  0  0  0  0  0  0  0  0
   13.7258    2.2750    0.0000 H   0  0  0  0  0  0  0  0  0  0  0  0
   14.5229    2.2750    0.0000 H   0  0  0  0  0  0  0  0  0  0  0  0
   15.3889    3.7250    0.0000 H   0  0  0  0  0  0  0  0  0  0  0  0
   14.5919    3.7250    0.0000 H   0  0  0  0  0  0  0  0  0  0  0  0
    3.2646    3.7250    0.0000 H   0  0  0  0  0  0  0  0  0  0  0  0
    2.4675    3.7250    0.0000 H   0  0  0  0  0  0  0  0  0  0  0  0
    6.5422   -3.3326    0.0000 H   0  0  0  0  0  0  0  0  0  0  0  0
    6.9407   -2.6423    0.0000 H   0  0  0  0  0  0  0  0  0  0  0  0
    5.1541   -2.7131    0.0000 H   0  0  0  0  0  0  0  0  0  0  0  0
    4.9272   -3.5600    0.0000 H   0  0  0  0  0  0  0  0  0  0  0  0
    5.7741   -3.7869    0.0000 H   0  0  0  0  0  0  0  0  0  0  0  0
    1.6900    3.2869    0.0000 H   0  0  0  0  0  0  0  0  0  0  0  0
    1.4631    2.4400    0.0000 H   0  0  0  0  0  0  0  0  0  0  0  0
    2.3100    2.2131    0.0000 H   0  0  0  0  0  0  0  0  0  0  0  0
   15.5464    2.2131    0.0000 H   0  0  0  0  0  0  0  0  0  0  0  0
   16.3933    2.4400    0.0000 H   0  0  0  0  0  0  0  0  0  0  0  0
   16.1664    3.2869    0.0000 H   0  0  0  0  0  0  0  0  0  0  0  0
  1  2  1  0  0  0  0
  1  3  1  0  0  0  0
  1  4  1  0  0  0  0
  2  5  1  0  0  0  0
  2 30  1  0  0  0  0
  2 31  1  0  0  0  0
  3  6  1  0  0  0  0
  3 28  1  0  0  0  0
  3 29  1  0  0  0  0
  4  7  1  0  0  0  0
  4 26  1  0  0  0  0
  4 27  1  0  0  0  0
  5  8  1  0  0  0  0
  5 32  1  0  0  0  0
  5 33  1  0  0  0  0
  6  9  1  0  0  0  0
  6 34  1  0  0  0  0
  6 35  1  0  0  0  0
  7 10  1  0  0  0  0
  7 36  1  0  0  0  0
  7 37  1  0  0  0  0
  8 13  1  0  0  0  0
  8 42  1  0  0  0  0
  8 43  1  0  0  0  0
  9 12  1  0  0  0  0
  9 40  1  0  0  0  0
  9 41  1  0  0  0  0
 10 11  1  0  0  0  0
 10 38  1  0  0  0  0
 10 39  1  0  0  0  0
 11 16  1  0  0  0  0
 11 48  1  0  0  0  0
 11 49  1  0  0  0  0
 12 15  1  0  0  0  0
 12 46  1  0  0  0  0
 12 47  1  0  0  0  0
 13 14  1  0  0  0  0
 13 44  1  0  0  0  0
 13 45  1  0  0  0  0
 14 17  1  0  0  0  0
 14 54  1  0  0  0  0
 14 55  1  0  0  0  0
 15 18  1  0  0  0  0
 15 52  1  0  0  0  0
 15 53  1  0  0  0  0
 16 19  1  0  0  0  0
 16 50  1  0  0  0  0
 16 51  1  0  0  0  0
 17 22  1  0  0  0  0
 17 60  1  0  0  0  0
 17 61  1  0  0  0  0
 18 21  1  0  0  0  0
 18 58  1  0  0  0  0
 18 59  1  0  0  0  0
 19 20  1  0  0  0  0
 19 56  1  0  0  0  0
 19 57  1  0  0  0  0
 20 25  1  0  0  0  0
 20 66  1  0  0  0  0
 20 67  1  0  0  0  0
 21 24  1  0  0  0  0
 21 64  1  0  0  0  0
 21 65  1  0  0  0  0
 22 23  1  0  0  0  0
 22 62  1  0  0  0  0
 22 63  1  0  0  0  0
 23 74  1  0  0  0  0
 23 75  1  0  0  0  0
 23 76  1  0  0  0  0
 24 71  1  0  0  0  0
 24 72  1  0  0  0  0
 24 73  1  0  0  0  0
 25 68  1  0  0  0  0
 25 69  1  0  0  0  0
 25 70  1  0  0  0  0
M  END
> <PUBCHEM_COMPOUND_CID>
14227

> <PUBCHEM_COMPOUND_CANONICALIZED>
1

> <PUBCHEM_CACTVS_COMPLEXITY>
188

> <PUBCHEM_CACTVS_HBOND_ACCEPTOR>
1

> <PUBCHEM_CACTVS_HBOND_DONOR>
0

> <PUBCHEM_CACTVS_ROTATABLE_BOND>
21

> <PUBCHEM_CACTVS_SUBSKEYS>
AAADcfB6AAAAAAAAAAAAAAAAAAAAAAAAAAAAAAAAAAAAAAAAAAAAHAAAAAAACADBAAQCAAMAAAAAAAAAAAAAAAAAAAAAAAAIAAAAAAIAgAAEAAAAAACAAAEQgIAAAAAAAAAAAAAAAAAAAAAAAAAAAAAAAA==

> <PUBCHEM_IUPAC_OPENEYE_NAME>
N,N-dioctyloctan-1-amine

> <PUBCHEM_IUPAC_CAS_NAME>
N,N-dioctyl-1-octanamine

> <PUBCHEM_IUPAC_NAME>
N,N-dioctyloctan-1-amine

> <PUBCHEM_IUPAC_SYSTEMATIC_NAME>
N,N-dioctyloctan-1-amine

> <PUBCHEM_IUPAC_TRADITIONAL_NAME>
trioctylamine

> <PUBCHEM_IUPAC_INCHI>
InChI=1S/C24H51N/c1-4-7-10-13-16-19-22-25(23-20-17-14-11-8-5-2)24-21-18-15-12-9-6-3/h4-24H2,1-3H3

> <PUBCHEM_IUPAC_INCHIKEY>
XTAZYLNFDRKIHJ-UHFFFAOYSA-N

> <PUBCHEM_XLOGP3_AA>
10.5

> <PUBCHEM_EXACT_MASS>
353.402151

> <PUBCHEM_MOLECULAR_FORMULA>
C24H51N

> <PUBCHEM_MOLECULAR_WEIGHT>
353.66844

> <PUBCHEM_OPENEYE_CAN_SMILES>
CCCCCCCCN(CCCCCCCC)CCCCCCCC

> <PUBCHEM_OPENEYE_ISO_SMILES>
CCCCCCCCN(CCCCCCCC)CCCCCCCC

> <PUBCHEM_CACTVS_TPSA>
3.2

> <PUBCHEM_MONOISOTOPIC_WEIGHT>
353.402151

> <PUBCHEM_TOTAL_CHARGE>
0

> <PUBCHEM_HEAVY_ATOM_COUNT>
25

> <PUBCHEM_ATOM_DEF_STEREO_COUNT>
0

> <PUBCHEM_ATOM_UDEF_STEREO_COUNT>
0

> <PUBCHEM_BOND_DEF_STEREO_COUNT>
0

> <PUBCHEM_BOND_UDEF_STEREO_COUNT>
0

> <PUBCHEM_ISOTOPIC_ATOM_COUNT>
0

> <PUBCHEM_COMPONENT_COUNT>
1

> <PUBCHEM_CACTVS_TAUTO_COUNT>
1

> <PUBCHEM_COORDINATE_TYPE>
1
5
255

$$$$

