13983
  -OEChem-06241222413D

 54 57  0     0  0  0  0  0  0999 V2000
   -2.6018   -1.1770   -1.9363 S   0  0  0  0  0  0  0  0  0  0  0  0
    2.9646   -4.1101    0.5006 O   0  0  0  0  0  0  0  0  0  0  0  0
    1.3930    1.9762   -0.2598 N   0  0  0  0  0  0  0  0  0  0  0  0
    4.2480    2.2121   -0.6495 N   0  0  0  0  0  0  0  0  0  0  0  0
   -1.4419    0.0629    0.6681 N   0  0  0  0  0  0  0  0  0  0  0  0
    2.2290    2.7410    0.6735 C   0  0  0  0  0  0  0  0  0  0  0  0
    1.9794    1.9943   -1.6055 C   0  0  0  0  0  0  0  0  0  0  0  0
    0.0280    2.4982   -0.2813 C   0  0  0  0  0  0  0  0  0  0  0  0
    3.6608    2.1948    0.6959 C   0  0  0  0  0  0  0  0  0  0  0  0
    3.4116    1.4489   -1.5839 C   0  0  0  0  0  0  0  0  0  0  0  0
   -0.6581    2.3639    1.0816 C   0  0  0  0  0  0  0  0  0  0  0  0
   -0.7362    0.9345    1.6164 C   0  0  0  0  0  0  0  0  0  0  0  0
    5.6122    1.6882   -0.6273 C   0  0  0  0  0  0  0  0  0  0  0  0
   -0.7280   -1.0439    0.1430 C   0  0  0  0  0  0  0  0  0  0  0  0
   -2.8031    0.3565    0.4003 C   0  0  0  0  0  0  0  0  0  0  0  0
   -1.1679   -1.7059   -1.0203 C   0  0  0  0  0  0  0  0  0  0  0  0
   -3.4485   -0.1667   -0.7376 C   0  0  0  0  0  0  0  0  0  0  0  0
    0.4275   -1.5555    0.7731 C   0  0  0  0  0  0  0  0  0  0  0  0
   -3.5819    1.1504    1.2705 C   0  0  0  0  0  0  0  0  0  0  0  0
   -0.4601   -2.8077   -1.5328 C   0  0  0  0  0  0  0  0  0  0  0  0
    1.1244   -2.6539    0.2622 C   0  0  0  0  0  0  0  0  0  0  0  0
   -4.8006    0.1218   -0.9944 C   0  0  0  0  0  0  0  0  0  0  0  0
    0.6821   -3.2786   -0.8939 C   0  0  0  0  0  0  0  0  0  0  0  0
   -4.9269    1.4298    1.0130 C   0  0  0  0  0  0  0  0  0  0  0  0
   -5.5359    0.9178   -0.1225 C   0  0  0  0  0  0  0  0  0  0  0  0
    2.3188   -3.1369    0.9375 C   0  0  0  0  0  0  0  0  0  0  0  0
    2.8113   -2.4551    2.2093 C   0  0  0  0  0  0  0  0  0  0  0  0
    1.8622    2.6626    1.7012 H   0  0  0  0  0  0  0  0  0  0  0  0
    2.2436    3.8066    0.4076 H   0  0  0  0  0  0  0  0  0  0  0  0
    1.9773    3.0112   -2.0206 H   0  0  0  0  0  0  0  0  0  0  0  0
    1.3832    1.3653   -2.2778 H   0  0  0  0  0  0  0  0  0  0  0  0
    0.0198    3.5549   -0.5802 H   0  0  0  0  0  0  0  0  0  0  0  0
   -0.5639    1.9627   -1.0334 H   0  0  0  0  0  0  0  0  0  0  0  0
    4.2591    2.8213    1.3687 H   0  0  0  0  0  0  0  0  0  0  0  0
    3.6611    1.1772    1.1102 H   0  0  0  0  0  0  0  0  0  0  0  0
    3.3956    0.3838   -1.3149 H   0  0  0  0  0  0  0  0  0  0  0  0
    3.8244    1.5235   -2.5972 H   0  0  0  0  0  0  0  0  0  0  0  0
   -1.6527    2.8089    0.9778 H   0  0  0  0  0  0  0  0  0  0  0  0
   -0.1734    2.9982    1.8327 H   0  0  0  0  0  0  0  0  0  0  0  0
    0.2964    0.6563    1.8271 H   0  0  0  0  0  0  0  0  0  0  0  0
   -1.2199    0.9091    2.6003 H   0  0  0  0  0  0  0  0  0  0  0  0
    6.2437    2.2887    0.0367 H   0  0  0  0  0  0  0  0  0  0  0  0
    6.0620    1.7450   -1.6248 H   0  0  0  0  0  0  0  0  0  0  0  0
    5.6509    0.6459   -0.2904 H   0  0  0  0  0  0  0  0  0  0  0  0
    0.7592   -1.1465    1.7183 H   0  0  0  0  0  0  0  0  0  0  0  0
   -3.1788    1.5581    2.1932 H   0  0  0  0  0  0  0  0  0  0  0  0
   -0.7926   -3.3115   -2.4383 H   0  0  0  0  0  0  0  0  0  0  0  0
   -5.2966   -0.2725   -1.8791 H   0  0  0  0  0  0  0  0  0  0  0  0
    1.2046   -4.1319   -1.3170 H   0  0  0  0  0  0  0  0  0  0  0  0
   -5.4953    2.0430    1.7062 H   0  0  0  0  0  0  0  0  0  0  0  0
   -6.5802    1.1325   -0.3277 H   0  0  0  0  0  0  0  0  0  0  0  0
    3.7307   -2.9464    2.5438 H   0  0  0  0  0  0  0  0  0  0  0  0
    3.0466   -1.4059    2.0117 H   0  0  0  0  0  0  0  0  0  0  0  0
    2.0682   -2.5542    3.0046 H   0  0  0  0  0  0  0  0  0  0  0  0
  1 16  1  0  0  0  0
  1 17  1  0  0  0  0
  2 26  2  0  0  0  0
  3  6  1  0  0  0  0
  3  7  1  0  0  0  0
  3  8  1  0  0  0  0
  4  9  1  0  0  0  0
  4 10  1  0  0  0  0
  4 13  1  0  0  0  0
  5 12  1  0  0  0  0
  5 14  1  0  0  0  0
  5 15  1  0  0  0  0
  6  9  1  0  0  0  0
  6 28  1  0  0  0  0
  6 29  1  0  0  0  0
  7 10  1  0  0  0  0
  7 30  1  0  0  0  0
  7 31  1  0  0  0  0
  8 11  1  0  0  0  0
  8 32  1  0  0  0  0
  8 33  1  0  0  0  0
  9 34  1  0  0  0  0
  9 35  1  0  0  0  0
 10 36  1  0  0  0  0
 10 37  1  0  0  0  0
 11 12  1  0  0  0  0
 11 38  1  0  0  0  0
 11 39  1  0  0  0  0
 12 40  1  0  0  0  0
 12 41  1  0  0  0  0
 13 42  1  0  0  0  0
 13 43  1  0  0  0  0
 13 44  1  0  0  0  0
 14 16  2  0  0  0  0
 14 18  1  0  0  0  0
 15 17  1  0  0  0  0
 15 19  2  0  0  0  0
 16 20  1  0  0  0  0
 17 22  2  0  0  0  0
 18 21  2  0  0  0  0
 18 45  1  0  0  0  0
 19 24  1  0  0  0  0
 19 46  1  0  0  0  0
 20 23  2  0  0  0  0
 20 47  1  0  0  0  0
 21 23  1  0  0  0  0
 21 26  1  0  0  0  0
 22 25  1  0  0  0  0
 22 48  1  0  0  0  0
 23 49  1  0  0  0  0
 24 25  2  0  0  0  0
 24 50  1  0  0  0  0
 25 51  1  0  0  0  0
 26 27  1  0  0  0  0
 27 52  1  0  0  0  0
 27 53  1  0  0  0  0
 27 54  1  0  0  0  0
M  END
> <PUBCHEM_COMPOUND_CID>
13983

> <PUBCHEM_CONFORMER_RMSD>
0.8

> <PUBCHEM_CONFORMER_DIVERSEORDER>
2
59
31
21
63
11
50
49
65
67
42
4
8
29
1
44
66
23
46
40
22
62
14
32
27
51
25
39
64
15
52
61
17
35
19
60
7
13
57
3
48
16
6
20
45
28
54
47
33
58
9
36
5
18
26
10
37
24
56
34
43
55
12
53
30
38
41

> <PUBCHEM_MMFF94_PARTIAL_CHARGES>
33
1 -0.2
10 0.27
12 0.37
13 0.27
14 0.1
15 0.1
16 0.1
17 0.1
18 -0.15
19 -0.15
2 -0.57
20 -0.15
21 0.09
22 -0.15
23 -0.15
24 -0.15
25 -0.15
26 0.42
27 0.06
3 -0.81
4 -0.81
45 0.15
46 0.15
47 0.15
48 0.15
49 0.15
5 -0.57
50 0.15
51 0.15
6 0.27
7 0.27
8 0.27
9 0.27

> <PUBCHEM_EFFECTIVE_ROTOR_COUNT>
6.6

> <PUBCHEM_PHARMACOPHORE_FEATURES>
8
1 2 acceptor
1 3 cation
1 4 cation
1 5 cation
6 1 5 14 15 16 17 rings
6 14 16 18 20 21 23 rings
6 15 17 19 22 24 25 rings
6 3 4 6 7 9 10 rings

> <PUBCHEM_HEAVY_ATOM_COUNT>
27

> <PUBCHEM_ATOM_DEF_STEREO_COUNT>
0

> <PUBCHEM_ATOM_UDEF_STEREO_COUNT>
0

> <PUBCHEM_BOND_DEF_STEREO_COUNT>
0

> <PUBCHEM_BOND_UDEF_STEREO_COUNT>
0

> <PUBCHEM_ISOTOPIC_ATOM_COUNT>
0

> <PUBCHEM_COMPONENT_COUNT>
1

> <PUBCHEM_CACTVS_TAUTO_COUNT>
2

> <PUBCHEM_CONFORMER_ID>
0000369F00000002

> <PUBCHEM_MMFF94_ENERGY>
86.1746

> <PUBCHEM_FEATURE_SELFOVERLAP>
40.628

> <PUBCHEM_SHAPE_FINGERPRINT>
10190108 129 17979908325412652027
11578080 2 17057485319841492569
12035759 4 18187077377865927533
12156800 1 16010469814145102460
12422481 6 18055940880700027896
12592029 89 18342168921976578441
133893 2 17912897724956145096
14114207 22 18272942635031562662
14840074 17 18270134482344531986
15297060 5 17822011991231608674
15463212 79 18052264990037675597
16120349 306 18338249154554987584
1813 80 18050570934914250467
19591789 44 17615692830615431731
20642791 178 18188777279172870907
21360443 120 18343014468241145756
21421861 104 18119229904082445521
23419403 2 17772764985375962349
25147074 1 18113625603885637991
3187 122 17692263240652429986
3298306 158 18341326704242924513
3411729 13 18342447180033489609
35225 105 17408487708113050918
404807 14 15075882946524622740
445580 44 17478646806173314770
474144 1 18335988656852103435
5265222 85 18198892618608613844
5282940 2 18409736153065008678
5385378 56 18412535535692402937
6287921 2 17825388745679243474
81228 2 16966321194319875083
9709674 26 17536312527226842272
9925002 15 17898322517335371663

> <PUBCHEM_SHAPE_MULTIPOLES>
538.68
9.21
4.68
1.77
2.79
3.45
-0.03
-6.1
-0.82
-5.47
0.41
-0.27
0.41
-2.7

> <PUBCHEM_SHAPE_SELFOVERLAP>
1136.253

> <PUBCHEM_SHAPE_VOLUME>
304

> <PUBCHEM_COORDINATE_TYPE>
2
5
10

$$$$

