17395621
  -OEChem-06241222512D

 45 47  0     0  0  0  0  0  0999 V2000
    8.2839   -5.1069    0.0000 Br  0  0  0  0  0  0  0  0  0  0  0  0
    4.5981    2.7409    0.0000 S   0  0  0  0  0  0  0  0  0  0  0  0
    8.0052   -3.3469    0.0000 S   0  0  0  0  0  0  0  0  0  0  0  0
    5.5981    2.7409    0.0000 O   0  0  0  0  0  0  0  0  0  0  0  0
    3.5981    2.7409    0.0000 O   0  0  0  0  0  0  0  0  0  0  0  0
    2.8660    1.7409    0.0000 O   0  0  0  0  0  0  0  0  0  0  0  0
    7.1962    0.2409    0.0000 O   0  0  0  0  0  0  0  0  0  0  0  0
    4.5981    3.7409    0.0000 N   0  0  0  0  0  0  0  0  0  0  0  0
    6.3301   -1.2591    0.0000 N   0  0  0  0  0  0  0  0  0  0  0  0
    5.4641    4.2409    0.0000 C   0  0  0  0  0  0  0  0  0  0  0  0
    6.4641    4.2409    0.0000 C   0  0  0  0  0  0  0  0  0  0  0  0
    5.9641    5.1069    0.0000 C   0  0  0  0  0  0  0  0  0  0  0  0
    4.5981    1.7409    0.0000 C   0  0  0  0  0  0  0  0  0  0  0  0
    5.4641    1.2409    0.0000 C   0  0  0  0  0  0  0  0  0  0  0  0
    3.7320    1.2409    0.0000 C   0  0  0  0  0  0  0  0  0  0  0  0
    5.4641    0.2409    0.0000 C   0  0  0  0  0  0  0  0  0  0  0  0
    3.7320    0.2409    0.0000 C   0  0  0  0  0  0  0  0  0  0  0  0
    4.5981   -0.2591    0.0000 C   0  0  0  0  0  0  0  0  0  0  0  0
    6.3301   -0.2591    0.0000 C   0  0  0  0  0  0  0  0  0  0  0  0
    7.1962   -1.7591    0.0000 C   0  0  0  0  0  0  0  0  0  0  0  0
    5.4641   -1.7591    0.0000 C   0  0  0  0  0  0  0  0  0  0  0  0
    7.1962   -2.7591    0.0000 C   0  0  0  0  0  0  0  0  0  0  0  0
    2.0000    1.2409    0.0000 C   0  0  0  0  0  0  0  0  0  0  0  0
    6.3871   -3.3469    0.0000 C   0  0  0  0  0  0  0  0  0  0  0  0
    6.6962   -4.2979    0.0000 C   0  0  0  0  0  0  0  0  0  0  0  0
    7.6962   -4.2979    0.0000 C   0  0  0  0  0  0  0  0  0  0  0  0
    5.6246    3.6420    0.0000 H   0  0  0  0  0  0  0  0  0  0  0  0
    6.4390    5.5055    0.0000 H   0  0  0  0  0  0  0  0  0  0  0  0
    5.4892    5.5055    0.0000 H   0  0  0  0  0  0  0  0  0  0  0  0
    6.5718    3.6303    0.0000 H   0  0  0  0  0  0  0  0  0  0  0  0
    7.0467    4.4530    0.0000 H   0  0  0  0  0  0  0  0  0  0  0  0
    4.0611    4.0509    0.0000 H   0  0  0  0  0  0  0  0  0  0  0  0
    6.0010    1.5509    0.0000 H   0  0  0  0  0  0  0  0  0  0  0  0
    3.1951   -0.0691    0.0000 H   0  0  0  0  0  0  0  0  0  0  0  0
    4.5981   -0.8791    0.0000 H   0  0  0  0  0  0  0  0  0  0  0  0
    7.8067   -1.8668    0.0000 H   0  0  0  0  0  0  0  0  0  0  0  0
    7.4082   -1.1765    0.0000 H   0  0  0  0  0  0  0  0  0  0  0  0
    5.1541   -1.2222    0.0000 H   0  0  0  0  0  0  0  0  0  0  0  0
    4.9272   -2.0691    0.0000 H   0  0  0  0  0  0  0  0  0  0  0  0
    5.7741   -2.2960    0.0000 H   0  0  0  0  0  0  0  0  0  0  0  0
    1.6900    1.7778    0.0000 H   0  0  0  0  0  0  0  0  0  0  0  0
    1.4631    0.9309    0.0000 H   0  0  0  0  0  0  0  0  0  0  0  0
    2.3100    0.7040    0.0000 H   0  0  0  0  0  0  0  0  0  0  0  0
    5.7975   -3.1553    0.0000 H   0  0  0  0  0  0  0  0  0  0  0  0
    6.3317   -4.7995    0.0000 H   0  0  0  0  0  0  0  0  0  0  0  0
  1 26  1  0  0  0  0
  2  4  2  0  0  0  0
  2  5  2  0  0  0  0
  2  8  1  0  0  0  0
  2 13  1  0  0  0  0
  3 22  1  0  0  0  0
  3 26  1  0  0  0  0
  6 15  1  0  0  0  0
  6 23  1  0  0  0  0
  7 19  2  0  0  0  0
  8 10  1  0  0  0  0
  8 32  1  0  0  0  0
  9 19  1  0  0  0  0
  9 20  1  0  0  0  0
  9 21  1  0  0  0  0
 10 11  1  0  0  0  0
 10 12  1  0  0  0  0
 10 27  1  0  0  0  0
 11 12  1  0  0  0  0
 11 30  1  0  0  0  0
 11 31  1  0  0  0  0
 12 28  1  0  0  0  0
 12 29  1  0  0  0  0
 13 14  1  0  0  0  0
 13 15  2  0  0  0  0
 14 16  2  0  0  0  0
 14 33  1  0  0  0  0
 15 17  1  0  0  0  0
 16 18  1  0  0  0  0
 16 19  1  0  0  0  0
 17 18  2  0  0  0  0
 17 34  1  0  0  0  0
 18 35  1  0  0  0  0
 20 22  1  0  0  0  0
 20 36  1  0  0  0  0
 20 37  1  0  0  0  0
 21 38  1  0  0  0  0
 21 39  1  0  0  0  0
 21 40  1  0  0  0  0
 22 24  2  0  0  0  0
 23 41  1  0  0  0  0
 23 42  1  0  0  0  0
 23 43  1  0  0  0  0
 24 25  1  0  0  0  0
 24 44  1  0  0  0  0
 25 26  2  0  0  0  0
 25 45  1  0  0  0  0
M  END
> <PUBCHEM_COMPOUND_CID>
17395621

> <PUBCHEM_COMPOUND_CANONICALIZED>
1

> <PUBCHEM_CACTVS_COMPLEXITY>
608

> <PUBCHEM_CACTVS_HBOND_ACCEPTOR>
6

> <PUBCHEM_CACTVS_HBOND_DONOR>
1

> <PUBCHEM_CACTVS_ROTATABLE_BOND>
7

> <PUBCHEM_CACTVS_SUBSKEYS>
AAADceB7OABgEAAAAAAAAAAAGAAAASAAAAAwAAAAAAAAAAABwAAAHgRQQAABLCzB2AYyB4NABAqMAiFSEHDDCJAkKBRIiJsODOgMJjKktRuEMShk1hGoq5eY3ALOIAAAgAAAIABAAAEAAABAAAAAAAAAAA==

> <PUBCHEM_IUPAC_OPENEYE_NAME>
N-[(5-bromo-2-thienyl)methyl]-3-(cyclopropylsulfamoyl)-4-methoxy-N-methyl-benzamide

> <PUBCHEM_IUPAC_CAS_NAME>
N-[(5-bromo-2-thiophenyl)methyl]-3-(cyclopropylsulfamoyl)-4-methoxy-N-methylbenzamide

> <PUBCHEM_IUPAC_NAME>
N-[(5-bromothiophen-2-yl)methyl]-3-(cyclopropylsulfamoyl)-4-methoxy-N-methylbenzamide

> <PUBCHEM_IUPAC_SYSTEMATIC_NAME>
N-[(5-bromanylthiophen-2-yl)methyl]-3-(cyclopropylsulfamoyl)-4-methoxy-N-methyl-benzamide

> <PUBCHEM_IUPAC_TRADITIONAL_NAME>
N-[(5-bromo-2-thienyl)methyl]-3-(cyclopropylsulfamoyl)-4-methoxy-N-methyl-benzamide

> <PUBCHEM_IUPAC_INCHI>
InChI=1S/C17H19BrN2O4S2/c1-20(10-13-6-8-16(18)25-13)17(21)11-3-7-14(24-2)15(9-11)26(22,23)19-12-4-5-12/h3,6-9,12,19H,4-5,10H2,1-2H3

> <PUBCHEM_IUPAC_INCHIKEY>
MXSJSDAVZOSSOF-UHFFFAOYSA-N

> <PUBCHEM_XLOGP3_AA>
3.1

> <PUBCHEM_EXACT_MASS>
457.996961

> <PUBCHEM_MOLECULAR_FORMULA>
C17H19BrN2O4S2

> <PUBCHEM_MOLECULAR_WEIGHT>
459.37776

> <PUBCHEM_OPENEYE_CAN_SMILES>
CN(CC1=CC=C(S1)Br)C(=O)C2=CC(=C(C=C2)OC)S(=O)(=O)NC3CC3

> <PUBCHEM_OPENEYE_ISO_SMILES>
CN(CC1=CC=C(S1)Br)C(=O)C2=CC(=C(C=C2)OC)S(=O)(=O)NC3CC3

> <PUBCHEM_CACTVS_TPSA>
112

> <PUBCHEM_MONOISOTOPIC_WEIGHT>
457.996961

> <PUBCHEM_TOTAL_CHARGE>
0

> <PUBCHEM_HEAVY_ATOM_COUNT>
26

> <PUBCHEM_ATOM_DEF_STEREO_COUNT>
0

> <PUBCHEM_ATOM_UDEF_STEREO_COUNT>
0

> <PUBCHEM_BOND_DEF_STEREO_COUNT>
0

> <PUBCHEM_BOND_UDEF_STEREO_COUNT>
0

> <PUBCHEM_ISOTOPIC_ATOM_COUNT>
0

> <PUBCHEM_COMPONENT_COUNT>
1

> <PUBCHEM_CACTVS_TAUTO_COUNT>
1

> <PUBCHEM_COORDINATE_TYPE>
1
5
255

> <PUBCHEM_BONDANNOTATIONS>
13  14  8
13  15  8
14  16  8
15  17  8
16  18  8
17  18  8
22  24  8
24  25  8
25  26  8
3  22  8
3  26  8

$$$$

