69212
  -OEChem-07051213113D

 16 16  0     0  0  0  0  0  0999 V2000
   -2.3542   -1.4056   -0.0005 O   0  0  0  0  0  0  0  0  0  0  0  0
    2.3066    1.3994   -0.0007 O   0  0  0  0  0  0  0  0  0  0  0  0
    2.3855   -1.2881    0.0018 O   0  0  0  0  0  0  0  0  0  0  0  0
   -1.1848    0.6889    0.0003 C   0  0  0  0  0  0  0  0  0  0  0  0
   -1.1292   -0.7665   -0.0002 C   0  0  0  0  0  0  0  0  0  0  0  0
   -0.0655    1.4308   -0.0001 C   0  0  0  0  0  0  0  0  0  0  0  0
    0.0200   -1.4559   -0.0008 C   0  0  0  0  0  0  0  0  0  0  0  0
   -2.5367    1.3481    0.0011 C   0  0  0  0  0  0  0  0  0  0  0  0
    1.2569    0.7755   -0.0006 C   0  0  0  0  0  0  0  0  0  0  0  0
    1.3014   -0.7266   -0.0003 C   0  0  0  0  0  0  0  0  0  0  0  0
   -0.0861    2.5148    0.0002 H   0  0  0  0  0  0  0  0  0  0  0  0
    0.0500   -2.5390   -0.0012 H   0  0  0  0  0  0  0  0  0  0  0  0
   -3.1066    1.0610    0.8915 H   0  0  0  0  0  0  0  0  0  0  0  0
   -3.1073    1.0618   -0.8891 H   0  0  0  0  0  0  0  0  0  0  0  0
   -2.4604    2.4412    0.0015 H   0  0  0  0  0  0  0  0  0  0  0  0
   -2.1966   -2.3656   -0.0010 H   0  0  0  0  0  0  0  0  0  0  0  0
  1  5  1  0  0  0  0
  1 16  1  0  0  0  0
  2  9  2  0  0  0  0
  3 10  2  0  0  0  0
  4  5  1  0  0  0  0
  4  6  2  0  0  0  0
  4  8  1  0  0  0  0
  5  7  2  0  0  0  0
  6  9  1  0  0  0  0
  6 11  1  0  0  0  0
  7 10  1  0  0  0  0
  7 12  1  0  0  0  0
  8 13  1  0  0  0  0
  8 14  1  0  0  0  0
  8 15  1  0  0  0  0
  9 10  1  0  0  0  0
M  END
> <PUBCHEM_COMPOUND_CID>
69212

> <PUBCHEM_CONFORMER_RMSD>
0.4

> <PUBCHEM_CONFORMER_DIVERSEORDER>
1

> <PUBCHEM_MMFF94_PARTIAL_CHARGES>
13
1 -0.53
10 0.56
11 0.15
12 0.15
16 0.45
2 -0.57
3 -0.57
4 -0.14
5 0.08
6 -0.14
7 -0.14
8 0.14
9 0.56

> <PUBCHEM_EFFECTIVE_ROTOR_COUNT>
0

> <PUBCHEM_PHARMACOPHORE_FEATURES>
4
1 1 donor
1 2 acceptor
1 3 acceptor
6 4 5 6 7 9 10 rings

> <PUBCHEM_HEAVY_ATOM_COUNT>
10

> <PUBCHEM_ATOM_DEF_STEREO_COUNT>
0

> <PUBCHEM_ATOM_UDEF_STEREO_COUNT>
0

> <PUBCHEM_BOND_DEF_STEREO_COUNT>
0

> <PUBCHEM_BOND_UDEF_STEREO_COUNT>
0

> <PUBCHEM_ISOTOPIC_ATOM_COUNT>
0

> <PUBCHEM_COMPONENT_COUNT>
1

> <PUBCHEM_CACTVS_TAUTO_COUNT>
9

> <PUBCHEM_CONFORMER_ID>
00010E5C00000001

> <PUBCHEM_MMFF94_ENERGY>
16.3939

> <PUBCHEM_FEATURE_SELFOVERLAP>
20.304

> <PUBCHEM_SHAPE_FINGERPRINT>
12423570 1 9259112375380952529
16945 1 18194402422840053893
18185500 45 18196373851520715794
193761 8 18410573967971581959
19973954 147 18410855455843750501
21040471 1 18410573976619798660
21501502 16 18410856555355378285
23552423 10 18272087188624440022
241688 4 18341332270457158816
2748010 2 18410575080383942541
29004967 10 18126843789949310491
5084963 1 17970920083293540793

> <PUBCHEM_SHAPE_MULTIPOLES>
188.19
3.24
1.91
0.59
0.22
0.06
0
-0.24
0
0.07
0
0.03
-0.01
0

> <PUBCHEM_SHAPE_SELFOVERLAP>
393.797

> <PUBCHEM_SHAPE_VOLUME>
107

> <PUBCHEM_COORDINATE_TYPE>
2
5
10

$$$$

