5280940
  -OEChem-07051212513D

 57 57  0     1  0  0  0  0  0999 V2000
   -4.5440   -0.8291   -1.0941 O   0  0  0  0  0  0  0  0  0  0  0  0
   -3.2004   -3.3369    1.0695 O   0  0  0  0  0  0  0  0  0  0  0  0
    2.1514   -3.8213    0.4254 O   0  0  0  0  0  0  0  0  0  0  0  0
    2.6401    2.7731    1.6166 O   0  0  0  0  0  0  0  0  0  0  0  0
    0.6415    1.7216    1.8360 O   0  0  0  0  0  0  0  0  0  0  0  0
   -2.3835   -0.0906   -0.1841 C   0  0  2  0  0  0  0  0  0  0  0  0
   -1.9033   -1.5255    0.0971 C   0  0  2  0  0  0  0  0  0  0  0  0
   -3.8987   -0.2053    0.0095 C   0  0  2  0  0  0  0  0  0  0  0  0
   -2.7967   -1.9872    1.2644 C   0  0  1  0  0  0  0  0  0  0  0  0
   -4.0328   -1.0733    1.2603 C   0  0  0  0  0  0  0  0  0  0  0  0
   -1.9825    0.4238   -1.5616 C   0  0  0  0  0  0  0  0  0  0  0  0
   -0.4503   -1.6187    0.4254 C   0  0  0  0  0  0  0  0  0  0  0  0
   -2.4594    1.7994   -1.9362 C   0  0  0  0  0  0  0  0  0  0  0  0
    0.4251   -2.3638   -0.2654 C   0  0  0  0  0  0  0  0  0  0  0  0
    1.8860   -2.4629    0.0744 C   0  0  2  0  0  0  0  0  0  0  0  0
   -1.8512    2.9673   -1.6785 C   0  0  0  0  0  0  0  0  0  0  0  0
   -0.5463    3.0813   -0.9457 C   0  0  0  0  0  0  0  0  0  0  0  0
    2.7857   -2.0747   -1.1071 C   0  0  0  0  0  0  0  0  0  0  0  0
   -0.6357    3.9018    0.3484 C   0  0  0  0  0  0  0  0  0  0  0  0
    4.2473   -2.1786   -0.7787 C   0  0  0  0  0  0  0  0  0  0  0  0
    0.6970    4.0393    1.0908 C   0  0  0  0  0  0  0  0  0  0  0  0
    4.9733   -1.1643   -0.2861 C   0  0  0  0  0  0  0  0  0  0  0  0
    1.2848    2.7186    1.5382 C   0  0  0  0  0  0  0  0  0  0  0  0
    4.4161    0.1987   -0.0023 C   0  0  0  0  0  0  0  0  0  0  0  0
    4.5363    1.1073   -1.2161 C   0  0  0  0  0  0  0  0  0  0  0  0
   -1.9823    0.5856    0.5852 H   0  0  0  0  0  0  0  0  0  0  0  0
   -2.1100   -2.1567   -0.7791 H   0  0  0  0  0  0  0  0  0  0  0  0
   -4.3682    0.7725    0.1551 H   0  0  0  0  0  0  0  0  0  0  0  0
   -2.2965   -1.9268    2.2381 H   0  0  0  0  0  0  0  0  0  0  0  0
   -3.9920   -0.4273    2.1457 H   0  0  0  0  0  0  0  0  0  0  0  0
   -4.9717   -1.6359    1.2794 H   0  0  0  0  0  0  0  0  0  0  0  0
   -0.8921    0.3735   -1.6669 H   0  0  0  0  0  0  0  0  0  0  0  0
   -2.3475   -0.2643   -2.3365 H   0  0  0  0  0  0  0  0  0  0  0  0
   -0.0964   -1.0440    1.2780 H   0  0  0  0  0  0  0  0  0  0  0  0
   -4.2474   -1.7526   -1.1491 H   0  0  0  0  0  0  0  0  0  0  0  0
   -2.3943   -3.8801    1.0391 H   0  0  0  0  0  0  0  0  0  0  0  0
   -3.4109    1.8390   -2.4632 H   0  0  0  0  0  0  0  0  0  0  0  0
    0.0765   -2.9459   -1.1155 H   0  0  0  0  0  0  0  0  0  0  0  0
    2.1281   -1.8464    0.9482 H   0  0  0  0  0  0  0  0  0  0  0  0
   -2.3204    3.8886   -2.0134 H   0  0  0  0  0  0  0  0  0  0  0  0
    0.1690    3.5692   -1.6202 H   0  0  0  0  0  0  0  0  0  0  0  0
   -0.1190    2.1013   -0.7200 H   0  0  0  0  0  0  0  0  0  0  0  0
    2.5241   -1.0741   -1.4687 H   0  0  0  0  0  0  0  0  0  0  0  0
    2.6010   -2.7527   -1.9517 H   0  0  0  0  0  0  0  0  0  0  0  0
   -1.3723    3.4365    1.0162 H   0  0  0  0  0  0  0  0  0  0  0  0
   -1.0113    4.9065    0.1174 H   0  0  0  0  0  0  0  0  0  0  0  0
    1.6178   -4.0338    1.2104 H   0  0  0  0  0  0  0  0  0  0  0  0
    4.7321   -3.1367   -0.9464 H   0  0  0  0  0  0  0  0  0  0  0  0
    0.5656    4.6634    1.9811 H   0  0  0  0  0  0  0  0  0  0  0  0
    1.4172    4.5365    0.4303 H   0  0  0  0  0  0  0  0  0  0  0  0
    6.0294   -1.3244   -0.0865 H   0  0  0  0  0  0  0  0  0  0  0  0
    3.3722    0.1520    0.3238 H   0  0  0  0  0  0  0  0  0  0  0  0
    4.9726    0.6335    0.8364 H   0  0  0  0  0  0  0  0  0  0  0  0
    3.9711    0.7221   -2.0707 H   0  0  0  0  0  0  0  0  0  0  0  0
    4.1486    2.1035   -0.9796 H   0  0  0  0  0  0  0  0  0  0  0  0
    5.5818    1.2188   -1.5235 H   0  0  0  0  0  0  0  0  0  0  0  0
    3.0208    1.9295    1.9408 H   0  0  0  0  0  0  0  0  0  0  0  0
  1  8  1  0  0  0  0
  1 35  1  0  0  0  0
  2  9  1  0  0  0  0
  2 36  1  0  0  0  0
  3 15  1  0  0  0  0
  3 47  1  0  0  0  0
  4 23  1  0  0  0  0
  4 57  1  0  0  0  0
  5 23  2  0  0  0  0
  6  7  1  0  0  0  0
  6  8  1  0  0  0  0
  6 11  1  0  0  0  0
  6 26  1  0  0  0  0
  7  9  1  0  0  0  0
  7 12  1  0  0  0  0
  7 27  1  0  0  0  0
  8 10  1  0  0  0  0
  8 28  1  0  0  0  0
  9 10  1  0  0  0  0
  9 29  1  0  0  0  0
 10 30  1  0  0  0  0
 10 31  1  0  0  0  0
 11 13  1  0  0  0  0
 11 32  1  0  0  0  0
 11 33  1  0  0  0  0
 12 14  2  0  0  0  0
 12 34  1  0  0  0  0
 13 16  2  0  0  0  0
 13 37  1  0  0  0  0
 14 15  1  0  0  0  0
 14 38  1  0  0  0  0
 15 18  1  0  0  0  0
 15 39  1  0  0  0  0
 16 17  1  0  0  0  0
 16 40  1  0  0  0  0
 17 19  1  0  0  0  0
 17 41  1  0  0  0  0
 17 42  1  0  0  0  0
 18 20  1  0  0  0  0
 18 43  1  0  0  0  0
 18 44  1  0  0  0  0
 19 21  1  0  0  0  0
 19 45  1  0  0  0  0
 19 46  1  0  0  0  0
 20 22  2  0  0  0  0
 20 48  1  0  0  0  0
 21 23  1  0  0  0  0
 21 49  1  0  0  0  0
 21 50  1  0  0  0  0
 22 24  1  0  0  0  0
 22 51  1  0  0  0  0
 24 25  1  0  0  0  0
 24 52  1  0  0  0  0
 24 53  1  0  0  0  0
 25 54  1  0  0  0  0
 25 55  1  0  0  0  0
 25 56  1  0  0  0  0
M  END
> <PUBCHEM_COMPOUND_CID>
5280940

> <PUBCHEM_CONFORMER_RMSD>
1.2

> <PUBCHEM_CONFORMER_DIVERSEORDER>
1
252
169
2
93
447
334
190
475
289
488
110
71
98
350
229
521
81
27
430
211
73
456
232
68
155
428
468
436
195
82
21
411
55
353
52
79
173
469
440
205
44
214
15
503
26
516
154
314
130
427
156
152
56
361
5
510
124
4
218
36
128
258
72
199
162
319
48
133
443
266
28
526
212
331
303
99
96
83
95
349
388
262
180
53
46
69
476
323
400
10
459
496
250
499
347
25
78
385
313
149
321
230
224
146
80
408
70
261
473
498
213
134
88
7
101
41
348
6
409
178
407
31
97
103
142
280
100
227
8
231
34
9
90
29
281
181
485
363
38
20
193
291
198
168
437
141
206
479
62
386
14
183

> <PUBCHEM_MMFF94_PARTIAL_CHARGES>
31
1 -0.68
11 0.14
12 -0.29
13 -0.29
14 -0.29
15 0.42
16 -0.29
17 0.14
18 0.14
2 -0.68
20 -0.29
21 0.06
22 -0.29
23 0.66
24 0.14
3 -0.68
34 0.15
35 0.4
36 0.4
37 0.15
38 0.15
4 -0.65
40 0.15
47 0.4
48 0.15
5 -0.57
51 0.15
57 0.5
7 0.14
8 0.28
9 0.28

> <PUBCHEM_EFFECTIVE_ROTOR_COUNT>
12

> <PUBCHEM_PHARMACOPHORE_FEATURES>
12
1 1 acceptor
1 1 donor
1 2 acceptor
1 2 donor
1 25 hydrophobe
1 3 acceptor
1 3 donor
1 4 acceptor
1 5 acceptor
3 4 5 23 anion
4 16 17 19 21 hydrophobe
5 6 7 8 9 10 rings

> <PUBCHEM_HEAVY_ATOM_COUNT>
25

> <PUBCHEM_ATOM_DEF_STEREO_COUNT>
5

> <PUBCHEM_ATOM_UDEF_STEREO_COUNT>
0

> <PUBCHEM_BOND_DEF_STEREO_COUNT>
3

> <PUBCHEM_BOND_UDEF_STEREO_COUNT>
0

> <PUBCHEM_ISOTOPIC_ATOM_COUNT>
0

> <PUBCHEM_COMPONENT_COUNT>
1

> <PUBCHEM_CACTVS_TAUTO_COUNT>
1

> <PUBCHEM_CONFORMER_ID>
005094AC00000001

> <PUBCHEM_MMFF94_ENERGY>
34.0803

> <PUBCHEM_FEATURE_SELFOVERLAP>
60.951

> <PUBCHEM_SHAPE_FINGERPRINT>
10670039 82 18198600268974520454
12100795 323 17545330678901142464
12788726 201 17904762528837693443
13402501 40 18338800005495760664
13947920 24 18269539573845987820
14114211 80 17903048089931610092
14123250 116 17543352008736853620
14251757 17 18270402810167866642
14363568 33 18052523383870479504
14931854 50 17904495343497200444
17852330 31 18196065796548106563
17980427 23 17969763316379979595
20510252 161 18055349403974609999
20531524 4 18049753950466681328
22182937 141 17980192312073922380
23558518 356 16893706736139298559
23559900 14 18198903605219021075
3524813 1 18412830183465438934
445580 102 18335700589612224998
469060 322 17843374483824330632
5283178 26 18120086191564490748
532947 4 18191876625819828941
6287921 2 17834385731617838315

> <PUBCHEM_SHAPE_MULTIPOLES>
485.14
8.67
5.7
1.72
6.39
3.46
-0.04
-4.87
-1.75
0.23
1.64
-0.67
1.23
2.41

> <PUBCHEM_SHAPE_SELFOVERLAP>
953.226

> <PUBCHEM_SHAPE_VOLUME>
289.9

> <PUBCHEM_COORDINATE_TYPE>
2
5
10

$$$$

