11097293
  -OEChem-07051212473D

 28 28  0     1  0  0  0  0  0999 V2000
   -3.7316    0.0612    0.0673 S   0  0  0  0  0  0  0  0  0  0  0  0
    0.4577    0.9583    0.2079 O   0  0  0  0  0  0  0  0  0  0  0  0
    1.0031   -2.6203   -0.3490 O   0  0  0  0  0  0  0  0  0  0  0  0
    3.5954   -1.6741    0.5113 O   0  0  0  0  0  0  0  0  0  0  0  0
    4.0532    1.0798   -0.4306 O   0  0  0  0  0  0  0  0  0  0  0  0
    1.8990    2.7930    0.2272 O   0  0  0  0  0  0  0  0  0  0  0  0
   -2.1406    0.2116   -0.2891 O   0  0  0  0  0  0  0  0  0  0  0  0
   -4.4337    1.2373   -0.8188 O   0  0  0  0  0  0  0  0  0  0  0  0
   -4.1834   -1.2126   -0.4609 O   0  0  0  0  0  0  0  0  0  0  0  0
   -3.9292    0.3803    1.4690 O   0  0  0  0  0  0  0  0  0  0  0  0
    1.2448   -1.3343    0.2159 C   0  0  1  0  0  0  0  0  0  0  0  0
    2.6442   -0.8631   -0.1801 C   0  0  1  0  0  0  0  0  0  0  0  0
    0.1804   -0.3543   -0.2832 C   0  0  1  0  0  0  0  0  0  0  0  0
    2.8601    0.6038    0.1919 C   0  0  2  0  0  0  0  0  0  0  0  0
    1.6947    1.4741   -0.2784 C   0  0  1  0  0  0  0  0  0  0  0  0
   -1.2140   -0.7409    0.1996 C   0  0  0  0  0  0  0  0  0  0  0  0
    1.1909   -1.4399    1.3064 H   0  0  0  0  0  0  0  0  0  0  0  0
    2.8238   -1.0201   -1.2508 H   0  0  0  0  0  0  0  0  0  0  0  0
    0.1612   -0.3185   -1.3811 H   0  0  0  0  0  0  0  0  0  0  0  0
    3.0093    0.6943    1.2745 H   0  0  0  0  0  0  0  0  0  0  0  0
    1.6574    1.5559   -1.3709 H   0  0  0  0  0  0  0  0  0  0  0  0
   -1.2559   -0.7320    1.2948 H   0  0  0  0  0  0  0  0  0  0  0  0
   -1.4910   -1.7370   -0.1607 H   0  0  0  0  0  0  0  0  0  0  0  0
    1.0415   -2.5351   -1.3169 H   0  0  0  0  0  0  0  0  0  0  0  0
    3.4233   -2.5990    0.2647 H   0  0  0  0  0  0  0  0  0  0  0  0
    3.9426    1.0013   -1.3936 H   0  0  0  0  0  0  0  0  0  0  0  0
    2.2677    2.7268    1.1238 H   0  0  0  0  0  0  0  0  0  0  0  0
   -4.0033    2.1225   -0.7607 H   0  0  0  0  0  0  0  0  0  0  0  0
  1  7  1  0  0  0  0
  1  8  1  0  0  0  0
  1  9  2  0  0  0  0
  1 10  2  0  0  0  0
  2 13  1  0  0  0  0
  2 15  1  0  0  0  0
  3 11  1  0  0  0  0
  3 24  1  0  0  0  0
  4 12  1  0  0  0  0
  4 25  1  0  0  0  0
  5 14  1  0  0  0  0
  5 26  1  0  0  0  0
  6 15  1  0  0  0  0
  6 27  1  0  0  0  0
  7 16  1  0  0  0  0
  8 28  1  0  0  0  0
 11 12  1  0  0  0  0
 11 13  1  0  0  0  0
 11 17  1  0  0  0  0
 12 14  1  0  0  0  0
 12 18  1  0  0  0  0
 13 16  1  0  0  0  0
 13 19  1  0  0  0  0
 14 15  1  0  0  0  0
 14 20  1  0  0  0  0
 15 21  1  0  0  0  0
 16 22  1  0  0  0  0
 16 23  1  0  0  0  0
M  END
> <PUBCHEM_COMPOUND_CID>
11097293

> <PUBCHEM_CONFORMER_RMSD>
0.6

> <PUBCHEM_CONFORMER_DIVERSEORDER>
1
19
26
21
14
3
17
25
18
9
29
5
31
7
10
23
22
12
6
11
2
27
24
8
30
4
16
20
28
13
15

> <PUBCHEM_MMFF94_PARTIAL_CHARGES>
21
1 1.67
10 -0.65
11 0.28
12 0.28
13 0.28
14 0.28
15 0.56
16 0.28
2 -0.56
24 0.4
25 0.4
26 0.4
27 0.4
28 0.5
3 -0.68
4 -0.68
5 -0.68
6 -0.68
7 -0.46
8 -0.68
9 -0.65

> <PUBCHEM_EFFECTIVE_ROTOR_COUNT>
4.2

> <PUBCHEM_PHARMACOPHORE_FEATURES>
14
1 10 acceptor
1 2 acceptor
1 3 acceptor
1 3 donor
1 4 acceptor
1 4 donor
1 5 acceptor
1 5 donor
1 6 acceptor
1 6 donor
1 8 acceptor
1 9 acceptor
4 1 8 9 10 anion
6 2 11 12 13 14 15 rings

> <PUBCHEM_HEAVY_ATOM_COUNT>
16

> <PUBCHEM_ATOM_DEF_STEREO_COUNT>
4

> <PUBCHEM_ATOM_UDEF_STEREO_COUNT>
1

> <PUBCHEM_BOND_DEF_STEREO_COUNT>
0

> <PUBCHEM_BOND_UDEF_STEREO_COUNT>
0

> <PUBCHEM_ISOTOPIC_ATOM_COUNT>
0

> <PUBCHEM_COMPONENT_COUNT>
1

> <PUBCHEM_CACTVS_TAUTO_COUNT>
1

> <PUBCHEM_CONFORMER_ID>
00A954CD00000001

> <PUBCHEM_MMFF94_ENERGY>
28.3104

> <PUBCHEM_FEATURE_SELFOVERLAP>
71.159

> <PUBCHEM_SHAPE_FINGERPRINT>
10219947 1 18410574006790006330
10608611 8 18342461426429292021
10980938 120 18410575089095345718
11471102 20 18411141354636828148
11615757 297 18333729113644893465
12654215 9 18342745164605769948
13380535 76 18341331093747259635
13922767 16 18412268349755036920
14144814 61 18334574659519304675
14251717 144 18410014333759598847
14415576 193 18413107272948068551
15219456 202 18273496788496114573
15442244 35 18264767851392733785
15501101 241 18273214213807296868
17834072 33 18334582322189496767
18186145 218 18261385642083093541
200 152 18187373112687942495
20279233 1 17704351070236562027
20606313 2 18410857672347555662
20645477 70 18340211889900094967
20871998 22 18118681269381615510
21524375 3 18265614269092680462
21639500 275 18337400352657483077
221490 88 18340763745821212723
22854114 111 18410011018165951177
23402655 69 18408606976440867869
25 1 18413108342511034534
293599 30 18339917100989068316
3060560 45 18259981578867466830
4990 188 17967801735405102502
5104073 3 18411982464263723499

> <PUBCHEM_SHAPE_MULTIPOLES>
280.3
8.12
2.18
0.79
7.42
0.15
-0.13
0.99
0.06
-1.79
0.07
0.54
0.05
-0.13

> <PUBCHEM_SHAPE_SELFOVERLAP>
549.809

> <PUBCHEM_SHAPE_VOLUME>
168.5

> <PUBCHEM_COORDINATE_TYPE>
2
5
10

$$$$

