6479
  -OEChem-06261201203D

 17 17  0     0  0  0  0  0  0999 V2000
   -2.2995   -1.9104    0.0014 Br  0  0  0  0  0  0  0  0  0  0  0  0
    3.1506   -0.1054   -0.0013 Br  0  0  0  0  0  0  0  0  0  0  0  0
    0.9463    2.2298    0.0028 O   0  0  0  0  0  0  0  0  0  0  0  0
    0.8778   -2.3743    0.0009 O   0  0  0  0  0  0  0  0  0  0  0  0
   -0.8266   -0.7588    0.0002 N   0  0  0  0  0  0  0  0  0  0  0  0
    1.2876   -0.0768   -0.0001 N   0  0  0  0  0  0  0  0  0  0  0  0
   -0.9486    0.6879   -0.0008 C   0  0  0  0  0  0  0  0  0  0  0  0
    0.5369    1.0755    0.0008 C   0  0  0  0  0  0  0  0  0  0  0  0
   -1.6106    1.2199   -1.2697 C   0  0  0  0  0  0  0  0  0  0  0  0
   -1.6130    1.2222    1.2659 C   0  0  0  0  0  0  0  0  0  0  0  0
    0.4992   -1.2096   -0.0001 C   0  0  0  0  0  0  0  0  0  0  0  0
   -2.6609    0.9163   -1.3325 H   0  0  0  0  0  0  0  0  0  0  0  0
   -1.5761    2.3147   -1.3043 H   0  0  0  0  0  0  0  0  0  0  0  0
   -1.1040    0.8490   -2.1685 H   0  0  0  0  0  0  0  0  0  0  0  0
   -1.1083    0.8527    2.1663 H   0  0  0  0  0  0  0  0  0  0  0  0
   -1.5785    2.3170    1.2986 H   0  0  0  0  0  0  0  0  0  0  0  0
   -2.6635    0.9190    1.3271 H   0  0  0  0  0  0  0  0  0  0  0  0
  1  5  1  0  0  0  0
  2  6  1  0  0  0  0
  3  8  2  0  0  0  0
  4 11  2  0  0  0  0
  5  7  1  0  0  0  0
  5 11  1  0  0  0  0
  6  8  1  0  0  0  0
  6 11  1  0  0  0  0
  7  8  1  0  0  0  0
  7  9  1  0  0  0  0
  7 10  1  0  0  0  0
  9 12  1  0  0  0  0
  9 13  1  0  0  0  0
  9 14  1  0  0  0  0
 10 15  1  0  0  0  0
 10 16  1  0  0  0  0
 10 17  1  0  0  0  0
M  END
> <PUBCHEM_COMPOUND_CID>
6479

> <PUBCHEM_CONFORMER_RMSD>
0.4

> <PUBCHEM_CONFORMER_DIVERSEORDER>
1

> <PUBCHEM_MMFF94_PARTIAL_CHARGES>
9
1 0.01
11 0.69
2 0.01
3 -0.57
4 -0.57
5 -0.37
6 -0.13
7 0.36
8 0.57

> <PUBCHEM_EFFECTIVE_ROTOR_COUNT>
0.6

> <PUBCHEM_PHARMACOPHORE_FEATURES>
4
1 3 acceptor
1 4 acceptor
3 7 9 10 hydrophobe
5 5 6 7 8 11 rings

> <PUBCHEM_HEAVY_ATOM_COUNT>
11

> <PUBCHEM_ATOM_DEF_STEREO_COUNT>
0

> <PUBCHEM_ATOM_UDEF_STEREO_COUNT>
0

> <PUBCHEM_BOND_DEF_STEREO_COUNT>
0

> <PUBCHEM_BOND_UDEF_STEREO_COUNT>
0

> <PUBCHEM_ISOTOPIC_ATOM_COUNT>
0

> <PUBCHEM_COMPONENT_COUNT>
1

> <PUBCHEM_CACTVS_TAUTO_COUNT>
1

> <PUBCHEM_CONFORMER_ID>
0000194F00000001

> <PUBCHEM_MMFF94_ENERGY>
21.4301

> <PUBCHEM_FEATURE_SELFOVERLAP>
20.297

> <PUBCHEM_SHAPE_FINGERPRINT>
11206711 2 18341615880106540318
12138202 97 17773896348528697503
12423570 1 4861445466428983959
13024252 1 15913322515802147488
14617773 55 17824806867962801739
161256 15 18052543175037185012
16945 1 18410574019669633441
21040471 1 18194682794099885728
23552423 10 18127411150955392444
2748010 2 18267596710069547836
5084963 1 18341333279953788688

> <PUBCHEM_SHAPE_MULTIPOLES>
216.56
3.4
2.39
0.92
1.75
0.41
0
0.97
0
-0.6
0
-0.45
-0.41
0

> <PUBCHEM_SHAPE_SELFOVERLAP>
414.015

> <PUBCHEM_SHAPE_VOLUME>
139.5

> <PUBCHEM_COORDINATE_TYPE>
2
5
10

$$$$

