441752
  -OEChem-07051212562D

100106  0     1  0  0  0  0  0999 V2000
    6.6685   -1.2887    0.0000 O   0  0  0  0  0  0  0  0  0  0  0  0
    8.1860   -2.4575    0.0000 O   0  0  0  0  0  0  0  0  0  0  0  0
   10.0087    1.3043    0.0000 O   0  0  0  0  0  0  0  0  0  0  0  0
    6.2923    1.0528    0.0000 O   0  0  0  0  0  0  0  0  0  0  0  0
    7.8835    2.6162    0.0000 O   0  0  0  0  0  0  0  0  0  0  0  0
    5.8910    1.7623    0.0000 O   0  0  0  0  0  0  0  0  0  0  0  0
   11.7595   -0.9659    0.0000 O   0  0  0  0  0  0  0  0  0  0  0  0
   10.8747   -2.9309    0.0000 O   0  0  0  0  0  0  0  0  0  0  0  0
    4.9843   -0.8844    0.0000 O   0  0  0  0  0  0  0  0  0  0  0  0
    5.2953   -0.3636    0.0000 O   0  0  0  0  0  0  0  0  0  0  0  0
    1.9348    0.9429    0.0000 O   0  0  0  0  0  0  0  0  0  0  0  0
    2.1140    2.9349    0.0000 O   0  0  0  0  0  0  0  0  0  0  0  0
   11.2040   -0.5247    0.0000 N   0  0  3  0  0  0  0  0  0  0  0  0
    9.2574   -0.1295    0.0000 C   0  0  1  0  0  0  0  0  0  0  0  0
    9.2574   -0.9971    0.0000 C   0  0  2  0  0  0  0  0  0  0  0  0
    8.5791    0.4114    0.0000 C   0  0  1  0  0  0  0  0  0  0  0  0
   10.2593   -0.2355    0.0000 C   0  0  3  0  0  0  0  0  0  0  0  0
    7.7332   -1.3450    0.0000 C   0  0  1  0  0  0  0  0  0  0  0  0
    7.7332    0.2184    0.0000 C   0  0  1  0  0  0  0  0  0  0  0  0
    7.3568   -0.5633    0.0000 C   0  0  1  0  0  0  0  0  0  0  0  0
    8.5791   -1.5380    0.0000 C   0  0  2  0  0  0  0  0  0  0  0  0
   10.0087   -1.4309    0.0000 C   0  0  2  0  0  0  0  0  0  0  0  0
   10.0087    0.3043    0.0000 C   0  0  2  0  0  0  0  0  0  0  0  0
    8.6568    1.2755    0.0000 C   0  0  0  0  0  0  0  0  0  0  0  0
    7.8591    1.6165    0.0000 C   0  0  2  0  0  0  0  0  0  0  0  0
    7.2882    0.9631    0.0000 C   0  0  2  0  0  0  0  0  0  0  0  0
    6.7119   -0.2934    0.0000 C   0  0  0  0  0  0  0  0  0  0  0  0
   11.2040   -1.2766    0.0000 C   0  0  0  0  0  0  0  0  0  0  0  0
   10.7600   -0.9971    0.0000 C   0  0  1  0  0  0  0  0  0  0  0  0
    6.7119    1.1912    0.0000 C   0  0  2  0  0  0  0  0  0  0  0  0
   10.7600   -0.1295    0.0000 C   0  0  0  0  0  0  0  0  0  0  0  0
   10.0087   -2.4309    0.0000 C   0  0  0  0  0  0  0  0  0  0  0  0
   12.0080    0.0699    0.0000 C   0  0  0  0  0  0  0  0  0  0  0  0
    8.7858   -3.2577    0.0000 C   0  0  0  0  0  0  0  0  0  0  0  0
    5.7097   -1.5727    0.0000 C   0  0  0  0  0  0  0  0  0  0  0  0
   12.9250   -0.3290    0.0000 C   0  0  0  0  0  0  0  0  0  0  0  0
   10.8747    1.8043    0.0000 C   0  0  0  0  0  0  0  0  0  0  0  0
    5.3849    0.6324    0.0000 C   0  0  0  0  0  0  0  0  0  0  0  0
    5.9752    2.7587    0.0000 C   0  0  0  0  0  0  0  0  0  0  0  0
   10.8747   -3.9309    0.0000 C   0  0  0  0  0  0  0  0  0  0  0  0
    5.4762   -2.5451    0.0000 C   0  0  0  0  0  0  0  0  0  0  0  0
    4.5672    1.2080    0.0000 C   0  0  0  0  0  0  0  0  0  0  0  0
    3.6598    0.7877    0.0000 C   0  0  0  0  0  0  0  0  0  0  0  0
    4.6568    2.2040    0.0000 C   0  0  0  0  0  0  0  0  0  0  0  0
    2.8421    1.3633    0.0000 C   0  0  0  0  0  0  0  0  0  0  0  0
    3.8391    2.7796    0.0000 C   0  0  0  0  0  0  0  0  0  0  0  0
    2.9318    2.3593    0.0000 C   0  0  0  0  0  0  0  0  0  0  0  0
    1.1170    1.5186    0.0000 C   0  0  0  0  0  0  0  0  0  0  0  0
    2.2037    3.9309    0.0000 C   0  0  0  0  0  0  0  0  0  0  0  0
    9.3209   -1.8447    0.0000 H   0  0  0  0  0  0  0  0  0  0  0  0
    9.3606    0.7455    0.0000 H   0  0  0  0  0  0  0  0  0  0  0  0
   10.3833    0.3719    0.0000 H   0  0  0  0  0  0  0  0  0  0  0  0
    7.2033   -2.0095    0.0000 H   0  0  0  0  0  0  0  0  0  0  0  0
    6.8841    0.1802    0.0000 H   0  0  0  0  0  0  0  0  0  0  0  0
    8.7794   -2.1247    0.0000 H   0  0  0  0  0  0  0  0  0  0  0  0
    9.4718    0.6143    0.0000 H   0  0  0  0  0  0  0  0  0  0  0  0
    8.8396    1.8680    0.0000 H   0  0  0  0  0  0  0  0  0  0  0  0
    9.2651    1.1557    0.0000 H   0  0  0  0  0  0  0  0  0  0  0  0
    7.0574    1.5386    0.0000 H   0  0  0  0  0  0  0  0  0  0  0  0
    6.5500   -0.8918    0.0000 H   0  0  0  0  0  0  0  0  0  0  0  0
    6.0973   -0.2117    0.0000 H   0  0  0  0  0  0  0  0  0  0  0  0
   11.8235   -1.2501    0.0000 H   0  0  0  0  0  0  0  0  0  0  0  0
   11.2570   -1.8944    0.0000 H   0  0  0  0  0  0  0  0  0  0  0  0
   10.9298   -1.5934    0.0000 H   0  0  0  0  0  0  0  0  0  0  0  0
    6.7901    1.8062    0.0000 H   0  0  0  0  0  0  0  0  0  0  0  0
   10.9721    0.4531    0.0000 H   0  0  0  0  0  0  0  0  0  0  0  0
   11.3706   -0.2372    0.0000 H   0  0  0  0  0  0  0  0  0  0  0  0
    9.7966   -3.0135    0.0000 H   0  0  0  0  0  0  0  0  0  0  0  0
    9.3981   -2.3232    0.0000 H   0  0  0  0  0  0  0  0  0  0  0  0
   11.5583    0.4968    0.0000 H   0  0  0  0  0  0  0  0  0  0  0  0
   12.3503    0.5869    0.0000 H   0  0  0  0  0  0  0  0  0  0  0  0
    7.3543    2.9392    0.0000 H   0  0  0  0  0  0  0  0  0  0  0  0
   12.0862   -1.4929    0.0000 H   0  0  0  0  0  0  0  0  0  0  0  0
    9.2819   -2.8858    0.0000 H   0  0  0  0  0  0  0  0  0  0  0  0
    9.1577   -3.7538    0.0000 H   0  0  0  0  0  0  0  0  0  0  0  0
    8.2898   -3.6296    0.0000 H   0  0  0  0  0  0  0  0  0  0  0  0
   13.1723    0.2396    0.0000 H   0  0  0  0  0  0  0  0  0  0  0  0
   13.4935   -0.5763    0.0000 H   0  0  0  0  0  0  0  0  0  0  0  0
   12.6776   -0.8975    0.0000 H   0  0  0  0  0  0  0  0  0  0  0  0
   10.5647    2.3412    0.0000 H   0  0  0  0  0  0  0  0  0  0  0  0
   11.4117    2.1143    0.0000 H   0  0  0  0  0  0  0  0  0  0  0  0
   11.1847    1.2674    0.0000 H   0  0  0  0  0  0  0  0  0  0  0  0
    5.3574    2.8109    0.0000 H   0  0  0  0  0  0  0  0  0  0  0  0
    6.0274    3.3765    0.0000 H   0  0  0  0  0  0  0  0  0  0  0  0
    6.5930    2.7065    0.0000 H   0  0  0  0  0  0  0  0  0  0  0  0
   11.4947   -3.9309    0.0000 H   0  0  0  0  0  0  0  0  0  0  0  0
   10.8747   -4.5509    0.0000 H   0  0  0  0  0  0  0  0  0  0  0  0
   10.2547   -3.9309    0.0000 H   0  0  0  0  0  0  0  0  0  0  0  0
    6.0791   -2.6898    0.0000 H   0  0  0  0  0  0  0  0  0  0  0  0
    5.3315   -3.1480    0.0000 H   0  0  0  0  0  0  0  0  0  0  0  0
    4.8734   -2.4004    0.0000 H   0  0  0  0  0  0  0  0  0  0  0  0
    3.6043    0.1702    0.0000 H   0  0  0  0  0  0  0  0  0  0  0  0
    5.2194    2.4646    0.0000 H   0  0  0  0  0  0  0  0  0  0  0  0
    3.8947    3.3971    0.0000 H   0  0  0  0  0  0  0  0  0  0  0  0
    0.7602    1.0116    0.0000 H   0  0  0  0  0  0  0  0  0  0  0  0
    0.6101    1.8754    0.0000 H   0  0  0  0  0  0  0  0  0  0  0  0
    1.4739    2.0255    0.0000 H   0  0  0  0  0  0  0  0  0  0  0  0
    1.5862    3.9864    0.0000 H   0  0  0  0  0  0  0  0  0  0  0  0
    2.2593    4.5484    0.0000 H   0  0  0  0  0  0  0  0  0  0  0  0
    2.8212    3.8753    0.0000 H   0  0  0  0  0  0  0  0  0  0  0  0
 20  1  1  6  0  0  0
  1 35  1  0  0  0  0
 21  2  1  1  0  0  0
  2 34  1  0  0  0  0
 23  3  1  1  0  0  0
  3 37  1  0  0  0  0
 26  4  1  1  0  0  0
  4 38  1  0  0  0  0
 25  5  1  6  0  0  0
  5 72  1  0  0  0  0
 30  6  1  6  0  0  0
  6 39  1  0  0  0  0
 29  7  1  1  0  0  0
  7 73  1  0  0  0  0
  8 32  1  0  0  0  0
  8 40  1  0  0  0  0
  9 35  2  0  0  0  0
 10 38  2  0  0  0  0
 11 45  1  0  0  0  0
 11 48  1  0  0  0  0
 12 47  1  0  0  0  0
 12 49  1  0  0  0  0
 13 17  1  0  0  0  0
 13 28  1  0  0  0  0
 13 33  1  0  0  0  0
 14 15  1  0  0  0  0
 14 16  1  0  0  0  0
 14 17  1  0  0  0  0
 14 23  1  6  0  0  0
 15 21  1  0  0  0  0
 15 22  1  0  0  0  0
 15 50  1  6  0  0  0
 16 19  1  0  0  0  0
 16 24  1  0  0  0  0
 16 51  1  6  0  0  0
 17 18  1  0  0  0  0
 17 52  1  0  0  0  0
 18 20  1  0  0  0  0
 18 21  1  0  0  0  0
 18 53  1  1  0  0  0
 19 20  1  0  0  0  0
 19 26  1  0  0  0  0
 19 54  1  6  0  0  0
 20 27  1  0  0  0  0
 21 55  1  0  0  0  0
 22 28  1  0  0  0  0
 22 29  1  0  0  0  0
 22 32  1  6  0  0  0
 23 31  1  0  0  0  0
 23 56  1  0  0  0  0
 24 25  1  0  0  0  0
 24 57  1  0  0  0  0
 24 58  1  0  0  0  0
 25 26  1  0  0  0  0
 25 30  1  0  0  0  0
 26 59  1  0  0  0  0
 27 30  1  0  0  0  0
 27 60  1  0  0  0  0
 27 61  1  0  0  0  0
 28 62  1  0  0  0  0
 28 63  1  0  0  0  0
 29 31  1  0  0  0  0
 29 64  1  0  0  0  0
 30 65  1  0  0  0  0
 31 66  1  0  0  0  0
 31 67  1  0  0  0  0
 32 68  1  0  0  0  0
 32 69  1  0  0  0  0
 33 36  1  0  0  0  0
 33 70  1  0  0  0  0
 33 71  1  0  0  0  0
 34 74  1  0  0  0  0
 34 75  1  0  0  0  0
 34 76  1  0  0  0  0
 35 41  1  0  0  0  0
 36 77  1  0  0  0  0
 36 78  1  0  0  0  0
 36 79  1  0  0  0  0
 37 80  1  0  0  0  0
 37 81  1  0  0  0  0
 37 82  1  0  0  0  0
 38 42  1  0  0  0  0
 39 83  1  0  0  0  0
 39 84  1  0  0  0  0
 39 85  1  0  0  0  0
 40 86  1  0  0  0  0
 40 87  1  0  0  0  0
 40 88  1  0  0  0  0
 41 89  1  0  0  0  0
 41 90  1  0  0  0  0
 41 91  1  0  0  0  0
 42 43  2  0  0  0  0
 42 44  1  0  0  0  0
 43 45  1  0  0  0  0
 43 92  1  0  0  0  0
 44 46  2  0  0  0  0
 44 93  1  0  0  0  0
 45 47  2  0  0  0  0
 46 47  1  0  0  0  0
 46 94  1  0  0  0  0
 48 95  1  0  0  0  0
 48 96  1  0  0  0  0
 48 97  1  0  0  0  0
 49 98  1  0  0  0  0
 49 99  1  0  0  0  0
 49100  1  0  0  0  0
M  END
> <PUBCHEM_COMPOUND_CID>
441752

> <PUBCHEM_COMPOUND_CANONICALIZED>
1

> <PUBCHEM_CACTVS_COMPLEXITY>
1290

> <PUBCHEM_CACTVS_HBOND_ACCEPTOR>
13

> <PUBCHEM_CACTVS_HBOND_DONOR>
2

> <PUBCHEM_CACTVS_ROTATABLE_BOND>
13

> <PUBCHEM_CACTVS_SUBSKEYS>
AAADcfB+PAAAAAAAAAAAAAAAAAAAAYMAAAA8YMGCB4gWAGABAAAAHgAACAAAD3zhmAYyDoMABgCIAiDSCAACCAAkIAAIiAEOiMgNNjKEtRqGcSInwBGLqYf6/P/PoAABAAAAQADSAAaUADSAAaEADSAAAA==

> <PUBCHEM_IUPAC_INCHI>
InChI=1S/C36H51NO12/c1-9-37-16-33(17-42-3)23(39)13-24(45-6)36-20-14-34(41)25(46-7)15-35(49-18(2)38,27(30(36)37)28(47-8)29(33)36)26(20)31(34)48-32(40)19-10-11-21(43-4)22(12-19)44-5/h10-12,20,23-31,39,41H,9,13-17H2,1-8H3/t20-,23-,24+,25+,26-,27+,28+,29-,30?,31-,33+,34+,35-,36+/m1/s1

> <PUBCHEM_IUPAC_INCHIKEY>
YVPYMQHYESYLIR-CERQHTHQSA-N

> <PUBCHEM_XLOGP3_AA>
1.2

> <PUBCHEM_EXACT_MASS>
689.341126

> <PUBCHEM_MOLECULAR_FORMULA>
C36H51NO12

> <PUBCHEM_MOLECULAR_WEIGHT>
689.78964

> <PUBCHEM_OPENEYE_CAN_SMILES>
CCN1CC2(C(CC(C34C2C(C(C31)C5(CC(C6(CC4C5C6OC(=O)C7=CC(=C(C=C7)OC)OC)O)OC)OC(=O)C)OC)OC)O)COC

> <PUBCHEM_OPENEYE_ISO_SMILES>
CCN1C[C@@]2([C@@H](C[C@@H]([C@@]34[C@@H]2[C@H]([C@@H](C31)[C@]5(C[C@@H]([C@]6(C[C@@H]4[C@@H]5[C@H]6OC(=O)C7=CC(=C(C=C7)OC)OC)O)OC)OC(=O)C)OC)OC)O)COC

> <PUBCHEM_CACTVS_TPSA>
152

> <PUBCHEM_MONOISOTOPIC_WEIGHT>
689.341126

> <PUBCHEM_TOTAL_CHARGE>
0

> <PUBCHEM_HEAVY_ATOM_COUNT>
49

> <PUBCHEM_ATOM_DEF_STEREO_COUNT>
13

> <PUBCHEM_ATOM_UDEF_STEREO_COUNT>
1

> <PUBCHEM_BOND_DEF_STEREO_COUNT>
0

> <PUBCHEM_BOND_UDEF_STEREO_COUNT>
0

> <PUBCHEM_ISOTOPIC_ATOM_COUNT>
0

> <PUBCHEM_COMPONENT_COUNT>
1

> <PUBCHEM_CACTVS_TAUTO_COUNT>
1

> <PUBCHEM_COORDINATE_TYPE>
1
5
255

> <PUBCHEM_BONDANNOTATIONS>
20  1  6
17  13  3
14  23  6
15  50  6
16  51  6
18  53  5
19  54  6
21  2  5
22  32  6
23  3  5
26  4  5
42  43  8
42  44  8
43  45  8
44  46  8
45  47  8
46  47  8
25  5  6
30  6  6
29  7  5

$$$$

