174277
  -OEChem-07051213003D

 57 60  0     1  0  0  0  0  0999 V2000
   -4.8940   -0.8898   -0.2669 O   0  0  0  0  0  0  0  0  0  0  0  0
   -3.5192   -2.3836    1.0287 O   0  0  0  0  0  0  0  0  0  0  0  0
   -0.7148   -2.0689    1.3207 O   0  0  0  0  0  0  0  0  0  0  0  0
    0.9184   -2.0799   -1.1780 O   0  0  0  0  0  0  0  0  0  0  0  0
    4.8026    0.3113    0.1753 O   0  0  0  0  0  0  0  0  0  0  0  0
    3.6264   -1.9027   -0.9924 O   0  0  0  0  0  0  0  0  0  0  0  0
   -1.0100    3.2987   -0.8256 C   0  0  1  0  0  0  0  0  0  0  0  0
    0.2660    3.4324    0.0574 C   0  0  2  0  0  0  0  0  0  0  0  0
   -1.0904    1.9694   -1.6184 C   0  0  0  0  0  0  0  0  0  0  0  0
    0.4505    2.3192    1.1086 C   0  0  0  0  0  0  0  0  0  0  0  0
   -1.6495    0.7671   -0.8807 C   0  0  0  0  0  0  0  0  0  0  0  0
    1.2447    1.1536    0.5572 C   0  0  0  0  0  0  0  0  0  0  0  0
   -0.8307   -0.1232   -0.1283 C   0  0  0  0  0  0  0  0  0  0  0  0
    0.6330    0.0305   -0.0362 C   0  0  0  0  0  0  0  0  0  0  0  0
   -2.3144    3.6288   -0.0877 C   0  0  0  0  0  0  0  0  0  0  0  0
    0.3326    4.8034    0.7476 C   0  0  0  0  0  0  0  0  0  0  0  0
   -3.0401    0.5362   -0.9628 C   0  0  0  0  0  0  0  0  0  0  0  0
   -1.4342   -1.2109    0.5430 C   0  0  0  0  0  0  0  0  0  0  0  0
    2.6506    1.2271    0.6149 C   0  0  0  0  0  0  0  0  0  0  0  0
    1.4606   -0.9901   -0.5494 C   0  0  0  0  0  0  0  0  0  0  0  0
   -3.5797   -0.5395   -0.2919 C   0  0  0  0  0  0  0  0  0  0  0  0
   -2.7979   -1.3890    0.4442 C   0  0  0  0  0  0  0  0  0  0  0  0
    3.4469    0.2055    0.1027 C   0  0  0  0  0  0  0  0  0  0  0  0
    2.8513   -0.9045   -0.4807 C   0  0  0  0  0  0  0  0  0  0  0  0
   -4.8491   -2.0605    0.5741 C   0  0  0  0  0  0  0  0  0  0  0  0
   -0.5831   -1.7359    2.7008 C   0  0  0  0  0  0  0  0  0  0  0  0
    0.7279   -1.9791   -2.5842 C   0  0  0  0  0  0  0  0  0  0  0  0
    5.4336   -0.2231    1.3377 C   0  0  0  0  0  0  0  0  0  0  0  0
    3.4620   -3.2024   -0.4298 C   0  0  0  0  0  0  0  0  0  0  0  0
   -0.9042    4.0785   -1.5954 H   0  0  0  0  0  0  0  0  0  0  0  0
    1.1220    3.4103   -0.6328 H   0  0  0  0  0  0  0  0  0  0  0  0
   -0.1114    1.7258   -2.0499 H   0  0  0  0  0  0  0  0  0  0  0  0
   -1.7274    2.1426   -2.4980 H   0  0  0  0  0  0  0  0  0  0  0  0
   -0.5056    1.9870    1.5267 H   0  0  0  0  0  0  0  0  0  0  0  0
    1.0034    2.7063    1.9760 H   0  0  0  0  0  0  0  0  0  0  0  0
   -2.4751    2.9804    0.7784 H   0  0  0  0  0  0  0  0  0  0  0  0
   -2.3186    4.6645    0.2661 H   0  0  0  0  0  0  0  0  0  0  0  0
   -3.1743    3.5286   -0.7585 H   0  0  0  0  0  0  0  0  0  0  0  0
    1.3231    4.9605    1.1893 H   0  0  0  0  0  0  0  0  0  0  0  0
    0.1603    5.6132    0.0311 H   0  0  0  0  0  0  0  0  0  0  0  0
   -0.4039    4.8888    1.5531 H   0  0  0  0  0  0  0  0  0  0  0  0
   -3.6825    1.1942   -1.5403 H   0  0  0  0  0  0  0  0  0  0  0  0
    3.1270    2.0979    1.0616 H   0  0  0  0  0  0  0  0  0  0  0  0
   -5.4873   -1.8895    1.4486 H   0  0  0  0  0  0  0  0  0  0  0  0
   -5.2446   -2.9133    0.0105 H   0  0  0  0  0  0  0  0  0  0  0  0
   -1.5575   -1.7752    3.1976 H   0  0  0  0  0  0  0  0  0  0  0  0
   -0.1403   -0.7429    2.8252 H   0  0  0  0  0  0  0  0  0  0  0  0
    0.0766   -2.4721    3.1682 H   0  0  0  0  0  0  0  0  0  0  0  0
    0.2310   -2.8905   -2.9278 H   0  0  0  0  0  0  0  0  0  0  0  0
    1.6902   -1.8941   -3.0987 H   0  0  0  0  0  0  0  0  0  0  0  0
    0.0949   -1.1230   -2.8371 H   0  0  0  0  0  0  0  0  0  0  0  0
    5.0823    0.2943    2.2361 H   0  0  0  0  0  0  0  0  0  0  0  0
    6.5119   -0.0680    1.2438 H   0  0  0  0  0  0  0  0  0  0  0  0
    5.2409   -1.2970    1.4232 H   0  0  0  0  0  0  0  0  0  0  0  0
    2.8114   -3.8069   -1.0678 H   0  0  0  0  0  0  0  0  0  0  0  0
    3.0674   -3.1675    0.5918 H   0  0  0  0  0  0  0  0  0  0  0  0
    4.4448   -3.6821   -0.3986 H   0  0  0  0  0  0  0  0  0  0  0  0
  1 21  1  0  0  0  0
  1 25  1  0  0  0  0
  2 22  1  0  0  0  0
  2 25  1  0  0  0  0
  3 18  1  0  0  0  0
  3 26  1  0  0  0  0
  4 20  1  0  0  0  0
  4 27  1  0  0  0  0
  5 23  1  0  0  0  0
  5 28  1  0  0  0  0
  6 24  1  0  0  0  0
  6 29  1  0  0  0  0
  7  8  1  0  0  0  0
  7  9  1  0  0  0  0
  7 15  1  0  0  0  0
  7 30  1  0  0  0  0
  8 10  1  0  0  0  0
  8 16  1  0  0  0  0
  8 31  1  0  0  0  0
  9 11  1  0  0  0  0
  9 32  1  0  0  0  0
  9 33  1  0  0  0  0
 10 12  1  0  0  0  0
 10 34  1  0  0  0  0
 10 35  1  0  0  0  0
 11 13  1  0  0  0  0
 11 17  2  0  0  0  0
 12 14  1  0  0  0  0
 12 19  2  0  0  0  0
 13 14  1  0  0  0  0
 13 18  2  0  0  0  0
 14 20  2  0  0  0  0
 15 36  1  0  0  0  0
 15 37  1  0  0  0  0
 15 38  1  0  0  0  0
 16 39  1  0  0  0  0
 16 40  1  0  0  0  0
 16 41  1  0  0  0  0
 17 21  1  0  0  0  0
 17 42  1  0  0  0  0
 18 22  1  0  0  0  0
 19 23  1  0  0  0  0
 19 43  1  0  0  0  0
 20 24  1  0  0  0  0
 21 22  2  0  0  0  0
 23 24  2  0  0  0  0
 25 44  1  0  0  0  0
 25 45  1  0  0  0  0
 26 46  1  0  0  0  0
 26 47  1  0  0  0  0
 26 48  1  0  0  0  0
 27 49  1  0  0  0  0
 27 50  1  0  0  0  0
 27 51  1  0  0  0  0
 28 52  1  0  0  0  0
 28 53  1  0  0  0  0
 28 54  1  0  0  0  0
 29 55  1  0  0  0  0
 29 56  1  0  0  0  0
 29 57  1  0  0  0  0
M  END
> <PUBCHEM_COMPOUND_CID>
174277

> <PUBCHEM_CONFORMER_RMSD>
0.8

> <PUBCHEM_CONFORMER_DIVERSEORDER>
2
4
7
1
3
6
5

> <PUBCHEM_MMFF94_PARTIAL_CHARGES>
25
1 -0.36
10 0.14
11 -0.14
12 -0.14
17 -0.15
18 0.08
19 -0.15
2 -0.36
20 0.08
21 0.08
22 0.08
23 0.08
24 0.08
25 0.56
26 0.28
27 0.28
28 0.28
29 0.28
3 -0.36
4 -0.36
42 0.15
43 0.15
5 -0.36
6 -0.36
9 0.14

> <PUBCHEM_EFFECTIVE_ROTOR_COUNT>
5.4

> <PUBCHEM_PHARMACOPHORE_FEATURES>
9
1 1 acceptor
1 2 acceptor
1 3 acceptor
1 4 acceptor
1 5 acceptor
1 6 acceptor
5 1 2 21 22 25 rings
6 11 13 17 18 21 22 rings
6 12 14 19 20 23 24 rings

> <PUBCHEM_HEAVY_ATOM_COUNT>
29

> <PUBCHEM_ATOM_DEF_STEREO_COUNT>
2

> <PUBCHEM_ATOM_UDEF_STEREO_COUNT>
0

> <PUBCHEM_BOND_DEF_STEREO_COUNT>
0

> <PUBCHEM_BOND_UDEF_STEREO_COUNT>
0

> <PUBCHEM_ISOTOPIC_ATOM_COUNT>
0

> <PUBCHEM_COMPONENT_COUNT>
1

> <PUBCHEM_CACTVS_TAUTO_COUNT>
1

> <PUBCHEM_CONFORMER_ID>
0002A8C500000002

> <PUBCHEM_MMFF94_ENERGY>
138.3868

> <PUBCHEM_FEATURE_SELFOVERLAP>
45.835

> <PUBCHEM_SHAPE_FINGERPRINT>
10006869 2 17980204416094083305
10906281 52 18268972242007630601
11578080 2 14203883218372168801
11828532 37 17773876381870174347
12035758 1 18267307534163527099
12236239 1 15554455080228571567
12293681 4 18271804584002798282
12788726 201 18272647957172396664
13140716 1 17899712171811050338
13402501 40 18341336574288741432
14363568 33 18121771725863184256
14713325 29 18263081192330047376
14787075 74 18130225943561460838
14790565 3 17260463674111614212
14866123 147 17762052546724193491
14955137 171 18191016808027796388
15420108 30 17326626799318834128
16945 1 18264217906805974093
17357779 13 18410586071543207677
19591789 44 17329703739854274405
20510252 161 18272092737611449132
20600515 1 17775001245987492437
20642791 13 18409731802690561789
20905425 154 18339652263934602590
22182313 1 18041282188147928798
23419403 2 17532394103955292545
23557571 272 18343587351625773676
23558518 356 18122618624910503144
23559900 14 17916307125877302644
23845131 108 17403730546697294089
2748010 2 18188787127084948860
3380486 145 18267849615019251570
3493558 16 17057793019720169516
35225 105 16967678472409404095
5104073 3 18189905399414425170
6004065 56 18193286199964488879
81228 2 18127669716370993341
9709674 26 18264212594216265630

> <PUBCHEM_SHAPE_MULTIPOLES>
561.59
7.68
4.7
1.65
2.54
5.1
0.05
-5.24
1.12
-1.22
0.34
0.11
-0.9
1.82

> <PUBCHEM_SHAPE_SELFOVERLAP>
1220.231

> <PUBCHEM_SHAPE_VOLUME>
307.6

> <PUBCHEM_COORDINATE_TYPE>
2
5
10

$$$$

