4215
  -OEChem-06251223582D

 76 75  0     1  0  0  0  0  0999 V2000
    3.7320    6.0485    0.0000 P   0  0  3  0  0  0  0  0  0  0  0  0
    9.7942    5.5485    0.0000 F   0  0  0  0  0  0  0  0  0  0  0  0
    9.4282    6.9146    0.0000 F   0  0  0  0  0  0  0  0  0  0  0  0
    8.4282    5.1825    0.0000 F   0  0  0  0  0  0  0  0  0  0  0  0
    6.3301    4.5485    0.0000 O   0  0  0  0  0  0  0  0  0  0  0  0
    4.5981    6.5485    0.0000 O   0  0  0  0  0  0  0  0  0  0  0  0
    7.1962    6.0485    0.0000 O   0  0  0  0  0  0  0  0  0  0  0  0
    2.8660    5.5485    0.0000 O   0  0  0  0  0  0  0  0  0  0  0  0
    3.2320    6.9146    0.0000 O   0  0  0  0  0  0  0  0  0  0  0  0
    4.2320    5.1825    0.0000 O   0  0  0  0  0  0  0  0  0  0  0  0
    9.7942   -1.4515    0.0000 C   0  0  0  0  0  0  0  0  0  0  0  0
    8.9282   -0.9515    0.0000 C   0  0  0  0  0  0  0  0  0  0  0  0
    9.7942   -2.4515    0.0000 C   0  0  0  0  0  0  0  0  0  0  0  0
    8.9282    0.0485    0.0000 C   0  0  0  0  0  0  0  0  0  0  0  0
   10.6603   -2.9515    0.0000 C   0  0  0  0  0  0  0  0  0  0  0  0
    8.0622    0.5485    0.0000 C   0  0  0  0  0  0  0  0  0  0  0  0
   10.6603   -3.9515    0.0000 C   0  0  0  0  0  0  0  0  0  0  0  0
    8.0622    1.5485    0.0000 C   0  0  0  0  0  0  0  0  0  0  0  0
   11.5263   -4.4515    0.0000 C   0  0  0  0  0  0  0  0  0  0  0  0
    7.1962    2.0485    0.0000 C   0  0  0  0  0  0  0  0  0  0  0  0
   11.5263   -5.4515    0.0000 C   0  0  0  0  0  0  0  0  0  0  0  0
    7.1962    3.0485    0.0000 C   0  0  0  0  0  0  0  0  0  0  0  0
   12.3923   -5.9515    0.0000 C   0  0  0  0  0  0  0  0  0  0  0  0
    6.3301    3.5485    0.0000 C   0  0  0  0  0  0  0  0  0  0  0  0
   12.3923   -6.9515    0.0000 C   0  0  0  0  0  0  0  0  0  0  0  0
    5.4641    5.0485    0.0000 C   0  0  0  0  0  0  0  0  0  0  0  0
    5.4641    6.0485    0.0000 C   0  0  3  0  0  0  0  0  0  0  0  0
   13.2583   -7.4515    0.0000 C   0  0  0  0  0  0  0  0  0  0  0  0
    6.3301    6.5485    0.0000 C   0  0  0  0  0  0  0  0  0  0  0  0
    8.0622    6.5485    0.0000 C   0  0  0  0  0  0  0  0  0  0  0  0
    8.9282    6.0485    0.0000 C   0  0  0  0  0  0  0  0  0  0  0  0
    2.0000    6.0485    0.0000 C   0  0  0  0  0  0  0  0  0  0  0  0
   10.4048   -1.5591    0.0000 H   0  0  0  0  0  0  0  0  0  0  0  0
   10.0063   -0.8689    0.0000 H   0  0  0  0  0  0  0  0  0  0  0  0
    8.3176   -0.8438    0.0000 H   0  0  0  0  0  0  0  0  0  0  0  0
    8.7162   -1.5341    0.0000 H   0  0  0  0  0  0  0  0  0  0  0  0
    9.1836   -2.3438    0.0000 H   0  0  0  0  0  0  0  0  0  0  0  0
    9.5822   -3.0341    0.0000 H   0  0  0  0  0  0  0  0  0  0  0  0
    9.5388   -0.0591    0.0000 H   0  0  0  0  0  0  0  0  0  0  0  0
    9.1403    0.6311    0.0000 H   0  0  0  0  0  0  0  0  0  0  0  0
   11.2708   -3.0591    0.0000 H   0  0  0  0  0  0  0  0  0  0  0  0
   10.8723   -2.3689    0.0000 H   0  0  0  0  0  0  0  0  0  0  0  0
    7.4516    0.6562    0.0000 H   0  0  0  0  0  0  0  0  0  0  0  0
    7.8501   -0.0341    0.0000 H   0  0  0  0  0  0  0  0  0  0  0  0
   10.0497   -3.8438    0.0000 H   0  0  0  0  0  0  0  0  0  0  0  0
   10.4482   -4.5341    0.0000 H   0  0  0  0  0  0  0  0  0  0  0  0
    8.6728    1.4409    0.0000 H   0  0  0  0  0  0  0  0  0  0  0  0
    8.2742    2.1311    0.0000 H   0  0  0  0  0  0  0  0  0  0  0  0
   12.1369   -4.5591    0.0000 H   0  0  0  0  0  0  0  0  0  0  0  0
   11.7383   -3.8689    0.0000 H   0  0  0  0  0  0  0  0  0  0  0  0
    6.5856    2.1562    0.0000 H   0  0  0  0  0  0  0  0  0  0  0  0
    6.9841    1.4659    0.0000 H   0  0  0  0  0  0  0  0  0  0  0  0
   10.9157   -5.3438    0.0000 H   0  0  0  0  0  0  0  0  0  0  0  0
   11.3142   -6.0341    0.0000 H   0  0  0  0  0  0  0  0  0  0  0  0
    7.8067    2.9409    0.0000 H   0  0  0  0  0  0  0  0  0  0  0  0
    7.4082    3.6311    0.0000 H   0  0  0  0  0  0  0  0  0  0  0  0
   13.0029   -6.0591    0.0000 H   0  0  0  0  0  0  0  0  0  0  0  0
   12.6044   -5.3689    0.0000 H   0  0  0  0  0  0  0  0  0  0  0  0
    5.7196    3.6562    0.0000 H   0  0  0  0  0  0  0  0  0  0  0  0
    6.1181    2.9659    0.0000 H   0  0  0  0  0  0  0  0  0  0  0  0
   11.7817   -6.8438    0.0000 H   0  0  0  0  0  0  0  0  0  0  0  0
   12.1803   -7.5341    0.0000 H   0  0  0  0  0  0  0  0  0  0  0  0
    4.8535    5.1562    0.0000 H   0  0  0  0  0  0  0  0  0  0  0  0
    5.2520    4.4659    0.0000 H   0  0  0  0  0  0  0  0  0  0  0  0
    5.4641    6.6685    0.0000 H   0  0  0  0  0  0  0  0  0  0  0  0
   12.9483   -7.9884    0.0000 H   0  0  0  0  0  0  0  0  0  0  0  0
   13.7953   -7.7615    0.0000 H   0  0  0  0  0  0  0  0  0  0  0  0
   13.5683   -6.9145    0.0000 H   0  0  0  0  0  0  0  0  0  0  0  0
    6.7287    7.0235    0.0000 H   0  0  0  0  0  0  0  0  0  0  0  0
    5.9316    7.0235    0.0000 H   0  0  0  0  0  0  0  0  0  0  0  0
    8.4607    7.0235    0.0000 H   0  0  0  0  0  0  0  0  0  0  0  0
    7.6636    7.0235    0.0000 H   0  0  0  0  0  0  0  0  0  0  0  0
    3.5420    7.4515    0.0000 H   0  0  0  0  0  0  0  0  0  0  0  0
    2.3100    6.5855    0.0000 H   0  0  0  0  0  0  0  0  0  0  0  0
    1.4631    6.3585    0.0000 H   0  0  0  0  0  0  0  0  0  0  0  0
    1.6900    5.5116    0.0000 H   0  0  0  0  0  0  0  0  0  0  0  0
  1  6  1  0  0  0  0
  1  8  1  0  0  0  0
  1  9  1  0  0  0  0
  1 10  2  0  0  0  0
  2 31  1  0  0  0  0
  3 31  1  0  0  0  0
  4 31  1  0  0  0  0
  5 24  1  0  0  0  0
  5 26  1  0  0  0  0
  6 27  1  0  0  0  0
  7 29  1  0  0  0  0
  7 30  1  0  0  0  0
  8 32  1  0  0  0  0
  9 73  1  0  0  0  0
 11 12  1  0  0  0  0
 11 13  1  0  0  0  0
 11 33  1  0  0  0  0
 11 34  1  0  0  0  0
 12 14  1  0  0  0  0
 12 35  1  0  0  0  0
 12 36  1  0  0  0  0
 13 15  1  0  0  0  0
 13 37  1  0  0  0  0
 13 38  1  0  0  0  0
 14 16  1  0  0  0  0
 14 39  1  0  0  0  0
 14 40  1  0  0  0  0
 15 17  1  0  0  0  0
 15 41  1  0  0  0  0
 15 42  1  0  0  0  0
 16 18  1  0  0  0  0
 16 43  1  0  0  0  0
 16 44  1  0  0  0  0
 17 19  1  0  0  0  0
 17 45  1  0  0  0  0
 17 46  1  0  0  0  0
 18 20  1  0  0  0  0
 18 47  1  0  0  0  0
 18 48  1  0  0  0  0
 19 21  1  0  0  0  0
 19 49  1  0  0  0  0
 19 50  1  0  0  0  0
 20 22  1  0  0  0  0
 20 51  1  0  0  0  0
 20 52  1  0  0  0  0
 21 23  1  0  0  0  0
 21 53  1  0  0  0  0
 21 54  1  0  0  0  0
 22 24  1  0  0  0  0
 22 55  1  0  0  0  0
 22 56  1  0  0  0  0
 23 25  1  0  0  0  0
 23 57  1  0  0  0  0
 23 58  1  0  0  0  0
 24 59  1  0  0  0  0
 24 60  1  0  0  0  0
 25 28  1  0  0  0  0
 25 61  1  0  0  0  0
 25 62  1  0  0  0  0
 26 27  1  0  0  0  0
 26 63  1  0  0  0  0
 26 64  1  0  0  0  0
 27 29  1  0  0  0  0
 27 65  1  0  0  0  0
 28 66  1  0  0  0  0
 28 67  1  0  0  0  0
 28 68  1  0  0  0  0
 29 69  1  0  0  0  0
 29 70  1  0  0  0  0
 30 31  1  0  0  0  0
 30 71  1  0  0  0  0
 30 72  1  0  0  0  0
 32 74  1  0  0  0  0
 32 75  1  0  0  0  0
 32 76  1  0  0  0  0
M  END
> <PUBCHEM_COMPOUND_CID>
4215

> <PUBCHEM_COMPOUND_CANONICALIZED>
1

> <PUBCHEM_CACTVS_COMPLEXITY>
465

> <PUBCHEM_CACTVS_HBOND_ACCEPTOR>
9

> <PUBCHEM_CACTVS_HBOND_DONOR>
1

> <PUBCHEM_CACTVS_ROTATABLE_BOND>
23

> <PUBCHEM_CACTVS_SUBSKEYS>
AAADcfB4OYIAAAAAAAAAAAAAAAAAAAAAAAAAAAAAAAAAAAAAAAAAGwAACCAACBSggBICAAAABRAAQAAAAIAAAAAAAAAAAAAAAAABAAIAAAACAAAFAAACAAGAwKAAAAAAAAAAAAAAAAAAAAAAAAAAAAAAAA==

> <PUBCHEM_IUPAC_OPENEYE_NAME>
[1-(hexadecoxymethyl)-2-(2,2,2-trifluoroethoxy)ethyl] methyl hydrogen phosphate

> <PUBCHEM_IUPAC_CAS_NAME>
[1-hexadecoxy-3-(2,2,2-trifluoroethoxy)propan-2-yl] methyl hydrogen phosphate

> <PUBCHEM_IUPAC_NAME>
[1-hexadecoxy-3-(2,2,2-trifluoroethoxy)propan-2-yl] methyl hydrogen phosphate

> <PUBCHEM_IUPAC_SYSTEMATIC_NAME>
[1-hexadecoxy-3-[2,2,2-tris(fluoranyl)ethoxy]propan-2-yl] methyl hydrogen phosphate

> <PUBCHEM_IUPAC_TRADITIONAL_NAME>
[1-(cetyloxymethyl)-2-(2,2,2-trifluoroethoxy)ethyl] methyl hydrogen phosphate

> <PUBCHEM_IUPAC_INCHI>
InChI=1S/C22H44F3O6P/c1-3-4-5-6-7-8-9-10-11-12-13-14-15-16-17-29-18-21(31-32(26,27)28-2)19-30-20-22(23,24)25/h21H,3-20H2,1-2H3,(H,26,27)

> <PUBCHEM_IUPAC_INCHIKEY>
XPTFBVFCGHXMRK-UHFFFAOYSA-N

> <PUBCHEM_XLOGP3_AA>
7.6

> <PUBCHEM_EXACT_MASS>
492.28276

> <PUBCHEM_MOLECULAR_FORMULA>
C22H44F3O6P

> <PUBCHEM_MOLECULAR_WEIGHT>
492.550132

> <PUBCHEM_OPENEYE_CAN_SMILES>
CCCCCCCCCCCCCCCCOCC(COCC(F)(F)F)OP(=O)(O)OC

> <PUBCHEM_OPENEYE_ISO_SMILES>
CCCCCCCCCCCCCCCCOCC(COCC(F)(F)F)OP(=O)(O)OC

> <PUBCHEM_CACTVS_TPSA>
74.2

> <PUBCHEM_MONOISOTOPIC_WEIGHT>
492.28276

> <PUBCHEM_TOTAL_CHARGE>
0

> <PUBCHEM_HEAVY_ATOM_COUNT>
32

> <PUBCHEM_ATOM_DEF_STEREO_COUNT>
0

> <PUBCHEM_ATOM_UDEF_STEREO_COUNT>
1

> <PUBCHEM_BOND_DEF_STEREO_COUNT>
0

> <PUBCHEM_BOND_UDEF_STEREO_COUNT>
0

> <PUBCHEM_ISOTOPIC_ATOM_COUNT>
0

> <PUBCHEM_COMPONENT_COUNT>
1

> <PUBCHEM_CACTVS_TAUTO_COUNT>
1

> <PUBCHEM_COORDINATE_TYPE>
1
5
255

> <PUBCHEM_BONDANNOTATIONS>
27  29  3

$$$$

