5459971
  -OEChem-07051212492D

 27 26  0     1  0  0  0  0  0999 V2000
    6.0010    0.7500    0.0000 O   0  0  0  0  0  0  0  0  0  0  0  0
    9.4651    0.7500    0.0000 O   0  0  0  0  0  0  0  0  0  0  0  0
    6.8671   -0.7500    0.0000 O   0  0  0  0  0  0  0  0  0  0  0  0
    2.5369    0.7500    0.0000 O   0  0  0  0  0  0  0  0  0  0  0  0
    3.4030   -0.7500    0.0000 O   0  0  0  0  0  0  0  0  0  0  0  0
    5.1350    0.2500    0.0000 C   0  0  1  0  0  0  0  0  0  0  0  0
    7.7331    0.7500    0.0000 C   0  0  0  0  0  0  0  0  0  0  0  0
    8.5991    0.2500    0.0000 C   0  0  1  0  0  0  0  0  0  0  0  0
    4.2690    0.7500    0.0000 C   0  0  0  0  0  0  0  0  0  0  0  0
    5.1350   -0.7500    0.0000 C   0  0  0  0  0  0  0  0  0  0  0  0
    6.8671    0.2500    0.0000 C   0  0  0  0  0  0  0  0  0  0  0  0
    8.5991   -0.7500    0.0000 C   0  0  0  0  0  0  0  0  0  0  0  0
    3.4030    0.2500    0.0000 C   0  0  0  0  0  0  0  0  0  0  0  0
    5.1350    0.8700    0.0000 H   0  0  0  0  0  0  0  0  0  0  0  0
    8.1316    1.2250    0.0000 H   0  0  0  0  0  0  0  0  0  0  0  0
    7.3346    1.2250    0.0000 H   0  0  0  0  0  0  0  0  0  0  0  0
    8.5991    0.8700    0.0000 H   0  0  0  0  0  0  0  0  0  0  0  0
    4.6675    1.2250    0.0000 H   0  0  0  0  0  0  0  0  0  0  0  0
    3.8705    1.2250    0.0000 H   0  0  0  0  0  0  0  0  0  0  0  0
    4.5150   -0.7500    0.0000 H   0  0  0  0  0  0  0  0  0  0  0  0
    5.1350   -1.3700    0.0000 H   0  0  0  0  0  0  0  0  0  0  0  0
    5.7550   -0.7500    0.0000 H   0  0  0  0  0  0  0  0  0  0  0  0
    7.9791   -0.7500    0.0000 H   0  0  0  0  0  0  0  0  0  0  0  0
    8.5991   -1.3700    0.0000 H   0  0  0  0  0  0  0  0  0  0  0  0
    9.2191   -0.7500    0.0000 H   0  0  0  0  0  0  0  0  0  0  0  0
   10.0021    0.4400    0.0000 H   0  0  0  0  0  0  0  0  0  0  0  0
    2.0000    0.4400    0.0000 H   0  0  0  0  0  0  0  0  0  0  0  0
  6  1  1  6  0  0  0
  1 11  1  0  0  0  0
  8  2  1  6  0  0  0
  2 26  1  0  0  0  0
  3 11  2  0  0  0  0
  4 13  1  0  0  0  0
  4 27  1  0  0  0  0
  5 13  2  0  0  0  0
  6  9  1  0  0  0  0
  6 10  1  0  0  0  0
  6 14  1  0  0  0  0
  7  8  1  0  0  0  0
  7 11  1  0  0  0  0
  7 15  1  0  0  0  0
  7 16  1  0  0  0  0
  8 12  1  0  0  0  0
  8 17  1  0  0  0  0
  9 13  1  0  0  0  0
  9 18  1  0  0  0  0
  9 19  1  0  0  0  0
 10 20  1  0  0  0  0
 10 21  1  0  0  0  0
 10 22  1  0  0  0  0
 12 23  1  0  0  0  0
 12 24  1  0  0  0  0
 12 25  1  0  0  0  0
M  END
> <PUBCHEM_COMPOUND_CID>
5459971

> <PUBCHEM_COMPOUND_CANONICALIZED>
1

> <PUBCHEM_CACTVS_COMPLEXITY>
189

> <PUBCHEM_CACTVS_HBOND_ACCEPTOR>
5

> <PUBCHEM_CACTVS_HBOND_DONOR>
2

> <PUBCHEM_CACTVS_ROTATABLE_BOND>
6

> <PUBCHEM_CACTVS_SUBSKEYS>
AAADccBwOAAAAAAAAAAAAAAAAAAAAAAAAAAAAAAAAAAAAAAAAAAAGgAACAAACBSggAICCAAABgAIAACQCAAAAAAAAAAAAAEAAAAAEBQAAAACQAAFIAAAAAAAAAAAAAAAAAAAAAAAAAAAAAAAAAAAAAAAAA==

> <PUBCHEM_IUPAC_OPENEYE_NAME>
(3R)-3-[(3R)-3-hydroxybutanoyl]oxybutanoic acid

> <PUBCHEM_IUPAC_CAS_NAME>
(3R)-3-[(3R)-3-hydroxy-1-oxobutoxy]butanoic acid

> <PUBCHEM_IUPAC_NAME>
(3R)-3-[(3R)-3-hydroxybutanoyl]oxybutanoic acid

> <PUBCHEM_IUPAC_SYSTEMATIC_NAME>
(3R)-3-[(3R)-3-oxidanylbutanoyl]oxybutanoic acid

> <PUBCHEM_IUPAC_TRADITIONAL_NAME>
(3R)-3-[(3R)-3-hydroxybutanoyl]oxybutyric acid

> <PUBCHEM_IUPAC_INCHI>
InChI=1S/C8H14O5/c1-5(9)3-8(12)13-6(2)4-7(10)11/h5-6,9H,3-4H2,1-2H3,(H,10,11)/t5-,6-/m1/s1

> <PUBCHEM_IUPAC_INCHIKEY>
RILHUWWTCSDPAN-PHDIDXHHSA-N

> <PUBCHEM_XLOGP3_AA>
-0.3

> <PUBCHEM_EXACT_MASS>
190.084124

> <PUBCHEM_MOLECULAR_FORMULA>
C8H14O5

> <PUBCHEM_MOLECULAR_WEIGHT>
190.19376

> <PUBCHEM_OPENEYE_CAN_SMILES>
CC(CC(=O)OC(C)CC(=O)O)O

> <PUBCHEM_OPENEYE_ISO_SMILES>
C[C@H](CC(=O)O[C@H](C)CC(=O)O)O

> <PUBCHEM_CACTVS_TPSA>
83.8

> <PUBCHEM_MONOISOTOPIC_WEIGHT>
190.084124

> <PUBCHEM_TOTAL_CHARGE>
0

> <PUBCHEM_HEAVY_ATOM_COUNT>
13

> <PUBCHEM_ATOM_DEF_STEREO_COUNT>
2

> <PUBCHEM_ATOM_UDEF_STEREO_COUNT>
0

> <PUBCHEM_BOND_DEF_STEREO_COUNT>
0

> <PUBCHEM_BOND_UDEF_STEREO_COUNT>
0

> <PUBCHEM_ISOTOPIC_ATOM_COUNT>
0

> <PUBCHEM_COMPONENT_COUNT>
1

> <PUBCHEM_CACTVS_TAUTO_COUNT>
1

> <PUBCHEM_COORDINATE_TYPE>
1
5
255

> <PUBCHEM_BONDANNOTATIONS>
6  1  6
8  2  6

$$$$

