40413
  -OEChem-07051213002D

 39 41  0     1  0  0  0  0  0999 V2000
    7.1962   -0.2673    0.0000 O   0  0  0  0  0  0  0  0  0  0  0  0
    5.4641   -1.2673    0.0000 O   0  0  0  0  0  0  0  0  0  0  0  0
    4.5981    0.2327    0.0000 N   0  0  0  0  0  0  0  0  0  0  0  0
    6.3301    0.2327    0.0000 C   0  0  3  0  0  0  0  0  0  0  0  0
    9.7942    0.2327    0.0000 C   0  0  0  0  0  0  0  0  0  0  0  0
    9.7942    1.2327    0.0000 C   0  0  0  0  0  0  0  0  0  0  0  0
    8.0622    0.2327    0.0000 C   0  0  0  0  0  0  0  0  0  0  0  0
    8.9282   -0.2673    0.0000 C   0  0  0  0  0  0  0  0  0  0  0  0
    8.9282    1.7327    0.0000 C   0  0  0  0  0  0  0  0  0  0  0  0
    8.0622    1.2327    0.0000 C   0  0  0  0  0  0  0  0  0  0  0  0
    5.4641   -0.2673    0.0000 C   0  0  0  0  0  0  0  0  0  0  0  0
    6.3301    1.2327    0.0000 C   0  0  0  0  0  0  0  0  0  0  0  0
   10.6882   -0.3020    0.0000 C   0  0  0  0  0  0  0  0  0  0  0  0
   10.6882    1.7673    0.0000 C   0  0  0  0  0  0  0  0  0  0  0  0
   11.5942    0.2119    0.0000 C   0  0  0  0  0  0  0  0  0  0  0  0
   11.5942    1.2535    0.0000 C   0  0  0  0  0  0  0  0  0  0  0  0
    3.7320   -0.2673    0.0000 C   0  0  0  0  0  0  0  0  0  0  0  0
    2.8660    0.2327    0.0000 C   0  0  0  0  0  0  0  0  0  0  0  0
    3.7320   -1.2673    0.0000 C   0  0  0  0  0  0  0  0  0  0  0  0
    2.0000   -0.2673    0.0000 C   0  0  0  0  0  0  0  0  0  0  0  0
    2.8660   -1.7673    0.0000 C   0  0  0  0  0  0  0  0  0  0  0  0
    2.0000   -1.2673    0.0000 C   0  0  0  0  0  0  0  0  0  0  0  0
    6.8671    0.5427    0.0000 H   0  0  0  0  0  0  0  0  0  0  0  0
    8.9282   -0.8873    0.0000 H   0  0  0  0  0  0  0  0  0  0  0  0
    8.9282    2.3527    0.0000 H   0  0  0  0  0  0  0  0  0  0  0  0
    7.5252    1.5427    0.0000 H   0  0  0  0  0  0  0  0  0  0  0  0
    6.9501    1.2327    0.0000 H   0  0  0  0  0  0  0  0  0  0  0  0
    6.3301    1.8527    0.0000 H   0  0  0  0  0  0  0  0  0  0  0  0
    5.7101    1.2327    0.0000 H   0  0  0  0  0  0  0  0  0  0  0  0
   10.6810   -0.9220    0.0000 H   0  0  0  0  0  0  0  0  0  0  0  0
   10.6810    2.3873    0.0000 H   0  0  0  0  0  0  0  0  0  0  0  0
    4.5981    0.8527    0.0000 H   0  0  0  0  0  0  0  0  0  0  0  0
   12.1300   -0.1002    0.0000 H   0  0  0  0  0  0  0  0  0  0  0  0
   12.1300    1.5656    0.0000 H   0  0  0  0  0  0  0  0  0  0  0  0
    2.8660    0.8527    0.0000 H   0  0  0  0  0  0  0  0  0  0  0  0
    4.2690   -1.5773    0.0000 H   0  0  0  0  0  0  0  0  0  0  0  0
    1.4631    0.0427    0.0000 H   0  0  0  0  0  0  0  0  0  0  0  0
    2.8660   -2.3873    0.0000 H   0  0  0  0  0  0  0  0  0  0  0  0
    1.4631   -1.5773    0.0000 H   0  0  0  0  0  0  0  0  0  0  0  0
  1  4  1  0  0  0  0
  1  7  1  0  0  0  0
  2 11  2  0  0  0  0
  3 11  1  0  0  0  0
  3 17  1  0  0  0  0
  3 32  1  0  0  0  0
  4 11  1  0  0  0  0
  4 12  1  0  0  0  0
  4 23  1  0  0  0  0
  5  6  1  0  0  0  0
  5  8  1  0  0  0  0
  5 13  2  0  0  0  0
  6  9  1  0  0  0  0
  6 14  2  0  0  0  0
  7  8  2  0  0  0  0
  7 10  1  0  0  0  0
  8 24  1  0  0  0  0
  9 10  2  0  0  0  0
  9 25  1  0  0  0  0
 10 26  1  0  0  0  0
 12 27  1  0  0  0  0
 12 28  1  0  0  0  0
 12 29  1  0  0  0  0
 13 15  1  0  0  0  0
 13 30  1  0  0  0  0
 14 16  1  0  0  0  0
 14 31  1  0  0  0  0
 15 16  2  0  0  0  0
 15 33  1  0  0  0  0
 16 34  1  0  0  0  0
 17 18  2  0  0  0  0
 17 19  1  0  0  0  0
 18 20  1  0  0  0  0
 18 35  1  0  0  0  0
 19 21  2  0  0  0  0
 19 36  1  0  0  0  0
 20 22  2  0  0  0  0
 20 37  1  0  0  0  0
 21 22  1  0  0  0  0
 21 38  1  0  0  0  0
 22 39  1  0  0  0  0
M  END
> <PUBCHEM_COMPOUND_CID>
40413

> <PUBCHEM_COMPOUND_CANONICALIZED>
1

> <PUBCHEM_CACTVS_COMPLEXITY>
364

> <PUBCHEM_CACTVS_HBOND_ACCEPTOR>
2

> <PUBCHEM_CACTVS_HBOND_DONOR>
1

> <PUBCHEM_CACTVS_ROTATABLE_BOND>
4

> <PUBCHEM_CACTVS_SUBSKEYS>
AAADceB6MAAAAAAAAAAAAAAAAAAAAAAAAAAwYMAAAAAAAADBVAAAHgAQAAAADByhmAIyxsLABACIAiVSUAKCCAAhIgAIiAFGbIgOJiLEsZ+HOCjk1BHY6AeQwLAOoAABAAAQAABAAAIAACAAAAAAAAAAAA==

> <PUBCHEM_IUPAC_OPENEYE_NAME>
2-(2-naphthyloxy)-N-phenyl-propanamide

> <PUBCHEM_IUPAC_CAS_NAME>
2-(2-naphthalenyloxy)-N-phenylpropanamide

> <PUBCHEM_IUPAC_NAME>
2-naphthalen-2-yloxy-N-phenylpropanamide

> <PUBCHEM_IUPAC_SYSTEMATIC_NAME>
2-naphthalen-2-yloxy-N-phenyl-propanamide

> <PUBCHEM_IUPAC_TRADITIONAL_NAME>
2-(2-naphthoxy)-N-phenyl-propionamide

> <PUBCHEM_IUPAC_INCHI>
InChI=1S/C19H17NO2/c1-14(19(21)20-17-9-3-2-4-10-17)22-18-12-11-15-7-5-6-8-16(15)13-18/h2-14H,1H3,(H,20,21)

> <PUBCHEM_IUPAC_INCHIKEY>
LVKTWOXHRYGDMM-UHFFFAOYSA-N

> <PUBCHEM_XLOGP3_AA>
4.4

> <PUBCHEM_EXACT_MASS>
291.125929

> <PUBCHEM_MOLECULAR_FORMULA>
C19H17NO2

> <PUBCHEM_MOLECULAR_WEIGHT>
291.34378

> <PUBCHEM_OPENEYE_CAN_SMILES>
CC(C(=O)NC1=CC=CC=C1)OC2=CC3=CC=CC=C3C=C2

> <PUBCHEM_OPENEYE_ISO_SMILES>
CC(C(=O)NC1=CC=CC=C1)OC2=CC3=CC=CC=C3C=C2

> <PUBCHEM_CACTVS_TPSA>
38.3

> <PUBCHEM_MONOISOTOPIC_WEIGHT>
291.125929

> <PUBCHEM_TOTAL_CHARGE>
0

> <PUBCHEM_HEAVY_ATOM_COUNT>
22

> <PUBCHEM_ATOM_DEF_STEREO_COUNT>
0

> <PUBCHEM_ATOM_UDEF_STEREO_COUNT>
1

> <PUBCHEM_BOND_DEF_STEREO_COUNT>
0

> <PUBCHEM_BOND_UDEF_STEREO_COUNT>
0

> <PUBCHEM_ISOTOPIC_ATOM_COUNT>
0

> <PUBCHEM_COMPONENT_COUNT>
1

> <PUBCHEM_CACTVS_TAUTO_COUNT>
3

> <PUBCHEM_COORDINATE_TYPE>
1
5
255

> <PUBCHEM_BONDANNOTATIONS>
13  15  8
14  16  8
15  16  8
17  18  8
17  19  8
18  20  8
19  21  8
20  22  8
21  22  8
4  12  3
5  13  8
5  6  8
5  8  8
6  14  8
6  9  8
7  10  8
7  8  8
9  10  8

$$$$

