441781
  -OEChem-07051212562D

 38 40  0     0  0  0  0  0  0999 V2000
    5.9213    1.4961    0.0000 O   0  0  0  0  0  0  0  0  0  0  0  0
    8.0438    2.0951    0.0000 O   0  0  0  0  0  0  0  0  0  0  0  0
    3.7989    2.0951    0.0000 O   0  0  0  0  0  0  0  0  0  0  0  0
    9.4260    0.5836    0.0000 O   0  0  0  0  0  0  0  0  0  0  0  0
    8.7931   -1.3645    0.0000 O   0  0  0  0  0  0  0  0  0  0  0  0
    2.4166    0.5836    0.0000 O   0  0  0  0  0  0  0  0  0  0  0  0
    6.4213   -0.0427    0.0000 C   0  0  0  0  0  0  0  0  0  0  0  0
    5.4213   -0.0427    0.0000 C   0  0  0  0  0  0  0  0  0  0  0  0
    6.7304    0.9083    0.0000 C   0  0  0  0  0  0  0  0  0  0  0  0
    5.1123    0.9083    0.0000 C   0  0  0  0  0  0  0  0  0  0  0  0
    7.7458    1.1406    0.0000 C   0  0  0  0  0  0  0  0  0  0  0  0
    7.1063   -0.8275    0.0000 C   0  0  0  0  0  0  0  0  0  0  0  0
    4.0969    1.1406    0.0000 C   0  0  0  0  0  0  0  0  0  0  0  0
    4.7364   -0.8275    0.0000 C   0  0  0  0  0  0  0  0  0  0  0  0
    8.4487    0.3719    0.0000 C   0  0  0  0  0  0  0  0  0  0  0  0
    8.1268   -0.6188    0.0000 C   0  0  0  0  0  0  0  0  0  0  0  0
    3.3940    0.3719    0.0000 C   0  0  0  0  0  0  0  0  0  0  0  0
    3.7158   -0.6188    0.0000 C   0  0  0  0  0  0  0  0  0  0  0  0
    9.0194    2.3143    0.0000 C   0  0  0  0  0  0  0  0  0  0  0  0
   10.0980   -0.1570    0.0000 C   0  0  0  0  0  0  0  0  0  0  0  0
    2.8232    2.3143    0.0000 C   0  0  0  0  0  0  0  0  0  0  0  0
    8.4804   -2.3143    0.0000 C   0  0  0  0  0  0  0  0  0  0  0  0
    6.9079   -1.4149    0.0000 H   0  0  0  0  0  0  0  0  0  0  0  0
    4.9348   -1.4149    0.0000 H   0  0  0  0  0  0  0  0  0  0  0  0
    3.3028   -1.0811    0.0000 H   0  0  0  0  0  0  0  0  0  0  0  0
    9.1553    1.7094    0.0000 H   0  0  0  0  0  0  0  0  0  0  0  0
    9.6244    2.4502    0.0000 H   0  0  0  0  0  0  0  0  0  0  0  0
    8.8835    2.9193    0.0000 H   0  0  0  0  0  0  0  0  0  0  0  0
    2.0000    0.1244    0.0000 H   0  0  0  0  0  0  0  0  0  0  0  0
    9.6389   -0.5736    0.0000 H   0  0  0  0  0  0  0  0  0  0  0  0
   10.5147   -0.6161    0.0000 H   0  0  0  0  0  0  0  0  0  0  0  0
   10.5572    0.2596    0.0000 H   0  0  0  0  0  0  0  0  0  0  0  0
    2.9591    2.9193    0.0000 H   0  0  0  0  0  0  0  0  0  0  0  0
    2.2183    2.4502    0.0000 H   0  0  0  0  0  0  0  0  0  0  0  0
    2.6873    1.7094    0.0000 H   0  0  0  0  0  0  0  0  0  0  0  0
    7.8915   -2.1205    0.0000 H   0  0  0  0  0  0  0  0  0  0  0  0
    8.2865   -2.9033    0.0000 H   0  0  0  0  0  0  0  0  0  0  0  0
    9.0693   -2.5082    0.0000 H   0  0  0  0  0  0  0  0  0  0  0  0
  1  9  1  0  0  0  0
  1 10  1  0  0  0  0
  2 11  1  0  0  0  0
  2 19  1  0  0  0  0
  3 13  1  0  0  0  0
  3 21  1  0  0  0  0
  4 15  1  0  0  0  0
  4 20  1  0  0  0  0
  5 16  1  0  0  0  0
  5 22  1  0  0  0  0
  6 17  1  0  0  0  0
  6 29  1  0  0  0  0
  7  8  1  0  0  0  0
  7  9  1  0  0  0  0
  7 12  2  0  0  0  0
  8 10  2  0  0  0  0
  8 14  1  0  0  0  0
  9 11  2  0  0  0  0
 10 13  1  0  0  0  0
 11 15  1  0  0  0  0
 12 16  1  0  0  0  0
 12 23  1  0  0  0  0
 13 17  2  0  0  0  0
 14 18  2  0  0  0  0
 14 24  1  0  0  0  0
 15 16  2  0  0  0  0
 17 18  1  0  0  0  0
 18 25  1  0  0  0  0
 19 26  1  0  0  0  0
 19 27  1  0  0  0  0
 19 28  1  0  0  0  0
 20 30  1  0  0  0  0
 20 31  1  0  0  0  0
 20 32  1  0  0  0  0
 21 33  1  0  0  0  0
 21 34  1  0  0  0  0
 21 35  1  0  0  0  0
 22 36  1  0  0  0  0
 22 37  1  0  0  0  0
 22 38  1  0  0  0  0
M  END
> <PUBCHEM_COMPOUND_CID>
441781

> <PUBCHEM_COMPOUND_CANONICALIZED>
1

> <PUBCHEM_CACTVS_COMPLEXITY>
378

> <PUBCHEM_CACTVS_HBOND_ACCEPTOR>
6

> <PUBCHEM_CACTVS_HBOND_DONOR>
1

> <PUBCHEM_CACTVS_ROTATABLE_BOND>
4

> <PUBCHEM_CACTVS_SUBSKEYS>
AAADceB4OAAAAAAAAAAAAAAAAAAAASAAAAAwYAAAAAAAAEgB/AAAGgAACAAADASAmAIyBsAABkCIAqBSAAICCAAkIAAIiAFGiMgNJzaGNB6CeWOl4BULuYfK7PzOoQABCAAIQABCAAIQABCAAAAAAAAAAA==

> <PUBCHEM_IUPAC_OPENEYE_NAME>
4,6,7,8-tetramethoxydibenzofuran-3-ol

> <PUBCHEM_IUPAC_CAS_NAME>
4,6,7,8-tetramethoxy-3-dibenzofuranol

> <PUBCHEM_IUPAC_NAME>
4,6,7,8-tetramethoxydibenzofuran-3-ol

> <PUBCHEM_IUPAC_SYSTEMATIC_NAME>
4,6,7,8-tetramethoxydibenzofuran-3-ol

> <PUBCHEM_IUPAC_TRADITIONAL_NAME>
4,6,7,8-tetramethoxydibenzofuran-3-ol

> <PUBCHEM_IUPAC_INCHI>
InChI=1S/C16H16O6/c1-18-11-7-9-8-5-6-10(17)14(19-2)12(8)22-13(9)16(21-4)15(11)20-3/h5-7,17H,1-4H3

> <PUBCHEM_IUPAC_INCHIKEY>
NUNJCHKNADZUSZ-UHFFFAOYSA-N

> <PUBCHEM_XLOGP3_AA>
3.2

> <PUBCHEM_EXACT_MASS>
304.094688

> <PUBCHEM_MOLECULAR_FORMULA>
C16H16O6

> <PUBCHEM_MOLECULAR_WEIGHT>
304.29464

> <PUBCHEM_OPENEYE_CAN_SMILES>
COC1=C(C(=C2C(=C1)C3=C(O2)C(=C(C=C3)O)OC)OC)OC

> <PUBCHEM_OPENEYE_ISO_SMILES>
COC1=C(C(=C2C(=C1)C3=C(O2)C(=C(C=C3)O)OC)OC)OC

> <PUBCHEM_CACTVS_TPSA>
70.3

> <PUBCHEM_MONOISOTOPIC_WEIGHT>
304.094688

> <PUBCHEM_TOTAL_CHARGE>
0

> <PUBCHEM_HEAVY_ATOM_COUNT>
22

> <PUBCHEM_ATOM_DEF_STEREO_COUNT>
0

> <PUBCHEM_ATOM_UDEF_STEREO_COUNT>
0

> <PUBCHEM_BOND_DEF_STEREO_COUNT>
0

> <PUBCHEM_BOND_UDEF_STEREO_COUNT>
0

> <PUBCHEM_ISOTOPIC_ATOM_COUNT>
0

> <PUBCHEM_COMPONENT_COUNT>
1

> <PUBCHEM_CACTVS_TAUTO_COUNT>
3

> <PUBCHEM_COORDINATE_TYPE>
1
5
255

> <PUBCHEM_BONDANNOTATIONS>
1  10  8
1  9  8
10  13  8
11  15  8
12  16  8
13  17  8
14  18  8
15  16  8
17  18  8
7  12  8
7  8  8
7  9  8
8  10  8
8  14  8
9  11  8

$$$$

