5282318
  -OEChem-07051213042D

 60 61  0     1  0  0  0  0  0999 V2000
    2.0112    0.6200    0.0000 O   0  0  0  0  0  0  0  0  0  0  0  0
    5.4753    2.6200    0.0000 O   0  0  0  0  0  0  0  0  0  0  0  0
    2.8772    2.1200    0.0000 O   0  0  0  0  0  0  0  0  0  0  0  0
    3.7432    2.6200    0.0000 O   0  0  0  0  0  0  0  0  0  0  0  0
    3.4747    9.8869    0.0000 N   0  0  0  0  0  0  0  0  0  0  0  0
    1.7427    6.8869    0.0000 N   0  0  0  0  0  0  0  0  0  0  0  0
    2.6087    8.3869    0.0000 C   0  0  3  0  0  0  0  0  0  0  0  0
    3.4747    8.8869    0.0000 C   0  0  0  0  0  0  0  0  0  0  0  0
    2.5738   10.3207    0.0000 C   0  0  0  0  0  0  0  0  0  0  0  0
    4.3757   10.3207    0.0000 C   0  0  0  0  0  0  0  0  0  0  0  0
    2.6087    7.3868    0.0000 C   0  0  0  0  0  0  0  0  0  0  0  0
    2.9747   12.0775    0.0000 C   0  0  0  0  0  0  0  0  0  0  0  0
    3.9748   12.0775    0.0000 C   0  0  0  0  0  0  0  0  0  0  0  0
    2.3513   11.2957    0.0000 C   0  0  0  0  0  0  0  0  0  0  0  0
    4.5982   11.2956    0.0000 C   0  0  0  0  0  0  0  0  0  0  0  0
    1.7427    8.8869    0.0000 C   0  0  0  0  0  0  0  0  0  0  0  0
    5.1283    9.6005    0.0000 C   0  0  0  0  0  0  0  0  0  0  0  0
    1.8212    9.6006    0.0000 C   0  0  0  0  0  0  0  0  0  0  0  0
    5.5887   11.6180    0.0000 C   0  0  0  0  0  0  0  0  0  0  0  0
    1.3608   11.6180    0.0000 C   0  0  0  0  0  0  0  0  0  0  0  0
    6.1259    9.8999    0.0000 C   0  0  0  0  0  0  0  0  0  0  0  0
    0.8235    9.8999    0.0000 C   0  0  0  0  0  0  0  0  0  0  0  0
    6.3578   10.9154    0.0000 C   0  0  0  0  0  0  0  0  0  0  0  0
    0.5917   10.9154    0.0000 C   0  0  0  0  0  0  0  0  0  0  0  0
    1.7427    5.8869    0.0000 C   0  0  0  0  0  0  0  0  0  0  0  0
    0.8766    7.3869    0.0000 C   0  0  0  0  0  0  0  0  0  0  0  0
    3.7432    0.6200    0.0000 C   0  0  0  0  0  0  0  0  0  0  0  0
    4.6092    1.1200    0.0000 C   0  0  0  0  0  0  0  0  0  0  0  0
    2.8772    1.1200    0.0000 C   0  0  0  0  0  0  0  0  0  0  0  0
    4.6092    2.1200    0.0000 C   0  0  0  0  0  0  0  0  0  0  0  0
    2.6087    9.0068    0.0000 H   0  0  0  0  0  0  0  0  0  0  0  0
    3.6868    8.3042    0.0000 H   0  0  0  0  0  0  0  0  0  0  0  0
    4.0853    8.9945    0.0000 H   0  0  0  0  0  0  0  0  0  0  0  0
    2.8207    6.8042    0.0000 H   0  0  0  0  0  0  0  0  0  0  0  0
    3.2193    7.4945    0.0000 H   0  0  0  0  0  0  0  0  0  0  0  0
    3.1127   12.6819    0.0000 H   0  0  0  0  0  0  0  0  0  0  0  0
    2.4162   12.3465    0.0000 H   0  0  0  0  0  0  0  0  0  0  0  0
    4.5334   12.3465    0.0000 H   0  0  0  0  0  0  0  0  0  0  0  0
    3.8368   12.6819    0.0000 H   0  0  0  0  0  0  0  0  0  0  0  0
    2.0527    9.4238    0.0000 H   0  0  0  0  0  0  0  0  0  0  0  0
    1.2058    9.1969    0.0000 H   0  0  0  0  0  0  0  0  0  0  0  0
    1.4327    8.3499    0.0000 H   0  0  0  0  0  0  0  0  0  0  0  0
    1.9662    8.9977    0.0000 H   0  0  0  0  0  0  0  0  0  0  0  0
    4.9833    8.9977    0.0000 H   0  0  0  0  0  0  0  0  0  0  0  0
    5.7197   12.2240    0.0000 H   0  0  0  0  0  0  0  0  0  0  0  0
    1.2298   12.2240    0.0000 H   0  0  0  0  0  0  0  0  0  0  0  0
    6.5788    9.4764    0.0000 H   0  0  0  0  0  0  0  0  0  0  0  0
    0.3707    9.4765    0.0000 H   0  0  0  0  0  0  0  0  0  0  0  0
    6.9495   11.1004    0.0000 H   0  0  0  0  0  0  0  0  0  0  0  0
    0.0000   11.1005    0.0000 H   0  0  0  0  0  0  0  0  0  0  0  0
    1.1227    5.8869    0.0000 H   0  0  0  0  0  0  0  0  0  0  0  0
    1.7426    5.2669    0.0000 H   0  0  0  0  0  0  0  0  0  0  0  0
    2.3627    5.8869    0.0000 H   0  0  0  0  0  0  0  0  0  0  0  0
    1.1866    7.9238    0.0000 H   0  0  0  0  0  0  0  0  0  0  0  0
    0.3397    7.6969    0.0000 H   0  0  0  0  0  0  0  0  0  0  0  0
    0.5666    6.8499    0.0000 H   0  0  0  0  0  0  0  0  0  0  0  0
    5.1462    0.8100    0.0000 H   0  0  0  0  0  0  0  0  0  0  0  0
    3.7432    0.0000    0.0000 H   0  0  0  0  0  0  0  0  0  0  0  0
    1.4742    0.9300    0.0000 H   0  0  0  0  0  0  0  0  0  0  0  0
    5.4753    3.2400    0.0000 H   0  0  0  0  0  0  0  0  0  0  0  0
  1 29  1  0  0  0  0
  1 59  1  0  0  0  0
  2 30  1  0  0  0  0
  2 60  1  0  0  0  0
  3 29  2  0  0  0  0
  4 30  2  0  0  0  0
  5  8  1  0  0  0  0
  5  9  1  0  0  0  0
  5 10  1  0  0  0  0
  6 11  1  0  0  0  0
  6 25  1  0  0  0  0
  6 26  1  0  0  0  0
  7  8  1  0  0  0  0
  7 11  1  0  0  0  0
  7 16  1  0  0  0  0
  7 31  1  0  0  0  0
  8 32  1  0  0  0  0
  8 33  1  0  0  0  0
  9 14  1  0  0  0  0
  9 18  2  0  0  0  0
 10 15  1  0  0  0  0
 10 17  2  0  0  0  0
 11 34  1  0  0  0  0
 11 35  1  0  0  0  0
 12 13  1  0  0  0  0
 12 14  1  0  0  0  0
 12 36  1  0  0  0  0
 12 37  1  0  0  0  0
 13 15  1  0  0  0  0
 13 38  1  0  0  0  0
 13 39  1  0  0  0  0
 14 20  2  0  0  0  0
 15 19  2  0  0  0  0
 16 40  1  0  0  0  0
 16 41  1  0  0  0  0
 16 42  1  0  0  0  0
 17 21  1  0  0  0  0
 17 44  1  0  0  0  0
 18 22  1  0  0  0  0
 18 43  1  0  0  0  0
 19 23  1  0  0  0  0
 19 45  1  0  0  0  0
 20 24  1  0  0  0  0
 20 46  1  0  0  0  0
 21 23  2  0  0  0  0
 21 47  1  0  0  0  0
 22 24  2  0  0  0  0
 22 48  1  0  0  0  0
 23 49  1  0  0  0  0
 24 50  1  0  0  0  0
 25 51  1  0  0  0  0
 25 52  1  0  0  0  0
 25 53  1  0  0  0  0
 26 54  1  0  0  0  0
 26 55  1  0  0  0  0
 26 56  1  0  0  0  0
 27 28  2  0  0  0  0
 27 29  1  0  0  0  0
 27 58  1  0  0  0  0
 28 30  1  0  0  0  0
 28 57  1  0  0  0  0
M  END
> <PUBCHEM_COMPOUND_CID>
5282318

> <PUBCHEM_COMPOUND_CANONICALIZED>
1

> <PUBCHEM_CACTVS_COMPLEXITY>
436

> <PUBCHEM_CACTVS_HBOND_ACCEPTOR>
6

> <PUBCHEM_CACTVS_HBOND_DONOR>
2

> <PUBCHEM_CACTVS_ROTATABLE_BOND>
6

> <PUBCHEM_CACTVS_SUBSKEYS>
AAADceB7OAAAAAAAAAAAAAAAAAAAAAAAAAAwYAAABYAAAAABQAAAHgAACAAADQjBmAQyyIMAAgCIAiTSSACCAAAhAgAIiAAIZMgIJGLA0ZGEMAhggADI2YcQgMAOAAAAAAACAAAAAAAAAAQAAAAAAAAAAA==

> <PUBCHEM_IUPAC_OPENEYE_NAME>
3-(5,6-dihydrobenzo[b][1]benzazepin-11-yl)-N,N,2-trimethyl-propan-1-amine; maleic acid

> <PUBCHEM_IUPAC_CAS_NAME>
(Z)-2-butenedioic acid; 3-(5,6-dihydrobenzo[b][1]benzazepin-11-yl)-N,N,2-trimethyl-1-propanamine

> <PUBCHEM_IUPAC_NAME>
(Z)-but-2-enedioic acid; 3-(5,6-dihydrobenzo[b][1]benzazepin-11-yl)-N,N,2-trimethylpropan-1-amine

> <PUBCHEM_IUPAC_SYSTEMATIC_NAME>
(Z)-but-2-enedioic acid; 3-(5,6-dihydrobenzo[b][1]benzazepin-11-yl)-N,N,2-trimethyl-propan-1-amine

> <PUBCHEM_IUPAC_TRADITIONAL_NAME>
[3-(5,6-dihydrobenzo[b][1]benzazepin-11-yl)-2-methyl-propyl]-dimethyl-amine; maleic acid

> <PUBCHEM_IUPAC_INCHI>
InChI=1S/C20H26N2.C4H4O4/c1-16(14-21(2)3)15-22-19-10-6-4-8-17(19)12-13-18-9-5-7-11-20(18)22;5-3(6)1-2-4(7)8/h4-11,16H,12-15H2,1-3H3;1-2H,(H,5,6)(H,7,8)/b;2-1-

> <PUBCHEM_IUPAC_INCHIKEY>
YDGHCKHAXOUQOS-BTJKTKAUSA-N

> <PUBCHEM_EXACT_MASS>
410.220557

> <PUBCHEM_MOLECULAR_FORMULA>
C24H30N2O4

> <PUBCHEM_MOLECULAR_WEIGHT>
410.506

> <PUBCHEM_OPENEYE_CAN_SMILES>
CC(CN1C2=CC=CC=C2CCC3=CC=CC=C31)CN(C)C.C(=CC(=O)O)C(=O)O

> <PUBCHEM_OPENEYE_ISO_SMILES>
CC(CN1C2=CC=CC=C2CCC3=CC=CC=C31)CN(C)C.C(=C\C(=O)O)\C(=O)O

> <PUBCHEM_CACTVS_TPSA>
81.1

> <PUBCHEM_MONOISOTOPIC_WEIGHT>
410.220557

> <PUBCHEM_TOTAL_CHARGE>
0

> <PUBCHEM_HEAVY_ATOM_COUNT>
30

> <PUBCHEM_ATOM_DEF_STEREO_COUNT>
0

> <PUBCHEM_ATOM_UDEF_STEREO_COUNT>
1

> <PUBCHEM_BOND_DEF_STEREO_COUNT>
1

> <PUBCHEM_BOND_UDEF_STEREO_COUNT>
0

> <PUBCHEM_ISOTOPIC_ATOM_COUNT>
0

> <PUBCHEM_COMPONENT_COUNT>
2

> <PUBCHEM_CACTVS_TAUTO_COUNT>
1

> <PUBCHEM_COORDINATE_TYPE>
1
5
255

> <PUBCHEM_BONDANNOTATIONS>
10  15  8
10  17  8
14  20  8
15  19  8
17  21  8
18  22  8
19  23  8
20  24  8
21  23  8
22  24  8
7  16  3
9  14  8
9  18  8

$$$$

