72303
  -OEChem-07051213002D

 38 39  0     0  0  0  0  0  0999 V2000
    7.1962    0.4050    0.0000 O   0  0  0  0  0  0  0  0  0  0  0  0
    5.4641   -3.5950    0.0000 O   0  0  0  0  0  0  0  0  0  0  0  0
    5.4641    0.4050    0.0000 C   0  0  0  0  0  0  0  0  0  0  0  0
    5.4641   -0.5950    0.0000 C   0  0  0  0  0  0  0  0  0  0  0  0
    4.5981   -2.0950    0.0000 C   0  0  0  0  0  0  0  0  0  0  0  0
    4.5981   -1.0950    0.0000 C   0  0  0  0  0  0  0  0  0  0  0  0
    4.5981    1.9050    0.0000 C   0  0  0  0  0  0  0  0  0  0  0  0
    4.5981    0.9050    0.0000 C   0  0  0  0  0  0  0  0  0  0  0  0
    6.3301    0.9050    0.0000 C   0  0  0  0  0  0  0  0  0  0  0  0
    6.3301   -1.0950    0.0000 C   0  0  0  0  0  0  0  0  0  0  0  0
    5.4641   -2.5950    0.0000 C   0  0  0  0  0  0  0  0  0  0  0  0
    3.7320   -2.5950    0.0000 C   0  0  0  0  0  0  0  0  0  0  0  0
    3.7320    2.4050    0.0000 C   0  0  0  0  0  0  0  0  0  0  0  0
    5.4641    2.4050    0.0000 C   0  0  0  0  0  0  0  0  0  0  0  0
    6.3301   -2.0950    0.0000 C   0  0  0  0  0  0  0  0  0  0  0  0
    6.3301    1.9050    0.0000 C   0  0  0  0  0  0  0  0  0  0  0  0
    2.8660   -2.0950    0.0000 C   0  0  0  0  0  0  0  0  0  0  0  0
    3.7320    3.4050    0.0000 C   0  0  0  0  0  0  0  0  0  0  0  0
    2.0000   -2.5950    0.0000 C   0  0  0  0  0  0  0  0  0  0  0  0
    2.8660    3.9050    0.0000 C   0  0  0  0  0  0  0  0  0  0  0  0
    4.0611   -0.7850    0.0000 H   0  0  0  0  0  0  0  0  0  0  0  0
    4.0611    0.5950    0.0000 H   0  0  0  0  0  0  0  0  0  0  0  0
    6.8671   -0.7850    0.0000 H   0  0  0  0  0  0  0  0  0  0  0  0
    3.3335   -3.0700    0.0000 H   0  0  0  0  0  0  0  0  0  0  0  0
    4.1306   -3.0700    0.0000 H   0  0  0  0  0  0  0  0  0  0  0  0
    3.1215    2.5127    0.0000 H   0  0  0  0  0  0  0  0  0  0  0  0
    3.5200    1.8224    0.0000 H   0  0  0  0  0  0  0  0  0  0  0  0
    5.4641    3.0250    0.0000 H   0  0  0  0  0  0  0  0  0  0  0  0
    6.8671   -2.4050    0.0000 H   0  0  0  0  0  0  0  0  0  0  0  0
    6.8671    2.2150    0.0000 H   0  0  0  0  0  0  0  0  0  0  0  0
    2.8660   -1.4750    0.0000 H   0  0  0  0  0  0  0  0  0  0  0  0
    4.2690    3.7150    0.0000 H   0  0  0  0  0  0  0  0  0  0  0  0
    7.7331    0.7150    0.0000 H   0  0  0  0  0  0  0  0  0  0  0  0
    6.0010   -3.9050    0.0000 H   0  0  0  0  0  0  0  0  0  0  0  0
    1.4631   -2.2850    0.0000 H   0  0  0  0  0  0  0  0  0  0  0  0
    2.0000   -3.2150    0.0000 H   0  0  0  0  0  0  0  0  0  0  0  0
    2.8660    4.5250    0.0000 H   0  0  0  0  0  0  0  0  0  0  0  0
    2.3291    3.5950    0.0000 H   0  0  0  0  0  0  0  0  0  0  0  0
  1  9  1  0  0  0  0
  1 33  1  0  0  0  0
  2 11  1  0  0  0  0
  2 34  1  0  0  0  0
  3  4  1  0  0  0  0
  3  8  1  0  0  0  0
  3  9  2  0  0  0  0
  4  6  2  0  0  0  0
  4 10  1  0  0  0  0
  5  6  1  0  0  0  0
  5 11  2  0  0  0  0
  5 12  1  0  0  0  0
  6 21  1  0  0  0  0
  7  8  2  0  0  0  0
  7 13  1  0  0  0  0
  7 14  1  0  0  0  0
  8 22  1  0  0  0  0
  9 16  1  0  0  0  0
 10 15  2  0  0  0  0
 10 23  1  0  0  0  0
 11 15  1  0  0  0  0
 12 17  1  0  0  0  0
 12 24  1  0  0  0  0
 12 25  1  0  0  0  0
 13 18  1  0  0  0  0
 13 26  1  0  0  0  0
 13 27  1  0  0  0  0
 14 16  2  0  0  0  0
 14 28  1  0  0  0  0
 15 29  1  0  0  0  0
 16 30  1  0  0  0  0
 17 19  2  0  0  0  0
 17 31  1  0  0  0  0
 18 20  2  0  0  0  0
 18 32  1  0  0  0  0
 19 35  1  0  0  0  0
 19 36  1  0  0  0  0
 20 37  1  0  0  0  0
 20 38  1  0  0  0  0
M  END
> <PUBCHEM_COMPOUND_CID>
72303

> <PUBCHEM_COMPOUND_CANONICALIZED>
1

> <PUBCHEM_CACTVS_COMPLEXITY>
325

> <PUBCHEM_CACTVS_HBOND_ACCEPTOR>
2

> <PUBCHEM_CACTVS_HBOND_DONOR>
2

> <PUBCHEM_CACTVS_ROTATABLE_BOND>
5

> <PUBCHEM_CACTVS_SUBSKEYS>
AAADceB4MAAAAAAAAAAAAAAAAAAAAAAAAAAwYAAAAAAAAAABQAAAGgAACAAADASAmAAwBoAAAgCAAiBCAAACAAAgIAAIiAAGCIgIJiKCERKAcAAkwBEImAeAwPAOoAACAAAIAABAAAQAABAAAAAAAAAAAA==

> <PUBCHEM_IUPAC_OPENEYE_NAME>
4-allyl-2-(3-allyl-4-hydroxy-phenyl)phenol

> <PUBCHEM_IUPAC_CAS_NAME>
2-(4-hydroxy-3-prop-2-enylphenyl)-4-prop-2-enylphenol

> <PUBCHEM_IUPAC_NAME>
2-(4-hydroxy-3-prop-2-enylphenyl)-4-prop-2-enylphenol

> <PUBCHEM_IUPAC_SYSTEMATIC_NAME>
2-(4-oxidanyl-3-prop-2-enyl-phenyl)-4-prop-2-enyl-phenol

> <PUBCHEM_IUPAC_TRADITIONAL_NAME>
4-allyl-2-(3-allyl-4-hydroxy-phenyl)phenol

> <PUBCHEM_IUPAC_INCHI>
InChI=1S/C18H18O2/c1-3-5-13-7-9-18(20)16(11-13)14-8-10-17(19)15(12-14)6-4-2/h3-4,7-12,19-20H,1-2,5-6H2

> <PUBCHEM_IUPAC_INCHIKEY>
FVYXIJYOAGAUQK-UHFFFAOYSA-N

> <PUBCHEM_XLOGP3_AA>
5

> <PUBCHEM_EXACT_MASS>
266.13068

> <PUBCHEM_MOLECULAR_FORMULA>
C18H18O2

> <PUBCHEM_MOLECULAR_WEIGHT>
266.33432

> <PUBCHEM_OPENEYE_CAN_SMILES>
C=CCC1=CC(=C(C=C1)O)C2=CC(=C(C=C2)O)CC=C

> <PUBCHEM_OPENEYE_ISO_SMILES>
C=CCC1=CC(=C(C=C1)O)C2=CC(=C(C=C2)O)CC=C

> <PUBCHEM_CACTVS_TPSA>
40.5

> <PUBCHEM_MONOISOTOPIC_WEIGHT>
266.13068

> <PUBCHEM_TOTAL_CHARGE>
0

> <PUBCHEM_HEAVY_ATOM_COUNT>
20

> <PUBCHEM_ATOM_DEF_STEREO_COUNT>
0

> <PUBCHEM_ATOM_UDEF_STEREO_COUNT>
0

> <PUBCHEM_BOND_DEF_STEREO_COUNT>
0

> <PUBCHEM_BOND_UDEF_STEREO_COUNT>
0

> <PUBCHEM_ISOTOPIC_ATOM_COUNT>
0

> <PUBCHEM_COMPONENT_COUNT>
1

> <PUBCHEM_CACTVS_TAUTO_COUNT>
33

> <PUBCHEM_COORDINATE_TYPE>
1
5
255

> <PUBCHEM_BONDANNOTATIONS>
10  15  8
11  15  8
14  16  8
3  8  8
3  9  8
4  10  8
4  6  8
5  11  8
5  6  8
7  14  8
7  8  8
9  16  8

$$$$

