47346
  -OEChem-07051213103D

 54 53  0     0  0  0  0  0  0999 V2000
   -8.1541    0.6682   -1.3082 O   0  0  0  0  0  0  0  0  0  0  0  0
   -6.9697    0.3868    0.6774 N   0  0  0  0  0  0  0  0  0  0  0  0
    2.2410   -0.5627   -0.3761 C   0  0  0  0  0  0  0  0  0  0  0  0
    3.4732   -0.0274    0.3551 C   0  0  0  0  0  0  0  0  0  0  0  0
    0.9594   -0.2752    0.4091 C   0  0  0  0  0  0  0  0  0  0  0  0
    4.7572   -0.3432   -0.4140 C   0  0  0  0  0  0  0  0  0  0  0  0
   -0.2679   -0.8412   -0.3081 C   0  0  0  0  0  0  0  0  0  0  0  0
    5.9933    0.1627    0.3340 C   0  0  0  0  0  0  0  0  0  0  0  0
   -1.5837   -0.5744    0.4296 C   0  0  0  0  0  0  0  0  0  0  0  0
    7.2788   -0.1834   -0.4234 C   0  0  0  0  0  0  0  0  0  0  0  0
   -2.8414   -1.1665   -0.2158 C   0  0  0  0  0  0  0  0  0  0  0  0
    8.5523    0.3645    0.2469 C   0  0  0  0  0  0  0  0  0  0  0  0
   -4.1314   -0.7935    0.5181 C   0  0  0  0  0  0  0  0  0  0  0  0
   -5.3972   -1.3215   -0.1683 C   0  0  0  0  0  0  0  0  0  0  0  0
    8.4755    1.8907    0.3368 C   0  0  0  0  0  0  0  0  0  0  0  0
    9.8256   -0.0446   -0.4951 C   0  0  0  0  0  0  0  0  0  0  0  0
   -6.7061   -1.0206    0.5570 C   0  0  0  0  0  0  0  0  0  0  0  0
   -7.6753    1.1172   -0.2700 C   0  0  0  0  0  0  0  0  0  0  0  0
   -7.8295    2.5641    0.1150 C   0  0  0  0  0  0  0  0  0  0  0  0
    2.3444   -1.6446   -0.5244 H   0  0  0  0  0  0  0  0  0  0  0  0
    2.1748   -0.1048   -1.3704 H   0  0  0  0  0  0  0  0  0  0  0  0
    3.5273   -0.4725    1.3561 H   0  0  0  0  0  0  0  0  0  0  0  0
    3.3801    1.0573    0.4882 H   0  0  0  0  0  0  0  0  0  0  0  0
    1.0321   -0.7164    1.4105 H   0  0  0  0  0  0  0  0  0  0  0  0
    0.8416    0.8072    0.5398 H   0  0  0  0  0  0  0  0  0  0  0  0
    4.8383   -1.4270   -0.5623 H   0  0  0  0  0  0  0  0  0  0  0  0
    4.7131    0.1172   -1.4085 H   0  0  0  0  0  0  0  0  0  0  0  0
   -0.1456   -1.9242   -0.4336 H   0  0  0  0  0  0  0  0  0  0  0  0
   -0.3323   -0.4116   -1.3154 H   0  0  0  0  0  0  0  0  0  0  0  0
    6.0303   -0.2769    1.3378 H   0  0  0  0  0  0  0  0  0  0  0  0
    5.8913    1.2457    0.4549 H   0  0  0  0  0  0  0  0  0  0  0  0
   -1.7134    0.5113    0.5237 H   0  0  0  0  0  0  0  0  0  0  0  0
   -1.5011   -0.9649    1.4520 H   0  0  0  0  0  0  0  0  0  0  0  0
    7.2128    0.2015   -1.4493 H   0  0  0  0  0  0  0  0  0  0  0  0
    7.3611   -1.2747   -0.5049 H   0  0  0  0  0  0  0  0  0  0  0  0
   -2.7465   -2.2583   -0.2559 H   0  0  0  0  0  0  0  0  0  0  0  0
   -2.9051   -0.8156   -1.2532 H   0  0  0  0  0  0  0  0  0  0  0  0
    8.6150   -0.0381    1.2659 H   0  0  0  0  0  0  0  0  0  0  0  0
   -4.0877   -1.1836    1.5423 H   0  0  0  0  0  0  0  0  0  0  0  0
   -4.1930    0.2985    0.5976 H   0  0  0  0  0  0  0  0  0  0  0  0
   -5.4453   -0.9076   -1.1835 H   0  0  0  0  0  0  0  0  0  0  0  0
   -5.3090   -2.4096   -0.2778 H   0  0  0  0  0  0  0  0  0  0  0  0
    8.2587    2.3404   -0.6381 H   0  0  0  0  0  0  0  0  0  0  0  0
    9.4271    2.3038    0.6900 H   0  0  0  0  0  0  0  0  0  0  0  0
    7.7128    2.2187    1.0489 H   0  0  0  0  0  0  0  0  0  0  0  0
    9.8326    0.3498   -1.5169 H   0  0  0  0  0  0  0  0  0  0  0  0
   10.7167    0.3286    0.0205 H   0  0  0  0  0  0  0  0  0  0  0  0
    9.9041   -1.1352   -0.5529 H   0  0  0  0  0  0  0  0  0  0  0  0
   -7.5374   -1.4928    0.0218 H   0  0  0  0  0  0  0  0  0  0  0  0
   -6.6809   -1.4352    1.5703 H   0  0  0  0  0  0  0  0  0  0  0  0
   -6.6172    0.8633    1.5025 H   0  0  0  0  0  0  0  0  0  0  0  0
   -6.8712    2.9733    0.4474 H   0  0  0  0  0  0  0  0  0  0  0  0
   -8.1745    3.1400   -0.7482 H   0  0  0  0  0  0  0  0  0  0  0  0
   -8.5620    2.6497    0.9221 H   0  0  0  0  0  0  0  0  0  0  0  0
  1 18  2  0  0  0  0
  2 17  1  0  0  0  0
  2 18  1  0  0  0  0
  2 51  1  0  0  0  0
  3  4  1  0  0  0  0
  3  5  1  0  0  0  0
  3 20  1  0  0  0  0
  3 21  1  0  0  0  0
  4  6  1  0  0  0  0
  4 22  1  0  0  0  0
  4 23  1  0  0  0  0
  5  7  1  0  0  0  0
  5 24  1  0  0  0  0
  5 25  1  0  0  0  0
  6  8  1  0  0  0  0
  6 26  1  0  0  0  0
  6 27  1  0  0  0  0
  7  9  1  0  0  0  0
  7 28  1  0  0  0  0
  7 29  1  0  0  0  0
  8 10  1  0  0  0  0
  8 30  1  0  0  0  0
  8 31  1  0  0  0  0
  9 11  1  0  0  0  0
  9 32  1  0  0  0  0
  9 33  1  0  0  0  0
 10 12  1  0  0  0  0
 10 34  1  0  0  0  0
 10 35  1  0  0  0  0
 11 13  1  0  0  0  0
 11 36  1  0  0  0  0
 11 37  1  0  0  0  0
 12 15  1  0  0  0  0
 12 16  1  0  0  0  0
 12 38  1  0  0  0  0
 13 14  1  0  0  0  0
 13 39  1  0  0  0  0
 13 40  1  0  0  0  0
 14 17  1  0  0  0  0
 14 41  1  0  0  0  0
 14 42  1  0  0  0  0
 15 43  1  0  0  0  0
 15 44  1  0  0  0  0
 15 45  1  0  0  0  0
 16 46  1  0  0  0  0
 16 47  1  0  0  0  0
 16 48  1  0  0  0  0
 17 49  1  0  0  0  0
 17 50  1  0  0  0  0
 18 19  1  0  0  0  0
 19 52  1  0  0  0  0
 19 53  1  0  0  0  0
 19 54  1  0  0  0  0
M  END
> <PUBCHEM_COMPOUND_CID>
47346

> <PUBCHEM_CONFORMER_RMSD>
1.4

> <PUBCHEM_CONFORMER_DIVERSEORDER>
1
38
36
71
13
37
59
24
39
65
50
32
21
53
4
57
14
33
12
31
17
82
16
35
8
10
81
47
83
84
49
25
74
51
40
27
75
62
11
87
23
64
46
2
26
68
80
72
15
76
42
22
69
43
63
55
67
5
44
60
61
7
34
9
73
54
85
18
30
56
77
52
20
48
78
66
86
6
89
88
58
41
70
45
29
19
79
3
28

> <PUBCHEM_MMFF94_PARTIAL_CHARGES>
6
1 -0.57
17 0.3
18 0.57
19 0.06
2 -0.73
51 0.37

> <PUBCHEM_EFFECTIVE_ROTOR_COUNT>
14

> <PUBCHEM_PHARMACOPHORE_FEATURES>
3
1 1 acceptor
1 2 donor
3 12 15 16 hydrophobe

> <PUBCHEM_HEAVY_ATOM_COUNT>
19

> <PUBCHEM_ATOM_DEF_STEREO_COUNT>
0

> <PUBCHEM_ATOM_UDEF_STEREO_COUNT>
0

> <PUBCHEM_BOND_DEF_STEREO_COUNT>
0

> <PUBCHEM_BOND_UDEF_STEREO_COUNT>
0

> <PUBCHEM_ISOTOPIC_ATOM_COUNT>
0

> <PUBCHEM_COMPONENT_COUNT>
1

> <PUBCHEM_CACTVS_TAUTO_COUNT>
2

> <PUBCHEM_CONFORMER_ID>
0000B8F200000001

> <PUBCHEM_MMFF94_ENERGY>
5.3734

> <PUBCHEM_FEATURE_SELFOVERLAP>
15.223

> <PUBCHEM_SHAPE_FINGERPRINT>
11315181 36 17821723919390547819
11638347 137 11527955560791059888
12091667 2 18412261719412663595
125118 31 18342173332924198748
12838862 33 16805331007066800590
14251764 18 15123515800469019466
14251764 46 17095239215733222923
14344974 52 18335144155646372429
14428016 248 17632289061035544724
14729087 3 18413108373071567249
15461852 350 17095529470308570973
155225 1 18341613750889710797
15690457 1 7925911474361398632
16120349 18 4895263829556742922
17093844 174 18202561766509446539
1754908 1 13254794612208275868
1818759 1 10952052269050886296
195137 175 18407755945592597881
20621476 8 18334011688175618214
21150785 3 4678817246538460499
21360442 43 18041286453209814351
21362267 313 18342181120432636274
22224240 67 18060421279610430082
23521765 1 18335136471686505938
246663 6 10375871878958228986
28498 318 18040431105987086110
33684 2 17385438817948811714
437795 83 17386002931907384681
636775 72 18338234968716572689
636775 8 14418143881821142645
67123 10 18334012761442948371
8209 1 17749104475111156010

> <PUBCHEM_SHAPE_MULTIPOLES>
380.16
37.23
1.6
0.82
20.54
1.09
-0.06
16.79
-2.71
-3.2
0.04
-0.51
0.02
0.95

> <PUBCHEM_SHAPE_SELFOVERLAP>
692.031

> <PUBCHEM_SHAPE_VOLUME>
242.8

> <PUBCHEM_COORDINATE_TYPE>
2
5
10

$$$$

