12187
  -OEChem-06261206383D

 22 21  0     0  0  0  0  0  0999 V2000
   -0.9468   -0.8888    1.0067 O   0  0  0  0  0  0  0  0  0  0  0  0
    1.7415   -0.1171    0.2061 C   0  0  0  0  0  0  0  0  0  0  0  0
    0.5198    0.8089    0.1099 C   0  0  0  0  0  0  0  0  0  0  0  0
    1.7149   -1.1918   -0.8837 C   0  0  0  0  0  0  0  0  0  0  0  0
    3.0294    0.7008    0.0924 C   0  0  0  0  0  0  0  0  0  0  0  0
   -0.8131    0.0905    0.2748 C   0  0  0  0  0  0  0  0  0  0  0  0
   -1.9787    0.6896   -0.4952 C   0  0  0  0  0  0  0  0  0  0  0  0
   -3.2669   -0.0921   -0.3111 C   0  0  0  0  0  0  0  0  0  0  0  0
    1.7365   -0.6191    1.1817 H   0  0  0  0  0  0  0  0  0  0  0  0
    0.5644    1.5860    0.8818 H   0  0  0  0  0  0  0  0  0  0  0  0
    0.5226    1.3121   -0.8647 H   0  0  0  0  0  0  0  0  0  0  0  0
    2.6067   -1.8250   -0.8231 H   0  0  0  0  0  0  0  0  0  0  0  0
    1.6883   -0.7431   -1.8827 H   0  0  0  0  0  0  0  0  0  0  0  0
    0.8438   -1.8465   -0.7839 H   0  0  0  0  0  0  0  0  0  0  0  0
    3.0916    1.2156   -0.8725 H   0  0  0  0  0  0  0  0  0  0  0  0
    3.9095    0.0563    0.1899 H   0  0  0  0  0  0  0  0  0  0  0  0
    3.0802    1.4563    0.8837 H   0  0  0  0  0  0  0  0  0  0  0  0
   -2.1203    1.7198   -0.1520 H   0  0  0  0  0  0  0  0  0  0  0  0
   -1.7147    0.7056   -1.5579 H   0  0  0  0  0  0  0  0  0  0  0  0
   -3.5657   -0.1155    0.7422 H   0  0  0  0  0  0  0  0  0  0  0  0
   -4.0770    0.3671   -0.8859 H   0  0  0  0  0  0  0  0  0  0  0  0
   -3.1506   -1.1270   -0.6496 H   0  0  0  0  0  0  0  0  0  0  0  0
  1  6  2  0  0  0  0
  2  3  1  0  0  0  0
  2  4  1  0  0  0  0
  2  5  1  0  0  0  0
  2  9  1  0  0  0  0
  3  6  1  0  0  0  0
  3 10  1  0  0  0  0
  3 11  1  0  0  0  0
  4 12  1  0  0  0  0
  4 13  1  0  0  0  0
  4 14  1  0  0  0  0
  5 15  1  0  0  0  0
  5 16  1  0  0  0  0
  5 17  1  0  0  0  0
  6  7  1  0  0  0  0
  7  8  1  0  0  0  0
  7 18  1  0  0  0  0
  7 19  1  0  0  0  0
  8 20  1  0  0  0  0
  8 21  1  0  0  0  0
  8 22  1  0  0  0  0
M  END
> <PUBCHEM_COMPOUND_CID>
12187

> <PUBCHEM_CONFORMER_RMSD>
0.6

> <PUBCHEM_CONFORMER_DIVERSEORDER>
1
7
8
6
3
5
2
4

> <PUBCHEM_MMFF94_PARTIAL_CHARGES>
4
1 -0.57
3 0.06
6 0.45
7 0.06

> <PUBCHEM_EFFECTIVE_ROTOR_COUNT>
3

> <PUBCHEM_PHARMACOPHORE_FEATURES>
3
1 1 acceptor
1 8 hydrophobe
3 2 4 5 hydrophobe

> <PUBCHEM_HEAVY_ATOM_COUNT>
8

> <PUBCHEM_ATOM_DEF_STEREO_COUNT>
0

> <PUBCHEM_ATOM_UDEF_STEREO_COUNT>
0

> <PUBCHEM_BOND_DEF_STEREO_COUNT>
0

> <PUBCHEM_BOND_UDEF_STEREO_COUNT>
0

> <PUBCHEM_ISOTOPIC_ATOM_COUNT>
0

> <PUBCHEM_COMPONENT_COUNT>
1

> <PUBCHEM_CACTVS_TAUTO_COUNT>
3

> <PUBCHEM_CONFORMER_ID>
00002F9B00000001

> <PUBCHEM_MMFF94_ENERGY>
4.0802

> <PUBCHEM_FEATURE_SELFOVERLAP>
15.223

> <PUBCHEM_SHAPE_FINGERPRINT>
11062470 55 18408608049792359953
12897270 3 18040720259573927252
12932741 1 18342160172943534414
14325111 11 18060425737269057049
14390081 3 17989210369022078005
15310529 11 17822015341031279381
20201158 50 18410293614023631054
21040471 1 17489586804850271827
21293036 1 18060704970404636677
23235685 24 18409736140248535592
23552333 60 16950566614059130654
23552423 10 18116990194274260759
29004967 10 18113618992828598257
5084963 1 15410620327878995269
5460574 1 9151174263737739433

> <PUBCHEM_SHAPE_MULTIPOLES>
158.77
4.66
1.08
0.86
1.13
0.19
0.06
-0.29
-0.63
-0.48
-0.12
0.11
0.15
0.32

> <PUBCHEM_SHAPE_SELFOVERLAP>
285.158

> <PUBCHEM_SHAPE_VOLUME>
103.5

> <PUBCHEM_COORDINATE_TYPE>
2
5
10

$$$$

