7162
  -OEChem-06261201513D

 25 25  0     0  0  0  0  0  0999 V2000
    0.8083   -2.8792    0.0213 Cl  0  0  0  0  0  0  0  0  0  0  0  0
    3.8304    2.5824    0.1411 Cl  0  0  0  0  0  0  0  0  0  0  0  0
    5.2769   -0.0918   -0.9700 Cl  0  0  0  0  0  0  0  0  0  0  0  0
   -0.2665   -0.2437    0.9888 O   0  0  0  0  0  0  0  0  0  0  0  0
   -5.9442    0.9588   -0.8909 O   0  0  0  0  0  0  0  0  0  0  0  0
   -5.2679   -0.9186    0.1935 O   0  0  0  0  0  0  0  0  0  0  0  0
   -2.5896   -0.0413    0.3731 C   0  0  0  0  0  0  0  0  0  0  0  0
   -1.2027    0.5866    0.3168 C   0  0  0  0  0  0  0  0  0  0  0  0
   -3.6449    0.8219   -0.3207 C   0  0  0  0  0  0  0  0  0  0  0  0
    1.0257   -0.2160    0.5313 C   0  0  0  0  0  0  0  0  0  0  0  0
    1.6414   -1.3688    0.0554 C   0  0  0  0  0  0  0  0  0  0  0  0
    1.7106    0.9945    0.5524 C   0  0  0  0  0  0  0  0  0  0  0  0
   -5.0099    0.1732   -0.2938 C   0  0  0  0  0  0  0  0  0  0  0  0
    3.0262    1.0526    0.0923 C   0  0  0  0  0  0  0  0  0  0  0  0
    2.9569   -1.3107   -0.4046 C   0  0  0  0  0  0  0  0  0  0  0  0
    3.6493   -0.1000   -0.3862 C   0  0  0  0  0  0  0  0  0  0  0  0
   -2.8700   -0.2137    1.4202 H   0  0  0  0  0  0  0  0  0  0  0  0
   -2.5527   -1.0379   -0.0854 H   0  0  0  0  0  0  0  0  0  0  0  0
   -1.2186    1.5665    0.8080 H   0  0  0  0  0  0  0  0  0  0  0  0
   -0.9144    0.7302   -0.7328 H   0  0  0  0  0  0  0  0  0  0  0  0
   -3.3649    0.9799   -1.3680 H   0  0  0  0  0  0  0  0  0  0  0  0
   -3.7164    1.7927    0.1817 H   0  0  0  0  0  0  0  0  0  0  0  0
    1.2261    1.8896    0.9350 H   0  0  0  0  0  0  0  0  0  0  0  0
    3.4413   -2.2108   -0.7777 H   0  0  0  0  0  0  0  0  0  0  0  0
   -6.8329    0.5433   -0.8784 H   0  0  0  0  0  0  0  0  0  0  0  0
  1 11  1  0  0  0  0
  2 14  1  0  0  0  0
  3 16  1  0  0  0  0
  4  8  1  0  0  0  0
  4 10  1  0  0  0  0
  5 13  1  0  0  0  0
  5 25  1  0  0  0  0
  6 13  2  0  0  0  0
  7  8  1  0  0  0  0
  7  9  1  0  0  0  0
  7 17  1  0  0  0  0
  7 18  1  0  0  0  0
  8 19  1  0  0  0  0
  8 20  1  0  0  0  0
  9 13  1  0  0  0  0
  9 21  1  0  0  0  0
  9 22  1  0  0  0  0
 10 11  1  0  0  0  0
 10 12  2  0  0  0  0
 11 15  2  0  0  0  0
 12 14  1  0  0  0  0
 12 23  1  0  0  0  0
 14 16  2  0  0  0  0
 15 16  1  0  0  0  0
 15 24  1  0  0  0  0
M  END
> <PUBCHEM_COMPOUND_CID>
7162

> <PUBCHEM_CONFORMER_RMSD>
0.6

> <PUBCHEM_CONFORMER_DIVERSEORDER>
1
104
126
158
150
52
160
97
46
130
19
153
7
161
132
139
148
123
33
15
125
155
103
121
47
38
17
32
146
135
66
165
76
124
151
84
119
70
21
34
118
56
93
147
133
85
44
77
144
54
12
114
156
110
143
42
109
16
145
141
137
152
90
162
105
35
134
111
4
128
131
80
61
94
25
2
138
9
116
14
73
106
117
57
100
98
65
26
20
159
86
82
142
58
102
164
55
3
23
108
60
149
107
8
136
62
10
113
67
24
31
36
6
91
99
89
140
45
11
95
96
30
72
79
88
68
69
120
112
74
41
87
37
22
18
78
83
75
50
115
163
81
13
27
154
122
92
28
157
5
53
64
59
48
63
49
71
40
101
129
127
29
43
51
39

> <PUBCHEM_MMFF94_PARTIAL_CHARGES>
18
1 -0.18
10 0.08
11 0.18
12 -0.15
13 0.66
14 0.18
15 -0.15
16 0.18
2 -0.18
23 0.15
24 0.15
25 0.5
3 -0.18
4 -0.36
5 -0.65
6 -0.57
8 0.28
9 0.06

> <PUBCHEM_EFFECTIVE_ROTOR_COUNT>
5

> <PUBCHEM_PHARMACOPHORE_FEATURES>
5
1 4 acceptor
1 5 acceptor
1 6 acceptor
3 5 6 13 anion
6 10 11 12 14 15 16 rings

> <PUBCHEM_HEAVY_ATOM_COUNT>
16

> <PUBCHEM_ATOM_DEF_STEREO_COUNT>
0

> <PUBCHEM_ATOM_UDEF_STEREO_COUNT>
0

> <PUBCHEM_BOND_DEF_STEREO_COUNT>
0

> <PUBCHEM_BOND_UDEF_STEREO_COUNT>
0

> <PUBCHEM_ISOTOPIC_ATOM_COUNT>
0

> <PUBCHEM_COMPONENT_COUNT>
1

> <PUBCHEM_CACTVS_TAUTO_COUNT>
1

> <PUBCHEM_CONFORMER_ID>
00001BFA00000001

> <PUBCHEM_MMFF94_ENERGY>
35.12

> <PUBCHEM_FEATURE_SELFOVERLAP>
25.43

> <PUBCHEM_SHAPE_FINGERPRINT>
10693767 8 17969219117800781166
11287383 113 18341049636255931609
11471102 20 18409727383057996088
12236239 1 17312817199524418784
12616999 72 18411701023251338875
12730499 353 18342168969052433203
13836976 161 18259983777774541246
14251717 144 18335701667279893698
14528608 73 18410858746184481309
14576447 43 18040716999894242126
14911166 2 18335689551926088662
15048467 5 14261341432945067310
15475509 84 12607146001329352798
15885798 251 8358269137132206354
16945 1 18189873415188454258
17834072 33 18334577928057975797
1813 80 5328750681640706482
200 152 17967530198634645865
20645477 70 18261109707371777191
21054139 6 18261403217052930527
21637258 2 15574995139010045294
221357 26 18335986453729676381
22289505 5 18342183309732320485
23402539 116 17346878935834184087
23402655 69 18409167744492704885
23557571 272 17203048590427035141
23559900 14 18410858767390136579
23590187 302 18040437697917834329
2748010 2 17973143051819793522
2871803 45 18335700584795076317
29717793 49 17385437747800452165
3060560 45 18409448102931107550
33382 64 14779815127262852582
33824 294 18411139151550934770
4072396 5 18270974526561204146
42 15 7565342037705777217
42630746 31 18259990357938803488
43658 37 18263365785442576080
4990 188 18040147431258898894
5281201 14 18338515347600364717
6327066 14 18051415059571900244
77779 3 18409167731913868577
9999458 23 18342458128115844590

> <PUBCHEM_SHAPE_MULTIPOLES>
317.27
11.99
2.19
0.84
16.16
0.63
-0.04
-3.49
-3.93
-2.14
0.09
-0.09
-0.04
0.66

> <PUBCHEM_SHAPE_SELFOVERLAP>
622.624

> <PUBCHEM_SHAPE_VOLUME>
192.6

> <PUBCHEM_COORDINATE_TYPE>
2
5
10

$$$$

