17395428
  -OEChem-06241222503D

 38 40  0     0  0  0  0  0  0999 V2000
    3.4023    2.2107    0.5941 O   0  0  0  0  0  0  0  0  0  0  0  0
    1.3062   -2.3257   -0.4033 O   0  0  0  0  0  0  0  0  0  0  0  0
   -4.4849    0.1775    0.0263 N   0  0  0  0  0  0  0  0  0  0  0  0
    1.8736   -0.1018    0.0842 N   0  0  0  0  0  0  0  0  0  0  0  0
   -3.1421   -0.1497   -0.0142 C   0  0  0  0  0  0  0  0  0  0  0  0
   -0.4333   -0.8109   -0.1023 C   0  0  0  0  0  0  0  0  0  0  0  0
   -2.7309   -1.4482    0.2871 C   0  0  0  0  0  0  0  0  0  0  0  0
   -2.1989    0.8180   -0.3597 C   0  0  0  0  0  0  0  0  0  0  0  0
   -1.3765   -1.7788    0.2430 C   0  0  0  0  0  0  0  0  0  0  0  0
   -0.8445    0.4875   -0.4036 C   0  0  0  0  0  0  0  0  0  0  0  0
    3.2900   -0.1305    0.0797 C   0  0  0  0  0  0  0  0  0  0  0  0
    0.9787   -1.1556   -0.1476 C   0  0  0  0  0  0  0  0  0  0  0  0
   -5.4993   -0.6863    0.3478 C   0  0  0  0  0  0  0  0  0  0  0  0
   -5.0053    1.4155   -0.2462 C   0  0  0  0  0  0  0  0  0  0  0  0
    4.0258    1.0266    0.3351 C   0  0  0  0  0  0  0  0  0  0  0  0
   -6.6851    0.0110    0.2784 C   0  0  0  0  0  0  0  0  0  0  0  0
   -6.3725    1.3408   -0.0972 C   0  0  0  0  0  0  0  0  0  0  0  0
    3.9482   -1.3320   -0.1824 C   0  0  0  0  0  0  0  0  0  0  0  0
    5.4199    0.9822    0.3281 C   0  0  0  0  0  0  0  0  0  0  0  0
    5.3424   -1.3765   -0.1894 C   0  0  0  0  0  0  0  0  0  0  0  0
    6.0781   -0.2193    0.0659 C   0  0  0  0  0  0  0  0  0  0  0  0
    3.1082    3.0455   -0.5237 C   0  0  0  0  0  0  0  0  0  0  0  0
   -3.4095   -2.2471    0.5638 H   0  0  0  0  0  0  0  0  0  0  0  0
   -2.4504    1.8414   -0.6143 H   0  0  0  0  0  0  0  0  0  0  0  0
   -1.0759   -2.7947    0.4863 H   0  0  0  0  0  0  0  0  0  0  0  0
   -0.1512    1.2636   -0.7147 H   0  0  0  0  0  0  0  0  0  0  0  0
   -5.3545   -1.7255    0.6044 H   0  0  0  0  0  0  0  0  0  0  0  0
   -4.4142    2.2756   -0.5249 H   0  0  0  0  0  0  0  0  0  0  0  0
    1.4935    0.8080    0.3297 H   0  0  0  0  0  0  0  0  0  0  0  0
   -7.6671   -0.3947    0.4771 H   0  0  0  0  0  0  0  0  0  0  0  0
   -7.0676    2.1557   -0.2429 H   0  0  0  0  0  0  0  0  0  0  0  0
    3.4548   -2.2702   -0.3893 H   0  0  0  0  0  0  0  0  0  0  0  0
    6.0000    1.8794    0.5270 H   0  0  0  0  0  0  0  0  0  0  0  0
    5.8564   -2.3114   -0.3934 H   0  0  0  0  0  0  0  0  0  0  0  0
    7.1637   -0.2539    0.0607 H   0  0  0  0  0  0  0  0  0  0  0  0
    2.5747    3.9282   -0.1608 H   0  0  0  0  0  0  0  0  0  0  0  0
    2.4701    2.5235   -1.2438 H   0  0  0  0  0  0  0  0  0  0  0  0
    4.0331    3.3713   -1.0100 H   0  0  0  0  0  0  0  0  0  0  0  0
  1 15  1  0  0  0  0
  1 22  1  0  0  0  0
  2 12  2  0  0  0  0
  3  5  1  0  0  0  0
  3 13  1  0  0  0  0
  3 14  1  0  0  0  0
  4 11  1  0  0  0  0
  4 12  1  0  0  0  0
  4 29  1  0  0  0  0
  5  7  2  0  0  0  0
  5  8  1  0  0  0  0
  6  9  2  0  0  0  0
  6 10  1  0  0  0  0
  6 12  1  0  0  0  0
  7  9  1  0  0  0  0
  7 23  1  0  0  0  0
  8 10  2  0  0  0  0
  8 24  1  0  0  0  0
  9 25  1  0  0  0  0
 10 26  1  0  0  0  0
 11 15  1  0  0  0  0
 11 18  2  0  0  0  0
 13 16  2  0  0  0  0
 13 27  1  0  0  0  0
 14 17  2  0  0  0  0
 14 28  1  0  0  0  0
 15 19  2  0  0  0  0
 16 17  1  0  0  0  0
 16 30  1  0  0  0  0
 17 31  1  0  0  0  0
 18 20  1  0  0  0  0
 18 32  1  0  0  0  0
 19 21  1  0  0  0  0
 19 33  1  0  0  0  0
 20 21  2  0  0  0  0
 20 34  1  0  0  0  0
 21 35  1  0  0  0  0
 22 36  1  0  0  0  0
 22 37  1  0  0  0  0
 22 38  1  0  0  0  0
M  END
> <PUBCHEM_COMPOUND_CID>
17395428

> <PUBCHEM_CONFORMER_RMSD>
0.8

> <PUBCHEM_CONFORMER_DIVERSEORDER>
1
6
7
3
4
2
5

> <PUBCHEM_MMFF94_PARTIAL_CHARGES>
35
1 -0.36
10 -0.15
11 0.12
12 0.54
13 -0.3
14 -0.3
15 0.08
16 -0.15
17 -0.15
18 -0.15
19 -0.15
2 -0.57
20 -0.15
21 -0.15
22 0.28
23 0.15
24 0.15
25 0.15
26 0.15
27 0.15
28 0.15
29 0.37
3 0.33
30 0.15
31 0.15
32 0.15
33 0.15
34 0.15
35 0.15
4 -0.55
5 -0.02
6 0.09
7 -0.15
8 -0.15
9 -0.15

> <PUBCHEM_EFFECTIVE_ROTOR_COUNT>
5

> <PUBCHEM_PHARMACOPHORE_FEATURES>
7
1 1 acceptor
1 2 acceptor
1 3 cation
1 4 donor
5 3 13 14 16 17 rings
6 11 15 18 19 20 21 rings
6 5 6 7 8 9 10 rings

> <PUBCHEM_HEAVY_ATOM_COUNT>
22

> <PUBCHEM_ATOM_DEF_STEREO_COUNT>
0

> <PUBCHEM_ATOM_UDEF_STEREO_COUNT>
0

> <PUBCHEM_BOND_DEF_STEREO_COUNT>
0

> <PUBCHEM_BOND_UDEF_STEREO_COUNT>
0

> <PUBCHEM_ISOTOPIC_ATOM_COUNT>
0

> <PUBCHEM_COMPONENT_COUNT>
1

> <PUBCHEM_CACTVS_TAUTO_COUNT>
2

> <PUBCHEM_CONFORMER_ID>
01096EE400000001

> <PUBCHEM_MMFF94_ENERGY>
81.1587

> <PUBCHEM_FEATURE_SELFOVERLAP>
35.52

> <PUBCHEM_SHAPE_FINGERPRINT>
10 15 18202282476710857232
10411042 1 17903917009456889886
10688039 33 18060139881748088508
11045977 3 18201715128826949907
11089746 13 18411704283316035407
11595378 159 16486706860314691925
12166972 35 18408602560829898392
12236239 1 17530967985866120375
12403259 415 18130797779691623517
12596602 18 13470689265008484020
12616971 3 17968103005775395045
12730499 353 18409442613631028866
13167372 99 18187361081825468921
13402501 40 18412265051225837636
13533116 47 4895282456191225532
13785724 45 17833272300302457410
14170010 4 18334577945554479416
14251764 18 18344150293807067786
14341114 176 18410853270085419340
14464042 87 17748820834706343184
14528608 73 18334297552466422327
14933364 13 18411697699257608721
15183329 4 18259981604220370072
15196674 1 18338798909772581027
15348495 7 18130781205792324617
15537594 2 11600003232526223528
17844677 252 18409724088923880329
18335252 114 18334585676084467613
19489759 90 17060337440372177489
20281389 69 18342740727735864961
21033648 29 17917165951859723933
21033650 10 15069717791575109514
21267235 1 18336825394819585814
21315763 129 18411418423409921589
21315763 28 18409450297875621359
221357 26 18334574685526660620
23402539 116 18408327687760844479
23559900 14 18408889524848055746
2838139 119 18335426772636276813
2916195 48 18413672422510294627
3004659 81 18411700989471823448
335352 9 18410011040157889142
34797466 226 17749101184875784439
350125 39 18412544323148076148
351380 180 18409731755260882758
3545911 37 18411699898112202126
4073 2 18059288765068888450
4325135 7 18260834783148510599
5104073 3 18271528589367310858
53794403 172 18128249000475958164
54446538 1 18261110794341498417
633830 44 18271252616597510202
9996256 80 18335704914655295975

> <PUBCHEM_SHAPE_MULTIPOLES>
431.05
16.88
2.27
0.68
8.85
0.93
0
3.75
-1.23
-1.85
0.17
-0.06
0.05
0.57

> <PUBCHEM_SHAPE_SELFOVERLAP>
943.51

> <PUBCHEM_SHAPE_VOLUME>
233.1

> <PUBCHEM_COORDINATE_TYPE>
2
5
10

$$$$

