65309
  -OEChem-07051212493D

 37 37  0     1  0  0  0  0  0999 V2000
   -1.0030    0.8470   -0.1487 O   0  0  0  0  0  0  0  0  0  0  0  0
   -0.5320   -1.4867   -1.6196 O   0  0  0  0  0  0  0  0  0  0  0  0
    2.9452    1.7578   -0.1577 O   0  0  0  0  0  0  0  0  0  0  0  0
   -2.4176   -1.6324    1.5143 O   0  0  0  0  0  0  0  0  0  0  0  0
   -4.2024   -3.0777   -0.0068 O   0  0  0  0  0  0  0  0  0  0  0  0
    3.7747   -1.0332   -1.1112 O   0  0  0  0  0  0  0  0  0  0  0  0
   -2.6670    2.7435   -0.4630 O   0  0  0  0  0  0  0  0  0  0  0  0
   -1.1676    4.3998    0.0258 O   0  0  0  0  0  0  0  0  0  0  0  0
    2.1344   -1.0735    0.5402 N   0  0  0  0  0  0  0  0  0  0  0  0
   -0.1834   -0.2168    0.3705 C   0  0  2  0  0  0  0  0  0  0  0  0
    1.3020   -0.0112    0.0185 C   0  0  1  0  0  0  0  0  0  0  0  0
   -0.7545   -1.5085   -0.2123 C   0  0  1  0  0  0  0  0  0  0  0  0
    1.7850    1.3445    0.5616 C   0  0  2  0  0  0  0  0  0  0  0  0
   -2.2463   -1.6901    0.0935 C   0  0  1  0  0  0  0  0  0  0  0  0
    0.7428    2.4069    0.4101 C   0  0  0  0  0  0  0  0  0  0  0  0
   -0.5176    2.1136    0.0628 C   0  0  0  0  0  0  0  0  0  0  0  0
   -2.8272   -3.0218   -0.3764 C   0  0  0  0  0  0  0  0  0  0  0  0
    3.3024   -1.4918   -0.0743 C   0  0  0  0  0  0  0  0  0  0  0  0
   -1.4538    3.2239   -0.1176 C   0  0  0  0  0  0  0  0  0  0  0  0
    3.9860   -2.5933    0.6905 C   0  0  0  0  0  0  0  0  0  0  0  0
   -0.2928   -0.2282    1.4636 H   0  0  0  0  0  0  0  0  0  0  0  0
    1.4261    0.0048   -1.0733 H   0  0  0  0  0  0  0  0  0  0  0  0
   -0.2014   -2.3625    0.1958 H   0  0  0  0  0  0  0  0  0  0  0  0
    2.0569    1.2750    1.6221 H   0  0  0  0  0  0  0  0  0  0  0  0
   -2.8495   -0.8871   -0.3477 H   0  0  0  0  0  0  0  0  0  0  0  0
    1.8776   -1.4814    1.4347 H   0  0  0  0  0  0  0  0  0  0  0  0
    1.0596    3.4314    0.5852 H   0  0  0  0  0  0  0  0  0  0  0  0
   -2.3193   -3.8621    0.1085 H   0  0  0  0  0  0  0  0  0  0  0  0
   -2.7508   -3.1274   -1.4626 H   0  0  0  0  0  0  0  0  0  0  0  0
   -1.0304   -0.7363   -1.9864 H   0  0  0  0  0  0  0  0  0  0  0  0
    3.6566    1.1282    0.0474 H   0  0  0  0  0  0  0  0  0  0  0  0
   -2.3985   -0.6959    1.7750 H   0  0  0  0  0  0  0  0  0  0  0  0
    4.7458   -3.0624    0.0594 H   0  0  0  0  0  0  0  0  0  0  0  0
    4.4638   -2.1752    1.5806 H   0  0  0  0  0  0  0  0  0  0  0  0
    3.2617   -3.3563    0.9899 H   0  0  0  0  0  0  0  0  0  0  0  0
   -4.5449   -3.9338   -0.3158 H   0  0  0  0  0  0  0  0  0  0  0  0
   -3.3240    3.4604   -0.5932 H   0  0  0  0  0  0  0  0  0  0  0  0
  1 10  1  0  0  0  0
  1 16  1  0  0  0  0
  2 12  1  0  0  0  0
  2 30  1  0  0  0  0
  3 13  1  0  0  0  0
  3 31  1  0  0  0  0
  4 14  1  0  0  0  0
  4 32  1  0  0  0  0
  5 17  1  0  0  0  0
  5 36  1  0  0  0  0
  6 18  2  0  0  0  0
  7 19  1  0  0  0  0
  7 37  1  0  0  0  0
  8 19  2  0  0  0  0
  9 11  1  0  0  0  0
  9 18  1  0  0  0  0
  9 26  1  0  0  0  0
 10 11  1  0  0  0  0
 10 12  1  0  0  0  0
 10 21  1  0  0  0  0
 11 13  1  0  0  0  0
 11 22  1  0  0  0  0
 12 14  1  0  0  0  0
 12 23  1  0  0  0  0
 13 15  1  0  0  0  0
 13 24  1  0  0  0  0
 14 17  1  0  0  0  0
 14 25  1  0  0  0  0
 15 16  2  0  0  0  0
 15 27  1  0  0  0  0
 16 19  1  0  0  0  0
 17 28  1  0  0  0  0
 17 29  1  0  0  0  0
 18 20  1  0  0  0  0
 20 33  1  0  0  0  0
 20 34  1  0  0  0  0
 20 35  1  0  0  0  0
M  END
> <PUBCHEM_COMPOUND_CID>
65309

> <PUBCHEM_CONFORMER_RMSD>
0.8

> <PUBCHEM_CONFORMER_DIVERSEORDER>
1
15
3
22
16
23
26
10
13
20
24
9
18
8
17
6
21
4
7
25
14
12
11
19
2
5

> <PUBCHEM_MMFF94_PARTIAL_CHARGES>
27
1 -0.36
10 0.28
11 0.3
12 0.28
13 0.42
14 0.28
15 -0.29
16 0.09
17 0.28
18 0.57
19 0.71
2 -0.68
20 0.06
26 0.37
27 0.15
3 -0.68
30 0.4
31 0.4
32 0.4
36 0.4
37 0.5
4 -0.68
5 -0.68
6 -0.57
7 -0.65
8 -0.57
9 -0.73

> <PUBCHEM_EFFECTIVE_ROTOR_COUNT>
6.8

> <PUBCHEM_PHARMACOPHORE_FEATURES>
15
1 1 acceptor
1 2 acceptor
1 2 donor
1 3 acceptor
1 3 donor
1 4 acceptor
1 4 donor
1 5 acceptor
1 5 donor
1 6 acceptor
1 7 acceptor
1 8 acceptor
1 9 donor
3 7 8 19 anion
6 1 10 11 13 15 16 rings

> <PUBCHEM_HEAVY_ATOM_COUNT>
20

> <PUBCHEM_ATOM_DEF_STEREO_COUNT>
5

> <PUBCHEM_ATOM_UDEF_STEREO_COUNT>
0

> <PUBCHEM_BOND_DEF_STEREO_COUNT>
0

> <PUBCHEM_BOND_UDEF_STEREO_COUNT>
0

> <PUBCHEM_ISOTOPIC_ATOM_COUNT>
0

> <PUBCHEM_COMPONENT_COUNT>
1

> <PUBCHEM_CACTVS_TAUTO_COUNT>
2

> <PUBCHEM_CONFORMER_ID>
0000FF1D00000001

> <PUBCHEM_MMFF94_ENERGY>
41.6575

> <PUBCHEM_FEATURE_SELFOVERLAP>
76.202

> <PUBCHEM_SHAPE_FINGERPRINT>
10411042 1 18410577245238214666
10967382 1 17906173945195788336
11578080 2 17604450516924758584
11680986 33 18336277815979325048
116883 192 18409173211785703727
12553582 1 18120666720961290918
12788726 201 18342448292113761722
12839892 36 16899637493142611018
13052359 8 18123476243505154855
13140716 1 18408045125592749635
14178342 30 17251194817011668970
14790565 3 17547565985977750549
15042514 8 18194685006156119722
16945 1 18267868474309669128
193761 8 18410578383594081952
19591789 44 17761776573515880939
20028762 73 18043823185310719437
20645476 183 17910942871049832390
21041028 32 18339371768469080166
21478907 32 18411422821361532643
21524375 3 17695907009354653544
2255824 54 17472982800607444577
23526113 38 17909305461949952703
23557571 272 18115877463623565866
23558518 356 18343581875964548848
23559900 14 17901392509468847602
23598288 3 18126830823796958954
23598291 2 18044071493838235979
23728640 28 17979365488073413042
2748010 2 18335711515650595804
3084891 72 17545044157411348344
3091708 16 9278800071673599961
352729 6 18119804957190097660
474229 33 17979914131733188721
54173680 148 18338520849368743298
6443956 14 18051976917969449885
7364860 26 17760929545793531927
81228 2 18343591736845782065
8272917 22 17689995635823481135

> <PUBCHEM_SHAPE_MULTIPOLES>
359.66
5.83
5.12
0.92
3.73
2.35
-0.05
-5.08
-0.03
-5.03
0
0.06
-0.4
0.11

> <PUBCHEM_SHAPE_SELFOVERLAP>
731.046

> <PUBCHEM_SHAPE_VOLUME>
206.6

> <PUBCHEM_COORDINATE_TYPE>
2
5
10

$$$$

