17395896
  -OEChem-06241222533D

 35 37  0     1  0  0  0  0  0999 V2000
   -0.8028   -2.4552   -0.2440 S   0  0  0  0  0  0  0  0  0  0  0  0
    6.0629    1.6619    0.2479 F   0  0  0  0  0  0  0  0  0  0  0  0
   -2.3851    1.9329   -0.2486 O   0  0  0  0  0  0  0  0  0  0  0  0
   -2.4613   -0.4257   -0.3026 N   0  0  0  0  0  0  0  0  0  0  0  0
   -0.1001    0.0311   -0.1595 N   0  0  0  0  0  0  0  0  0  0  0  0
   -5.2912    0.1791    0.6426 C   0  0  1  0  0  0  0  0  0  0  0  0
   -4.4848    0.9146   -0.3872 C   0  0  1  0  0  0  0  0  0  0  0  0
   -5.2502    1.6790    0.6528 C   0  0  0  0  0  0  0  0  0  0  0  0
   -6.5400   -0.5077    0.2292 C   0  0  0  0  0  0  0  0  0  0  0  0
   -2.9898    0.8714   -0.3051 C   0  0  0  0  0  0  0  0  0  0  0  0
   -1.1379   -0.7722   -0.2351 C   0  0  0  0  0  0  0  0  0  0  0  0
    1.0508   -0.7306   -0.1040 C   0  0  0  0  0  0  0  0  0  0  0  0
    0.8711   -2.0975   -0.1382 C   0  0  0  0  0  0  0  0  0  0  0  0
    2.3439   -0.1134   -0.0131 C   0  0  0  0  0  0  0  0  0  0  0  0
    1.8570   -3.1981   -0.0976 C   0  0  0  0  0  0  0  0  0  0  0  0
    3.1669   -0.3763    1.0820 C   0  0  0  0  0  0  0  0  0  0  0  0
    2.7772    0.7490   -1.0202 C   0  0  0  0  0  0  0  0  0  0  0  0
    4.4233    0.2233    1.1699 C   0  0  0  0  0  0  0  0  0  0  0  0
    4.0335    1.3486   -0.9321 C   0  0  0  0  0  0  0  0  0  0  0  0
    4.8565    1.0857    0.1629 C   0  0  0  0  0  0  0  0  0  0  0  0
   -4.7819   -0.3408    1.4444 H   0  0  0  0  0  0  0  0  0  0  0  0
   -4.8715    0.9659   -1.4002 H   0  0  0  0  0  0  0  0  0  0  0  0
   -4.7033    2.1588    1.4559 H   0  0  0  0  0  0  0  0  0  0  0  0
   -6.1285    2.2257    0.3307 H   0  0  0  0  0  0  0  0  0  0  0  0
   -7.0661    0.0244   -0.5706 H   0  0  0  0  0  0  0  0  0  0  0  0
   -6.3129   -1.5168   -0.1290 H   0  0  0  0  0  0  0  0  0  0  0  0
   -7.2214   -0.5966    1.0812 H   0  0  0  0  0  0  0  0  0  0  0  0
   -3.1085   -1.2079   -0.3591 H   0  0  0  0  0  0  0  0  0  0  0  0
    2.1461   -3.4149    0.9360 H   0  0  0  0  0  0  0  0  0  0  0  0
    1.4629   -4.1216   -0.5357 H   0  0  0  0  0  0  0  0  0  0  0  0
    2.7611   -2.9409   -0.6595 H   0  0  0  0  0  0  0  0  0  0  0  0
    2.8458   -1.0369    1.8838 H   0  0  0  0  0  0  0  0  0  0  0  0
    2.1491    0.9637   -1.8816 H   0  0  0  0  0  0  0  0  0  0  0  0
    5.0636    0.0208    2.0234 H   0  0  0  0  0  0  0  0  0  0  0  0
    4.3714    2.0200   -1.7160 H   0  0  0  0  0  0  0  0  0  0  0  0
  1 11  1  0  0  0  0
  1 13  1  0  0  0  0
  2 20  1  0  0  0  0
  3 10  2  0  0  0  0
  4 10  1  0  0  0  0
  4 11  1  0  0  0  0
  4 28  1  0  0  0  0
  5 11  2  0  0  0  0
  5 12  1  0  0  0  0
  6  7  1  0  0  0  0
  6  8  1  0  0  0  0
  6  9  1  0  0  0  0
  6 21  1  0  0  0  0
  7  8  1  0  0  0  0
  7 10  1  0  0  0  0
  7 22  1  0  0  0  0
  8 23  1  0  0  0  0
  8 24  1  0  0  0  0
  9 25  1  0  0  0  0
  9 26  1  0  0  0  0
  9 27  1  0  0  0  0
 12 13  2  0  0  0  0
 12 14  1  0  0  0  0
 13 15  1  0  0  0  0
 14 16  2  0  0  0  0
 14 17  1  0  0  0  0
 15 29  1  0  0  0  0
 15 30  1  0  0  0  0
 15 31  1  0  0  0  0
 16 18  1  0  0  0  0
 16 32  1  0  0  0  0
 17 19  2  0  0  0  0
 17 33  1  0  0  0  0
 18 20  2  0  0  0  0
 18 34  1  0  0  0  0
 19 20  1  0  0  0  0
 19 35  1  0  0  0  0
M  END
> <PUBCHEM_COMPOUND_CID>
17395896

> <PUBCHEM_CONFORMER_RMSD>
0.6

> <PUBCHEM_CONFORMER_DIVERSEORDER>
1
12
15
19
18
14
7
20
13
8
5
10
9
11
21
6
2
16
3
17
4

> <PUBCHEM_MMFF94_PARTIAL_CHARGES>
29
1 -0.08
10 0.63
11 0.44
12 0.17
13 -0.14
14 0.05
15 0.18
16 -0.15
17 -0.15
18 -0.15
19 -0.15
2 -0.19
20 0.19
21 0.1
22 0.1
23 0.1
24 0.1
28 0.37
3 -0.57
32 0.15
33 0.15
34 0.15
35 0.15
4 -0.49
5 -0.57
6 -0.19
7 -0.1
8 -0.2
9 0.09

> <PUBCHEM_EFFECTIVE_ROTOR_COUNT>
4.6

> <PUBCHEM_PHARMACOPHORE_FEATURES>
4
1 3 acceptor
1 4 donor
5 1 5 11 12 13 rings
6 14 16 17 18 19 20 rings

> <PUBCHEM_HEAVY_ATOM_COUNT>
20

> <PUBCHEM_ATOM_DEF_STEREO_COUNT>
0

> <PUBCHEM_ATOM_UDEF_STEREO_COUNT>
2

> <PUBCHEM_BOND_DEF_STEREO_COUNT>
0

> <PUBCHEM_BOND_UDEF_STEREO_COUNT>
0

> <PUBCHEM_ISOTOPIC_ATOM_COUNT>
0

> <PUBCHEM_COMPONENT_COUNT>
1

> <PUBCHEM_CACTVS_TAUTO_COUNT>
3

> <PUBCHEM_CONFORMER_ID>
010970B800000001

> <PUBCHEM_MMFF94_ENERGY>
40.6441

> <PUBCHEM_FEATURE_SELFOVERLAP>
20.297

> <PUBCHEM_SHAPE_FINGERPRINT>
10090160 65 18272654554231607023
10354089 29 17775286054281025308
10493431 412 18410575063415121927
10670039 82 18338221778402313900
10835480 77 18271250530071729285
11646440 116 17967526848513156873
11724838 91 18201157659352024767
11796584 16 6916260749711445029
12390115 104 18262507113652060626
12403259 118 17775009015678822157
12403259 415 18199467843139885429
12555020 224 9295280617831193985
12596602 18 17489593371977093841
12633257 1 15985101864979438760
12730499 353 17676761024301629958
12760667 363 9511469926287665805
12788726 201 17766829533931639214
12892183 10 16486705769556184372
12916748 109 18334853930819375576
13583140 156 16486710124737548791
13631057 29 18188778224324801583
13685833 64 9007049180642874229
13955234 65 18338795748920076178
14251752 14 6555424089260174771
14341114 328 17989207036195814065
14366163 111 16153428358922424939
14787075 74 18342175549416882779
14848160 23 15267060333552130369
15183329 4 8214150634037599035
15188451 53 14333120837514205113
15475509 35 16485850405397689402
17834072 32 18337673006014188076
18222031 100 11384114158914315210
18785283 64 18269839873147612498
19377110 9 18409456882008011515
19784866 240 10159700213551681983
19784866 9 18410016567416795674
20374829 77 9943806686206712617
20403669 9 10231760002117607208
204376 136 18410575093543436675
20645477 56 18335422339654845380
21033648 29 17896896356997757808
22149856 69 18266435725656182515
2215653 11 8862940551050501737
22224240 67 18411700959565099955
23016692 55 9871753515726565448
23272321 79 18410573968546705321
23559900 14 17980483678777592467
25147074 1 18336283278772056807
2916195 48 18040439867018906057
293599 30 18335420145295854632
314173 85 11527951183438552991
32948 21 7060377011971801339
3472631 163 18263078830172004916
350125 39 18193554691159747934
3545911 37 18411416219817177774
42630746 31 18409449227711677926
4325135 7 18410294697146622239
44062 13 9583221839615297265
474 4 18342738528649149943
474229 33 18413388718435274091
495365 180 17603308163773917630
5104073 3 18269547416334425147
5385378 56 18336826493851360810
5486654 2 18334856104821621335
56616090 163 18336256890983178454
7808743 9 18337956684309011256
960060 61 7276536608145414491

> <PUBCHEM_SHAPE_MULTIPOLES>
392.34
13.71
2.48
0.91
10.21
1.83
0.08
-8.13
2.65
-0.97
-0.23
-0.57
-0.14
-0.33

> <PUBCHEM_SHAPE_SELFOVERLAP>
829.107

> <PUBCHEM_SHAPE_VOLUME>
223.6

> <PUBCHEM_COORDINATE_TYPE>
2
5
10

$$$$

