167825
  -OEChem-07051213153D

 76 78  0     1  0  0  0  0  0999 V2000
   -2.9770    1.4556   -0.4910 O   0  0  0  0  0  0  0  0  0  0  0  0
   -3.0293   -1.3051   -0.7353 O   0  0  0  0  0  0  0  0  0  0  0  0
    2.8410   -1.6345   -0.3828 O   0  0  0  0  0  0  0  0  0  0  0  0
    2.6983    1.7104   -0.5751 O   0  0  0  0  0  0  0  0  0  0  0  0
   -4.4829    1.2189    1.2448 O   0  0  0  0  0  0  0  0  0  0  0  0
   -3.0168   -0.8778   -3.0055 O   0  0  0  0  0  0  0  0  0  0  0  0
    4.0483   -3.5586    0.0378 O   0  0  0  0  0  0  0  0  0  0  0  0
    4.4068    3.1600   -1.1377 O   0  0  0  0  0  0  0  0  0  0  0  0
   -0.7870    1.6029    0.6038 C   0  0  2  0  0  0  0  0  0  0  0  0
    0.4831    0.9115    1.2677 C   0  0  2  0  0  0  0  0  0  0  0  0
    0.2503   -1.6046    2.2140 C   0  0  2  0  0  0  0  0  0  0  0  0
   -0.9364   -2.1542    1.3862 C   0  0  0  0  0  0  0  0  0  0  0  0
    0.2245   -0.0505    2.4694 C   0  0  0  0  0  0  0  0  0  0  0  0
   -2.0125    0.6674    0.2435 C   0  0  2  0  0  0  0  0  0  0  0  0
   -0.7514   -1.5631   -0.0255 C   0  0  0  0  0  0  0  0  0  0  0  0
   -0.3016    2.3235   -0.7021 C   0  0  0  0  0  0  0  0  0  0  0  0
   -1.7832   -0.6162   -0.5932 C   0  0  1  0  0  0  0  0  0  0  0  0
    1.6044   -2.0741    1.6270 C   0  0  0  0  0  0  0  0  0  0  0  0
    1.5577    1.9908    1.5133 C   0  0  0  0  0  0  0  0  0  0  0  0
    0.8689    3.2961   -0.5003 C   0  0  0  0  0  0  0  0  0  0  0  0
    1.6493   -2.2737    0.0934 C   0  0  1  0  0  0  0  0  0  0  0  0
   -1.3626    2.6838    1.5726 C   0  0  0  0  0  0  0  0  0  0  0  0
    2.0441    2.6714    0.2511 C   0  0  2  0  0  0  0  0  0  0  0  0
    0.4291   -1.7748   -0.6698 C   0  0  0  0  0  0  0  0  0  0  0  0
   -1.0488   -3.6900    1.5791 C   0  0  0  0  0  0  0  0  0  0  0  0
   -2.3111   -1.6724    1.9523 C   0  0  0  0  0  0  0  0  0  0  0  0
    0.6800   -1.4523   -2.1216 C   0  0  0  0  0  0  0  0  0  0  0  0
    2.0288    2.3946    2.7051 C   0  0  0  0  0  0  0  0  0  0  0  0
   -4.1626    1.6424    0.1424 C   0  0  0  0  0  0  0  0  0  0  0  0
   -3.5289   -1.3572   -2.0030 C   0  0  0  0  0  0  0  0  0  0  0  0
    3.9665   -2.4014   -0.3513 C   0  0  0  0  0  0  0  0  0  0  0  0
    3.6892    2.1985   -1.3780 C   0  0  0  0  0  0  0  0  0  0  0  0
   -5.0559    2.4710   -0.7303 C   0  0  0  0  0  0  0  0  0  0  0  0
   -4.8281   -2.1042   -1.9995 C   0  0  0  0  0  0  0  0  0  0  0  0
    5.1251   -1.6082   -0.8752 C   0  0  0  0  0  0  0  0  0  0  0  0
    3.7807    1.3742   -2.6263 C   0  0  0  0  0  0  0  0  0  0  0  0
    0.9499    0.3072    0.4944 H   0  0  0  0  0  0  0  0  0  0  0  0
    0.1817   -2.0398    3.2228 H   0  0  0  0  0  0  0  0  0  0  0  0
   -0.6730    0.2532    3.0124 H   0  0  0  0  0  0  0  0  0  0  0  0
    1.0231    0.0792    3.2086 H   0  0  0  0  0  0  0  0  0  0  0  0
   -2.4743    0.4374    1.1810 H   0  0  0  0  0  0  0  0  0  0  0  0
   -1.1222    2.8868   -1.1627 H   0  0  0  0  0  0  0  0  0  0  0  0
    0.0031    1.5703   -1.4380 H   0  0  0  0  0  0  0  0  0  0  0  0
   -1.4511   -0.2453   -1.5652 H   0  0  0  0  0  0  0  0  0  0  0  0
    1.8464   -3.0447    2.0828 H   0  0  0  0  0  0  0  0  0  0  0  0
    2.4079   -1.4056    1.9624 H   0  0  0  0  0  0  0  0  0  0  0  0
    1.1975    3.6462   -1.4865 H   0  0  0  0  0  0  0  0  0  0  0  0
    0.5136    4.1800    0.0431 H   0  0  0  0  0  0  0  0  0  0  0  0
    1.7015   -3.3496   -0.1246 H   0  0  0  0  0  0  0  0  0  0  0  0
   -0.6074    3.3925    1.9226 H   0  0  0  0  0  0  0  0  0  0  0  0
   -2.1377    3.2876    1.0891 H   0  0  0  0  0  0  0  0  0  0  0  0
   -1.8042    2.2240    2.4632 H   0  0  0  0  0  0  0  0  0  0  0  0
    2.7430    3.4762    0.5138 H   0  0  0  0  0  0  0  0  0  0  0  0
   -0.1885   -4.2107    1.1470 H   0  0  0  0  0  0  0  0  0  0  0  0
   -1.9368   -4.0839    1.0702 H   0  0  0  0  0  0  0  0  0  0  0  0
   -1.1014   -3.9744    2.6363 H   0  0  0  0  0  0  0  0  0  0  0  0
   -3.1888   -1.8081    1.3252 H   0  0  0  0  0  0  0  0  0  0  0  0
   -2.3125   -0.7264    2.4840 H   0  0  0  0  0  0  0  0  0  0  0  0
   -2.5585   -2.3268    2.8062 H   0  0  0  0  0  0  0  0  0  0  0  0
    1.1390   -0.4656   -2.2255 H   0  0  0  0  0  0  0  0  0  0  0  0
   -0.2314   -1.4883   -2.7244 H   0  0  0  0  0  0  0  0  0  0  0  0
    1.3535   -2.1957   -2.5628 H   0  0  0  0  0  0  0  0  0  0  0  0
    1.6790    1.9900    3.6463 H   0  0  0  0  0  0  0  0  0  0  0  0
    2.7747    3.1805    2.7752 H   0  0  0  0  0  0  0  0  0  0  0  0
   -4.5946    3.4445   -0.9153 H   0  0  0  0  0  0  0  0  0  0  0  0
   -6.0120    2.6296   -0.2233 H   0  0  0  0  0  0  0  0  0  0  0  0
   -5.2435    1.9476   -1.6714 H   0  0  0  0  0  0  0  0  0  0  0  0
   -4.6679   -3.1244   -1.6416 H   0  0  0  0  0  0  0  0  0  0  0  0
   -5.2230   -2.1502   -3.0184 H   0  0  0  0  0  0  0  0  0  0  0  0
   -5.5522   -1.5832   -1.3681 H   0  0  0  0  0  0  0  0  0  0  0  0
    5.1500   -0.6223   -0.4036 H   0  0  0  0  0  0  0  0  0  0  0  0
    6.0569   -2.1239   -0.6254 H   0  0  0  0  0  0  0  0  0  0  0  0
    5.0487   -1.5167   -1.9607 H   0  0  0  0  0  0  0  0  0  0  0  0
    4.8145    1.3718   -2.9823 H   0  0  0  0  0  0  0  0  0  0  0  0
    3.1241    1.7979   -3.3897 H   0  0  0  0  0  0  0  0  0  0  0  0
    3.4935    0.3397   -2.4280 H   0  0  0  0  0  0  0  0  0  0  0  0
  1 14  1  0  0  0  0
  1 29  1  0  0  0  0
  2 17  1  0  0  0  0
  2 30  1  0  0  0  0
  3 21  1  0  0  0  0
  3 31  1  0  0  0  0
  4 23  1  0  0  0  0
  4 32  1  0  0  0  0
  5 29  2  0  0  0  0
  6 30  2  0  0  0  0
  7 31  2  0  0  0  0
  8 32  2  0  0  0  0
  9 10  1  0  0  0  0
  9 14  1  0  0  0  0
  9 16  1  0  0  0  0
  9 22  1  0  0  0  0
 10 13  1  0  0  0  0
 10 19  1  0  0  0  0
 10 37  1  0  0  0  0
 11 12  1  0  0  0  0
 11 13  1  0  0  0  0
 11 18  1  0  0  0  0
 11 38  1  0  0  0  0
 12 15  1  0  0  0  0
 12 25  1  0  0  0  0
 12 26  1  0  0  0  0
 13 39  1  0  0  0  0
 13 40  1  0  0  0  0
 14 17  1  0  0  0  0
 14 41  1  0  0  0  0
 15 17  1  0  0  0  0
 15 24  2  0  0  0  0
 16 20  1  0  0  0  0
 16 42  1  0  0  0  0
 16 43  1  0  0  0  0
 17 44  1  0  0  0  0
 18 21  1  0  0  0  0
 18 45  1  0  0  0  0
 18 46  1  0  0  0  0
 19 23  1  0  0  0  0
 19 28  2  0  0  0  0
 20 23  1  0  0  0  0
 20 47  1  0  0  0  0
 20 48  1  0  0  0  0
 21 24  1  0  0  0  0
 21 49  1  0  0  0  0
 22 50  1  0  0  0  0
 22 51  1  0  0  0  0
 22 52  1  0  0  0  0
 23 53  1  0  0  0  0
 24 27  1  0  0  0  0
 25 54  1  0  0  0  0
 25 55  1  0  0  0  0
 25 56  1  0  0  0  0
 26 57  1  0  0  0  0
 26 58  1  0  0  0  0
 26 59  1  0  0  0  0
 27 60  1  0  0  0  0
 27 61  1  0  0  0  0
 27 62  1  0  0  0  0
 28 63  1  0  0  0  0
 28 64  1  0  0  0  0
 29 33  1  0  0  0  0
 30 34  1  0  0  0  0
 31 35  1  0  0  0  0
 32 36  1  0  0  0  0
 33 65  1  0  0  0  0
 33 66  1  0  0  0  0
 33 67  1  0  0  0  0
 34 68  1  0  0  0  0
 34 69  1  0  0  0  0
 34 70  1  0  0  0  0
 35 71  1  0  0  0  0
 35 72  1  0  0  0  0
 35 73  1  0  0  0  0
 36 74  1  0  0  0  0
 36 75  1  0  0  0  0
 36 76  1  0  0  0  0
M  END
> <PUBCHEM_COMPOUND_CID>
167825

> <PUBCHEM_CONFORMER_RMSD>
1

> <PUBCHEM_CONFORMER_DIVERSEORDER>
1

> <PUBCHEM_MMFF94_PARTIAL_CHARGES>
29
1 -0.43
10 0.14
12 0.14
14 0.28
15 -0.28
17 0.42
19 -0.28
2 -0.43
21 0.42
23 0.42
24 -0.28
27 0.14
28 -0.3
29 0.66
3 -0.43
30 0.66
31 0.66
32 0.66
33 0.06
34 0.06
35 0.06
36 0.06
4 -0.43
5 -0.57
6 -0.57
63 0.15
64 0.15
7 -0.57
8 -0.57

> <PUBCHEM_EFFECTIVE_ROTOR_COUNT>
9.8

> <PUBCHEM_PHARMACOPHORE_FEATURES>
7
1 5 acceptor
1 6 acceptor
1 7 acceptor
1 8 acceptor
3 12 25 26 hydrophobe
6 11 12 15 18 21 24 rings
6 9 10 16 19 20 23 rings

> <PUBCHEM_HEAVY_ATOM_COUNT>
36

> <PUBCHEM_ATOM_DEF_STEREO_COUNT>
7

> <PUBCHEM_ATOM_UDEF_STEREO_COUNT>
0

> <PUBCHEM_BOND_DEF_STEREO_COUNT>
0

> <PUBCHEM_BOND_UDEF_STEREO_COUNT>
0

> <PUBCHEM_ISOTOPIC_ATOM_COUNT>
0

> <PUBCHEM_COMPONENT_COUNT>
1

> <PUBCHEM_CACTVS_TAUTO_COUNT>
1

> <PUBCHEM_CONFORMER_ID>
00028F9100000001

> <PUBCHEM_MMFF94_ENERGY>
142.2354

> <PUBCHEM_FEATURE_SELFOVERLAP>
35.52

> <PUBCHEM_SHAPE_FINGERPRINT>
10190108 129 17976242558014200971
1100329 8 18269547394036772122
11578080 2 17773004541276918442
12156800 1 16260878008198168336
133893 2 17986420903991005185
14713325 29 17840855292194658328
14955137 171 18115582802791184723
15163728 17 17344939402182121549
15297060 5 16667401898419646161
15439362 3 18272359906532976692
16945 1 18054236427455348441
17492 54 18126553755350633680
17909252 39 18041851592651738463
19319366 153 17910676789458255875
20600515 1 17096090332164080947
20691752 17 18059308637776473749
20764821 26 18342163479989185994
22907989 373 17554041040107392781
23419403 2 18058995195337612979
238 59 18193282879601068430
27425 322 16414619467962703212
2818148 4 18259989249858229607
35225 105 17196599718016492151
469060 322 17693930100596461688
6669772 16 18272642450903049264

> <PUBCHEM_SHAPE_MULTIPOLES>
693.91
8.14
4.75
2.66
1.13
0.14
0.05
0.55
5.3
-2.23
-0.56
0.23
-0.28
-1.01

> <PUBCHEM_SHAPE_SELFOVERLAP>
1440.658

> <PUBCHEM_SHAPE_VOLUME>
390.5

> <PUBCHEM_COORDINATE_TYPE>
2
5
10

$$$$

