582691
  -OEChem-06241222432D

 44 47  0     0  0  0  0  0  0999 V2000
    6.6353   -1.6009    0.0000 O   0  0  0  0  0  0  0  0  0  0  0  0
    4.6783   -3.6228    0.0000 N   0  0  0  0  0  0  0  0  0  0  0  0
    8.8564    2.4074    0.0000 N   0  0  0  0  0  0  0  0  0  0  0  0
    6.2781    0.0939    0.0000 N   0  0  0  0  0  0  0  0  0  0  0  0
    8.2728    3.2121    0.0000 N   0  0  0  0  0  0  0  0  0  0  0  0
    7.2566    0.3001    0.0000 N   0  0  0  0  0  0  0  0  0  0  0  0
    8.8564    4.0169    0.0000 N   0  0  0  0  0  0  0  0  0  0  0  0
    4.6783   -2.0133    0.0000 C   0  0  0  0  0  0  0  0  0  0  0  0
    3.7320   -2.3181    0.0000 C   0  0  0  0  0  0  0  0  0  0  0  0
    3.7320   -3.3181    0.0000 C   0  0  0  0  0  0  0  0  0  0  0  0
    4.9889   -1.0628    0.0000 C   0  0  0  0  0  0  0  0  0  0  0  0
    5.2619   -2.8181    0.0000 C   0  0  0  0  0  0  0  0  0  0  0  0
    8.5458    1.4569    0.0000 C   0  0  0  0  0  0  0  0  0  0  0  0
    2.8660   -1.8181    0.0000 C   0  0  0  0  0  0  0  0  0  0  0  0
    9.8027    2.7121    0.0000 C   0  0  0  0  0  0  0  0  0  0  0  0
    2.8660   -3.8181    0.0000 C   0  0  0  0  0  0  0  0  0  0  0  0
    5.9674   -0.8566    0.0000 C   0  0  0  0  0  0  0  0  0  0  0  0
    9.8027    3.7121    0.0000 C   0  0  0  0  0  0  0  0  0  0  0  0
    7.5673    1.2507    0.0000 C   0  0  0  0  0  0  0  0  0  0  0  0
    2.0000   -2.3181    0.0000 C   0  0  0  0  0  0  0  0  0  0  0  0
    2.0000   -3.3181    0.0000 C   0  0  0  0  0  0  0  0  0  0  0  0
   10.6687    2.2121    0.0000 C   0  0  0  0  0  0  0  0  0  0  0  0
   10.6687    4.2121    0.0000 C   0  0  0  0  0  0  0  0  0  0  0  0
    6.8994    1.9950    0.0000 C   0  0  0  0  0  0  0  0  0  0  0  0
   11.5347    2.7121    0.0000 C   0  0  0  0  0  0  0  0  0  0  0  0
   11.5347    3.7121    0.0000 C   0  0  0  0  0  0  0  0  0  0  0  0
    4.9684   -0.4432    0.0000 H   0  0  0  0  0  0  0  0  0  0  0  0
    4.3751   -0.9755    0.0000 H   0  0  0  0  0  0  0  0  0  0  0  0
    5.8819   -2.8181    0.0000 H   0  0  0  0  0  0  0  0  0  0  0  0
    4.8709   -4.2121    0.0000 H   0  0  0  0  0  0  0  0  0  0  0  0
    8.5663    0.8372    0.0000 H   0  0  0  0  0  0  0  0  0  0  0  0
    9.1596    1.3695    0.0000 H   0  0  0  0  0  0  0  0  0  0  0  0
    2.8660   -1.1981    0.0000 H   0  0  0  0  0  0  0  0  0  0  0  0
    2.8660   -4.4381    0.0000 H   0  0  0  0  0  0  0  0  0  0  0  0
    1.4631   -2.0081    0.0000 H   0  0  0  0  0  0  0  0  0  0  0  0
    1.4631   -3.6281    0.0000 H   0  0  0  0  0  0  0  0  0  0  0  0
   10.6687    1.5921    0.0000 H   0  0  0  0  0  0  0  0  0  0  0  0
    5.8640    0.5554    0.0000 H   0  0  0  0  0  0  0  0  0  0  0  0
   10.6687    4.8321    0.0000 H   0  0  0  0  0  0  0  0  0  0  0  0
    7.3609    2.4090    0.0000 H   0  0  0  0  0  0  0  0  0  0  0  0
    6.4854    2.4564    0.0000 H   0  0  0  0  0  0  0  0  0  0  0  0
    6.4380    1.5809    0.0000 H   0  0  0  0  0  0  0  0  0  0  0  0
   12.0716    2.4021    0.0000 H   0  0  0  0  0  0  0  0  0  0  0  0
   12.0716    4.0221    0.0000 H   0  0  0  0  0  0  0  0  0  0  0  0
  1 17  2  0  0  0  0
  2 10  1  0  0  0  0
  2 12  1  0  0  0  0
  2 30  1  0  0  0  0
  3  5  1  0  0  0  0
  3 13  1  0  0  0  0
  3 15  1  0  0  0  0
  4  6  1  0  0  0  0
  4 17  1  0  0  0  0
  4 38  1  0  0  0  0
  5  7  2  0  0  0  0
  6 19  2  3  0  0  0
  7 18  1  0  0  0  0
  8  9  1  0  0  0  0
  8 11  1  0  0  0  0
  8 12  2  0  0  0  0
  9 10  1  0  0  0  0
  9 14  2  0  0  0  0
 10 16  2  0  0  0  0
 11 17  1  0  0  0  0
 11 27  1  0  0  0  0
 11 28  1  0  0  0  0
 12 29  1  0  0  0  0
 13 19  1  0  0  0  0
 13 31  1  0  0  0  0
 13 32  1  0  0  0  0
 14 20  1  0  0  0  0
 14 33  1  0  0  0  0
 15 18  1  0  0  0  0
 15 22  2  0  0  0  0
 16 21  1  0  0  0  0
 16 34  1  0  0  0  0
 18 23  2  0  0  0  0
 19 24  1  0  0  0  0
 20 21  2  0  0  0  0
 20 35  1  0  0  0  0
 21 36  1  0  0  0  0
 22 25  1  0  0  0  0
 22 37  1  0  0  0  0
 23 26  1  0  0  0  0
 23 39  1  0  0  0  0
 24 40  1  0  0  0  0
 24 41  1  0  0  0  0
 24 42  1  0  0  0  0
 25 26  2  0  0  0  0
 25 43  1  0  0  0  0
 26 44  1  0  0  0  0
M  END
> <PUBCHEM_COMPOUND_CID>
582691

> <PUBCHEM_COMPOUND_CANONICALIZED>
1

> <PUBCHEM_CACTVS_COMPLEXITY>
538

> <PUBCHEM_CACTVS_HBOND_ACCEPTOR>
4

> <PUBCHEM_CACTVS_HBOND_DONOR>
2

> <PUBCHEM_CACTVS_ROTATABLE_BOND>
5

> <PUBCHEM_CACTVS_SUBSKEYS>
AAADceB7oAAAAAAAAAAAAAAAAAAAAWLAAAAwYAAAAAAAAFgB/gAAHgAYAAAADAjBngQ+wPLrkACqAzV3VACShCQxkiAa2aE4dJgIYPLAlZGUIAhgmADIyAccicCegAAAAAACACAAAAAAAAQAQAAAAAAAAA==

> <PUBCHEM_IUPAC_OPENEYE_NAME>
N-[[2-(benzotriazol-1-yl)-1-methyl-ethylidene]amino]-2-(1H-indol-3-yl)acetamide

> <PUBCHEM_IUPAC_CAS_NAME>
N-[1-(1-benzotriazolyl)propan-2-ylideneamino]-2-(1H-indol-3-yl)acetamide

> <PUBCHEM_IUPAC_NAME>
N-[1-(benzotriazol-1-yl)propan-2-ylideneamino]-2-(1H-indol-3-yl)acetamide

> <PUBCHEM_IUPAC_SYSTEMATIC_NAME>
N-[1-(benzotriazol-1-yl)propan-2-ylideneamino]-2-(1H-indol-3-yl)ethanamide

> <PUBCHEM_IUPAC_TRADITIONAL_NAME>
N-[[2-(benzotriazol-1-yl)-1-methyl-ethylidene]amino]-2-(1H-indol-3-yl)acetamide

> <PUBCHEM_IUPAC_INCHI>
InChI=1S/C19H18N6O/c1-13(12-25-18-9-5-4-8-17(18)22-24-25)21-23-19(26)10-14-11-20-16-7-3-2-6-15(14)16/h2-9,11,20H,10,12H2,1H3,(H,23,26)

> <PUBCHEM_IUPAC_INCHIKEY>
GPKWXBQEYLRNMV-UHFFFAOYSA-N

> <PUBCHEM_XLOGP3_AA>
2.5

> <PUBCHEM_EXACT_MASS>
346.154209

> <PUBCHEM_MOLECULAR_FORMULA>
C19H18N6O

> <PUBCHEM_MOLECULAR_WEIGHT>
346.38582

> <PUBCHEM_OPENEYE_CAN_SMILES>
CC(=NNC(=O)CC1=CNC2=CC=CC=C21)CN3C4=CC=CC=C4N=N3

> <PUBCHEM_OPENEYE_ISO_SMILES>
CC(=NNC(=O)CC1=CNC2=CC=CC=C21)CN3C4=CC=CC=C4N=N3

> <PUBCHEM_CACTVS_TPSA>
88

> <PUBCHEM_MONOISOTOPIC_WEIGHT>
346.154209

> <PUBCHEM_TOTAL_CHARGE>
0

> <PUBCHEM_HEAVY_ATOM_COUNT>
26

> <PUBCHEM_ATOM_DEF_STEREO_COUNT>
0

> <PUBCHEM_ATOM_UDEF_STEREO_COUNT>
0

> <PUBCHEM_BOND_DEF_STEREO_COUNT>
0

> <PUBCHEM_BOND_UDEF_STEREO_COUNT>
1

> <PUBCHEM_ISOTOPIC_ATOM_COUNT>
0

> <PUBCHEM_COMPONENT_COUNT>
1

> <PUBCHEM_CACTVS_TAUTO_COUNT>
2

> <PUBCHEM_COORDINATE_TYPE>
1
5
255

> <PUBCHEM_BONDANNOTATIONS>
10  16  8
14  20  8
15  18  8
15  22  8
16  21  8
18  23  8
2  10  8
2  12  8
20  21  8
22  25  8
23  26  8
25  26  8
3  15  8
3  5  8
5  7  8
6  19  1
7  18  8
8  12  8
8  9  8
9  10  8
9  14  8

$$$$

