46173966
  -OEChem-07051213102D

 55 58  0     1  0  0  0  0  0999 V2000
    5.2881    1.7227    0.0000 O   0  0  0  0  0  0  0  0  0  0  0  0
    7.7105    0.0499    0.0000 O   0  0  0  0  0  0  0  0  0  0  0  0
    4.1189    1.8455    0.0000 O   0  0  0  0  0  0  0  0  0  0  0  0
    5.3356    2.8159    0.0000 O   0  0  0  0  0  0  0  0  0  0  0  0
    6.8402   -0.3477    0.0000 O   0  0  0  0  0  0  0  0  0  0  0  0
    2.1404   -1.0288    0.0000 O   0  0  0  0  0  0  0  0  0  0  0  0
    5.8070   -3.2245    0.0000 O   0  0  0  0  0  0  0  0  0  0  0  0
    6.2016    1.3159    0.0000 C   0  0  1  0  0  0  0  0  0  0  0  0
    7.0676    0.8159    0.0000 C   0  0  2  0  0  0  0  0  0  0  0  0
    2.9318    0.4492    0.0000 C   0  0  3  0  0  0  0  0  0  0  0  0
    4.6189    0.9795    0.0000 C   0  0  2  0  0  0  0  0  0  0  0  0
    5.1189    0.1135    0.0000 C   0  0  2  0  0  0  0  0  0  0  0  0
    3.6481    1.1192    0.0000 C   0  0  0  0  0  0  0  0  0  0  0  0
    6.2016    2.3159    0.0000 C   0  0  1  0  0  0  0  0  0  0  0  0
    6.0971    0.3214    0.0000 C   0  0  0  0  0  0  0  0  0  0  0  0
    7.9336    1.3159    0.0000 C   0  0  0  0  0  0  0  0  0  0  0  0
    7.0676    2.8159    0.0000 C   0  0  2  0  0  0  0  0  0  0  0  0
    7.9336    2.3159    0.0000 C   0  0  0  0  0  0  0  0  0  0  0  0
    4.7545   -0.7971    0.0000 C   0  0  0  0  0  0  0  0  0  0  0  0
    3.0065   -0.5288    0.0000 C   0  0  0  0  0  0  0  0  0  0  0  0
    2.0000    0.8120    0.0000 C   0  0  0  0  0  0  0  0  0  0  0  0
    5.7630   -0.6515    0.0000 C   0  0  0  0  0  0  0  0  0  0  0  0
    3.8161   -1.0824    0.0000 C   0  0  0  0  0  0  0  0  0  0  0  0
    5.4307   -1.5338    0.0000 C   0  0  2  0  0  0  0  0  0  0  0  0
    7.0676    3.8159    0.0000 C   0  0  0  0  0  0  0  0  0  0  0  0
    5.1308   -2.4878    0.0000 C   0  0  0  0  0  0  0  0  0  0  0  0
    6.4068   -1.3165    0.0000 C   0  0  0  0  0  0  0  0  0  0  0  0
    3.8713    1.6976    0.0000 H   0  0  0  0  0  0  0  0  0  0  0  0
    3.1341    1.4659    0.0000 H   0  0  0  0  0  0  0  0  0  0  0  0
    6.2016    2.9359    0.0000 H   0  0  0  0  0  0  0  0  0  0  0  0
    8.1457    0.7333    0.0000 H   0  0  0  0  0  0  0  0  0  0  0  0
    8.5442    1.4236    0.0000 H   0  0  0  0  0  0  0  0  0  0  0  0
    7.6046    3.1259    0.0000 H   0  0  0  0  0  0  0  0  0  0  0  0
    8.5442    2.2083    0.0000 H   0  0  0  0  0  0  0  0  0  0  0  0
    8.1457    2.8985    0.0000 H   0  0  0  0  0  0  0  0  0  0  0  0
    2.2250    1.3897    0.0000 H   0  0  0  0  0  0  0  0  0  0  0  0
    1.4222    1.0370    0.0000 H   0  0  0  0  0  0  0  0  0  0  0  0
    1.7750    0.2342    0.0000 H   0  0  0  0  0  0  0  0  0  0  0  0
    5.2887   -1.0508    0.0000 H   0  0  0  0  0  0  0  0  0  0  0  0
    6.1622   -1.1258    0.0000 H   0  0  0  0  0  0  0  0  0  0  0  0
    6.2373   -0.2522    0.0000 H   0  0  0  0  0  0  0  0  0  0  0  0
    3.7220   -1.6952    0.0000 H   0  0  0  0  0  0  0  0  0  0  0  0
    8.3210    0.1575    0.0000 H   0  0  0  0  0  0  0  0  0  0  0  0
    3.4989    1.8455    0.0000 H   0  0  0  0  0  0  0  0  0  0  0  0
    5.6166   -0.9423    0.0000 H   0  0  0  0  0  0  0  0  0  0  0  0
    7.6876    3.8159    0.0000 H   0  0  0  0  0  0  0  0  0  0  0  0
    7.0676    4.4359    0.0000 H   0  0  0  0  0  0  0  0  0  0  0  0
    6.4476    3.8159    0.0000 H   0  0  0  0  0  0  0  0  0  0  0  0
    5.3356    3.4359    0.0000 H   0  0  0  0  0  0  0  0  0  0  0  0
    4.5806   -2.2019    0.0000 H   0  0  0  0  0  0  0  0  0  0  0  0
    4.7538   -2.9800    0.0000 H   0  0  0  0  0  0  0  0  0  0  0  0
    6.5415   -1.9217    0.0000 H   0  0  0  0  0  0  0  0  0  0  0  0
    7.0120   -1.1818    0.0000 H   0  0  0  0  0  0  0  0  0  0  0  0
    6.2721   -0.7113    0.0000 H   0  0  0  0  0  0  0  0  0  0  0  0
    5.6211   -3.8159    0.0000 H   0  0  0  0  0  0  0  0  0  0  0  0
  8  1  1  6  0  0  0
  1 11  1  0  0  0  0
  9  2  1  1  0  0  0
  2 43  1  0  0  0  0
 11  3  1  1  0  0  0
  3 44  1  0  0  0  0
 14  4  1  6  0  0  0
  4 49  1  0  0  0  0
  5 15  2  0  0  0  0
  6 20  2  0  0  0  0
  7 26  1  0  0  0  0
  7 55  1  0  0  0  0
  8  9  1  0  0  0  0
  8 14  1  0  0  0  0
  8 15  1  0  0  0  0
  9 10  1  0  0  0  0
  9 16  1  0  0  0  0
 10 13  1  0  0  0  0
 10 20  1  0  0  0  0
 10 21  1  0  0  0  0
 11 12  1  0  0  0  0
 11 13  1  0  0  0  0
 12 15  1  0  0  0  0
 12 19  1  0  0  0  0
 12 22  1  1  0  0  0
 13 28  1  0  0  0  0
 13 29  1  0  0  0  0
 14 17  1  0  0  0  0
 14 30  1  0  0  0  0
 16 18  1  0  0  0  0
 16 31  1  0  0  0  0
 16 32  1  0  0  0  0
 17 18  1  0  0  0  0
 17 25  1  1  0  0  0
 17 33  1  0  0  0  0
 18 34  1  0  0  0  0
 18 35  1  0  0  0  0
 19 23  2  0  0  0  0
 19 24  1  0  0  0  0
 20 23  1  0  0  0  0
 21 36  1  0  0  0  0
 21 37  1  0  0  0  0
 21 38  1  0  0  0  0
 22 39  1  0  0  0  0
 22 40  1  0  0  0  0
 22 41  1  0  0  0  0
 23 42  1  0  0  0  0
 24 26  1  0  0  0  0
 24 27  1  1  0  0  0
 24 45  1  0  0  0  0
 25 46  1  0  0  0  0
 25 47  1  0  0  0  0
 25 48  1  0  0  0  0
 26 50  1  0  0  0  0
 26 51  1  0  0  0  0
 27 52  1  0  0  0  0
 27 53  1  0  0  0  0
 27 54  1  0  0  0  0
M  END
> <PUBCHEM_COMPOUND_CID>
46173966

> <PUBCHEM_COMPOUND_CANONICALIZED>
1

> <PUBCHEM_CACTVS_COMPLEXITY>
776

> <PUBCHEM_CACTVS_HBOND_ACCEPTOR>
7

> <PUBCHEM_CACTVS_HBOND_DONOR>
4

> <PUBCHEM_CACTVS_ROTATABLE_BOND>
2

> <PUBCHEM_CACTVS_SUBSKEYS>
AAADceB4OAAAAAAAAAAAAAAAAAAAASAAAAA0QAAABAAQAACQAAAAGgAACAAAD1SggAICCAAABgCIAqBSAAIAAAAgAAAACAFAAEgREBYAAQQCQAAF4AAPAQPK7vzvgAAAAAAAAADAAAYQADCAAAAAAAAAAA==

> <PUBCHEM_IUPAC_INCHI>
InChI=1S/C20H28O7/c1-10-5-6-18(25)16(3)9-19(26)17(4,12(7-13(16)22)11(2)8-21)15(24)20(18,27-19)14(10)23/h7,10-11,14,21,23,25-26H,5-6,8-9H2,1-4H3/t10-,11-,14+,16?,17-,18-,19-,20-/m0/s1

> <PUBCHEM_IUPAC_INCHIKEY>
BKRBOORGXGTRIL-VYBQUAJNSA-N

> <PUBCHEM_XLOGP3_AA>
-1

> <PUBCHEM_EXACT_MASS>
380.183503

> <PUBCHEM_MOLECULAR_FORMULA>
C20H28O7

> <PUBCHEM_MOLECULAR_WEIGHT>
380.43212

> <PUBCHEM_OPENEYE_CAN_SMILES>
CC1CCC2(C3(CC4(C(C(=CC3=O)C(C)CO)(C(=O)C2(C1O)O4)C)O)C)O

> <PUBCHEM_OPENEYE_ISO_SMILES>
C[C@H]1CC[C@]2([C@]3([C@@H]1O)C(=O)[C@@]4(C(=CC(=O)C2(C[C@@]4(O3)O)C)[C@@H](C)CO)C)O

> <PUBCHEM_CACTVS_TPSA>
124

> <PUBCHEM_MONOISOTOPIC_WEIGHT>
380.183503

> <PUBCHEM_TOTAL_CHARGE>
0

> <PUBCHEM_HEAVY_ATOM_COUNT>
27

> <PUBCHEM_ATOM_DEF_STEREO_COUNT>
7

> <PUBCHEM_ATOM_UDEF_STEREO_COUNT>
1

> <PUBCHEM_BOND_DEF_STEREO_COUNT>
0

> <PUBCHEM_BOND_UDEF_STEREO_COUNT>
0

> <PUBCHEM_ISOTOPIC_ATOM_COUNT>
0

> <PUBCHEM_COMPONENT_COUNT>
1

> <PUBCHEM_CACTVS_TAUTO_COUNT>
3

> <PUBCHEM_COORDINATE_TYPE>
1
5
255

> <PUBCHEM_BONDANNOTATIONS>
8  1  6
10  21  3
12  22  5
17  25  5
9  2  5
24  27  5
11  3  5
14  4  6

$$$$

