440867
  -OEChem-07051212512D

 42 44  0     1  0  0  0  0  0999 V2000
    5.0474    2.8416    0.0000 P   0  0  3  0  0  0  0  0  0  0  0  0
    4.4026   -0.6115    0.0000 O   0  0  0  0  0  0  0  0  0  0  0  0
    6.7485   -1.7034    0.0000 O   0  0  0  0  0  0  0  0  0  0  0  0
    6.7523    0.4722    0.0000 O   0  0  0  0  0  0  0  0  0  0  0  0
    5.3548    1.8900    0.0000 O   0  0  0  0  0  0  0  0  0  0  0  0
    4.7400    3.7932    0.0000 O   0  0  0  0  0  0  0  0  0  0  0  0
    5.9990    3.1490    0.0000 O   0  0  0  0  0  0  0  0  0  0  0  0
    4.0958    2.5343    0.0000 O   0  0  0  0  0  0  0  0  0  0  0  0
    6.3882    4.3256    0.0000 O   0  0  0  0  0  0  0  0  0  0  0  0
    4.6783   -2.3721    0.0000 N   0  0  0  0  0  0  0  0  0  0  0  0
    4.6783   -3.9815    0.0000 N   0  0  0  0  0  0  0  0  0  0  0  0
    2.8660   -2.1768    0.0000 N   0  0  0  0  0  0  0  0  0  0  0  0
    2.0000   -3.6768    0.0000 N   0  0  0  0  0  0  0  0  0  0  0  0
    2.8660   -5.1768    0.0000 N   0  0  0  0  0  0  0  0  0  0  0  0
    5.9405   -1.1142    0.0000 C   0  0  2  0  0  0  0  0  0  0  0  0
    5.9422   -0.1142    0.0000 C   0  0  1  0  0  0  0  0  0  0  0  0
    4.9889   -1.4216    0.0000 C   0  0  1  0  0  0  0  0  0  0  0  0
    4.9917    0.1965    0.0000 C   0  0  1  0  0  0  0  0  0  0  0  0
    4.6844    1.1481    0.0000 C   0  0  0  0  0  0  0  0  0  0  0  0
    3.7320   -2.6768    0.0000 C   0  0  0  0  0  0  0  0  0  0  0  0
    5.2619   -3.1768    0.0000 C   0  0  0  0  0  0  0  0  0  0  0  0
    3.7320   -3.6768    0.0000 C   0  0  0  0  0  0  0  0  0  0  0  0
    2.8660   -4.1768    0.0000 C   0  0  0  0  0  0  0  0  0  0  0  0
    2.0000   -2.6768    0.0000 C   0  0  0  0  0  0  0  0  0  0  0  0
    5.4104    4.5352    0.0000 C   0  0  0  0  0  0  0  0  0  0  0  0
    5.1031    5.4868    0.0000 C   0  0  0  0  0  0  0  0  0  0  0  0
    6.4934   -0.8337    0.0000 H   0  0  0  0  0  0  0  0  0  0  0  0
    6.4942   -0.3966    0.0000 H   0  0  0  0  0  0  0  0  0  0  0  0
    5.4266   -1.8607    0.0000 H   0  0  0  0  0  0  0  0  0  0  0  0
    4.3795    0.2945    0.0000 H   0  0  0  0  0  0  0  0  0  0  0  0
    4.3035    1.6373    0.0000 H   0  0  0  0  0  0  0  0  0  0  0  0
    4.1364    0.8579    0.0000 H   0  0  0  0  0  0  0  0  0  0  0  0
    7.3154   -1.4522    0.0000 H   0  0  0  0  0  0  0  0  0  0  0  0
    7.3182    0.2190    0.0000 H   0  0  0  0  0  0  0  0  0  0  0  0
    5.8819   -3.1768    0.0000 H   0  0  0  0  0  0  0  0  0  0  0  0
    1.4631   -2.3668    0.0000 H   0  0  0  0  0  0  0  0  0  0  0  0
    2.3291   -5.4868    0.0000 H   0  0  0  0  0  0  0  0  0  0  0  0
    3.4030   -5.4868    0.0000 H   0  0  0  0  0  0  0  0  0  0  0  0
    6.4590    2.7334    0.0000 H   0  0  0  0  0  0  0  0  0  0  0  0
    5.6931    5.6774    0.0000 H   0  0  0  0  0  0  0  0  0  0  0  0
    4.9125    6.0768    0.0000 H   0  0  0  0  0  0  0  0  0  0  0  0
    4.5131    5.2962    0.0000 H   0  0  0  0  0  0  0  0  0  0  0  0
  1  5  1  0  0  0  0
  1  6  1  0  0  0  0
  1  7  1  0  0  0  0
  1  8  2  0  0  0  0
  2 17  1  0  0  0  0
  2 18  1  0  0  0  0
 15  3  1  1  0  0  0
  3 33  1  0  0  0  0
 16  4  1  1  0  0  0
  4 34  1  0  0  0  0
  5 19  1  0  0  0  0
  6 25  1  0  0  0  0
  7 39  1  0  0  0  0
  9 25  2  0  0  0  0
 17 10  1  6  0  0  0
 10 20  1  0  0  0  0
 10 21  1  0  0  0  0
 11 21  2  0  0  0  0
 11 22  1  0  0  0  0
 12 20  1  0  0  0  0
 12 24  2  0  0  0  0
 13 23  2  0  0  0  0
 13 24  1  0  0  0  0
 14 23  1  0  0  0  0
 14 37  1  0  0  0  0
 14 38  1  0  0  0  0
 15 16  1  0  0  0  0
 15 17  1  0  0  0  0
 15 27  1  0  0  0  0
 16 18  1  0  0  0  0
 16 28  1  0  0  0  0
 17 29  1  0  0  0  0
 18 19  1  6  0  0  0
 18 30  1  0  0  0  0
 19 31  1  0  0  0  0
 19 32  1  0  0  0  0
 20 22  2  0  0  0  0
 21 35  1  0  0  0  0
 22 23  1  0  0  0  0
 24 36  1  0  0  0  0
 25 26  1  0  0  0  0
 26 40  1  0  0  0  0
 26 41  1  0  0  0  0
 26 42  1  0  0  0  0
M  END
> <PUBCHEM_COMPOUND_CID>
440867

> <PUBCHEM_COMPOUND_CANONICALIZED>
1

> <PUBCHEM_CACTVS_COMPLEXITY>
584

> <PUBCHEM_CACTVS_HBOND_ACCEPTOR>
12

> <PUBCHEM_CACTVS_HBOND_DONOR>
4

> <PUBCHEM_CACTVS_ROTATABLE_BOND>
6

> <PUBCHEM_CACTVS_SUBSKEYS>
AAADceBzvAIAAAAAAAAAAAAAAAAAAWJAAAAsAAAAAAAAAFgB+AAAHgAQCCAACBzhlwYH+L9MFxCoQQbxbICAgC0REKABUCAoVBCDWAJAyEAeRAgPAALTACDwMAIAAAAAAAAAAAAAAAAAAAAAAAAAAAAAAA==

> <PUBCHEM_IUPAC_OPENEYE_NAME>
[[(2R,3S,4R,5R)-5-(6-aminopurin-9-yl)-3,4-dihydroxy-tetrahydrofuran-2-yl]methoxy-hydroxy-phosphoryl] acetate

> <PUBCHEM_IUPAC_CAS_NAME>
acetic acid [[(2R,3S,4R,5R)-5-(6-aminopurin-9-yl)-3,4-dihydroxy-2-oxolanyl]methoxy-hydroxyphosphoryl] ester

> <PUBCHEM_IUPAC_NAME>
[[(2R,3S,4R,5R)-5-(6-aminopurin-9-yl)-3,4-dihydroxyoxolan-2-yl]methoxy-hydroxyphosphoryl] acetate

> <PUBCHEM_IUPAC_SYSTEMATIC_NAME>
[[(2R,3S,4R,5R)-5-(6-aminopurin-9-yl)-3,4-bis(oxidanyl)oxolan-2-yl]methoxy-oxidanyl-phosphoryl] ethanoate

> <PUBCHEM_IUPAC_TRADITIONAL_NAME>
acetic acid [[(2R,3S,4R,5R)-5-adenin-9-yl-3,4-dihydroxy-tetrahydrofuran-2-yl]methoxy-hydroxy-phosphoryl] ester

> <PUBCHEM_IUPAC_INCHI>
InChI=1S/C12H16N5O8P/c1-5(18)25-26(21,22)23-2-6-8(19)9(20)12(24-6)17-4-16-7-10(13)14-3-15-11(7)17/h3-4,6,8-9,12,19-20H,2H2,1H3,(H,21,22)(H2,13,14,15)/t6-,8-,9-,12-/m1/s1

> <PUBCHEM_IUPAC_INCHIKEY>
UBPVOHPZRZIJHM-WOUKDFQISA-N

> <PUBCHEM_XLOGP3>
-2.9

> <PUBCHEM_EXACT_MASS>
389.073649

> <PUBCHEM_MOLECULAR_FORMULA>
C12H16N5O8P

> <PUBCHEM_MOLECULAR_WEIGHT>
389.257902

> <PUBCHEM_OPENEYE_CAN_SMILES>
CC(=O)OP(=O)(O)OCC1C(C(C(O1)N2C=NC3=C2N=CN=C3N)O)O

> <PUBCHEM_OPENEYE_ISO_SMILES>
CC(=O)OP(=O)(O)OC[C@@H]1[C@H]([C@H]([C@@H](O1)N2C=NC3=C2N=CN=C3N)O)O

> <PUBCHEM_CACTVS_TPSA>
192

> <PUBCHEM_MONOISOTOPIC_WEIGHT>
389.073649

> <PUBCHEM_TOTAL_CHARGE>
0

> <PUBCHEM_HEAVY_ATOM_COUNT>
26

> <PUBCHEM_ATOM_DEF_STEREO_COUNT>
4

> <PUBCHEM_ATOM_UDEF_STEREO_COUNT>
0

> <PUBCHEM_BOND_DEF_STEREO_COUNT>
0

> <PUBCHEM_BOND_UDEF_STEREO_COUNT>
0

> <PUBCHEM_ISOTOPIC_ATOM_COUNT>
0

> <PUBCHEM_COMPONENT_COUNT>
1

> <PUBCHEM_CACTVS_TAUTO_COUNT>
3

> <PUBCHEM_COORDINATE_TYPE>
1
5
255

> <PUBCHEM_BONDANNOTATIONS>
17  10  6
10  20  8
10  21  8
11  21  8
11  22  8
12  20  8
12  24  8
13  23  8
13  24  8
18  19  6
20  22  8
22  23  8
15  3  5
16  4  5

$$$$

