5280640
  -OEChem-07051212492D

 21 20  0     0  0  0  0  0  0999 V2000
    6.0010   -2.5000    0.0000 O   0  0  0  0  0  0  0  0  0  0  0  0
    2.5369    0.5000    0.0000 O   0  0  0  0  0  0  0  0  0  0  0  0
    4.2690   -2.5000    0.0000 O   0  0  0  0  0  0  0  0  0  0  0  0
    3.4030    2.0000    0.0000 O   0  0  0  0  0  0  0  0  0  0  0  0
    6.0010    2.5000    0.0000 O   0  0  0  0  0  0  0  0  0  0  0  0
    4.2690    2.5000    0.0000 O   0  0  0  0  0  0  0  0  0  0  0  0
    4.2690   -0.5000    0.0000 C   0  0  0  0  0  0  0  0  0  0  0  0
    5.1350   -1.0000    0.0000 C   0  0  0  0  0  0  0  0  0  0  0  0
    4.2690    0.5000    0.0000 C   0  0  0  0  0  0  0  0  0  0  0  0
    5.1350    1.0000    0.0000 C   0  0  0  0  0  0  0  0  0  0  0  0
    5.1350   -2.0000    0.0000 C   0  0  0  0  0  0  0  0  0  0  0  0
    3.4030    1.0000    0.0000 C   0  0  0  0  0  0  0  0  0  0  0  0
    5.1350    2.0000    0.0000 C   0  0  0  0  0  0  0  0  0  0  0  0
    3.6584   -0.3923    0.0000 H   0  0  0  0  0  0  0  0  0  0  0  0
    4.0569   -1.0826    0.0000 H   0  0  0  0  0  0  0  0  0  0  0  0
    5.7456   -1.1077    0.0000 H   0  0  0  0  0  0  0  0  0  0  0  0
    5.3471   -0.4174    0.0000 H   0  0  0  0  0  0  0  0  0  0  0  0
    5.6720    0.6900    0.0000 H   0  0  0  0  0  0  0  0  0  0  0  0
    6.0010   -3.1200    0.0000 H   0  0  0  0  0  0  0  0  0  0  0  0
    2.0000    0.8100    0.0000 H   0  0  0  0  0  0  0  0  0  0  0  0
    6.0010    3.1200    0.0000 H   0  0  0  0  0  0  0  0  0  0  0  0
  1 11  1  0  0  0  0
  1 19  1  0  0  0  0
  2 12  1  0  0  0  0
  2 20  1  0  0  0  0
  3 11  2  0  0  0  0
  4 12  2  0  0  0  0
  5 13  1  0  0  0  0
  5 21  1  0  0  0  0
  6 13  2  0  0  0  0
  7  8  1  0  0  0  0
  7  9  1  0  0  0  0
  7 14  1  0  0  0  0
  7 15  1  0  0  0  0
  8 11  1  0  0  0  0
  8 16  1  0  0  0  0
  8 17  1  0  0  0  0
  9 10  2  0  0  0  0
  9 12  1  0  0  0  0
 10 13  1  0  0  0  0
 10 18  1  0  0  0  0
M  END
> <PUBCHEM_COMPOUND_CID>
5280640

> <PUBCHEM_COMPOUND_CANONICALIZED>
1

> <PUBCHEM_CACTVS_COMPLEXITY>
264

> <PUBCHEM_CACTVS_HBOND_ACCEPTOR>
6

> <PUBCHEM_CACTVS_HBOND_DONOR>
3

> <PUBCHEM_CACTVS_ROTATABLE_BOND>
5

> <PUBCHEM_CACTVS_SUBSKEYS>
AAADccBgOAAAAAAAAAAAAAAAAAAAAAAAAAAAAAAAAAAAAAAAAAAAGgAACAAADACAgAAACAAAAgCIAiDSCAAAAAAgAAAACAEAAEgABBIAAQAAUAAEgAAIEYKIJgAAAAAAAAAAAAAAAAAAAAAAAAAAAAAAAA==

> <PUBCHEM_IUPAC_OPENEYE_NAME>
(Z)-but-1-ene-1,2,4-tricarboxylic acid

> <PUBCHEM_IUPAC_CAS_NAME>
(Z)-1-butene-1,2,4-tricarboxylic acid

> <PUBCHEM_IUPAC_NAME>
(Z)-but-1-ene-1,2,4-tricarboxylic acid

> <PUBCHEM_IUPAC_SYSTEMATIC_NAME>
(Z)-but-1-ene-1,2,4-tricarboxylic acid

> <PUBCHEM_IUPAC_TRADITIONAL_NAME>
(Z)-but-1-ene-1,2,4-tricarboxylic acid

> <PUBCHEM_IUPAC_INCHI>
InChI=1S/C7H8O6/c8-5(9)2-1-4(7(12)13)3-6(10)11/h3H,1-2H2,(H,8,9)(H,10,11)(H,12,13)/b4-3-

> <PUBCHEM_IUPAC_INCHIKEY>
BJYPZFUWWJSAKC-ARJAWSKDSA-N

> <PUBCHEM_XLOGP3_AA>
-0.7

> <PUBCHEM_EXACT_MASS>
188.032088

> <PUBCHEM_MOLECULAR_FORMULA>
C7H8O6

> <PUBCHEM_MOLECULAR_WEIGHT>
188.13482

> <PUBCHEM_OPENEYE_CAN_SMILES>
C(CC(=O)O)C(=CC(=O)O)C(=O)O

> <PUBCHEM_OPENEYE_ISO_SMILES>
C(CC(=O)O)/C(=C/C(=O)O)/C(=O)O

> <PUBCHEM_CACTVS_TPSA>
112

> <PUBCHEM_MONOISOTOPIC_WEIGHT>
188.032088

> <PUBCHEM_TOTAL_CHARGE>
0

> <PUBCHEM_HEAVY_ATOM_COUNT>
13

> <PUBCHEM_ATOM_DEF_STEREO_COUNT>
0

> <PUBCHEM_ATOM_UDEF_STEREO_COUNT>
0

> <PUBCHEM_BOND_DEF_STEREO_COUNT>
1

> <PUBCHEM_BOND_UDEF_STEREO_COUNT>
0

> <PUBCHEM_ISOTOPIC_ATOM_COUNT>
0

> <PUBCHEM_COMPONENT_COUNT>
1

> <PUBCHEM_CACTVS_TAUTO_COUNT>
1

> <PUBCHEM_COORDINATE_TYPE>
1
5
255

$$$$

