442422
  -OEChem-07051212583D

 26 26  0     1  0  0  0  0  0999 V2000
   -0.2298    2.4089   -1.0819 O   0  0  0  0  0  0  0  0  0  0  0  0
   -2.1122    1.0803    1.4268 O   0  0  0  0  0  0  0  0  0  0  0  0
    2.1014    0.0867   -0.0844 C   0  0  2  0  0  0  0  0  0  0  0  0
    0.6350    0.5378    0.1109 C   0  0  2  0  0  0  0  0  0  0  0  0
   -0.1574   -0.7535    0.3895 C   0  0  2  0  0  0  0  0  0  0  0  0
    2.0927   -1.4406    0.0614 C   0  0  0  0  0  0  0  0  0  0  0  0
    0.6690   -1.8443   -0.2899 C   0  0  0  0  0  0  0  0  0  0  0  0
    3.0534    0.7493    0.9036 C   0  0  0  0  0  0  0  0  0  0  0  0
   -1.5943   -0.7457   -0.0124 C   0  0  0  0  0  0  0  0  0  0  0  0
    0.1719    1.2537   -1.1272 C   0  0  0  0  0  0  0  0  0  0  0  0
   -2.4960    0.2580    0.6035 C   0  0  0  0  0  0  0  0  0  0  0  0
   -2.1337   -1.5904   -0.8998 C   0  0  0  0  0  0  0  0  0  0  0  0
    2.4477    0.3354   -1.0965 H   0  0  0  0  0  0  0  0  0  0  0  0
    0.5373    1.2314    0.9551 H   0  0  0  0  0  0  0  0  0  0  0  0
   -0.1171   -0.9433    1.4728 H   0  0  0  0  0  0  0  0  0  0  0  0
    2.3203   -1.7404    1.0918 H   0  0  0  0  0  0  0  0  0  0  0  0
    2.8276   -1.9185   -0.5942 H   0  0  0  0  0  0  0  0  0  0  0  0
    0.5639   -1.8354   -1.3818 H   0  0  0  0  0  0  0  0  0  0  0  0
    0.4346   -2.8485    0.0782 H   0  0  0  0  0  0  0  0  0  0  0  0
    4.0764    0.3881    0.7562 H   0  0  0  0  0  0  0  0  0  0  0  0
    3.0549    1.8358    0.7679 H   0  0  0  0  0  0  0  0  0  0  0  0
    2.7656    0.5382    1.9391 H   0  0  0  0  0  0  0  0  0  0  0  0
    0.2118    0.6928   -2.0766 H   0  0  0  0  0  0  0  0  0  0  0  0
   -3.5490    0.2278    0.2763 H   0  0  0  0  0  0  0  0  0  0  0  0
   -1.5739   -2.3686   -1.4035 H   0  0  0  0  0  0  0  0  0  0  0  0
   -3.1880   -1.5395   -1.1571 H   0  0  0  0  0  0  0  0  0  0  0  0
  1 10  2  0  0  0  0
  2 11  2  0  0  0  0
  3  4  1  0  0  0  0
  3  6  1  0  0  0  0
  3  8  1  0  0  0  0
  3 13  1  0  0  0  0
  4  5  1  0  0  0  0
  4 10  1  0  0  0  0
  4 14  1  0  0  0  0
  5  7  1  0  0  0  0
  5  9  1  0  0  0  0
  5 15  1  0  0  0  0
  6  7  1  0  0  0  0
  6 16  1  0  0  0  0
  6 17  1  0  0  0  0
  7 18  1  0  0  0  0
  7 19  1  0  0  0  0
  8 20  1  0  0  0  0
  8 21  1  0  0  0  0
  8 22  1  0  0  0  0
  9 11  1  0  0  0  0
  9 12  2  0  0  0  0
 10 23  1  0  0  0  0
 11 24  1  0  0  0  0
 12 25  1  0  0  0  0
 12 26  1  0  0  0  0
M  END
> <PUBCHEM_COMPOUND_CID>
442422

> <PUBCHEM_CONFORMER_RMSD>
0.6

> <PUBCHEM_CONFORMER_DIVERSEORDER>
1
7
18
16
12
15
9
6
3
11
14
20
13
19
5
10
2
17
8
4

> <PUBCHEM_MMFF94_PARTIAL_CHARGES>
12
1 -0.57
10 0.45
11 0.5
12 -0.3
2 -0.57
23 0.06
24 0.06
25 0.15
26 0.15
4 0.06
5 0.14
9 -0.12

> <PUBCHEM_EFFECTIVE_ROTOR_COUNT>
4

> <PUBCHEM_PHARMACOPHORE_FEATURES>
4
1 1 acceptor
1 12 hydrophobe
1 2 acceptor
5 3 4 5 6 7 rings

> <PUBCHEM_HEAVY_ATOM_COUNT>
12

> <PUBCHEM_ATOM_DEF_STEREO_COUNT>
3

> <PUBCHEM_ATOM_UDEF_STEREO_COUNT>
0

> <PUBCHEM_BOND_DEF_STEREO_COUNT>
0

> <PUBCHEM_BOND_UDEF_STEREO_COUNT>
0

> <PUBCHEM_ISOTOPIC_ATOM_COUNT>
0

> <PUBCHEM_COMPONENT_COUNT>
1

> <PUBCHEM_CACTVS_TAUTO_COUNT>
2

> <PUBCHEM_CONFORMER_ID>
0006C03600000001

> <PUBCHEM_MMFF94_ENERGY>
23.1082

> <PUBCHEM_FEATURE_SELFOVERLAP>
20.297

> <PUBCHEM_SHAPE_FINGERPRINT>
10219947 1 18200039430182939182
12524768 44 18338792441631344375
13839132 238 17313931013351131401
14761567 1 16969983667246002743
14993402 34 18126291839691905966
15775835 57 17968363602863228371
161256 15 18196083563471586838
16945 1 18042115638545367947
22344851 262 18409726236190951867
23419403 2 15304853593035055838
241688 4 18341900713747643555
2748010 2 17837774791431593788
29004967 10 17846208964660509122
5084963 1 18056488248538167339
5255222 1 18193555799203365950

> <PUBCHEM_SHAPE_MULTIPOLES>
235.22
3.72
2.04
1.11
0.58
0.2
0
-0.1
1.04
-0.11
-0.59
-0.3
0.46
-0.35

> <PUBCHEM_SHAPE_SELFOVERLAP>
473.996

> <PUBCHEM_SHAPE_VOLUME>
139.1

> <PUBCHEM_COORDINATE_TYPE>
2
5
10

$$$$

