442011
  -OEChem-07051212562D

 61 63  0     1  0  0  0  0  0999 V2000
    7.1986   -2.9406    0.0000 O   0  0  0  0  0  0  0  0  0  0  0  0
    3.2166   -2.0342    0.0000 O   0  0  0  0  0  0  0  0  0  0  0  0
    8.4788   -2.0584    0.0000 O   0  0  0  0  0  0  0  0  0  0  0  0
    6.4487    0.8318    0.0000 O   0  0  0  0  0  0  0  0  0  0  0  0
    5.3147    2.3318    0.0000 O   0  0  0  0  0  0  0  0  0  0  0  0
    4.0827   -3.5342    0.0000 O   0  0  0  0  0  0  0  0  0  0  0  0
    2.0000    2.6682    0.0000 O   0  0  0  0  0  0  0  0  0  0  0  0
    5.8147   -1.5342    0.0000 C   0  0  2  0  0  0  0  0  0  0  0  0
    5.8147   -0.5342    0.0000 C   0  0  1  0  0  0  0  0  0  0  0  0
    4.9487   -0.0342    0.0000 C   0  0  2  0  0  0  0  0  0  0  0  0
    6.7087   -2.0689    0.0000 C   0  0  2  0  0  0  0  0  0  0  0  0
    4.9487   -2.0342    0.0000 C   0  0  0  0  0  0  0  0  0  0  0  0
    4.0827   -0.5342    0.0000 C   0  0  1  0  0  0  0  0  0  0  0  0
    6.7087    0.0004    0.0000 C   0  0  0  0  0  0  0  0  0  0  0  0
    4.0827   -1.5342    0.0000 C   0  0  2  0  0  0  0  0  0  0  0  0
    7.6147   -1.5550    0.0000 C   0  0  1  0  0  0  0  0  0  0  0  0
    7.6147   -0.5134    0.0000 C   0  0  0  0  0  0  0  0  0  0  0  0
    5.4728   -2.4740    0.0000 C   0  0  0  0  0  0  0  0  0  0  0  0
    4.4487    0.8318    0.0000 C   0  0  0  0  0  0  0  0  0  0  0  0
    6.1987   -2.9291    0.0000 C   0  0  0  0  0  0  0  0  0  0  0  0
    5.4487    0.8318    0.0000 C   0  0  0  0  0  0  0  0  0  0  0  0
    3.2166   -0.0342    0.0000 C   0  0  0  0  0  0  0  0  0  0  0  0
    4.4487    1.8318    0.0000 C   0  0  2  0  0  0  0  0  0  0  0  0
    3.5827    2.3318    0.0000 C   0  0  0  0  0  0  0  0  0  0  0  0
    3.2166   -3.0342    0.0000 C   0  0  0  0  0  0  0  0  0  0  0  0
    3.4782    3.3263    0.0000 C   0  0  0  0  0  0  0  0  0  0  0  0
    2.6691    1.9251    0.0000 C   0  0  0  0  0  0  0  0  0  0  0  0
    2.3506   -3.5342    0.0000 C   0  0  0  0  0  0  0  0  0  0  0  0
    2.5000    3.5342    0.0000 C   0  0  0  0  0  0  0  0  0  0  0  0
    5.8082    0.3157    0.0000 H   0  0  0  0  0  0  0  0  0  0  0  0
    4.5502   -2.5092    0.0000 H   0  0  0  0  0  0  0  0  0  0  0  0
    5.3472   -2.5092    0.0000 H   0  0  0  0  0  0  0  0  0  0  0  0
    3.5457   -0.8442    0.0000 H   0  0  0  0  0  0  0  0  0  0  0  0
    7.1023    0.4795    0.0000 H   0  0  0  0  0  0  0  0  0  0  0  0
    6.3041    0.4702    0.0000 H   0  0  0  0  0  0  0  0  0  0  0  0
    3.5457   -1.2242    0.0000 H   0  0  0  0  0  0  0  0  0  0  0  0
    8.1523   -1.2461    0.0000 H   0  0  0  0  0  0  0  0  0  0  0  0
    8.2256   -0.6195    0.0000 H   0  0  0  0  0  0  0  0  0  0  0  0
    7.8238    0.0703    0.0000 H   0  0  0  0  0  0  0  0  0  0  0  0
    4.8902   -2.2620    0.0000 H   0  0  0  0  0  0  0  0  0  0  0  0
    5.2608   -3.0566    0.0000 H   0  0  0  0  0  0  0  0  0  0  0  0
    6.0554   -2.6860    0.0000 H   0  0  0  0  0  0  0  0  0  0  0  0
    3.8661    1.0438    0.0000 H   0  0  0  0  0  0  0  0  0  0  0  0
    5.0476    0.9923    0.0000 H   0  0  0  0  0  0  0  0  0  0  0  0
    5.6654   -2.6129    0.0000 H   0  0  0  0  0  0  0  0  0  0  0  0
    5.8825   -3.4624    0.0000 H   0  0  0  0  0  0  0  0  0  0  0  0
    6.7320   -3.2453    0.0000 H   0  0  0  0  0  0  0  0  0  0  0  0
    5.4487    1.4518    0.0000 H   0  0  0  0  0  0  0  0  0  0  0  0
    3.5266    0.5027    0.0000 H   0  0  0  0  0  0  0  0  0  0  0  0
    2.6797    0.2758    0.0000 H   0  0  0  0  0  0  0  0  0  0  0  0
    2.9066   -0.5712    0.0000 H   0  0  0  0  0  0  0  0  0  0  0  0
    6.8824   -3.4740    0.0000 H   0  0  0  0  0  0  0  0  0  0  0  0
    4.9856    1.5218    0.0000 H   0  0  0  0  0  0  0  0  0  0  0  0
    9.0170   -1.7504    0.0000 H   0  0  0  0  0  0  0  0  0  0  0  0
    5.3147    2.9518    0.0000 H   0  0  0  0  0  0  0  0  0  0  0  0
    3.9389    3.7412    0.0000 H   0  0  0  0  0  0  0  0  0  0  0  0
    2.5402    1.3186    0.0000 H   0  0  0  0  0  0  0  0  0  0  0  0
    2.0406   -2.9973    0.0000 H   0  0  0  0  0  0  0  0  0  0  0  0
    1.8137   -3.8442    0.0000 H   0  0  0  0  0  0  0  0  0  0  0  0
    2.6606   -4.0712    0.0000 H   0  0  0  0  0  0  0  0  0  0  0  0
    2.2478    4.1006    0.0000 H   0  0  0  0  0  0  0  0  0  0  0  0
 11  1  1  6  0  0  0
  1 52  1  0  0  0  0
 15  2  1  1  0  0  0
  2 25  1  0  0  0  0
 16  3  1  1  0  0  0
  3 54  1  0  0  0  0
  4 21  2  0  0  0  0
 23  5  1  6  0  0  0
  5 55  1  0  0  0  0
  6 25  2  0  0  0  0
  7 27  1  0  0  0  0
  7 29  1  0  0  0  0
  8  9  1  0  0  0  0
  8 11  1  0  0  0  0
  8 12  1  0  0  0  0
  8 18  1  1  0  0  0
  9 10  1  0  0  0  0
  9 14  1  0  0  0  0
  9 30  1  6  0  0  0
 10 13  1  0  0  0  0
 10 19  1  0  0  0  0
 10 21  1  1  0  0  0
 11 16  1  0  0  0  0
 11 20  1  0  0  0  0
 12 15  1  0  0  0  0
 12 31  1  0  0  0  0
 12 32  1  0  0  0  0
 13 15  1  0  0  0  0
 13 22  1  1  0  0  0
 13 33  1  0  0  0  0
 14 17  1  0  0  0  0
 14 34  1  0  0  0  0
 14 35  1  0  0  0  0
 15 36  1  0  0  0  0
 16 17  1  0  0  0  0
 16 37  1  0  0  0  0
 17 38  1  0  0  0  0
 17 39  1  0  0  0  0
 18 40  1  0  0  0  0
 18 41  1  0  0  0  0
 18 42  1  0  0  0  0
 19 23  1  0  0  0  0
 19 43  1  0  0  0  0
 19 44  1  0  0  0  0
 20 45  1  0  0  0  0
 20 46  1  0  0  0  0
 20 47  1  0  0  0  0
 21 48  1  0  0  0  0
 22 49  1  0  0  0  0
 22 50  1  0  0  0  0
 22 51  1  0  0  0  0
 23 24  1  0  0  0  0
 23 53  1  0  0  0  0
 24 26  1  0  0  0  0
 24 27  2  0  0  0  0
 25 28  1  0  0  0  0
 26 29  2  0  0  0  0
 26 56  1  0  0  0  0
 27 57  1  0  0  0  0
 28 58  1  0  0  0  0
 28 59  1  0  0  0  0
 28 60  1  0  0  0  0
 29 61  1  0  0  0  0
M  END
> <PUBCHEM_COMPOUND_CID>
442011

> <PUBCHEM_COMPOUND_CANONICALIZED>
1

> <PUBCHEM_CACTVS_COMPLEXITY>
639

> <PUBCHEM_CACTVS_HBOND_ACCEPTOR>
7

> <PUBCHEM_CACTVS_HBOND_DONOR>
3

> <PUBCHEM_CACTVS_ROTATABLE_BOND>
6

> <PUBCHEM_CACTVS_SUBSKEYS>
AAADcfB4OAAAAAAAAAAAAAAAAAAAASAAAAAwYAAAAAAAAADBgAAAGgAACAAAD1SgmAIyDIAABkCIAijSiAACCAAkIAAIiAEGCMgNNxYENQqCWSCl4BEJOYPK7PzPgAAAAAAAAADAAAYAADCAAAAAAAAAAA==

> <PUBCHEM_IUPAC_OPENEYE_NAME>
[(2R,3S,4S,4aS,7R,8R,8aR)-4-formyl-4-[(2R)-2-(3-furyl)-2-hydroxy-ethyl]-7,8-dihydroxy-3,8,8a-trimethyl-decalin-2-yl] acetate

> <PUBCHEM_IUPAC_CAS_NAME>
acetic acid [(2R,3S,4S,4aS,7R,8R,8aR)-4-formyl-4-[(2R)-2-(3-furanyl)-2-hydroxyethyl]-7,8-dihydroxy-3,8,8a-trimethyl-2,3,4a,5,6,7-hexahydro-1H-naphthalen-2-yl] ester

> <PUBCHEM_IUPAC_NAME>
[(2R,3S,4S,4aS,7R,8R,8aR)-4-formyl-4-[(2R)-2-(furan-3-yl)-2-hydroxyethyl]-7,8-dihydroxy-3,8,8a-trimethyl-2,3,4a,5,6,7-hexahydro-1H-naphthalen-2-yl] acetate

> <PUBCHEM_IUPAC_SYSTEMATIC_NAME>
[(2R,3S,4S,4aS,7R,8R,8aR)-4-[(2R)-2-(furan-3-yl)-2-oxidanyl-ethyl]-4-methanoyl-3,8,8a-trimethyl-7,8-bis(oxidanyl)-2,3,4a,5,6,7-hexahydro-1H-naphthalen-2-yl] ethanoate

> <PUBCHEM_IUPAC_TRADITIONAL_NAME>
acetic acid [(2R,3S,4S,4aS,7R,8R,8aR)-4-formyl-4-[(2R)-2-(3-furyl)-2-hydroxy-ethyl]-7,8-dihydroxy-3,8,8a-trimethyl-decalin-2-yl] ester

> <PUBCHEM_IUPAC_INCHI>
InChI=1S/C22H32O7/c1-13-17(29-14(2)24)10-20(3)18(5-6-19(26)21(20,4)27)22(13,12-23)9-16(25)15-7-8-28-11-15/h7-8,11-13,16-19,25-27H,5-6,9-10H2,1-4H3/t13-,16-,17-,18+,19-,20-,21+,22-/m1/s1

> <PUBCHEM_IUPAC_INCHIKEY>
ZOWKQQIGQBVKSV-BZLLESMPSA-N

> <PUBCHEM_XLOGP3_AA>
1

> <PUBCHEM_EXACT_MASS>
408.214803

> <PUBCHEM_MOLECULAR_FORMULA>
C22H32O7

> <PUBCHEM_MOLECULAR_WEIGHT>
408.48528

> <PUBCHEM_OPENEYE_CAN_SMILES>
CC1C(CC2(C(C1(CC(C3=COC=C3)O)C=O)CCC(C2(C)O)O)C)OC(=O)C

> <PUBCHEM_OPENEYE_ISO_SMILES>
C[C@@H]1[C@@H](C[C@@]2([C@@H]([C@]1(C[C@H](C3=COC=C3)O)C=O)CC[C@H]([C@]2(C)O)O)C)OC(=O)C

> <PUBCHEM_CACTVS_TPSA>
117

> <PUBCHEM_MONOISOTOPIC_WEIGHT>
408.214803

> <PUBCHEM_TOTAL_CHARGE>
0

> <PUBCHEM_HEAVY_ATOM_COUNT>
29

> <PUBCHEM_ATOM_DEF_STEREO_COUNT>
8

> <PUBCHEM_ATOM_UDEF_STEREO_COUNT>
0

> <PUBCHEM_BOND_DEF_STEREO_COUNT>
0

> <PUBCHEM_BOND_UDEF_STEREO_COUNT>
0

> <PUBCHEM_ISOTOPIC_ATOM_COUNT>
0

> <PUBCHEM_COMPONENT_COUNT>
1

> <PUBCHEM_CACTVS_TAUTO_COUNT>
1

> <PUBCHEM_COORDINATE_TYPE>
1
5
255

> <PUBCHEM_BONDANNOTATIONS>
11  1  6
10  21  5
13  22  5
15  2  5
24  26  8
24  27  8
26  29  8
16  3  5
23  5  6
7  27  8
7  29  8
8  18  5
9  30  6

$$$$

