439967
  -OEChem-07051212483D

 51 54  0     1  0  0  0  0  0999 V2000
    3.2798    0.9080   -1.7159 P   0  0  1  0  0  0  0  0  0  0  0  0
   -1.4267    2.4182   -1.0096 O   0  0  0  0  0  0  0  0  0  0  0  0
   -1.1320    3.7781    1.8812 O   0  0  0  0  0  0  0  0  0  0  0  0
    1.2471    2.5420    1.3872 O   0  0  0  0  0  0  0  0  0  0  0  0
    2.1885    2.0543   -1.3237 O   0  0  0  0  0  0  0  0  0  0  0  0
    2.9921    0.7519   -3.3124 O   0  0  0  0  0  0  0  0  0  0  0  0
    4.6841    1.4191   -1.5016 O   0  0  0  0  0  0  0  0  0  0  0  0
    0.9239   -3.8646    0.4811 O   0  0  0  0  0  0  0  0  0  0  0  0
    2.2752   -3.2324   -1.2338 O   0  0  0  0  0  0  0  0  0  0  0  0
   -3.0533    1.2115    0.2284 N   0  0  0  0  0  0  0  0  0  0  0  0
   -4.8351   -0.0665    0.6406 N   0  0  0  0  0  0  0  0  0  0  0  0
   -1.6590   -0.3899   -0.9520 N   0  0  0  0  0  0  0  0  0  0  0  0
    2.8057   -0.5131   -1.0224 N   0  0  0  0  0  0  0  0  0  0  0  0
   -2.7662   -2.5558   -1.1492 N   0  0  0  0  0  0  0  0  0  0  0  0
   -4.9517   -2.9667   -0.2649 N   0  0  0  0  0  0  0  0  0  0  0  0
   -1.2006    2.4444    1.3795 C   0  0  2  0  0  0  0  0  0  0  0  0
    0.1068    2.0350    0.7276 C   0  0  1  0  0  0  0  0  0  0  0  0
   -2.1911    2.3944    0.2149 C   0  0  1  0  0  0  0  0  0  0  0  0
   -0.0412    2.5995   -0.6746 C   0  0  1  0  0  0  0  0  0  0  0  0
    0.8318    1.9026   -1.7028 C   0  0  0  0  0  0  0  0  0  0  0  0
   -2.7738   -0.0148   -0.3070 C   0  0  0  0  0  0  0  0  0  0  0  0
   -4.3028    1.1289    0.7865 C   0  0  0  0  0  0  0  0  0  0  0  0
   -3.8903   -0.7914   -0.0413 C   0  0  0  0  0  0  0  0  0  0  0  0
   -3.8617   -2.1082   -0.4895 C   0  0  0  0  0  0  0  0  0  0  0  0
   -1.7480   -1.6818   -1.3366 C   0  0  0  0  0  0  0  0  0  0  0  0
    2.7839   -0.7957    0.3596 C   0  0  0  0  0  0  0  0  0  0  0  0
    2.3348   -2.0295    0.8334 C   0  0  0  0  0  0  0  0  0  0  0  0
    3.2200    0.1775    1.2602 C   0  0  0  0  0  0  0  0  0  0  0  0
    2.3218   -2.2894    2.2038 C   0  0  0  0  0  0  0  0  0  0  0  0
    3.2073   -0.0824    2.6306 C   0  0  0  0  0  0  0  0  0  0  0  0
    2.7582   -1.3157    3.1024 C   0  0  0  0  0  0  0  0  0  0  0  0
    1.8725   -3.0675   -0.0796 C   0  0  0  0  0  0  0  0  0  0  0  0
   -1.4616    1.7961    2.2221 H   0  0  0  0  0  0  0  0  0  0  0  0
    0.1702    0.9416    0.6993 H   0  0  0  0  0  0  0  0  0  0  0  0
   -2.8580    3.2645    0.1984 H   0  0  0  0  0  0  0  0  0  0  0  0
    0.1838    3.6742   -0.6776 H   0  0  0  0  0  0  0  0  0  0  0  0
    0.6851    2.3506   -2.6913 H   0  0  0  0  0  0  0  0  0  0  0  0
    0.5690    0.8443   -1.7915 H   0  0  0  0  0  0  0  0  0  0  0  0
   -2.0062    3.9950    2.2482 H   0  0  0  0  0  0  0  0  0  0  0  0
    1.9695    2.6002    0.7406 H   0  0  0  0  0  0  0  0  0  0  0  0
   -4.7693    1.9680    1.2844 H   0  0  0  0  0  0  0  0  0  0  0  0
    2.4523   -1.2709   -1.5987 H   0  0  0  0  0  0  0  0  0  0  0  0
   -0.8864   -2.0737   -1.8666 H   0  0  0  0  0  0  0  0  0  0  0  0
    3.2795    1.4726   -3.9126 H   0  0  0  0  0  0  0  0  0  0  0  0
   -4.9068   -3.9194   -0.6001 H   0  0  0  0  0  0  0  0  0  0  0  0
   -5.7702   -2.6352    0.2274 H   0  0  0  0  0  0  0  0  0  0  0  0
    3.6000    1.1390    0.9330 H   0  0  0  0  0  0  0  0  0  0  0  0
    1.9909   -3.2445    2.6031 H   0  0  0  0  0  0  0  0  0  0  0  0
    3.5523    0.6735    3.3301 H   0  0  0  0  0  0  0  0  0  0  0  0
    2.7523   -1.5191    4.1693 H   0  0  0  0  0  0  0  0  0  0  0  0
    0.6170   -4.5593   -0.1399 H   0  0  0  0  0  0  0  0  0  0  0  0
  1  5  1  0  0  0  0
  1  6  1  0  0  0  0
  1  7  2  0  0  0  0
  1 13  1  0  0  0  0
  2 18  1  0  0  0  0
  2 19  1  0  0  0  0
  3 16  1  0  0  0  0
  3 39  1  0  0  0  0
  4 17  1  0  0  0  0
  4 40  1  0  0  0  0
  5 20  1  0  0  0  0
  6 44  1  0  0  0  0
  8 32  1  0  0  0  0
  8 51  1  0  0  0  0
  9 32  2  0  0  0  0
 10 18  1  0  0  0  0
 10 21  1  0  0  0  0
 10 22  1  0  0  0  0
 11 22  2  0  0  0  0
 11 23  1  0  0  0  0
 12 21  2  0  0  0  0
 12 25  1  0  0  0  0
 13 26  1  0  0  0  0
 13 42  1  0  0  0  0
 14 24  1  0  0  0  0
 14 25  2  0  0  0  0
 15 24  1  0  0  0  0
 15 45  1  0  0  0  0
 15 46  1  0  0  0  0
 16 17  1  0  0  0  0
 16 18  1  0  0  0  0
 16 33  1  0  0  0  0
 17 19  1  0  0  0  0
 17 34  1  0  0  0  0
 18 35  1  0  0  0  0
 19 20  1  0  0  0  0
 19 36  1  0  0  0  0
 20 37  1  0  0  0  0
 20 38  1  0  0  0  0
 21 23  1  0  0  0  0
 22 41  1  0  0  0  0
 23 24  2  0  0  0  0
 25 43  1  0  0  0  0
 26 27  1  0  0  0  0
 26 28  2  0  0  0  0
 27 29  2  0  0  0  0
 27 32  1  0  0  0  0
 28 30  1  0  0  0  0
 28 47  1  0  0  0  0
 29 31  1  0  0  0  0
 29 48  1  0  0  0  0
 30 31  2  0  0  0  0
 30 49  1  0  0  0  0
 31 50  1  0  0  0  0
M  END
> <PUBCHEM_COMPOUND_CID>
439967

> <PUBCHEM_CONFORMER_RMSD>
1.2

> <PUBCHEM_CONFORMER_DIVERSEORDER>
1
242
186
16
32
117
194
60
20
48
201
295
30
308
246
269
106
273
34
10
78
247
183
66
184
64
54
124
161
202
130
62
119
193
95
49
267
178
179
280
121
289
43
92
191
245
11
279
7
283
198
255
213
299
151
50
195
129
39
115
253
302
234
310
36
96
238
135
140
19
240
284
83
218
93
296
4
52
74
123
103
250
55
61
292
251
290
142
99
3
312
76
171
274
21
211
24
17
44
137
180
156
237
181
207
18
293
220
6
125
111
109
224
134
257
86
71
219
204
241
168
40
57
153
97
89
226
244
210
239
69
252
120
58
222
215
12
31
223
271
38
87
110
268
212
260
185
101
182
227
301
90
102
216
249
309
285
288
294
196
278
131
221
172
46
256
67
160
150
126
233
192
98
297
275
94
265
315
199
41
266
28
146
205
163
23
82
25
79
85
75
35
173
26
132
162
59
197
169
214
122
208
45
258
176
8
291
77
37
148
229
100
304
91
187
314
65
147
133
166
159
139
317
2
112
170
305
235
51
22
261
236
189
116
136
206
14
270
63
73
259
29
104
311
286
70
56
114
80
200
190
105
272
81
68
138
27
231
15
303
152
5
276
318
174
217
167
232
228
313
141
298
107
188
143
84
230
33
282
264
203
165
154
209
53
158
42
127
118
72
177
300
281
9
316
307
225
263
306
13
254
149
243
145
262
128
287
47
248
88
108
277
155
113
157
175
144
164

> <PUBCHEM_MMFF94_PARTIAL_CHARGES>
45
1 1.52
10 0.05
11 -0.57
12 -0.57
13 -0.78
14 -0.62
15 -0.9
16 0.28
17 0.28
18 0.54
19 0.28
2 -0.56
20 0.28
21 0.11
22 0.04
23 0.23
24 0.41
25 0.47
26 0.1
27 0.09
28 -0.15
29 -0.15
3 -0.68
30 -0.15
31 -0.15
32 0.63
39 0.4
4 -0.68
40 0.4
41 0.15
42 0.4
43 0.15
44 0.5
45 0.4
46 0.4
47 0.15
48 0.15
49 0.15
5 -0.55
50 0.15
51 0.5
6 -0.77
7 -0.7
8 -0.65
9 -0.57

> <PUBCHEM_EFFECTIVE_ROTOR_COUNT>
8

> <PUBCHEM_PHARMACOPHORE_FEATURES>
19
1 15 cation
1 15 donor
1 2 acceptor
1 3 acceptor
1 3 donor
1 4 acceptor
1 4 donor
1 6 acceptor
1 7 acceptor
1 8 acceptor
1 9 acceptor
3 10 11 22 cation
3 10 12 21 cation
3 12 14 25 cation
3 8 9 32 anion
5 10 11 21 22 23 rings
5 2 16 17 18 19 rings
6 12 14 21 23 24 25 rings
6 26 27 28 29 30 31 rings

> <PUBCHEM_HEAVY_ATOM_COUNT>
32

> <PUBCHEM_ATOM_DEF_STEREO_COUNT>
4

> <PUBCHEM_ATOM_UDEF_STEREO_COUNT>
0

> <PUBCHEM_BOND_DEF_STEREO_COUNT>
0

> <PUBCHEM_BOND_UDEF_STEREO_COUNT>
0

> <PUBCHEM_ISOTOPIC_ATOM_COUNT>
0

> <PUBCHEM_COMPONENT_COUNT>
1

> <PUBCHEM_CACTVS_TAUTO_COUNT>
9

> <PUBCHEM_CONFORMER_ID>
0006B69F00000001

> <PUBCHEM_MMFF94_ENERGY>
66.8641

> <PUBCHEM_FEATURE_SELFOVERLAP>
97.103

> <PUBCHEM_SHAPE_FINGERPRINT>
10369192 42 16518240665427213936
11118852 30 18412266138279422098
12553582 1 18335708225932169143
12788726 201 18338222856275405953
13122387 1 16029302644559217403
14081887 123 18042987512669251497
14725015 67 14590427061933960731
150020 26 17536313987552893511
15297060 5 17896020174309500307
17138139 8 18124866868205969884
17809404 112 17913239668888198735
17974551 9 16307418506046376520
20775530 9 18123476243447496499
21421861 104 18201431527699093525
23559900 14 18119530087646040284
238 59 17915172417003254467
2818148 4 18044353123380826578
35225 105 17097496646296408589
392239 28 18046379412132188520
463206 1 18201427048053550057
474144 1 18129951078450046559
5265222 85 15532505934090516570
5283178 26 16893714428335924994
6287921 2 18338237188502066578
6823239 73 17822005376722976912

> <PUBCHEM_SHAPE_MULTIPOLES>
585.55
8.31
4.54
2.51
5.45
1.09
0.27
3.24
0.15
0.65
0.2
-3.35
-0.48
-2.63

> <PUBCHEM_SHAPE_SELFOVERLAP>
1261.379

> <PUBCHEM_SHAPE_VOLUME>
323.5

> <PUBCHEM_COORDINATE_TYPE>
2
5
10

$$$$

