257422
  -OEChem-07051213063D

 49 52  0     1  0  0  0  0  0999 V2000
   -4.2645   -0.7308    0.2147 O   0  0  0  0  0  0  0  0  0  0  0  0
    4.6872    0.7545    0.2339 O   0  0  0  0  0  0  0  0  0  0  0  0
    6.6706   -0.3378    0.0916 O   0  0  0  0  0  0  0  0  0  0  0  0
   -5.7975    0.4210   -1.0739 O   0  0  0  0  0  0  0  0  0  0  0  0
   -1.0228    0.8719   -0.2481 C   0  0  2  0  0  0  0  0  0  0  0  0
   -1.8283   -0.3508    0.2353 C   0  0  2  0  0  0  0  0  0  0  0  0
    0.4253    0.8487    0.2435 C   0  0  1  0  0  0  0  0  0  0  0  0
    1.1188   -0.4346   -0.3152 C   0  0  2  0  0  0  0  0  0  0  0  0
   -1.1798   -1.6127   -0.3484 C   0  0  0  0  0  0  0  0  0  0  0  0
   -3.2033    0.0056   -0.3617 C   0  0  2  0  0  0  0  0  0  0  0  0
   -1.9175    2.0536    0.1149 C   0  0  0  0  0  0  0  0  0  0  0  0
    0.3107   -1.7124    0.0260 C   0  0  0  0  0  0  0  0  0  0  0  0
    2.5844   -0.4892    0.1861 C   0  0  2  0  0  0  0  0  0  0  0  0
    1.1944    2.1138   -0.1618 C   0  0  0  0  0  0  0  0  0  0  0  0
   -3.3453    1.5173   -0.0954 C   0  0  0  0  0  0  0  0  0  0  0  0
    3.3274    0.7821   -0.2459 C   0  0  1  0  0  0  0  0  0  0  0  0
   -1.9312   -0.4923    1.7756 C   0  0  0  0  0  0  0  0  0  0  0  0
    2.6500    2.0407    0.2866 C   0  0  0  0  0  0  0  0  0  0  0  0
    3.4026   -1.6464   -0.3147 C   0  0  0  0  0  0  0  0  0  0  0  0
    4.7319   -1.5608   -0.4423 C   0  0  0  0  0  0  0  0  0  0  0  0
    5.4508   -0.3399   -0.0304 C   0  0  0  0  0  0  0  0  0  0  0  0
   -5.5234   -0.4236   -0.2321 C   0  0  0  0  0  0  0  0  0  0  0  0
   -6.5405   -1.2779    0.4618 C   0  0  0  0  0  0  0  0  0  0  0  0
   -0.9823    0.8499   -1.3503 H   0  0  0  0  0  0  0  0  0  0  0  0
    0.4383    0.8071    1.3399 H   0  0  0  0  0  0  0  0  0  0  0  0
    1.1382   -0.3580   -1.4132 H   0  0  0  0  0  0  0  0  0  0  0  0
   -1.2616   -1.6040   -1.4432 H   0  0  0  0  0  0  0  0  0  0  0  0
   -1.7067   -2.5120   -0.0078 H   0  0  0  0  0  0  0  0  0  0  0  0
   -3.1942   -0.1781   -1.4454 H   0  0  0  0  0  0  0  0  0  0  0  0
   -1.7218    2.9257   -0.5174 H   0  0  0  0  0  0  0  0  0  0  0  0
   -1.7742    2.3606    1.1569 H   0  0  0  0  0  0  0  0  0  0  0  0
    0.4119   -1.9385    1.0938 H   0  0  0  0  0  0  0  0  0  0  0  0
    0.7253   -2.5735   -0.5093 H   0  0  0  0  0  0  0  0  0  0  0  0
    2.5751   -0.5619    1.2831 H   0  0  0  0  0  0  0  0  0  0  0  0
    0.7301    3.0002    0.2852 H   0  0  0  0  0  0  0  0  0  0  0  0
    1.1533    2.2457   -1.2503 H   0  0  0  0  0  0  0  0  0  0  0  0
   -3.9680    1.7353    0.7797 H   0  0  0  0  0  0  0  0  0  0  0  0
   -3.8062    2.0178   -0.9544 H   0  0  0  0  0  0  0  0  0  0  0  0
    3.3713    0.8561   -1.3425 H   0  0  0  0  0  0  0  0  0  0  0  0
   -2.5139   -1.3819    2.0424 H   0  0  0  0  0  0  0  0  0  0  0  0
   -0.9559   -0.5981    2.2575 H   0  0  0  0  0  0  0  0  0  0  0  0
   -2.4250    0.3657    2.2426 H   0  0  0  0  0  0  0  0  0  0  0  0
    3.1939    2.9292   -0.0565 H   0  0  0  0  0  0  0  0  0  0  0  0
    2.7098    2.0608    1.3824 H   0  0  0  0  0  0  0  0  0  0  0  0
    2.9224   -2.5885   -0.5545 H   0  0  0  0  0  0  0  0  0  0  0  0
    5.3188   -2.4082   -0.7774 H   0  0  0  0  0  0  0  0  0  0  0  0
   -6.5036   -1.0957    1.5387 H   0  0  0  0  0  0  0  0  0  0  0  0
   -6.3501   -2.3314    0.2425 H   0  0  0  0  0  0  0  0  0  0  0  0
   -7.5395   -1.0206    0.0985 H   0  0  0  0  0  0  0  0  0  0  0  0
  1 10  1  0  0  0  0
  1 22  1  0  0  0  0
  2 16  1  0  0  0  0
  2 21  1  0  0  0  0
  3 21  2  0  0  0  0
  4 22  2  0  0  0  0
  5  6  1  0  0  0  0
  5  7  1  0  0  0  0
  5 11  1  0  0  0  0
  5 24  1  0  0  0  0
  6  9  1  0  0  0  0
  6 10  1  0  0  0  0
  6 17  1  0  0  0  0
  7  8  1  0  0  0  0
  7 14  1  0  0  0  0
  7 25  1  0  0  0  0
  8 12  1  0  0  0  0
  8 13  1  0  0  0  0
  8 26  1  0  0  0  0
  9 12  1  0  0  0  0
  9 27  1  0  0  0  0
  9 28  1  0  0  0  0
 10 15  1  0  0  0  0
 10 29  1  0  0  0  0
 11 15  1  0  0  0  0
 11 30  1  0  0  0  0
 11 31  1  0  0  0  0
 12 32  1  0  0  0  0
 12 33  1  0  0  0  0
 13 16  1  0  0  0  0
 13 19  1  0  0  0  0
 13 34  1  0  0  0  0
 14 18  1  0  0  0  0
 14 35  1  0  0  0  0
 14 36  1  0  0  0  0
 15 37  1  0  0  0  0
 15 38  1  0  0  0  0
 16 18  1  0  0  0  0
 16 39  1  0  0  0  0
 17 40  1  0  0  0  0
 17 41  1  0  0  0  0
 17 42  1  0  0  0  0
 18 43  1  0  0  0  0
 18 44  1  0  0  0  0
 19 20  2  0  0  0  0
 19 45  1  0  0  0  0
 20 21  1  0  0  0  0
 20 46  1  0  0  0  0
 22 23  1  0  0  0  0
 23 47  1  0  0  0  0
 23 48  1  0  0  0  0
 23 49  1  0  0  0  0
M  END
> <PUBCHEM_COMPOUND_CID>
257422

> <PUBCHEM_CONFORMER_RMSD>
0.6

> <PUBCHEM_CONFORMER_DIVERSEORDER>
1
2

> <PUBCHEM_MMFF94_PARTIAL_CHARGES>
14
1 -0.43
10 0.28
13 0.14
16 0.28
19 -0.29
2 -0.43
20 -0.14
21 0.71
22 0.66
23 0.06
3 -0.57
4 -0.57
45 0.15
46 0.15

> <PUBCHEM_EFFECTIVE_ROTOR_COUNT>
3.6

> <PUBCHEM_PHARMACOPHORE_FEATURES>
6
1 3 acceptor
1 4 acceptor
5 5 6 10 11 15 rings
6 2 13 16 19 20 21 rings
6 5 6 7 8 9 12 rings
6 7 8 13 14 16 18 rings

> <PUBCHEM_HEAVY_ATOM_COUNT>
23

> <PUBCHEM_ATOM_DEF_STEREO_COUNT>
7

> <PUBCHEM_ATOM_UDEF_STEREO_COUNT>
0

> <PUBCHEM_BOND_DEF_STEREO_COUNT>
0

> <PUBCHEM_BOND_UDEF_STEREO_COUNT>
0

> <PUBCHEM_ISOTOPIC_ATOM_COUNT>
0

> <PUBCHEM_COMPONENT_COUNT>
1

> <PUBCHEM_CACTVS_TAUTO_COUNT>
1

> <PUBCHEM_CONFORMER_ID>
0003ED8E00000001

> <PUBCHEM_MMFF94_ENERGY>
70.7475

> <PUBCHEM_FEATURE_SELFOVERLAP>
30.545

> <PUBCHEM_SHAPE_FINGERPRINT>
10 15 18339370669859461608
10366900 7 17847056705336918944
11089746 13 13758352258790098575
11315181 36 17988917873502053688
11578080 2 16662913318467008930
11646440 116 18186237316580455336
11963148 33 18411707560324484519
12011746 2 18343302578193300942
12166972 35 17967250888543258704
12236239 1 17530963579477490475
12403259 226 18411142467113102669
12403259 415 18335712640847923793
12403260 363 18409165523762907025
12516196 113 18259987080789059824
12715332 25 17967818219389597983
12838862 33 18337691753899590148
13140716 1 18192710051143810042
13288520 33 18408603673758651685
13402501 40 18412263947682545006
13533116 47 17967533445951889432
13685833 64 18409728461005149066
13862211 1 18410576197086268206
14170010 4 18335141964480062280
14251764 18 18408323285598551512
14341114 176 18409163303222227319
15099037 51 18412545413821401197
15196674 1 18337672022292415644
17349148 13 17603581932729563703
17492 89 18120091934031113726
19141452 34 18187085009727745022
19489759 90 17274822467583895079
200 152 18113338622164936809
20028762 73 18114466682256571175
20645477 70 18335982047461995750
21236236 1 18335419123341954377
21267235 1 18410287008321640814
21279426 13 18196655309322709023
21285901 2 18342737476877944390
21682296 61 18116141350155630054
221357 26 18409450305801028244
23402539 116 18335145276089556935
23522609 53 18121748769163169521
23557571 272 5112018226401601987
23559900 14 18342179929661370289
3004659 81 18201719557566070220
335352 9 18410293583953579175
34797466 226 17095518471150864420
350125 39 18409165523857936993
351380 180 18411419513893452935
3545911 37 18334576837189231366
4214541 1 18410011073926978308
465052 167 18334289855563411063
474229 33 18408323293761510599
5104073 3 18262520410875889640
5283173 99 18129951186404653477
6138700 20 18341895237859649826
9709674 26 18341610361015373426

> <PUBCHEM_SHAPE_MULTIPOLES>
449.85
13.59
2.05
0.85
2.4
0.55
-0.2
-4.01
0.81
-0.46
0.05
0.54
-0.08
0.57

> <PUBCHEM_SHAPE_SELFOVERLAP>
963.681

> <PUBCHEM_SHAPE_VOLUME>
246

> <PUBCHEM_COORDINATE_TYPE>
2
5
10

$$$$

