7557
  -OEChem-06261202093D

 21 21  0     0  0  0  0  0  0999 V2000
    4.2207    0.0114   -0.0885 O   0  0  0  0  0  0  0  0  0  0  0  0
   -0.6199    0.0252    0.4182 C   0  0  0  0  0  0  0  0  0  0  0  0
    0.7847    0.0462    0.7957 C   0  0  0  0  0  0  0  0  0  0  0  0
    1.8323   -0.0046   -0.0571 C   0  0  0  0  0  0  0  0  0  0  0  0
   -1.2954    1.2217    0.1779 C   0  0  0  0  0  0  0  0  0  0  0  0
   -1.2912   -1.1913    0.2959 C   0  0  0  0  0  0  0  0  0  0  0  0
   -2.6422    1.2017   -0.1846 C   0  0  0  0  0  0  0  0  0  0  0  0
   -2.6380   -1.2114   -0.0667 C   0  0  0  0  0  0  0  0  0  0  0  0
   -3.3134   -0.0149   -0.3070 C   0  0  0  0  0  0  0  0  0  0  0  0
    1.7781   -0.1289   -1.5484 C   0  0  0  0  0  0  0  0  0  0  0  0
    3.1843    0.0450    0.5646 C   0  0  0  0  0  0  0  0  0  0  0  0
    0.9506    0.1276    1.8681 H   0  0  0  0  0  0  0  0  0  0  0  0
   -0.7861    2.1781    0.2691 H   0  0  0  0  0  0  0  0  0  0  0  0
   -0.7786   -2.1325    0.4799 H   0  0  0  0  0  0  0  0  0  0  0  0
   -3.1683    2.1333   -0.3717 H   0  0  0  0  0  0  0  0  0  0  0  0
   -3.1608   -2.1586   -0.1621 H   0  0  0  0  0  0  0  0  0  0  0  0
    0.7549   -0.1755   -1.9322 H   0  0  0  0  0  0  0  0  0  0  0  0
    2.2664    0.7310   -2.0186 H   0  0  0  0  0  0  0  0  0  0  0  0
    2.2924   -1.0396   -1.8730 H   0  0  0  0  0  0  0  0  0  0  0  0
   -4.3621   -0.0306   -0.5893 H   0  0  0  0  0  0  0  0  0  0  0  0
    3.2084    0.1179    1.6652 H   0  0  0  0  0  0  0  0  0  0  0  0
  1 11  2  0  0  0  0
  2  3  1  0  0  0  0
  2  5  2  0  0  0  0
  2  6  1  0  0  0  0
  3  4  2  0  0  0  0
  3 12  1  0  0  0  0
  4 10  1  0  0  0  0
  4 11  1  0  0  0  0
  5  7  1  0  0  0  0
  5 13  1  0  0  0  0
  6  8  2  0  0  0  0
  6 14  1  0  0  0  0
  7  9  2  0  0  0  0
  7 15  1  0  0  0  0
  8  9  1  0  0  0  0
  8 16  1  0  0  0  0
  9 20  1  0  0  0  0
 10 17  1  0  0  0  0
 10 18  1  0  0  0  0
 10 19  1  0  0  0  0
 11 21  1  0  0  0  0
M  END
> <PUBCHEM_COMPOUND_CID>
7557

> <PUBCHEM_CONFORMER_RMSD>
0.4

> <PUBCHEM_CONFORMER_DIVERSEORDER>
1
2

> <PUBCHEM_MMFF94_PARTIAL_CHARGES>
18
1 -0.57
10 0.14
11 0.5
12 0.15
13 0.15
14 0.15
15 0.15
16 0.15
2 0.03
20 0.15
21 0.06
3 -0.18
4 -0.12
5 -0.15
6 -0.15
7 -0.15
8 -0.15
9 -0.15

> <PUBCHEM_EFFECTIVE_ROTOR_COUNT>
2

> <PUBCHEM_PHARMACOPHORE_FEATURES>
3
1 1 acceptor
1 10 hydrophobe
6 2 5 6 7 8 9 rings

> <PUBCHEM_HEAVY_ATOM_COUNT>
11

> <PUBCHEM_ATOM_DEF_STEREO_COUNT>
0

> <PUBCHEM_ATOM_UDEF_STEREO_COUNT>
0

> <PUBCHEM_BOND_DEF_STEREO_COUNT>
0

> <PUBCHEM_BOND_UDEF_STEREO_COUNT>
1

> <PUBCHEM_ISOTOPIC_ATOM_COUNT>
0

> <PUBCHEM_COMPONENT_COUNT>
1

> <PUBCHEM_CACTVS_TAUTO_COUNT>
1

> <PUBCHEM_CONFORMER_ID>
00001D8500000001

> <PUBCHEM_MMFF94_ENERGY>
25.5919

> <PUBCHEM_FEATURE_SELFOVERLAP>
15.223

> <PUBCHEM_SHAPE_FINGERPRINT>
10219947 1 16587744218317841328
11062470 55 18260550021756745168
12716758 59 18335976588189232155
12932764 1 18410858758773828306
13024252 1 17561082501776746427
14325111 11 18412547643036047906
15219456 202 17677043646034251174
15775835 57 18059576939888254905
16945 1 18411694392264575179
18175812 5 17895199870110653872
200 152 15574720209241752837
20201158 50 17748826323510600774
20279233 1 17748823025028419639
20645464 45 18040432196396835931
20645476 183 17632585937596478723
20645477 70 16081926095566150029
20653085 51 15626226784374385359
21061003 4 16805601434585409249
21119208 17 17775571939693101535
23402539 116 18335151907150004589
23557571 272 18260261953942223981
23559900 14 18335145323708749946
3248919 1 17603860109234811608
6333449 129 18334016098959175777
77492 1 17632863031262948522

> <PUBCHEM_SHAPE_MULTIPOLES>
220.51
6.07
1.15
0.96
3.65
0.01
-0.28
0.01
-0.4
-1.04
0.03
0.48
-0.03
0.09

> <PUBCHEM_SHAPE_SELFOVERLAP>
453.343

> <PUBCHEM_SHAPE_VOLUME>
126.8

> <PUBCHEM_COORDINATE_TYPE>
2
5
10

$$$$

