443303
  -OEChem-07051213012D

 78 77  0     1  0  0  0  0  0999 V2000
   11.1972   -1.0000    0.0000 O   0  0  0  0  0  0  0  0  0  0  0  0
   13.7953   -1.5000    0.0000 O   0  0  0  0  0  0  0  0  0  0  0  0
    7.7331    0.0000    0.0000 O   0  0  0  0  0  0  0  0  0  0  0  0
   12.0632   -1.5000    0.0000 O   0  0  0  0  0  0  0  0  0  0  0  0
    6.8671    3.5000    0.0000 O   0  0  0  0  0  0  0  0  0  0  0  0
   10.3312    0.5000    0.0000 N   0  0  0  0  0  0  0  0  0  0  0  0
   12.9292    0.0000    0.0000 N   0  0  0  0  0  0  0  0  0  0  0  0
    8.5991    1.5000    0.0000 N   0  0  0  0  0  0  0  0  0  0  0  0
    4.2690    2.0000    0.0000 N   0  0  0  0  0  0  0  0  0  0  0  0
    2.5369    2.0000    0.0000 N   0  0  0  0  0  0  0  0  0  0  0  0
    3.4030    0.5000    0.0000 N   0  0  0  0  0  0  0  0  0  0  0  0
    9.4651    0.0000    0.0000 C   0  0  3  0  0  0  0  0  0  0  0  0
    9.4651   -1.0000    0.0000 C   0  0  0  0  0  0  0  0  0  0  0  0
   12.0632    0.5000    0.0000 C   0  0  1  0  0  0  0  0  0  0  0  0
    8.5991   -1.5000    0.0000 C   0  0  0  0  0  0  0  0  0  0  0  0
   12.0632    1.5000    0.0000 C   0  0  0  0  0  0  0  0  0  0  0  0
   12.9292    2.0000    0.0000 C   0  0  0  0  0  0  0  0  0  0  0  0
   11.1972    0.0000    0.0000 C   0  0  0  0  0  0  0  0  0  0  0  0
    8.5991    0.5000    0.0000 C   0  0  0  0  0  0  0  0  0  0  0  0
    8.5991   -2.5000    0.0000 C   0  0  0  0  0  0  0  0  0  0  0  0
    7.7331   -1.0000    0.0000 C   0  0  0  0  0  0  0  0  0  0  0  0
    7.7331    2.0000    0.0000 C   0  0  3  0  0  0  0  0  0  0  0  0
   12.9292    3.0000    0.0000 C   0  0  0  0  0  0  0  0  0  0  0  0
   13.7953    1.5000    0.0000 C   0  0  0  0  0  0  0  0  0  0  0  0
    6.8671    1.5000    0.0000 C   0  0  0  0  0  0  0  0  0  0  0  0
    6.0010    2.0000    0.0000 C   0  0  0  0  0  0  0  0  0  0  0  0
   12.9292   -1.0000    0.0000 C   0  0  0  0  0  0  0  0  0  0  0  0
   13.7953   -2.5000    0.0000 C   0  0  0  0  0  0  0  0  0  0  0  0
    7.7331    3.0000    0.0000 C   0  0  0  0  0  0  0  0  0  0  0  0
    5.1350    1.5000    0.0000 C   0  0  0  0  0  0  0  0  0  0  0  0
   13.7953   -3.5000    0.0000 C   0  0  0  0  0  0  0  0  0  0  0  0
   14.7953   -2.5000    0.0000 C   0  0  0  0  0  0  0  0  0  0  0  0
   12.7953   -2.5000    0.0000 C   0  0  0  0  0  0  0  0  0  0  0  0
    3.4030    1.5000    0.0000 C   0  0  0  0  0  0  0  0  0  0  0  0
   10.2013   -0.4250    0.0000 H   0  0  0  0  0  0  0  0  0  0  0  0
    9.6772   -1.5826    0.0000 H   0  0  0  0  0  0  0  0  0  0  0  0
   10.0757   -0.8923    0.0000 H   0  0  0  0  0  0  0  0  0  0  0  0
   12.6002    0.8100    0.0000 H   0  0  0  0  0  0  0  0  0  0  0  0
    8.5991   -0.8800    0.0000 H   0  0  0  0  0  0  0  0  0  0  0  0
   11.8512    2.0826    0.0000 H   0  0  0  0  0  0  0  0  0  0  0  0
   11.4526    1.3923    0.0000 H   0  0  0  0  0  0  0  0  0  0  0  0
   12.3923    2.3100    0.0000 H   0  0  0  0  0  0  0  0  0  0  0  0
   10.3312    1.1200    0.0000 H   0  0  0  0  0  0  0  0  0  0  0  0
    7.9791   -2.5000    0.0000 H   0  0  0  0  0  0  0  0  0  0  0  0
    8.5991   -3.1200    0.0000 H   0  0  0  0  0  0  0  0  0  0  0  0
    8.0431   -0.4631    0.0000 H   0  0  0  0  0  0  0  0  0  0  0  0
    7.1962   -0.6900    0.0000 H   0  0  0  0  0  0  0  0  0  0  0  0
    7.4231   -1.5369    0.0000 H   0  0  0  0  0  0  0  0  0  0  0  0
    9.2191   -2.5000    0.0000 H   0  0  0  0  0  0  0  0  0  0  0  0
    7.7331    1.1500    0.0000 H   0  0  0  0  0  0  0  0  0  0  0  0
   13.4662    0.3100    0.0000 H   0  0  0  0  0  0  0  0  0  0  0  0
    9.1360    1.8100    0.0000 H   0  0  0  0  0  0  0  0  0  0  0  0
   13.5492    3.0000    0.0000 H   0  0  0  0  0  0  0  0  0  0  0  0
   12.9292    3.6200    0.0000 H   0  0  0  0  0  0  0  0  0  0  0  0
   12.3092    3.0000    0.0000 H   0  0  0  0  0  0  0  0  0  0  0  0
   13.4853    0.9631    0.0000 H   0  0  0  0  0  0  0  0  0  0  0  0
   14.3322    1.1900    0.0000 H   0  0  0  0  0  0  0  0  0  0  0  0
   14.1053    2.0369    0.0000 H   0  0  0  0  0  0  0  0  0  0  0  0
    6.4685    1.0250    0.0000 H   0  0  0  0  0  0  0  0  0  0  0  0
    7.2656    1.0250    0.0000 H   0  0  0  0  0  0  0  0  0  0  0  0
    6.3996    2.4750    0.0000 H   0  0  0  0  0  0  0  0  0  0  0  0
    5.6025    2.4750    0.0000 H   0  0  0  0  0  0  0  0  0  0  0  0
    8.2700    3.3100    0.0000 H   0  0  0  0  0  0  0  0  0  0  0  0
    4.7365    1.0250    0.0000 H   0  0  0  0  0  0  0  0  0  0  0  0
    5.5335    1.0250    0.0000 H   0  0  0  0  0  0  0  0  0  0  0  0
   13.1753   -3.5000    0.0000 H   0  0  0  0  0  0  0  0  0  0  0  0
   13.7953   -4.1200    0.0000 H   0  0  0  0  0  0  0  0  0  0  0  0
   14.4153   -3.5000    0.0000 H   0  0  0  0  0  0  0  0  0  0  0  0
   14.7953   -3.1200    0.0000 H   0  0  0  0  0  0  0  0  0  0  0  0
   15.4153   -2.5000    0.0000 H   0  0  0  0  0  0  0  0  0  0  0  0
   14.7953   -1.8800    0.0000 H   0  0  0  0  0  0  0  0  0  0  0  0
   12.7953   -1.8800    0.0000 H   0  0  0  0  0  0  0  0  0  0  0  0
   12.1753   -2.5000    0.0000 H   0  0  0  0  0  0  0  0  0  0  0  0
   12.7953   -3.1200    0.0000 H   0  0  0  0  0  0  0  0  0  0  0  0
    2.0000    1.6900    0.0000 H   0  0  0  0  0  0  0  0  0  0  0  0
    2.5369    2.6200    0.0000 H   0  0  0  0  0  0  0  0  0  0  0  0
    2.8660    0.1900    0.0000 H   0  0  0  0  0  0  0  0  0  0  0  0
    3.9399    0.1900    0.0000 H   0  0  0  0  0  0  0  0  0  0  0  0
  1 18  2  0  0  0  0
  2 27  1  0  0  0  0
  2 28  1  0  0  0  0
  3 19  2  0  0  0  0
  4 27  2  0  0  0  0
  5 29  2  0  0  0  0
  6 12  1  0  0  0  0
  6 18  1  0  0  0  0
  6 43  1  0  0  0  0
 14  7  1  6  0  0  0
  7 27  1  0  0  0  0
  7 51  1  0  0  0  0
  8 19  1  0  0  0  0
  8 22  1  0  0  0  0
  8 52  1  0  0  0  0
  9 30  1  0  0  0  0
  9 34  2  0  0  0  0
 10 34  1  0  0  0  0
 10 75  1  0  0  0  0
 10 76  1  0  0  0  0
 11 34  1  0  0  0  0
 11 77  1  0  0  0  0
 11 78  1  0  0  0  0
 12 13  1  0  0  0  0
 12 19  1  0  0  0  0
 12 35  1  0  0  0  0
 13 15  1  0  0  0  0
 13 36  1  0  0  0  0
 13 37  1  0  0  0  0
 14 16  1  0  0  0  0
 14 18  1  0  0  0  0
 14 38  1  0  0  0  0
 15 20  1  0  0  0  0
 15 21  1  0  0  0  0
 15 39  1  0  0  0  0
 16 17  1  0  0  0  0
 16 40  1  0  0  0  0
 16 41  1  0  0  0  0
 17 23  1  0  0  0  0
 17 24  1  0  0  0  0
 17 42  1  0  0  0  0
 20 44  1  0  0  0  0
 20 45  1  0  0  0  0
 20 49  1  0  0  0  0
 21 46  1  0  0  0  0
 21 47  1  0  0  0  0
 21 48  1  0  0  0  0
 22 25  1  0  0  0  0
 22 29  1  0  0  0  0
 22 50  1  0  0  0  0
 23 53  1  0  0  0  0
 23 54  1  0  0  0  0
 23 55  1  0  0  0  0
 24 56  1  0  0  0  0
 24 57  1  0  0  0  0
 24 58  1  0  0  0  0
 25 26  1  0  0  0  0
 25 59  1  0  0  0  0
 25 60  1  0  0  0  0
 26 30  1  0  0  0  0
 26 61  1  0  0  0  0
 26 62  1  0  0  0  0
 28 31  1  0  0  0  0
 28 32  1  0  0  0  0
 28 33  1  0  0  0  0
 29 63  1  0  0  0  0
 30 64  1  0  0  0  0
 30 65  1  0  0  0  0
 31 66  1  0  0  0  0
 31 67  1  0  0  0  0
 31 68  1  0  0  0  0
 32 69  1  0  0  0  0
 32 70  1  0  0  0  0
 32 71  1  0  0  0  0
 33 72  1  0  0  0  0
 33 73  1  0  0  0  0
 33 74  1  0  0  0  0
M  END
> <PUBCHEM_COMPOUND_CID>
443303

> <PUBCHEM_COMPOUND_CANONICALIZED>
1

> <PUBCHEM_CACTVS_COMPLEXITY>
699

> <PUBCHEM_CACTVS_HBOND_ACCEPTOR>
6

> <PUBCHEM_CACTVS_HBOND_DONOR>
5

> <PUBCHEM_CACTVS_ROTATABLE_BOND>
16

> <PUBCHEM_CACTVS_SUBSKEYS>
AAADcfB7uAAAAAAAAAAAAAAAAAAAAAAAAAAAAAAAAAAAAAAAAAAAHgAQAAAADWzhgAYDCALABAAoAAkQvAAAAAEAAAAAAIGIAAEAQBIAgCAcAAAAFgCAAAAYAQAMAAAAAAAAAAAAAAAAAAAAAAAAAAAAAA==

> <PUBCHEM_IUPAC_OPENEYE_NAME>
tert-butyl N-[(1S)-1-[[1-[(1-formyl-4-guanidino-butyl)carbamoyl]-3-methyl-butyl]carbamoyl]-3-methyl-butyl]carbamate

> <PUBCHEM_IUPAC_CAS_NAME>
N-[(2S)-1-[[1-[[5-(diaminomethylideneamino)-1-oxopentan-2-yl]amino]-4-methyl-1-oxopentan-2-yl]amino]-4-methyl-1-oxopentan-2-yl]carbamic acid tert-butyl ester

> <PUBCHEM_IUPAC_NAME>
tert-butyl N-[(2S)-1-[[1-[[5-(diaminomethylideneamino)-1-oxopentan-2-yl]amino]-4-methyl-1-oxopentan-2-yl]amino]-4-methyl-1-oxopentan-2-yl]carbamate

> <PUBCHEM_IUPAC_SYSTEMATIC_NAME>
tert-butyl N-[(2S)-1-[[1-[[5-[bis(azanyl)methylideneamino]-1-oxidanylidene-pentan-2-yl]amino]-4-methyl-1-oxidanylidene-pentan-2-yl]amino]-4-methyl-1-oxidanylidene-pentan-2-yl]carbamate

> <PUBCHEM_IUPAC_TRADITIONAL_NAME>
N-[(1S)-1-[[1-[(1-formyl-4-guanidino-butyl)carbamoyl]-3-methyl-butyl]carbamoyl]-3-methyl-butyl]carbamic acid tert-butyl ester

> <PUBCHEM_IUPAC_INCHI>
InChI=1S/C23H44N6O5/c1-14(2)11-17(19(31)27-16(13-30)9-8-10-26-21(24)25)28-20(32)18(12-15(3)4)29-22(33)34-23(5,6)7/h13-18H,8-12H2,1-7H3,(H,27,31)(H,28,32)(H,29,33)(H4,24,25,26)/t16?,17?,18-/m0/s1

> <PUBCHEM_IUPAC_INCHIKEY>
DBKWAMISRGINGJ-ABHNRTSZSA-N

> <PUBCHEM_XLOGP3_AA>
1.8

> <PUBCHEM_EXACT_MASS>
484.337319

> <PUBCHEM_MOLECULAR_FORMULA>
C23H44N6O5

> <PUBCHEM_MOLECULAR_WEIGHT>
484.63266

> <PUBCHEM_OPENEYE_CAN_SMILES>
CC(C)CC(C(=O)NC(CCCN=C(N)N)C=O)NC(=O)C(CC(C)C)NC(=O)OC(C)(C)C

> <PUBCHEM_OPENEYE_ISO_SMILES>
CC(C)C[C@@H](C(=O)NC(CC(C)C)C(=O)NC(CCCN=C(N)N)C=O)NC(=O)OC(C)(C)C

> <PUBCHEM_CACTVS_TPSA>
178

> <PUBCHEM_MONOISOTOPIC_WEIGHT>
484.337319

> <PUBCHEM_TOTAL_CHARGE>
0

> <PUBCHEM_HEAVY_ATOM_COUNT>
34

> <PUBCHEM_ATOM_DEF_STEREO_COUNT>
1

> <PUBCHEM_ATOM_UDEF_STEREO_COUNT>
2

> <PUBCHEM_BOND_DEF_STEREO_COUNT>
0

> <PUBCHEM_BOND_UDEF_STEREO_COUNT>
0

> <PUBCHEM_ISOTOPIC_ATOM_COUNT>
0

> <PUBCHEM_COMPONENT_COUNT>
1

> <PUBCHEM_CACTVS_TAUTO_COUNT>
32

> <PUBCHEM_COORDINATE_TYPE>
1
5
255

> <PUBCHEM_BONDANNOTATIONS>
12  35  3
22  50  3
14  7  6

$$$$

