237186
  -OEChem-07051213063D

 57 60  0     1  0  0  0  0  0999 V2000
    5.1924    1.1309    0.3143 O   0  0  0  0  0  0  0  0  0  0  0  0
   -5.5858   -0.3772   -0.9217 O   0  0  0  0  0  0  0  0  0  0  0  0
    2.1060   -0.7231   -0.3102 C   0  0  1  0  0  0  0  0  0  0  0  0
    0.6945   -0.9249    0.2583 C   0  0  1  0  0  0  0  0  0  0  0  0
   -0.1801    0.3174   -0.1088 C   0  0  1  0  0  0  0  0  0  0  0  0
    2.8018    0.5443    0.2320 C   0  0  1  0  0  0  0  0  0  0  0  0
   -1.6644    0.1656    0.3990 C   0  0  2  0  0  0  0  0  0  0  0  0
    4.2124    0.3989   -0.4188 C   0  0  2  0  0  0  0  0  0  0  0  0
   -2.2296   -1.1652   -0.1939 C   0  0  1  0  0  0  0  0  0  0  0  0
    0.5040    1.6494    0.2983 C   0  0  0  0  0  0  0  0  0  0  0  0
    1.9598    1.7593   -0.1922 C   0  0  0  0  0  0  0  0  0  0  0  0
    3.1425   -1.8203   -0.0902 C   0  0  0  0  0  0  0  0  0  0  0  0
    0.0612   -2.2217   -0.2652 C   0  0  0  0  0  0  0  0  0  0  0  0
    4.4982   -1.1231   -0.3076 C   0  0  0  0  0  0  0  0  0  0  0  0
   -1.3858   -2.3853    0.1913 C   0  0  0  0  0  0  0  0  0  0  0  0
   -2.5462    1.3258   -0.1507 C   0  0  0  0  0  0  0  0  0  0  0  0
    2.9475    0.5562    1.7823 C   0  0  0  0  0  0  0  0  0  0  0  0
   -1.7211    0.1865    1.9468 C   0  0  0  0  0  0  0  0  0  0  0  0
   -3.7048   -1.3935    0.1419 C   0  0  0  0  0  0  0  0  0  0  0  0
   -4.0486    1.1655    0.1333 C   0  0  2  0  0  0  0  0  0  0  0  0
    4.3154    0.8646   -1.8767 C   0  0  0  0  0  0  0  0  0  0  0  0
   -4.5308   -0.2099   -0.3103 C   0  0  0  0  0  0  0  0  0  0  0  0
   -4.8385    2.2797   -0.5511 C   0  0  0  0  0  0  0  0  0  0  0  0
    0.7631   -1.0189    1.3467 H   0  0  0  0  0  0  0  0  0  0  0  0
    1.9866   -0.6252   -1.4000 H   0  0  0  0  0  0  0  0  0  0  0  0
   -0.2314    0.3431   -1.2092 H   0  0  0  0  0  0  0  0  0  0  0  0
   -2.1745   -1.0778   -1.2908 H   0  0  0  0  0  0  0  0  0  0  0  0
    0.4779    1.7807    1.3838 H   0  0  0  0  0  0  0  0  0  0  0  0
   -0.0487    2.4954   -0.1251 H   0  0  0  0  0  0  0  0  0  0  0  0
    1.9312    1.8479   -1.2847 H   0  0  0  0  0  0  0  0  0  0  0  0
    2.4069    2.6872    0.1837 H   0  0  0  0  0  0  0  0  0  0  0  0
    3.0097   -2.6533   -0.7881 H   0  0  0  0  0  0  0  0  0  0  0  0
    3.0840   -2.2289    0.9250 H   0  0  0  0  0  0  0  0  0  0  0  0
    0.6384   -3.0885    0.0772 H   0  0  0  0  0  0  0  0  0  0  0  0
    0.0945   -2.2349   -1.3622 H   0  0  0  0  0  0  0  0  0  0  0  0
    5.1768   -1.3626    0.5192 H   0  0  0  0  0  0  0  0  0  0  0  0
    4.9743   -1.5065   -1.2178 H   0  0  0  0  0  0  0  0  0  0  0  0
   -1.8008   -3.2868   -0.2760 H   0  0  0  0  0  0  0  0  0  0  0  0
   -1.4193   -2.5546    1.2737 H   0  0  0  0  0  0  0  0  0  0  0  0
   -2.3950    1.4003   -1.2367 H   0  0  0  0  0  0  0  0  0  0  0  0
   -2.2189    2.2821    0.2749 H   0  0  0  0  0  0  0  0  0  0  0  0
    1.9887    0.4800    2.3014 H   0  0  0  0  0  0  0  0  0  0  0  0
    3.5660   -0.2673    2.1530 H   0  0  0  0  0  0  0  0  0  0  0  0
    3.4093    1.4914    2.1202 H   0  0  0  0  0  0  0  0  0  0  0  0
   -2.7260   -0.0089    2.3310 H   0  0  0  0  0  0  0  0  0  0  0  0
   -1.0656   -0.5599    2.4020 H   0  0  0  0  0  0  0  0  0  0  0  0
   -1.4261    1.1645    2.3411 H   0  0  0  0  0  0  0  0  0  0  0  0
   -3.8724   -1.5533    1.2112 H   0  0  0  0  0  0  0  0  0  0  0  0
   -4.0700   -2.2842   -0.3832 H   0  0  0  0  0  0  0  0  0  0  0  0
   -4.2366    1.2363    1.2108 H   0  0  0  0  0  0  0  0  0  0  0  0
    4.1629    1.9468   -1.9538 H   0  0  0  0  0  0  0  0  0  0  0  0
    5.3248    0.6793   -2.2636 H   0  0  0  0  0  0  0  0  0  0  0  0
    3.6054    0.3604   -2.5377 H   0  0  0  0  0  0  0  0  0  0  0  0
    5.3831    0.6686    1.1468 H   0  0  0  0  0  0  0  0  0  0  0  0
   -4.4914    3.2642   -0.2205 H   0  0  0  0  0  0  0  0  0  0  0  0
   -4.7375    2.2287   -1.6409 H   0  0  0  0  0  0  0  0  0  0  0  0
   -5.9054    2.2040   -0.3146 H   0  0  0  0  0  0  0  0  0  0  0  0
  1  8  1  0  0  0  0
  1 54  1  0  0  0  0
  2 22  2  0  0  0  0
  3  4  1  0  0  0  0
  3  6  1  0  0  0  0
  3 12  1  0  0  0  0
  3 25  1  0  0  0  0
  4  5  1  0  0  0  0
  4 13  1  0  0  0  0
  4 24  1  0  0  0  0
  5  7  1  0  0  0  0
  5 10  1  0  0  0  0
  5 26  1  0  0  0  0
  6  8  1  0  0  0  0
  6 11  1  0  0  0  0
  6 17  1  0  0  0  0
  7  9  1  0  0  0  0
  7 16  1  0  0  0  0
  7 18  1  0  0  0  0
  8 14  1  0  0  0  0
  8 21  1  0  0  0  0
  9 15  1  0  0  0  0
  9 19  1  0  0  0  0
  9 27  1  0  0  0  0
 10 11  1  0  0  0  0
 10 28  1  0  0  0  0
 10 29  1  0  0  0  0
 11 30  1  0  0  0  0
 11 31  1  0  0  0  0
 12 14  1  0  0  0  0
 12 32  1  0  0  0  0
 12 33  1  0  0  0  0
 13 15  1  0  0  0  0
 13 34  1  0  0  0  0
 13 35  1  0  0  0  0
 14 36  1  0  0  0  0
 14 37  1  0  0  0  0
 15 38  1  0  0  0  0
 15 39  1  0  0  0  0
 16 20  1  0  0  0  0
 16 40  1  0  0  0  0
 16 41  1  0  0  0  0
 17 42  1  0  0  0  0
 17 43  1  0  0  0  0
 17 44  1  0  0  0  0
 18 45  1  0  0  0  0
 18 46  1  0  0  0  0
 18 47  1  0  0  0  0
 19 22  1  0  0  0  0
 19 48  1  0  0  0  0
 19 49  1  0  0  0  0
 20 22  1  0  0  0  0
 20 23  1  0  0  0  0
 20 50  1  0  0  0  0
 21 51  1  0  0  0  0
 21 52  1  0  0  0  0
 21 53  1  0  0  0  0
 23 55  1  0  0  0  0
 23 56  1  0  0  0  0
 23 57  1  0  0  0  0
M  END
> <PUBCHEM_COMPOUND_CID>
237186

> <PUBCHEM_CONFORMER_RMSD>
0.6

> <PUBCHEM_CONFORMER_DIVERSEORDER>
1

> <PUBCHEM_MMFF94_PARTIAL_CHARGES>
7
1 -0.68
19 0.06
2 -0.57
20 0.06
22 0.45
54 0.4
8 0.28

> <PUBCHEM_EFFECTIVE_ROTOR_COUNT>
2

> <PUBCHEM_PHARMACOPHORE_FEATURES>
7
1 1 acceptor
1 1 donor
1 2 acceptor
5 3 6 8 12 14 rings
6 3 4 5 6 10 11 rings
6 4 5 7 9 13 15 rings
6 7 9 16 19 20 22 rings

> <PUBCHEM_HEAVY_ATOM_COUNT>
23

> <PUBCHEM_ATOM_DEF_STEREO_COUNT>
8

> <PUBCHEM_ATOM_UDEF_STEREO_COUNT>
0

> <PUBCHEM_BOND_DEF_STEREO_COUNT>
0

> <PUBCHEM_BOND_UDEF_STEREO_COUNT>
0

> <PUBCHEM_ISOTOPIC_ATOM_COUNT>
0

> <PUBCHEM_COMPONENT_COUNT>
1

> <PUBCHEM_CACTVS_TAUTO_COUNT>
3

> <PUBCHEM_CONFORMER_ID>
00039E8200000001

> <PUBCHEM_MMFF94_ENERGY>
87.0432

> <PUBCHEM_FEATURE_SELFOVERLAP>
35.608

> <PUBCHEM_SHAPE_FINGERPRINT>
10366900 7 17167576073219265762
10411042 1 17042044036255764659
10498660 4 18408599275459101816
10646746 165 18410857672226229829
11315181 36 17749383763785697104
11370993 70 18408328778450357259
11578080 2 16518231868807112347
12011746 2 18334289864554038390
12236239 1 17846783975499152568
12403259 226 18263649463948207297
12403259 415 18260832583613720961
12592029 89 18342459266092612027
12633257 1 15339117909988020340
12670546 56 16415487081336382837
12788726 201 17968651743550652400
13140716 1 18266174118180324514
13224815 77 17822006506125139946
13533116 47 17749107824320769454
14790565 3 18193549189360090881
15099037 51 18411418414619208597
15196674 1 18410012160527064127
15420108 30 16384783502587959418
15536298 74 18260832604703311802
15788980 27 18060415828531474969
1601671 61 18342457053968169908
16752209 62 18337114475318337867
16945 1 18265618667218553298
17349148 13 17749103400678047145
18186145 218 17968092019201474947
18608769 82 18267299829483282291
19862831 5 17894629270699068201
200 152 17603305951406395219
20645477 70 18186799223120749454
20715895 44 18054233399572333653
21033648 29 18261403234279999961
21267235 1 18409157810059672199
21279426 13 18336827618573304991
21421861 104 17702678794655158938
221357 26 18334019389299906453
22393880 68 18335142033146804663
23402539 116 18334582368959474229
23402655 69 18334576862457699965
23559900 14 18334295405172658674
296302 2 16988840557802659651
3004659 81 18342455993580661558
3286 77 17531251707532778722
335352 9 18339079414614463758
34797466 226 17458622276811170620
34934 24 18412266121315798362
350125 39 18410849941923498025
3545911 37 18335700528971025026
4028521 119 18260829302015872995
4214541 1 18410574007016840213
474 4 17561078077396007140
495365 180 17385737871957503498
4990 188 17822006531942436220
5104073 3 18410855490335521003
542803 24 17632573855367853557
633830 44 17632293497024630547
69090 78 18335141981554540239
9709674 26 18337391513609759899

> <PUBCHEM_SHAPE_MULTIPOLES>
461.59
10.72
2.25
1.17
2.21
0.42
0.27
-2.64
-2.69
0.75
-0.21
-0.58
-0.27
0.13

> <PUBCHEM_SHAPE_SELFOVERLAP>
979.51

> <PUBCHEM_SHAPE_VOLUME>
256.9

> <PUBCHEM_COORDINATE_TYPE>
2
5
10

$$$$

