583420
  -OEChem-06241222453D

 30 31  0     1  0  0  0  0  0999 V2000
    1.6951   -2.3328    1.0843 S   0  0  0  0  0  0  0  0  0  0  0  0
    0.2522    2.1216    0.7605 O   0  0  0  0  0  0  0  0  0  0  0  0
    3.3210    0.6430    0.7762 O   0  0  0  0  0  0  0  0  0  0  0  0
    1.0583   -0.9697   -1.1162 N   0  0  0  0  0  0  0  0  0  0  0  0
    2.7076    1.3415   -1.3286 N   0  0  0  0  0  0  0  0  0  0  0  0
    1.1493    0.0265   -0.0331 C   0  0  1  0  0  0  0  0  0  0  0  0
    0.0861    1.1099   -0.2291 C   0  0  1  0  0  0  0  0  0  0  0  0
    0.9554   -0.6933    1.3054 C   0  0  0  0  0  0  0  0  0  0  0  0
    1.8212   -2.1519   -0.7081 C   0  0  0  0  0  0  0  0  0  0  0  0
    2.5012    0.6858   -0.1378 C   0  0  0  0  0  0  0  0  0  0  0  0
   -1.3122    0.5495   -0.1419 C   0  0  0  0  0  0  0  0  0  0  0  0
   -1.9335    0.0897   -1.2927 C   0  0  0  0  0  0  0  0  0  0  0  0
   -1.9511    0.5038    1.0875 C   0  0  0  0  0  0  0  0  0  0  0  0
   -3.2260   -0.4285   -1.2122 C   0  0  0  0  0  0  0  0  0  0  0  0
   -3.2436   -0.0146    1.1679 C   0  0  0  0  0  0  0  0  0  0  0  0
   -3.8810   -0.4807    0.0180 C   0  0  0  0  0  0  0  0  0  0  0  0
    0.1825    1.6215   -1.1944 H   0  0  0  0  0  0  0  0  0  0  0  0
    1.4254   -0.1838    2.1519 H   0  0  0  0  0  0  0  0  0  0  0  0
   -0.0699   -0.9244    1.5783 H   0  0  0  0  0  0  0  0  0  0  0  0
    1.3861   -0.6067   -2.0084 H   0  0  0  0  0  0  0  0  0  0  0  0
    1.4309   -3.0440   -1.2054 H   0  0  0  0  0  0  0  0  0  0  0  0
    2.8766   -2.0436   -0.9790 H   0  0  0  0  0  0  0  0  0  0  0  0
   -0.4315    2.7984    0.6164 H   0  0  0  0  0  0  0  0  0  0  0  0
   -1.4371    0.1307   -2.2580 H   0  0  0  0  0  0  0  0  0  0  0  0
   -1.4851    0.8676    1.9987 H   0  0  0  0  0  0  0  0  0  0  0  0
    3.5801    1.8300   -1.5011 H   0  0  0  0  0  0  0  0  0  0  0  0
    2.0406    1.3425   -2.0925 H   0  0  0  0  0  0  0  0  0  0  0  0
   -3.7228   -0.7900   -2.1077 H   0  0  0  0  0  0  0  0  0  0  0  0
   -3.7549   -0.0535    2.1254 H   0  0  0  0  0  0  0  0  0  0  0  0
   -4.8877   -0.8835    0.0806 H   0  0  0  0  0  0  0  0  0  0  0  0
  1  8  1  0  0  0  0
  1  9  1  0  0  0  0
  2  7  1  0  0  0  0
  2 23  1  0  0  0  0
  3 10  2  0  0  0  0
  4  6  1  0  0  0  0
  4  9  1  0  0  0  0
  4 20  1  0  0  0  0
  5 10  1  0  0  0  0
  5 26  1  0  0  0  0
  5 27  1  0  0  0  0
  6  7  1  0  0  0  0
  6  8  1  0  0  0  0
  6 10  1  0  0  0  0
  7 11  1  0  0  0  0
  7 17  1  0  0  0  0
  8 18  1  0  0  0  0
  8 19  1  0  0  0  0
  9 21  1  0  0  0  0
  9 22  1  0  0  0  0
 11 12  2  0  0  0  0
 11 13  1  0  0  0  0
 12 14  1  0  0  0  0
 12 24  1  0  0  0  0
 13 15  2  0  0  0  0
 13 25  1  0  0  0  0
 14 16  2  0  0  0  0
 14 28  1  0  0  0  0
 15 16  1  0  0  0  0
 15 29  1  0  0  0  0
 16 30  1  0  0  0  0
M  END
> <PUBCHEM_COMPOUND_CID>
583420

> <PUBCHEM_CONFORMER_RMSD>
0.6

> <PUBCHEM_CONFORMER_DIVERSEORDER>
3
12
27
1
2
18
22
20
26
24
14
25
28
5
15
19
4
17
23
8
21
6
16
9
11
7
10
13

> <PUBCHEM_MMFF94_PARTIAL_CHARGES>
25
1 -0.46
10 0.57
11 -0.14
12 -0.15
13 -0.15
14 -0.15
15 -0.15
16 -0.15
2 -0.68
20 0.36
23 0.4
24 0.15
25 0.15
26 0.37
27 0.37
28 0.15
29 0.15
3 -0.57
30 0.15
4 -0.9
5 -0.8
6 0.33
7 0.42
8 0.23
9 0.5

> <PUBCHEM_EFFECTIVE_ROTOR_COUNT>
4

> <PUBCHEM_PHARMACOPHORE_FEATURES>
8
1 2 acceptor
1 2 donor
1 3 acceptor
1 4 cation
1 4 donor
1 5 donor
5 1 4 6 8 9 rings
6 11 12 13 14 15 16 rings

> <PUBCHEM_HEAVY_ATOM_COUNT>
16

> <PUBCHEM_ATOM_DEF_STEREO_COUNT>
0

> <PUBCHEM_ATOM_UDEF_STEREO_COUNT>
2

> <PUBCHEM_BOND_DEF_STEREO_COUNT>
0

> <PUBCHEM_BOND_UDEF_STEREO_COUNT>
0

> <PUBCHEM_ISOTOPIC_ATOM_COUNT>
0

> <PUBCHEM_COMPONENT_COUNT>
1

> <PUBCHEM_CACTVS_TAUTO_COUNT>
2

> <PUBCHEM_CONFORMER_ID>
0008E6FC00000003

> <PUBCHEM_MMFF94_ENERGY>
50.6273

> <PUBCHEM_FEATURE_SELFOVERLAP>
40.597

> <PUBCHEM_SHAPE_FINGERPRINT>
107287 299 18272645727540881810
12202030 40 17703497870524811643
12326174 3 18341897410959990850
12423570 1 15036448601116656426
12932764 1 17821446880766738033
13296908 3 18272651298556576447
13380536 127 17676492790856409057
14115302 16 12391508642797221649
14144814 61 17822008718460571749
15207287 21 17917720054253907259
15375462 189 18333450924312961043
15757776 16 18337682935704010103
15852999 172 17131839754572073043
16945 1 18410289173022334660
18981168 100 6554820495540692403
19422 9 17895183437465494231
19786989 88 17774145817251012029
20201158 50 17846784009458035923
20233049 118 8790615826815285450
20279233 1 17561366184308748307
20361792 2 18337396066470038695
204376 136 18199470961460449064
20645477 70 18340494460394159599
20671657 53 17700983385926367162
21730867 7 17918274268122658698
21731516 1 18122624126278364595
22445834 79 17967248694078434499
2255824 54 18190463753336451993
22802520 49 17273983621710701301
23236772 104 17822291245530164251
23419403 2 15255607897292894729
23557571 272 16272205280472796349
23559900 14 16199886007031393096
2748010 2 18194691590150833660
34934 24 18186797015423345137
474 4 17898015633305952736
568465 68 18199452286610155393
581208 293 18343300353347584939
77492 1 17967250897227793857
81228 2 17116369901047501442
81539 233 18131351882444820910

> <PUBCHEM_SHAPE_MULTIPOLES>
311.42
5.54
1.9
1.42
3.18
0.62
-0.06
0.45
-0.18
-1.82
0.14
0.26
0.13
-0.25

> <PUBCHEM_SHAPE_SELFOVERLAP>
650.3

> <PUBCHEM_SHAPE_VOLUME>
178.8

> <PUBCHEM_COORDINATE_TYPE>
2
5
10

$$$$

