4152
  -OEChem-06251223553D

 39 40  0     0  0  0  0  0  0999 V2000
   -3.7787   -1.0128    0.4498 S   0  0  0  0  0  0  0  0  0  0  0  0
   -5.1433   -1.1110   -0.0337 O   0  0  0  0  0  0  0  0  0  0  0  0
   -3.4723   -1.3751    1.8203 O   0  0  0  0  0  0  0  0  0  0  0  0
    5.5976   -0.9415    0.3623 O   0  0  0  0  0  0  0  0  0  0  0  0
    6.9419    1.3323   -0.0589 O   0  0  0  0  0  0  0  0  0  0  0  0
   -2.7382   -1.8592   -0.6313 N   0  0  0  0  0  0  0  0  0  0  0  0
    5.5394    1.3159   -0.0640 N   0  0  0  0  0  0  0  0  0  0  0  0
   -1.3292   -1.6495   -0.5356 C   0  0  0  0  0  0  0  0  0  0  0  0
   -3.2685    0.6646    0.2075 C   0  0  0  0  0  0  0  0  0  0  0  0
    1.4104   -1.2423   -0.3497 C   0  0  0  0  0  0  0  0  0  0  0  0
   -0.6586   -1.9472    0.6507 C   0  0  0  0  0  0  0  0  0  0  0  0
   -0.6230   -1.1471   -1.6288 C   0  0  0  0  0  0  0  0  0  0  0  0
    0.7179   -1.7424    0.7442 C   0  0  0  0  0  0  0  0  0  0  0  0
    0.7537   -0.9427   -1.5352 C   0  0  0  0  0  0  0  0  0  0  0  0
   -3.8914    1.4243   -0.7661 C   0  0  0  0  0  0  0  0  0  0  0  0
   -2.2569    1.1816    0.9967 C   0  0  0  0  0  0  0  0  0  0  0  0
    2.8598   -1.0277   -0.2514 C   0  0  0  0  0  0  0  0  0  0  0  0
    3.4556    0.1105    0.1548 C   0  0  0  0  0  0  0  0  0  0  0  0
   -3.4889    2.7460   -0.9574 C   0  0  0  0  0  0  0  0  0  0  0  0
   -1.8546    2.5035    0.8053 C   0  0  0  0  0  0  0  0  0  0  0  0
   -2.4706    3.2857   -0.1717 C   0  0  0  0  0  0  0  0  0  0  0  0
    2.7358    1.3418    0.6287 C   0  0  0  0  0  0  0  0  0  0  0  0
    4.9622    0.0924    0.1634 C   0  0  0  0  0  0  0  0  0  0  0  0
   -3.0928   -1.9855   -1.5884 H   0  0  0  0  0  0  0  0  0  0  0  0
   -1.1784   -2.3661    1.5068 H   0  0  0  0  0  0  0  0  0  0  0  0
   -1.1351   -0.9097   -2.5576 H   0  0  0  0  0  0  0  0  0  0  0  0
    1.2295   -1.9841    1.6723 H   0  0  0  0  0  0  0  0  0  0  0  0
    1.2921   -0.5504   -2.3941 H   0  0  0  0  0  0  0  0  0  0  0  0
   -4.6797    1.0204   -1.3935 H   0  0  0  0  0  0  0  0  0  0  0  0
   -1.7685    0.5944    1.7674 H   0  0  0  0  0  0  0  0  0  0  0  0
    3.4486   -1.8845   -0.5723 H   0  0  0  0  0  0  0  0  0  0  0  0
   -3.9669    3.3545   -1.7195 H   0  0  0  0  0  0  0  0  0  0  0  0
   -1.0619    2.9238    1.4173 H   0  0  0  0  0  0  0  0  0  0  0  0
   -2.1569    4.3146   -0.3211 H   0  0  0  0  0  0  0  0  0  0  0  0
    3.1926    1.7196    1.5498 H   0  0  0  0  0  0  0  0  0  0  0  0
    1.6808    1.1581    0.8520 H   0  0  0  0  0  0  0  0  0  0  0  0
    2.7816    2.1280   -0.1317 H   0  0  0  0  0  0  0  0  0  0  0  0
    5.0693    2.1823   -0.2997 H   0  0  0  0  0  0  0  0  0  0  0  0
    7.1107    1.9683   -0.7744 H   0  0  0  0  0  0  0  0  0  0  0  0
  1  2  2  0  0  0  0
  1  3  2  0  0  0  0
  1  6  1  0  0  0  0
  1  9  1  0  0  0  0
  4 23  2  0  0  0  0
  5  7  1  0  0  0  0
  5 39  1  0  0  0  0
  6  8  1  0  0  0  0
  6 24  1  0  0  0  0
  7 23  1  0  0  0  0
  7 38  1  0  0  0  0
  8 11  2  0  0  0  0
  8 12  1  0  0  0  0
  9 15  2  0  0  0  0
  9 16  1  0  0  0  0
 10 13  2  0  0  0  0
 10 14  1  0  0  0  0
 10 17  1  0  0  0  0
 11 13  1  0  0  0  0
 11 25  1  0  0  0  0
 12 14  2  0  0  0  0
 12 26  1  0  0  0  0
 13 27  1  0  0  0  0
 14 28  1  0  0  0  0
 15 19  1  0  0  0  0
 15 29  1  0  0  0  0
 16 20  2  0  0  0  0
 16 30  1  0  0  0  0
 17 18  2  0  0  0  0
 17 31  1  0  0  0  0
 18 22  1  0  0  0  0
 18 23  1  0  0  0  0
 19 21  2  0  0  0  0
 19 32  1  0  0  0  0
 20 21  1  0  0  0  0
 20 33  1  0  0  0  0
 21 34  1  0  0  0  0
 22 35  1  0  0  0  0
 22 36  1  0  0  0  0
 22 37  1  0  0  0  0
M  END
> <PUBCHEM_COMPOUND_CID>
4152

> <PUBCHEM_CONFORMER_RMSD>
0.8

> <PUBCHEM_CONFORMER_DIVERSEORDER>
1
14
32
12
28
22
10
33
8
36
29
35
34
23
26
37
27
2
19
6
25
31
21
5
20
4
18
11
3
17
9
16
30
24
7
15
13

> <PUBCHEM_MMFF94_PARTIAL_CHARGES>
36
1 1.45
10 0.03
11 -0.15
12 -0.15
13 -0.15
14 -0.15
15 -0.15
16 -0.15
17 -0.18
18 -0.12
19 -0.15
2 -0.65
20 -0.15
21 -0.15
22 0.14
23 0.62
24 0.42
25 0.15
26 0.15
27 0.15
28 0.15
29 0.15
3 -0.65
30 0.15
31 0.15
32 0.15
33 0.15
34 0.15
38 0.37
39 0.4
4 -0.57
5 -0.44
6 -0.76
7 -0.39
8 0.2
9 -0.01

> <PUBCHEM_EFFECTIVE_ROTOR_COUNT>
6

> <PUBCHEM_PHARMACOPHORE_FEATURES>
8
1 2 acceptor
1 22 hydrophobe
1 3 acceptor
1 4 acceptor
1 6 donor
1 7 donor
6 8 10 11 12 13 14 rings
6 9 15 16 19 20 21 rings

> <PUBCHEM_HEAVY_ATOM_COUNT>
23

> <PUBCHEM_ATOM_DEF_STEREO_COUNT>
0

> <PUBCHEM_ATOM_UDEF_STEREO_COUNT>
0

> <PUBCHEM_BOND_DEF_STEREO_COUNT>
0

> <PUBCHEM_BOND_UDEF_STEREO_COUNT>
1

> <PUBCHEM_ISOTOPIC_ATOM_COUNT>
0

> <PUBCHEM_COMPONENT_COUNT>
1

> <PUBCHEM_CACTVS_TAUTO_COUNT>
3

> <PUBCHEM_CONFORMER_ID>
0000103800000001

> <PUBCHEM_MMFF94_ENERGY>
57.698

> <PUBCHEM_FEATURE_SELFOVERLAP>
40.613

> <PUBCHEM_SHAPE_FINGERPRINT>
10498660 4 18337673134736515517
10670039 82 18340750595222008412
10730089 173 18334011671175077596
11552529 35 17273968043722498802
11595378 159 18201454574836404872
11961588 58 18199202844127441341
12107183 9 17838063954795760866
12403814 3 18114177519562128443
12596602 18 17417813894567468480
12892183 10 18202278126015000954
13402501 40 18261394425191357705
13965767 371 17269188754565614533
13994607 96 18335147504993240349
14142880 1 18131354154698727245
14251751 93 18408889555092369712
14251764 38 18190741040878109760
14251764 75 17901941164732371961
14466204 15 18337117843221207010
14739800 52 18340504325907203874
15183329 4 17603297181679289286
15209294 21 18130790096216787102
15880784 105 15625936478828875826
17492 54 18044966625853677117
17844677 252 18411694405371458534
20645477 56 18040433261607176462
20775530 9 10230024938409959225
21279426 13 18264766744029987710
21315764 268 18335145263368672416
21652331 79 18335701619966655731
22956985 138 16976444423721069891
23227448 37 18335423452035661381
23402539 116 18260834748325016167
23557571 272 18261106375036318039
23559900 14 17903642121994348187
2838139 119 18261683678591211548
350125 39 18408321064388653784
3524813 1 18186806859171668681
392239 28 18200860782817991067
445580 37 18341883066681982252
469060 322 18128231485857132057
5104073 3 18060150851447340882
574716 61 5472562447435928906
9981440 41 18271805787116166547

> <PUBCHEM_SHAPE_MULTIPOLES>
443.74
11.76
3.09
1.21
18.42
1.87
-0.1
4.62
0.74
-2.86
-0.06
-0.78
-0.27
0.69

> <PUBCHEM_SHAPE_SELFOVERLAP>
928.237

> <PUBCHEM_SHAPE_VOLUME>
249.9

> <PUBCHEM_COORDINATE_TYPE>
2
5
10

$$$$

