17395954
  -OEChem-06241222533D

 36 38  0     0  0  0  0  0  0999 V2000
    0.2881   -3.2951    0.2005 S   0  0  0  0  0  0  0  0  0  0  0  0
    2.2173    0.8341    1.9118 O   0  0  0  0  0  0  0  0  0  0  0  0
   -6.2488    0.2102   -0.0588 O   0  0  0  0  0  0  0  0  0  0  0  0
    6.1855    2.1341   -0.3752 O   0  0  0  0  0  0  0  0  0  0  0  0
   -1.7550   -1.5974    0.0640 N   0  0  0  0  0  0  0  0  0  0  0  0
    0.4406   -0.7247   -0.0275 N   0  0  0  0  0  0  0  0  0  0  0  0
    2.8719   -0.3480   -0.0768 C   0  0  0  0  0  0  0  0  0  0  0  0
    1.7301   -1.2184    0.0076 C   0  0  0  0  0  0  0  0  0  0  0  0
   -2.6542   -0.4724   -0.0296 C   0  0  0  0  0  0  0  0  0  0  0  0
   -0.4017   -1.7296    0.0669 C   0  0  0  0  0  0  0  0  0  0  0  0
    3.0833    0.6503    0.8742 C   0  0  0  0  0  0  0  0  0  0  0  0
    3.7742   -0.5121   -1.1280 C   0  0  0  0  0  0  0  0  0  0  0  0
    1.8485   -2.5871    0.1277 C   0  0  0  0  0  0  0  0  0  0  0  0
   -4.0336   -0.6778   -0.0005 C   0  0  0  0  0  0  0  0  0  0  0  0
   -2.1438    0.8204   -0.1462 C   0  0  0  0  0  0  0  0  0  0  0  0
    4.1969    1.4844    0.7741 C   0  0  0  0  0  0  0  0  0  0  0  0
    4.8877    0.3218   -1.2280 C   0  0  0  0  0  0  0  0  0  0  0  0
   -4.9026    0.4098   -0.0883 C   0  0  0  0  0  0  0  0  0  0  0  0
    5.0991    1.3200   -0.2769 C   0  0  0  0  0  0  0  0  0  0  0  0
   -3.0127    1.9079   -0.2340 C   0  0  0  0  0  0  0  0  0  0  0  0
   -4.3922    1.7027   -0.2051 C   0  0  0  0  0  0  0  0  0  0  0  0
   -7.0788    1.3669   -0.1516 C   0  0  0  0  0  0  0  0  0  0  0  0
   -2.2805   -2.4665    0.1429 H   0  0  0  0  0  0  0  0  0  0  0  0
    3.6263   -1.2801   -1.8837 H   0  0  0  0  0  0  0  0  0  0  0  0
    2.7410   -3.1959    0.1781 H   0  0  0  0  0  0  0  0  0  0  0  0
   -4.4392   -1.6827    0.0910 H   0  0  0  0  0  0  0  0  0  0  0  0
   -1.0826    1.0353   -0.1728 H   0  0  0  0  0  0  0  0  0  0  0  0
    4.3634    2.2634    1.5143 H   0  0  0  0  0  0  0  0  0  0  0  0
    5.5864    0.1901   -2.0498 H   0  0  0  0  0  0  0  0  0  0  0  0
   -2.6149    2.9147   -0.3247 H   0  0  0  0  0  0  0  0  0  0  0  0
   -5.0093    2.5917   -0.2774 H   0  0  0  0  0  0  0  0  0  0  0  0
    2.5308    1.5715    2.4628 H   0  0  0  0  0  0  0  0  0  0  0  0
    6.1747    2.7656    0.3645 H   0  0  0  0  0  0  0  0  0  0  0  0
   -8.1177    1.0232   -0.1122 H   0  0  0  0  0  0  0  0  0  0  0  0
   -6.9483    1.8802   -1.1104 H   0  0  0  0  0  0  0  0  0  0  0  0
   -6.9316    2.0375    0.7018 H   0  0  0  0  0  0  0  0  0  0  0  0
  1 10  1  0  0  0  0
  1 13  1  0  0  0  0
  2 11  1  0  0  0  0
  2 32  1  0  0  0  0
  3 18  1  0  0  0  0
  3 22  1  0  0  0  0
  4 19  1  0  0  0  0
  4 33  1  0  0  0  0
  5  9  1  0  0  0  0
  5 10  1  0  0  0  0
  5 23  1  0  0  0  0
  6  8  1  0  0  0  0
  6 10  2  0  0  0  0
  7  8  1  0  0  0  0
  7 11  2  0  0  0  0
  7 12  1  0  0  0  0
  8 13  2  0  0  0  0
  9 14  2  0  0  0  0
  9 15  1  0  0  0  0
 11 16  1  0  0  0  0
 12 17  2  0  0  0  0
 12 24  1  0  0  0  0
 13 25  1  0  0  0  0
 14 18  1  0  0  0  0
 14 26  1  0  0  0  0
 15 20  2  0  0  0  0
 15 27  1  0  0  0  0
 16 19  2  0  0  0  0
 16 28  1  0  0  0  0
 17 19  1  0  0  0  0
 17 29  1  0  0  0  0
 18 21  2  0  0  0  0
 20 21  1  0  0  0  0
 20 30  1  0  0  0  0
 21 31  1  0  0  0  0
 22 34  1  0  0  0  0
 22 35  1  0  0  0  0
 22 36  1  0  0  0  0
M  END
> <PUBCHEM_COMPOUND_CID>
17395954

> <PUBCHEM_CONFORMER_RMSD>
0.6

> <PUBCHEM_CONFORMER_DIVERSEORDER>
5
53
99
166
51
155
11
88
172
32
59
137
85
129
118
64
71
34
206
36
14
46
22
157
39
26
84
182
160
67
78
161
10
175
73
15
138
66
109
87
65
30
132
110
179
62
40
24
136
28
108
145
41
3
45
29
33
25
216
124
86
139
95
69
55
12
173
162
127
163
19
57
168
94
48
100
1
209
116
183
106
104
49
203
31
123
193
50
61
27
72
58
18
205
20
211
140
82
103
2
96
120
80
125
70
178
208
42
47
13
37
134
112
44
169
130
176
9
89
164
188
43
177
107
165
16
76
60
126
38
185
225
220
115
68
144
152
83
23
35
98
171
113
223
6
133
215
174
21
199
17
187
204
167
184
181
192
119
186
4
156
93
75
180
151
7
146
105
210
147
221
201
117
111
214
74
81
213
170
207
143
159
8
101
197
217
56
191
150
194
135
121
149
158
142
92
77
148
79
131
195
202
224
141
122
196
219
153
128
52
90
63
190
218
198
212
102
91
154
97
222
189
54
200
114

> <PUBCHEM_MMFF94_PARTIAL_CHARGES>
33
1 -0.08
10 0.46
11 0.08
12 -0.15
13 -0.11
14 -0.15
15 -0.15
16 -0.15
17 -0.15
18 0.08
19 0.08
2 -0.53
20 -0.15
21 -0.15
22 0.28
23 0.4
24 0.15
25 0.15
26 0.15
27 0.15
28 0.15
29 0.15
3 -0.36
30 0.15
31 0.15
32 0.45
33 0.45
4 -0.53
5 -0.58
6 -0.57
7 0.05
8 0.17
9 0.1

> <PUBCHEM_EFFECTIVE_ROTOR_COUNT>
4

> <PUBCHEM_PHARMACOPHORE_FEATURES>
8
1 2 donor
1 3 acceptor
1 4 donor
1 5 donor
3 5 6 10 cation
5 1 6 8 10 13 rings
6 7 11 12 16 17 19 rings
6 9 14 15 18 20 21 rings

> <PUBCHEM_HEAVY_ATOM_COUNT>
22

> <PUBCHEM_ATOM_DEF_STEREO_COUNT>
0

> <PUBCHEM_ATOM_UDEF_STEREO_COUNT>
0

> <PUBCHEM_BOND_DEF_STEREO_COUNT>
0

> <PUBCHEM_BOND_UDEF_STEREO_COUNT>
0

> <PUBCHEM_ISOTOPIC_ATOM_COUNT>
0

> <PUBCHEM_COMPONENT_COUNT>
1

> <PUBCHEM_CACTVS_TAUTO_COUNT>
18

> <PUBCHEM_CONFORMER_ID>
010970F200000005

> <PUBCHEM_MMFF94_ENERGY>
72.9941

> <PUBCHEM_FEATURE_SELFOVERLAP>
40.594

> <PUBCHEM_SHAPE_FINGERPRINT>
10165383 225 18412823586527567012
10411042 1 17690562309598795106
10498660 4 18411420634948911252
10670039 82 18200020867587825580
11595378 159 17060066989869991581
11796584 16 5256397297183734596
12596602 18 16702017556798492513
12633257 1 15482665741531979684
12730499 353 18408878559986946739
12788726 201 17055249802128280602
12838862 33 18339942440531483485
13402501 40 18408886217692082792
13685833 64 8574709109509406789
13955234 65 18199466760719359147
14211702 104 8717670910342211901
14257110 125 18412825780796808758
14528608 73 18333455352598329543
14617045 38 18408321094996665897
14840074 17 17489580130519015732
14931854 50 18040430018653881184
15183329 4 16515676754033668808
15210252 30 18411135814678461176
15885798 251 8935002572508998375
15961568 22 18131348639512878669
17980427 23 17489020453742227671
18222031 100 10591762121096439258
18608769 82 18337948983649148411
19784866 240 8718829803527854607
21033648 29 18263368005697607656
221357 26 17675922122863016304
22289505 5 17967248702731796036
23559900 14 17978239584209212835
245318 6 17487597655283052820
335352 9 18410570717773778214
3472631 163 18341327782738684684
34797466 226 17968089863544591557
350125 39 18270683203013616710
3545911 37 18341327872864328255
46194498 28 17896312695899950919
474 4 17988635311534756863
495365 180 17240491265326925466
5104073 3 18127969909648403153
53794403 172 18195247711170428165
56616090 163 18410569578700167442
6327066 14 18340487768608038244
6442390 28 18412544301683893126
77188 2 17547857811772994554
7808743 9 18269275669089354528
8863177 126 6410144604460053613
9981440 41 18201716241176552899

> <PUBCHEM_SHAPE_MULTIPOLES>
429.03
14.89
2.75
0.94
11.6
1.75
0.15
-11.55
-2.19
-1.18
0.16
-1.11
-0.2
0.36

> <PUBCHEM_SHAPE_SELFOVERLAP>
925.288

> <PUBCHEM_SHAPE_VOLUME>
238.1

> <PUBCHEM_COORDINATE_TYPE>
2
5
10

$$$$

