38839
  -OEChem-07051213133D

 34 35  0     0  0  0  0  0  0999 V2000
   -4.3931   -0.5500   -0.4069 O   0  0  0  0  0  0  0  0  0  0  0  0
    0.9526    2.7179   -0.0683 O   0  0  0  0  0  0  0  0  0  0  0  0
   -0.5696    0.9446   -0.1634 C   0  0  0  0  0  0  0  0  0  0  0  0
   -2.5463    0.1908    0.9304 C   0  0  0  0  0  0  0  0  0  0  0  0
    1.9903    0.6223   -0.0211 C   0  0  0  0  0  0  0  0  0  0  0  0
   -1.2491    0.6978    1.0068 C   0  0  0  0  0  0  0  0  0  0  0  0
    0.8209    1.4851   -0.0824 C   0  0  0  0  0  0  0  0  0  0  0  0
   -3.1270   -0.0551   -0.3139 C   0  0  0  0  0  0  0  0  0  0  0  0
   -1.1129    0.7132   -1.4053 C   0  0  0  0  0  0  0  0  0  0  0  0
    1.8365   -0.7639   -0.0373 C   0  0  0  0  0  0  0  0  0  0  0  0
   -2.4102    0.2063   -1.4818 C   0  0  0  0  0  0  0  0  0  0  0  0
    2.9584   -1.5908    0.0211 C   0  0  0  0  0  0  0  0  0  0  0  0
    3.2659    1.1818    0.0535 C   0  0  0  0  0  0  0  0  0  0  0  0
   -3.2992   -0.0822    2.1908 C   0  0  0  0  0  0  0  0  0  0  0  0
    4.2340   -1.0311    0.0955 C   0  0  0  0  0  0  0  0  0  0  0  0
    4.3877    0.3550    0.1119 C   0  0  0  0  0  0  0  0  0  0  0  0
    2.7947   -3.0731    0.0027 C   0  0  0  0  0  0  0  0  0  0  0  0
   -4.5337   -1.9689   -0.4324 C   0  0  0  0  0  0  0  0  0  0  0  0
   -0.7864    0.8911    1.9705 H   0  0  0  0  0  0  0  0  0  0  0  0
   -0.5583    0.9151   -2.3166 H   0  0  0  0  0  0  0  0  0  0  0  0
    0.8570   -1.2304   -0.0929 H   0  0  0  0  0  0  0  0  0  0  0  0
   -2.8561    0.0180   -2.4547 H   0  0  0  0  0  0  0  0  0  0  0  0
    3.4132    2.2585    0.0677 H   0  0  0  0  0  0  0  0  0  0  0  0
   -3.2710   -1.1507    2.4253 H   0  0  0  0  0  0  0  0  0  0  0  0
   -2.8702    0.4630    3.0387 H   0  0  0  0  0  0  0  0  0  0  0  0
   -4.3425    0.2397    2.1054 H   0  0  0  0  0  0  0  0  0  0  0  0
    5.1165   -1.6637    0.1432 H   0  0  0  0  0  0  0  0  0  0  0  0
    5.3810    0.7904    0.1704 H   0  0  0  0  0  0  0  0  0  0  0  0
    1.9908   -3.3685   -0.6801 H   0  0  0  0  0  0  0  0  0  0  0  0
    3.7070   -3.5725   -0.3411 H   0  0  0  0  0  0  0  0  0  0  0  0
    2.5574   -3.4373    1.0073 H   0  0  0  0  0  0  0  0  0  0  0  0
   -5.6008   -2.2064   -0.4559 H   0  0  0  0  0  0  0  0  0  0  0  0
   -4.0946   -2.4237    0.4606 H   0  0  0  0  0  0  0  0  0  0  0  0
   -4.0644   -2.3813   -1.3312 H   0  0  0  0  0  0  0  0  0  0  0  0
  1  8  1  0  0  0  0
  1 18  1  0  0  0  0
  2  7  2  0  0  0  0
  3  6  2  0  0  0  0
  3  7  1  0  0  0  0
  3  9  1  0  0  0  0
  4  6  1  0  0  0  0
  4  8  2  0  0  0  0
  4 14  1  0  0  0  0
  5  7  1  0  0  0  0
  5 10  1  0  0  0  0
  5 13  2  0  0  0  0
  6 19  1  0  0  0  0
  8 11  1  0  0  0  0
  9 11  2  0  0  0  0
  9 20  1  0  0  0  0
 10 12  2  0  0  0  0
 10 21  1  0  0  0  0
 11 22  1  0  0  0  0
 12 15  1  0  0  0  0
 12 17  1  0  0  0  0
 13 16  1  0  0  0  0
 13 23  1  0  0  0  0
 14 24  1  0  0  0  0
 14 25  1  0  0  0  0
 14 26  1  0  0  0  0
 15 16  2  0  0  0  0
 15 27  1  0  0  0  0
 16 28  1  0  0  0  0
 17 29  1  0  0  0  0
 17 30  1  0  0  0  0
 17 31  1  0  0  0  0
 18 32  1  0  0  0  0
 18 33  1  0  0  0  0
 18 34  1  0  0  0  0
M  END
> <PUBCHEM_COMPOUND_CID>
38839

> <PUBCHEM_CONFORMER_RMSD>
0.6

> <PUBCHEM_CONFORMER_DIVERSEORDER>
1
27
11
16
28
20
7
13
22
29
15
17
8
18
14
26
4
6
12
31
10
33
3
30
21
9
2
5
23
25
24
19
32
34

> <PUBCHEM_MMFF94_PARTIAL_CHARGES>
25
1 -0.36
10 -0.15
11 -0.15
12 -0.14
13 -0.15
14 0.14
15 -0.15
16 -0.15
17 0.14
18 0.28
19 0.15
2 -0.57
20 0.15
21 0.15
22 0.15
23 0.15
27 0.15
28 0.15
3 0.09
4 -0.14
5 0.09
6 -0.15
7 0.4
8 0.08
9 -0.15

> <PUBCHEM_EFFECTIVE_ROTOR_COUNT>
3

> <PUBCHEM_PHARMACOPHORE_FEATURES>
4
1 1 acceptor
1 2 acceptor
6 3 4 6 8 9 11 rings
6 5 10 12 13 15 16 rings

> <PUBCHEM_HEAVY_ATOM_COUNT>
18

> <PUBCHEM_ATOM_DEF_STEREO_COUNT>
0

> <PUBCHEM_ATOM_UDEF_STEREO_COUNT>
0

> <PUBCHEM_BOND_DEF_STEREO_COUNT>
0

> <PUBCHEM_BOND_UDEF_STEREO_COUNT>
0

> <PUBCHEM_ISOTOPIC_ATOM_COUNT>
0

> <PUBCHEM_COMPONENT_COUNT>
1

> <PUBCHEM_CACTVS_TAUTO_COUNT>
1

> <PUBCHEM_CONFORMER_ID>
000097B700000001

> <PUBCHEM_MMFF94_ENERGY>
69.4401

> <PUBCHEM_FEATURE_SELFOVERLAP>
20.297

> <PUBCHEM_SHAPE_FINGERPRINT>
10618630 7 18339641264971633532
11137873 295 18271526498082149297
11543360 7 15697703870806529190
11578080 2 17533528774186230681
12236239 1 17748825202545365320
12553582 1 18337665416864699510
12596599 1 18041831943208098527
12596602 18 17386006126502702658
12892183 10 16877942767243114626
13296908 3 18341335599352257668
13544653 18 18271801345623693892
13583140 156 17822021891025464369
14252887 29 17967246507945310534
14386348 63 17917989485973495074
15375462 189 17894640235761046404
15635459 17 18273216417273589386
1813 80 18187913011330814668
200 152 18408327670290681685
20279233 1 17704353273027088808
20281475 54 18410572920231774276
20645477 70 18200881673064015028
22445834 79 18040718060519023149
2255824 54 18263924337302104300
22646028 28 18260269654844849071
23526113 38 17917437539853107672
23557571 272 17274831284803913164
23559900 14 18339089164084860273
2838139 119 9582979934161936443
2871803 45 18273217529780791186
33382 64 18266457595397986243
33824 294 18411705366043413418
474 4 17751935609804535832
4921388 177 16128362805492648561
77492 1 17676205762460909412
83771 10 18409168831024712628
90316 7 17313096505648562905
9709674 26 18059856198630120866

> <PUBCHEM_SHAPE_MULTIPOLES>
358.69
8.84
2.27
1.26
0.96
1.01
0.33
4.3
0.4
-1.65
-0.15
1.65
-0.1
-0.22

> <PUBCHEM_SHAPE_SELFOVERLAP>
771.238

> <PUBCHEM_SHAPE_VOLUME>
199.7

> <PUBCHEM_COORDINATE_TYPE>
2
5
10

$$$$

