17396537
  -OEChem-06241222573D

 41 41  0     1  0  0  0  0  0999 V2000
    1.5893   -0.1827   -0.2082 O   0  0  0  0  0  0  0  0  0  0  0  0
   -4.9702   -0.8029   -0.2052 O   0  0  0  0  0  0  0  0  0  0  0  0
    0.5569   -2.1743    0.2647 O   0  0  0  0  0  0  0  0  0  0  0  0
   -5.0398    1.3624    0.5450 O   0  0  0  0  0  0  0  0  0  0  0  0
    3.6495    1.3256    0.5597 O   0  0  0  0  0  0  0  0  0  0  0  0
   -0.8634    1.1061   -0.2647 N   0  0  0  0  0  0  0  0  0  0  0  0
    5.1728   -0.4128    0.3508 N   0  0  0  0  0  0  0  0  0  0  0  0
   -2.0568   -0.7114    0.1873 C   0  0  0  0  0  0  0  0  0  0  0  0
   -0.7784   -0.2374   -0.0080 C   0  0  0  0  0  0  0  0  0  0  0  0
   -2.9415    0.3857    0.0427 C   0  0  0  0  0  0  0  0  0  0  0  0
   -2.1769    1.4967   -0.2368 C   0  0  0  0  0  0  0  0  0  0  0  0
    2.8500   -0.8307   -0.1818 C   0  0  2  0  0  0  0  0  0  0  0  0
   -2.4371   -2.1069    0.4921 C   0  0  0  0  0  0  0  0  0  0  0  0
    0.4893   -0.9713    0.0343 C   0  0  0  0  0  0  0  0  0  0  0  0
   -2.5554    2.9019   -0.4829 C   0  0  0  0  0  0  0  0  0  0  0  0
   -4.3728    0.3879    0.1568 C   0  0  0  0  0  0  0  0  0  0  0  0
    3.9098    0.1552    0.2889 C   0  0  0  0  0  0  0  0  0  0  0  0
    3.1546   -1.3361   -1.5831 C   0  0  0  0  0  0  0  0  0  0  0  0
    6.3412    0.3357    0.7509 C   0  0  0  0  0  0  0  0  0  0  0  0
    6.8767    1.1790   -0.3877 C   0  0  0  0  0  0  0  0  0  0  0  0
   -6.3979   -0.8699   -0.1149 C   0  0  0  0  0  0  0  0  0  0  0  0
   -0.0763    1.7140   -0.4465 H   0  0  0  0  0  0  0  0  0  0  0  0
    2.8542   -1.6627    0.5342 H   0  0  0  0  0  0  0  0  0  0  0  0
   -3.3511   -2.1574    1.0918 H   0  0  0  0  0  0  0  0  0  0  0  0
   -1.6751   -2.6227    1.0827 H   0  0  0  0  0  0  0  0  0  0  0  0
   -2.5975   -2.6709   -0.4322 H   0  0  0  0  0  0  0  0  0  0  0  0
   -3.3537    2.9631   -1.2297 H   0  0  0  0  0  0  0  0  0  0  0  0
   -1.7109    3.4922   -0.8536 H   0  0  0  0  0  0  0  0  0  0  0  0
   -2.9115    3.3693    0.4408 H   0  0  0  0  0  0  0  0  0  0  0  0
    4.0884   -1.9040   -1.6274 H   0  0  0  0  0  0  0  0  0  0  0  0
    2.3498   -1.9815   -1.9510 H   0  0  0  0  0  0  0  0  0  0  0  0
    3.2351   -0.5002   -2.2878 H   0  0  0  0  0  0  0  0  0  0  0  0
    5.2943   -1.3974    0.1349 H   0  0  0  0  0  0  0  0  0  0  0  0
    7.0969   -0.3847    1.0789 H   0  0  0  0  0  0  0  0  0  0  0  0
    6.0795    0.9737    1.6018 H   0  0  0  0  0  0  0  0  0  0  0  0
    7.1347    0.5542   -1.2494 H   0  0  0  0  0  0  0  0  0  0  0  0
    6.1380    1.9152   -0.7211 H   0  0  0  0  0  0  0  0  0  0  0  0
    7.7759    1.7176   -0.0734 H   0  0  0  0  0  0  0  0  0  0  0  0
   -6.7175   -0.7130    0.9195 H   0  0  0  0  0  0  0  0  0  0  0  0
   -6.8526   -0.1281   -0.7779 H   0  0  0  0  0  0  0  0  0  0  0  0
   -6.7122   -1.8672   -0.4334 H   0  0  0  0  0  0  0  0  0  0  0  0
  1 12  1  0  0  0  0
  1 14  1  0  0  0  0
  2 16  1  0  0  0  0
  2 21  1  0  0  0  0
  3 14  2  0  0  0  0
  4 16  2  0  0  0  0
  5 17  2  0  0  0  0
  6  9  1  0  0  0  0
  6 11  1  0  0  0  0
  6 22  1  0  0  0  0
  7 17  1  0  0  0  0
  7 19  1  0  0  0  0
  7 33  1  0  0  0  0
  8  9  2  0  0  0  0
  8 10  1  0  0  0  0
  8 13  1  0  0  0  0
  9 14  1  0  0  0  0
 10 11  2  0  0  0  0
 10 16  1  0  0  0  0
 11 15  1  0  0  0  0
 12 17  1  0  0  0  0
 12 18  1  0  0  0  0
 12 23  1  0  0  0  0
 13 24  1  0  0  0  0
 13 25  1  0  0  0  0
 13 26  1  0  0  0  0
 15 27  1  0  0  0  0
 15 28  1  0  0  0  0
 15 29  1  0  0  0  0
 18 30  1  0  0  0  0
 18 31  1  0  0  0  0
 18 32  1  0  0  0  0
 19 20  1  0  0  0  0
 19 34  1  0  0  0  0
 19 35  1  0  0  0  0
 20 36  1  0  0  0  0
 20 37  1  0  0  0  0
 20 38  1  0  0  0  0
 21 39  1  0  0  0  0
 21 40  1  0  0  0  0
 21 41  1  0  0  0  0
M  END
> <PUBCHEM_COMPOUND_CID>
17396537

> <PUBCHEM_CONFORMER_RMSD>
1

> <PUBCHEM_CONFORMER_DIVERSEORDER>
1
48
88
79
85
90
66
83
12
61
37
81
75
70
82
58
91
84
42
97
47
69
49
67
54
46
76
106
3
63
102
104
23
45
13
20
16
101
24
21
99
41
57
31
92
38
55
95
53
11
4
39
98
86
72
8
43
5
25
32
19
33
6
94
15
68
103
56
36
44
62
78
10
18
50
100
34
77
40
52
89
35
30
60
26
74
17
29
59
73
7
14
51
28
87
27
93
80
96
9
65
22
2
64
71
105

> <PUBCHEM_MMFF94_PARTIAL_CHARGES>
21
1 -0.43
10 -0.09
11 -0.33
12 0.34
13 0.18
14 0.81
15 0.18
16 0.81
17 0.57
19 0.3
2 -0.43
21 0.28
22 0.27
3 -0.57
33 0.37
4 -0.57
5 -0.57
6 0.03
7 -0.73
8 -0.18
9 -0.24

> <PUBCHEM_EFFECTIVE_ROTOR_COUNT>
8

> <PUBCHEM_PHARMACOPHORE_FEATURES>
7
1 3 acceptor
1 4 acceptor
1 5 acceptor
1 6 cation
1 6 donor
1 7 donor
5 6 8 9 10 11 rings

> <PUBCHEM_HEAVY_ATOM_COUNT>
21

> <PUBCHEM_ATOM_DEF_STEREO_COUNT>
0

> <PUBCHEM_ATOM_UDEF_STEREO_COUNT>
1

> <PUBCHEM_BOND_DEF_STEREO_COUNT>
0

> <PUBCHEM_BOND_UDEF_STEREO_COUNT>
0

> <PUBCHEM_ISOTOPIC_ATOM_COUNT>
0

> <PUBCHEM_COMPONENT_COUNT>
1

> <PUBCHEM_CACTVS_TAUTO_COUNT>
6

> <PUBCHEM_CONFORMER_ID>
0109733900000001

> <PUBCHEM_MMFF94_ENERGY>
27.6983

> <PUBCHEM_FEATURE_SELFOVERLAP>
35.52

> <PUBCHEM_SHAPE_FINGERPRINT>
10 15 18337681815656718656
10411042 1 17980197479463950683
12107183 9 17553216797529024976
12236239 1 17346883355745629618
12390115 104 18190169264455990217
12403259 415 18269270343071483996
12596602 18 16845571981391642184
12730499 353 17749105591570700518
12916748 109 18412543232531928650
13140716 1 18199740350414805353
13402501 40 18334861597636822560
13533116 47 17775297096378362546
13862211 1 18342739594582020971
13914758 101 15338849706628968895
14341114 176 18342454863956478192
15196674 1 18339080513619409576
15537594 2 5400799444967456460
17980427 23 18201435823077853566
19489759 90 16487260984627018101
20281389 69 18413393138304904952
20510252 161 18263925600111906985
20645477 56 18334294270905660162
20645477 70 17241038933523249798
21315764 268 18343591741821367636
23402539 116 18342463651375163479
23557571 272 18335417989148646436
23559900 14 18410015403438258896
23622692 88 15985100808739458146
26918003 58 12247677180002340124
283562 15 18340207496760201561
2916195 48 18334299773054230680
350125 39 18411982442662772748
351380 180 18410858763374737442
3545911 37 18187082854265675978
4325135 7 17967817124262387399
474229 33 18412546505112781643
5104073 3 18198900503735175723

> <PUBCHEM_SHAPE_MULTIPOLES>
392.86
15.26
2.11
0.83
12.01
0.65
-0.18
2.67
1.07
-1.52
-0.17
0.61
-0.12
0.51

> <PUBCHEM_SHAPE_SELFOVERLAP>
804.481

> <PUBCHEM_SHAPE_VOLUME>
228.9

> <PUBCHEM_COORDINATE_TYPE>
2
5
10

$$$$

