6842999
  -OEChem-07051212542D

 32 33  0     1  0  0  0  0  0999 V2000
    3.6750    3.4477    0.0000 S   0  0  0  0  0  0  0  0  0  0  0  0
    4.1750    4.3137    0.0000 O   0  0  0  0  0  0  0  0  0  0  0  0
    3.1750    4.3137    0.0000 O   0  0  0  0  0  0  0  0  0  0  0  0
    3.6180   -1.6401    0.0000 O   0  0  0  0  0  0  0  0  0  0  0  0
    3.4901   -4.3137    0.0000 O   0  5  0  0  0  0  0  0  0  0  0  0
    4.8913   -3.2956    0.0000 O   0  0  0  0  0  0  0  0  0  0  0  0
    3.6750    1.4477    0.0000 N   0  0  3  0  0  0  0  0  0  0  0  0
    3.6750    0.4477    0.0000 N   0  0  0  0  0  0  0  0  0  0  0  0
    3.8968   -3.4002    0.0000 N   0  3  0  0  0  0  0  0  0  0  0  0
    4.5411    1.9477    0.0000 C   0  0  3  0  0  0  0  0  0  0  0  0
    4.5411    2.9477    0.0000 C   0  0  0  0  0  0  0  0  0  0  0  0
    2.8090    2.9477    0.0000 C   0  0  0  0  0  0  0  0  0  0  0  0
    2.8090    1.9477    0.0000 C   0  0  0  0  0  0  0  0  0  0  0  0
    5.4071    1.4477    0.0000 C   0  0  0  0  0  0  0  0  0  0  0  0
    2.8090   -0.0523    0.0000 C   0  0  0  0  0  0  0  0  0  0  0  0
    2.8090   -1.0523    0.0000 C   0  0  0  0  0  0  0  0  0  0  0  0
    2.0000   -1.6401    0.0000 C   0  0  0  0  0  0  0  0  0  0  0  0
    2.3090   -2.5912    0.0000 C   0  0  0  0  0  0  0  0  0  0  0  0
    3.3090   -2.5912    0.0000 C   0  0  0  0  0  0  0  0  0  0  0  0
    4.5411    1.3277    0.0000 H   0  0  0  0  0  0  0  0  0  0  0  0
    5.1516    2.8400    0.0000 H   0  0  0  0  0  0  0  0  0  0  0  0
    4.7531    3.5303    0.0000 H   0  0  0  0  0  0  0  0  0  0  0  0
    2.5970    3.5303    0.0000 H   0  0  0  0  0  0  0  0  0  0  0  0
    2.1984    2.8400    0.0000 H   0  0  0  0  0  0  0  0  0  0  0  0
    2.1984    2.0553    0.0000 H   0  0  0  0  0  0  0  0  0  0  0  0
    2.5970    1.3651    0.0000 H   0  0  0  0  0  0  0  0  0  0  0  0
    5.0971    0.9108    0.0000 H   0  0  0  0  0  0  0  0  0  0  0  0
    5.9440    1.1377    0.0000 H   0  0  0  0  0  0  0  0  0  0  0  0
    5.7171    1.9846    0.0000 H   0  0  0  0  0  0  0  0  0  0  0  0
    2.2721    0.2577    0.0000 H   0  0  0  0  0  0  0  0  0  0  0  0
    1.4103   -1.4485    0.0000 H   0  0  0  0  0  0  0  0  0  0  0  0
    1.9446   -3.0927    0.0000 H   0  0  0  0  0  0  0  0  0  0  0  0
  1  2  2  0  0  0  0
  1  3  2  0  0  0  0
  1 11  1  0  0  0  0
  1 12  1  0  0  0  0
  4 16  1  0  0  0  0
  4 19  1  0  0  0  0
  5  9  1  0  0  0  0
  6  9  2  0  0  0  0
  7  8  1  0  0  0  0
  7 10  1  0  0  0  0
  7 13  1  0  0  0  0
  8 15  2  0  0  0  0
  9 19  1  0  0  0  0
 10 11  1  0  0  0  0
 10 14  1  0  0  0  0
 10 20  1  0  0  0  0
 11 21  1  0  0  0  0
 11 22  1  0  0  0  0
 12 13  1  0  0  0  0
 12 23  1  0  0  0  0
 12 24  1  0  0  0  0
 13 25  1  0  0  0  0
 13 26  1  0  0  0  0
 14 27  1  0  0  0  0
 14 28  1  0  0  0  0
 14 29  1  0  0  0  0
 15 16  1  0  0  0  0
 15 30  1  0  0  0  0
 16 17  2  0  0  0  0
 17 18  1  0  0  0  0
 17 31  1  0  0  0  0
 18 19  2  0  0  0  0
 18 32  1  0  0  0  0
M  CHG  2   5  -1   9   1
M  END
> <PUBCHEM_COMPOUND_CID>
6842999

> <PUBCHEM_COMPOUND_CANONICALIZED>
1

> <PUBCHEM_CACTVS_COMPLEXITY>
467

> <PUBCHEM_CACTVS_HBOND_ACCEPTOR>
7

> <PUBCHEM_CACTVS_HBOND_DONOR>
0

> <PUBCHEM_CACTVS_ROTATABLE_BOND>
2

> <PUBCHEM_CACTVS_SUBSKEYS>
AAADccBzOABAAAAAAAAAAAAAAAAAASAAAAAsAAAAAAAAAAABgAAAHgQMAAAACCzF0ASyhIIQREqpALFzU3TSCAAsIhA4iAEubNoMJrKktZuKGSDkyBGo6Ya8AAAAAAAAAAAAAAAAAAAAAAAAAAAAAAAAAA==

> <PUBCHEM_IUPAC_OPENEYE_NAME>
N-(3-methyl-1,1-dioxo-1,4-thiazinan-4-yl)-1-(5-nitro-2-furyl)methanimine

> <PUBCHEM_IUPAC_CAS_NAME>
N-(3-methyl-1,1-dioxo-1,4-thiazinan-4-yl)-1-(5-nitro-2-furanyl)methanimine

> <PUBCHEM_IUPAC_NAME>
N-(3-methyl-1,1-dioxo-1,4-thiazinan-4-yl)-1-(5-nitrofuran-2-yl)methanimine

> <PUBCHEM_IUPAC_SYSTEMATIC_NAME>
N-[3-methyl-1,1-bis(oxidanylidene)-1,4-thiazinan-4-yl]-1-(5-nitrofuran-2-yl)methanimine

> <PUBCHEM_IUPAC_TRADITIONAL_NAME>
(E)-(1,1-diketo-3-methyl-1,4-thiazinan-4-yl)-[(5-nitro-2-furyl)methylene]amine

> <PUBCHEM_IUPAC_INCHI>
InChI=1S/C10H13N3O5S/c1-8-7-19(16,17)5-4-12(8)11-6-9-2-3-10(18-9)13(14)15/h2-3,6,8H,4-5,7H2,1H3/b11-6+

> <PUBCHEM_IUPAC_INCHIKEY>
ARFHIAQFJWUCFH-IZZDOVSWSA-N

> <PUBCHEM_XLOGP3_AA>
1.3

> <PUBCHEM_EXACT_MASS>
287.057592

> <PUBCHEM_MOLECULAR_FORMULA>
C10H13N3O5S

> <PUBCHEM_MOLECULAR_WEIGHT>
287.29232

> <PUBCHEM_OPENEYE_CAN_SMILES>
CC1CS(=O)(=O)CCN1N=CC2=CC=C(O2)[N+](=O)[O-]

> <PUBCHEM_OPENEYE_ISO_SMILES>
CC1CS(=O)(=O)CCN1/N=C/C2=CC=C(O2)[N+](=O)[O-]

> <PUBCHEM_CACTVS_TPSA>
117

> <PUBCHEM_MONOISOTOPIC_WEIGHT>
287.057592

> <PUBCHEM_TOTAL_CHARGE>
0

> <PUBCHEM_HEAVY_ATOM_COUNT>
19

> <PUBCHEM_ATOM_DEF_STEREO_COUNT>
0

> <PUBCHEM_ATOM_UDEF_STEREO_COUNT>
1

> <PUBCHEM_BOND_DEF_STEREO_COUNT>
1

> <PUBCHEM_BOND_UDEF_STEREO_COUNT>
0

> <PUBCHEM_ISOTOPIC_ATOM_COUNT>
0

> <PUBCHEM_COMPONENT_COUNT>
1

> <PUBCHEM_CACTVS_TAUTO_COUNT>
1

> <PUBCHEM_COORDINATE_TYPE>
1
5
255

> <PUBCHEM_BONDANNOTATIONS>
10  14  3
16  17  8
17  18  8
18  19  8
4  16  8
4  19  8

$$$$

