5281826
  -OEChem-07051213003D

 45 48  0     1  0  0  0  0  0999 V2000
   -0.1218   -0.1380    0.1133 O   0  0  0  0  0  0  0  0  0  0  0  0
    1.8912    3.1943    0.9581 O   0  0  0  0  0  0  0  0  0  0  0  0
   -4.3175    2.0917    0.3649 O   0  0  0  0  0  0  0  0  0  0  0  0
   -4.2766   -2.6167   -0.1738 O   0  0  0  0  0  0  0  0  0  0  0  0
   -1.9310   -3.7663   -0.2960 O   0  0  0  0  0  0  0  0  0  0  0  0
    0.8487   -3.6733   -0.2711 O   0  0  0  0  0  0  0  0  0  0  0  0
    6.1683   -0.4060    0.0900 O   0  0  0  0  0  0  0  0  0  0  0  0
   -0.2084    2.1650    1.0637 N   0  0  0  0  0  0  0  0  0  0  0  0
   -1.4807    2.2765    0.3884 C   0  0  1  0  0  0  0  0  0  0  0  0
   -1.1015    2.9343   -0.9368 C   0  0  0  0  0  0  0  0  0  0  0  0
    0.0779    3.8341   -0.5522 C   0  0  1  0  0  0  0  0  0  0  0  0
   -2.2050    0.9647    0.2374 C   0  0  0  0  0  0  0  0  0  0  0  0
    0.7460    3.0460    0.5605 C   0  0  0  0  0  0  0  0  0  0  0  0
    1.0118    4.1261   -1.7105 C   0  0  0  0  0  0  0  0  0  0  0  0
   -1.4899   -0.2255    0.1013 C   0  0  0  0  0  0  0  0  0  0  0  0
   -3.5998    0.9404    0.2335 C   0  0  0  0  0  0  0  0  0  0  0  0
   -2.1686   -1.4341   -0.0374 C   0  0  0  0  0  0  0  0  0  0  0  0
   -4.2783   -0.2709    0.0942 C   0  0  0  0  0  0  0  0  0  0  0  0
   -3.5654   -1.4627   -0.0415 C   0  0  0  0  0  0  0  0  0  0  0  0
   -1.3906   -2.6747   -0.1768 C   0  0  0  0  0  0  0  0  0  0  0  0
    0.6165   -1.3020   -0.0306 C   0  0  0  0  0  0  0  0  0  0  0  0
    0.0852   -2.5311   -0.1631 C   0  0  0  0  0  0  0  0  0  0  0  0
    2.0711   -1.0676    0.0003 C   0  0  0  0  0  0  0  0  0  0  0  0
    2.7658   -0.8290   -1.1856 C   0  0  0  0  0  0  0  0  0  0  0  0
    2.7542   -1.0837    1.2169 C   0  0  0  0  0  0  0  0  0  0  0  0
    4.1426   -0.6070   -1.1553 C   0  0  0  0  0  0  0  0  0  0  0  0
    4.1309   -0.8616    1.2472 C   0  0  0  0  0  0  0  0  0  0  0  0
    4.8252   -0.6231    0.0611 C   0  0  0  0  0  0  0  0  0  0  0  0
   -2.0670    2.9697    1.0046 H   0  0  0  0  0  0  0  0  0  0  0  0
   -0.7857    2.1852   -1.6752 H   0  0  0  0  0  0  0  0  0  0  0  0
   -1.9322    3.4979   -1.3741 H   0  0  0  0  0  0  0  0  0  0  0  0
   -0.2912    4.7716   -0.1184 H   0  0  0  0  0  0  0  0  0  0  0  0
   -0.0377    1.5616    1.8626 H   0  0  0  0  0  0  0  0  0  0  0  0
    1.4576    3.2066   -2.1057 H   0  0  0  0  0  0  0  0  0  0  0  0
    0.4783    4.6272   -2.5243 H   0  0  0  0  0  0  0  0  0  0  0  0
    1.8341    4.7749   -1.3907 H   0  0  0  0  0  0  0  0  0  0  0  0
   -5.3657   -0.2929    0.0909 H   0  0  0  0  0  0  0  0  0  0  0  0
   -5.2663    1.8797    0.3394 H   0  0  0  0  0  0  0  0  0  0  0  0
   -3.6804   -3.3756   -0.2647 H   0  0  0  0  0  0  0  0  0  0  0  0
    2.2471   -0.8120   -2.1410 H   0  0  0  0  0  0  0  0  0  0  0  0
    2.2264   -1.2669    2.1497 H   0  0  0  0  0  0  0  0  0  0  0  0
    1.7913   -3.4435   -0.2456 H   0  0  0  0  0  0  0  0  0  0  0  0
    4.6717   -0.4219   -2.0863 H   0  0  0  0  0  0  0  0  0  0  0  0
    4.6569   -0.8750    2.1978 H   0  0  0  0  0  0  0  0  0  0  0  0
    6.4834   -0.2588   -0.8183 H   0  0  0  0  0  0  0  0  0  0  0  0
  1 15  1  0  0  0  0
  1 21  1  0  0  0  0
  2 13  2  0  0  0  0
  3 16  1  0  0  0  0
  3 38  1  0  0  0  0
  4 19  1  0  0  0  0
  4 39  1  0  0  0  0
  5 20  2  0  0  0  0
  6 22  1  0  0  0  0
  6 42  1  0  0  0  0
  7 28  1  0  0  0  0
  7 45  1  0  0  0  0
  8  9  1  0  0  0  0
  8 13  1  0  0  0  0
  8 33  1  0  0  0  0
  9 10  1  0  0  0  0
  9 12  1  0  0  0  0
  9 29  1  0  0  0  0
 10 11  1  0  0  0  0
 10 30  1  0  0  0  0
 10 31  1  0  0  0  0
 11 13  1  0  0  0  0
 11 14  1  0  0  0  0
 11 32  1  0  0  0  0
 12 15  1  0  0  0  0
 12 16  2  0  0  0  0
 14 34  1  0  0  0  0
 14 35  1  0  0  0  0
 14 36  1  0  0  0  0
 15 17  2  0  0  0  0
 16 18  1  0  0  0  0
 17 19  1  0  0  0  0
 17 20  1  0  0  0  0
 18 19  2  0  0  0  0
 18 37  1  0  0  0  0
 20 22  1  0  0  0  0
 21 22  2  0  0  0  0
 21 23  1  0  0  0  0
 23 24  2  0  0  0  0
 23 25  1  0  0  0  0
 24 26  1  0  0  0  0
 24 40  1  0  0  0  0
 25 27  2  0  0  0  0
 25 41  1  0  0  0  0
 26 28  2  0  0  0  0
 26 43  1  0  0  0  0
 27 28  1  0  0  0  0
 27 44  1  0  0  0  0
M  END
> <PUBCHEM_COMPOUND_CID>
5281826

> <PUBCHEM_CONFORMER_RMSD>
0.6

> <PUBCHEM_CONFORMER_DIVERSEORDER>
2
7
1
4
12
10
13
8
5
14
9
15
11
3
6

> <PUBCHEM_MMFF94_PARTIAL_CHARGES>
36
1 -0.16
11 0.06
12 -0.14
13 0.57
15 0.08
16 0.08
17 0.09
18 -0.15
19 0.08
2 -0.57
20 0.47
21 0.05
22 0.09
23 0.03
24 -0.15
25 -0.15
26 -0.15
27 -0.15
28 0.08
3 -0.53
33 0.37
37 0.15
38 0.45
39 0.45
4 -0.53
40 0.15
41 0.15
42 0.45
43 0.15
44 0.15
45 0.45
5 -0.57
6 -0.53
7 -0.53
8 -0.73
9 0.44

> <PUBCHEM_EFFECTIVE_ROTOR_COUNT>
2.8

> <PUBCHEM_PHARMACOPHORE_FEATURES>
12
1 1 acceptor
1 2 acceptor
1 3 donor
1 4 donor
1 5 acceptor
1 6 donor
1 7 donor
1 8 donor
5 8 9 10 11 13 rings
6 1 15 17 20 21 22 rings
6 12 15 16 17 18 19 rings
6 23 24 25 26 27 28 rings

> <PUBCHEM_HEAVY_ATOM_COUNT>
28

> <PUBCHEM_ATOM_DEF_STEREO_COUNT>
0

> <PUBCHEM_ATOM_UDEF_STEREO_COUNT>
2

> <PUBCHEM_BOND_DEF_STEREO_COUNT>
0

> <PUBCHEM_BOND_UDEF_STEREO_COUNT>
0

> <PUBCHEM_ISOTOPIC_ATOM_COUNT>
0

> <PUBCHEM_COMPONENT_COUNT>
1

> <PUBCHEM_CACTVS_TAUTO_COUNT>
378

> <PUBCHEM_CONFORMER_ID>
0050982200000002

> <PUBCHEM_MMFF94_ENERGY>
85.3162

> <PUBCHEM_FEATURE_SELFOVERLAP>
60.92

> <PUBCHEM_SHAPE_FINGERPRINT>
10006869 2 17902514019396140361
10165383 225 17038070366740874956
10411042 1 17976823086546682087
10498660 4 18337669844612121302
10670039 82 18268137825311297254
10675989 125 17118332534126225925
10967382 1 18120935264044472987
1100329 8 18408880716323773249
11513181 2 17751361677666405934
11578080 2 17485962707256507004
11595378 159 18200611297063402650
12156800 1 15940296817412933640
12236239 1 17989207045282185610
12422481 6 17974317364387540448
12553582 1 18411417353931085003
12788726 201 18272092733907553490
13140716 1 18336824196054004321
133893 2 18052798274778253025
13402501 40 18260271858695893592
13941206 138 17049350844951545300
14020679 6 18059274544901033737
14117953 113 18196649820291688717
14790565 3 18192418891164274121
14955137 171 18194088959421787203
15927050 60 17473253280721604967
18336668 15 18202561748707195764
19591789 44 18337953394200441241
20510252 161 18263925621380677186
20600515 1 18335125510339285780
20642791 178 18341877598592950261
20715895 44 17195740308278469413
20905425 154 17830162520102828948
21033648 29 17458357333253565386
22113638 7 18412542115307896500
22311459 1 18410573947331241131
23366157 5 17840313215845546798
23402539 116 18334581256573624014
23557571 272 18187359944117902142
23559900 14 18192440666885087979
3178227 256 18340188770924201081
34934 24 18266180715761494931
350125 39 18410567358934921785
4409770 3 17983878935833660300
469060 322 18339625824279427003
9925002 15 17172107022808286263

> <PUBCHEM_SHAPE_MULTIPOLES>
530.16
8.34
5.22
1.06
6.05
3.18
-0.09
-3.28
0.6
-1.8
-1.2
0.82
0.58
-0.39

> <PUBCHEM_SHAPE_SELFOVERLAP>
1185.016

> <PUBCHEM_SHAPE_VOLUME>
281.1

> <PUBCHEM_COORDINATE_TYPE>
2
5
10

$$$$

