47205706
  -OEChem-06241222592D

 29 30  0     0  0  0  0  0  0999 V2000
    2.8660   -1.2702    0.0000 S   0  0  0  0  0  0  0  0  0  0  0  0
    2.3660   -2.1362    0.0000 O   0  0  0  0  0  0  0  0  0  0  0  0
    3.3660   -0.4042    0.0000 O   0  0  0  0  0  0  0  0  0  0  0  0
    3.7320    0.2298    0.0000 O   0  0  0  0  0  0  0  0  0  0  0  0
    5.4641    0.2298    0.0000 N   0  0  0  0  0  0  0  0  0  0  0  0
    4.9641    2.7686    0.0000 N   0  0  0  0  0  0  0  0  0  0  0  0
    5.9641    2.7686    0.0000 N   0  0  0  0  0  0  0  0  0  0  0  0
    3.7320   -1.7702    0.0000 C   0  0  0  0  0  0  0  0  0  0  0  0
    4.5981   -1.2702    0.0000 C   0  0  0  0  0  0  0  0  0  0  0  0
    3.7320   -2.7702    0.0000 C   0  0  0  0  0  0  0  0  0  0  0  0
    5.4641   -1.7702    0.0000 C   0  0  0  0  0  0  0  0  0  0  0  0
    4.5981   -0.2702    0.0000 C   0  0  0  0  0  0  0  0  0  0  0  0
    2.0000   -0.7702    0.0000 C   0  0  0  0  0  0  0  0  0  0  0  0
    4.5981   -3.2702    0.0000 C   0  0  0  0  0  0  0  0  0  0  0  0
    5.4641   -2.7702    0.0000 C   0  0  0  0  0  0  0  0  0  0  0  0
    5.4641    1.2298    0.0000 C   0  0  0  0  0  0  0  0  0  0  0  0
    4.6551    1.8176    0.0000 C   0  0  0  0  0  0  0  0  0  0  0  0
    6.2731    1.8176    0.0000 C   0  0  0  0  0  0  0  0  0  0  0  0
    3.1951   -3.0802    0.0000 H   0  0  0  0  0  0  0  0  0  0  0  0
    6.0010   -1.4602    0.0000 H   0  0  0  0  0  0  0  0  0  0  0  0
    2.3100   -0.2333    0.0000 H   0  0  0  0  0  0  0  0  0  0  0  0
    1.4631   -0.4602    0.0000 H   0  0  0  0  0  0  0  0  0  0  0  0
    1.6900   -1.3072    0.0000 H   0  0  0  0  0  0  0  0  0  0  0  0
    4.5981   -3.8902    0.0000 H   0  0  0  0  0  0  0  0  0  0  0  0
    6.0010   -3.0802    0.0000 H   0  0  0  0  0  0  0  0  0  0  0  0
    6.0010   -0.0802    0.0000 H   0  0  0  0  0  0  0  0  0  0  0  0
    4.0654    1.6260    0.0000 H   0  0  0  0  0  0  0  0  0  0  0  0
    6.8628    1.6260    0.0000 H   0  0  0  0  0  0  0  0  0  0  0  0
    4.5997    3.2702    0.0000 H   0  0  0  0  0  0  0  0  0  0  0  0
  1  2  2  0  0  0  0
  1  3  2  0  0  0  0
  1  8  1  0  0  0  0
  1 13  1  0  0  0  0
  4 12  2  0  0  0  0
  5 12  1  0  0  0  0
  5 16  1  0  0  0  0
  5 26  1  0  0  0  0
  6  7  1  0  0  0  0
  6 17  1  0  0  0  0
  6 29  1  0  0  0  0
  7 18  2  0  0  0  0
  8  9  1  0  0  0  0
  8 10  2  0  0  0  0
  9 11  2  0  0  0  0
  9 12  1  0  0  0  0
 10 14  1  0  0  0  0
 10 19  1  0  0  0  0
 11 15  1  0  0  0  0
 11 20  1  0  0  0  0
 13 21  1  0  0  0  0
 13 22  1  0  0  0  0
 13 23  1  0  0  0  0
 14 15  2  0  0  0  0
 14 24  1  0  0  0  0
 15 25  1  0  0  0  0
 16 17  2  0  0  0  0
 16 18  1  0  0  0  0
 17 27  1  0  0  0  0
 18 28  1  0  0  0  0
M  END
> <PUBCHEM_COMPOUND_CID>
47205706

> <PUBCHEM_COMPOUND_CANONICALIZED>
1

> <PUBCHEM_CACTVS_COMPLEXITY>
404

> <PUBCHEM_CACTVS_HBOND_ACCEPTOR>
4

> <PUBCHEM_CACTVS_HBOND_DONOR>
2

> <PUBCHEM_CACTVS_ROTATABLE_BOND>
3

> <PUBCHEM_CACTVS_SUBSKEYS>
AAADccBzMABAAAAAAAAAAAAAAAAAAWAAAAAwAAAAAAAAAAABwAAAHgQYAAAADAjB2gS+wZLjAAqqAjV3UHDSBAAlmhAYubkgdNgIYLKg1VGUpQhgnACIiYcYiACOAAAAAAAEAAAAAAAAAAgAAAAAAAAAAA==

> <PUBCHEM_IUPAC_OPENEYE_NAME>
2-methylsulfonyl-N-(1H-pyrazol-4-yl)benzamide

> <PUBCHEM_IUPAC_CAS_NAME>
2-methylsulfonyl-N-(1H-pyrazol-4-yl)benzamide

> <PUBCHEM_IUPAC_NAME>
2-methylsulfonyl-N-(1H-pyrazol-4-yl)benzamide

> <PUBCHEM_IUPAC_SYSTEMATIC_NAME>
2-methylsulfonyl-N-(1H-pyrazol-4-yl)benzamide

> <PUBCHEM_IUPAC_TRADITIONAL_NAME>
2-mesyl-N-(1H-pyrazol-4-yl)benzamide

> <PUBCHEM_IUPAC_INCHI>
InChI=1S/C11H11N3O3S/c1-18(16,17)10-5-3-2-4-9(10)11(15)14-8-6-12-13-7-8/h2-7H,1H3,(H,12,13)(H,14,15)

> <PUBCHEM_IUPAC_INCHIKEY>
HLSVSEIYERLIQN-UHFFFAOYSA-N

> <PUBCHEM_XLOGP3_AA>
0.3

> <PUBCHEM_EXACT_MASS>
265.052112

> <PUBCHEM_MOLECULAR_FORMULA>
C11H11N3O3S

> <PUBCHEM_MOLECULAR_WEIGHT>
265.28834

> <PUBCHEM_OPENEYE_CAN_SMILES>
CS(=O)(=O)C1=CC=CC=C1C(=O)NC2=CNN=C2

> <PUBCHEM_OPENEYE_ISO_SMILES>
CS(=O)(=O)C1=CC=CC=C1C(=O)NC2=CNN=C2

> <PUBCHEM_CACTVS_TPSA>
100

> <PUBCHEM_MONOISOTOPIC_WEIGHT>
265.052112

> <PUBCHEM_TOTAL_CHARGE>
0

> <PUBCHEM_HEAVY_ATOM_COUNT>
18

> <PUBCHEM_ATOM_DEF_STEREO_COUNT>
0

> <PUBCHEM_ATOM_UDEF_STEREO_COUNT>
0

> <PUBCHEM_BOND_DEF_STEREO_COUNT>
0

> <PUBCHEM_BOND_UDEF_STEREO_COUNT>
0

> <PUBCHEM_ISOTOPIC_ATOM_COUNT>
0

> <PUBCHEM_COMPONENT_COUNT>
1

> <PUBCHEM_CACTVS_TAUTO_COUNT>
2

> <PUBCHEM_COORDINATE_TYPE>
1
5
255

> <PUBCHEM_BONDANNOTATIONS>
10  14  8
11  15  8
14  15  8
16  17  8
16  18  8
6  17  8
6  7  8
7  18  8
8  10  8
8  9  8
9  11  8

$$$$

