4033
  -OEChem-07051212523D

 19 18  0     0  0  0  0  0  0999 V2000
    3.9109    0.6408    0.1519 Cl  0  0  0  0  0  0  0  0  0  0  0  0
   -3.9089    0.6512    0.1363 Cl  0  0  0  0  0  0  0  0  0  0  0  0
    0.0006   -0.2360   -0.2536 N   0  0  0  0  0  0  0  0  0  0  0  0
    1.2021    0.4978    0.1422 C   0  0  0  0  0  0  0  0  0  0  0  0
   -1.2005    0.5033    0.1334 C   0  0  0  0  0  0  0  0  0  0  0  0
   -0.0047   -1.5697    0.3463 C   0  0  0  0  0  0  0  0  0  0  0  0
    2.4430   -0.2359   -0.3426 C   0  0  0  0  0  0  0  0  0  0  0  0
   -2.4426   -0.2516   -0.3139 C   0  0  0  0  0  0  0  0  0  0  0  0
    1.2406    0.6322    1.2315 H   0  0  0  0  0  0  0  0  0  0  0  0
    1.1866    1.4983   -0.3088 H   0  0  0  0  0  0  0  0  0  0  0  0
   -1.1928    1.4900   -0.3470 H   0  0  0  0  0  0  0  0  0  0  0  0
   -1.2294    0.6688    1.2188 H   0  0  0  0  0  0  0  0  0  0  0  0
   -0.8430   -2.1807    0.0006 H   0  0  0  0  0  0  0  0  0  0  0  0
   -0.0279   -1.5341    1.4418 H   0  0  0  0  0  0  0  0  0  0  0  0
    0.8512   -2.1765    0.0403 H   0  0  0  0  0  0  0  0  0  0  0  0
    2.5704   -1.2265    0.0940 H   0  0  0  0  0  0  0  0  0  0  0  0
    2.4592   -0.3248   -1.4334 H   0  0  0  0  0  0  0  0  0  0  0  0
   -2.4608   -0.3963   -1.3987 H   0  0  0  0  0  0  0  0  0  0  0  0
   -2.5684   -1.2178    0.1760 H   0  0  0  0  0  0  0  0  0  0  0  0
  1  7  1  0  0  0  0
  2  8  1  0  0  0  0
  3  4  1  0  0  0  0
  3  5  1  0  0  0  0
  3  6  1  0  0  0  0
  4  7  1  0  0  0  0
  4  9  1  0  0  0  0
  4 10  1  0  0  0  0
  5  8  1  0  0  0  0
  5 11  1  0  0  0  0
  5 12  1  0  0  0  0
  6 13  1  0  0  0  0
  6 14  1  0  0  0  0
  6 15  1  0  0  0  0
  7 16  1  0  0  0  0
  7 17  1  0  0  0  0
  8 18  1  0  0  0  0
  8 19  1  0  0  0  0
M  END
> <PUBCHEM_COMPOUND_CID>
4033

> <PUBCHEM_CONFORMER_RMSD>
0.6

> <PUBCHEM_CONFORMER_DIVERSEORDER>
1
14
16
4
12
10
8
13
15
9
11
5
3
6
7
2

> <PUBCHEM_MMFF94_PARTIAL_CHARGES>
8
1 -0.29
2 -0.29
3 -0.81
4 0.27
5 0.27
6 0.27
7 0.29
8 0.29

> <PUBCHEM_EFFECTIVE_ROTOR_COUNT>
4

> <PUBCHEM_PHARMACOPHORE_FEATURES>
1
1 3 cation

> <PUBCHEM_HEAVY_ATOM_COUNT>
8

> <PUBCHEM_ATOM_DEF_STEREO_COUNT>
0

> <PUBCHEM_ATOM_UDEF_STEREO_COUNT>
0

> <PUBCHEM_BOND_DEF_STEREO_COUNT>
0

> <PUBCHEM_BOND_UDEF_STEREO_COUNT>
0

> <PUBCHEM_ISOTOPIC_ATOM_COUNT>
0

> <PUBCHEM_COMPONENT_COUNT>
1

> <PUBCHEM_CACTVS_TAUTO_COUNT>
1

> <PUBCHEM_CONFORMER_ID>
00000FC100000001

> <PUBCHEM_MMFF94_ENERGY>
11.4375

> <PUBCHEM_FEATURE_SELFOVERLAP>
5.074

> <PUBCHEM_SHAPE_FINGERPRINT>
10219947 1 17775282785357011701
11062470 55 17168143433845682260
12932764 1 16415490311062014621
14325111 11 18411419509598537638
14390081 3 18408324410447518241
20711985 327 9799689328745331827
21293036 1 18333732407431252220
23235685 24 18341899588439675713
366044 4 18411700976212413930
5460574 1 10303816479706514156

> <PUBCHEM_SHAPE_MULTIPOLES>
163.39
6.68
1.12
0.68
0.01
0.39
-0.01
-2.4
-0.1
-0.01
-0.12
0.01
0.02
0.01

> <PUBCHEM_SHAPE_SELFOVERLAP>
273.66

> <PUBCHEM_SHAPE_VOLUME>
112.5

> <PUBCHEM_COORDINATE_TYPE>
2
5
10

$$$$

