9913968
  -OEChem-07051213083D

 58 61  0     1  0  0  0  0  0999 V2000
    3.5396   -0.1427    0.0327 O   0  0  0  0  0  0  0  0  0  0  0  0
    6.5525   -0.8873   -1.9120 O   0  0  0  0  0  0  0  0  0  0  0  0
    2.7661    1.7999    1.0680 O   0  0  0  0  0  0  0  0  0  0  0  0
    7.3278    1.4023   -0.3271 O   0  0  0  0  0  0  0  0  0  0  0  0
    5.0268    3.1941    0.0915 O   0  0  0  0  0  0  0  0  0  0  0  0
    2.7095   -2.4838   -1.1447 O   0  0  0  0  0  0  0  0  0  0  0  0
   -1.4107    1.8385   -1.1933 O   0  0  0  0  0  0  0  0  0  0  0  0
    2.3880   -2.3790    1.1358 O   0  0  0  0  0  0  0  0  0  0  0  0
   -3.2065   -0.2394    1.8243 O   0  0  0  0  0  0  0  0  0  0  0  0
   -1.6958   -3.1854    0.3281 O   0  0  0  0  0  0  0  0  0  0  0  0
   -0.1822   -2.7945    1.9794 O   0  0  0  0  0  0  0  0  0  0  0  0
   -8.9330   -0.1543   -0.9043 O   0  0  0  0  0  0  0  0  0  0  0  0
    5.7975   -0.3710   -0.8191 C   0  0  1  0  0  0  0  0  0  0  0  0
    5.9865    1.1443   -0.7452 C   0  0  1  0  0  0  0  0  0  0  0  0
    4.3210   -0.7253   -1.0118 C   0  0  1  0  0  0  0  0  0  0  0  0
    5.0128    1.7756    0.2499 C   0  0  2  0  0  0  0  0  0  0  0  0
    3.5844    1.2822    0.0194 C   0  0  1  0  0  0  0  0  0  0  0  0
    4.0921   -2.2329   -0.9713 C   0  0  0  0  0  0  0  0  0  0  0  0
    1.4463    1.4593    1.0367 C   0  0  0  0  0  0  0  0  0  0  0  0
    0.6614    1.8133   -0.0607 C   0  0  0  0  0  0  0  0  0  0  0  0
    0.8825    0.7581    2.1033 C   0  0  0  0  0  0  0  0  0  0  0  0
    1.9553   -2.5334    0.0026 C   0  0  0  0  0  0  0  0  0  0  0  0
   -0.6892    1.4645   -0.0889 C   0  0  0  0  0  0  0  0  0  0  0  0
   -1.2524    0.7635    0.9769 C   0  0  0  0  0  0  0  0  0  0  0  0
   -0.4680    0.4075    2.0771 C   0  0  0  0  0  0  0  0  0  0  0  0
    0.5175   -2.8169   -0.3583 C   0  0  0  0  0  0  0  0  0  0  0  0
   -2.6808    0.4014    0.9233 C   0  0  0  0  0  0  0  0  0  0  0  0
   -3.4313    0.8442   -0.2840 C   0  0  0  0  0  0  0  0  0  0  0  0
   -2.7454    1.5140   -1.2224 C   0  0  0  0  0  0  0  0  0  0  0  0
   -4.8708    0.5824   -0.4459 C   0  0  0  0  0  0  0  0  0  0  0  0
   -0.4463   -2.9243    0.7941 C   0  0  0  0  0  0  0  0  0  0  0  0
   -5.3043   -0.5829   -1.0818 C   0  0  0  0  0  0  0  0  0  0  0  0
   -5.8079    1.4992    0.0354 C   0  0  0  0  0  0  0  0  0  0  0  0
   -6.6684   -0.8302   -1.2356 C   0  0  0  0  0  0  0  0  0  0  0  0
   -7.1720    1.2518   -0.1183 C   0  0  0  0  0  0  0  0  0  0  0  0
   -7.6023    0.0871   -0.7539 C   0  0  0  0  0  0  0  0  0  0  0  0
    6.1893   -0.8224    0.1018 H   0  0  0  0  0  0  0  0  0  0  0  0
    5.8759    1.6030   -1.7356 H   0  0  0  0  0  0  0  0  0  0  0  0
    3.9506   -0.3514   -1.9761 H   0  0  0  0  0  0  0  0  0  0  0  0
    5.3370    1.5637    1.2763 H   0  0  0  0  0  0  0  0  0  0  0  0
    3.2206    1.6603   -0.9451 H   0  0  0  0  0  0  0  0  0  0  0  0
    4.4621   -2.6761   -0.0387 H   0  0  0  0  0  0  0  0  0  0  0  0
    4.6147   -2.7304   -1.7943 H   0  0  0  0  0  0  0  0  0  0  0  0
    6.6182   -1.8504   -1.7997 H   0  0  0  0  0  0  0  0  0  0  0  0
    7.9203    0.9771   -0.9706 H   0  0  0  0  0  0  0  0  0  0  0  0
    4.3884    3.5641    0.7252 H   0  0  0  0  0  0  0  0  0  0  0  0
    1.0851    2.3746   -0.8891 H   0  0  0  0  0  0  0  0  0  0  0  0
    1.4925    0.4803    2.9587 H   0  0  0  0  0  0  0  0  0  0  0  0
   -0.8882   -0.1358    2.9187 H   0  0  0  0  0  0  0  0  0  0  0  0
    0.1727   -2.0016   -1.0040 H   0  0  0  0  0  0  0  0  0  0  0  0
    0.4935   -3.7685   -0.9005 H   0  0  0  0  0  0  0  0  0  0  0  0
   -3.1868    1.8875   -2.1382 H   0  0  0  0  0  0  0  0  0  0  0  0
   -4.5886   -1.3084   -1.4615 H   0  0  0  0  0  0  0  0  0  0  0  0
   -5.4884    2.4114    0.5338 H   0  0  0  0  0  0  0  0  0  0  0  0
   -6.9907   -1.7415   -1.7322 H   0  0  0  0  0  0  0  0  0  0  0  0
   -7.8947    1.9700    0.2592 H   0  0  0  0  0  0  0  0  0  0  0  0
   -2.3504   -3.2523    1.0556 H   0  0  0  0  0  0  0  0  0  0  0  0
   -9.0493   -1.0032   -1.3646 H   0  0  0  0  0  0  0  0  0  0  0  0
  1 15  1  0  0  0  0
  1 17  1  0  0  0  0
  2 13  1  0  0  0  0
  2 44  1  0  0  0  0
  3 17  1  0  0  0  0
  3 19  1  0  0  0  0
  4 14  1  0  0  0  0
  4 45  1  0  0  0  0
  5 16  1  0  0  0  0
  5 46  1  0  0  0  0
  6 18  1  0  0  0  0
  6 22  1  0  0  0  0
  7 23  1  0  0  0  0
  7 29  1  0  0  0  0
  8 22  2  0  0  0  0
  9 27  2  0  0  0  0
 10 31  1  0  0  0  0
 10 57  1  0  0  0  0
 11 31  2  0  0  0  0
 12 36  1  0  0  0  0
 12 58  1  0  0  0  0
 13 14  1  0  0  0  0
 13 15  1  0  0  0  0
 13 37  1  0  0  0  0
 14 16  1  0  0  0  0
 14 38  1  0  0  0  0
 15 18  1  0  0  0  0
 15 39  1  0  0  0  0
 16 17  1  0  0  0  0
 16 40  1  0  0  0  0
 17 41  1  0  0  0  0
 18 42  1  0  0  0  0
 18 43  1  0  0  0  0
 19 20  2  0  0  0  0
 19 21  1  0  0  0  0
 20 23  1  0  0  0  0
 20 47  1  0  0  0  0
 21 25  2  0  0  0  0
 21 48  1  0  0  0  0
 22 26  1  0  0  0  0
 23 24  2  0  0  0  0
 24 25  1  0  0  0  0
 24 27  1  0  0  0  0
 25 49  1  0  0  0  0
 26 31  1  0  0  0  0
 26 50  1  0  0  0  0
 26 51  1  0  0  0  0
 27 28  1  0  0  0  0
 28 29  2  0  0  0  0
 28 30  1  0  0  0  0
 29 52  1  0  0  0  0
 30 32  2  0  0  0  0
 30 33  1  0  0  0  0
 32 34  1  0  0  0  0
 32 53  1  0  0  0  0
 33 35  2  0  0  0  0
 33 54  1  0  0  0  0
 34 36  2  0  0  0  0
 34 55  1  0  0  0  0
 35 36  1  0  0  0  0
 35 56  1  0  0  0  0
M  END
> <PUBCHEM_COMPOUND_CID>
9913968

> <PUBCHEM_CONFORMER_RMSD>
1

> <PUBCHEM_CONFORMER_DIVERSEORDER>
1
104
78
48
27
100
86
80
95
47
71
101
22
82
88
33
41
87
31
62
89
81
63
68
66
26
52
79
55
107
97
23
7
45
72
50
110
53
19
111
25
18
102
75
17
32
29
51
57
73
56
21
39
70
118
116
69
36
38
14
76
105
114
94
113
92
16
103
61
83
60
91
85
112
43
11
34
93
2
77
74
4
106
24
35
84
58
115
42
9
40
98
108
65
109
67
12
6
54
59
8
37
117
96
44
28
99
64
5
13
30
3
10
46
90
49
20
15

> <PUBCHEM_MMFF94_PARTIAL_CHARGES>
49
1 -0.56
10 -0.65
11 -0.57
12 -0.53
13 0.28
14 0.28
15 0.28
16 0.28
17 0.56
18 0.28
19 0.08
2 -0.68
20 -0.15
21 -0.15
22 0.66
23 0.08
24 0.09
25 -0.15
26 0.12
27 0.47
28 -0.01
29 -0.07
3 -0.36
30 0.03
31 0.66
32 -0.15
33 -0.15
34 -0.15
35 -0.15
36 0.08
4 -0.68
44 0.4
45 0.4
46 0.4
47 0.15
48 0.15
49 0.15
5 -0.68
52 0.15
53 0.15
54 0.15
55 0.15
56 0.15
57 0.5
58 0.45
6 -0.43
7 -0.16
8 -0.57
9 -0.57

> <PUBCHEM_EFFECTIVE_ROTOR_COUNT>
9.2

> <PUBCHEM_PHARMACOPHORE_FEATURES>
20
1 1 acceptor
1 10 acceptor
1 11 acceptor
1 12 donor
1 2 acceptor
1 2 donor
1 26 anion
1 3 acceptor
1 4 acceptor
1 4 donor
1 5 acceptor
1 5 donor
1 7 acceptor
1 8 acceptor
1 9 acceptor
3 10 11 31 anion
6 1 13 14 15 16 17 rings
6 19 20 21 23 24 25 rings
6 30 32 33 34 35 36 rings
6 7 23 24 27 28 29 rings

> <PUBCHEM_HEAVY_ATOM_COUNT>
36

> <PUBCHEM_ATOM_DEF_STEREO_COUNT>
5

> <PUBCHEM_ATOM_UDEF_STEREO_COUNT>
0

> <PUBCHEM_BOND_DEF_STEREO_COUNT>
0

> <PUBCHEM_BOND_UDEF_STEREO_COUNT>
0

> <PUBCHEM_ISOTOPIC_ATOM_COUNT>
0

> <PUBCHEM_COMPONENT_COUNT>
1

> <PUBCHEM_CACTVS_TAUTO_COUNT>
2

> <PUBCHEM_CONFORMER_ID>
0097467000000001

> <PUBCHEM_MMFF94_ENERGY>
104.4312

> <PUBCHEM_FEATURE_SELFOVERLAP>
101.91

> <PUBCHEM_SHAPE_FINGERPRINT>
11135609 187 18334860489334988553
117089 54 16372109209170012782
12422481 6 17907259245072695250
12838863 1 18263084482924290886
13402501 40 18411413995113945062
1361 2 18342738507238065420
13617811 41 18131631184242479229
14117953 113 18342167857347318692
14681490 219 18334858359268618881
14931854 50 18334848467947977726
15183329 4 18334015016996961729
15721738 202 16732701679065529686
15840311 113 13039187008903389390
17492 54 18340762727766303202
18608769 82 18340484449163229923
21344244 181 18040147427286380534
21344244 246 18334856160087094750
21360443 126 18272086050695503118
21792934 111 8214148465459234427
23516275 137 17677872656965984279
23559900 14 18188217490162925001
244849 19 17243591793037123755
27425 322 17274256128906811824
3633792 109 18407758153612385577
4073 2 18338798910484698609
4098825 35 18335138739271404885
4112364 45 14045731613305895735
437795 51 18334295357664229151
484989 97 18336538331241837523
6669772 16 17775573056511550659

> <PUBCHEM_SHAPE_MULTIPOLES>
670.43
18.9
3.26
1.59
17.84
2.27
0.57
-4.77
-10.08
-3.23
0.37
-0.11
0.29
0.64

> <PUBCHEM_SHAPE_SELFOVERLAP>
1458.346

> <PUBCHEM_SHAPE_VOLUME>
360.1

> <PUBCHEM_COORDINATE_TYPE>
2
5
10

$$$$

