10031
  -OEChem-06261204163D

 29 28  0     0  0  0  0  0  0999 V2000
    5.3680   -1.2419    0.6788 Cl  0  0  0  0  0  0  0  0  0  0  0  0
   -5.1568   -0.8552   -0.8915 F   0  0  0  0  0  0  0  0  0  0  0  0
   -0.0226   -0.1681    0.0564 C   0  0  0  0  0  0  0  0  0  0  0  0
    1.2307    0.7091    0.0113 C   0  0  0  0  0  0  0  0  0  0  0  0
   -1.2875    0.6802    0.2174 C   0  0  0  0  0  0  0  0  0  0  0  0
    2.5198   -0.0856   -0.2215 C   0  0  0  0  0  0  0  0  0  0  0  0
   -2.5430   -0.1947    0.2242 C   0  0  0  0  0  0  0  0  0  0  0  0
    3.7755    0.7923   -0.2461 C   0  0  0  0  0  0  0  0  0  0  0  0
   -3.8384    0.6034    0.3944 C   0  0  0  0  0  0  0  0  0  0  0  0
    5.0497    0.0079   -0.5462 C   0  0  0  0  0  0  0  0  0  0  0  0
   -5.0954   -0.2475    0.3226 C   0  0  0  0  0  0  0  0  0  0  0  0
   -0.0897   -0.7549   -0.8677 H   0  0  0  0  0  0  0  0  0  0  0  0
    0.0564   -0.8795    0.8872 H   0  0  0  0  0  0  0  0  0  0  0  0
    1.3155    1.2655    0.9530 H   0  0  0  0  0  0  0  0  0  0  0  0
    1.1241    1.4532   -0.7878 H   0  0  0  0  0  0  0  0  0  0  0  0
   -1.2323    1.2510    1.1522 H   0  0  0  0  0  0  0  0  0  0  0  0
   -1.3534    1.4058   -0.6022 H   0  0  0  0  0  0  0  0  0  0  0  0
    2.4392   -0.6268   -1.1724 H   0  0  0  0  0  0  0  0  0  0  0  0
    2.6017   -0.8410    0.5681 H   0  0  0  0  0  0  0  0  0  0  0  0
   -2.5900   -0.7604   -0.7146 H   0  0  0  0  0  0  0  0  0  0  0  0
   -2.4695   -0.9317    1.0335 H   0  0  0  0  0  0  0  0  0  0  0  0
    3.8786    1.3095    0.7157 H   0  0  0  0  0  0  0  0  0  0  0  0
    3.6569    1.5691   -1.0112 H   0  0  0  0  0  0  0  0  0  0  0  0
   -3.8171    1.1352    1.3526 H   0  0  0  0  0  0  0  0  0  0  0  0
   -3.8875    1.3602   -0.3977 H   0  0  0  0  0  0  0  0  0  0  0  0
    4.9822   -0.4890   -1.5188 H   0  0  0  0  0  0  0  0  0  0  0  0
    5.9129    0.6798   -0.5640 H   0  0  0  0  0  0  0  0  0  0  0  0
   -5.0974   -1.0248    1.0921 H   0  0  0  0  0  0  0  0  0  0  0  0
   -5.9919    0.3682    0.4378 H   0  0  0  0  0  0  0  0  0  0  0  0
  1 10  1  0  0  0  0
  2 11  1  0  0  0  0
  3  4  1  0  0  0  0
  3  5  1  0  0  0  0
  3 12  1  0  0  0  0
  3 13  1  0  0  0  0
  4  6  1  0  0  0  0
  4 14  1  0  0  0  0
  4 15  1  0  0  0  0
  5  7  1  0  0  0  0
  5 16  1  0  0  0  0
  5 17  1  0  0  0  0
  6  8  1  0  0  0  0
  6 18  1  0  0  0  0
  6 19  1  0  0  0  0
  7  9  1  0  0  0  0
  7 20  1  0  0  0  0
  7 21  1  0  0  0  0
  8 10  1  0  0  0  0
  8 22  1  0  0  0  0
  8 23  1  0  0  0  0
  9 11  1  0  0  0  0
  9 24  1  0  0  0  0
  9 25  1  0  0  0  0
 10 26  1  0  0  0  0
 10 27  1  0  0  0  0
 11 28  1  0  0  0  0
 11 29  1  0  0  0  0
M  END
> <PUBCHEM_COMPOUND_CID>
10031

> <PUBCHEM_CONFORMER_RMSD>
0.8

> <PUBCHEM_CONFORMER_DIVERSEORDER>
1
69
57
2
45
179
114
180
14
138
177
124
84
48
50
21
164
71
77
198
190
172
30
117
17
67
133
182
52
7
56
80
143
3
6
121
4
102
79
195
92
87
110
82
175
160
98
11
127
192
27
140
139
191
25
59
78
76
12
162
193
128
5
81
183
100
9
185
64
62
159
70
44
66
15
108
178
89
173
28
129
130
184
29
83
105
171
26
13
111
166
35
53
31
113
197
46
106
189
161
194
153
169
36
47
40
137
103
142
170
144
75
186
157
39
74
90
60
58
149
37
196
18
91
154
125
72
119
20
24
135
122
99
43
19
23
38
150
32
68
136
42
165
151
187
16
188
86
41
96
146
168
85
34
126
93
33
51
88
131
132
65
176
181
115
152
8
112
155
158
116
156
101
134
10
107
22
174
167
73
54
104
55
123
145
141
109
63
97
61
95
148
94
49
147
120
163
118

> <PUBCHEM_MMFF94_PARTIAL_CHARGES>
4
1 -0.29
10 0.29
11 0.34
2 -0.34

> <PUBCHEM_EFFECTIVE_ROTOR_COUNT>
8

> <PUBCHEM_PHARMACOPHORE_FEATURES>
0

> <PUBCHEM_HEAVY_ATOM_COUNT>
11

> <PUBCHEM_ATOM_DEF_STEREO_COUNT>
0

> <PUBCHEM_ATOM_UDEF_STEREO_COUNT>
0

> <PUBCHEM_BOND_DEF_STEREO_COUNT>
0

> <PUBCHEM_BOND_UDEF_STEREO_COUNT>
0

> <PUBCHEM_ISOTOPIC_ATOM_COUNT>
0

> <PUBCHEM_COMPONENT_COUNT>
1

> <PUBCHEM_CACTVS_TAUTO_COUNT>
1

> <PUBCHEM_CONFORMER_ID>
0000272F00000001

> <PUBCHEM_MMFF94_ENERGY>
-0.7309

> <PUBCHEM_FEATURE_SELFOVERLAP>
0

> <PUBCHEM_SHAPE_FINGERPRINT>
100836 57 10519985975922377135
10912923 1 18260821601160720976
11287383 113 14490197093937262910
13690532 89 18413669119263790528
14123238 8 18334010588284071900
15048467 5 9439402428081604986
15242439 84 16128654145750885384
17834072 33 18335420153590312188
17834072 8 16702301265252993034
17834076 25 11024107642173776136
18342897 14 10447927265208822070
20645477 70 17988362667622892458
20719005 15 18334855017556676364
20767249 13 18410011039498284880
23402539 116 18334860532611397093
23402655 69 11455890252132018688
42788 4 18411979161027761520
449060 50 6338958849706384040
522135 26 17775282768899796364
542803 24 10087921873839359338

> <PUBCHEM_SHAPE_MULTIPOLES>
220.97
14.08
1.01
0.77
1.5
0.12
-0.04
3.79
-0.67
-0.78
0.07
0.14
0.08
-0.74

> <PUBCHEM_SHAPE_SELFOVERLAP>
383.771

> <PUBCHEM_SHAPE_VOLUME>
146.2

> <PUBCHEM_COORDINATE_TYPE>
2
5
10

$$$$

