107541
  -OEChem-07051212463D

 16 16  0     1  0  0  0  0  0999 V2000
    2.5627   -0.7531    0.7027 O   0  0  0  0  0  0  0  0  0  0  0  0
   -2.2156   -1.2465    0.1123 O   0  0  0  0  0  0  0  0  0  0  0  0
   -1.8417    0.8417    0.9463 O   0  0  0  0  0  0  0  0  0  0  0  0
    0.1621    1.3186   -0.7802 N   0  0  0  0  0  0  0  0  0  0  0  0
   -0.4900    0.0050   -0.8746 C   0  0  1  0  0  0  0  0  0  0  0  0
    0.5927   -1.0411   -0.6553 C   0  0  0  0  0  0  0  0  0  0  0  0
    1.2190    1.1925    0.2297 C   0  0  0  0  0  0  0  0  0  0  0  0
    1.5827   -0.2624    0.1581 C   0  0  0  0  0  0  0  0  0  0  0  0
   -1.5718   -0.0547    0.1609 C   0  0  0  0  0  0  0  0  0  0  0  0
   -0.9632   -0.1020   -1.8565 H   0  0  0  0  0  0  0  0  0  0  0  0
    1.0707   -1.3250   -1.5977 H   0  0  0  0  0  0  0  0  0  0  0  0
    0.2608   -1.9215   -0.1005 H   0  0  0  0  0  0  0  0  0  0  0  0
    0.8498    1.4260    1.2322 H   0  0  0  0  0  0  0  0  0  0  0  0
    2.0748    1.8193   -0.0291 H   0  0  0  0  0  0  0  0  0  0  0  0
   -0.4940    2.0606   -0.5447 H   0  0  0  0  0  0  0  0  0  0  0  0
   -2.9272   -1.3062    0.7849 H   0  0  0  0  0  0  0  0  0  0  0  0
  1  8  2  0  0  0  0
  2  9  1  0  0  0  0
  2 16  1  0  0  0  0
  3  9  2  0  0  0  0
  4  5  1  0  0  0  0
  4  7  1  0  0  0  0
  4 15  1  0  0  0  0
  5  6  1  0  0  0  0
  5  9  1  0  0  0  0
  5 10  1  0  0  0  0
  6  8  1  0  0  0  0
  6 11  1  0  0  0  0
  6 12  1  0  0  0  0
  7  8  1  0  0  0  0
  7 13  1  0  0  0  0
  7 14  1  0  0  0  0
M  END
> <PUBCHEM_COMPOUND_CID>
107541

> <PUBCHEM_CONFORMER_RMSD>
0.4

> <PUBCHEM_CONFORMER_DIVERSEORDER>
1
6
4
2
5
3

> <PUBCHEM_MMFF94_PARTIAL_CHARGES>
11
1 -0.57
15 0.36
16 0.5
2 -0.65
3 -0.57
4 -0.9
5 0.33
6 0.06
7 0.33
8 0.45
9 0.66

> <PUBCHEM_EFFECTIVE_ROTOR_COUNT>
1.8

> <PUBCHEM_PHARMACOPHORE_FEATURES>
7
1 1 acceptor
1 2 acceptor
1 3 acceptor
1 4 cation
1 4 donor
3 2 3 9 anion
5 4 5 6 7 8 rings

> <PUBCHEM_HEAVY_ATOM_COUNT>
9

> <PUBCHEM_ATOM_DEF_STEREO_COUNT>
1

> <PUBCHEM_ATOM_UDEF_STEREO_COUNT>
0

> <PUBCHEM_BOND_DEF_STEREO_COUNT>
0

> <PUBCHEM_BOND_UDEF_STEREO_COUNT>
0

> <PUBCHEM_ISOTOPIC_ATOM_COUNT>
0

> <PUBCHEM_COMPONENT_COUNT>
1

> <PUBCHEM_CACTVS_TAUTO_COUNT>
3

> <PUBCHEM_CONFORMER_ID>
0001A41500000001

> <PUBCHEM_MMFF94_ENERGY>
8.9437

> <PUBCHEM_FEATURE_SELFOVERLAP>
35.576

> <PUBCHEM_SHAPE_FINGERPRINT>
137420 1 16333641518692007397
18185500 45 17975700480577899431
20653085 51 6049873148166302906
20653091 64 18200017448308112384
21040471 1 17603859022523585701
24536 1 18114172051720230773
29004967 10 17275099522691215368
5084963 1 18340211799404691890

> <PUBCHEM_SHAPE_MULTIPOLES>
162.63
2.81
1.32
0.92
0.06
0.12
0.07
-0.61
-0.96
-0.02
0.04
0.02
0.07
-0.17

> <PUBCHEM_SHAPE_SELFOVERLAP>
330.957

> <PUBCHEM_SHAPE_VOLUME>
95.5

> <PUBCHEM_COORDINATE_TYPE>
2
5
10

$$$$

