656765
  -OEChem-07051213042D

 22 23  0     0  0  0  0  0  0999 V2000
    2.0000    0.7163    0.0000 Cl  0  0  0  0  0  0  0  0  0  0  0  0
    2.0000   -1.2837    0.0000 Cl  0  0  0  0  0  0  0  0  0  0  0  0
    7.1279   -0.2837    0.0000 O   0  0  0  0  0  0  0  0  0  0  0  0
    5.5443    0.5210    0.0000 N   0  0  0  0  0  0  0  0  0  0  0  0
    5.5443   -1.0884    0.0000 N   0  0  0  0  0  0  0  0  0  0  0  0
    4.5981    0.2163    0.0000 C   0  0  0  0  0  0  0  0  0  0  0  0
    4.5981   -0.7837    0.0000 C   0  0  0  0  0  0  0  0  0  0  0  0
    5.8550    1.4715    0.0000 C   0  0  0  0  0  0  0  0  0  0  0  0
    6.1279   -0.2837    0.0000 C   0  0  0  0  0  0  0  0  0  0  0  0
    3.7320    0.7163    0.0000 C   0  0  0  0  0  0  0  0  0  0  0  0
    3.7320   -1.2837    0.0000 C   0  0  0  0  0  0  0  0  0  0  0  0
    6.8335    1.6778    0.0000 C   0  0  0  0  0  0  0  0  0  0  0  0
    2.8660    0.2163    0.0000 C   0  0  0  0  0  0  0  0  0  0  0  0
    2.8660   -0.7837    0.0000 C   0  0  0  0  0  0  0  0  0  0  0  0
    5.8344    2.0912    0.0000 H   0  0  0  0  0  0  0  0  0  0  0  0
    5.2411    1.5589    0.0000 H   0  0  0  0  0  0  0  0  0  0  0  0
    5.7369   -1.6778    0.0000 H   0  0  0  0  0  0  0  0  0  0  0  0
    3.7320    1.3363    0.0000 H   0  0  0  0  0  0  0  0  0  0  0  0
    3.7320   -1.9037    0.0000 H   0  0  0  0  0  0  0  0  0  0  0  0
    6.9613    1.0711    0.0000 H   0  0  0  0  0  0  0  0  0  0  0  0
    7.4401    1.8056    0.0000 H   0  0  0  0  0  0  0  0  0  0  0  0
    6.7056    2.2844    0.0000 H   0  0  0  0  0  0  0  0  0  0  0  0
  1 13  1  0  0  0  0
  2 14  1  0  0  0  0
  3  9  2  0  0  0  0
  4  6  1  0  0  0  0
  4  8  1  0  0  0  0
  4  9  1  0  0  0  0
  5  7  1  0  0  0  0
  5  9  1  0  0  0  0
  5 17  1  0  0  0  0
  6  7  1  0  0  0  0
  6 10  2  0  0  0  0
  7 11  2  0  0  0  0
  8 12  1  0  0  0  0
  8 15  1  0  0  0  0
  8 16  1  0  0  0  0
 10 13  1  0  0  0  0
 10 18  1  0  0  0  0
 11 14  1  0  0  0  0
 11 19  1  0  0  0  0
 12 20  1  0  0  0  0
 12 21  1  0  0  0  0
 12 22  1  0  0  0  0
 13 14  2  0  0  0  0
M  END
> <PUBCHEM_COMPOUND_CID>
656765

> <PUBCHEM_COMPOUND_CANONICALIZED>
1

> <PUBCHEM_CACTVS_COMPLEXITY>
249

> <PUBCHEM_CACTVS_HBOND_ACCEPTOR>
1

> <PUBCHEM_CACTVS_HBOND_DONOR>
1

> <PUBCHEM_CACTVS_ROTATABLE_BOND>
1

> <PUBCHEM_CACTVS_SUBSKEYS>
AAADccBzIAAGAAAAAAAAAAAAAAAAAWAAAAAwAAAAAAAAAFgBAAAAHgIQAAAACArBECQzwIPAAACIACRCUACCAAAhBwAAikAIdoiIYCLBkpGUIAholgLIyCcQAAAAAABAAAIAACQAAIAABAAASAAAAAAAAA==

> <PUBCHEM_IUPAC_OPENEYE_NAME>
5,6-dichloro-3-ethyl-1H-benzimidazol-2-one

> <PUBCHEM_IUPAC_CAS_NAME>
5,6-dichloro-3-ethyl-1H-benzimidazol-2-one

> <PUBCHEM_IUPAC_NAME>
5,6-dichloro-3-ethyl-1H-benzimidazol-2-one

> <PUBCHEM_IUPAC_SYSTEMATIC_NAME>
5,6-bis(chloranyl)-3-ethyl-1H-benzimidazol-2-one

> <PUBCHEM_IUPAC_TRADITIONAL_NAME>
5,6-dichloro-3-ethyl-1H-benzimidazol-2-one

> <PUBCHEM_IUPAC_INCHI>
InChI=1S/C9H8Cl2N2O/c1-2-13-8-4-6(11)5(10)3-7(8)12-9(13)14/h3-4H,2H2,1H3,(H,12,14)

> <PUBCHEM_IUPAC_INCHIKEY>
LKHRMULASXZCLG-UHFFFAOYSA-N

> <PUBCHEM_XLOGP3_AA>
2.4

> <PUBCHEM_EXACT_MASS>
230.001368

> <PUBCHEM_MOLECULAR_FORMULA>
C9H8Cl2N2O

> <PUBCHEM_MOLECULAR_WEIGHT>
231.07862

> <PUBCHEM_OPENEYE_CAN_SMILES>
CCN1C2=CC(=C(C=C2NC1=O)Cl)Cl

> <PUBCHEM_OPENEYE_ISO_SMILES>
CCN1C2=CC(=C(C=C2NC1=O)Cl)Cl

> <PUBCHEM_CACTVS_TPSA>
32.3

> <PUBCHEM_MONOISOTOPIC_WEIGHT>
230.001368

> <PUBCHEM_TOTAL_CHARGE>
0

> <PUBCHEM_HEAVY_ATOM_COUNT>
14

> <PUBCHEM_ATOM_DEF_STEREO_COUNT>
0

> <PUBCHEM_ATOM_UDEF_STEREO_COUNT>
0

> <PUBCHEM_BOND_DEF_STEREO_COUNT>
0

> <PUBCHEM_BOND_UDEF_STEREO_COUNT>
0

> <PUBCHEM_ISOTOPIC_ATOM_COUNT>
0

> <PUBCHEM_COMPONENT_COUNT>
1

> <PUBCHEM_CACTVS_TAUTO_COUNT>
2

> <PUBCHEM_COORDINATE_TYPE>
1
5
255

> <PUBCHEM_BONDANNOTATIONS>
10  13  8
11  14  8
13  14  8
4  6  8
4  9  8
5  7  8
5  9  8
6  10  8
6  7  8
7  11  8

$$$$

