15881
  -OEChem-07051212483D

 20 20  0     0  0  0  0  0  0999 V2000
    1.0603    0.4589    0.5597 O   0  0  0  0  0  0  0  0  0  0  0  0
   -4.3077   -0.3318   -0.4099 O   0  0  0  0  0  0  0  0  0  0  0  0
    4.1549   -1.0323   -0.4746 O   0  0  0  0  0  0  0  0  0  0  0  0
    3.5924    1.1534   -0.1680 O   0  0  0  0  0  0  0  0  0  0  0  0
   -0.2652    0.2634    0.3205 C   0  0  0  0  0  0  0  0  0  0  0  0
   -1.0910    1.3521    0.0400 C   0  0  0  0  0  0  0  0  0  0  0  0
   -0.7981   -1.0253    0.3561 C   0  0  0  0  0  0  0  0  0  0  0  0
   -2.4495    1.1523   -0.2048 C   0  0  0  0  0  0  0  0  0  0  0  0
   -2.1568   -1.2250    0.1112 C   0  0  0  0  0  0  0  0  0  0  0  0
   -2.9824   -0.1362   -0.1693 C   0  0  0  0  0  0  0  0  0  0  0  0
    1.9482   -0.5978    0.1979 C   0  0  0  0  0  0  0  0  0  0  0  0
    3.2947   -0.0316   -0.1587 C   0  0  0  0  0  0  0  0  0  0  0  0
   -0.6814    2.3581    0.0107 H   0  0  0  0  0  0  0  0  0  0  0  0
   -0.1953   -1.8959    0.5968 H   0  0  0  0  0  0  0  0  0  0  0  0
   -3.0876    2.0043   -0.4230 H   0  0  0  0  0  0  0  0  0  0  0  0
   -2.5613   -2.2330    0.1472 H   0  0  0  0  0  0  0  0  0  0  0  0
    2.0666   -1.2721    1.0524 H   0  0  0  0  0  0  0  0  0  0  0  0
    1.5942   -1.1356   -0.6905 H   0  0  0  0  0  0  0  0  0  0  0  0
   -4.5028   -1.2825   -0.3452 H   0  0  0  0  0  0  0  0  0  0  0  0
    5.0433   -0.6902   -0.7114 H   0  0  0  0  0  0  0  0  0  0  0  0
  1  5  1  0  0  0  0
  1 11  1  0  0  0  0
  2 10  1  0  0  0  0
  2 19  1  0  0  0  0
  3 12  1  0  0  0  0
  3 20  1  0  0  0  0
  4 12  2  0  0  0  0
  5  6  2  0  0  0  0
  5  7  1  0  0  0  0
  6  8  1  0  0  0  0
  6 13  1  0  0  0  0
  7  9  2  0  0  0  0
  7 14  1  0  0  0  0
  8 10  2  0  0  0  0
  8 15  1  0  0  0  0
  9 10  1  0  0  0  0
  9 16  1  0  0  0  0
 11 12  1  0  0  0  0
 11 17  1  0  0  0  0
 11 18  1  0  0  0  0
M  END
> <PUBCHEM_COMPOUND_CID>
15881

> <PUBCHEM_CONFORMER_RMSD>
0.6

> <PUBCHEM_CONFORMER_DIVERSEORDER>
1
7
3
9
12
2
6
5
4
8
11
10

> <PUBCHEM_MMFF94_PARTIAL_CHARGES>
18
1 -0.36
10 0.08
11 0.34
12 0.66
13 0.15
14 0.15
15 0.15
16 0.15
19 0.45
2 -0.53
20 0.5
3 -0.65
4 -0.57
5 0.08
6 -0.15
7 -0.15
8 -0.15
9 -0.15

> <PUBCHEM_EFFECTIVE_ROTOR_COUNT>
3

> <PUBCHEM_PHARMACOPHORE_FEATURES>
6
1 1 acceptor
1 2 donor
1 3 acceptor
1 4 acceptor
3 3 4 12 anion
6 5 6 7 8 9 10 rings

> <PUBCHEM_HEAVY_ATOM_COUNT>
12

> <PUBCHEM_ATOM_DEF_STEREO_COUNT>
0

> <PUBCHEM_ATOM_UDEF_STEREO_COUNT>
0

> <PUBCHEM_BOND_DEF_STEREO_COUNT>
0

> <PUBCHEM_BOND_UDEF_STEREO_COUNT>
0

> <PUBCHEM_ISOTOPIC_ATOM_COUNT>
0

> <PUBCHEM_COMPONENT_COUNT>
1

> <PUBCHEM_CACTVS_TAUTO_COUNT>
2

> <PUBCHEM_CONFORMER_ID>
00003E0900000001

> <PUBCHEM_MMFF94_ENERGY>
30.2341

> <PUBCHEM_FEATURE_SELFOVERLAP>
30.508

> <PUBCHEM_SHAPE_FINGERPRINT>
11062470 55 18411419492418648959
12032990 46 18410853218704060995
12932764 1 16805616879356402968
13024252 1 16988840579857647529
14325111 11 18411701010519209840
14911166 2 18341342123850549135
14993402 34 17775568645600833183
18186145 218 17917996083338569686
190213 19 17704351061087289122
200 152 17603870021987656094
20201158 50 18260264165903141958
20279233 1 18186803561053347506
20645477 70 18259982704259882310
21119208 17 18060418023444470590
21293036 1 18343868805428302029
22485316 2 17676211251492202934
23402539 116 18336273426100502077
23559900 14 18409733946116197040
2748010 2 17980773644888303523
93112 12 18412542111434720646

> <PUBCHEM_SHAPE_MULTIPOLES>
223.48
7.18
1.33
0.67
3.9
0.12
0.01
-0.61
-1.51
-0.18
0
0
-0.02
0.12

> <PUBCHEM_SHAPE_SELFOVERLAP>
462.801

> <PUBCHEM_SHAPE_VOLUME>
127.6

> <PUBCHEM_COORDINATE_TYPE>
2
5
10

$$$$

