8507
  -OEChem-06261202532D

 69 70  0     0  0  0  0  0  0999 V2000
    3.1340   -1.5311    0.0000 S   0  0  0  0  0  0  0  0  0  0  0  0
    5.0000   -4.0311    0.0000 S   0  0  0  0  0  0  0  0  0  0  0  0
    2.2679   -3.0310    0.0000 Na  0  3  0  0  0  0  0  0  0  0  0  0
    3.1339   -2.5310    0.0000 O   0  5  0  0  0  0  0  0  0  0  0  0
    2.1340   -1.5311    0.0000 O   0  0  0  0  0  0  0  0  0  0  0  0
    3.1340   -0.5311    0.0000 O   0  0  0  0  0  0  0  0  0  0  0  0
    5.0000   -5.0311    0.0000 O   0  5  0  0  0  0  0  0  0  0  0  0
    6.0000   -4.0311    0.0000 O   0  0  0  0  0  0  0  0  0  0  0  0
    4.0000   -4.0311    0.0000 O   0  0  0  0  0  0  0  0  0  0  0  0
    9.5000   -0.1651    0.0000 N   0  0  0  0  0  0  0  0  0  0  0  0
    3.5000    3.2990    0.0000 N   0  3  0  0  0  0  0  0  0  0  0  0
    5.5000   -0.1651    0.0000 C   0  0  0  0  0  0  0  0  0  0  0  0
    5.0000   -1.0311    0.0000 C   0  0  0  0  0  0  0  0  0  0  0  0
    6.5000   -0.1651    0.0000 C   0  0  0  0  0  0  0  0  0  0  0  0
    5.0000    0.7010    0.0000 C   0  0  0  0  0  0  0  0  0  0  0  0
    8.5000   -0.1651    0.0000 C   0  0  0  0  0  0  0  0  0  0  0  0
    4.0000    2.4330    0.0000 C   0  0  0  0  0  0  0  0  0  0  0  0
    4.1340   -1.5311    0.0000 C   0  0  0  0  0  0  0  0  0  0  0  0
    7.0000    0.7010    0.0000 C   0  0  0  0  0  0  0  0  0  0  0  0
    7.0000   -1.0311    0.0000 C   0  0  0  0  0  0  0  0  0  0  0  0
    4.0000    0.7010    0.0000 C   0  0  0  0  0  0  0  0  0  0  0  0
    5.5000    1.5670    0.0000 C   0  0  0  0  0  0  0  0  0  0  0  0
    8.0000    0.7010    0.0000 C   0  0  0  0  0  0  0  0  0  0  0  0
    8.0000   -1.0311    0.0000 C   0  0  0  0  0  0  0  0  0  0  0  0
    3.5000    1.5670    0.0000 C   0  0  0  0  0  0  0  0  0  0  0  0
    5.0000    2.4330    0.0000 C   0  0  0  0  0  0  0  0  0  0  0  0
   10.0000    0.7010    0.0000 C   0  0  0  0  0  0  0  0  0  0  0  0
   10.0000   -1.0311    0.0000 C   0  0  0  0  0  0  0  0  0  0  0  0
    5.8660   -1.5311    0.0000 C   0  0  0  0  0  0  0  0  0  0  0  0
    4.0000    4.1651    0.0000 C   0  0  0  0  0  0  0  0  0  0  0  0
    2.5000    3.2990    0.0000 C   0  0  0  0  0  0  0  0  0  0  0  0
    4.1340   -2.5311    0.0000 C   0  0  0  0  0  0  0  0  0  0  0  0
    5.0000   -3.0311    0.0000 C   0  0  0  0  0  0  0  0  0  0  0  0
    5.8660   -2.5311    0.0000 C   0  0  0  0  0  0  0  0  0  0  0  0
   11.0000    0.7010    0.0000 C   0  0  0  0  0  0  0  0  0  0  0  0
   11.0000   -1.0311    0.0000 C   0  0  0  0  0  0  0  0  0  0  0  0
    3.5000    5.0311    0.0000 C   0  0  0  0  0  0  0  0  0  0  0  0
    2.0000    4.1651    0.0000 C   0  0  0  0  0  0  0  0  0  0  0  0
    6.6900    1.2379    0.0000 H   0  0  0  0  0  0  0  0  0  0  0  0
    6.6900   -1.5680    0.0000 H   0  0  0  0  0  0  0  0  0  0  0  0
    6.1200    1.5670    0.0000 H   0  0  0  0  0  0  0  0  0  0  0  0
    3.6900    0.1640    0.0000 H   0  0  0  0  0  0  0  0  0  0  0  0
    8.3100    1.2379    0.0000 H   0  0  0  0  0  0  0  0  0  0  0  0
    8.3100   -1.5680    0.0000 H   0  0  0  0  0  0  0  0  0  0  0  0
    5.3100    2.9700    0.0000 H   0  0  0  0  0  0  0  0  0  0  0  0
    2.8800    1.5670    0.0000 H   0  0  0  0  0  0  0  0  0  0  0  0
    9.4174   -1.2431    0.0000 H   0  0  0  0  0  0  0  0  0  0  0  0
   10.1077   -1.6417    0.0000 H   0  0  0  0  0  0  0  0  0  0  0  0
   10.1077    1.3115    0.0000 H   0  0  0  0  0  0  0  0  0  0  0  0
    9.4174    0.9130    0.0000 H   0  0  0  0  0  0  0  0  0  0  0  0
    6.4030   -1.2211    0.0000 H   0  0  0  0  0  0  0  0  0  0  0  0
    4.4750    3.7665    0.0000 H   0  0  0  0  0  0  0  0  0  0  0  0
    4.4750    4.5636    0.0000 H   0  0  0  0  0  0  0  0  0  0  0  0
    1.9174    3.0870    0.0000 H   0  0  0  0  0  0  0  0  0  0  0  0
    2.6077    2.6885    0.0000 H   0  0  0  0  0  0  0  0  0  0  0  0
    3.5970   -2.8411    0.0000 H   0  0  0  0  0  0  0  0  0  0  0  0
    6.4030   -2.8411    0.0000 H   0  0  0  0  0  0  0  0  0  0  0  0
   11.0000    0.0810    0.0000 H   0  0  0  0  0  0  0  0  0  0  0  0
   11.6200    0.7010    0.0000 H   0  0  0  0  0  0  0  0  0  0  0  0
   11.0000    1.3210    0.0000 H   0  0  0  0  0  0  0  0  0  0  0  0
   11.0000   -1.6511    0.0000 H   0  0  0  0  0  0  0  0  0  0  0  0
   11.6200   -1.0311    0.0000 H   0  0  0  0  0  0  0  0  0  0  0  0
   11.0000   -0.4111    0.0000 H   0  0  0  0  0  0  0  0  0  0  0  0
    2.5369    4.4751    0.0000 H   0  0  0  0  0  0  0  0  0  0  0  0
    1.6900    4.7020    0.0000 H   0  0  0  0  0  0  0  0  0  0  0  0
    1.4631    3.8551    0.0000 H   0  0  0  0  0  0  0  0  0  0  0  0
    4.0369    5.3411    0.0000 H   0  0  0  0  0  0  0  0  0  0  0  0
    3.1900    5.5680    0.0000 H   0  0  0  0  0  0  0  0  0  0  0  0
    2.9631    4.7211    0.0000 H   0  0  0  0  0  0  0  0  0  0  0  0
  1  4  1  0  0  0  0
  1  5  2  0  0  0  0
  1  6  2  0  0  0  0
  1 18  1  0  0  0  0
  2  7  1  0  0  0  0
  2  8  2  0  0  0  0
  2  9  2  0  0  0  0
  2 33  1  0  0  0  0
 10 16  1  0  0  0  0
 10 27  1  0  0  0  0
 10 28  1  0  0  0  0
 11 17  2  0  0  0  0
 11 30  1  0  0  0  0
 11 31  1  0  0  0  0
 12 13  1  0  0  0  0
 12 14  1  0  0  0  0
 12 15  2  0  0  0  0
 13 18  2  0  0  0  0
 13 29  1  0  0  0  0
 14 19  2  0  0  0  0
 14 20  1  0  0  0  0
 15 21  1  0  0  0  0
 15 22  1  0  0  0  0
 16 23  2  0  0  0  0
 16 24  1  0  0  0  0
 17 25  1  0  0  0  0
 17 26  1  0  0  0  0
 18 32  1  0  0  0  0
 19 23  1  0  0  0  0
 19 39  1  0  0  0  0
 20 24  2  0  0  0  0
 20 40  1  0  0  0  0
 21 25  2  0  0  0  0
 21 42  1  0  0  0  0
 22 26  2  0  0  0  0
 22 41  1  0  0  0  0
 23 43  1  0  0  0  0
 24 44  1  0  0  0  0
 25 46  1  0  0  0  0
 26 45  1  0  0  0  0
 27 35  1  0  0  0  0
 27 49  1  0  0  0  0
 27 50  1  0  0  0  0
 28 36  1  0  0  0  0
 28 47  1  0  0  0  0
 28 48  1  0  0  0  0
 29 34  2  0  0  0  0
 29 51  1  0  0  0  0
 30 37  1  0  0  0  0
 30 52  1  0  0  0  0
 30 53  1  0  0  0  0
 31 38  1  0  0  0  0
 31 54  1  0  0  0  0
 31 55  1  0  0  0  0
 32 33  2  0  0  0  0
 32 56  1  0  0  0  0
 33 34  1  0  0  0  0
 34 57  1  0  0  0  0
 35 58  1  0  0  0  0
 35 59  1  0  0  0  0
 35 60  1  0  0  0  0
 36 61  1  0  0  0  0
 36 62  1  0  0  0  0
 36 63  1  0  0  0  0
 37 67  1  0  0  0  0
 37 68  1  0  0  0  0
 37 69  1  0  0  0  0
 38 64  1  0  0  0  0
 38 65  1  0  0  0  0
 38 66  1  0  0  0  0
M  CHG  4   3   1   4  -1   7  -1  11   1
M  END
> <PUBCHEM_COMPOUND_CID>
8507

> <PUBCHEM_COMPOUND_CANONICALIZED>
1

> <PUBCHEM_CACTVS_COMPLEXITY>
1040

> <PUBCHEM_CACTVS_HBOND_ACCEPTOR>
7

> <PUBCHEM_CACTVS_HBOND_DONOR>
0

> <PUBCHEM_CACTVS_ROTATABLE_BOND>
7

> <PUBCHEM_CACTVS_SUBSKEYS>
AAADceB7OCBgAAAAAAAAAAAAAAAAAAAAAAAwYIAAAAAAAAABQAAAHAQAAAAADAjBWAQywYMAAAKgAyRiRHDCAEAhAgAIiBgYZJgIICLAkZGEIAhggADIyAcQgMAOGAAAAEAEAAAwAAAAgAgAAAAAAAAAAA==

> <PUBCHEM_IUPAC_OPENEYE_NAME>
sodium 4-[[4-(diethylamino)phenyl]-(4-diethyliminiocyclohexa-2,5-dien-1-ylidene)methyl]benzene-1,3-disulfonate

> <PUBCHEM_IUPAC_CAS_NAME>
sodium 4-[[4-(diethylamino)phenyl]-(4-diethyliminio-1-cyclohexa-2,5-dienylidene)methyl]benzene-1,3-disulfonate

> <PUBCHEM_IUPAC_NAME>
sodium 4-[[4-(diethylamino)phenyl]-(4-diethylazaniumylidenecyclohexa-2,5-dien-1-ylidene)methyl]benzene-1,3-disulfonate

> <PUBCHEM_IUPAC_SYSTEMATIC_NAME>
sodium 4-[[4-(diethylamino)phenyl]-(4-diethylazaniumylidenecyclohexa-2,5-dien-1-ylidene)methyl]benzene-1,3-disulfonate

> <PUBCHEM_IUPAC_TRADITIONAL_NAME>
sodium 4-[[4-(diethylamino)phenyl]-(4-diethyliminiocyclohexa-2,5-dien-1-ylidene)methyl]benzene-1,3-disulfonate

> <PUBCHEM_IUPAC_INCHI>
InChI=1S/C27H32N2O6S2.Na/c1-5-28(6-2)22-13-9-20(10-14-22)27(21-11-15-23(16-12-21)29(7-3)8-4)25-18-17-24(36(30,31)32)19-26(25)37(33,34)35;/h9-19H,5-8H2,1-4H3,(H-,30,31,32,33,34,35);/q;+1/p-1

> <PUBCHEM_IUPAC_INCHIKEY>
SJEYSFABYSGQBG-UHFFFAOYSA-M

> <PUBCHEM_EXACT_MASS>
566.152123

> <PUBCHEM_MOLECULAR_FORMULA>
C27H31N2NaO6S2

> <PUBCHEM_MOLECULAR_WEIGHT>
566.664609

> <PUBCHEM_OPENEYE_CAN_SMILES>
CCN(CC)C1=CC=C(C=C1)C(=C2C=CC(=[N+](CC)CC)C=C2)C3=C(C=C(C=C3)S(=O)(=O)[O-])S(=O)(=O)[O-].[Na+]

> <PUBCHEM_OPENEYE_ISO_SMILES>
CCN(CC)C1=CC=C(C=C1)C(=C2C=CC(=[N+](CC)CC)C=C2)C3=C(C=C(C=C3)S(=O)(=O)[O-])S(=O)(=O)[O-].[Na+]

> <PUBCHEM_CACTVS_TPSA>
137

> <PUBCHEM_MONOISOTOPIC_WEIGHT>
566.152123

> <PUBCHEM_TOTAL_CHARGE>
0

> <PUBCHEM_HEAVY_ATOM_COUNT>
38

> <PUBCHEM_ATOM_DEF_STEREO_COUNT>
0

> <PUBCHEM_ATOM_UDEF_STEREO_COUNT>
0

> <PUBCHEM_BOND_DEF_STEREO_COUNT>
0

> <PUBCHEM_BOND_UDEF_STEREO_COUNT>
0

> <PUBCHEM_ISOTOPIC_ATOM_COUNT>
0

> <PUBCHEM_COMPONENT_COUNT>
2

> <PUBCHEM_CACTVS_TAUTO_COUNT>
1

> <PUBCHEM_COORDINATE_TYPE>
1
5
255

> <PUBCHEM_BONDANNOTATIONS>
13  18  8
13  29  8
14  19  8
14  20  8
16  23  8
16  24  8
18  32  8
19  23  8
20  24  8
29  34  8
32  33  8
33  34  8

$$$$

