69894
  -OEChem-07051213112D

 22 23  0     0  0  0  0  0  0999 V2000
    5.4920   -0.8447    0.0000 O   0  0  0  0  0  0  0  0  0  0  0  0
    2.0000   -0.8100    0.0000 O   0  0  0  0  0  0  0  0  0  0  0  0
    2.0000    1.1900    0.0000 O   0  0  0  0  0  0  0  0  0  0  0  0
    7.2622   -0.8342    0.0000 O   0  0  0  0  0  0  0  0  0  0  0  0
    4.5981    0.6900    0.0000 C   0  0  0  0  0  0  0  0  0  0  0  0
    4.5981   -0.3100    0.0000 C   0  0  0  0  0  0  0  0  0  0  0  0
    3.7320    1.1900    0.0000 C   0  0  0  0  0  0  0  0  0  0  0  0
    2.8660   -0.3100    0.0000 C   0  0  0  0  0  0  0  0  0  0  0  0
    3.7320   -0.8100    0.0000 C   0  0  0  0  0  0  0  0  0  0  0  0
    2.8660    0.6900    0.0000 C   0  0  0  0  0  0  0  0  0  0  0  0
    5.4920    1.2247    0.0000 C   0  0  0  0  0  0  0  0  0  0  0  0
    6.3981    0.7108    0.0000 C   0  0  0  0  0  0  0  0  0  0  0  0
    6.3981   -0.3308    0.0000 C   0  0  0  0  0  0  0  0  0  0  0  0
    2.0000   -1.8100    0.0000 C   0  0  0  0  0  0  0  0  0  0  0  0
    3.7320    1.8100    0.0000 H   0  0  0  0  0  0  0  0  0  0  0  0
    3.7320   -1.4300    0.0000 H   0  0  0  0  0  0  0  0  0  0  0  0
    5.4848    1.8446    0.0000 H   0  0  0  0  0  0  0  0  0  0  0  0
    6.9338    1.0229    0.0000 H   0  0  0  0  0  0  0  0  0  0  0  0
    2.0000    1.8100    0.0000 H   0  0  0  0  0  0  0  0  0  0  0  0
    1.3800   -1.8100    0.0000 H   0  0  0  0  0  0  0  0  0  0  0  0
    2.0000   -2.4300    0.0000 H   0  0  0  0  0  0  0  0  0  0  0  0
    2.6200   -1.8100    0.0000 H   0  0  0  0  0  0  0  0  0  0  0  0
  1  6  1  0  0  0  0
  1 13  1  0  0  0  0
  2  8  1  0  0  0  0
  2 14  1  0  0  0  0
  3 10  1  0  0  0  0
  3 19  1  0  0  0  0
  4 13  2  0  0  0  0
  5  6  1  0  0  0  0
  5  7  2  0  0  0  0
  5 11  1  0  0  0  0
  6  9  2  0  0  0  0
  7 10  1  0  0  0  0
  7 15  1  0  0  0  0
  8  9  1  0  0  0  0
  8 10  2  0  0  0  0
  9 16  1  0  0  0  0
 11 12  2  0  0  0  0
 11 17  1  0  0  0  0
 12 13  1  0  0  0  0
 12 18  1  0  0  0  0
 14 20  1  0  0  0  0
 14 21  1  0  0  0  0
 14 22  1  0  0  0  0
M  END
> <PUBCHEM_COMPOUND_CID>
69894

> <PUBCHEM_COMPOUND_CANONICALIZED>
1

> <PUBCHEM_CACTVS_COMPLEXITY>
261

> <PUBCHEM_CACTVS_HBOND_ACCEPTOR>
4

> <PUBCHEM_CACTVS_HBOND_DONOR>
1

> <PUBCHEM_CACTVS_ROTATABLE_BOND>
1

> <PUBCHEM_CACTVS_SUBSKEYS>
AAADccBwOAAAAAAAAAAAAAAAAAAAAAAAAAAwQAAAAAAAAACBAAAAGgAACAAADASAmAIyDoAABgCIAiDSCAACCAAgIAAIiAAGiMgNJyKGMRqCeiOlwBULuYfA4DwOIQABCAAIQABCAAIQABCAAAAAAAAAAA==

> <PUBCHEM_IUPAC_OPENEYE_NAME>
6-hydroxy-7-methoxy-chromen-2-one

> <PUBCHEM_IUPAC_CAS_NAME>
6-hydroxy-7-methoxy-1-benzopyran-2-one

> <PUBCHEM_IUPAC_NAME>
6-hydroxy-7-methoxychromen-2-one

> <PUBCHEM_IUPAC_SYSTEMATIC_NAME>
7-methoxy-6-oxidanyl-chromen-2-one

> <PUBCHEM_IUPAC_TRADITIONAL_NAME>
6-hydroxy-7-methoxy-coumarin

> <PUBCHEM_IUPAC_INCHI>
InChI=1S/C10H8O4/c1-13-9-5-8-6(4-7(9)11)2-3-10(12)14-8/h2-5,11H,1H3

> <PUBCHEM_IUPAC_INCHIKEY>
SYTYLPHCLSSCOJ-UHFFFAOYSA-N

> <PUBCHEM_XLOGP3_AA>
1.5

> <PUBCHEM_EXACT_MASS>
192.042259

> <PUBCHEM_MOLECULAR_FORMULA>
C10H8O4

> <PUBCHEM_MOLECULAR_WEIGHT>
192.16812

> <PUBCHEM_OPENEYE_CAN_SMILES>
COC1=C(C=C2C=CC(=O)OC2=C1)O

> <PUBCHEM_OPENEYE_ISO_SMILES>
COC1=C(C=C2C=CC(=O)OC2=C1)O

> <PUBCHEM_CACTVS_TPSA>
55.8

> <PUBCHEM_MONOISOTOPIC_WEIGHT>
192.042259

> <PUBCHEM_TOTAL_CHARGE>
0

> <PUBCHEM_HEAVY_ATOM_COUNT>
14

> <PUBCHEM_ATOM_DEF_STEREO_COUNT>
0

> <PUBCHEM_ATOM_UDEF_STEREO_COUNT>
0

> <PUBCHEM_BOND_DEF_STEREO_COUNT>
0

> <PUBCHEM_BOND_UDEF_STEREO_COUNT>
0

> <PUBCHEM_ISOTOPIC_ATOM_COUNT>
0

> <PUBCHEM_COMPONENT_COUNT>
1

> <PUBCHEM_CACTVS_TAUTO_COUNT>
3

> <PUBCHEM_COORDINATE_TYPE>
1
5
255

> <PUBCHEM_BONDANNOTATIONS>
1  13  8
1  6  8
11  12  8
12  13  8
5  11  8
5  6  8
5  7  8
6  9  8
7  10  8
8  10  8
8  9  8

$$$$

