441707
  -OEChem-07051212553D

 91 98  0     1  0  0  0  0  0999 V2000
    1.7922    1.9254    1.4922 O   0  0  0  0  0  0  0  0  0  0  0  0
    3.6489    2.7518   -0.4530 O   0  0  0  0  0  0  0  0  0  0  0  0
    1.5689    1.7797   -1.8299 O   0  0  0  0  0  0  0  0  0  0  0  0
    2.8604   -3.3470    0.8339 O   0  0  0  0  0  0  0  0  0  0  0  0
    6.3223    1.6518   -1.2024 O   0  0  0  0  0  0  0  0  0  0  0  0
    6.9740    0.8303    1.7164 O   0  0  0  0  0  0  0  0  0  0  0  0
   -2.6160   -0.9459   -0.6371 O   0  0  0  0  0  0  0  0  0  0  0  0
   -3.9463    0.4461   -1.8990 O   0  0  0  0  0  0  0  0  0  0  0  0
   -3.7197    1.0910    1.7042 O   0  0  0  0  0  0  0  0  0  0  0  0
   -7.7670    1.7185   -0.5016 O   0  0  0  0  0  0  0  0  0  0  0  0
    0.8183   -0.6328    1.6725 N   0  0  0  0  0  0  0  0  0  0  0  0
   -5.7718    0.9652    0.5296 N   0  0  0  0  0  0  0  0  0  0  0  0
    2.2725   -1.2326   -0.3068 C   0  0  2  0  0  0  0  0  0  0  0  0
    3.6962   -0.9574   -0.9404 C   0  0  1  0  0  0  0  0  0  0  0  0
    1.1192   -0.5087   -1.0912 C   0  0  2  0  0  0  0  0  0  0  0  0
    2.2323    1.0219    0.4811 C   0  0  2  0  0  0  0  0  0  0  0  0
    4.1286    0.5124   -1.1280 C   0  0  1  0  0  0  0  0  0  0  0  0
    2.1302   -0.4399    1.0056 C   0  0  1  0  0  0  0  0  0  0  0  0
    3.6799    1.3995    0.0520 C   0  0  1  0  0  0  0  0  0  0  0  0
    1.2247    0.9997   -0.6993 C   0  0  1  0  0  0  0  0  0  0  0  0
   -0.2309   -1.0559   -0.5559 C   0  0  1  0  0  0  0  0  0  0  0  0
    4.9036   -1.5804   -0.1892 C   0  0  0  0  0  0  0  0  0  0  0  0
    5.9462   -0.4640   -0.0287 C   0  0  1  0  0  0  0  0  0  0  0  0
    2.0890   -2.7893   -0.2294 C   0  0  2  0  0  0  0  0  0  0  0  0
    5.6536    0.4093   -1.2383 C   0  0  2  0  0  0  0  0  0  0  0  0
    4.6930    1.4305    1.2292 C   0  0  0  0  0  0  0  0  0  0  0  0
    5.7176    0.2867    1.2956 C   0  0  2  0  0  0  0  0  0  0  0  0
   -0.3497   -2.5588   -0.8421 C   0  0  0  0  0  0  0  0  0  0  0  0
    0.6811   -3.3446   -0.0638 C   0  0  0  0  0  0  0  0  0  0  0  0
   -0.2334   -0.8654    0.9597 C   0  0  0  0  0  0  0  0  0  0  0  0
   -1.4513   -0.3612   -1.1811 C   0  0  0  0  0  0  0  0  0  0  0  0
    0.4383    2.0399   -2.6540 C   0  0  0  0  0  0  0  0  0  0  0  0
    3.2651   -4.6748    0.5376 C   0  0  0  0  0  0  0  0  0  0  0  0
    7.6819    1.5364   -1.6131 C   0  0  0  0  0  0  0  0  0  0  0  0
    7.0052    1.0165    3.1210 C   0  0  0  0  0  0  0  0  0  0  0  0
   -3.8088   -0.4500   -1.0808 C   0  0  0  0  0  0  0  0  0  0  0  0
   -4.9506   -1.1449   -0.4344 C   0  0  0  0  0  0  0  0  0  0  0  0
   -5.8831   -0.4496    0.3356 C   0  0  0  0  0  0  0  0  0  0  0  0
   -5.0803   -2.5225   -0.6107 C   0  0  0  0  0  0  0  0  0  0  0  0
   -6.9452   -1.1320    0.9290 C   0  0  0  0  0  0  0  0  0  0  0  0
   -6.1423   -3.2047   -0.0172 C   0  0  0  0  0  0  0  0  0  0  0  0
   -7.0746   -2.5097    0.7527 C   0  0  0  0  0  0  0  0  0  0  0  0
   -4.6825    1.5843    1.1315 C   0  0  0  0  0  0  0  0  0  0  0  0
   -6.7412    1.8828    0.1448 C   0  0  0  0  0  0  0  0  0  0  0  0
   -4.8532    3.0752    0.9791 C   0  0  2  0  0  0  0  0  0  0  0  0
   -6.3319    3.2295    0.6699 C   0  0  0  0  0  0  0  0  0  0  0  0
   -3.9632    3.5875   -0.1459 C   0  0  0  0  0  0  0  0  0  0  0  0
    3.6836   -1.4077   -1.9448 H   0  0  0  0  0  0  0  0  0  0  0  0
    1.2140   -0.6788   -2.1697 H   0  0  0  0  0  0  0  0  0  0  0  0
    3.7543    0.9115   -2.0767 H   0  0  0  0  0  0  0  0  0  0  0  0
    2.9078   -0.6777    1.7361 H   0  0  0  0  0  0  0  0  0  0  0  0
    0.2913    1.4116   -0.3025 H   0  0  0  0  0  0  0  0  0  0  0  0
    5.3205   -2.3909   -0.8002 H   0  0  0  0  0  0  0  0  0  0  0  0
    4.6654   -2.0048    0.7850 H   0  0  0  0  0  0  0  0  0  0  0  0
    6.9606   -0.8769   -0.0541 H   0  0  0  0  0  0  0  0  0  0  0  0
    2.4553   -3.1781   -1.1914 H   0  0  0  0  0  0  0  0  0  0  0  0
    5.9036   -0.1188   -2.1700 H   0  0  0  0  0  0  0  0  0  0  0  0
    5.2415    2.3838    1.1943 H   0  0  0  0  0  0  0  0  0  0  0  0
    4.1735    1.4770    2.1929 H   0  0  0  0  0  0  0  0  0  0  0  0
    5.3942   -0.4411    2.0513 H   0  0  0  0  0  0  0  0  0  0  0  0
   -0.2250   -2.7457   -1.9166 H   0  0  0  0  0  0  0  0  0  0  0  0
   -1.3347   -2.9556   -0.5683 H   0  0  0  0  0  0  0  0  0  0  0  0
    0.4092   -3.3897    0.9989 H   0  0  0  0  0  0  0  0  0  0  0  0
    0.6441   -4.3881   -0.4008 H   0  0  0  0  0  0  0  0  0  0  0  0
   -1.1929   -0.9972    1.4866 H   0  0  0  0  0  0  0  0  0  0  0  0
    2.0855    1.5896    2.3553 H   0  0  0  0  0  0  0  0  0  0  0  0
   -1.4493   -0.4971   -2.2692 H   0  0  0  0  0  0  0  0  0  0  0  0
   -1.4855    0.7068   -0.9540 H   0  0  0  0  0  0  0  0  0  0  0  0
    3.2714    3.3160    0.2438 H   0  0  0  0  0  0  0  0  0  0  0  0
    0.0614    1.1224   -3.1107 H   0  0  0  0  0  0  0  0  0  0  0  0
   -0.3506    2.5517   -2.0945 H   0  0  0  0  0  0  0  0  0  0  0  0
    0.7612    2.7035   -3.4614 H   0  0  0  0  0  0  0  0  0  0  0  0
    2.4124   -5.3569    0.4906 H   0  0  0  0  0  0  0  0  0  0  0  0
    3.8389   -4.7149   -0.3938 H   0  0  0  0  0  0  0  0  0  0  0  0
    3.9171   -5.0142    1.3477 H   0  0  0  0  0  0  0  0  0  0  0  0
    8.1336    2.5312   -1.5705 H   0  0  0  0  0  0  0  0  0  0  0  0
    7.7430    1.1735   -2.6437 H   0  0  0  0  0  0  0  0  0  0  0  0
    8.2416    0.8764   -0.9448 H   0  0  0  0  0  0  0  0  0  0  0  0
    6.2344    1.7189    3.4510 H   0  0  0  0  0  0  0  0  0  0  0  0
    6.8947    0.0607    3.6429 H   0  0  0  0  0  0  0  0  0  0  0  0
    7.9802    1.4356    3.3858 H   0  0  0  0  0  0  0  0  0  0  0  0
   -4.3629   -3.0771   -1.2104 H   0  0  0  0  0  0  0  0  0  0  0  0
   -7.6775   -0.6045    1.5349 H   0  0  0  0  0  0  0  0  0  0  0  0
   -6.2434   -4.2773   -0.1548 H   0  0  0  0  0  0  0  0  0  0  0  0
   -7.9011   -3.0411    1.2154 H   0  0  0  0  0  0  0  0  0  0  0  0
   -4.6017    3.5774    1.9190 H   0  0  0  0  0  0  0  0  0  0  0  0
   -6.5364    4.0134   -0.0646 H   0  0  0  0  0  0  0  0  0  0  0  0
   -6.9073    3.4280    1.5807 H   0  0  0  0  0  0  0  0  0  0  0  0
   -2.9087    3.3831    0.0699 H   0  0  0  0  0  0  0  0  0  0  0  0
   -4.2001    3.1088   -1.1020 H   0  0  0  0  0  0  0  0  0  0  0  0
   -4.0816    4.6688   -0.2700 H   0  0  0  0  0  0  0  0  0  0  0  0
  1 16  1  0  0  0  0
  1 66  1  0  0  0  0
  2 19  1  0  0  0  0
  2 69  1  0  0  0  0
  3 20  1  0  0  0  0
  3 32  1  0  0  0  0
  4 24  1  0  0  0  0
  4 33  1  0  0  0  0
  5 25  1  0  0  0  0
  5 34  1  0  0  0  0
  6 27  1  0  0  0  0
  6 35  1  0  0  0  0
  7 31  1  0  0  0  0
  7 36  1  0  0  0  0
  8 36  2  0  0  0  0
  9 43  2  0  0  0  0
 10 44  2  0  0  0  0
 11 18  1  0  0  0  0
 11 30  2  0  0  0  0
 12 38  1  0  0  0  0
 12 43  1  0  0  0  0
 12 44  1  0  0  0  0
 13 14  1  0  0  0  0
 13 15  1  0  0  0  0
 13 18  1  0  0  0  0
 13 24  1  0  0  0  0
 14 17  1  0  0  0  0
 14 22  1  0  0  0  0
 14 48  1  0  0  0  0
 15 20  1  0  0  0  0
 15 21  1  0  0  0  0
 15 49  1  0  0  0  0
 16 18  1  0  0  0  0
 16 19  1  0  0  0  0
 16 20  1  0  0  0  0
 17 19  1  0  0  0  0
 17 25  1  0  0  0  0
 17 50  1  0  0  0  0
 18 51  1  0  0  0  0
 19 26  1  0  0  0  0
 20 52  1  0  0  0  0
 21 28  1  0  0  0  0
 21 30  1  0  0  0  0
 21 31  1  0  0  0  0
 22 23  1  0  0  0  0
 22 53  1  0  0  0  0
 22 54  1  0  0  0  0
 23 25  1  0  0  0  0
 23 27  1  0  0  0  0
 23 55  1  0  0  0  0
 24 29  1  0  0  0  0
 24 56  1  0  0  0  0
 25 57  1  0  0  0  0
 26 27  1  0  0  0  0
 26 58  1  0  0  0  0
 26 59  1  0  0  0  0
 27 60  1  0  0  0  0
 28 29  1  0  0  0  0
 28 61  1  0  0  0  0
 28 62  1  0  0  0  0
 29 63  1  0  0  0  0
 29 64  1  0  0  0  0
 30 65  1  0  0  0  0
 31 67  1  0  0  0  0
 31 68  1  0  0  0  0
 32 70  1  0  0  0  0
 32 71  1  0  0  0  0
 32 72  1  0  0  0  0
 33 73  1  0  0  0  0
 33 74  1  0  0  0  0
 33 75  1  0  0  0  0
 34 76  1  0  0  0  0
 34 77  1  0  0  0  0
 34 78  1  0  0  0  0
 35 79  1  0  0  0  0
 35 80  1  0  0  0  0
 35 81  1  0  0  0  0
 36 37  1  0  0  0  0
 37 38  1  0  0  0  0
 37 39  2  0  0  0  0
 38 40  2  0  0  0  0
 39 41  1  0  0  0  0
 39 82  1  0  0  0  0
 40 42  1  0  0  0  0
 40 83  1  0  0  0  0
 41 42  2  0  0  0  0
 41 84  1  0  0  0  0
 42 85  1  0  0  0  0
 43 45  1  0  0  0  0
 44 46  1  0  0  0  0
 45 46  1  0  0  0  0
 45 47  1  0  0  0  0
 45 86  1  0  0  0  0
 46 87  1  0  0  0  0
 46 88  1  0  0  0  0
 47 89  1  0  0  0  0
 47 90  1  0  0  0  0
 47 91  1  0  0  0  0
M  END
> <PUBCHEM_COMPOUND_CID>
441707

> <PUBCHEM_CONFORMER_RMSD>
1.2

> <PUBCHEM_CONFORMER_DIVERSEORDER>
1
17
5
25
23
11
19
18
20
13
27
22
24
7
15
8
16
14
2
12
6
26
10
4
3
21
9

> <PUBCHEM_MMFF94_PARTIAL_CHARGES>
44
1 -0.68
10 -0.57
11 -0.7
12 -0.24
16 0.28
18 0.25
19 0.28
2 -0.68
20 0.28
21 0.06
24 0.28
25 0.28
27 0.28
3 -0.56
30 0.33
31 0.28
32 0.28
33 0.28
34 0.28
35 0.28
36 0.63
37 0.09
38 0.12
39 -0.15
4 -0.56
40 -0.15
41 -0.15
42 -0.15
43 0.57
44 0.57
45 0.06
46 0.06
5 -0.56
6 -0.56
65 0.06
66 0.4
69 0.4
7 -0.43
8 -0.57
82 0.15
83 0.15
84 0.15
85 0.15
9 -0.57

> <PUBCHEM_EFFECTIVE_ROTOR_COUNT>
11.2

> <PUBCHEM_PHARMACOPHORE_FEATURES>
18
1 1 acceptor
1 1 donor
1 10 acceptor
1 11 acceptor
1 2 acceptor
1 2 donor
1 3 acceptor
1 4 acceptor
1 5 acceptor
1 6 acceptor
1 8 acceptor
1 9 acceptor
5 12 43 44 45 46 rings
6 13 15 21 24 28 29 rings
6 37 38 39 40 41 42 rings
8 11 13 15 16 18 20 21 30 rings
8 13 14 15 16 17 18 19 20 rings
8 14 17 19 22 23 25 26 27 rings

> <PUBCHEM_HEAVY_ATOM_COUNT>
47

> <PUBCHEM_ATOM_DEF_STEREO_COUNT>
13

> <PUBCHEM_ATOM_UDEF_STEREO_COUNT>
1

> <PUBCHEM_BOND_DEF_STEREO_COUNT>
0

> <PUBCHEM_BOND_UDEF_STEREO_COUNT>
0

> <PUBCHEM_ISOTOPIC_ATOM_COUNT>
0

> <PUBCHEM_COMPONENT_COUNT>
1

> <PUBCHEM_CACTVS_TAUTO_COUNT>
4

> <PUBCHEM_CONFORMER_ID>
0006BD6B00000001

> <PUBCHEM_MMFF94_ENERGY>
240.3887

> <PUBCHEM_FEATURE_SELFOVERLAP>
92.855

> <PUBCHEM_SHAPE_FINGERPRINT>
11456790 92 18261688030099815610
11578080 2 4749713774141873938
12166972 35 18271240509174484245
12422481 6 18129671940473439648
13782708 43 15697729197997046298
13811026 1 18409168839540729419
14118638 360 18409446995109464071
14294032 229 18342459222952677782
14849402 71 18200022928813782196
14856354 85 18189894228484641143
15001296 14 18412263930777761829
15183329 4 17749387070188192293
16112460 7 18272933860266314019
18608769 82 18187646843712524523
20511986 3 18041006171230606147
21033648 29 18260838072191236104
21814621 53 17967810574221262154
23522609 53 17845068762502671805
4073 2 18272643550520620379
4144715 1 18337378444589014379
4340502 62 18261116227791807686
5104073 3 18340772641057270003
5776283 40 18119519947725029480
6086070 43 17095823065846585781
6703917 75 18198890436527441222
77296 10 18334570287226922667

> <PUBCHEM_SHAPE_MULTIPOLES>
898.58
21.06
4.24
1.83
11.61
1.95
0.25
-6.85
4.51
3.46
0.39
-2.51
-0.96
-0.73

> <PUBCHEM_SHAPE_SELFOVERLAP>
1996.94

> <PUBCHEM_SHAPE_VOLUME>
472.3

> <PUBCHEM_COORDINATE_TYPE>
2
5
10

$$$$

