253783
  -OEChem-07051213063D

 62 65  0     0  0  0  0  0  0999 V2000
    4.9015   -2.7967    0.0243 N   0  0  0  0  0  0  0  0  0  0  0  0
   -4.8465   -2.8741   -0.0240 N   0  0  0  0  0  0  0  0  0  0  0  0
    0.0047    0.0311   -0.0003 C   0  0  0  0  0  0  0  0  0  0  0  0
   -0.0341    1.4124    0.0000 C   0  0  0  0  0  0  0  0  0  0  0  0
    1.2923   -0.7126    0.0065 C   0  0  0  0  0  0  0  0  0  0  0  0
   -1.2707   -0.7330   -0.0070 C   0  0  0  0  0  0  0  0  0  0  0  0
   -1.2937    2.1399   -0.0022 C   0  0  0  0  0  0  0  0  0  0  0  0
    1.2695    2.1602    0.0023 C   0  0  0  0  0  0  0  0  0  0  0  0
    1.8740   -1.0451   -1.1986 C   0  0  0  0  0  0  0  0  0  0  0  0
   -1.8472   -1.0743    1.1983 C   0  0  0  0  0  0  0  0  0  0  0  0
    1.8621   -1.0453    1.2173 C   0  0  0  0  0  0  0  0  0  0  0  0
   -1.8353   -1.0751   -1.2175 C   0  0  0  0  0  0  0  0  0  0  0  0
    3.6796   -2.0922    0.0181 C   0  0  0  0  0  0  0  0  0  0  0  0
   -3.6358   -2.1504   -0.0180 C   0  0  0  0  0  0  0  0  0  0  0  0
    3.0817   -1.7432   -1.1929 C   0  0  0  0  0  0  0  0  0  0  0  0
   -3.0436   -1.7914    1.1927 C   0  0  0  0  0  0  0  0  0  0  0  0
    3.0699   -1.7431    1.2231 C   0  0  0  0  0  0  0  0  0  0  0  0
   -3.0318   -1.7921   -1.2231 C   0  0  0  0  0  0  0  0  0  0  0  0
   -1.8955    2.4887   -1.2112 C   0  0  0  0  0  0  0  0  0  0  0  0
    1.8304    2.4832    1.2112 C   0  0  0  0  0  0  0  0  0  0  0  0
   -1.8996    2.4890    1.2048 C   0  0  0  0  0  0  0  0  0  0  0  0
    1.8345    2.4833   -1.2047 C   0  0  0  0  0  0  0  0  0  0  0  0
   -3.1033    3.1865   -1.2133 C   0  0  0  0  0  0  0  0  0  0  0  0
    3.0403    3.1774    1.2133 C   0  0  0  0  0  0  0  0  0  0  0  0
   -3.1076    3.1865    1.2028 C   0  0  0  0  0  0  0  0  0  0  0  0
    3.0445    3.1772   -1.2027 C   0  0  0  0  0  0  0  0  0  0  0  0
    5.8552   -2.6211   -1.0529 C   0  0  0  0  0  0  0  0  0  0  0  0
    5.2254   -3.6945    1.1150 C   0  0  0  0  0  0  0  0  0  0  0  0
   -5.8029   -2.7135    1.0531 C   0  0  0  0  0  0  0  0  0  0  0  0
   -5.1560   -3.7774   -1.1144 C   0  0  0  0  0  0  0  0  0  0  0  0
   -3.7095    3.5353   -0.0063 C   0  0  0  0  0  0  0  0  0  0  0  0
    3.6475    3.5243    0.0063 C   0  0  0  0  0  0  0  0  0  0  0  0
    1.4162   -0.7806   -2.1477 H   0  0  0  0  0  0  0  0  0  0  0  0
   -1.3939   -0.8021    2.1474 H   0  0  0  0  0  0  0  0  0  0  0  0
    1.3977   -0.7765    2.1618 H   0  0  0  0  0  0  0  0  0  0  0  0
   -1.3753   -0.7989   -2.1622 H   0  0  0  0  0  0  0  0  0  0  0  0
    3.5240   -2.0094   -2.1487 H   0  0  0  0  0  0  0  0  0  0  0  0
   -3.4817   -2.0643    2.1486 H   0  0  0  0  0  0  0  0  0  0  0  0
    3.5147   -1.9881    2.1834 H   0  0  0  0  0  0  0  0  0  0  0  0
   -3.4727   -2.0443   -2.1833 H   0  0  0  0  0  0  0  0  0  0  0  0
   -1.4373    2.2247   -2.1614 H   0  0  0  0  0  0  0  0  0  0  0  0
    1.3649    2.2173    2.1555 H   0  0  0  0  0  0  0  0  0  0  0  0
   -1.4446    2.2249    2.1565 H   0  0  0  0  0  0  0  0  0  0  0  0
    1.3722    2.2174   -2.1506 H   0  0  0  0  0  0  0  0  0  0  0  0
   -3.5722    3.4578   -2.1546 H   0  0  0  0  0  0  0  0  0  0  0  0
    3.5099    3.4473    2.1546 H   0  0  0  0  0  0  0  0  0  0  0  0
   -3.5797    3.4577    2.1425 H   0  0  0  0  0  0  0  0  0  0  0  0
    3.5173    3.4470   -2.1425 H   0  0  0  0  0  0  0  0  0  0  0  0
    5.5620   -3.2070   -1.9302 H   0  0  0  0  0  0  0  0  0  0  0  0
    6.8554   -2.9547   -0.7539 H   0  0  0  0  0  0  0  0  0  0  0  0
    5.9476   -1.5673   -1.3391 H   0  0  0  0  0  0  0  0  0  0  0  0
    6.0137   -4.3987    0.8259 H   0  0  0  0  0  0  0  0  0  0  0  0
    4.3588   -4.2971    1.4100 H   0  0  0  0  0  0  0  0  0  0  0  0
    5.5865   -3.1349    1.9842 H   0  0  0  0  0  0  0  0  0  0  0  0
   -5.5003   -3.2945    1.9307 H   0  0  0  0  0  0  0  0  0  0  0  0
   -5.9119   -1.6612    1.3390 H   0  0  0  0  0  0  0  0  0  0  0  0
   -6.7975   -3.0629    0.7543 H   0  0  0  0  0  0  0  0  0  0  0  0
   -5.9331   -4.4940   -0.8251 H   0  0  0  0  0  0  0  0  0  0  0  0
   -5.5260   -3.2240   -1.9839 H   0  0  0  0  0  0  0  0  0  0  0  0
   -4.2800   -4.3662   -1.4092 H   0  0  0  0  0  0  0  0  0  0  0  0
   -4.6502    4.0782   -0.0080 H   0  0  0  0  0  0  0  0  0  0  0  0
    4.5897    4.0643    0.0078 H   0  0  0  0  0  0  0  0  0  0  0  0
  1 13  1  0  0  0  0
  1 27  1  0  0  0  0
  1 28  1  0  0  0  0
  2 14  1  0  0  0  0
  2 29  1  0  0  0  0
  2 30  1  0  0  0  0
  3  4  2  0  0  0  0
  3  5  1  0  0  0  0
  3  6  1  0  0  0  0
  4  7  1  0  0  0  0
  4  8  1  0  0  0  0
  5  9  2  0  0  0  0
  5 11  1  0  0  0  0
  6 10  2  0  0  0  0
  6 12  1  0  0  0  0
  7 19  2  0  0  0  0
  7 21  1  0  0  0  0
  8 20  2  0  0  0  0
  8 22  1  0  0  0  0
  9 15  1  0  0  0  0
  9 33  1  0  0  0  0
 10 16  1  0  0  0  0
 10 34  1  0  0  0  0
 11 17  2  0  0  0  0
 11 35  1  0  0  0  0
 12 18  2  0  0  0  0
 12 36  1  0  0  0  0
 13 15  2  0  0  0  0
 13 17  1  0  0  0  0
 14 16  2  0  0  0  0
 14 18  1  0  0  0  0
 15 37  1  0  0  0  0
 16 38  1  0  0  0  0
 17 39  1  0  0  0  0
 18 40  1  0  0  0  0
 19 23  1  0  0  0  0
 19 41  1  0  0  0  0
 20 24  1  0  0  0  0
 20 42  1  0  0  0  0
 21 25  2  0  0  0  0
 21 43  1  0  0  0  0
 22 26  2  0  0  0  0
 22 44  1  0  0  0  0
 23 31  2  0  0  0  0
 23 45  1  0  0  0  0
 24 32  2  0  0  0  0
 24 46  1  0  0  0  0
 25 31  1  0  0  0  0
 25 47  1  0  0  0  0
 26 32  1  0  0  0  0
 26 48  1  0  0  0  0
 27 49  1  0  0  0  0
 27 50  1  0  0  0  0
 27 51  1  0  0  0  0
 28 52  1  0  0  0  0
 28 53  1  0  0  0  0
 28 54  1  0  0  0  0
 29 55  1  0  0  0  0
 29 56  1  0  0  0  0
 29 57  1  0  0  0  0
 30 58  1  0  0  0  0
 30 59  1  0  0  0  0
 30 60  1  0  0  0  0
 31 61  1  0  0  0  0
 32 62  1  0  0  0  0
M  END
> <PUBCHEM_COMPOUND_CID>
253783

> <PUBCHEM_CONFORMER_RMSD>
0.8

> <PUBCHEM_CONFORMER_DIVERSEORDER>
1

> <PUBCHEM_MMFF94_PARTIAL_CHARGES>
50
1 -0.84
10 -0.15
11 -0.15
12 -0.15
13 0.1
14 0.1
15 -0.15
16 -0.15
17 -0.15
18 -0.15
19 -0.15
2 -0.84
20 -0.15
21 -0.15
22 -0.15
23 -0.15
24 -0.15
25 -0.15
26 -0.15
27 0.37
28 0.37
29 0.37
3 -0.06
30 0.37
31 -0.15
32 -0.15
33 0.15
34 0.15
35 0.15
36 0.15
37 0.15
38 0.15
39 0.15
4 -0.06
40 0.15
41 0.15
42 0.15
43 0.15
44 0.15
45 0.15
46 0.15
47 0.15
48 0.15
5 0.03
6 0.03
61 0.15
62 0.15
7 0.03
8 0.03
9 -0.15

> <PUBCHEM_EFFECTIVE_ROTOR_COUNT>
6

> <PUBCHEM_PHARMACOPHORE_FEATURES>
6
1 1 cation
1 2 cation
6 5 9 11 13 15 17 rings
6 6 10 12 14 16 18 rings
6 7 19 21 23 25 31 rings
6 8 20 22 24 26 32 rings

> <PUBCHEM_HEAVY_ATOM_COUNT>
32

> <PUBCHEM_ATOM_DEF_STEREO_COUNT>
0

> <PUBCHEM_ATOM_UDEF_STEREO_COUNT>
0

> <PUBCHEM_BOND_DEF_STEREO_COUNT>
0

> <PUBCHEM_BOND_UDEF_STEREO_COUNT>
0

> <PUBCHEM_ISOTOPIC_ATOM_COUNT>
0

> <PUBCHEM_COMPONENT_COUNT>
1

> <PUBCHEM_CACTVS_TAUTO_COUNT>
1

> <PUBCHEM_CONFORMER_ID>
0003DF5700000001

> <PUBCHEM_MMFF94_ENERGY>
149.5086

> <PUBCHEM_FEATURE_SELFOVERLAP>
30.446

> <PUBCHEM_SHAPE_FINGERPRINT>
10006869 2 18260541200585294993
10050765 1 18410573989478599625
10190108 129 18124009270690632617
102385 1 18410857659157445633
10930396 42 17837804440387268000
1100329 8 18266457800738654504
11135609 12 18341058453523454449
11421498 54 18122906426231466817
11578080 2 17822022986157683977
12107698 1 18410575084668879843
12608794 3 18117539916656773835
13140716 1 18337109063501471361
13149001 5 18267030641980711660
133893 2 18060417989470178752
13692114 37 18189615124609270649
13692115 27 18411418440500581078
13757389 114 17977373160150362996
140371 6 17913200967254386057
14955137 171 18048865592115832440
15324884 4 17824848825947092238
15815584 197 17906712723036942254
17492 89 18410862040081785074
17909252 39 18337950087133769130
1813 80 18261101998486203838
20600515 1 17972031711493693536
20905425 154 18335696088038547516
21421861 104 18339077086214493216
21703447 108 18339647745935027618
22033318 11 17904157566638368851
23558518 356 18413671318371786513
23559900 14 18339093656198236353
23576562 1 18129935801436362317
2818148 4 18338783572439592449
283562 15 18049152281046144944
3027735 51 18267019453649025177
3178227 256 17979903132470137297
350125 39 18410284800740677344
3737641 26 18265613182898497423
460360 51 18412261752770101544
5171179 24 18409449185257344730

> <PUBCHEM_SHAPE_MULTIPOLES>
648.58
10.8
6.41
1.5
0.37
1.74
0
-12.07
0.01
-0.37
-0.01
0
0.02
-0.36

> <PUBCHEM_SHAPE_SELFOVERLAP>
1419.301

> <PUBCHEM_SHAPE_VOLUME>
351.5

> <PUBCHEM_COORDINATE_TYPE>
2
5
10

$$$$

