443439
  -OEChem-07051213023D

 24 24  0     1  0  0  0  0  0999 V2000
   -1.2732   -2.2322    0.6308 O   0  0  0  0  0  0  0  0  0  0  0  0
    2.3313    1.7092    0.2904 O   0  0  0  0  0  0  0  0  0  0  0  0
    0.2656    0.9574    0.9458 N   0  0  0  0  0  0  0  0  0  0  0  0
    0.7390   -1.4805   -0.1703 N   0  0  0  0  0  0  0  0  0  0  0  0
   -0.8957    0.1366    0.6666 C   0  0  1  0  0  0  0  0  0  0  0  0
   -1.6639    0.6589   -0.5410 C   0  0  0  0  0  0  0  0  0  0  0  0
   -0.4845   -1.3052    0.4436 C   0  0  0  0  0  0  0  0  0  0  0  0
   -2.9053   -0.1933   -0.8016 C   0  0  0  0  0  0  0  0  0  0  0  0
   -2.0533    2.1233   -0.3417 C   0  0  0  0  0  0  0  0  0  0  0  0
    1.4690    0.8348    0.2869 C   0  0  0  0  0  0  0  0  0  0  0  0
    1.6725   -0.4923   -0.3598 C   0  0  0  0  0  0  0  0  0  0  0  0
    2.7985   -0.7166   -1.0497 C   0  0  0  0  0  0  0  0  0  0  0  0
   -1.5142    0.1710    1.5718 H   0  0  0  0  0  0  0  0  0  0  0  0
   -1.0355    0.6082   -1.4404 H   0  0  0  0  0  0  0  0  0  0  0  0
    0.1159    1.8081    1.4801 H   0  0  0  0  0  0  0  0  0  0  0  0
   -3.5143   -0.3049    0.1021 H   0  0  0  0  0  0  0  0  0  0  0  0
   -3.5353    0.2697   -1.5696 H   0  0  0  0  0  0  0  0  0  0  0  0
   -2.6472   -1.1885   -1.1753 H   0  0  0  0  0  0  0  0  0  0  0  0
   -2.6435    2.2574    0.5714 H   0  0  0  0  0  0  0  0  0  0  0  0
   -2.6560    2.4810   -1.1838 H   0  0  0  0  0  0  0  0  0  0  0  0
   -1.1747    2.7733   -0.2808 H   0  0  0  0  0  0  0  0  0  0  0  0
    0.9748   -2.4168   -0.4884 H   0  0  0  0  0  0  0  0  0  0  0  0
    2.9921   -1.6818   -1.5082 H   0  0  0  0  0  0  0  0  0  0  0  0
    3.5583    0.0459   -1.1850 H   0  0  0  0  0  0  0  0  0  0  0  0
  1  7  2  0  0  0  0
  2 10  2  0  0  0  0
  3  5  1  0  0  0  0
  3 10  1  0  0  0  0
  3 15  1  0  0  0  0
  4  7  1  0  0  0  0
  4 11  1  0  0  0  0
  4 22  1  0  0  0  0
  5  6  1  0  0  0  0
  5  7  1  0  0  0  0
  5 13  1  0  0  0  0
  6  8  1  0  0  0  0
  6  9  1  0  0  0  0
  6 14  1  0  0  0  0
  8 16  1  0  0  0  0
  8 17  1  0  0  0  0
  8 18  1  0  0  0  0
  9 19  1  0  0  0  0
  9 20  1  0  0  0  0
  9 21  1  0  0  0  0
 10 11  1  0  0  0  0
 11 12  2  0  0  0  0
 12 23  1  0  0  0  0
 12 24  1  0  0  0  0
M  END
> <PUBCHEM_COMPOUND_CID>
443439

> <PUBCHEM_CONFORMER_RMSD>
0.4

> <PUBCHEM_CONFORMER_DIVERSEORDER>
2
6
5
4
3
1

> <PUBCHEM_MMFF94_PARTIAL_CHARGES>
13
1 -0.57
10 0.62
11 0.12
12 -0.3
15 0.37
2 -0.57
22 0.37
23 0.15
24 0.15
3 -0.73
4 -0.54
5 0.36
7 0.57

> <PUBCHEM_EFFECTIVE_ROTOR_COUNT>
1.6

> <PUBCHEM_PHARMACOPHORE_FEATURES>
6
1 1 acceptor
1 2 acceptor
1 3 donor
1 4 donor
3 6 8 9 hydrophobe
6 3 4 5 7 10 11 rings

> <PUBCHEM_HEAVY_ATOM_COUNT>
12

> <PUBCHEM_ATOM_DEF_STEREO_COUNT>
1

> <PUBCHEM_ATOM_UDEF_STEREO_COUNT>
0

> <PUBCHEM_BOND_DEF_STEREO_COUNT>
0

> <PUBCHEM_BOND_UDEF_STEREO_COUNT>
0

> <PUBCHEM_ISOTOPIC_ATOM_COUNT>
0

> <PUBCHEM_COMPONENT_COUNT>
1

> <PUBCHEM_CACTVS_TAUTO_COUNT>
4

> <PUBCHEM_CONFORMER_ID>
0006C42F00000002

> <PUBCHEM_MMFF94_ENERGY>
33.0474

> <PUBCHEM_FEATURE_SELFOVERLAP>
30.452

> <PUBCHEM_SHAPE_FINGERPRINT>
11206711 2 18338227266863368773
12138202 97 18127143986588283079
12423570 1 8637687816687585507
12716758 59 18341891900627746002
12897270 3 18411427236619275789
15775835 57 18124871511002579557
16945 1 18412544327173751666
17844478 74 18271225167534933099
18185500 45 17472706204861392243
18534176 82 18198909102059221888
20201158 50 18260829289167939958
21040471 1 18271528688167336698
21922407 69 14836117723995645905
22802520 49 18337101285310098735
23211744 25 18339646762403158819
23402539 116 18196398964236732725
23419403 2 4888761553084634138
23552423 10 18265626557374078381
23559900 14 18263917921406948014
25 1 18052530264312914597
2748010 2 18193267490701656658
5084963 1 18260833725784689065
528886 8 18126564754508878897
549884 4 18119534481471787893

> <PUBCHEM_SHAPE_MULTIPOLES>
225.25
3.77
2.05
0.95
0.16
0.07
0.06
-0.68
1.43
-0.4
-0.31
0.03
0.05
0.48

> <PUBCHEM_SHAPE_SELFOVERLAP>
458.166

> <PUBCHEM_SHAPE_VOLUME>
130.2

> <PUBCHEM_COORDINATE_TYPE>
2
5
10

$$$$

