11953950
  -OEChem-07051213013D

 81 83  0     1  0  0  0  0  0999 V2000
    0.2404    1.6659   -0.4111 O   0  0  0  0  0  0  0  0  0  0  0  0
   -1.1286    4.3452   -0.4870 O   0  0  0  0  0  0  0  0  0  0  0  0
   -0.1245    1.8296    1.9376 O   0  0  0  0  0  0  0  0  0  0  0  0
    1.6779    4.0836    1.8156 O   0  0  0  0  0  0  0  0  0  0  0  0
   -1.6743   -0.4987   -0.0435 O   0  0  0  0  0  0  0  0  0  0  0  0
   -3.0845    0.0301    1.6939 O   0  0  0  0  0  0  0  0  0  0  0  0
    4.4156   -3.1461   -1.1929 O   0  0  0  0  0  0  0  0  0  0  0  0
    4.4710   -2.6300    1.5847 O   0  0  0  0  0  0  0  0  0  0  0  0
    1.8153    3.5365   -0.5461 C   0  0  2  0  0  0  0  0  0  0  0  0
    1.6459    2.0043   -0.3697 C   0  0  2  0  0  0  0  0  0  0  0  0
   -0.5641    2.2540    0.6408 C   0  0  1  0  0  0  0  0  0  0  0  0
    1.0335    4.2693    0.5556 C   0  0  1  0  0  0  0  0  0  0  0  0
   -0.4204    3.8031    0.6270 C   0  0  1  0  0  0  0  0  0  0  0  0
    2.4158    1.1738   -1.4445 C   0  0  1  0  0  0  0  0  0  0  0  0
   -2.0486    1.8154    0.4020 C   0  0  2  0  0  0  0  0  0  0  0  0
    1.3968    4.0246   -1.9430 C   0  0  0  0  0  0  0  0  0  0  0  0
    3.8696    1.6477   -1.6327 C   0  0  0  0  0  0  0  0  0  0  0  0
    2.3475   -0.3181   -1.1526 C   0  0  0  0  0  0  0  0  0  0  0  0
   -3.0742    2.6702    1.1755 C   0  0  0  0  0  0  0  0  0  0  0  0
   -2.3268    0.3596    0.7887 C   0  0  0  0  0  0  0  0  0  0  0  0
    3.3533   -1.0898   -0.7034 C   0  0  0  0  0  0  0  0  0  0  0  0
   -1.0981    5.7639   -0.4770 C   0  0  0  0  0  0  0  0  0  0  0  0
    3.2771   -2.5822   -0.5354 C   0  0  2  0  0  0  0  0  0  0  0  0
    3.2674   -3.0454    0.9334 C   0  0  2  0  0  0  0  0  0  0  0  0
   -2.0182   -1.9136   -0.0234 C   0  0  1  0  0  0  0  0  0  0  0  0
    2.0878   -2.5186    1.7612 C   0  0  0  0  0  0  0  0  0  0  0  0
   -1.7852   -2.5874    1.3513 C   0  0  0  0  0  0  0  0  0  0  0  0
    0.7314   -2.8966    1.1712 C   0  0  0  0  0  0  0  0  0  0  0  0
   -0.4171   -2.3058    1.9819 C   0  0  0  0  0  0  0  0  0  0  0  0
   -3.4181   -2.1177   -0.5088 C   0  0  0  0  0  0  0  0  0  0  0  0
   -4.0172   -1.1574   -1.3206 C   0  0  0  0  0  0  0  0  0  0  0  0
   -4.1167   -3.2672   -0.1475 C   0  0  0  0  0  0  0  0  0  0  0  0
    4.4236   -2.8210   -2.5729 C   0  0  0  0  0  0  0  0  0  0  0  0
    5.6166   -3.0785    0.8798 C   0  0  0  0  0  0  0  0  0  0  0  0
   -5.3227   -1.3476   -1.7736 C   0  0  0  0  0  0  0  0  0  0  0  0
   -5.4222   -3.4574   -0.6006 C   0  0  0  0  0  0  0  0  0  0  0  0
   -6.0251   -2.4976   -1.4136 C   0  0  0  0  0  0  0  0  0  0  0  0
    2.8746    3.7855   -0.4050 H   0  0  0  0  0  0  0  0  0  0  0  0
    2.0374    1.7043    0.6111 H   0  0  0  0  0  0  0  0  0  0  0  0
    1.1259    5.3430    0.3810 H   0  0  0  0  0  0  0  0  0  0  0  0
   -0.8612    4.1935    1.5553 H   0  0  0  0  0  0  0  0  0  0  0  0
    1.9058    1.2964   -2.4098 H   0  0  0  0  0  0  0  0  0  0  0  0
   -2.2916    1.9031   -0.6657 H   0  0  0  0  0  0  0  0  0  0  0  0
    0.3968    3.6894   -2.2288 H   0  0  0  0  0  0  0  0  0  0  0  0
    2.0767    3.6520   -2.7143 H   0  0  0  0  0  0  0  0  0  0  0  0
    1.4415    5.1157   -2.0063 H   0  0  0  0  0  0  0  0  0  0  0  0
    3.9230    2.6445   -2.0773 H   0  0  0  0  0  0  0  0  0  0  0  0
    4.4062    1.6846   -0.6780 H   0  0  0  0  0  0  0  0  0  0  0  0
    4.4185    0.9852   -2.3122 H   0  0  0  0  0  0  0  0  0  0  0  0
    1.3960   -0.7913   -1.3874 H   0  0  0  0  0  0  0  0  0  0  0  0
   -3.1118    3.7020    0.8181 H   0  0  0  0  0  0  0  0  0  0  0  0
   -4.0884    2.2705    1.0559 H   0  0  0  0  0  0  0  0  0  0  0  0
   -2.8492    2.6863    2.2478 H   0  0  0  0  0  0  0  0  0  0  0  0
   -0.5023    0.9595    2.1357 H   0  0  0  0  0  0  0  0  0  0  0  0
    1.5152    3.1744    2.1161 H   0  0  0  0  0  0  0  0  0  0  0  0
    4.3049   -0.6318   -0.4480 H   0  0  0  0  0  0  0  0  0  0  0  0
   -1.9603    6.1095   -1.0565 H   0  0  0  0  0  0  0  0  0  0  0  0
   -1.1975    6.1774    0.5323 H   0  0  0  0  0  0  0  0  0  0  0  0
   -0.2138    6.1626   -0.9769 H   0  0  0  0  0  0  0  0  0  0  0  0
    2.3869   -2.9837   -1.0340 H   0  0  0  0  0  0  0  0  0  0  0  0
    3.2455   -4.1436    0.9595 H   0  0  0  0  0  0  0  0  0  0  0  0
   -1.3575   -2.3819   -0.7624 H   0  0  0  0  0  0  0  0  0  0  0  0
    2.1692   -2.9119    2.7830 H   0  0  0  0  0  0  0  0  0  0  0  0
    2.1653   -1.4289    1.8677 H   0  0  0  0  0  0  0  0  0  0  0  0
   -2.5521   -2.2832    2.0731 H   0  0  0  0  0  0  0  0  0  0  0  0
   -1.8635   -3.6771    1.2600 H   0  0  0  0  0  0  0  0  0  0  0  0
    0.6588   -2.5297    0.1462 H   0  0  0  0  0  0  0  0  0  0  0  0
    0.6363   -3.9882    1.1313 H   0  0  0  0  0  0  0  0  0  0  0  0
   -0.4011   -2.7389    2.9898 H   0  0  0  0  0  0  0  0  0  0  0  0
   -0.2751   -1.2281    2.1055 H   0  0  0  0  0  0  0  0  0  0  0  0
   -3.4923   -0.2654   -1.6485 H   0  0  0  0  0  0  0  0  0  0  0  0
   -3.6913   -4.0570    0.4601 H   0  0  0  0  0  0  0  0  0  0  0  0
    5.1657   -3.4616   -3.0592 H   0  0  0  0  0  0  0  0  0  0  0  0
    4.7338   -1.7859   -2.7437 H   0  0  0  0  0  0  0  0  0  0  0  0
    3.4547   -3.0183   -3.0435 H   0  0  0  0  0  0  0  0  0  0  0  0
    5.9663   -2.3471    0.1458 H   0  0  0  0  0  0  0  0  0  0  0  0
    5.5356   -4.1096    0.5187 H   0  0  0  0  0  0  0  0  0  0  0  0
    6.4251   -3.1086    1.6210 H   0  0  0  0  0  0  0  0  0  0  0  0
   -5.7898   -0.6041   -2.4129 H   0  0  0  0  0  0  0  0  0  0  0  0
   -5.9678   -4.3554   -0.3259 H   0  0  0  0  0  0  0  0  0  0  0  0
   -7.0404   -2.6472   -1.7688 H   0  0  0  0  0  0  0  0  0  0  0  0
  1 10  1  0  0  0  0
  1 11  1  0  0  0  0
  2 13  1  0  0  0  0
  2 22  1  0  0  0  0
  3 11  1  0  0  0  0
  3 54  1  0  0  0  0
  4 12  1  0  0  0  0
  4 55  1  0  0  0  0
  5 20  1  0  0  0  0
  5 25  1  0  0  0  0
  6 20  2  0  0  0  0
  7 23  1  0  0  0  0
  7 33  1  0  0  0  0
  8 24  1  0  0  0  0
  8 34  1  0  0  0  0
  9 10  1  0  0  0  0
  9 12  1  0  0  0  0
  9 16  1  0  0  0  0
  9 38  1  0  0  0  0
 10 14  1  0  0  0  0
 10 39  1  0  0  0  0
 11 13  1  0  0  0  0
 11 15  1  0  0  0  0
 12 13  1  0  0  0  0
 12 40  1  0  0  0  0
 13 41  1  0  0  0  0
 14 17  1  0  0  0  0
 14 18  1  0  0  0  0
 14 42  1  0  0  0  0
 15 19  1  0  0  0  0
 15 20  1  0  0  0  0
 15 43  1  0  0  0  0
 16 44  1  0  0  0  0
 16 45  1  0  0  0  0
 16 46  1  0  0  0  0
 17 47  1  0  0  0  0
 17 48  1  0  0  0  0
 17 49  1  0  0  0  0
 18 21  2  0  0  0  0
 18 50  1  0  0  0  0
 19 51  1  0  0  0  0
 19 52  1  0  0  0  0
 19 53  1  0  0  0  0
 21 23  1  0  0  0  0
 21 56  1  0  0  0  0
 22 57  1  0  0  0  0
 22 58  1  0  0  0  0
 22 59  1  0  0  0  0
 23 24  1  0  0  0  0
 23 60  1  0  0  0  0
 24 26  1  0  0  0  0
 24 61  1  0  0  0  0
 25 27  1  0  0  0  0
 25 30  1  0  0  0  0
 25 62  1  0  0  0  0
 26 28  1  0  0  0  0
 26 63  1  0  0  0  0
 26 64  1  0  0  0  0
 27 29  1  0  0  0  0
 27 65  1  0  0  0  0
 27 66  1  0  0  0  0
 28 29  1  0  0  0  0
 28 67  1  0  0  0  0
 28 68  1  0  0  0  0
 29 69  1  0  0  0  0
 29 70  1  0  0  0  0
 30 31  2  0  0  0  0
 30 32  1  0  0  0  0
 31 35  1  0  0  0  0
 31 71  1  0  0  0  0
 32 36  2  0  0  0  0
 32 72  1  0  0  0  0
 33 73  1  0  0  0  0
 33 74  1  0  0  0  0
 33 75  1  0  0  0  0
 34 76  1  0  0  0  0
 34 77  1  0  0  0  0
 34 78  1  0  0  0  0
 35 37  2  0  0  0  0
 35 79  1  0  0  0  0
 36 37  1  0  0  0  0
 36 80  1  0  0  0  0
 37 81  1  0  0  0  0
M  END
> <PUBCHEM_COMPOUND_CID>
11953950

> <PUBCHEM_CONFORMER_RMSD>
1

> <PUBCHEM_CONFORMER_DIVERSEORDER>
1
2

> <PUBCHEM_MMFF94_PARTIAL_CHARGES>
38
1 -0.56
10 0.28
11 0.56
12 0.28
13 0.28
14 0.14
15 0.06
18 -0.29
2 -0.56
20 0.66
21 -0.29
22 0.28
23 0.42
24 0.28
25 0.42
3 -0.68
30 -0.14
31 -0.15
32 -0.15
33 0.28
34 0.28
35 -0.15
36 -0.15
37 -0.15
4 -0.68
5 -0.43
50 0.15
54 0.4
55 0.4
56 0.15
6 -0.57
7 -0.56
71 0.15
72 0.15
79 0.15
8 -0.56
80 0.15
81 0.15

> <PUBCHEM_EFFECTIVE_ROTOR_COUNT>
6.8

> <PUBCHEM_PHARMACOPHORE_FEATURES>
11
1 1 acceptor
1 2 acceptor
1 3 acceptor
1 3 donor
1 4 acceptor
1 4 donor
1 6 acceptor
1 7 acceptor
1 8 acceptor
6 1 9 10 11 12 13 rings
6 30 31 32 35 36 37 rings

> <PUBCHEM_HEAVY_ATOM_COUNT>
37

> <PUBCHEM_ATOM_DEF_STEREO_COUNT>
9

> <PUBCHEM_ATOM_UDEF_STEREO_COUNT>
1

> <PUBCHEM_BOND_DEF_STEREO_COUNT>
1

> <PUBCHEM_BOND_UDEF_STEREO_COUNT>
0

> <PUBCHEM_ISOTOPIC_ATOM_COUNT>
0

> <PUBCHEM_COMPONENT_COUNT>
1

> <PUBCHEM_CACTVS_TAUTO_COUNT>
1

> <PUBCHEM_CONFORMER_ID>
00B6671E00000001

> <PUBCHEM_MMFF94_ENERGY>
131.3955

> <PUBCHEM_FEATURE_SELFOVERLAP>
55.862

> <PUBCHEM_SHAPE_FINGERPRINT>
10675989 125 18049442540016563177
1100329 8 18268985560774854353
11135609 149 18045532771019744983
11513181 2 18191571151088965974
11720765 8 18265349334526027149
12156800 1 14615229257202113562
12788726 201 18124858299894173338
14068700 675 18271539696643841654
14114206 34 17982131682997231742
14150022 121 17982204342030597810
15264996 163 18127403669122506029
15297060 5 17108199429909507008
15351339 4 18201731634302151723
15419009 47 17399786594178027566
15420108 30 17332250200025132725
15721738 15 17979919302937175301
15775530 1 17700404789671376963
15968369 153 18268129002651698058
15968369 26 17837798641691443803
16067689 391 17614789238458151902
19026451 147 18339652143908283010
20737093 15 17047995628794862269
20764821 26 18271232928657089346
20775438 99 17832166934513100199
20775530 9 18340469145550526436
21315764 21 17203608194137189798
21703447 108 18042970869740200593
23559900 14 17978792303344468981
238 59 17831005832631214662
3298306 158 17764031264038059967
3388396 114 18340194199135154644
3882209 13 18339941358489277410
4017518 198 16897367014669766430
4066623 53 18198367167887377925
44880168 125 17681531955689474278
463206 1 18339640156754111185
5223283 242 18342470218870880589
6608658 132 18053382381803923075
6669772 16 17832715564918072227

> <PUBCHEM_SHAPE_MULTIPOLES>
714.49
10.15
8.12
2.06
8.37
8.3
0.14
-14.21
5.05
-4.88
-0.64
-0.82
-0.71
-1.65

> <PUBCHEM_SHAPE_SELFOVERLAP>
1472.988

> <PUBCHEM_SHAPE_VOLUME>
405.8

> <PUBCHEM_COORDINATE_TYPE>
2
5
10

$$$$

