17531
  -OEChem-07051213123D

 37 38  0     0  0  0  0  0  0999 V2000
   -1.4847    0.1700   -1.0863 S   0  0  0  0  0  0  0  0  0  0  0  0
   -4.7998   -0.3610   -2.1370 S   0  0  0  0  0  0  0  0  0  0  0  0
   -3.5476   -0.1095   -0.6475 P   0  0  0  0  0  0  0  0  0  0  0  0
   -3.9934    1.1187    0.3359 O   0  0  0  0  0  0  0  0  0  0  0  0
   -3.6431   -1.3208    0.4471 O   0  0  0  0  0  0  0  0  0  0  0  0
    1.2920   -1.9545    0.1064 O   0  0  0  0  0  0  0  0  0  0  0  0
    0.7848    0.3016    0.3440 N   0  0  0  0  0  0  0  0  0  0  0  0
    1.2041    1.6027    0.3879 N   0  0  0  0  0  0  0  0  0  0  0  0
    2.4068    1.9172    0.2604 N   0  0  0  0  0  0  0  0  0  0  0  0
   -0.6474    0.1203    0.5095 C   0  0  0  0  0  0  0  0  0  0  0  0
    3.0469   -0.4281    0.0028 C   0  0  0  0  0  0  0  0  0  0  0  0
    1.6344   -0.7769    0.1540 C   0  0  0  0  0  0  0  0  0  0  0  0
    3.3688    0.9210    0.0646 C   0  0  0  0  0  0  0  0  0  0  0  0
    4.0278   -1.4049   -0.1950 C   0  0  0  0  0  0  0  0  0  0  0  0
    4.7109    1.2937   -0.0761 C   0  0  0  0  0  0  0  0  0  0  0  0
   -4.0702    2.4442   -0.1620 C   0  0  0  0  0  0  0  0  0  0  0  0
   -3.3384   -2.6534    0.0700 C   0  0  0  0  0  0  0  0  0  0  0  0
    5.3595   -1.0196   -0.3336 C   0  0  0  0  0  0  0  0  0  0  0  0
    5.7018    0.3296   -0.2744 C   0  0  0  0  0  0  0  0  0  0  0  0
   -4.5037    3.3669    0.9572 C   0  0  0  0  0  0  0  0  0  0  0  0
   -3.5095   -3.5573    1.2722 C   0  0  0  0  0  0  0  0  0  0  0  0
   -0.8371   -0.8496    0.9787 H   0  0  0  0  0  0  0  0  0  0  0  0
   -1.0421    0.9030    1.1655 H   0  0  0  0  0  0  0  0  0  0  0  0
    3.7740   -2.4599   -0.2432 H   0  0  0  0  0  0  0  0  0  0  0  0
    4.9944    2.3428   -0.0324 H   0  0  0  0  0  0  0  0  0  0  0  0
   -3.0909    2.7506   -0.5407 H   0  0  0  0  0  0  0  0  0  0  0  0
   -4.7955    2.4937   -0.9788 H   0  0  0  0  0  0  0  0  0  0  0  0
   -4.0110   -2.9771   -0.7289 H   0  0  0  0  0  0  0  0  0  0  0  0
   -2.3083   -2.7061   -0.2942 H   0  0  0  0  0  0  0  0  0  0  0  0
    6.1296   -1.7697   -0.4877 H   0  0  0  0  0  0  0  0  0  0  0  0
    6.7392    0.6323   -0.3823 H   0  0  0  0  0  0  0  0  0  0  0  0
   -4.5726    4.4006    0.6072 H   0  0  0  0  0  0  0  0  0  0  0  0
   -5.4780    3.0619    1.3529 H   0  0  0  0  0  0  0  0  0  0  0  0
   -3.7938    3.3222    1.7898 H   0  0  0  0  0  0  0  0  0  0  0  0
   -3.2820   -4.5958    1.0161 H   0  0  0  0  0  0  0  0  0  0  0  0
   -2.8501   -3.2419    2.0877 H   0  0  0  0  0  0  0  0  0  0  0  0
   -4.5348   -3.5032    1.6527 H   0  0  0  0  0  0  0  0  0  0  0  0
  1  3  1  0  0  0  0
  1 10  1  0  0  0  0
  2  3  2  0  0  0  0
  3  4  1  0  0  0  0
  3  5  1  0  0  0  0
  4 16  1  0  0  0  0
  5 17  1  0  0  0  0
  6 12  2  0  0  0  0
  7  8  1  0  0  0  0
  7 10  1  0  0  0  0
  7 12  1  0  0  0  0
  8  9  2  0  0  0  0
  9 13  1  0  0  0  0
 10 22  1  0  0  0  0
 10 23  1  0  0  0  0
 11 12  1  0  0  0  0
 11 13  1  0  0  0  0
 11 14  2  0  0  0  0
 13 15  2  0  0  0  0
 14 18  1  0  0  0  0
 14 24  1  0  0  0  0
 15 19  1  0  0  0  0
 15 25  1  0  0  0  0
 16 20  1  0  0  0  0
 16 26  1  0  0  0  0
 16 27  1  0  0  0  0
 17 21  1  0  0  0  0
 17 28  1  0  0  0  0
 17 29  1  0  0  0  0
 18 19  2  0  0  0  0
 18 30  1  0  0  0  0
 19 31  1  0  0  0  0
 20 32  1  0  0  0  0
 20 33  1  0  0  0  0
 20 34  1  0  0  0  0
 21 35  1  0  0  0  0
 21 36  1  0  0  0  0
 21 37  1  0  0  0  0
M  END
> <PUBCHEM_COMPOUND_CID>
17531

> <PUBCHEM_CONFORMER_RMSD>
0.8

> <PUBCHEM_CONFORMER_DIVERSEORDER>
1
40
36
35
28
30
17
34
27
20
10
47
16
23
37
48
13
5
21
25
32
33
39
46
18
38
6
26
14
42
9
15
24
41
11
3
19
8
4
2
7
44
12
22
31
43
29
45

> <PUBCHEM_MMFF94_PARTIAL_CHARGES>
23
1 -0.48
10 0.53
11 0.09
12 0.54
13 0.18
14 -0.15
15 -0.15
16 0.28
17 0.28
18 -0.15
19 -0.15
2 -0.68
24 0.15
25 0.15
3 1.47
30 0.15
31 0.15
4 -0.55
5 -0.55
6 -0.57
7 -0.3
8 -0.06
9 -0.18

> <PUBCHEM_EFFECTIVE_ROTOR_COUNT>
7

> <PUBCHEM_PHARMACOPHORE_FEATURES>
3
1 6 acceptor
6 11 13 14 15 18 19 rings
6 7 8 9 11 12 13 rings

> <PUBCHEM_HEAVY_ATOM_COUNT>
21

> <PUBCHEM_ATOM_DEF_STEREO_COUNT>
0

> <PUBCHEM_ATOM_UDEF_STEREO_COUNT>
0

> <PUBCHEM_BOND_DEF_STEREO_COUNT>
0

> <PUBCHEM_BOND_UDEF_STEREO_COUNT>
0

> <PUBCHEM_ISOTOPIC_ATOM_COUNT>
0

> <PUBCHEM_COMPONENT_COUNT>
1

> <PUBCHEM_CACTVS_TAUTO_COUNT>
1

> <PUBCHEM_CONFORMER_ID>
0000447B00000001

> <PUBCHEM_MMFF94_ENERGY>
37.695

> <PUBCHEM_FEATURE_SELFOVERLAP>
15.254

> <PUBCHEM_SHAPE_FINGERPRINT>
10366900 7 18262532407310305767
11014199 57 18200026223427893397
11036077 51 18410853309214664627
11370993 144 18340483486378041903
11405975 8 18413109476345516634
11552529 35 18340772520729581223
12107183 9 17686341271357310467
12236239 1 17821732754006133684
12596602 18 14996573845288786775
12788726 201 17606401201129658433
14251757 5 18336265738362568145
14341114 176 18341045233888053277
15196674 1 18410292502180885354
15788980 27 17748547039146448820
17349148 13 5833700305479825973
17844677 252 18337665330728308052
200 152 18040719155709147434
21709351 56 18335143111073047148
221357 26 18261680281366681543
221490 88 18339358540017073490
23402539 116 18334017224272548300
23402655 69 18334577988024331772
23559900 14 18267878198416391945
4073 2 18413105048577171218
4214541 1 18410011048352210417
5104073 3 18410860958213900128
543358 83 18337672048199278608
90127 26 17967536748612869904

> <PUBCHEM_SHAPE_MULTIPOLES>
411.17
13.45
3.27
1.14
6.24
0.43
0.42
-1.51
1.84
-5.52
-1.61
-1.91
0.22
0.11

> <PUBCHEM_SHAPE_SELFOVERLAP>
802.855

> <PUBCHEM_SHAPE_VOLUME>
251

> <PUBCHEM_COORDINATE_TYPE>
2
5
10

$$$$

