7846951
  -OEChem-06241222483D

 44 47  0     0  0  0  0  0  0999 V2000
    5.2756   -1.9643   -1.8694 Cl  0  0  0  0  0  0  0  0  0  0  0  0
   -4.2209    0.4124    0.8054 S   0  0  0  0  0  0  0  0  0  0  0  0
   -1.0904   -1.9641    0.6883 O   0  0  0  0  0  0  0  0  0  0  0  0
    2.1748    1.7143    1.5452 O   0  0  0  0  0  0  0  0  0  0  0  0
   -1.4263   -3.9877   -0.3674 O   0  0  0  0  0  0  0  0  0  0  0  0
    0.2393    2.2536    2.6369 O   0  0  0  0  0  0  0  0  0  0  0  0
   -2.9609   -0.5100   -1.2474 N   0  0  0  0  0  0  0  0  0  0  0  0
    2.2887   -0.3680    0.2732 C   0  0  0  0  0  0  0  0  0  0  0  0
    0.9007   -0.6522    0.6622 C   0  0  0  0  0  0  0  0  0  0  0  0
    2.8829    0.8097    0.7291 C   0  0  0  0  0  0  0  0  0  0  0  0
   -4.1844   -2.2302    0.0353 C   0  0  0  0  0  0  0  0  0  0  0  0
    0.2329   -1.9103    0.1897 C   0  0  0  0  0  0  0  0  0  0  0  0
   -3.2049   -2.9732    0.9453 C   0  0  0  0  0  0  0  0  0  0  0  0
    3.0597   -1.2142   -0.5350 C   0  0  0  0  0  0  0  0  0  0  0  0
   -3.7215   -0.8234   -0.2446 C   0  0  0  0  0  0  0  0  0  0  0  0
    4.9451    0.3023   -0.3970 C   0  0  0  0  0  0  0  0  0  0  0  0
    4.1965    1.1557    0.4065 C   0  0  0  0  0  0  0  0  0  0  0  0
    0.2513    0.2265    1.4387 C   0  0  0  0  0  0  0  0  0  0  0  0
    4.3777   -0.8807   -0.8673 C   0  0  0  0  0  0  0  0  0  0  0  0
   -1.8256   -3.0682    0.3335 C   0  0  0  0  0  0  0  0  0  0  0  0
   -3.3354    1.5382   -0.1547 C   0  0  0  0  0  0  0  0  0  0  0  0
   -2.7256    0.8567   -1.2122 C   0  0  0  0  0  0  0  0  0  0  0  0
    0.8641    1.4734    1.9270 C   0  0  0  0  0  0  0  0  0  0  0  0
    6.3488    0.6897   -0.7331 C   0  0  0  0  0  0  0  0  0  0  0  0
   -3.1907    2.9244    0.0158 C   0  0  0  0  0  0  0  0  0  0  0  0
   -1.9439    1.5910   -2.1304 C   0  0  0  0  0  0  0  0  0  0  0  0
   -2.4119    3.6273   -0.9068 C   0  0  0  0  0  0  0  0  0  0  0  0
   -1.7957    2.9712   -1.9667 C   0  0  0  0  0  0  0  0  0  0  0  0
   -5.1838   -2.2325    0.4863 H   0  0  0  0  0  0  0  0  0  0  0  0
   -4.2698   -2.7612   -0.9213 H   0  0  0  0  0  0  0  0  0  0  0  0
    0.7865   -2.7843    0.5535 H   0  0  0  0  0  0  0  0  0  0  0  0
    0.2002   -1.9236   -0.9064 H   0  0  0  0  0  0  0  0  0  0  0  0
   -3.5605   -3.9942    1.1263 H   0  0  0  0  0  0  0  0  0  0  0  0
   -3.1273   -2.4973    1.9303 H   0  0  0  0  0  0  0  0  0  0  0  0
    2.6414   -2.1434   -0.9158 H   0  0  0  0  0  0  0  0  0  0  0  0
    4.6178    2.0834    0.7840 H   0  0  0  0  0  0  0  0  0  0  0  0
   -0.7731    0.0768    1.7630 H   0  0  0  0  0  0  0  0  0  0  0  0
    6.4686    0.8010   -1.8158 H   0  0  0  0  0  0  0  0  0  0  0  0
    6.6282    1.6463   -0.2778 H   0  0  0  0  0  0  0  0  0  0  0  0
    7.0545   -0.0612   -0.3628 H   0  0  0  0  0  0  0  0  0  0  0  0
   -3.6683    3.4431    0.8413 H   0  0  0  0  0  0  0  0  0  0  0  0
   -1.4570    1.0881   -2.9611 H   0  0  0  0  0  0  0  0  0  0  0  0
   -2.2865    4.7009   -0.7927 H   0  0  0  0  0  0  0  0  0  0  0  0
   -1.1929    3.5343   -2.6739 H   0  0  0  0  0  0  0  0  0  0  0  0
  1 19  1  0  0  0  0
  2 15  1  0  0  0  0
  2 21  1  0  0  0  0
  3 12  1  0  0  0  0
  3 20  1  0  0  0  0
  4 10  1  0  0  0  0
  4 23  1  0  0  0  0
  5 20  2  0  0  0  0
  6 23  2  0  0  0  0
  7 15  2  0  0  0  0
  7 22  1  0  0  0  0
  8  9  1  0  0  0  0
  8 10  2  0  0  0  0
  8 14  1  0  0  0  0
  9 12  1  0  0  0  0
  9 18  2  0  0  0  0
 10 17  1  0  0  0  0
 11 13  1  0  0  0  0
 11 15  1  0  0  0  0
 11 29  1  0  0  0  0
 11 30  1  0  0  0  0
 12 31  1  0  0  0  0
 12 32  1  0  0  0  0
 13 20  1  0  0  0  0
 13 33  1  0  0  0  0
 13 34  1  0  0  0  0
 14 19  2  0  0  0  0
 14 35  1  0  0  0  0
 16 17  2  0  0  0  0
 16 19  1  0  0  0  0
 16 24  1  0  0  0  0
 17 36  1  0  0  0  0
 18 23  1  0  0  0  0
 18 37  1  0  0  0  0
 21 22  1  0  0  0  0
 21 25  2  0  0  0  0
 22 26  2  0  0  0  0
 24 38  1  0  0  0  0
 24 39  1  0  0  0  0
 24 40  1  0  0  0  0
 25 27  1  0  0  0  0
 25 41  1  0  0  0  0
 26 28  1  0  0  0  0
 26 42  1  0  0  0  0
 27 28  2  0  0  0  0
 27 43  1  0  0  0  0
 28 44  1  0  0  0  0
M  END
> <PUBCHEM_COMPOUND_CID>
7846951

> <PUBCHEM_CONFORMER_RMSD>
1

> <PUBCHEM_CONFORMER_DIVERSEORDER>
1
58
98
75
183
203
134
6
78
208
120
239
173
107
150
172
125
115
48
169
123
258
140
274
13
171
287
39
26
118
136
243
91
89
215
29
7
263
88
38
238
283
247
77
60
276
141
272
42
53
159
17
254
209
93
8
102
185
135
32
64
236
187
280
101
151
290
14
259
104
138
227
143
108
154
248
253
288
198
19
271
277
206
245
144
70
73
218
128
105
139
129
193
11
240
181
205
200
16
25
195
158
27
122
289
242
224
233
235
133
21
106
52
68
160
279
79
212
33
132
35
179
80
148
155
199
43
157
223
20
201
275
59
174
175
71
190
82
10
142
113
166
51
146
180
260
61
222
176
241
232
31
36
37
249
23
85
54
220
286
285
86
65
116
74
94
127
99
84
264
194
207
57
18
95
225
103
12
15
162
49
266
66
237
265
182
282
156
126
216
137
261
3
41
40
147
191
153
214
270
246
278
109
30
184
197
69
229
189
72
161
87
196
284
230
178
213
131
44
67
50
100
202
56
186
267
55
9
119
262
256
231
252
45
211
165
130
5
221
145
121
204
167
47
281
152
124
269
2
273
177
46
117
251
149
217
168
83
24
81
62
96
34
228
226
163
170
250
22
268
234
4
188
219
63
111
210
28
244
110
97
255
112
164
90
92
114
257
192
76

> <PUBCHEM_MMFF94_PARTIAL_CHARGES>
35
1 -0.18
10 0.08
11 0.18
12 0.42
13 0.06
14 -0.15
15 0.2
16 -0.14
17 -0.15
18 -0.14
19 0.18
2 -0.08
20 0.66
21 0.04
22 0.23
23 0.71
24 0.14
25 -0.15
26 -0.15
27 -0.15
28 -0.15
3 -0.43
35 0.15
36 0.15
37 0.15
4 -0.23
41 0.15
42 0.15
43 0.15
44 0.15
5 -0.57
6 -0.57
7 -0.57
8 0.03
9 -0.17

> <PUBCHEM_EFFECTIVE_ROTOR_COUNT>
6

> <PUBCHEM_PHARMACOPHORE_FEATURES>
7
1 5 acceptor
1 6 acceptor
1 7 acceptor
5 2 7 15 21 22 rings
6 21 22 25 26 27 28 rings
6 4 8 9 10 18 23 rings
6 8 10 14 16 17 19 rings

> <PUBCHEM_HEAVY_ATOM_COUNT>
28

> <PUBCHEM_ATOM_DEF_STEREO_COUNT>
0

> <PUBCHEM_ATOM_UDEF_STEREO_COUNT>
0

> <PUBCHEM_BOND_DEF_STEREO_COUNT>
0

> <PUBCHEM_BOND_UDEF_STEREO_COUNT>
0

> <PUBCHEM_ISOTOPIC_ATOM_COUNT>
0

> <PUBCHEM_COMPONENT_COUNT>
1

> <PUBCHEM_CACTVS_TAUTO_COUNT>
2

> <PUBCHEM_CONFORMER_ID>
0077BC2700000001

> <PUBCHEM_MMFF94_ENERGY>
67.2255

> <PUBCHEM_FEATURE_SELFOVERLAP>
35.62

> <PUBCHEM_SHAPE_FINGERPRINT>
10165383 225 18195518423464873513
10366900 7 18335719229717503045
10498660 4 18058748956414536293
10670039 82 18131066069577593462
107951 10 18190743244412851109
11595378 159 17632027381009187098
13402501 40 18334294240978253519
140371 6 16680078713290110418
14114206 34 17679601191743801001
14251757 17 18335138709053114058
14251757 5 18409725166654398384
14279260 333 17607519430663013398
14713325 29 18201428186299329835
14910302 57 18335987493016322690
14955137 171 18055903309217601163
15021287 119 16629975442481815938
151778 21 17621327161792693589
15183329 4 18060705013919123726
15324884 4 17977401434189175923
15463212 79 17988649613818005370
15575132 122 17846221115666640405
15840311 113 17896606086513937363
15961568 22 17840313211920585468
19958102 18 18411415146392332950
21033650 10 18059841892832588070
221357 26 18187368705476704515
22182313 1 18041572325926125664
22907989 373 17987542414604808629
23536364 44 18044366352207152726
23557571 272 18271245993499236574
238 59 17476679780334836357
3524813 1 18335707083523980043
4058900 60 17688020234541495545
4098825 35 18272080601178485838
469060 322 17845355705404591059
508706 21 18411706495134314359
5252454 2 18197222666313846481
5283173 99 18410571808368007578
6287921 2 17617382784023529393
7399639 24 17538861186932477578

> <PUBCHEM_SHAPE_MULTIPOLES>
553.49
10.89
4.16
1.84
13.69
0.97
-0.19
0.41
3.65
-5.04
0.57
0.29
-1.15
2.24

> <PUBCHEM_SHAPE_SELFOVERLAP>
1191.848

> <PUBCHEM_SHAPE_VOLUME>
307.1

> <PUBCHEM_COORDINATE_TYPE>
2
5
10

$$$$

