4355
  -OEChem-06261200043D

 50 51  0     1  0  0  0  0  0999 V2000
   -1.3968    1.3431   -0.3797 O   0  0  0  0  0  0  0  0  0  0  0  0
   -1.6605   -2.0681   -0.7821 O   0  0  0  0  0  0  0  0  0  0  0  0
   -3.1162    1.8022   -1.8253 O   0  0  0  0  0  0  0  0  0  0  0  0
   -3.2617    0.0234   -0.3529 N   0  0  0  0  0  0  0  0  0  0  0  0
   -0.6685   -1.7567    1.3007 N   0  0  0  0  0  0  0  0  0  0  0  0
    0.4255   -2.5510    0.9993 N   0  0  0  0  0  0  0  0  0  0  0  0
    6.2149   -1.7485   -1.2381 N   0  0  0  0  0  0  0  0  0  0  0  0
   -2.7457   -0.6705    0.8183 C   0  0  1  0  0  0  0  0  0  0  0  0
   -3.9391   -1.4512    1.3576 C   0  0  0  0  0  0  0  0  0  0  0  0
   -4.7808   -1.7222    0.1117 C   0  0  0  0  0  0  0  0  0  0  0  0
   -4.5850   -0.4665   -0.7236 C   0  0  0  0  0  0  0  0  0  0  0  0
   -1.6519   -1.5795    0.3454 C   0  0  0  0  0  0  0  0  0  0  0  0
   -2.6304    1.1156   -0.9291 C   0  0  0  0  0  0  0  0  0  0  0  0
    1.4981   -1.7409    0.4380 C   0  0  0  0  0  0  0  0  0  0  0  0
    2.7304   -2.6043    0.1680 C   0  0  0  0  0  0  0  0  0  0  0  0
    3.8728   -1.7658   -0.4149 C   0  0  0  0  0  0  0  0  0  0  0  0
   -0.6688    2.4554   -0.9121 C   0  0  0  0  0  0  0  0  0  0  0  0
    5.1467   -2.5702   -0.6820 C   0  0  0  0  0  0  0  0  0  0  0  0
    0.6501    2.5613   -0.2045 C   0  0  0  0  0  0  0  0  0  0  0  0
    0.7534    3.3337    0.9472 C   0  0  0  0  0  0  0  0  0  0  0  0
    1.7571    1.8861   -0.7064 C   0  0  0  0  0  0  0  0  0  0  0  0
    1.9793    3.4322    1.6051 C   0  0  0  0  0  0  0  0  0  0  0  0
    2.9830    1.9845   -0.0482 C   0  0  0  0  0  0  0  0  0  0  0  0
    3.0940    2.7576    1.1076 C   0  0  0  0  0  0  0  0  0  0  0  0
   -2.3662    0.0504    1.5507 H   0  0  0  0  0  0  0  0  0  0  0  0
   -3.6642   -2.3730    1.8790 H   0  0  0  0  0  0  0  0  0  0  0  0
   -4.5120   -0.8221    2.0499 H   0  0  0  0  0  0  0  0  0  0  0  0
   -5.8326   -1.9129    0.3424 H   0  0  0  0  0  0  0  0  0  0  0  0
   -4.3879   -2.5955   -0.4221 H   0  0  0  0  0  0  0  0  0  0  0  0
   -5.3123    0.3101   -0.4628 H   0  0  0  0  0  0  0  0  0  0  0  0
   -4.6347   -0.6475   -1.8011 H   0  0  0  0  0  0  0  0  0  0  0  0
   -0.7127   -1.3317    2.2218 H   0  0  0  0  0  0  0  0  0  0  0  0
    0.7353   -2.9760    1.8726 H   0  0  0  0  0  0  0  0  0  0  0  0
    1.1703   -1.2793   -0.5014 H   0  0  0  0  0  0  0  0  0  0  0  0
    1.7647   -0.9339    1.1321 H   0  0  0  0  0  0  0  0  0  0  0  0
    3.0672   -3.0772    1.0991 H   0  0  0  0  0  0  0  0  0  0  0  0
    2.4767   -3.4104   -0.5316 H   0  0  0  0  0  0  0  0  0  0  0  0
    3.5365   -1.2974   -1.3487 H   0  0  0  0  0  0  0  0  0  0  0  0
    4.1070   -0.9526    0.2834 H   0  0  0  0  0  0  0  0  0  0  0  0
   -0.5109    2.3128   -1.9884 H   0  0  0  0  0  0  0  0  0  0  0  0
   -1.2481    3.3769   -0.7744 H   0  0  0  0  0  0  0  0  0  0  0  0
    4.9272   -3.3832   -1.3825 H   0  0  0  0  0  0  0  0  0  0  0  0
    5.4962   -3.0277    0.2504 H   0  0  0  0  0  0  0  0  0  0  0  0
   -0.1091    3.8613    1.3449 H   0  0  0  0  0  0  0  0  0  0  0  0
    1.6817    1.2794   -1.6047 H   0  0  0  0  0  0  0  0  0  0  0  0
    6.4461   -1.0001   -0.5860 H   0  0  0  0  0  0  0  0  0  0  0  0
    7.0582   -2.3119   -1.3384 H   0  0  0  0  0  0  0  0  0  0  0  0
    2.0658    4.0337    2.5053 H   0  0  0  0  0  0  0  0  0  0  0  0
    3.8523    1.4638   -0.4380 H   0  0  0  0  0  0  0  0  0  0  0  0
    4.0488    2.8348    1.6194 H   0  0  0  0  0  0  0  0  0  0  0  0
  1 13  1  0  0  0  0
  1 17  1  0  0  0  0
  2 12  2  0  0  0  0
  3 13  2  0  0  0  0
  4  8  1  0  0  0  0
  4 11  1  0  0  0  0
  4 13  1  0  0  0  0
  5  6  1  0  0  0  0
  5 12  1  0  0  0  0
  5 32  1  0  0  0  0
  6 14  1  0  0  0  0
  6 33  1  0  0  0  0
  7 18  1  0  0  0  0
  7 46  1  0  0  0  0
  7 47  1  0  0  0  0
  8  9  1  0  0  0  0
  8 12  1  0  0  0  0
  8 25  1  0  0  0  0
  9 10  1  0  0  0  0
  9 26  1  0  0  0  0
  9 27  1  0  0  0  0
 10 11  1  0  0  0  0
 10 28  1  0  0  0  0
 10 29  1  0  0  0  0
 11 30  1  0  0  0  0
 11 31  1  0  0  0  0
 14 15  1  0  0  0  0
 14 34  1  0  0  0  0
 14 35  1  0  0  0  0
 15 16  1  0  0  0  0
 15 36  1  0  0  0  0
 15 37  1  0  0  0  0
 16 18  1  0  0  0  0
 16 38  1  0  0  0  0
 16 39  1  0  0  0  0
 17 19  1  0  0  0  0
 17 40  1  0  0  0  0
 17 41  1  0  0  0  0
 18 42  1  0  0  0  0
 18 43  1  0  0  0  0
 19 20  2  0  0  0  0
 19 21  1  0  0  0  0
 20 22  1  0  0  0  0
 20 44  1  0  0  0  0
 21 23  2  0  0  0  0
 21 45  1  0  0  0  0
 22 24  2  0  0  0  0
 22 48  1  0  0  0  0
 23 24  1  0  0  0  0
 23 49  1  0  0  0  0
 24 50  1  0  0  0  0
M  END
> <PUBCHEM_COMPOUND_CID>
4355

> <PUBCHEM_CONFORMER_RMSD>
1

> <PUBCHEM_CONFORMER_DIVERSEORDER>
1
119
127
60
200
122
65
253
32
221
98
165
8
25
29
184
89
103
246
178
64
268
261
183
92
116
72
13
176
126
223
148
115
134
131
264
263
71
216
84
48
222
265
5
167
228
247
258
28
236
59
19
100
224
99
6
57
143
66
269
42
47
101
125
118
90
164
254
186
24
158
232
145
23
128
41
30
161
251
267
105
219
108
39
206
110
187
260
266
139
14
135
111
168
93
9
81
241
195
136
130
198
74
38
83
43
212
94
188
242
124
12
194
249
141
172
27
163
202
144
271
231
132
20
3
150
270
63
80
230
250
4
69
175
76
243
34
62
55
205
201
36
2
256
54
171
61
225
239
147
138
226
162
213
252
35
50
154
245
209
113
193
153
91
244
56
82
120
44
142
31
211
155
189
10
159
207
22
114
191
78
196
96
109
204
79
67
18
192
97
248
33
86
174
106
58
169
227
11
170
173
152
182
51
255
52
26
203
237
140
137
7
156
179
149
49
77
210
181
15
88
37
215
45
68
85
73
214
104
53
259
240
177
129
233
146
166
107
123
16
180
75
121
220
21
197
234
112
95
40
229
17
151
199
87
102
257
238
157
185
190
235
46
262
117
208
160
133
70
217
218

> <PUBCHEM_MMFF94_PARTIAL_CHARGES>
29
1 -0.43
11 0.3
12 0.57
13 0.78
14 0.27
17 0.42
18 0.27
19 -0.14
2 -0.57
20 -0.15
21 -0.15
22 -0.15
23 -0.15
24 -0.15
3 -0.57
32 0.37
33 0.36
4 -0.66
44 0.15
45 0.15
46 0.36
47 0.36
48 0.15
49 0.15
5 -0.42
50 0.15
6 -0.64
7 -0.99
8 0.36

> <PUBCHEM_EFFECTIVE_ROTOR_COUNT>
12

> <PUBCHEM_PHARMACOPHORE_FEATURES>
8
1 2 acceptor
1 3 acceptor
1 5 donor
1 6 donor
1 7 cation
1 7 donor
5 4 8 9 10 11 rings
6 19 20 21 22 23 24 rings

> <PUBCHEM_HEAVY_ATOM_COUNT>
24

> <PUBCHEM_ATOM_DEF_STEREO_COUNT>
0

> <PUBCHEM_ATOM_UDEF_STEREO_COUNT>
1

> <PUBCHEM_BOND_DEF_STEREO_COUNT>
0

> <PUBCHEM_BOND_UDEF_STEREO_COUNT>
0

> <PUBCHEM_ISOTOPIC_ATOM_COUNT>
0

> <PUBCHEM_COMPONENT_COUNT>
1

> <PUBCHEM_CACTVS_TAUTO_COUNT>
2

> <PUBCHEM_CONFORMER_ID>
0000110300000001

> <PUBCHEM_MMFF94_ENERGY>
35.0055

> <PUBCHEM_FEATURE_SELFOVERLAP>
42.085

> <PUBCHEM_SHAPE_FINGERPRINT>
1100329 8 18048597315711025857
11370993 70 17830740846144938025
12788726 201 17614573956821216344
13402501 40 18341615859122229456
13533116 47 18261391084160150505
14790565 3 17259061225555348021
14866123 147 18047465918092881657
14931854 50 18054513774926160142
15006816 218 18269561533190462297
20028762 73 17257089269163544319
20642791 35 18269848656645240073
20775438 99 17832183487385352015
221357 26 18413106186279618774
22182313 1 18059310781450470989
23352939 185 18335413607991958546
23559900 14 18201721734539528789
238918 7 18122644772671232728
465052 167 16555094057828730459
508706 21 18060146435630051445
5265222 85 17764864698532568844
532947 4 18339651031679934835
6823239 73 18339934795916211304

> <PUBCHEM_SHAPE_MULTIPOLES>
456.38
9.74
4.91
1.36
2.68
1.91
0.07
-7.74
-2.29
5.51
0.86
-0.22
0.47
2.69

> <PUBCHEM_SHAPE_SELFOVERLAP>
930.813

> <PUBCHEM_SHAPE_VOLUME>
264.2

> <PUBCHEM_COORDINATE_TYPE>
2
5
10

$$$$

