583285
  -OEChem-06241222452D

 27 27  0     0  0  0  0  0  0999 V2000
    6.3301    1.3450    0.0000 S   0  0  0  0  0  0  0  0  0  0  0  0
    4.5981    0.3450    0.0000 N   0  0  0  0  0  0  0  0  0  0  0  0
    4.5981    1.3450    0.0000 N   0  0  0  0  0  0  0  0  0  0  0  0
    5.4641    2.8450    0.0000 N   0  0  0  0  0  0  0  0  0  0  0  0
    3.7321   -1.1550    0.0000 C   0  0  0  0  0  0  0  0  0  0  0  0
    4.5981   -1.6550    0.0000 C   0  0  0  0  0  0  0  0  0  0  0  0
    2.8660   -1.6550    0.0000 C   0  0  0  0  0  0  0  0  0  0  0  0
    4.5981   -2.6550    0.0000 C   0  0  0  0  0  0  0  0  0  0  0  0
    2.8660   -2.6550    0.0000 C   0  0  0  0  0  0  0  0  0  0  0  0
    3.7321   -3.1550    0.0000 C   0  0  0  0  0  0  0  0  0  0  0  0
    5.4641   -1.1550    0.0000 C   0  0  0  0  0  0  0  0  0  0  0  0
    2.0000   -1.1550    0.0000 C   0  0  0  0  0  0  0  0  0  0  0  0
    3.7321   -0.1550    0.0000 C   0  0  0  0  0  0  0  0  0  0  0  0
    5.4641    1.8450    0.0000 C   0  0  0  0  0  0  0  0  0  0  0  0
    5.1350   -2.9650    0.0000 H   0  0  0  0  0  0  0  0  0  0  0  0
    2.3291   -2.9650    0.0000 H   0  0  0  0  0  0  0  0  0  0  0  0
    3.7321   -3.7750    0.0000 H   0  0  0  0  0  0  0  0  0  0  0  0
    6.0010   -0.8450    0.0000 H   0  0  0  0  0  0  0  0  0  0  0  0
    5.1541   -0.6181    0.0000 H   0  0  0  0  0  0  0  0  0  0  0  0
    5.7741   -1.6919    0.0000 H   0  0  0  0  0  0  0  0  0  0  0  0
    2.3100   -0.6181    0.0000 H   0  0  0  0  0  0  0  0  0  0  0  0
    1.4631   -0.8450    0.0000 H   0  0  0  0  0  0  0  0  0  0  0  0
    1.6900   -1.6919    0.0000 H   0  0  0  0  0  0  0  0  0  0  0  0
    3.1951    0.1550    0.0000 H   0  0  0  0  0  0  0  0  0  0  0  0
    6.0010    3.1550    0.0000 H   0  0  0  0  0  0  0  0  0  0  0  0
    4.9272    3.1550    0.0000 H   0  0  0  0  0  0  0  0  0  0  0  0
    6.8671    1.6550    0.0000 H   0  0  0  0  0  0  0  0  0  0  0  0
  1 14  1  0  0  0  0
  1 27  1  0  0  0  0
  2  3  1  0  0  0  0
  2 13  2  3  0  0  0
  3 14  2  3  0  0  0
  4 14  1  0  0  0  0
  4 25  1  0  0  0  0
  4 26  1  0  0  0  0
  5  6  2  0  0  0  0
  5  7  1  0  0  0  0
  5 13  1  0  0  0  0
  6  8  1  0  0  0  0
  6 11  1  0  0  0  0
  7  9  2  0  0  0  0
  7 12  1  0  0  0  0
  8 10  2  0  0  0  0
  8 15  1  0  0  0  0
  9 10  1  0  0  0  0
  9 16  1  0  0  0  0
 10 17  1  0  0  0  0
 11 18  1  0  0  0  0
 11 19  1  0  0  0  0
 11 20  1  0  0  0  0
 12 21  1  0  0  0  0
 12 22  1  0  0  0  0
 12 23  1  0  0  0  0
 13 24  1  0  0  0  0
M  END
> <PUBCHEM_COMPOUND_CID>
583285

> <PUBCHEM_COMPOUND_CANONICALIZED>
1

> <PUBCHEM_CACTVS_COMPLEXITY>
228

> <PUBCHEM_CACTVS_HBOND_ACCEPTOR>
3

> <PUBCHEM_CACTVS_HBOND_DONOR>
2

> <PUBCHEM_CACTVS_ROTATABLE_BOND>
2

> <PUBCHEM_CACTVS_SUBSKEYS>
AAADccBzAABAAAAAAAAAAAAAAAAAAAAAAAAwAAAAAAAAAAABAAAAHAQYAAAADADBGAQzAIBAAASgAjBjIAACAAAgAAAIiAAgAJgIICKAERCAIAAggAAIiAcAgMAOgAACAAAQAAAAAAQAACAAAAAAAAAAAA==

> <PUBCHEM_IUPAC_OPENEYE_NAME>
3-[(2,6-dimethylphenyl)methyleneamino]isothiourea

> <PUBCHEM_IUPAC_CAS_NAME>
N'-[(2,6-dimethylphenyl)methylideneamino]carbamimidothioic acid

> <PUBCHEM_IUPAC_NAME>
N'-[(2,6-dimethylphenyl)methylideneamino]carbamimidothioic acid

> <PUBCHEM_IUPAC_SYSTEMATIC_NAME>
N'-[(2,6-dimethylphenyl)methylideneamino]carbamimidothioic acid

> <PUBCHEM_IUPAC_TRADITIONAL_NAME>
3-[(2,6-dimethylbenzylidene)amino]isothiourea

> <PUBCHEM_IUPAC_INCHI>
InChI=1S/C10H13N3S/c1-7-4-3-5-8(2)9(7)6-12-13-10(11)14/h3-6H,1-2H3,(H3,11,13,14)

> <PUBCHEM_IUPAC_INCHIKEY>
DDSLTBCXNMRSJA-UHFFFAOYSA-N

> <PUBCHEM_XLOGP3_AA>
2.4

> <PUBCHEM_EXACT_MASS>
207.083018

> <PUBCHEM_MOLECULAR_FORMULA>
C10H13N3S

> <PUBCHEM_MOLECULAR_WEIGHT>
207.29532

> <PUBCHEM_OPENEYE_CAN_SMILES>
CC1=C(C(=CC=C1)C)C=NN=C(N)S

> <PUBCHEM_OPENEYE_ISO_SMILES>
CC1=C(C(=CC=C1)C)C=NN=C(N)S

> <PUBCHEM_CACTVS_TPSA>
51.7

> <PUBCHEM_MONOISOTOPIC_WEIGHT>
207.083018

> <PUBCHEM_TOTAL_CHARGE>
0

> <PUBCHEM_HEAVY_ATOM_COUNT>
14

> <PUBCHEM_ATOM_DEF_STEREO_COUNT>
0

> <PUBCHEM_ATOM_UDEF_STEREO_COUNT>
0

> <PUBCHEM_BOND_DEF_STEREO_COUNT>
0

> <PUBCHEM_BOND_UDEF_STEREO_COUNT>
2

> <PUBCHEM_ISOTOPIC_ATOM_COUNT>
0

> <PUBCHEM_COMPONENT_COUNT>
1

> <PUBCHEM_CACTVS_TAUTO_COUNT>
3

> <PUBCHEM_COORDINATE_TYPE>
1
5
255

> <PUBCHEM_BONDANNOTATIONS>
2  13  1
3  14  1
5  6  8
5  7  8
6  8  8
7  9  8
8  10  8
9  10  8

$$$$

