442531
  -OEChem-07051212583D

 44 49  0     1  0  0  0  0  0999 V2000
    1.6916   -1.7368   -0.0854 O   0  0  0  0  0  0  0  0  0  0  0  0
    0.4649    4.3782   -0.0882 O   0  0  0  0  0  0  0  0  0  0  0  0
   -4.4583    0.4072   -0.0993 O   0  0  0  0  0  0  0  0  0  0  0  0
   -2.1360    4.4619   -0.2541 O   0  0  0  0  0  0  0  0  0  0  0  0
   -1.6976   -5.3495   -0.2137 O   0  0  0  0  0  0  0  0  0  0  0  0
    0.4574    0.2886    0.5162 C   0  0  2  0  0  0  0  0  0  0  0  0
    1.7351    1.1518    0.4734 C   0  0  2  0  0  0  0  0  0  0  0  0
    0.5357   -0.9489   -0.3917 C   0  0  2  0  0  0  0  0  0  0  0  0
   -0.8288    1.0409    0.2323 C   0  0  0  0  0  0  0  0  0  0  0  0
    1.6086    2.3086   -0.5181 C   0  0  0  0  0  0  0  0  0  0  0  0
    2.9669    0.3143    0.2242 C   0  0  0  0  0  0  0  0  0  0  0  0
   -0.7136   -1.8101   -0.1775 C   0  0  0  0  0  0  0  0  0  0  0  0
   -2.0287    0.2958    0.1673 C   0  0  0  0  0  0  0  0  0  0  0  0
   -0.8563    2.4297    0.0442 C   0  0  0  0  0  0  0  0  0  0  0  0
   -1.9502   -1.1857    0.1396 C   0  0  0  0  0  0  0  0  0  0  0  0
    0.4143    3.1555   -0.1509 C   0  0  0  0  0  0  0  0  0  0  0  0
    2.8743   -1.0554   -0.0376 C   0  0  0  0  0  0  0  0  0  0  0  0
   -3.2377    1.0031    0.0363 C   0  0  0  0  0  0  0  0  0  0  0  0
   -2.0653    3.1136   -0.0766 C   0  0  0  0  0  0  0  0  0  0  0  0
    4.2444    0.8935    0.3074 C   0  0  0  0  0  0  0  0  0  0  0  0
   -0.6517   -3.2083   -0.3165 C   0  0  0  0  0  0  0  0  0  0  0  0
   -3.0656   -2.0099    0.3773 C   0  0  0  0  0  0  0  0  0  0  0  0
   -3.2562    2.3971   -0.0594 C   0  0  0  0  0  0  0  0  0  0  0  0
    4.0277   -1.8288   -0.2078 C   0  0  0  0  0  0  0  0  0  0  0  0
   -1.7771   -3.9966   -0.0914 C   0  0  0  0  0  0  0  0  0  0  0  0
    5.3950    0.1257    0.1207 C   0  0  0  0  0  0  0  0  0  0  0  0
   -2.9788   -3.3993    0.2667 C   0  0  0  0  0  0  0  0  0  0  0  0
    5.2862   -1.2366   -0.1375 C   0  0  0  0  0  0  0  0  0  0  0  0
    0.3871   -0.0702    1.5571 H   0  0  0  0  0  0  0  0  0  0  0  0
    1.8471    1.5936    1.4761 H   0  0  0  0  0  0  0  0  0  0  0  0
    0.5704   -0.6698   -1.4545 H   0  0  0  0  0  0  0  0  0  0  0  0
    1.4959    1.9581   -1.5511 H   0  0  0  0  0  0  0  0  0  0  0  0
    2.4940    2.9538   -0.4876 H   0  0  0  0  0  0  0  0  0  0  0  0
    4.3551    1.9515    0.5326 H   0  0  0  0  0  0  0  0  0  0  0  0
    0.2799   -3.6953   -0.5951 H   0  0  0  0  0  0  0  0  0  0  0  0
   -4.0244   -1.6212    0.6999 H   0  0  0  0  0  0  0  0  0  0  0  0
   -4.1964    2.9329   -0.1732 H   0  0  0  0  0  0  0  0  0  0  0  0
    3.9498   -2.8964   -0.3977 H   0  0  0  0  0  0  0  0  0  0  0  0
    6.3743    0.5906    0.1869 H   0  0  0  0  0  0  0  0  0  0  0  0
   -3.8610   -4.0027    0.4644 H   0  0  0  0  0  0  0  0  0  0  0  0
    6.1796   -1.8383   -0.2754 H   0  0  0  0  0  0  0  0  0  0  0  0
   -5.1554    1.0793   -0.1854 H   0  0  0  0  0  0  0  0  0  0  0  0
   -1.2561    4.8619   -0.1812 H   0  0  0  0  0  0  0  0  0  0  0  0
   -2.5693   -5.7356   -0.0209 H   0  0  0  0  0  0  0  0  0  0  0  0
  1  8  1  0  0  0  0
  1 17  1  0  0  0  0
  2 16  2  0  0  0  0
  3 18  1  0  0  0  0
  3 42  1  0  0  0  0
  4 19  1  0  0  0  0
  4 43  1  0  0  0  0
  5 25  1  0  0  0  0
  5 44  1  0  0  0  0
  6  7  1  0  0  0  0
  6  8  1  0  0  0  0
  6  9  1  0  0  0  0
  6 29  1  0  0  0  0
  7 10  1  0  0  0  0
  7 11  1  0  0  0  0
  7 30  1  0  0  0  0
  8 12  1  0  0  0  0
  8 31  1  0  0  0  0
  9 13  2  0  0  0  0
  9 14  1  0  0  0  0
 10 16  1  0  0  0  0
 10 32  1  0  0  0  0
 10 33  1  0  0  0  0
 11 17  1  0  0  0  0
 11 20  2  0  0  0  0
 12 15  2  0  0  0  0
 12 21  1  0  0  0  0
 13 15  1  0  0  0  0
 13 18  1  0  0  0  0
 14 16  1  0  0  0  0
 14 19  2  0  0  0  0
 15 22  1  0  0  0  0
 17 24  2  0  0  0  0
 18 23  2  0  0  0  0
 19 23  1  0  0  0  0
 20 26  1  0  0  0  0
 20 34  1  0  0  0  0
 21 25  2  0  0  0  0
 21 35  1  0  0  0  0
 22 27  2  0  0  0  0
 22 36  1  0  0  0  0
 23 37  1  0  0  0  0
 24 28  1  0  0  0  0
 24 38  1  0  0  0  0
 25 27  1  0  0  0  0
 26 28  2  0  0  0  0
 26 39  1  0  0  0  0
 27 40  1  0  0  0  0
 28 41  1  0  0  0  0
M  END
> <PUBCHEM_COMPOUND_CID>
442531

> <PUBCHEM_CONFORMER_RMSD>
0.6

> <PUBCHEM_CONFORMER_DIVERSEORDER>
1
2

> <PUBCHEM_MMFF94_PARTIAL_CHARGES>
37
1 -0.36
10 0.06
11 -0.14
12 -0.14
14 0.09
16 0.42
17 0.08
18 0.08
19 0.08
2 -0.57
20 -0.15
21 -0.15
22 -0.15
23 -0.15
24 -0.15
25 0.08
26 -0.15
27 -0.15
28 -0.15
3 -0.53
34 0.15
35 0.15
36 0.15
37 0.15
38 0.15
39 0.15
4 -0.53
40 0.15
41 0.15
42 0.45
43 0.45
44 0.45
5 -0.53
6 0.14
7 0.14
8 0.42
9 -0.14

> <PUBCHEM_EFFECTIVE_ROTOR_COUNT>
0.4

> <PUBCHEM_PHARMACOPHORE_FEATURES>
11
1 1 acceptor
1 2 acceptor
1 3 donor
1 4 donor
1 5 donor
6 1 6 7 8 11 17 rings
6 11 17 20 24 26 28 rings
6 12 15 21 22 25 27 rings
6 6 7 9 10 14 16 rings
6 6 8 9 12 13 15 rings
6 9 13 14 18 19 23 rings

> <PUBCHEM_HEAVY_ATOM_COUNT>
28

> <PUBCHEM_ATOM_DEF_STEREO_COUNT>
3

> <PUBCHEM_ATOM_UDEF_STEREO_COUNT>
0

> <PUBCHEM_BOND_DEF_STEREO_COUNT>
0

> <PUBCHEM_BOND_UDEF_STEREO_COUNT>
0

> <PUBCHEM_ISOTOPIC_ATOM_COUNT>
0

> <PUBCHEM_COMPONENT_COUNT>
1

> <PUBCHEM_CACTVS_TAUTO_COUNT>
202

> <PUBCHEM_CONFORMER_ID>
0006C0A300000001

> <PUBCHEM_MMFF94_ENERGY>
106.0172

> <PUBCHEM_FEATURE_SELFOVERLAP>
55.994

> <PUBCHEM_SHAPE_FINGERPRINT>
10319926 262 18263666064561471978
10411042 1 18194682557935479770
10967382 1 18338234967697545121
1100329 8 18339078194769696937
11014199 57 18122341277196981754
11578080 2 17342409317961563404
12107183 9 18120638151403945155
12553582 1 17978507533711162691
12839892 36 17691986168375887538
13140716 1 18264767649672046617
138480 1 16320905205598016018
13911987 19 18198351834580019349
14790565 3 18193549201838875840
14844126 61 18341619217612965506
15042514 8 18411134701975411091
15196674 1 18266460004431287144
15230672 131 18052248799040144430
15439362 3 16467277683147540212
15927050 60 15743311226542723942
16087824 20 18411135828126910227
16728300 4 17557723635055802419
17492 89 17906735800012495530
19319366 153 17775282798279337714
19591789 44 18194120947842244275
19930381 70 17330836232224374769
20028762 73 18260268560488265839
20101258 96 18196078963598698730
20775438 99 17324972120840382887
20905425 154 17903907864457712101
21033648 29 18261967356707090008
21133410 171 17474167155653741210
23559900 14 18048606923267263770
255183 451 17613141984813603022
283562 15 18118688952883111249
3091708 16 9273463038016730555
335352 9 18410573942787496895
3380486 145 18196922284727536649
350125 39 18338229350265547859
3882209 13 17614885861821080382
4409770 3 18342184400642911877
5104073 3 18335704923456098074
9709674 26 18262234538374984678
9981440 41 18052257589713449651

> <PUBCHEM_SHAPE_MULTIPOLES>
546.88
7.87
6.06
0.66
9.05
1
-0.01
2.12
-0.24
-5.8
0.63
0.05
0
0.28

> <PUBCHEM_SHAPE_SELFOVERLAP>
1267.632

> <PUBCHEM_SHAPE_VOLUME>
274.9

> <PUBCHEM_COORDINATE_TYPE>
2
5
10

$$$$

