442895
  -OEChem-07051213002D

 63 65  0     1  0  0  0  0  0999 V2000
    4.0981    1.2446    0.0000 O   0  0  0  0  0  0  0  0  0  0  0  0
    2.8660   -1.2942    0.0000 O   0  0  0  0  0  0  0  0  0  0  0  0
    7.0871    1.0355    0.0000 O   0  0  0  0  0  0  0  0  0  0  0  0
    6.3301   -3.2942    0.0000 O   0  0  0  0  0  0  0  0  0  0  0  0
    5.4602    4.6897    0.0000 O   0  0  0  0  0  0  0  0  0  0  0  0
    4.5981   -4.2942    0.0000 O   0  0  0  0  0  0  0  0  0  0  0  0
    7.4492    4.4807    0.0000 O   0  0  0  0  0  0  0  0  0  0  0  0
    4.5981   -0.2942    0.0000 C   0  0  1  0  0  0  0  0  0  0  0  0
    5.4071    0.2935    0.0000 C   0  0  1  0  0  0  0  0  0  0  0  0
    5.0981    1.2446    0.0000 C   0  0  1  0  0  0  0  0  0  0  0  0
    3.7891    0.2935    0.0000 C   0  0  2  0  0  0  0  0  0  0  0  0
    4.5981   -1.2942    0.0000 C   0  0  0  0  0  0  0  0  0  0  0  0
    6.3582   -0.0155    0.0000 C   0  0  0  0  0  0  0  0  0  0  0  0
    5.6859    2.0536    0.0000 C   0  0  0  0  0  0  0  0  0  0  0  0
    2.8380   -0.0155    0.0000 C   0  0  0  0  0  0  0  0  0  0  0  0
    3.7320   -1.7942    0.0000 C   0  0  0  0  0  0  0  0  0  0  0  0
    5.4641   -1.7942    0.0000 C   0  0  0  0  0  0  0  0  0  0  0  0
    6.6804    1.9491    0.0000 C   0  0  0  0  0  0  0  0  0  0  0  0
    5.2791    2.9672    0.0000 C   0  0  0  0  0  0  0  0  0  0  0  0
    5.4641   -2.7942    0.0000 C   0  0  0  0  0  0  0  0  0  0  0  0
    3.7320   -2.7942    0.0000 C   0  0  0  0  0  0  0  0  0  0  0  0
    5.8669    3.7762    0.0000 C   0  0  0  0  0  0  0  0  0  0  0  0
    7.2682    2.7581    0.0000 C   0  0  0  0  0  0  0  0  0  0  0  0
    4.5981   -3.2942    0.0000 C   0  0  0  0  0  0  0  0  0  0  0  0
    6.8614    3.6716    0.0000 C   0  0  0  0  0  0  0  0  0  0  0  0
    2.0000   -1.7942    0.0000 C   0  0  0  0  0  0  0  0  0  0  0  0
    8.0816    0.9310    0.0000 C   0  0  0  0  0  0  0  0  0  0  0  0
    6.3301   -4.2942    0.0000 C   0  0  0  0  0  0  0  0  0  0  0  0
    4.4656    4.7942    0.0000 C   0  0  0  0  0  0  0  0  0  0  0  0
    3.7320   -4.7942    0.0000 C   0  0  0  0  0  0  0  0  0  0  0  0
    8.4437    4.3761    0.0000 C   0  0  0  0  0  0  0  0  0  0  0  0
    5.3554   -0.6801    0.0000 H   0  0  0  0  0  0  0  0  0  0  0  0
    5.5041   -0.3188    0.0000 H   0  0  0  0  0  0  0  0  0  0  0  0
    5.9376    1.1116    0.0000 H   0  0  0  0  0  0  0  0  0  0  0  0
    3.3506    0.7319    0.0000 H   0  0  0  0  0  0  0  0  0  0  0  0
    6.1666   -0.6051    0.0000 H   0  0  0  0  0  0  0  0  0  0  0  0
    6.9478   -0.2071    0.0000 H   0  0  0  0  0  0  0  0  0  0  0  0
    6.5497    0.5742    0.0000 H   0  0  0  0  0  0  0  0  0  0  0  0
    2.6464    0.5742    0.0000 H   0  0  0  0  0  0  0  0  0  0  0  0
    2.2484   -0.2071    0.0000 H   0  0  0  0  0  0  0  0  0  0  0  0
    3.0296   -0.6051    0.0000 H   0  0  0  0  0  0  0  0  0  0  0  0
    6.0010   -1.4842    0.0000 H   0  0  0  0  0  0  0  0  0  0  0  0
    4.6625    3.0320    0.0000 H   0  0  0  0  0  0  0  0  0  0  0  0
    3.1951   -3.1042    0.0000 H   0  0  0  0  0  0  0  0  0  0  0  0
    7.8848    2.6933    0.0000 H   0  0  0  0  0  0  0  0  0  0  0  0
    1.6900   -1.2573    0.0000 H   0  0  0  0  0  0  0  0  0  0  0  0
    1.4631   -2.1042    0.0000 H   0  0  0  0  0  0  0  0  0  0  0  0
    2.3100   -2.3312    0.0000 H   0  0  0  0  0  0  0  0  0  0  0  0
    8.0168    0.3144    0.0000 H   0  0  0  0  0  0  0  0  0  0  0  0
    8.6982    0.8662    0.0000 H   0  0  0  0  0  0  0  0  0  0  0  0
    8.1464    1.5476    0.0000 H   0  0  0  0  0  0  0  0  0  0  0  0
    5.7101   -4.2942    0.0000 H   0  0  0  0  0  0  0  0  0  0  0  0
    6.3301   -4.9142    0.0000 H   0  0  0  0  0  0  0  0  0  0  0  0
    6.9501   -4.2942    0.0000 H   0  0  0  0  0  0  0  0  0  0  0  0
    4.5305    5.4108    0.0000 H   0  0  0  0  0  0  0  0  0  0  0  0
    3.8490    4.8591    0.0000 H   0  0  0  0  0  0  0  0  0  0  0  0
    4.4008    4.1776    0.0000 H   0  0  0  0  0  0  0  0  0  0  0  0
    3.4220   -4.2573    0.0000 H   0  0  0  0  0  0  0  0  0  0  0  0
    3.1951   -5.1043    0.0000 H   0  0  0  0  0  0  0  0  0  0  0  0
    4.0420   -5.3312    0.0000 H   0  0  0  0  0  0  0  0  0  0  0  0
    8.3789    3.7595    0.0000 H   0  0  0  0  0  0  0  0  0  0  0  0
    9.0603    4.3113    0.0000 H   0  0  0  0  0  0  0  0  0  0  0  0
    8.5086    4.9927    0.0000 H   0  0  0  0  0  0  0  0  0  0  0  0
  1 10  1  0  0  0  0
  1 11  1  0  0  0  0
  2 16  1  0  0  0  0
  2 26  1  0  0  0  0
  3 18  1  0  0  0  0
  3 27  1  0  0  0  0
  4 20  1  0  0  0  0
  4 28  1  0  0  0  0
  5 22  1  0  0  0  0
  5 29  1  0  0  0  0
  6 24  1  0  0  0  0
  6 30  1  0  0  0  0
  7 25  1  0  0  0  0
  7 31  1  0  0  0  0
  8  9  1  0  0  0  0
  8 11  1  0  0  0  0
  8 12  1  0  0  0  0
  8 32  1  1  0  0  0
  9 10  1  0  0  0  0
  9 13  1  1  0  0  0
  9 33  1  0  0  0  0
 10 14  1  0  0  0  0
 10 34  1  1  0  0  0
 11 15  1  6  0  0  0
 11 35  1  0  0  0  0
 12 16  1  0  0  0  0
 12 17  2  0  0  0  0
 13 36  1  0  0  0  0
 13 37  1  0  0  0  0
 13 38  1  0  0  0  0
 14 18  1  0  0  0  0
 14 19  2  0  0  0  0
 15 39  1  0  0  0  0
 15 40  1  0  0  0  0
 15 41  1  0  0  0  0
 16 21  2  0  0  0  0
 17 20  1  0  0  0  0
 17 42  1  0  0  0  0
 18 23  2  0  0  0  0
 19 22  1  0  0  0  0
 19 43  1  0  0  0  0
 20 24  2  0  0  0  0
 21 24  1  0  0  0  0
 21 44  1  0  0  0  0
 22 25  2  0  0  0  0
 23 25  1  0  0  0  0
 23 45  1  0  0  0  0
 26 46  1  0  0  0  0
 26 47  1  0  0  0  0
 26 48  1  0  0  0  0
 27 49  1  0  0  0  0
 27 50  1  0  0  0  0
 27 51  1  0  0  0  0
 28 52  1  0  0  0  0
 28 53  1  0  0  0  0
 28 54  1  0  0  0  0
 29 55  1  0  0  0  0
 29 56  1  0  0  0  0
 29 57  1  0  0  0  0
 30 58  1  0  0  0  0
 30 59  1  0  0  0  0
 30 60  1  0  0  0  0
 31 61  1  0  0  0  0
 31 62  1  0  0  0  0
 31 63  1  0  0  0  0
M  END
> <PUBCHEM_COMPOUND_CID>
442895

> <PUBCHEM_COMPOUND_CANONICALIZED>
1

> <PUBCHEM_CACTVS_COMPLEXITY>
546

> <PUBCHEM_CACTVS_HBOND_ACCEPTOR>
7

> <PUBCHEM_CACTVS_HBOND_DONOR>
0

> <PUBCHEM_CACTVS_ROTATABLE_BOND>
8

> <PUBCHEM_CACTVS_SUBSKEYS>
AAADcfB4OAAAAAAAAAAAAAAAAAAAASAAAAAwYAAAAAAAAAABQAAAGgAAAAAADRSgmAIyBoAABACAAiBCAAACCAAgIAAAiAAGiIgNJyKEMRqCMCIlwBUKqAfA4PwOoQABCAAIQABCAAIQABCAAAAAAAAAAA==

> <PUBCHEM_IUPAC_OPENEYE_NAME>
(2S,3R,4S,5S)-2,4-dimethyl-3,5-bis(2,4,5-trimethoxyphenyl)tetrahydrofuran

> <PUBCHEM_IUPAC_CAS_NAME>
(2S,3R,4S,5S)-2,4-dimethyl-3,5-bis(2,4,5-trimethoxyphenyl)oxolane

> <PUBCHEM_IUPAC_NAME>
(2S,3R,4S,5S)-2,4-dimethyl-3,5-bis(2,4,5-trimethoxyphenyl)oxolane

> <PUBCHEM_IUPAC_SYSTEMATIC_NAME>
(2S,3R,4S,5S)-2,4-dimethyl-3,5-bis(2,4,5-trimethoxyphenyl)oxolane

> <PUBCHEM_IUPAC_TRADITIONAL_NAME>
(2S,3S,4R,5S)-2,4-diasaryl-3,5-dimethyl-tetrahydrofuran

> <PUBCHEM_IUPAC_INCHI>
InChI=1S/C24H32O7/c1-13-23(15-9-19(27-5)21(29-7)11-17(15)25-3)14(2)31-24(13)16-10-20(28-6)22(30-8)12-18(16)26-4/h9-14,23-24H,1-8H3/t13-,14-,23-,24-/m0/s1

> <PUBCHEM_IUPAC_INCHIKEY>
XCWBENSTFQIQNV-NHCASCSRSA-N

> <PUBCHEM_XLOGP3_AA>
4.2

> <PUBCHEM_EXACT_MASS>
432.214803

> <PUBCHEM_MOLECULAR_FORMULA>
C24H32O7

> <PUBCHEM_MOLECULAR_WEIGHT>
432.50668

> <PUBCHEM_OPENEYE_CAN_SMILES>
CC1C(C(OC1C2=CC(=C(C=C2OC)OC)OC)C)C3=CC(=C(C=C3OC)OC)OC

> <PUBCHEM_OPENEYE_ISO_SMILES>
C[C@H]1[C@@H]([C@@H](O[C@@H]1C2=CC(=C(C=C2OC)OC)OC)C)C3=CC(=C(C=C3OC)OC)OC

> <PUBCHEM_CACTVS_TPSA>
64.6

> <PUBCHEM_MONOISOTOPIC_WEIGHT>
432.214803

> <PUBCHEM_TOTAL_CHARGE>
0

> <PUBCHEM_HEAVY_ATOM_COUNT>
31

> <PUBCHEM_ATOM_DEF_STEREO_COUNT>
4

> <PUBCHEM_ATOM_UDEF_STEREO_COUNT>
0

> <PUBCHEM_BOND_DEF_STEREO_COUNT>
0

> <PUBCHEM_BOND_UDEF_STEREO_COUNT>
0

> <PUBCHEM_ISOTOPIC_ATOM_COUNT>
0

> <PUBCHEM_COMPONENT_COUNT>
1

> <PUBCHEM_CACTVS_TAUTO_COUNT>
1

> <PUBCHEM_COORDINATE_TYPE>
1
5
255

> <PUBCHEM_BONDANNOTATIONS>
10  34  5
11  15  6
12  16  8
12  17  8
14  18  8
14  19  8
16  21  8
17  20  8
18  23  8
19  22  8
20  24  8
21  24  8
22  25  8
23  25  8
8  32  5
9  13  5

$$$$

