439797
  -OEChem-07051212473D

 43 45  0     1  0  0  0  0  0999 V2000
   -0.2350   -1.5215    0.7162 O   0  0  0  0  0  0  0  0  0  0  0  0
    1.4168    1.6446   -1.0837 O   0  0  0  0  0  0  0  0  0  0  0  0
    4.3412   -1.6483    0.8028 O   0  0  0  0  0  0  0  0  0  0  0  0
   -1.0510    3.0968    0.4300 O   0  0  0  0  0  0  0  0  0  0  0  0
   -4.4999    0.0497   -0.8876 O   0  0  0  0  0  0  0  0  0  0  0  0
    3.1875   -0.7169   -2.1586 O   0  0  0  0  0  0  0  0  0  0  0  0
   -3.4506   -2.8183    0.6006 O   0  0  0  0  0  0  0  0  0  0  0  0
    0.7361    0.6907    1.0286 C   0  0  2  0  0  0  0  0  0  0  0  0
    0.7525   -0.7876    1.4880 C   0  0  2  0  0  0  0  0  0  0  0  0
   -0.6848    0.7386    0.5618 C   0  0  0  0  0  0  0  0  0  0  0  0
    1.7125    0.9232   -0.1271 C   0  0  0  0  0  0  0  0  0  0  0  0
    3.1151    0.3284   -0.0113 C   0  0  1  0  0  0  0  0  0  0  0  0
   -1.1514   -0.5575    0.3772 C   0  0  0  0  0  0  0  0  0  0  0  0
    1.0586    1.6610    2.1633 C   0  0  0  0  0  0  0  0  0  0  0  0
    2.0707   -1.4833    1.3750 C   0  0  0  0  0  0  0  0  0  0  0  0
    3.1339   -0.9700    0.7438 C   0  0  0  0  0  0  0  0  0  0  0  0
   -1.4972    1.8228    0.2724 C   0  0  0  0  0  0  0  0  0  0  0  0
   -2.4151   -0.8230   -0.1138 C   0  0  0  0  0  0  0  0  0  0  0  0
   -2.7854    1.5783   -0.2114 C   0  0  0  0  0  0  0  0  0  0  0  0
    3.7063    0.0698   -1.3680 C   0  0  0  0  0  0  0  0  0  0  0  0
   -3.2399    0.2639   -0.4062 C   0  0  0  0  0  0  0  0  0  0  0  0
   -2.8667   -2.1933   -0.3062 C   0  0  0  0  0  0  0  0  0  0  0  0
   -3.6860    2.7288   -0.5357 C   0  0  0  0  0  0  0  0  0  0  0  0
    4.9627    0.8224   -1.7134 C   0  0  0  0  0  0  0  0  0  0  0  0
   -2.6309   -2.8992   -1.6364 C   0  0  0  0  0  0  0  0  0  0  0  0
    0.4332   -0.8554    2.5393 H   0  0  0  0  0  0  0  0  0  0  0  0
    3.7303    1.0594    0.5263 H   0  0  0  0  0  0  0  0  0  0  0  0
    1.0978    2.6979    1.8119 H   0  0  0  0  0  0  0  0  0  0  0  0
    0.3127    1.6086    2.9646 H   0  0  0  0  0  0  0  0  0  0  0  0
    2.0375    1.4415    2.6045 H   0  0  0  0  0  0  0  0  0  0  0  0
    2.1545   -2.4383    1.8882 H   0  0  0  0  0  0  0  0  0  0  0  0
   -3.2592    3.3298   -1.3460 H   0  0  0  0  0  0  0  0  0  0  0  0
   -4.6820    2.4168   -0.8643 H   0  0  0  0  0  0  0  0  0  0  0  0
   -3.8353    3.3587    0.3482 H   0  0  0  0  0  0  0  0  0  0  0  0
    4.2201   -2.4600    1.3245 H   0  0  0  0  0  0  0  0  0  0  0  0
   -1.7171    3.7454    0.1564 H   0  0  0  0  0  0  0  0  0  0  0  0
    4.7650    1.8968   -1.6877 H   0  0  0  0  0  0  0  0  0  0  0  0
    5.7524    0.5655   -1.0030 H   0  0  0  0  0  0  0  0  0  0  0  0
    5.2909    0.5479   -2.7198 H   0  0  0  0  0  0  0  0  0  0  0  0
   -4.6848   -0.9006   -0.9556 H   0  0  0  0  0  0  0  0  0  0  0  0
   -2.0078   -3.7813   -1.4690 H   0  0  0  0  0  0  0  0  0  0  0  0
   -2.1180   -2.2335   -2.3363 H   0  0  0  0  0  0  0  0  0  0  0  0
   -3.5937   -3.1866   -2.0661 H   0  0  0  0  0  0  0  0  0  0  0  0
  1  9  1  0  0  0  0
  1 13  1  0  0  0  0
  2 11  2  0  0  0  0
  3 16  1  0  0  0  0
  3 35  1  0  0  0  0
  4 17  1  0  0  0  0
  4 36  1  0  0  0  0
  5 21  1  0  0  0  0
  5 40  1  0  0  0  0
  6 20  2  0  0  0  0
  7 22  2  0  0  0  0
  8  9  1  0  0  0  0
  8 10  1  0  0  0  0
  8 11  1  0  0  0  0
  8 14  1  0  0  0  0
  9 15  1  0  0  0  0
  9 26  1  0  0  0  0
 10 13  1  0  0  0  0
 10 17  2  0  0  0  0
 11 12  1  0  0  0  0
 12 16  1  0  0  0  0
 12 20  1  0  0  0  0
 12 27  1  0  0  0  0
 13 18  2  0  0  0  0
 14 28  1  0  0  0  0
 14 29  1  0  0  0  0
 14 30  1  0  0  0  0
 15 16  2  0  0  0  0
 15 31  1  0  0  0  0
 17 19  1  0  0  0  0
 18 21  1  0  0  0  0
 18 22  1  0  0  0  0
 19 21  2  0  0  0  0
 19 23  1  0  0  0  0
 20 24  1  0  0  0  0
 22 25  1  0  0  0  0
 23 32  1  0  0  0  0
 23 33  1  0  0  0  0
 23 34  1  0  0  0  0
 24 37  1  0  0  0  0
 24 38  1  0  0  0  0
 24 39  1  0  0  0  0
 25 41  1  0  0  0  0
 25 42  1  0  0  0  0
 25 43  1  0  0  0  0
M  END
> <PUBCHEM_COMPOUND_CID>
439797

> <PUBCHEM_CONFORMER_RMSD>
0.6

> <PUBCHEM_CONFORMER_DIVERSEORDER>
1
6
18
23
13
8
17
11
20
4
9
24
10
22
15
7
21
2
12
14
5
3
16
19

> <PUBCHEM_MMFF94_PARTIAL_CHARGES>
28
1 -0.36
10 -0.14
11 0.45
12 0.26
13 0.08
15 -0.29
16 -0.06
17 0.08
18 0.09
19 -0.14
2 -0.57
20 0.45
21 0.08
22 0.42
23 0.14
24 0.06
25 0.06
3 -0.53
31 0.15
35 0.45
36 0.45
4 -0.53
40 0.45
5 -0.53
6 -0.57
7 -0.57
8 0.2
9 0.42

> <PUBCHEM_EFFECTIVE_ROTOR_COUNT>
2.4

> <PUBCHEM_PHARMACOPHORE_FEATURES>
11
1 1 acceptor
1 12 anion
1 2 acceptor
1 3 donor
1 4 donor
1 5 donor
1 6 acceptor
1 7 acceptor
5 1 8 9 10 13 rings
6 10 13 17 18 19 21 rings
6 8 9 11 12 15 16 rings

> <PUBCHEM_HEAVY_ATOM_COUNT>
25

> <PUBCHEM_ATOM_DEF_STEREO_COUNT>
1

> <PUBCHEM_ATOM_UDEF_STEREO_COUNT>
2

> <PUBCHEM_BOND_DEF_STEREO_COUNT>
0

> <PUBCHEM_BOND_UDEF_STEREO_COUNT>
0

> <PUBCHEM_ISOTOPIC_ATOM_COUNT>
0

> <PUBCHEM_COMPONENT_COUNT>
1

> <PUBCHEM_CACTVS_TAUTO_COUNT>
252

> <PUBCHEM_CONFORMER_ID>
0006B5F500000001

> <PUBCHEM_MMFF94_ENERGY>
72.3684

> <PUBCHEM_FEATURE_SELFOVERLAP>
56.078

> <PUBCHEM_SHAPE_FINGERPRINT>
10062212 137 18201165445980241130
10863032 1 18343865524073326884
11578080 2 17841752661498598956
11640471 11 17774427382537963604
12156800 1 14207943735914173918
12202030 40 16733267833307043127
12553582 1 18194407684624079627
12670546 177 18335411340665892628
12707595 3 17822292349199739234
12714826 92 18187920655976630971
12788726 201 18335976558066750817
13009979 54 18130520728953149642
13140716 1 18336839610633770043
13544653 18 15502365738790966874
14115302 16 18267313207968396488
14790565 3 17975127957512667177
15664445 248 17471587529463984215
16752209 62 18337407036069557809
16945 1 18336262465349230976
17980427 23 18059594494205324290
1813 80 18118115871333830143
19319366 153 17988649635578068555
19862831 5 17917717893727153338
20511986 3 18129677395261097808
21634736 98 18341049592894990381
22182313 1 18117293470789906721
22393880 68 18411973659907839924
22907989 373 18200893862888246013
2334 1 18195264225688102227
23419403 2 16399796917158804793
23557571 272 18114191825681356464
23559900 14 18188218701564845920
23598288 3 18413107277633854491
2748010 2 18119269297653859417
3082319 5 18131630106052004648
474 4 16845563219510502572
633830 44 16415193520469524192
81228 2 17024586930979336648
90525 40 18267593596539888171
9709674 26 18186805811241573342
9981440 41 17483669010586280256

> <PUBCHEM_SHAPE_MULTIPOLES>
473.4
7.99
2.99
1.67
2.95
0.18
0.16
1.17
3.78
-3.36
0.13
1.62
0.16
-0.64

> <PUBCHEM_SHAPE_SELFOVERLAP>
1043.929

> <PUBCHEM_SHAPE_VOLUME>
254.5

> <PUBCHEM_COORDINATE_TYPE>
2
5
10

$$$$

