70652
  -OEChem-07051212482D

 27 27  0     1  0  0  0  0  0999 V2000
    4.5981    2.6550    0.0000 O   0  0  0  0  0  0  0  0  0  0  0  0
    2.8660    2.6550    0.0000 O   0  0  0  0  0  0  0  0  0  0  0  0
    2.8660   -3.3450    0.0000 O   0  0  0  0  0  0  0  0  0  0  0  0
    4.5981    0.6550    0.0000 N   0  0  0  0  0  0  0  0  0  0  0  0
    2.8660    0.6550    0.0000 C   0  0  0  0  0  0  0  0  0  0  0  0
    3.7320    1.1550    0.0000 C   0  0  1  0  0  0  0  0  0  0  0  0
    2.8660   -0.3450    0.0000 C   0  0  0  0  0  0  0  0  0  0  0  0
    2.0000   -0.8450    0.0000 C   0  0  0  0  0  0  0  0  0  0  0  0
    3.7320   -0.8450    0.0000 C   0  0  0  0  0  0  0  0  0  0  0  0
    3.7320    2.1550    0.0000 C   0  0  0  0  0  0  0  0  0  0  0  0
    2.0000   -1.8450    0.0000 C   0  0  0  0  0  0  0  0  0  0  0  0
    3.7320   -1.8450    0.0000 C   0  0  0  0  0  0  0  0  0  0  0  0
    2.8660   -2.3450    0.0000 C   0  0  0  0  0  0  0  0  0  0  0  0
    4.5981    3.6550    0.0000 C   0  0  0  0  0  0  0  0  0  0  0  0
    2.6540    1.2376    0.0000 H   0  0  0  0  0  0  0  0  0  0  0  0
    2.2554    0.5473    0.0000 H   0  0  0  0  0  0  0  0  0  0  0  0
    3.7320    0.5350    0.0000 H   0  0  0  0  0  0  0  0  0  0  0  0
    1.4631   -0.5350    0.0000 H   0  0  0  0  0  0  0  0  0  0  0  0
    4.2690   -0.5350    0.0000 H   0  0  0  0  0  0  0  0  0  0  0  0
    5.1350    0.9650    0.0000 H   0  0  0  0  0  0  0  0  0  0  0  0
    4.5981    0.0350    0.0000 H   0  0  0  0  0  0  0  0  0  0  0  0
    1.4631   -2.1550    0.0000 H   0  0  0  0  0  0  0  0  0  0  0  0
    4.2690   -2.1550    0.0000 H   0  0  0  0  0  0  0  0  0  0  0  0
    5.2181    3.6550    0.0000 H   0  0  0  0  0  0  0  0  0  0  0  0
    4.5981    4.2750    0.0000 H   0  0  0  0  0  0  0  0  0  0  0  0
    3.9781    3.6550    0.0000 H   0  0  0  0  0  0  0  0  0  0  0  0
    2.3291   -3.6550    0.0000 H   0  0  0  0  0  0  0  0  0  0  0  0
  1 10  1  0  0  0  0
  1 14  1  0  0  0  0
  2 10  2  0  0  0  0
  3 13  1  0  0  0  0
  3 27  1  0  0  0  0
  6  4  1  1  0  0  0
  4 20  1  0  0  0  0
  4 21  1  0  0  0  0
  5  6  1  0  0  0  0
  5  7  1  0  0  0  0
  5 15  1  0  0  0  0
  5 16  1  0  0  0  0
  6 10  1  0  0  0  0
  6 17  1  0  0  0  0
  7  8  2  0  0  0  0
  7  9  1  0  0  0  0
  8 11  1  0  0  0  0
  8 18  1  0  0  0  0
  9 12  2  0  0  0  0
  9 19  1  0  0  0  0
 11 13  2  0  0  0  0
 11 22  1  0  0  0  0
 12 13  1  0  0  0  0
 12 23  1  0  0  0  0
 14 24  1  0  0  0  0
 14 25  1  0  0  0  0
 14 26  1  0  0  0  0
M  END
> <PUBCHEM_COMPOUND_CID>
70652

> <PUBCHEM_COMPOUND_CANONICALIZED>
1

> <PUBCHEM_CACTVS_COMPLEXITY>
188

> <PUBCHEM_CACTVS_HBOND_ACCEPTOR>
4

> <PUBCHEM_CACTVS_HBOND_DONOR>
2

> <PUBCHEM_CACTVS_ROTATABLE_BOND>
4

> <PUBCHEM_CACTVS_SUBSKEYS>
AAADccByMAAAAAAAAAAAAAAAAAAAAAAAAAAwAAAAAAAAAAABAAAAHgAQCAAADCzBmAYyDoBABgCIAiDSCAACAAAgIAAIiIGGCIgKJjKCkROBcAAk0BEImAeYyKCOIAAAAAAAAABAAAAAAAAAAAAAAAAAAA==

> <PUBCHEM_IUPAC_OPENEYE_NAME>
methyl (2S)-2-amino-3-(4-hydroxyphenyl)propanoate

> <PUBCHEM_IUPAC_CAS_NAME>
(2S)-2-amino-3-(4-hydroxyphenyl)propanoic acid methyl ester

> <PUBCHEM_IUPAC_NAME>
methyl (2S)-2-amino-3-(4-hydroxyphenyl)propanoate

> <PUBCHEM_IUPAC_SYSTEMATIC_NAME>
methyl (2S)-2-azanyl-3-(4-hydroxyphenyl)propanoate

> <PUBCHEM_IUPAC_TRADITIONAL_NAME>
(2S)-2-amino-3-(4-hydroxyphenyl)propionic acid methyl ester

> <PUBCHEM_IUPAC_INCHI>
InChI=1S/C10H13NO3/c1-14-10(13)9(11)6-7-2-4-8(12)5-3-7/h2-5,9,12H,6,11H2,1H3/t9-/m0/s1

> <PUBCHEM_IUPAC_INCHIKEY>
MWZPENIJLUWBSY-VIFPVBQESA-N

> <PUBCHEM_XLOGP3>
0.3

> <PUBCHEM_EXACT_MASS>
195.089543

> <PUBCHEM_MOLECULAR_FORMULA>
C10H13NO3

> <PUBCHEM_MOLECULAR_WEIGHT>
195.21512

> <PUBCHEM_OPENEYE_CAN_SMILES>
COC(=O)C(CC1=CC=C(C=C1)O)N

> <PUBCHEM_OPENEYE_ISO_SMILES>
COC(=O)[C@H](CC1=CC=C(C=C1)O)N

> <PUBCHEM_CACTVS_TPSA>
72.6

> <PUBCHEM_MONOISOTOPIC_WEIGHT>
195.089543

> <PUBCHEM_TOTAL_CHARGE>
0

> <PUBCHEM_HEAVY_ATOM_COUNT>
14

> <PUBCHEM_ATOM_DEF_STEREO_COUNT>
1

> <PUBCHEM_ATOM_UDEF_STEREO_COUNT>
0

> <PUBCHEM_BOND_DEF_STEREO_COUNT>
0

> <PUBCHEM_BOND_UDEF_STEREO_COUNT>
0

> <PUBCHEM_ISOTOPIC_ATOM_COUNT>
0

> <PUBCHEM_COMPONENT_COUNT>
1

> <PUBCHEM_CACTVS_TAUTO_COUNT>
2

> <PUBCHEM_COORDINATE_TYPE>
1
5
255

> <PUBCHEM_BONDANNOTATIONS>
11  13  8
12  13  8
6  4  5
7  8  8
7  9  8
8  11  8
9  12  8

$$$$

