91745
  -OEChem-07051213002D

 46 48  0     1  0  0  0  0  0999 V2000
    8.3251    1.8108    0.0000 O   0  0  0  0  0  0  0  0  0  0  0  0
    5.6049   -0.0129    0.0000 O   0  0  0  0  0  0  0  0  0  0  0  0
    8.8029   -0.1378    0.0000 C   0  0  1  0  0  0  0  0  0  0  0  0
    9.0617    0.8282    0.0000 C   0  0  2  0  0  0  0  0  0  0  0  0
    6.5708   -0.2717    0.0000 C   0  0  1  0  0  0  0  0  0  0  0  0
    7.0708   -1.1378    0.0000 C   0  0  0  0  0  0  0  0  0  0  0  0
   10.6348   -0.8966    0.0000 C   0  0  0  0  0  0  0  0  0  0  0  0
   10.8936    0.0694    0.0000 C   0  0  0  0  0  0  0  0  0  0  0  0
    8.5440   -1.1037    0.0000 C   0  0  0  0  0  0  0  0  0  0  0  0
    9.3205    1.7941    0.0000 C   0  0  0  0  0  0  0  0  0  0  0  0
    9.2512   -1.8108    0.0000 C   0  0  0  0  0  0  0  0  0  0  0  0
    7.8369   -1.8107    0.0000 C   0  0  0  0  0  0  0  0  0  0  0  0
    4.8978   -0.7200    0.0000 C   0  0  0  0  0  0  0  0  0  0  0  0
    3.9318   -0.4612    0.0000 C   0  0  0  0  0  0  0  0  0  0  0  0
    3.6730    0.5047    0.0000 C   0  0  0  0  0  0  0  0  0  0  0  0
    3.2247   -1.1683    0.0000 C   0  0  0  0  0  0  0  0  0  0  0  0
    2.7071    0.7635    0.0000 C   0  0  0  0  0  0  0  0  0  0  0  0
    4.3801    1.2118    0.0000 C   0  0  0  0  0  0  0  0  0  0  0  0
    2.2588   -0.9095    0.0000 C   0  0  0  0  0  0  0  0  0  0  0  0
    2.0000    0.0564    0.0000 C   0  0  0  0  0  0  0  0  0  0  0  0
    6.5231    0.3464    0.0000 H   0  0  0  0  0  0  0  0  0  0  0  0
    6.5339   -1.4478    0.0000 H   0  0  0  0  0  0  0  0  0  0  0  0
    7.3808   -1.6747    0.0000 H   0  0  0  0  0  0  0  0  0  0  0  0
   10.4228   -1.4792    0.0000 H   0  0  0  0  0  0  0  0  0  0  0  0
   11.2261   -1.0830    0.0000 H   0  0  0  0  0  0  0  0  0  0  0  0
   11.4849   -0.1171    0.0000 H   0  0  0  0  0  0  0  0  0  0  0  0
   11.1057    0.6520    0.0000 H   0  0  0  0  0  0  0  0  0  0  0  0
    8.0071   -0.7937    0.0000 H   0  0  0  0  0  0  0  0  0  0  0  0
    9.9194    1.6336    0.0000 H   0  0  0  0  0  0  0  0  0  0  0  0
    9.4810    2.3930    0.0000 H   0  0  0  0  0  0  0  0  0  0  0  0
    8.7216    1.9546    0.0000 H   0  0  0  0  0  0  0  0  0  0  0  0
    8.8127   -2.2492    0.0000 H   0  0  0  0  0  0  0  0  0  0  0  0
    9.6896   -2.2492    0.0000 H   0  0  0  0  0  0  0  0  0  0  0  0
    9.6896   -1.3724    0.0000 H   0  0  0  0  0  0  0  0  0  0  0  0
    7.3985   -1.3723    0.0000 H   0  0  0  0  0  0  0  0  0  0  0  0
    7.3984   -2.2491    0.0000 H   0  0  0  0  0  0  0  0  0  0  0  0
    8.2753   -2.2492    0.0000 H   0  0  0  0  0  0  0  0  0  0  0  0
    4.6358   -1.2819    0.0000 H   0  0  0  0  0  0  0  0  0  0  0  0
    5.4056   -1.0756    0.0000 H   0  0  0  0  0  0  0  0  0  0  0  0
    3.3852   -1.7672    0.0000 H   0  0  0  0  0  0  0  0  0  0  0  0
    2.5466    1.3624    0.0000 H   0  0  0  0  0  0  0  0  0  0  0  0
    4.8186    0.7734    0.0000 H   0  0  0  0  0  0  0  0  0  0  0  0
    4.8186    1.6502    0.0000 H   0  0  0  0  0  0  0  0  0  0  0  0
    3.9417    1.6502    0.0000 H   0  0  0  0  0  0  0  0  0  0  0  0
    1.8204   -1.3479    0.0000 H   0  0  0  0  0  0  0  0  0  0  0  0
    1.4011    0.2169    0.0000 H   0  0  0  0  0  0  0  0  0  0  0  0
  1  3  1  0  0  0  0
  1  4  1  0  0  0  0
  5  2  1  1  0  0  0
  2 13  1  0  0  0  0
  3  6  1  0  0  0  0
  3  7  1  0  0  0  0
  3  9  1  1  0  0  0
  4  5  1  0  0  0  0
  4  8  1  0  0  0  0
  4 10  1  6  0  0  0
  5  6  1  0  0  0  0
  5 21  1  0  0  0  0
  6 22  1  0  0  0  0
  6 23  1  0  0  0  0
  7  8  1  0  0  0  0
  7 24  1  0  0  0  0
  7 25  1  0  0  0  0
  8 26  1  0  0  0  0
  8 27  1  0  0  0  0
  9 11  1  0  0  0  0
  9 12  1  0  0  0  0
  9 28  1  0  0  0  0
 10 29  1  0  0  0  0
 10 30  1  0  0  0  0
 10 31  1  0  0  0  0
 11 32  1  0  0  0  0
 11 33  1  0  0  0  0
 11 34  1  0  0  0  0
 12 35  1  0  0  0  0
 12 36  1  0  0  0  0
 12 37  1  0  0  0  0
 13 14  1  0  0  0  0
 13 38  1  0  0  0  0
 13 39  1  0  0  0  0
 14 15  1  0  0  0  0
 14 16  2  0  0  0  0
 15 17  2  0  0  0  0
 15 18  1  0  0  0  0
 16 19  1  0  0  0  0
 16 40  1  0  0  0  0
 17 20  1  0  0  0  0
 17 41  1  0  0  0  0
 18 42  1  0  0  0  0
 18 43  1  0  0  0  0
 18 44  1  0  0  0  0
 19 20  2  0  0  0  0
 19 45  1  0  0  0  0
 20 46  1  0  0  0  0
M  END
> <PUBCHEM_COMPOUND_CID>
91745

> <PUBCHEM_COMPOUND_CANONICALIZED>
1

> <PUBCHEM_CACTVS_COMPLEXITY>
353

> <PUBCHEM_CACTVS_HBOND_ACCEPTOR>
2

> <PUBCHEM_CACTVS_HBOND_DONOR>
0

> <PUBCHEM_CACTVS_ROTATABLE_BOND>
4

> <PUBCHEM_CACTVS_SUBSKEYS>
AAADceB4MAAAAAAAAAAAAAAAAAAAASJAAAAwYAAAAAAAAAABAAAAGgAAAAAADVSgmAIyAIAABACAAiBCAAACAAAgAAAIiAAACIgJJiKAMRiCMAAlwAEKqAeA4PwOgAAAAAAQAADAAAIQADCAAAAAAAAAAA==

> <PUBCHEM_IUPAC_OPENEYE_NAME>
(1S,2R,4R)-4-isopropyl-1-methyl-2-(o-tolylmethoxy)-7-oxabicyclo[2.2.1]heptane

> <PUBCHEM_IUPAC_CAS_NAME>
(1S,2R,4R)-1-methyl-2-[(2-methylphenyl)methoxy]-4-propan-2-yl-7-oxabicyclo[2.2.1]heptane

> <PUBCHEM_IUPAC_NAME>
(1S,2R,4R)-1-methyl-2-[(2-methylphenyl)methoxy]-4-propan-2-yl-7-oxabicyclo[2.2.1]heptane

> <PUBCHEM_IUPAC_SYSTEMATIC_NAME>
(1S,2R,4R)-1-methyl-2-[(2-methylphenyl)methoxy]-4-propan-2-yl-7-oxabicyclo[2.2.1]heptane

> <PUBCHEM_IUPAC_TRADITIONAL_NAME>
(1S,2R,4R)-4-isopropyl-1-methyl-2-(2-methylbenzyl)oxy-7-oxabicyclo[2.2.1]heptane

> <PUBCHEM_IUPAC_INCHI>
InChI=1S/C18H26O2/c1-13(2)18-10-9-17(4,20-18)16(11-18)19-12-15-8-6-5-7-14(15)3/h5-8,13,16H,9-12H2,1-4H3/t16-,17+,18-/m1/s1

> <PUBCHEM_IUPAC_INCHIKEY>
QMTNOLKHSWIQBE-FGTMMUONSA-N

> <PUBCHEM_XLOGP3>
3.8

> <PUBCHEM_EXACT_MASS>
274.19328

> <PUBCHEM_MOLECULAR_FORMULA>
C18H26O2

> <PUBCHEM_MOLECULAR_WEIGHT>
274.39784

> <PUBCHEM_OPENEYE_CAN_SMILES>
CC1=CC=CC=C1COC2CC3(CCC2(O3)C)C(C)C

> <PUBCHEM_OPENEYE_ISO_SMILES>
CC1=CC=CC=C1CO[C@@H]2C[C@]3(CC[C@@]2(O3)C)C(C)C

> <PUBCHEM_CACTVS_TPSA>
18.5

> <PUBCHEM_MONOISOTOPIC_WEIGHT>
274.19328

> <PUBCHEM_TOTAL_CHARGE>
0

> <PUBCHEM_HEAVY_ATOM_COUNT>
20

> <PUBCHEM_ATOM_DEF_STEREO_COUNT>
3

> <PUBCHEM_ATOM_UDEF_STEREO_COUNT>
0

> <PUBCHEM_BOND_DEF_STEREO_COUNT>
0

> <PUBCHEM_BOND_UDEF_STEREO_COUNT>
0

> <PUBCHEM_ISOTOPIC_ATOM_COUNT>
0

> <PUBCHEM_COMPONENT_COUNT>
1

> <PUBCHEM_CACTVS_TAUTO_COUNT>
1

> <PUBCHEM_COORDINATE_TYPE>
1
5
255

> <PUBCHEM_BONDANNOTATIONS>
14  15  8
14  16  8
15  17  8
16  19  8
17  20  8
19  20  8
5  2  5
3  9  5
4  10  6

$$$$

