9788
  -OEChem-06261204043D

  8  7  0     0  0  0  0  0  0999 V2000
    1.3757   -1.0877   -0.1257 F   0  0  0  0  0  0  0  0  0  0  0  0
    1.3113    1.0873   -0.1686 F   0  0  0  0  0  0  0  0  0  0  0  0
   -1.2732    1.1758   -0.0357 O   0  0  0  0  0  0  0  0  0  0  0  0
   -1.3860   -1.0988   -0.0864 O   0  0  0  0  0  0  0  0  0  0  0  0
    0.7151   -0.0085    0.3690 C   0  0  0  0  0  0  0  0  0  0  0  0
   -0.7429   -0.0681    0.0474 C   0  0  0  0  0  0  0  0  0  0  0  0
    0.8518    0.0178    1.4533 H   0  0  0  0  0  0  0  0  0  0  0  0
   -2.2349    1.1524   -0.2278 H   0  0  0  0  0  0  0  0  0  0  0  0
  1  5  1  0  0  0  0
  2  5  1  0  0  0  0
  3  6  1  0  0  0  0
  3  8  1  0  0  0  0
  4  6  2  0  0  0  0
  5  6  1  0  0  0  0
  5  7  1  0  0  0  0
M  END
> <PUBCHEM_COMPOUND_CID>
9788

> <PUBCHEM_CONFORMER_RMSD>
0.4

> <PUBCHEM_CONFORMER_DIVERSEORDER>
1
3
2

> <PUBCHEM_MMFF94_PARTIAL_CHARGES>
7
1 -0.34
2 -0.34
3 -0.65
4 -0.57
5 0.74
6 0.66
8 0.5

> <PUBCHEM_EFFECTIVE_ROTOR_COUNT>
1

> <PUBCHEM_PHARMACOPHORE_FEATURES>
3
1 3 acceptor
1 4 acceptor
3 3 4 6 anion

> <PUBCHEM_HEAVY_ATOM_COUNT>
6

> <PUBCHEM_ATOM_DEF_STEREO_COUNT>
0

> <PUBCHEM_ATOM_UDEF_STEREO_COUNT>
0

> <PUBCHEM_BOND_DEF_STEREO_COUNT>
0

> <PUBCHEM_BOND_UDEF_STEREO_COUNT>
0

> <PUBCHEM_ISOTOPIC_ATOM_COUNT>
0

> <PUBCHEM_COMPONENT_COUNT>
1

> <PUBCHEM_CACTVS_TAUTO_COUNT>
1

> <PUBCHEM_CONFORMER_ID>
0000263C00000001

> <PUBCHEM_MMFF94_ENERGY>
2.1586

> <PUBCHEM_FEATURE_SELFOVERLAP>
15.279

> <PUBCHEM_SHAPE_FINGERPRINT>
139733 1 9510923473403809739
16714656 1 17762612189505083558
20096714 4 18268991049737835673
21015797 1 9150909281408883345
21040471 1 18122348140258990401
24536 1 18339095838057446961
29004967 10 18054783979903553659
5943 1 13825282813101625289

> <PUBCHEM_SHAPE_MULTIPOLES>
97.19
1.79
1.25
0.57
0.06
0.05
0.04
-0.06
-0.09
-0.07
-0.08
0.02
0
-0.02

> <PUBCHEM_SHAPE_SELFOVERLAP>
181.367

> <PUBCHEM_SHAPE_VOLUME>
60.6

> <PUBCHEM_COORDINATE_TYPE>
2
5
10

$$$$

