442780
  -OEChem-07051212593D

 47 49  0     1  0  0  0  0  0999 V2000
   -0.5598    1.1843   -0.0087 O   0  0  0  0  0  0  0  0  0  0  0  0
   -5.4947   -2.6889    0.1634 O   0  0  0  0  0  0  0  0  0  0  0  0
    7.0203   -2.0536   -0.4261 O   0  0  0  0  0  0  0  0  0  0  0  0
    0.4391    2.2045    0.0933 C   0  0  2  0  0  0  0  0  0  0  0  0
    0.1372    3.3407   -0.8857 C   0  0  0  0  0  0  0  0  0  0  0  0
   -1.2610    3.9002   -0.6456 C   0  0  0  0  0  0  0  0  0  0  0  0
   -1.8705    1.6609    0.3217 C   0  0  1  0  0  0  0  0  0  0  0  0
   -2.2929    2.7767   -0.6415 C   0  0  0  0  0  0  0  0  0  0  0  0
    1.7872    1.5651   -0.2089 C   0  0  0  0  0  0  0  0  0  0  0  0
   -2.8386    0.4991    0.2793 C   0  0  0  0  0  0  0  0  0  0  0  0
    2.0745    0.3995    0.7371 C   0  0  0  0  0  0  0  0  0  0  0  0
    3.3959   -0.2556    0.4262 C   0  0  0  0  0  0  0  0  0  0  0  0
   -3.9294    0.4677    1.1482 C   0  0  0  0  0  0  0  0  0  0  0  0
   -2.6407   -0.5412   -0.6290 C   0  0  0  0  0  0  0  0  0  0  0  0
   -4.8218   -0.6036    1.1092 C   0  0  0  0  0  0  0  0  0  0  0  0
   -3.5331   -1.6125   -0.6681 C   0  0  0  0  0  0  0  0  0  0  0  0
    3.4391   -1.3073   -0.4766 C   0  0  0  0  0  0  0  0  0  0  0  0
    4.5471    0.2039    1.0484 C   0  0  0  0  0  0  0  0  0  0  0  0
   -4.6238   -1.6438    0.2010 C   0  0  0  0  0  0  0  0  0  0  0  0
    4.6619   -1.9138   -0.7641 C   0  0  0  0  0  0  0  0  0  0  0  0
    5.7700   -0.4025    0.7610 C   0  0  0  0  0  0  0  0  0  0  0  0
    5.8274   -1.4614   -0.1454 C   0  0  0  0  0  0  0  0  0  0  0  0
   -5.2332   -3.7184   -0.7892 C   0  0  0  0  0  0  0  0  0  0  0  0
    0.4462    2.5881    1.1220 H   0  0  0  0  0  0  0  0  0  0  0  0
    0.1855    2.9643   -1.9155 H   0  0  0  0  0  0  0  0  0  0  0  0
    0.8814    4.1392   -0.7915 H   0  0  0  0  0  0  0  0  0  0  0  0
   -1.5096    4.6362   -1.4181 H   0  0  0  0  0  0  0  0  0  0  0  0
   -1.2857    4.4230    0.3184 H   0  0  0  0  0  0  0  0  0  0  0  0
   -1.8329    2.0441    1.3505 H   0  0  0  0  0  0  0  0  0  0  0  0
   -3.2782    3.1740   -0.3714 H   0  0  0  0  0  0  0  0  0  0  0  0
   -2.3739    2.3786   -1.6616 H   0  0  0  0  0  0  0  0  0  0  0  0
    2.5823    2.3176   -0.1366 H   0  0  0  0  0  0  0  0  0  0  0  0
    1.7928    1.1908   -1.2415 H   0  0  0  0  0  0  0  0  0  0  0  0
    1.2830   -0.3584    0.6805 H   0  0  0  0  0  0  0  0  0  0  0  0
    2.0744    0.7504    1.7772 H   0  0  0  0  0  0  0  0  0  0  0  0
   -4.0956    1.2729    1.8588 H   0  0  0  0  0  0  0  0  0  0  0  0
   -1.8054   -0.5333   -1.3240 H   0  0  0  0  0  0  0  0  0  0  0  0
   -5.6698   -0.6222    1.7883 H   0  0  0  0  0  0  0  0  0  0  0  0
   -3.3215   -2.3851   -1.3993 H   0  0  0  0  0  0  0  0  0  0  0  0
    2.5373   -1.6654   -0.9651 H   0  0  0  0  0  0  0  0  0  0  0  0
    4.5129    1.0289    1.7542 H   0  0  0  0  0  0  0  0  0  0  0  0
    4.6932   -2.7375   -1.4723 H   0  0  0  0  0  0  0  0  0  0  0  0
    6.6745   -0.0455    1.2458 H   0  0  0  0  0  0  0  0  0  0  0  0
   -4.2829   -4.2235   -0.5852 H   0  0  0  0  0  0  0  0  0  0  0  0
   -5.2904   -3.3406   -1.8157 H   0  0  0  0  0  0  0  0  0  0  0  0
   -6.0236   -4.4682   -0.6800 H   0  0  0  0  0  0  0  0  0  0  0  0
    6.8742   -2.7661   -1.0719 H   0  0  0  0  0  0  0  0  0  0  0  0
  1  4  1  0  0  0  0
  1  7  1  0  0  0  0
  2 19  1  0  0  0  0
  2 23  1  0  0  0  0
  3 22  1  0  0  0  0
  3 47  1  0  0  0  0
  4  5  1  0  0  0  0
  4  9  1  0  0  0  0
  4 24  1  0  0  0  0
  5  6  1  0  0  0  0
  5 25  1  0  0  0  0
  5 26  1  0  0  0  0
  6  8  1  0  0  0  0
  6 27  1  0  0  0  0
  6 28  1  0  0  0  0
  7  8  1  0  0  0  0
  7 10  1  0  0  0  0
  7 29  1  0  0  0  0
  8 30  1  0  0  0  0
  8 31  1  0  0  0  0
  9 11  1  0  0  0  0
  9 32  1  0  0  0  0
  9 33  1  0  0  0  0
 10 13  2  0  0  0  0
 10 14  1  0  0  0  0
 11 12  1  0  0  0  0
 11 34  1  0  0  0  0
 11 35  1  0  0  0  0
 12 17  2  0  0  0  0
 12 18  1  0  0  0  0
 13 15  1  0  0  0  0
 13 36  1  0  0  0  0
 14 16  2  0  0  0  0
 14 37  1  0  0  0  0
 15 19  2  0  0  0  0
 15 38  1  0  0  0  0
 16 19  1  0  0  0  0
 16 39  1  0  0  0  0
 17 20  1  0  0  0  0
 17 40  1  0  0  0  0
 18 21  2  0  0  0  0
 18 41  1  0  0  0  0
 20 22  2  0  0  0  0
 20 42  1  0  0  0  0
 21 22  1  0  0  0  0
 21 43  1  0  0  0  0
 23 44  1  0  0  0  0
 23 45  1  0  0  0  0
 23 46  1  0  0  0  0
M  END
> <PUBCHEM_COMPOUND_CID>
442780

> <PUBCHEM_CONFORMER_RMSD>
0.8

> <PUBCHEM_CONFORMER_DIVERSEORDER>
1
21
30
29
3
10
17
31
13
9
11
24
25
27
28
14
5
18
26
20
8
22
2
6
16
23
19
12
15
32
33
7
4

> <PUBCHEM_MMFF94_PARTIAL_CHARGES>
28
1 -0.56
10 -0.14
11 0.14
12 -0.14
13 -0.15
14 -0.15
15 -0.15
16 -0.15
17 -0.15
18 -0.15
19 0.08
2 -0.36
20 -0.15
21 -0.15
22 0.08
23 0.28
3 -0.53
36 0.15
37 0.15
38 0.15
39 0.15
4 0.28
40 0.15
41 0.15
42 0.15
43 0.15
47 0.45
7 0.42

> <PUBCHEM_EFFECTIVE_ROTOR_COUNT>
6.2

> <PUBCHEM_PHARMACOPHORE_FEATURES>
6
1 1 acceptor
1 2 acceptor
1 3 donor
6 1 4 5 6 7 8 rings
6 10 13 14 15 16 19 rings
6 12 17 18 20 21 22 rings

> <PUBCHEM_HEAVY_ATOM_COUNT>
23

> <PUBCHEM_ATOM_DEF_STEREO_COUNT>
2

> <PUBCHEM_ATOM_UDEF_STEREO_COUNT>
0

> <PUBCHEM_BOND_DEF_STEREO_COUNT>
0

> <PUBCHEM_BOND_UDEF_STEREO_COUNT>
0

> <PUBCHEM_ISOTOPIC_ATOM_COUNT>
0

> <PUBCHEM_COMPONENT_COUNT>
1

> <PUBCHEM_CACTVS_TAUTO_COUNT>
2

> <PUBCHEM_CONFORMER_ID>
0006C19C00000001

> <PUBCHEM_MMFF94_ENERGY>
63.6544

> <PUBCHEM_FEATURE_SELFOVERLAP>
30.446

> <PUBCHEM_SHAPE_FINGERPRINT>
10042902 136 18409725140837245294
10622 236 17682128677656702383
11014199 57 18192718830089027406
11056379 131 18270116962851612840
11370993 144 17459466843675631368
11796584 16 17907300206745417482
11809386 21 18130513058109773794
12107183 9 18336252502022214553
12553582 1 18272941522260252841
12623949 98 18040989597442454310
12633257 1 15430320166192297203
13009979 54 18188761757076881913
13402501 40 18261109703435824142
13533116 47 18051129186764059915
13782708 43 18263083366137569194
14114206 34 17203615908341649129
14117953 113 18408604777924157847
14251740 57 18264211318083490698
14251764 30 18410012143685181890
14429380 30 18341610378343552770
14739800 52 9727346858649046580
14848178 96 9223241731873689483
14950920 106 16588310453473098571
15042514 8 18339640139785927013
15352361 1 18411139116948265323
15361156 5 18200579371975827160
16110190 28 18260263036368668246
16120349 21 18408595977625475019
17492 89 18122342385810149723
17780758 139 17894629296379260225
1813 80 18271805692146785717
19141452 34 18335697291146413481
193927 3 18272927206891759337
20621476 21 18261103128167766446
21054139 6 17988923423074820562
21307412 95 18338808900594532053
21585480 29 17172105932134973414
21774942 28 12463028618609824886
22950370 63 18410849949848898196
23559900 14 18338529628736512464
2748736 6 8862949346569102114
312425 54 17967529090543873923
3421961 26 18266180517860988769
4409770 3 18198910399799527765
484985 159 18340775944044888965
56633871 153 18335410288689081155
7970288 3 18339927017462198467
8863177 126 18333452071417635570

> <PUBCHEM_SHAPE_MULTIPOLES>
455.72
15.19
4.28
1.02
13.51
1.62
0.1
-17.77
1.15
-4.59
-1.77
-0.2
0.02
0.2

> <PUBCHEM_SHAPE_SELFOVERLAP>
966.284

> <PUBCHEM_SHAPE_VOLUME>
254.5

> <PUBCHEM_COORDINATE_TYPE>
2
5
10

$$$$

