7196
  -OEChem-06261201533D

 18 19  0     0  0  0  0  0  0999 V2000
    2.0888   -1.5137    0.0007 O   0  0  0  0  0  0  0  0  0  0  0  0
    2.8465    0.7740    0.0005 O   0  0  0  0  0  0  0  0  0  0  0  0
   -2.8928   -1.5157   -0.0009 O   0  0  0  0  0  0  0  0  0  0  0  0
   -3.5297    0.6663    0.0014 O   0  0  0  0  0  0  0  0  0  0  0  0
    1.0562   -0.6271   -0.0006 C   0  0  0  0  0  0  0  0  0  0  0  0
    1.4889    0.6792   -0.0007 C   0  0  0  0  0  0  0  0  0  0  0  0
   -0.2860   -0.9474   -0.0006 C   0  0  0  0  0  0  0  0  0  0  0  0
   -1.2038    0.1057   -0.0003 C   0  0  0  0  0  0  0  0  0  0  0  0
    3.2199   -0.6188    0.0008 C   0  0  0  0  0  0  0  0  0  0  0  0
    0.6035    1.7373   -0.0006 C   0  0  0  0  0  0  0  0  0  0  0  0
   -0.7616    1.4404   -0.0004 C   0  0  0  0  0  0  0  0  0  0  0  0
   -2.6300   -0.1802    0.0006 C   0  0  0  0  0  0  0  0  0  0  0  0
   -0.5796   -1.9913   -0.0002 H   0  0  0  0  0  0  0  0  0  0  0  0
    3.8264   -0.8198   -0.8898 H   0  0  0  0  0  0  0  0  0  0  0  0
    3.8259   -0.8196    0.8918 H   0  0  0  0  0  0  0  0  0  0  0  0
    0.9486    2.7649   -0.0002 H   0  0  0  0  0  0  0  0  0  0  0  0
   -1.4736    2.2622    0.0000 H   0  0  0  0  0  0  0  0  0  0  0  0
   -3.8568   -1.6980   -0.0009 H   0  0  0  0  0  0  0  0  0  0  0  0
  1  5  1  0  0  0  0
  1  9  1  0  0  0  0
  2  6  1  0  0  0  0
  2  9  1  0  0  0  0
  3 12  1  0  0  0  0
  3 18  1  0  0  0  0
  4 12  2  0  0  0  0
  5  6  2  0  0  0  0
  5  7  1  0  0  0  0
  6 10  1  0  0  0  0
  7  8  2  0  0  0  0
  7 13  1  0  0  0  0
  8 11  1  0  0  0  0
  8 12  1  0  0  0  0
  9 14  1  0  0  0  0
  9 15  1  0  0  0  0
 10 11  2  0  0  0  0
 10 16  1  0  0  0  0
 11 17  1  0  0  0  0
M  END
> <PUBCHEM_COMPOUND_CID>
7196

> <PUBCHEM_CONFORMER_RMSD>
0.4

> <PUBCHEM_CONFORMER_DIVERSEORDER>
1
2

> <PUBCHEM_MMFF94_PARTIAL_CHARGES>
16
1 -0.36
10 -0.15
11 -0.15
12 0.63
13 0.15
16 0.15
17 0.15
18 0.5
2 -0.36
3 -0.65
4 -0.57
5 0.08
6 0.08
7 -0.15
8 0.09
9 0.56

> <PUBCHEM_EFFECTIVE_ROTOR_COUNT>
1.6

> <PUBCHEM_PHARMACOPHORE_FEATURES>
7
1 1 acceptor
1 2 acceptor
1 3 acceptor
1 4 acceptor
3 3 4 12 anion
5 1 2 5 6 9 rings
6 5 6 7 8 10 11 rings

> <PUBCHEM_HEAVY_ATOM_COUNT>
12

> <PUBCHEM_ATOM_DEF_STEREO_COUNT>
0

> <PUBCHEM_ATOM_UDEF_STEREO_COUNT>
0

> <PUBCHEM_BOND_DEF_STEREO_COUNT>
0

> <PUBCHEM_BOND_UDEF_STEREO_COUNT>
0

> <PUBCHEM_ISOTOPIC_ATOM_COUNT>
0

> <PUBCHEM_COMPONENT_COUNT>
1

> <PUBCHEM_CACTVS_TAUTO_COUNT>
1

> <PUBCHEM_CONFORMER_ID>
00001C1C00000001

> <PUBCHEM_MMFF94_ENERGY>
32.0083

> <PUBCHEM_FEATURE_SELFOVERLAP>
35.733

> <PUBCHEM_SHAPE_FINGERPRINT>
10130415 120 18341335577608285553
10219947 1 18260265260998229791
10857977 72 18337401473464456464
11471102 20 18411423920762176293
11769659 78 18410580573679035299
12032990 46 18410285917526821030
12897270 3 18411419531136651694
14128692 85 18409727339776059205
14325111 11 18410856533959747521
16945 1 18410573985236016068
17844478 74 17917704717210652821
193761 8 17329710920970709740
20201158 50 18412828001258152811
20645477 70 18409172142666297607
20871998 22 18189891096904472534
21501925 9 18338246959299119651
23402655 69 18264503922180659341
23463225 33 18411701019119648454
23552423 10 18272367559694192413
2748010 2 18410576175584785252
3312278 4 18410289207508439809
528886 8 18409453587145226611
53812653 166 18261680276871527312
8809292 202 18272927224119387099

> <PUBCHEM_SHAPE_MULTIPOLES>
223.48
4.9
1.62
0.58
1.18
0.17
0
-0.98
0
-0.05
0
-0.01
0.01
0

> <PUBCHEM_SHAPE_SELFOVERLAP>
492.234

> <PUBCHEM_SHAPE_VOLUME>
120.8

> <PUBCHEM_COORDINATE_TYPE>
2
5
10

$$$$

