583057
  -OEChem-06241222443D

 20 22  0     1  0  0  0  0  0999 V2000
   -2.2144   -1.3277    0.0000 O   0  0  0  0  0  0  0  0  0  0  0  0
    2.2146    1.3275    0.0000 O   0  0  0  0  0  0  0  0  0  0  0  0
   -0.7574    0.1986    1.2290 C   0  0  2  0  0  0  0  0  0  0  0  0
   -0.7574    0.1986   -1.2290 C   0  0  1  0  0  0  0  0  0  0  0  0
    0.7573   -0.1985    1.2289 C   0  0  2  0  0  0  0  0  0  0  0  0
    0.7574   -0.1985   -1.2289 C   0  0  1  0  0  0  0  0  0  0  0  0
   -1.3823   -0.4332    0.0000 C   0  0  0  0  0  0  0  0  0  0  0  0
    1.3823    0.4332    0.0000 C   0  0  0  0  0  0  0  0  0  0  0  0
   -1.0215    1.5849    0.6748 C   0  0  0  0  0  0  0  0  0  0  0  0
   -1.0216    1.5848   -0.6749 C   0  0  0  0  0  0  0  0  0  0  0  0
    1.0215   -1.5849    0.6748 C   0  0  0  0  0  0  0  0  0  0  0  0
    1.0215   -1.5848   -0.6748 C   0  0  0  0  0  0  0  0  0  0  0  0
   -1.3166   -0.0541    2.1307 H   0  0  0  0  0  0  0  0  0  0  0  0
   -1.3165   -0.0542   -2.1308 H   0  0  0  0  0  0  0  0  0  0  0  0
    1.3165    0.0541    2.1308 H   0  0  0  0  0  0  0  0  0  0  0  0
    1.3165    0.0542   -2.1307 H   0  0  0  0  0  0  0  0  0  0  0  0
   -1.1502    2.4649    1.2881 H   0  0  0  0  0  0  0  0  0  0  0  0
   -1.1501    2.4648   -1.2882 H   0  0  0  0  0  0  0  0  0  0  0  0
    1.1501   -2.4648    1.2881 H   0  0  0  0  0  0  0  0  0  0  0  0
    1.1500   -2.4647   -1.2881 H   0  0  0  0  0  0  0  0  0  0  0  0
  1  7  2  0  0  0  0
  2  8  2  0  0  0  0
  3  5  1  0  0  0  0
  3  7  1  0  0  0  0
  3  9  1  0  0  0  0
  3 13  1  0  0  0  0
  4  6  1  0  0  0  0
  4  7  1  0  0  0  0
  4 10  1  0  0  0  0
  4 14  1  0  0  0  0
  5  8  1  0  0  0  0
  5 11  1  0  0  0  0
  5 15  1  0  0  0  0
  6  8  1  0  0  0  0
  6 12  1  0  0  0  0
  6 16  1  0  0  0  0
  9 10  2  0  0  0  0
  9 17  1  0  0  0  0
 10 18  1  0  0  0  0
 11 12  2  0  0  0  0
 11 19  1  0  0  0  0
 12 20  1  0  0  0  0
M  END
> <PUBCHEM_COMPOUND_CID>
583057

> <PUBCHEM_CONFORMER_RMSD>
0.4

> <PUBCHEM_CONFORMER_DIVERSEORDER>
1
2

> <PUBCHEM_MMFF94_PARTIAL_CHARGES>
16
1 -0.57
10 -0.29
11 -0.29
12 -0.29
17 0.15
18 0.15
19 0.15
2 -0.57
20 0.15
3 0.2
4 0.2
5 0.2
6 0.2
7 0.45
8 0.45
9 -0.29

> <PUBCHEM_EFFECTIVE_ROTOR_COUNT>
0

> <PUBCHEM_PHARMACOPHORE_FEATURES>
3
1 1 acceptor
1 2 acceptor
10 3 4 5 6 7 8 9 10 11 12 rings

> <PUBCHEM_HEAVY_ATOM_COUNT>
12

> <PUBCHEM_ATOM_DEF_STEREO_COUNT>
0

> <PUBCHEM_ATOM_UDEF_STEREO_COUNT>
4

> <PUBCHEM_BOND_DEF_STEREO_COUNT>
0

> <PUBCHEM_BOND_UDEF_STEREO_COUNT>
0

> <PUBCHEM_ISOTOPIC_ATOM_COUNT>
0

> <PUBCHEM_COMPONENT_COUNT>
1

> <PUBCHEM_CACTVS_TAUTO_COUNT>
1

> <PUBCHEM_CONFORMER_ID>
0008E59100000001

> <PUBCHEM_MMFF94_ENERGY>
61.0412

> <PUBCHEM_FEATURE_SELFOVERLAP>
15.223

> <PUBCHEM_SHAPE_FINGERPRINT>
12423570 1 8387657777161805273
13024252 1 16341475492201641072
137420 1 14585027115690234197
15557651 10 17386857109937345288
16945 1 18122623018097180679
21922407 69 18411981390099775736
241688 4 17702655704256645748
369184 2 16700353914217423904
5084963 1 18335136454126640216

> <PUBCHEM_SHAPE_MULTIPOLES>
235.22
2.17
1.7
1.29
0
0
0
0
0
0
0
0
0
0

> <PUBCHEM_SHAPE_SELFOVERLAP>
544.903

> <PUBCHEM_SHAPE_VOLUME>
123.9

> <PUBCHEM_COORDINATE_TYPE>
2
5
10

$$$$

