5281532
  -OEChem-07051212583D

 40 41  0     1  0  0  0  0  0999 V2000
   -4.6430    1.4085    0.8155 O   0  0  0  0  0  0  0  0  0  0  0  0
    1.4719    0.9386    0.8001 C   0  0  1  0  0  0  0  0  0  0  0  0
    1.3563   -0.5893    0.4788 C   0  0  2  0  0  0  0  0  0  0  0  0
    3.2851    0.6026   -0.4615 C   0  0  1  0  0  0  0  0  0  0  0  0
    2.9901    1.1354    0.9392 C   0  0  0  0  0  0  0  0  0  0  0  0
    1.2076    1.8186   -0.4430 C   0  0  0  0  0  0  0  0  0  0  0  0
    2.5961   -0.7474   -0.3956 C   0  0  0  0  0  0  0  0  0  0  0  0
    2.4256    1.5276   -1.3393 C   0  0  0  0  0  0  0  0  0  0  0  0
    0.0608   -0.9615   -0.2555 C   0  0  0  0  0  0  0  0  0  0  0  0
    1.4493   -1.4296    1.7657 C   0  0  0  0  0  0  0  0  0  0  0  0
    3.0394   -1.8671   -0.9776 C   0  0  0  0  0  0  0  0  0  0  0  0
   -1.1531   -0.7474    0.6392 C   0  0  0  0  0  0  0  0  0  0  0  0
   -2.4193   -1.1045   -0.0867 C   0  0  0  0  0  0  0  0  0  0  0  0
   -3.4649   -0.3016   -0.3628 C   0  0  0  0  0  0  0  0  0  0  0  0
   -3.5306    1.1656   -0.0353 C   0  0  0  0  0  0  0  0  0  0  0  0
   -4.6713   -0.8484   -1.0813 C   0  0  0  0  0  0  0  0  0  0  0  0
    0.9015    1.2573    1.6764 H   0  0  0  0  0  0  0  0  0  0  0  0
    4.3411    0.5687   -0.7360 H   0  0  0  0  0  0  0  0  0  0  0  0
    3.4456    0.5465    1.7413 H   0  0  0  0  0  0  0  0  0  0  0  0
    3.2771    2.1854    1.0675 H   0  0  0  0  0  0  0  0  0  0  0  0
    1.2120    2.8778   -0.1563 H   0  0  0  0  0  0  0  0  0  0  0  0
    0.2547    1.6335   -0.9424 H   0  0  0  0  0  0  0  0  0  0  0  0
    2.1324    1.0598   -2.2853 H   0  0  0  0  0  0  0  0  0  0  0  0
    2.9556    2.4591   -1.5674 H   0  0  0  0  0  0  0  0  0  0  0  0
    0.0990   -2.0218   -0.5449 H   0  0  0  0  0  0  0  0  0  0  0  0
   -0.0497   -0.4201   -1.2016 H   0  0  0  0  0  0  0  0  0  0  0  0
    0.7850   -1.0539    2.5512 H   0  0  0  0  0  0  0  0  0  0  0  0
    1.2015   -2.4811    1.5780 H   0  0  0  0  0  0  0  0  0  0  0  0
    2.4613   -1.4226    2.1866 H   0  0  0  0  0  0  0  0  0  0  0  0
    2.5046   -2.8045   -0.8733 H   0  0  0  0  0  0  0  0  0  0  0  0
    3.9482   -1.8660   -1.5695 H   0  0  0  0  0  0  0  0  0  0  0  0
   -1.1162   -1.4060    1.5140 H   0  0  0  0  0  0  0  0  0  0  0  0
   -1.1728    0.2730    1.0241 H   0  0  0  0  0  0  0  0  0  0  0  0
   -2.4856   -2.1504   -0.3847 H   0  0  0  0  0  0  0  0  0  0  0  0
   -3.6700    1.7404   -0.9577 H   0  0  0  0  0  0  0  0  0  0  0  0
   -2.6387    1.5531    0.4584 H   0  0  0  0  0  0  0  0  0  0  0  0
   -5.5624   -0.7728   -0.4498 H   0  0  0  0  0  0  0  0  0  0  0  0
   -4.5505   -1.9018   -1.3557 H   0  0  0  0  0  0  0  0  0  0  0  0
   -4.8494   -0.2869   -2.0043 H   0  0  0  0  0  0  0  0  0  0  0  0
   -4.6802    2.3678    0.9707 H   0  0  0  0  0  0  0  0  0  0  0  0
  1 15  1  0  0  0  0
  1 40  1  0  0  0  0
  2  3  1  0  0  0  0
  2  5  1  0  0  0  0
  2  6  1  0  0  0  0
  2 17  1  0  0  0  0
  3  7  1  0  0  0  0
  3  9  1  0  0  0  0
  3 10  1  0  0  0  0
  4  5  1  0  0  0  0
  4  7  1  0  0  0  0
  4  8  1  0  0  0  0
  4 18  1  0  0  0  0
  5 19  1  0  0  0  0
  5 20  1  0  0  0  0
  6  8  1  0  0  0  0
  6 21  1  0  0  0  0
  6 22  1  0  0  0  0
  7 11  2  0  0  0  0
  8 23  1  0  0  0  0
  8 24  1  0  0  0  0
  9 12  1  0  0  0  0
  9 25  1  0  0  0  0
  9 26  1  0  0  0  0
 10 27  1  0  0  0  0
 10 28  1  0  0  0  0
 10 29  1  0  0  0  0
 11 30  1  0  0  0  0
 11 31  1  0  0  0  0
 12 13  1  0  0  0  0
 12 32  1  0  0  0  0
 12 33  1  0  0  0  0
 13 14  2  0  0  0  0
 13 34  1  0  0  0  0
 14 15  1  0  0  0  0
 14 16  1  0  0  0  0
 15 35  1  0  0  0  0
 15 36  1  0  0  0  0
 16 37  1  0  0  0  0
 16 38  1  0  0  0  0
 16 39  1  0  0  0  0
M  END
> <PUBCHEM_COMPOUND_CID>
5281532

> <PUBCHEM_CONFORMER_RMSD>
0.6

> <PUBCHEM_CONFORMER_DIVERSEORDER>
16
50
8
45
51
21
24
46
48
31
2
33
40
27
4
15
14
41
12
28
11
17
38
44
52
37
3
10
18
39
34
47
19
6
13
43
49
26
7
30
5
20
23
29
32
36
42
1
25
9
22
35

> <PUBCHEM_MMFF94_PARTIAL_CHARGES>
14
1 -0.68
11 -0.3
12 0.14
13 -0.29
14 -0.28
15 0.42
16 0.14
3 0.14
30 0.15
31 0.15
34 0.15
4 0.14
40 0.4
7 -0.28

> <PUBCHEM_EFFECTIVE_ROTOR_COUNT>
4.8

> <PUBCHEM_PHARMACOPHORE_FEATURES>
4
1 1 acceptor
1 1 donor
1 16 hydrophobe
7 2 3 4 5 6 7 8 rings

> <PUBCHEM_HEAVY_ATOM_COUNT>
16

> <PUBCHEM_ATOM_DEF_STEREO_COUNT>
0

> <PUBCHEM_ATOM_UDEF_STEREO_COUNT>
3

> <PUBCHEM_BOND_DEF_STEREO_COUNT>
1

> <PUBCHEM_BOND_UDEF_STEREO_COUNT>
0

> <PUBCHEM_ISOTOPIC_ATOM_COUNT>
0

> <PUBCHEM_COMPONENT_COUNT>
1

> <PUBCHEM_CACTVS_TAUTO_COUNT>
1

> <PUBCHEM_CONFORMER_ID>
005096FC00000010

> <PUBCHEM_MMFF94_ENERGY>
44.601

> <PUBCHEM_FEATURE_SELFOVERLAP>
20.297

> <PUBCHEM_SHAPE_FINGERPRINT>
10366900 7 16917342637259493017
10498660 4 18130517396227495181
10980938 120 18273221906125495611
116883 192 17972306580499168060
12654215 9 18343866597978596772
12670545 47 16702014254300678107
12932764 1 17703796941935119359
13464514 151 18129367216928472340
13705890 14 16226042254399345228
16945 1 18189881046970727960
18186145 218 18273216426058579155
19078846 21 18128828623111847587
19862831 5 18334290981103012963
20233049 118 18260552212200895280
20645477 70 17967810565578827390
21503847 285 18201992274540078829
21864079 5 18272654601566054429
2255824 54 18202003239502083666
22854114 111 17846504754974207451
231179 274 17417823811188064204
23402655 69 18260264157318365149
23557571 272 17168148888812721169
25 1 18060131033740379362
3060560 45 18412270540378957318
3082319 5 18260270741888228303
312423 11 18411700989529975395
4175511 335 16805597084010625606
474 4 17845654737922913541
5281201 14 18408316696754846247
5939293 188 17915747470296283732
633830 44 18272928345469529607
7832392 63 18408040688954829669
9882013 296 13254502159547863753

> <PUBCHEM_SHAPE_MULTIPOLES>
323.4
8.12
1.94
1.27
10.86
0.2
-0.16
1.12
1.42
-0.74
0.11
-0.5
-0.16
-0.5

> <PUBCHEM_SHAPE_SELFOVERLAP>
666.522

> <PUBCHEM_SHAPE_VOLUME>
192.3

> <PUBCHEM_COORDINATE_TYPE>
2
5
10

$$$$

