443217
  -OEChem-07051213012D

 59 62  0     1  0  0  0  0  0999 V2000
    5.0474    0.5025    0.0000 P   0  0  3  0  0  0  0  0  0  0  0  0
    4.4026   -2.9507    0.0000 O   0  0  0  0  0  0  0  0  0  0  0  0
    6.7485   -4.0425    0.0000 O   0  0  0  0  0  0  0  0  0  0  0  0
    6.7523   -1.8670    0.0000 O   0  0  0  0  0  0  0  0  0  0  0  0
    5.3548   -0.4491    0.0000 O   0  0  0  0  0  0  0  0  0  0  0  0
    4.7400    1.4541    0.0000 O   0  0  0  0  0  0  0  0  0  0  0  0
    5.9990    0.8099    0.0000 O   0  0  0  0  0  0  0  0  0  0  0  0
    4.0958    0.1951    0.0000 O   0  0  0  0  0  0  0  0  0  0  0  0
    6.3882    1.9865    0.0000 O   0  0  0  0  0  0  0  0  0  0  0  0
    6.4996    7.2768    0.0000 O   0  0  0  0  0  0  0  0  0  0  0  0
    4.5440    7.6960    0.0000 O   0  0  0  0  0  0  0  0  0  0  0  0
    4.6783   -4.7112    0.0000 N   0  0  0  0  0  0  0  0  0  0  0  0
    4.6783   -6.3207    0.0000 N   0  0  0  0  0  0  0  0  0  0  0  0
    2.8660   -4.5160    0.0000 N   0  0  0  0  0  0  0  0  0  0  0  0
    2.0000   -6.0160    0.0000 N   0  0  0  0  0  0  0  0  0  0  0  0
    2.8660   -7.5160    0.0000 N   0  0  0  0  0  0  0  0  0  0  0  0
    4.1253    3.3573    0.0000 N   0  0  0  0  0  0  0  0  0  0  0  0
    5.9405   -3.4533    0.0000 C   0  0  2  0  0  0  0  0  0  0  0  0
    5.9422   -2.4533    0.0000 C   0  0  1  0  0  0  0  0  0  0  0  0
    4.9889   -3.7607    0.0000 C   0  0  1  0  0  0  0  0  0  0  0  0
    4.9917   -2.1427    0.0000 C   0  0  1  0  0  0  0  0  0  0  0  0
    4.6844   -1.1911    0.0000 C   0  0  0  0  0  0  0  0  0  0  0  0
    3.7320   -5.0160    0.0000 C   0  0  0  0  0  0  0  0  0  0  0  0
    5.2619   -5.5160    0.0000 C   0  0  0  0  0  0  0  0  0  0  0  0
    3.7320   -6.0160    0.0000 C   0  0  0  0  0  0  0  0  0  0  0  0
    2.8660   -6.5160    0.0000 C   0  0  0  0  0  0  0  0  0  0  0  0
    2.0000   -5.0160    0.0000 C   0  0  0  0  0  0  0  0  0  0  0  0
    5.1031    3.1477    0.0000 C   0  0  2  0  0  0  0  0  0  0  0  0
    5.4104    2.1961    0.0000 C   0  0  0  0  0  0  0  0  0  0  0  0
    5.7735    3.8896    0.0000 C   0  0  0  0  0  0  0  0  0  0  0  0
    5.4661    4.8412    0.0000 C   0  0  0  0  0  0  0  0  0  0  0  0
    6.1365    5.5832    0.0000 C   0  0  0  0  0  0  0  0  0  0  0  0
    4.4883    5.0508    0.0000 C   0  0  0  0  0  0  0  0  0  0  0  0
    5.8292    6.5348    0.0000 C   0  0  0  0  0  0  0  0  0  0  0  0
    4.1810    6.0024    0.0000 C   0  0  0  0  0  0  0  0  0  0  0  0
    4.8514    6.7444    0.0000 C   0  0  0  0  0  0  0  0  0  0  0  0
    5.8425   -4.0655    0.0000 H   0  0  0  0  0  0  0  0  0  0  0  0
    6.4942   -2.7358    0.0000 H   0  0  0  0  0  0  0  0  0  0  0  0
    5.4266   -4.1999    0.0000 H   0  0  0  0  0  0  0  0  0  0  0  0
    4.3795   -2.0446    0.0000 H   0  0  0  0  0  0  0  0  0  0  0  0
    4.3035   -0.7019    0.0000 H   0  0  0  0  0  0  0  0  0  0  0  0
    4.1364   -1.4812    0.0000 H   0  0  0  0  0  0  0  0  0  0  0  0
    7.3154   -3.7913    0.0000 H   0  0  0  0  0  0  0  0  0  0  0  0
    7.3182   -2.1201    0.0000 H   0  0  0  0  0  0  0  0  0  0  0  0
    5.8819   -5.5160    0.0000 H   0  0  0  0  0  0  0  0  0  0  0  0
    1.4631   -4.7060    0.0000 H   0  0  0  0  0  0  0  0  0  0  0  0
    4.9125    3.7376    0.0000 H   0  0  0  0  0  0  0  0  0  0  0  0
    6.1544    3.4004    0.0000 H   0  0  0  0  0  0  0  0  0  0  0  0
    6.3214    4.1798    0.0000 H   0  0  0  0  0  0  0  0  0  0  0  0
    2.3291   -7.8260    0.0000 H   0  0  0  0  0  0  0  0  0  0  0  0
    3.4030   -7.8260    0.0000 H   0  0  0  0  0  0  0  0  0  0  0  0
    6.4590    0.3942    0.0000 H   0  0  0  0  0  0  0  0  0  0  0  0
    3.7096    2.8972    0.0000 H   0  0  0  0  0  0  0  0  0  0  0  0
    3.9347    3.9472    0.0000 H   0  0  0  0  0  0  0  0  0  0  0  0
    6.7428    5.4533    0.0000 H   0  0  0  0  0  0  0  0  0  0  0  0
    4.0727    4.5908    0.0000 H   0  0  0  0  0  0  0  0  0  0  0  0
    3.5747    6.1324    0.0000 H   0  0  0  0  0  0  0  0  0  0  0  0
    7.1058    7.1468    0.0000 H   0  0  0  0  0  0  0  0  0  0  0  0
    3.9378    7.8260    0.0000 H   0  0  0  0  0  0  0  0  0  0  0  0
  1  5  1  0  0  0  0
  1  6  1  0  0  0  0
  1  7  1  0  0  0  0
  1  8  2  0  0  0  0
  2 20  1  0  0  0  0
  2 21  1  0  0  0  0
 18  3  1  1  0  0  0
  3 43  1  0  0  0  0
 19  4  1  1  0  0  0
  4 44  1  0  0  0  0
  5 22  1  0  0  0  0
  6 29  1  0  0  0  0
  7 52  1  0  0  0  0
  9 29  2  0  0  0  0
 10 34  1  0  0  0  0
 10 58  1  0  0  0  0
 11 36  1  0  0  0  0
 11 59  1  0  0  0  0
 20 12  1  6  0  0  0
 12 23  1  0  0  0  0
 12 24  1  0  0  0  0
 13 24  2  0  0  0  0
 13 25  1  0  0  0  0
 14 23  1  0  0  0  0
 14 27  2  0  0  0  0
 15 26  2  0  0  0  0
 15 27  1  0  0  0  0
 16 26  1  0  0  0  0
 16 50  1  0  0  0  0
 16 51  1  0  0  0  0
 28 17  1  1  0  0  0
 17 53  1  0  0  0  0
 17 54  1  0  0  0  0
 18 19  1  0  0  0  0
 18 20  1  0  0  0  0
 18 37  1  0  0  0  0
 19 21  1  0  0  0  0
 19 38  1  0  0  0  0
 20 39  1  0  0  0  0
 21 22  1  6  0  0  0
 21 40  1  0  0  0  0
 22 41  1  0  0  0  0
 22 42  1  0  0  0  0
 23 25  2  0  0  0  0
 24 45  1  0  0  0  0
 25 26  1  0  0  0  0
 27 46  1  0  0  0  0
 28 29  1  0  0  0  0
 28 30  1  0  0  0  0
 28 47  1  0  0  0  0
 30 31  1  0  0  0  0
 30 48  1  0  0  0  0
 30 49  1  0  0  0  0
 31 32  2  0  0  0  0
 31 33  1  0  0  0  0
 32 34  1  0  0  0  0
 32 55  1  0  0  0  0
 33 35  2  0  0  0  0
 33 56  1  0  0  0  0
 34 36  2  0  0  0  0
 35 36  1  0  0  0  0
 35 57  1  0  0  0  0
M  END
> <PUBCHEM_COMPOUND_CID>
443217

> <PUBCHEM_COMPOUND_CANONICALIZED>
1

> <PUBCHEM_CACTVS_COMPLEXITY>
830

> <PUBCHEM_CACTVS_HBOND_ACCEPTOR>
15

> <PUBCHEM_CACTVS_HBOND_DONOR>
7

> <PUBCHEM_CACTVS_ROTATABLE_BOND>
9

> <PUBCHEM_CACTVS_SUBSKEYS>
AAADceB7vAIAAAAAAAAAAAAAAAAAAWJAAAA8QAAAAAAAAFgB/AAAHgAQCCAADDzhnwY1/r9MFxCoQybzbICCgC0xMKAJ2KGu3JiLfjLC2VOedAkv0BPbmCf4+LOOIAABAAAAQABAAAIAAACAAAAAAAAAAA==

> <PUBCHEM_IUPAC_OPENEYE_NAME>
[[(2R,3S,4R,5R)-5-(6-aminopurin-9-yl)-3,4-dihydroxy-tetrahydrofuran-2-yl]methoxy-hydroxy-phosphoryl] (2S)-2-amino-3-(3,4-dihydroxyphenyl)propanoate

> <PUBCHEM_IUPAC_CAS_NAME>
(2S)-2-amino-3-(3,4-dihydroxyphenyl)propanoic acid [[(2R,3S,4R,5R)-5-(6-aminopurin-9-yl)-3,4-dihydroxy-2-oxolanyl]methoxy-hydroxyphosphoryl] ester

> <PUBCHEM_IUPAC_NAME>
[[(2R,3S,4R,5R)-5-(6-aminopurin-9-yl)-3,4-dihydroxyoxolan-2-yl]methoxy-hydroxyphosphoryl] (2S)-2-amino-3-(3,4-dihydroxyphenyl)propanoate

> <PUBCHEM_IUPAC_SYSTEMATIC_NAME>
[[(2R,3S,4R,5R)-5-(6-aminopurin-9-yl)-3,4-bis(oxidanyl)oxolan-2-yl]methoxy-oxidanyl-phosphoryl] (2S)-2-azanyl-3-[3,4-bis(oxidanyl)phenyl]propanoate

> <PUBCHEM_IUPAC_TRADITIONAL_NAME>
(2S)-2-amino-3-(3,4-dihydroxyphenyl)propionic acid [[(2R,3S,4R,5R)-5-adenin-9-yl-3,4-dihydroxy-tetrahydrofuran-2-yl]methoxy-hydroxy-phosphoryl] ester

> <PUBCHEM_IUPAC_INCHI>
InChI=1S/C19H23N6O10P/c20-9(3-8-1-2-10(26)11(27)4-8)19(30)35-36(31,32)33-5-12-14(28)15(29)18(34-12)25-7-24-13-16(21)22-6-23-17(13)25/h1-2,4,6-7,9,12,14-15,18,26-29H,3,5,20H2,(H,31,32)(H2,21,22,23)/t9-,12+,14+,15+,18+/m0/s1

> <PUBCHEM_IUPAC_INCHIKEY>
AFIFLOMGXNKHJX-YBGGAFRISA-N

> <PUBCHEM_XLOGP3>
-4.9

> <PUBCHEM_EXACT_MASS>
526.121328

> <PUBCHEM_MOLECULAR_FORMULA>
C19H23N6O10P

> <PUBCHEM_MOLECULAR_WEIGHT>
526.393882

> <PUBCHEM_OPENEYE_CAN_SMILES>
C1=CC(=C(C=C1CC(C(=O)OP(=O)(O)OCC2C(C(C(O2)N3C=NC4=C3N=CN=C4N)O)O)N)O)O

> <PUBCHEM_OPENEYE_ISO_SMILES>
C1=CC(=C(C=C1C[C@@H](C(=O)OP(=O)(O)OC[C@@H]2[C@H]([C@H]([C@@H](O2)N3C=NC4=C3N=CN=C4N)O)O)N)O)O

> <PUBCHEM_CACTVS_TPSA>
259

> <PUBCHEM_MONOISOTOPIC_WEIGHT>
526.121328

> <PUBCHEM_TOTAL_CHARGE>
0

> <PUBCHEM_HEAVY_ATOM_COUNT>
36

> <PUBCHEM_ATOM_DEF_STEREO_COUNT>
5

> <PUBCHEM_ATOM_UDEF_STEREO_COUNT>
0

> <PUBCHEM_BOND_DEF_STEREO_COUNT>
0

> <PUBCHEM_BOND_UDEF_STEREO_COUNT>
0

> <PUBCHEM_ISOTOPIC_ATOM_COUNT>
0

> <PUBCHEM_COMPONENT_COUNT>
1

> <PUBCHEM_CACTVS_TAUTO_COUNT>
54

> <PUBCHEM_COORDINATE_TYPE>
1
5
255

> <PUBCHEM_BONDANNOTATIONS>
20  12  6
12  23  8
12  24  8
13  24  8
13  25  8
14  23  8
14  27  8
15  26  8
15  27  8
28  17  5
21  22  6
23  25  8
25  26  8
18  3  5
31  32  8
31  33  8
32  34  8
33  35  8
34  36  8
35  36  8
19  4  5

$$$$

