21589070
  -OEChem-07051213153D

 48 52  0     1  0  0  0  0  0999 V2000
   -0.4606   -2.0763    1.3003 O   0  0  0  0  0  0  0  0  0  0  0  0
   -0.4275    2.0817   -0.4784 O   0  0  0  0  0  0  0  0  0  0  0  0
    2.3190    2.8548   -0.2799 O   0  0  0  0  0  0  0  0  0  0  0  0
   -2.5185    0.2125   -1.5894 N   0  0  0  0  0  0  0  0  0  0  0  0
    1.8206    1.5606   -0.2427 N   0  0  0  0  0  0  0  0  0  0  0  0
   -2.8920   -0.6509    0.5883 C   0  0  2  0  0  0  0  0  0  0  0  0
   -2.3768   -1.8025   -0.2645 C   0  0  1  0  0  0  0  0  0  0  0  0
   -1.7946   -1.0728   -1.4889 C   0  0  2  0  0  0  0  0  0  0  0  0
    0.3344   -0.2782   -0.1813 C   0  0  2  0  0  0  0  0  0  0  0  0
   -0.3696   -0.6563    1.1501 C   0  0  1  0  0  0  0  0  0  0  0  0
   -3.4987    0.2421   -0.4971 C   0  0  1  0  0  0  0  0  0  0  0  0
   -1.7550   -0.0472    1.4258 C   0  0  0  0  0  0  0  0  0  0  0  0
   -0.2713   -0.8824   -1.4671 C   0  0  0  0  0  0  0  0  0  0  0  0
   -1.4311   -2.7272    0.4881 C   0  0  0  0  0  0  0  0  0  0  0  0
    1.8197   -0.6821   -0.0950 C   0  0  0  0  0  0  0  0  0  0  0  0
   -3.8835    1.6532   -0.0782 C   0  0  0  0  0  0  0  0  0  0  0  0
    0.4796    1.2799   -0.3192 C   0  0  0  0  0  0  0  0  0  0  0  0
    2.6327    0.4523   -0.1258 C   0  0  0  0  0  0  0  0  0  0  0  0
   -4.9134    1.6299    1.0263 C   0  0  0  0  0  0  0  0  0  0  0  0
    2.3971   -1.9392    0.0063 C   0  0  0  0  0  0  0  0  0  0  0  0
    4.0118    0.3883   -0.0562 C   0  0  0  0  0  0  0  0  0  0  0  0
    3.7910   -2.0307    0.0783 C   0  0  0  0  0  0  0  0  0  0  0  0
    4.5913   -0.8762    0.0484 C   0  0  0  0  0  0  0  0  0  0  0  0
    2.3954    3.3667    1.0519 C   0  0  0  0  0  0  0  0  0  0  0  0
   -3.6817   -1.0056    1.2625 H   0  0  0  0  0  0  0  0  0  0  0  0
   -3.2317   -2.4008   -0.6125 H   0  0  0  0  0  0  0  0  0  0  0  0
   -2.0351   -1.6549   -2.3877 H   0  0  0  0  0  0  0  0  0  0  0  0
    0.2735   -0.3156    1.9738 H   0  0  0  0  0  0  0  0  0  0  0  0
   -4.4069   -0.2479   -0.8774 H   0  0  0  0  0  0  0  0  0  0  0  0
   -1.7216    1.0421    1.3935 H   0  0  0  0  0  0  0  0  0  0  0  0
   -1.9954   -0.2855    2.4726 H   0  0  0  0  0  0  0  0  0  0  0  0
    0.1689   -1.8702   -1.6592 H   0  0  0  0  0  0  0  0  0  0  0  0
    0.0241   -0.2781   -2.3370 H   0  0  0  0  0  0  0  0  0  0  0  0
   -1.8681    0.9899   -1.4934 H   0  0  0  0  0  0  0  0  0  0  0  0
   -2.0140   -3.3653    1.1621 H   0  0  0  0  0  0  0  0  0  0  0  0
   -0.9114   -3.4032   -0.1993 H   0  0  0  0  0  0  0  0  0  0  0  0
   -4.3116    2.1773   -0.9426 H   0  0  0  0  0  0  0  0  0  0  0  0
   -3.0204    2.2485    0.2334 H   0  0  0  0  0  0  0  0  0  0  0  0
   -4.5070    1.2110    1.9519 H   0  0  0  0  0  0  0  0  0  0  0  0
   -5.2489    2.6484    1.2482 H   0  0  0  0  0  0  0  0  0  0  0  0
   -5.7934    1.0448    0.7399 H   0  0  0  0  0  0  0  0  0  0  0  0
    1.7943   -2.8403    0.0273 H   0  0  0  0  0  0  0  0  0  0  0  0
    4.6303    1.2781   -0.0843 H   0  0  0  0  0  0  0  0  0  0  0  0
    4.2623   -3.0068    0.1578 H   0  0  0  0  0  0  0  0  0  0  0  0
    5.6723   -0.9718    0.1050 H   0  0  0  0  0  0  0  0  0  0  0  0
    2.7735    4.3912    0.9990 H   0  0  0  0  0  0  0  0  0  0  0  0
    3.0857    2.7741    1.6601 H   0  0  0  0  0  0  0  0  0  0  0  0
    1.4037    3.3868    1.5150 H   0  0  0  0  0  0  0  0  0  0  0  0
  1 10  1  0  0  0  0
  1 14  1  0  0  0  0
  2 17  2  0  0  0  0
  3  5  1  0  0  0  0
  3 24  1  0  0  0  0
  4  8  1  0  0  0  0
  4 11  1  0  0  0  0
  4 34  1  0  0  0  0
  5 17  1  0  0  0  0
  5 18  1  0  0  0  0
  6  7  1  0  0  0  0
  6 11  1  0  0  0  0
  6 12  1  0  0  0  0
  6 25  1  0  0  0  0
  7  8  1  0  0  0  0
  7 14  1  0  0  0  0
  7 26  1  0  0  0  0
  8 13  1  0  0  0  0
  8 27  1  0  0  0  0
  9 10  1  0  0  0  0
  9 13  1  0  0  0  0
  9 15  1  0  0  0  0
  9 17  1  0  0  0  0
 10 12  1  0  0  0  0
 10 28  1  0  0  0  0
 11 16  1  0  0  0  0
 11 29  1  0  0  0  0
 12 30  1  0  0  0  0
 12 31  1  0  0  0  0
 13 32  1  0  0  0  0
 13 33  1  0  0  0  0
 14 35  1  0  0  0  0
 14 36  1  0  0  0  0
 15 18  1  0  0  0  0
 15 20  2  0  0  0  0
 16 19  1  0  0  0  0
 16 37  1  0  0  0  0
 16 38  1  0  0  0  0
 18 21  2  0  0  0  0
 19 39  1  0  0  0  0
 19 40  1  0  0  0  0
 19 41  1  0  0  0  0
 20 22  1  0  0  0  0
 20 42  1  0  0  0  0
 21 23  1  0  0  0  0
 21 43  1  0  0  0  0
 22 23  2  0  0  0  0
 22 44  1  0  0  0  0
 23 45  1  0  0  0  0
 24 46  1  0  0  0  0
 24 47  1  0  0  0  0
 24 48  1  0  0  0  0
M  END
> <PUBCHEM_COMPOUND_CID>
21589070

> <PUBCHEM_CONFORMER_RMSD>
0.6

> <PUBCHEM_CONFORMER_DIVERSEORDER>
1
2

> <PUBCHEM_MMFF94_PARTIAL_CHARGES>
23
1 -0.56
10 0.28
11 0.27
14 0.28
15 -0.14
17 0.57
18 0.12
2 -0.57
20 -0.15
21 -0.15
22 -0.15
23 -0.15
24 0.28
3 -0.32
34 0.36
4 -0.9
42 0.15
43 0.15
44 0.15
45 0.15
5 -0.14
8 0.27
9 0.2

> <PUBCHEM_EFFECTIVE_ROTOR_COUNT>
3.4

> <PUBCHEM_PHARMACOPHORE_FEATURES>
9
1 1 acceptor
1 19 hydrophobe
1 2 acceptor
1 4 cation
1 4 donor
5 4 6 7 8 11 rings
5 5 9 15 17 18 rings
6 15 18 20 21 22 23 rings
9 1 6 7 8 9 10 12 13 14 rings

> <PUBCHEM_HEAVY_ATOM_COUNT>
24

> <PUBCHEM_ATOM_DEF_STEREO_COUNT>
6

> <PUBCHEM_ATOM_UDEF_STEREO_COUNT>
0

> <PUBCHEM_BOND_DEF_STEREO_COUNT>
0

> <PUBCHEM_BOND_UDEF_STEREO_COUNT>
0

> <PUBCHEM_ISOTOPIC_ATOM_COUNT>
0

> <PUBCHEM_COMPONENT_COUNT>
1

> <PUBCHEM_CACTVS_TAUTO_COUNT>
1

> <PUBCHEM_CONFORMER_ID>
01496C4E00000001

> <PUBCHEM_MMFF94_ENERGY>
91.4594

> <PUBCHEM_FEATURE_SELFOVERLAP>
46.321

> <PUBCHEM_SHAPE_FINGERPRINT>
10074138 170 14961410793839736123
10863032 1 18337953390058422271
10906281 52 18338503227771984102
10948715 1 18408319986926407583
10967382 1 18268994352784009558
11640471 11 17603856771992481625
12236239 1 17895197743790761879
12507560 14 18264488575608285010
12553582 1 18410569626487925258
12633257 1 18272380771388096032
12788726 201 18051976115359263258
13134695 92 18336269024212795012
13140716 1 18340209570733578784
13583140 156 18263638472446278443
14022347 108 18196360636455238606
14178342 30 17981327794116255256
14223421 5 18051689945503405930
14790565 3 18196928001176422644
15209289 33 17989484134706565763
15238133 3 18340193198260321788
15295992 7 18341603811517515801
16945 1 18410293614139727638
17349148 13 17458061590405481199
17492 89 18336547092859076950
17980427 23 17531256075377433560
18186145 218 18059866068380473767
18335252 114 18192440890666999389
19049666 15 18270401564284472554
19591789 44 17908423898052184460
19930381 70 17401771817901980369
200 152 17967821560900638118
21033648 29 17703242792554583893
23184049 59 18339354270798345693
23227448 37 18409164411608963999
2334 1 17908139880934824084
23402539 116 18262523705274196871
23558518 356 18056475054572869963
23559900 14 18411421726746122418
25 1 18200879581510095195
2748010 2 17981884147358469390
296302 2 17603872212489717718
3286 77 18272365335339327383
335352 9 18339922718431329526
34934 24 18410293631752197954
350125 39 18341041926969249707
404807 14 14570372657085321167
5104073 3 18341898467833117890
74978 22 18410856525433330830
81228 2 18049432945011559962
84936 182 17898578574938399680
9709674 26 18339359656672140758
9981440 41 17686920322969616832

> <PUBCHEM_SHAPE_MULTIPOLES>
466.34
7.62
3.04
1.23
0.03
1.54
0.06
1.48
-0.68
-1.2
-0.59
0.8
-0.15
-0.1

> <PUBCHEM_SHAPE_SELFOVERLAP>
1031.085

> <PUBCHEM_SHAPE_VOLUME>
247.5

> <PUBCHEM_COORDINATE_TYPE>
2
5
10

$$$$

