7942
  -OEChem-06261202283D

 24 24  0     0  0  0  0  0  0999 V2000
    2.3869   -0.0195   -0.7955 O   0  0  0  0  0  0  0  0  0  0  0  0
   -2.3867   -0.0192   -0.7959 O   0  0  0  0  0  0  0  0  0  0  0  0
    2.3521    1.2029    1.2006 O   0  0  0  0  0  0  0  0  0  0  0  0
   -2.3533    1.2005    1.2019 O   0  0  0  0  0  0  0  0  0  0  0  0
    1.2080   -0.5963   -0.4353 C   0  0  0  0  0  0  0  0  0  0  0  0
   -1.2080   -0.5964   -0.4357 C   0  0  0  0  0  0  0  0  0  0  0  0
    0.0001   -0.0045   -0.8043 C   0  0  0  0  0  0  0  0  0  0  0  0
    1.2080   -1.7801    0.3026 C   0  0  0  0  0  0  0  0  0  0  0  0
   -1.2081   -1.7802    0.3022 C   0  0  0  0  0  0  0  0  0  0  0  0
   -0.0002   -2.3719    0.6714 C   0  0  0  0  0  0  0  0  0  0  0  0
    2.8846    0.9020    0.1405 C   0  0  0  0  0  0  0  0  0  0  0  0
   -2.8842    0.9025    0.1401 C   0  0  0  0  0  0  0  0  0  0  0  0
    4.1806    1.4796   -0.3461 C   0  0  0  0  0  0  0  0  0  0  0  0
   -4.1798    1.4806   -0.3465 C   0  0  0  0  0  0  0  0  0  0  0  0
    0.0001    0.9175   -1.3805 H   0  0  0  0  0  0  0  0  0  0  0  0
    2.1454   -2.2470    0.5928 H   0  0  0  0  0  0  0  0  0  0  0  0
   -2.1456   -2.2470    0.5921 H   0  0  0  0  0  0  0  0  0  0  0  0
   -0.0002   -3.2937    1.2457 H   0  0  0  0  0  0  0  0  0  0  0  0
    4.0180    2.0077   -1.2888 H   0  0  0  0  0  0  0  0  0  0  0  0
    4.5611    2.1906    0.3926 H   0  0  0  0  0  0  0  0  0  0  0  0
    4.9157    0.6811   -0.4732 H   0  0  0  0  0  0  0  0  0  0  0  0
   -4.0191    1.9999   -1.2944 H   0  0  0  0  0  0  0  0  0  0  0  0
   -4.5544    2.2001    0.3870 H   0  0  0  0  0  0  0  0  0  0  0  0
   -4.9183    0.6838   -0.4637 H   0  0  0  0  0  0  0  0  0  0  0  0
  1  5  1  0  0  0  0
  1 11  1  0  0  0  0
  2  6  1  0  0  0  0
  2 12  1  0  0  0  0
  3 11  2  0  0  0  0
  4 12  2  0  0  0  0
  5  7  2  0  0  0  0
  5  8  1  0  0  0  0
  6  7  1  0  0  0  0
  6  9  2  0  0  0  0
  7 15  1  0  0  0  0
  8 10  2  0  0  0  0
  8 16  1  0  0  0  0
  9 10  1  0  0  0  0
  9 17  1  0  0  0  0
 10 18  1  0  0  0  0
 11 13  1  0  0  0  0
 12 14  1  0  0  0  0
 13 19  1  0  0  0  0
 13 20  1  0  0  0  0
 13 21  1  0  0  0  0
 14 22  1  0  0  0  0
 14 23  1  0  0  0  0
 14 24  1  0  0  0  0
M  END
> <PUBCHEM_COMPOUND_CID>
7942

> <PUBCHEM_CONFORMER_RMSD>
0.6

> <PUBCHEM_CONFORMER_DIVERSEORDER>
1
35
26
33
58
46
16
9
44
3
55
2
21
62
20
8
73
41
17
40
13
68
60
28
48
72
5
34
4
49
10
69
54
24
56
23
39
42
30
75
38
76
59
52
74
6
45
25
27
65
29
53
66
11
7
70
51
63
22
71
64
12
18
67
31
50
36
37
57
47
14
32
19
43
15
61

> <PUBCHEM_MMFF94_PARTIAL_CHARGES>
18
1 -0.23
10 -0.15
11 0.66
12 0.66
13 0.06
14 0.06
15 0.15
16 0.15
17 0.15
18 0.15
2 -0.23
3 -0.57
4 -0.57
5 0.08
6 0.08
7 -0.15
8 -0.15
9 -0.15

> <PUBCHEM_EFFECTIVE_ROTOR_COUNT>
4

> <PUBCHEM_PHARMACOPHORE_FEATURES>
3
1 3 acceptor
1 4 acceptor
6 5 6 7 8 9 10 rings

> <PUBCHEM_HEAVY_ATOM_COUNT>
14

> <PUBCHEM_ATOM_DEF_STEREO_COUNT>
0

> <PUBCHEM_ATOM_UDEF_STEREO_COUNT>
0

> <PUBCHEM_BOND_DEF_STEREO_COUNT>
0

> <PUBCHEM_BOND_UDEF_STEREO_COUNT>
0

> <PUBCHEM_ISOTOPIC_ATOM_COUNT>
0

> <PUBCHEM_COMPONENT_COUNT>
1

> <PUBCHEM_CACTVS_TAUTO_COUNT>
1

> <PUBCHEM_CONFORMER_ID>
00001F0600000001

> <PUBCHEM_MMFF94_ENERGY>
41.5473

> <PUBCHEM_FEATURE_SELFOVERLAP>
15.223

> <PUBCHEM_SHAPE_FINGERPRINT>
122479 349 18338234856392600340
12491281 212 17603573149537391201
13764800 53 18339916017971085371
13839132 238 18336823104868800694
14123255 52 18413389851679042325
14350558 41 11527937984924943965
14897335 6 18411704296190446335
15775835 57 18408604794397092669
16945 1 18054233399197826039
170605 34 18334574689462776071
17357990 137 17389938190895671267
17834072 32 18341045212271584692
18186145 218 18335696195480905389
204376 136 18272084989638081837
20510252 161 18051408474779477658
20653085 51 17677035932389168383
20671657 1 18267865162769058174
20871998 22 8862936169471859119
21501502 16 18340496590518745866
21524375 3 18335706065194575070
23402539 116 18193845829628778295
23500284 214 18410285887388060592
23559900 14 18335132069830162148
25 1 18333728039702635268
2748010 2 18200579376223503671
276578 36 18272650181617185578
305870 269 18342742943986482002
4028521 119 18186522107166799549
474 4 18411699889601648749
6333272 397 18341891866421053245
7364860 26 18191589867828148734
81228 2 17912636913051517915

> <PUBCHEM_SHAPE_MULTIPOLES>
264.64
6.3
2.2
0.97
0
1.02
-0.13
-5.68
0.16
0
-0.46
0
-0.14
0

> <PUBCHEM_SHAPE_SELFOVERLAP>
546.696

> <PUBCHEM_SHAPE_VOLUME>
148.9

> <PUBCHEM_COORDINATE_TYPE>
2
5
10

$$$$

