443784
  -OEChem-07051213032D

 42 45  0     1  0  0  0  0  0999 V2000
    3.2802    1.7268    0.0000 O   0  0  0  0  0  0  0  0  0  0  0  0
    2.0000   -1.2038    0.0000 O   0  0  0  0  0  0  0  0  0  0  0  0
    5.5301    1.8204    0.0000 O   0  0  0  0  0  0  0  0  0  0  0  0
    7.2785    1.8550    0.0000 O   0  0  0  0  0  0  0  0  0  0  0  0
    7.2785   -2.2142    0.0000 O   0  0  0  0  0  0  0  0  0  0  0  0
    9.1158    1.8980    0.0000 O   0  0  0  0  0  0  0  0  0  0  0  0
   10.9352   -1.2255    0.0000 O   0  0  0  0  0  0  0  0  0  0  0  0
    3.7702    0.8550    0.0000 C   0  0  3  0  0  0  0  0  0  0  0  0
    2.8641    0.3412    0.0000 C   0  0  0  0  0  0  0  0  0  0  0  0
    4.6641    0.3204    0.0000 C   0  0  0  0  0  0  0  0  0  0  0  0
    2.8641   -0.7004    0.0000 C   0  0  3  0  0  0  0  0  0  0  0  0
    3.7702   -1.2143    0.0000 C   0  0  0  0  0  0  0  0  0  0  0  0
    4.6641   -0.6796    0.0000 C   0  0  0  0  0  0  0  0  0  0  0  0
    5.5301    0.8204    0.0000 C   0  0  0  0  0  0  0  0  0  0  0  0
    4.2801    1.7152    0.0000 C   0  0  0  0  0  0  0  0  0  0  0  0
    5.5301   -1.1796    0.0000 C   0  0  0  0  0  0  0  0  0  0  0  0
    6.3961    0.3204    0.0000 C   0  0  0  0  0  0  0  0  0  0  0  0
    6.3961   -0.6796    0.0000 C   0  0  0  0  0  0  0  0  0  0  0  0
    7.2901    0.8550    0.0000 C   0  0  0  0  0  0  0  0  0  0  0  0
    7.2901   -1.2143    0.0000 C   0  0  0  0  0  0  0  0  0  0  0  0
    8.1962    0.3412    0.0000 C   0  0  0  0  0  0  0  0  0  0  0  0
    8.1962   -0.7004    0.0000 C   0  0  0  0  0  0  0  0  0  0  0  0
    9.1273    0.8981    0.0000 C   0  0  0  0  0  0  0  0  0  0  0  0
    9.1273   -1.2574    0.0000 C   0  0  0  0  0  0  0  0  0  0  0  0
   10.0711   -0.7221    0.0000 C   0  0  0  0  0  0  0  0  0  0  0  0
   10.0711    0.3629    0.0000 C   0  0  0  0  0  0  0  0  0  0  0  0
    2.6550    0.9249    0.0000 H   0  0  0  0  0  0  0  0  0  0  0  0
    2.2532    0.2351    0.0000 H   0  0  0  0  0  0  0  0  0  0  0  0
    2.3266   -0.3915    0.0000 H   0  0  0  0  0  0  0  0  0  0  0  0
    3.3765   -1.6933    0.0000 H   0  0  0  0  0  0  0  0  0  0  0  0
    4.1748   -1.6841    0.0000 H   0  0  0  0  0  0  0  0  0  0  0  0
    4.8134    1.3990    0.0000 H   0  0  0  0  0  0  0  0  0  0  0  0
    4.5963    2.2485    0.0000 H   0  0  0  0  0  0  0  0  0  0  0  0
    3.7468    2.0314    0.0000 H   0  0  0  0  0  0  0  0  0  0  0  0
    5.5301   -1.7996    0.0000 H   0  0  0  0  0  0  0  0  0  0  0  0
    2.6602    1.7340    0.0000 H   0  0  0  0  0  0  0  0  0  0  0  0
    2.0024   -1.8238    0.0000 H   0  0  0  0  0  0  0  0  0  0  0  0
    6.0671    2.1304    0.0000 H   0  0  0  0  0  0  0  0  0  0  0  0
    9.1202   -1.8773    0.0000 H   0  0  0  0  0  0  0  0  0  0  0  0
   10.6068    0.6749    0.0000 H   0  0  0  0  0  0  0  0  0  0  0  0
    9.6491    2.2142    0.0000 H   0  0  0  0  0  0  0  0  0  0  0  0
   11.4733   -0.9175    0.0000 H   0  0  0  0  0  0  0  0  0  0  0  0
  1  8  1  0  0  0  0
  1 36  1  0  0  0  0
  2 11  1  0  0  0  0
  2 37  1  0  0  0  0
  3 14  1  0  0  0  0
  3 38  1  0  0  0  0
  4 19  2  0  0  0  0
  5 20  2  0  0  0  0
  6 23  1  0  0  0  0
  6 41  1  0  0  0  0
  7 25  1  0  0  0  0
  7 42  1  0  0  0  0
  8  9  1  0  0  0  0
  8 10  1  0  0  0  0
  8 15  1  0  0  0  0
  9 11  1  0  0  0  0
  9 27  1  0  0  0  0
  9 28  1  0  0  0  0
 10 13  1  0  0  0  0
 10 14  2  0  0  0  0
 11 12  1  0  0  0  0
 11 29  1  0  0  0  0
 12 13  1  0  0  0  0
 12 30  1  0  0  0  0
 12 31  1  0  0  0  0
 13 16  2  0  0  0  0
 14 17  1  0  0  0  0
 15 32  1  0  0  0  0
 15 33  1  0  0  0  0
 15 34  1  0  0  0  0
 16 18  1  0  0  0  0
 16 35  1  0  0  0  0
 17 18  2  0  0  0  0
 17 19  1  0  0  0  0
 18 20  1  0  0  0  0
 19 21  1  0  0  0  0
 20 22  1  0  0  0  0
 21 22  2  0  0  0  0
 21 23  1  0  0  0  0
 22 24  1  0  0  0  0
 23 26  2  0  0  0  0
 24 25  2  0  0  0  0
 24 39  1  0  0  0  0
 25 26  1  0  0  0  0
 26 40  1  0  0  0  0
M  END
> <PUBCHEM_COMPOUND_CID>
443784

> <PUBCHEM_COMPOUND_CANONICALIZED>
1

> <PUBCHEM_CACTVS_COMPLEXITY>
621

> <PUBCHEM_CACTVS_HBOND_ACCEPTOR>
7

> <PUBCHEM_CACTVS_HBOND_DONOR>
5

> <PUBCHEM_CACTVS_ROTATABLE_BOND>
0

> <PUBCHEM_CACTVS_SUBSKEYS>
AAADceB4OAAAAAAAAAAAAAAAAAAAAAAAAAAwYMGAAAAAAADBQAAAGgAACAAADFSgmAIyBoAAAgCIAqBSAAACAAAkIAAAiAEGCMgINzaCFRKAcUAl4BUImYeL7PTO4AADCAAYAADAAAYQADAAAAAAAAAAAA==

> <PUBCHEM_IUPAC_OPENEYE_NAME>
1,3,8,10,11-pentahydroxy-10-methyl-8,9-dihydro-7H-tetracene-5,12-dione

> <PUBCHEM_IUPAC_CAS_NAME>
1,3,8,10,11-pentahydroxy-10-methyl-8,9-dihydro-7H-tetracene-5,12-dione

> <PUBCHEM_IUPAC_NAME>
1,3,8,10,11-pentahydroxy-10-methyl-8,9-dihydro-7H-tetracene-5,12-dione

> <PUBCHEM_IUPAC_SYSTEMATIC_NAME>
10-methyl-1,3,8,10,11-pentakis(oxidanyl)-8,9-dihydro-7H-tetracene-5,12-dione

> <PUBCHEM_IUPAC_TRADITIONAL_NAME>
1,3,8,10,11-pentahydroxy-10-methyl-8,9-dihydro-7H-tetracene-5,12-quinone

> <PUBCHEM_IUPAC_INCHI>
InChI=1S/C19H16O7/c1-19(26)6-9(21)2-7-3-10-14(18(25)15(7)19)17(24)13-11(16(10)23)4-8(20)5-12(13)22/h3-5,9,20-22,25-26H,2,6H2,1H3

> <PUBCHEM_IUPAC_INCHIKEY>
WBICYHCOBLVBMM-UHFFFAOYSA-N

> <PUBCHEM_XLOGP3_AA>
1.5

> <PUBCHEM_EXACT_MASS>
356.089603

> <PUBCHEM_MOLECULAR_FORMULA>
C19H16O7

> <PUBCHEM_MOLECULAR_WEIGHT>
356.32614

> <PUBCHEM_OPENEYE_CAN_SMILES>
CC1(CC(CC2=C1C(=C3C(=C2)C(=O)C4=CC(=CC(=C4C3=O)O)O)O)O)O

> <PUBCHEM_OPENEYE_ISO_SMILES>
CC1(CC(CC2=C1C(=C3C(=C2)C(=O)C4=CC(=CC(=C4C3=O)O)O)O)O)O

> <PUBCHEM_CACTVS_TPSA>
135

> <PUBCHEM_MONOISOTOPIC_WEIGHT>
356.089603

> <PUBCHEM_TOTAL_CHARGE>
0

> <PUBCHEM_HEAVY_ATOM_COUNT>
26

> <PUBCHEM_ATOM_DEF_STEREO_COUNT>
0

> <PUBCHEM_ATOM_UDEF_STEREO_COUNT>
2

> <PUBCHEM_BOND_DEF_STEREO_COUNT>
0

> <PUBCHEM_BOND_UDEF_STEREO_COUNT>
0

> <PUBCHEM_ISOTOPIC_ATOM_COUNT>
0

> <PUBCHEM_COMPONENT_COUNT>
1

> <PUBCHEM_CACTVS_TAUTO_COUNT>
135

> <PUBCHEM_COORDINATE_TYPE>
1
5
255

> <PUBCHEM_BONDANNOTATIONS>
8  1  3
10  13  8
10  14  8
13  16  8
14  17  8
16  18  8
17  18  8
11  2  3
21  22  8
21  23  8
22  24  8
23  26  8
24  25  8
25  26  8

$$$$

