11499
  -OEChem-06261205453D

 31 30  0     0  0  0  0  0  0999 V2000
    3.3425   -1.5387   -0.3451 O   0  0  0  0  0  0  0  0  0  0  0  0
   -2.9999   -2.0999   -0.3585 O   0  0  0  0  0  0  0  0  0  0  0  0
   -0.3249    3.6390   -0.3321 O   0  0  0  0  0  0  0  0  0  0  0  0
    4.7543   -0.2709    0.7960 O   0  5  0  0  0  0  0  0  0  0  0  0
   -2.6542   -3.9399    0.8232 O   0  5  0  0  0  0  0  0  0  0  0  0
   -2.1522    4.2218    0.7739 O   0  5  0  0  0  0  0  0  0  0  0  0
    5.5529   -2.0647   -0.2606 O   0  0  0  0  0  0  0  0  0  0  0  0
   -4.5851   -3.7275   -0.2714 O   0  0  0  0  0  0  0  0  0  0  0  0
   -0.9759    5.8158   -0.2494 O   0  0  0  0  0  0  0  0  0  0  0  0
    0.0106   -0.0121    0.0457 N   0  0  0  0  0  0  0  0  0  0  0  0
    4.6704   -1.2803    0.0952 N   0  3  0  0  0  0  0  0  0  0  0  0
   -3.4657   -3.3644    0.0973 N   0  3  0  0  0  0  0  0  0  0  0  0
   -1.2215    4.6574    0.0950 N   0  3  0  0  0  0  0  0  0  0  0  0
    1.0225   -0.9612   -0.4169 C   0  0  0  0  0  0  0  0  0  0  0  0
   -1.3145   -0.4042   -0.4328 C   0  0  0  0  0  0  0  0  0  0  0  0
    0.3362    1.3413   -0.4027 C   0  0  0  0  0  0  0  0  0  0  0  0
    2.3959   -0.5825    0.1139 C   0  0  0  0  0  0  0  0  0  0  0  0
   -1.7021   -1.7677    0.1169 C   0  0  0  0  0  0  0  0  0  0  0  0
   -0.6893    2.3387    0.1121 C   0  0  0  0  0  0  0  0  0  0  0  0
    1.0506   -1.0309   -1.5126 H   0  0  0  0  0  0  0  0  0  0  0  0
    0.8441   -1.9748   -0.0465 H   0  0  0  0  0  0  0  0  0  0  0  0
   -1.3728   -0.4070   -1.5295 H   0  0  0  0  0  0  0  0  0  0  0  0
   -2.1055    0.2645   -0.0824 H   0  0  0  0  0  0  0  0  0  0  0  0
    0.4083    1.4070   -1.4967 H   0  0  0  0  0  0  0  0  0  0  0  0
    1.2918    1.6946   -0.0045 H   0  0  0  0  0  0  0  0  0  0  0  0
    2.7147    0.3872   -0.2780 H   0  0  0  0  0  0  0  0  0  0  0  0
    2.3742   -0.5637    1.2114 H   0  0  0  0  0  0  0  0  0  0  0  0
   -1.0220   -2.5441   -0.2439 H   0  0  0  0  0  0  0  0  0  0  0  0
   -1.6954   -1.7361    1.2143 H   0  0  0  0  0  0  0  0  0  0  0  0
   -1.6798    2.1355   -0.3030 H   0  0  0  0  0  0  0  0  0  0  0  0
   -0.7187    2.3042    1.2090 H   0  0  0  0  0  0  0  0  0  0  0  0
  1 11  1  0  0  0  0
  1 17  1  0  0  0  0
  2 12  1  0  0  0  0
  2 18  1  0  0  0  0
  3 13  1  0  0  0  0
  3 19  1  0  0  0  0
  4 11  1  0  0  0  0
  5 12  1  0  0  0  0
  6 13  1  0  0  0  0
  7 11  2  0  0  0  0
  8 12  2  0  0  0  0
  9 13  2  0  0  0  0
 10 14  1  0  0  0  0
 10 15  1  0  0  0  0
 10 16  1  0  0  0  0
 14 17  1  0  0  0  0
 14 20  1  0  0  0  0
 14 21  1  0  0  0  0
 15 18  1  0  0  0  0
 15 22  1  0  0  0  0
 15 23  1  0  0  0  0
 16 19  1  0  0  0  0
 16 24  1  0  0  0  0
 16 25  1  0  0  0  0
 17 26  1  0  0  0  0
 17 27  1  0  0  0  0
 18 28  1  0  0  0  0
 18 29  1  0  0  0  0
 19 30  1  0  0  0  0
 19 31  1  0  0  0  0
M  CHG  6   4  -1   5  -1   6  -1  11   1  12   1  13   1
M  END
> <PUBCHEM_COMPOUND_CID>
11499

> <PUBCHEM_CONFORMER_RMSD>
1

> <PUBCHEM_CONFORMER_DIVERSEORDER>
1
41
8
31
9
46
14
26
21
39
25
24
4
2
37
50
11
52
49
20
5
28
6
16
12
51
7
40
10
19
27
38
45
17
32
35
33
18
36
23
15
48
42
47
29
22
3
43
44
34
13
30

> <PUBCHEM_MMFF94_PARTIAL_CHARGES>
19
1 -0.27
10 -0.81
11 1.03
12 1.03
13 1.03
14 0.27
15 0.27
16 0.27
17 0.28
18 0.28
19 0.28
2 -0.27
3 -0.27
4 -0.52
5 -0.52
6 -0.52
7 -0.52
8 -0.52
9 -0.52

> <PUBCHEM_EFFECTIVE_ROTOR_COUNT>
12

> <PUBCHEM_PHARMACOPHORE_FEATURES>
7
1 10 cation
1 4 acceptor
1 5 acceptor
1 6 acceptor
1 7 acceptor
1 8 acceptor
1 9 acceptor

> <PUBCHEM_HEAVY_ATOM_COUNT>
19

> <PUBCHEM_ATOM_DEF_STEREO_COUNT>
0

> <PUBCHEM_ATOM_UDEF_STEREO_COUNT>
0

> <PUBCHEM_BOND_DEF_STEREO_COUNT>
0

> <PUBCHEM_BOND_UDEF_STEREO_COUNT>
0

> <PUBCHEM_ISOTOPIC_ATOM_COUNT>
0

> <PUBCHEM_COMPONENT_COUNT>
1

> <PUBCHEM_CACTVS_TAUTO_COUNT>
1

> <PUBCHEM_CONFORMER_ID>
00002CEB00000001

> <PUBCHEM_MMFF94_ENERGY>
48.6026

> <PUBCHEM_FEATURE_SELFOVERLAP>
35.731

> <PUBCHEM_SHAPE_FINGERPRINT>
10411042 1 18338516331026900238
11056379 131 18338786923268496758
12532896 13 17759805136255918852
12788726 201 18194421084731853231
13955234 65 17619060634467507467
15042514 8 18410569626081658939
17539 30 18336272339452696678
17980427 26 17326898370184843637
21120745 212 18339623582628550436
21426921 1 18338516451960808526
23558518 356 18199180875238301434
23559900 14 18051141293992556755
3091708 16 9277677461616760309
6442390 28 17833544978615718828
77188 2 18338517409026047301

> <PUBCHEM_SHAPE_MULTIPOLES>
318.26
8.01
7.88
0.7
10.86
12.11
0.04
-12.19
0.56
-10.79
0.56
-0.01
-0.02
0.01

> <PUBCHEM_SHAPE_SELFOVERLAP>
608.229

> <PUBCHEM_SHAPE_VOLUME>
196.5

> <PUBCHEM_COORDINATE_TYPE>
2
5
10

$$$$

