3543
  -OEChem-06251223292D

 61 65  0     0  0  0  0  0  0999 V2000
    9.5453    1.8681    0.0000 N   0  0  0  0  0  0  0  0  0  0  0  0
    6.0010    2.0634    0.0000 N   0  0  0  0  0  0  0  0  0  0  0  0
    2.5369    0.0634    0.0000 N   0  0  0  0  0  0  0  0  0  0  0  0
    7.7331    2.0634    0.0000 N   0  0  0  0  0  0  0  0  0  0  0  0
    9.5453    0.2586    0.0000 N   0  0  0  0  0  0  0  0  0  0  0  0
    6.8671    0.5634    0.0000 N   0  0  0  0  0  0  0  0  0  0  0  0
    7.7331   -0.9366    0.0000 N   0  0  0  0  0  0  0  0  0  0  0  0
    9.8560    2.8186    0.0000 C   0  0  0  0  0  0  0  0  0  0  0  0
   10.8076    3.1260    0.0000 C   0  0  0  0  0  0  0  0  0  0  0  0
    9.2696    3.6286    0.0000 C   0  0  0  0  0  0  0  0  0  0  0  0
    5.1350    1.5634    0.0000 C   0  0  0  0  0  0  0  0  0  0  0  0
   10.8093    4.1260    0.0000 C   0  0  0  0  0  0  0  0  0  0  0  0
    9.8588    4.4366    0.0000 C   0  0  0  0  0  0  0  0  0  0  0  0
    4.2690    2.0634    0.0000 C   0  0  0  0  0  0  0  0  0  0  0  0
    5.1350    0.5634    0.0000 C   0  0  0  0  0  0  0  0  0  0  0  0
    3.4030    0.5634    0.0000 C   0  0  0  0  0  0  0  0  0  0  0  0
    3.4030    1.5634    0.0000 C   0  0  0  0  0  0  0  0  0  0  0  0
    4.2690    0.0634    0.0000 C   0  0  0  0  0  0  0  0  0  0  0  0
    8.5991    1.5634    0.0000 C   0  0  0  0  0  0  0  0  0  0  0  0
   10.1289    1.0634    0.0000 C   0  0  0  0  0  0  0  0  0  0  0  0
    6.8671    1.5634    0.0000 C   0  0  0  0  0  0  0  0  0  0  0  0
    8.5991    0.5634    0.0000 C   0  0  0  0  0  0  0  0  0  0  0  0
    7.7331    0.0634    0.0000 C   0  0  0  0  0  0  0  0  0  0  0  0
    6.8671   -1.4366    0.0000 C   0  0  0  0  0  0  0  0  0  0  0  0
    6.8671   -2.4366    0.0000 C   0  0  0  0  0  0  0  0  0  0  0  0
    6.0010   -2.9366    0.0000 C   0  0  0  0  0  0  0  0  0  0  0  0
    7.7331   -2.9366    0.0000 C   0  0  0  0  0  0  0  0  0  0  0  0
    6.0010   -3.9366    0.0000 C   0  0  0  0  0  0  0  0  0  0  0  0
    7.7331   -3.9366    0.0000 C   0  0  0  0  0  0  0  0  0  0  0  0
    6.8671   -4.4366    0.0000 C   0  0  0  0  0  0  0  0  0  0  0  0
   10.2936    2.3794    0.0000 H   0  0  0  0  0  0  0  0  0  0  0  0
   10.9354    2.5193    0.0000 H   0  0  0  0  0  0  0  0  0  0  0  0
   11.4243    3.1897    0.0000 H   0  0  0  0  0  0  0  0  0  0  0  0
    8.8096    4.0443    0.0000 H   0  0  0  0  0  0  0  0  0  0  0  0
    8.8081    3.2146    0.0000 H   0  0  0  0  0  0  0  0  0  0  0  0
    5.1350    2.1834    0.0000 H   0  0  0  0  0  0  0  0  0  0  0  0
   11.4258    4.0601    0.0000 H   0  0  0  0  0  0  0  0  0  0  0  0
   10.9393    4.7322    0.0000 H   0  0  0  0  0  0  0  0  0  0  0  0
   10.1120    5.0026    0.0000 H   0  0  0  0  0  0  0  0  0  0  0  0
    9.3224    4.7476    0.0000 H   0  0  0  0  0  0  0  0  0  0  0  0
    5.3471   -0.0193    0.0000 H   0  0  0  0  0  0  0  0  0  0  0  0
    5.7456    0.6710    0.0000 H   0  0  0  0  0  0  0  0  0  0  0  0
    4.6675    2.5383    0.0000 H   0  0  0  0  0  0  0  0  0  0  0  0
    3.8705    2.5383    0.0000 H   0  0  0  0  0  0  0  0  0  0  0  0
    3.4030   -0.0566    0.0000 H   0  0  0  0  0  0  0  0  0  0  0  0
    3.8705   -0.4116    0.0000 H   0  0  0  0  0  0  0  0  0  0  0  0
    4.6675   -0.4116    0.0000 H   0  0  0  0  0  0  0  0  0  0  0  0
    3.1909    2.1460    0.0000 H   0  0  0  0  0  0  0  0  0  0  0  0
    2.7924    1.4557    0.0000 H   0  0  0  0  0  0  0  0  0  0  0  0
    6.0010    2.6834    0.0000 H   0  0  0  0  0  0  0  0  0  0  0  0
   10.7489    1.0634    0.0000 H   0  0  0  0  0  0  0  0  0  0  0  0
    2.0000    0.3734    0.0000 H   0  0  0  0  0  0  0  0  0  0  0  0
    2.5369   -0.5566    0.0000 H   0  0  0  0  0  0  0  0  0  0  0  0
    8.2700   -1.2466    0.0000 H   0  0  0  0  0  0  0  0  0  0  0  0
    6.6550   -0.8540    0.0000 H   0  0  0  0  0  0  0  0  0  0  0  0
    6.2565   -1.5443    0.0000 H   0  0  0  0  0  0  0  0  0  0  0  0
    5.4641   -2.6266    0.0000 H   0  0  0  0  0  0  0  0  0  0  0  0
    8.2700   -2.6266    0.0000 H   0  0  0  0  0  0  0  0  0  0  0  0
    5.4641   -4.2466    0.0000 H   0  0  0  0  0  0  0  0  0  0  0  0
    8.2700   -4.2466    0.0000 H   0  0  0  0  0  0  0  0  0  0  0  0
    6.8671   -5.0566    0.0000 H   0  0  0  0  0  0  0  0  0  0  0  0
  1  8  1  0  0  0  0
  1 19  1  0  0  0  0
  1 20  1  0  0  0  0
  2 11  1  0  0  0  0
  2 21  1  0  0  0  0
  2 50  1  0  0  0  0
  3 16  1  0  0  0  0
  3 52  1  0  0  0  0
  3 53  1  0  0  0  0
  4 19  2  0  0  0  0
  4 21  1  0  0  0  0
  5 20  2  0  0  0  0
  5 22  1  0  0  0  0
  6 21  2  0  0  0  0
  6 23  1  0  0  0  0
  7 23  1  0  0  0  0
  7 24  1  0  0  0  0
  7 54  1  0  0  0  0
  8  9  1  0  0  0  0
  8 10  1  0  0  0  0
  8 31  1  0  0  0  0
  9 12  1  0  0  0  0
  9 32  1  0  0  0  0
  9 33  1  0  0  0  0
 10 13  1  0  0  0  0
 10 34  1  0  0  0  0
 10 35  1  0  0  0  0
 11 14  1  0  0  0  0
 11 15  1  0  0  0  0
 11 36  1  0  0  0  0
 12 13  1  0  0  0  0
 12 37  1  0  0  0  0
 12 38  1  0  0  0  0
 13 39  1  0  0  0  0
 13 40  1  0  0  0  0
 14 17  1  0  0  0  0
 14 43  1  0  0  0  0
 14 44  1  0  0  0  0
 15 18  1  0  0  0  0
 15 41  1  0  0  0  0
 15 42  1  0  0  0  0
 16 17  1  0  0  0  0
 16 18  1  0  0  0  0
 16 45  1  0  0  0  0
 17 48  1  0  0  0  0
 17 49  1  0  0  0  0
 18 46  1  0  0  0  0
 18 47  1  0  0  0  0
 19 22  1  0  0  0  0
 20 51  1  0  0  0  0
 22 23  2  0  0  0  0
 24 25  1  0  0  0  0
 24 55  1  0  0  0  0
 24 56  1  0  0  0  0
 25 26  2  0  0  0  0
 25 27  1  0  0  0  0
 26 28  1  0  0  0  0
 26 57  1  0  0  0  0
 27 29  2  0  0  0  0
 27 58  1  0  0  0  0
 28 30  2  0  0  0  0
 28 59  1  0  0  0  0
 29 30  1  0  0  0  0
 29 60  1  0  0  0  0
 30 61  1  0  0  0  0
M  END
> <PUBCHEM_COMPOUND_CID>
3543

> <PUBCHEM_COMPOUND_CANONICALIZED>
1

> <PUBCHEM_CACTVS_COMPLEXITY>
526

> <PUBCHEM_CACTVS_HBOND_ACCEPTOR>
6

> <PUBCHEM_CACTVS_HBOND_DONOR>
3

> <PUBCHEM_CACTVS_ROTATABLE_BOND>
6

> <PUBCHEM_CACTVS_SUBSKEYS>
AAADceB7gAAAAAAAAAAAAAAAAAAAAeIAAAA8YIAAAAAAAFgB/AAAHAAQAAAADCjBHwQ18L/MEACgAyZjZACCgC0xEKAJ2KAoVJiIaCLA2VGUJAhokALIiCcQgAAOAAAAAAAAAAAAAQAAAAAAAAAAAAAAAA==

> <PUBCHEM_IUPAC_OPENEYE_NAME>
N2-(4-aminocyclohexyl)-N6-benzyl-9-cyclopentyl-purine-2,6-diamine

> <PUBCHEM_IUPAC_CAS_NAME>
N2-(4-aminocyclohexyl)-9-cyclopentyl-N6-(phenylmethyl)purine-2,6-diamine

> <PUBCHEM_IUPAC_NAME>
2-N-(4-aminocyclohexyl)-6-N-benzyl-9-cyclopentylpurine-2,6-diamine

> <PUBCHEM_IUPAC_SYSTEMATIC_NAME>
N2-(4-azanylcyclohexyl)-9-cyclopentyl-N6-(phenylmethyl)purine-2,6-diamine

> <PUBCHEM_IUPAC_TRADITIONAL_NAME>
(4-aminocyclohexyl)-[6-(benzylamino)-9-cyclopentyl-purin-2-yl]amine

> <PUBCHEM_IUPAC_INCHI>
InChI=1S/C23H31N7/c24-17-10-12-18(13-11-17)27-23-28-21(25-14-16-6-2-1-3-7-16)20-22(29-23)30(15-26-20)19-8-4-5-9-19/h1-3,6-7,15,17-19H,4-5,8-14,24H2,(H2,25,27,28,29)

> <PUBCHEM_IUPAC_INCHIKEY>
JTVILUUAQWQWBK-UHFFFAOYSA-N

> <PUBCHEM_XLOGP3_AA>
3.7

> <PUBCHEM_EXACT_MASS>
405.264094

> <PUBCHEM_MOLECULAR_FORMULA>
C23H31N7

> <PUBCHEM_MOLECULAR_WEIGHT>
405.53914

> <PUBCHEM_OPENEYE_CAN_SMILES>
C1CCC(C1)N2C=NC3=C2N=C(N=C3NCC4=CC=CC=C4)NC5CCC(CC5)N

> <PUBCHEM_OPENEYE_ISO_SMILES>
C1CCC(C1)N2C=NC3=C2N=C(N=C3NCC4=CC=CC=C4)NC5CCC(CC5)N

> <PUBCHEM_CACTVS_TPSA>
93.7

> <PUBCHEM_MONOISOTOPIC_WEIGHT>
405.264094

> <PUBCHEM_TOTAL_CHARGE>
0

> <PUBCHEM_HEAVY_ATOM_COUNT>
30

> <PUBCHEM_ATOM_DEF_STEREO_COUNT>
0

> <PUBCHEM_ATOM_UDEF_STEREO_COUNT>
0

> <PUBCHEM_BOND_DEF_STEREO_COUNT>
0

> <PUBCHEM_BOND_UDEF_STEREO_COUNT>
0

> <PUBCHEM_ISOTOPIC_ATOM_COUNT>
0

> <PUBCHEM_COMPONENT_COUNT>
1

> <PUBCHEM_CACTVS_TAUTO_COUNT>
6

> <PUBCHEM_COORDINATE_TYPE>
1
5
255

> <PUBCHEM_BONDANNOTATIONS>
1  19  8
1  20  8
19  22  8
22  23  8
25  26  8
25  27  8
26  28  8
27  29  8
28  30  8
29  30  8
4  19  8
4  21  8
5  20  8
5  22  8
6  21  8
6  23  8

$$$$

