4481
  -OEChem-06261200092D

 71 75  0     1  0  0  0  0  0999 V2000
    5.0474    0.5263    0.0000 P   0  0  3  0  0  0  0  0  0  0  0  0
    5.4104    2.2199    0.0000 P   0  0  3  0  0  0  0  0  0  0  0  0
    4.4026   -2.9268    0.0000 O   0  0  0  0  0  0  0  0  0  0  0  0
    7.4382    4.5492    0.0000 O   0  0  0  0  0  0  0  0  0  0  0  0
    6.7485   -4.0187    0.0000 O   0  0  0  0  0  0  0  0  0  0  0  0
    6.7523   -1.8431    0.0000 O   0  0  0  0  0  0  0  0  0  0  0  0
    5.3248    6.0423    0.0000 O   0  0  0  0  0  0  0  0  0  0  0  0
    7.2108    7.1268    0.0000 O   0  0  0  0  0  0  0  0  0  0  0  0
    5.3548   -0.4253    0.0000 O   0  0  0  0  0  0  0  0  0  0  0  0
    6.0809    2.9619    0.0000 O   0  0  0  0  0  0  0  0  0  0  0  0
    4.7400    1.4779    0.0000 O   0  0  0  0  0  0  0  0  0  0  0  0
    5.9990    0.8337    0.0000 O   0  0  0  0  0  0  0  0  0  0  0  0
    4.6685    2.8903    0.0000 O   0  0  0  0  0  0  0  0  0  0  0  0
    4.0958    0.2190    0.0000 O   0  0  0  0  0  0  0  0  0  0  0  0
    6.1524    1.5495    0.0000 O   0  0  0  0  0  0  0  0  0  0  0  0
    2.8660   -7.4921    0.0000 O   0  0  0  0  0  0  0  0  0  0  0  0
   10.8286    3.4354    0.0000 O   0  0  0  0  0  0  0  0  0  0  0  0
    4.6783   -4.6874    0.0000 N   0  0  0  0  0  0  0  0  0  0  0  0
    8.8251    5.6683    0.0000 N   0  3  0  0  0  0  0  0  0  0  0  0
    4.6783   -6.2968    0.0000 N   0  0  0  0  0  0  0  0  0  0  0  0
    2.8660   -4.4921    0.0000 N   0  0  0  0  0  0  0  0  0  0  0  0
    2.0000   -5.9921    0.0000 N   0  0  0  0  0  0  0  0  0  0  0  0
   12.1178    4.5921    0.0000 N   0  0  0  0  0  0  0  0  0  0  0  0
    5.9405   -3.4295    0.0000 C   0  0  3  0  0  0  0  0  0  0  0  0
    5.9422   -2.4295    0.0000 C   0  0  3  0  0  0  0  0  0  0  0  0
    4.9889   -3.7369    0.0000 C   0  0  3  0  0  0  0  0  0  0  0  0
    4.9917   -2.1188    0.0000 C   0  0  3  0  0  0  0  0  0  0  0  0
    6.2377    5.6340    0.0000 C   0  0  3  0  0  0  0  0  0  0  0  0
    7.1046    6.1325    0.0000 C   0  0  3  0  0  0  0  0  0  0  0  0
    6.4439    4.6555    0.0000 C   0  0  3  0  0  0  0  0  0  0  0  0
    7.8466    5.4621    0.0000 C   0  0  3  0  0  0  0  0  0  0  0  0
    4.6844   -1.1672    0.0000 C   0  0  0  0  0  0  0  0  0  0  0  0
    5.7735    3.9135    0.0000 C   0  0  0  0  0  0  0  0  0  0  0  0
    3.7320   -4.9921    0.0000 C   0  0  0  0  0  0  0  0  0  0  0  0
    5.2619   -5.4921    0.0000 C   0  0  0  0  0  0  0  0  0  0  0  0
    9.4929    4.9240    0.0000 C   0  0  0  0  0  0  0  0  0  0  0  0
    3.7320   -5.9921    0.0000 C   0  0  0  0  0  0  0  0  0  0  0  0
    9.1357    6.6188    0.0000 C   0  0  0  0  0  0  0  0  0  0  0  0
   10.4714    5.1302    0.0000 C   0  0  0  0  0  0  0  0  0  0  0  0
   10.1142    6.8250    0.0000 C   0  0  0  0  0  0  0  0  0  0  0  0
    2.8660   -6.4921    0.0000 C   0  0  0  0  0  0  0  0  0  0  0  0
   10.7821    6.0807    0.0000 C   0  0  0  0  0  0  0  0  0  0  0  0
    2.0000   -4.9921    0.0000 C   0  0  0  0  0  0  0  0  0  0  0  0
   11.1393    4.3859    0.0000 C   0  0  0  0  0  0  0  0  0  0  0  0
    6.4934   -3.1490    0.0000 H   0  0  0  0  0  0  0  0  0  0  0  0
    6.4942   -2.7119    0.0000 H   0  0  0  0  0  0  0  0  0  0  0  0
    5.4266   -4.1760    0.0000 H   0  0  0  0  0  0  0  0  0  0  0  0
    4.3795   -2.0208    0.0000 H   0  0  0  0  0  0  0  0  0  0  0  0
    6.2063    6.2532    0.0000 H   0  0  0  0  0  0  0  0  0  0  0  0
    7.6838    6.3537    0.0000 H   0  0  0  0  0  0  0  0  0  0  0  0
    6.6651    4.0763    0.0000 H   0  0  0  0  0  0  0  0  0  0  0  0
    8.0081    6.0607    0.0000 H   0  0  0  0  0  0  0  0  0  0  0  0
    4.3035   -0.6780    0.0000 H   0  0  0  0  0  0  0  0  0  0  0  0
    4.1364   -1.4574    0.0000 H   0  0  0  0  0  0  0  0  0  0  0  0
    5.3926    4.4027    0.0000 H   0  0  0  0  0  0  0  0  0  0  0  0
    5.2256    3.6234    0.0000 H   0  0  0  0  0  0  0  0  0  0  0  0
    7.3154   -3.7675    0.0000 H   0  0  0  0  0  0  0  0  0  0  0  0
    7.3182   -2.0963    0.0000 H   0  0  0  0  0  0  0  0  0  0  0  0
    5.8819   -5.4921    0.0000 H   0  0  0  0  0  0  0  0  0  0  0  0
    5.2611    6.6590    0.0000 H   0  0  0  0  0  0  0  0  0  0  0  0
    6.7099    7.4921    0.0000 H   0  0  0  0  0  0  0  0  0  0  0  0
    9.3003    4.3347    0.0000 H   0  0  0  0  0  0  0  0  0  0  0  0
    8.7217    7.0803    0.0000 H   0  0  0  0  0  0  0  0  0  0  0  0
    2.8660   -3.8721    0.0000 H   0  0  0  0  0  0  0  0  0  0  0  0
   10.3069    7.4143    0.0000 H   0  0  0  0  0  0  0  0  0  0  0  0
   11.3888    6.2086    0.0000 H   0  0  0  0  0  0  0  0  0  0  0  0
    1.4631   -4.6821    0.0000 H   0  0  0  0  0  0  0  0  0  0  0  0
    6.4590    0.4180    0.0000 H   0  0  0  0  0  0  0  0  0  0  0  0
    4.0785    2.6998    0.0000 H   0  0  0  0  0  0  0  0  0  0  0  0
   12.5318    4.1306    0.0000 H   0  0  0  0  0  0  0  0  0  0  0  0
   12.3104    5.1814    0.0000 H   0  0  0  0  0  0  0  0  0  0  0  0
  1  9  1  0  0  0  0
  1 11  1  0  0  0  0
  1 12  1  0  0  0  0
  1 14  2  0  0  0  0
  2 10  1  0  0  0  0
  2 11  1  0  0  0  0
  2 13  1  0  0  0  0
  2 15  2  0  0  0  0
  3 26  1  0  0  0  0
  3 27  1  0  0  0  0
  4 30  1  0  0  0  0
  4 31  1  0  0  0  0
  5 24  1  0  0  0  0
  5 57  1  0  0  0  0
  6 25  1  0  0  0  0
  6 58  1  0  0  0  0
  7 28  1  0  0  0  0
  7 60  1  0  0  0  0
  8 29  1  0  0  0  0
  8 61  1  0  0  0  0
  9 32  1  0  0  0  0
 10 33  1  0  0  0  0
 12 68  1  0  0  0  0
 13 69  1  0  0  0  0
 16 41  2  0  0  0  0
 17 44  2  0  0  0  0
 18 26  1  0  0  0  0
 18 34  1  0  0  0  0
 18 35  1  0  0  0  0
 19 31  1  0  0  0  0
 19 36  1  0  0  0  0
 19 38  2  0  0  0  0
 20 35  2  0  0  0  0
 20 37  1  0  0  0  0
 21 34  1  0  0  0  0
 21 43  1  0  0  0  0
 21 64  1  0  0  0  0
 22 41  1  0  0  0  0
 22 43  2  0  0  0  0
 23 44  1  0  0  0  0
 23 70  1  0  0  0  0
 23 71  1  0  0  0  0
 24 25  1  0  0  0  0
 24 26  1  0  0  0  0
 24 45  1  0  0  0  0
 25 27  1  0  0  0  0
 25 46  1  0  0  0  0
 26 47  1  0  0  0  0
 27 32  1  0  0  0  0
 27 48  1  0  0  0  0
 28 29  1  0  0  0  0
 28 30  1  0  0  0  0
 28 49  1  0  0  0  0
 29 31  1  0  0  0  0
 29 50  1  0  0  0  0
 30 33  1  0  0  0  0
 30 51  1  0  0  0  0
 31 52  1  0  0  0  0
 32 53  1  0  0  0  0
 32 54  1  0  0  0  0
 33 55  1  0  0  0  0
 33 56  1  0  0  0  0
 34 37  2  0  0  0  0
 35 59  1  0  0  0  0
 36 39  2  0  0  0  0
 36 62  1  0  0  0  0
 37 41  1  0  0  0  0
 38 40  1  0  0  0  0
 38 63  1  0  0  0  0
 39 42  1  0  0  0  0
 39 44  1  0  0  0  0
 40 42  2  0  0  0  0
 40 65  1  0  0  0  0
 42 66  1  0  0  0  0
 43 67  1  0  0  0  0
M  CHG  1  19   1
M  END
> <PUBCHEM_COMPOUND_CID>
4481

> <PUBCHEM_COMPOUND_CANONICALIZED>
1

> <PUBCHEM_CACTVS_COMPLEXITY>
1220

> <PUBCHEM_CACTVS_HBOND_ACCEPTOR>
16

> <PUBCHEM_CACTVS_HBOND_DONOR>
8

> <PUBCHEM_CACTVS_ROTATABLE_BOND>
11

> <PUBCHEM_CACTVS_SUBSKEYS>
AAADceB7vAMAAAAAAAAAAAAAAAAAAWJEgAAsQAAAAAAAAEAB4AAAHgAQCCAADBzhngY9sJfMFxCoQzd3dICCgC03EqAJ2KG4dNiLePrA3bGeYYhvgALbyeb4MQIMAAAAAAAAAAAAAAAAAAAAAAAAAAAAAA==

> <PUBCHEM_IUPAC_OPENEYE_NAME>
[[5-(3-carbamoylpyridin-1-ium-1-yl)-3,4-dihydroxy-tetrahydrofuran-2-yl]methoxy-hydroxy-phosphoryl] [3,4-dihydroxy-5-(6-oxo-3H-purin-9-yl)tetrahydrofuran-2-yl]methyl hydrogen phosphate

> <PUBCHEM_IUPAC_CAS_NAME>
[[5-(3-carbamoyl-1-pyridin-1-iumyl)-3,4-dihydroxy-2-oxolanyl]methoxy-hydroxyphosphoryl] [3,4-dihydroxy-5-(6-oxo-3H-purin-9-yl)-2-oxolanyl]methyl hydrogen phosphate

> <PUBCHEM_IUPAC_NAME>
[[5-(3-carbamoylpyridin-1-ium-1-yl)-3,4-dihydroxyoxolan-2-yl]methoxy-hydroxyphosphoryl] [3,4-dihydroxy-5-(6-oxo-3H-purin-9-yl)oxolan-2-yl]methyl hydrogen phosphate

> <PUBCHEM_IUPAC_SYSTEMATIC_NAME>
[[5-(3-aminocarbonylpyridin-1-ium-1-yl)-3,4-bis(oxidanyl)oxolan-2-yl]methoxy-oxidanyl-phosphoryl] [3,4-bis(oxidanyl)-5-(6-oxidanylidene-3H-purin-9-yl)oxolan-2-yl]methyl hydrogen phosphate

> <PUBCHEM_IUPAC_TRADITIONAL_NAME>
[[5-(3-carbamoylpyridin-1-ium-1-yl)-3,4-dihydroxy-tetrahydrofuran-2-yl]methoxy-hydroxy-phosphoryl] [3,4-dihydroxy-5-(6-keto-3H-purin-9-yl)tetrahydrofuran-2-yl]methyl hydrogen phosphate

> <PUBCHEM_IUPAC_INCHI>
InChI=1S/C21H26N6O15P2/c22-17(32)9-2-1-3-26(4-9)20-15(30)13(28)10(40-20)5-38-43(34,35)42-44(36,37)39-6-11-14(29)16(31)21(41-11)27-8-25-12-18(27)23-7-24-19(12)33/h1-4,7-8,10-11,13-16,20-21,28-31H,5-6H2,(H4-,22,23,24,32,33,34,35,36,37)/p+1

> <PUBCHEM_IUPAC_INCHIKEY>
DGVSIBCCYUVRNA-UHFFFAOYSA-O

> <PUBCHEM_XLOGP3>
-6.2

> <PUBCHEM_EXACT_MASS>
665.100962

> <PUBCHEM_MOLECULAR_FORMULA>
C21H27N6O15P2+

> <PUBCHEM_MOLECULAR_WEIGHT>
665.417804

> <PUBCHEM_OPENEYE_CAN_SMILES>
C1=CC(=C[N+](=C1)C2C(C(C(O2)COP(=O)(O)OP(=O)(O)OCC3C(C(C(O3)N4C=NC5=C4NC=NC5=O)O)O)O)O)C(=O)N

> <PUBCHEM_OPENEYE_ISO_SMILES>
C1=CC(=C[N+](=C1)C2C(C(C(O2)COP(=O)(O)OP(=O)(O)OCC3C(C(C(O3)N4C=NC5=C4NC=NC5=O)O)O)O)O)C(=O)N

> <PUBCHEM_CACTVS_TPSA>
308

> <PUBCHEM_MONOISOTOPIC_WEIGHT>
665.100962

> <PUBCHEM_TOTAL_CHARGE>
1

> <PUBCHEM_HEAVY_ATOM_COUNT>
44

> <PUBCHEM_ATOM_DEF_STEREO_COUNT>
0

> <PUBCHEM_ATOM_UDEF_STEREO_COUNT>
8

> <PUBCHEM_BOND_DEF_STEREO_COUNT>
0

> <PUBCHEM_BOND_UDEF_STEREO_COUNT>
0

> <PUBCHEM_ISOTOPIC_ATOM_COUNT>
0

> <PUBCHEM_COMPONENT_COUNT>
1

> <PUBCHEM_CACTVS_TAUTO_COUNT>
6

> <PUBCHEM_COORDINATE_TYPE>
1
5
255

> <PUBCHEM_BONDANNOTATIONS>
26  18  3
18  34  8
18  35  8
31  19  3
19  36  8
19  38  8
20  35  8
20  37  8
21  34  8
21  43  8
22  41  8
22  43  8
27  32  3
30  33  3
34  37  8
36  39  8
37  41  8
38  40  8
39  42  8
40  42  8
24  5  3
25  6  3
28  7  3
29  8  3

$$$$

