10610
  -OEChem-06261204453D

 47 49  0     0  0  0  0  0  0999 V2000
    3.4946   -1.8390    1.1823 S   0  0  0  0  0  0  0  0  0  0  0  0
   -3.1817    1.2711    0.2257 O   0  0  0  0  0  0  0  0  0  0  0  0
   -0.4041    1.3170    0.6091 O   0  0  0  0  0  0  0  0  0  0  0  0
    1.3099    2.7419    0.1900 O   0  0  0  0  0  0  0  0  0  0  0  0
    1.6684    0.4159    0.0258 N   0  0  0  0  0  0  0  0  0  0  0  0
   -6.3484   -0.4934   -0.3983 N   0  0  0  0  0  0  0  0  0  0  0  0
    3.0827    0.5100   -0.2613 C   0  0  0  0  0  0  0  0  0  0  0  0
    1.1080   -0.9147    0.0904 C   0  0  0  0  0  0  0  0  0  0  0  0
    3.9993   -0.4582    0.1862 C   0  0  0  0  0  0  0  0  0  0  0  0
    1.8384   -2.0135    0.5722 C   0  0  0  0  0  0  0  0  0  0  0  0
   -5.0296    0.0536   -0.6804 C   0  0  0  0  0  0  0  0  0  0  0  0
    3.5900    1.5805   -1.0229 C   0  0  0  0  0  0  0  0  0  0  0  0
   -0.1939   -1.1587   -0.3910 C   0  0  0  0  0  0  0  0  0  0  0  0
   -4.4732    0.7696    0.5400 C   0  0  0  0  0  0  0  0  0  0  0  0
    0.8900    1.5866    0.2324 C   0  0  0  0  0  0  0  0  0  0  0  0
    5.3700   -0.3327   -0.0961 C   0  0  0  0  0  0  0  0  0  0  0  0
    1.2583   -3.2920    0.6205 C   0  0  0  0  0  0  0  0  0  0  0  0
   -2.6047    1.9548    1.3317 C   0  0  0  0  0  0  0  0  0  0  0  0
   -1.2226    2.4445    0.9445 C   0  0  0  0  0  0  0  0  0  0  0  0
    4.9535    1.6968   -1.3075 C   0  0  0  0  0  0  0  0  0  0  0  0
   -0.7640   -2.4334   -0.3486 C   0  0  0  0  0  0  0  0  0  0  0  0
    5.8450    0.7425   -0.8397 C   0  0  0  0  0  0  0  0  0  0  0  0
   -0.0401   -3.4997    0.1652 C   0  0  0  0  0  0  0  0  0  0  0  0
   -7.2783    0.5698   -0.0101 C   0  0  0  0  0  0  0  0  0  0  0  0
   -6.8675   -1.2194   -1.5601 C   0  0  0  0  0  0  0  0  0  0  0  0
   -4.3349   -0.7514   -0.9538 H   0  0  0  0  0  0  0  0  0  0  0  0
   -5.0451    0.7416   -1.5367 H   0  0  0  0  0  0  0  0  0  0  0  0
   -4.4015    0.0786    1.3888 H   0  0  0  0  0  0  0  0  0  0  0  0
   -5.0908    1.6260    0.8276 H   0  0  0  0  0  0  0  0  0  0  0  0
    2.9320    2.3298   -1.4546 H   0  0  0  0  0  0  0  0  0  0  0  0
   -0.7794   -0.3802   -0.8734 H   0  0  0  0  0  0  0  0  0  0  0  0
    6.0834   -1.0720    0.2624 H   0  0  0  0  0  0  0  0  0  0  0  0
    1.8144   -4.1422    1.0100 H   0  0  0  0  0  0  0  0  0  0  0  0
   -2.5262    1.2608    2.1766 H   0  0  0  0  0  0  0  0  0  0  0  0
   -3.2349    2.8047    1.6157 H   0  0  0  0  0  0  0  0  0  0  0  0
   -1.2928    3.0973    0.0669 H   0  0  0  0  0  0  0  0  0  0  0  0
   -0.7714    2.9900    1.7803 H   0  0  0  0  0  0  0  0  0  0  0  0
    5.3127    2.5311   -1.9031 H   0  0  0  0  0  0  0  0  0  0  0  0
   -1.7679   -2.5909   -0.7322 H   0  0  0  0  0  0  0  0  0  0  0  0
    6.9049    0.8304   -1.0574 H   0  0  0  0  0  0  0  0  0  0  0  0
   -0.4786   -4.4922    0.1999 H   0  0  0  0  0  0  0  0  0  0  0  0
   -8.3012    0.1779    0.0496 H   0  0  0  0  0  0  0  0  0  0  0  0
   -7.0665    0.9514    0.9934 H   0  0  0  0  0  0  0  0  0  0  0  0
   -7.2840    1.4027   -0.7226 H   0  0  0  0  0  0  0  0  0  0  0  0
   -6.1900   -2.0346   -1.8379 H   0  0  0  0  0  0  0  0  0  0  0  0
   -6.9979   -0.5665   -2.4307 H   0  0  0  0  0  0  0  0  0  0  0  0
   -7.8329   -1.6819   -1.3262 H   0  0  0  0  0  0  0  0  0  0  0  0
  1  9  1  0  0  0  0
  1 10  1  0  0  0  0
  2 14  1  0  0  0  0
  2 18  1  0  0  0  0
  3 15  1  0  0  0  0
  3 19  1  0  0  0  0
  4 15  2  0  0  0  0
  5  7  1  0  0  0  0
  5  8  1  0  0  0  0
  5 15  1  0  0  0  0
  6 11  1  0  0  0  0
  6 24  1  0  0  0  0
  6 25  1  0  0  0  0
  7  9  1  0  0  0  0
  7 12  2  0  0  0  0
  8 10  1  0  0  0  0
  8 13  2  0  0  0  0
  9 16  2  0  0  0  0
 10 17  2  0  0  0  0
 11 14  1  0  0  0  0
 11 26  1  0  0  0  0
 11 27  1  0  0  0  0
 12 20  1  0  0  0  0
 12 30  1  0  0  0  0
 13 21  1  0  0  0  0
 13 31  1  0  0  0  0
 14 28  1  0  0  0  0
 14 29  1  0  0  0  0
 16 22  1  0  0  0  0
 16 32  1  0  0  0  0
 17 23  1  0  0  0  0
 17 33  1  0  0  0  0
 18 19  1  0  0  0  0
 18 34  1  0  0  0  0
 18 35  1  0  0  0  0
 19 36  1  0  0  0  0
 19 37  1  0  0  0  0
 20 22  2  0  0  0  0
 20 38  1  0  0  0  0
 21 23  2  0  0  0  0
 21 39  1  0  0  0  0
 22 40  1  0  0  0  0
 23 41  1  0  0  0  0
 24 42  1  0  0  0  0
 24 43  1  0  0  0  0
 24 44  1  0  0  0  0
 25 45  1  0  0  0  0
 25 46  1  0  0  0  0
 25 47  1  0  0  0  0
M  END
> <PUBCHEM_COMPOUND_CID>
10610

> <PUBCHEM_CONFORMER_RMSD>
1

> <PUBCHEM_CONFORMER_DIVERSEORDER>
1
64
67
25
21
6
29
22
39
53
79
15
70
66
49
54
74
43
12
42
4
78
47
36
28
41
61
14
45
20
23
71
2
34
44
62
55
69
65
32
10
46
19
72
11
13
40
75
17
24
38
63
50
16
73
5
80
35
76
3
18
81
60
26
56
7
58
27
9
57
52
31
59
48
8
68
77
30
33
51
37

> <PUBCHEM_MMFF94_PARTIAL_CHARGES>
33
1 -0.2
10 0.1
11 0.27
12 -0.15
13 -0.15
14 0.28
15 0.78
16 -0.15
17 -0.15
18 0.28
19 0.28
2 -0.56
20 -0.15
21 -0.15
22 -0.15
23 -0.15
24 0.27
25 0.27
3 -0.43
30 0.15
31 0.15
32 0.15
33 0.15
38 0.15
39 0.15
4 -0.57
40 0.15
41 0.15
5 -0.29
6 -0.81
7 0.12
8 0.12
9 0.1

> <PUBCHEM_EFFECTIVE_ROTOR_COUNT>
8.4

> <PUBCHEM_PHARMACOPHORE_FEATURES>
6
1 2 acceptor
1 4 acceptor
1 6 cation
6 1 5 7 8 9 10 rings
6 7 9 12 16 20 22 rings
6 8 10 13 17 21 23 rings

> <PUBCHEM_HEAVY_ATOM_COUNT>
25

> <PUBCHEM_ATOM_DEF_STEREO_COUNT>
0

> <PUBCHEM_ATOM_UDEF_STEREO_COUNT>
0

> <PUBCHEM_BOND_DEF_STEREO_COUNT>
0

> <PUBCHEM_BOND_UDEF_STEREO_COUNT>
0

> <PUBCHEM_ISOTOPIC_ATOM_COUNT>
0

> <PUBCHEM_COMPONENT_COUNT>
1

> <PUBCHEM_CACTVS_TAUTO_COUNT>
1

> <PUBCHEM_CONFORMER_ID>
0000297200000001

> <PUBCHEM_MMFF94_ENERGY>
91.276

> <PUBCHEM_FEATURE_SELFOVERLAP>
30.483

> <PUBCHEM_SHAPE_FINGERPRINT>
10090160 65 18271522091108158722
1100329 8 18336265626402975649
11135609 187 18413107243089818153
12788726 201 18040431135898805305
13836976 161 18272364283035163340
14464042 87 18260832609103741651
14767858 380 18408605842553502141
14787075 74 18334292084741017313
14790565 3 18411409618711276824
14931854 50 18408608063426303287
15131766 46 15910769287601381236
15537594 2 18186805786220816975
16993438 75 18058158428825209579
17138139 8 18188220801350341527
17492 54 18341606005908200265
19319366 153 18412833490379974735
19591789 44 18338509863412177312
20028762 73 18186521024739985462
208703 8 17025176033827192327
21054139 6 18408321107364466541
21344244 181 17895177931523695638
23569917 315 18410288151269459530
3178227 256 18339347588135442169
335352 9 18341889702564748982
4098825 35 18059581356006471421
439807 62 18341054030894120807
484989 97 18123185711155080211
5312544 6 18341610460184898946

> <PUBCHEM_SHAPE_MULTIPOLES>
490.77
14.97
3.47
1.13
24.55
1.9
-0.08
-2.71
-5.63
-1.17
0.67
0.23
-0.17
-2.57

> <PUBCHEM_SHAPE_SELFOVERLAP>
1022.178

> <PUBCHEM_SHAPE_VOLUME>
278.8

> <PUBCHEM_COORDINATE_TYPE>
2
5
10

$$$$

