23724765
  -OEChem-07051213083D

 19 19  0     1  0  0  0  0  0999 V2000
    0.0859   -1.2872    1.3544 F   0  0  0  0  0  0  0  0  0  0  0  0
   -0.5604    0.2061   -1.8167 O   0  0  0  0  0  0  0  0  0  0  0  0
    0.1329   -2.1101   -0.7159 O   0  0  0  0  0  0  0  0  0  0  0  0
   -1.6439    0.4856    1.5436 O   0  0  0  0  0  0  0  0  0  0  0  0
   -2.7709    0.1920   -0.4159 O   0  0  0  0  0  0  0  0  0  0  0  0
   -0.3502    0.2554   -0.4083 C   0  0  1  0  0  0  0  0  0  0  0  0
    0.4557   -0.9759    0.0800 C   0  0  1  0  0  0  0  0  0  0  0  0
    0.3183    1.5699   -0.1049 C   0  0  0  0  0  0  0  0  0  0  0  0
    1.9454   -0.7579    0.0574 C   0  0  0  0  0  0  0  0  0  0  0  0
   -1.7229    0.3017    0.2030 C   0  0  0  0  0  0  0  0  0  0  0  0
    1.6356    1.6466    0.1371 C   0  0  0  0  0  0  0  0  0  0  0  0
    2.4745    0.4738    0.0863 C   0  0  0  0  0  0  0  0  0  0  0  0
   -0.2700    2.4840   -0.1137 H   0  0  0  0  0  0  0  0  0  0  0  0
    2.6004   -1.6239    0.0512 H   0  0  0  0  0  0  0  0  0  0  0  0
    2.1089    2.6021    0.3345 H   0  0  0  0  0  0  0  0  0  0  0  0
    3.5495    0.6164    0.0923 H   0  0  0  0  0  0  0  0  0  0  0  0
   -0.9126   -0.6734   -2.0364 H   0  0  0  0  0  0  0  0  0  0  0  0
   -0.7587   -2.3948   -0.4527 H   0  0  0  0  0  0  0  0  0  0  0  0
   -2.5306    0.5200    1.9617 H   0  0  0  0  0  0  0  0  0  0  0  0
  1  7  1  0  0  0  0
  2  6  1  0  0  0  0
  2 17  1  0  0  0  0
  3  7  1  0  0  0  0
  3 18  1  0  0  0  0
  4 10  1  0  0  0  0
  4 19  1  0  0  0  0
  5 10  2  0  0  0  0
  6  7  1  0  0  0  0
  6  8  1  0  0  0  0
  6 10  1  0  0  0  0
  7  9  1  0  0  0  0
  8 11  2  0  0  0  0
  8 13  1  0  0  0  0
  9 12  2  0  0  0  0
  9 14  1  0  0  0  0
 11 12  1  0  0  0  0
 11 15  1  0  0  0  0
 12 16  1  0  0  0  0
M  END
> <PUBCHEM_COMPOUND_CID>
23724765

> <PUBCHEM_CONFORMER_RMSD>
0.4

> <PUBCHEM_CONFORMER_DIVERSEORDER>
2
3
4
5
1
6

> <PUBCHEM_MMFF94_PARTIAL_CHARGES>
19
1 -0.34
10 0.66
11 -0.15
12 -0.15
13 0.15
14 0.15
15 0.15
16 0.15
17 0.4
18 0.4
19 0.5
2 -0.68
3 -0.68
4 -0.65
5 -0.57
6 0.48
7 0.76
8 -0.29
9 -0.29

> <PUBCHEM_EFFECTIVE_ROTOR_COUNT>
1.4

> <PUBCHEM_PHARMACOPHORE_FEATURES>
8
1 2 acceptor
1 2 donor
1 3 acceptor
1 3 donor
1 4 acceptor
1 5 acceptor
3 4 5 10 anion
6 6 7 8 9 11 12 rings

> <PUBCHEM_HEAVY_ATOM_COUNT>
12

> <PUBCHEM_ATOM_DEF_STEREO_COUNT>
2

> <PUBCHEM_ATOM_UDEF_STEREO_COUNT>
0

> <PUBCHEM_BOND_DEF_STEREO_COUNT>
0

> <PUBCHEM_BOND_UDEF_STEREO_COUNT>
0

> <PUBCHEM_ISOTOPIC_ATOM_COUNT>
0

> <PUBCHEM_COMPONENT_COUNT>
1

> <PUBCHEM_CACTVS_TAUTO_COUNT>
1

> <PUBCHEM_CONFORMER_ID>
016A02DD00000002

> <PUBCHEM_MMFF94_ENERGY>
18.596

> <PUBCHEM_FEATURE_SELFOVERLAP>
40.679

> <PUBCHEM_SHAPE_FINGERPRINT>
10702982 57 18187655643461684591
12423570 1 17170944035906074396
13024252 1 13323249046543931848
137420 1 4649373231310787751
15557651 10 17988938750989920100
16945 1 18408877460316589048
20653085 51 16589122979908034512
21040471 1 18266178335991001204
23235685 24 18339649945095582248
241688 4 17905322184693643064
2748010 2 18122902032506114652
29004967 10 18343016739556334184
5084963 1 18341051826299031184
528886 8 18335151894201642992

> <PUBCHEM_SHAPE_MULTIPOLES>
216.2
2.81
1.67
1.14
0.34
0.32
-0.02
-0.6
0.18
-0.54
-0.03
0.45
0.08
-0.06

> <PUBCHEM_SHAPE_SELFOVERLAP>
458.056

> <PUBCHEM_SHAPE_VOLUME>
120.3

> <PUBCHEM_COORDINATE_TYPE>
2
5
10

$$$$

