7799
  -OEChem-07051213033D

 32 31  0     0  0  0  0  0  0999 V2000
   -3.4565    0.4868   -0.0236 O   0  0  0  0  0  0  0  0  0  0  0  0
   -2.4218   -1.5744    0.0106 O   0  0  0  0  0  0  0  0  0  0  0  0
    2.6869   -0.3899    0.0195 C   0  0  0  0  0  0  0  0  0  0  0  0
    1.4306    0.4833    0.0278 C   0  0  0  0  0  0  0  0  0  0  0  0
    3.9570    0.4625    0.0376 C   0  0  0  0  0  0  0  0  0  0  0  0
    0.1603   -0.3714   -0.0240 C   0  0  0  0  0  0  0  0  0  0  0  0
    5.2120   -0.4087   -0.0043 C   0  0  0  0  0  0  0  0  0  0  0  0
   -1.1124    0.4750   -0.0452 C   0  0  0  0  0  0  0  0  0  0  0  0
    6.4761    0.4358   -0.0205 C   0  0  0  0  0  0  0  0  0  0  0  0
   -2.3787   -0.3523   -0.0256 C   0  0  0  0  0  0  0  0  0  0  0  0
   -4.7360   -0.1530    0.0259 C   0  0  0  0  0  0  0  0  0  0  0  0
   -5.8176    0.9061    0.0217 C   0  0  0  0  0  0  0  0  0  0  0  0
    2.6782   -1.0567    0.8902 H   0  0  0  0  0  0  0  0  0  0  0  0
    2.6852   -1.0253   -0.8746 H   0  0  0  0  0  0  0  0  0  0  0  0
    1.4188    1.1054    0.9308 H   0  0  0  0  0  0  0  0  0  0  0  0
    1.4481    1.1621   -0.8335 H   0  0  0  0  0  0  0  0  0  0  0  0
    3.9701    1.0851    0.9405 H   0  0  0  0  0  0  0  0  0  0  0  0
    3.9543    1.1422   -0.8233 H   0  0  0  0  0  0  0  0  0  0  0  0
    0.1827   -1.0134   -0.9136 H   0  0  0  0  0  0  0  0  0  0  0  0
    0.1385   -1.0428    0.8436 H   0  0  0  0  0  0  0  0  0  0  0  0
    5.1949   -1.0445   -0.8971 H   0  0  0  0  0  0  0  0  0  0  0  0
    5.2330   -1.0734    0.8671 H   0  0  0  0  0  0  0  0  0  0  0  0
   -1.1269    1.1312    0.8327 H   0  0  0  0  0  0  0  0  0  0  0  0
   -1.1242    1.0940   -0.9495 H   0  0  0  0  0  0  0  0  0  0  0  0
    6.5403    1.0628    0.8746 H   0  0  0  0  0  0  0  0  0  0  0  0
    6.5014    1.0877   -0.8995 H   0  0  0  0  0  0  0  0  0  0  0  0
    7.3613   -0.2073   -0.0490 H   0  0  0  0  0  0  0  0  0  0  0  0
   -4.8523   -0.8045   -0.8473 H   0  0  0  0  0  0  0  0  0  0  0  0
   -4.8090   -0.7530    0.9399 H   0  0  0  0  0  0  0  0  0  0  0  0
   -6.8111    0.4507    0.0590 H   0  0  0  0  0  0  0  0  0  0  0  0
   -5.7034    1.5768    0.8797 H   0  0  0  0  0  0  0  0  0  0  0  0
   -5.7462    1.5261   -0.8780 H   0  0  0  0  0  0  0  0  0  0  0  0
  1 10  1  0  0  0  0
  1 11  1  0  0  0  0
  2 10  2  0  0  0  0
  3  4  1  0  0  0  0
  3  5  1  0  0  0  0
  3 13  1  0  0  0  0
  3 14  1  0  0  0  0
  4  6  1  0  0  0  0
  4 15  1  0  0  0  0
  4 16  1  0  0  0  0
  5  7  1  0  0  0  0
  5 17  1  0  0  0  0
  5 18  1  0  0  0  0
  6  8  1  0  0  0  0
  6 19  1  0  0  0  0
  6 20  1  0  0  0  0
  7  9  1  0  0  0  0
  7 21  1  0  0  0  0
  7 22  1  0  0  0  0
  8 10  1  0  0  0  0
  8 23  1  0  0  0  0
  8 24  1  0  0  0  0
  9 25  1  0  0  0  0
  9 26  1  0  0  0  0
  9 27  1  0  0  0  0
 11 12  1  0  0  0  0
 11 28  1  0  0  0  0
 11 29  1  0  0  0  0
 12 30  1  0  0  0  0
 12 31  1  0  0  0  0
 12 32  1  0  0  0  0
M  END
> <PUBCHEM_COMPOUND_CID>
7799

> <PUBCHEM_CONFORMER_RMSD>
0.8

> <PUBCHEM_CONFORMER_DIVERSEORDER>
1
35
189
63
276
214
231
147
281
4
237
223
73
239
271
103
212
135
267
273
44
256
209
11
2
107
122
264
17
14
235
270
67
254
87
261
86
40
62
100
170
225
242
190
162
275
105
258
110
262
46
181
136
260
57
131
187
127
143
220
192
26
98
194
16
48
95
245
117
61
203
282
141
115
160
3
18
252
70
240
166
156
215
185
140
114
238
129
55
279
167
218
88
65
28
137
150
15
52
24
5
196
7
176
80
37
75
84
56
207
148
13
43
66
217
10
116
106
71
285
101
204
186
232
149
138
145
12
58
157
8
92
182
119
93
269
236
158
79
32
45
286
82
123
113
277
174
259
208
72
19
20
36
125
42
23
83
25
226
9
188
22
278
263
76
31
248
249
155
205
202
29
89
64
49
6
60
221
51
216
128
47
247
33
200
53
94
144
227
191
34
171
253
142
265
153
139
193
41
134
198
243
230
250
146
183
78
173
151
246
111
121
39
81
96
120
178
283
177
164
77
21
112
27
255
126
195
268
124
201
228
224
109
234
184
233
172
179
280
50
97
99
175
266
272
54
165
284
197
206
154
168
169
132
199
152
213
90
210
108
118
222
159
38
69
30
59
229
130
244
274
91
219
257
85
68
163
180
104
74
161
211
241
251
102
133

> <PUBCHEM_MMFF94_PARTIAL_CHARGES>
5
1 -0.43
10 0.66
11 0.28
2 -0.57
8 0.06

> <PUBCHEM_EFFECTIVE_ROTOR_COUNT>
8

> <PUBCHEM_PHARMACOPHORE_FEATURES>
4
1 2 acceptor
1 9 hydrophobe
3 3 5 7 hydrophobe
3 4 6 8 hydrophobe

> <PUBCHEM_HEAVY_ATOM_COUNT>
12

> <PUBCHEM_ATOM_DEF_STEREO_COUNT>
0

> <PUBCHEM_ATOM_UDEF_STEREO_COUNT>
0

> <PUBCHEM_BOND_DEF_STEREO_COUNT>
0

> <PUBCHEM_BOND_UDEF_STEREO_COUNT>
0

> <PUBCHEM_ISOTOPIC_ATOM_COUNT>
0

> <PUBCHEM_COMPONENT_COUNT>
1

> <PUBCHEM_CACTVS_TAUTO_COUNT>
1

> <PUBCHEM_CONFORMER_ID>
00001E7700000001

> <PUBCHEM_MMFF94_ENERGY>
-0.0233

> <PUBCHEM_FEATURE_SELFOVERLAP>
20.31

> <PUBCHEM_SHAPE_FINGERPRINT>
10968037 39 18408603651777387037
12091667 2 18261111868373030791
12815109 37 18408040714946218352
13533116 47 17458625683248029862
14123238 8 18411419518188426732
1420 363 9943805603479444984
14251764 46 18411420609131218915
15048467 5 18412545418148302708
15242433 33 18341895199310504202
15242439 84 18040154002801493794
15501527 16 18411136930815192905
17834072 33 17895197662238858100
17834076 25 18334295370274785173
187816 3 14923944548243401519
20279233 1 17676196966315010126
20281389 69 18343866640491030424
20621476 66 18409162242756130489
20645477 56 18341897402644298021
20645477 70 16805876420436404118
20767249 213 18261111867845672493
22485316 2 18410013230533219874
23218964 4 18410857680631541568
23402539 116 18187089451335559909
23521765 1 18335421270181653764
300161 21 18411707582072399810
42788 4 18409730660075909760
4463277 17 18413951685188873452
8209 1 18407760339270184428

> <PUBCHEM_SHAPE_MULTIPOLES>
235.22
15.45
0.97
0.6
5.81
0.17
0
-2.8
-0.06
-0.56
0
0.05
-0.01
0

> <PUBCHEM_SHAPE_SELFOVERLAP>
424.866

> <PUBCHEM_SHAPE_VOLUME>
151.6

> <PUBCHEM_COORDINATE_TYPE>
2
5
10

$$$$

