5281203
  -OEChem-07051212552D

 43 44  0     1  0  0  0  0  0999 V2000
    2.8660   -4.6550    0.0000 O   0  0  0  0  0  0  0  0  0  0  0  0
    2.0000   -3.1550    0.0000 O   0  0  0  0  0  0  0  0  0  0  0  0
    9.7942    2.3450    0.0000 O   0  0  0  0  0  0  0  0  0  0  0  0
    6.3301   -4.6550    0.0000 O   0  0  0  0  0  0  0  0  0  0  0  0
    9.7942    4.3450    0.0000 O   0  0  0  0  0  0  0  0  0  0  0  0
    7.1962   -3.1550    0.0000 O   0  0  0  0  0  0  0  0  0  0  0  0
    4.5981   -3.6550    0.0000 N   0  0  0  0  0  0  0  0  0  0  0  0
    5.4641    0.8450    0.0000 N   0  0  0  0  0  0  0  0  0  0  0  0
    3.7320   -2.1550    0.0000 C   0  0  0  0  0  0  0  0  0  0  0  0
    3.7320   -3.1550    0.0000 C   0  0  3  0  0  0  0  0  0  0  0  0
    4.5981   -1.6550    0.0000 C   0  0  0  0  0  0  0  0  0  0  0  0
    6.3301    2.3450    0.0000 C   0  0  0  0  0  0  0  0  0  0  0  0
    6.3301    1.3450    0.0000 C   0  0  0  0  0  0  0  0  0  0  0  0
    5.4641   -2.1550    0.0000 C   0  0  0  0  0  0  0  0  0  0  0  0
    4.5981   -0.6550    0.0000 C   0  0  0  0  0  0  0  0  0  0  0  0
    5.4641   -3.1550    0.0000 C   0  0  0  0  0  0  0  0  0  0  0  0
    7.1962    2.8450    0.0000 C   0  0  0  0  0  0  0  0  0  0  0  0
    2.8660   -3.6550    0.0000 C   0  0  0  0  0  0  0  0  0  0  0  0
    5.4641   -0.1550    0.0000 C   0  0  0  0  0  0  0  0  0  0  0  0
    8.0622    2.3450    0.0000 C   0  0  0  0  0  0  0  0  0  0  0  0
    7.1962    3.8450    0.0000 C   0  0  0  0  0  0  0  0  0  0  0  0
    8.9282    2.8450    0.0000 C   0  0  0  0  0  0  0  0  0  0  0  0
    8.0622    4.3450    0.0000 C   0  0  0  0  0  0  0  0  0  0  0  0
    6.3301   -3.6550    0.0000 C   0  0  0  0  0  0  0  0  0  0  0  0
    8.9282    3.8450    0.0000 C   0  0  0  0  0  0  0  0  0  0  0  0
    3.5200   -1.5724    0.0000 H   0  0  0  0  0  0  0  0  0  0  0  0
    3.1215   -2.2627    0.0000 H   0  0  0  0  0  0  0  0  0  0  0  0
    3.7320   -4.0050    0.0000 H   0  0  0  0  0  0  0  0  0  0  0  0
    6.1181    2.9276    0.0000 H   0  0  0  0  0  0  0  0  0  0  0  0
    5.7196    2.2373    0.0000 H   0  0  0  0  0  0  0  0  0  0  0  0
    6.5422    0.7624    0.0000 H   0  0  0  0  0  0  0  0  0  0  0  0
    6.9407    1.4527    0.0000 H   0  0  0  0  0  0  0  0  0  0  0  0
    6.0010   -1.8450    0.0000 H   0  0  0  0  0  0  0  0  0  0  0  0
    4.0611   -0.3450    0.0000 H   0  0  0  0  0  0  0  0  0  0  0  0
    4.9272    1.1550    0.0000 H   0  0  0  0  0  0  0  0  0  0  0  0
    6.0010   -0.4650    0.0000 H   0  0  0  0  0  0  0  0  0  0  0  0
    8.0622    1.7250    0.0000 H   0  0  0  0  0  0  0  0  0  0  0  0
    6.6592    4.1550    0.0000 H   0  0  0  0  0  0  0  0  0  0  0  0
    8.0622    4.9650    0.0000 H   0  0  0  0  0  0  0  0  0  0  0  0
    2.3291   -4.9650    0.0000 H   0  0  0  0  0  0  0  0  0  0  0  0
   10.3312    2.6550    0.0000 H   0  0  0  0  0  0  0  0  0  0  0  0
    6.8671   -4.9650    0.0000 H   0  0  0  0  0  0  0  0  0  0  0  0
    9.7942    4.9650    0.0000 H   0  0  0  0  0  0  0  0  0  0  0  0
  1 18  1  0  0  0  0
  1 40  1  0  0  0  0
  2 18  2  0  0  0  0
  3 22  1  0  0  0  0
  3 41  1  0  0  0  0
  4 24  1  0  0  0  0
  4 42  1  0  0  0  0
  5 25  1  0  0  0  0
  5 43  1  0  0  0  0
  6 24  2  0  0  0  0
  7 10  1  0  0  0  0
  7 16  2  0  0  0  0
  8 13  1  0  0  0  0
  8 19  1  0  0  0  0
  8 35  1  0  0  0  0
  9 10  1  0  0  0  0
  9 11  1  0  0  0  0
  9 26  1  0  0  0  0
  9 27  1  0  0  0  0
 10 18  1  0  0  0  0
 10 28  1  0  0  0  0
 11 14  2  0  0  0  0
 11 15  1  0  0  0  0
 12 13  1  0  0  0  0
 12 17  1  0  0  0  0
 12 29  1  0  0  0  0
 12 30  1  0  0  0  0
 13 31  1  0  0  0  0
 13 32  1  0  0  0  0
 14 16  1  0  0  0  0
 14 33  1  0  0  0  0
 15 19  2  0  0  0  0
 15 34  1  0  0  0  0
 16 24  1  0  0  0  0
 17 20  2  0  0  0  0
 17 21  1  0  0  0  0
 19 36  1  0  0  0  0
 20 22  1  0  0  0  0
 20 37  1  0  0  0  0
 21 23  2  0  0  0  0
 21 38  1  0  0  0  0
 22 25  2  0  0  0  0
 23 25  1  0  0  0  0
 23 39  1  0  0  0  0
M  END
> <PUBCHEM_COMPOUND_CID>
5281203

> <PUBCHEM_COMPOUND_CANONICALIZED>
1

> <PUBCHEM_CACTVS_COMPLEXITY>
598

> <PUBCHEM_CACTVS_HBOND_ACCEPTOR>
8

> <PUBCHEM_CACTVS_HBOND_DONOR>
5

> <PUBCHEM_CACTVS_ROTATABLE_BOND>
7

> <PUBCHEM_CACTVS_SUBSKEYS>
AAADceB7OAAAAAAAAAAAAAAAAAAAAAAAAAAwQAAAAAAAAAABAAAAHgAQCAAADCzBmAQwDoLAAgCoAyD2TAQCAAAgIgAIiIGeiJgLJjKCkROEcAEk0BEJmAeY0LIOIAABAAAAQABAAAIAAACAAAAAAAAAAA==

> <PUBCHEM_IUPAC_OPENEYE_NAME>
4-[(E)-2-[2-(3,4-dihydroxyphenyl)ethylamino]vinyl]-2,3-dihydropyridine-2,6-dicarboxylic acid

> <PUBCHEM_IUPAC_CAS_NAME>
4-[(E)-2-[2-(3,4-dihydroxyphenyl)ethylamino]ethenyl]-2,3-dihydropyridine-2,6-dicarboxylic acid

> <PUBCHEM_IUPAC_NAME>
4-[(E)-2-[2-(3,4-dihydroxyphenyl)ethylamino]ethenyl]-2,3-dihydropyridine-2,6-dicarboxylic acid

> <PUBCHEM_IUPAC_SYSTEMATIC_NAME>
4-[(E)-2-[2-[3,4-bis(oxidanyl)phenyl]ethylamino]ethenyl]-2,3-dihydropyridine-2,6-dicarboxylic acid

> <PUBCHEM_IUPAC_TRADITIONAL_NAME>
4-[(E)-2-[2-(3,4-dihydroxyphenyl)ethylamino]vinyl]-2,3-dihydropyridine-2,6-dicarboxylic acid

> <PUBCHEM_IUPAC_INCHI>
InChI=1S/C17H18N2O6/c20-14-2-1-10(9-15(14)21)3-5-18-6-4-11-7-12(16(22)23)19-13(8-11)17(24)25/h1-2,4,6-7,9,13,18,20-21H,3,5,8H2,(H,22,23)(H,24,25)/b6-4+

> <PUBCHEM_IUPAC_INCHIKEY>
OBOHVTYKFOAOLV-GQCTYLIASA-N

> <PUBCHEM_XLOGP3_AA>
1.1

> <PUBCHEM_EXACT_MASS>
346.116486

> <PUBCHEM_MOLECULAR_FORMULA>
C17H18N2O6

> <PUBCHEM_MOLECULAR_WEIGHT>
346.33462

> <PUBCHEM_OPENEYE_CAN_SMILES>
C1C(N=C(C=C1C=CNCCC2=CC(=C(C=C2)O)O)C(=O)O)C(=O)O

> <PUBCHEM_OPENEYE_ISO_SMILES>
C1C(N=C(C=C1/C=C/NCCC2=CC(=C(C=C2)O)O)C(=O)O)C(=O)O

> <PUBCHEM_CACTVS_TPSA>
139

> <PUBCHEM_MONOISOTOPIC_WEIGHT>
346.116486

> <PUBCHEM_TOTAL_CHARGE>
0

> <PUBCHEM_HEAVY_ATOM_COUNT>
25

> <PUBCHEM_ATOM_DEF_STEREO_COUNT>
0

> <PUBCHEM_ATOM_UDEF_STEREO_COUNT>
1

> <PUBCHEM_BOND_DEF_STEREO_COUNT>
1

> <PUBCHEM_BOND_UDEF_STEREO_COUNT>
0

> <PUBCHEM_ISOTOPIC_ATOM_COUNT>
0

> <PUBCHEM_COMPONENT_COUNT>
1

> <PUBCHEM_CACTVS_TAUTO_COUNT>
54

> <PUBCHEM_COORDINATE_TYPE>
1
5
255

> <PUBCHEM_BONDANNOTATIONS>
10  28  3
17  20  8
17  21  8
20  22  8
21  23  8
22  25  8
23  25  8

$$$$

