51091017
  -OEChem-06241223013D

 38 39  0     0  0  0  0  0  0999 V2000
    0.6257   -3.4867   -0.0219 S   0  0  0  0  0  0  0  0  0  0  0  0
    2.8497    2.2854   -0.1963 S   0  0  0  0  0  0  0  0  0  0  0  0
    2.1251   -1.2358   -0.6299 O   0  0  0  0  0  0  0  0  0  0  0  0
   -2.5913    2.4116   -1.2899 O   0  0  0  0  0  0  0  0  0  0  0  0
   -1.4316    2.5048    0.7375 N   0  0  0  0  0  0  0  0  0  0  0  0
    2.3502   -1.9641    1.4733 N   0  0  0  0  0  0  0  0  0  0  0  0
    3.1507   -0.8475    1.3200 N   0  0  0  0  0  0  0  0  0  0  0  0
   -1.4729   -1.8295   -0.7006 C   0  0  0  0  0  0  0  0  0  0  0  0
   -2.2767    0.3989   -0.2257 C   0  0  0  0  0  0  0  0  0  0  0  0
   -1.3114   -0.4459   -0.7735 C   0  0  0  0  0  0  0  0  0  0  0  0
   -0.4415   -2.7331   -1.2873 C   0  0  0  0  0  0  0  0  0  0  0  0
   -2.5999   -2.3684   -0.0799 C   0  0  0  0  0  0  0  0  0  0  0  0
   -3.4038   -0.1399    0.3951 C   0  0  0  0  0  0  0  0  0  0  0  0
   -2.1088    1.8415   -0.3023 C   0  0  0  0  0  0  0  0  0  0  0  0
   -3.5654   -1.5236    0.4678 C   0  0  0  0  0  0  0  0  0  0  0  0
   -1.2373    3.9479    0.7395 C   0  0  0  0  0  0  0  0  0  0  0  0
   -0.8776    1.7902    1.8856 C   0  0  0  0  0  0  0  0  0  0  0  0
    1.7708   -2.1535    0.3109 C   0  0  0  0  0  0  0  0  0  0  0  0
    2.9879   -0.4563    0.0777 C   0  0  0  0  0  0  0  0  0  0  0  0
    3.5942    0.6747   -0.6351 C   0  0  0  0  0  0  0  0  0  0  0  0
    3.8638    3.3292   -1.2650 C   0  0  0  0  0  0  0  0  0  0  0  0
   -0.4352   -0.0214   -1.2582 H   0  0  0  0  0  0  0  0  0  0  0  0
    0.1661   -2.2181   -2.0400 H   0  0  0  0  0  0  0  0  0  0  0  0
   -0.9432   -3.5465   -1.8252 H   0  0  0  0  0  0  0  0  0  0  0  0
   -2.7401   -3.4444   -0.0181 H   0  0  0  0  0  0  0  0  0  0  0  0
   -4.1622    0.5089    0.8255 H   0  0  0  0  0  0  0  0  0  0  0  0
   -4.4432   -1.9430    0.9507 H   0  0  0  0  0  0  0  0  0  0  0  0
    0.1888    2.0236    1.9586 H   0  0  0  0  0  0  0  0  0  0  0  0
   -1.7073    4.3669    1.6337 H   0  0  0  0  0  0  0  0  0  0  0  0
   -1.6832    4.4052   -0.1473 H   0  0  0  0  0  0  0  0  0  0  0  0
   -0.1647    4.1613    0.7512 H   0  0  0  0  0  0  0  0  0  0  0  0
   -0.9881    0.7075    1.8325 H   0  0  0  0  0  0  0  0  0  0  0  0
   -1.3836    2.1473    2.7878 H   0  0  0  0  0  0  0  0  0  0  0  0
    3.4989    0.5338   -1.7170 H   0  0  0  0  0  0  0  0  0  0  0  0
    4.6626    0.7146   -0.3980 H   0  0  0  0  0  0  0  0  0  0  0  0
    3.5611    4.3725   -1.1415 H   0  0  0  0  0  0  0  0  0  0  0  0
    3.7263    3.0508   -2.3131 H   0  0  0  0  0  0  0  0  0  0  0  0
    4.9195    3.2407   -0.9956 H   0  0  0  0  0  0  0  0  0  0  0  0
  1 11  1  0  0  0  0
  1 18  1  0  0  0  0
  2 20  1  0  0  0  0
  2 21  1  0  0  0  0
  3 18  1  0  0  0  0
  3 19  1  0  0  0  0
  4 14  2  0  0  0  0
  5 14  1  0  0  0  0
  5 16  1  0  0  0  0
  5 17  1  0  0  0  0
  6  7  1  0  0  0  0
  6 18  2  0  0  0  0
  7 19  2  0  0  0  0
  8 10  2  0  0  0  0
  8 11  1  0  0  0  0
  8 12  1  0  0  0  0
  9 10  1  0  0  0  0
  9 13  2  0  0  0  0
  9 14  1  0  0  0  0
 10 22  1  0  0  0  0
 11 23  1  0  0  0  0
 11 24  1  0  0  0  0
 12 15  2  0  0  0  0
 12 25  1  0  0  0  0
 13 15  1  0  0  0  0
 13 26  1  0  0  0  0
 15 27  1  0  0  0  0
 16 29  1  0  0  0  0
 16 30  1  0  0  0  0
 16 31  1  0  0  0  0
 17 28  1  0  0  0  0
 17 32  1  0  0  0  0
 17 33  1  0  0  0  0
 19 20  1  0  0  0  0
 20 34  1  0  0  0  0
 20 35  1  0  0  0  0
 21 36  1  0  0  0  0
 21 37  1  0  0  0  0
 21 38  1  0  0  0  0
M  END
> <PUBCHEM_COMPOUND_CID>
51091017

> <PUBCHEM_CONFORMER_RMSD>
1

> <PUBCHEM_CONFORMER_DIVERSEORDER>
1
88
55
85
128
40
131
118
49
136
75
112
46
135
86
91
30
82
69
137
125
23
7
122
13
57
63
42
33
37
92
117
45
111
132
84
119
48
72
50
96
99
61
139
142
70
123
71
67
58
140
95
28
97
16
124
4
115
64
56
18
66
144
110
52
68
11
21
14
54
22
35
5
17
3
24
25
79
102
138
8
41
114
51
76
107
34
19
15
134
89
73
121
83
80
10
38
106
74
87
2
101
6
127
44
133
100
60
105
29
32
103
65
36
9
12
116
126
78
141
93
62
31
109
98
53
81
20
77
94
27
129
39
47
108
113
104
120
90
26
59
130
43
143

> <PUBCHEM_MMFF94_PARTIAL_CHARGES>
25
1 -0.29
10 -0.15
11 0.37
12 -0.15
13 -0.15
14 0.54
15 -0.15
16 0.3
17 0.3
18 0.53
19 0.3
2 -0.46
20 0.41
21 0.23
22 0.15
25 0.15
26 0.15
27 0.15
3 -0.28
4 -0.57
5 -0.66
6 -0.34
7 -0.34
8 -0.14
9 0.09

> <PUBCHEM_EFFECTIVE_ROTOR_COUNT>
7

> <PUBCHEM_PHARMACOPHORE_FEATURES>
4
1 21 hydrophobe
1 4 acceptor
5 3 6 7 18 19 rings
6 8 9 10 12 13 15 rings

> <PUBCHEM_HEAVY_ATOM_COUNT>
21

> <PUBCHEM_ATOM_DEF_STEREO_COUNT>
0

> <PUBCHEM_ATOM_UDEF_STEREO_COUNT>
0

> <PUBCHEM_BOND_DEF_STEREO_COUNT>
0

> <PUBCHEM_BOND_UDEF_STEREO_COUNT>
0

> <PUBCHEM_ISOTOPIC_ATOM_COUNT>
0

> <PUBCHEM_COMPONENT_COUNT>
1

> <PUBCHEM_CACTVS_TAUTO_COUNT>
1

> <PUBCHEM_CONFORMER_ID>
030B964900000001

> <PUBCHEM_MMFF94_ENERGY>
43.3928

> <PUBCHEM_FEATURE_SELFOVERLAP>
20.297

> <PUBCHEM_SHAPE_FINGERPRINT>
10498660 4 18408041784224634055
1100329 8 17545594561607191735
11221954 11 17683526512979468815
12156800 1 16390633522907304056
12553582 1 18047477716325533661
12633257 1 17623573459341432762
13122387 1 18121499326046576104
13140716 1 18408610236099428059
13583140 156 17343493698894354257
14114207 22 15524135871167437770
14251745 187 17253435596033919496
14251751 93 18337660997459474894
14251757 17 17679832025414285190
14787075 74 17768247916584269847
14931854 50 17978227158499190884
15003188 8 17618803782590798872
17093844 170 16321472558288769040
17492 54 17979924799936034447
18981168 100 17827906644608090943
192875 21 17977125752574597845
20510252 161 18408038533124359719
20642791 35 17111571090822367078
20715895 44 17981903139836306213
21141583 151 18045772395719493636
22749437 52 17902525018169218443
23558518 356 17905047302782167763
3797600 57 18272365326475294290
44154327 71 18336825290711794023
474 4 17327464026236653265
7097593 13 17843133750934355058

> <PUBCHEM_SHAPE_MULTIPOLES>
413.19
6.57
5.11
1.32
4.33
1.8
0.26
1.59
-1.04
0.22
0.32
0.35
0.25
-1.31

> <PUBCHEM_SHAPE_SELFOVERLAP>
828.326

> <PUBCHEM_SHAPE_VOLUME>
247.2

> <PUBCHEM_COORDINATE_TYPE>
2
5
10

$$$$

