5281684
  -OEChem-07051212583D

 46 46  0     1  0  0  0  0  0999 V2000
   -5.7493    2.0338   -0.5788 O   0  0  0  0  0  0  0  0  0  0  0  0
   -3.5184   -0.4606    1.1496 N   0  0  2  0  0  0  0  0  0  0  0  0
   -4.2132    0.8220    0.8921 C   0  0  2  0  0  0  0  0  0  0  0  0
   -5.2245    0.7463   -0.2701 C   0  0  2  0  0  0  0  0  0  0  0  0
   -2.9761   -1.1279   -0.0558 C   0  0  1  0  0  0  0  0  0  0  0  0
   -4.6050    0.1596   -1.5332 C   0  0  0  0  0  0  0  0  0  0  0  0
   -3.9748   -1.1923   -1.2260 C   0  0  0  0  0  0  0  0  0  0  0  0
   -3.2039    1.9709    0.7300 C   0  0  0  0  0  0  0  0  0  0  0  0
   -4.3703   -1.3749    1.9172 C   0  0  0  0  0  0  0  0  0  0  0  0
   -1.6581   -0.5400   -0.4812 C   0  0  0  0  0  0  0  0  0  0  0  0
   -0.4737   -0.9331    0.0116 C   0  0  0  0  0  0  0  0  0  0  0  0
    0.7836   -0.3545   -0.4106 C   0  0  0  0  0  0  0  0  0  0  0  0
    2.0157   -0.6739    0.0169 C   0  0  0  0  0  0  0  0  0  0  0  0
    3.2738   -0.0950   -0.4056 C   0  0  0  0  0  0  0  0  0  0  0  0
    4.4572   -0.4903    0.0893 C   0  0  0  0  0  0  0  0  0  0  0  0
    5.7174    0.0825   -0.3295 C   0  0  0  0  0  0  0  0  0  0  0  0
    8.2156    0.2721   -0.2689 C   0  0  0  0  0  0  0  0  0  0  0  0
    6.9017   -0.3104    0.1629 C   0  0  0  0  0  0  0  0  0  0  0  0
    8.6024    1.4659    0.5901 C   0  0  0  0  0  0  0  0  0  0  0  0
   -4.7768    1.0996    1.7946 H   0  0  0  0  0  0  0  0  0  0  0  0
   -6.0735    0.1228    0.0363 H   0  0  0  0  0  0  0  0  0  0  0  0
   -2.7531   -2.1736    0.2047 H   0  0  0  0  0  0  0  0  0  0  0  0
   -3.8701    0.8504   -1.9625 H   0  0  0  0  0  0  0  0  0  0  0  0
   -5.3758    0.0423   -2.3050 H   0  0  0  0  0  0  0  0  0  0  0  0
   -4.7723   -1.9064   -0.9829 H   0  0  0  0  0  0  0  0  0  0  0  0
   -3.4846   -1.5786   -2.1285 H   0  0  0  0  0  0  0  0  0  0  0  0
   -2.4348    1.9304    1.5096 H   0  0  0  0  0  0  0  0  0  0  0  0
   -2.7096    1.9767   -0.2434 H   0  0  0  0  0  0  0  0  0  0  0  0
   -3.7110    2.9370    0.8361 H   0  0  0  0  0  0  0  0  0  0  0  0
   -5.2644   -1.6860    1.3676 H   0  0  0  0  0  0  0  0  0  0  0  0
   -4.6894   -0.9081    2.8559 H   0  0  0  0  0  0  0  0  0  0  0  0
   -3.8121   -2.2741    2.2018 H   0  0  0  0  0  0  0  0  0  0  0  0
   -1.6765    0.2422   -1.2364 H   0  0  0  0  0  0  0  0  0  0  0  0
   -6.3990    1.9240   -1.2939 H   0  0  0  0  0  0  0  0  0  0  0  0
   -0.4310   -1.7150    0.7650 H   0  0  0  0  0  0  0  0  0  0  0  0
    0.7029    0.4299   -1.1633 H   0  0  0  0  0  0  0  0  0  0  0  0
    2.0968   -1.4583    0.7696 H   0  0  0  0  0  0  0  0  0  0  0  0
    3.2246    0.6898   -1.1566 H   0  0  0  0  0  0  0  0  0  0  0  0
    4.4982   -1.2760    0.8405 H   0  0  0  0  0  0  0  0  0  0  0  0
    5.6860    0.8629   -1.0857 H   0  0  0  0  0  0  0  0  0  0  0  0
    8.1685    0.5810   -1.3200 H   0  0  0  0  0  0  0  0  0  0  0  0
    8.9884   -0.5022   -0.2052 H   0  0  0  0  0  0  0  0  0  0  0  0
    6.9438   -1.0830    0.9275 H   0  0  0  0  0  0  0  0  0  0  0  0
    8.6852    1.1841    1.6453 H   0  0  0  0  0  0  0  0  0  0  0  0
    9.5710    1.8629    0.2697 H   0  0  0  0  0  0  0  0  0  0  0  0
    7.8645    2.2712    0.5087 H   0  0  0  0  0  0  0  0  0  0  0  0
  1  4  1  0  0  0  0
  1 34  1  0  0  0  0
  2  3  1  0  0  0  0
  2  5  1  0  0  0  0
  2  9  1  0  0  0  0
  3  4  1  0  0  0  0
  3  8  1  0  0  0  0
  3 20  1  0  0  0  0
  4  6  1  0  0  0  0
  4 21  1  0  0  0  0
  5  7  1  0  0  0  0
  5 10  1  0  0  0  0
  5 22  1  0  0  0  0
  6  7  1  0  0  0  0
  6 23  1  0  0  0  0
  6 24  1  0  0  0  0
  7 25  1  0  0  0  0
  7 26  1  0  0  0  0
  8 27  1  0  0  0  0
  8 28  1  0  0  0  0
  8 29  1  0  0  0  0
  9 30  1  0  0  0  0
  9 31  1  0  0  0  0
  9 32  1  0  0  0  0
 10 11  2  0  0  0  0
 10 33  1  0  0  0  0
 11 12  1  0  0  0  0
 11 35  1  0  0  0  0
 12 13  2  0  0  0  0
 12 36  1  0  0  0  0
 13 14  1  0  0  0  0
 13 37  1  0  0  0  0
 14 15  2  0  0  0  0
 14 38  1  0  0  0  0
 15 16  1  0  0  0  0
 15 39  1  0  0  0  0
 16 18  2  0  0  0  0
 16 40  1  0  0  0  0
 17 18  1  0  0  0  0
 17 19  1  0  0  0  0
 17 41  1  0  0  0  0
 17 42  1  0  0  0  0
 18 43  1  0  0  0  0
 19 44  1  0  0  0  0
 19 45  1  0  0  0  0
 19 46  1  0  0  0  0
M  END
> <PUBCHEM_COMPOUND_CID>
5281684

> <PUBCHEM_CONFORMER_RMSD>
0.8

> <PUBCHEM_CONFORMER_DIVERSEORDER>
1
13
19
4
29
11
14
41
16
2
24
18
32
12
30
6
25
9
37
22
27
26
17
3
38
5
28
34
40
35
33
15
31
20
39
10
36
7
21
8
23

> <PUBCHEM_MMFF94_PARTIAL_CHARGES>
24
1 -0.68
10 -0.29
11 -0.15
12 -0.15
13 -0.15
14 -0.15
15 -0.15
16 -0.15
17 0.14
18 -0.29
2 -0.81
3 0.27
33 0.15
34 0.4
35 0.15
36 0.15
37 0.15
38 0.15
39 0.15
4 0.28
40 0.15
43 0.15
5 0.41
9 0.27

> <PUBCHEM_EFFECTIVE_ROTOR_COUNT>
6.2

> <PUBCHEM_PHARMACOPHORE_FEATURES>
5
1 1 acceptor
1 1 donor
1 19 hydrophobe
1 2 cation
6 2 3 4 5 6 7 rings

> <PUBCHEM_HEAVY_ATOM_COUNT>
19

> <PUBCHEM_ATOM_DEF_STEREO_COUNT>
3

> <PUBCHEM_ATOM_UDEF_STEREO_COUNT>
0

> <PUBCHEM_BOND_DEF_STEREO_COUNT>
4

> <PUBCHEM_BOND_UDEF_STEREO_COUNT>
0

> <PUBCHEM_ISOTOPIC_ATOM_COUNT>
0

> <PUBCHEM_COMPONENT_COUNT>
1

> <PUBCHEM_CACTVS_TAUTO_COUNT>
1

> <PUBCHEM_CONFORMER_ID>
0050979400000001

> <PUBCHEM_MMFF94_ENERGY>
27.8701

> <PUBCHEM_FEATURE_SELFOVERLAP>
25.371

> <PUBCHEM_SHAPE_FINGERPRINT>
10087517 78 18335984246385537412
11089746 13 18187367619218977432
11315181 36 18343304743268359351
11524674 6 14979954766069096728
12091667 2 18407759222811003942
12507557 5 18131625682278082821
125118 31 18343019970411432252
12596602 18 17774999064434366848
13288520 33 8286196150453612039
1420 363 12751235913707007674
14251764 18 18272371958563714326
14729087 3 18409171013321701660
14849402 71 14620212119846518502
15183329 4 16588022429414974978
15348495 7 16056307337790813388
15461852 350 17894352150797986878
15716309 27 12463568483013289950
17093844 174 17704356554324086979
17780758 139 17489583463761354417
19489759 90 17385725798319221951
20281389 69 18413392060078066540
21150785 3 15864075368967552100
21267235 1 8358250458414141389
23035841 295 11239998966870487724
23081809 10 14996556335466496838
23402539 116 18333734615134152422
23466295 7 7491840802403124973
23559900 14 16588319271167667827
300161 21 18407761456362906918
328310 630 17531240609453531952
33532 11 9511192854765873988

> <PUBCHEM_SHAPE_MULTIPOLES>
380.16
22.97
1.54
1.22
53.25
0.71
0.25
8.07
0.36
-1.86
0.16
-2.23
-0.23
0.63

> <PUBCHEM_SHAPE_SELFOVERLAP>
741.622

> <PUBCHEM_SHAPE_VOLUME>
228.1

> <PUBCHEM_COORDINATE_TYPE>
2
5
10

$$$$

