439651
  -OEChem-07051212462D

 62 64  0     1  0  0  0  0  0999 V2000
    6.0010   -0.7301    0.0000 P   0  0  3  0  0  0  0  0  0  0  0  0
    6.8671    0.7699    0.0000 P   0  0  3  0  0  0  0  0  0  0  0  0
    9.5127    2.3632    0.0000 O   0  0  0  0  0  0  0  0  0  0  0  0
    4.2690   -1.7300    0.0000 O   0  0  0  0  0  0  0  0  0  0  0  0
    7.9605    4.4336    0.0000 O   0  0  0  0  0  0  0  0  0  0  0  0
    6.0010   -1.7300    0.0000 O   0  0  0  0  0  0  0  0  0  0  0  0
    4.2690   -4.7300    0.0000 O   0  0  0  0  0  0  0  0  0  0  0  0
    2.5369   -3.7300    0.0000 O   0  0  0  0  0  0  0  0  0  0  0  0
    6.0010   -3.7300    0.0000 O   0  0  0  0  0  0  0  0  0  0  0  0
    7.7331    1.2700    0.0000 O   0  0  0  0  0  0  0  0  0  0  0  0
    2.5369   -0.7301    0.0000 O   0  0  0  0  0  0  0  0  0  0  0  0
    6.0010    0.2699    0.0000 O   0  0  0  0  0  0  0  0  0  0  0  0
    7.0010   -0.7301    0.0000 O   0  0  0  0  0  0  0  0  0  0  0  0
   10.9953    1.2793    0.0000 O   0  0  0  0  0  0  0  0  0  0  0  0
    6.3671    1.6360    0.0000 O   0  0  0  0  0  0  0  0  0  0  0  0
    5.0010   -0.7301    0.0000 O   0  0  0  0  0  0  0  0  0  0  0  0
    7.3671   -0.0961    0.0000 O   0  0  0  0  0  0  0  0  0  0  0  0
   14.1599    2.6882    0.0000 O   0  0  0  0  0  0  0  0  0  0  0  0
   11.1763    3.0018    0.0000 N   0  0  0  0  0  0  0  0  0  0  0  0
   12.5776    1.9838    0.0000 N   0  0  0  0  0  0  0  0  0  0  0  0
    8.7036    3.7645    0.0000 C   0  0  2  0  0  0  0  0  0  0  0  0
    8.5991    2.7700    0.0000 C   0  0  1  0  0  0  0  0  0  0  0  0
    9.6818    3.9724    0.0000 C   0  0  0  0  0  0  0  0  0  0  0  0
   10.1818    3.1064    0.0000 C   0  0  1  0  0  0  0  0  0  0  0  0
    4.2690   -3.7300    0.0000 C   0  0  1  0  0  0  0  0  0  0  0  0
    3.4030   -3.2300    0.0000 C   0  0  2  0  0  0  0  0  0  0  0  0
    5.1350   -3.2300    0.0000 C   0  0  2  0  0  0  0  0  0  0  0  0
    3.4030   -2.2300    0.0000 C   0  0  1  0  0  0  0  0  0  0  0  0
    5.1350   -2.2300    0.0000 C   0  0  2  0  0  0  0  0  0  0  0  0
    7.7331    2.2700    0.0000 C   0  0  0  0  0  0  0  0  0  0  0  0
    2.5369   -1.7300    0.0000 C   0  0  0  0  0  0  0  0  0  0  0  0
   11.7641    3.8108    0.0000 C   0  0  0  0  0  0  0  0  0  0  0  0
   11.5830    2.0883    0.0000 C   0  0  0  0  0  0  0  0  0  0  0  0
   12.7586    3.7063    0.0000 C   0  0  0  0  0  0  0  0  0  0  0  0
   13.1654    2.7928    0.0000 C   0  0  0  0  0  0  0  0  0  0  0  0
   13.3464    4.5153    0.0000 C   0  0  0  0  0  0  0  0  0  0  0  0
    8.1248    3.5423    0.0000 H   0  0  0  0  0  0  0  0  0  0  0  0
    8.6316    2.1508    0.0000 H   0  0  0  0  0  0  0  0  0  0  0  0
   10.2482    4.2246    0.0000 H   0  0  0  0  0  0  0  0  0  0  0  0
    9.4902    4.5620    0.0000 H   0  0  0  0  0  0  0  0  0  0  0  0
   10.5195    3.6263    0.0000 H   0  0  0  0  0  0  0  0  0  0  0  0
    4.8059   -4.0400    0.0000 H   0  0  0  0  0  0  0  0  0  0  0  0
    3.4030   -3.8500    0.0000 H   0  0  0  0  0  0  0  0  0  0  0  0
    5.1350   -3.8500    0.0000 H   0  0  0  0  0  0  0  0  0  0  0  0
    3.4030   -1.6100    0.0000 H   0  0  0  0  0  0  0  0  0  0  0  0
    5.1350   -1.6100    0.0000 H   0  0  0  0  0  0  0  0  0  0  0  0
    7.5210    2.8526    0.0000 H   0  0  0  0  0  0  0  0  0  0  0  0
    7.1225    2.1623    0.0000 H   0  0  0  0  0  0  0  0  0  0  0  0
    1.9264   -1.6224    0.0000 H   0  0  0  0  0  0  0  0  0  0  0  0
    2.3249   -2.3127    0.0000 H   0  0  0  0  0  0  0  0  0  0  0  0
    8.0894    5.0400    0.0000 H   0  0  0  0  0  0  0  0  0  0  0  0
    3.7320   -5.0400    0.0000 H   0  0  0  0  0  0  0  0  0  0  0  0
    2.0000   -3.4200    0.0000 H   0  0  0  0  0  0  0  0  0  0  0  0
   11.5119    4.3772    0.0000 H   0  0  0  0  0  0  0  0  0  0  0  0
    6.0010   -4.3501    0.0000 H   0  0  0  0  0  0  0  0  0  0  0  0
   12.8297    1.4174    0.0000 H   0  0  0  0  0  0  0  0  0  0  0  0
    2.0000   -0.4201    0.0000 H   0  0  0  0  0  0  0  0  0  0  0  0
   13.8480    4.1509    0.0000 H   0  0  0  0  0  0  0  0  0  0  0  0
   13.7108    5.0169    0.0000 H   0  0  0  0  0  0  0  0  0  0  0  0
   12.8448    4.8798    0.0000 H   0  0  0  0  0  0  0  0  0  0  0  0
    7.3110   -1.2670    0.0000 H   0  0  0  0  0  0  0  0  0  0  0  0
    5.7471    1.6360    0.0000 H   0  0  0  0  0  0  0  0  0  0  0  0
  1  6  1  0  0  0  0
  1 12  1  0  0  0  0
  1 13  1  0  0  0  0
  1 16  2  0  0  0  0
  2 10  1  0  0  0  0
  2 12  1  0  0  0  0
  2 15  1  0  0  0  0
  2 17  2  0  0  0  0
  3 22  1  0  0  0  0
  3 24  1  0  0  0  0
  4 28  1  0  0  0  0
  4 29  1  0  0  0  0
 21  5  1  1  0  0  0
  5 51  1  0  0  0  0
 29  6  1  6  0  0  0
 25  7  1  1  0  0  0
  7 52  1  0  0  0  0
 26  8  1  1  0  0  0
  8 53  1  0  0  0  0
 27  9  1  6  0  0  0
  9 55  1  0  0  0  0
 10 30  1  0  0  0  0
 11 31  1  0  0  0  0
 11 57  1  0  0  0  0
 13 61  1  0  0  0  0
 14 33  2  0  0  0  0
 15 62  1  0  0  0  0
 18 35  2  0  0  0  0
 24 19  1  6  0  0  0
 19 32  1  0  0  0  0
 19 33  1  0  0  0  0
 20 33  1  0  0  0  0
 20 35  1  0  0  0  0
 20 56  1  0  0  0  0
 21 22  1  0  0  0  0
 21 23  1  0  0  0  0
 21 37  1  0  0  0  0
 22 30  1  6  0  0  0
 22 38  1  0  0  0  0
 23 24  1  0  0  0  0
 23 39  1  0  0  0  0
 23 40  1  0  0  0  0
 24 41  1  0  0  0  0
 25 26  1  0  0  0  0
 25 27  1  0  0  0  0
 25 42  1  0  0  0  0
 26 28  1  0  0  0  0
 26 43  1  0  0  0  0
 27 29  1  0  0  0  0
 27 44  1  0  0  0  0
 28 31  1  1  0  0  0
 28 45  1  0  0  0  0
 29 46  1  0  0  0  0
 30 47  1  0  0  0  0
 30 48  1  0  0  0  0
 31 49  1  0  0  0  0
 31 50  1  0  0  0  0
 32 34  2  0  0  0  0
 32 54  1  0  0  0  0
 34 35  1  0  0  0  0
 34 36  1  0  0  0  0
 36 58  1  0  0  0  0
 36 59  1  0  0  0  0
 36 60  1  0  0  0  0
M  END
> <PUBCHEM_COMPOUND_CID>
439651

> <PUBCHEM_COMPOUND_CANONICALIZED>
1

> <PUBCHEM_CACTVS_COMPLEXITY>
978

> <PUBCHEM_CACTVS_HBOND_ACCEPTOR>
16

> <PUBCHEM_CACTVS_HBOND_DONOR>
8

> <PUBCHEM_CACTVS_ROTATABLE_BOND>
9

> <PUBCHEM_CACTVS_SUBSKEYS>
AAADceB7PgMAAAAAAAAAAAAAAAAAASAAAAAkQAAAAAAAAAAAAAAAHgAQCCAADBTxgAcDCAPABxCIQgFWUICAAAAAAAAAAAEIAECREAIAgQAOQAAPByIHAMHwcAYAAAAAAAAAAAAAAAAAAAAAAAAAAAAAAA==

> <PUBCHEM_IUPAC_OPENEYE_NAME>
[hydroxy-[[(2R,3S,5R)-3-hydroxy-5-(5-methyl-2,4-dioxo-pyrimidin-1-yl)tetrahydrofuran-2-yl]methoxy]phosphoryl] [(2R,3R,4S,5R,6R)-3,4,5-trihydroxy-6-(hydroxymethyl)tetrahydropyran-2-yl] hydrogen phosphate

> <PUBCHEM_IUPAC_CAS_NAME>
[hydroxy-[[(2R,3S,5R)-3-hydroxy-5-(5-methyl-2,4-dioxo-1-pyrimidinyl)-2-oxolanyl]methoxy]phosphoryl] [(2R,3R,4S,5R,6R)-3,4,5-trihydroxy-6-(hydroxymethyl)-2-oxanyl] hydrogen phosphate

> <PUBCHEM_IUPAC_NAME>
[hydroxy-[[(2R,3S,5R)-3-hydroxy-5-(5-methyl-2,4-dioxopyrimidin-1-yl)oxolan-2-yl]methoxy]phosphoryl] [(2R,3R,4S,5R,6R)-3,4,5-trihydroxy-6-(hydroxymethyl)oxan-2-yl] hydrogen phosphate

> <PUBCHEM_IUPAC_SYSTEMATIC_NAME>
[(2R,3R,4S,5R,6R)-6-(hydroxymethyl)-3,4,5-tris(oxidanyl)oxan-2-yl] [[(2R,3S,5R)-5-[5-methyl-2,4-bis(oxidanylidene)pyrimidin-1-yl]-3-oxidanyl-oxolan-2-yl]methoxy-oxidanyl-phosphoryl] hydrogen phosphate

> <PUBCHEM_IUPAC_TRADITIONAL_NAME>
[[(2R,3S,5R)-5-(2,4-diketo-5-methyl-pyrimidin-1-yl)-3-hydroxy-tetrahydrofuran-2-yl]methoxy-hydroxy-phosphoryl] [(2R,3R,4S,5R,6R)-3,4,5-trihydroxy-6-methylol-tetrahydropyran-2-yl] hydrogen phosphate

> <PUBCHEM_IUPAC_INCHI>
InChI=1S/C16H26N2O16P2/c1-6-3-18(16(25)17-14(6)24)10-2-7(20)9(31-10)5-30-35(26,27)34-36(28,29)33-15-13(23)12(22)11(21)8(4-19)32-15/h3,7-13,15,19-23H,2,4-5H2,1H3,(H,26,27)(H,28,29)(H,17,24,25)/t7-,8+,9+,10+,11-,12-,13+,15+/m0/s1

> <PUBCHEM_IUPAC_INCHIKEY>
YSYKRGRSMLTJNL-OAOVJFGZSA-N

> <PUBCHEM_XLOGP3>
-5.5

> <PUBCHEM_EXACT_MASS>
564.075756

> <PUBCHEM_MOLECULAR_FORMULA>
C16H26N2O16P2

> <PUBCHEM_MOLECULAR_WEIGHT>
564.328964

> <PUBCHEM_OPENEYE_CAN_SMILES>
CC1=CN(C(=O)NC1=O)C2CC(C(O2)COP(=O)(O)OP(=O)(O)OC3C(C(C(C(O3)CO)O)O)O)O

> <PUBCHEM_OPENEYE_ISO_SMILES>
CC1=CN(C(=O)NC1=O)[C@H]2C[C@@H]([C@H](O2)COP(=O)(O)OP(=O)(O)O[C@@H]3[C@@H]([C@H]([C@H]([C@H](O3)CO)O)O)O)O

> <PUBCHEM_CACTVS_TPSA>
271

> <PUBCHEM_MONOISOTOPIC_WEIGHT>
564.075756

> <PUBCHEM_TOTAL_CHARGE>
0

> <PUBCHEM_HEAVY_ATOM_COUNT>
36

> <PUBCHEM_ATOM_DEF_STEREO_COUNT>
8

> <PUBCHEM_ATOM_UDEF_STEREO_COUNT>
0

> <PUBCHEM_BOND_DEF_STEREO_COUNT>
0

> <PUBCHEM_BOND_UDEF_STEREO_COUNT>
0

> <PUBCHEM_ISOTOPIC_ATOM_COUNT>
0

> <PUBCHEM_COMPONENT_COUNT>
1

> <PUBCHEM_CACTVS_TAUTO_COUNT>
3

> <PUBCHEM_COORDINATE_TYPE>
1
5
255

> <PUBCHEM_BONDANNOTATIONS>
24  19  6
19  32  8
19  33  8
20  33  8
20  35  8
22  30  6
28  31  5
32  34  8
34  35  8
21  5  5
29  6  6
25  7  5
26  8  5
27  9  6

$$$$

