24892782
  -OEChem-07051213082D

 61 63  0     1  0  0  0  0  0999 V2000
    6.7795    3.6698    0.0000 P   0  0  3  0  0  0  0  0  0  0  0  0
    7.1425    5.3634    0.0000 P   0  0  3  0  0  0  0  0  0  0  0  0
    7.5056    7.0570    0.0000 P   0  0  0  0  0  0  0  0  0  0  0  0
    6.1346    0.2167    0.0000 O   0  0  0  0  0  0  0  0  0  0  0  0
    8.4806   -0.8752    0.0000 O   0  0  0  0  0  0  0  0  0  0  0  0
    8.4843    1.3004    0.0000 O   0  0  0  0  0  0  0  0  0  0  0  0
    7.0868    2.7182    0.0000 O   0  0  0  0  0  0  0  0  0  0  0  0
    6.4721    4.6214    0.0000 O   0  0  0  0  0  0  0  0  0  0  0  0
    7.7310    3.9772    0.0000 O   0  0  0  0  0  0  0  0  0  0  0  0
    5.8279    3.3625    0.0000 O   0  0  0  0  0  0  0  0  0  0  0  0
    7.8129    6.1054    0.0000 O   0  0  0  0  0  0  0  0  0  0  0  0
    6.4005    6.0338    0.0000 O   0  0  0  0  0  0  0  0  0  0  0  0
    7.8845    4.6930    0.0000 O   0  0  0  0  0  0  0  0  0  0  0  0
    2.0000   -7.8486    0.0000 O   0  0  0  0  0  0  0  0  0  0  0  0
    7.1982    8.0086    0.0000 O   0  0  0  0  0  0  0  0  0  0  0  0
    8.4571    7.3644    0.0000 O   0  0  0  0  0  0  0  0  0  0  0  0
    6.5540    6.7496    0.0000 O   0  0  0  0  0  0  0  0  0  0  0  0
    6.4103   -1.5439    0.0000 N   0  0  0  0  0  0  0  0  0  0  0  0
    6.4103   -3.1533    0.0000 N   0  0  0  0  0  0  0  0  0  0  0  0
    4.5981   -1.3486    0.0000 N   0  0  0  0  0  0  0  0  0  0  0  0
    3.7320   -2.8486    0.0000 N   0  0  0  0  0  0  0  0  0  0  0  0
    4.5981   -4.3486    0.0000 N   0  0  0  0  0  0  0  0  0  0  0  0
    7.6726   -0.2860    0.0000 C   0  0  2  0  0  0  0  0  0  0  0  0
    7.6743    0.7140    0.0000 C   0  0  1  0  0  0  0  0  0  0  0  0
    6.7210   -0.5934    0.0000 C   0  0  1  0  0  0  0  0  0  0  0  0
    6.7238    1.0247    0.0000 C   0  0  1  0  0  0  0  0  0  0  0  0
    6.4164    1.9763    0.0000 C   0  0  0  0  0  0  0  0  0  0  0  0
    5.4641   -1.8486    0.0000 C   0  0  0  0  0  0  0  0  0  0  0  0
    6.9939   -2.3486    0.0000 C   0  0  0  0  0  0  0  0  0  0  0  0
    5.4641   -2.8486    0.0000 C   0  0  0  0  0  0  0  0  0  0  0  0
    4.5981   -3.3486    0.0000 C   0  0  0  0  0  0  0  0  0  0  0  0
    3.7320   -1.8486    0.0000 C   0  0  0  0  0  0  0  0  0  0  0  0
    3.7320   -4.8486    0.0000 C   0  0  0  0  0  0  0  0  0  0  0  0
    3.7320   -5.8486    0.0000 C   0  0  0  0  0  0  0  0  0  0  0  0
    2.8660   -6.3486    0.0000 C   0  0  0  0  0  0  0  0  0  0  0  0
    2.8660   -7.3486    0.0000 C   0  0  0  0  0  0  0  0  0  0  0  0
    2.0000   -5.8486    0.0000 C   0  0  0  0  0  0  0  0  0  0  0  0
    8.2255   -0.0055    0.0000 H   0  0  0  0  0  0  0  0  0  0  0  0
    7.5784    1.3265    0.0000 H   0  0  0  0  0  0  0  0  0  0  0  0
    6.1085   -0.6893    0.0000 H   0  0  0  0  0  0  0  0  0  0  0  0
    6.1116    1.1227    0.0000 H   0  0  0  0  0  0  0  0  0  0  0  0
    6.0356    2.4655    0.0000 H   0  0  0  0  0  0  0  0  0  0  0  0
    5.8685    1.6861    0.0000 H   0  0  0  0  0  0  0  0  0  0  0  0
    9.0474   -0.6240    0.0000 H   0  0  0  0  0  0  0  0  0  0  0  0
    9.0503    1.0472    0.0000 H   0  0  0  0  0  0  0  0  0  0  0  0
    7.6139   -2.3486    0.0000 H   0  0  0  0  0  0  0  0  0  0  0  0
    3.1951   -1.5386    0.0000 H   0  0  0  0  0  0  0  0  0  0  0  0
    5.1350   -4.6586    0.0000 H   0  0  0  0  0  0  0  0  0  0  0  0
    3.5200   -4.2660    0.0000 H   0  0  0  0  0  0  0  0  0  0  0  0
    3.1215   -4.9563    0.0000 H   0  0  0  0  0  0  0  0  0  0  0  0
    8.1911    3.5616    0.0000 H   0  0  0  0  0  0  0  0  0  0  0  0
    4.2690   -6.1586    0.0000 H   0  0  0  0  0  0  0  0  0  0  0  0
    5.8105    5.8433    0.0000 H   0  0  0  0  0  0  0  0  0  0  0  0
    3.0781   -7.9312    0.0000 H   0  0  0  0  0  0  0  0  0  0  0  0
    3.4766   -7.2410    0.0000 H   0  0  0  0  0  0  0  0  0  0  0  0
    2.3100   -5.3117    0.0000 H   0  0  0  0  0  0  0  0  0  0  0  0
    1.4631   -5.5386    0.0000 H   0  0  0  0  0  0  0  0  0  0  0  0
    1.6900   -6.3856    0.0000 H   0  0  0  0  0  0  0  0  0  0  0  0
    2.0000   -8.4686    0.0000 H   0  0  0  0  0  0  0  0  0  0  0  0
    7.6138    8.4686    0.0000 H   0  0  0  0  0  0  0  0  0  0  0  0
    8.9172    6.9487    0.0000 H   0  0  0  0  0  0  0  0  0  0  0  0
  1  7  1  0  0  0  0
  1  8  1  0  0  0  0
  1  9  1  0  0  0  0
  1 10  2  0  0  0  0
  2  8  1  0  0  0  0
  2 11  1  0  0  0  0
  2 12  1  0  0  0  0
  2 13  2  0  0  0  0
  3 11  1  0  0  0  0
  3 15  1  0  0  0  0
  3 16  1  0  0  0  0
  3 17  2  0  0  0  0
  4 25  1  0  0  0  0
  4 26  1  0  0  0  0
 23  5  1  1  0  0  0
  5 44  1  0  0  0  0
 24  6  1  1  0  0  0
  6 45  1  0  0  0  0
  7 27  1  0  0  0  0
  9 51  1  0  0  0  0
 12 53  1  0  0  0  0
 14 36  1  0  0  0  0
 14 59  1  0  0  0  0
 15 60  1  0  0  0  0
 16 61  1  0  0  0  0
 25 18  1  6  0  0  0
 18 28  1  0  0  0  0
 18 29  1  0  0  0  0
 19 29  2  0  0  0  0
 19 30  1  0  0  0  0
 20 28  2  0  0  0  0
 20 32  1  0  0  0  0
 21 31  1  0  0  0  0
 21 32  2  0  0  0  0
 22 31  1  0  0  0  0
 22 33  1  0  0  0  0
 22 48  1  0  0  0  0
 23 24  1  0  0  0  0
 23 25  1  0  0  0  0
 23 38  1  0  0  0  0
 24 26  1  0  0  0  0
 24 39  1  0  0  0  0
 25 40  1  0  0  0  0
 26 27  1  6  0  0  0
 26 41  1  0  0  0  0
 27 42  1  0  0  0  0
 27 43  1  0  0  0  0
 28 30  1  0  0  0  0
 29 46  1  0  0  0  0
 30 31  2  0  0  0  0
 32 47  1  0  0  0  0
 33 34  1  0  0  0  0
 33 49  1  0  0  0  0
 33 50  1  0  0  0  0
 34 35  2  0  0  0  0
 34 52  1  0  0  0  0
 35 36  1  0  0  0  0
 35 37  1  0  0  0  0
 36 54  1  0  0  0  0
 36 55  1  0  0  0  0
 37 56  1  0  0  0  0
 37 57  1  0  0  0  0
 37 58  1  0  0  0  0
M  END
> <PUBCHEM_COMPOUND_CID>
24892782

> <PUBCHEM_COMPOUND_CANONICALIZED>
1

> <PUBCHEM_CACTVS_COMPLEXITY>
969

> <PUBCHEM_CACTVS_HBOND_ACCEPTOR>
18

> <PUBCHEM_CACTVS_HBOND_DONOR>
8

> <PUBCHEM_CACTVS_ROTATABLE_BOND>
12

> <PUBCHEM_CACTVS_SUBSKEYS>
AAADceBzvAMAAAAAAAAAAAAAAAAAAWJAAAAsAAAAAAAAAFgB+AAAHgAQCCAADBzhlwYH8L/MFxCgQyZjZICAgC0REKABWKAoVBCDXAJAyUAeVAgPEALTECDwMAIAAAAAAAAAAAAAAAAAAAAAAAAAAAAAAA==

> <PUBCHEM_IUPAC_OPENEYE_NAME>
[[(2R,3S,4R,5R)-3,4-dihydroxy-5-[6-[[(E)-4-hydroxy-3-methyl-but-2-enyl]amino]purin-9-yl]tetrahydrofuran-2-yl]methoxy-hydroxy-phosphoryl] phosphono hydrogen phosphate

> <PUBCHEM_IUPAC_CAS_NAME>
[[(2R,3S,4R,5R)-3,4-dihydroxy-5-[6-[[(E)-4-hydroxy-3-methylbut-2-enyl]amino]-9-purinyl]-2-oxolanyl]methoxy-hydroxyphosphoryl] phosphono hydrogen phosphate

> <PUBCHEM_IUPAC_NAME>
[[(2R,3S,4R,5R)-3,4-dihydroxy-5-[6-[[(E)-4-hydroxy-3-methylbut-2-enyl]amino]purin-9-yl]oxolan-2-yl]methoxy-hydroxyphosphoryl] phosphono hydrogen phosphate

> <PUBCHEM_IUPAC_SYSTEMATIC_NAME>
[[(2R,3S,4R,5R)-5-[6-[[(E)-3-methyl-4-oxidanyl-but-2-enyl]amino]purin-9-yl]-3,4-bis(oxidanyl)oxolan-2-yl]methoxy-oxidanyl-phosphoryl] phosphono hydrogen phosphate

> <PUBCHEM_IUPAC_TRADITIONAL_NAME>
[[(2R,3S,4R,5R)-3,4-dihydroxy-5-[6-[[(E)-4-hydroxy-3-methyl-but-2-enyl]amino]purin-9-yl]tetrahydrofuran-2-yl]methoxy-hydroxy-phosphoryl] phosphono hydrogen phosphate

> <PUBCHEM_IUPAC_INCHI>
InChI=1S/C15H24N5O14P3/c1-8(4-21)2-3-16-13-10-14(18-6-17-13)20(7-19-10)15-12(23)11(22)9(32-15)5-31-36(27,28)34-37(29,30)33-35(24,25)26/h2,6-7,9,11-12,15,21-23H,3-5H2,1H3,(H,27,28)(H,29,30)(H,16,17,18)(H2,24,25,26)/b8-2+/t9-,11-,12-,15-/m1/s1

> <PUBCHEM_IUPAC_INCHIKEY>
AOFQQLZNDSBFLN-HNNGNKQASA-N

> <PUBCHEM_XLOGP3>
-4.8

> <PUBCHEM_EXACT_MASS>
591.05326

> <PUBCHEM_MOLECULAR_FORMULA>
C15H24N5O14P3

> <PUBCHEM_MOLECULAR_WEIGHT>
591.297446

> <PUBCHEM_OPENEYE_CAN_SMILES>
CC(=CCNC1=NC=NC2=C1N=CN2C3C(C(C(O3)COP(=O)(O)OP(=O)(O)OP(=O)(O)O)O)O)CO

> <PUBCHEM_OPENEYE_ISO_SMILES>
C/C(=C\CNC1=NC=NC2=C1N=CN2[C@H]3[C@@H]([C@@H]([C@H](O3)COP(=O)(O)OP(=O)(O)OP(=O)(O)O)O)O)/CO

> <PUBCHEM_CACTVS_TPSA>
285

> <PUBCHEM_MONOISOTOPIC_WEIGHT>
591.05326

> <PUBCHEM_TOTAL_CHARGE>
0

> <PUBCHEM_HEAVY_ATOM_COUNT>
37

> <PUBCHEM_ATOM_DEF_STEREO_COUNT>
4

> <PUBCHEM_ATOM_UDEF_STEREO_COUNT>
0

> <PUBCHEM_BOND_DEF_STEREO_COUNT>
1

> <PUBCHEM_BOND_UDEF_STEREO_COUNT>
0

> <PUBCHEM_ISOTOPIC_ATOM_COUNT>
0

> <PUBCHEM_COMPONENT_COUNT>
1

> <PUBCHEM_CACTVS_TAUTO_COUNT>
3

> <PUBCHEM_COORDINATE_TYPE>
1
5
255

> <PUBCHEM_BONDANNOTATIONS>
25  18  6
18  28  8
18  29  8
19  29  8
19  30  8
20  28  8
20  32  8
21  31  8
21  32  8
26  27  6
28  30  8
30  31  8
23  5  5
24  6  5

$$$$

