10765
  -OEChem-06261204563D

 18 18  0     0  0  0  0  0  0999 V2000
    1.1799    1.0632   -1.5836 O   0  0  0  0  0  0  0  0  0  0  0  0
    3.9174   -0.6231    0.9406 O   0  0  0  0  0  0  0  0  0  0  0  0
    3.2010   -0.0684    0.1029 N   0  0  0  0  0  0  0  0  0  0  0  0
   -0.4969    0.1062   -0.1655 C   0  0  0  0  0  0  0  0  0  0  0  0
   -1.1729    1.0247    0.6376 C   0  0  0  0  0  0  0  0  0  0  0  0
   -1.1762   -0.9923   -0.6921 C   0  0  0  0  0  0  0  0  0  0  0  0
    0.9163    0.2944   -0.4543 C   0  0  0  0  0  0  0  0  0  0  0  0
   -2.5282    0.8446    0.9142 C   0  0  0  0  0  0  0  0  0  0  0  0
   -2.5315   -1.1724   -0.4157 C   0  0  0  0  0  0  0  0  0  0  0  0
   -3.2075   -0.2538    0.3874 C   0  0  0  0  0  0  0  0  0  0  0  0
    1.8986   -0.2230    0.3286 C   0  0  0  0  0  0  0  0  0  0  0  0
   -0.6579    1.8866    1.0551 H   0  0  0  0  0  0  0  0  0  0  0  0
   -0.6637   -1.7169   -1.3205 H   0  0  0  0  0  0  0  0  0  0  0  0
   -3.0547    1.5598    1.5394 H   0  0  0  0  0  0  0  0  0  0  0  0
   -3.0606   -2.0276   -0.8259 H   0  0  0  0  0  0  0  0  0  0  0  0
   -4.2628   -0.3940    0.6026 H   0  0  0  0  0  0  0  0  0  0  0  0
    1.5999   -0.8062    1.1996 H   0  0  0  0  0  0  0  0  0  0  0  0
    2.1410    1.1429   -1.6992 H   0  0  0  0  0  0  0  0  0  0  0  0
  1  7  1  0  0  0  0
  1 18  1  0  0  0  0
  2  3  2  0  0  0  0
  3 11  1  0  0  0  0
  4  5  2  0  0  0  0
  4  6  1  0  0  0  0
  4  7  1  0  0  0  0
  5  8  1  0  0  0  0
  5 12  1  0  0  0  0
  6  9  2  0  0  0  0
  6 13  1  0  0  0  0
  7 11  2  0  0  0  0
  8 10  2  0  0  0  0
  8 14  1  0  0  0  0
  9 10  1  0  0  0  0
  9 15  1  0  0  0  0
 10 16  1  0  0  0  0
 11 17  1  0  0  0  0
M  END
> <PUBCHEM_COMPOUND_CID>
10765

> <PUBCHEM_CONFORMER_RMSD>
0.4

> <PUBCHEM_CONFORMER_DIVERSEORDER>
1
2
3

> <PUBCHEM_MMFF94_PARTIAL_CHARGES>
18
1 -0.53
10 -0.15
11 0.14
12 0.15
13 0.15
14 0.15
15 0.15
16 0.15
17 0.15
18 0.45
2 -0.16
3 -0.13
4 0.03
5 -0.15
6 -0.15
7 0.05
8 -0.15
9 -0.15

> <PUBCHEM_EFFECTIVE_ROTOR_COUNT>
2

> <PUBCHEM_PHARMACOPHORE_FEATURES>
2
1 1 donor
6 4 5 6 8 9 10 rings

> <PUBCHEM_HEAVY_ATOM_COUNT>
11

> <PUBCHEM_ATOM_DEF_STEREO_COUNT>
0

> <PUBCHEM_ATOM_UDEF_STEREO_COUNT>
0

> <PUBCHEM_BOND_DEF_STEREO_COUNT>
0

> <PUBCHEM_BOND_UDEF_STEREO_COUNT>
1

> <PUBCHEM_ISOTOPIC_ATOM_COUNT>
0

> <PUBCHEM_COMPONENT_COUNT>
1

> <PUBCHEM_CACTVS_TAUTO_COUNT>
4

> <PUBCHEM_CONFORMER_ID>
00002A0D00000001

> <PUBCHEM_MMFF94_ENERGY>
28.5754

> <PUBCHEM_FEATURE_SELFOVERLAP>
10.148

> <PUBCHEM_SHAPE_FINGERPRINT>
10857977 72 17458339706891768129
12932764 1 18343579629475282420
13024252 1 15913329117646747373
15219456 202 16226317205262672260
16945 1 17968078812493537613
20281407 28 15051728698817730360
20361792 2 17632581556502626214
20645464 45 16732977635267363935
20653085 51 5038292592047032091
20871998 184 17241046492401758087
21040471 1 17896859132183789309
21061003 4 16917345965405473068
23402539 116 17313397729396135221
23552423 10 17832419805085688093
2748010 2 17753864398128126677
369184 2 17530964700421815163
75552 356 18113338596031129675
77492 1 18342448214671994268

> <PUBCHEM_SHAPE_MULTIPOLES>
209.66
5.48
1.16
1.02
3.68
0
0.36
0.03
-1.97
-1.01
-0.06
0.68
-0.01
-0.03

> <PUBCHEM_SHAPE_SELFOVERLAP>
436.505

> <PUBCHEM_SHAPE_VOLUME>
118.9

> <PUBCHEM_COORDINATE_TYPE>
2
5
10

$$$$

