443144
  -OEChem-07051213013D

 25 25  0     1  0  0  0  0  0999 V2000
    2.3174    0.3950   -1.2249 O   0  0  0  0  0  0  0  0  0  0  0  0
   -1.5802   -0.6720    0.2868 N   0  0  1  0  0  0  0  0  0  0  0  0
   -0.3237   -0.1160   -0.2344 C   0  0  1  0  0  0  0  0  0  0  0  0
   -0.4404    1.3687    0.1170 C   0  0  0  0  0  0  0  0  0  0  0  0
   -1.9368    1.6405    0.2266 C   0  0  0  0  0  0  0  0  0  0  0  0
   -2.6056    0.3097   -0.0748 C   0  0  0  0  0  0  0  0  0  0  0  0
    0.9184   -0.7469    0.3818 C   0  0  0  0  0  0  0  0  0  0  0  0
   -1.8930   -1.9921   -0.2474 C   0  0  0  0  0  0  0  0  0  0  0  0
    2.1990   -0.0987   -0.1045 C   0  0  0  0  0  0  0  0  0  0  0  0
    3.3451   -0.0884    0.8736 C   0  0  0  0  0  0  0  0  0  0  0  0
   -0.2901   -0.2110   -1.3293 H   0  0  0  0  0  0  0  0  0  0  0  0
    0.0148    1.9978   -0.6557 H   0  0  0  0  0  0  0  0  0  0  0  0
    0.0431    1.6114    1.0711 H   0  0  0  0  0  0  0  0  0  0  0  0
   -2.1787    1.9744    1.2425 H   0  0  0  0  0  0  0  0  0  0  0  0
   -2.2606    2.4212   -0.4691 H   0  0  0  0  0  0  0  0  0  0  0  0
   -3.5235    0.1802    0.5075 H   0  0  0  0  0  0  0  0  0  0  0  0
   -2.8590    0.2571   -1.1416 H   0  0  0  0  0  0  0  0  0  0  0  0
    0.9870   -1.8127    0.1382 H   0  0  0  0  0  0  0  0  0  0  0  0
    0.8780   -0.6599    1.4746 H   0  0  0  0  0  0  0  0  0  0  0  0
   -2.8603   -2.3368    0.1351 H   0  0  0  0  0  0  0  0  0  0  0  0
   -1.1510   -2.7300    0.0736 H   0  0  0  0  0  0  0  0  0  0  0  0
   -1.9362   -2.0005   -1.3424 H   0  0  0  0  0  0  0  0  0  0  0  0
    3.5746   -1.1122    1.1794 H   0  0  0  0  0  0  0  0  0  0  0  0
    4.2307    0.3437    0.3993 H   0  0  0  0  0  0  0  0  0  0  0  0
    3.0787    0.5163    1.7440 H   0  0  0  0  0  0  0  0  0  0  0  0
  1  9  2  0  0  0  0
  2  3  1  0  0  0  0
  2  6  1  0  0  0  0
  2  8  1  0  0  0  0
  3  4  1  0  0  0  0
  3  7  1  0  0  0  0
  3 11  1  0  0  0  0
  4  5  1  0  0  0  0
  4 12  1  0  0  0  0
  4 13  1  0  0  0  0
  5  6  1  0  0  0  0
  5 14  1  0  0  0  0
  5 15  1  0  0  0  0
  6 16  1  0  0  0  0
  6 17  1  0  0  0  0
  7  9  1  0  0  0  0
  7 18  1  0  0  0  0
  7 19  1  0  0  0  0
  8 20  1  0  0  0  0
  8 21  1  0  0  0  0
  8 22  1  0  0  0  0
  9 10  1  0  0  0  0
 10 23  1  0  0  0  0
 10 24  1  0  0  0  0
 10 25  1  0  0  0  0
M  END
> <PUBCHEM_COMPOUND_CID>
443144

> <PUBCHEM_CONFORMER_RMSD>
0.6

> <PUBCHEM_CONFORMER_DIVERSEORDER>
1
17
13
10
18
5
6
15
3
16
14
7
9
8
4
12
2
11

> <PUBCHEM_MMFF94_PARTIAL_CHARGES>
8
1 -0.57
10 0.06
2 -0.81
3 0.27
6 0.27
7 0.06
8 0.27
9 0.45

> <PUBCHEM_EFFECTIVE_ROTOR_COUNT>
3

> <PUBCHEM_PHARMACOPHORE_FEATURES>
3
1 1 acceptor
1 2 cation
5 2 3 4 5 6 rings

> <PUBCHEM_HEAVY_ATOM_COUNT>
10

> <PUBCHEM_ATOM_DEF_STEREO_COUNT>
1

> <PUBCHEM_ATOM_UDEF_STEREO_COUNT>
0

> <PUBCHEM_BOND_DEF_STEREO_COUNT>
0

> <PUBCHEM_BOND_UDEF_STEREO_COUNT>
0

> <PUBCHEM_ISOTOPIC_ATOM_COUNT>
0

> <PUBCHEM_COMPONENT_COUNT>
1

> <PUBCHEM_CACTVS_TAUTO_COUNT>
3

> <PUBCHEM_CONFORMER_ID>
0006C30800000001

> <PUBCHEM_MMFF94_ENERGY>
11.8885

> <PUBCHEM_FEATURE_SELFOVERLAP>
15.223

> <PUBCHEM_SHAPE_FINGERPRINT>
10857977 72 18188779348650781842
12716758 59 18261668289411913126
12897270 3 18408036299609048934
12932741 1 17530959198568657116
12932764 1 18413383233382001712
13024252 1 15482670208345518089
14390081 3 18187650257572883616
16945 1 18408598171546868745
20645464 45 17822015336593724850
20871998 184 18187082819600372591
21040471 1 18265330797056423409
23402539 116 18261692440387448365
23552423 10 17984134864439794373
2748010 2 18048604724666007645
29004967 10 16443060591167391954
3248919 1 18343301483140294150
369184 2 18410860979192850776
5084963 1 17632304458092230738
6333449 129 18261399952866612121
75552 356 18410298007859480008

> <PUBCHEM_SHAPE_MULTIPOLES>
194.94
4.51
1.62
0.83
2.77
0.25
0.1
-0.03
-0.38
-1.42
-0.02
0.49
-0.04
-0.23

> <PUBCHEM_SHAPE_SELFOVERLAP>
378.587

> <PUBCHEM_SHAPE_VOLUME>
120.5

> <PUBCHEM_COORDINATE_TYPE>
2
5
10

$$$$

