29307
  -OEChem-07051213053D

 36 37  0     0  0  0  0  0  0999 V2000
    2.6455    0.5710   -2.4381 S   0  0  0  0  0  0  0  0  0  0  0  0
    2.7246    0.2128   -0.5234 P   0  0  0  0  0  0  0  0  0  0  0  0
    1.7703   -0.9731    0.0365 O   0  0  0  0  0  0  0  0  0  0  0  0
    2.3559    1.4406    0.4783 O   0  0  0  0  0  0  0  0  0  0  0  0
    4.1733   -0.2446    0.0616 O   0  0  0  0  0  0  0  0  0  0  0  0
   -1.5075   -1.8389    0.6012 O   0  0  0  0  0  0  0  0  0  0  0  0
   -0.1445   -2.1075    0.6327 N   0  0  0  0  0  0  0  0  0  0  0  0
   -1.7081   -0.5983    0.0875 C   0  0  0  0  0  0  0  0  0  0  0  0
   -3.0761   -0.1781   -0.0066 C   0  0  0  0  0  0  0  0  0  0  0  0
    0.4191   -1.0127    0.1347 C   0  0  0  0  0  0  0  0  0  0  0  0
   -0.5025   -0.0290   -0.2266 C   0  0  0  0  0  0  0  0  0  0  0  0
    2.9949    2.6957    0.3180 C   0  0  0  0  0  0  0  0  0  0  0  0
    4.7203   -1.4984   -0.3109 C   0  0  0  0  0  0  0  0  0  0  0  0
   -3.3922    1.0843   -0.5207 C   0  0  0  0  0  0  0  0  0  0  0  0
   -4.1063   -1.0257    0.4151 C   0  0  0  0  0  0  0  0  0  0  0  0
   -4.7224    1.4941   -0.6117 C   0  0  0  0  0  0  0  0  0  0  0  0
   -5.4365   -0.6157    0.3239 C   0  0  0  0  0  0  0  0  0  0  0  0
    2.4744    3.6517    1.3701 C   0  0  0  0  0  0  0  0  0  0  0  0
    6.0621   -1.6723    0.3680 C   0  0  0  0  0  0  0  0  0  0  0  0
   -5.7445    0.6442   -0.1894 C   0  0  0  0  0  0  0  0  0  0  0  0
   -0.3230    0.9487   -0.6486 H   0  0  0  0  0  0  0  0  0  0  0  0
    4.0766    2.5666    0.4230 H   0  0  0  0  0  0  0  0  0  0  0  0
    2.7796    3.0970   -0.6762 H   0  0  0  0  0  0  0  0  0  0  0  0
    4.0402   -2.2991   -0.0049 H   0  0  0  0  0  0  0  0  0  0  0  0
    4.8444   -1.5365   -1.3971 H   0  0  0  0  0  0  0  0  0  0  0  0
   -2.6184    1.7695   -0.8579 H   0  0  0  0  0  0  0  0  0  0  0  0
   -3.9071   -2.0146    0.8208 H   0  0  0  0  0  0  0  0  0  0  0  0
    2.9478    4.6329    1.2753 H   0  0  0  0  0  0  0  0  0  0  0  0
    1.3897    3.7719    1.2790 H   0  0  0  0  0  0  0  0  0  0  0  0
    2.6679    3.2615    2.3748 H   0  0  0  0  0  0  0  0  0  0  0  0
    6.5133   -2.6323    0.1020 H   0  0  0  0  0  0  0  0  0  0  0  0
    6.7469   -0.8679    0.0800 H   0  0  0  0  0  0  0  0  0  0  0  0
    5.9527   -1.6226    1.4564 H   0  0  0  0  0  0  0  0  0  0  0  0
   -4.9627    2.4750   -1.0114 H   0  0  0  0  0  0  0  0  0  0  0  0
   -6.2329   -1.2771    0.6526 H   0  0  0  0  0  0  0  0  0  0  0  0
   -6.7802    0.9633   -0.2603 H   0  0  0  0  0  0  0  0  0  0  0  0
  1  2  2  0  0  0  0
  2  3  1  0  0  0  0
  2  4  1  0  0  0  0
  2  5  1  0  0  0  0
  3 10  1  0  0  0  0
  4 12  1  0  0  0  0
  5 13  1  0  0  0  0
  6  7  1  0  0  0  0
  6  8  1  0  0  0  0
  7 10  2  0  0  0  0
  8  9  1  0  0  0  0
  8 11  2  0  0  0  0
  9 14  2  0  0  0  0
  9 15  1  0  0  0  0
 10 11  1  0  0  0  0
 11 21  1  0  0  0  0
 12 18  1  0  0  0  0
 12 22  1  0  0  0  0
 12 23  1  0  0  0  0
 13 19  1  0  0  0  0
 13 24  1  0  0  0  0
 13 25  1  0  0  0  0
 14 16  1  0  0  0  0
 14 26  1  0  0  0  0
 15 17  2  0  0  0  0
 15 27  1  0  0  0  0
 16 20  2  0  0  0  0
 16 34  1  0  0  0  0
 17 20  1  0  0  0  0
 17 35  1  0  0  0  0
 18 28  1  0  0  0  0
 18 29  1  0  0  0  0
 18 30  1  0  0  0  0
 19 31  1  0  0  0  0
 19 32  1  0  0  0  0
 19 33  1  0  0  0  0
 20 36  1  0  0  0  0
M  END
> <PUBCHEM_COMPOUND_CID>
29307

> <PUBCHEM_CONFORMER_RMSD>
0.8

> <PUBCHEM_CONFORMER_DIVERSEORDER>
1
5
50
26
51
15
52
4
46
28
53
3
7
23
65
47
2
56
12
30
31
11
61
33
69
71
24
38
60
10
16
62
27
64
58
34
75
9
70
20
49
29
25
22
18
21
55
32
59
8
57
72
39
13
35
67
63
41
74
19
36
66
14
48
68
43
77
37
17
54
6
45
42
76
40
44
73

> <PUBCHEM_MMFF94_PARTIAL_CHARGES>
24
1 -0.68
10 0.35
11 -0.15
12 0.28
13 0.28
14 -0.15
15 -0.15
16 -0.15
17 -0.15
2 1.49
20 -0.15
21 0.15
26 0.15
27 0.15
3 -0.33
34 0.15
35 0.15
36 0.15
4 -0.55
5 -0.55
6 -0.02
7 -0.41
8 0.09
9 0.05

> <PUBCHEM_EFFECTIVE_ROTOR_COUNT>
7

> <PUBCHEM_PHARMACOPHORE_FEATURES>
2
5 6 7 8 10 11 rings
6 9 14 15 16 17 20 rings

> <PUBCHEM_HEAVY_ATOM_COUNT>
20

> <PUBCHEM_ATOM_DEF_STEREO_COUNT>
0

> <PUBCHEM_ATOM_UDEF_STEREO_COUNT>
0

> <PUBCHEM_BOND_DEF_STEREO_COUNT>
0

> <PUBCHEM_BOND_UDEF_STEREO_COUNT>
0

> <PUBCHEM_ISOTOPIC_ATOM_COUNT>
0

> <PUBCHEM_COMPONENT_COUNT>
1

> <PUBCHEM_CACTVS_TAUTO_COUNT>
1

> <PUBCHEM_CONFORMER_ID>
0000727B00000001

> <PUBCHEM_MMFF94_ENERGY>
23.8138

> <PUBCHEM_FEATURE_SELFOVERLAP>
10.149

> <PUBCHEM_SHAPE_FINGERPRINT>
10366900 7 13039183697636689365
10763959 59 16917354765930776039
11089746 13 18408892858270178693
11405975 8 18334856078408499379
12166972 35 18271802445409914236
12403259 415 18130796659095549245
12516196 113 18334577971551259858
12549972 3 18129372709985637024
12596602 18 14907886164161980605
12616971 3 17894632530937903341
13081056 2 18411982438594152081
14251764 18 18060420223037711078
14466204 15 18266745860168976144
15196674 1 18413107234562667301
15295992 7 18340764858064313594
17844677 252 18260822692578188713
17980427 23 16661230056780942972
18006028 8 18335140947337788526
18186145 218 18188197737338772329
18335252 114 18263936599707846437
192875 21 17967247611557025720
19433438 28 18201717341167513395
20369508 70 18334853914224724662
20832881 197 18340487858986967754
21033648 29 17845670199868736317
21033650 10 14129873921984825115
21279426 13 18268432523874886764
212847 35 18343860013688334636
21315763 129 18334859428899708461
21452121 103 18336836286218553248
21503847 285 16486967384667526372
21521721 280 11311757498346940734
21524375 3 18272085019903696131
21709351 56 18334022696039739247
22224240 67 11167645565671366710
23227448 37 18190463753715727733
23402539 116 18409453600299511351
23558518 356 17913772709053712090
23559900 14 18335143081097758370
3004659 81 18130782409074763694
3286 77 18411135840210245012
345986 75 17842297031903111194
34797466 226 17749662996963695605
350125 39 18201719595503383868
351380 180 18408605859485516149
3545911 37 18131068273228066687
495365 180 17822293414615522128
5104073 3 18339919316933354067
633830 44 18335147470886481765
7808743 9 17840861872296221588
8509985 295 18410858772196865112
9981440 41 17614295368468659456

> <PUBCHEM_SHAPE_MULTIPOLES>
390.83
13.11
2.74
1.2
4.51
2.52
0.73
-1.63
0.04
-3.28
-1.32
-1.13
0.54
1.07

> <PUBCHEM_SHAPE_SELFOVERLAP>
782.437

> <PUBCHEM_SHAPE_VOLUME>
233.1

> <PUBCHEM_COORDINATE_TYPE>
2
5
10

$$$$

