220338
  -OEChem-07051212563D

 52 54  0     1  0  0  0  0  0999 V2000
    3.6805   -1.0046    1.6527 O   0  0  0  0  0  0  0  0  0  0  0  0
    4.5880   -1.7101   -0.3158 O   0  0  0  0  0  0  0  0  0  0  0  0
    0.3810    0.8458   -0.0171 C   0  0  1  0  0  0  0  0  0  0  0  0
    1.4556   -0.2993    0.1046 C   0  0  2  0  0  0  0  0  0  0  0  0
   -0.9008    0.3735    0.7873 C   0  0  2  0  0  0  0  0  0  0  0  0
    2.9184    0.0605   -0.3157 C   0  0  2  0  0  0  0  0  0  0  0  0
    0.9512    2.1386    0.6193 C   0  0  0  0  0  0  0  0  0  0  0  0
    0.9245   -1.6057   -0.5225 C   0  0  0  0  0  0  0  0  0  0  0  0
   -1.3972   -0.9835    0.3022 C   0  0  0  0  0  0  0  0  0  0  0  0
    3.3407    1.4142    0.2955 C   0  0  0  0  0  0  0  0  0  0  0  0
    2.3234    2.5262    0.0759 C   0  0  0  0  0  0  0  0  0  0  0  0
   -2.0170    1.4439    0.8470 C   0  0  0  0  0  0  0  0  0  0  0  0
   -0.3571   -2.0686    0.1716 C   0  0  0  0  0  0  0  0  0  0  0  0
   -0.0094    1.1453   -1.4888 C   0  0  0  0  0  0  0  0  0  0  0  0
   -3.3626    0.8500    1.2601 C   0  0  0  0  0  0  0  0  0  0  0  0
   -3.8220   -0.2647    0.2935 C   0  0  1  0  0  0  0  0  0  0  0  0
    3.2148    0.0382   -1.8226 C   0  0  0  0  0  0  0  0  0  0  0  0
   -2.6934   -1.2425    0.0495 C   0  0  0  0  0  0  0  0  0  0  0  0
    3.8272   -0.9831    0.3054 C   0  0  0  0  0  0  0  0  0  0  0  0
   -5.0034   -1.0126    0.9381 C   0  0  0  0  0  0  0  0  0  0  0  0
   -4.2845    0.3252   -1.0156 C   0  0  0  0  0  0  0  0  0  0  0  0
   -3.7578    0.0134   -2.2047 C   0  0  0  0  0  0  0  0  0  0  0  0
    1.4965   -0.4999    1.1864 H   0  0  0  0  0  0  0  0  0  0  0  0
   -0.5911    0.2104    1.8315 H   0  0  0  0  0  0  0  0  0  0  0  0
    1.0318    2.0071    1.7066 H   0  0  0  0  0  0  0  0  0  0  0  0
    0.2663    2.9804    0.4610 H   0  0  0  0  0  0  0  0  0  0  0  0
    1.6677   -2.4059   -0.4275 H   0  0  0  0  0  0  0  0  0  0  0  0
    0.7412   -1.4831   -1.5953 H   0  0  0  0  0  0  0  0  0  0  0  0
    4.3104    1.7274   -0.1138 H   0  0  0  0  0  0  0  0  0  0  0  0
    3.4988    1.3329    1.3787 H   0  0  0  0  0  0  0  0  0  0  0  0
    2.6678    3.4319    0.5897 H   0  0  0  0  0  0  0  0  0  0  0  0
    2.2612    2.7836   -0.9865 H   0  0  0  0  0  0  0  0  0  0  0  0
   -2.1467    1.9540   -0.1109 H   0  0  0  0  0  0  0  0  0  0  0  0
   -1.7376    2.2198    1.5701 H   0  0  0  0  0  0  0  0  0  0  0  0
   -0.1043   -2.4161    1.1819 H   0  0  0  0  0  0  0  0  0  0  0  0
   -0.7532   -2.9392   -0.3652 H   0  0  0  0  0  0  0  0  0  0  0  0
    0.8479    1.3810   -2.1146 H   0  0  0  0  0  0  0  0  0  0  0  0
   -0.5343    0.3119   -1.9631 H   0  0  0  0  0  0  0  0  0  0  0  0
   -0.6638    2.0195   -1.5628 H   0  0  0  0  0  0  0  0  0  0  0  0
   -3.2684    0.4518    2.2801 H   0  0  0  0  0  0  0  0  0  0  0  0
   -4.1118    1.6509    1.3123 H   0  0  0  0  0  0  0  0  0  0  0  0
    4.2913    0.1338   -2.0163 H   0  0  0  0  0  0  0  0  0  0  0  0
    2.8940   -0.8970   -2.2928 H   0  0  0  0  0  0  0  0  0  0  0  0
    2.7495    0.8647   -2.3593 H   0  0  0  0  0  0  0  0  0  0  0  0
   -2.9698   -2.2355   -0.3030 H   0  0  0  0  0  0  0  0  0  0  0  0
   -5.8319   -0.3299    1.1629 H   0  0  0  0  0  0  0  0  0  0  0  0
   -5.3947   -1.7975    0.2788 H   0  0  0  0  0  0  0  0  0  0  0  0
   -4.7072   -1.4926    1.8787 H   0  0  0  0  0  0  0  0  0  0  0  0
   -5.0953    1.0497   -0.9846 H   0  0  0  0  0  0  0  0  0  0  0  0
    4.2591   -1.6756    2.0735 H   0  0  0  0  0  0  0  0  0  0  0  0
   -4.1529    0.4899   -3.0973 H   0  0  0  0  0  0  0  0  0  0  0  0
   -2.9524   -0.6921   -2.3625 H   0  0  0  0  0  0  0  0  0  0  0  0
  1 19  1  0  0  0  0
  1 50  1  0  0  0  0
  2 19  2  0  0  0  0
  3  4  1  0  0  0  0
  3  5  1  0  0  0  0
  3  7  1  0  0  0  0
  3 14  1  0  0  0  0
  4  6  1  0  0  0  0
  4  8  1  0  0  0  0
  4 23  1  0  0  0  0
  5  9  1  0  0  0  0
  5 12  1  0  0  0  0
  5 24  1  0  0  0  0
  6 10  1  0  0  0  0
  6 17  1  0  0  0  0
  6 19  1  0  0  0  0
  7 11  1  0  0  0  0
  7 25  1  0  0  0  0
  7 26  1  0  0  0  0
  8 13  1  0  0  0  0
  8 27  1  0  0  0  0
  8 28  1  0  0  0  0
  9 13  1  0  0  0  0
  9 18  2  0  0  0  0
 10 11  1  0  0  0  0
 10 29  1  0  0  0  0
 10 30  1  0  0  0  0
 11 31  1  0  0  0  0
 11 32  1  0  0  0  0
 12 15  1  0  0  0  0
 12 33  1  0  0  0  0
 12 34  1  0  0  0  0
 13 35  1  0  0  0  0
 13 36  1  0  0  0  0
 14 37  1  0  0  0  0
 14 38  1  0  0  0  0
 14 39  1  0  0  0  0
 15 16  1  0  0  0  0
 15 40  1  0  0  0  0
 15 41  1  0  0  0  0
 16 18  1  0  0  0  0
 16 20  1  0  0  0  0
 16 21  1  0  0  0  0
 17 42  1  0  0  0  0
 17 43  1  0  0  0  0
 17 44  1  0  0  0  0
 18 45  1  0  0  0  0
 20 46  1  0  0  0  0
 20 47  1  0  0  0  0
 20 48  1  0  0  0  0
 21 22  2  0  0  0  0
 21 49  1  0  0  0  0
 22 51  1  0  0  0  0
 22 52  1  0  0  0  0
M  END
> <PUBCHEM_COMPOUND_CID>
220338

> <PUBCHEM_CONFORMER_RMSD>
0.6

> <PUBCHEM_CONFORMER_DIVERSEORDER>
1
2
3

> <PUBCHEM_MMFF94_PARTIAL_CHARGES>
16
1 -0.65
13 0.14
16 0.28
18 -0.29
19 0.66
2 -0.57
21 -0.29
22 -0.3
45 0.15
49 0.15
5 0.14
50 0.5
51 0.15
52 0.15
6 0.06
9 -0.28

> <PUBCHEM_EFFECTIVE_ROTOR_COUNT>
3.8

> <PUBCHEM_PHARMACOPHORE_FEATURES>
7
1 1 acceptor
1 2 acceptor
1 22 hydrophobe
3 1 2 19 anion
6 3 4 5 8 9 13 rings
6 3 4 6 7 10 11 rings
6 5 9 12 15 16 18 rings

> <PUBCHEM_HEAVY_ATOM_COUNT>
22

> <PUBCHEM_ATOM_DEF_STEREO_COUNT>
5

> <PUBCHEM_ATOM_UDEF_STEREO_COUNT>
0

> <PUBCHEM_BOND_DEF_STEREO_COUNT>
0

> <PUBCHEM_BOND_UDEF_STEREO_COUNT>
0

> <PUBCHEM_ISOTOPIC_ATOM_COUNT>
0

> <PUBCHEM_COMPONENT_COUNT>
1

> <PUBCHEM_CACTVS_TAUTO_COUNT>
1

> <PUBCHEM_CONFORMER_ID>
00035CB200000001

> <PUBCHEM_MMFF94_ENERGY>
69.9652

> <PUBCHEM_FEATURE_SELFOVERLAP>
35.609

> <PUBCHEM_SHAPE_FINGERPRINT>
10062212 137 17968095339422230193
10863032 1 18191023413128153017
10967382 1 18335696083753915248
11578080 2 18059871562129722028
12011746 2 18408317775013086100
12236239 1 18060131064253608130
12403259 226 18412546522034174993
12403259 415 18130788945386883493
12403260 363 18408045125740663369
12553582 1 18335692871054885720
12616971 3 17894347774521749647
12633257 1 18335411400557856433
12788726 201 17968642896023673608
13134695 92 18335145267057127604
13140716 1 18263361387121687083
13224815 77 17748825189876533457
13583140 156 17846503582437599459
13675066 3 17846501396125139571
14178342 30 17970900296221076488
14289901 80 16443059499902755553
14787075 74 17241060807432478880
15196674 1 18408598154467226649
15442244 35 18335696156952956168
15536298 74 18260260815786316760
15788980 27 17531247279247247449
15848700 24 18261395580938032014
15848702 151 17968653933920461726
16752209 62 18269839877288903984
16945 1 18336259115248229603
17349148 13 18259705605369334851
17357779 13 18271254914193913661
17492 89 18263642866309566366
1813 80 17917137416682292286
18186145 218 18409727327075754165
18222031 100 18261965132145651170
192875 21 18186526500928607249
200 152 18040724670953674709
20028762 73 18113900420962635215
20645477 70 18412260614846016986
21033648 29 17846226535625217069
21267235 1 18335968835573134274
23184049 59 18412262817858252178
23402539 116 18187649162319124306
23493267 7 16343706568713603645
23557571 272 15647323156873436009
23559900 14 18261108539699536464
2748010 2 18048307856220631059
296302 2 16660364753255032331
3286 77 18412262848171124972
335352 9 18336822104151833765
34934 24 18263081007836188816
5104073 3 18335130973774621921
5281201 14 17489587844327465661
633830 44 18187353329535879061
7495541 125 18130217169143813235
9709674 26 18190452766593584078
9981440 41 17471583126790801160

> <PUBCHEM_SHAPE_MULTIPOLES>
441.01
8.83
2.11
1.47
2.6
0.38
0.64
-1.9
0.04
-1.38
-0.32
0.64
0.1
-0.02

> <PUBCHEM_SHAPE_SELFOVERLAP>
929.086

> <PUBCHEM_SHAPE_VOLUME>
244.2

> <PUBCHEM_COORDINATE_TYPE>
2
5
10

$$$$

