94318
  -OEChem-07051212483D

 15 14  0     1  0  0  0  0  0999 V2000
   -1.2018    1.0609   -0.8056 O   0  0  0  0  0  0  0  0  0  0  0  0
    2.2733   -0.7085   -0.5385 O   0  0  0  0  0  0  0  0  0  0  0  0
    1.4317    1.0374    0.6459 O   0  0  0  0  0  0  0  0  0  0  0  0
   -1.2198    0.1145    0.2613 C   0  0  2  0  0  0  0  0  0  0  0  0
   -0.0198   -0.8166    0.1164 C   0  0  0  0  0  0  0  0  0  0  0  0
   -2.5472   -0.6282    0.1982 C   0  0  0  0  0  0  0  0  0  0  0  0
    1.2836   -0.0594    0.1223 C   0  0  0  0  0  0  0  0  0  0  0  0
   -1.1592    0.6770    1.1994 H   0  0  0  0  0  0  0  0  0  0  0  0
   -0.0876   -1.3483   -0.8407 H   0  0  0  0  0  0  0  0  0  0  0  0
    0.0049   -1.5519    0.9271 H   0  0  0  0  0  0  0  0  0  0  0  0
   -3.3832    0.0761    0.2693 H   0  0  0  0  0  0  0  0  0  0  0  0
   -2.6603   -1.1560   -0.7553 H   0  0  0  0  0  0  0  0  0  0  0  0
   -2.6319   -1.3547    1.0118 H   0  0  0  0  0  0  0  0  0  0  0  0
   -1.2564    0.5708   -1.6439 H   0  0  0  0  0  0  0  0  0  0  0  0
    3.1111   -0.1982   -0.5366 H   0  0  0  0  0  0  0  0  0  0  0  0
  1  4  1  0  0  0  0
  1 14  1  0  0  0  0
  2  7  1  0  0  0  0
  2 15  1  0  0  0  0
  3  7  2  0  0  0  0
  4  5  1  0  0  0  0
  4  6  1  0  0  0  0
  4  8  1  0  0  0  0
  5  7  1  0  0  0  0
  5  9  1  0  0  0  0
  5 10  1  0  0  0  0
  6 11  1  0  0  0  0
  6 12  1  0  0  0  0
  6 13  1  0  0  0  0
M  END
> <PUBCHEM_COMPOUND_CID>
94318

> <PUBCHEM_CONFORMER_RMSD>
0.4

> <PUBCHEM_CONFORMER_DIVERSEORDER>
1
6
3
9
5
7
4
8
2

> <PUBCHEM_MMFF94_PARTIAL_CHARGES>
8
1 -0.68
14 0.4
15 0.5
2 -0.65
3 -0.57
4 0.28
5 0.06
7 0.66

> <PUBCHEM_EFFECTIVE_ROTOR_COUNT>
2

> <PUBCHEM_PHARMACOPHORE_FEATURES>
5
1 1 acceptor
1 1 donor
1 2 acceptor
1 3 acceptor
3 2 3 7 anion

> <PUBCHEM_HEAVY_ATOM_COUNT>
7

> <PUBCHEM_ATOM_DEF_STEREO_COUNT>
1

> <PUBCHEM_ATOM_UDEF_STEREO_COUNT>
0

> <PUBCHEM_BOND_DEF_STEREO_COUNT>
0

> <PUBCHEM_BOND_UDEF_STEREO_COUNT>
0

> <PUBCHEM_ISOTOPIC_ATOM_COUNT>
0

> <PUBCHEM_COMPONENT_COUNT>
1

> <PUBCHEM_CACTVS_TAUTO_COUNT>
1

> <PUBCHEM_CONFORMER_ID>
0001706E00000001

> <PUBCHEM_MMFF94_ENERGY>
5.3594

> <PUBCHEM_FEATURE_SELFOVERLAP>
25.431

> <PUBCHEM_SHAPE_FINGERPRINT>
10857977 72 18059014952281600427
16714656 1 18201993326701486823
20096714 4 18333735697444668906
21040471 1 17699584832884358893
24536 1 17894925039173861843
29004967 10 17676765465545532058
5084963 1 18342735225829842331
5460574 1 9511464407149162954

> <PUBCHEM_SHAPE_MULTIPOLES>
126.45
3.14
1.06
0.75
0.4
0.13
0.02
-0.49
0.07
-0.03
0.06
-0.03
0.1
0.37

> <PUBCHEM_SHAPE_SELFOVERLAP>
231.233

> <PUBCHEM_SHAPE_VOLUME>
80.7

> <PUBCHEM_COORDINATE_TYPE>
2
5
10

$$$$

