440414
  -OEChem-07051212492D

 19 19  0     1  0  0  0  0  0999 V2000
    3.7690    1.0000    0.0000 O   0  0  0  0  0  0  0  0  0  0  0  0
    2.5369    0.1340    0.0000 O   0  0  0  0  0  0  0  0  0  0  0  0
    5.7690    1.0000    0.0000 O   0  0  0  0  0  0  0  0  0  0  0  0
    4.2690    1.8660    0.0000 O   0  0  0  0  0  0  0  0  0  0  0  0
    4.2690    0.1340    0.0000 C   0  0  3  0  0  0  0  0  0  0  0  0
    3.4030   -0.3660    0.0000 C   0  0  3  0  0  0  0  0  0  0  0  0
    5.1350   -0.3660    0.0000 C   0  0  0  0  0  0  0  0  0  0  0  0
    3.4030   -1.3660    0.0000 C   0  0  0  0  0  0  0  0  0  0  0  0
    4.7690    1.0000    0.0000 C   0  0  0  0  0  0  0  0  0  0  0  0
    5.1350   -1.3660    0.0000 C   0  0  0  0  0  0  0  0  0  0  0  0
    4.2690   -1.8660    0.0000 C   0  0  0  0  0  0  0  0  0  0  0  0
    3.4030    0.4840    0.0000 H   0  0  0  0  0  0  0  0  0  0  0  0
    5.6720   -0.0560    0.0000 H   0  0  0  0  0  0  0  0  0  0  0  0
    2.8660   -1.6760    0.0000 H   0  0  0  0  0  0  0  0  0  0  0  0
    5.6720   -1.6760    0.0000 H   0  0  0  0  0  0  0  0  0  0  0  0
    4.2690   -2.4860    0.0000 H   0  0  0  0  0  0  0  0  0  0  0  0
    3.1490    1.0000    0.0000 H   0  0  0  0  0  0  0  0  0  0  0  0
    2.0000   -0.1760    0.0000 H   0  0  0  0  0  0  0  0  0  0  0  0
    6.0790    1.5369    0.0000 H   0  0  0  0  0  0  0  0  0  0  0  0
  1  5  1  0  0  0  0
  1 17  1  0  0  0  0
  2  6  1  0  0  0  0
  2 18  1  0  0  0  0
  3  9  1  0  0  0  0
  3 19  1  0  0  0  0
  4  9  2  0  0  0  0
  5  6  1  0  0  0  0
  5  7  1  0  0  0  0
  5  9  1  0  0  0  0
  6  8  1  0  0  0  0
  6 12  1  0  0  0  0
  7 10  2  0  0  0  0
  7 13  1  0  0  0  0
  8 11  2  0  0  0  0
  8 14  1  0  0  0  0
 10 11  1  0  0  0  0
 10 15  1  0  0  0  0
 11 16  1  0  0  0  0
M  END
> <PUBCHEM_COMPOUND_CID>
440414

> <PUBCHEM_COMPOUND_CANONICALIZED>
1

> <PUBCHEM_CACTVS_COMPLEXITY>
231

> <PUBCHEM_CACTVS_HBOND_ACCEPTOR>
4

> <PUBCHEM_CACTVS_HBOND_DONOR>
3

> <PUBCHEM_CACTVS_ROTATABLE_BOND>
1

> <PUBCHEM_CACTVS_SUBSKEYS>
AAADccBgOAAAAAAAAAAAAAAAAAAAAAAAAAAgAAAAAAAAAAAAAAAAGgAACAAADFSggAIACAAAAgCIACDSCAIAAAAgAAAICAFAAAgJFBQAAQAAUAAF4AAJkAIAAAAIAAAAAAAAAAAAAAAAAAAAAAAAAAAAAA==

> <PUBCHEM_IUPAC_OPENEYE_NAME>
1,6-dihydroxycyclohexa-2,4-diene-1-carboxylic acid

> <PUBCHEM_IUPAC_CAS_NAME>
1,6-dihydroxy-1-cyclohexa-2,4-dienecarboxylic acid

> <PUBCHEM_IUPAC_NAME>
1,6-dihydroxycyclohexa-2,4-diene-1-carboxylic acid

> <PUBCHEM_IUPAC_SYSTEMATIC_NAME>
1,6-bis(oxidanyl)cyclohexa-2,4-diene-1-carboxylic acid

> <PUBCHEM_IUPAC_TRADITIONAL_NAME>
1,6-dihydroxycyclohexa-2,4-diene-1-carboxylic acid

> <PUBCHEM_IUPAC_INCHI>
InChI=1S/C7H8O4/c8-5-3-1-2-4-7(5,11)6(9)10/h1-5,8,11H,(H,9,10)

> <PUBCHEM_IUPAC_INCHIKEY>
PUCYIVFXTPWJDD-UHFFFAOYSA-N

> <PUBCHEM_XLOGP3_AA>
0.1

> <PUBCHEM_EXACT_MASS>
156.042259

> <PUBCHEM_MOLECULAR_FORMULA>
C7H8O4

> <PUBCHEM_MOLECULAR_WEIGHT>
156.13602

> <PUBCHEM_OPENEYE_CAN_SMILES>
C1=CC(C(C=C1)(C(=O)O)O)O

> <PUBCHEM_OPENEYE_ISO_SMILES>
C1=CC(C(C=C1)(C(=O)O)O)O

> <PUBCHEM_CACTVS_TPSA>
77.8

> <PUBCHEM_MONOISOTOPIC_WEIGHT>
156.042259

> <PUBCHEM_TOTAL_CHARGE>
0

> <PUBCHEM_HEAVY_ATOM_COUNT>
11

> <PUBCHEM_ATOM_DEF_STEREO_COUNT>
0

> <PUBCHEM_ATOM_UDEF_STEREO_COUNT>
2

> <PUBCHEM_BOND_DEF_STEREO_COUNT>
0

> <PUBCHEM_BOND_UDEF_STEREO_COUNT>
0

> <PUBCHEM_ISOTOPIC_ATOM_COUNT>
0

> <PUBCHEM_COMPONENT_COUNT>
1

> <PUBCHEM_CACTVS_TAUTO_COUNT>
1

> <PUBCHEM_COORDINATE_TYPE>
1
5
255

> <PUBCHEM_BONDANNOTATIONS>
5  9  3
6  12  3

$$$$

