164609
  -OEChem-07051213032D

 50 54  0     1  0  0  0  0  0999 V2000
    7.9916    2.2407    0.0000 O   0  0  0  0  0  0  0  0  0  0  0  0
    2.6079    0.4025    0.0000 O   0  0  0  0  0  0  0  0  0  0  0  0
    2.6079    2.0790    0.0000 O   0  0  0  0  0  0  0  0  0  0  0  0
    8.9752   -2.3574    0.0000 O   0  0  0  0  0  0  0  0  0  0  0  0
   10.7866   -1.3116    0.0000 O   0  0  0  0  0  0  0  0  0  0  0  0
    6.2435   -0.8008    0.0000 N   0  0  3  0  0  0  0  0  0  0  0  0
    7.1256    0.7407    0.0000 C   0  0  2  0  0  0  0  0  0  0  0  0
    6.2596    0.2407    0.0000 C   0  0  1  0  0  0  0  0  0  0  0  0
    7.1256    1.7408    0.0000 C   0  0  2  0  0  0  0  0  0  0  0  0
    5.3935    0.7407    0.0000 C   0  0  0  0  0  0  0  0  0  0  0  0
    8.0356    0.2339    0.0000 C   0  0  0  0  0  0  0  0  0  0  0  0
    6.2596    2.2407    0.0000 C   0  0  0  0  0  0  0  0  0  0  0  0
    5.3935    1.7408    0.0000 C   0  0  0  0  0  0  0  0  0  0  0  0
    7.1415   -1.3285    0.0000 C   0  0  0  0  0  0  0  0  0  0  0  0
    8.0436   -0.8077    0.0000 C   0  0  0  0  0  0  0  0  0  0  0  0
    4.4996    0.2061    0.0000 C   0  0  0  0  0  0  0  0  0  0  0  0
    5.3717   -1.2907    0.0000 C   0  0  0  0  0  0  0  0  0  0  0  0
    8.9624    0.7980    0.0000 C   0  0  0  0  0  0  0  0  0  0  0  0
    4.4996    2.2754    0.0000 C   0  0  0  0  0  0  0  0  0  0  0  0
    8.9790   -1.3574    0.0000 C   0  0  0  0  0  0  0  0  0  0  0  0
    3.5935    0.7199    0.0000 C   0  0  0  0  0  0  0  0  0  0  0  0
    3.5935    1.7616    0.0000 C   0  0  0  0  0  0  0  0  0  0  0  0
    9.9103    0.2700    0.0000 C   0  0  0  0  0  0  0  0  0  0  0  0
    9.9187   -0.8149    0.0000 C   0  0  0  0  0  0  0  0  0  0  0  0
    2.0000    1.2408    0.0000 C   0  0  0  0  0  0  0  0  0  0  0  0
    9.8393   -2.8608    0.0000 C   0  0  0  0  0  0  0  0  0  0  0  0
   11.6507   -0.8082    0.0000 C   0  0  0  0  0  0  0  0  0  0  0  0
    7.8584    1.1714    0.0000 H   0  0  0  0  0  0  0  0  0  0  0  0
    5.5202   -0.1786    0.0000 H   0  0  0  0  0  0  0  0  0  0  0  0
    7.1256    2.3608    0.0000 H   0  0  0  0  0  0  0  0  0  0  0  0
    6.6581    2.7157    0.0000 H   0  0  0  0  0  0  0  0  0  0  0  0
    5.8610    2.7157    0.0000 H   0  0  0  0  0  0  0  0  0  0  0  0
    6.7406   -1.8014    0.0000 H   0  0  0  0  0  0  0  0  0  0  0  0
    7.5388   -1.8045    0.0000 H   0  0  0  0  0  0  0  0  0  0  0  0
    4.5068   -0.4139    0.0000 H   0  0  0  0  0  0  0  0  0  0  0  0
    5.0680   -0.7502    0.0000 H   0  0  0  0  0  0  0  0  0  0  0  0
    4.8313   -1.5945    0.0000 H   0  0  0  0  0  0  0  0  0  0  0  0
    5.6755   -1.8312    0.0000 H   0  0  0  0  0  0  0  0  0  0  0  0
    8.9505    1.4179    0.0000 H   0  0  0  0  0  0  0  0  0  0  0  0
    4.5068    2.8954    0.0000 H   0  0  0  0  0  0  0  0  0  0  0  0
    7.9916    2.8608    0.0000 H   0  0  0  0  0  0  0  0  0  0  0  0
   10.4436    0.5862    0.0000 H   0  0  0  0  0  0  0  0  0  0  0  0
    1.5391    1.6555    0.0000 H   0  0  0  0  0  0  0  0  0  0  0  0
    1.5391    0.8260    0.0000 H   0  0  0  0  0  0  0  0  0  0  0  0
    9.5272   -3.3965    0.0000 H   0  0  0  0  0  0  0  0  0  0  0  0
   10.3750   -3.1728    0.0000 H   0  0  0  0  0  0  0  0  0  0  0  0
   10.1513   -2.3250    0.0000 H   0  0  0  0  0  0  0  0  0  0  0  0
   11.9628   -1.3440    0.0000 H   0  0  0  0  0  0  0  0  0  0  0  0
   12.1864   -0.4962    0.0000 H   0  0  0  0  0  0  0  0  0  0  0  0
   11.3386   -0.2725    0.0000 H   0  0  0  0  0  0  0  0  0  0  0  0
  9  1  1  6  0  0  0
  1 41  1  0  0  0  0
  2 21  1  0  0  0  0
  2 25  1  0  0  0  0
  3 22  1  0  0  0  0
  3 25  1  0  0  0  0
  4 20  1  0  0  0  0
  4 26  1  0  0  0  0
  5 24  1  0  0  0  0
  5 27  1  0  0  0  0
  6  8  1  0  0  0  0
  6 14  1  0  0  0  0
  6 17  1  0  0  0  0
  7  8  1  0  0  0  0
  7  9  1  0  0  0  0
  7 11  1  0  0  0  0
  7 28  1  1  0  0  0
  8 10  1  0  0  0  0
  8 29  1  1  0  0  0
  9 12  1  0  0  0  0
  9 30  1  0  0  0  0
 10 13  1  0  0  0  0
 10 16  2  0  0  0  0
 11 15  2  0  0  0  0
 11 18  1  0  0  0  0
 12 13  1  0  0  0  0
 12 31  1  0  0  0  0
 12 32  1  0  0  0  0
 13 19  2  0  0  0  0
 14 15  1  0  0  0  0
 14 33  1  0  0  0  0
 14 34  1  0  0  0  0
 15 20  1  0  0  0  0
 16 21  1  0  0  0  0
 16 35  1  0  0  0  0
 17 36  1  0  0  0  0
 17 37  1  0  0  0  0
 17 38  1  0  0  0  0
 18 23  2  0  0  0  0
 18 39  1  0  0  0  0
 19 22  1  0  0  0  0
 19 40  1  0  0  0  0
 20 24  2  0  0  0  0
 21 22  2  0  0  0  0
 23 24  1  0  0  0  0
 23 42  1  0  0  0  0
 25 43  1  0  0  0  0
 25 44  1  0  0  0  0
 26 45  1  0  0  0  0
 26 46  1  0  0  0  0
 26 47  1  0  0  0  0
 27 48  1  0  0  0  0
 27 49  1  0  0  0  0
 27 50  1  0  0  0  0
M  END
> <PUBCHEM_COMPOUND_CID>
164609

> <PUBCHEM_COMPOUND_CANONICALIZED>
1

> <PUBCHEM_CACTVS_COMPLEXITY>
547

> <PUBCHEM_CACTVS_HBOND_ACCEPTOR>
6

> <PUBCHEM_CACTVS_HBOND_DONOR>
1

> <PUBCHEM_CACTVS_ROTATABLE_BOND>
2

> <PUBCHEM_CACTVS_SUBSKEYS>
AAADceB6OAAAAAAAAAAAAAAAAAAAASAAAAA8YMEAAAAAAEjxQAAAHgAACAAADTzhmAcyDoMABgCAAiBCAACCCAAgIAAIiAAOjIgdNiKEsRukcCpmwBGOqAew8P8OoAABAAAYQADAAAaEADSAAAAAAAAAAA==

> <PUBCHEM_IUPAC_OPENEYE_NAME>
(4bR,5S,11bS)-1,2-dimethoxy-12-methyl-5,6,11b,13-tetrahydro-4bH-[1,3]benzodioxolo[5,6-c]phenanthridin-5-ol

> <PUBCHEM_IUPAC_CAS_NAME>
(4bR,5S,11bS)-1,2-dimethoxy-12-methyl-5,6,11b,13-tetrahydro-4bH-[1,3]benzodioxolo[5,6-c]phenanthridin-5-ol

> <PUBCHEM_IUPAC_NAME>
(4bR,5S,11bS)-1,2-dimethoxy-12-methyl-5,6,11b,13-tetrahydro-4bH-[1,3]benzodioxolo[5,6-c]phenanthridin-5-ol

> <PUBCHEM_IUPAC_SYSTEMATIC_NAME>
(4bR,5S,11bS)-1,2-dimethoxy-12-methyl-5,6,11b,13-tetrahydro-4bH-[1,3]benzodioxolo[5,6-c]phenanthridin-5-ol

> <PUBCHEM_IUPAC_TRADITIONAL_NAME>
(4bR,5S,11bS)-1,2-dimethoxy-12-methyl-5,6,11b,13-tetrahydro-4bH-[1,3]benzodioxolo[5,6-c]phenanthridin-5-ol

> <PUBCHEM_IUPAC_INCHI>
InChI=1S/C21H23NO5/c1-22-9-14-12(4-5-16(24-2)21(14)25-3)19-15(23)6-11-7-17-18(27-10-26-17)8-13(11)20(19)22/h4-5,7-8,15,19-20,23H,6,9-10H2,1-3H3/t15-,19-,20+/m0/s1

> <PUBCHEM_IUPAC_INCHIKEY>
MADYLZJCRKUBIK-RYGJVYDSSA-N

> <PUBCHEM_XLOGP3_AA>
2.3

> <PUBCHEM_EXACT_MASS>
369.157623

> <PUBCHEM_MOLECULAR_FORMULA>
C21H23NO5

> <PUBCHEM_MOLECULAR_WEIGHT>
369.41102

> <PUBCHEM_OPENEYE_CAN_SMILES>
CN1CC2=C(C=CC(=C2OC)OC)C3C1C4=CC5=C(C=C4CC3O)OCO5

> <PUBCHEM_OPENEYE_ISO_SMILES>
CN1CC2=C(C=CC(=C2OC)OC)[C@@H]3[C@H]1C4=CC5=C(C=C4C[C@@H]3O)OCO5

> <PUBCHEM_CACTVS_TPSA>
60.4

> <PUBCHEM_MONOISOTOPIC_WEIGHT>
369.157623

> <PUBCHEM_TOTAL_CHARGE>
0

> <PUBCHEM_HEAVY_ATOM_COUNT>
27

> <PUBCHEM_ATOM_DEF_STEREO_COUNT>
3

> <PUBCHEM_ATOM_UDEF_STEREO_COUNT>
0

> <PUBCHEM_BOND_DEF_STEREO_COUNT>
0

> <PUBCHEM_BOND_UDEF_STEREO_COUNT>
0

> <PUBCHEM_ISOTOPIC_ATOM_COUNT>
0

> <PUBCHEM_COMPONENT_COUNT>
1

> <PUBCHEM_CACTVS_TAUTO_COUNT>
1

> <PUBCHEM_COORDINATE_TYPE>
1
5
255

> <PUBCHEM_BONDANNOTATIONS>
9  1  6
10  13  8
10  16  8
11  15  8
11  18  8
13  19  8
15  20  8
16  21  8
18  23  8
19  22  8
20  24  8
21  22  8
23  24  8
7  28  5
8  29  5

$$$$

