583208
  -OEChem-06241222442D

 37 39  0     0  0  0  0  0  0999 V2000
    6.2781    1.0683    0.0000 O   0  0  0  0  0  0  0  0  0  0  0  0
   10.8600    1.1489    0.0000 O   0  0  0  0  0  0  0  0  0  0  0  0
    4.6783   -1.0390    0.0000 N   0  0  0  0  0  0  0  0  0  0  0  0
    4.6783   -2.6484    0.0000 N   0  0  0  0  0  0  0  0  0  0  0  0
    4.9889   -0.0884    0.0000 C   0  0  0  0  0  0  0  0  0  0  0  0
    3.7320   -1.3437    0.0000 C   0  0  0  0  0  0  0  0  0  0  0  0
    5.9674    0.1178    0.0000 C   0  0  0  0  0  0  0  0  0  0  0  0
    3.7320   -2.3437    0.0000 C   0  0  0  0  0  0  0  0  0  0  0  0
    5.2619   -1.8437    0.0000 C   0  0  0  0  0  0  0  0  0  0  0  0
    2.8660   -0.8437    0.0000 C   0  0  0  0  0  0  0  0  0  0  0  0
    2.8660   -2.8437    0.0000 C   0  0  0  0  0  0  0  0  0  0  0  0
    2.0000   -1.3437    0.0000 C   0  0  0  0  0  0  0  0  0  0  0  0
    7.2566    1.2745    0.0000 C   0  0  0  0  0  0  0  0  0  0  0  0
    2.0000   -2.3437    0.0000 C   0  0  0  0  0  0  0  0  0  0  0  0
    7.9244    0.5302    0.0000 C   0  0  0  0  0  0  0  0  0  0  0  0
    7.5673    2.2250    0.0000 C   0  0  0  0  0  0  0  0  0  0  0  0
    9.2136    1.6870    0.0000 C   0  0  0  0  0  0  0  0  0  0  0  0
    8.9030    0.7364    0.0000 C   0  0  0  0  0  0  0  0  0  0  0  0
    8.5458    2.4313    0.0000 C   0  0  0  0  0  0  0  0  0  0  0  0
   10.1921    1.8932    0.0000 C   0  0  0  0  0  0  0  0  0  0  0  0
   10.5028    2.8437    0.0000 C   0  0  0  0  0  0  0  0  0  0  0  0
    4.9684    0.5312    0.0000 H   0  0  0  0  0  0  0  0  0  0  0  0
    4.3751   -0.0011    0.0000 H   0  0  0  0  0  0  0  0  0  0  0  0
    5.9880   -0.5019    0.0000 H   0  0  0  0  0  0  0  0  0  0  0  0
    6.5812    0.0304    0.0000 H   0  0  0  0  0  0  0  0  0  0  0  0
    5.8819   -1.8437    0.0000 H   0  0  0  0  0  0  0  0  0  0  0  0
    2.8660   -0.2237    0.0000 H   0  0  0  0  0  0  0  0  0  0  0  0
    2.8660   -3.4637    0.0000 H   0  0  0  0  0  0  0  0  0  0  0  0
    1.4631   -1.0337    0.0000 H   0  0  0  0  0  0  0  0  0  0  0  0
    1.4631   -2.6537    0.0000 H   0  0  0  0  0  0  0  0  0  0  0  0
    7.7318   -0.0591    0.0000 H   0  0  0  0  0  0  0  0  0  0  0  0
    7.1532    2.6865    0.0000 H   0  0  0  0  0  0  0  0  0  0  0  0
    9.3170    0.2750    0.0000 H   0  0  0  0  0  0  0  0  0  0  0  0
    8.7384    3.0206    0.0000 H   0  0  0  0  0  0  0  0  0  0  0  0
   11.0921    2.6511    0.0000 H   0  0  0  0  0  0  0  0  0  0  0  0
   10.6954    3.4330    0.0000 H   0  0  0  0  0  0  0  0  0  0  0  0
    9.9135    3.0363    0.0000 H   0  0  0  0  0  0  0  0  0  0  0  0
  1  7  1  0  0  0  0
  1 13  1  0  0  0  0
  2 20  2  0  0  0  0
  3  5  1  0  0  0  0
  3  6  1  0  0  0  0
  3  9  1  0  0  0  0
  4  8  1  0  0  0  0
  4  9  2  0  0  0  0
  5  7  1  0  0  0  0
  5 22  1  0  0  0  0
  5 23  1  0  0  0  0
  6  8  1  0  0  0  0
  6 10  2  0  0  0  0
  7 24  1  0  0  0  0
  7 25  1  0  0  0  0
  8 11  2  0  0  0  0
  9 26  1  0  0  0  0
 10 12  1  0  0  0  0
 10 27  1  0  0  0  0
 11 14  1  0  0  0  0
 11 28  1  0  0  0  0
 12 14  2  0  0  0  0
 12 29  1  0  0  0  0
 13 15  2  0  0  0  0
 13 16  1  0  0  0  0
 14 30  1  0  0  0  0
 15 18  1  0  0  0  0
 15 31  1  0  0  0  0
 16 19  2  0  0  0  0
 16 32  1  0  0  0  0
 17 18  2  0  0  0  0
 17 19  1  0  0  0  0
 17 20  1  0  0  0  0
 18 33  1  0  0  0  0
 19 34  1  0  0  0  0
 20 21  1  0  0  0  0
 21 35  1  0  0  0  0
 21 36  1  0  0  0  0
 21 37  1  0  0  0  0
M  END
> <PUBCHEM_COMPOUND_CID>
583208

> <PUBCHEM_COMPOUND_CANONICALIZED>
1

> <PUBCHEM_CACTVS_COMPLEXITY>
353

> <PUBCHEM_CACTVS_HBOND_ACCEPTOR>
3

> <PUBCHEM_CACTVS_HBOND_DONOR>
0

> <PUBCHEM_CACTVS_ROTATABLE_BOND>
5

> <PUBCHEM_CACTVS_SUBSKEYS>
AAADceB7MAAAAAAAAAAAAAAAAAAAAWAAAAAwYAAAAAAAAFgB9AAAHgAAAAAADAzhngY31rcMFACoA6RzZACCiC01MqAJ2CE+fNiObrLEvZuXOSjswBPY6aeYzIDOIAAAAAAAACBAAAAAAAAAQAAAAAAAAA==

> <PUBCHEM_IUPAC_OPENEYE_NAME>
1-[4-[2-(benzimidazol-1-yl)ethoxy]phenyl]ethanone

> <PUBCHEM_IUPAC_CAS_NAME>
1-[4-[2-(1-benzimidazolyl)ethoxy]phenyl]ethanone

> <PUBCHEM_IUPAC_NAME>
1-[4-[2-(benzimidazol-1-yl)ethoxy]phenyl]ethanone

> <PUBCHEM_IUPAC_SYSTEMATIC_NAME>
1-[4-[2-(benzimidazol-1-yl)ethoxy]phenyl]ethanone

> <PUBCHEM_IUPAC_TRADITIONAL_NAME>
1-[4-[2-(benzimidazol-1-yl)ethoxy]phenyl]ethanone

> <PUBCHEM_IUPAC_INCHI>
InChI=1S/C17H16N2O2/c1-13(20)14-6-8-15(9-7-14)21-11-10-19-12-18-16-4-2-3-5-17(16)19/h2-9,12H,10-11H2,1H3

> <PUBCHEM_IUPAC_INCHIKEY>
IBUUYWMZAVMCIT-UHFFFAOYSA-N

> <PUBCHEM_XLOGP3_AA>
2.7

> <PUBCHEM_EXACT_MASS>
280.121178

> <PUBCHEM_MOLECULAR_FORMULA>
C17H16N2O2

> <PUBCHEM_MOLECULAR_WEIGHT>
280.32114

> <PUBCHEM_OPENEYE_CAN_SMILES>
CC(=O)C1=CC=C(C=C1)OCCN2C=NC3=CC=CC=C32

> <PUBCHEM_OPENEYE_ISO_SMILES>
CC(=O)C1=CC=C(C=C1)OCCN2C=NC3=CC=CC=C32

> <PUBCHEM_CACTVS_TPSA>
44.1

> <PUBCHEM_MONOISOTOPIC_WEIGHT>
280.121178

> <PUBCHEM_TOTAL_CHARGE>
0

> <PUBCHEM_HEAVY_ATOM_COUNT>
21

> <PUBCHEM_ATOM_DEF_STEREO_COUNT>
0

> <PUBCHEM_ATOM_UDEF_STEREO_COUNT>
0

> <PUBCHEM_BOND_DEF_STEREO_COUNT>
0

> <PUBCHEM_BOND_UDEF_STEREO_COUNT>
0

> <PUBCHEM_ISOTOPIC_ATOM_COUNT>
0

> <PUBCHEM_COMPONENT_COUNT>
1

> <PUBCHEM_CACTVS_TAUTO_COUNT>
2

> <PUBCHEM_COORDINATE_TYPE>
1
5
255

> <PUBCHEM_BONDANNOTATIONS>
10  12  8
11  14  8
12  14  8
13  15  8
13  16  8
15  18  8
16  19  8
17  18  8
17  19  8
3  6  8
3  9  8
4  8  8
4  9  8
6  10  8
6  8  8
8  11  8

$$$$

