17395883
  -OEChem-06241222533D

 53 55  0     0  0  0  0  0  0999 V2000
    1.8986    1.6803    0.9460 O   0  0  0  0  0  0  0  0  0  0  0  0
    1.9195   -2.8689    0.2546 O   0  0  0  0  0  0  0  0  0  0  0  0
   -0.4403   -0.2355   -1.0748 O   0  0  0  0  0  0  0  0  0  0  0  0
    3.5159   -1.2085   -0.0979 N   0  0  0  0  0  0  0  0  0  0  0  0
    1.5324   -0.6112    0.7205 N   0  0  0  0  0  0  0  0  0  0  0  0
   -2.1141   -0.5807    0.5003 N   0  0  0  0  0  0  0  0  0  0  0  0
    3.6492    0.2256    0.0656 C   0  0  0  0  0  0  0  0  0  0  0  0
    4.7389    0.5781    1.0826 C   0  0  0  0  0  0  0  0  0  0  0  0
    3.8560    0.9294   -1.2790 C   0  0  0  0  0  0  0  0  0  0  0  0
    6.1434    0.3705    0.5167 C   0  0  0  0  0  0  0  0  0  0  0  0
    5.2670    0.7195   -1.8278 C   0  0  0  0  0  0  0  0  0  0  0  0
    6.3329    1.1064   -0.8066 C   0  0  0  0  0  0  0  0  0  0  0  0
    2.2629    0.5537    0.6320 C   0  0  0  0  0  0  0  0  0  0  0  0
    2.2688   -1.6963    0.2919 C   0  0  0  0  0  0  0  0  0  0  0  0
   -3.2520   -0.3783   -0.3775 C   0  0  0  0  0  0  0  0  0  0  0  0
   -4.3867   -1.3059    0.0660 C   0  0  0  0  0  0  0  0  0  0  0  0
   -3.5776    1.1199   -0.4575 C   0  0  0  0  0  0  0  0  0  0  0  0
    0.1729   -0.6945    1.2165 C   0  0  0  0  0  0  0  0  0  0  0  0
   -5.6015   -1.3737   -0.8558 C   0  0  0  0  0  0  0  0  0  0  0  0
   -4.3677    1.6849    0.7272 C   0  0  0  0  0  0  0  0  0  0  0  0
   -6.4450   -0.1101   -1.0240 C   0  0  0  0  0  0  0  0  0  0  0  0
   -5.8542    1.9167    0.4472 C   0  0  0  0  0  0  0  0  0  0  0  0
   -6.7217    0.6696    0.2613 C   0  0  0  0  0  0  0  0  0  0  0  0
   -0.7974   -0.4911    0.0724 C   0  0  0  0  0  0  0  0  0  0  0  0
    4.6248   -0.0172    1.9975 H   0  0  0  0  0  0  0  0  0  0  0  0
    4.6345    1.6285    1.3853 H   0  0  0  0  0  0  0  0  0  0  0  0
    3.6822    2.0072   -1.1611 H   0  0  0  0  0  0  0  0  0  0  0  0
    3.1235    0.5800   -2.0179 H   0  0  0  0  0  0  0  0  0  0  0  0
    6.8859    0.7225    1.2420 H   0  0  0  0  0  0  0  0  0  0  0  0
    6.3283   -0.7004    0.3695 H   0  0  0  0  0  0  0  0  0  0  0  0
    5.3979    1.3150   -2.7385 H   0  0  0  0  0  0  0  0  0  0  0  0
    5.3996   -0.3307   -2.1149 H   0  0  0  0  0  0  0  0  0  0  0  0
    6.2927    2.1884   -0.6305 H   0  0  0  0  0  0  0  0  0  0  0  0
    7.3271    0.8859   -1.2111 H   0  0  0  0  0  0  0  0  0  0  0  0
    4.2542   -1.8056   -0.4573 H   0  0  0  0  0  0  0  0  0  0  0  0
   -2.9323   -0.6913   -1.3801 H   0  0  0  0  0  0  0  0  0  0  0  0
   -4.6983   -1.0790    1.0917 H   0  0  0  0  0  0  0  0  0  0  0  0
   -3.9793   -2.3257    0.1263 H   0  0  0  0  0  0  0  0  0  0  0  0
   -4.0890    1.3431   -1.3991 H   0  0  0  0  0  0  0  0  0  0  0  0
   -2.6318    1.6759   -0.5226 H   0  0  0  0  0  0  0  0  0  0  0  0
    0.0041   -1.6812    1.6597 H   0  0  0  0  0  0  0  0  0  0  0  0
    0.0103    0.0877    1.9651 H   0  0  0  0  0  0  0  0  0  0  0  0
   -5.2861   -1.7187   -1.8484 H   0  0  0  0  0  0  0  0  0  0  0  0
   -6.2594   -2.1613   -0.4641 H   0  0  0  0  0  0  0  0  0  0  0  0
   -4.2354    1.0808    1.6312 H   0  0  0  0  0  0  0  0  0  0  0  0
   -3.9389    2.6676    0.9663 H   0  0  0  0  0  0  0  0  0  0  0  0
   -7.4105   -0.4321   -1.4382 H   0  0  0  0  0  0  0  0  0  0  0  0
   -6.0179    0.5385   -1.7951 H   0  0  0  0  0  0  0  0  0  0  0  0
   -5.9640    2.5722   -0.4260 H   0  0  0  0  0  0  0  0  0  0  0  0
   -6.2647    2.4789    1.2963 H   0  0  0  0  0  0  0  0  0  0  0  0
   -7.7617    1.0197    0.2130 H   0  0  0  0  0  0  0  0  0  0  0  0
   -6.6703    0.0250    1.1453 H   0  0  0  0  0  0  0  0  0  0  0  0
   -2.2976   -0.7267    1.4892 H   0  0  0  0  0  0  0  0  0  0  0  0
  1 13  2  0  0  0  0
  2 14  2  0  0  0  0
  3 24  2  0  0  0  0
  4  7  1  0  0  0  0
  4 14  1  0  0  0  0
  4 35  1  0  0  0  0
  5 13  1  0  0  0  0
  5 14  1  0  0  0  0
  5 18  1  0  0  0  0
  6 15  1  0  0  0  0
  6 24  1  0  0  0  0
  6 53  1  0  0  0  0
  7  8  1  0  0  0  0
  7  9  1  0  0  0  0
  7 13  1  0  0  0  0
  8 10  1  0  0  0  0
  8 25  1  0  0  0  0
  8 26  1  0  0  0  0
  9 11  1  0  0  0  0
  9 27  1  0  0  0  0
  9 28  1  0  0  0  0
 10 12  1  0  0  0  0
 10 29  1  0  0  0  0
 10 30  1  0  0  0  0
 11 12  1  0  0  0  0
 11 31  1  0  0  0  0
 11 32  1  0  0  0  0
 12 33  1  0  0  0  0
 12 34  1  0  0  0  0
 15 16  1  0  0  0  0
 15 17  1  0  0  0  0
 15 36  1  0  0  0  0
 16 19  1  0  0  0  0
 16 37  1  0  0  0  0
 16 38  1  0  0  0  0
 17 20  1  0  0  0  0
 17 39  1  0  0  0  0
 17 40  1  0  0  0  0
 18 24  1  0  0  0  0
 18 41  1  0  0  0  0
 18 42  1  0  0  0  0
 19 21  1  0  0  0  0
 19 43  1  0  0  0  0
 19 44  1  0  0  0  0
 20 22  1  0  0  0  0
 20 45  1  0  0  0  0
 20 46  1  0  0  0  0
 21 23  1  0  0  0  0
 21 47  1  0  0  0  0
 21 48  1  0  0  0  0
 22 23  1  0  0  0  0
 22 49  1  0  0  0  0
 22 50  1  0  0  0  0
 23 51  1  0  0  0  0
 23 52  1  0  0  0  0
M  END
> <PUBCHEM_COMPOUND_CID>
17395883

> <PUBCHEM_CONFORMER_RMSD>
1

> <PUBCHEM_CONFORMER_DIVERSEORDER>
1
48
28
27
29
74
58
26
53
82
66
77
39
10
80
59
24
85
79
12
32
6
33
49
11
31
50
42
84
65
7
40
14
2
70
36
83
67
60
13
76
57
30
8
63
78
54
56
23
75
37
52
86
45
43
35
81
20
18
9
61
55
21
47
68
46
17
19
41
4
22
73
51
71
16
25
38
62
5
3
34
64
72
15
44
69

> <PUBCHEM_MMFF94_PARTIAL_CHARGES>
14
1 -0.57
13 0.57
14 0.69
15 0.3
18 0.36
2 -0.57
24 0.57
3 -0.57
35 0.37
4 -0.73
5 -0.42
53 0.37
6 -0.73
7 0.36

> <PUBCHEM_EFFECTIVE_ROTOR_COUNT>
7

> <PUBCHEM_PHARMACOPHORE_FEATURES>
7
1 1 acceptor
1 2 acceptor
1 3 acceptor
1 4 donor
1 6 donor
5 4 5 7 13 14 rings
6 7 8 9 10 11 12 rings

> <PUBCHEM_HEAVY_ATOM_COUNT>
24

> <PUBCHEM_ATOM_DEF_STEREO_COUNT>
0

> <PUBCHEM_ATOM_UDEF_STEREO_COUNT>
0

> <PUBCHEM_BOND_DEF_STEREO_COUNT>
0

> <PUBCHEM_BOND_UDEF_STEREO_COUNT>
0

> <PUBCHEM_ISOTOPIC_ATOM_COUNT>
0

> <PUBCHEM_COMPONENT_COUNT>
1

> <PUBCHEM_CACTVS_TAUTO_COUNT>
4

> <PUBCHEM_CONFORMER_ID>
010970AB00000001

> <PUBCHEM_MMFF94_ENERGY>
41.4433

> <PUBCHEM_FEATURE_SELFOVERLAP>
35.526

> <PUBCHEM_SHAPE_FINGERPRINT>
10 15 13901903380416098044
10595046 47 18409732889491198459
106641 1 16128366052788870857
10906281 52 17846202359006030606
11045977 3 13901903393127179804
12107183 9 17614844450046372379
12166972 35 14634875223687784131
12236239 1 18335142007123734562
12516196 113 9007062361723406158
12616971 3 11383821663378623083
12730499 353 18343295989787731418
13631057 29 18058449808228353131
13668630 136 16081085953087391221
13685833 64 4967612793088964247
14251764 18 18342741814336191065
14528608 73 18410011018144839319
15183329 4 17749383793085713449
15301273 46 12391520789191451520
15788980 27 6627749981373184251
1601671 61 18412825794119872204
17844677 252 18040435452224971049
18335252 98 18271800208507575747
20281389 69 17988929972135159508
21150785 3 16950283992146777880
22061861 79 15574714703273170445
221357 26 18113901554532709985
22224240 67 16056878027222477113
23081809 10 18342182167465957987
23402655 69 18408324393030363274
23559900 14 18336274440313962809
29717793 49 16225760809635274288
300161 21 18341618139844834995
3004659 81 18335701714815242946
34797466 226 17385723556425401673
351380 3 6627753283680834525
3545911 37 18408606968009156329
4073 2 18201996616705036555
4325135 7 18202566176533244821
4340502 62 13326858829027563560
445580 37 18334568045090671445
465052 167 8070031073516490560
504579 68 18260840284959178797
5104073 3 18340490057773087395
542803 24 18202566172586436815
543368 44 18343018892052341733

> <PUBCHEM_SHAPE_MULTIPOLES>
461.36
18.48
1.87
1.22
8.92
0.52
-0.27
-6
-3.5
0.75
0.21
-0.95
-0.22
-1.29

> <PUBCHEM_SHAPE_SELFOVERLAP>
949.317

> <PUBCHEM_SHAPE_VOLUME>
262.7

> <PUBCHEM_COORDINATE_TYPE>
2
5
10

$$$$

