70278
  -OEChem-07051212523D

 20 20  0     0  0  0  0  0  0999 V2000
   -0.2034    2.0395   -0.2285 O   0  0  0  0  0  0  0  0  0  0  0  0
    2.4362    1.3353    0.2064 O   0  0  0  0  0  0  0  0  0  0  0  0
   -0.8239   -0.2698   -0.2662 C   0  0  0  0  0  0  0  0  0  0  0  0
   -2.2553    0.0846   -0.5013 C   0  0  0  0  0  0  0  0  0  0  0  0
    0.1462    0.7243   -0.1390 C   0  0  0  0  0  0  0  0  0  0  0  0
   -0.4618   -1.6137   -0.1738 C   0  0  0  0  0  0  0  0  0  0  0  0
   -3.0279    0.2579    0.8042 C   0  0  0  0  0  0  0  0  0  0  0  0
    1.4785    0.3746    0.0803 C   0  0  0  0  0  0  0  0  0  0  0  0
    0.8706   -1.9634    0.0454 C   0  0  0  0  0  0  0  0  0  0  0  0
    1.8408   -0.9693    0.1725 C   0  0  0  0  0  0  0  0  0  0  0  0
   -2.3570    0.9753   -1.1318 H   0  0  0  0  0  0  0  0  0  0  0  0
   -2.7339   -0.7145   -1.0834 H   0  0  0  0  0  0  0  0  0  0  0  0
   -1.2071   -2.3991   -0.2685 H   0  0  0  0  0  0  0  0  0  0  0  0
   -3.0062   -0.6594    1.4023 H   0  0  0  0  0  0  0  0  0  0  0  0
   -4.0744    0.4997    0.5931 H   0  0  0  0  0  0  0  0  0  0  0  0
   -2.6089    1.0657    1.4131 H   0  0  0  0  0  0  0  0  0  0  0  0
    1.1527   -3.0097    0.1178 H   0  0  0  0  0  0  0  0  0  0  0  0
    2.8769   -1.2484    0.3433 H   0  0  0  0  0  0  0  0  0  0  0  0
   -1.1512    2.1582   -0.0630 H   0  0  0  0  0  0  0  0  0  0  0  0
    2.0101    2.2054    0.1168 H   0  0  0  0  0  0  0  0  0  0  0  0
  1  5  1  0  0  0  0
  1 19  1  0  0  0  0
  2  8  1  0  0  0  0
  2 20  1  0  0  0  0
  3  4  1  0  0  0  0
  3  5  2  0  0  0  0
  3  6  1  0  0  0  0
  4  7  1  0  0  0  0
  4 11  1  0  0  0  0
  4 12  1  0  0  0  0
  5  8  1  0  0  0  0
  6  9  2  0  0  0  0
  6 13  1  0  0  0  0
  7 14  1  0  0  0  0
  7 15  1  0  0  0  0
  7 16  1  0  0  0  0
  8 10  2  0  0  0  0
  9 10  1  0  0  0  0
  9 17  1  0  0  0  0
 10 18  1  0  0  0  0
M  END
> <PUBCHEM_COMPOUND_CID>
70278

> <PUBCHEM_CONFORMER_RMSD>
0.4

> <PUBCHEM_CONFORMER_DIVERSEORDER>
2
1
3

> <PUBCHEM_MMFF94_PARTIAL_CHARGES>
14
1 -0.53
10 -0.15
13 0.15
17 0.15
18 0.15
19 0.45
2 -0.53
20 0.45
3 -0.14
4 0.14
5 0.08
6 -0.15
8 0.08
9 -0.15

> <PUBCHEM_EFFECTIVE_ROTOR_COUNT>
1

> <PUBCHEM_PHARMACOPHORE_FEATURES>
4
1 1 donor
1 2 donor
1 7 hydrophobe
6 3 5 6 8 9 10 rings

> <PUBCHEM_HEAVY_ATOM_COUNT>
10

> <PUBCHEM_ATOM_DEF_STEREO_COUNT>
0

> <PUBCHEM_ATOM_UDEF_STEREO_COUNT>
0

> <PUBCHEM_BOND_DEF_STEREO_COUNT>
0

> <PUBCHEM_BOND_UDEF_STEREO_COUNT>
0

> <PUBCHEM_ISOTOPIC_ATOM_COUNT>
0

> <PUBCHEM_COMPONENT_COUNT>
1

> <PUBCHEM_CACTVS_TAUTO_COUNT>
36

> <PUBCHEM_CONFORMER_ID>
0001128600000002

> <PUBCHEM_MMFF94_ENERGY>
22.4018

> <PUBCHEM_FEATURE_SELFOVERLAP>
20.302

> <PUBCHEM_SHAPE_FINGERPRINT>
10219947 1 18412541016149449377
12423570 1 9865762294083781910
161256 15 18265326390346053436
16945 1 18338242690117626974
18185500 45 18336276668806117607
193761 8 17906174306062815900
21040471 1 18266463113739377838
23235685 24 18410578340290643232
23552423 10 18127409170743490439
241688 4 17545603817177364290
2748010 2 18338797806129906198
29004967 10 18272647986920455003
5084963 1 18041572458358032627

> <PUBCHEM_SHAPE_MULTIPOLES>
194.06
3.33
1.9
0.72
1.7
0.02
0.03
-0.46
0.66
-0.81
-0.06
0.27
0.02
-0.01

> <PUBCHEM_SHAPE_SELFOVERLAP>
401.379

> <PUBCHEM_SHAPE_VOLUME>
111.8

> <PUBCHEM_COORDINATE_TYPE>
2
5
10

$$$$

