8427
  -OEChem-06261202493D

 22 22  0     1  0  0  0  0  0999 V2000
    1.0158    2.8332   -0.3776 Cl  0  0  0  0  0  0  0  0  0  0  0  0
    4.5557   -1.1453    0.4309 Cl  0  0  0  0  0  0  0  0  0  0  0  0
   -0.9781    0.5863   -0.5055 O   0  0  0  0  0  0  0  0  0  0  0  0
   -3.8852   -1.1046    0.7766 O   0  0  0  0  0  0  0  0  0  0  0  0
   -2.9966   -0.9940   -1.3091 O   0  0  0  0  0  0  0  0  0  0  0  0
   -1.9320    0.2374    0.4952 C   0  0  1  0  0  0  0  0  0  0  0  0
    0.3130    0.2070   -0.2888 C   0  0  0  0  0  0  0  0  0  0  0  0
   -2.5572    1.5199    1.0154 C   0  0  0  0  0  0  0  0  0  0  0  0
    1.3401    1.1473   -0.2069 C   0  0  0  0  0  0  0  0  0  0  0  0
    0.5980   -1.1511   -0.1478 C   0  0  0  0  0  0  0  0  0  0  0  0
   -2.9732   -0.6675   -0.1295 C   0  0  0  0  0  0  0  0  0  0  0  0
    2.6521    0.7293    0.0158 C   0  0  0  0  0  0  0  0  0  0  0  0
    1.9102   -1.5691    0.0747 C   0  0  0  0  0  0  0  0  0  0  0  0
    2.9372   -0.6288    0.1565 C   0  0  0  0  0  0  0  0  0  0  0  0
   -1.4672   -0.3048    1.3290 H   0  0  0  0  0  0  0  0  0  0  0  0
   -3.0492    2.0714    0.2061 H   0  0  0  0  0  0  0  0  0  0  0  0
   -1.7905    2.1818    1.4317 H   0  0  0  0  0  0  0  0  0  0  0  0
   -3.3024    1.3205    1.7916 H   0  0  0  0  0  0  0  0  0  0  0  0
   -0.1876   -1.8982   -0.2198 H   0  0  0  0  0  0  0  0  0  0  0  0
    3.4541    1.4618    0.0799 H   0  0  0  0  0  0  0  0  0  0  0  0
    2.1178   -2.6309    0.1800 H   0  0  0  0  0  0  0  0  0  0  0  0
   -4.5516   -1.6972    0.3679 H   0  0  0  0  0  0  0  0  0  0  0  0
  1  9  1  0  0  0  0
  2 14  1  0  0  0  0
  3  6  1  0  0  0  0
  3  7  1  0  0  0  0
  4 11  1  0  0  0  0
  4 22  1  0  0  0  0
  5 11  2  0  0  0  0
  6  8  1  0  0  0  0
  6 11  1  0  0  0  0
  6 15  1  0  0  0  0
  7  9  2  0  0  0  0
  7 10  1  0  0  0  0
  8 16  1  0  0  0  0
  8 17  1  0  0  0  0
  8 18  1  0  0  0  0
  9 12  1  0  0  0  0
 10 13  2  0  0  0  0
 10 19  1  0  0  0  0
 12 14  2  0  0  0  0
 12 20  1  0  0  0  0
 13 14  1  0  0  0  0
 13 21  1  0  0  0  0
M  END
> <PUBCHEM_COMPOUND_CID>
8427

> <PUBCHEM_CONFORMER_RMSD>
0.6

> <PUBCHEM_CONFORMER_DIVERSEORDER>
1
17
21
23
28
19
24
22
8
18
13
9
11
15
12
26
3
5
4
27
7
2
20
16
14
6
25
10

> <PUBCHEM_MMFF94_PARTIAL_CHARGES>
17
1 -0.18
10 -0.15
11 0.66
12 -0.15
13 -0.15
14 0.18
19 0.15
2 -0.18
20 0.15
21 0.15
22 0.5
3 -0.36
4 -0.65
5 -0.57
6 0.34
7 0.08
9 0.18

> <PUBCHEM_EFFECTIVE_ROTOR_COUNT>
3

> <PUBCHEM_PHARMACOPHORE_FEATURES>
5
1 3 acceptor
1 4 acceptor
1 5 acceptor
3 4 5 11 anion
6 7 9 10 12 13 14 rings

> <PUBCHEM_HEAVY_ATOM_COUNT>
14

> <PUBCHEM_ATOM_DEF_STEREO_COUNT>
0

> <PUBCHEM_ATOM_UDEF_STEREO_COUNT>
1

> <PUBCHEM_BOND_DEF_STEREO_COUNT>
0

> <PUBCHEM_BOND_UDEF_STEREO_COUNT>
0

> <PUBCHEM_ISOTOPIC_ATOM_COUNT>
0

> <PUBCHEM_COMPONENT_COUNT>
1

> <PUBCHEM_CACTVS_TAUTO_COUNT>
1

> <PUBCHEM_CONFORMER_ID>
000020EB00000001

> <PUBCHEM_MMFF94_ENERGY>
34.0946

> <PUBCHEM_FEATURE_SELFOVERLAP>
25.437

> <PUBCHEM_SHAPE_FINGERPRINT>
10219947 1 18412265030172578510
11132069 177 18262801907765136552
11543360 7 15338824357764064686
11806522 49 18410859819736485462
12032990 46 18412543249733169678
12251169 10 18335132150458627001
12382932 28 18191303981930113384
12696612 119 18409157818485933645
12932764 1 17821445733889033729
14144814 61 18410290315457021339
14252887 29 18260543459485014934
15375462 189 17988075724683017066
15375462 478 18040999556991721200
16945 1 18338795602679392180
19026448 4 14979948182126733174
193761 8 17836083369355385182
200 152 18260843587404075935
20559304 39 18335975372534386176
20645477 70 18270409278446968311
20671657 1 18267016151241018228
20711985 327 18411134757957523156
20871998 22 18263638631871992230
21501502 16 18341040869911558933
21501925 9 18410862061841113986
221490 88 18128248982952924418
2255824 54 18267859497865093228
22959321 4 18339922597992909803
23388829 49 18334018254795608949
23402539 116 18200879599291123762
26918003 58 18342175549243134411
2748010 2 18265057018777113126
305870 269 8214144040603721916
3286 77 18272930483967506775
34934 24 18125443256869622833
6992083 37 18191010395325430897
7364860 26 18265050237208777940
8809292 202 17988074496106618699

> <PUBCHEM_SHAPE_MULTIPOLES>
274.25
6.74
2.16
0.88
0.19
1.49
-0.02
-3.24
1.21
0.4
-0.13
-0.55
0
-0.62

> <PUBCHEM_SHAPE_SELFOVERLAP>
549.363

> <PUBCHEM_SHAPE_VOLUME>
163.7

> <PUBCHEM_COORDINATE_TYPE>
2
5
10

$$$$

