442708
  -OEChem-07051212592D

 37 39  0     0  0  0  0  0  0999 V2000
    3.7817    1.0104    0.0000 O   0  0  0  0  0  0  0  0  0  0  0  0
    6.4082    2.5450    0.0000 O   0  0  0  0  0  0  0  0  0  0  0  0
    2.0000   -2.0484    0.0000 O   0  0  0  0  0  0  0  0  0  0  0  0
    8.1821    1.5209    0.0000 O   0  0  0  0  0  0  0  0  0  0  0  0
    4.6641   -0.5242    0.0000 C   0  0  0  0  0  0  0  0  0  0  0  0
    5.5301   -0.0242    0.0000 C   0  0  0  0  0  0  0  0  0  0  0  0
    4.6641   -1.5242    0.0000 C   0  0  0  0  0  0  0  0  0  0  0  0
    6.3961   -0.5242    0.0000 C   0  0  0  0  0  0  0  0  0  0  0  0
    3.7702    0.0104    0.0000 C   0  0  0  0  0  0  0  0  0  0  0  0
    5.5301   -2.0242    0.0000 C   0  0  0  0  0  0  0  0  0  0  0  0
    6.3961   -1.5242    0.0000 C   0  0  0  0  0  0  0  0  0  0  0  0
    5.5141    1.0173    0.0000 C   0  0  0  0  0  0  0  0  0  0  0  0
    3.7702   -2.0589    0.0000 C   0  0  0  0  0  0  0  0  0  0  0  0
    7.3062   -0.0174    0.0000 C   0  0  0  0  0  0  0  0  0  0  0  0
    2.8641   -0.5034    0.0000 C   0  0  0  0  0  0  0  0  0  0  0  0
    6.4121    1.5450    0.0000 C   0  0  0  0  0  0  0  0  0  0  0  0
    2.8641   -1.5450    0.0000 C   0  0  0  0  0  0  0  0  0  0  0  0
    7.3142    1.0242    0.0000 C   0  0  0  0  0  0  0  0  0  0  0  0
    2.9215    1.5204    0.0000 C   0  0  0  0  0  0  0  0  0  0  0  0
    7.2723    3.0484    0.0000 C   0  0  0  0  0  0  0  0  0  0  0  0
    2.0038   -3.0484    0.0000 C   0  0  0  0  0  0  0  0  0  0  0  0
    5.5301   -2.6442    0.0000 H   0  0  0  0  0  0  0  0  0  0  0  0
    6.9331   -1.8342    0.0000 H   0  0  0  0  0  0  0  0  0  0  0  0
    4.9736    1.3210    0.0000 H   0  0  0  0  0  0  0  0  0  0  0  0
    3.7773   -2.6788    0.0000 H   0  0  0  0  0  0  0  0  0  0  0  0
    7.8395   -0.3336    0.0000 H   0  0  0  0  0  0  0  0  0  0  0  0
    2.3284   -0.1913    0.0000 H   0  0  0  0  0  0  0  0  0  0  0  0
    3.2377    2.0537    0.0000 H   0  0  0  0  0  0  0  0  0  0  0  0
    2.3882    1.8365    0.0000 H   0  0  0  0  0  0  0  0  0  0  0  0
    2.6054    0.9870    0.0000 H   0  0  0  0  0  0  0  0  0  0  0  0
    8.7179    1.2088    0.0000 H   0  0  0  0  0  0  0  0  0  0  0  0
    7.5844    2.5126    0.0000 H   0  0  0  0  0  0  0  0  0  0  0  0
    7.8081    3.3604    0.0000 H   0  0  0  0  0  0  0  0  0  0  0  0
    6.9603    3.5841    0.0000 H   0  0  0  0  0  0  0  0  0  0  0  0
    1.3839   -3.0508    0.0000 H   0  0  0  0  0  0  0  0  0  0  0  0
    2.0062   -3.6684    0.0000 H   0  0  0  0  0  0  0  0  0  0  0  0
    2.6238   -3.0460    0.0000 H   0  0  0  0  0  0  0  0  0  0  0  0
  1  9  1  0  0  0  0
  1 19  1  0  0  0  0
  2 16  1  0  0  0  0
  2 20  1  0  0  0  0
  3 17  1  0  0  0  0
  3 21  1  0  0  0  0
  4 18  1  0  0  0  0
  4 31  1  0  0  0  0
  5  6  1  0  0  0  0
  5  7  1  0  0  0  0
  5  9  2  0  0  0  0
  6  8  1  0  0  0  0
  6 12  2  0  0  0  0
  7 10  1  0  0  0  0
  7 13  2  0  0  0  0
  8 11  1  0  0  0  0
  8 14  2  0  0  0  0
  9 15  1  0  0  0  0
 10 11  2  0  0  0  0
 10 22  1  0  0  0  0
 11 23  1  0  0  0  0
 12 16  1  0  0  0  0
 12 24  1  0  0  0  0
 13 17  1  0  0  0  0
 13 25  1  0  0  0  0
 14 18  1  0  0  0  0
 14 26  1  0  0  0  0
 15 17  2  0  0  0  0
 15 27  1  0  0  0  0
 16 18  2  0  0  0  0
 19 28  1  0  0  0  0
 19 29  1  0  0  0  0
 19 30  1  0  0  0  0
 20 32  1  0  0  0  0
 20 33  1  0  0  0  0
 20 34  1  0  0  0  0
 21 35  1  0  0  0  0
 21 36  1  0  0  0  0
 21 37  1  0  0  0  0
M  END
> <PUBCHEM_COMPOUND_CID>
442708

> <PUBCHEM_COMPOUND_CANONICALIZED>
1

> <PUBCHEM_CACTVS_COMPLEXITY>
348

> <PUBCHEM_CACTVS_HBOND_ACCEPTOR>
4

> <PUBCHEM_CACTVS_HBOND_DONOR>
1

> <PUBCHEM_CACTVS_ROTATABLE_BOND>
3

> <PUBCHEM_CACTVS_SUBSKEYS>
AAADceB4OAAAAAAAAAAAAAAAAAAAAAAAAAAwYMAAAAAAAADBVAAAGgAACAAADASAmAIyBsAABgCAAiBCAAACCAAgIAAIiAAGiIgNJyKGMRqAcCMlwBULuAeA4PwO4AADCAAYQADAAAYQADCAAAAAAAAAAA==

> <PUBCHEM_IUPAC_OPENEYE_NAME>
3,5,7-trimethoxyphenanthren-2-ol

> <PUBCHEM_IUPAC_CAS_NAME>
3,5,7-trimethoxy-2-phenanthrenol

> <PUBCHEM_IUPAC_NAME>
3,5,7-trimethoxyphenanthren-2-ol

> <PUBCHEM_IUPAC_SYSTEMATIC_NAME>
3,5,7-trimethoxyphenanthren-2-ol

> <PUBCHEM_IUPAC_TRADITIONAL_NAME>
3,5,7-trimethoxyphenanthren-2-ol

> <PUBCHEM_IUPAC_INCHI>
InChI=1S/C17H16O4/c1-19-12-6-11-5-4-10-7-14(18)15(20-2)9-13(10)17(11)16(8-12)21-3/h4-9,18H,1-3H3

> <PUBCHEM_IUPAC_INCHIKEY>
BQUYXVYTCAIRQJ-UHFFFAOYSA-N

> <PUBCHEM_XLOGP3_AA>
4

> <PUBCHEM_EXACT_MASS>
284.104859

> <PUBCHEM_MOLECULAR_FORMULA>
C17H16O4

> <PUBCHEM_MOLECULAR_WEIGHT>
284.30654

> <PUBCHEM_OPENEYE_CAN_SMILES>
COC1=CC(=C2C(=C1)C=CC3=CC(=C(C=C32)OC)O)OC

> <PUBCHEM_OPENEYE_ISO_SMILES>
COC1=CC(=C2C(=C1)C=CC3=CC(=C(C=C32)OC)O)OC

> <PUBCHEM_CACTVS_TPSA>
47.9

> <PUBCHEM_MONOISOTOPIC_WEIGHT>
284.104859

> <PUBCHEM_TOTAL_CHARGE>
0

> <PUBCHEM_HEAVY_ATOM_COUNT>
21

> <PUBCHEM_ATOM_DEF_STEREO_COUNT>
0

> <PUBCHEM_ATOM_UDEF_STEREO_COUNT>
0

> <PUBCHEM_BOND_DEF_STEREO_COUNT>
0

> <PUBCHEM_BOND_UDEF_STEREO_COUNT>
0

> <PUBCHEM_ISOTOPIC_ATOM_COUNT>
0

> <PUBCHEM_COMPONENT_COUNT>
1

> <PUBCHEM_CACTVS_TAUTO_COUNT>
3

> <PUBCHEM_COORDINATE_TYPE>
1
5
255

> <PUBCHEM_BONDANNOTATIONS>
10  11  8
12  16  8
13  17  8
14  18  8
15  17  8
16  18  8
5  6  8
5  7  8
5  9  8
6  12  8
6  8  8
7  10  8
7  13  8
8  11  8
8  14  8
9  15  8

$$$$

