442879
  -OEChem-07051213003D

 44 48  0     1  0  0  0  0  0999 V2000
   -4.7104    0.2754    0.3346 O   0  0  0  0  0  0  0  0  0  0  0  0
   -4.4737   -0.4952   -1.8103 O   0  0  0  0  0  0  0  0  0  0  0  0
    2.1057    2.0577   -2.0103 O   0  0  0  0  0  0  0  0  0  0  0  0
    2.2979   -2.1713    1.8762 O   0  0  0  0  0  0  0  0  0  0  0  0
    3.4251    2.6350   -0.0781 O   0  0  0  0  0  0  0  0  0  0  0  0
    3.3064   -2.7513   -0.2343 O   0  0  0  0  0  0  0  0  0  0  0  0
   -2.4511    0.5047    0.9180 C   0  0  2  0  0  0  0  0  0  0  0  0
   -2.5395   -0.3412   -0.3477 C   0  0  1  0  0  0  0  0  0  0  0  0
   -3.8569    0.4086    1.4765 C   0  0  0  0  0  0  0  0  0  0  0  0
   -2.0898    1.9563    0.5906 C   0  0  0  0  0  0  0  0  0  0  0  0
   -2.2087   -1.8077   -0.1079 C   0  0  0  0  0  0  0  0  0  0  0  0
   -3.9922   -0.2019   -0.7264 C   0  0  0  0  0  0  0  0  0  0  0  0
   -0.6018    2.1471    0.4469 C   0  0  0  0  0  0  0  0  0  0  0  0
   -0.7261   -2.0688   -0.1786 C   0  0  0  0  0  0  0  0  0  0  0  0
   -0.0144    1.9864   -0.8023 C   0  0  0  0  0  0  0  0  0  0  0  0
    0.1535    2.4819    1.5756 C   0  0  0  0  0  0  0  0  0  0  0  0
    0.0363   -1.9706    0.9791 C   0  0  0  0  0  0  0  0  0  0  0  0
   -0.1522   -2.4045   -1.4092 C   0  0  0  0  0  0  0  0  0  0  0  0
    1.3506    2.1712   -0.8839 C   0  0  0  0  0  0  0  0  0  0  0  0
    1.3888   -2.2185    0.8645 C   0  0  0  0  0  0  0  0  0  0  0  0
    1.5342    2.6635    1.4654 C   0  0  0  0  0  0  0  0  0  0  0  0
    2.1041    2.5007    0.2194 C   0  0  0  0  0  0  0  0  0  0  0  0
    1.2200   -2.6508   -1.4977 C   0  0  0  0  0  0  0  0  0  0  0  0
    1.9647   -2.5495   -0.3406 C   0  0  0  0  0  0  0  0  0  0  0  0
    3.4189    2.3535   -1.4925 C   0  0  0  0  0  0  0  0  0  0  0  0
    3.5104   -2.5106    1.1729 C   0  0  0  0  0  0  0  0  0  0  0  0
   -1.7417    0.1230    1.6582 H   0  0  0  0  0  0  0  0  0  0  0  0
   -1.9465    0.0630   -1.1714 H   0  0  0  0  0  0  0  0  0  0  0  0
   -3.9896   -0.4806    2.1027 H   0  0  0  0  0  0  0  0  0  0  0  0
   -4.1595    1.2853    2.0566 H   0  0  0  0  0  0  0  0  0  0  0  0
   -2.4386    2.6216    1.3920 H   0  0  0  0  0  0  0  0  0  0  0  0
   -2.6021    2.3089   -0.3145 H   0  0  0  0  0  0  0  0  0  0  0  0
   -2.7087   -2.4391   -0.8553 H   0  0  0  0  0  0  0  0  0  0  0  0
   -2.6023   -2.1579    0.8556 H   0  0  0  0  0  0  0  0  0  0  0  0
   -0.5904    1.7460   -1.6878 H   0  0  0  0  0  0  0  0  0  0  0  0
   -0.3209    2.6008    2.5462 H   0  0  0  0  0  0  0  0  0  0  0  0
   -0.4006   -1.7235    1.9395 H   0  0  0  0  0  0  0  0  0  0  0  0
   -0.7625   -2.4741   -2.3058 H   0  0  0  0  0  0  0  0  0  0  0  0
    2.1315    2.9217    2.3324 H   0  0  0  0  0  0  0  0  0  0  0  0
    1.6778   -2.9105   -2.4453 H   0  0  0  0  0  0  0  0  0  0  0  0
    3.8186    3.2237   -2.0256 H   0  0  0  0  0  0  0  0  0  0  0  0
    4.0721    1.4938   -1.6818 H   0  0  0  0  0  0  0  0  0  0  0  0
    3.9379   -3.4129    1.6252 H   0  0  0  0  0  0  0  0  0  0  0  0
    4.2243   -1.6869    1.2878 H   0  0  0  0  0  0  0  0  0  0  0  0
  1  9  1  0  0  0  0
  1 12  1  0  0  0  0
  2 12  2  0  0  0  0
  3 19  1  0  0  0  0
  3 25  1  0  0  0  0
  4 20  1  0  0  0  0
  4 26  1  0  0  0  0
  5 22  1  0  0  0  0
  5 25  1  0  0  0  0
  6 24  1  0  0  0  0
  6 26  1  0  0  0  0
  7  8  1  0  0  0  0
  7  9  1  0  0  0  0
  7 10  1  0  0  0  0
  7 27  1  0  0  0  0
  8 11  1  0  0  0  0
  8 12  1  0  0  0  0
  8 28  1  0  0  0  0
  9 29  1  0  0  0  0
  9 30  1  0  0  0  0
 10 13  1  0  0  0  0
 10 31  1  0  0  0  0
 10 32  1  0  0  0  0
 11 14  1  0  0  0  0
 11 33  1  0  0  0  0
 11 34  1  0  0  0  0
 13 15  2  0  0  0  0
 13 16  1  0  0  0  0
 14 17  2  0  0  0  0
 14 18  1  0  0  0  0
 15 19  1  0  0  0  0
 15 35  1  0  0  0  0
 16 21  2  0  0  0  0
 16 36  1  0  0  0  0
 17 20  1  0  0  0  0
 17 37  1  0  0  0  0
 18 23  2  0  0  0  0
 18 38  1  0  0  0  0
 19 22  2  0  0  0  0
 20 24  2  0  0  0  0
 21 22  1  0  0  0  0
 21 39  1  0  0  0  0
 23 24  1  0  0  0  0
 23 40  1  0  0  0  0
 25 41  1  0  0  0  0
 25 42  1  0  0  0  0
 26 43  1  0  0  0  0
 26 44  1  0  0  0  0
M  END
> <PUBCHEM_COMPOUND_CID>
442879

> <PUBCHEM_CONFORMER_RMSD>
0.8

> <PUBCHEM_CONFORMER_DIVERSEORDER>
1
128
10
17
112
138
99
115
141
76
131
8
62
98
53
127
137
124
74
25
70
150
5
2
84
77
111
87
37
20
61
57
31
125
95
3
136
14
85
119
121
72
6
142
143
154
151
148
33
123
109
134
4
75
19
118
88
65
16
103
73
145
36
81
144
44
18
38
139
106
140
66
78
153
63
149
120
93
35
101
69
135
129
59
22
146
32
50
126
7
116
113
46
79
28
105
122
13
152
23
117
108
114
51
110
82
30
107
92
15
49
133
97
147
26
27
96
67
80
89
104
21
102
55
45
130
100
83
52
64
94
41
68
90
11
60
24
47
34
132
39
86
9
58
91
12
43
29
54
40
56
48
71
42

> <PUBCHEM_MMFF94_PARTIAL_CHARGES>
31
1 -0.43
10 0.14
11 0.14
12 0.66
13 -0.14
14 -0.14
15 -0.15
16 -0.15
17 -0.15
18 -0.15
19 0.08
2 -0.57
20 0.08
21 -0.15
22 0.08
23 -0.15
24 0.08
25 0.56
26 0.56
3 -0.36
35 0.15
36 0.15
37 0.15
38 0.15
39 0.15
4 -0.36
40 0.15
5 -0.36
6 -0.36
8 0.06
9 0.28

> <PUBCHEM_EFFECTIVE_ROTOR_COUNT>
6

> <PUBCHEM_PHARMACOPHORE_FEATURES>
10
1 2 acceptor
1 3 acceptor
1 4 acceptor
1 5 acceptor
1 6 acceptor
5 1 7 8 9 12 rings
5 3 5 19 22 25 rings
5 4 6 20 24 26 rings
6 13 15 16 19 21 22 rings
6 14 17 18 20 23 24 rings

> <PUBCHEM_HEAVY_ATOM_COUNT>
26

> <PUBCHEM_ATOM_DEF_STEREO_COUNT>
2

> <PUBCHEM_ATOM_UDEF_STEREO_COUNT>
0

> <PUBCHEM_BOND_DEF_STEREO_COUNT>
0

> <PUBCHEM_BOND_UDEF_STEREO_COUNT>
0

> <PUBCHEM_ISOTOPIC_ATOM_COUNT>
0

> <PUBCHEM_COMPONENT_COUNT>
1

> <PUBCHEM_CACTVS_TAUTO_COUNT>
2

> <PUBCHEM_CONFORMER_ID>
0006C1FF00000001

> <PUBCHEM_MMFF94_ENERGY>
64.0711

> <PUBCHEM_FEATURE_SELFOVERLAP>
51.057

> <PUBCHEM_SHAPE_FINGERPRINT>
10190108 129 17692517920204751259
107951 10 17770477760920082214
1100329 8 18048585221241076945
11513181 2 17895758525255321366
11578080 2 17704079486638268831
11582403 64 15506916445208229752
12156800 1 14927639848237374508
12422481 6 18126036873596472152
12592029 89 18127687137359486041
133893 2 18272079522371690857
14081887 123 17614571766271701610
14840074 17 18200333034775321304
14955137 171 17973421476937324819
15463212 79 17624136001326221788
16752209 62 17620483410828918551
17357779 13 17975160908374160919
17492 54 18200294628860937238
18336668 15 18341337798644454176
19591789 44 16968303609580302727
20905425 154 18336817615641951695
21421861 104 18118941801950215153
23419403 2 17837252407349474053
3298306 158 18196378022334672581
35225 105 17406550308110226270
445580 44 17695659576552781162
513532 50 17458915829219924445
5265222 85 17909535170002907932
5282940 2 18340760477487730724
6287921 2 17896036727145081354
81228 2 17473534133001449499
9925002 15 17824856405873520543

> <PUBCHEM_SHAPE_MULTIPOLES>
499.85
6.63
4.78
1.74
4.97
0.14
-0.13
0.07
-0.56
-5.15
0.08
-0.44
-0.09
-1.65

> <PUBCHEM_SHAPE_SELFOVERLAP>
1120.447

> <PUBCHEM_SHAPE_VOLUME>
266

> <PUBCHEM_COORDINATE_TYPE>
2
5
10

$$$$

