16078
  -OEChem-07051212522D

 53 55  0     1  0  0  0  0  0999 V2000
    8.9942   -2.1016    0.0000 O   0  0  0  0  0  0  0  0  0  0  0  0
    7.2458    0.9330    0.0000 O   0  0  0  0  0  0  0  0  0  0  0  0
    9.8602   -0.6016    0.0000 C   0  0  2  0  0  0  0  0  0  0  0  0
    8.9942   -0.1016    0.0000 C   0  0  2  0  0  0  0  0  0  0  0  0
    9.8602   -1.6016    0.0000 C   0  0  0  0  0  0  0  0  0  0  0  0
   10.7702   -0.0948    0.0000 C   0  0  0  0  0  0  0  0  0  0  0  0
    8.1282   -0.6016    0.0000 C   0  0  0  0  0  0  0  0  0  0  0  0
   10.7783    0.9468    0.0000 C   0  0  0  0  0  0  0  0  0  0  0  0
    8.9781    0.9399    0.0000 C   0  0  0  0  0  0  0  0  0  0  0  0
    9.8762    1.4676    0.0000 C   0  0  0  0  0  0  0  0  0  0  0  0
    8.1282   -1.6016    0.0000 C   0  0  0  0  0  0  0  0  0  0  0  0
   10.3602   -2.4676    0.0000 C   0  0  0  0  0  0  0  0  0  0  0  0
   10.8602   -1.6016    0.0000 C   0  0  0  0  0  0  0  0  0  0  0  0
    7.2342   -0.0670    0.0000 C   0  0  0  0  0  0  0  0  0  0  0  0
    7.2342   -2.1363    0.0000 C   0  0  0  0  0  0  0  0  0  0  0  0
    9.8723    2.4676    0.0000 C   0  0  0  0  0  0  0  0  0  0  0  0
    6.3282   -1.6224    0.0000 C   0  0  0  0  0  0  0  0  0  0  0  0
    6.3282   -0.5808    0.0000 C   0  0  0  0  0  0  0  0  0  0  0  0
    5.4641   -2.1258    0.0000 C   0  0  0  0  0  0  0  0  0  0  0  0
    4.5961   -1.6291    0.0000 C   0  0  0  0  0  0  0  0  0  0  0  0
    3.7320   -2.1324    0.0000 C   0  0  0  0  0  0  0  0  0  0  0  0
    2.8641   -1.6358    0.0000 C   0  0  0  0  0  0  0  0  0  0  0  0
    2.0000   -2.1391    0.0000 C   0  0  0  0  0  0  0  0  0  0  0  0
   10.5931   -1.0323    0.0000 H   0  0  0  0  0  0  0  0  0  0  0  0
    9.7270    0.3290    0.0000 H   0  0  0  0  0  0  0  0  0  0  0  0
   10.9748   -0.6801    0.0000 H   0  0  0  0  0  0  0  0  0  0  0  0
   11.3819    0.0066    0.0000 H   0  0  0  0  0  0  0  0  0  0  0  0
   11.3883    0.8360    0.0000 H   0  0  0  0  0  0  0  0  0  0  0  0
   10.9918    1.5289    0.0000 H   0  0  0  0  0  0  0  0  0  0  0  0
    8.4377    1.2437    0.0000 H   0  0  0  0  0  0  0  0  0  0  0  0
   10.8602   -2.2216    0.0000 H   0  0  0  0  0  0  0  0  0  0  0  0
   11.4802   -1.6016    0.0000 H   0  0  0  0  0  0  0  0  0  0  0  0
   10.8602   -0.9816    0.0000 H   0  0  0  0  0  0  0  0  0  0  0  0
    9.8233   -2.7776    0.0000 H   0  0  0  0  0  0  0  0  0  0  0  0
   10.6702   -3.0046    0.0000 H   0  0  0  0  0  0  0  0  0  0  0  0
   10.8972   -2.1576    0.0000 H   0  0  0  0  0  0  0  0  0  0  0  0
    7.2414   -2.7562    0.0000 H   0  0  0  0  0  0  0  0  0  0  0  0
   10.4923    2.4700    0.0000 H   0  0  0  0  0  0  0  0  0  0  0  0
    9.8699    3.0876    0.0000 H   0  0  0  0  0  0  0  0  0  0  0  0
    9.2523    2.4652    0.0000 H   0  0  0  0  0  0  0  0  0  0  0  0
    5.7924   -0.2687    0.0000 H   0  0  0  0  0  0  0  0  0  0  0  0
    5.0674   -2.6022    0.0000 H   0  0  0  0  0  0  0  0  0  0  0  0
    5.8644   -2.5992    0.0000 H   0  0  0  0  0  0  0  0  0  0  0  0
    4.9928   -1.1526    0.0000 H   0  0  0  0  0  0  0  0  0  0  0  0
    4.1958   -1.1557    0.0000 H   0  0  0  0  0  0  0  0  0  0  0  0
    6.7125    1.2492    0.0000 H   0  0  0  0  0  0  0  0  0  0  0  0
    3.3353   -2.6089    0.0000 H   0  0  0  0  0  0  0  0  0  0  0  0
    4.1324   -2.6059    0.0000 H   0  0  0  0  0  0  0  0  0  0  0  0
    3.2608   -1.1593    0.0000 H   0  0  0  0  0  0  0  0  0  0  0  0
    2.4637   -1.1624    0.0000 H   0  0  0  0  0  0  0  0  0  0  0  0
    1.6879   -1.6034    0.0000 H   0  0  0  0  0  0  0  0  0  0  0  0
    1.4643   -2.4512    0.0000 H   0  0  0  0  0  0  0  0  0  0  0  0
    2.3121   -2.6748    0.0000 H   0  0  0  0  0  0  0  0  0  0  0  0
  1  5  1  0  0  0  0
  1 11  1  0  0  0  0
  2 14  1  0  0  0  0
  2 46  1  0  0  0  0
  3  4  1  0  0  0  0
  3  5  1  0  0  0  0
  3  6  1  0  0  0  0
  3 24  1  6  0  0  0
  4  7  1  0  0  0  0
  4  9  1  0  0  0  0
  4 25  1  1  0  0  0
  5 12  1  0  0  0  0
  5 13  1  0  0  0  0
  6  8  1  0  0  0  0
  6 26  1  0  0  0  0
  6 27  1  0  0  0  0
  7 11  1  0  0  0  0
  7 14  2  0  0  0  0
  8 10  1  0  0  0  0
  8 28  1  0  0  0  0
  8 29  1  0  0  0  0
  9 10  2  0  0  0  0
  9 30  1  0  0  0  0
 10 16  1  0  0  0  0
 11 15  2  0  0  0  0
 12 34  1  0  0  0  0
 12 35  1  0  0  0  0
 12 36  1  0  0  0  0
 13 31  1  0  0  0  0
 13 32  1  0  0  0  0
 13 33  1  0  0  0  0
 14 18  1  0  0  0  0
 15 17  1  0  0  0  0
 15 37  1  0  0  0  0
 16 38  1  0  0  0  0
 16 39  1  0  0  0  0
 16 40  1  0  0  0  0
 17 18  2  0  0  0  0
 17 19  1  0  0  0  0
 18 41  1  0  0  0  0
 19 20  1  0  0  0  0
 19 42  1  0  0  0  0
 19 43  1  0  0  0  0
 20 21  1  0  0  0  0
 20 44  1  0  0  0  0
 20 45  1  0  0  0  0
 21 22  1  0  0  0  0
 21 47  1  0  0  0  0
 21 48  1  0  0  0  0
 22 23  1  0  0  0  0
 22 49  1  0  0  0  0
 22 50  1  0  0  0  0
 23 51  1  0  0  0  0
 23 52  1  0  0  0  0
 23 53  1  0  0  0  0
M  END
> <PUBCHEM_COMPOUND_CID>
16078

> <PUBCHEM_COMPOUND_CANONICALIZED>
1

> <PUBCHEM_CACTVS_COMPLEXITY>
439

> <PUBCHEM_CACTVS_HBOND_ACCEPTOR>
2

> <PUBCHEM_CACTVS_HBOND_DONOR>
1

> <PUBCHEM_CACTVS_ROTATABLE_BOND>
4

> <PUBCHEM_CACTVS_SUBSKEYS>
AAADceB4MAAAAAAAAAAAAAAAAAAAAAAAAAA0QIAAAAAAAACRAAAAGgAACAAADUSAmAAyBoAABgCAAiBCAAACCAAgIAAAiAAGCIgMJyKGMRqCeCClwBUIuAeA4PwOwAABCAAIAACAAAIQABAAAAAAAAAAAA==

> <PUBCHEM_IUPAC_OPENEYE_NAME>
(6aR,10aR)-6,6,9-trimethyl-3-pentyl-6a,7,8,10a-tetrahydrobenzo[c]chromen-1-ol

> <PUBCHEM_IUPAC_CAS_NAME>
(6aR,10aR)-6,6,9-trimethyl-3-pentyl-6a,7,8,10a-tetrahydrobenzo[c][1]benzopyran-1-ol

> <PUBCHEM_IUPAC_NAME>
(6aR,10aR)-6,6,9-trimethyl-3-pentyl-6a,7,8,10a-tetrahydrobenzo[c]chromen-1-ol

> <PUBCHEM_IUPAC_SYSTEMATIC_NAME>
(6aR,10aR)-6,6,9-trimethyl-3-pentyl-6a,7,8,10a-tetrahydrobenzo[c]chromen-1-ol

> <PUBCHEM_IUPAC_TRADITIONAL_NAME>
(6aR,10aR)-3-amyl-6,6,9-trimethyl-6a,7,8,10a-tetrahydrobenzo[c]chromen-1-ol

> <PUBCHEM_IUPAC_INCHI>
InChI=1S/C21H30O2/c1-5-6-7-8-15-12-18(22)20-16-11-14(2)9-10-17(16)21(3,4)23-19(20)13-15/h11-13,16-17,22H,5-10H2,1-4H3/t16-,17-/m1/s1

> <PUBCHEM_IUPAC_INCHIKEY>
CYQFCXCEBYINGO-IAGOWNOFSA-N

> <PUBCHEM_XLOGP3>
7

> <PUBCHEM_EXACT_MASS>
314.22458

> <PUBCHEM_MOLECULAR_FORMULA>
C21H30O2

> <PUBCHEM_MOLECULAR_WEIGHT>
314.4617

> <PUBCHEM_OPENEYE_CAN_SMILES>
CCCCCC1=CC2=C(C3C=C(CCC3C(O2)(C)C)C)C(=C1)O

> <PUBCHEM_OPENEYE_ISO_SMILES>
CCCCCC1=CC2=C([C@@H]3C=C(CC[C@H]3C(O2)(C)C)C)C(=C1)O

> <PUBCHEM_CACTVS_TPSA>
29.5

> <PUBCHEM_MONOISOTOPIC_WEIGHT>
314.22458

> <PUBCHEM_TOTAL_CHARGE>
0

> <PUBCHEM_HEAVY_ATOM_COUNT>
23

> <PUBCHEM_ATOM_DEF_STEREO_COUNT>
2

> <PUBCHEM_ATOM_UDEF_STEREO_COUNT>
0

> <PUBCHEM_BOND_DEF_STEREO_COUNT>
0

> <PUBCHEM_BOND_UDEF_STEREO_COUNT>
0

> <PUBCHEM_ISOTOPIC_ATOM_COUNT>
0

> <PUBCHEM_COMPONENT_COUNT>
1

> <PUBCHEM_CACTVS_TAUTO_COUNT>
9

> <PUBCHEM_COORDINATE_TYPE>
1
5
255

> <PUBCHEM_BONDANNOTATIONS>
11  15  8
14  18  8
15  17  8
17  18  8
3  24  6
4  25  5
7  11  8
7  14  8

$$$$

