9659
  -OEChem-06261203552D

 21 20  0     0  0  0  0  0  0999 V2000
    5.8301    0.5490    0.0000 F   0  0  0  0  0  0  0  0  0  0  0  0
    6.8301   -1.1830    0.0000 F   0  0  0  0  0  0  0  0  0  0  0  0
    8.0622   -0.3170    0.0000 F   0  0  0  0  0  0  0  0  0  0  0  0
    7.1962    1.1830    0.0000 F   0  0  0  0  0  0  0  0  0  0  0  0
    5.4641   -0.8170    0.0000 O   0  0  0  0  0  0  0  0  0  0  0  0
    3.7320   -0.8170    0.0000 C   0  0  0  0  0  0  0  0  0  0  0  0
    4.5981   -0.3170    0.0000 C   0  0  0  0  0  0  0  0  0  0  0  0
    2.8660   -0.3170    0.0000 C   0  0  0  0  0  0  0  0  0  0  0  0
    6.3301   -0.3170    0.0000 C   0  0  0  0  0  0  0  0  0  0  0  0
    2.0000   -0.8170    0.0000 C   0  0  0  0  0  0  0  0  0  0  0  0
    7.1962    0.1830    0.0000 C   0  0  0  0  0  0  0  0  0  0  0  0
    3.3335   -1.2919    0.0000 H   0  0  0  0  0  0  0  0  0  0  0  0
    4.1306   -1.2919    0.0000 H   0  0  0  0  0  0  0  0  0  0  0  0
    4.9966    0.1580    0.0000 H   0  0  0  0  0  0  0  0  0  0  0  0
    4.1996    0.1580    0.0000 H   0  0  0  0  0  0  0  0  0  0  0  0
    3.2646    0.1580    0.0000 H   0  0  0  0  0  0  0  0  0  0  0  0
    2.4675    0.1580    0.0000 H   0  0  0  0  0  0  0  0  0  0  0  0
    1.6900   -0.2801    0.0000 H   0  0  0  0  0  0  0  0  0  0  0  0
    1.4631   -1.1270    0.0000 H   0  0  0  0  0  0  0  0  0  0  0  0
    2.3100   -1.3539    0.0000 H   0  0  0  0  0  0  0  0  0  0  0  0
    6.6592    0.4930    0.0000 H   0  0  0  0  0  0  0  0  0  0  0  0
  1  9  1  0  0  0  0
  2  9  1  0  0  0  0
  3 11  1  0  0  0  0
  4 11  1  0  0  0  0
  5  7  1  0  0  0  0
  5  9  1  0  0  0  0
  6  7  1  0  0  0  0
  6  8  1  0  0  0  0
  6 12  1  0  0  0  0
  6 13  1  0  0  0  0
  7 14  1  0  0  0  0
  7 15  1  0  0  0  0
  8 10  1  0  0  0  0
  8 16  1  0  0  0  0
  8 17  1  0  0  0  0
  9 11  1  0  0  0  0
 10 18  1  0  0  0  0
 10 19  1  0  0  0  0
 10 20  1  0  0  0  0
 11 21  1  0  0  0  0
M  END
> <PUBCHEM_COMPOUND_CID>
9659

> <PUBCHEM_COMPOUND_CANONICALIZED>
1

> <PUBCHEM_CACTVS_COMPLEXITY>
105

> <PUBCHEM_CACTVS_HBOND_ACCEPTOR>
5

> <PUBCHEM_CACTVS_HBOND_DONOR>
0

> <PUBCHEM_CACTVS_ROTATABLE_BOND>
5

> <PUBCHEM_CACTVS_SUBSKEYS>
AAADccBgIcAAAAAAAAAAAAAAAAAAAAAAAAAAAAAAAAAAAAAAAAAAGwAAAAAACACggBICAAAABAAAAAAAAAAAAAAAAAAAAAAAAAAAAAAAAAACAAAEAAAAAAAAAAAAAAAAAAAAAAAAAAAAAAAAAAAAAAAAAA==

> <PUBCHEM_IUPAC_OPENEYE_NAME>
1-(1,1,2,2-tetrafluoroethoxy)butane

> <PUBCHEM_IUPAC_CAS_NAME>
1-(1,1,2,2-tetrafluoroethoxy)butane

> <PUBCHEM_IUPAC_NAME>
1-(1,1,2,2-tetrafluoroethoxy)butane

> <PUBCHEM_IUPAC_SYSTEMATIC_NAME>
1-[1,1,2,2-tetrakis(fluoranyl)ethoxy]butane

> <PUBCHEM_IUPAC_TRADITIONAL_NAME>
1-(1,1,2,2-tetrafluoroethoxy)butane

> <PUBCHEM_IUPAC_INCHI>
InChI=1S/C6H10F4O/c1-2-3-4-11-6(9,10)5(7)8/h5H,2-4H2,1H3

> <PUBCHEM_IUPAC_INCHIKEY>
CIVGBESMFDRXNF-UHFFFAOYSA-N

> <PUBCHEM_XLOGP3_AA>
3

> <PUBCHEM_EXACT_MASS>
174.066778

> <PUBCHEM_MOLECULAR_FORMULA>
C6H10F4O

> <PUBCHEM_MOLECULAR_WEIGHT>
174.136613

> <PUBCHEM_OPENEYE_CAN_SMILES>
CCCCOC(C(F)F)(F)F

> <PUBCHEM_OPENEYE_ISO_SMILES>
CCCCOC(C(F)F)(F)F

> <PUBCHEM_CACTVS_TPSA>
9.2

> <PUBCHEM_MONOISOTOPIC_WEIGHT>
174.066778

> <PUBCHEM_TOTAL_CHARGE>
0

> <PUBCHEM_HEAVY_ATOM_COUNT>
11

> <PUBCHEM_ATOM_DEF_STEREO_COUNT>
0

> <PUBCHEM_ATOM_UDEF_STEREO_COUNT>
0

> <PUBCHEM_BOND_DEF_STEREO_COUNT>
0

> <PUBCHEM_BOND_UDEF_STEREO_COUNT>
0

> <PUBCHEM_ISOTOPIC_ATOM_COUNT>
0

> <PUBCHEM_COMPONENT_COUNT>
1

> <PUBCHEM_CACTVS_TAUTO_COUNT>
1

> <PUBCHEM_COORDINATE_TYPE>
1
5
255

$$$$

