17564
  -OEChem-07051213133D

 44 44  0     0  0  0  0  0  0999 V2000
    2.2694    0.0180   -0.9952 O   0  0  0  0  0  0  0  0  0  0  0  0
    2.8280    0.0285    1.2618 O   0  0  0  0  0  0  0  0  0  0  0  0
    4.4766    0.0447   -0.3704 N   0  0  0  0  0  0  0  0  0  0  0  0
   -1.7562   -2.5290    0.0956 C   0  0  0  0  0  0  0  0  0  0  0  0
   -1.8172    2.4690    0.0896 C   0  0  0  0  0  0  0  0  0  0  0  0
   -1.0294   -1.1888   -0.1052 C   0  0  0  0  0  0  0  0  0  0  0  0
   -1.0807    1.1865   -0.1016 C   0  0  0  0  0  0  0  0  0  0  0  0
   -1.7397   -0.0294    0.0803 C   0  0  0  0  0  0  0  0  0  0  0  0
   -2.2900   -2.6190    1.5417 C   0  0  0  0  0  0  0  0  0  0  0  0
   -2.9403   -2.6304   -0.8900 C   0  0  0  0  0  0  0  0  0  0  0  0
   -0.8607   -3.7668   -0.1379 C   0  0  0  0  0  0  0  0  0  0  0  0
   -2.3749    2.5903    1.5416 C   0  0  0  0  0  0  0  0  0  0  0  0
   -3.0273    2.5782   -0.8895 C   0  0  0  0  0  0  0  0  0  0  0  0
   -0.9757    3.7677   -0.1428 C   0  0  0  0  0  0  0  0  0  0  0  0
    0.2958   -1.2132   -0.4604 C   0  0  0  0  0  0  0  0  0  0  0  0
    0.2666    1.2025   -0.4628 C   0  0  0  0  0  0  0  0  0  0  0  0
    0.9548    0.0026   -0.6420 C   0  0  0  0  0  0  0  0  0  0  0  0
    3.1740    0.0295    0.0841 C   0  0  0  0  0  0  0  0  0  0  0  0
    5.6269    0.0590    0.5030 C   0  0  0  0  0  0  0  0  0  0  0  0
   -2.7869   -0.0463    0.3610 H   0  0  0  0  0  0  0  0  0  0  0  0
   -3.0335   -1.8456    1.7629 H   0  0  0  0  0  0  0  0  0  0  0  0
   -2.7740   -3.5858    1.7238 H   0  0  0  0  0  0  0  0  0  0  0  0
   -1.4770   -2.5118    2.2697 H   0  0  0  0  0  0  0  0  0  0  0  0
   -2.5996   -2.5319   -1.9276 H   0  0  0  0  0  0  0  0  0  0  0  0
   -3.6967   -1.8570   -0.7174 H   0  0  0  0  0  0  0  0  0  0  0  0
   -3.4486   -3.5975   -0.7974 H   0  0  0  0  0  0  0  0  0  0  0  0
   -0.0143   -3.7987    0.5583 H   0  0  0  0  0  0  0  0  0  0  0  0
   -0.4757   -3.8077   -1.1636 H   0  0  0  0  0  0  0  0  0  0  0  0
   -1.4288   -4.6923    0.0191 H   0  0  0  0  0  0  0  0  0  0  0  0
   -2.8912    3.5455    1.6920 H   0  0  0  0  0  0  0  0  0  0  0  0
   -3.0928    1.7956    1.7725 H   0  0  0  0  0  0  0  0  0  0  0  0
   -1.5637    2.5266    2.2765 H   0  0  0  0  0  0  0  0  0  0  0  0
   -2.6927    2.5055   -1.9311 H   0  0  0  0  0  0  0  0  0  0  0  0
   -3.5517    3.5334   -0.7703 H   0  0  0  0  0  0  0  0  0  0  0  0
   -3.7625    1.7834   -0.7225 H   0  0  0  0  0  0  0  0  0  0  0  0
   -0.5909    3.8192   -1.1681 H   0  0  0  0  0  0  0  0  0  0  0  0
   -0.1294    3.8277    0.5516 H   0  0  0  0  0  0  0  0  0  0  0  0
   -1.5843    4.6663    0.0160 H   0  0  0  0  0  0  0  0  0  0  0  0
    0.8717   -2.1175   -0.6120 H   0  0  0  0  0  0  0  0  0  0  0  0
    0.8206    2.1224   -0.6163 H   0  0  0  0  0  0  0  0  0  0  0  0
    4.6353    0.0456   -1.3732 H   0  0  0  0  0  0  0  0  0  0  0  0
    6.2333   -0.8229    0.2827 H   0  0  0  0  0  0  0  0  0  0  0  0
    5.3299    0.0518    1.5543 H   0  0  0  0  0  0  0  0  0  0  0  0
    6.2073    0.9594    0.2876 H   0  0  0  0  0  0  0  0  0  0  0  0
  1 17  1  0  0  0  0
  1 18  1  0  0  0  0
  2 18  2  0  0  0  0
  3 18  1  0  0  0  0
  3 19  1  0  0  0  0
  3 41  1  0  0  0  0
  4  6  1  0  0  0  0
  4  9  1  0  0  0  0
  4 10  1  0  0  0  0
  4 11  1  0  0  0  0
  5  7  1  0  0  0  0
  5 12  1  0  0  0  0
  5 13  1  0  0  0  0
  5 14  1  0  0  0  0
  6  8  2  0  0  0  0
  6 15  1  0  0  0  0
  7  8  1  0  0  0  0
  7 16  2  0  0  0  0
  8 20  1  0  0  0  0
  9 21  1  0  0  0  0
  9 22  1  0  0  0  0
  9 23  1  0  0  0  0
 10 24  1  0  0  0  0
 10 25  1  0  0  0  0
 10 26  1  0  0  0  0
 11 27  1  0  0  0  0
 11 28  1  0  0  0  0
 11 29  1  0  0  0  0
 12 30  1  0  0  0  0
 12 31  1  0  0  0  0
 12 32  1  0  0  0  0
 13 33  1  0  0  0  0
 13 34  1  0  0  0  0
 13 35  1  0  0  0  0
 14 36  1  0  0  0  0
 14 37  1  0  0  0  0
 14 38  1  0  0  0  0
 15 17  2  0  0  0  0
 15 39  1  0  0  0  0
 16 17  1  0  0  0  0
 16 40  1  0  0  0  0
 19 42  1  0  0  0  0
 19 43  1  0  0  0  0
 19 44  1  0  0  0  0
M  END
> <PUBCHEM_COMPOUND_CID>
17564

> <PUBCHEM_CONFORMER_RMSD>
0.6

> <PUBCHEM_CONFORMER_DIVERSEORDER>
1
28
21
30
34
32
7
35
39
36
12
25
11
31
14
18
3
20
29
13
15
10
4
26
24
38
9
33
8
19
27
6
17
16
22
37
23
2
5

> <PUBCHEM_MMFF94_PARTIAL_CHARGES>
17
1 -0.23
15 -0.15
16 -0.15
17 0.08
18 0.78
19 0.3
2 -0.57
20 0.15
3 -0.73
39 0.15
4 0.14
40 0.15
41 0.37
5 0.14
6 -0.14
7 -0.14
8 -0.15

> <PUBCHEM_EFFECTIVE_ROTOR_COUNT>
5

> <PUBCHEM_PHARMACOPHORE_FEATURES>
5
1 2 acceptor
1 3 donor
4 4 9 10 11 hydrophobe
4 5 12 13 14 hydrophobe
6 6 7 8 15 16 17 rings

> <PUBCHEM_HEAVY_ATOM_COUNT>
19

> <PUBCHEM_ATOM_DEF_STEREO_COUNT>
0

> <PUBCHEM_ATOM_UDEF_STEREO_COUNT>
0

> <PUBCHEM_BOND_DEF_STEREO_COUNT>
0

> <PUBCHEM_BOND_UDEF_STEREO_COUNT>
0

> <PUBCHEM_ISOTOPIC_ATOM_COUNT>
0

> <PUBCHEM_COMPONENT_COUNT>
1

> <PUBCHEM_CACTVS_TAUTO_COUNT>
2

> <PUBCHEM_CONFORMER_ID>
0000449C00000001

> <PUBCHEM_MMFF94_ENERGY>
68.6186

> <PUBCHEM_FEATURE_SELFOVERLAP>
25.371

> <PUBCHEM_SHAPE_FINGERPRINT>
10319926 262 18263383472924445034
10411042 1 18122345674932490526
1100329 8 18410571743732910769
11036077 4 18127149648146574362
11056379 131 18337943507718508702
11265709 11 18194681471202758719
11357001 24 18341326717164782226
121448 382 18263656215262529741
12160290 23 18266999769966219439
12500047 106 18338524144125656408
12553582 1 18049986819161651542
12643181 29 18121775291630656230
12788726 201 18342470217868988947
13004483 165 18193002525621546766
13052359 8 18342460365445613525
13140716 1 18194108634550769555
13583140 156 16916779733965799068
136203 1 18410573967992726609
13681431 1 17689439282654554699
14022347 108 17908103669654881111
14178000 22 18196378232487805596
14178342 30 18342179986160654642
14420673 8 18051695736064346146
14508225 48 18264783055582340797
14844126 61 18341338799250963530
15042514 8 18341323444436502411
15309172 13 18124024886891293377
16752209 62 18341907259209529679
16945 1 18411128139143732327
17980427 23 17025699370785720411
19591789 44 17905879628182752615
204376 136 18195243540640625909
20510252 161 18334857250834240393
20600515 1 17899396615694294075
21041028 32 18125142850051650379
21524375 3 17972607859222102749
21650355 55 18338518513059742370
21731228 192 18124023791616169217
22112679 90 18050260623231208581
22224240 67 18262509429452252289
2255824 54 17327460731896374261
2334 1 17905316334974475111
23402539 116 18334301942044370351
23419403 2 17314811598096101985
23557571 272 18261104150327570620
23558518 356 18342453802599195118
23559900 14 18266469715600133316
23728640 28 18341614845093411314
257057 1 18050006584553168135
2748010 2 17979611744433723599
305870 269 17834677479892550645
3071541 12 17257370172434149405
3071541 236 18341899631542426965
3091708 16 9418140059185517161
3187 122 17906206995254780320
352729 6 18339352054442467845
4409770 3 18342464725022366727
458136 41 17831846224634690945
5104073 3 18410582791021273520
532947 4 17472137753240091934
633830 44 17609212707975247588
7364860 26 17185034415076594837
81228 2 18336814321697466995
84936 182 17541388276616980904
90316 7 18265888068947314323
9981440 41 17980485881510610768

> <PUBCHEM_SHAPE_MULTIPOLES>
374.29
6.6
4.66
1.12
13.61
0.18
-0.35
-0.4
-0.84
-6.22
-0.24
-0.45
0
0.01

> <PUBCHEM_SHAPE_SELFOVERLAP>
764.794

> <PUBCHEM_SHAPE_VOLUME>
218.4

> <PUBCHEM_COORDINATE_TYPE>
2
5
10

$$$$

