9543342
  -OEChem-07051213112D

 33 36  0     0  0  0  0  0  0999 V2000
    2.5369   -0.3137    0.0000 O   0  0  0  0  0  0  0  0  0  0  0  0
    3.4030    1.1863    0.0000 O   0  0  0  0  0  0  0  0  0  0  0  0
    5.1350    0.1863    0.0000 C   0  0  0  0  0  0  0  0  0  0  0  0
    6.0010   -0.3137    0.0000 C   0  0  0  0  0  0  0  0  0  0  0  0
    6.0010   -1.3137    0.0000 C   0  0  0  0  0  0  0  0  0  0  0  0
    5.1190    1.2278    0.0000 C   0  0  0  0  0  0  0  0  0  0  0  0
    4.2690   -0.3137    0.0000 C   0  0  0  0  0  0  0  0  0  0  0  0
    5.1350   -1.8137    0.0000 C   0  0  0  0  0  0  0  0  0  0  0  0
    6.0170    1.7555    0.0000 C   0  0  0  0  0  0  0  0  0  0  0  0
    6.9110    0.1931    0.0000 C   0  0  0  0  0  0  0  0  0  0  0  0
    4.2690   -1.3137    0.0000 C   0  0  0  0  0  0  0  0  0  0  0  0
    6.9191    1.2347    0.0000 C   0  0  0  0  0  0  0  0  0  0  0  0
    6.9110   -1.8206    0.0000 C   0  0  0  0  0  0  0  0  0  0  0  0
    4.1670    1.7484    0.0000 C   0  0  0  0  0  0  0  0  0  0  0  0
    5.1190   -2.8552    0.0000 C   0  0  0  0  0  0  0  0  0  0  0  0
    6.0254    2.8405    0.0000 C   0  0  0  0  0  0  0  0  0  0  0  0
    6.9191   -2.8622    0.0000 C   0  0  0  0  0  0  0  0  0  0  0  0
    4.1503    2.8333    0.0000 C   0  0  0  0  0  0  0  0  0  0  0  0
    3.4030    0.1863    0.0000 C   0  0  0  0  0  0  0  0  0  0  0  0
    6.0170   -3.3830    0.0000 C   0  0  0  0  0  0  0  0  0  0  0  0
    5.0857    3.3830    0.0000 C   0  0  0  0  0  0  0  0  0  0  0  0
    7.4444   -0.1231    0.0000 H   0  0  0  0  0  0  0  0  0  0  0  0
    3.7320   -1.6237    0.0000 H   0  0  0  0  0  0  0  0  0  0  0  0
    7.4572    1.5426    0.0000 H   0  0  0  0  0  0  0  0  0  0  0  0
    7.4444   -1.5044    0.0000 H   0  0  0  0  0  0  0  0  0  0  0  0
    3.6362    1.4281    0.0000 H   0  0  0  0  0  0  0  0  0  0  0  0
    4.5785   -3.1590    0.0000 H   0  0  0  0  0  0  0  0  0  0  0  0
    6.5635    3.1484    0.0000 H   0  0  0  0  0  0  0  0  0  0  0  0
    7.4572   -3.1701    0.0000 H   0  0  0  0  0  0  0  0  0  0  0  0
    3.6098    3.1370    0.0000 H   0  0  0  0  0  0  0  0  0  0  0  0
    6.0146   -4.0030    0.0000 H   0  0  0  0  0  0  0  0  0  0  0  0
    5.0833    4.0030    0.0000 H   0  0  0  0  0  0  0  0  0  0  0  0
    2.0000   -0.0037    0.0000 H   0  0  0  0  0  0  0  0  0  0  0  0
  1 19  1  0  0  0  0
  1 33  1  0  0  0  0
  2 19  2  0  0  0  0
  3  4  2  0  0  0  0
  3  6  1  0  0  0  0
  3  7  1  0  0  0  0
  4  5  1  0  0  0  0
  4 10  1  0  0  0  0
  5  8  1  0  0  0  0
  5 13  2  0  0  0  0
  6  9  1  0  0  0  0
  6 14  2  0  0  0  0
  7 11  2  0  0  0  0
  7 19  1  0  0  0  0
  8 11  1  0  0  0  0
  8 15  2  0  0  0  0
  9 12  1  0  0  0  0
  9 16  2  0  0  0  0
 10 12  2  0  0  0  0
 10 22  1  0  0  0  0
 11 23  1  0  0  0  0
 12 24  1  0  0  0  0
 13 17  1  0  0  0  0
 13 25  1  0  0  0  0
 14 18  1  0  0  0  0
 14 26  1  0  0  0  0
 15 20  1  0  0  0  0
 15 27  1  0  0  0  0
 16 21  1  0  0  0  0
 16 28  1  0  0  0  0
 17 20  2  0  0  0  0
 17 29  1  0  0  0  0
 18 21  2  0  0  0  0
 18 30  1  0  0  0  0
 20 31  1  0  0  0  0
 21 32  1  0  0  0  0
M  END
> <PUBCHEM_COMPOUND_CID>
9543342

> <PUBCHEM_COMPOUND_CANONICALIZED>
1

> <PUBCHEM_CACTVS_COMPLEXITY>
404

> <PUBCHEM_CACTVS_HBOND_ACCEPTOR>
2

> <PUBCHEM_CACTVS_HBOND_DONOR>
1

> <PUBCHEM_CACTVS_ROTATABLE_BOND>
1

> <PUBCHEM_CACTVS_SUBSKEYS>
AAADccB4MAAAAAAAAAAAAAAAAAAAAAAAAAAwYMGAAAAAAADBVAAAGgAACAAADACAmAAwCMAAAgCIAiDSCAACAAAkAAAIiAEACMgIJjKAFRCAcQAkwAEImYeIyPCOwAACAAAQAACAAAQAACAAAAAAAAAAAA==

> <PUBCHEM_IUPAC_OPENEYE_NAME>
chrysene-5-carboxylic acid

> <PUBCHEM_IUPAC_CAS_NAME>
5-chrysenecarboxylic acid

> <PUBCHEM_IUPAC_NAME>
chrysene-5-carboxylic acid

> <PUBCHEM_IUPAC_SYSTEMATIC_NAME>
chrysene-5-carboxylic acid

> <PUBCHEM_IUPAC_TRADITIONAL_NAME>
chrysene-5-carboxylic acid

> <PUBCHEM_IUPAC_INCHI>
InChI=1S/C19H12O2/c20-19(21)17-11-13-6-2-3-7-14(13)16-10-9-12-5-1-4-8-15(12)18(16)17/h1-11H,(H,20,21)

> <PUBCHEM_IUPAC_INCHIKEY>
IWNPACVXSUBITM-UHFFFAOYSA-N

> <PUBCHEM_XLOGP3_AA>
5.2

> <PUBCHEM_EXACT_MASS>
272.08373

> <PUBCHEM_MOLECULAR_FORMULA>
C19H12O2

> <PUBCHEM_MOLECULAR_WEIGHT>
272.29738

> <PUBCHEM_OPENEYE_CAN_SMILES>
C1=CC=C2C(=C1)C=CC3=C2C(=CC4=CC=CC=C34)C(=O)O

> <PUBCHEM_OPENEYE_ISO_SMILES>
C1=CC=C2C(=C1)C=CC3=C2C(=CC4=CC=CC=C34)C(=O)O

> <PUBCHEM_CACTVS_TPSA>
37.3

> <PUBCHEM_MONOISOTOPIC_WEIGHT>
272.08373

> <PUBCHEM_TOTAL_CHARGE>
0

> <PUBCHEM_HEAVY_ATOM_COUNT>
21

> <PUBCHEM_ATOM_DEF_STEREO_COUNT>
0

> <PUBCHEM_ATOM_UDEF_STEREO_COUNT>
0

> <PUBCHEM_BOND_DEF_STEREO_COUNT>
0

> <PUBCHEM_BOND_UDEF_STEREO_COUNT>
0

> <PUBCHEM_ISOTOPIC_ATOM_COUNT>
0

> <PUBCHEM_COMPONENT_COUNT>
1

> <PUBCHEM_CACTVS_TAUTO_COUNT>
1

> <PUBCHEM_COORDINATE_TYPE>
1
5
255

> <PUBCHEM_BONDANNOTATIONS>
10  12  8
13  17  8
14  18  8
15  20  8
16  21  8
17  20  8
18  21  8
3  4  8
3  6  8
3  7  8
4  10  8
4  5  8
5  13  8
5  8  8
6  14  8
6  9  8
7  11  8
8  11  8
8  15  8
9  12  8
9  16  8

$$$$

