448799
  -OEChem-07051213023D

 73 75  0     1  0  0  0  0  0999 V2000
    7.3474    0.7458   -1.0362 S   0  0  0  0  0  0  0  0  0  0  0  0
    0.0969   -5.0371   -0.5061 O   0  0  0  0  0  0  0  0  0  0  0  0
    0.5947   -1.0297    0.4075 O   0  0  0  0  0  0  0  0  0  0  0  0
   -5.8154   -0.0565   -1.5558 O   0  0  0  0  0  0  0  0  0  0  0  0
   -1.0082    2.7594    2.1614 O   0  0  0  0  0  0  0  0  0  0  0  0
   -3.7444    2.3901    1.2006 O   0  0  0  0  0  0  0  0  0  0  0  0
    1.1927    0.2883    2.2104 O   0  0  0  0  0  0  0  0  0  0  0  0
    5.1736    1.4264    0.1861 N   0  0  0  0  0  0  0  0  0  0  0  0
   -0.8090   -4.2136    0.2430 C   0  0  1  0  0  0  0  0  0  0  0  0
    0.6986   -4.0744    0.3715 C   0  0  2  0  0  0  0  0  0  0  0  0
   -1.6827   -3.3426   -0.6071 C   0  0  0  0  0  0  0  0  0  0  0  0
    1.5638   -3.0872   -0.3539 C   0  0  0  0  0  0  0  0  0  0  0  0
   -2.6988   -2.5855    0.2552 C   0  0  0  0  0  0  0  0  0  0  0  0
   -4.4154   -0.6774    0.3122 C   0  0  1  0  0  0  0  0  0  0  0  0
   -3.5289   -1.5911   -0.5684 C   0  0  0  0  0  0  0  0  0  0  0  0
   -5.0585    0.4981   -0.4766 C   0  0  1  0  0  0  0  0  0  0  0  0
    1.8016   -1.8165    0.4709 C   0  0  1  0  0  0  0  0  0  0  0  0
   -4.0568    1.5486   -1.0290 C   0  0  2  0  0  0  0  0  0  0  0  0
   -1.7881    2.7093   -0.1875 C   0  0  0  0  0  0  0  0  0  0  0  0
   -3.2342    2.2066    0.0889 C   0  0  0  0  0  0  0  0  0  0  0  0
   -0.8091    2.1335    0.8911 C   0  0  2  0  0  0  0  0  0  0  0  0
   -5.5219   -1.5004    0.9929 C   0  0  0  0  0  0  0  0  0  0  0  0
    2.9341   -1.0310   -0.1126 C   0  0  0  0  0  0  0  0  0  0  0  0
   -4.7877    2.6603   -1.7911 C   0  0  0  0  0  0  0  0  0  0  0  0
   -0.9260    0.6178    1.0824 C   0  0  0  0  0  0  0  0  0  0  0  0
   -1.8249    4.2495   -0.1021 C   0  0  0  0  0  0  0  0  0  0  0  0
   -1.2466    2.3346   -1.5809 C   0  0  0  0  0  0  0  0  0  0  0  0
    0.4151   -0.0339    1.3231 C   0  0  0  0  0  0  0  0  0  0  0  0
    2.7181   -0.6037   -1.5408 C   0  0  0  0  0  0  0  0  0  0  0  0
    4.0625   -0.6839    0.5388 C   0  0  0  0  0  0  0  0  0  0  0  0
    5.1786    0.0657    0.0330 C   0  0  0  0  0  0  0  0  0  0  0  0
    6.2516   -0.4977   -0.5953 C   0  0  0  0  0  0  0  0  0  0  0  0
    6.2796    1.8980   -0.3454 C   0  0  0  0  0  0  0  0  0  0  0  0
    6.6477    3.3304   -0.3804 C   0  0  0  0  0  0  0  0  0  0  0  0
   -1.3496   -4.7083    1.0405 H   0  0  0  0  0  0  0  0  0  0  0  0
    1.1642   -4.4505    1.2744 H   0  0  0  0  0  0  0  0  0  0  0  0
   -2.2224   -3.9714   -1.3254 H   0  0  0  0  0  0  0  0  0  0  0  0
   -1.0894   -2.6319   -1.1899 H   0  0  0  0  0  0  0  0  0  0  0  0
    1.1152   -2.8469   -1.3248 H   0  0  0  0  0  0  0  0  0  0  0  0
    2.5203   -3.5866   -0.5564 H   0  0  0  0  0  0  0  0  0  0  0  0
   -2.1707   -2.0565    1.0564 H   0  0  0  0  0  0  0  0  0  0  0  0
   -3.3587   -3.3119    0.7436 H   0  0  0  0  0  0  0  0  0  0  0  0
   -3.7985   -0.2562    1.1132 H   0  0  0  0  0  0  0  0  0  0  0  0
   -2.8424   -0.9807   -1.1626 H   0  0  0  0  0  0  0  0  0  0  0  0
   -4.1475   -2.1496   -1.2815 H   0  0  0  0  0  0  0  0  0  0  0  0
   -5.7750    1.0090    0.1789 H   0  0  0  0  0  0  0  0  0  0  0  0
    1.9987   -2.0858    1.5166 H   0  0  0  0  0  0  0  0  0  0  0  0
   -3.3973    1.0423   -1.7354 H   0  0  0  0  0  0  0  0  0  0  0  0
    0.2158    2.3934    0.5979 H   0  0  0  0  0  0  0  0  0  0  0  0
   -6.1329   -2.0375    0.2599 H   0  0  0  0  0  0  0  0  0  0  0  0
   -6.1844   -0.8522    1.5767 H   0  0  0  0  0  0  0  0  0  0  0  0
   -5.1018   -2.2342    1.6873 H   0  0  0  0  0  0  0  0  0  0  0  0
   -5.3368    2.2579   -2.6483 H   0  0  0  0  0  0  0  0  0  0  0  0
   -4.0912    3.4130   -2.1716 H   0  0  0  0  0  0  0  0  0  0  0  0
   -5.5024    3.1777   -1.1413 H   0  0  0  0  0  0  0  0  0  0  0  0
   -1.3528    0.1573    0.1893 H   0  0  0  0  0  0  0  0  0  0  0  0
   -1.5690    0.3551    1.9297 H   0  0  0  0  0  0  0  0  0  0  0  0
   -2.4478    4.6744   -0.8971 H   0  0  0  0  0  0  0  0  0  0  0  0
   -0.8200    4.6749   -0.2011 H   0  0  0  0  0  0  0  0  0  0  0  0
   -2.2452    4.5986    0.8477 H   0  0  0  0  0  0  0  0  0  0  0  0
   -1.1970    1.2519   -1.7324 H   0  0  0  0  0  0  0  0  0  0  0  0
   -0.2323    2.7260   -1.7238 H   0  0  0  0  0  0  0  0  0  0  0  0
   -1.8633    2.7518   -2.3835 H   0  0  0  0  0  0  0  0  0  0  0  0
   -5.1934   -0.3510   -2.2423 H   0  0  0  0  0  0  0  0  0  0  0  0
    1.7302   -0.1501   -1.6734 H   0  0  0  0  0  0  0  0  0  0  0  0
    3.4389    0.1440   -1.8856 H   0  0  0  0  0  0  0  0  0  0  0  0
    2.7994   -1.4600   -2.2180 H   0  0  0  0  0  0  0  0  0  0  0  0
    4.1608   -1.0044    1.5745 H   0  0  0  0  0  0  0  0  0  0  0  0
   -1.9196    2.5759    2.4457 H   0  0  0  0  0  0  0  0  0  0  0  0
    6.4553   -1.5359   -0.8181 H   0  0  0  0  0  0  0  0  0  0  0  0
    5.8710    3.9379    0.0956 H   0  0  0  0  0  0  0  0  0  0  0  0
    7.5853    3.5086    0.1561 H   0  0  0  0  0  0  0  0  0  0  0  0
    6.7608    3.6822   -1.4109 H   0  0  0  0  0  0  0  0  0  0  0  0
  1 32  1  0  0  0  0
  1 33  1  0  0  0  0
  2  9  1  0  0  0  0
  2 10  1  0  0  0  0
  3 17  1  0  0  0  0
  3 28  1  0  0  0  0
  4 16  1  0  0  0  0
  4 64  1  0  0  0  0
  5 21  1  0  0  0  0
  5 69  1  0  0  0  0
  6 20  2  0  0  0  0
  7 28  2  0  0  0  0
  8 31  1  0  0  0  0
  8 33  2  0  0  0  0
  9 10  1  0  0  0  0
  9 11  1  0  0  0  0
  9 35  1  0  0  0  0
 10 12  1  0  0  0  0
 10 36  1  0  0  0  0
 11 13  1  0  0  0  0
 11 37  1  0  0  0  0
 11 38  1  0  0  0  0
 12 17  1  0  0  0  0
 12 39  1  0  0  0  0
 12 40  1  0  0  0  0
 13 15  1  0  0  0  0
 13 41  1  0  0  0  0
 13 42  1  0  0  0  0
 14 15  1  0  0  0  0
 14 16  1  0  0  0  0
 14 22  1  0  0  0  0
 14 43  1  0  0  0  0
 15 44  1  0  0  0  0
 15 45  1  0  0  0  0
 16 18  1  0  0  0  0
 16 46  1  0  0  0  0
 17 23  1  0  0  0  0
 17 47  1  0  0  0  0
 18 20  1  0  0  0  0
 18 24  1  0  0  0  0
 18 48  1  0  0  0  0
 19 20  1  0  0  0  0
 19 21  1  0  0  0  0
 19 26  1  0  0  0  0
 19 27  1  0  0  0  0
 21 25  1  0  0  0  0
 21 49  1  0  0  0  0
 22 50  1  0  0  0  0
 22 51  1  0  0  0  0
 22 52  1  0  0  0  0
 23 29  1  0  0  0  0
 23 30  2  0  0  0  0
 24 53  1  0  0  0  0
 24 54  1  0  0  0  0
 24 55  1  0  0  0  0
 25 28  1  0  0  0  0
 25 56  1  0  0  0  0
 25 57  1  0  0  0  0
 26 58  1  0  0  0  0
 26 59  1  0  0  0  0
 26 60  1  0  0  0  0
 27 61  1  0  0  0  0
 27 62  1  0  0  0  0
 27 63  1  0  0  0  0
 29 65  1  0  0  0  0
 29 66  1  0  0  0  0
 29 67  1  0  0  0  0
 30 31  1  0  0  0  0
 30 68  1  0  0  0  0
 31 32  2  0  0  0  0
 32 70  1  0  0  0  0
 33 34  1  0  0  0  0
 34 71  1  0  0  0  0
 34 72  1  0  0  0  0
 34 73  1  0  0  0  0
M  END
> <PUBCHEM_COMPOUND_CID>
448799

> <PUBCHEM_CONFORMER_RMSD>
0.8

> <PUBCHEM_CONFORMER_DIVERSEORDER>
2
97
17
132
44
61
108
49
20
139
91
16
120
25
127
154
116
12
95
113
150
126
5
149
69
100
130
72
123
24
76
140
117
134
141
19
84
74
118
6
28
93
124
133
26
138
90
18
122
66
155
89
15
63
50
68
96
57
152
98
109
151
86
47
153
32
121
87
125
11
129
36
73
94
71
22
77
88
142
115
4
52
101
35
156
29
119
43
99
107
85
9
75
64
70
41
45
105
135
3
145
131
147
67
58
10
23
102
104
38
92
106
55
14
53
48
62
103
146
112
39
78
114
42
128
81
65
8
30
31
46
1
56
34
148
51
37
111
21
136
110
13
54
59
7
79
33
83
144
82
27
137
40
80
60
143

> <PUBCHEM_MMFF94_PARTIAL_CHARGES>
33
1 -0.08
10 -0.05
11 0.09
12 0.09
16 0.28
17 0.42
18 0.06
19 0.06
2 -0.3
20 0.45
21 0.28
23 -0.28
25 0.06
28 0.66
29 0.14
3 -0.43
30 -0.1
31 0.18
32 -0.11
33 0.2
34 0.18
35 0.1
36 0.1
4 -0.68
5 -0.68
6 -0.57
64 0.4
68 0.15
69 0.4
7 -0.57
70 0.15
8 -0.57
9 -0.05

> <PUBCHEM_EFFECTIVE_ROTOR_COUNT>
4.6

> <PUBCHEM_PHARMACOPHORE_FEATURES>
11
1 2 acceptor
1 29 hydrophobe
1 4 acceptor
1 4 donor
1 5 acceptor
1 5 donor
1 6 acceptor
1 7 acceptor
1 8 acceptor
3 19 26 27 hydrophobe
5 1 8 31 32 33 rings

> <PUBCHEM_HEAVY_ATOM_COUNT>
34

> <PUBCHEM_ATOM_DEF_STEREO_COUNT>
7

> <PUBCHEM_ATOM_UDEF_STEREO_COUNT>
0

> <PUBCHEM_BOND_DEF_STEREO_COUNT>
1

> <PUBCHEM_BOND_UDEF_STEREO_COUNT>
0

> <PUBCHEM_ISOTOPIC_ATOM_COUNT>
0

> <PUBCHEM_COMPONENT_COUNT>
1

> <PUBCHEM_CACTVS_TAUTO_COUNT>
2

> <PUBCHEM_CONFORMER_ID>
0006D91F00000002

> <PUBCHEM_MMFF94_ENERGY>
76.1326

> <PUBCHEM_FEATURE_SELFOVERLAP>
55.82

> <PUBCHEM_SHAPE_FINGERPRINT>
12788726 201 18335423478085319586
13165053 103 15939468989396866190
13165054 49 17839191714618388026
13347071 3 18050561847248801268
13726171 33 18342173427503260993
13911987 19 18409453591772496609
13947920 24 18411138030390137537
14068700 686 18340206409363524469
14114211 80 18114455760660827051
14251757 5 18338238146074006418
14394314 77 18337947987486170041
14765038 42 18041542729216733731
14790565 3 18410574028507461930
14930077 153 18056468449377347348
14932702 115 18118392943911053176
15328829 1 17845116055294357890
15575132 122 18342738515970034886
16992787 43 18338238271730559277
17899979 19 18342177714238902535
19611394 137 17842545250795834603
19958102 18 18335974342464902566
20511986 3 17703802434997837476
20764821 26 18119282586235577019
21792964 463 17415551022855965956
21795232 40 18129959892287090789
23559900 14 17903656411434418827
3493558 16 18054504700008682964
469060 322 18268689711170429867
50150288 127 16662317640952164545
5171179 24 17608381133523539602
5265222 85 18412270519373489189
5283173 99 18265331716833974714
550186 7 18261946350501885358
6036956 94 18267586982517762077

> <PUBCHEM_SHAPE_MULTIPOLES>
663.36
15.09
5.82
1.45
20.76
3.32
-0.18
-9.38
4.61
-2.52
0.44
-0.83
-0.76
0.43

> <PUBCHEM_SHAPE_SELFOVERLAP>
1342.596

> <PUBCHEM_SHAPE_VOLUME>
391

> <PUBCHEM_COORDINATE_TYPE>
2
5
10

$$$$

