6440935
  -OEChem-07051213092D

 43 42  0     0  0  0  0  0  0999 V2000
    5.4641   -1.5600    0.0000 O   0  0  0  0  0  0  0  0  0  0  0  0
    3.7320   -1.5600    0.0000 N   0  0  0  0  0  0  0  0  0  0  0  0
    2.8660   -3.0600    0.0000 C   0  0  0  0  0  0  0  0  0  0  0  0
    3.7320   -2.5600    0.0000 C   0  0  0  0  0  0  0  0  0  0  0  0
    2.8660   -4.0600    0.0000 C   0  0  0  0  0  0  0  0  0  0  0  0
    2.0000   -2.5600    0.0000 C   0  0  0  0  0  0  0  0  0  0  0  0
    4.5981   -1.0600    0.0000 C   0  0  0  0  0  0  0  0  0  0  0  0
    5.4641    1.4400    0.0000 C   0  0  0  0  0  0  0  0  0  0  0  0
    6.3301    1.9400    0.0000 C   0  0  0  0  0  0  0  0  0  0  0  0
    4.5981   -0.0600    0.0000 C   0  0  0  0  0  0  0  0  0  0  0  0
    5.4641    0.4400    0.0000 C   0  0  0  0  0  0  0  0  0  0  0  0
    6.3301    2.9400    0.0000 C   0  0  0  0  0  0  0  0  0  0  0  0
    7.1962    3.4400    0.0000 C   0  0  0  0  0  0  0  0  0  0  0  0
    8.0622    2.9400    0.0000 C   0  0  0  0  0  0  0  0  0  0  0  0
    8.9282    3.4400    0.0000 C   0  0  0  0  0  0  0  0  0  0  0  0
    9.7942    2.9400    0.0000 C   0  0  0  0  0  0  0  0  0  0  0  0
   10.6603    3.4400    0.0000 C   0  0  0  0  0  0  0  0  0  0  0  0
   11.5263    2.9400    0.0000 C   0  0  0  0  0  0  0  0  0  0  0  0
    2.8660   -2.4400    0.0000 H   0  0  0  0  0  0  0  0  0  0  0  0
    3.9441   -3.1426    0.0000 H   0  0  0  0  0  0  0  0  0  0  0  0
    4.3426   -2.4523    0.0000 H   0  0  0  0  0  0  0  0  0  0  0  0
    2.2460   -4.0600    0.0000 H   0  0  0  0  0  0  0  0  0  0  0  0
    2.8660   -4.6800    0.0000 H   0  0  0  0  0  0  0  0  0  0  0  0
    3.4860   -4.0600    0.0000 H   0  0  0  0  0  0  0  0  0  0  0  0
    2.3100   -2.0231    0.0000 H   0  0  0  0  0  0  0  0  0  0  0  0
    1.4631   -2.2500    0.0000 H   0  0  0  0  0  0  0  0  0  0  0  0
    1.6900   -3.0969    0.0000 H   0  0  0  0  0  0  0  0  0  0  0  0
    3.1951   -1.2500    0.0000 H   0  0  0  0  0  0  0  0  0  0  0  0
    5.2520    2.0226    0.0000 H   0  0  0  0  0  0  0  0  0  0  0  0
    4.8535    1.3323    0.0000 H   0  0  0  0  0  0  0  0  0  0  0  0
    6.5422    1.3574    0.0000 H   0  0  0  0  0  0  0  0  0  0  0  0
    6.9407    2.0477    0.0000 H   0  0  0  0  0  0  0  0  0  0  0  0
    4.0611    0.2500    0.0000 H   0  0  0  0  0  0  0  0  0  0  0  0
    6.0010    0.1300    0.0000 H   0  0  0  0  0  0  0  0  0  0  0  0
    5.7932    3.2500    0.0000 H   0  0  0  0  0  0  0  0  0  0  0  0
    7.1962    4.0600    0.0000 H   0  0  0  0  0  0  0  0  0  0  0  0
    8.0622    2.3200    0.0000 H   0  0  0  0  0  0  0  0  0  0  0  0
    8.9282    4.0600    0.0000 H   0  0  0  0  0  0  0  0  0  0  0  0
    9.7942    2.3200    0.0000 H   0  0  0  0  0  0  0  0  0  0  0  0
   10.6603    4.0600    0.0000 H   0  0  0  0  0  0  0  0  0  0  0  0
   11.2163    2.4031    0.0000 H   0  0  0  0  0  0  0  0  0  0  0  0
   12.0632    2.6300    0.0000 H   0  0  0  0  0  0  0  0  0  0  0  0
   11.8363    3.4769    0.0000 H   0  0  0  0  0  0  0  0  0  0  0  0
  1  7  2  0  0  0  0
  2  4  1  0  0  0  0
  2  7  1  0  0  0  0
  2 28  1  0  0  0  0
  3  4  1  0  0  0  0
  3  5  1  0  0  0  0
  3  6  1  0  0  0  0
  3 19  1  0  0  0  0
  4 20  1  0  0  0  0
  4 21  1  0  0  0  0
  5 22  1  0  0  0  0
  5 23  1  0  0  0  0
  5 24  1  0  0  0  0
  6 25  1  0  0  0  0
  6 26  1  0  0  0  0
  6 27  1  0  0  0  0
  7 10  1  0  0  0  0
  8  9  1  0  0  0  0
  8 11  1  0  0  0  0
  8 29  1  0  0  0  0
  8 30  1  0  0  0  0
  9 12  1  0  0  0  0
  9 31  1  0  0  0  0
  9 32  1  0  0  0  0
 10 11  2  0  0  0  0
 10 33  1  0  0  0  0
 11 34  1  0  0  0  0
 12 13  2  0  0  0  0
 12 35  1  0  0  0  0
 13 14  1  0  0  0  0
 13 36  1  0  0  0  0
 14 15  2  0  0  0  0
 14 37  1  0  0  0  0
 15 16  1  0  0  0  0
 15 38  1  0  0  0  0
 16 17  2  0  0  0  0
 16 39  1  0  0  0  0
 17 18  1  0  0  0  0
 17 40  1  0  0  0  0
 18 41  1  0  0  0  0
 18 42  1  0  0  0  0
 18 43  1  0  0  0  0
M  END
> <PUBCHEM_COMPOUND_CID>
6440935

> <PUBCHEM_COMPOUND_CANONICALIZED>
1

> <PUBCHEM_CACTVS_COMPLEXITY>
322

> <PUBCHEM_CACTVS_HBOND_ACCEPTOR>
1

> <PUBCHEM_CACTVS_HBOND_DONOR>
1

> <PUBCHEM_CACTVS_ROTATABLE_BOND>
8

> <PUBCHEM_CACTVS_SUBSKEYS>
AAADceB6IAAAAAAAAAAAAAAAAAAAAAAAAAAAAAAAAAAAAAAAAAAAHgAQAAAADQDBgAQCAALAAACIACFSEACAAAAgAAAICIAIAEgIAAAAAQAEAAAAlgCIgYIAAAAAAAAAAAAAAAAAAAAAAAAAAAAAAAAAAA==

> <PUBCHEM_IUPAC_OPENEYE_NAME>
(2E,6Z,8E,10E)-N-isobutyldodeca-2,6,8,10-tetraenamide

> <PUBCHEM_IUPAC_CAS_NAME>
(2E,6Z,8E,10E)-N-(2-methylpropyl)dodeca-2,6,8,10-tetraenamide

> <PUBCHEM_IUPAC_NAME>
(2E,6Z,8E,10E)-N-(2-methylpropyl)dodeca-2,6,8,10-tetraenamide

> <PUBCHEM_IUPAC_SYSTEMATIC_NAME>
(2E,6Z,8E,10E)-N-(2-methylpropyl)dodeca-2,6,8,10-tetraenamide

> <PUBCHEM_IUPAC_TRADITIONAL_NAME>
(2E,6Z,8E,10E)-N-isobutyldodeca-2,6,8,10-tetraenamide

> <PUBCHEM_IUPAC_INCHI>
InChI=1S/C16H25NO/c1-4-5-6-7-8-9-10-11-12-13-16(18)17-14-15(2)3/h4-9,12-13,15H,10-11,14H2,1-3H3,(H,17,18)/b5-4+,7-6+,9-8-,13-12+

> <PUBCHEM_IUPAC_INCHIKEY>
SBXYHCVXUCYYJT-UEOYEZOQSA-N

> <PUBCHEM_XLOGP3_AA>
4.2

> <PUBCHEM_EXACT_MASS>
247.193614

> <PUBCHEM_MOLECULAR_FORMULA>
C16H25NO

> <PUBCHEM_MOLECULAR_WEIGHT>
247.3758

> <PUBCHEM_OPENEYE_CAN_SMILES>
CC=CC=CC=CCCC=CC(=O)NCC(C)C

> <PUBCHEM_OPENEYE_ISO_SMILES>
C/C=C/C=C/C=C\CC/C=C/C(=O)NCC(C)C

> <PUBCHEM_CACTVS_TPSA>
29.1

> <PUBCHEM_MONOISOTOPIC_WEIGHT>
247.193614

> <PUBCHEM_TOTAL_CHARGE>
0

> <PUBCHEM_HEAVY_ATOM_COUNT>
18

> <PUBCHEM_ATOM_DEF_STEREO_COUNT>
0

> <PUBCHEM_ATOM_UDEF_STEREO_COUNT>
0

> <PUBCHEM_BOND_DEF_STEREO_COUNT>
4

> <PUBCHEM_BOND_UDEF_STEREO_COUNT>
0

> <PUBCHEM_ISOTOPIC_ATOM_COUNT>
0

> <PUBCHEM_COMPONENT_COUNT>
1

> <PUBCHEM_CACTVS_TAUTO_COUNT>
2

> <PUBCHEM_COORDINATE_TYPE>
1
5
255

$$$$

