443355
  -OEChem-07051213022D

 53 56  0     1  0  0  0  0  0999 V2000
    7.4563    4.4826    0.0000 O   0  0  0  0  0  0  0  0  0  0  0  0
   10.0248    2.7411    0.0000 O   0  0  0  0  0  0  0  0  0  0  0  0
    7.4419   -0.1394    0.0000 O   0  0  0  0  0  0  0  0  0  0  0  0
    5.6858   -0.3620    0.0000 O   0  0  0  0  0  0  0  0  0  0  0  0
   10.2660    0.9092    0.0000 O   0  0  0  0  0  0  0  0  0  0  0  0
    8.4761   -1.5288    0.0000 O   0  0  0  0  0  0  0  0  0  0  0  0
    5.8376   -1.3336    0.0000 O   0  0  0  0  0  0  0  0  0  0  0  0
    6.0696   -3.3201    0.0000 O   0  0  0  0  0  0  0  0  0  0  0  0
    7.9060   -4.1124    0.0000 O   0  0  0  0  0  0  0  0  0  0  0  0
    2.9088    0.9373    0.0000 O   0  0  0  0  0  0  0  0  0  0  0  0
    3.6315    2.5114    0.0000 O   0  0  0  0  0  0  0  0  0  0  0  0
    9.6264   -3.9114    0.0000 O   0  0  0  0  0  0  0  0  0  0  0  0
    6.3989    1.2909    0.0000 C   0  0  1  0  0  0  0  0  0  0  0  0
    5.4854    1.6976    0.0000 C   0  0  2  0  0  0  0  0  0  0  0  0
    7.9341    2.5340    0.0000 C   0  0  1  0  0  0  0  0  0  0  0  0
    5.5899    2.6922    0.0000 C   0  0  0  0  0  0  0  0  0  0  0  0
    8.1929    3.5000    0.0000 C   0  0  1  0  0  0  0  0  0  0  0  0
    6.5237    0.2568    0.0000 C   0  0  2  0  0  0  0  0  0  0  0  0
    9.7660    1.7752    0.0000 C   0  0  1  0  0  0  0  0  0  0  0  0
    4.6333    1.0984    0.0000 C   0  0  0  0  0  0  0  0  0  0  0  0
    7.5580   -1.1326    0.0000 C   0  0  2  0  0  0  0  0  0  0  0  0
    4.7342    0.0617    0.0000 C   0  0  0  0  0  0  0  0  0  0  0  0
    6.7558   -1.7297    0.0000 C   0  0  1  0  0  0  0  0  0  0  0  0
    6.8718   -2.7230    0.0000 C   0  0  2  0  0  0  0  0  0  0  0  0
    7.7900   -3.1191    0.0000 C   0  0  1  0  0  0  0  0  0  0  0  0
    8.5922   -2.5220    0.0000 C   0  0  1  0  0  0  0  0  0  0  0  0
    3.7245    1.5157    0.0000 C   0  0  0  0  0  0  0  0  0  0  0  0
    9.5104   -2.9182    0.0000 C   0  0  0  0  0  0  0  0  0  0  0  0
    2.0000    1.3546    0.0000 C   0  0  0  0  0  0  0  0  0  0  0  0
    7.1754    0.9452    0.0000 H   0  0  0  0  0  0  0  0  0  0  0  0
    4.7088    2.0434    0.0000 H   0  0  0  0  0  0  0  0  0  0  0  0
    7.7141    1.7130    0.0000 H   0  0  0  0  0  0  0  0  0  0  0  0
    5.4876    3.3036    0.0000 H   0  0  0  0  0  0  0  0  0  0  0  0
    4.9702    2.6732    0.0000 H   0  0  0  0  0  0  0  0  0  0  0  0
    8.4129    4.3210    0.0000 H   0  0  0  0  0  0  0  0  0  0  0  0
    6.5945   -0.3592    0.0000 H   0  0  0  0  0  0  0  0  0  0  0  0
    9.3572    1.3091    0.0000 H   0  0  0  0  0  0  0  0  0  0  0  0
    6.9887   -0.8870    0.0000 H   0  0  0  0  0  0  0  0  0  0  0  0
    4.2312   -0.3008    0.0000 H   0  0  0  0  0  0  0  0  0  0  0  0
    6.6838   -1.1139    0.0000 H   0  0  0  0  0  0  0  0  0  0  0  0
    6.9437   -3.3388    0.0000 H   0  0  0  0  0  0  0  0  0  0  0  0
    8.3593   -3.3647    0.0000 H   0  0  0  0  0  0  0  0  0  0  0  0
    9.0895   -2.1518    0.0000 H   0  0  0  0  0  0  0  0  0  0  0  0
   10.8860    0.9092    0.0000 H   0  0  0  0  0  0  0  0  0  0  0  0
   10.1293   -2.9543    0.0000 H   0  0  0  0  0  0  0  0  0  0  0  0
    9.6534   -2.3149    0.0000 H   0  0  0  0  0  0  0  0  0  0  0  0
    5.3402   -1.7038    0.0000 H   0  0  0  0  0  0  0  0  0  0  0  0
    6.1416   -3.9359    0.0000 H   0  0  0  0  0  0  0  0  0  0  0  0
    7.4087   -4.4826    0.0000 H   0  0  0  0  0  0  0  0  0  0  0  0
   10.1956   -4.1570    0.0000 H   0  0  0  0  0  0  0  0  0  0  0  0
    2.2587    1.9180    0.0000 H   0  0  0  0  0  0  0  0  0  0  0  0
    1.4366    1.6133    0.0000 H   0  0  0  0  0  0  0  0  0  0  0  0
    1.7413    0.7911    0.0000 H   0  0  0  0  0  0  0  0  0  0  0  0
  1 15  1  0  0  0  0
  1 17  1  0  0  0  0
  2 17  1  0  0  0  0
  2 19  1  0  0  0  0
 18  3  1  6  0  0  0
 21  3  1  6  0  0  0
  4 18  1  0  0  0  0
  4 22  1  0  0  0  0
 19  5  1  1  0  0  0
  5 44  1  0  0  0  0
  6 21  1  0  0  0  0
  6 26  1  0  0  0  0
 23  7  1  1  0  0  0
  7 47  1  0  0  0  0
 24  8  1  6  0  0  0
  8 48  1  0  0  0  0
 25  9  1  1  0  0  0
  9 49  1  0  0  0  0
 10 27  1  0  0  0  0
 10 29  1  0  0  0  0
 11 27  2  0  0  0  0
 12 28  1  0  0  0  0
 12 50  1  0  0  0  0
 13 14  1  0  0  0  0
 13 15  1  0  0  0  0
 13 18  1  0  0  0  0
 13 30  1  6  0  0  0
 14 16  1  0  0  0  0
 14 20  1  0  0  0  0
 14 31  1  6  0  0  0
 15 19  1  0  0  0  0
 15 32  1  1  0  0  0
 16 17  1  0  0  0  0
 16 33  1  0  0  0  0
 16 34  1  0  0  0  0
 17 35  1  6  0  0  0
 18 36  1  0  0  0  0
 19 37  1  0  0  0  0
 20 22  2  0  0  0  0
 20 27  1  0  0  0  0
 21 23  1  0  0  0  0
 21 38  1  0  0  0  0
 22 39  1  0  0  0  0
 23 24  1  0  0  0  0
 23 40  1  0  0  0  0
 24 25  1  0  0  0  0
 24 41  1  0  0  0  0
 25 26  1  0  0  0  0
 25 42  1  0  0  0  0
 26 28  1  6  0  0  0
 26 43  1  0  0  0  0
 28 45  1  0  0  0  0
 28 46  1  0  0  0  0
 29 51  1  0  0  0  0
 29 52  1  0  0  0  0
 29 53  1  0  0  0  0
M  END
> <PUBCHEM_COMPOUND_CID>
443355

> <PUBCHEM_COMPOUND_CANONICALIZED>
1

> <PUBCHEM_CACTVS_COMPLEXITY>
654

> <PUBCHEM_CACTVS_HBOND_ACCEPTOR>
12

> <PUBCHEM_CACTVS_HBOND_DONOR>
5

> <PUBCHEM_CACTVS_ROTATABLE_BOND>
5

> <PUBCHEM_CACTVS_SUBSKEYS>
AAADceB4PAAAAAAAAAAAAAAAAAAAASAAAAAkSIAABIAAAACAAAAAGgAACAAADRSwgAMCCAAABgCIAgDSCAAACAAgIAAAAAEAAEgRFBIAIQAiQAAFgAAHIIHIbAxOgAAAAAAAAAAAAAAAAAAAAAAAAAAAAA==

> <PUBCHEM_IUPAC_INCHI>
InChI=1S/C17H24O12/c1-24-14(22)6-4-25-16(9-5(6)2-8-27-13(9)15(23)28-8)29-17-12(21)11(20)10(19)7(3-18)26-17/h4-5,7-13,15-21,23H,2-3H2,1H3/t5-,7-,8+,9+,10-,11+,12-,13+,15-,16+,17+/m1/s1

> <PUBCHEM_IUPAC_INCHIKEY>
PSTHWEAXBIXPRZ-LGMONBIRSA-N

> <PUBCHEM_XLOGP3_AA>
-2.4

> <PUBCHEM_EXACT_MASS>
420.126776

> <PUBCHEM_MOLECULAR_FORMULA>
C17H24O12

> <PUBCHEM_MOLECULAR_WEIGHT>
420.36526

> <PUBCHEM_OPENEYE_CAN_SMILES>
COC(=O)C1=COC(C2C1CC3OC2C(O3)O)OC4C(C(C(C(O4)CO)O)O)O

> <PUBCHEM_OPENEYE_ISO_SMILES>
COC(=O)C1=CO[C@H]([C@H]2[C@@H]1C[C@H]3O[C@@H]2[C@@H](O3)O)O[C@H]4[C@@H]([C@H]([C@@H]([C@H](O4)CO)O)O)O

> <PUBCHEM_CACTVS_TPSA>
174

> <PUBCHEM_MONOISOTOPIC_WEIGHT>
420.126776

> <PUBCHEM_TOTAL_CHARGE>
0

> <PUBCHEM_HEAVY_ATOM_COUNT>
29

> <PUBCHEM_ATOM_DEF_STEREO_COUNT>
11

> <PUBCHEM_ATOM_UDEF_STEREO_COUNT>
0

> <PUBCHEM_BOND_DEF_STEREO_COUNT>
0

> <PUBCHEM_BOND_UDEF_STEREO_COUNT>
0

> <PUBCHEM_ISOTOPIC_ATOM_COUNT>
0

> <PUBCHEM_COMPONENT_COUNT>
1

> <PUBCHEM_CACTVS_TAUTO_COUNT>
1

> <PUBCHEM_COORDINATE_TYPE>
1
5
255

> <PUBCHEM_BONDANNOTATIONS>
13  30  6
14  31  6
15  32  5
17  35  6
26  28  6
18  3  6
21  3  6
19  5  5
23  7  5
24  8  6
25  9  5

$$$$

