6444391
  -OEChem-07051213123D

 49 49  0     1  0  0  0  0  0999 V2000
   -7.9578   -2.3687    0.6701 Cl  0  0  0  0  0  0  0  0  0  0  0  0
    5.1023   -1.0860    1.1055 S   0  0  0  0  0  0  0  0  0  0  0  0
   -0.0505    2.7751    1.4819 O   0  0  0  0  0  0  0  0  0  0  0  0
   -0.3500   -0.5602   -1.9015 O   0  0  0  0  0  0  0  0  0  0  0  0
   -3.7759   -0.0086   -0.2470 O   0  0  0  0  0  0  0  0  0  0  0  0
   -2.4253    0.0071   -0.5377 N   0  0  0  0  0  0  0  0  0  0  0  0
    2.5281    0.8286   -0.1768 C   0  0  0  0  0  0  0  0  0  0  0  0
    4.0250    0.9685   -0.4475 C   0  0  0  0  0  0  0  0  0  0  0  0
    1.9515    2.1469    0.3414 C   0  0  0  0  0  0  0  0  0  0  0  0
    1.7933    0.3886   -1.4438 C   0  0  0  0  0  0  0  0  0  0  0  0
    4.7595   -0.3731   -0.5429 C   0  0  1  0  0  0  0  0  0  0  0  0
    0.4751    2.0350    0.6521 C   0  0  0  0  0  0  0  0  0  0  0  0
    0.3107    0.2068   -1.2032 C   0  0  0  0  0  0  0  0  0  0  0  0
   -0.3129    1.0369   -0.1302 C   0  0  0  0  0  0  0  0  0  0  0  0
    6.0820   -0.2078   -1.2881 C   0  0  0  0  0  0  0  0  0  0  0  0
   -1.6156    0.8791    0.1406 C   0  0  0  0  0  0  0  0  0  0  0  0
   -2.2789    1.7044    1.2220 C   0  0  0  0  0  0  0  0  0  0  0  0
    5.2804   -2.8101    0.5998 C   0  0  0  0  0  0  0  0  0  0  0  0
   -2.8503    3.0105    0.6855 C   0  0  0  0  0  0  0  0  0  0  0  0
    5.5822   -3.6886    1.7989 C   0  0  0  0  0  0  0  0  0  0  0  0
   -4.2663   -1.2617   -0.7087 C   0  0  0  0  0  0  0  0  0  0  0  0
   -5.7298   -1.3405   -0.4219 C   0  0  0  0  0  0  0  0  0  0  0  0
   -6.2768   -2.2821    0.3516 C   0  0  0  0  0  0  0  0  0  0  0  0
    2.3643    0.0704    0.6010 H   0  0  0  0  0  0  0  0  0  0  0  0
    4.1562    1.5279   -1.3839 H   0  0  0  0  0  0  0  0  0  0  0  0
    4.4968    1.5865    0.3285 H   0  0  0  0  0  0  0  0  0  0  0  0
    2.4646    2.4307    1.2680 H   0  0  0  0  0  0  0  0  0  0  0  0
    2.0857    2.9544   -0.3875 H   0  0  0  0  0  0  0  0  0  0  0  0
    2.1789   -0.5728   -1.7980 H   0  0  0  0  0  0  0  0  0  0  0  0
    1.9139    1.1220   -2.2497 H   0  0  0  0  0  0  0  0  0  0  0  0
    4.1495   -1.0875   -1.1030 H   0  0  0  0  0  0  0  0  0  0  0  0
    6.7544    0.4866   -0.7711 H   0  0  0  0  0  0  0  0  0  0  0  0
    5.9043    0.1966   -2.2913 H   0  0  0  0  0  0  0  0  0  0  0  0
    6.6078   -1.1579   -1.4228 H   0  0  0  0  0  0  0  0  0  0  0  0
   -3.1348    1.1393    1.6203 H   0  0  0  0  0  0  0  0  0  0  0  0
   -1.7143    1.8111    2.1509 H   0  0  0  0  0  0  0  0  0  0  0  0
    6.0929   -2.9106   -0.1247 H   0  0  0  0  0  0  0  0  0  0  0  0
    4.3522   -3.1485    0.1286 H   0  0  0  0  0  0  0  0  0  0  0  0
   -2.1032   -0.4762   -1.3665 H   0  0  0  0  0  0  0  0  0  0  0  0
   -2.0794    3.6589    0.2588 H   0  0  0  0  0  0  0  0  0  0  0  0
   -3.5990    2.8264   -0.0927 H   0  0  0  0  0  0  0  0  0  0  0  0
   -3.3431    3.5618    1.4932 H   0  0  0  0  0  0  0  0  0  0  0  0
    6.5200   -3.3982    2.2849 H   0  0  0  0  0  0  0  0  0  0  0  0
    4.7776   -3.6472    2.5412 H   0  0  0  0  0  0  0  0  0  0  0  0
    5.6841   -4.7316    1.4809 H   0  0  0  0  0  0  0  0  0  0  0  0
   -4.1205   -1.3442   -1.7931 H   0  0  0  0  0  0  0  0  0  0  0  0
   -3.7225   -2.0785   -0.2169 H   0  0  0  0  0  0  0  0  0  0  0  0
   -6.3614   -0.5845   -0.8821 H   0  0  0  0  0  0  0  0  0  0  0  0
   -5.7205   -3.0691    0.8429 H   0  0  0  0  0  0  0  0  0  0  0  0
  1 23  1  0  0  0  0
  2 11  1  0  0  0  0
  2 18  1  0  0  0  0
  3 12  2  0  0  0  0
  4 13  2  0  0  0  0
  5  6  1  0  0  0  0
  5 21  1  0  0  0  0
  6 16  1  0  0  0  0
  6 39  1  0  0  0  0
  7  8  1  0  0  0  0
  7  9  1  0  0  0  0
  7 10  1  0  0  0  0
  7 24  1  0  0  0  0
  8 11  1  0  0  0  0
  8 25  1  0  0  0  0
  8 26  1  0  0  0  0
  9 12  1  0  0  0  0
  9 27  1  0  0  0  0
  9 28  1  0  0  0  0
 10 13  1  0  0  0  0
 10 29  1  0  0  0  0
 10 30  1  0  0  0  0
 11 15  1  0  0  0  0
 11 31  1  0  0  0  0
 12 14  1  0  0  0  0
 13 14  1  0  0  0  0
 14 16  2  0  0  0  0
 15 32  1  0  0  0  0
 15 33  1  0  0  0  0
 15 34  1  0  0  0  0
 16 17  1  0  0  0  0
 17 19  1  0  0  0  0
 17 35  1  0  0  0  0
 17 36  1  0  0  0  0
 18 20  1  0  0  0  0
 18 37  1  0  0  0  0
 18 38  1  0  0  0  0
 19 40  1  0  0  0  0
 19 41  1  0  0  0  0
 19 42  1  0  0  0  0
 20 43  1  0  0  0  0
 20 44  1  0  0  0  0
 20 45  1  0  0  0  0
 21 22  1  0  0  0  0
 21 46  1  0  0  0  0
 21 47  1  0  0  0  0
 22 23  2  0  0  0  0
 22 48  1  0  0  0  0
 23 49  1  0  0  0  0
M  END
> <PUBCHEM_COMPOUND_CID>
6444391

> <PUBCHEM_CONFORMER_RMSD>
1

> <PUBCHEM_CONFORMER_DIVERSEORDER>
1
39
47
42
53
28
34
54
49
29
60
8
67
68
78
59
37
35
57
23
32
27
24
56
65
66
43
69
79
45
52
30
6
76
75
25
64
21
3
22
55
58
70
40
31
63
33
73
80
51
20
17
74
7
72
44
36
15
61
38
46
5
26
48
4
71
18
14
62
13
16
41
11
2
10
12
19
77
50
9

> <PUBCHEM_MMFF94_PARTIAL_CHARGES>
21
1 -0.14
10 0.06
11 0.23
12 0.49
13 0.49
14 0.03
16 -0.04
17 0.14
18 0.23
2 -0.46
21 0.42
22 -0.29
23 -0.01
3 -0.57
39 0.4
4 -0.57
48 0.15
49 0.15
5 -0.26
6 -0.52
9 0.06

> <PUBCHEM_EFFECTIVE_ROTOR_COUNT>
9.6

> <PUBCHEM_PHARMACOPHORE_FEATURES>
8
1 14 anion
1 15 hydrophobe
1 19 hydrophobe
1 20 hydrophobe
1 3 acceptor
1 4 acceptor
4 2 8 11 18 hydrophobe
6 7 9 10 12 13 14 rings

> <PUBCHEM_HEAVY_ATOM_COUNT>
23

> <PUBCHEM_ATOM_DEF_STEREO_COUNT>
0

> <PUBCHEM_ATOM_UDEF_STEREO_COUNT>
1

> <PUBCHEM_BOND_DEF_STEREO_COUNT>
1

> <PUBCHEM_BOND_UDEF_STEREO_COUNT>
0

> <PUBCHEM_ISOTOPIC_ATOM_COUNT>
0

> <PUBCHEM_COMPONENT_COUNT>
1

> <PUBCHEM_CACTVS_TAUTO_COUNT>
13

> <PUBCHEM_CONFORMER_ID>
0062556700000001

> <PUBCHEM_MMFF94_ENERGY>
54.015

> <PUBCHEM_FEATURE_SELFOVERLAP>
40.747

> <PUBCHEM_SHAPE_FINGERPRINT>
117089 54 18191579959972372782
11809386 21 18411138082304460289
12166972 35 18201434727813979925
12596602 18 18188215407504148130
12839892 36 17968099784597675174
13140716 1 17315360219875074101
13533116 47 18341333310145303346
13540713 4 17097470228248185149
13782708 43 18271815584078999695
13862211 1 17822009762164012077
13955234 65 18047757000785144872
14178342 30 17314208116278332465
14211702 104 18336827601647253782
15475509 35 18411708660156865746
16728300 4 18265624345139523255
17134984 74 17917428692790469418
19841028 212 18130513023940745210
20028762 73 17313667036361738911
21033648 29 15936981850385449192
21150785 3 16845290488665181286
21267235 1 18040986329020009756
21344244 181 17418092083989728467
22182313 1 17023451070916909269
2838139 119 7132440072923108539
33382 64 18201721738676292054
34797466 226 16773517646969888085
3886686 26 17396979536200806314
439807 62 18343582932801147955
465052 167 18261106327263871645
5104073 3 17967533479926785768

> <PUBCHEM_SHAPE_MULTIPOLES>
456.46
17.27
3.67
1.46
15.65
1.5
-0.05
21.7
2.16
-0.47
2.41
-1.14
0.16
-2.35

> <PUBCHEM_SHAPE_SELFOVERLAP>
883.267

> <PUBCHEM_SHAPE_VOLUME>
278.6

> <PUBCHEM_COORDINATE_TYPE>
2
5
10

$$$$

