160814
  -OEChem-07051213112D

 26 29  0     0  0  0  0  0  0999 V2000
    2.0000    1.0000    0.0000 O   0  0  0  0  0  0  0  0  0  0  0  0
    2.0000   -1.0000    0.0000 O   0  0  0  0  0  0  0  0  0  0  0  0
    4.5981   -0.5000    0.0000 C   0  0  0  0  0  0  0  0  0  0  0  0
    4.5981    0.5000    0.0000 C   0  0  0  0  0  0  0  0  0  0  0  0
    3.7320   -1.0000    0.0000 C   0  0  0  0  0  0  0  0  0  0  0  0
    3.7320    1.0000    0.0000 C   0  0  0  0  0  0  0  0  0  0  0  0
    5.4920   -1.0347    0.0000 C   0  0  0  0  0  0  0  0  0  0  0  0
    5.4920    1.0347    0.0000 C   0  0  0  0  0  0  0  0  0  0  0  0
    2.8660   -0.5000    0.0000 C   0  0  0  0  0  0  0  0  0  0  0  0
    2.8660    0.5000    0.0000 C   0  0  0  0  0  0  0  0  0  0  0  0
    6.3981   -0.5208    0.0000 C   0  0  0  0  0  0  0  0  0  0  0  0
    6.3981    0.5208    0.0000 C   0  0  0  0  0  0  0  0  0  0  0  0
    3.7308   -1.9917    0.0000 C   0  0  0  0  0  0  0  0  0  0  0  0
    3.7308    1.9917    0.0000 C   0  0  0  0  0  0  0  0  0  0  0  0
    5.4542   -2.0256    0.0000 C   0  0  0  0  0  0  0  0  0  0  0  0
    5.4542    2.0256    0.0000 C   0  0  0  0  0  0  0  0  0  0  0  0
    4.5828    2.4991    0.0000 C   0  0  0  0  0  0  0  0  0  0  0  0
    4.5828   -2.4991    0.0000 C   0  0  0  0  0  0  0  0  0  0  0  0
    6.9338   -0.8329    0.0000 H   0  0  0  0  0  0  0  0  0  0  0  0
    6.9338    0.8329    0.0000 H   0  0  0  0  0  0  0  0  0  0  0  0
    3.1916   -2.2977    0.0000 H   0  0  0  0  0  0  0  0  0  0  0  0
    3.1916    2.2977    0.0000 H   0  0  0  0  0  0  0  0  0  0  0  0
    5.9810   -2.3527    0.0000 H   0  0  0  0  0  0  0  0  0  0  0  0
    5.9810    2.3527    0.0000 H   0  0  0  0  0  0  0  0  0  0  0  0
    4.5706   -3.1190    0.0000 H   0  0  0  0  0  0  0  0  0  0  0  0
    4.5706    3.1190    0.0000 H   0  0  0  0  0  0  0  0  0  0  0  0
  1 10  2  0  0  0  0
  2  9  2  0  0  0  0
  3  4  1  0  0  0  0
  3  5  1  0  0  0  0
  3  7  2  0  0  0  0
  4  6  1  0  0  0  0
  4  8  2  0  0  0  0
  5  9  1  0  0  0  0
  5 13  2  0  0  0  0
  6 10  1  0  0  0  0
  6 14  2  0  0  0  0
  7 11  1  0  0  0  0
  7 15  1  0  0  0  0
  8 12  1  0  0  0  0
  8 16  1  0  0  0  0
  9 10  1  0  0  0  0
 11 12  2  0  0  0  0
 11 19  1  0  0  0  0
 12 20  1  0  0  0  0
 13 18  1  0  0  0  0
 13 21  1  0  0  0  0
 14 17  1  0  0  0  0
 14 22  1  0  0  0  0
 15 18  2  0  0  0  0
 15 23  1  0  0  0  0
 16 17  2  0  0  0  0
 16 24  1  0  0  0  0
 17 26  1  0  0  0  0
 18 25  1  0  0  0  0
M  END
> <PUBCHEM_COMPOUND_CID>
160814

> <PUBCHEM_COMPOUND_CANONICALIZED>
1

> <PUBCHEM_CACTVS_COMPLEXITY>
362

> <PUBCHEM_CACTVS_HBOND_ACCEPTOR>
2

> <PUBCHEM_CACTVS_HBOND_DONOR>
0

> <PUBCHEM_CACTVS_ROTATABLE_BOND>
0

> <PUBCHEM_CACTVS_SUBSKEYS>
AAADccB4MAAAAAAAAAAAAAAAAAAAAAAAAAAwYMGAAAAAAADBVAAAGgAAAAAADASAmAAwAMAAAACIAqBSAAACAAAkAAAIiAEAAMgIIDKAFRCAIQAggAAIiYcIiMCOwAACAAAQAACAAAQAACAAAAAAAAAAAA==

> <PUBCHEM_IUPAC_OPENEYE_NAME>
pyrene-4,5-dione

> <PUBCHEM_IUPAC_CAS_NAME>
pyrene-4,5-dione

> <PUBCHEM_IUPAC_NAME>
pyrene-4,5-dione

> <PUBCHEM_IUPAC_SYSTEMATIC_NAME>
pyrene-4,5-dione

> <PUBCHEM_IUPAC_TRADITIONAL_NAME>
pyrene-4,5-quinone

> <PUBCHEM_IUPAC_INCHI>
InChI=1S/C16H8O2/c17-15-11-5-1-3-9-7-8-10-4-2-6-12(16(15)18)14(10)13(9)11/h1-8H

> <PUBCHEM_IUPAC_INCHIKEY>
JKCATVQPENLMQJ-UHFFFAOYSA-N

> <PUBCHEM_XLOGP3>
3.2

> <PUBCHEM_EXACT_MASS>
232.052429

> <PUBCHEM_MOLECULAR_FORMULA>
C16H8O2

> <PUBCHEM_MOLECULAR_WEIGHT>
232.23352

> <PUBCHEM_OPENEYE_CAN_SMILES>
C1=CC2=C3C(=C1)C(=O)C(=O)C4=CC=CC(=C43)C=C2

> <PUBCHEM_OPENEYE_ISO_SMILES>
C1=CC2=C3C(=C1)C(=O)C(=O)C4=CC=CC(=C43)C=C2

> <PUBCHEM_CACTVS_TPSA>
34.1

> <PUBCHEM_MONOISOTOPIC_WEIGHT>
232.052429

> <PUBCHEM_TOTAL_CHARGE>
0

> <PUBCHEM_HEAVY_ATOM_COUNT>
18

> <PUBCHEM_ATOM_DEF_STEREO_COUNT>
0

> <PUBCHEM_ATOM_UDEF_STEREO_COUNT>
0

> <PUBCHEM_BOND_DEF_STEREO_COUNT>
0

> <PUBCHEM_BOND_UDEF_STEREO_COUNT>
0

> <PUBCHEM_ISOTOPIC_ATOM_COUNT>
0

> <PUBCHEM_COMPONENT_COUNT>
1

> <PUBCHEM_CACTVS_TAUTO_COUNT>
1

> <PUBCHEM_COORDINATE_TYPE>
1
5
255

> <PUBCHEM_BONDANNOTATIONS>
11  12  8
13  18  8
14  17  8
15  18  8
16  17  8
3  4  8
3  5  8
3  7  8
4  6  8
4  8  8
5  13  8
5  9  8
6  10  8
6  14  8
7  11  8
7  15  8
8  12  8
8  16  8
9  10  8

$$$$

