583343
  -OEChem-06241222453D

 29 30  0     1  0  0  0  0  0999 V2000
    2.6406   -1.7694   -1.5749 O   0  0  0  0  0  0  0  0  0  0  0  0
    3.3752   -0.4750    1.7490 O   0  0  0  0  0  0  0  0  0  0  0  0
   -3.0770   -0.0636    0.0585 O   0  0  0  0  0  0  0  0  0  0  0  0
   -1.6132   -1.8383    0.1405 O   0  0  0  0  0  0  0  0  0  0  0  0
    0.9895   -1.2489    0.0399 N   0  0  0  0  0  0  0  0  0  0  0  0
    2.8177    0.8757   -0.1062 N   0  0  0  0  0  0  0  0  0  0  0  0
    1.0205    2.4112   -0.2287 N   0  0  0  0  0  0  0  0  0  0  0  0
   -1.2594    1.6517   -0.1243 N   0  0  0  0  0  0  0  0  0  0  0  0
    2.3922   -1.5501   -0.1879 C   0  0  2  0  0  0  0  0  0  0  0  0
    3.2992   -0.4250    0.3258 C   0  0  2  0  0  0  0  0  0  0  0  0
    0.5561    0.0599   -0.0553 C   0  0  0  0  0  0  0  0  0  0  0  0
    1.4497    1.1303   -0.1287 C   0  0  0  0  0  0  0  0  0  0  0  0
   -0.7894    0.3919   -0.0404 C   0  0  0  0  0  0  0  0  0  0  0  0
   -1.8298   -0.6235    0.0611 C   0  0  0  0  0  0  0  0  0  0  0  0
   -0.3127    2.5986   -0.2204 C   0  0  0  0  0  0  0  0  0  0  0  0
   -4.1871   -0.9626    0.1552 C   0  0  0  0  0  0  0  0  0  0  0  0
   -5.4723   -0.1628    0.1368 C   0  0  0  0  0  0  0  0  0  0  0  0
    2.6323   -2.4828    0.3346 H   0  0  0  0  0  0  0  0  0  0  0  0
    4.3164   -0.5610   -0.0566 H   0  0  0  0  0  0  0  0  0  0  0  0
    0.3225   -2.0086   -0.0004 H   0  0  0  0  0  0  0  0  0  0  0  0
    3.4508    1.6655   -0.1290 H   0  0  0  0  0  0  0  0  0  0  0  0
    1.9530   -2.3819   -1.8866 H   0  0  0  0  0  0  0  0  0  0  0  0
    2.4843   -0.2958    2.0938 H   0  0  0  0  0  0  0  0  0  0  0  0
   -0.6569    3.6226   -0.2971 H   0  0  0  0  0  0  0  0  0  0  0  0
   -4.1686   -1.6558   -0.6930 H   0  0  0  0  0  0  0  0  0  0  0  0
   -4.1155   -1.5296    1.0899 H   0  0  0  0  0  0  0  0  0  0  0  0
   -6.3432   -0.8201    0.2092 H   0  0  0  0  0  0  0  0  0  0  0  0
   -5.4955    0.5483    0.9692 H   0  0  0  0  0  0  0  0  0  0  0  0
   -5.5476    0.4241   -0.7846 H   0  0  0  0  0  0  0  0  0  0  0  0
  1  9  1  0  0  0  0
  1 22  1  0  0  0  0
  2 10  1  0  0  0  0
  2 23  1  0  0  0  0
  3 14  1  0  0  0  0
  3 16  1  0  0  0  0
  4 14  2  0  0  0  0
  5  9  1  0  0  0  0
  5 11  1  0  0  0  0
  5 20  1  0  0  0  0
  6 10  1  0  0  0  0
  6 12  1  0  0  0  0
  6 21  1  0  0  0  0
  7 12  2  0  0  0  0
  7 15  1  0  0  0  0
  8 13  1  0  0  0  0
  8 15  2  0  0  0  0
  9 10  1  0  0  0  0
  9 18  1  0  0  0  0
 10 19  1  0  0  0  0
 11 12  1  0  0  0  0
 11 13  2  0  0  0  0
 13 14  1  0  0  0  0
 15 24  1  0  0  0  0
 16 17  1  0  0  0  0
 16 25  1  0  0  0  0
 16 26  1  0  0  0  0
 17 27  1  0  0  0  0
 17 28  1  0  0  0  0
 17 29  1  0  0  0  0
M  END
> <PUBCHEM_COMPOUND_CID>
583343

> <PUBCHEM_CONFORMER_RMSD>
0.6

> <PUBCHEM_CONFORMER_DIVERSEORDER>
1
19
23
16
45
36
24
44
4
48
26
12
31
14
51
40
47
34
20
10
30
42
21
13
25
17
2
15
29
3
18
43
9
11
49
38
50
33
46
28
32
6
37
22
8
5
7
39
41
27
35

> <PUBCHEM_MMFF94_PARTIAL_CHARGES>
21
1 -0.68
10 0.65
11 0.1
12 0.41
13 0.4
14 0.63
15 0.47
16 0.28
2 -0.68
20 0.4
21 0.4
22 0.4
23 0.4
24 0.15
3 -0.43
4 -0.57
5 -0.87
6 -0.87
7 -0.62
8 -0.62
9 0.65

> <PUBCHEM_EFFECTIVE_ROTOR_COUNT>
3.8

> <PUBCHEM_PHARMACOPHORE_FEATURES>
12
1 1 acceptor
1 1 donor
1 2 acceptor
1 2 donor
1 4 acceptor
1 5 cation
1 5 donor
1 6 donor
3 6 7 12 cation
3 7 8 15 cation
6 5 6 9 10 11 12 rings
6 7 8 11 12 13 15 rings

> <PUBCHEM_HEAVY_ATOM_COUNT>
17

> <PUBCHEM_ATOM_DEF_STEREO_COUNT>
0

> <PUBCHEM_ATOM_UDEF_STEREO_COUNT>
2

> <PUBCHEM_BOND_DEF_STEREO_COUNT>
0

> <PUBCHEM_BOND_UDEF_STEREO_COUNT>
0

> <PUBCHEM_ISOTOPIC_ATOM_COUNT>
0

> <PUBCHEM_COMPONENT_COUNT>
1

> <PUBCHEM_CACTVS_TAUTO_COUNT>
6

> <PUBCHEM_CONFORMER_ID>
0008E6AF00000001

> <PUBCHEM_MMFF94_ENERGY>
51.0043

> <PUBCHEM_FEATURE_SELFOVERLAP>
61.14

> <PUBCHEM_SHAPE_FINGERPRINT>
10130415 120 18343585118538146401
10618630 7 18411697716194806903
10906281 52 18269822164775385480
10967382 1 18339359669297962677
11471102 20 18412546475110911445
11543360 7 14979662270232631939
116883 192 18337386144969081965
12032990 46 18411695517430111599
12346645 6 18335417902996008540
12553582 1 18409735032009700062
13140716 1 18193846933244800098
13675066 3 18113899360431785851
14022347 108 18271794765670850291
14115302 16 16917343731853992834
14178342 30 18123198067274298560
14251717 144 18409729534884343983
14252887 29 18334289881327972378
14790565 3 17764583218591146701
15442244 35 18409442601257401217
15848700 24 18408886247925100471
15885798 251 18342458166512197585
16945 1 18408888425478930540
19591789 44 16823602974295434153
20559304 39 18335978688275453968
20645477 70 18339642235803164519
20871998 22 18336261340009685983
21267235 1 18411691101866277067
21501925 9 18410579487178721721
22802520 49 17755580786960139494
2334 1 17617939136506127212
23402539 116 18337123318645496327
23463225 33 18341333292722704481
23557571 272 18335136557263708750
2748010 2 18192716863077804228
34934 24 18267306434841913132
5902787 121 18201160944786001531
5939293 188 18338237038061867744
7364860 26 18263078816838690264
81228 2 18268700795795283160
9709674 26 18267578010352075339

> <PUBCHEM_SHAPE_MULTIPOLES>
306.45
7.35
2.26
0.86
9.03
1.18
-0.07
-2.93
-0.96
-0.72
0.39
-0.83
-0.29
0.26

> <PUBCHEM_SHAPE_SELFOVERLAP>
648.44

> <PUBCHEM_SHAPE_VOLUME>
166.2

> <PUBCHEM_COORDINATE_TYPE>
2
5
10

$$$$

