441720
  -OEChem-07051212552D

 71 76  0     1  0  0  0  0  0999 V2000
    4.2166   -0.7026    0.0000 O   0  0  0  0  0  0  0  0  0  0  0  0
    7.5568    1.8904    0.0000 O   0  0  0  0  0  0  0  0  0  0  0  0
    3.8404    1.6388    0.0000 O   0  0  0  0  0  0  0  0  0  0  0  0
    3.4391    2.3483    0.0000 O   0  0  0  0  0  0  0  0  0  0  0  0
    8.4228   -2.3448    0.0000 O   0  0  0  0  0  0  0  0  0  0  0  0
    3.6851   -0.0862    0.0000 O   0  0  0  0  0  0  0  0  0  0  0  0
    8.7521    0.0613    0.0000 N   0  0  3  0  0  0  0  0  0  0  0  0
    6.8055    0.4566    0.0000 C   0  0  1  0  0  0  0  0  0  0  0  0
    6.8055   -0.4110    0.0000 C   0  0  2  0  0  0  0  0  0  0  0  0
    6.1272    0.9975    0.0000 C   0  0  1  0  0  0  0  0  0  0  0  0
    7.8074    0.3505    0.0000 C   0  0  3  0  0  0  0  0  0  0  0  0
    5.2813   -0.7589    0.0000 C   0  0  1  0  0  0  0  0  0  0  0  0
    5.2813    0.8044    0.0000 C   0  0  1  0  0  0  0  0  0  0  0  0
    4.9049    0.0228    0.0000 C   0  0  1  0  0  0  0  0  0  0  0  0
    6.1272   -0.9519    0.0000 C   0  0  0  0  0  0  0  0  0  0  0  0
    7.5568   -0.8448    0.0000 C   0  0  2  0  0  0  0  0  0  0  0  0
    7.5568    0.8904    0.0000 C   0  0  2  0  0  0  0  0  0  0  0  0
    6.2049    1.8616    0.0000 C   0  0  0  0  0  0  0  0  0  0  0  0
    5.4072    2.2026    0.0000 C   0  0  1  0  0  0  0  0  0  0  0  0
    4.8364    1.5492    0.0000 C   0  0  2  0  0  0  0  0  0  0  0  0
    4.2600    0.2927    0.0000 C   0  0  0  0  0  0  0  0  0  0  0  0
    8.7521   -0.6906    0.0000 C   0  0  0  0  0  0  0  0  0  0  0  0
    8.3081   -0.4110    0.0000 C   0  0  0  0  0  0  0  0  0  0  0  0
    4.2600    1.7772    0.0000 C   0  0  2  0  0  0  0  0  0  0  0  0
    8.3081    0.4566    0.0000 C   0  0  0  0  0  0  0  0  0  0  0  0
    7.5568   -1.8448    0.0000 C   0  0  0  0  0  0  0  0  0  0  0  0
    9.5561    0.6560    0.0000 C   0  0  0  0  0  0  0  0  0  0  0  0
   10.4731    0.2571    0.0000 C   0  0  0  0  0  0  0  0  0  0  0  0
    3.2648    0.8211    0.0000 C   0  0  0  0  0  0  0  0  0  0  0  0
    3.5233    3.3448    0.0000 C   0  0  0  0  0  0  0  0  0  0  0  0
    8.4228   -3.3448    0.0000 C   0  0  0  0  0  0  0  0  0  0  0  0
    2.2688    0.9108    0.0000 C   0  0  0  0  0  0  0  0  0  0  0  0
    6.8690   -1.2586    0.0000 H   0  0  0  0  0  0  0  0  0  0  0  0
    6.9088    1.3316    0.0000 H   0  0  0  0  0  0  0  0  0  0  0  0
    7.9314    0.9580    0.0000 H   0  0  0  0  0  0  0  0  0  0  0  0
    5.1546   -1.5994    0.0000 H   0  0  0  0  0  0  0  0  0  0  0  0
    4.4322    0.7663    0.0000 H   0  0  0  0  0  0  0  0  0  0  0  0
    6.6119   -1.3385    0.0000 H   0  0  0  0  0  0  0  0  0  0  0  0
    5.8582   -1.5105    0.0000 H   0  0  0  0  0  0  0  0  0  0  0  0
    7.0199    1.2004    0.0000 H   0  0  0  0  0  0  0  0  0  0  0  0
    6.3877    2.4540    0.0000 H   0  0  0  0  0  0  0  0  0  0  0  0
    6.8132    1.7418    0.0000 H   0  0  0  0  0  0  0  0  0  0  0  0
    5.4279    3.0523    0.0000 H   0  0  0  0  0  0  0  0  0  0  0  0
    4.6055    2.1246    0.0000 H   0  0  0  0  0  0  0  0  0  0  0  0
    4.0981   -0.3058    0.0000 H   0  0  0  0  0  0  0  0  0  0  0  0
    3.6454    0.3744    0.0000 H   0  0  0  0  0  0  0  0  0  0  0  0
    9.3716   -0.6640    0.0000 H   0  0  0  0  0  0  0  0  0  0  0  0
    8.8051   -1.3083    0.0000 H   0  0  0  0  0  0  0  0  0  0  0  0
    8.9187   -0.3033    0.0000 H   0  0  0  0  0  0  0  0  0  0  0  0
    8.5202   -0.9936    0.0000 H   0  0  0  0  0  0  0  0  0  0  0  0
    4.3382    2.3923    0.0000 H   0  0  0  0  0  0  0  0  0  0  0  0
    8.5202    1.0392    0.0000 H   0  0  0  0  0  0  0  0  0  0  0  0
    8.9187    0.3489    0.0000 H   0  0  0  0  0  0  0  0  0  0  0  0
    7.3448   -2.4274    0.0000 H   0  0  0  0  0  0  0  0  0  0  0  0
    6.9462   -1.7371    0.0000 H   0  0  0  0  0  0  0  0  0  0  0  0
    4.0718   -1.3055    0.0000 H   0  0  0  0  0  0  0  0  0  0  0  0
    9.1064    1.0829    0.0000 H   0  0  0  0  0  0  0  0  0  0  0  0
    9.8984    1.1730    0.0000 H   0  0  0  0  0  0  0  0  0  0  0  0
    8.0937    2.2004    0.0000 H   0  0  0  0  0  0  0  0  0  0  0  0
   10.7204    0.8256    0.0000 H   0  0  0  0  0  0  0  0  0  0  0  0
   11.0416    0.0098    0.0000 H   0  0  0  0  0  0  0  0  0  0  0  0
   10.2258   -0.3114    0.0000 H   0  0  0  0  0  0  0  0  0  0  0  0
    2.9055    3.3970    0.0000 H   0  0  0  0  0  0  0  0  0  0  0  0
    3.5755    3.9626    0.0000 H   0  0  0  0  0  0  0  0  0  0  0  0
    4.1411    3.2926    0.0000 H   0  0  0  0  0  0  0  0  0  0  0  0
    9.0428   -3.3448    0.0000 H   0  0  0  0  0  0  0  0  0  0  0  0
    8.4228   -3.9648    0.0000 H   0  0  0  0  0  0  0  0  0  0  0  0
    7.8028   -3.3448    0.0000 H   0  0  0  0  0  0  0  0  0  0  0  0
    2.2132    0.2933    0.0000 H   0  0  0  0  0  0  0  0  0  0  0  0
    1.6513    0.9664    0.0000 H   0  0  0  0  0  0  0  0  0  0  0  0
    2.3244    1.5283    0.0000 H   0  0  0  0  0  0  0  0  0  0  0  0
 14  1  1  6  0  0  0
  1 56  1  0  0  0  0
 17  2  1  1  0  0  0
  2 59  1  0  0  0  0
 20  3  1  1  0  0  0
  3 29  1  0  0  0  0
 24  4  1  6  0  0  0
  4 30  1  0  0  0  0
  5 26  1  0  0  0  0
  5 31  1  0  0  0  0
  6 29  2  0  0  0  0
  7 11  1  0  0  0  0
  7 22  1  0  0  0  0
  7 27  1  0  0  0  0
  8  9  1  0  0  0  0
  8 10  1  0  0  0  0
  8 11  1  0  0  0  0
  8 17  1  6  0  0  0
  9 15  1  0  0  0  0
  9 16  1  0  0  0  0
  9 33  1  6  0  0  0
 10 13  1  0  0  0  0
 10 18  1  0  0  0  0
 10 34  1  6  0  0  0
 11 12  1  0  0  0  0
 11 35  1  0  0  0  0
 12 14  1  0  0  0  0
 12 15  1  0  0  0  0
 12 36  1  1  0  0  0
 13 14  1  0  0  0  0
 13 20  1  0  0  0  0
 13 37  1  6  0  0  0
 14 21  1  0  0  0  0
 15 38  1  0  0  0  0
 15 39  1  0  0  0  0
 16 22  1  0  0  0  0
 16 23  1  0  0  0  0
 16 26  1  6  0  0  0
 17 25  1  0  0  0  0
 17 40  1  0  0  0  0
 18 19  1  0  0  0  0
 18 41  1  0  0  0  0
 18 42  1  0  0  0  0
 19 20  1  0  0  0  0
 19 24  1  0  0  0  0
 19 43  1  6  0  0  0
 20 44  1  0  0  0  0
 21 24  1  0  0  0  0
 21 45  1  0  0  0  0
 21 46  1  0  0  0  0
 22 47  1  0  0  0  0
 22 48  1  0  0  0  0
 23 25  1  0  0  0  0
 23 49  1  0  0  0  0
 23 50  1  0  0  0  0
 24 51  1  0  0  0  0
 25 52  1  0  0  0  0
 25 53  1  0  0  0  0
 26 54  1  0  0  0  0
 26 55  1  0  0  0  0
 27 28  1  0  0  0  0
 27 57  1  0  0  0  0
 27 58  1  0  0  0  0
 28 60  1  0  0  0  0
 28 61  1  0  0  0  0
 28 62  1  0  0  0  0
 29 32  1  0  0  0  0
 30 63  1  0  0  0  0
 30 64  1  0  0  0  0
 30 65  1  0  0  0  0
 31 66  1  0  0  0  0
 31 67  1  0  0  0  0
 31 68  1  0  0  0  0
 32 69  1  0  0  0  0
 32 70  1  0  0  0  0
 32 71  1  0  0  0  0
M  END
> <PUBCHEM_COMPOUND_CID>
441720

> <PUBCHEM_COMPOUND_CANONICALIZED>
1

> <PUBCHEM_CACTVS_COMPLEXITY>
807

> <PUBCHEM_CACTVS_HBOND_ACCEPTOR>
7

> <PUBCHEM_CACTVS_HBOND_DONOR>
2

> <PUBCHEM_CACTVS_ROTATABLE_BOND>
6

> <PUBCHEM_CACTVS_SUBSKEYS>
AAADcfB6OAAAAAAAAAAAAAAAAAAAAYMAAAA8YMEAB4gWAGAAAAAAHgAACAAAD3zhgAYCCAMABgAIAACQCAAAAAAAAAAAAAAIAAAAEAIAgAAGQAAHAACAAAGQ8P8PgAAAAAAAAADQAAaUADQAAaAADQAAAA==

> <PUBCHEM_IUPAC_INCHI>
InChI=1S/C25H39NO6/c1-5-26-11-23(12-30-3)7-6-19(28)25-15-8-14-17(31-4)10-24(29,16(22(25)26)9-18(23)25)20(15)21(14)32-13(2)27/h14-22,28-29H,5-12H2,1-4H3/t14-,15-,16+,17+,18-,19+,20-,21+,22?,23+,24+,25-/m1/s1

> <PUBCHEM_IUPAC_INCHIKEY>
ZEBMMHUDQRRILP-WZSMAATHSA-N

> <PUBCHEM_XLOGP3_AA>
1

> <PUBCHEM_EXACT_MASS>
449.277738

> <PUBCHEM_MOLECULAR_FORMULA>
C25H39NO6

> <PUBCHEM_MOLECULAR_WEIGHT>
449.58026

> <PUBCHEM_OPENEYE_CAN_SMILES>
CCN1CC2(CCC(C34C2CC(C31)C5(CC(C6CC4C5C6OC(=O)C)OC)O)O)COC

> <PUBCHEM_OPENEYE_ISO_SMILES>
CCN1C[C@@]2(CC[C@@H]([C@@]34[C@@H]2C[C@@H](C31)[C@]5(C[C@@H]([C@H]6C[C@@H]4[C@@H]5[C@H]6OC(=O)C)OC)O)O)COC

> <PUBCHEM_CACTVS_TPSA>
88.5

> <PUBCHEM_MONOISOTOPIC_WEIGHT>
449.277738

> <PUBCHEM_TOTAL_CHARGE>
0

> <PUBCHEM_HEAVY_ATOM_COUNT>
32

> <PUBCHEM_ATOM_DEF_STEREO_COUNT>
11

> <PUBCHEM_ATOM_UDEF_STEREO_COUNT>
1

> <PUBCHEM_BOND_DEF_STEREO_COUNT>
0

> <PUBCHEM_BOND_UDEF_STEREO_COUNT>
0

> <PUBCHEM_ISOTOPIC_ATOM_COUNT>
0

> <PUBCHEM_COMPONENT_COUNT>
1

> <PUBCHEM_CACTVS_TAUTO_COUNT>
1

> <PUBCHEM_COORDINATE_TYPE>
1
5
255

> <PUBCHEM_BONDANNOTATIONS>
14  1  6
10  34  6
12  36  5
13  37  6
16  26  6
19  43  6
17  2  5
20  3  5
24  4  6
11  7  3
8  17  6
9  33  6

$$$$

