10154022
  -OEChem-07051213112D

  9  8  0     0  0  0  0  0  0999 V2000
    3.4030   -0.1270    0.0000 P   0  0  0  0  0  0  0  0  0  0  0  0
    2.5369   -0.6270    0.0000 O   0  0  0  0  0  0  0  0  0  0  0  0
    2.9030    0.7390    0.0000 O   0  0  0  0  0  0  0  0  0  0  0  0
    3.9030   -0.9930    0.0000 O   0  0  0  0  0  0  0  0  0  0  0  0
    5.1350   -0.1270    0.0000 O   0  0  0  0  0  0  0  0  0  0  0  0
    4.2690    0.3730    0.0000 C   0  0  0  0  0  0  0  0  0  0  0  0
    4.2690    0.9930    0.0000 H   0  0  0  0  0  0  0  0  0  0  0  0
    2.0000   -0.3170    0.0000 H   0  0  0  0  0  0  0  0  0  0  0  0
    2.2830    0.7390    0.0000 H   0  0  0  0  0  0  0  0  0  0  0  0
  1  2  1  0  0  0  0
  1  3  1  0  0  0  0
  1  4  2  0  0  0  0
  1  6  1  0  0  0  0
  2  8  1  0  0  0  0
  3  9  1  0  0  0  0
  5  6  2  0  0  0  0
  6  7  1  0  0  0  0
M  END
> <PUBCHEM_COMPOUND_CID>
10154022

> <PUBCHEM_COMPOUND_CANONICALIZED>
1

> <PUBCHEM_CACTVS_COMPLEXITY>
89.7

> <PUBCHEM_CACTVS_HBOND_ACCEPTOR>
4

> <PUBCHEM_CACTVS_HBOND_DONOR>
2

> <PUBCHEM_CACTVS_ROTATABLE_BOND>
1

> <PUBCHEM_CACTVS_SUBSKEYS>
AAADcQAAOAIAAAAAAAAAAAAAAAAAAAAAAAAAAAAAAAAAAAAAAAAAEggACCAAAAAAAAIAAAAAABAIQAAAgIAAAAAAAAAAAAAAAAAAAAAAAAAAAAAAAAAAAAAAAAAAAAAAAAAAAAAAAAAAAAAAAAAAAAAAAA==

> <PUBCHEM_IUPAC_OPENEYE_NAME>
formylphosphonic acid

> <PUBCHEM_IUPAC_CAS_NAME>
formylphosphonic acid

> <PUBCHEM_IUPAC_NAME>
formylphosphonic acid

> <PUBCHEM_IUPAC_SYSTEMATIC_NAME>
methanoylphosphonic acid

> <PUBCHEM_IUPAC_TRADITIONAL_NAME>
formylphosphonic acid

> <PUBCHEM_IUPAC_INCHI>
InChI=1S/CH3O4P/c2-1-6(3,4)5/h1H,(H2,3,4,5)

> <PUBCHEM_IUPAC_INCHIKEY>
DEBRGDVXKPMWQZ-UHFFFAOYSA-N

> <PUBCHEM_XLOGP3_AA>
-1.8

> <PUBCHEM_EXACT_MASS>
109.976895

> <PUBCHEM_MOLECULAR_FORMULA>
CH3O4P

> <PUBCHEM_MOLECULAR_WEIGHT>
110.005882

> <PUBCHEM_OPENEYE_CAN_SMILES>
C(=O)P(=O)(O)O

> <PUBCHEM_OPENEYE_ISO_SMILES>
C(=O)P(=O)(O)O

> <PUBCHEM_CACTVS_TPSA>
74.6

> <PUBCHEM_MONOISOTOPIC_WEIGHT>
109.976895

> <PUBCHEM_TOTAL_CHARGE>
0

> <PUBCHEM_HEAVY_ATOM_COUNT>
6

> <PUBCHEM_ATOM_DEF_STEREO_COUNT>
0

> <PUBCHEM_ATOM_UDEF_STEREO_COUNT>
0

> <PUBCHEM_BOND_DEF_STEREO_COUNT>
0

> <PUBCHEM_BOND_UDEF_STEREO_COUNT>
0

> <PUBCHEM_ISOTOPIC_ATOM_COUNT>
0

> <PUBCHEM_COMPONENT_COUNT>
1

> <PUBCHEM_CACTVS_TAUTO_COUNT>
1

> <PUBCHEM_COORDINATE_TYPE>
1
5
255

$$$$

