4919
  -OEChem-06261200253D

 50 52  0     1  0  0  0  0  0999 V2000
    1.3272    0.2523   -2.0468 O   0  0  0  0  0  0  0  0  0  0  0  0
   -3.0429   -0.4353   -0.0581 N   0  0  0  0  0  0  0  0  0  0  0  0
    1.1221    1.2368    0.0992 C   0  0  0  0  0  0  0  0  0  0  0  0
    0.7279    0.0317   -0.7524 C   0  0  1  0  0  0  0  0  0  0  0  0
    2.6491    1.3641    0.1846 C   0  0  0  0  0  0  0  0  0  0  0  0
    0.4970    2.5225   -0.4588 C   0  0  0  0  0  0  0  0  0  0  0  0
   -0.8107   -0.0223   -0.9728 C   0  0  0  0  0  0  0  0  0  0  0  0
    3.0683    2.5935    0.9875 C   0  0  0  0  0  0  0  0  0  0  0  0
    0.9199    3.7501    0.3450 C   0  0  0  0  0  0  0  0  0  0  0  0
    2.4382    3.8682    0.4351 C   0  0  0  0  0  0  0  0  0  0  0  0
   -1.6231   -0.4232    0.2616 C   0  0  0  0  0  0  0  0  0  0  0  0
    1.2644   -1.3168   -0.2644 C   0  0  0  0  0  0  0  0  0  0  0  0
   -3.8681   -0.8394    1.0799 C   0  0  0  0  0  0  0  0  0  0  0  0
   -3.5409    0.8863   -0.4379 C   0  0  0  0  0  0  0  0  0  0  0  0
   -5.2655   -0.4102    0.6577 C   0  0  0  0  0  0  0  0  0  0  0  0
   -5.0504    0.7215   -0.3425 C   0  0  0  0  0  0  0  0  0  0  0  0
    1.4704   -1.4939    1.0841 C   0  0  0  0  0  0  0  0  0  0  0  0
    1.5198   -2.2984   -1.1933 C   0  0  0  0  0  0  0  0  0  0  0  0
    1.9595   -2.7222    1.5288 C   0  0  0  0  0  0  0  0  0  0  0  0
    2.0088   -3.5268   -0.7487 C   0  0  0  0  0  0  0  0  0  0  0  0
    2.2287   -3.7386    0.6124 C   0  0  0  0  0  0  0  0  0  0  0  0
    0.7336    1.1335    1.1197 H   0  0  0  0  0  0  0  0  0  0  0  0
    3.0858    1.4522   -0.8183 H   0  0  0  0  0  0  0  0  0  0  0  0
    3.1157    0.4910    0.6487 H   0  0  0  0  0  0  0  0  0  0  0  0
   -0.5951    2.4979   -0.4054 H   0  0  0  0  0  0  0  0  0  0  0  0
    0.7767    2.6851   -1.5058 H   0  0  0  0  0  0  0  0  0  0  0  0
   -1.1649    0.8953   -1.4468 H   0  0  0  0  0  0  0  0  0  0  0  0
   -1.0051   -0.7794   -1.7496 H   0  0  0  0  0  0  0  0  0  0  0  0
    4.1601    2.6882    0.9742 H   0  0  0  0  0  0  0  0  0  0  0  0
    2.7719    2.4633    2.0357 H   0  0  0  0  0  0  0  0  0  0  0  0
    0.4988    3.6880    1.3563 H   0  0  0  0  0  0  0  0  0  0  0  0
    0.5071    4.6543   -0.1166 H   0  0  0  0  0  0  0  0  0  0  0  0
    2.7050    4.7182    1.0732 H   0  0  0  0  0  0  0  0  0  0  0  0
    2.8476    4.0755   -0.5614 H   0  0  0  0  0  0  0  0  0  0  0  0
   -1.4152    0.2596    1.0938 H   0  0  0  0  0  0  0  0  0  0  0  0
   -1.3366   -1.4308    0.5813 H   0  0  0  0  0  0  0  0  0  0  0  0
   -3.8164   -1.9167    1.2660 H   0  0  0  0  0  0  0  0  0  0  0  0
   -3.5810   -0.3116    1.9986 H   0  0  0  0  0  0  0  0  0  0  0  0
   -3.2076    1.6668    0.2582 H   0  0  0  0  0  0  0  0  0  0  0  0
   -3.2672    1.1786   -1.4558 H   0  0  0  0  0  0  0  0  0  0  0  0
   -5.8618   -0.0847    1.5161 H   0  0  0  0  0  0  0  0  0  0  0  0
   -5.7973   -1.2374    0.1729 H   0  0  0  0  0  0  0  0  0  0  0  0
   -5.4753    0.4424   -1.3140 H   0  0  0  0  0  0  0  0  0  0  0  0
   -5.5356    1.6473   -0.0172 H   0  0  0  0  0  0  0  0  0  0  0  0
    0.7615    0.8518   -2.5608 H   0  0  0  0  0  0  0  0  0  0  0  0
    1.2495   -0.7432    1.8328 H   0  0  0  0  0  0  0  0  0  0  0  0
    1.3408   -2.1645   -2.2553 H   0  0  0  0  0  0  0  0  0  0  0  0
    2.1247   -2.8900    2.5891 H   0  0  0  0  0  0  0  0  0  0  0  0
    2.2143   -4.3201   -1.4615 H   0  0  0  0  0  0  0  0  0  0  0  0
    2.6071   -4.6959    0.9587 H   0  0  0  0  0  0  0  0  0  0  0  0
  1  4  1  0  0  0  0
  1 45  1  0  0  0  0
  2 11  1  0  0  0  0
  2 13  1  0  0  0  0
  2 14  1  0  0  0  0
  3  4  1  0  0  0  0
  3  5  1  0  0  0  0
  3  6  1  0  0  0  0
  3 22  1  0  0  0  0
  4  7  1  0  0  0  0
  4 12  1  0  0  0  0
  5  8  1  0  0  0  0
  5 23  1  0  0  0  0
  5 24  1  0  0  0  0
  6  9  1  0  0  0  0
  6 25  1  0  0  0  0
  6 26  1  0  0  0  0
  7 11  1  0  0  0  0
  7 27  1  0  0  0  0
  7 28  1  0  0  0  0
  8 10  1  0  0  0  0
  8 29  1  0  0  0  0
  8 30  1  0  0  0  0
  9 10  1  0  0  0  0
  9 31  1  0  0  0  0
  9 32  1  0  0  0  0
 10 33  1  0  0  0  0
 10 34  1  0  0  0  0
 11 35  1  0  0  0  0
 11 36  1  0  0  0  0
 12 17  2  0  0  0  0
 12 18  1  0  0  0  0
 13 15  1  0  0  0  0
 13 37  1  0  0  0  0
 13 38  1  0  0  0  0
 14 16  1  0  0  0  0
 14 39  1  0  0  0  0
 14 40  1  0  0  0  0
 15 16  1  0  0  0  0
 15 41  1  0  0  0  0
 15 42  1  0  0  0  0
 16 43  1  0  0  0  0
 16 44  1  0  0  0  0
 17 19  1  0  0  0  0
 17 46  1  0  0  0  0
 18 20  2  0  0  0  0
 18 47  1  0  0  0  0
 19 21  2  0  0  0  0
 19 48  1  0  0  0  0
 20 21  1  0  0  0  0
 20 49  1  0  0  0  0
 21 50  1  0  0  0  0
M  END
> <PUBCHEM_COMPOUND_CID>
4919

> <PUBCHEM_CONFORMER_RMSD>
0.8

> <PUBCHEM_CONFORMER_DIVERSEORDER>
2
24
21
22
15
14
13
23
7
3
25
19
16
17
8
5
4
6
9
10
11
12
1
20
18

> <PUBCHEM_MMFF94_PARTIAL_CHARGES>
18
1 -0.68
11 0.27
12 -0.14
13 0.27
14 0.27
17 -0.15
18 -0.15
19 -0.15
2 -0.81
20 -0.15
21 -0.15
4 0.42
45 0.4
46 0.15
47 0.15
48 0.15
49 0.15
50 0.15

> <PUBCHEM_EFFECTIVE_ROTOR_COUNT>
7.2

> <PUBCHEM_PHARMACOPHORE_FEATURES>
6
1 1 acceptor
1 1 donor
1 2 cation
5 2 13 14 15 16 rings
6 12 17 18 19 20 21 rings
6 3 5 6 8 9 10 rings

> <PUBCHEM_HEAVY_ATOM_COUNT>
21

> <PUBCHEM_ATOM_DEF_STEREO_COUNT>
0

> <PUBCHEM_ATOM_UDEF_STEREO_COUNT>
1

> <PUBCHEM_BOND_DEF_STEREO_COUNT>
0

> <PUBCHEM_BOND_UDEF_STEREO_COUNT>
0

> <PUBCHEM_ISOTOPIC_ATOM_COUNT>
0

> <PUBCHEM_COMPONENT_COUNT>
1

> <PUBCHEM_CACTVS_TAUTO_COUNT>
1

> <PUBCHEM_CONFORMER_ID>
0000133700000002

> <PUBCHEM_MMFF94_ENERGY>
51.8511

> <PUBCHEM_FEATURE_SELFOVERLAP>
30.446

> <PUBCHEM_SHAPE_FINGERPRINT>
10090160 65 18120097182870766421
10764073 3 17486527963755396664
11578080 2 17415851442258121156
12549972 3 17988629844700785665
12553582 1 17978495757232700979
12707595 3 18268425914052645431
12788726 201 17620460750428977858
13134695 92 18266746955327581975
13140716 1 18194685860712121721
13533116 47 18342166788010913043
13583140 156 18412261719164380119
136203 1 17328869206048923186
13955234 65 18409721851309249131
14178000 15 18265052616419868585
14178342 30 17985260773385087739
14790565 3 18339359661373731660
14955137 171 18409731785690099026
15420108 30 18116170912240915606
15906896 17 17398394126818632622
15927050 60 18122064200857372542
1813 80 17824815887257623126
20157964 124 18409455757158843581
20369508 70 18269838765161776487
20723712 36 18263666003751181184
21041028 32 18122632909681345462
21120745 212 17760631969554186654
21344244 78 18115885134160525897
21421861 104 18336538404471994905
21524375 3 17900824842633409509
21731228 192 17978510836514561737
23419403 2 17771656656338660950
23557571 272 17616540992193647402
23558518 356 17689441477588545614
23559900 14 17917987304910960439
298252 57 16734942329312835380
3091708 16 9360392634789905392
31174 14 18412830213477494839
376196 1 17460878375871782072
394222 165 18114457864561260619
474 4 18190459364022176961
497634 4 14062575217000565076
5104073 3 18340758322284476601
5895379 119 17170942941080233409
633830 44 18116714006418453956
7364860 26 18410008840596511071
77188 2 18121501512242646666
81228 2 17328602020539202044
9841814 1 18339637970594898843
9999458 23 18339360760578696604

> <PUBCHEM_SHAPE_MULTIPOLES>
421.32
7.27
5.06
1.29
15.04
0.91
0.14
0.22
-1.62
-7.47
-0.92
-0.45
-0.53
0.71

> <PUBCHEM_SHAPE_SELFOVERLAP>
879.891

> <PUBCHEM_SHAPE_VOLUME>
238.3

> <PUBCHEM_COORDINATE_TYPE>
2
5
10

$$$$

