9414
  -OEChem-07051213133D

 34 34  0     0  0  0  0  0  0999 V2000
    2.1913   -0.0029    0.9663 O   0  0  0  0  0  0  0  0  0  0  0  0
    2.6777    0.0012   -1.3073 O   0  0  0  0  0  0  0  0  0  0  0  0
   -3.2283    0.0036   -0.2978 N   0  0  0  0  0  0  0  0  0  0  0  0
    4.3778   -0.0022    0.2713 N   0  0  0  0  0  0  0  0  0  0  0  0
   -1.8512    0.0020    0.0236 C   0  0  0  0  0  0  0  0  0  0  0  0
   -1.1708    1.2093    0.1839 C   0  0  0  0  0  0  0  0  0  0  0  0
   -1.1728   -1.2068    0.1796 C   0  0  0  0  0  0  0  0  0  0  0  0
    0.1878    1.2077    0.4996 C   0  0  0  0  0  0  0  0  0  0  0  0
    0.1858   -1.2083    0.4956 C   0  0  0  0  0  0  0  0  0  0  0  0
    0.8661   -0.0012    0.6556 C   0  0  0  0  0  0  0  0  0  0  0  0
   -1.8710    2.5193    0.0212 C   0  0  0  0  0  0  0  0  0  0  0  0
   -1.8744   -2.5160    0.0154 C   0  0  0  0  0  0  0  0  0  0  0  0
   -3.6554    0.0059   -1.6808 C   0  0  0  0  0  0  0  0  0  0  0  0
   -4.2234   -0.0112    0.7535 C   0  0  0  0  0  0  0  0  0  0  0  0
    3.0612   -0.0002   -0.1412 C   0  0  0  0  0  0  0  0  0  0  0  0
    5.4997   -0.0001   -0.6384 C   0  0  0  0  0  0  0  0  0  0  0  0
    0.7275    2.1429    0.6279 H   0  0  0  0  0  0  0  0  0  0  0  0
    0.7242   -2.1448    0.6201 H   0  0  0  0  0  0  0  0  0  0  0  0
   -2.6405    2.6420    0.7897 H   0  0  0  0  0  0  0  0  0  0  0  0
   -1.1789    3.3632    0.1190 H   0  0  0  0  0  0  0  0  0  0  0  0
   -2.3292    2.5975   -0.9697 H   0  0  0  0  0  0  0  0  0  0  0  0
   -1.2137   -3.3604    0.2416 H   0  0  0  0  0  0  0  0  0  0  0  0
   -2.7285   -2.5909    0.6955 H   0  0  0  0  0  0  0  0  0  0  0  0
   -2.2172   -2.6414   -1.0163 H   0  0  0  0  0  0  0  0  0  0  0  0
   -4.6210    0.5114   -1.7900 H   0  0  0  0  0  0  0  0  0  0  0  0
   -2.9385    0.5258   -2.3256 H   0  0  0  0  0  0  0  0  0  0  0  0
   -3.7659   -1.0194   -2.0475 H   0  0  0  0  0  0  0  0  0  0  0  0
   -5.1328   -0.5247    0.4231 H   0  0  0  0  0  0  0  0  0  0  0  0
   -3.8612   -0.5290    1.6484 H   0  0  0  0  0  0  0  0  0  0  0  0
   -4.4943    1.0112    1.0351 H   0  0  0  0  0  0  0  0  0  0  0  0
    4.5684   -0.0047    1.2686 H   0  0  0  0  0  0  0  0  0  0  0  0
    6.1015    0.8890   -0.4355 H   0  0  0  0  0  0  0  0  0  0  0  0
    5.1690    0.0053   -1.6796 H   0  0  0  0  0  0  0  0  0  0  0  0
    6.0981   -0.8935   -0.4438 H   0  0  0  0  0  0  0  0  0  0  0  0
  1 10  1  0  0  0  0
  1 15  1  0  0  0  0
  2 15  2  0  0  0  0
  3  5  1  0  0  0  0
  3 13  1  0  0  0  0
  3 14  1  0  0  0  0
  4 15  1  0  0  0  0
  4 16  1  0  0  0  0
  4 31  1  0  0  0  0
  5  6  2  0  0  0  0
  5  7  1  0  0  0  0
  6  8  1  0  0  0  0
  6 11  1  0  0  0  0
  7  9  2  0  0  0  0
  7 12  1  0  0  0  0
  8 10  2  0  0  0  0
  8 17  1  0  0  0  0
  9 10  1  0  0  0  0
  9 18  1  0  0  0  0
 11 19  1  0  0  0  0
 11 20  1  0  0  0  0
 11 21  1  0  0  0  0
 12 22  1  0  0  0  0
 12 23  1  0  0  0  0
 12 24  1  0  0  0  0
 13 25  1  0  0  0  0
 13 26  1  0  0  0  0
 13 27  1  0  0  0  0
 14 28  1  0  0  0  0
 14 29  1  0  0  0  0
 14 30  1  0  0  0  0
 16 32  1  0  0  0  0
 16 33  1  0  0  0  0
 16 34  1  0  0  0  0
M  END
> <PUBCHEM_COMPOUND_CID>
9414

> <PUBCHEM_CONFORMER_RMSD>
0.6

> <PUBCHEM_CONFORMER_DIVERSEORDER>
1
8
4
7
13
5
3
10
12
11
9
6
2

> <PUBCHEM_MMFF94_PARTIAL_CHARGES>
19
1 -0.23
10 0.08
11 0.14
12 0.14
13 0.37
14 0.37
15 0.78
16 0.3
17 0.15
18 0.15
2 -0.57
3 -0.84
31 0.37
4 -0.73
5 0.1
6 -0.14
7 -0.14
8 -0.15
9 -0.15

> <PUBCHEM_EFFECTIVE_ROTOR_COUNT>
4

> <PUBCHEM_PHARMACOPHORE_FEATURES>
4
1 2 acceptor
1 3 cation
1 4 donor
6 5 6 7 8 9 10 rings

> <PUBCHEM_HEAVY_ATOM_COUNT>
16

> <PUBCHEM_ATOM_DEF_STEREO_COUNT>
0

> <PUBCHEM_ATOM_UDEF_STEREO_COUNT>
0

> <PUBCHEM_BOND_DEF_STEREO_COUNT>
0

> <PUBCHEM_BOND_UDEF_STEREO_COUNT>
0

> <PUBCHEM_ISOTOPIC_ATOM_COUNT>
0

> <PUBCHEM_COMPONENT_COUNT>
1

> <PUBCHEM_CACTVS_TAUTO_COUNT>
2

> <PUBCHEM_CONFORMER_ID>
000024C600000001

> <PUBCHEM_MMFF94_ENERGY>
65.3528

> <PUBCHEM_FEATURE_SELFOVERLAP>
20.297

> <PUBCHEM_SHAPE_FINGERPRINT>
11206711 2 18338248162264775221
12119455 92 13758359959718961032
12236239 1 17704354377398069344
12390115 104 18044359741978593481
12403814 3 17346882234875326959
13140716 1 18266457603385897899
13538477 17 18130519560490020658
14115302 16 18271803488981147342
14911166 2 18410302393263727863
14943859 89 18273215283291317050
14993402 34 18273502277237621509
16752209 62 18267323069413774505
16945 1 18410586084485754907
17870717 6 18261657243362741790
18186145 218 18341620273810604424
187816 3 18410299107645388471
200 152 15697997418393158993
20279233 1 17749381555940690598
20510252 161 18261108637951469969
20645476 183 17632301155057100315
20645477 70 16805594928654312038
20871999 31 18334298707522903236
21029758 27 18201432563087158585
21119208 17 17989207044980888182
21501502 16 18121789592857933819
21637258 2 15285940051754295853
2334 1 17907024980291520667
23379529 103 17319882455535289631
23402539 116 18334862731186116932
23493267 7 17489035941504735281
23557571 272 18263634079069553678
23559900 14 18335985277720384016
2748010 2 18049736122109890395
2838139 119 16127836152170832927
3286 77 16226343507737507329
353137 74 18342742965614117361
4175511 318 18060144232132727583
53812653 8 18341335590725237537
559249 180 18196938997030970898
9709674 26 18187638159198825606

> <PUBCHEM_SHAPE_MULTIPOLES>
307.57
8.33
1.83
1.05
9.72
0.01
-0.34
-0.01
-2.06
-1.68
0.14
-0.34
0
0

> <PUBCHEM_SHAPE_SELFOVERLAP>
627.674

> <PUBCHEM_SHAPE_VOLUME>
179.6

> <PUBCHEM_COORDINATE_TYPE>
2
5
10

$$$$

