56928065
  -OEChem-07051212493D

 27 26  0     1  0  0  0  0  0999 V2000
    1.4065    1.2499    1.5537 O   0  0  0  0  0  0  0  0  0  0  0  0
    3.6469    0.9474    1.3745 O   0  0  0  0  0  0  0  0  0  0  0  0
    2.2589   -2.7862    0.5168 O   0  0  0  0  0  0  0  0  0  0  0  0
   -2.9422    0.5568   -1.6084 O   0  0  0  0  0  0  0  0  0  0  0  0
   -4.8761    0.7717   -0.0028 O   0  0  0  0  0  0  0  0  0  0  0  0
   -3.6165   -0.1482    1.6848 O   0  0  0  0  0  0  0  0  0  0  0  0
    3.4664    1.6193   -1.3143 N   0  0  0  0  0  0  0  0  0  0  0  0
    2.1108   -0.4124   -1.1505 C   0  0  0  0  0  0  0  0  0  0  0  0
    2.2970    1.0307   -0.6549 C   0  0  1  0  0  0  0  0  0  0  0  0
    0.9037   -1.1237   -0.5705 C   0  0  0  0  0  0  0  0  0  0  0  0
    2.5511    1.0750    0.8428 C   0  0  0  0  0  0  0  0  0  0  0  0
   -0.3900   -0.5408   -0.8965 C   0  0  0  0  0  0  0  0  0  0  0  0
    1.0573   -2.2175    0.1946 C   0  0  0  0  0  0  0  0  0  0  0  0
   -1.4100   -0.4295   -0.0343 C   0  0  0  0  0  0  0  0  0  0  0  0
   -2.6903    0.1615   -0.4824 C   0  0  0  0  0  0  0  0  0  0  0  0
   -3.7735    0.2460    0.5474 C   0  0  0  0  0  0  0  0  0  0  0  0
    2.0099   -0.4117   -2.2454 H   0  0  0  0  0  0  0  0  0  0  0  0
    3.0284   -0.9806   -0.9460 H   0  0  0  0  0  0  0  0  0  0  0  0
    1.4271    1.6543   -0.8902 H   0  0  0  0  0  0  0  0  0  0  0  0
    3.5487    2.6006   -1.0501 H   0  0  0  0  0  0  0  0  0  0  0  0
    3.3297    1.6090   -2.3244 H   0  0  0  0  0  0  0  0  0  0  0  0
   -0.4897   -0.1753   -1.9161 H   0  0  0  0  0  0  0  0  0  0  0  0
    0.2349   -2.7694    0.6317 H   0  0  0  0  0  0  0  0  0  0  0  0
   -1.3245   -0.7700    0.9915 H   0  0  0  0  0  0  0  0  0  0  0  0
    1.5748    1.2638    2.5200 H   0  0  0  0  0  0  0  0  0  0  0  0
    2.0681   -3.5594    1.0760 H   0  0  0  0  0  0  0  0  0  0  0  0
   -5.6176    0.8328    0.6365 H   0  0  0  0  0  0  0  0  0  0  0  0
  1 11  1  0  0  0  0
  1 25  1  0  0  0  0
  2 11  2  0  0  0  0
  3 13  1  0  0  0  0
  3 26  1  0  0  0  0
  4 15  2  0  0  0  0
  5 16  1  0  0  0  0
  5 27  1  0  0  0  0
  6 16  2  0  0  0  0
  7  9  1  0  0  0  0
  7 20  1  0  0  0  0
  7 21  1  0  0  0  0
  8  9  1  0  0  0  0
  8 10  1  0  0  0  0
  8 17  1  0  0  0  0
  8 18  1  0  0  0  0
  9 11  1  0  0  0  0
  9 19  1  0  0  0  0
 10 12  1  0  0  0  0
 10 13  2  0  0  0  0
 12 14  2  0  0  0  0
 12 22  1  0  0  0  0
 13 23  1  0  0  0  0
 14 15  1  0  0  0  0
 14 24  1  0  0  0  0
 15 16  1  0  0  0  0
M  END
> <PUBCHEM_COMPOUND_CID>
56928065

> <PUBCHEM_CONFORMER_RMSD>
0.8

> <PUBCHEM_CONFORMER_DIVERSEORDER>
1
51
23
46
77
61
55
72
82
32
33
57
60
2
58
38
18
53
47
56
15
14
50
83
4
48
80
41
37
67
81
63
49
29
43
45
3
59
68
26
31
5
22
64
10
11
74
66
34
9
52
54
76
70
28
39
40
71
27
42
69
7
16
79
19
30
73
62
21
6
75
8
35
20
12
13
44
36
25
17
24
78
65

> <PUBCHEM_MMFF94_PARTIAL_CHARGES>
24
1 -0.65
10 -0.14
11 0.66
12 -0.15
13 -0.07
14 -0.14
15 0.56
16 0.72
2 -0.57
20 0.36
21 0.36
22 0.15
23 0.15
24 0.15
25 0.5
26 0.45
27 0.5
3 -0.53
4 -0.57
5 -0.65
6 -0.57
7 -0.99
8 0.14
9 0.33

> <PUBCHEM_EFFECTIVE_ROTOR_COUNT>
6

> <PUBCHEM_PHARMACOPHORE_FEATURES>
10
1 1 acceptor
1 2 acceptor
1 3 donor
1 4 acceptor
1 5 acceptor
1 6 acceptor
1 7 cation
1 7 donor
3 1 2 11 anion
3 5 6 16 anion

> <PUBCHEM_HEAVY_ATOM_COUNT>
16

> <PUBCHEM_ATOM_DEF_STEREO_COUNT>
1

> <PUBCHEM_ATOM_UDEF_STEREO_COUNT>
0

> <PUBCHEM_BOND_DEF_STEREO_COUNT>
2

> <PUBCHEM_BOND_UDEF_STEREO_COUNT>
0

> <PUBCHEM_ISOTOPIC_ATOM_COUNT>
0

> <PUBCHEM_COMPONENT_COUNT>
1

> <PUBCHEM_CACTVS_TAUTO_COUNT>
7

> <PUBCHEM_CONFORMER_ID>
0364A74100000001

> <PUBCHEM_MMFF94_ENERGY>
25.7318

> <PUBCHEM_FEATURE_SELFOVERLAP>
50.872

> <PUBCHEM_SHAPE_FINGERPRINT>
10980938 120 18187361051776132037
11715629 250 17240483615346761721
12932764 1 18409166649381786815
14289901 80 18343576344262845367
15775835 57 18041284287537759540
17357990 137 17240770617740602191
1813 80 17536021504843950910
18186145 218 17385998451512136989
20559304 39 17896599672692707151
21524375 3 18043544823594434950
21730867 7 18130498716976803079
21864079 5 17240755229347463209
22854114 111 18408324401699178759
230 275 18411704296195454916
231179 274 18187087256095769905
23557571 272 14418720042313198575
23559900 14 17059764637389720335
25 1 18113890521077795892
251288 83 16271642291352979434
276578 36 18410293588638942654
3060560 45 17095240332461565852
4175511 376 7204479061742789390
449060 62 18409440401864789813
474 4 17968664808777694113
495365 180 18269848669387749775
633830 44 18041556936467791244
7364860 26 18187648071651152238
7615 1 17822868588114355383
7832392 63 16660634155231895185
81228 2 17546170701358044158
9882013 296 17846212194839808571

> <PUBCHEM_SHAPE_MULTIPOLES>
289.08
7.55
1.93
1.47
7.19
1.3
0.12
-3.31
0.93
-2.22
0.36
-0.24
-0.4
0.03

> <PUBCHEM_SHAPE_SELFOVERLAP>
576.239

> <PUBCHEM_SHAPE_VOLUME>
168.3

> <PUBCHEM_COORDINATE_TYPE>
2
5
10

$$$$

