6092
  -OEChem-06261201062D

 30 31  0     0  0  0  0  0  0999 V2000
    4.6783   -2.1421    0.0000 N   0  0  0  0  0  0  0  0  0  0  0  0
    6.2781    1.5747    0.0000 N   0  0  0  0  0  0  0  0  0  0  0  0
    4.6783   -0.5326    0.0000 C   0  0  0  0  0  0  0  0  0  0  0  0
    4.9889    0.4179    0.0000 C   0  0  0  0  0  0  0  0  0  0  0  0
    3.7320   -0.8373    0.0000 C   0  0  0  0  0  0  0  0  0  0  0  0
    5.9674    0.6241    0.0000 C   0  0  0  0  0  0  0  0  0  0  0  0
    3.7320   -1.8373    0.0000 C   0  0  0  0  0  0  0  0  0  0  0  0
    5.2619   -1.3373    0.0000 C   0  0  0  0  0  0  0  0  0  0  0  0
    2.8660   -0.3373    0.0000 C   0  0  0  0  0  0  0  0  0  0  0  0
    2.8660   -2.3373    0.0000 C   0  0  0  0  0  0  0  0  0  0  0  0
    7.2566    1.7809    0.0000 C   0  0  0  0  0  0  0  0  0  0  0  0
    2.0000   -0.8373    0.0000 C   0  0  0  0  0  0  0  0  0  0  0  0
    2.0000   -1.8373    0.0000 C   0  0  0  0  0  0  0  0  0  0  0  0
    7.5673    2.7314    0.0000 C   0  0  0  0  0  0  0  0  0  0  0  0
    4.9684    1.0376    0.0000 H   0  0  0  0  0  0  0  0  0  0  0  0
    4.3751    0.5053    0.0000 H   0  0  0  0  0  0  0  0  0  0  0  0
    5.9880    0.0045    0.0000 H   0  0  0  0  0  0  0  0  0  0  0  0
    6.5812    0.5368    0.0000 H   0  0  0  0  0  0  0  0  0  0  0  0
    5.8819   -1.3373    0.0000 H   0  0  0  0  0  0  0  0  0  0  0  0
    4.8709   -2.7314    0.0000 H   0  0  0  0  0  0  0  0  0  0  0  0
    5.8640    2.0361    0.0000 H   0  0  0  0  0  0  0  0  0  0  0  0
    2.8660    0.2827    0.0000 H   0  0  0  0  0  0  0  0  0  0  0  0
    2.8660   -2.9573    0.0000 H   0  0  0  0  0  0  0  0  0  0  0  0
    7.2772    1.1612    0.0000 H   0  0  0  0  0  0  0  0  0  0  0  0
    7.8704    1.6935    0.0000 H   0  0  0  0  0  0  0  0  0  0  0  0
    1.4631   -0.5273    0.0000 H   0  0  0  0  0  0  0  0  0  0  0  0
    1.4631   -2.1473    0.0000 H   0  0  0  0  0  0  0  0  0  0  0  0
    8.1566    2.5388    0.0000 H   0  0  0  0  0  0  0  0  0  0  0  0
    7.7599    3.3207    0.0000 H   0  0  0  0  0  0  0  0  0  0  0  0
    6.9780    2.9240    0.0000 H   0  0  0  0  0  0  0  0  0  0  0  0
  1  7  1  0  0  0  0
  1  8  1  0  0  0  0
  1 20  1  0  0  0  0
  2  6  1  0  0  0  0
  2 11  1  0  0  0  0
  2 21  1  0  0  0  0
  3  4  1  0  0  0  0
  3  5  1  0  0  0  0
  3  8  2  0  0  0  0
  4  6  1  0  0  0  0
  4 15  1  0  0  0  0
  4 16  1  0  0  0  0
  5  7  1  0  0  0  0
  5  9  2  0  0  0  0
  6 17  1  0  0  0  0
  6 18  1  0  0  0  0
  7 10  2  0  0  0  0
  8 19  1  0  0  0  0
  9 12  1  0  0  0  0
  9 22  1  0  0  0  0
 10 13  1  0  0  0  0
 10 23  1  0  0  0  0
 11 14  1  0  0  0  0
 11 24  1  0  0  0  0
 11 25  1  0  0  0  0
 12 13  2  0  0  0  0
 12 26  1  0  0  0  0
 13 27  1  0  0  0  0
 14 28  1  0  0  0  0
 14 29  1  0  0  0  0
 14 30  1  0  0  0  0
M  END
> <PUBCHEM_COMPOUND_CID>
6092

> <PUBCHEM_COMPOUND_CANONICALIZED>
1

> <PUBCHEM_CACTVS_COMPLEXITY>
170

> <PUBCHEM_CACTVS_HBOND_ACCEPTOR>
1

> <PUBCHEM_CACTVS_HBOND_DONOR>
2

> <PUBCHEM_CACTVS_ROTATABLE_BOND>
4

> <PUBCHEM_CACTVS_SUBSKEYS>
AAADceBzAAAAAAAAAAAAAAAAAAAAAWAAAAAwAAAAAAAAAFgB8AAAHAAQAAAADAjBHgQ+wPLJkACgAzRnRACCgCAxAiAI2aA4ZJgIIOLAkZGEIAhgkADIyAcQgMAOgAAAAAACAAAAAAAAAAQAAAAAAAAAAA==

> <PUBCHEM_IUPAC_OPENEYE_NAME>
N-ethyl-2-(1H-indol-3-yl)ethanamine

> <PUBCHEM_IUPAC_CAS_NAME>
N-ethyl-2-(1H-indol-3-yl)ethanamine

> <PUBCHEM_IUPAC_NAME>
N-ethyl-2-(1H-indol-3-yl)ethanamine

> <PUBCHEM_IUPAC_SYSTEMATIC_NAME>
N-ethyl-2-(1H-indol-3-yl)ethanamine

> <PUBCHEM_IUPAC_TRADITIONAL_NAME>
ethyl-[2-(1H-indol-3-yl)ethyl]amine

> <PUBCHEM_IUPAC_INCHI>
InChI=1S/C12H16N2/c1-2-13-8-7-10-9-14-12-6-4-3-5-11(10)12/h3-6,9,13-14H,2,7-8H2,1H3

> <PUBCHEM_IUPAC_INCHIKEY>
TZWUSTVNAVKAPA-UHFFFAOYSA-N

> <PUBCHEM_XLOGP3>
2.4

> <PUBCHEM_EXACT_MASS>
188.131349

> <PUBCHEM_MOLECULAR_FORMULA>
C12H16N2

> <PUBCHEM_MOLECULAR_WEIGHT>
188.26884

> <PUBCHEM_OPENEYE_CAN_SMILES>
CCNCCC1=CNC2=CC=CC=C21

> <PUBCHEM_OPENEYE_ISO_SMILES>
CCNCCC1=CNC2=CC=CC=C21

> <PUBCHEM_CACTVS_TPSA>
27.8

> <PUBCHEM_MONOISOTOPIC_WEIGHT>
188.131349

> <PUBCHEM_TOTAL_CHARGE>
0

> <PUBCHEM_HEAVY_ATOM_COUNT>
14

> <PUBCHEM_ATOM_DEF_STEREO_COUNT>
0

> <PUBCHEM_ATOM_UDEF_STEREO_COUNT>
0

> <PUBCHEM_BOND_DEF_STEREO_COUNT>
0

> <PUBCHEM_BOND_UDEF_STEREO_COUNT>
0

> <PUBCHEM_ISOTOPIC_ATOM_COUNT>
0

> <PUBCHEM_COMPONENT_COUNT>
1

> <PUBCHEM_CACTVS_TAUTO_COUNT>
1

> <PUBCHEM_COORDINATE_TYPE>
1
5
255

> <PUBCHEM_BONDANNOTATIONS>
1  7  8
1  8  8
10  13  8
12  13  8
3  5  8
3  8  8
5  7  8
5  9  8
7  10  8
9  12  8

$$$$

