9543344
  -OEChem-07051213112D

 33 36  0     0  0  0  0  0  0999 V2000
    2.0574    1.4796    0.0000 O   0  0  0  0  0  0  0  0  0  0  0  0
    3.7894    1.4596    0.0000 O   0  0  0  0  0  0  0  0  0  0  0  0
    4.6660   -0.0649    0.0000 C   0  0  0  0  0  0  0  0  0  0  0  0
    5.5321   -0.5649    0.0000 C   0  0  0  0  0  0  0  0  0  0  0  0
    3.8000   -0.5649    0.0000 C   0  0  0  0  0  0  0  0  0  0  0  0
    6.4421   -0.0581    0.0000 C   0  0  0  0  0  0  0  0  0  0  0  0
    3.8000   -1.5649    0.0000 C   0  0  0  0  0  0  0  0  0  0  0  0
    6.4501    0.9835    0.0000 C   0  0  0  0  0  0  0  0  0  0  0  0
    5.5321   -1.5649    0.0000 C   0  0  0  0  0  0  0  0  0  0  0  0
    4.6500    0.9766    0.0000 C   0  0  0  0  0  0  0  0  0  0  0  0
    2.9061   -0.0303    0.0000 C   0  0  0  0  0  0  0  0  0  0  0  0
    4.6660   -2.0649    0.0000 C   0  0  0  0  0  0  0  0  0  0  0  0
    5.5480    1.5043    0.0000 C   0  0  0  0  0  0  0  0  0  0  0  0
    7.3689   -0.6222    0.0000 C   0  0  0  0  0  0  0  0  0  0  0  0
    2.9061   -2.0996    0.0000 C   0  0  0  0  0  0  0  0  0  0  0  0
    7.3855    1.5332    0.0000 C   0  0  0  0  0  0  0  0  0  0  0  0
    2.0000   -0.5441    0.0000 C   0  0  0  0  0  0  0  0  0  0  0  0
    2.0000   -1.5858    0.0000 C   0  0  0  0  0  0  0  0  0  0  0  0
    8.3168   -0.0942    0.0000 C   0  0  0  0  0  0  0  0  0  0  0  0
    8.3252    0.9907    0.0000 C   0  0  0  0  0  0  0  0  0  0  0  0
    2.9176    0.9697    0.0000 C   0  0  0  0  0  0  0  0  0  0  0  0
    6.0690   -1.8749    0.0000 H   0  0  0  0  0  0  0  0  0  0  0  0
    4.1095    1.2803    0.0000 H   0  0  0  0  0  0  0  0  0  0  0  0
    4.6660   -2.6849    0.0000 H   0  0  0  0  0  0  0  0  0  0  0  0
    5.5456    2.1243    0.0000 H   0  0  0  0  0  0  0  0  0  0  0  0
    2.9132   -2.7196    0.0000 H   0  0  0  0  0  0  0  0  0  0  0  0
    7.3570   -1.2421    0.0000 H   0  0  0  0  0  0  0  0  0  0  0  0
    7.3831    2.1532    0.0000 H   0  0  0  0  0  0  0  0  0  0  0  0
    1.4643   -0.2321    0.0000 H   0  0  0  0  0  0  0  0  0  0  0  0
    1.4643   -1.8978    0.0000 H   0  0  0  0  0  0  0  0  0  0  0  0
    8.8501   -0.4104    0.0000 H   0  0  0  0  0  0  0  0  0  0  0  0
    8.8633    1.2987    0.0000 H   0  0  0  0  0  0  0  0  0  0  0  0
    2.0646    2.0996    0.0000 H   0  0  0  0  0  0  0  0  0  0  0  0
  1 21  1  0  0  0  0
  1 33  1  0  0  0  0
  2 21  2  0  0  0  0
  3  4  2  0  0  0  0
  3  5  1  0  0  0  0
  3 10  1  0  0  0  0
  4  6  1  0  0  0  0
  4  9  1  0  0  0  0
  5  7  2  0  0  0  0
  5 11  1  0  0  0  0
  6  8  1  0  0  0  0
  6 14  2  0  0  0  0
  7 12  1  0  0  0  0
  7 15  1  0  0  0  0
  8 13  1  0  0  0  0
  8 16  2  0  0  0  0
  9 12  2  0  0  0  0
  9 22  1  0  0  0  0
 10 13  2  0  0  0  0
 10 23  1  0  0  0  0
 11 17  2  0  0  0  0
 11 21  1  0  0  0  0
 12 24  1  0  0  0  0
 13 25  1  0  0  0  0
 14 19  1  0  0  0  0
 14 27  1  0  0  0  0
 15 18  2  0  0  0  0
 15 26  1  0  0  0  0
 16 20  1  0  0  0  0
 16 28  1  0  0  0  0
 17 18  1  0  0  0  0
 17 29  1  0  0  0  0
 18 30  1  0  0  0  0
 19 20  2  0  0  0  0
 19 31  1  0  0  0  0
 20 32  1  0  0  0  0
M  END
> <PUBCHEM_COMPOUND_CID>
9543344

> <PUBCHEM_COMPOUND_CANONICALIZED>
1

> <PUBCHEM_CACTVS_COMPLEXITY>
404

> <PUBCHEM_CACTVS_HBOND_ACCEPTOR>
2

> <PUBCHEM_CACTVS_HBOND_DONOR>
1

> <PUBCHEM_CACTVS_ROTATABLE_BOND>
1

> <PUBCHEM_CACTVS_SUBSKEYS>
AAADccB4MAAAAAAAAAAAAAAAAAAAAAAAAAAwYMGAAAAAAADBVAAAGgAACAAADACAmAAwCMAAAgCIAiDSCAACAAAkAAAIiAEACMgIJjKAFRCAcQAkwAEImYeIyPCOwAACAAAQAACAAAQAACAAAAAAAAAAAA==

> <PUBCHEM_IUPAC_OPENEYE_NAME>
chrysene-4-carboxylic acid

> <PUBCHEM_IUPAC_CAS_NAME>
4-chrysenecarboxylic acid

> <PUBCHEM_IUPAC_NAME>
chrysene-4-carboxylic acid

> <PUBCHEM_IUPAC_SYSTEMATIC_NAME>
chrysene-4-carboxylic acid

> <PUBCHEM_IUPAC_TRADITIONAL_NAME>
chrysene-4-carboxylic acid

> <PUBCHEM_IUPAC_INCHI>
InChI=1S/C19H12O2/c20-19(21)17-7-3-5-13-9-10-15-14-6-2-1-4-12(14)8-11-16(15)18(13)17/h1-11H,(H,20,21)

> <PUBCHEM_IUPAC_INCHIKEY>
VIHCWMSLKDZZNU-UHFFFAOYSA-N

> <PUBCHEM_XLOGP3>
5.6

> <PUBCHEM_EXACT_MASS>
272.08373

> <PUBCHEM_MOLECULAR_FORMULA>
C19H12O2

> <PUBCHEM_MOLECULAR_WEIGHT>
272.29738

> <PUBCHEM_OPENEYE_CAN_SMILES>
C1=CC=C2C(=C1)C=CC3=C2C=CC4=C3C(=CC=C4)C(=O)O

> <PUBCHEM_OPENEYE_ISO_SMILES>
C1=CC=C2C(=C1)C=CC3=C2C=CC4=C3C(=CC=C4)C(=O)O

> <PUBCHEM_CACTVS_TPSA>
37.3

> <PUBCHEM_MONOISOTOPIC_WEIGHT>
272.08373

> <PUBCHEM_TOTAL_CHARGE>
0

> <PUBCHEM_HEAVY_ATOM_COUNT>
21

> <PUBCHEM_ATOM_DEF_STEREO_COUNT>
0

> <PUBCHEM_ATOM_UDEF_STEREO_COUNT>
0

> <PUBCHEM_BOND_DEF_STEREO_COUNT>
0

> <PUBCHEM_BOND_UDEF_STEREO_COUNT>
0

> <PUBCHEM_ISOTOPIC_ATOM_COUNT>
0

> <PUBCHEM_COMPONENT_COUNT>
1

> <PUBCHEM_CACTVS_TAUTO_COUNT>
1

> <PUBCHEM_COORDINATE_TYPE>
1
5
255

> <PUBCHEM_BONDANNOTATIONS>
10  13  8
11  17  8
14  19  8
15  18  8
16  20  8
17  18  8
19  20  8
3  10  8
3  4  8
3  5  8
4  6  8
4  9  8
5  11  8
5  7  8
6  14  8
6  8  8
7  12  8
7  15  8
8  13  8
8  16  8
9  12  8

$$$$

