222820
  -OEChem-07051213062D

 63 66  0     1  0  0  0  0  0999 V2000
    3.7320   -3.0814    0.0000 O   0  0  0  0  0  0  0  0  0  0  0  0
   11.3605    1.4324    0.0000 O   0  0  0  0  0  0  0  0  0  0  0  0
    2.8718   -1.5781    0.0000 O   0  0  0  0  0  0  0  0  0  0  0  0
   11.0033    3.1272    0.0000 O   0  0  0  0  0  0  0  0  0  0  0  0
    7.3931   -1.0291    0.0000 C   0  0  1  0  0  0  0  0  0  0  0  0
    8.2591   -1.5291    0.0000 C   0  0  2  0  0  0  0  0  0  0  0  0
    9.1251   -1.0291    0.0000 C   0  0  1  0  0  0  0  0  0  0  0  0
    9.1251   -0.0291    0.0000 C   0  0  2  0  0  0  0  0  0  0  0  0
    6.4831   -1.5359    0.0000 C   0  0  2  0  0  0  0  0  0  0  0  0
    7.3931   -0.0291    0.0000 C   0  0  0  0  0  0  0  0  0  0  0  0
    8.2591    0.4709    0.0000 C   0  0  0  0  0  0  0  0  0  0  0  0
    8.2752   -2.5706    0.0000 C   0  0  0  0  0  0  0  0  0  0  0  0
    6.4750   -2.5775    0.0000 C   0  0  0  0  0  0  0  0  0  0  0  0
   10.0713   -1.3338    0.0000 C   0  0  0  0  0  0  0  0  0  0  0  0
    5.5562   -0.9718    0.0000 C   0  0  0  0  0  0  0  0  0  0  0  0
   10.0713    0.2757    0.0000 C   0  0  0  0  0  0  0  0  0  0  0  0
    7.3771   -3.0983    0.0000 C   0  0  0  0  0  0  0  0  0  0  0  0
    9.1251    0.9709    0.0000 C   0  0  0  0  0  0  0  0  0  0  0  0
    6.4908   -0.5359    0.0000 C   0  0  0  0  0  0  0  0  0  0  0  0
    5.5396   -3.1272    0.0000 C   0  0  0  0  0  0  0  0  0  0  0  0
   10.6550   -0.5291    0.0000 C   0  0  0  0  0  0  0  0  0  0  0  0
    4.6084   -1.4998    0.0000 C   0  0  0  0  0  0  0  0  0  0  0  0
    4.6000   -2.5847    0.0000 C   0  0  2  0  0  0  0  0  0  0  0  0
   10.3820    1.2262    0.0000 C   0  0  0  0  0  0  0  0  0  0  0  0
    9.7142    1.9705    0.0000 C   0  0  0  0  0  0  0  0  0  0  0  0
    2.8680   -2.5781    0.0000 C   0  0  0  0  0  0  0  0  0  0  0  0
   11.6712    2.3829    0.0000 C   0  0  0  0  0  0  0  0  0  0  0  0
    2.0000   -3.0747    0.0000 C   0  0  0  0  0  0  0  0  0  0  0  0
   12.6497    2.5892    0.0000 C   0  0  0  0  0  0  0  0  0  0  0  0
    8.1292   -0.6041    0.0000 H   0  0  0  0  0  0  0  0  0  0  0  0
    8.9985   -1.9484    0.0000 H   0  0  0  0  0  0  0  0  0  0  0  0
    9.2151   -1.8743    0.0000 H   0  0  0  0  0  0  0  0  0  0  0  0
    7.1810    0.5535    0.0000 H   0  0  0  0  0  0  0  0  0  0  0  0
    6.7825   -0.1367    0.0000 H   0  0  0  0  0  0  0  0  0  0  0  0
    8.6576    0.9459    0.0000 H   0  0  0  0  0  0  0  0  0  0  0  0
    7.8606    0.9459    0.0000 H   0  0  0  0  0  0  0  0  0  0  0  0
    8.4932   -3.1510    0.0000 H   0  0  0  0  0  0  0  0  0  0  0  0
    8.8843   -2.4551    0.0000 H   0  0  0  0  0  0  0  0  0  0  0  0
    9.8203   -1.9007    0.0000 H   0  0  0  0  0  0  0  0  0  0  0  0
   10.6087   -1.6430    0.0000 H   0  0  0  0  0  0  0  0  0  0  0  0
    5.9644   -0.5052    0.0000 H   0  0  0  0  0  0  0  0  0  0  0  0
    5.1663   -0.4898    0.0000 H   0  0  0  0  0  0  0  0  0  0  0  0
    7.3795   -3.7183    0.0000 H   0  0  0  0  0  0  0  0  0  0  0  0
    9.7451    0.9709    0.0000 H   0  0  0  0  0  0  0  0  0  0  0  0
    9.1251    1.5909    0.0000 H   0  0  0  0  0  0  0  0  0  0  0  0
    8.5051    0.9709    0.0000 H   0  0  0  0  0  0  0  0  0  0  0  0
    7.1108   -0.5407    0.0000 H   0  0  0  0  0  0  0  0  0  0  0  0
    6.4956    0.0840    0.0000 H   0  0  0  0  0  0  0  0  0  0  0  0
    5.8708   -0.5312    0.0000 H   0  0  0  0  0  0  0  0  0  0  0  0
    5.1423   -3.6032    0.0000 H   0  0  0  0  0  0  0  0  0  0  0  0
    5.9406   -3.6001    0.0000 H   0  0  0  0  0  0  0  0  0  0  0  0
   11.2750   -0.5291    0.0000 H   0  0  0  0  0  0  0  0  0  0  0  0
    4.4038   -0.9145    0.0000 H   0  0  0  0  0  0  0  0  0  0  0  0
    3.9967   -1.6012    0.0000 H   0  0  0  0  0  0  0  0  0  0  0  0
    4.0648   -2.2716    0.0000 H   0  0  0  0  0  0  0  0  0  0  0  0
    9.9068    2.5598    0.0000 H   0  0  0  0  0  0  0  0  0  0  0  0
    9.1075    1.8426    0.0000 H   0  0  0  0  0  0  0  0  0  0  0  0
    1.6921   -2.5366    0.0000 H   0  0  0  0  0  0  0  0  0  0  0  0
    1.4619   -3.3826    0.0000 H   0  0  0  0  0  0  0  0  0  0  0  0
    2.3079   -3.6128    0.0000 H   0  0  0  0  0  0  0  0  0  0  0  0
   12.7775    1.9825    0.0000 H   0  0  0  0  0  0  0  0  0  0  0  0
   13.2564    2.7170    0.0000 H   0  0  0  0  0  0  0  0  0  0  0  0
   12.5218    3.1958    0.0000 H   0  0  0  0  0  0  0  0  0  0  0  0
 23  1  1  1  0  0  0
  1 26  1  0  0  0  0
  2 24  1  0  0  0  0
  2 27  1  0  0  0  0
  3 26  2  0  0  0  0
  4 27  2  0  0  0  0
  5  6  1  0  0  0  0
  5  9  1  0  0  0  0
  5 10  1  0  0  0  0
  5 30  1  6  0  0  0
  6  7  1  0  0  0  0
  6 12  1  0  0  0  0
  6 31  1  1  0  0  0
  7  8  1  0  0  0  0
  7 14  1  0  0  0  0
  7 32  1  6  0  0  0
  8 11  1  0  0  0  0
  8 16  1  0  0  0  0
  8 18  1  1  0  0  0
  9 13  1  0  0  0  0
  9 15  1  0  0  0  0
  9 19  1  1  0  0  0
 10 11  1  0  0  0  0
 10 33  1  0  0  0  0
 10 34  1  0  0  0  0
 11 35  1  0  0  0  0
 11 36  1  0  0  0  0
 12 17  1  0  0  0  0
 12 37  1  0  0  0  0
 12 38  1  0  0  0  0
 13 17  2  0  0  0  0
 13 20  1  0  0  0  0
 14 21  1  0  0  0  0
 14 39  1  0  0  0  0
 14 40  1  0  0  0  0
 15 22  1  0  0  0  0
 15 41  1  0  0  0  0
 15 42  1  0  0  0  0
 16 21  2  0  0  0  0
 16 24  1  0  0  0  0
 17 43  1  0  0  0  0
 18 44  1  0  0  0  0
 18 45  1  0  0  0  0
 18 46  1  0  0  0  0
 19 47  1  0  0  0  0
 19 48  1  0  0  0  0
 19 49  1  0  0  0  0
 20 23  1  0  0  0  0
 20 50  1  0  0  0  0
 20 51  1  0  0  0  0
 21 52  1  0  0  0  0
 22 23  1  0  0  0  0
 22 53  1  0  0  0  0
 22 54  1  0  0  0  0
 23 55  1  0  0  0  0
 24 25  2  0  0  0  0
 25 56  1  0  0  0  0
 25 57  1  0  0  0  0
 26 28  1  0  0  0  0
 27 29  1  0  0  0  0
 28 58  1  0  0  0  0
 28 59  1  0  0  0  0
 28 60  1  0  0  0  0
 29 61  1  0  0  0  0
 29 62  1  0  0  0  0
 29 63  1  0  0  0  0
M  END
> <PUBCHEM_COMPOUND_CID>
222820

> <PUBCHEM_COMPOUND_CANONICALIZED>
1

> <PUBCHEM_CACTVS_COMPLEXITY>
806

> <PUBCHEM_CACTVS_HBOND_ACCEPTOR>
4

> <PUBCHEM_CACTVS_HBOND_DONOR>
0

> <PUBCHEM_CACTVS_ROTATABLE_BOND>
5

> <PUBCHEM_CACTVS_SUBSKEYS>
AAADcfB4OAAAAAAAAAAAAAAAAAAAAQAAAAAwYIAAAAAAAECAAAAAGgAAAAAADxSggAICCAAABACIAiDSCAAACAAgAAAACAAAAAgIBAIAIQACEAAEwAAIoAOAwPAPgAAAAAAAAADAAAQAACAAAAAAAAAAAA==

> <PUBCHEM_IUPAC_OPENEYE_NAME>
[(3S,8R,9S,10R,13S,14S)-17-(1-acetoxyvinyl)-10,13-dimethyl-2,3,4,7,8,9,11,12,14,15-decahydro-1H-cyclopenta[a]phenanthren-3-yl] acetate

> <PUBCHEM_IUPAC_CAS_NAME>
acetic acid [(3S,8R,9S,10R,13S,14S)-17-(1-acetyloxyethenyl)-10,13-dimethyl-2,3,4,7,8,9,11,12,14,15-decahydro-1H-cyclopenta[a]phenanthren-3-yl] ester

> <PUBCHEM_IUPAC_NAME>
[(3S,8R,9S,10R,13S,14S)-17-(1-acetyloxyethenyl)-10,13-dimethyl-2,3,4,7,8,9,11,12,14,15-decahydro-1H-cyclopenta[a]phenanthren-3-yl] acetate

> <PUBCHEM_IUPAC_SYSTEMATIC_NAME>
[(3S,8R,9S,10R,13S,14S)-17-(1-acetyloxyethenyl)-10,13-dimethyl-2,3,4,7,8,9,11,12,14,15-decahydro-1H-cyclopenta[a]phenanthren-3-yl] ethanoate

> <PUBCHEM_IUPAC_TRADITIONAL_NAME>
acetic acid [(3S,8R,9S,10R,13S,14S)-17-(1-acetoxyvinyl)-10,13-dimethyl-2,3,4,7,8,9,11,12,14,15-decahydro-1H-cyclopenta[a]phenanthren-3-yl] ester

> <PUBCHEM_IUPAC_INCHI>
InChI=1S/C25H34O4/c1-15(28-16(2)26)21-8-9-22-20-7-6-18-14-19(29-17(3)27)10-12-24(18,4)23(20)11-13-25(21,22)5/h6,8,19-20,22-23H,1,7,9-14H2,2-5H3/t19-,20-,22-,23-,24-,25+/m0/s1

> <PUBCHEM_IUPAC_INCHIKEY>
WVWYUFYNHHQVFI-ABVATSDPSA-N

> <PUBCHEM_XLOGP3_AA>
5

> <PUBCHEM_EXACT_MASS>
398.24571

> <PUBCHEM_MOLECULAR_FORMULA>
C25H34O4

> <PUBCHEM_MOLECULAR_WEIGHT>
398.53506

> <PUBCHEM_OPENEYE_CAN_SMILES>
CC(=O)OC1CCC2(C3CCC4(C(C3CC=C2C1)CC=C4C(=C)OC(=O)C)C)C

> <PUBCHEM_OPENEYE_ISO_SMILES>
CC(=O)O[C@H]1CC[C@@]2([C@H]3CC[C@]4([C@H]([C@@H]3CC=C2C1)CC=C4C(=C)OC(=O)C)C)C

> <PUBCHEM_CACTVS_TPSA>
52.6

> <PUBCHEM_MONOISOTOPIC_WEIGHT>
398.24571

> <PUBCHEM_TOTAL_CHARGE>
0

> <PUBCHEM_HEAVY_ATOM_COUNT>
29

> <PUBCHEM_ATOM_DEF_STEREO_COUNT>
6

> <PUBCHEM_ATOM_UDEF_STEREO_COUNT>
0

> <PUBCHEM_BOND_DEF_STEREO_COUNT>
0

> <PUBCHEM_BOND_UDEF_STEREO_COUNT>
0

> <PUBCHEM_ISOTOPIC_ATOM_COUNT>
0

> <PUBCHEM_COMPONENT_COUNT>
1

> <PUBCHEM_CACTVS_TAUTO_COUNT>
1

> <PUBCHEM_COORDINATE_TYPE>
1
5
255

> <PUBCHEM_BONDANNOTATIONS>
23  1  5
5  30  6
6  31  5
7  32  6
8  18  5
9  19  5

$$$$

