1119
  -OEChem-07051212572D

  3  2  0     0  0  0  0  0  0999 V2000
    2.8660    0.0000    0.0000 S   0  0  0  0  0  0  0  0  0  0  0  0
    3.7320    0.5000    0.0000 O   0  0  0  0  0  0  0  0  0  0  0  0
    2.0000   -0.5000    0.0000 O   0  0  0  0  0  0  0  0  0  0  0  0
  1  2  2  0  0  0  0
  1  3  2  0  0  0  0
M  END
> <PUBCHEM_COMPOUND_CID>
1119

> <PUBCHEM_COMPOUND_CANONICALIZED>
1

> <PUBCHEM_CACTVS_COMPLEXITY>
18.3

> <PUBCHEM_CACTVS_HBOND_ACCEPTOR>
3

> <PUBCHEM_CACTVS_HBOND_DONOR>
0

> <PUBCHEM_CACTVS_ROTATABLE_BOND>
0

> <PUBCHEM_CACTVS_SUBSKEYS>
AAADcQAAMABAAAAAAAAAAAAAAAAAAAAAAAAAAAAAAAAAAAAAAAAAAAAAAAAAAAAAAAAAAAAAAAAAAAAAADAAAAAAAAAAAAAAAAAAAAAAAAAAAAAAAAAAAAAAAAAAAAAAAAAAAAAAAAAAAAAAAAAAAAAAAA==

> <PUBCHEM_IUPAC_OPENEYE_NAME>
sulfur dioxide

> <PUBCHEM_IUPAC_CAS_NAME>
sulfur dioxide

> <PUBCHEM_IUPAC_NAME>
sulfur dioxide

> <PUBCHEM_IUPAC_SYSTEMATIC_NAME>
sulfur dioxide

> <PUBCHEM_IUPAC_TRADITIONAL_NAME>
sulfur dioxide

> <PUBCHEM_IUPAC_INCHI>
InChI=1S/O2S/c1-3-2

> <PUBCHEM_IUPAC_INCHIKEY>
RAHZWNYVWXNFOC-UHFFFAOYSA-N

> <PUBCHEM_XLOGP3_AA>
0.1

> <PUBCHEM_EXACT_MASS>
63.9619

> <PUBCHEM_MOLECULAR_FORMULA>
O2S

> <PUBCHEM_MOLECULAR_WEIGHT>
64.0638

> <PUBCHEM_OPENEYE_CAN_SMILES>
O=S=O

> <PUBCHEM_OPENEYE_ISO_SMILES>
O=S=O

> <PUBCHEM_CACTVS_TPSA>
35.1

> <PUBCHEM_MONOISOTOPIC_WEIGHT>
63.9619

> <PUBCHEM_TOTAL_CHARGE>
0

> <PUBCHEM_HEAVY_ATOM_COUNT>
3

> <PUBCHEM_ATOM_DEF_STEREO_COUNT>
0

> <PUBCHEM_ATOM_UDEF_STEREO_COUNT>
0

> <PUBCHEM_BOND_DEF_STEREO_COUNT>
0

> <PUBCHEM_BOND_UDEF_STEREO_COUNT>
0

> <PUBCHEM_ISOTOPIC_ATOM_COUNT>
0

> <PUBCHEM_COMPONENT_COUNT>
1

> <PUBCHEM_CACTVS_TAUTO_COUNT>
1

> <PUBCHEM_COORDINATE_TYPE>
1
5
255

$$$$

