14289
  -OEChem-06241222433D

 20 20  0     0  0  0  0  0  0999 V2000
    3.7891    0.0001   -0.0595 S   0  0  0  0  0  0  0  0  0  0  0  0
    1.0647   -0.0002   -0.5312 N   0  0  0  0  0  0  0  0  0  0  0  0
    0.2170    0.0022    0.6691 C   0  0  0  0  0  0  0  0  0  0  0  0
   -0.6380    1.2699    0.6796 C   0  0  0  0  0  0  0  0  0  0  0  0
   -0.6346   -1.2677    0.6812 C   0  0  0  0  0  0  0  0  0  0  0  0
   -1.7217    1.2605   -0.3982 C   0  0  0  0  0  0  0  0  0  0  0  0
   -1.7189   -1.2626   -0.3962 C   0  0  0  0  0  0  0  0  0  0  0  0
   -2.5749   -0.0020   -0.3287 C   0  0  0  0  0  0  0  0  0  0  0  0
    2.2173   -0.0001   -0.3162 C   0  0  0  0  0  0  0  0  0  0  0  0
    0.8235    0.0036    1.5880 H   0  0  0  0  0  0  0  0  0  0  0  0
   -0.0070    2.1576    0.5519 H   0  0  0  0  0  0  0  0  0  0  0  0
   -1.1215    1.3634    1.6605 H   0  0  0  0  0  0  0  0  0  0  0  0
   -1.1178   -1.3610    1.6623 H   0  0  0  0  0  0  0  0  0  0  0  0
   -0.0017   -2.1542    0.5549 H   0  0  0  0  0  0  0  0  0  0  0  0
   -1.2579    1.3345   -1.3893 H   0  0  0  0  0  0  0  0  0  0  0  0
   -2.3613    2.1428   -0.2820 H   0  0  0  0  0  0  0  0  0  0  0  0
   -2.3564   -2.1462   -0.2781 H   0  0  0  0  0  0  0  0  0  0  0  0
   -1.2553   -1.3373   -1.3874 H   0  0  0  0  0  0  0  0  0  0  0  0
   -3.1519   -0.0019    0.6044 H   0  0  0  0  0  0  0  0  0  0  0  0
   -3.2987   -0.0035   -1.1514 H   0  0  0  0  0  0  0  0  0  0  0  0
  1  9  2  0  0  0  0
  2  3  1  0  0  0  0
  2  9  2  0  0  0  0
  3  4  1  0  0  0  0
  3  5  1  0  0  0  0
  3 10  1  0  0  0  0
  4  6  1  0  0  0  0
  4 11  1  0  0  0  0
  4 12  1  0  0  0  0
  5  7  1  0  0  0  0
  5 13  1  0  0  0  0
  5 14  1  0  0  0  0
  6  8  1  0  0  0  0
  6 15  1  0  0  0  0
  6 16  1  0  0  0  0
  7  8  1  0  0  0  0
  7 17  1  0  0  0  0
  7 18  1  0  0  0  0
  8 19  1  0  0  0  0
  8 20  1  0  0  0  0
M  END
> <PUBCHEM_COMPOUND_CID>
14289

> <PUBCHEM_CONFORMER_RMSD>
0.4

> <PUBCHEM_CONFORMER_DIVERSEORDER>
1
18
14
17
2
16
19
15
9
13
8
10
11
6
3
4
5
12
20
7
21

> <PUBCHEM_MMFF94_PARTIAL_CHARGES>
4
1 -0.27
2 -0.55
3 0.25
9 0.57

> <PUBCHEM_EFFECTIVE_ROTOR_COUNT>
2.2

> <PUBCHEM_PHARMACOPHORE_FEATURES>
3
1 1 acceptor
1 2 acceptor
6 3 4 5 6 7 8 rings

> <PUBCHEM_HEAVY_ATOM_COUNT>
9

> <PUBCHEM_ATOM_DEF_STEREO_COUNT>
0

> <PUBCHEM_ATOM_UDEF_STEREO_COUNT>
0

> <PUBCHEM_BOND_DEF_STEREO_COUNT>
0

> <PUBCHEM_BOND_UDEF_STEREO_COUNT>
0

> <PUBCHEM_ISOTOPIC_ATOM_COUNT>
0

> <PUBCHEM_COMPONENT_COUNT>
1

> <PUBCHEM_CACTVS_TAUTO_COUNT>
1

> <PUBCHEM_CONFORMER_ID>
000037D100000001

> <PUBCHEM_MMFF94_ENERGY>
3.7217

> <PUBCHEM_FEATURE_SELFOVERLAP>
15.228

> <PUBCHEM_SHAPE_FINGERPRINT>
11062470 55 16588022415765000083
12716758 59 18410017636710561026
12897270 3 18187083961992731100
12932764 1 18410567392941056890
13024252 1 17846492621601853859
14325111 11 18342176712962688172
15775835 57 18059575857519592644
16714656 1 18410575089332553621
20201158 50 18113336409966668142
20653085 51 16487256543087404870
21040471 1 18194699269937350673
21061003 4 17022895710212332338
21293036 1 18410583885515331309
23402539 116 18335994128814557429
23552423 10 18200314295162666368
29004967 10 16660362567095560019
369184 2 18408882940800275882

> <PUBCHEM_SHAPE_MULTIPOLES>
184.08
4.66
1.33
0.85
4.9
0
0.07
0
-0.84
-0.85
0.1
-0.07
0
0

> <PUBCHEM_SHAPE_SELFOVERLAP>
349.866

> <PUBCHEM_SHAPE_VOLUME>
114.3

> <PUBCHEM_COORDINATE_TYPE>
2
5
10

$$$$

