442935
  -OEChem-07051213003D

 25 27  0     1  0  0  0  0  0999 V2000
   -3.0393    1.4830   -1.0674 O   0  0  0  0  0  0  0  0  0  0  0  0
    0.1300   -2.6374   -0.2032 O   0  0  0  0  0  0  0  0  0  0  0  0
   -1.1648   -0.7302    0.0489 N   0  0  0  0  0  0  0  0  0  0  0  0
   -0.2226    1.4522    0.1917 N   0  0  0  0  0  0  0  0  0  0  0  0
   -3.3698   -0.2375    0.6278 C   0  0  0  0  0  0  0  0  0  0  0  0
   -2.6757    1.0680    0.2354 C   0  0  1  0  0  0  0  0  0  0  0  0
   -2.4842   -1.3216    0.0293 C   0  0  0  0  0  0  0  0  0  0  0  0
   -1.2361    0.6536    0.1659 C   0  0  0  0  0  0  0  0  0  0  0  0
    0.0242   -1.4241   -0.0708 C   0  0  0  0  0  0  0  0  0  0  0  0
    1.2221   -0.5457   -0.0303 C   0  0  0  0  0  0  0  0  0  0  0  0
    1.0490    0.8463    0.0993 C   0  0  0  0  0  0  0  0  0  0  0  0
    2.5008   -1.1038   -0.1218 C   0  0  0  0  0  0  0  0  0  0  0  0
    2.1848    1.6627    0.1351 C   0  0  0  0  0  0  0  0  0  0  0  0
    3.6193   -0.2725   -0.0839 C   0  0  0  0  0  0  0  0  0  0  0  0
    3.4624    1.1069    0.0441 C   0  0  0  0  0  0  0  0  0  0  0  0
   -4.3990   -0.3095    0.2645 H   0  0  0  0  0  0  0  0  0  0  0  0
   -3.3725   -0.3355    1.7203 H   0  0  0  0  0  0  0  0  0  0  0  0
   -2.8407    1.8820    0.9446 H   0  0  0  0  0  0  0  0  0  0  0  0
   -2.5022   -2.2564    0.5973 H   0  0  0  0  0  0  0  0  0  0  0  0
   -2.7444   -1.5368   -1.0128 H   0  0  0  0  0  0  0  0  0  0  0  0
   -3.0178    0.7130   -1.6603 H   0  0  0  0  0  0  0  0  0  0  0  0
    2.6443   -2.1759   -0.2220 H   0  0  0  0  0  0  0  0  0  0  0  0
    2.0813    2.7406    0.2339 H   0  0  0  0  0  0  0  0  0  0  0  0
    4.6154   -0.7001   -0.1544 H   0  0  0  0  0  0  0  0  0  0  0  0
    4.3363    1.7514    0.0730 H   0  0  0  0  0  0  0  0  0  0  0  0
  1  6  1  0  0  0  0
  1 21  1  0  0  0  0
  2  9  2  0  0  0  0
  3  7  1  0  0  0  0
  3  8  1  0  0  0  0
  3  9  1  0  0  0  0
  4  8  2  0  0  0  0
  4 11  1  0  0  0  0
  5  6  1  0  0  0  0
  5  7  1  0  0  0  0
  5 16  1  0  0  0  0
  5 17  1  0  0  0  0
  6  8  1  0  0  0  0
  6 18  1  0  0  0  0
  7 19  1  0  0  0  0
  7 20  1  0  0  0  0
  9 10  1  0  0  0  0
 10 11  1  0  0  0  0
 10 12  2  0  0  0  0
 11 13  2  0  0  0  0
 12 14  1  0  0  0  0
 12 22  1  0  0  0  0
 13 15  1  0  0  0  0
 13 23  1  0  0  0  0
 14 15  2  0  0  0  0
 14 24  1  0  0  0  0
 15 25  1  0  0  0  0
M  END
> <PUBCHEM_COMPOUND_CID>
442935

> <PUBCHEM_CONFORMER_RMSD>
0.4

> <PUBCHEM_CONFORMER_DIVERSEORDER>
1

> <PUBCHEM_MMFF94_PARTIAL_CHARGES>
19
1 -0.68
10 0.09
11 0.18
12 -0.15
13 -0.15
14 -0.15
15 -0.15
2 -0.57
21 0.4
22 0.15
23 0.15
24 0.15
25 0.15
3 -0.42
4 -0.63
6 0.34
7 0.3
8 0.45
9 0.54

> <PUBCHEM_EFFECTIVE_ROTOR_COUNT>
0.6

> <PUBCHEM_PHARMACOPHORE_FEATURES>
6
1 1 acceptor
1 1 donor
1 2 acceptor
5 3 5 6 7 8 rings
6 10 11 12 13 14 15 rings
6 3 4 8 9 10 11 rings

> <PUBCHEM_HEAVY_ATOM_COUNT>
15

> <PUBCHEM_ATOM_DEF_STEREO_COUNT>
1

> <PUBCHEM_ATOM_UDEF_STEREO_COUNT>
0

> <PUBCHEM_BOND_DEF_STEREO_COUNT>
0

> <PUBCHEM_BOND_UDEF_STEREO_COUNT>
0

> <PUBCHEM_ISOTOPIC_ATOM_COUNT>
0

> <PUBCHEM_COMPONENT_COUNT>
1

> <PUBCHEM_CACTVS_TAUTO_COUNT>
7

> <PUBCHEM_CONFORMER_ID>
0006C23700000001

> <PUBCHEM_MMFF94_ENERGY>
35.4878

> <PUBCHEM_FEATURE_SELFOVERLAP>
30.58

> <PUBCHEM_SHAPE_FINGERPRINT>
10411042 1 15599203727070218300
10608611 8 18411703175056451248
10922523 26 18412260631820209924
10967382 1 18409445907854548986
11132069 177 18335145293079495826
11471102 20 18337111267062033821
11543360 7 15140970512899765688
12032990 46 18410002234942071602
13140716 1 18409728486516431920
13380535 76 18411421747540444331
13897977 150 18410576231546083941
14144814 61 18410011013965910104
14325111 11 18410291397920843560
15196674 1 18409727348387021338
15219456 202 18341048601047578209
15309172 13 18336255786727833139
15536298 74 18260827090492603488
15775835 57 18409441462436732152
16945 1 18192990636998707434
17844478 74 18130216078248383217
18186145 218 18333724736888725852
193761 8 17545035365423350200
200 152 18040443170465512813
20201158 50 18337672026360471143
20510252 161 18260261910897625425
20645476 183 17916286278544190350
20645477 70 18262804089540159287
21267235 1 18337660949740379338
21501502 16 18191868925027960702
2334 1 18337673014176529992
23402539 116 18260556614837551772
23402655 69 18263658414866053653
23419403 2 16538829385096425744
23463225 33 18412824698644352706
23493267 7 17846218894593431097
23559900 14 18187639164843710268
25 1 18268717293049542605
2748010 2 18410290298287701620
335352 9 18121778601799188198
5104073 3 18410573989562509464
528886 8 18408889546322846706
53812653 166 18334013874113460136
69090 78 18262239923852588439
7364860 26 18191584370354405742
81228 2 17688602567053978475
8809292 202 18343292652466189130

> <PUBCHEM_SHAPE_MULTIPOLES>
286.99
5.79
2.04
0.69
0.45
0.58
0.04
-1.18
-0.03
-0.03
0.15
-0.26
-0.1
0.32

> <PUBCHEM_SHAPE_SELFOVERLAP>
637.933

> <PUBCHEM_SHAPE_VOLUME>
153.9

> <PUBCHEM_COORDINATE_TYPE>
2
5
10

$$$$

