5280834
  -OEChem-07051212502D

121121  0     0  0  0  0  0  0999 V2000
   30.5788    1.3450    0.0000 O   0  0  0  0  0  0  0  0  0  0  0  0
   32.3109    0.3450    0.0000 O   0  0  0  0  0  0  0  0  0  0  0  0
   15.8564   -0.1550    0.0000 C   0  0  0  0  0  0  0  0  0  0  0  0
   19.3205   -0.1550    0.0000 C   0  0  0  0  0  0  0  0  0  0  0  0
   14.9904    0.3450    0.0000 C   0  0  0  0  0  0  0  0  0  0  0  0
   12.3923   -0.1550    0.0000 C   0  0  0  0  0  0  0  0  0  0  0  0
   18.4545    0.3450    0.0000 C   0  0  0  0  0  0  0  0  0  0  0  0
   16.7224    0.3450    0.0000 C   0  0  0  0  0  0  0  0  0  0  0  0
   11.5263    0.3450    0.0000 C   0  0  0  0  0  0  0  0  0  0  0  0
   13.2583    0.3450    0.0000 C   0  0  0  0  0  0  0  0  0  0  0  0
   22.7846   -0.1550    0.0000 C   0  0  0  0  0  0  0  0  0  0  0  0
   21.9186    0.3450    0.0000 C   0  0  0  0  0  0  0  0  0  0  0  0
   20.1865    0.3450    0.0000 C   0  0  0  0  0  0  0  0  0  0  0  0
    8.9282   -0.1550    0.0000 C   0  0  0  0  0  0  0  0  0  0  0  0
   17.5885   -0.1550    0.0000 C   0  0  0  0  0  0  0  0  0  0  0  0
   14.1244   -0.1550    0.0000 C   0  0  0  0  0  0  0  0  0  0  0  0
    9.7942    0.3450    0.0000 C   0  0  0  0  0  0  0  0  0  0  0  0
   23.6506    0.3450    0.0000 C   0  0  0  0  0  0  0  0  0  0  0  0
   21.0526   -0.1550    0.0000 C   0  0  0  0  0  0  0  0  0  0  0  0
    8.0622    0.3450    0.0000 C   0  0  0  0  0  0  0  0  0  0  0  0
   10.6603   -0.1550    0.0000 C   0  0  0  0  0  0  0  0  0  0  0  0
   25.3827    0.3450    0.0000 C   0  0  0  0  0  0  0  0  0  0  0  0
   26.2487   -0.1550    0.0000 C   0  0  0  0  0  0  0  0  0  0  0  0
   24.5167   -0.1550    0.0000 C   0  0  0  0  0  0  0  0  0  0  0  0
   16.7224    1.3450    0.0000 C   0  0  0  0  0  0  0  0  0  0  0  0
    7.1962   -0.1550    0.0000 C   0  0  0  0  0  0  0  0  0  0  0  0
    6.3301    0.3450    0.0000 C   0  0  0  0  0  0  0  0  0  0  0  0
   13.2583    1.3450    0.0000 C   0  0  0  0  0  0  0  0  0  0  0  0
   20.1865    1.3450    0.0000 C   0  0  0  0  0  0  0  0  0  0  0  0
    5.4641   -0.1550    0.0000 C   0  0  0  0  0  0  0  0  0  0  0  0
   27.1147    0.3450    0.0000 C   0  0  0  0  0  0  0  0  0  0  0  0
    9.7942    1.3450    0.0000 C   0  0  0  0  0  0  0  0  0  0  0  0
   23.6506    1.3450    0.0000 C   0  0  0  0  0  0  0  0  0  0  0  0
    4.5981    0.3450    0.0000 C   0  0  0  0  0  0  0  0  0  0  0  0
   27.9808   -0.1550    0.0000 C   0  0  0  0  0  0  0  0  0  0  0  0
   28.8468    0.3450    0.0000 C   0  0  0  0  0  0  0  0  0  0  0  0
    6.3301    1.3450    0.0000 C   0  0  0  0  0  0  0  0  0  0  0  0
   27.1147    1.3450    0.0000 C   0  0  0  0  0  0  0  0  0  0  0  0
   29.7128   -0.1550    0.0000 C   0  0  0  0  0  0  0  0  0  0  0  0
    3.7320   -0.1550    0.0000 C   0  0  0  0  0  0  0  0  0  0  0  0
    2.8660    0.3450    0.0000 C   0  0  0  0  0  0  0  0  0  0  0  0
   30.5788    0.3450    0.0000 C   0  0  0  0  0  0  0  0  0  0  0  0
   29.7128   -1.1550    0.0000 C   0  0  0  0  0  0  0  0  0  0  0  0
   31.4449   -0.1550    0.0000 C   0  0  0  0  0  0  0  0  0  0  0  0
    2.0000   -0.1550    0.0000 C   0  0  0  0  0  0  0  0  0  0  0  0
    2.8660    1.3450    0.0000 C   0  0  0  0  0  0  0  0  0  0  0  0
   30.5788   -1.6550    0.0000 C   0  0  0  0  0  0  0  0  0  0  0  0
   31.4449   -1.1550    0.0000 C   0  0  0  0  0  0  0  0  0  0  0  0
   33.1769   -0.1550    0.0000 C   0  0  0  0  0  0  0  0  0  0  0  0
   15.4579   -0.6299    0.0000 H   0  0  0  0  0  0  0  0  0  0  0  0
   16.2549   -0.6299    0.0000 H   0  0  0  0  0  0  0  0  0  0  0  0
   18.9220   -0.6299    0.0000 H   0  0  0  0  0  0  0  0  0  0  0  0
   19.7190   -0.6299    0.0000 H   0  0  0  0  0  0  0  0  0  0  0  0
   15.3889    0.8199    0.0000 H   0  0  0  0  0  0  0  0  0  0  0  0
   14.5919    0.8199    0.0000 H   0  0  0  0  0  0  0  0  0  0  0  0
   11.9938   -0.6299    0.0000 H   0  0  0  0  0  0  0  0  0  0  0  0
   12.7908   -0.6299    0.0000 H   0  0  0  0  0  0  0  0  0  0  0  0
   18.8530    0.8199    0.0000 H   0  0  0  0  0  0  0  0  0  0  0  0
   18.0560    0.8199    0.0000 H   0  0  0  0  0  0  0  0  0  0  0  0
   11.9248    0.8199    0.0000 H   0  0  0  0  0  0  0  0  0  0  0  0
   11.1278    0.8199    0.0000 H   0  0  0  0  0  0  0  0  0  0  0  0
   22.3861   -0.6299    0.0000 H   0  0  0  0  0  0  0  0  0  0  0  0
   23.1831   -0.6299    0.0000 H   0  0  0  0  0  0  0  0  0  0  0  0
   22.3171    0.8199    0.0000 H   0  0  0  0  0  0  0  0  0  0  0  0
   21.5201    0.8199    0.0000 H   0  0  0  0  0  0  0  0  0  0  0  0
    8.5297   -0.6299    0.0000 H   0  0  0  0  0  0  0  0  0  0  0  0
    9.3267   -0.6299    0.0000 H   0  0  0  0  0  0  0  0  0  0  0  0
   17.5885   -0.7750    0.0000 H   0  0  0  0  0  0  0  0  0  0  0  0
   14.1244   -0.7750    0.0000 H   0  0  0  0  0  0  0  0  0  0  0  0
   21.0526   -0.7750    0.0000 H   0  0  0  0  0  0  0  0  0  0  0  0
    8.4607    0.8199    0.0000 H   0  0  0  0  0  0  0  0  0  0  0  0
    7.6636    0.8199    0.0000 H   0  0  0  0  0  0  0  0  0  0  0  0
   10.6603   -0.7750    0.0000 H   0  0  0  0  0  0  0  0  0  0  0  0
   25.7812    0.8199    0.0000 H   0  0  0  0  0  0  0  0  0  0  0  0
   24.9842    0.8199    0.0000 H   0  0  0  0  0  0  0  0  0  0  0  0
   25.8502   -0.6299    0.0000 H   0  0  0  0  0  0  0  0  0  0  0  0
   26.6472   -0.6299    0.0000 H   0  0  0  0  0  0  0  0  0  0  0  0
   24.5167   -0.7750    0.0000 H   0  0  0  0  0  0  0  0  0  0  0  0
   17.3424    1.3450    0.0000 H   0  0  0  0  0  0  0  0  0  0  0  0
   16.7224    1.9650    0.0000 H   0  0  0  0  0  0  0  0  0  0  0  0
   16.1024    1.3450    0.0000 H   0  0  0  0  0  0  0  0  0  0  0  0
    7.1962   -0.7750    0.0000 H   0  0  0  0  0  0  0  0  0  0  0  0
   13.8783    1.3450    0.0000 H   0  0  0  0  0  0  0  0  0  0  0  0
   13.2583    1.9650    0.0000 H   0  0  0  0  0  0  0  0  0  0  0  0
   12.6383    1.3450    0.0000 H   0  0  0  0  0  0  0  0  0  0  0  0
   20.8065    1.3450    0.0000 H   0  0  0  0  0  0  0  0  0  0  0  0
   20.1865    1.9650    0.0000 H   0  0  0  0  0  0  0  0  0  0  0  0
   19.5665    1.3450    0.0000 H   0  0  0  0  0  0  0  0  0  0  0  0
    5.0656   -0.6299    0.0000 H   0  0  0  0  0  0  0  0  0  0  0  0
    5.8626   -0.6299    0.0000 H   0  0  0  0  0  0  0  0  0  0  0  0
   10.4142    1.3450    0.0000 H   0  0  0  0  0  0  0  0  0  0  0  0
    9.7942    1.9650    0.0000 H   0  0  0  0  0  0  0  0  0  0  0  0
    9.1742    1.3450    0.0000 H   0  0  0  0  0  0  0  0  0  0  0  0
   24.2706    1.3450    0.0000 H   0  0  0  0  0  0  0  0  0  0  0  0
   23.6506    1.9650    0.0000 H   0  0  0  0  0  0  0  0  0  0  0  0
   23.0306    1.3450    0.0000 H   0  0  0  0  0  0  0  0  0  0  0  0
    4.9966    0.8199    0.0000 H   0  0  0  0  0  0  0  0  0  0  0  0
    4.1996    0.8199    0.0000 H   0  0  0  0  0  0  0  0  0  0  0  0
   27.9808   -0.7750    0.0000 H   0  0  0  0  0  0  0  0  0  0  0  0
   29.2453    0.8199    0.0000 H   0  0  0  0  0  0  0  0  0  0  0  0
   28.4483    0.8199    0.0000 H   0  0  0  0  0  0  0  0  0  0  0  0
    6.9501    1.3450    0.0000 H   0  0  0  0  0  0  0  0  0  0  0  0
    6.3301    1.9650    0.0000 H   0  0  0  0  0  0  0  0  0  0  0  0
    5.7101    1.3450    0.0000 H   0  0  0  0  0  0  0  0  0  0  0  0
   27.7347    1.3450    0.0000 H   0  0  0  0  0  0  0  0  0  0  0  0
   27.1147    1.9650    0.0000 H   0  0  0  0  0  0  0  0  0  0  0  0
   26.4947    1.3450    0.0000 H   0  0  0  0  0  0  0  0  0  0  0  0
    3.7320   -0.7750    0.0000 H   0  0  0  0  0  0  0  0  0  0  0  0
   29.1759   -1.4650    0.0000 H   0  0  0  0  0  0  0  0  0  0  0  0
    1.6900    0.3819    0.0000 H   0  0  0  0  0  0  0  0  0  0  0  0
    1.4631   -0.4650    0.0000 H   0  0  0  0  0  0  0  0  0  0  0  0
    2.3100   -0.6919    0.0000 H   0  0  0  0  0  0  0  0  0  0  0  0
    3.4860    1.3450    0.0000 H   0  0  0  0  0  0  0  0  0  0  0  0
    2.8660    1.9650    0.0000 H   0  0  0  0  0  0  0  0  0  0  0  0
    2.2460    1.3450    0.0000 H   0  0  0  0  0  0  0  0  0  0  0  0
   30.5788   -2.2750    0.0000 H   0  0  0  0  0  0  0  0  0  0  0  0
   31.9818   -1.4650    0.0000 H   0  0  0  0  0  0  0  0  0  0  0  0
   31.1158    1.6550    0.0000 H   0  0  0  0  0  0  0  0  0  0  0  0
   32.8669   -0.6919    0.0000 H   0  0  0  0  0  0  0  0  0  0  0  0
   33.7138   -0.4650    0.0000 H   0  0  0  0  0  0  0  0  0  0  0  0
   33.4869    0.3819    0.0000 H   0  0  0  0  0  0  0  0  0  0  0  0
  1 42  1  0  0  0  0
  1118  1  0  0  0  0
  2 44  1  0  0  0  0
  2 49  1  0  0  0  0
  3  5  1  0  0  0  0
  3  8  1  0  0  0  0
  3 50  1  0  0  0  0
  3 51  1  0  0  0  0
  4  7  1  0  0  0  0
  4 13  1  0  0  0  0
  4 52  1  0  0  0  0
  4 53  1  0  0  0  0
  5 16  1  0  0  0  0
  5 54  1  0  0  0  0
  5 55  1  0  0  0  0
  6  9  1  0  0  0  0
  6 10  1  0  0  0  0
  6 56  1  0  0  0  0
  6 57  1  0  0  0  0
  7 15  1  0  0  0  0
  7 58  1  0  0  0  0
  7 59  1  0  0  0  0
  8 15  2  0  0  0  0
  8 25  1  0  0  0  0
  9 21  1  0  0  0  0
  9 60  1  0  0  0  0
  9 61  1  0  0  0  0
 10 16  2  0  0  0  0
 10 28  1  0  0  0  0
 11 12  1  0  0  0  0
 11 18  1  0  0  0  0
 11 62  1  0  0  0  0
 11 63  1  0  0  0  0
 12 19  1  0  0  0  0
 12 64  1  0  0  0  0
 12 65  1  0  0  0  0
 13 19  2  0  0  0  0
 13 29  1  0  0  0  0
 14 17  1  0  0  0  0
 14 20  1  0  0  0  0
 14 66  1  0  0  0  0
 14 67  1  0  0  0  0
 15 68  1  0  0  0  0
 16 69  1  0  0  0  0
 17 21  2  0  0  0  0
 17 32  1  0  0  0  0
 18 24  2  0  0  0  0
 18 33  1  0  0  0  0
 19 70  1  0  0  0  0
 20 26  1  0  0  0  0
 20 71  1  0  0  0  0
 20 72  1  0  0  0  0
 21 73  1  0  0  0  0
 22 23  1  0  0  0  0
 22 24  1  0  0  0  0
 22 74  1  0  0  0  0
 22 75  1  0  0  0  0
 23 31  1  0  0  0  0
 23 76  1  0  0  0  0
 23 77  1  0  0  0  0
 24 78  1  0  0  0  0
 25 79  1  0  0  0  0
 25 80  1  0  0  0  0
 25 81  1  0  0  0  0
 26 27  2  0  0  0  0
 26 82  1  0  0  0  0
 27 30  1  0  0  0  0
 27 37  1  0  0  0  0
 28 83  1  0  0  0  0
 28 84  1  0  0  0  0
 28 85  1  0  0  0  0
 29 86  1  0  0  0  0
 29 87  1  0  0  0  0
 29 88  1  0  0  0  0
 30 34  1  0  0  0  0
 30 89  1  0  0  0  0
 30 90  1  0  0  0  0
 31 35  2  0  0  0  0
 31 38  1  0  0  0  0
 32 91  1  0  0  0  0
 32 92  1  0  0  0  0
 32 93  1  0  0  0  0
 33 94  1  0  0  0  0
 33 95  1  0  0  0  0
 33 96  1  0  0  0  0
 34 40  1  0  0  0  0
 34 97  1  0  0  0  0
 34 98  1  0  0  0  0
 35 36  1  0  0  0  0
 35 99  1  0  0  0  0
 36 39  1  0  0  0  0
 36100  1  0  0  0  0
 36101  1  0  0  0  0
 37102  1  0  0  0  0
 37103  1  0  0  0  0
 37104  1  0  0  0  0
 38105  1  0  0  0  0
 38106  1  0  0  0  0
 38107  1  0  0  0  0
 39 42  2  0  0  0  0
 39 43  1  0  0  0  0
 40 41  2  0  0  0  0
 40108  1  0  0  0  0
 41 45  1  0  0  0  0
 41 46  1  0  0  0  0
 42 44  1  0  0  0  0
 43 47  2  0  0  0  0
 43109  1  0  0  0  0
 44 48  2  0  0  0  0
 45110  1  0  0  0  0
 45111  1  0  0  0  0
 45112  1  0  0  0  0
 46113  1  0  0  0  0
 46114  1  0  0  0  0
 46115  1  0  0  0  0
 47 48  1  0  0  0  0
 47116  1  0  0  0  0
 48117  1  0  0  0  0
 49119  1  0  0  0  0
 49120  1  0  0  0  0
 49121  1  0  0  0  0
M  END
> <PUBCHEM_COMPOUND_CID>
5280834

> <PUBCHEM_COMPOUND_CANONICALIZED>
1

> <PUBCHEM_CACTVS_COMPLEXITY>
1160

> <PUBCHEM_CACTVS_HBOND_ACCEPTOR>
2

> <PUBCHEM_CACTVS_HBOND_DONOR>
1

> <PUBCHEM_CACTVS_ROTATABLE_BOND>
24

> <PUBCHEM_CACTVS_SUBSKEYS>
AAADcfB8MAAAAAAAAAAAAAAAAAAAAAAAAAAwAAAAAAAAAAABAAAAGgAACAAADASAmAIyBoAABgCAAiBCAAACCAAgIAAIiAAGiIgNJiKGMRqAcCMkwBELuAeAwLAOAAABAAAIQAAAAAIAABCAAAAAAAAAAA==

> <PUBCHEM_IUPAC_OPENEYE_NAME>
2-methoxy-6-[(2E,6E,10E,14E,18E,22E,26E)-3,7,11,15,19,23,27,31-octamethyldotriaconta-2,6,10,14,18,22,26,30-octaenyl]phenol

> <PUBCHEM_IUPAC_CAS_NAME>
2-methoxy-6-[(2E,6E,10E,14E,18E,22E,26E)-3,7,11,15,19,23,27,31-octamethyldotriaconta-2,6,10,14,18,22,26,30-octaenyl]phenol

> <PUBCHEM_IUPAC_NAME>
2-methoxy-6-[(2E,6E,10E,14E,18E,22E,26E)-3,7,11,15,19,23,27,31-octamethyldotriaconta-2,6,10,14,18,22,26,30-octaenyl]phenol

> <PUBCHEM_IUPAC_SYSTEMATIC_NAME>
2-methoxy-6-[(2E,6E,10E,14E,18E,22E,26E)-3,7,11,15,19,23,27,31-octamethyldotriaconta-2,6,10,14,18,22,26,30-octaenyl]phenol

> <PUBCHEM_IUPAC_TRADITIONAL_NAME>
2-methoxy-6-[(2E,6E,10E,14E,18E,22E,26E)-3,7,11,15,19,23,27,31-octamethyldotriaconta-2,6,10,14,18,22,26,30-octaenyl]phenol

> <PUBCHEM_IUPAC_INCHI>
InChI=1S/C47H72O2/c1-37(2)19-11-20-38(3)21-12-22-39(4)23-13-24-40(5)25-14-26-41(6)27-15-28-42(7)29-16-30-43(8)31-17-32-44(9)35-36-45-33-18-34-46(49-10)47(45)48/h18-19,21,23,25,27,29,31,33-35,48H,11-17,20,22,24,26,28,30,32,36H2,1-10H3/b38-21+,39-23+,40-25+,41-27+,42-29+,43-31+,44-35+

> <PUBCHEM_IUPAC_INCHIKEY>
MARGKPIMNMASKJ-CMAXTTDKSA-N

> <PUBCHEM_XLOGP3_AA>
16.5

> <PUBCHEM_EXACT_MASS>
668.553232

> <PUBCHEM_MOLECULAR_FORMULA>
C47H72O2

> <PUBCHEM_MOLECULAR_WEIGHT>
669.07338

> <PUBCHEM_OPENEYE_CAN_SMILES>
CC(=CCCC(=CCCC(=CCCC(=CCCC(=CCCC(=CCCC(=CCCC(=CCC1=C(C(=CC=C1)OC)O)C)C)C)C)C)C)C)C

> <PUBCHEM_OPENEYE_ISO_SMILES>
CC(=CCC/C(=C/CC/C(=C/CC/C(=C/CC/C(=C/CC/C(=C/CC/C(=C/CC/C(=C/CC1=C(C(=CC=C1)OC)O)/C)/C)/C)/C)/C)/C)/C)C

> <PUBCHEM_CACTVS_TPSA>
29.5

> <PUBCHEM_MONOISOTOPIC_WEIGHT>
668.553232

> <PUBCHEM_TOTAL_CHARGE>
0

> <PUBCHEM_HEAVY_ATOM_COUNT>
49

> <PUBCHEM_ATOM_DEF_STEREO_COUNT>
0

> <PUBCHEM_ATOM_UDEF_STEREO_COUNT>
0

> <PUBCHEM_BOND_DEF_STEREO_COUNT>
7

> <PUBCHEM_BOND_UDEF_STEREO_COUNT>
0

> <PUBCHEM_ISOTOPIC_ATOM_COUNT>
0

> <PUBCHEM_COMPONENT_COUNT>
1

> <PUBCHEM_CACTVS_TAUTO_COUNT>
3

> <PUBCHEM_COORDINATE_TYPE>
1
5
255

> <PUBCHEM_BONDANNOTATIONS>
39  42  8
39  43  8
42  44  8
43  47  8
44  48  8
47  48  8

$$$$

