5326781
  -OEChem-07051213063D

 52 55  0     0  0  0  0  0  0999 V2000
   -1.8156    2.4544    0.7637 O   0  0  0  0  0  0  0  0  0  0  0  0
   -7.3782    1.2495   -2.3643 O   0  0  0  0  0  0  0  0  0  0  0  0
    7.8492    1.7847   -1.2983 O   0  0  0  0  0  0  0  0  0  0  0  0
    2.3247   -0.4972    0.8263 N   0  0  0  0  0  0  0  0  0  0  0  0
   -1.1816    0.3003    1.3781 N   0  0  0  0  0  0  0  0  0  0  0  0
    0.5293    1.6037    0.5075 N   0  0  0  0  0  0  0  0  0  0  0  0
    1.0004   -0.6549    1.1972 C   0  0  0  0  0  0  0  0  0  0  0  0
    0.6552   -2.0071    1.7595 C   0  0  0  0  0  0  0  0  0  0  0  0
    0.1398    0.3820    1.0339 C   0  0  0  0  0  0  0  0  0  0  0  0
    2.8096    0.6673    0.2981 C   0  0  0  0  0  0  0  0  0  0  0  0
    0.2662   -2.9854    0.6896 C   0  0  0  0  0  0  0  0  0  0  0  0
    4.0563    0.9437   -0.0966 C   0  0  0  0  0  0  0  0  0  0  0  0
    1.7762    1.7315    0.1659 C   0  0  0  0  0  0  0  0  0  0  0  0
   -3.4682    0.9489    1.6917 C   0  0  0  0  0  0  0  0  0  0  0  0
   -2.0808    1.3453    1.2212 C   0  0  0  0  0  0  0  0  0  0  0  0
   -1.0662   -3.0934    0.3078 C   0  0  0  0  0  0  0  0  0  0  0  0
    1.2419   -3.7737    0.0903 C   0  0  0  0  0  0  0  0  0  0  0  0
   -4.5117    1.0291    0.6089 C   0  0  0  0  0  0  0  0  0  0  0  0
    4.3796    2.2543   -0.6383 C   0  0  0  0  0  0  0  0  0  0  0  0
    5.0998   -0.0635    0.0131 C   0  0  0  0  0  0  0  0  0  0  0  0
   -1.4278   -4.0021   -0.6866 C   0  0  0  0  0  0  0  0  0  0  0  0
    0.8801   -4.6823   -0.9042 C   0  0  0  0  0  0  0  0  0  0  0  0
   -5.2102    2.2128    0.4205 C   0  0  0  0  0  0  0  0  0  0  0  0
   -4.7592   -0.0824   -0.1842 C   0  0  0  0  0  0  0  0  0  0  0  0
   -0.4547   -4.7966   -1.2927 C   0  0  0  0  0  0  0  0  0  0  0  0
    5.6238    2.5474   -1.0385 C   0  0  0  0  0  0  0  0  0  0  0  0
    6.3540    0.1972   -0.3781 C   0  0  0  0  0  0  0  0  0  0  0  0
    6.7055    1.5311   -0.9359 C   0  0  0  0  0  0  0  0  0  0  0  0
   -6.1769    2.2870   -0.5822 C   0  0  0  0  0  0  0  0  0  0  0  0
   -5.7258   -0.0083   -1.1871 C   0  0  0  0  0  0  0  0  0  0  0  0
   -6.4347    1.1765   -1.3862 C   0  0  0  0  0  0  0  0  0  0  0  0
   -0.1453   -1.9375    2.5067 H   0  0  0  0  0  0  0  0  0  0  0  0
    1.5043   -2.4042    2.3337 H   0  0  0  0  0  0  0  0  0  0  0  0
    2.9453   -1.2851    0.9566 H   0  0  0  0  0  0  0  0  0  0  0  0
   -1.5141   -0.5709    1.7765 H   0  0  0  0  0  0  0  0  0  0  0  0
    2.0137    2.7141   -0.2401 H   0  0  0  0  0  0  0  0  0  0  0  0
   -3.4759   -0.0574    2.1284 H   0  0  0  0  0  0  0  0  0  0  0  0
   -3.7331    1.6199    2.5193 H   0  0  0  0  0  0  0  0  0  0  0  0
   -1.8399   -2.4924    0.7746 H   0  0  0  0  0  0  0  0  0  0  0  0
    2.2848   -3.6945    0.3842 H   0  0  0  0  0  0  0  0  0  0  0  0
    3.6877    3.0710   -0.7625 H   0  0  0  0  0  0  0  0  0  0  0  0
    4.8853   -1.0477    0.4136 H   0  0  0  0  0  0  0  0  0  0  0  0
   -2.4675   -4.0926   -0.9876 H   0  0  0  0  0  0  0  0  0  0  0  0
    1.6377   -5.3010   -1.3762 H   0  0  0  0  0  0  0  0  0  0  0  0
   -5.0157    3.0839    1.0397 H   0  0  0  0  0  0  0  0  0  0  0  0
   -4.2105   -1.0086   -0.0381 H   0  0  0  0  0  0  0  0  0  0  0  0
   -0.7364   -5.5045   -2.0667 H   0  0  0  0  0  0  0  0  0  0  0  0
    5.8785    3.5200   -1.4439 H   0  0  0  0  0  0  0  0  0  0  0  0
    7.1393   -0.5458   -0.3012 H   0  0  0  0  0  0  0  0  0  0  0  0
   -6.7220    3.2159   -0.7274 H   0  0  0  0  0  0  0  0  0  0  0  0
   -5.9217   -0.8766   -1.8104 H   0  0  0  0  0  0  0  0  0  0  0  0
   -7.7681    2.1406   -2.3603 H   0  0  0  0  0  0  0  0  0  0  0  0
  1 15  2  0  0  0  0
  2 31  1  0  0  0  0
  2 52  1  0  0  0  0
  3 28  2  0  0  0  0
  4  7  1  0  0  0  0
  4 10  1  0  0  0  0
  4 34  1  0  0  0  0
  5  9  1  0  0  0  0
  5 15  1  0  0  0  0
  5 35  1  0  0  0  0
  6  9  1  0  0  0  0
  6 13  2  0  0  0  0
  7  8  1  0  0  0  0
  7  9  2  0  0  0  0
  8 11  1  0  0  0  0
  8 32  1  0  0  0  0
  8 33  1  0  0  0  0
 10 12  2  0  0  0  0
 10 13  1  0  0  0  0
 11 16  2  0  0  0  0
 11 17  1  0  0  0  0
 12 19  1  0  0  0  0
 12 20  1  0  0  0  0
 13 36  1  0  0  0  0
 14 15  1  0  0  0  0
 14 18  1  0  0  0  0
 14 37  1  0  0  0  0
 14 38  1  0  0  0  0
 16 21  1  0  0  0  0
 16 39  1  0  0  0  0
 17 22  2  0  0  0  0
 17 40  1  0  0  0  0
 18 23  2  0  0  0  0
 18 24  1  0  0  0  0
 19 26  2  0  0  0  0
 19 41  1  0  0  0  0
 20 27  2  0  0  0  0
 20 42  1  0  0  0  0
 21 25  2  0  0  0  0
 21 43  1  0  0  0  0
 22 25  1  0  0  0  0
 22 44  1  0  0  0  0
 23 29  1  0  0  0  0
 23 45  1  0  0  0  0
 24 30  2  0  0  0  0
 24 46  1  0  0  0  0
 25 47  1  0  0  0  0
 26 28  1  0  0  0  0
 26 48  1  0  0  0  0
 27 28  1  0  0  0  0
 27 49  1  0  0  0  0
 29 31  2  0  0  0  0
 29 50  1  0  0  0  0
 30 31  1  0  0  0  0
 30 51  1  0  0  0  0
M  END
> <PUBCHEM_COMPOUND_CID>
5326781

> <PUBCHEM_CONFORMER_RMSD>
0.8

> <PUBCHEM_CONFORMER_DIVERSEORDER>
1
13
61
58
16
24
53
64
44
48
54
62
38
30
45
33
35
32
19
20
39
60
41
59
12
68
40
14
43
18
67
63
36
57
47
37
11
66
28
31
46
65
17
22
21
27
29
15
55
34
56
26
25
42
6
50
8
49
23
4
5
7
2
52
51
9
10
3

> <PUBCHEM_MMFF94_PARTIAL_CHARGES>
47
1 -0.57
10 0.11
11 -0.14
13 0.38
14 0.2
15 0.57
16 -0.15
17 -0.15
18 -0.14
19 -0.15
2 -0.53
20 -0.15
21 -0.15
22 -0.15
23 -0.15
24 -0.15
25 -0.15
26 -0.14
27 -0.14
28 0.54
29 -0.15
3 -0.57
30 -0.15
31 0.08
34 0.4
35 0.37
36 0.06
39 0.15
4 -0.6
40 0.15
41 0.15
42 0.15
43 0.15
44 0.15
45 0.15
46 0.15
47 0.15
48 0.15
49 0.15
5 -0.54
50 0.15
51 0.15
52 0.45
6 -0.62
7 -0.04
8 0.28
9 0.28

> <PUBCHEM_EFFECTIVE_ROTOR_COUNT>
6.2

> <PUBCHEM_PHARMACOPHORE_FEATURES>
11
1 1 acceptor
1 2 donor
1 3 acceptor
1 4 cation
1 4 donor
1 5 donor
1 6 acceptor
6 11 16 17 21 22 25 rings
6 12 19 20 26 27 28 rings
6 18 23 24 29 30 31 rings
6 4 6 7 9 10 13 rings

> <PUBCHEM_HEAVY_ATOM_COUNT>
31

> <PUBCHEM_ATOM_DEF_STEREO_COUNT>
0

> <PUBCHEM_ATOM_UDEF_STEREO_COUNT>
0

> <PUBCHEM_BOND_DEF_STEREO_COUNT>
0

> <PUBCHEM_BOND_UDEF_STEREO_COUNT>
0

> <PUBCHEM_ISOTOPIC_ATOM_COUNT>
0

> <PUBCHEM_COMPONENT_COUNT>
1

> <PUBCHEM_CACTVS_TAUTO_COUNT>
16

> <PUBCHEM_CONFORMER_ID>
005147BD00000001

> <PUBCHEM_MMFF94_ENERGY>
96.0992

> <PUBCHEM_FEATURE_SELFOVERLAP>
55.836

> <PUBCHEM_SHAPE_FINGERPRINT>
10006869 2 17346332526327749664
10258939 38 14851890304822998442
10674148 151 16298376964523481811
10985338 8 18056215775734431481
11135926 11 18409165550202357737
11200772 48 18336824187295537430
11621639 307 16983472579608641884
11991303 11 18269833133921568454
12660671 118 18056205897684229506
13150687 139 18411692214816623470
13165053 182 17553770551356930268
13257819 101 17203336632356006391
13540713 5 17753606042992298921
13673619 4 5545195026063187457
13782708 43 4823205118046751525
13911987 19 18410290311537185121
15131766 46 15552167989781491580
15274700 147 15755113431305748060
15276724 80 17979060592671191762
15297060 5 18260541213111286875
15705408 1 17832123293349288926
17138139 8 17750538225098775967
18681886 176 18340770347027951449
20028762 73 18189336943323641670
20511986 3 18130507419324473512
20775438 99 17462594722043810789
21344244 246 18335701714430166631
21583282 1 17846488258611836294
22121540 332 17202497752218000878
23569943 247 4892226875319893860
23576562 1 18057316185411110852
2747138 104 8790891774728541348
3103668 31 18121503441026724703
38695281 34 18410852187384350330
4017518 198 18335126614974238014
4058900 60 18342457084280880411
4280585 95 17328871401052382235
4409770 3 18191857938465292299
46194498 28 18054235590458711541
504843 32 18130216060784314587
563151 97 18263071283640458233
6669772 16 18261377992994733870
6898599 12 18124302819168630348

> <PUBCHEM_SHAPE_MULTIPOLES>
605.41
17.13
5.41
1.56
1.12
9.69
0.12
-20.19
10.97
0.28
1.78
-1.48
-0.06
-1.13

> <PUBCHEM_SHAPE_SELFOVERLAP>
1326.984

> <PUBCHEM_SHAPE_VOLUME>
324.5

> <PUBCHEM_COORDINATE_TYPE>
2
5
10

$$$$

