320372
  -OEChem-07051212593D

 47 51  0     1  0  0  0  0  0999 V2000
   -1.8479   -3.7675   -0.6077 O   0  0  0  0  0  0  0  0  0  0  0  0
   -2.3656   -2.9541    1.4843 O   0  0  0  0  0  0  0  0  0  0  0  0
    4.0023    1.9637    1.3587 O   0  0  0  0  0  0  0  0  0  0  0  0
    5.0155    1.0942   -0.6462 O   0  0  0  0  0  0  0  0  0  0  0  0
   -1.8898    2.5076   -1.6602 O   0  0  0  0  0  0  0  0  0  0  0  0
   -4.0476    2.6948    0.0810 O   0  0  0  0  0  0  0  0  0  0  0  0
   -0.2394   -2.4105    0.4177 C   0  0  1  0  0  0  0  0  0  0  0  0
   -0.0702   -2.3666   -1.0878 C   0  0  1  0  0  0  0  0  0  0  0  0
    0.0623   -1.0475    1.0552 C   0  0  1  0  0  0  0  0  0  0  0  0
    1.3907   -2.1711   -1.4487 C   0  0  0  0  0  0  0  0  0  0  0  0
    1.4091   -0.5231    0.5372 C   0  0  0  0  0  0  0  0  0  0  0  0
   -0.7209   -3.6633   -1.4987 C   0  0  0  0  0  0  0  0  0  0  0  0
    2.0098   -1.0345   -0.6550 C   0  0  0  0  0  0  0  0  0  0  0  0
   -1.6066   -3.0343    0.5326 C   0  0  0  0  0  0  0  0  0  0  0  0
   -1.0282   -0.0522    0.7936 C   0  0  0  0  0  0  0  0  0  0  0  0
    2.0527    0.5006    1.2590 C   0  0  0  0  0  0  0  0  0  0  0  0
    3.2416   -0.5196   -1.0947 C   0  0  0  0  0  0  0  0  0  0  0  0
    3.2552    0.9812    0.7852 C   0  0  0  0  0  0  0  0  0  0  0  0
    3.8325    0.4860   -0.3582 C   0  0  0  0  0  0  0  0  0  0  0  0
   -0.9534    0.7747   -0.3223 C   0  0  0  0  0  0  0  0  0  0  0  0
   -2.1052    0.0365    1.6692 C   0  0  0  0  0  0  0  0  0  0  0  0
   -1.9676    1.7010   -0.5654 C   0  0  0  0  0  0  0  0  0  0  0  0
   -3.1193    0.9627    1.4261 C   0  0  0  0  0  0  0  0  0  0  0  0
    5.1153    2.0322    0.4445 C   0  0  0  0  0  0  0  0  0  0  0  0
   -3.0505    1.7949    0.3088 C   0  0  0  0  0  0  0  0  0  0  0  0
   -1.2255    3.7592   -1.4974 C   0  0  0  0  0  0  0  0  0  0  0  0
   -5.1492    2.2550   -0.7111 C   0  0  0  0  0  0  0  0  0  0  0  0
    0.4576   -3.1493    0.8441 H   0  0  0  0  0  0  0  0  0  0  0  0
   -0.6673   -1.5581   -1.5264 H   0  0  0  0  0  0  0  0  0  0  0  0
    0.1612   -1.1954    2.1400 H   0  0  0  0  0  0  0  0  0  0  0  0
    1.4730   -1.9673   -2.5230 H   0  0  0  0  0  0  0  0  0  0  0  0
    1.9629   -3.0834   -1.2383 H   0  0  0  0  0  0  0  0  0  0  0  0
   -1.0772   -3.6378   -2.5325 H   0  0  0  0  0  0  0  0  0  0  0  0
   -0.0807   -4.5408   -1.3582 H   0  0  0  0  0  0  0  0  0  0  0  0
    1.6157    0.9059    2.1662 H   0  0  0  0  0  0  0  0  0  0  0  0
    3.7205   -0.9035   -1.9899 H   0  0  0  0  0  0  0  0  0  0  0  0
   -0.1392    0.7288   -1.0381 H   0  0  0  0  0  0  0  0  0  0  0  0
   -2.1633   -0.5892    2.5551 H   0  0  0  0  0  0  0  0  0  0  0  0
   -3.9575    1.0340    2.1140 H   0  0  0  0  0  0  0  0  0  0  0  0
    6.0384    1.8286    0.9993 H   0  0  0  0  0  0  0  0  0  0  0  0
    5.1690    3.0463    0.0318 H   0  0  0  0  0  0  0  0  0  0  0  0
   -0.1807    3.6039   -1.2099 H   0  0  0  0  0  0  0  0  0  0  0  0
   -1.7351    4.3713   -0.7466 H   0  0  0  0  0  0  0  0  0  0  0  0
   -1.2502    4.2872   -2.4546 H   0  0  0  0  0  0  0  0  0  0  0  0
   -5.6596    1.4168   -0.2261 H   0  0  0  0  0  0  0  0  0  0  0  0
   -4.8127    1.9627   -1.7108 H   0  0  0  0  0  0  0  0  0  0  0  0
   -5.8542    3.0850   -0.8083 H   0  0  0  0  0  0  0  0  0  0  0  0
  1 12  1  0  0  0  0
  1 14  1  0  0  0  0
  2 14  2  0  0  0  0
  3 18  1  0  0  0  0
  3 24  1  0  0  0  0
  4 19  1  0  0  0  0
  4 24  1  0  0  0  0
  5 22  1  0  0  0  0
  5 26  1  0  0  0  0
  6 25  1  0  0  0  0
  6 27  1  0  0  0  0
  7  8  1  0  0  0  0
  7  9  1  0  0  0  0
  7 14  1  0  0  0  0
  7 28  1  0  0  0  0
  8 10  1  0  0  0  0
  8 12  1  0  0  0  0
  8 29  1  0  0  0  0
  9 11  1  0  0  0  0
  9 15  1  0  0  0  0
  9 30  1  0  0  0  0
 10 13  1  0  0  0  0
 10 31  1  0  0  0  0
 10 32  1  0  0  0  0
 11 13  1  0  0  0  0
 11 16  2  0  0  0  0
 12 33  1  0  0  0  0
 12 34  1  0  0  0  0
 13 17  2  0  0  0  0
 15 20  2  0  0  0  0
 15 21  1  0  0  0  0
 16 18  1  0  0  0  0
 16 35  1  0  0  0  0
 17 19  1  0  0  0  0
 17 36  1  0  0  0  0
 18 19  2  0  0  0  0
 20 22  1  0  0  0  0
 20 37  1  0  0  0  0
 21 23  2  0  0  0  0
 21 38  1  0  0  0  0
 22 25  2  0  0  0  0
 23 25  1  0  0  0  0
 23 39  1  0  0  0  0
 24 40  1  0  0  0  0
 24 41  1  0  0  0  0
 26 42  1  0  0  0  0
 26 43  1  0  0  0  0
 26 44  1  0  0  0  0
 27 45  1  0  0  0  0
 27 46  1  0  0  0  0
 27 47  1  0  0  0  0
M  END
> <PUBCHEM_COMPOUND_CID>
320372

> <PUBCHEM_CONFORMER_RMSD>
0.8

> <PUBCHEM_CONFORMER_DIVERSEORDER>
1
3
2
4

> <PUBCHEM_MMFF94_PARTIAL_CHARGES>
31
1 -0.43
10 0.14
11 -0.14
12 0.28
13 -0.14
14 0.66
15 -0.14
16 -0.15
17 -0.15
18 0.08
19 0.08
2 -0.57
20 -0.15
21 -0.15
22 0.08
23 -0.15
24 0.56
25 0.08
26 0.28
27 0.28
3 -0.36
35 0.15
36 0.15
37 0.15
38 0.15
39 0.15
4 -0.36
5 -0.36
6 -0.36
7 0.06
9 0.29

> <PUBCHEM_EFFECTIVE_ROTOR_COUNT>
4.4

> <PUBCHEM_PHARMACOPHORE_FEATURES>
10
1 2 acceptor
1 3 acceptor
1 4 acceptor
1 5 acceptor
1 6 acceptor
5 1 7 8 12 14 rings
5 3 4 18 19 24 rings
6 11 13 16 17 18 19 rings
6 15 20 21 22 23 25 rings
6 7 8 9 10 11 13 rings

> <PUBCHEM_HEAVY_ATOM_COUNT>
27

> <PUBCHEM_ATOM_DEF_STEREO_COUNT>
3

> <PUBCHEM_ATOM_UDEF_STEREO_COUNT>
0

> <PUBCHEM_BOND_DEF_STEREO_COUNT>
0

> <PUBCHEM_BOND_UDEF_STEREO_COUNT>
0

> <PUBCHEM_ISOTOPIC_ATOM_COUNT>
0

> <PUBCHEM_COMPONENT_COUNT>
1

> <PUBCHEM_CACTVS_TAUTO_COUNT>
2

> <PUBCHEM_CONFORMER_ID>
0004E37400000001

> <PUBCHEM_MMFF94_ENERGY>
101.5137

> <PUBCHEM_FEATURE_SELFOVERLAP>
50.998

> <PUBCHEM_SHAPE_FINGERPRINT>
10165383 225 18119778495944020748
10190108 129 14379560501973229882
10670039 82 17835231248303827996
10871710 139 17837192789225098964
11045515 52 17540828195617414838
11101153 10 17620757185684570428
11578080 2 18190438533926514532
11595378 159 18197788700201330722
12160290 23 18192738690001466835
12403814 3 17899971643312224594
12422481 6 17977630209774798931
12730499 353 18264760146733211817
12788726 201 18123768473043500131
12969540 114 18341341079883813717
1361 2 18410301345603665405
13681431 1 17111576038608341399
14142880 1 18339649918903382581
14955137 171 16392957714595074098
15219462 58 17842287973684832058
15324884 4 18126254619473774227
17357779 13 17681004993219371175
17492 54 18126874671344385383
17974551 9 17201349917781815626
1813 80 17762054337683526602
21304303 282 17623341243423495222
21524375 3 18340488992431104858
21756936 100 17559945546983189180
21860390 5 16901618787215517180
22182313 1 18190157066711816238
2260408 40 17977065216165959657
22907989 373 18117562812394315812
23227448 37 18338796698070684668
23419403 2 16955017415579854519
23559900 14 17414417692048688159
238 59 18048884296882626639
3187 122 18125437505966455306
3729539 64 17830427812334267998
445580 44 17980505381173148936
469060 322 18055907697735135643
495365 180 18122915488507063609
621550 34 18125715936413038429
633830 44 17460293672056076241
6442390 28 18410574037076193613
7399639 24 18198345259196299589
7808743 9 18271802394234693316
81228 2 18195810661054602306
9925002 15 17978497642765152269

> <PUBCHEM_SHAPE_MULTIPOLES>
520.43
7.91
4.69
1.61
3.83
2.54
0.02
-8.74
-0.21
-3.19
1.73
-0.36
0.04
1.73

> <PUBCHEM_SHAPE_SELFOVERLAP>
1166.401

> <PUBCHEM_SHAPE_VOLUME>
276.4

> <PUBCHEM_COORDINATE_TYPE>
2
5
10

$$$$

