65420
  -OEChem-07051213122D

 37 39  0     1  0  0  0  0  0999 V2000
    5.9796    1.2435    0.0000 O   0  0  0  0  0  0  0  0  0  0  0  0
    5.7892   -1.2400    0.0000 O   0  0  0  0  0  0  0  0  0  0  0  0
    7.0913   -0.2940    0.0000 O   0  0  0  0  0  0  0  0  0  0  0  0
    3.6552    0.0602    0.0000 O   0  0  0  0  0  0  0  0  0  0  0  0
    3.2741    1.8195    0.0000 O   0  0  0  0  0  0  0  0  0  0  0  0
    6.9931    1.8747    0.0000 O   0  0  0  0  0  0  0  0  0  0  0  0
    8.0112    0.4735    0.0000 O   0  0  0  0  0  0  0  0  0  0  0  0
    5.4796   -0.2954    0.0000 C   0  0  1  0  0  0  0  0  0  0  0  0
    4.6706    0.2924    0.0000 C   0  0  1  0  0  0  0  0  0  0  0  0
    6.2886    0.2924    0.0000 C   0  0  1  0  0  0  0  0  0  0  0  0
    4.9796    1.2435    0.0000 C   0  0  2  0  0  0  0  0  0  0  0  0
    6.7833   -1.2391    0.0000 C   0  0  0  0  0  0  0  0  0  0  0  0
    4.2946    2.0282    0.0000 C   0  0  0  0  0  0  0  0  0  0  0  0
    2.9522    0.8288    0.0000 C   0  0  0  0  0  0  0  0  0  0  0  0
    7.0976    0.8802    0.0000 C   0  0  0  0  0  0  0  0  0  0  0  0
    6.7833   -2.2391    0.0000 C   0  0  0  0  0  0  0  0  0  0  0  0
    7.7344   -1.5482    0.0000 C   0  0  0  0  0  0  0  0  0  0  0  0
    2.0000    1.1342    0.0000 C   0  0  0  0  0  0  0  0  0  0  0  0
    2.2117    0.1569    0.0000 C   0  0  0  0  0  0  0  0  0  0  0  0
    4.7926   -0.7959    0.0000 H   0  0  0  0  0  0  0  0  0  0  0  0
    4.5003   -0.5404    0.0000 H   0  0  0  0  0  0  0  0  0  0  0  0
    5.3313    2.0173    0.0000 H   0  0  0  0  0  0  0  0  0  0  0  0
    4.8246    2.3500    0.0000 H   0  0  0  0  0  0  0  0  0  0  0  0
    4.0683    2.6054    0.0000 H   0  0  0  0  0  0  0  0  0  0  0  0
    6.1633   -2.2391    0.0000 H   0  0  0  0  0  0  0  0  0  0  0  0
    6.7833   -2.8591    0.0000 H   0  0  0  0  0  0  0  0  0  0  0  0
    7.4033   -2.2391    0.0000 H   0  0  0  0  0  0  0  0  0  0  0  0
    7.5428   -2.1378    0.0000 H   0  0  0  0  0  0  0  0  0  0  0  0
    8.3240   -1.7398    0.0000 H   0  0  0  0  0  0  0  0  0  0  0  0
    7.9260   -0.9585    0.0000 H   0  0  0  0  0  0  0  0  0  0  0  0
    2.1893    1.7246    0.0000 H   0  0  0  0  0  0  0  0  0  0  0  0
    1.7950    0.6160    0.0000 H   0  0  0  0  0  0  0  0  0  0  0  0
    1.7525   -0.2598    0.0000 H   0  0  0  0  0  0  0  0  0  0  0  0
    2.6283   -0.3023    0.0000 H   0  0  0  0  0  0  0  0  0  0  0  0
    1.4096    1.3235    0.0000 H   0  0  0  0  0  0  0  0  0  0  0  0
    1.8107    0.5438    0.0000 H   0  0  0  0  0  0  0  0  0  0  0  0
    7.4947    2.2391    0.0000 H   0  0  0  0  0  0  0  0  0  0  0  0
  1 10  1  0  0  0  0
  1 11  1  0  0  0  0
  2  8  1  0  0  0  0
  2 12  1  0  0  0  0
  3 10  1  0  0  0  0
  3 12  1  0  0  0  0
  4  9  1  0  0  0  0
  4 14  1  0  0  0  0
  5 13  1  0  0  0  0
  5 14  1  0  0  0  0
  6 15  1  0  0  0  0
  6 37  1  0  0  0  0
  7 15  2  0  0  0  0
  8  9  1  0  0  0  0
  8 10  1  0  0  0  0
  8 20  1  6  0  0  0
  9 11  1  0  0  0  0
  9 21  1  1  0  0  0
 10 15  1  6  0  0  0
 11 13  1  0  0  0  0
 11 22  1  1  0  0  0
 12 16  1  0  0  0  0
 12 17  1  0  0  0  0
 13 23  1  0  0  0  0
 13 24  1  0  0  0  0
 14 18  1  0  0  0  0
 14 19  1  0  0  0  0
 16 25  1  0  0  0  0
 16 26  1  0  0  0  0
 16 27  1  0  0  0  0
 17 28  1  0  0  0  0
 17 29  1  0  0  0  0
 17 30  1  0  0  0  0
 18 31  1  0  0  0  0
 18 35  1  0  0  0  0
 18 36  1  0  0  0  0
 19 32  1  0  0  0  0
 19 33  1  0  0  0  0
 19 34  1  0  0  0  0
M  END
> <PUBCHEM_COMPOUND_CID>
65420

> <PUBCHEM_COMPOUND_CANONICALIZED>
1

> <PUBCHEM_CACTVS_COMPLEXITY>
418

> <PUBCHEM_CACTVS_HBOND_ACCEPTOR>
7

> <PUBCHEM_CACTVS_HBOND_DONOR>
1

> <PUBCHEM_CACTVS_ROTATABLE_BOND>
1

> <PUBCHEM_CACTVS_SUBSKEYS>
AAADceBwOAAAAAAAAAAAAAAAAAAAASJAAAAkAAAAAAASAEgAAAAAGgAACAAACBSggAICCAAABgAIAACQCAIAAAAAAAAAAAFAAAARABYAAAQiQAAFIAAHAAHKbAxAAAAAAAAAAAAAAAAAAAAAAAAAAAAAAA==

> <PUBCHEM_IUPAC_OPENEYE_NAME>
(3aR,4aS,8aR,8bS)-2,2,7,7-tetramethyl-4a,5,8a,8b-tetrahydro-[1,3]dioxolo[3,4]furo[1,3-d][1,3]dioxine-3a-carboxylic acid

> <PUBCHEM_IUPAC_CAS_NAME>
(3aR,4aS,8aR,8bS)-2,2,7,7-tetramethyl-4a,5,8a,8b-tetrahydro-[1,3]dioxolo[3,4]furo[1,3-d][1,3]dioxin-3a-carboxylic acid

> <PUBCHEM_IUPAC_NAME>
(3aR,4aS,8aR,8bS)-2,2,7,7-tetramethyl-4a,5,8a,8b-tetrahydro-[1,3]dioxolo[3,4]furo[1,3-d][1,3]dioxine-3a-carboxylic acid

> <PUBCHEM_IUPAC_SYSTEMATIC_NAME>
(3aR,4aS,8aR,8bS)-2,2,7,7-tetramethyl-4a,5,8a,8b-tetrahydro-[1,3]dioxolo[3,4]furo[1,3-d][1,3]dioxine-3a-carboxylic acid

> <PUBCHEM_IUPAC_TRADITIONAL_NAME>
(3aR,4aS,8aR,8bS)-2,2,7,7-tetramethyl-4a,5,8a,8b-tetrahydro-[1,3]dioxolo[3,4]furo[1,3-d][1,3]dioxin-3a-carboxylic acid

> <PUBCHEM_IUPAC_INCHI>
InChI=1S/C12H18O7/c1-10(2)15-5-6-7(17-10)8-12(16-6,9(13)14)19-11(3,4)18-8/h6-8H,5H2,1-4H3,(H,13,14)/t6-,7+,8-,12+/m0/s1

> <PUBCHEM_IUPAC_INCHIKEY>
FWCBATIDXGJRMF-FLNNQWSLSA-N

> <PUBCHEM_XLOGP3_AA>
0

> <PUBCHEM_EXACT_MASS>
274.105253

> <PUBCHEM_MOLECULAR_FORMULA>
C12H18O7

> <PUBCHEM_MOLECULAR_WEIGHT>
274.26712

> <PUBCHEM_OPENEYE_CAN_SMILES>
CC1(OCC2C(O1)C3C(O2)(OC(O3)(C)C)C(=O)O)C

> <PUBCHEM_OPENEYE_ISO_SMILES>
CC1(OC[C@H]2[C@@H](O1)[C@H]3[C@@](O2)(OC(O3)(C)C)C(=O)O)C

> <PUBCHEM_CACTVS_TPSA>
83.4

> <PUBCHEM_MONOISOTOPIC_WEIGHT>
274.105253

> <PUBCHEM_TOTAL_CHARGE>
0

> <PUBCHEM_HEAVY_ATOM_COUNT>
19

> <PUBCHEM_ATOM_DEF_STEREO_COUNT>
4

> <PUBCHEM_ATOM_UDEF_STEREO_COUNT>
0

> <PUBCHEM_BOND_DEF_STEREO_COUNT>
0

> <PUBCHEM_BOND_UDEF_STEREO_COUNT>
0

> <PUBCHEM_ISOTOPIC_ATOM_COUNT>
0

> <PUBCHEM_COMPONENT_COUNT>
1

> <PUBCHEM_CACTVS_TAUTO_COUNT>
1

> <PUBCHEM_COORDINATE_TYPE>
1
5
255

> <PUBCHEM_BONDANNOTATIONS>
10  15  6
11  22  5
8  20  6
9  21  5

$$$$

