42138
  -OEChem-07051213113D

 21 23  0     0  0  0  0  0  0999 V2000
   -1.2274    2.7639   -0.0001 Cl  0  0  0  0  0  0  0  0  0  0  0  0
   -4.2960    1.8442   -0.0006 Cl  0  0  0  0  0  0  0  0  0  0  0  0
   -4.9467   -1.2755    0.0010 Cl  0  0  0  0  0  0  0  0  0  0  0  0
    4.2763    2.1205    0.0008 Cl  0  0  0  0  0  0  0  0  0  0  0  0
    5.1531   -0.9802   -0.0001 Cl  0  0  0  0  0  0  0  0  0  0  0  0
    0.1254   -1.9672    0.0000 O   0  0  0  0  0  0  0  0  0  0  0  0
   -0.6471    0.1582   -0.0001 C   0  0  0  0  0  0  0  0  0  0  0  0
    0.7780    0.1980   -0.0001 C   0  0  0  0  0  0  0  0  0  0  0  0
   -0.9928   -1.1896   -0.0001 C   0  0  0  0  0  0  0  0  0  0  0  0
    1.1985   -1.1282   -0.0001 C   0  0  0  0  0  0  0  0  0  0  0  0
   -1.6800    1.1137    0.0000 C   0  0  0  0  0  0  0  0  0  0  0  0
    1.7560    1.2098    0.0000 C   0  0  0  0  0  0  0  0  0  0  0  0
   -2.3049   -1.6601    0.0000 C   0  0  0  0  0  0  0  0  0  0  0  0
    2.5347   -1.5248   -0.0003 C   0  0  0  0  0  0  0  0  0  0  0  0
   -3.0095    0.6707   -0.0003 C   0  0  0  0  0  0  0  0  0  0  0  0
   -3.3138   -0.6926    0.0000 C   0  0  0  0  0  0  0  0  0  0  0  0
    3.1081    0.8415    0.0002 C   0  0  0  0  0  0  0  0  0  0  0  0
    3.4881   -0.5024   -0.0003 C   0  0  0  0  0  0  0  0  0  0  0  0
    1.4830    2.2596    0.0003 H   0  0  0  0  0  0  0  0  0  0  0  0
   -2.5170   -2.7236    0.0003 H   0  0  0  0  0  0  0  0  0  0  0  0
    2.8064   -2.5746   -0.0004 H   0  0  0  0  0  0  0  0  0  0  0  0
  1 11  1  0  0  0  0
  2 15  1  0  0  0  0
  3 16  1  0  0  0  0
  4 17  1  0  0  0  0
  5 18  1  0  0  0  0
  6  9  1  0  0  0  0
  6 10  1  0  0  0  0
  7  8  1  0  0  0  0
  7  9  1  0  0  0  0
  7 11  2  0  0  0  0
  8 10  1  0  0  0  0
  8 12  2  0  0  0  0
  9 13  2  0  0  0  0
 10 14  2  0  0  0  0
 11 15  1  0  0  0  0
 12 17  1  0  0  0  0
 12 19  1  0  0  0  0
 13 16  1  0  0  0  0
 13 20  1  0  0  0  0
 14 18  1  0  0  0  0
 14 21  1  0  0  0  0
 15 16  2  0  0  0  0
 17 18  2  0  0  0  0
M  END
> <PUBCHEM_COMPOUND_CID>
42138

> <PUBCHEM_CONFORMER_RMSD>
0.4

> <PUBCHEM_CONFORMER_DIVERSEORDER>
1

> <PUBCHEM_MMFF94_PARTIAL_CHARGES>
19
1 -0.18
10 0.14
11 0.18
12 -0.15
13 -0.15
14 -0.15
15 0.18
16 0.18
17 0.18
18 0.18
19 0.15
2 -0.18
20 0.15
21 0.15
3 -0.18
4 -0.18
5 -0.18
6 -0.28
9 0.14

> <PUBCHEM_EFFECTIVE_ROTOR_COUNT>
0

> <PUBCHEM_PHARMACOPHORE_FEATURES>
4
1 6 acceptor
5 6 7 8 9 10 rings
6 7 9 11 13 15 16 rings
6 8 10 12 14 17 18 rings

> <PUBCHEM_HEAVY_ATOM_COUNT>
18

> <PUBCHEM_ATOM_DEF_STEREO_COUNT>
0

> <PUBCHEM_ATOM_UDEF_STEREO_COUNT>
0

> <PUBCHEM_BOND_DEF_STEREO_COUNT>
0

> <PUBCHEM_BOND_UDEF_STEREO_COUNT>
0

> <PUBCHEM_ISOTOPIC_ATOM_COUNT>
0

> <PUBCHEM_COMPONENT_COUNT>
1

> <PUBCHEM_CACTVS_TAUTO_COUNT>
1

> <PUBCHEM_CONFORMER_ID>
0000A49A00000001

> <PUBCHEM_MMFF94_ENERGY>
39.0861

> <PUBCHEM_FEATURE_SELFOVERLAP>
20.499

> <PUBCHEM_SHAPE_FINGERPRINT>
10498660 4 18411981377336693325
10608611 8 18410295817505533576
10967382 1 18338798896887659653
1100329 8 16968576872088056320
11132069 177 18408609179389767065
11471102 20 18410577245327209902
11578080 2 16627441166183896910
12236239 1 17917428761599298306
12390115 104 18261936497330027425
12403259 226 18409735079624007944
12403259 415 18410296908269159608
12403260 363 18411143562629761360
13140716 1 18411980282035136745
13288520 33 18408884057259982623
13862211 1 18410579465656906039
14790565 3 18409160035206373921
15196674 1 18410575080373607237
15442244 35 18195529418380515906
15536298 74 18408040689450656228
16945 1 18266740375300546951
17492 89 18339363066723530867
17802600 8 18409452492192271138
17804303 29 18409727383063257780
18186145 218 18060144249386345590
19591789 44 18410012096282149587
200 152 18040720272437671591
20510252 161 18335419062821853473
20645477 70 18335136492908245526
21029758 11 18336270042399508505
21267235 1 18411129234276451207
21501502 16 18410294730678133306
21652331 79 18410855421584381824
221490 88 18411411817676354282
2334 1 18338516335315878115
23402539 116 18335427888979406351
23402655 69 18334297586504342381
23463225 33 18412825776406850390
23557571 272 18261103080331996711
23559900 14 18262521528105806750
238 59 15900696007747816181
2748010 2 18410011001128506823
335352 9 18338517568061332180
34934 24 18265902362624758143
350125 39 18411698820418458092
3545911 37 18338796822756208749
4214541 1 18410575110432921665
474 4 17488457482424563980
5104073 3 18411418414403022552
69090 78 18334297547834117655
7097593 13 17554905625260889818
7364860 26 18335420137059354372
77779 3 18410291410673688194
9709674 26 18409161134364580310
9981440 41 17263278437317237800

> <PUBCHEM_SHAPE_MULTIPOLES>
373.91
9.45
2.54
0.62
1.75
1.07
0
-0.03
0
-0.43
0
0
0.02
0

> <PUBCHEM_SHAPE_SELFOVERLAP>
793.801

> <PUBCHEM_SHAPE_VOLUME>
215.5

> <PUBCHEM_COORDINATE_TYPE>
2
5
10

$$$$

