439945
  -OEChem-07051212483D

 20 19  0     1  0  0  0  0  0999 V2000
    1.5666   -1.7645    0.3736 O   0  0  0  0  0  0  0  0  0  0  0  0
    0.5865    1.4230    0.5184 O   0  0  0  0  0  0  0  0  0  0  0  0
    3.2123    1.1842   -0.8734 O   0  0  0  0  0  0  0  0  0  0  0  0
   -4.4075    0.7973    0.2669 O   0  0  0  0  0  0  0  0  0  0  0  0
    3.8929   -0.3891    0.6111 O   0  0  0  0  0  0  0  0  0  0  0  0
   -3.6106   -1.1941   -0.4930 O   0  0  0  0  0  0  0  0  0  0  0  0
   -0.9054   -0.3455   -0.1756 C   0  0  0  0  0  0  0  0  0  0  0  0
   -2.0692    0.5528    0.2350 C   0  0  0  0  0  0  0  0  0  0  0  0
    0.4612    0.2915    0.0520 C   0  0  0  0  0  0  0  0  0  0  0  0
    1.6623   -0.5528   -0.3454 C   0  0  1  0  0  0  0  0  0  0  0  0
    3.0248    0.0699   -0.1193 C   0  0  0  0  0  0  0  0  0  0  0  0
   -3.4140   -0.0725   -0.0504 C   0  0  0  0  0  0  0  0  0  0  0  0
   -0.9852   -0.5943   -1.2401 H   0  0  0  0  0  0  0  0  0  0  0  0
   -0.9550   -1.2790    0.3954 H   0  0  0  0  0  0  0  0  0  0  0  0
   -2.0105    0.7679    1.3081 H   0  0  0  0  0  0  0  0  0  0  0  0
   -2.0112    1.5007   -0.3127 H   0  0  0  0  0  0  0  0  0  0  0  0
    1.5922   -0.7789   -1.4163 H   0  0  0  0  0  0  0  0  0  0  0  0
    1.0966   -2.4066   -0.1855 H   0  0  0  0  0  0  0  0  0  0  0  0
    4.1057    1.5678   -0.7428 H   0  0  0  0  0  0  0  0  0  0  0  0
   -5.2952    0.4166    0.0956 H   0  0  0  0  0  0  0  0  0  0  0  0
  1 10  1  0  0  0  0
  1 18  1  0  0  0  0
  2  9  2  0  0  0  0
  3 11  1  0  0  0  0
  3 19  1  0  0  0  0
  4 12  1  0  0  0  0
  4 20  1  0  0  0  0
  5 11  2  0  0  0  0
  6 12  2  0  0  0  0
  7  8  1  0  0  0  0
  7  9  1  0  0  0  0
  7 13  1  0  0  0  0
  7 14  1  0  0  0  0
  8 12  1  0  0  0  0
  8 15  1  0  0  0  0
  8 16  1  0  0  0  0
  9 10  1  0  0  0  0
 10 11  1  0  0  0  0
 10 17  1  0  0  0  0
M  END
> <PUBCHEM_COMPOUND_CID>
439945

> <PUBCHEM_CONFORMER_RMSD>
0.6

> <PUBCHEM_CONFORMER_DIVERSEORDER>
1
234
26
267
76
196
183
3
193
12
278
243
148
98
155
273
40
247
52
275
116
18
215
55
90
14
225
240
150
184
128
223
272
4
283
96
186
153
198
171
227
239
46
191
135
221
66
151
95
285
270
92
31
47
203
63
288
94
220
84
9
165
103
158
259
213
211
154
34
289
206
88
214
106
271
207
6
175
87
262
218
251
166
59
238
261
51
39
104
257
56
235
53
286
144
246
115
162
256
195
8
30
188
219
168
61
282
176
226
48
252
91
99
57
264
134
102
110
35
125
167
73
241
232
173
105
36
248
279
83
245
145
67
127
194
269
11
237
33
231
62
185
265
27
182
142
157
129
208
93
263
112
139
41
229
109
177
152
131
49
147
111
42
74
72
172
204
80
140
180
159
216
43
254
228
24
197
82
200
236
266
274
121
187
117
7
123
44
15
161
5
233
22
224
287
20
50
120
132
164
113
149
126
124
100
202
118
249
32
281
137
163
244
143
79
179
29
192
10
86
170
160
276
222
255
60
70
242
253
85
78
114
212
130
68
19
217
89
210
268
77
250
201
174
75
280
141
71
258
28
178
205
38
138
146
54
136
189
64
190
107
119
156
101
81
45
284
16
69
122
209
25
21
17
13
37
181
133
65
260
169
199
97
58
2
23
277
108
230

> <PUBCHEM_MMFF94_PARTIAL_CHARGES>
15
1 -0.68
10 0.4
11 0.66
12 0.66
18 0.4
19 0.5
2 -0.57
20 0.5
3 -0.65
4 -0.65
5 -0.57
6 -0.57
7 0.06
8 0.06
9 0.45

> <PUBCHEM_EFFECTIVE_ROTOR_COUNT>
5

> <PUBCHEM_PHARMACOPHORE_FEATURES>
10
1 1 acceptor
1 1 donor
1 10 anion
1 2 acceptor
1 3 acceptor
1 4 acceptor
1 5 acceptor
1 6 acceptor
3 3 5 11 anion
3 4 6 12 anion

> <PUBCHEM_HEAVY_ATOM_COUNT>
12

> <PUBCHEM_ATOM_DEF_STEREO_COUNT>
0

> <PUBCHEM_ATOM_UDEF_STEREO_COUNT>
1

> <PUBCHEM_BOND_DEF_STEREO_COUNT>
0

> <PUBCHEM_BOND_UDEF_STEREO_COUNT>
0

> <PUBCHEM_ISOTOPIC_ATOM_COUNT>
0

> <PUBCHEM_COMPONENT_COUNT>
1

> <PUBCHEM_CACTVS_TAUTO_COUNT>
20

> <PUBCHEM_CONFORMER_ID>
0006B68900000001

> <PUBCHEM_MMFF94_ENERGY>
8.6502

> <PUBCHEM_FEATURE_SELFOVERLAP>
51.12

> <PUBCHEM_SHAPE_FINGERPRINT>
10219947 1 17703789206514039348
11062470 55 18411698798642590457
12932764 1 17749119897731872573
14144814 61 18113616811401943283
14251717 144 18412829087837535878
14252887 29 17603856806341800351
14325111 11 18410572885940523271
15775835 57 18410571799498582631
18186145 218 17561361785824380758
190213 19 17603301557280350549
20201158 50 18272367589769773035
20645477 70 18339364192379112655
22485316 2 18408327704618758543
23402539 116 17346327002439988391
23402655 69 18410856585763320309
3248919 1 17203033162598480669
581208 293 18413671318276645930

> <PUBCHEM_SHAPE_MULTIPOLES>
211.74
7.59
1.25
0.72
3.51
0.15
-0.03
-0.2
-0.11
-0.2
0.04
-0.24
-0.04
-0.55

> <PUBCHEM_SHAPE_SELFOVERLAP>
411.64

> <PUBCHEM_SHAPE_VOLUME>
126.3

> <PUBCHEM_COORDINATE_TYPE>
2
5
10

$$$$

