10652683
  -OEChem-07051213072D

110112  0     1  0  0  0  0  0999 V2000
    8.5268   -3.7570    0.0000 O   0  0  0  0  0  0  0  0  0  0  0  0
   10.8829   -0.8025    0.0000 O   0  0  0  0  0  0  0  0  0  0  0  0
   11.4138    1.3929    0.0000 O   0  0  0  0  0  0  0  0  0  0  0  0
   10.0420    2.8817    0.0000 O   0  0  0  0  0  0  0  0  0  0  0  0
    6.6374    4.5213    0.0000 O   0  0  0  0  0  0  0  0  0  0  0  0
    2.3918   -0.8025    0.0000 O   0  0  0  0  0  0  0  0  0  0  0  0
    3.2327    2.8817    0.0000 O   0  0  0  0  0  0  0  0  0  0  0  0
    4.7643    6.2389    0.0000 O   0  0  0  0  0  0  0  0  0  0  0  0
    2.8660   -6.0109    0.0000 O   0  0  0  0  0  0  0  0  0  0  0  0
    9.5426   -1.5109    0.0000 N   0  0  0  0  0  0  0  0  0  0  0  0
    7.1374   -3.1508    0.0000 N   0  0  0  0  0  0  0  0  0  0  0  0
    9.7602    1.3921    0.0000 N   0  0  0  0  0  0  0  0  0  0  0  0
    7.6262    3.3722    0.0000 N   0  0  0  0  0  0  0  0  0  0  0  0
    4.3555   -2.2927    0.0000 N   0  0  0  0  0  0  0  0  0  0  0  0
    4.7476    2.9383    0.0000 N   0  0  0  0  0  0  0  0  0  0  0  0
    3.2920    0.4172    0.0000 N   0  0  0  0  0  0  0  0  0  0  0  0
    3.1092    5.7284    0.0000 N   0  0  0  0  0  0  0  0  0  0  0  0
   10.4270   -2.8556    0.0000 C   0  0  1  0  0  0  0  0  0  0  0  0
    8.9192   -2.2927    0.0000 C   0  0  1  0  0  0  0  0  0  0  0  0
    9.4690   -3.1209    0.0000 C   0  0  0  0  0  0  0  0  0  0  0  0
   10.4724   -1.8626    0.0000 C   0  0  0  0  0  0  0  0  0  0  0  0
   11.2088   -3.4791    0.0000 C   0  0  0  0  0  0  0  0  0  0  0  0
    8.0929   -2.8560    0.0000 C   0  0  0  0  0  0  0  0  0  0  0  0
    9.9080   -0.5800    0.0000 C   0  0  0  0  0  0  0  0  0  0  0  0
    9.9827    0.4172    0.0000 C   0  0  2  0  0  0  0  0  0  0  0  0
    6.1374   -3.1508    0.0000 C   0  0  1  0  0  0  0  0  0  0  0  0
   10.9799    0.4919    0.0000 C   0  0  0  0  0  0  0  0  0  0  0  0
    5.9883   -4.1396    0.0000 C   0  0  0  0  0  0  0  0  0  0  0  0
    8.5272    2.9383    0.0000 C   0  0  2  0  0  0  0  0  0  0  0  0
    6.7701   -4.7631    0.0000 C   0  0  0  0  0  0  0  0  0  0  0  0
    9.2602    2.2582    0.0000 C   0  0  0  0  0  0  0  0  0  0  0  0
    9.0905    3.7646    0.0000 C   0  0  2  0  0  0  0  0  0  0  0  0
    5.1818   -2.8560    0.0000 C   0  0  0  0  0  0  0  0  0  0  0  0
    8.6566    4.6656    0.0000 C   0  0  0  0  0  0  0  0  0  0  0  0
    6.6211   -5.7519    0.0000 C   0  0  0  0  0  0  0  0  0  0  0  0
    7.7010   -4.3978    0.0000 C   0  0  0  0  0  0  0  0  0  0  0  0
   10.0877    3.6898    0.0000 C   0  0  0  0  0  0  0  0  0  0  0  0
    6.6374    3.5213    0.0000 C   0  0  0  0  0  0  0  0  0  0  0  0
    5.6485    3.3722    0.0000 C   0  0  1  0  0  0  0  0  0  0  0  0
    9.2199    5.4918    0.0000 C   0  0  0  0  0  0  0  0  0  0  0  0
    3.7320   -1.5109    0.0000 C   0  0  1  0  0  0  0  0  0  0  0  0
    5.3538    4.3278    0.0000 C   0  0  0  0  0  0  0  0  0  0  0  0
    2.8660   -2.0109    0.0000 C   0  0  0  0  0  0  0  0  0  0  0  0
    3.3667   -0.5800    0.0000 C   0  0  0  0  0  0  0  0  0  0  0  0
    4.3788    4.5503    0.0000 C   0  0  0  0  0  0  0  0  0  0  0  0
    4.0145    2.2582    0.0000 C   0  0  0  0  0  0  0  0  0  0  0  0
    2.8660   -3.0109    0.0000 C   0  0  0  0  0  0  0  0  0  0  0  0
    3.5145    1.3921    0.0000 C   0  0  0  0  0  0  0  0  0  0  0  0
    4.0841    5.5059    0.0000 C   0  0  0  0  0  0  0  0  0  0  0  0
    2.0000   -3.5109    0.0000 C   0  0  0  0  0  0  0  0  0  0  0  0
    3.7320   -3.5109    0.0000 C   0  0  0  0  0  0  0  0  0  0  0  0
    2.0000   -4.5109    0.0000 C   0  0  0  0  0  0  0  0  0  0  0  0
    3.7320   -4.5109    0.0000 C   0  0  0  0  0  0  0  0  0  0  0  0
    2.8660   -5.0109    0.0000 C   0  0  0  0  0  0  0  0  0  0  0  0
   10.3029   -3.4631    0.0000 H   0  0  0  0  0  0  0  0  0  0  0  0
    8.3410   -1.6696    0.0000 H   0  0  0  0  0  0  0  0  0  0  0  0
    8.9192   -3.4076    0.0000 H   0  0  0  0  0  0  0  0  0  0  0  0
    9.6963   -3.6977    0.0000 H   0  0  0  0  0  0  0  0  0  0  0  0
   11.0854   -1.9559    0.0000 H   0  0  0  0  0  0  0  0  0  0  0  0
   10.6296   -1.2628    0.0000 H   0  0  0  0  0  0  0  0  0  0  0  0
   10.8222   -3.9638    0.0000 H   0  0  0  0  0  0  0  0  0  0  0  0
   11.6935   -3.8657    0.0000 H   0  0  0  0  0  0  0  0  0  0  0  0
   11.5954   -2.9944    0.0000 H   0  0  0  0  0  0  0  0  0  0  0  0
   10.3509    0.9161    0.0000 H   0  0  0  0  0  0  0  0  0  0  0  0
    7.2298   -3.7638    0.0000 H   0  0  0  0  0  0  0  0  0  0  0  0
    6.5418   -3.6207    0.0000 H   0  0  0  0  0  0  0  0  0  0  0  0
   10.9182   -0.1250    0.0000 H   0  0  0  0  0  0  0  0  0  0  0  0
   11.5768    0.3240    0.0000 H   0  0  0  0  0  0  0  0  0  0  0  0
   10.3373    1.6186    0.0000 H   0  0  0  0  0  0  0  0  0  0  0  0
    5.4006   -3.9421    0.0000 H   0  0  0  0  0  0  0  0  0  0  0  0
    5.6918   -4.6841    0.0000 H   0  0  0  0  0  0  0  0  0  0  0  0
    8.3072    3.7594    0.0000 H   0  0  0  0  0  0  0  0  0  0  0  0
    7.2549   -5.1497    0.0000 H   0  0  0  0  0  0  0  0  0  0  0  0
    9.3595    3.2060    0.0000 H   0  0  0  0  0  0  0  0  0  0  0  0
    4.9128   -3.4146    0.0000 H   0  0  0  0  0  0  0  0  0  0  0  0
    8.2128    5.0984    0.0000 H   0  0  0  0  0  0  0  0  0  0  0  0
    8.1532    4.3036    0.0000 H   0  0  0  0  0  0  0  0  0  0  0  0
    7.8089    3.9647    0.0000 H   0  0  0  0  0  0  0  0  0  0  0  0
    6.0080   -5.6595    0.0000 H   0  0  0  0  0  0  0  0  0  0  0  0
    6.5287   -6.3650    0.0000 H   0  0  0  0  0  0  0  0  0  0  0  0
    7.2342   -5.8443    0.0000 H   0  0  0  0  0  0  0  0  0  0  0  0
    7.9275   -4.9749    0.0000 H   0  0  0  0  0  0  0  0  0  0  0  0
    8.2782   -4.1712    0.0000 H   0  0  0  0  0  0  0  0  0  0  0  0
    7.4745   -3.8206    0.0000 H   0  0  0  0  0  0  0  0  0  0  0  0
   10.0413    3.0716    0.0000 H   0  0  0  0  0  0  0  0  0  0  0  0
   10.7059    3.6435    0.0000 H   0  0  0  0  0  0  0  0  0  0  0  0
   10.1340    4.3081    0.0000 H   0  0  0  0  0  0  0  0  0  0  0  0
   12.0321    1.4392    0.0000 H   0  0  0  0  0  0  0  0  0  0  0  0
    5.0803    3.6202    0.0000 H   0  0  0  0  0  0  0  0  0  0  0  0
    9.7322    5.1425    0.0000 H   0  0  0  0  0  0  0  0  0  0  0  0
    9.5692    6.0040    0.0000 H   0  0  0  0  0  0  0  0  0  0  0  0
    8.7076    5.8410    0.0000 H   0  0  0  0  0  0  0  0  0  0  0  0
    3.6168   -2.1201    0.0000 H   0  0  0  0  0  0  0  0  0  0  0  0
    5.9690    4.4049    0.0000 H   0  0  0  0  0  0  0  0  0  0  0  0
    5.3847    4.9470    0.0000 H   0  0  0  0  0  0  0  0  0  0  0  0
    2.6540   -1.4283    0.0000 H   0  0  0  0  0  0  0  0  0  0  0  0
    2.2554   -2.1185    0.0000 H   0  0  0  0  0  0  0  0  0  0  0  0
    4.3983    3.4506    0.0000 H   0  0  0  0  0  0  0  0  0  0  0  0
    3.7636    4.4732    0.0000 H   0  0  0  0  0  0  0  0  0  0  0  0
    4.3479    3.9311    0.0000 H   0  0  0  0  0  0  0  0  0  0  0  0
    3.1526    1.8955    0.0000 H   0  0  0  0  0  0  0  0  0  0  0  0
    4.0916    1.1656    0.0000 H   0  0  0  0  0  0  0  0  0  0  0  0
    2.6737    0.4635    0.0000 H   0  0  0  0  0  0  0  0  0  0  0  0
    1.4631   -3.2009    0.0000 H   0  0  0  0  0  0  0  0  0  0  0  0
    4.2690   -3.2009    0.0000 H   0  0  0  0  0  0  0  0  0  0  0  0
    1.4631   -4.8209    0.0000 H   0  0  0  0  0  0  0  0  0  0  0  0
    4.2690   -4.8209    0.0000 H   0  0  0  0  0  0  0  0  0  0  0  0
    2.9264    6.3209    0.0000 H   0  0  0  0  0  0  0  0  0  0  0  0
    2.6874    5.2739    0.0000 H   0  0  0  0  0  0  0  0  0  0  0  0
    2.3291   -6.3209    0.0000 H   0  0  0  0  0  0  0  0  0  0  0  0
  1 23  2  0  0  0  0
  2 24  2  0  0  0  0
  3 27  1  0  0  0  0
  3 88  1  0  0  0  0
  4 31  2  0  0  0  0
  5 38  2  0  0  0  0
  6 44  2  0  0  0  0
  7 46  2  0  0  0  0
  8 49  2  0  0  0  0
  9 54  1  0  0  0  0
  9110  1  0  0  0  0
 10 19  1  0  0  0  0
 10 21  1  0  0  0  0
 10 24  1  0  0  0  0
 11 23  1  0  0  0  0
 11 26  1  0  0  0  0
 11 65  1  0  0  0  0
 12 25  1  0  0  0  0
 12 31  1  0  0  0  0
 12 69  1  0  0  0  0
 13 29  1  0  0  0  0
 13 38  1  0  0  0  0
 13 78  1  0  0  0  0
 14 33  2  0  0  0  0
 14 41  1  0  0  0  0
 15 39  1  0  0  0  0
 15 46  1  0  0  0  0
 15 98  1  0  0  0  0
 16 44  1  0  0  0  0
 16 48  1  0  0  0  0
 16103  1  0  0  0  0
 17 49  1  0  0  0  0
 17108  1  0  0  0  0
 17109  1  0  0  0  0
 18 20  1  0  0  0  0
 18 21  1  0  0  0  0
 18 22  1  1  0  0  0
 18 55  1  0  0  0  0
 19 20  1  0  0  0  0
 19 23  1  0  0  0  0
 19 56  1  6  0  0  0
 20 57  1  0  0  0  0
 20 58  1  0  0  0  0
 21 59  1  0  0  0  0
 21 60  1  0  0  0  0
 22 61  1  0  0  0  0
 22 62  1  0  0  0  0
 22 63  1  0  0  0  0
 24 25  1  0  0  0  0
 25 27  1  1  0  0  0
 25 64  1  0  0  0  0
 26 28  1  1  0  0  0
 26 33  1  0  0  0  0
 26 66  1  0  0  0  0
 27 67  1  0  0  0  0
 27 68  1  0  0  0  0
 28 30  1  0  0  0  0
 28 70  1  0  0  0  0
 28 71  1  0  0  0  0
 29 31  1  0  0  0  0
 29 32  1  0  0  0  0
 29 72  1  6  0  0  0
 30 35  1  0  0  0  0
 30 36  1  0  0  0  0
 30 73  1  0  0  0  0
 32 34  1  0  0  0  0
 32 37  1  6  0  0  0
 32 74  1  0  0  0  0
 33 75  1  0  0  0  0
 34 40  1  0  0  0  0
 34 76  1  0  0  0  0
 34 77  1  0  0  0  0
 35 79  1  0  0  0  0
 35 80  1  0  0  0  0
 35 81  1  0  0  0  0
 36 82  1  0  0  0  0
 36 83  1  0  0  0  0
 36 84  1  0  0  0  0
 37 85  1  0  0  0  0
 37 86  1  0  0  0  0
 37 87  1  0  0  0  0
 38 39  1  0  0  0  0
 39 42  1  6  0  0  0
 39 89  1  0  0  0  0
 40 90  1  0  0  0  0
 40 91  1  0  0  0  0
 40 92  1  0  0  0  0
 41 43  1  1  0  0  0
 41 44  1  0  0  0  0
 41 93  1  0  0  0  0
 42 45  1  0  0  0  0
 42 94  1  0  0  0  0
 42 95  1  0  0  0  0
 43 47  1  0  0  0  0
 43 96  1  0  0  0  0
 43 97  1  0  0  0  0
 45 49  1  0  0  0  0
 45 99  1  0  0  0  0
 45100  1  0  0  0  0
 46 48  1  0  0  0  0
 47 50  2  0  0  0  0
 47 51  1  0  0  0  0
 48101  1  0  0  0  0
 48102  1  0  0  0  0
 50 52  1  0  0  0  0
 50104  1  0  0  0  0
 51 53  2  0  0  0  0
 51105  1  0  0  0  0
 52 54  2  0  0  0  0
 52106  1  0  0  0  0
 53 54  1  0  0  0  0
 53107  1  0  0  0  0
M  END
> <PUBCHEM_COMPOUND_CID>
10652683

> <PUBCHEM_COMPOUND_CANONICALIZED>
1

> <PUBCHEM_CACTVS_COMPLEXITY>
1370

> <PUBCHEM_CACTVS_HBOND_ACCEPTOR>
10

> <PUBCHEM_CACTVS_HBOND_DONOR>
8

> <PUBCHEM_CACTVS_ROTATABLE_BOND>
10

> <PUBCHEM_CACTVS_SUBSKEYS>
AAADcfB//AAAAAAAAAAAAAAAAAAAAWAAAAAwAAAAAAAAAAABAAAAHgAQCAAADSzhmAYyBoPAAgCoAjFzFAACAAAgIAAIiIG+CIgKdjaCkTOUcAAm9hGYmAecy6COIAAAAAAAAABAAAAAAAAAAAAAAAAAAA==

> <PUBCHEM_IUPAC_OPENEYE_NAME>
3-[(3S,6S,9R,15S,18S,21S,23S)-3-(hydroxymethyl)-15-[(4-hydroxyphenyl)methyl]-18-isobutyl-23-methyl-6-[(1S)-1-methylpropyl]-2,5,8,11,14,20-hexaoxo-1,4,7,10,13,16,19-heptazabicyclo[19.3.0]tetracos-16-en-9-yl]propanamide

> <PUBCHEM_IUPAC_CAS_NAME>
3-[(3S,6S,9R,15S,18S,21S,23S)-6-[(2S)-butan-2-yl]-3-(hydroxymethyl)-15-[(4-hydroxyphenyl)methyl]-23-methyl-18-(2-methylpropyl)-2,5,8,11,14,20-hexaoxo-1,4,7,10,13,16,19-heptazabicyclo[19.3.0]tetracos-16-en-9-yl]propanamide

> <PUBCHEM_IUPAC_NAME>
3-[(3S,6S,9R,15S,18S,21S,23S)-6-[(2S)-butan-2-yl]-3-(hydroxymethyl)-15-[(4-hydroxyphenyl)methyl]-23-methyl-18-(2-methylpropyl)-2,5,8,11,14,20-hexaoxo-1,4,7,10,13,16,19-heptazabicyclo[19.3.0]tetracos-16-en-9-yl]propanamide

> <PUBCHEM_IUPAC_SYSTEMATIC_NAME>
3-[(3S,6S,9R,15S,18S,21S,23S)-6-[(2S)-butan-2-yl]-3-(hydroxymethyl)-15-[(4-hydroxyphenyl)methyl]-23-methyl-18-(2-methylpropyl)-2,5,8,11,14,20-hexakis(oxidanylidene)-1,4,7,10,13,16,19-heptazabicyclo[19.3.0]tetracos-16-en-9-yl]propanamide

> <PUBCHEM_IUPAC_TRADITIONAL_NAME>
3-[(3S,6S,9R,15S,18S,21S,23S)-15-(4-hydroxybenzyl)-18-isobutyl-2,5,8,11,14,20-hexaketo-23-methyl-3-methylol-6-[(1S)-1-methylpropyl]-1,4,7,10,13,16,19-heptazabicyclo[19.3.0]tetracos-16-en-9-yl]propionamide

> <PUBCHEM_IUPAC_INCHI>
InChI=1S/C37H56N8O9/c1-6-22(5)32-36(53)43-28(19-46)37(54)45-18-21(4)14-29(45)35(52)41-24(13-20(2)3)16-39-27(15-23-7-9-25(47)10-8-23)33(50)40-17-31(49)42-26(34(51)44-32)11-12-30(38)48/h7-10,16,20-22,24,26-29,32,46-47H,6,11-15,17-19H2,1-5H3,(H2,38,48)(H,40,50)(H,41,52)(H,42,49)(H,43,53)(H,44,51)/t21-,22-,24-,26+,27-,28-,29-,32-/m0/s1

> <PUBCHEM_IUPAC_INCHIKEY>
TZHROWIOAVYSMP-NMMVZENQSA-N

> <PUBCHEM_XLOGP3_AA>
1

> <PUBCHEM_EXACT_MASS>
756.417025

> <PUBCHEM_MOLECULAR_FORMULA>
C37H56N8O9

> <PUBCHEM_MOLECULAR_WEIGHT>
756.88874

> <PUBCHEM_OPENEYE_CAN_SMILES>
CCC(C)C1C(=O)NC(C(=O)N2CC(CC2C(=O)NC(C=NC(C(=O)NCC(=O)NC(C(=O)N1)CCC(=O)N)CC3=CC=C(C=C3)O)CC(C)C)C)CO

> <PUBCHEM_OPENEYE_ISO_SMILES>
CC[C@H](C)[C@H]1C(=O)N[C@H](C(=O)N2C[C@H](C[C@H]2C(=O)N[C@H](C=N[C@H](C(=O)NCC(=O)N[C@@H](C(=O)N1)CCC(=O)N)CC3=CC=C(C=C3)O)CC(C)C)C)CO

> <PUBCHEM_CACTVS_TPSA>
262

> <PUBCHEM_MONOISOTOPIC_WEIGHT>
756.417025

> <PUBCHEM_TOTAL_CHARGE>
0

> <PUBCHEM_HEAVY_ATOM_COUNT>
54

> <PUBCHEM_ATOM_DEF_STEREO_COUNT>
8

> <PUBCHEM_ATOM_UDEF_STEREO_COUNT>
0

> <PUBCHEM_BOND_DEF_STEREO_COUNT>
0

> <PUBCHEM_BOND_UDEF_STEREO_COUNT>
0

> <PUBCHEM_ISOTOPIC_ATOM_COUNT>
0

> <PUBCHEM_COMPONENT_COUNT>
1

> <PUBCHEM_CACTVS_TAUTO_COUNT>
1001

> <PUBCHEM_COORDINATE_TYPE>
1
5
255

> <PUBCHEM_BONDANNOTATIONS>
18  22  5
19  56  6
25  27  5
26  28  5
29  72  6
32  37  6
39  42  6
41  43  5
47  50  8
47  51  8
50  52  8
51  53  8
52  54  8
53  54  8

$$$$

