441475
  -OEChem-07051212553D

 19 19  0     1  0  0  0  0  0999 V2000
   -0.9581   -1.4348    0.1881 O   0  0  0  0  0  0  0  0  0  0  0  0
    0.6043    1.5915   -0.7668 O   0  0  0  0  0  0  0  0  0  0  0  0
    2.5205   -0.3480   -0.2548 O   0  0  0  0  0  0  0  0  0  0  0  0
   -1.9756    0.3582   -0.9834 O   0  0  0  0  0  0  0  0  0  0  0  0
    0.6393    0.9565    0.5110 C   0  0  2  0  0  0  0  0  0  0  0  0
    1.2482   -0.4377    0.3706 C   0  0  1  0  0  0  0  0  0  0  0  0
   -0.7807    0.8421    1.0705 C   0  0  0  0  0  0  0  0  0  0  0  0
   -1.6246   -0.1741    0.2904 C   0  0  2  0  0  0  0  0  0  0  0  0
    0.3266   -1.3537   -0.4257 C   0  0  0  0  0  0  0  0  0  0  0  0
    1.2574    1.5850    1.1614 H   0  0  0  0  0  0  0  0  0  0  0  0
    1.3913   -0.8550    1.3751 H   0  0  0  0  0  0  0  0  0  0  0  0
   -0.7131    0.5150    2.1152 H   0  0  0  0  0  0  0  0  0  0  0  0
   -1.2686    1.8231    1.0416 H   0  0  0  0  0  0  0  0  0  0  0  0
   -2.5622   -0.3502    0.8264 H   0  0  0  0  0  0  0  0  0  0  0  0
    0.2302   -1.0327   -1.4698 H   0  0  0  0  0  0  0  0  0  0  0  0
    0.7469   -2.3651   -0.4593 H   0  0  0  0  0  0  0  0  0  0  0  0
    1.5149    1.6088   -1.1075 H   0  0  0  0  0  0  0  0  0  0  0  0
    2.8773   -1.2499   -0.3249 H   0  0  0  0  0  0  0  0  0  0  0  0
   -1.2415    0.9043   -1.3084 H   0  0  0  0  0  0  0  0  0  0  0  0
  1  8  1  0  0  0  0
  1  9  1  0  0  0  0
  2  5  1  0  0  0  0
  2 17  1  0  0  0  0
  3  6  1  0  0  0  0
  3 18  1  0  0  0  0
  4  8  1  0  0  0  0
  4 19  1  0  0  0  0
  5  6  1  0  0  0  0
  5  7  1  0  0  0  0
  5 10  1  0  0  0  0
  6  9  1  0  0  0  0
  6 11  1  0  0  0  0
  7  8  1  0  0  0  0
  7 12  1  0  0  0  0
  7 13  1  0  0  0  0
  8 14  1  0  0  0  0
  9 15  1  0  0  0  0
  9 16  1  0  0  0  0
M  END
> <PUBCHEM_COMPOUND_CID>
441475

> <PUBCHEM_CONFORMER_RMSD>
0.4

> <PUBCHEM_CONFORMER_DIVERSEORDER>
1
4
3
2

> <PUBCHEM_MMFF94_PARTIAL_CHARGES>
11
1 -0.56
17 0.4
18 0.4
19 0.4
2 -0.68
3 -0.68
4 -0.68
5 0.28
6 0.28
8 0.56
9 0.28

> <PUBCHEM_EFFECTIVE_ROTOR_COUNT>
1.2

> <PUBCHEM_PHARMACOPHORE_FEATURES>
8
1 1 acceptor
1 2 acceptor
1 2 donor
1 3 acceptor
1 3 donor
1 4 acceptor
1 4 donor
6 1 5 6 7 8 9 rings

> <PUBCHEM_HEAVY_ATOM_COUNT>
9

> <PUBCHEM_ATOM_DEF_STEREO_COUNT>
3

> <PUBCHEM_ATOM_UDEF_STEREO_COUNT>
0

> <PUBCHEM_BOND_DEF_STEREO_COUNT>
0

> <PUBCHEM_BOND_UDEF_STEREO_COUNT>
0

> <PUBCHEM_ISOTOPIC_ATOM_COUNT>
0

> <PUBCHEM_COMPONENT_COUNT>
1

> <PUBCHEM_CACTVS_TAUTO_COUNT>
1

> <PUBCHEM_CONFORMER_ID>
0006BC8300000001

> <PUBCHEM_MMFF94_ENERGY>
16.8563

> <PUBCHEM_FEATURE_SELFOVERLAP>
40.646

> <PUBCHEM_SHAPE_FINGERPRINT>
12423570 1 12282882945091294849
16714656 1 18337664317179063394
16945 1 18261115204940257666
18185500 45 18335135405790623202
21040471 1 18334858298827184243
23235685 24 18335133228305371313
23552423 10 18197214746209302498
24536 1 18261672571483589011
29004967 10 18059563728579187824
5084963 1 18269553849435921563

> <PUBCHEM_SHAPE_MULTIPOLES>
161.74
2.3
1.49
0.94
0.44
0.06
0.05
0.21
0.28
0.06
0.07
-0.22
-0.23
-0.05

> <PUBCHEM_SHAPE_SELFOVERLAP>
318.971

> <PUBCHEM_SHAPE_VOLUME>
95.1

> <PUBCHEM_COORDINATE_TYPE>
2
5
10

$$$$

