197810
  -OEChem-07051213032D

 45 50  0     1  0  0  0  0  0999 V2000
    2.5405    0.3400    0.0000 O   0  0  0  0  0  0  0  0  0  0  0  0
    5.9658    3.5673    0.0000 O   0  0  0  0  0  0  0  0  0  0  0  0
    4.5204    4.4167    0.0000 O   0  0  0  0  0  0  0  0  0  0  0  0
    6.9666   -3.5278    0.0000 O   0  0  0  0  0  0  0  0  0  0  0  0
    5.4611   -4.4125    0.0000 O   0  0  0  0  0  0  0  0  0  0  0  0
    6.0427    0.3368    0.0000 N   0  0  3  0  0  0  0  0  0  0  0  0
    4.3107    0.3368    0.0000 C   0  0  2  0  0  0  0  0  0  0  0  0
    5.1767   -0.1632    0.0000 C   0  0  1  0  0  0  0  0  0  0  0  0
    3.4007   -0.1700    0.0000 C   0  0  2  0  0  0  0  0  0  0  0  0
    4.3107    1.3368    0.0000 C   0  0  0  0  0  0  0  0  0  0  0  0
    5.1928   -1.2047    0.0000 C   0  0  0  0  0  0  0  0  0  0  0  0
    3.3926   -1.2116    0.0000 C   0  0  0  0  0  0  0  0  0  0  0  0
    6.0427    1.3368    0.0000 C   0  0  0  0  0  0  0  0  0  0  0  0
    4.2947   -1.7324    0.0000 C   0  0  0  0  0  0  0  0  0  0  0  0
    5.1767    1.8368    0.0000 C   0  0  0  0  0  0  0  0  0  0  0  0
    6.1447   -1.7253    0.0000 C   0  0  0  0  0  0  0  0  0  0  0  0
    3.4007    1.8437    0.0000 C   0  0  0  0  0  0  0  0  0  0  0  0
    6.9088   -0.1632    0.0000 C   0  0  0  0  0  0  0  0  0  0  0  0
    5.1928    2.8783    0.0000 C   0  0  0  0  0  0  0  0  0  0  0  0
    4.2864   -2.8174    0.0000 C   0  0  0  0  0  0  0  0  0  0  0  0
    6.1614   -2.8102    0.0000 C   0  0  0  0  0  0  0  0  0  0  0  0
    4.2947    3.4061    0.0000 C   0  0  0  0  0  0  0  0  0  0  0  0
    5.2260   -3.3599    0.0000 C   0  0  0  0  0  0  0  0  0  0  0  0
    3.3926    2.8853    0.0000 C   0  0  0  0  0  0  0  0  0  0  0  0
    5.5511    4.5161    0.0000 C   0  0  0  0  0  0  0  0  0  0  0  0
    6.5347   -4.5161    0.0000 C   0  0  0  0  0  0  0  0  0  0  0  0
    3.5778    0.7675    0.0000 H   0  0  0  0  0  0  0  0  0  0  0  0
    5.9161   -0.5825    0.0000 H   0  0  0  0  0  0  0  0  0  0  0  0
    2.8608   -0.4748    0.0000 H   0  0  0  0  0  0  0  0  0  0  0  0
    2.7826   -1.1008    0.0000 H   0  0  0  0  0  0  0  0  0  0  0  0
    3.1791   -1.7937    0.0000 H   0  0  0  0  0  0  0  0  0  0  0  0
    6.6533    1.2292    0.0000 H   0  0  0  0  0  0  0  0  0  0  0  0
    6.2548    1.9194    0.0000 H   0  0  0  0  0  0  0  0  0  0  0  0
    6.6756   -1.4050    0.0000 H   0  0  0  0  0  0  0  0  0  0  0  0
    2.8674    1.5275    0.0000 H   0  0  0  0  0  0  0  0  0  0  0  0
    6.5988   -0.7001    0.0000 H   0  0  0  0  0  0  0  0  0  0  0  0
    7.4457   -0.4732    0.0000 H   0  0  0  0  0  0  0  0  0  0  0  0
    7.2188    0.3738    0.0000 H   0  0  0  0  0  0  0  0  0  0  0  0
    3.7482   -3.1253    0.0000 H   0  0  0  0  0  0  0  0  0  0  0  0
    2.0000    0.0362    0.0000 H   0  0  0  0  0  0  0  0  0  0  0  0
    2.8545    3.1932    0.0000 H   0  0  0  0  0  0  0  0  0  0  0  0
    6.1422    4.7033    0.0000 H   0  0  0  0  0  0  0  0  0  0  0  0
    5.4271    5.1235    0.0000 H   0  0  0  0  0  0  0  0  0  0  0  0
    6.4106   -5.1235    0.0000 H   0  0  0  0  0  0  0  0  0  0  0  0
    7.1258   -4.7033    0.0000 H   0  0  0  0  0  0  0  0  0  0  0  0
  9  1  1  6  0  0  0
  1 40  1  0  0  0  0
  2 19  1  0  0  0  0
  2 25  1  0  0  0  0
  3 22  1  0  0  0  0
  3 25  1  0  0  0  0
  4 21  1  0  0  0  0
  4 26  1  0  0  0  0
  5 23  1  0  0  0  0
  5 26  1  0  0  0  0
  6  8  1  0  0  0  0
  6 13  1  0  0  0  0
  6 18  1  0  0  0  0
  7  8  1  0  0  0  0
  7  9  1  0  0  0  0
  7 10  1  0  0  0  0
  7 27  1  1  0  0  0
  8 11  1  0  0  0  0
  8 28  1  1  0  0  0
  9 12  1  0  0  0  0
  9 29  1  0  0  0  0
 10 15  2  0  0  0  0
 10 17  1  0  0  0  0
 11 14  1  0  0  0  0
 11 16  2  0  0  0  0
 12 14  1  0  0  0  0
 12 30  1  0  0  0  0
 12 31  1  0  0  0  0
 13 15  1  0  0  0  0
 13 32  1  0  0  0  0
 13 33  1  0  0  0  0
 14 20  2  0  0  0  0
 15 19  1  0  0  0  0
 16 21  1  0  0  0  0
 16 34  1  0  0  0  0
 17 24  2  0  0  0  0
 17 35  1  0  0  0  0
 18 36  1  0  0  0  0
 18 37  1  0  0  0  0
 18 38  1  0  0  0  0
 19 22  2  0  0  0  0
 20 23  1  0  0  0  0
 20 39  1  0  0  0  0
 21 23  2  0  0  0  0
 22 24  1  0  0  0  0
 24 41  1  0  0  0  0
 25 42  1  0  0  0  0
 25 43  1  0  0  0  0
 26 44  1  0  0  0  0
 26 45  1  0  0  0  0
M  END
> <PUBCHEM_COMPOUND_CID>
197810

> <PUBCHEM_COMPOUND_CANONICALIZED>
1

> <PUBCHEM_CACTVS_COMPLEXITY>
560

> <PUBCHEM_CACTVS_HBOND_ACCEPTOR>
6

> <PUBCHEM_CACTVS_HBOND_DONOR>
1

> <PUBCHEM_CACTVS_ROTATABLE_BOND>
0

> <PUBCHEM_CACTVS_SUBSKEYS>
AAADceB6OAAAAAAAAAAAAAAAAAAAASJAAAA8YMEAAAAAAEjxQAAAHgAACAAADTzhmAcyDoMABgCAAiBCAACCCAAgIAAIiAAOjIgdNiKEsRukcCpmwBGOqAew8P8OoAABAAAYQADAAAaEADSAAAAAAAAAAA==

> <PUBCHEM_IUPAC_INCHI>
InChI=1S/C20H19NO5/c1-21-7-13-11(2-3-15-20(13)26-9-23-15)18-14(22)4-10-5-16-17(25-8-24-16)6-12(10)19(18)21/h2-3,5-6,14,18-19,22H,4,7-9H2,1H3/t14-,18-,19+/m0/s1

> <PUBCHEM_IUPAC_INCHIKEY>
GHKISGDRQRSCII-ZOCIIQOWSA-N

> <PUBCHEM_XLOGP3_AA>
2.2

> <PUBCHEM_EXACT_MASS>
353.126323

> <PUBCHEM_MOLECULAR_FORMULA>
C20H19NO5

> <PUBCHEM_MOLECULAR_WEIGHT>
353.36856

> <PUBCHEM_OPENEYE_CAN_SMILES>
CN1CC2=C(C=CC3=C2OCO3)C4C1C5=CC6=C(C=C5CC4O)OCO6

> <PUBCHEM_OPENEYE_ISO_SMILES>
CN1CC2=C(C=CC3=C2OCO3)[C@@H]4[C@H]1C5=CC6=C(C=C5C[C@@H]4O)OCO6

> <PUBCHEM_CACTVS_TPSA>
60.4

> <PUBCHEM_MONOISOTOPIC_WEIGHT>
353.126323

> <PUBCHEM_TOTAL_CHARGE>
0

> <PUBCHEM_HEAVY_ATOM_COUNT>
26

> <PUBCHEM_ATOM_DEF_STEREO_COUNT>
3

> <PUBCHEM_ATOM_UDEF_STEREO_COUNT>
0

> <PUBCHEM_BOND_DEF_STEREO_COUNT>
0

> <PUBCHEM_BOND_UDEF_STEREO_COUNT>
0

> <PUBCHEM_ISOTOPIC_ATOM_COUNT>
0

> <PUBCHEM_COMPONENT_COUNT>
1

> <PUBCHEM_CACTVS_TAUTO_COUNT>
1

> <PUBCHEM_COORDINATE_TYPE>
1
5
255

> <PUBCHEM_BONDANNOTATIONS>
9  1  6
10  15  8
10  17  8
11  14  8
11  16  8
14  20  8
15  19  8
16  21  8
17  24  8
19  22  8
20  23  8
21  23  8
22  24  8
7  27  5
8  28  5

$$$$

