25137931
  -OEChem-07051213093D

 37 38  0     1  0  0  0  0  0999 V2000
   -3.2637   -1.0013    0.4762 O   0  0  0  0  0  0  0  0  0  0  0  0
   -4.6950    1.7150   -1.3793 O   0  0  0  0  0  0  0  0  0  0  0  0
   -5.8161   -0.7756   -1.0957 O   0  0  0  0  0  0  0  0  0  0  0  0
   -4.6697   -0.5919    2.3180 O   0  0  0  0  0  0  0  0  0  0  0  0
    0.6985    1.8534    0.3459 O   0  0  0  0  0  0  0  0  0  0  0  0
    6.7074   -0.2794    0.1222 O   0  0  0  0  0  0  0  0  0  0  0  0
    5.7573    1.7140    0.6613 O   0  0  0  0  0  0  0  0  0  0  0  0
   -3.1365    0.1059   -0.4336 C   0  0  1  0  0  0  0  0  0  0  0  0
   -4.3816    0.9541   -0.2322 C   0  0  2  0  0  0  0  0  0  0  0  0
   -5.4212   -0.0992    0.0937 C   0  0  2  0  0  0  0  0  0  0  0  0
   -4.6166   -1.0470    0.9712 C   0  0  1  0  0  0  0  0  0  0  0  0
   -1.8460    0.8547   -0.1514 C   0  0  0  0  0  0  0  0  0  0  0  0
   -0.6231   -0.0473   -0.3251 C   0  0  0  0  0  0  0  0  0  0  0  0
    0.6769    0.6780   -0.0124 C   0  0  0  0  0  0  0  0  0  0  0  0
    1.9637   -0.0664   -0.1484 C   0  0  0  0  0  0  0  0  0  0  0  0
    3.1721    0.5719    0.1312 C   0  0  0  0  0  0  0  0  0  0  0  0
    1.9574   -1.4005   -0.5552 C   0  0  0  0  0  0  0  0  0  0  0  0
    4.3741   -0.1241    0.0040 C   0  0  0  0  0  0  0  0  0  0  0  0
    3.1595   -2.0966   -0.6826 C   0  0  0  0  0  0  0  0  0  0  0  0
    4.3678   -1.4583   -0.4029 C   0  0  0  0  0  0  0  0  0  0  0  0
    5.6347    0.5406    0.2951 C   0  0  0  0  0  0  0  0  0  0  0  0
   -3.1047   -0.3000   -1.4529 H   0  0  0  0  0  0  0  0  0  0  0  0
   -4.2554    1.6331    0.6202 H   0  0  0  0  0  0  0  0  0  0  0  0
   -6.3110    0.3217    0.5712 H   0  0  0  0  0  0  0  0  0  0  0  0
   -4.9780   -2.0793    0.9223 H   0  0  0  0  0  0  0  0  0  0  0  0
   -1.7651    1.7262   -0.8124 H   0  0  0  0  0  0  0  0  0  0  0  0
   -1.8561    1.2316    0.8797 H   0  0  0  0  0  0  0  0  0  0  0  0
   -0.7031   -0.9054    0.3513 H   0  0  0  0  0  0  0  0  0  0  0  0
   -0.5880   -0.3986   -1.3624 H   0  0  0  0  0  0  0  0  0  0  0  0
   -5.5568    2.1371   -1.2225 H   0  0  0  0  0  0  0  0  0  0  0  0
   -6.4337   -1.4807   -0.8370 H   0  0  0  0  0  0  0  0  0  0  0  0
   -4.4543   -1.3520    2.8845 H   0  0  0  0  0  0  0  0  0  0  0  0
    3.1813    1.6119    0.4486 H   0  0  0  0  0  0  0  0  0  0  0  0
    1.0424   -1.9375   -0.7829 H   0  0  0  0  0  0  0  0  0  0  0  0
    3.1547   -3.1355   -0.9993 H   0  0  0  0  0  0  0  0  0  0  0  0
    5.2799   -2.0377   -0.5152 H   0  0  0  0  0  0  0  0  0  0  0  0
    7.5521    0.1778    0.3216 H   0  0  0  0  0  0  0  0  0  0  0  0
  1  8  1  0  0  0  0
  1 11  1  0  0  0  0
  2  9  1  0  0  0  0
  2 30  1  0  0  0  0
  3 10  1  0  0  0  0
  3 31  1  0  0  0  0
  4 11  1  0  0  0  0
  4 32  1  0  0  0  0
  5 14  2  0  0  0  0
  6 21  1  0  0  0  0
  6 37  1  0  0  0  0
  7 21  2  0  0  0  0
  8  9  1  0  0  0  0
  8 12  1  0  0  0  0
  8 22  1  0  0  0  0
  9 10  1  0  0  0  0
  9 23  1  0  0  0  0
 10 11  1  0  0  0  0
 10 24  1  0  0  0  0
 11 25  1  0  0  0  0
 12 13  1  0  0  0  0
 12 26  1  0  0  0  0
 12 27  1  0  0  0  0
 13 14  1  0  0  0  0
 13 28  1  0  0  0  0
 13 29  1  0  0  0  0
 14 15  1  0  0  0  0
 15 16  2  0  0  0  0
 15 17  1  0  0  0  0
 16 18  1  0  0  0  0
 16 33  1  0  0  0  0
 17 19  2  0  0  0  0
 17 34  1  0  0  0  0
 18 20  2  0  0  0  0
 18 21  1  0  0  0  0
 19 20  1  0  0  0  0
 19 35  1  0  0  0  0
 20 36  1  0  0  0  0
M  END
> <PUBCHEM_COMPOUND_CID>
25137931

> <PUBCHEM_CONFORMER_RMSD>
1

> <PUBCHEM_CONFORMER_DIVERSEORDER>
2
69
118
5
125
56
61
113
30
41
133
108
111
25
19
60
123
100
51
94
117
44
35
14
134
24
52
122
49
26
81
65
112
57
37
21
1
8
95
38
107
23
91
115
83
59
39
106
43
90
45
17
29
124
27
42
98
54
15
32
68
77
85
10
6
128
127
76
136
116
40
66
102
47
58
7
86
70
64
120
92
109
33
78
72
82
132
50
63
84
97
20
67
137
22
74
80
3
135
18
28
13
34
88
16
93
75
79
119
101
11
96
71
105
55
131
89
4
9
99
31
110
36
126
104
53
48
62
103
12
87
129
114
73
130
121
46

> <PUBCHEM_MMFF94_PARTIAL_CHARGES>
28
1 -0.56
10 0.28
11 0.56
13 0.06
14 0.42
15 0.09
16 -0.15
17 -0.15
18 0.09
19 -0.15
2 -0.68
20 -0.15
21 0.63
3 -0.68
30 0.4
31 0.4
32 0.4
33 0.15
34 0.15
35 0.15
36 0.15
37 0.5
4 -0.68
5 -0.57
6 -0.65
7 -0.57
8 0.28
9 0.28

> <PUBCHEM_EFFECTIVE_ROTOR_COUNT>
6

> <PUBCHEM_PHARMACOPHORE_FEATURES>
13
1 1 acceptor
1 2 acceptor
1 2 donor
1 3 acceptor
1 3 donor
1 4 acceptor
1 4 donor
1 5 acceptor
1 6 acceptor
1 7 acceptor
3 6 7 21 anion
5 1 8 9 10 11 rings
6 15 16 17 18 19 20 rings

> <PUBCHEM_HEAVY_ATOM_COUNT>
21

> <PUBCHEM_ATOM_DEF_STEREO_COUNT>
3

> <PUBCHEM_ATOM_UDEF_STEREO_COUNT>
1

> <PUBCHEM_BOND_DEF_STEREO_COUNT>
0

> <PUBCHEM_BOND_UDEF_STEREO_COUNT>
0

> <PUBCHEM_ISOTOPIC_ATOM_COUNT>
0

> <PUBCHEM_COMPONENT_COUNT>
1

> <PUBCHEM_CACTVS_TAUTO_COUNT>
2

> <PUBCHEM_CONFORMER_ID>
017F930B00000002

> <PUBCHEM_MMFF94_ENERGY>
56.9084

> <PUBCHEM_FEATURE_SELFOVERLAP>
66.076

> <PUBCHEM_SHAPE_FINGERPRINT>
10 15 18342465790580444624
10366900 7 16008755718499122879
10638233 991 16081374003643578448
10835480 77 18339369655234771285
10912923 1 16950565505857406479
11089746 13 16225770705382180298
11287383 113 18059853952636564132
11315181 36 17275383192776061605
11719270 70 18336836381146001514
12091667 2 18413109463508093821
12107183 9 17175162930673009763
12236239 1 17022618680305174635
12516196 113 18113902658317991553
12596602 18 16950561073546239195
12730499 353 18334290968862020454
13073987 5 18335415820395611089
13955234 65 18113622318209945538
1420 363 18411976971016342766
14251764 18 17822006515548582977
14386348 63 18341890801037029291
146900 427 17821729416853318968
14848160 23 18202281420317785234
15183329 4 9223238442282116894
16079462 125 18342751735679275956
17844677 252 18335134319169568276
18785283 64 18127687128617395644
19489759 90 17418375805133593813
200 152 17967255316828353645
20645477 70 18188492492069954830
21033650 10 16342005718788457940
21267235 1 18188204399513621542
21623969 137 18407754837565083110
220451 1 5400804968279613709
22224240 67 18260556589537311338
23402539 116 14405187261524630895
23557571 272 17775009024062827204
23559900 14 18271814480309314501
239999 70 18335415807838283174
26918003 58 18342174466388804833
33824 294 18409448124580361430
3545911 37 18335139791337269886
4073 2 18202277017802097315
4214541 1 18271806852262598821
42630746 31 18187082858829772886
4340502 62 17988928873240541642
5104073 3 18263925613091462568
5283173 99 18129667524751655196
542803 24 17489866046465120188
7495541 125 17346310458553284716

> <PUBCHEM_SHAPE_MULTIPOLES>
391.08
16.42
1.66
1.06
0.8
0.09
-0.35
0.01
-1.33
0.99
0.17
-1.69
0.11
1.53

> <PUBCHEM_SHAPE_SELFOVERLAP>
826.494

> <PUBCHEM_SHAPE_VOLUME>
217.9

> <PUBCHEM_COORDINATE_TYPE>
2
5
10

$$$$

