16181
  -OEChem-07051213053D

 37 36  0     0  0  0  0  0  0999 V2000
   -1.9717   -0.0256   -0.7325 S   0  0  0  0  0  0  0  0  0  0  0  0
   -1.1067    0.4551    1.6839 O   0  0  0  0  0  0  0  0  0  0  0  0
    0.5915   -0.0097    0.1292 N   0  0  0  0  0  0  0  0  0  0  0  0
    1.6870    0.6681    0.7678 C   0  0  0  0  0  0  0  0  0  0  0  0
    0.9498   -0.9127   -0.9732 C   0  0  0  0  0  0  0  0  0  0  0  0
    2.0043    2.0146    0.1076 C   0  0  0  0  0  0  0  0  0  0  0  0
    1.2191   -2.3427   -0.4915 C   0  0  0  0  0  0  0  0  0  0  0  0
    0.7924    2.9424    0.2007 C   0  0  0  0  0  0  0  0  0  0  0  0
    2.4186    1.8422   -1.3555 C   0  0  0  0  0  0  0  0  0  0  0  0
   -0.0355   -2.9193    0.1658 C   0  0  0  0  0  0  0  0  0  0  0  0
    2.3934   -2.3967    0.4883 C   0  0  0  0  0  0  0  0  0  0  0  0
   -0.7541    0.1820    0.5385 C   0  0  0  0  0  0  0  0  0  0  0  0
   -3.4897    0.2978    0.1913 C   0  0  0  0  0  0  0  0  0  0  0  0
   -4.6984    0.2046   -0.7205 C   0  0  0  0  0  0  0  0  0  0  0  0
    2.5940    0.0638    0.7672 H   0  0  0  0  0  0  0  0  0  0  0  0
    1.4236    0.8420    1.8182 H   0  0  0  0  0  0  0  0  0  0  0  0
    1.8561   -0.5638   -1.4697 H   0  0  0  0  0  0  0  0  0  0  0  0
    0.1844   -0.9355   -1.7510 H   0  0  0  0  0  0  0  0  0  0  0  0
    2.8371    2.4732    0.6550 H   0  0  0  0  0  0  0  0  0  0  0  0
    1.4701   -2.9561   -1.3657 H   0  0  0  0  0  0  0  0  0  0  0  0
    1.0752    3.9548   -0.1097 H   0  0  0  0  0  0  0  0  0  0  0  0
    0.4201    3.0099    1.2282 H   0  0  0  0  0  0  0  0  0  0  0  0
   -0.0283    2.6305   -0.4515 H   0  0  0  0  0  0  0  0  0  0  0  0
    1.5867    1.5410   -1.9992 H   0  0  0  0  0  0  0  0  0  0  0  0
    3.2448    1.1314   -1.4550 H   0  0  0  0  0  0  0  0  0  0  0  0
    2.7786    2.8011   -1.7474 H   0  0  0  0  0  0  0  0  0  0  0  0
    0.1286   -3.9751    0.4116 H   0  0  0  0  0  0  0  0  0  0  0  0
   -0.8929   -2.8823   -0.5126 H   0  0  0  0  0  0  0  0  0  0  0  0
   -0.2946   -2.4165    1.1020 H   0  0  0  0  0  0  0  0  0  0  0  0
    2.1532   -1.9546    1.4599 H   0  0  0  0  0  0  0  0  0  0  0  0
    3.2849   -1.9182    0.0709 H   0  0  0  0  0  0  0  0  0  0  0  0
    2.6580   -3.4428    0.6836 H   0  0  0  0  0  0  0  0  0  0  0  0
   -3.5848   -0.4314    1.0022 H   0  0  0  0  0  0  0  0  0  0  0  0
   -3.4421    1.2986    0.6325 H   0  0  0  0  0  0  0  0  0  0  0  0
   -4.6492    0.9402   -1.5307 H   0  0  0  0  0  0  0  0  0  0  0  0
   -4.7939   -0.7935   -1.1615 H   0  0  0  0  0  0  0  0  0  0  0  0
   -5.6119    0.4024   -0.1498 H   0  0  0  0  0  0  0  0  0  0  0  0
  1 12  1  0  0  0  0
  1 13  1  0  0  0  0
  2 12  2  0  0  0  0
  3  4  1  0  0  0  0
  3  5  1  0  0  0  0
  3 12  1  0  0  0  0
  4  6  1  0  0  0  0
  4 15  1  0  0  0  0
  4 16  1  0  0  0  0
  5  7  1  0  0  0  0
  5 17  1  0  0  0  0
  5 18  1  0  0  0  0
  6  8  1  0  0  0  0
  6  9  1  0  0  0  0
  6 19  1  0  0  0  0
  7 10  1  0  0  0  0
  7 11  1  0  0  0  0
  7 20  1  0  0  0  0
  8 21  1  0  0  0  0
  8 22  1  0  0  0  0
  8 23  1  0  0  0  0
  9 24  1  0  0  0  0
  9 25  1  0  0  0  0
  9 26  1  0  0  0  0
 10 27  1  0  0  0  0
 10 28  1  0  0  0  0
 10 29  1  0  0  0  0
 11 30  1  0  0  0  0
 11 31  1  0  0  0  0
 11 32  1  0  0  0  0
 13 14  1  0  0  0  0
 13 33  1  0  0  0  0
 13 34  1  0  0  0  0
 14 35  1  0  0  0  0
 14 36  1  0  0  0  0
 14 37  1  0  0  0  0
M  END
> <PUBCHEM_COMPOUND_CID>
16181

> <PUBCHEM_CONFORMER_RMSD>
0.8

> <PUBCHEM_CONFORMER_DIVERSEORDER>
1
8
12
11
6
4
15
16
2
7
9
3
5
10
13
14

> <PUBCHEM_MMFF94_PARTIAL_CHARGES>
7
1 -0.37
12 0.77
13 0.23
2 -0.57
3 -0.66
4 0.3
5 0.3

> <PUBCHEM_EFFECTIVE_ROTOR_COUNT>
7

> <PUBCHEM_PHARMACOPHORE_FEATURES>
3
1 14 hydrophobe
3 6 8 9 hydrophobe
3 7 10 11 hydrophobe

> <PUBCHEM_HEAVY_ATOM_COUNT>
14

> <PUBCHEM_ATOM_DEF_STEREO_COUNT>
0

> <PUBCHEM_ATOM_UDEF_STEREO_COUNT>
0

> <PUBCHEM_BOND_DEF_STEREO_COUNT>
0

> <PUBCHEM_BOND_UDEF_STEREO_COUNT>
0

> <PUBCHEM_ISOTOPIC_ATOM_COUNT>
0

> <PUBCHEM_COMPONENT_COUNT>
1

> <PUBCHEM_CACTVS_TAUTO_COUNT>
1

> <PUBCHEM_CONFORMER_ID>
00003F3500000001

> <PUBCHEM_MMFF94_ENERGY>
28.9763

> <PUBCHEM_FEATURE_SELFOVERLAP>
15.223

> <PUBCHEM_SHAPE_FINGERPRINT>
1 1 18339084787254514924
12716301 132 17468218646762884099
12730499 353 18340478964415477257
14251717 144 18410015463568008815
15775835 57 18127131866301772332
16945 1 17258501041887009790
17134986 127 18197495121495329980
18186145 218 18043521721039527393
19786989 88 18271538511279847365
20473742 2 18272939344538091454
20645476 183 17982727468308258036
20645477 70 18261961838370011303
20671657 1 18335423447999020455
20671657 53 18120095236955520111
20708731 107 18411419539795164709
20820808 20 18262522485730338233
21524375 3 18127699231454836133
22112679 90 17606379201942988872
2255824 54 18409165549780565887
23388829 49 18192141823055091122
23419403 2 17699878355581750406
23526113 38 17630317769203395179
23532345 88 18336839679326703869
23558518 356 17622452645108131898
23598291 2 17897429800219977793
25 1 18337663127357272837
257057 1 17834962249193417482
2748010 2 17903059050408632840
3060560 45 18336830779801473981
7364860 26 18410298033745341317
81228 2 17331110010756880322
81539 233 18343304725761442485

> <PUBCHEM_SHAPE_MULTIPOLES>
281.11
5.15
3.35
1.15
8.11
0.86
0.01
-1.09
-1.08
-3.25
-0.02
-0.1
-0.22
-0.35

> <PUBCHEM_SHAPE_SELFOVERLAP>
510.09

> <PUBCHEM_SHAPE_VOLUME>
182.5

> <PUBCHEM_COORDINATE_TYPE>
2
5
10

$$$$

