4013
  -OEChem-06251223492D

 86 91  0     1  0  0  0  0  0999 V2000
    7.1380   -1.0056    0.0000 O   0  0  0  0  0  0  0  0  0  0  0  0
    6.2894    0.5043    0.0000 O   0  0  0  0  0  0  0  0  0  0  0  0
    3.6972    1.0343    0.0000 O   0  0  0  0  0  0  0  0  0  0  0  0
    2.8486    2.5442    0.0000 O   0  0  0  0  0  0  0  0  0  0  0  0
    5.7237   -4.4290    0.0000 O   0  0  0  0  0  0  0  0  0  0  0  0
    5.4639    4.0141    0.0000 O   0  0  0  0  0  0  0  0  0  0  0  0
    8.8864   -1.0402    0.0000 O   0  0  0  0  0  0  0  0  0  0  0  0
    3.7435    5.0340    0.0000 O   0  0  0  0  0  0  0  0  0  0  0  0
    8.8864   -5.0402    0.0000 O   0  0  0  0  0  0  0  0  0  0  0  0
    4.7170   -2.7008    0.0000 O   0  0  0  0  0  0  0  0  0  0  0  0
   10.6348   -1.0056    0.0000 O   0  0  0  0  0  0  0  0  0  0  0  0
   10.6348   -5.0748    0.0000 O   0  0  0  0  0  0  0  0  0  0  0  0
   12.4720   -0.9626    0.0000 O   0  0  0  0  0  0  0  0  0  0  0  0
    3.6741   -0.9656    0.0000 N   0  0  0  0  0  0  0  0  0  0  0  0
    4.5574    0.5243    0.0000 C   0  0  3  0  0  0  0  0  0  0  0  0
    7.1264   -2.0056    0.0000 C   0  0  3  0  0  0  0  0  0  0  0  0
    4.5459   -0.4756    0.0000 C   0  0  3  0  0  0  0  0  0  0  0  0
    6.2204   -3.5610    0.0000 C   0  0  3  0  0  0  0  0  0  0  0  0
    6.2204   -2.5194    0.0000 C   0  0  0  0  0  0  0  0  0  0  0  0
    6.2778   -0.4956    0.0000 C   0  0  3  0  0  0  0  0  0  0  0  0
    5.4060   -0.9856    0.0000 C   0  0  0  0  0  0  0  0  0  0  0  0
    5.4292    1.0143    0.0000 C   0  0  3  0  0  0  0  0  0  0  0  0
    7.1264   -4.0749    0.0000 C   0  0  0  0  0  0  0  0  0  0  0  0
    8.0204   -2.5402    0.0000 C   0  0  0  0  0  0  0  0  0  0  0  0
    8.0204   -3.5402    0.0000 C   0  0  0  0  0  0  0  0  0  0  0  0
    3.7088    2.0342    0.0000 C   0  0  3  0  0  0  0  0  0  0  0  0
    4.5806    2.5242    0.0000 C   0  0  0  0  0  0  0  0  0  0  0  0
    4.5921    3.5241    0.0000 C   0  0  3  0  0  0  0  0  0  0  0  0
    8.8864   -2.0402    0.0000 C   0  0  0  0  0  0  0  0  0  0  0  0
    3.7319    4.0341    0.0000 C   0  0  3  0  0  0  0  0  0  0  0  0
    5.4407    2.0142    0.0000 C   0  0  0  0  0  0  0  0  0  0  0  0
    5.2204   -3.5649    0.0000 C   0  0  0  0  0  0  0  0  0  0  0  0
    2.8602    3.5442    0.0000 C   0  0  3  0  0  0  0  0  0  0  0  0
    8.8864   -4.0402    0.0000 C   0  0  0  0  0  0  0  0  0  0  0  0
    9.7524   -2.5402    0.0000 C   0  0  0  0  0  0  0  0  0  0  0  0
    9.7524   -3.5402    0.0000 C   0  0  0  0  0  0  0  0  0  0  0  0
    4.7237   -4.4328    0.0000 C   0  0  0  0  0  0  0  0  0  0  0  0
    2.0000    4.0541    0.0000 C   0  0  0  0  0  0  0  0  0  0  0  0
   10.6464   -2.0056    0.0000 C   0  0  0  0  0  0  0  0  0  0  0  0
   10.6464   -4.0749    0.0000 C   0  0  0  0  0  0  0  0  0  0  0  0
   11.5524   -2.5194    0.0000 C   0  0  0  0  0  0  0  0  0  0  0  0
   11.5524   -3.5610    0.0000 C   0  0  0  0  0  0  0  0  0  0  0  0
   12.4836   -1.9625    0.0000 C   0  0  0  0  0  0  0  0  0  0  0  0
   12.4836   -4.1180    0.0000 C   0  0  0  0  0  0  0  0  0  0  0  0
   13.4274   -2.4977    0.0000 C   0  0  0  0  0  0  0  0  0  0  0  0
   13.4274   -3.5827    0.0000 C   0  0  0  0  0  0  0  0  0  0  0  0
   13.3322   -0.4526    0.0000 C   0  0  0  0  0  0  0  0  0  0  0  0
    4.5673    1.3743    0.0000 H   0  0  0  0  0  0  0  0  0  0  0  0
    6.3944   -1.5735    0.0000 H   0  0  0  0  0  0  0  0  0  0  0  0
    4.5360   -1.3256    0.0000 H   0  0  0  0  0  0  0  0  0  0  0  0
    6.0113   -1.9357    0.0000 H   0  0  0  0  0  0  0  0  0  0  0  0
    5.6095   -2.6255    0.0000 H   0  0  0  0  0  0  0  0  0  0  0  0
    6.2680   -1.3456    0.0000 H   0  0  0  0  0  0  0  0  0  0  0  0
    5.0021   -1.4559    0.0000 H   0  0  0  0  0  0  0  0  0  0  0  0
    5.7991   -1.4651    0.0000 H   0  0  0  0  0  0  0  0  0  0  0  0
    6.1702    1.4307    0.0000 H   0  0  0  0  0  0  0  0  0  0  0  0
    6.7328   -4.5539    0.0000 H   0  0  0  0  0  0  0  0  0  0  0  0
    7.5310   -4.5447    0.0000 H   0  0  0  0  0  0  0  0  0  0  0  0
    4.4400    1.6007    0.0000 H   0  0  0  0  0  0  0  0  0  0  0  0
    4.7859    1.9392    0.0000 H   0  0  0  0  0  0  0  0  0  0  0  0
    5.1923    2.6248    0.0000 H   0  0  0  0  0  0  0  0  0  0  0  0
    5.3233    3.0906    0.0000 H   0  0  0  0  0  0  0  0  0  0  0  0
    4.4729    4.4506    0.0000 H   0  0  0  0  0  0  0  0  0  0  0  0
    6.0607    2.0070    0.0000 H   0  0  0  0  0  0  0  0  0  0  0  0
    5.4479    2.6342    0.0000 H   0  0  0  0  0  0  0  0  0  0  0  0
    4.8208    2.0214    0.0000 H   0  0  0  0  0  0  0  0  0  0  0  0
    2.1192    3.1277    0.0000 H   0  0  0  0  0  0  0  0  0  0  0  0
    3.1408   -0.6494    0.0000 H   0  0  0  0  0  0  0  0  0  0  0  0
    3.6670   -1.5855    0.0000 H   0  0  0  0  0  0  0  0  0  0  0  0
    6.0358   -4.9647    0.0000 H   0  0  0  0  0  0  0  0  0  0  0  0
    2.3162    4.5874    0.0000 H   0  0  0  0  0  0  0  0  0  0  0  0
    1.4667    4.3703    0.0000 H   0  0  0  0  0  0  0  0  0  0  0  0
    1.6838    3.5208    0.0000 H   0  0  0  0  0  0  0  0  0  0  0  0
    4.1856   -4.1249    0.0000 H   0  0  0  0  0  0  0  0  0  0  0  0
    4.4158   -4.9710    0.0000 H   0  0  0  0  0  0  0  0  0  0  0  0
    5.2618   -4.7408    0.0000 H   0  0  0  0  0  0  0  0  0  0  0  0
    5.4710    4.6340    0.0000 H   0  0  0  0  0  0  0  0  0  0  0  0
    9.4233   -0.7302    0.0000 H   0  0  0  0  0  0  0  0  0  0  0  0
    3.2102    5.3502    0.0000 H   0  0  0  0  0  0  0  0  0  0  0  0
    8.3495   -5.3502    0.0000 H   0  0  0  0  0  0  0  0  0  0  0  0
   12.4764   -4.7379    0.0000 H   0  0  0  0  0  0  0  0  0  0  0  0
   13.9631   -2.1856    0.0000 H   0  0  0  0  0  0  0  0  0  0  0  0
   13.9631   -3.8948    0.0000 H   0  0  0  0  0  0  0  0  0  0  0  0
   13.6484   -0.9859    0.0000 H   0  0  0  0  0  0  0  0  0  0  0  0
   13.8655   -0.1364    0.0000 H   0  0  0  0  0  0  0  0  0  0  0  0
   13.0160    0.0807    0.0000 H   0  0  0  0  0  0  0  0  0  0  0  0
  1 16  1  0  0  0  0
  1 20  1  0  0  0  0
  2 20  1  0  0  0  0
  2 22  1  0  0  0  0
  3 15  1  0  0  0  0
  3 26  1  0  0  0  0
  4 26  1  0  0  0  0
  4 33  1  0  0  0  0
  5 18  1  0  0  0  0
  5 70  1  0  0  0  0
  6 28  1  0  0  0  0
  6 77  1  0  0  0  0
  7 29  1  0  0  0  0
  7 78  1  0  0  0  0
  8 30  1  0  0  0  0
  8 79  1  0  0  0  0
  9 34  1  0  0  0  0
  9 80  1  0  0  0  0
 10 32  2  0  0  0  0
 11 39  2  0  0  0  0
 12 40  2  0  0  0  0
 13 43  1  0  0  0  0
 13 47  1  0  0  0  0
 14 17  1  0  0  0  0
 14 68  1  0  0  0  0
 14 69  1  0  0  0  0
 15 17  1  0  0  0  0
 15 22  1  0  0  0  0
 15 48  1  0  0  0  0
 16 19  1  0  0  0  0
 16 24  1  0  0  0  0
 16 49  1  0  0  0  0
 17 21  1  0  0  0  0
 17 50  1  0  0  0  0
 18 19  1  0  0  0  0
 18 23  1  0  0  0  0
 18 32  1  0  0  0  0
 19 51  1  0  0  0  0
 19 52  1  0  0  0  0
 20 21  1  0  0  0  0
 20 53  1  0  0  0  0
 21 54  1  0  0  0  0
 21 55  1  0  0  0  0
 22 31  1  0  0  0  0
 22 56  1  0  0  0  0
 23 25  1  0  0  0  0
 23 57  1  0  0  0  0
 23 58  1  0  0  0  0
 24 25  1  0  0  0  0
 24 29  2  0  0  0  0
 25 34  2  0  0  0  0
 26 27  1  0  0  0  0
 26 59  1  0  0  0  0
 27 28  1  0  0  0  0
 27 60  1  0  0  0  0
 27 61  1  0  0  0  0
 28 30  1  0  0  0  0
 28 62  1  0  0  0  0
 29 35  1  0  0  0  0
 30 33  1  0  0  0  0
 30 63  1  0  0  0  0
 31 64  1  0  0  0  0
 31 65  1  0  0  0  0
 31 66  1  0  0  0  0
 32 37  1  0  0  0  0
 33 38  1  0  0  0  0
 33 67  1  0  0  0  0
 34 36  1  0  0  0  0
 35 36  2  0  0  0  0
 35 39  1  0  0  0  0
 36 40  1  0  0  0  0
 37 74  1  0  0  0  0
 37 75  1  0  0  0  0
 37 76  1  0  0  0  0
 38 71  1  0  0  0  0
 38 72  1  0  0  0  0
 38 73  1  0  0  0  0
 39 41  1  0  0  0  0
 40 42  1  0  0  0  0
 41 42  2  0  0  0  0
 41 43  1  0  0  0  0
 42 44  1  0  0  0  0
 43 45  2  0  0  0  0
 44 46  2  0  0  0  0
 44 81  1  0  0  0  0
 45 46  1  0  0  0  0
 45 82  1  0  0  0  0
 46 83  1  0  0  0  0
 47 84  1  0  0  0  0
 47 85  1  0  0  0  0
 47 86  1  0  0  0  0
M  END
> <PUBCHEM_COMPOUND_CID>
4013

> <PUBCHEM_COMPOUND_CANONICALIZED>
1

> <PUBCHEM_CACTVS_COMPLEXITY>
1200

> <PUBCHEM_CACTVS_HBOND_ACCEPTOR>
14

> <PUBCHEM_CACTVS_HBOND_DONOR>
6

> <PUBCHEM_CACTVS_ROTATABLE_BOND>
6

> <PUBCHEM_CACTVS_SUBSKEYS>
AAADcfB+PAAAAAAAAAAAAAAAAAAAAAAAAAA0aMGCAAAAAADBQAAAHgAQCAAADHzxmAcyDoBABgCIAqBSAAICCAAkIAAIiIFGCMgfNzaGtRqjcWAn8BEPuYfL7PzOwQADAAAYAADCAAYQADAAAAAAAAAAAA==

> <PUBCHEM_IUPAC_OPENEYE_NAME>
9-acetyl-7-[4-amino-5-(4,5-dihydroxy-6-methyl-tetrahydropyran-2-yl)oxy-6-methyl-tetrahydropyran-2-yl]oxy-6,9,11-trihydroxy-4-methoxy-8,10-dihydro-7H-tetracene-5,12-dione

> <PUBCHEM_IUPAC_CAS_NAME>
9-acetyl-7-[[4-amino-5-[(4,5-dihydroxy-6-methyl-2-oxanyl)oxy]-6-methyl-2-oxanyl]oxy]-6,9,11-trihydroxy-4-methoxy-8,10-dihydro-7H-tetracene-5,12-dione

> <PUBCHEM_IUPAC_NAME>
9-acetyl-7-[4-amino-5-(4,5-dihydroxy-6-methyloxan-2-yl)oxy-6-methyloxan-2-yl]oxy-6,9,11-trihydroxy-4-methoxy-8,10-dihydro-7H-tetracene-5,12-dione

> <PUBCHEM_IUPAC_SYSTEMATIC_NAME>
7-[4-azanyl-6-methyl-5-[6-methyl-4,5-bis(oxidanyl)oxan-2-yl]oxy-oxan-2-yl]oxy-9-ethanoyl-4-methoxy-6,9,11-tris(oxidanyl)-8,10-dihydro-7H-tetracene-5,12-dione

> <PUBCHEM_IUPAC_TRADITIONAL_NAME>
9-acetyl-7-[4-amino-5-(4,5-dihydroxy-6-methyl-tetrahydropyran-2-yl)oxy-6-methyl-tetrahydropyran-2-yl]oxy-6,9,11-trihydroxy-4-methoxy-8,10-dihydro-7H-tetracene-5,12-quinone

> <PUBCHEM_IUPAC_INCHI>
InChI=1S/C33H39NO13/c1-12-27(37)18(36)9-22(44-12)47-32-13(2)45-21(8-17(32)34)46-20-11-33(42,14(3)35)10-16-24(20)31(41)26-25(29(16)39)28(38)15-6-5-7-19(43-4)23(15)30(26)40/h5-7,12-13,17-18,20-22,27,32,36-37,39,41-42H,8-11,34H2,1-4H3

> <PUBCHEM_IUPAC_INCHIKEY>
QTGKDZKONUUXOU-UHFFFAOYSA-N

> <PUBCHEM_XLOGP3>
1.7

> <PUBCHEM_EXACT_MASS>
657.24214

> <PUBCHEM_MOLECULAR_FORMULA>
C33H39NO13

> <PUBCHEM_MOLECULAR_WEIGHT>
657.66166

> <PUBCHEM_OPENEYE_CAN_SMILES>
CC1C(C(CC(O1)OC2C(OC(CC2N)OC3CC(CC4=C(C5=C(C(=C34)O)C(=O)C6=C(C5=O)C=CC=C6OC)O)(C(=O)C)O)C)O)O

> <PUBCHEM_OPENEYE_ISO_SMILES>
CC1C(C(CC(O1)OC2C(OC(CC2N)OC3CC(CC4=C(C5=C(C(=C34)O)C(=O)C6=C(C5=O)C=CC=C6OC)O)(C(=O)C)O)C)O)O

> <PUBCHEM_CACTVS_TPSA>
225

> <PUBCHEM_MONOISOTOPIC_WEIGHT>
657.24214

> <PUBCHEM_TOTAL_CHARGE>
0

> <PUBCHEM_HEAVY_ATOM_COUNT>
47

> <PUBCHEM_ATOM_DEF_STEREO_COUNT>
0

> <PUBCHEM_ATOM_UDEF_STEREO_COUNT>
10

> <PUBCHEM_BOND_DEF_STEREO_COUNT>
0

> <PUBCHEM_BOND_UDEF_STEREO_COUNT>
0

> <PUBCHEM_ISOTOPIC_ATOM_COUNT>
0

> <PUBCHEM_COMPONENT_COUNT>
1

> <PUBCHEM_CACTVS_TAUTO_COUNT>
54

> <PUBCHEM_COORDINATE_TYPE>
1
5
255

> <PUBCHEM_BONDANNOTATIONS>
15  48  3
16  49  3
17  50  3
18  32  3
20  53  3
22  56  3
24  25  8
24  29  8
25  34  8
26  59  3
28  62  3
29  35  8
30  63  3
33  67  3
34  36  8
35  36  8
41  42  8
41  43  8
42  44  8
43  45  8
44  46  8
45  46  8

$$$$

