23724710
  -OEChem-07051213153D

 52 51  0     1  0  0  0  0  0999 V2000
   -1.8924   -3.9865   -0.4731 O   0  0  0  0  0  0  0  0  0  0  0  0
   -3.2971   -3.7121   -0.7126 O   0  0  0  0  0  0  0  0  0  0  0  0
    9.1002    1.6483    0.0868 O   0  0  0  0  0  0  0  0  0  0  0  0
    7.2617    2.9854   -0.0078 O   0  0  0  0  0  0  0  0  0  0  0  0
    2.5057   -1.7437   -0.2132 C   0  0  0  0  0  0  0  0  0  0  0  0
    3.2483   -0.4065   -0.2117 C   0  0  0  0  0  0  0  0  0  0  0  0
    0.9924   -1.5395   -0.3127 C   0  0  0  0  0  0  0  0  0  0  0  0
    4.7632   -0.6111   -0.1455 C   0  0  0  0  0  0  0  0  0  0  0  0
    0.2520   -2.8822   -0.3547 C   0  0  0  0  0  0  0  0  0  0  0  0
    5.5030    0.7298   -0.1103 C   0  0  0  0  0  0  0  0  0  0  0  0
   -1.2732   -2.7001   -0.4102 C   0  0  2  0  0  0  0  0  0  0  0  0
    7.0189    0.5584   -0.0153 C   0  0  0  0  0  0  0  0  0  0  0  0
   -1.9127   -1.9375    0.7224 C   0  0  0  0  0  0  0  0  0  0  0  0
    7.7621    1.8714    0.0293 C   0  0  0  0  0  0  0  0  0  0  0  0
   -2.6626   -0.8285    0.6292 C   0  0  0  0  0  0  0  0  0  0  0  0
   -3.2301   -0.1633    1.7810 C   0  0  0  0  0  0  0  0  0  0  0  0
   -3.9804    0.9456    1.6930 C   0  0  0  0  0  0  0  0  0  0  0  0
   -4.3137    1.6179    0.3927 C   0  0  0  0  0  0  0  0  0  0  0  0
   -5.5930    1.0899   -0.1871 C   0  0  0  0  0  0  0  0  0  0  0  0
   -6.7147    1.7779   -0.4512 C   0  0  0  0  0  0  0  0  0  0  0  0
   -6.9590    3.2438   -0.2457 C   0  0  0  0  0  0  0  0  0  0  0  0
   -6.5787    4.0427   -1.4833 C   0  0  0  0  0  0  0  0  0  0  0  0
    2.7432   -2.2987    0.7025 H   0  0  0  0  0  0  0  0  0  0  0  0
    2.8491   -2.3521   -1.0587 H   0  0  0  0  0  0  0  0  0  0  0  0
    2.9192    0.1935    0.6454 H   0  0  0  0  0  0  0  0  0  0  0  0
    2.9948    0.1575   -1.1177 H   0  0  0  0  0  0  0  0  0  0  0  0
    0.7543   -0.9640   -1.2154 H   0  0  0  0  0  0  0  0  0  0  0  0
    0.6584   -0.9483    0.5477 H   0  0  0  0  0  0  0  0  0  0  0  0
    5.0966   -1.1918   -1.0140 H   0  0  0  0  0  0  0  0  0  0  0  0
    5.0171   -1.1915    0.7497 H   0  0  0  0  0  0  0  0  0  0  0  0
    0.5786   -3.4684   -1.2231 H   0  0  0  0  0  0  0  0  0  0  0  0
    0.5140   -3.4824    0.5265 H   0  0  0  0  0  0  0  0  0  0  0  0
    5.2568    1.3081   -1.0098 H   0  0  0  0  0  0  0  0  0  0  0  0
    5.1508    1.3203    0.7450 H   0  0  0  0  0  0  0  0  0  0  0  0
   -1.4974   -2.1902   -1.3578 H   0  0  0  0  0  0  0  0  0  0  0  0
    7.2673   -0.0010    0.8938 H   0  0  0  0  0  0  0  0  0  0  0  0
    7.3766   -0.0042   -0.8852 H   0  0  0  0  0  0  0  0  0  0  0  0
   -1.7252   -2.3555    1.7114 H   0  0  0  0  0  0  0  0  0  0  0  0
   -2.8447   -0.4371   -0.3652 H   0  0  0  0  0  0  0  0  0  0  0  0
   -3.0406   -0.5904    2.7621 H   0  0  0  0  0  0  0  0  0  0  0  0
   -3.6056   -3.9897    0.1669 H   0  0  0  0  0  0  0  0  0  0  0  0
   -4.3864    1.3794    2.6033 H   0  0  0  0  0  0  0  0  0  0  0  0
    9.6102    2.4861    0.1030 H   0  0  0  0  0  0  0  0  0  0  0  0
   -4.3802    2.6939    0.5897 H   0  0  0  0  0  0  0  0  0  0  0  0
   -3.5134    1.5320   -0.3488 H   0  0  0  0  0  0  0  0  0  0  0  0
   -5.5996    0.0291   -0.4352 H   0  0  0  0  0  0  0  0  0  0  0  0
   -7.5430    1.2260   -0.8929 H   0  0  0  0  0  0  0  0  0  0  0  0
   -6.4076    3.6182    0.6231 H   0  0  0  0  0  0  0  0  0  0  0  0
   -8.0210    3.3956   -0.0203 H   0  0  0  0  0  0  0  0  0  0  0  0
   -5.5121    3.9409   -1.7106 H   0  0  0  0  0  0  0  0  0  0  0  0
   -6.7895    5.1052   -1.3252 H   0  0  0  0  0  0  0  0  0  0  0  0
   -7.1476    3.7123   -2.3590 H   0  0  0  0  0  0  0  0  0  0  0  0
  1  2  1  0  0  0  0
  1 11  1  0  0  0  0
  2 41  1  0  0  0  0
  3 14  1  0  0  0  0
  3 43  1  0  0  0  0
  4 14  2  0  0  0  0
  5  6  1  0  0  0  0
  5  7  1  0  0  0  0
  5 23  1  0  0  0  0
  5 24  1  0  0  0  0
  6  8  1  0  0  0  0
  6 25  1  0  0  0  0
  6 26  1  0  0  0  0
  7  9  1  0  0  0  0
  7 27  1  0  0  0  0
  7 28  1  0  0  0  0
  8 10  1  0  0  0  0
  8 29  1  0  0  0  0
  8 30  1  0  0  0  0
  9 11  1  0  0  0  0
  9 31  1  0  0  0  0
  9 32  1  0  0  0  0
 10 12  1  0  0  0  0
 10 33  1  0  0  0  0
 10 34  1  0  0  0  0
 11 13  1  0  0  0  0
 11 35  1  0  0  0  0
 12 14  1  0  0  0  0
 12 36  1  0  0  0  0
 12 37  1  0  0  0  0
 13 15  2  0  0  0  0
 13 38  1  0  0  0  0
 15 16  1  0  0  0  0
 15 39  1  0  0  0  0
 16 17  2  0  0  0  0
 16 40  1  0  0  0  0
 17 18  1  0  0  0  0
 17 42  1  0  0  0  0
 18 19  1  0  0  0  0
 18 44  1  0  0  0  0
 18 45  1  0  0  0  0
 19 20  2  0  0  0  0
 19 46  1  0  0  0  0
 20 21  1  0  0  0  0
 20 47  1  0  0  0  0
 21 22  1  0  0  0  0
 21 48  1  0  0  0  0
 21 49  1  0  0  0  0
 22 50  1  0  0  0  0
 22 51  1  0  0  0  0
 22 52  1  0  0  0  0
M  END
> <PUBCHEM_COMPOUND_CID>
23724710

> <PUBCHEM_CONFORMER_RMSD>
1.2

> <PUBCHEM_CONFORMER_DIVERSEORDER>
1
126
78
81
164
200
156
179
272
356
216
124
308
240
331
316
318
306
65
152
6
187
149
376
369
130
167
129
103
193
22
112
115
360
275
118
393
134
399
77
96
207
208
138
395
378
250
333
192
2
204
175
237
143
50
288
61
85
119
18
95
286
45
23
125
148
150
169
144
79
72
223
334
363
135
189
184
104
121
51
73
319
402
403
68
226
154
221
31
279
269
57
225
76
139
172
181
391
232
165
342
153
55
296
163
69
206
385
388
177
34
261
99
251
249
191
390
205
389
303
54
309
367
101
368
36
351
337
122
159
39
245
140
280
326
371
198
329
339
98
52
33
26
27
219
86
111
256
8
190
109
344
46
145
142
188
123
324
162
359
196
202
83
13
24
301
93
40
400
268
53
320
75
117
293
375
160
94
185
64
235
168
49
264
59
382
285
214
15
353
387
227
277
146
155
213
278
247
384
113
310
12
60
197
262
266
263
343
295
229
212
14
259
347
43
170
37
17
270
110
276
321
336
137
195
7
82
10
346
48
67
158
383
394
215
330
62
274
66
404
186
341
25
84
89
357
70
44
91
230
203
253
335
42
345
20
133
157
392
380
182
90
210
248
323
131
217
116
114
267
180
194
63
35
58
374
234
265
127
80
243
4
201
315
100
107
254
252
312
299
239
21
88
370
108
322
302
379
289
364
92
298
325
74
377
32
220
313
178
398
5
106
19
350
260
244
396
281
3
273
340
11
166
222
348
241
328
224
41
314
28
209
291
290
218
174
349
386
287
305
401
151
97
29
183
231
317
307
147
257
120
71
173
300
211
354
284
128
30
171
16
228
141
352
199
87
9
397
338
366
105
132
242
56
236
361
47
238
283
381
161
258
176
311
297
136
292
304
294
355
271
233
102
373
362
38
282
358
365
246
255
327
332
372

> <PUBCHEM_MMFF94_PARTIAL_CHARGES>
23
1 -0.28
11 0.42
12 0.06
13 -0.29
14 0.66
15 -0.15
16 -0.15
17 -0.29
18 0.28
19 -0.29
2 -0.4
20 -0.29
21 0.14
3 -0.65
38 0.15
39 0.15
4 -0.57
40 0.15
41 0.4
42 0.15
43 0.5
46 0.15
47 0.15

> <PUBCHEM_EFFECTIVE_ROTOR_COUNT>
14

> <PUBCHEM_PHARMACOPHORE_FEATURES>
4
1 22 hydrophobe
1 3 acceptor
1 4 acceptor
3 3 4 14 anion

> <PUBCHEM_HEAVY_ATOM_COUNT>
22

> <PUBCHEM_ATOM_DEF_STEREO_COUNT>
1

> <PUBCHEM_ATOM_UDEF_STEREO_COUNT>
0

> <PUBCHEM_BOND_DEF_STEREO_COUNT>
3

> <PUBCHEM_BOND_UDEF_STEREO_COUNT>
0

> <PUBCHEM_ISOTOPIC_ATOM_COUNT>
0

> <PUBCHEM_COMPONENT_COUNT>
1

> <PUBCHEM_CACTVS_TAUTO_COUNT>
1

> <PUBCHEM_CONFORMER_ID>
016A02A600000001

> <PUBCHEM_MMFF94_ENERGY>
14.512

> <PUBCHEM_FEATURE_SELFOVERLAP>
20.354

> <PUBCHEM_SHAPE_FINGERPRINT>
10740516 88 6987734538041872589
11135609 127 17910122644630461189
11211813 15 18408887356269808161
14251764 30 8574130753772142693
14420673 8 8574419929889238333
14428016 167 9727051141625111841
14931854 50 17676485098501787160
15350500 55 18202002165623129196
15685185 35 18114452440577333217
15803439 3 16732706068601215823
16120349 189 18412263960488488095
1768 4 18336254731041916417
19246450 95 12175628425756278405
19427546 20 18261673654043032351
195137 95 18272937162953485964
21585482 111 18338514128922350968
21585483 132 6410199468768659404
22765269 38 18341329011209925235
270888 7 18411701014666581507
2748736 6 18408603694943610944
393628 179 18187093857925332432
393628 194 18261099812084483385
5283384 27 18272091638653813413
5372103 7 18340209708420958853
6327066 14 18409449210673895679
636775 8 9151176476553460024

> <PUBCHEM_SHAPE_MULTIPOLES>
429.27
25.19
5.11
1.11
36.47
1.25
-0.34
-37.93
2.43
-5.38
1.99
-1.94
-0.22
1.92

> <PUBCHEM_SHAPE_SELFOVERLAP>
808.007

> <PUBCHEM_SHAPE_VOLUME>
265.1

> <PUBCHEM_COORDINATE_TYPE>
2
5
10

$$$$

