91683
  -OEChem-07051213013D

 34 36  0     1  0  0  0  0  0999 V2000
    0.9418    2.5792    1.5801 Cl  0  0  0  0  0  0  0  0  0  0  0  0
    5.1603   -0.6638   -0.7454 F   0  0  0  0  0  0  0  0  0  0  0  0
   -0.3485    0.0528    2.0362 O   0  0  0  0  0  0  0  0  0  0  0  0
   -1.6310   -3.1158   -1.1714 N   0  0  0  0  0  0  0  0  0  0  0  0
   -3.0732   -2.5846    0.6848 N   0  0  0  0  0  0  0  0  0  0  0  0
   -0.2702   -0.0734    0.5796 C   0  0  2  0  0  0  0  0  0  0  0  0
    1.1708   -0.2299    0.2285 C   0  0  0  0  0  0  0  0  0  0  0  0
   -0.9074    1.2619    0.0683 C   0  0  0  0  0  0  0  0  0  0  0  0
   -1.1846   -1.2930    0.2179 C   0  0  0  0  0  0  0  0  0  0  0  0
    1.6721    0.3527   -0.9356 C   0  0  0  0  0  0  0  0  0  0  0  0
    2.0171   -0.9595    1.0634 C   0  0  0  0  0  0  0  0  0  0  0  0
   -0.3927    2.4458    0.4935 C   0  0  0  0  0  0  0  0  0  0  0  0
   -1.9596    1.1257   -0.7870 C   0  0  0  0  0  0  0  0  0  0  0  0
   -0.8660   -2.0575   -0.8319 C   0  0  0  0  0  0  0  0  0  0  0  0
   -2.2639   -1.5428    0.9672 C   0  0  0  0  0  0  0  0  0  0  0  0
    3.0196    0.2055   -1.2649 C   0  0  0  0  0  0  0  0  0  0  0  0
    3.3646   -1.1064    0.7343 C   0  0  0  0  0  0  0  0  0  0  0  0
   -0.9879    3.6140    0.0176 C   0  0  0  0  0  0  0  0  0  0  0  0
   -2.5549    2.2939   -1.2628 C   0  0  0  0  0  0  0  0  0  0  0  0
    3.8658   -0.5241   -0.4299 C   0  0  0  0  0  0  0  0  0  0  0  0
   -2.0692    3.5380   -0.8604 C   0  0  0  0  0  0  0  0  0  0  0  0
   -2.7031   -3.3186   -0.3819 C   0  0  0  0  0  0  0  0  0  0  0  0
    1.0419    0.9041   -1.6270 H   0  0  0  0  0  0  0  0  0  0  0  0
    1.6509   -1.4398    1.9667 H   0  0  0  0  0  0  0  0  0  0  0  0
   -2.3741    0.2049   -1.1713 H   0  0  0  0  0  0  0  0  0  0  0  0
    0.4366    0.5217    2.3658 H   0  0  0  0  0  0  0  0  0  0  0  0
   -0.0171   -1.8997   -1.4829 H   0  0  0  0  0  0  0  0  0  0  0  0
   -2.5754   -0.9501    1.8180 H   0  0  0  0  0  0  0  0  0  0  0  0
    3.4092    0.6538   -2.1740 H   0  0  0  0  0  0  0  0  0  0  0  0
    4.0231   -1.6775    1.3821 H   0  0  0  0  0  0  0  0  0  0  0  0
   -0.6212    4.5913    0.3210 H   0  0  0  0  0  0  0  0  0  0  0  0
   -3.3921    2.2365   -1.9525 H   0  0  0  0  0  0  0  0  0  0  0  0
   -2.5318    4.4475   -1.2325 H   0  0  0  0  0  0  0  0  0  0  0  0
   -3.3353   -4.1618   -0.6317 H   0  0  0  0  0  0  0  0  0  0  0  0
  1 12  1  0  0  0  0
  2 20  1  0  0  0  0
  3  6  1  0  0  0  0
  3 26  1  0  0  0  0
  4 14  2  0  0  0  0
  4 22  1  0  0  0  0
  5 15  1  0  0  0  0
  5 22  2  0  0  0  0
  6  7  1  0  0  0  0
  6  8  1  0  0  0  0
  6  9  1  0  0  0  0
  7 10  2  0  0  0  0
  7 11  1  0  0  0  0
  8 12  1  0  0  0  0
  8 13  2  0  0  0  0
  9 14  1  0  0  0  0
  9 15  2  0  0  0  0
 10 16  1  0  0  0  0
 10 23  1  0  0  0  0
 11 17  2  0  0  0  0
 11 24  1  0  0  0  0
 12 18  2  0  0  0  0
 13 19  1  0  0  0  0
 13 25  1  0  0  0  0
 14 27  1  0  0  0  0
 15 28  1  0  0  0  0
 16 20  2  0  0  0  0
 16 29  1  0  0  0  0
 17 20  1  0  0  0  0
 17 30  1  0  0  0  0
 18 21  1  0  0  0  0
 18 31  1  0  0  0  0
 19 21  2  0  0  0  0
 19 32  1  0  0  0  0
 21 33  1  0  0  0  0
 22 34  1  0  0  0  0
M  END
> <PUBCHEM_COMPOUND_CID>
91683

> <PUBCHEM_CONFORMER_RMSD>
0.6

> <PUBCHEM_CONFORMER_DIVERSEORDER>
1
10
7
11
4
12
8
2
9
6
3
5

> <PUBCHEM_MMFF94_PARTIAL_CHARGES>
34
1 -0.18
10 -0.15
11 -0.15
12 0.18
13 -0.15
14 0.16
15 0.16
16 -0.15
17 -0.15
18 -0.15
19 -0.15
2 -0.19
20 0.19
21 -0.15
22 0.47
23 0.15
24 0.15
25 0.15
26 0.4
27 0.15
28 0.15
29 0.15
3 -0.68
30 0.15
31 0.15
32 0.15
33 0.15
34 0.15
4 -0.62
5 -0.62
6 0.71
7 -0.14
8 -0.14
9 -0.14

> <PUBCHEM_EFFECTIVE_ROTOR_COUNT>
3

> <PUBCHEM_PHARMACOPHORE_FEATURES>
7
1 3 acceptor
1 3 donor
1 4 acceptor
3 4 5 22 cation
6 4 5 9 14 15 22 rings
6 7 10 11 16 17 20 rings
6 8 12 13 18 19 21 rings

> <PUBCHEM_HEAVY_ATOM_COUNT>
22

> <PUBCHEM_ATOM_DEF_STEREO_COUNT>
0

> <PUBCHEM_ATOM_UDEF_STEREO_COUNT>
1

> <PUBCHEM_BOND_DEF_STEREO_COUNT>
0

> <PUBCHEM_BOND_UDEF_STEREO_COUNT>
0

> <PUBCHEM_ISOTOPIC_ATOM_COUNT>
0

> <PUBCHEM_COMPONENT_COUNT>
1

> <PUBCHEM_CACTVS_TAUTO_COUNT>
1

> <PUBCHEM_CONFORMER_ID>
0001662300000001

> <PUBCHEM_MMFF94_ENERGY>
89.1994

> <PUBCHEM_FEATURE_SELFOVERLAP>
35.52

> <PUBCHEM_SHAPE_FINGERPRINT>
10764073 3 15004379475944867258
11578080 2 18114749209241390857
11640471 11 17773304841628141524
11833330 49 18341900653591844557
12035758 1 18335141986239612481
12054548 360 18339359639323135285
121448 382 17973178492898572049
12553582 1 18267587914045649610
12643181 29 17833820948653203958
12714826 92 18408317778954846194
12788726 201 18272937132566838555
13140716 1 18337677420918607553
13149001 5 18263387874058621533
133893 2 17471841516413064995
13583140 156 17822875164237144146
13681431 1 17834395618505621675
14790565 3 18265607857250872329
14863182 85 17183386183049161709
15490181 8 17690276436073198883
15906896 17 18201430445451770235
16752209 62 18339935903638387319
16945 1 18271245039916315713
17492 54 18129671927462230149
1813 80 18047449171915239223
20600515 1 17824799209883274767
20602899 9 17898571135848937514
20645476 183 18198346362559354276
20691752 17 17981049613189725634
20905425 154 18192150404442583404
21330990 113 17901632124965661443
21524375 3 17842555429282028660
22112679 90 18120909781507672666
22182313 1 18122081814022290429
2255824 54 17472976203522301999
22907989 373 18338220652772131724
23419403 2 17604446080102189600
23557571 272 18262533519648911016
23559900 14 18189906486515930274
23598288 3 18271809085266005754
25222932 49 15739472165556889045
2748010 2 18192170212499053185
298252 57 18055920045776439912
3091708 16 9204214679012993801
352729 6 17977950416376005747
394222 165 17340411823214565920
4409770 3 18410856607053540543
474 4 17405428183411344113
497634 4 17461124774715165036
6138700 20 16751848858342053790
7164475 11 18341886373411018278
7364860 26 17467344522186738131
81228 2 18338806623887318387
9981440 41 17834118923922704456

> <PUBCHEM_SHAPE_MULTIPOLES>
431.51
5.49
4.48
1.42
7.14
0.2
0.25
-1.41
-1.62
-5.62
-0.37
0.14
0.21
0.6

> <PUBCHEM_SHAPE_SELFOVERLAP>
952.905

> <PUBCHEM_SHAPE_VOLUME>
232.3

> <PUBCHEM_COORDINATE_TYPE>
2
5
10

$$$$

