225742
  -OEChem-07051213073D

 58 61  0     1  0  0  0  0  0999 V2000
   -5.4469    0.8037   -0.4673 O   0  0  0  0  0  0  0  0  0  0  0  0
    5.3931    0.8096   -0.6897 O   0  0  0  0  0  0  0  0  0  0  0  0
   -3.0059    0.4902   -0.2173 C   0  0  1  0  0  0  0  0  0  0  0  0
   -2.2107   -0.7742    0.1633 C   0  0  2  0  0  0  0  0  0  0  0  0
   -0.7384   -0.7186   -0.2643 C   0  0  1  0  0  0  0  0  0  0  0  0
   -0.0485    0.5206    0.3744 C   0  0  1  0  0  0  0  0  0  0  0  0
   -4.4410    0.0725    0.2301 C   0  0  2  0  0  0  0  0  0  0  0  0
    1.4647    0.6315   -0.0798 C   0  0  2  0  0  0  0  0  0  0  0  0
   -2.3633    1.6752    0.5214 C   0  0  0  0  0  0  0  0  0  0  0  0
   -0.8716    1.8239    0.1717 C   0  0  0  0  0  0  0  0  0  0  0  0
   -3.0737   -1.9145   -0.3665 C   0  0  0  0  0  0  0  0  0  0  0  0
   -4.5211   -1.4208   -0.1850 C   0  0  0  0  0  0  0  0  0  0  0  0
   -0.0043   -1.9997    0.1454 C   0  0  0  0  0  0  0  0  0  0  0  0
    2.1839   -0.7229    0.0475 C   0  0  0  0  0  0  0  0  0  0  0  0
   -3.0048    0.7855   -1.7453 C   0  0  0  0  0  0  0  0  0  0  0  0
    2.1873    1.6188    0.8687 C   0  0  0  0  0  0  0  0  0  0  0  0
    1.4848   -1.8721    0.1546 C   0  0  0  0  0  0  0  0  0  0  0  0
    3.7203   -0.7475    0.1319 C   0  0  0  0  0  0  0  0  0  0  0  0
   -4.7433    0.2286    1.7257 C   0  0  0  0  0  0  0  0  0  0  0  0
    1.5627    1.1169   -1.5471 C   0  0  0  0  0  0  0  0  0  0  0  0
    3.6523    1.8483    0.5330 C   0  0  0  0  0  0  0  0  0  0  0  0
    4.3272    0.6491   -0.0878 C   0  0  0  0  0  0  0  0  0  0  0  0
    4.3066   -1.6924   -0.9414 C   0  0  0  0  0  0  0  0  0  0  0  0
    4.1905   -1.2113    1.5238 C   0  0  0  0  0  0  0  0  0  0  0  0
   -2.2076   -0.8716    1.2599 H   0  0  0  0  0  0  0  0  0  0  0  0
   -0.6871   -0.6477   -1.3561 H   0  0  0  0  0  0  0  0  0  0  0  0
   -0.0444    0.3434    1.4624 H   0  0  0  0  0  0  0  0  0  0  0  0
   -2.4358    1.5418    1.6073 H   0  0  0  0  0  0  0  0  0  0  0  0
   -2.8921    2.6064    0.2857 H   0  0  0  0  0  0  0  0  0  0  0  0
   -0.7865    2.1799   -0.8588 H   0  0  0  0  0  0  0  0  0  0  0  0
   -0.4644    2.6220    0.8019 H   0  0  0  0  0  0  0  0  0  0  0  0
   -2.9004   -2.8465    0.1815 H   0  0  0  0  0  0  0  0  0  0  0  0
   -2.8698   -2.1126   -1.4248 H   0  0  0  0  0  0  0  0  0  0  0  0
   -5.0832   -1.5694   -1.1144 H   0  0  0  0  0  0  0  0  0  0  0  0
   -5.0277   -2.0216    0.5796 H   0  0  0  0  0  0  0  0  0  0  0  0
   -0.2845   -2.8094   -0.5393 H   0  0  0  0  0  0  0  0  0  0  0  0
   -0.3151   -2.3155    1.1493 H   0  0  0  0  0  0  0  0  0  0  0  0
   -3.5407    1.7178   -1.9585 H   0  0  0  0  0  0  0  0  0  0  0  0
   -1.9989    0.9032   -2.1562 H   0  0  0  0  0  0  0  0  0  0  0  0
   -3.4837   -0.0085   -2.3272 H   0  0  0  0  0  0  0  0  0  0  0  0
    2.1196    1.2473    1.9008 H   0  0  0  0  0  0  0  0  0  0  0  0
    1.6942    2.5971    0.8739 H   0  0  0  0  0  0  0  0  0  0  0  0
    2.0133   -2.8122    0.2915 H   0  0  0  0  0  0  0  0  0  0  0  0
   -4.0415   -0.3164    2.3626 H   0  0  0  0  0  0  0  0  0  0  0  0
   -4.7363    1.2848    2.0167 H   0  0  0  0  0  0  0  0  0  0  0  0
   -5.7535   -0.1346    1.9501 H   0  0  0  0  0  0  0  0  0  0  0  0
    1.2734    2.1691   -1.6392 H   0  0  0  0  0  0  0  0  0  0  0  0
    2.5748    1.0370   -1.9563 H   0  0  0  0  0  0  0  0  0  0  0  0
    0.9212    0.5335   -2.2148 H   0  0  0  0  0  0  0  0  0  0  0  0
    4.2042    2.1341    1.4345 H   0  0  0  0  0  0  0  0  0  0  0  0
    3.7308    2.6730   -0.1856 H   0  0  0  0  0  0  0  0  0  0  0  0
   -5.4764    0.5106   -1.3927 H   0  0  0  0  0  0  0  0  0  0  0  0
    4.0068   -1.3780   -1.9483 H   0  0  0  0  0  0  0  0  0  0  0  0
    5.4030   -1.6979   -0.9155 H   0  0  0  0  0  0  0  0  0  0  0  0
    3.9868   -2.7307   -0.8039 H   0  0  0  0  0  0  0  0  0  0  0  0
    3.9142   -2.2527    1.7228 H   0  0  0  0  0  0  0  0  0  0  0  0
    5.2809   -1.1386    1.6156 H   0  0  0  0  0  0  0  0  0  0  0  0
    3.7602   -0.5949    2.3215 H   0  0  0  0  0  0  0  0  0  0  0  0
  1  7  1  0  0  0  0
  1 52  1  0  0  0  0
  2 22  2  0  0  0  0
  3  4  1  0  0  0  0
  3  7  1  0  0  0  0
  3  9  1  0  0  0  0
  3 15  1  0  0  0  0
  4  5  1  0  0  0  0
  4 11  1  0  0  0  0
  4 25  1  0  0  0  0
  5  6  1  0  0  0  0
  5 13  1  0  0  0  0
  5 26  1  0  0  0  0
  6  8  1  0  0  0  0
  6 10  1  0  0  0  0
  6 27  1  0  0  0  0
  7 12  1  0  0  0  0
  7 19  1  0  0  0  0
  8 14  1  0  0  0  0
  8 16  1  0  0  0  0
  8 20  1  0  0  0  0
  9 10  1  0  0  0  0
  9 28  1  0  0  0  0
  9 29  1  0  0  0  0
 10 30  1  0  0  0  0
 10 31  1  0  0  0  0
 11 12  1  0  0  0  0
 11 32  1  0  0  0  0
 11 33  1  0  0  0  0
 12 34  1  0  0  0  0
 12 35  1  0  0  0  0
 13 17  1  0  0  0  0
 13 36  1  0  0  0  0
 13 37  1  0  0  0  0
 14 17  2  0  0  0  0
 14 18  1  0  0  0  0
 15 38  1  0  0  0  0
 15 39  1  0  0  0  0
 15 40  1  0  0  0  0
 16 21  1  0  0  0  0
 16 41  1  0  0  0  0
 16 42  1  0  0  0  0
 17 43  1  0  0  0  0
 18 22  1  0  0  0  0
 18 23  1  0  0  0  0
 18 24  1  0  0  0  0
 19 44  1  0  0  0  0
 19 45  1  0  0  0  0
 19 46  1  0  0  0  0
 20 47  1  0  0  0  0
 20 48  1  0  0  0  0
 20 49  1  0  0  0  0
 21 22  1  0  0  0  0
 21 50  1  0  0  0  0
 21 51  1  0  0  0  0
 23 53  1  0  0  0  0
 23 54  1  0  0  0  0
 23 55  1  0  0  0  0
 24 56  1  0  0  0  0
 24 57  1  0  0  0  0
 24 58  1  0  0  0  0
M  END
> <PUBCHEM_COMPOUND_CID>
225742

> <PUBCHEM_CONFORMER_RMSD>
0.6

> <PUBCHEM_CONFORMER_DIVERSEORDER>
2
1

> <PUBCHEM_MMFF94_PARTIAL_CHARGES>
12
1 -0.68
13 0.14
14 -0.28
17 -0.29
18 0.2
2 -0.57
21 0.06
22 0.45
43 0.15
52 0.4
7 0.28
8 0.14

> <PUBCHEM_EFFECTIVE_ROTOR_COUNT>
1.8

> <PUBCHEM_PHARMACOPHORE_FEATURES>
8
1 1 acceptor
1 1 donor
1 2 acceptor
3 18 23 24 hydrophobe
5 3 4 7 11 12 rings
6 3 4 5 6 9 10 rings
6 5 6 8 13 14 17 rings
6 8 14 16 18 21 22 rings

> <PUBCHEM_HEAVY_ATOM_COUNT>
24

> <PUBCHEM_ATOM_DEF_STEREO_COUNT>
6

> <PUBCHEM_ATOM_UDEF_STEREO_COUNT>
0

> <PUBCHEM_BOND_DEF_STEREO_COUNT>
0

> <PUBCHEM_BOND_UDEF_STEREO_COUNT>
0

> <PUBCHEM_ISOTOPIC_ATOM_COUNT>
0

> <PUBCHEM_COMPONENT_COUNT>
1

> <PUBCHEM_CACTVS_TAUTO_COUNT>
2

> <PUBCHEM_CONFORMER_ID>
000371CE00000002

> <PUBCHEM_MMFF94_ENERGY>
94.7153

> <PUBCHEM_FEATURE_SELFOVERLAP>
40.684

> <PUBCHEM_SHAPE_FINGERPRINT>
10062212 137 18410581656311682143
11552529 35 17532094882506550007
12011746 2 18408598154941915356
12107183 9 17832703856588842978
12236239 1 18202282494170171020
12403259 226 18410580621256251292
12403259 415 18341899588466556380
12403814 3 17989208144830132765
12633257 1 18333454256843612002
12788726 201 18334852861657603016
128620 24 17489870435884799153
13140716 1 18410297969104996090
13224815 77 18411419505319381611
13675066 3 18201718431793911313
14341114 176 18343576356572948779
14341114 328 18260264148749347785
14787075 74 18338519633835099738
14790565 3 18336539426352535376
14866123 147 16600392205615449562
15196674 1 18409731742328631571
15209289 33 18407759227047812627
15238133 3 16660915681932603025
15536298 74 18334859407081798706
15788980 27 18343302565535167849
1601671 61 18408039607176997918
16945 1 18265341779256209322
17349148 13 18343865523830694906
17492 89 18408886213529419654
1813 80 17418095399192504637
18186145 218 18412268332754587334
19591789 44 18408886260815679590
200 152 18334300855580992527
20028762 73 18187373120434852591
20645477 70 18409166636644675022
20691752 17 17632306639925353466
21033648 29 18271540744193985597
21267235 1 18409158935209169986
221357 26 18259984898565975652
22393880 68 18271250529048017974
23402539 116 18260834765098138253
23557571 272 17822846481596163279
23559900 14 18260829281026294156
2871803 45 18412266163616663725
296302 2 18335701615581900664
3004659 81 18342175601030564054
335352 9 18336547213085739951
34797466 226 15792013316305249537
34934 24 18410296930397818483
350125 39 18411416228243867757
3545911 37 18411417293432355725
3633792 109 18261961868698532669
3680242 22 18339363083923889042
4214541 1 18408604777264683265
474 4 17988920033659470628
5104073 3 18409450254419664091
542803 24 18411135831308833385
633830 44 17895196567238689772
7495541 125 15123216694203198444
9709674 26 18337105679299350534

> <PUBCHEM_SHAPE_MULTIPOLES>
482.17
10.95
2.15
1.21
1.41
0.27
-0.04
0.25
0.51
-0.64
0.06
0.17
-0.16
-0.09

> <PUBCHEM_SHAPE_SELFOVERLAP>
1032.247

> <PUBCHEM_SHAPE_VOLUME>
267.3

> <PUBCHEM_COORDINATE_TYPE>
2
5
10

$$$$

