5284476
  -OEChem-07051213052D

 26 28  0     0  0  0  0  0  0999 V2000
    4.5274    1.3255    0.0000 N   0  0  0  0  0  0  0  0  0  0  0  0
    6.7328   -0.7894    0.0000 N   0  0  0  0  0  0  0  0  0  0  0  0
    8.0321    0.4130    0.0000 N   0  0  0  0  0  0  0  0  0  0  0  0
    5.0274   -0.2133    0.0000 C   0  0  0  0  0  0  0  0  0  0  0  0
    4.0274   -0.2133    0.0000 C   0  0  0  0  0  0  0  0  0  0  0  0
    5.3364    0.7377    0.0000 C   0  0  0  0  0  0  0  0  0  0  0  0
    3.7183    0.7377    0.0000 C   0  0  0  0  0  0  0  0  0  0  0  0
    5.7123   -0.9981    0.0000 C   0  0  0  0  0  0  0  0  0  0  0  0
    6.3518    0.9700    0.0000 C   0  0  0  0  0  0  0  0  0  0  0  0
    3.3424   -0.9981    0.0000 C   0  0  0  0  0  0  0  0  0  0  0  0
    2.7029    0.9700    0.0000 C   0  0  0  0  0  0  0  0  0  0  0  0
    7.0547    0.2013    0.0000 C   0  0  0  0  0  0  0  0  0  0  0  0
    5.3923   -1.9455    0.0000 C   0  0  0  0  0  0  0  0  0  0  0  0
    2.3219   -0.7894    0.0000 C   0  0  0  0  0  0  0  0  0  0  0  0
    2.0000    0.2013    0.0000 C   0  0  0  0  0  0  0  0  0  0  0  0
    4.5274    1.9455    0.0000 H   0  0  0  0  0  0  0  0  0  0  0  0
    6.5365    1.5618    0.0000 H   0  0  0  0  0  0  0  0  0  0  0  0
    3.5408   -1.5855    0.0000 H   0  0  0  0  0  0  0  0  0  0  0  0
    2.5182    1.5618    0.0000 H   0  0  0  0  0  0  0  0  0  0  0  0
    4.8049   -1.7471    0.0000 H   0  0  0  0  0  0  0  0  0  0  0  0
    5.1939   -2.5329    0.0000 H   0  0  0  0  0  0  0  0  0  0  0  0
    5.9797   -2.1439    0.0000 H   0  0  0  0  0  0  0  0  0  0  0  0
    1.9088   -1.2517    0.0000 H   0  0  0  0  0  0  0  0  0  0  0  0
    1.3940    0.3325    0.0000 H   0  0  0  0  0  0  0  0  0  0  0  0
    8.4487   -0.0462    0.0000 H   0  0  0  0  0  0  0  0  0  0  0  0
    8.2214    1.0034    0.0000 H   0  0  0  0  0  0  0  0  0  0  0  0
  1  6  1  0  0  0  0
  1  7  1  0  0  0  0
  1 16  1  0  0  0  0
  2  8  1  0  0  0  0
  2 12  2  0  0  0  0
  3 12  1  0  0  0  0
  3 25  1  0  0  0  0
  3 26  1  0  0  0  0
  4  5  1  0  0  0  0
  4  6  1  0  0  0  0
  4  8  2  0  0  0  0
  5  7  1  0  0  0  0
  5 10  2  0  0  0  0
  6  9  2  0  0  0  0
  7 11  2  0  0  0  0
  8 13  1  0  0  0  0
  9 12  1  0  0  0  0
  9 17  1  0  0  0  0
 10 14  1  0  0  0  0
 10 18  1  0  0  0  0
 11 15  1  0  0  0  0
 11 19  1  0  0  0  0
 13 20  1  0  0  0  0
 13 21  1  0  0  0  0
 13 22  1  0  0  0  0
 14 15  2  0  0  0  0
 14 23  1  0  0  0  0
 15 24  1  0  0  0  0
M  END
> <PUBCHEM_COMPOUND_CID>
5284476

> <PUBCHEM_COMPOUND_CANONICALIZED>
1

> <PUBCHEM_CACTVS_COMPLEXITY>
243

> <PUBCHEM_CACTVS_HBOND_ACCEPTOR>
2

> <PUBCHEM_CACTVS_HBOND_DONOR>
2

> <PUBCHEM_CACTVS_ROTATABLE_BOND>
0

> <PUBCHEM_CACTVS_SUBSKEYS>
AAADccBzAAAAAAAAAAAAAAAAAAAAAWAAAAA8QAAAAAAAAFgB/gAAHAAQAAAADAiBHgAz8PLJkACgAyZiZACCgCkhAiAImSAwZJiIIOLA0dGEJAhgkALIyCcQgMAOgAAAAAACAAAAAAAAAAQAAAAAAAAAAA==

> <PUBCHEM_IUPAC_OPENEYE_NAME>
1-methyl-5H-pyrido[4,3-b]indol-3-amine

> <PUBCHEM_IUPAC_CAS_NAME>
1-methyl-5H-pyrido[4,3-b]indol-3-amine

> <PUBCHEM_IUPAC_NAME>
1-methyl-5H-pyrido[4,3-b]indol-3-amine

> <PUBCHEM_IUPAC_SYSTEMATIC_NAME>
1-methyl-5H-pyrido[4,3-b]indol-3-amine

> <PUBCHEM_IUPAC_TRADITIONAL_NAME>
(1-methyl-5H-pyrid[4,3-b]indol-3-yl)amine

> <PUBCHEM_IUPAC_INCHI>
InChI=1S/C12H11N3/c1-7-12-8-4-2-3-5-9(8)15-10(12)6-11(13)14-7/h2-6,15H,1H3,(H2,13,14)

> <PUBCHEM_IUPAC_INCHIKEY>
LKKMLIBUAXYLOY-UHFFFAOYSA-N

> <PUBCHEM_XLOGP3>
2

> <PUBCHEM_EXACT_MASS>
197.095297

> <PUBCHEM_MOLECULAR_FORMULA>
C12H11N3

> <PUBCHEM_MOLECULAR_WEIGHT>
197.23584

> <PUBCHEM_OPENEYE_CAN_SMILES>
CC1=C2C3=CC=CC=C3NC2=CC(=N1)N

> <PUBCHEM_OPENEYE_ISO_SMILES>
CC1=C2C3=CC=CC=C3NC2=CC(=N1)N

> <PUBCHEM_CACTVS_TPSA>
54.7

> <PUBCHEM_MONOISOTOPIC_WEIGHT>
197.095297

> <PUBCHEM_TOTAL_CHARGE>
0

> <PUBCHEM_HEAVY_ATOM_COUNT>
15

> <PUBCHEM_ATOM_DEF_STEREO_COUNT>
0

> <PUBCHEM_ATOM_UDEF_STEREO_COUNT>
0

> <PUBCHEM_BOND_DEF_STEREO_COUNT>
0

> <PUBCHEM_BOND_UDEF_STEREO_COUNT>
0

> <PUBCHEM_ISOTOPIC_ATOM_COUNT>
0

> <PUBCHEM_COMPONENT_COUNT>
1

> <PUBCHEM_CACTVS_TAUTO_COUNT>
9

> <PUBCHEM_COORDINATE_TYPE>
1
5
255

> <PUBCHEM_BONDANNOTATIONS>
1  6  8
1  7  8
10  14  8
11  15  8
14  15  8
2  12  8
2  8  8
4  5  8
4  6  8
4  8  8
5  10  8
5  7  8
6  9  8
7  11  8
9  12  8

$$$$

