17395762
  -OEChem-06241222522D

 39 40  0     1  0  0  0  0  0999 V2000
    2.0000   -1.3512    0.0000 Br  0  0  0  0  0  0  0  0  0  0  0  0
    7.2437    2.7420    0.0000 O   0  0  0  0  0  0  0  0  0  0  0  0
    2.8660    0.1488    0.0000 O   0  0  0  0  0  0  0  0  0  0  0  0
    5.4641   -3.3512    0.0000 O   0  0  0  0  0  0  0  0  0  0  0  0
    4.5981    0.1488    0.0000 N   0  0  0  0  0  0  0  0  0  0  0  0
    4.5981    1.1488    0.0000 C   0  0  3  0  0  0  0  0  0  0  0  0
    5.4641    1.6488    0.0000 C   0  0  0  0  0  0  0  0  0  0  0  0
    5.4641    2.6488    0.0000 C   0  0  0  0  0  0  0  0  0  0  0  0
    3.7320    1.6488    0.0000 C   0  0  0  0  0  0  0  0  0  0  0  0
    6.3301    3.1488    0.0000 C   0  0  0  0  0  0  0  0  0  0  0  0
    3.7320   -0.3512    0.0000 C   0  0  0  0  0  0  0  0  0  0  0  0
    3.7320   -1.3512    0.0000 C   0  0  0  0  0  0  0  0  0  0  0  0
    6.4347    4.1433    0.0000 C   0  0  0  0  0  0  0  0  0  0  0  0
    7.4128    4.3512    0.0000 C   0  0  0  0  0  0  0  0  0  0  0  0
    4.5981   -1.8512    0.0000 C   0  0  0  0  0  0  0  0  0  0  0  0
    2.8660   -1.8512    0.0000 C   0  0  0  0  0  0  0  0  0  0  0  0
    7.9128    3.4852    0.0000 C   0  0  0  0  0  0  0  0  0  0  0  0
    4.5981   -2.8512    0.0000 C   0  0  0  0  0  0  0  0  0  0  0  0
    2.8660   -2.8512    0.0000 C   0  0  0  0  0  0  0  0  0  0  0  0
    3.7320   -3.3512    0.0000 C   0  0  0  0  0  0  0  0  0  0  0  0
    5.4641   -4.3512    0.0000 C   0  0  0  0  0  0  0  0  0  0  0  0
    5.1350    0.8388    0.0000 H   0  0  0  0  0  0  0  0  0  0  0  0
    5.6762    1.0662    0.0000 H   0  0  0  0  0  0  0  0  0  0  0  0
    6.0747    1.7564    0.0000 H   0  0  0  0  0  0  0  0  0  0  0  0
    5.2520    3.2314    0.0000 H   0  0  0  0  0  0  0  0  0  0  0  0
    4.8535    2.5411    0.0000 H   0  0  0  0  0  0  0  0  0  0  0  0
    4.0420    2.1857    0.0000 H   0  0  0  0  0  0  0  0  0  0  0  0
    3.1951    1.9588    0.0000 H   0  0  0  0  0  0  0  0  0  0  0  0
    3.4220    1.1118    0.0000 H   0  0  0  0  0  0  0  0  0  0  0  0
    5.1350   -0.1612    0.0000 H   0  0  0  0  0  0  0  0  0  0  0  0
    5.9739    4.5582    0.0000 H   0  0  0  0  0  0  0  0  0  0  0  0
    5.1350   -1.5412    0.0000 H   0  0  0  0  0  0  0  0  0  0  0  0
    7.6650    4.9176    0.0000 H   0  0  0  0  0  0  0  0  0  0  0  0
    8.5294    3.4204    0.0000 H   0  0  0  0  0  0  0  0  0  0  0  0
    2.3291   -3.1612    0.0000 H   0  0  0  0  0  0  0  0  0  0  0  0
    3.7320   -3.9712    0.0000 H   0  0  0  0  0  0  0  0  0  0  0  0
    4.8441   -4.3512    0.0000 H   0  0  0  0  0  0  0  0  0  0  0  0
    5.4641   -4.9712    0.0000 H   0  0  0  0  0  0  0  0  0  0  0  0
    6.0841   -4.3512    0.0000 H   0  0  0  0  0  0  0  0  0  0  0  0
  1 16  1  0  0  0  0
  2 10  1  0  0  0  0
  2 17  1  0  0  0  0
  3 11  2  0  0  0  0
  4 18  1  0  0  0  0
  4 21  1  0  0  0  0
  5  6  1  0  0  0  0
  5 11  1  0  0  0  0
  5 30  1  0  0  0  0
  6  7  1  0  0  0  0
  6  9  1  0  0  0  0
  6 22  1  0  0  0  0
  7  8  1  0  0  0  0
  7 23  1  0  0  0  0
  7 24  1  0  0  0  0
  8 10  1  0  0  0  0
  8 25  1  0  0  0  0
  8 26  1  0  0  0  0
  9 27  1  0  0  0  0
  9 28  1  0  0  0  0
  9 29  1  0  0  0  0
 10 13  2  0  0  0  0
 11 12  1  0  0  0  0
 12 15  1  0  0  0  0
 12 16  2  0  0  0  0
 13 14  1  0  0  0  0
 13 31  1  0  0  0  0
 14 17  2  0  0  0  0
 14 33  1  0  0  0  0
 15 18  2  0  0  0  0
 15 32  1  0  0  0  0
 16 19  1  0  0  0  0
 17 34  1  0  0  0  0
 18 20  1  0  0  0  0
 19 20  2  0  0  0  0
 19 35  1  0  0  0  0
 20 36  1  0  0  0  0
 21 37  1  0  0  0  0
 21 38  1  0  0  0  0
 21 39  1  0  0  0  0
M  END
> <PUBCHEM_COMPOUND_CID>
17395762

> <PUBCHEM_COMPOUND_CANONICALIZED>
1

> <PUBCHEM_CACTVS_COMPLEXITY>
340

> <PUBCHEM_CACTVS_HBOND_ACCEPTOR>
3

> <PUBCHEM_CACTVS_HBOND_DONOR>
1

> <PUBCHEM_CACTVS_ROTATABLE_BOND>
6

> <PUBCHEM_CACTVS_SUBSKEYS>
AAADceB6MAAAEAAAAAAAAAAAAAAAASAAAAAwAAAAAAAAAAABwAAAHgBQAAABrCzhmAYyBoLABECIAqlSkACCCAAkIAQIiIEODOgMJjKEtRuGOSjk1hGIq5e+yLCOABABAAAAgAAAIAIAAAEAAAAAAAAAAA==

> <PUBCHEM_IUPAC_OPENEYE_NAME>
2-bromo-N-[3-(2-furyl)-1-methyl-propyl]-5-methoxy-benzamide

> <PUBCHEM_IUPAC_CAS_NAME>
2-bromo-N-[4-(2-furanyl)butan-2-yl]-5-methoxybenzamide

> <PUBCHEM_IUPAC_NAME>
2-bromo-N-[4-(furan-2-yl)butan-2-yl]-5-methoxybenzamide

> <PUBCHEM_IUPAC_SYSTEMATIC_NAME>
2-bromanyl-N-[4-(furan-2-yl)butan-2-yl]-5-methoxy-benzamide

> <PUBCHEM_IUPAC_TRADITIONAL_NAME>
2-bromo-N-[3-(2-furyl)-1-methyl-propyl]-5-methoxy-benzamide

> <PUBCHEM_IUPAC_INCHI>
InChI=1S/C16H18BrNO3/c1-11(5-6-12-4-3-9-21-12)18-16(19)14-10-13(20-2)7-8-15(14)17/h3-4,7-11H,5-6H2,1-2H3,(H,18,19)

> <PUBCHEM_IUPAC_INCHIKEY>
BFFSHDBUEAPCIH-UHFFFAOYSA-N

> <PUBCHEM_XLOGP3_AA>
3.7

> <PUBCHEM_EXACT_MASS>
351.047006

> <PUBCHEM_MOLECULAR_FORMULA>
C16H18BrNO3

> <PUBCHEM_MOLECULAR_WEIGHT>
352.22302

> <PUBCHEM_OPENEYE_CAN_SMILES>
CC(CCC1=CC=CO1)NC(=O)C2=C(C=CC(=C2)OC)Br

> <PUBCHEM_OPENEYE_ISO_SMILES>
CC(CCC1=CC=CO1)NC(=O)C2=C(C=CC(=C2)OC)Br

> <PUBCHEM_CACTVS_TPSA>
51.5

> <PUBCHEM_MONOISOTOPIC_WEIGHT>
351.047006

> <PUBCHEM_TOTAL_CHARGE>
0

> <PUBCHEM_HEAVY_ATOM_COUNT>
21

> <PUBCHEM_ATOM_DEF_STEREO_COUNT>
0

> <PUBCHEM_ATOM_UDEF_STEREO_COUNT>
1

> <PUBCHEM_BOND_DEF_STEREO_COUNT>
0

> <PUBCHEM_BOND_UDEF_STEREO_COUNT>
0

> <PUBCHEM_ISOTOPIC_ATOM_COUNT>
0

> <PUBCHEM_COMPONENT_COUNT>
1

> <PUBCHEM_CACTVS_TAUTO_COUNT>
2

> <PUBCHEM_COORDINATE_TYPE>
1
5
255

> <PUBCHEM_BONDANNOTATIONS>
10  13  8
12  15  8
12  16  8
13  14  8
14  17  8
15  18  8
16  19  8
18  20  8
19  20  8
2  10  8
2  17  8
6  9  3

$$$$

