6275
  -OEChem-06261201133D

 11 11  0     0  0  0  0  0  0999 V2000
    2.3541    0.9026   -0.0006 O   0  0  0  0  0  0  0  0  0  0  0  0
   -2.2352    1.0595   -0.0015 O   0  0  0  0  0  0  0  0  0  0  0  0
    0.0459    1.0058    0.0013 N   0  0  0  0  0  0  0  0  0  0  0  0
    1.1240   -1.0475   -0.0005 N   0  0  0  0  0  0  0  0  0  0  0  0
   -1.2348   -0.9981    0.0008 N   0  0  0  0  0  0  0  0  0  0  0  0
    1.2649    0.3312    0.0003 C   0  0  0  0  0  0  0  0  0  0  0  0
   -1.2054    0.3841    0.0007 C   0  0  0  0  0  0  0  0  0  0  0  0
   -0.1136   -1.6375   -0.0004 C   0  0  0  0  0  0  0  0  0  0  0  0
    0.0680    2.0213    0.0011 H   0  0  0  0  0  0  0  0  0  0  0  0
    1.9571   -1.6283   -0.0014 H   0  0  0  0  0  0  0  0  0  0  0  0
   -0.0759   -2.7371   -0.0006 H   0  0  0  0  0  0  0  0  0  0  0  0
  1  6  2  0  0  0  0
  2  7  2  0  0  0  0
  3  6  1  0  0  0  0
  3  7  1  0  0  0  0
  3  9  1  0  0  0  0
  4  6  1  0  0  0  0
  4  8  1  0  0  0  0
  4 10  1  0  0  0  0
  5  7  1  0  0  0  0
  5  8  2  0  0  0  0
  8 11  1  0  0  0  0
M  END
> <PUBCHEM_COMPOUND_CID>
6275

> <PUBCHEM_CONFORMER_RMSD>
0.4

> <PUBCHEM_CONFORMER_DIVERSEORDER>
1

> <PUBCHEM_MMFF94_PARTIAL_CHARGES>
11
1 -0.57
10 0.37
11 0.06
2 -0.57
3 -0.49
4 -0.49
5 -0.66
6 0.69
7 0.84
8 0.45
9 0.37

> <PUBCHEM_EFFECTIVE_ROTOR_COUNT>
0

> <PUBCHEM_PHARMACOPHORE_FEATURES>
6
1 1 acceptor
1 2 acceptor
1 3 donor
1 4 donor
1 5 donor
6 3 4 5 6 7 8 rings

> <PUBCHEM_HEAVY_ATOM_COUNT>
8

> <PUBCHEM_ATOM_DEF_STEREO_COUNT>
0

> <PUBCHEM_ATOM_UDEF_STEREO_COUNT>
0

> <PUBCHEM_BOND_DEF_STEREO_COUNT>
0

> <PUBCHEM_BOND_UDEF_STEREO_COUNT>
0

> <PUBCHEM_ISOTOPIC_ATOM_COUNT>
0

> <PUBCHEM_COMPONENT_COUNT>
1

> <PUBCHEM_CACTVS_TAUTO_COUNT>
5

> <PUBCHEM_CONFORMER_ID>
0000188300000001

> <PUBCHEM_MMFF94_ENERGY>
14.7524

> <PUBCHEM_FEATURE_SELFOVERLAP>
30.567

> <PUBCHEM_SHAPE_FINGERPRINT>
16714656 1 18122337987061687262
18185500 45 17041759790554831238
20096714 4 18338516447006230771
21040471 1 18410575084742271648
23552423 10 18272649000854737038
29004967 10 18058718251413872657

> <PUBCHEM_SHAPE_MULTIPOLES>
137.95
2.45
1.55
0.55
0.22
0.47
0
-1
0
-0.12
0
0
0.02
0

> <PUBCHEM_SHAPE_SELFOVERLAP>
284.14

> <PUBCHEM_SHAPE_VOLUME>
77.5

> <PUBCHEM_COORDINATE_TYPE>
2
5
10

$$$$

