182951
  -OEChem-07051213123D

 39 40  0     0  0  0  0  0  0999 V2000
   -1.9797    1.2018    1.6390 Cl  0  0  0  0  0  0  0  0  0  0  0  0
    3.3990   -3.1551    1.0758 Cl  0  0  0  0  0  0  0  0  0  0  0  0
   -1.6408   -2.8770    1.2769 F   0  0  0  0  0  0  0  0  0  0  0  0
   -6.3333    2.1297    0.9149 F   0  0  0  0  0  0  0  0  0  0  0  0
   -4.3805    3.0431    1.2021 F   0  0  0  0  0  0  0  0  0  0  0  0
    3.0239   -0.7797   -0.7290 O   0  0  0  0  0  0  0  0  0  0  0  0
   -4.6203    1.4304   -0.3708 O   0  0  0  0  0  0  0  0  0  0  0  0
    5.0594    2.0937   -0.1100 O   0  0  0  0  0  0  0  0  0  0  0  0
    5.6213   -0.0922   -0.5941 O   0  0  0  0  0  0  0  0  0  0  0  0
   -3.5460   -0.3099   -1.5310 N   0  0  0  0  0  0  0  0  0  0  0  0
   -2.4472   -1.0835   -1.5118 N   0  0  0  0  0  0  0  0  0  0  0  0
   -1.7879   -0.6560   -0.4283 C   0  0  0  0  0  0  0  0  0  0  0  0
   -0.5344   -1.2570   -0.0677 C   0  0  0  0  0  0  0  0  0  0  0  0
   -2.4683    0.3862    0.2367 C   0  0  0  0  0  0  0  0  0  0  0  0
   -3.6064    0.5873   -0.5054 C   0  0  0  0  0  0  0  0  0  0  0  0
    0.6562   -0.7328   -0.5709 C   0  0  0  0  0  0  0  0  0  0  0  0
   -0.5052   -2.3613    0.7839 C   0  0  0  0  0  0  0  0  0  0  0  0
    1.8760   -1.3129   -0.2227 C   0  0  0  0  0  0  0  0  0  0  0  0
    0.7146   -2.9414    1.1322 C   0  0  0  0  0  0  0  0  0  0  0  0
    1.9052   -2.4173    0.6288 C   0  0  0  0  0  0  0  0  0  0  0  0
   -4.5174   -0.4887   -2.5851 C   0  0  0  0  0  0  0  0  0  0  0  0
    3.3001    0.5825   -0.4109 C   0  0  0  0  0  0  0  0  0  0  0  0
   -5.0010    1.8682    0.9325 C   0  0  0  0  0  0  0  0  0  0  0  0
    4.7923    0.7843   -0.3903 C   0  0  0  0  0  0  0  0  0  0  0  0
    6.4468    2.4415   -0.0567 C   0  0  0  0  0  0  0  0  0  0  0  0
    6.5735    3.9161    0.2618 C   0  0  0  0  0  0  0  0  0  0  0  0
    0.6333    0.1232   -1.2422 H   0  0  0  0  0  0  0  0  0  0  0  0
    0.7205   -3.8014    1.7969 H   0  0  0  0  0  0  0  0  0  0  0  0
   -5.2601    0.3113   -2.5526 H   0  0  0  0  0  0  0  0  0  0  0  0
   -5.0025   -1.4570   -2.4388 H   0  0  0  0  0  0  0  0  0  0  0  0
   -3.9940   -0.4641   -3.5445 H   0  0  0  0  0  0  0  0  0  0  0  0
    2.8665    1.2232   -1.1853 H   0  0  0  0  0  0  0  0  0  0  0  0
    2.9049    0.8422    0.5784 H   0  0  0  0  0  0  0  0  0  0  0  0
   -4.8128    1.1326    1.7213 H   0  0  0  0  0  0  0  0  0  0  0  0
    6.9135    2.2305   -1.0253 H   0  0  0  0  0  0  0  0  0  0  0  0
    6.9417    1.8507    0.7222 H   0  0  0  0  0  0  0  0  0  0  0  0
    7.6237    4.2169    0.3103 H   0  0  0  0  0  0  0  0  0  0  0  0
    6.0675    4.5195   -0.4991 H   0  0  0  0  0  0  0  0  0  0  0  0
    6.0951    4.1460    1.2196 H   0  0  0  0  0  0  0  0  0  0  0  0
  1 14  1  0  0  0  0
  2 20  1  0  0  0  0
  3 17  1  0  0  0  0
  4 23  1  0  0  0  0
  5 23  1  0  0  0  0
  6 18  1  0  0  0  0
  6 22  1  0  0  0  0
  7 15  1  0  0  0  0
  7 23  1  0  0  0  0
  8 24  1  0  0  0  0
  8 25  1  0  0  0  0
  9 24  2  0  0  0  0
 10 11  1  0  0  0  0
 10 15  1  0  0  0  0
 10 21  1  0  0  0  0
 11 12  2  0  0  0  0
 12 13  1  0  0  0  0
 12 14  1  0  0  0  0
 13 16  2  0  0  0  0
 13 17  1  0  0  0  0
 14 15  2  0  0  0  0
 16 18  1  0  0  0  0
 16 27  1  0  0  0  0
 17 19  2  0  0  0  0
 18 20  2  0  0  0  0
 19 20  1  0  0  0  0
 19 28  1  0  0  0  0
 21 29  1  0  0  0  0
 21 30  1  0  0  0  0
 21 31  1  0  0  0  0
 22 24  1  0  0  0  0
 22 32  1  0  0  0  0
 22 33  1  0  0  0  0
 23 34  1  0  0  0  0
 25 26  1  0  0  0  0
 25 35  1  0  0  0  0
 25 36  1  0  0  0  0
 26 37  1  0  0  0  0
 26 38  1  0  0  0  0
 26 39  1  0  0  0  0
M  END
> <PUBCHEM_COMPOUND_CID>
182951

> <PUBCHEM_CONFORMER_RMSD>
0.8

> <PUBCHEM_CONFORMER_DIVERSEORDER>
1
21
31
33
51
88
38
84
64
70
29
72
46
98
56
14
57
91
45
23
54
62
76
86
25
93
44
69
73
60
75
58
87
67
37
83
77
39
50
81
97
49
63
40
16
43
36
52
28
82
68
95
100
78
61
85
65
20
80
74
19
7
53
48
22
24
96
13
55
30
47
4
79
5
99
35
32
27
15
10
41
26
9
90
8
71
92
12
2
18
11
94
42
59
34
3
89
6
17
66

> <PUBCHEM_MMFF94_PARTIAL_CHARGES>
27
1 -0.12
10 0.31
11 -0.71
12 0.23
13 0.05
14 0.12
15 -0.09
16 -0.15
17 0.19
18 0.08
19 -0.15
2 -0.18
20 0.18
21 0.26
22 0.34
23 0.96
24 0.66
25 0.28
27 0.15
28 0.15
3 -0.19
4 -0.34
5 -0.34
6 -0.36
7 -0.34
8 -0.43
9 -0.57

> <PUBCHEM_EFFECTIVE_ROTOR_COUNT>
8

> <PUBCHEM_PHARMACOPHORE_FEATURES>
6
1 11 acceptor
1 6 acceptor
1 7 acceptor
1 9 acceptor
5 10 11 12 14 15 rings
6 13 16 17 18 19 20 rings

> <PUBCHEM_HEAVY_ATOM_COUNT>
26

> <PUBCHEM_ATOM_DEF_STEREO_COUNT>
0

> <PUBCHEM_ATOM_UDEF_STEREO_COUNT>
0

> <PUBCHEM_BOND_DEF_STEREO_COUNT>
0

> <PUBCHEM_BOND_UDEF_STEREO_COUNT>
0

> <PUBCHEM_ISOTOPIC_ATOM_COUNT>
0

> <PUBCHEM_COMPONENT_COUNT>
1

> <PUBCHEM_CACTVS_TAUTO_COUNT>
1

> <PUBCHEM_CONFORMER_ID>
0002CAA700000001

> <PUBCHEM_MMFF94_ENERGY>
54.8367

> <PUBCHEM_FEATURE_SELFOVERLAP>
30.453

> <PUBCHEM_SHAPE_FINGERPRINT>
10319926 262 14764072327759758054
11059845 2 12174528934580303967
11135609 187 18271540723388471517
11135609 201 18338232674401372003
11273773 42 18334296440175732221
11393246 34 10015324407113954384
12236239 1 18118694446510078003
12390115 104 18200865168153653526
12616971 3 18266466597127023807
12788726 201 17532368858401647729
12895837 130 18114741512797223956
13955234 65 18058449992226209706
14251764 75 18409727374098809256
14739800 52 18042427797464455922
14848178 96 18341619187858942924
14849402 71 18270677697060618194
15188451 53 12463567357610753389
15685185 35 18267018362637998804
17780758 139 12607141590371429124
19438510 23 18408884019090528520
19784866 34 18413107272895509178
21033648 144 18272939331663888838
21033648 29 16845293903512386799
21401589 2 17988925535312104088
21756936 100 18408600357695979783
22122407 14 17979622761310447985
23559900 14 16734393917692070047
23569914 2 17056719011672176677
268830 7 18339931527156091415
2748736 6 18338243652929331684
283562 15 17983859978065021402
2838139 119 18334011679749233636
312425 83 17677039244061986558
3472631 163 18187079598264098501
38570 142 18264752411048523846
393628 194 18267019454124402788
474 4 18340770445790697067
5104073 3 17989212504306704994
543368 44 18334861597868846725
633830 44 18337672052463182303
7288768 16 18130781248372901403
9981440 41 18200596870136854362

> <PUBCHEM_SHAPE_MULTIPOLES>
483.55
14.56
4.13
1.52
10.86
0.47
-0.43
18.66
-1.11
4.29
2.19
-2.36
-0.17
-2

> <PUBCHEM_SHAPE_SELFOVERLAP>
1005.757

> <PUBCHEM_SHAPE_VOLUME>
279.2

> <PUBCHEM_COORDINATE_TYPE>
2
5
10

$$$$

