10197613
  -OEChem-07051213102D

  2  0  0     0  0  0  0  0  0999 V2000
    2.0000    0.0000    0.0000 Ca  0  2  0  0  0  0  0  0  0  0  0  0
    3.0000    0.0000    0.0000 S   0  6  0  0  0  0  0  0  0  0  0  0
M  CHG  2   1   2   2  -2
M  END
> <PUBCHEM_COMPOUND_CID>
10197613

> <PUBCHEM_COMPOUND_CANONICALIZED>
1

> <PUBCHEM_CACTVS_COMPLEXITY>
0

> <PUBCHEM_CACTVS_HBOND_ACCEPTOR>
1

> <PUBCHEM_CACTVS_HBOND_DONOR>
0

> <PUBCHEM_CACTVS_ROTATABLE_BOND>
0

> <PUBCHEM_CACTVS_SUBSKEYS>
AAADcQAAAABAAAgAAAAAAAAAAAAAAAAAAAAAAAAAAAAAAAAAAAAAAAAAAAAAAAAAAAAAAAAAAAAAAAAAAAAAAAAAAAAAAAAAAAAAAAAAAAAAAAAAAAAAAAAAAAAAAAAAAAAAAAAAAAAAAAAAAAAAAAAAAA==

> <PUBCHEM_IUPAC_OPENEYE_NAME>
calcium sulfide

> <PUBCHEM_IUPAC_CAS_NAME>
calcium sulfide

> <PUBCHEM_IUPAC_NAME>
calcium sulfide

> <PUBCHEM_IUPAC_SYSTEMATIC_NAME>
calcium sulfide

> <PUBCHEM_IUPAC_TRADITIONAL_NAME>
calcium sulfide

> <PUBCHEM_IUPAC_INCHI>
InChI=1S/Ca.S/q+2;-2

> <PUBCHEM_IUPAC_INCHIKEY>
AGVJBLHVMNHENQ-UHFFFAOYSA-N

> <PUBCHEM_EXACT_MASS>
71.934662

> <PUBCHEM_MOLECULAR_FORMULA>
CaS

> <PUBCHEM_MOLECULAR_WEIGHT>
72.143

> <PUBCHEM_OPENEYE_CAN_SMILES>
[S-2].[Ca+2]

> <PUBCHEM_OPENEYE_ISO_SMILES>
[S-2].[Ca+2]

> <PUBCHEM_CACTVS_TPSA>
1

> <PUBCHEM_MONOISOTOPIC_WEIGHT>
71.934662

> <PUBCHEM_TOTAL_CHARGE>
0

> <PUBCHEM_HEAVY_ATOM_COUNT>
2

> <PUBCHEM_ATOM_DEF_STEREO_COUNT>
0

> <PUBCHEM_ATOM_UDEF_STEREO_COUNT>
0

> <PUBCHEM_BOND_DEF_STEREO_COUNT>
0

> <PUBCHEM_BOND_UDEF_STEREO_COUNT>
0

> <PUBCHEM_ISOTOPIC_ATOM_COUNT>
0

> <PUBCHEM_COMPONENT_COUNT>
2

> <PUBCHEM_CACTVS_TAUTO_COUNT>
1

> <PUBCHEM_COORDINATE_TYPE>
1
5
255

$$$$

