440047
  -OEChem-07051212483D

 32 34  0     1  0  0  0  0  0999 V2000
    1.5494    1.7921   -0.5858 O   0  0  0  0  0  0  0  0  0  0  0  0
    0.0312   -1.6822    0.9950 O   0  0  0  0  0  0  0  0  0  0  0  0
   -2.5397    1.4368    1.9783 O   0  0  0  0  0  0  0  0  0  0  0  0
    5.9691    0.0873   -0.3849 O   0  0  0  0  0  0  0  0  0  0  0  0
   -5.8169   -0.7352   -0.7151 O   0  0  0  0  0  0  0  0  0  0  0  0
   -0.3972    0.5893    0.2692 C   0  0  1  0  0  0  0  0  0  0  0  0
    0.2140    1.3761   -0.8907 C   0  0  0  0  0  0  0  0  0  0  0  0
   -1.8495    0.2424    0.0180 C   0  0  0  0  0  0  0  0  0  0  0  0
    0.4630   -0.6350    0.5267 C   0  0  0  0  0  0  0  0  0  0  0  0
    1.9067   -0.4726    0.2468 C   0  0  0  0  0  0  0  0  0  0  0  0
    2.3703    0.7392   -0.2746 C   0  0  0  0  0  0  0  0  0  0  0  0
   -2.8488    0.6836    0.8858 C   0  0  0  0  0  0  0  0  0  0  0  0
   -2.1843   -0.5275   -1.0965 C   0  0  0  0  0  0  0  0  0  0  0  0
    2.8045   -1.5033    0.5382 C   0  0  0  0  0  0  0  0  0  0  0  0
    3.7385    0.9318   -0.4722 C   0  0  0  0  0  0  0  0  0  0  0  0
   -4.1819    0.3551    0.6395 C   0  0  0  0  0  0  0  0  0  0  0  0
   -3.5174   -0.8559   -1.3427 C   0  0  0  0  0  0  0  0  0  0  0  0
    4.1692   -1.3118    0.3195 C   0  0  0  0  0  0  0  0  0  0  0  0
    4.6359   -0.0956   -0.1798 C   0  0  0  0  0  0  0  0  0  0  0  0
   -4.5161   -0.4146   -0.4746 C   0  0  0  0  0  0  0  0  0  0  0  0
   -0.2985    1.1951    1.1796 H   0  0  0  0  0  0  0  0  0  0  0  0
    0.2305    0.8110   -1.8322 H   0  0  0  0  0  0  0  0  0  0  0  0
   -0.3687    2.2858   -1.0775 H   0  0  0  0  0  0  0  0  0  0  0  0
   -1.4217   -0.8886   -1.7810 H   0  0  0  0  0  0  0  0  0  0  0  0
    2.4641   -2.4522    0.9429 H   0  0  0  0  0  0  0  0  0  0  0  0
    4.1062    1.8773   -0.8634 H   0  0  0  0  0  0  0  0  0  0  0  0
   -4.9614    0.6986    1.3153 H   0  0  0  0  0  0  0  0  0  0  0  0
   -3.7716   -1.4573   -2.2112 H   0  0  0  0  0  0  0  0  0  0  0  0
    4.8610   -2.1177    0.5503 H   0  0  0  0  0  0  0  0  0  0  0  0
   -3.3575    1.6488    2.4601 H   0  0  0  0  0  0  0  0  0  0  0  0
    6.4415   -0.7241   -0.1308 H   0  0  0  0  0  0  0  0  0  0  0  0
   -6.3717   -0.3485   -0.0160 H   0  0  0  0  0  0  0  0  0  0  0  0
  1  7  1  0  0  0  0
  1 11  1  0  0  0  0
  2  9  2  0  0  0  0
  3 12  1  0  0  0  0
  3 30  1  0  0  0  0
  4 19  1  0  0  0  0
  4 31  1  0  0  0  0
  5 20  1  0  0  0  0
  5 32  1  0  0  0  0
  6  7  1  0  0  0  0
  6  8  1  0  0  0  0
  6  9  1  0  0  0  0
  6 21  1  0  0  0  0
  7 22  1  0  0  0  0
  7 23  1  0  0  0  0
  8 12  2  0  0  0  0
  8 13  1  0  0  0  0
  9 10  1  0  0  0  0
 10 11  2  0  0  0  0
 10 14  1  0  0  0  0
 11 15  1  0  0  0  0
 12 16  1  0  0  0  0
 13 17  2  0  0  0  0
 13 24  1  0  0  0  0
 14 18  2  0  0  0  0
 14 25  1  0  0  0  0
 15 19  2  0  0  0  0
 15 26  1  0  0  0  0
 16 20  2  0  0  0  0
 16 27  1  0  0  0  0
 17 20  1  0  0  0  0
 17 28  1  0  0  0  0
 18 19  1  0  0  0  0
 18 29  1  0  0  0  0
M  END
> <PUBCHEM_COMPOUND_CID>
440047

> <PUBCHEM_CONFORMER_RMSD>
0.6

> <PUBCHEM_CONFORMER_DIVERSEORDER>
1
6
8
11
15
14
12
3
7
9
10
5
13
4
2

> <PUBCHEM_MMFF94_PARTIAL_CHARGES>
29
1 -0.36
10 0.09
11 0.08
12 0.08
13 -0.15
14 -0.15
15 -0.15
16 -0.15
17 -0.15
18 -0.15
19 0.08
2 -0.57
20 0.08
24 0.15
25 0.15
26 0.15
27 0.15
28 0.15
29 0.15
3 -0.53
30 0.45
31 0.45
32 0.45
4 -0.53
5 -0.53
6 0.2
7 0.28
8 -0.14
9 0.42

> <PUBCHEM_EFFECTIVE_ROTOR_COUNT>
1.6

> <PUBCHEM_PHARMACOPHORE_FEATURES>
8
1 1 acceptor
1 2 acceptor
1 3 donor
1 4 donor
1 5 donor
6 1 6 7 9 10 11 rings
6 10 11 14 15 18 19 rings
6 8 12 13 16 17 20 rings

> <PUBCHEM_HEAVY_ATOM_COUNT>
20

> <PUBCHEM_ATOM_DEF_STEREO_COUNT>
0

> <PUBCHEM_ATOM_UDEF_STEREO_COUNT>
1

> <PUBCHEM_BOND_DEF_STEREO_COUNT>
0

> <PUBCHEM_BOND_UDEF_STEREO_COUNT>
0

> <PUBCHEM_ISOTOPIC_ATOM_COUNT>
0

> <PUBCHEM_COMPONENT_COUNT>
1

> <PUBCHEM_CACTVS_TAUTO_COUNT>
106

> <PUBCHEM_CONFORMER_ID>
0006B6EF00000001

> <PUBCHEM_MMFF94_ENERGY>
57.6888

> <PUBCHEM_FEATURE_SELFOVERLAP>
40.624

> <PUBCHEM_SHAPE_FINGERPRINT>
10366900 7 16630530635181033365
11370993 70 14261352474588677880
11471102 20 18131350804418455540
11578080 2 18045815435407984441
12107183 9 17320970263049440642
12236239 1 18333731321173732965
12670546 56 18040437685096313840
13140716 1 17986385595386917144
13167823 11 18186519916701433958
13288520 33 17675923196535787647
13581323 91 17385725807188490997
13583140 156 15697997414509680872
13760787 5 18131343129343643652
13862211 1 18201161044287615450
14386348 63 16917063360767961169
14576447 43 18410301276261410366
14911166 2 18131633370306316486
15196674 1 18201441445184638516
15848702 151 18335980973187519254
16945 1 18131067121960631436
17349148 13 18341897393959366106
17357779 13 17560810939073144981
17834072 33 18187365411315818876
17862501 102 18187083961760687425
1813 80 18341319089561321484
19422 9 18260829340628361131
200 152 18411422812897880141
20279233 1 16774075184916284987
20612939 158 18201435835841656596
20645477 70 17774449390161885082
21033648 29 17203058403921254988
21033650 10 17533466111161364528
21267235 1 18409442583433947367
21641784 216 17488728099855969556
221357 26 17988936573842551653
22646028 1 18333452049304190085
2297311 6 16732696147215925433
23175994 123 17275099540040085045
23402539 116 18260548939388290692
23402655 69 18341899627068111820
23493267 7 15502650563525800394
23557571 272 16153698847367712737
23559900 14 17531258209649028256
2838139 119 7925368286123057147
2871803 45 17846501473777390206
3286 77 18040726878498254368
34797466 226 16443621295280653056
474 4 18193561056180669504
573450 72 17894912961905225449
602551 16 16515977977270169558
7495541 125 16009036033744596898
77492 1 18333728018407289825
9981440 41 17253725871230399712

> <PUBCHEM_SHAPE_MULTIPOLES>
382.24
10.98
1.47
1.16
0.73
0.03
0.18
-1.77
-1.65
0.62
0.11
-1.1
0.12
-1.26

> <PUBCHEM_SHAPE_SELFOVERLAP>
849.208

> <PUBCHEM_SHAPE_VOLUME>
202.5

> <PUBCHEM_COORDINATE_TYPE>
2
5
10

$$$$

