92794
  -OEChem-07051212563D

 53 56  0     1  0  0  0  0  0999 V2000
   -3.3268   -0.0139    0.5904 O   0  0  0  0  0  0  0  0  0  0  0  0
   -2.5887   -0.9178   -1.4299 O   0  0  0  0  0  0  0  0  0  0  0  0
   -6.5711    1.7303   -1.2259 O   0  0  0  0  0  0  0  0  0  0  0  0
   -5.7408    2.6199    1.3961 O   0  0  0  0  0  0  0  0  0  0  0  0
   -4.2357    0.9122   -2.8251 O   0  0  0  0  0  0  0  0  0  0  0  0
   -2.5683    0.4683    3.1882 O   0  0  0  0  0  0  0  0  0  0  0  0
    2.0001   -0.0519   -0.5957 O   0  0  0  0  0  0  0  0  0  0  0  0
    0.0379   -4.3479    0.5418 O   0  0  0  0  0  0  0  0  0  0  0  0
    2.5687   -3.8365    0.8824 O   0  0  0  0  0  0  0  0  0  0  0  0
    7.1931    3.4519   -0.3806 O   0  0  0  0  0  0  0  0  0  0  0  0
   -5.2228    1.6703   -0.7577 C   0  0  1  0  0  0  0  0  0  0  0  0
   -5.2568    1.4434    0.7537 C   0  0  1  0  0  0  0  0  0  0  0  0
   -4.4863    0.5363   -1.4711 C   0  0  2  0  0  0  0  0  0  0  0  0
   -3.8596    1.1151    1.2852 C   0  0  1  0  0  0  0  0  0  0  0  0
   -3.1454    0.2364   -0.8014 C   0  0  1  0  0  0  0  0  0  0  0  0
   -3.8873    0.7699    2.7708 C   0  0  0  0  0  0  0  0  0  0  0  0
   -1.3832   -1.3476   -0.9593 C   0  0  0  0  0  0  0  0  0  0  0  0
    3.0306   -0.3157    0.3692 C   0  0  1  0  0  0  0  0  0  0  0  0
    3.5519   -1.7455    0.2370 C   0  0  0  0  0  0  0  0  0  0  0  0
    0.9564   -0.9376   -0.5175 C   0  0  0  0  0  0  0  0  0  0  0  0
    1.0810   -2.2321   -0.0047 C   0  0  0  0  0  0  0  0  0  0  0  0
   -0.2746   -0.5020   -1.0099 C   0  0  0  0  0  0  0  0  0  0  0  0
    2.4088   -2.7062    0.4370 C   0  0  0  0  0  0  0  0  0  0  0  0
   -1.2612   -2.6315   -0.4269 C   0  0  0  0  0  0  0  0  0  0  0  0
   -0.0282   -3.0801    0.0482 C   0  0  0  0  0  0  0  0  0  0  0  0
    4.1432    0.6917    0.1690 C   0  0  0  0  0  0  0  0  0  0  0  0
    4.4519    1.5999    1.1812 C   0  0  0  0  0  0  0  0  0  0  0  0
    4.8588    0.7098   -1.0277 C   0  0  0  0  0  0  0  0  0  0  0  0
    5.4771    2.5275    0.9963 C   0  0  0  0  0  0  0  0  0  0  0  0
    5.8841    1.6372   -1.2124 C   0  0  0  0  0  0  0  0  0  0  0  0
    6.1933    2.5462   -0.2006 C   0  0  0  0  0  0  0  0  0  0  0  0
   -4.7677    2.6385   -0.9999 H   0  0  0  0  0  0  0  0  0  0  0  0
   -5.9577    0.6317    0.9846 H   0  0  0  0  0  0  0  0  0  0  0  0
   -5.1129   -0.3630   -1.5025 H   0  0  0  0  0  0  0  0  0  0  0  0
   -3.1756    1.9636    1.1471 H   0  0  0  0  0  0  0  0  0  0  0  0
   -2.4671    1.0883   -0.9414 H   0  0  0  0  0  0  0  0  0  0  0  0
   -4.2573    1.6040    3.3738 H   0  0  0  0  0  0  0  0  0  0  0  0
   -4.5088   -0.1102    2.9662 H   0  0  0  0  0  0  0  0  0  0  0  0
   -7.0145    2.4500   -0.7448 H   0  0  0  0  0  0  0  0  0  0  0  0
   -5.1211    3.3440    1.2028 H   0  0  0  0  0  0  0  0  0  0  0  0
   -3.6814    1.7112   -2.8189 H   0  0  0  0  0  0  0  0  0  0  0  0
    2.5954   -0.1718    1.3693 H   0  0  0  0  0  0  0  0  0  0  0  0
    4.3183   -1.9434    0.9947 H   0  0  0  0  0  0  0  0  0  0  0  0
    3.9705   -1.9537   -0.7540 H   0  0  0  0  0  0  0  0  0  0  0  0
   -0.3556    0.4941   -1.4370 H   0  0  0  0  0  0  0  0  0  0  0  0
   -2.1348   -3.2784   -0.3935 H   0  0  0  0  0  0  0  0  0  0  0  0
   -2.2472   -0.2684    2.6404 H   0  0  0  0  0  0  0  0  0  0  0  0
    3.9031    1.5978    2.1191 H   0  0  0  0  0  0  0  0  0  0  0  0
    4.6257    0.0183   -1.8326 H   0  0  0  0  0  0  0  0  0  0  0  0
   -0.8392   -4.7639    0.4858 H   0  0  0  0  0  0  0  0  0  0  0  0
    5.7133    3.2330    1.7882 H   0  0  0  0  0  0  0  0  0  0  0  0
    6.4328    1.6432   -2.1505 H   0  0  0  0  0  0  0  0  0  0  0  0
    7.5800    3.3226   -1.2636 H   0  0  0  0  0  0  0  0  0  0  0  0
  1 14  1  0  0  0  0
  1 15  1  0  0  0  0
  2 15  1  0  0  0  0
  2 17  1  0  0  0  0
  3 11  1  0  0  0  0
  3 39  1  0  0  0  0
  4 12  1  0  0  0  0
  4 40  1  0  0  0  0
  5 13  1  0  0  0  0
  5 41  1  0  0  0  0
  6 16  1  0  0  0  0
  6 47  1  0  0  0  0
  7 18  1  0  0  0  0
  7 20  1  0  0  0  0
  8 25  1  0  0  0  0
  8 50  1  0  0  0  0
  9 23  2  0  0  0  0
 10 31  1  0  0  0  0
 10 53  1  0  0  0  0
 11 12  1  0  0  0  0
 11 13  1  0  0  0  0
 11 32  1  0  0  0  0
 12 14  1  0  0  0  0
 12 33  1  0  0  0  0
 13 15  1  0  0  0  0
 13 34  1  0  0  0  0
 14 16  1  0  0  0  0
 14 35  1  0  0  0  0
 15 36  1  0  0  0  0
 16 37  1  0  0  0  0
 16 38  1  0  0  0  0
 17 22  1  0  0  0  0
 17 24  2  0  0  0  0
 18 19  1  0  0  0  0
 18 26  1  0  0  0  0
 18 42  1  0  0  0  0
 19 23  1  0  0  0  0
 19 43  1  0  0  0  0
 19 44  1  0  0  0  0
 20 21  1  0  0  0  0
 20 22  2  0  0  0  0
 21 23  1  0  0  0  0
 21 25  2  0  0  0  0
 22 45  1  0  0  0  0
 24 25  1  0  0  0  0
 24 46  1  0  0  0  0
 26 27  2  0  0  0  0
 26 28  1  0  0  0  0
 27 29  1  0  0  0  0
 27 48  1  0  0  0  0
 28 30  2  0  0  0  0
 28 49  1  0  0  0  0
 29 31  2  0  0  0  0
 29 51  1  0  0  0  0
 30 31  1  0  0  0  0
 30 52  1  0  0  0  0
M  END
> <PUBCHEM_COMPOUND_CID>
92794

> <PUBCHEM_CONFORMER_RMSD>
0.8

> <PUBCHEM_CONFORMER_DIVERSEORDER>
2
122
151
221
257
217
148
199
70
125
254
119
288
281
62
212
107
140
270
8
209
4
117
245
278
120
128
231
249
165
61
235
289
202
167
77
22
246
90
274
11
21
96
263
118
197
46
253
216
273
97
135
266
10
50
64
272
5
211
207
45
184
35
220
149
57
131
191
225
248
3
105
200
59
269
182
16
264
226
142
150
206
192
187
185
136
154
29
228
284
86
79
18
99
98
48
9
137
210
110
196
233
190
138
170
174
283
286
81
160
6
60
275
251
166
161
208
129
67
14
168
205
123
247
15
36
65
121
106
162
243
55
186
204
34
177
102
80
84
241
227
25
229
78
258
198
126
7
133
38
82
20
277
237
155
19
179
130
239
37
17
103
134
240
183
230
218
234
132
280
159
157
87
23
144
1
224
47
223
124
261
164
214
104
94
188
146
58
181
256
193
108
180
41
158
88
83
30
74
178
101
44
250
75
89
232
156
175
139
69
201
282
66
259
72
109
73
76
236
172
276
113
53
40
93
42
24
268
176
213
171
92
260
91
49
28
127
152
31
222
27
116
195
26
52
111
219
54
194
114
145
143
100
279
242
147
12
262
238
51
153
285
244
215
85
271
68
56
163
33
255
112
115
267
287
39
95
13
71
63
32
203
169
43
189
141
265
173
252

> <PUBCHEM_MMFF94_PARTIAL_CHARGES>
43
1 -0.56
10 -0.53
11 0.28
12 0.28
13 0.28
14 0.28
15 0.56
16 0.28
17 0.08
18 0.42
19 0.06
2 -0.36
20 0.08
21 0.09
22 -0.15
23 0.42
24 -0.15
25 0.08
26 -0.14
27 -0.15
28 -0.15
29 -0.15
3 -0.68
30 -0.15
31 0.08
39 0.4
4 -0.68
40 0.4
41 0.4
45 0.15
46 0.15
47 0.4
48 0.15
49 0.15
5 -0.68
50 0.45
51 0.15
52 0.15
53 0.45
6 -0.68
7 -0.36
8 -0.53
9 -0.57

> <PUBCHEM_EFFECTIVE_ROTOR_COUNT>
5.8

> <PUBCHEM_PHARMACOPHORE_FEATURES>
18
1 1 acceptor
1 10 donor
1 2 acceptor
1 3 acceptor
1 3 donor
1 4 acceptor
1 4 donor
1 5 acceptor
1 5 donor
1 6 acceptor
1 6 donor
1 7 acceptor
1 8 donor
1 9 acceptor
6 1 11 12 13 14 15 rings
6 17 20 21 22 24 25 rings
6 26 27 28 29 30 31 rings
6 7 18 19 20 21 23 rings

> <PUBCHEM_HEAVY_ATOM_COUNT>
31

> <PUBCHEM_ATOM_DEF_STEREO_COUNT>
6

> <PUBCHEM_ATOM_UDEF_STEREO_COUNT>
0

> <PUBCHEM_BOND_DEF_STEREO_COUNT>
0

> <PUBCHEM_BOND_UDEF_STEREO_COUNT>
0

> <PUBCHEM_ISOTOPIC_ATOM_COUNT>
0

> <PUBCHEM_COMPONENT_COUNT>
1

> <PUBCHEM_CACTVS_TAUTO_COUNT>
18

> <PUBCHEM_CONFORMER_ID>
00016A7A00000002

> <PUBCHEM_MMFF94_ENERGY>
99.0092

> <PUBCHEM_FEATURE_SELFOVERLAP>
91.43

> <PUBCHEM_SHAPE_FINGERPRINT>
10319926 262 15913048771798120686
10670039 82 16660358224910335569
11112241 14 18130786793856123329
11621639 183 16701472284867672228
12390115 104 18338793404110168254
12422481 6 17274831250839475942
12655364 74 15831657123564572284
13540713 5 18267891443969835478
13583140 156 15553901991815331654
13878862 14 18126307430027662460
13885169 86 18341326687279872676
14251764 75 18409728469299651989
14790565 3 18412546492338604436
14840074 17 18410288120930005189
14848178 5 10879994627420002360
14848178 96 18408611344527953254
14849402 71 18267586995428920490
14931854 50 17458348546014312481
14950920 106 15123515757403562436
15183329 4 16153698826357346540
15274700 21 18191862324164900651
15320294 125 13110956544497381737
15513586 35 17055819357403669812
17913733 40 18272365390883576398
21033648 29 17417535842985803845
21033650 10 15719386261233559515
21133410 62 18261095388541605121
22122407 14 18120646096882036641
23559900 14 16485552446426328631
23845131 108 18343865515389298179
249057 25 17822582727680837435
2748736 6 18409739439042375524
283562 15 18124041134964161999
2838139 119 17894635842183816216
312425 54 14261086401570996604
3178227 256 18129380578777939394
38570 142 18188194473189988310
4258327 124 18128254484906121485
437795 70 16660633043157574032
469060 322 18057596582472043571
474 4 18335707203719981275
5080951 261 9942711512374800622
5104073 3 18202572756851040562
5937810 71 17978212882957326852
6034566 193 18270956834968289532
6058803 2 18117864263723700991
633830 44 18187363289407166639
636775 72 17905050253831661496
6608658 132 17458345277665539225
6697151 62 17266691759185353631
6712543 237 15338846360507242953
7288768 16 18272084972395292851
7970288 3 9079115565878048660

> <PUBCHEM_SHAPE_MULTIPOLES>
579.27
16.24
4.21
1.98
4.53
3.24
-0.75
-21.32
1.48
3.86
-0.92
-3.23
-0.93
-1.08

> <PUBCHEM_SHAPE_SELFOVERLAP>
1263.112

> <PUBCHEM_SHAPE_VOLUME>
311.2

> <PUBCHEM_COORDINATE_TYPE>
2
5
10

$$$$

