8306
  -OEChem-07051213073D

 53 54  0     1  0  0  0  0  0999 V2000
   -4.6817    1.3083   -0.0105 O   0  0  0  0  0  0  0  0  0  0  0  0
    4.6981    1.3088    0.0066 O   0  0  0  0  0  0  0  0  0  0  0  0
   -7.0417    0.9573    1.4076 O   0  0  0  0  0  0  0  0  0  0  0  0
    7.0573    0.9465   -1.4068 O   0  0  0  0  0  0  0  0  0  0  0  0
    0.0083   -1.8276    0.0012 C   0  0  0  0  0  0  0  0  0  0  0  0
   -1.2925   -0.9574   -0.0023 C   0  0  0  0  0  0  0  0  0  0  0  0
    1.2476   -0.9984    0.0028 C   0  0  0  0  0  0  0  0  0  0  0  0
   -0.1652   -2.7954    1.2321 C   0  0  0  0  0  0  0  0  0  0  0  0
    0.0617   -2.8015   -1.2282 C   0  0  0  0  0  0  0  0  0  0  0  0
   -2.1448   -1.1146   -1.0497 C   0  0  0  0  0  0  0  0  0  0  0  0
    2.1614   -1.1123    1.0506 C   0  0  0  0  0  0  0  0  0  0  0  0
   -1.4772   -0.1076    1.0425 C   0  0  0  0  0  0  0  0  0  0  0  0
    1.4937   -0.1095   -1.0435 C   0  0  0  0  0  0  0  0  0  0  0  0
   -3.3045   -0.3398   -1.0526 C   0  0  0  0  0  0  0  0  0  0  0  0
    3.3211   -0.3373    1.0520 C   0  0  0  0  0  0  0  0  0  0  0  0
   -2.6371    0.6672    1.0395 C   0  0  0  0  0  0  0  0  0  0  0  0
    2.6536    0.6655   -1.0422 C   0  0  0  0  0  0  0  0  0  0  0  0
   -3.5508    0.5512   -0.0080 C   0  0  0  0  0  0  0  0  0  0  0  0
    3.5602    0.5468    0.0057 C   0  0  0  0  0  0  0  0  0  0  0  0
   -5.8326    0.7543   -0.6464 C   0  0  0  0  0  0  0  0  0  0  0  0
    5.8420    0.7504    0.6443 C   0  0  0  0  0  0  0  0  0  0  0  0
   -7.0832    1.3074    0.0251 C   0  0  1  0  0  0  0  0  0  0  0  0
    7.0971    1.2968   -0.0242 C   0  0  1  0  0  0  0  0  0  0  0  0
   -8.3480    0.7291   -0.5911 C   0  0  0  0  0  0  0  0  0  0  0  0
    8.3572    0.7120    0.5954 C   0  0  0  0  0  0  0  0  0  0  0  0
    0.6462   -3.5324    1.2758 H   0  0  0  0  0  0  0  0  0  0  0  0
   -0.1824   -2.2644    2.1908 H   0  0  0  0  0  0  0  0  0  0  0  0
   -1.1060   -3.3566    1.1620 H   0  0  0  0  0  0  0  0  0  0  0  0
    0.9701   -3.4171   -1.1814 H   0  0  0  0  0  0  0  0  0  0  0  0
   -0.7853   -3.4983   -1.2458 H   0  0  0  0  0  0  0  0  0  0  0  0
    0.1001   -2.2759   -2.1895 H   0  0  0  0  0  0  0  0  0  0  0  0
   -2.0046   -1.7788   -1.8907 H   0  0  0  0  0  0  0  0  0  0  0  0
    2.0158   -1.7832    1.8900 H   0  0  0  0  0  0  0  0  0  0  0  0
   -0.7724   -0.0035    1.8597 H   0  0  0  0  0  0  0  0  0  0  0  0
    0.7956   -0.0003   -1.8690 H   0  0  0  0  0  0  0  0  0  0  0  0
   -3.9759   -0.4391   -1.9005 H   0  0  0  0  0  0  0  0  0  0  0  0
    3.9922   -0.4350    1.8999 H   0  0  0  0  0  0  0  0  0  0  0  0
   -2.8231    1.3606    1.8552 H   0  0  0  0  0  0  0  0  0  0  0  0
    2.8412    1.3572   -1.8585 H   0  0  0  0  0  0  0  0  0  0  0  0
   -5.8221    1.0213   -1.7093 H   0  0  0  0  0  0  0  0  0  0  0  0
   -5.8472   -0.3386   -0.5379 H   0  0  0  0  0  0  0  0  0  0  0  0
    5.8318    1.0177    1.7071 H   0  0  0  0  0  0  0  0  0  0  0  0
    5.8540   -0.3427    0.5361 H   0  0  0  0  0  0  0  0  0  0  0  0
   -7.0871    2.4013   -0.0344 H   0  0  0  0  0  0  0  0  0  0  0  0
    7.1067    2.3907    0.0350 H   0  0  0  0  0  0  0  0  0  0  0  0
   -8.3831   -0.3593   -0.4701 H   0  0  0  0  0  0  0  0  0  0  0  0
   -8.4155    0.9675   -1.6568 H   0  0  0  0  0  0  0  0  0  0  0  0
   -9.2355    1.1288   -0.0888 H   0  0  0  0  0  0  0  0  0  0  0  0
    8.3870   -0.3765    0.4748 H   0  0  0  0  0  0  0  0  0  0  0  0
    8.4232    0.9503    1.6613 H   0  0  0  0  0  0  0  0  0  0  0  0
    9.2481    1.1071    0.0954 H   0  0  0  0  0  0  0  0  0  0  0  0
   -7.8364    1.3283    1.8277 H   0  0  0  0  0  0  0  0  0  0  0  0
    7.8550    1.3131   -1.8249 H   0  0  0  0  0  0  0  0  0  0  0  0
  1 18  1  0  0  0  0
  1 20  1  0  0  0  0
  2 19  1  0  0  0  0
  2 21  1  0  0  0  0
  3 22  1  0  0  0  0
  3 52  1  0  0  0  0
  4 23  1  0  0  0  0
  4 53  1  0  0  0  0
  5  6  1  0  0  0  0
  5  7  1  0  0  0  0
  5  8  1  0  0  0  0
  5  9  1  0  0  0  0
  6 10  2  0  0  0  0
  6 12  1  0  0  0  0
  7 11  2  0  0  0  0
  7 13  1  0  0  0  0
  8 26  1  0  0  0  0
  8 27  1  0  0  0  0
  8 28  1  0  0  0  0
  9 29  1  0  0  0  0
  9 30  1  0  0  0  0
  9 31  1  0  0  0  0
 10 14  1  0  0  0  0
 10 32  1  0  0  0  0
 11 15  1  0  0  0  0
 11 33  1  0  0  0  0
 12 16  2  0  0  0  0
 12 34  1  0  0  0  0
 13 17  2  0  0  0  0
 13 35  1  0  0  0  0
 14 18  2  0  0  0  0
 14 36  1  0  0  0  0
 15 19  2  0  0  0  0
 15 37  1  0  0  0  0
 16 18  1  0  0  0  0
 16 38  1  0  0  0  0
 17 19  1  0  0  0  0
 17 39  1  0  0  0  0
 20 22  1  0  0  0  0
 20 40  1  0  0  0  0
 20 41  1  0  0  0  0
 21 23  1  0  0  0  0
 21 42  1  0  0  0  0
 21 43  1  0  0  0  0
 22 24  1  0  0  0  0
 22 44  1  0  0  0  0
 23 25  1  0  0  0  0
 23 45  1  0  0  0  0
 24 46  1  0  0  0  0
 24 47  1  0  0  0  0
 24 48  1  0  0  0  0
 25 49  1  0  0  0  0
 25 50  1  0  0  0  0
 25 51  1  0  0  0  0
M  END
> <PUBCHEM_COMPOUND_CID>
8306

> <PUBCHEM_CONFORMER_RMSD>
1

> <PUBCHEM_CONFORMER_DIVERSEORDER>
1
27
21
44
35
28
10
3
41
26
30
19
22
33
4
25
2
31
38
29
42
39
18
40
45
9
11
32
5
43
34
24
8
20
46
15
36
17
6
47
13
23
37
7
16
12
14

> <PUBCHEM_MMFF94_PARTIAL_CHARGES>
31
1 -0.36
10 -0.15
11 -0.15
12 -0.15
13 -0.15
14 -0.15
15 -0.15
16 -0.15
17 -0.15
18 0.08
19 0.08
2 -0.36
20 0.28
21 0.28
22 0.28
23 0.28
3 -0.68
32 0.15
33 0.15
34 0.15
35 0.15
36 0.15
37 0.15
38 0.15
39 0.15
4 -0.68
5 0.29
52 0.4
53 0.4
6 -0.14
7 -0.14

> <PUBCHEM_EFFECTIVE_ROTOR_COUNT>
8

> <PUBCHEM_PHARMACOPHORE_FEATURES>
9
1 1 acceptor
1 2 acceptor
1 3 acceptor
1 3 donor
1 4 acceptor
1 4 donor
3 5 8 9 hydrophobe
6 6 10 12 14 16 18 rings
6 7 11 13 15 17 19 rings

> <PUBCHEM_HEAVY_ATOM_COUNT>
25

> <PUBCHEM_ATOM_DEF_STEREO_COUNT>
0

> <PUBCHEM_ATOM_UDEF_STEREO_COUNT>
2

> <PUBCHEM_BOND_DEF_STEREO_COUNT>
0

> <PUBCHEM_BOND_UDEF_STEREO_COUNT>
0

> <PUBCHEM_ISOTOPIC_ATOM_COUNT>
0

> <PUBCHEM_COMPONENT_COUNT>
1

> <PUBCHEM_CACTVS_TAUTO_COUNT>
1

> <PUBCHEM_CONFORMER_ID>
0000207200000001

> <PUBCHEM_MMFF94_ENERGY>
96.3553

> <PUBCHEM_FEATURE_SELFOVERLAP>
45.678

> <PUBCHEM_SHAPE_FINGERPRINT>
10 15 17704355476609244041
10076449 9 6338956663857856163
10162869 55 17704076158328575999
106641 1 17060336314753272409
10670039 82 16443342113763413473
10674148 151 13912322395798768731
10753850 27 8142086459392420316
11724838 91 18131350791807996743
11823591 26 18410859862475272255
12236239 1 18410863156720501990
12293681 160 17530684311813777547
12592606 108 9439394728086562249
12633257 1 15697994115557955385
12760667 363 9943806690691551481
12838862 33 18338533987600563200
12892183 10 15625677122680674851
13150687 139 17967809466183114646
13177829 20 15769772442232616133
13685833 64 9583517620373157509
14251764 18 15841547457539778020
14257110 125 18408887343173643053
15183329 4 16008743632466108382
15301273 46 15698004071687929562
15475509 35 15122961736829237138
1577012 14 18410303501344541878
15778101 99 18410294679186336303
15840311 113 17632292355439244588
18006028 8 10231755591354908051
18335252 114 18334019410068160053
18335252 98 17967811622895058711
19489759 90 17458623377203461002
19841028 212 7709194429254800908
20505436 4 18410864260517093226
20554085 129 17676501548975766474
20567600 254 18341897394149276473
21033648 29 18338245847430215096
21150785 3 17240205426837450237
21403212 168 18130793369187263570
21585482 111 18266458896668205317
21756936 100 18340492174959978322
21781055 127 17095802243223422730
21792934 111 11959731551677289271
21792961 116 15213293119230795566
22224240 67 17632296778764779675
23559900 14 17095529444612763090
24771293 8 18343300405905843781
2838139 119 18341057345464246012
3004659 81 6122497995255725692
3009799 131 15357697475223786738
3472631 163 18187647972766463221
3633792 109 17240474845677697414
4098825 35 15502923242409534281
4325135 7 18272091578972566591
4340502 62 18059289963944863107
445580 204 17894625980707030497
474 4 18341612646249438563
5104073 3 17344919508421380072
5283156 175 8070028882824518360
5381727 24 18409735049337775266
5385378 56 18201161044113685194
54076057 127 18114733932749775335
5758199 1 18412544323448282211
9663363 56 9439404601224059629
9953998 17 16056878014126682425

> <PUBCHEM_SHAPE_MULTIPOLES>
491.01
21.09
2.04
1.28
0.39
1.63
0
-17.56
-0.01
-0.05
0
0
0.25
-0.66

> <PUBCHEM_SHAPE_SELFOVERLAP>
1025.82

> <PUBCHEM_SHAPE_VOLUME>
280.8

> <PUBCHEM_COORDINATE_TYPE>
2
5
10

$$$$

