443416
  -OEChem-07051213022D

 47 52  0     1  0  0  0  0  0999 V2000
    3.8076    1.8817    0.0000 O   0  0  0  0  0  0  0  0  0  0  0  0
    7.6812    0.2939    0.0000 O   0  0  0  0  0  0  0  0  0  0  0  0
    6.1798   -0.2724    0.0000 N   0  0  3  0  0  0  0  0  0  0  0  0
    4.0899   -1.2279    0.0000 N   0  0  0  0  0  0  0  0  0  0  0  0
    4.5153    0.0814    0.0000 C   0  0  1  0  0  0  0  0  0  0  0  0
    6.4862    1.1691    0.0000 C   0  0  3  0  0  0  0  0  0  0  0  0
    5.9169    0.5368    0.0000 C   0  0  2  0  0  0  0  0  0  0  0  0
    6.7056   -1.8908    0.0000 C   0  0  1  0  0  0  0  0  0  0  0  0
    5.6105   -0.9047    0.0000 C   0  0  2  0  0  0  0  0  0  0  0  0
    4.7782   -0.7278    0.0000 C   0  0  2  0  0  0  0  0  0  0  0  0
    4.5142    1.1740    0.0000 C   0  0  1  0  0  0  0  0  0  0  0  0
    5.0846    0.7137    0.0000 C   0  0  0  0  0  0  0  0  0  0  0  0
    5.8734   -1.7139    0.0000 C   0  0  0  0  0  0  0  0  0  0  0  0
    7.2750   -1.2585    0.0000 C   0  0  1  0  0  0  0  0  0  0  0  0
    7.0121   -0.4493    0.0000 C   0  0  1  0  0  0  0  0  0  0  0  0
    3.6645    0.0814    0.0000 C   0  0  0  0  0  0  0  0  0  0  0  0
    3.4016   -0.7278    0.0000 C   0  0  0  0  0  0  0  0  0  0  0  0
    8.2531   -1.4664    0.0000 C   0  0  0  0  0  0  0  0  0  0  0  0
    3.0952    0.7137    0.0000 C   0  0  0  0  0  0  0  0  0  0  0  0
    2.5693   -0.9047    0.0000 C   0  0  0  0  0  0  0  0  0  0  0  0
    8.5621   -2.4174    0.0000 C   0  0  0  0  0  0  0  0  0  0  0  0
    2.2629    0.5368    0.0000 C   0  0  0  0  0  0  0  0  0  0  0  0
    2.0000   -0.2724    0.0000 C   0  0  0  0  0  0  0  0  0  0  0  0
    6.9092    1.6224    0.0000 H   0  0  0  0  0  0  0  0  0  0  0  0
    5.7347    1.3671    0.0000 H   0  0  0  0  0  0  0  0  0  0  0  0
    6.9683   -2.6992    0.0000 H   0  0  0  0  0  0  0  0  0  0  0  0
    5.2921   -1.6928    0.0000 H   0  0  0  0  0  0  0  0  0  0  0  0
    4.7788   -1.5778    0.0000 H   0  0  0  0  0  0  0  0  0  0  0  0
    4.7523    1.7465    0.0000 H   0  0  0  0  0  0  0  0  0  0  0  0
    5.3169    1.2886    0.0000 H   0  0  0  0  0  0  0  0  0  0  0  0
    4.5588    1.0423    0.0000 H   0  0  0  0  0  0  0  0  0  0  0  0
    5.2594   -1.8002    0.0000 H   0  0  0  0  0  0  0  0  0  0  0  0
    5.8518   -2.3335    0.0000 H   0  0  0  0  0  0  0  0  0  0  0  0
    7.4666   -1.8481    0.0000 H   0  0  0  0  0  0  0  0  0  0  0  0
    7.6185   -0.5782    0.0000 H   0  0  0  0  0  0  0  0  0  0  0  0
    4.0951   -1.8479    0.0000 H   0  0  0  0  0  0  0  0  0  0  0  0
    8.8671   -1.3801    0.0000 H   0  0  0  0  0  0  0  0  0  0  0  0
    8.2748   -0.8468    0.0000 H   0  0  0  0  0  0  0  0  0  0  0  0
    3.9684    2.4804    0.0000 H   0  0  0  0  0  0  0  0  0  0  0  0
    3.2868    1.3034    0.0000 H   0  0  0  0  0  0  0  0  0  0  0  0
    8.2876    0.1650    0.0000 H   0  0  0  0  0  0  0  0  0  0  0  0
    2.3777   -1.4943    0.0000 H   0  0  0  0  0  0  0  0  0  0  0  0
    7.9725   -2.6090    0.0000 H   0  0  0  0  0  0  0  0  0  0  0  0
    8.7537   -3.0071    0.0000 H   0  0  0  0  0  0  0  0  0  0  0  0
    9.1518   -2.2259    0.0000 H   0  0  0  0  0  0  0  0  0  0  0  0
    1.8481    0.9976    0.0000 H   0  0  0  0  0  0  0  0  0  0  0  0
    1.3936   -0.4013    0.0000 H   0  0  0  0  0  0  0  0  0  0  0  0
  1 11  1  0  0  0  0
  1 39  1  0  0  0  0
 15  2  1  6  0  0  0
  2 41  1  0  0  0  0
  3  7  1  0  0  0  0
  3  9  1  0  0  0  0
  3 15  1  0  0  0  0
  4 10  1  0  0  0  0
  4 17  1  0  0  0  0
  4 36  1  0  0  0  0
  5 10  1  0  0  0  0
  5 11  1  0  0  0  0
  5 12  1  0  0  0  0
  5 16  1  6  0  0  0
  6  7  1  0  0  0  0
  6  8  1  0  0  0  0
  6 11  1  0  0  0  0
  6 24  1  0  0  0  0
  7 12  1  0  0  0  0
  7 25  1  6  0  0  0
  8 13  1  0  0  0  0
  8 14  1  0  0  0  0
  8 26  1  1  0  0  0
  9 10  1  0  0  0  0
  9 13  1  0  0  0  0
  9 27  1  6  0  0  0
 10 28  1  1  0  0  0
 11 29  1  0  0  0  0
 12 30  1  0  0  0  0
 12 31  1  0  0  0  0
 13 32  1  0  0  0  0
 13 33  1  0  0  0  0
 14 15  1  0  0  0  0
 14 18  1  1  0  0  0
 14 34  1  0  0  0  0
 15 35  1  0  0  0  0
 16 17  1  0  0  0  0
 16 19  2  0  0  0  0
 17 20  2  0  0  0  0
 18 21  1  0  0  0  0
 18 37  1  0  0  0  0
 18 38  1  0  0  0  0
 19 22  1  0  0  0  0
 19 40  1  0  0  0  0
 20 23  1  0  0  0  0
 20 42  1  0  0  0  0
 21 43  1  0  0  0  0
 21 44  1  0  0  0  0
 21 45  1  0  0  0  0
 22 23  2  0  0  0  0
 22 46  1  0  0  0  0
 23 47  1  0  0  0  0
M  END
> <PUBCHEM_COMPOUND_CID>
443416

> <PUBCHEM_COMPOUND_CANONICALIZED>
1

> <PUBCHEM_CACTVS_COMPLEXITY>
542

> <PUBCHEM_CACTVS_HBOND_ACCEPTOR>
4

> <PUBCHEM_CACTVS_HBOND_DONOR>
3

> <PUBCHEM_CACTVS_ROTATABLE_BOND>
1

> <PUBCHEM_CACTVS_SUBSKEYS>
AAADceB7MAAAAAAAAAAAAAAAAAAAAeIAAAA8WLFiBgAAAFixAAAAHgAQCAAADzzhmAYywIPAAgCAAiRCQACCAAAhAgAIiIAIZIgIcCLAkZGUYAhm0AHIyAew8PcPgAAAAAACAAAAAAAAAAQAASEABQAAAA==

> <PUBCHEM_IUPAC_INCHI>
InChI=1S/C19H24N2O2/c1-2-9-10-7-13-16-19(11-5-3-4-6-12(11)20-16)8-14(15(10)17(19)22)21(13)18(9)23/h3-6,9-10,13-18,20,22-23H,2,7-8H2,1H3/t9-,10-,13-,14-,15?,16-,17+,18+,19+/m0/s1

> <PUBCHEM_IUPAC_INCHIKEY>
HIOAYNMZFIHQNS-DKPBEWKJSA-N

> <PUBCHEM_XLOGP3>
1.7

> <PUBCHEM_EXACT_MASS>
312.183778

> <PUBCHEM_MOLECULAR_FORMULA>
C19H24N2O2

> <PUBCHEM_MOLECULAR_WEIGHT>
312.40606

> <PUBCHEM_OPENEYE_CAN_SMILES>
CCC1C2CC3C4C5(CC(C2C5O)N3C1O)C6=CC=CC=C6N4

> <PUBCHEM_OPENEYE_ISO_SMILES>
CC[C@H]1[C@@H]2C[C@H]3[C@H]4[C@@]5(C[C@@H](C2[C@H]5O)N3[C@@H]1O)C6=CC=CC=C6N4

> <PUBCHEM_CACTVS_TPSA>
55.7

> <PUBCHEM_MONOISOTOPIC_WEIGHT>
312.183778

> <PUBCHEM_TOTAL_CHARGE>
0

> <PUBCHEM_HEAVY_ATOM_COUNT>
23

> <PUBCHEM_ATOM_DEF_STEREO_COUNT>
8

> <PUBCHEM_ATOM_UDEF_STEREO_COUNT>
1

> <PUBCHEM_BOND_DEF_STEREO_COUNT>
0

> <PUBCHEM_BOND_UDEF_STEREO_COUNT>
0

> <PUBCHEM_ISOTOPIC_ATOM_COUNT>
0

> <PUBCHEM_COMPONENT_COUNT>
1

> <PUBCHEM_CACTVS_TAUTO_COUNT>
1

> <PUBCHEM_COORDINATE_TYPE>
1
5
255

> <PUBCHEM_BONDANNOTATIONS>
10  28  5
14  18  5
16  17  8
16  19  8
17  20  8
19  22  8
15  2  6
20  23  8
22  23  8
5  16  6
6  11  3
7  25  6
8  26  5
9  27  6

$$$$

