60803
  -OEChem-07051213042D

 39 41  0     0  0  0  0  0  0999 V2000
    6.0010    2.5000    0.0000 Cl  0  0  0  0  0  0  0  0  0  0  0  0
    6.0010    4.5000    0.0000 Cl  0  0  0  0  0  0  0  0  0  0  0  0
    2.5369    4.5000    0.0000 Cl  0  0  0  0  0  0  0  0  0  0  0  0
    4.2690   -1.5000    0.0000 N   0  0  0  0  0  0  0  0  0  0  0  0
    4.2690   -3.5000    0.0000 N   0  0  0  0  0  0  0  0  0  0  0  0
    3.4030    0.0000    0.0000 N   0  0  0  0  0  0  0  0  0  0  0  0
    5.1350    0.0000    0.0000 N   0  0  0  0  0  0  0  0  0  0  0  0
    2.5369    1.5000    0.0000 N   0  0  0  0  0  0  0  0  0  0  0  0
    3.4030   -2.0000    0.0000 C   0  0  0  0  0  0  0  0  0  0  0  0
    5.1350   -2.0000    0.0000 C   0  0  0  0  0  0  0  0  0  0  0  0
    5.1350   -3.0000    0.0000 C   0  0  0  0  0  0  0  0  0  0  0  0
    3.4030   -3.0000    0.0000 C   0  0  0  0  0  0  0  0  0  0  0  0
    4.2690   -0.5000    0.0000 C   0  0  0  0  0  0  0  0  0  0  0  0
    4.2690   -4.5000    0.0000 C   0  0  0  0  0  0  0  0  0  0  0  0
    4.2690    1.5000    0.0000 C   0  0  0  0  0  0  0  0  0  0  0  0
    3.4030    1.0000    0.0000 C   0  0  0  0  0  0  0  0  0  0  0  0
    5.1350    1.0000    0.0000 C   0  0  0  0  0  0  0  0  0  0  0  0
    4.2690    2.5000    0.0000 C   0  0  0  0  0  0  0  0  0  0  0  0
    5.1350    3.0000    0.0000 C   0  0  0  0  0  0  0  0  0  0  0  0
    3.4030    3.0000    0.0000 C   0  0  0  0  0  0  0  0  0  0  0  0
    5.1350    4.0000    0.0000 C   0  0  0  0  0  0  0  0  0  0  0  0
    3.4030    4.0000    0.0000 C   0  0  0  0  0  0  0  0  0  0  0  0
    4.2690    4.5000    0.0000 C   0  0  0  0  0  0  0  0  0  0  0  0
    3.1909   -1.4174    0.0000 H   0  0  0  0  0  0  0  0  0  0  0  0
    2.7924   -2.1077    0.0000 H   0  0  0  0  0  0  0  0  0  0  0  0
    5.7456   -2.1077    0.0000 H   0  0  0  0  0  0  0  0  0  0  0  0
    5.3471   -1.4174    0.0000 H   0  0  0  0  0  0  0  0  0  0  0  0
    5.3471   -3.5826    0.0000 H   0  0  0  0  0  0  0  0  0  0  0  0
    5.7456   -2.8923    0.0000 H   0  0  0  0  0  0  0  0  0  0  0  0
    2.7924   -2.8923    0.0000 H   0  0  0  0  0  0  0  0  0  0  0  0
    3.1909   -3.5826    0.0000 H   0  0  0  0  0  0  0  0  0  0  0  0
    3.6490   -4.5000    0.0000 H   0  0  0  0  0  0  0  0  0  0  0  0
    4.2690   -5.1200    0.0000 H   0  0  0  0  0  0  0  0  0  0  0  0
    4.8890   -4.5000    0.0000 H   0  0  0  0  0  0  0  0  0  0  0  0
    5.6720    1.3100    0.0000 H   0  0  0  0  0  0  0  0  0  0  0  0
    2.8660    2.6900    0.0000 H   0  0  0  0  0  0  0  0  0  0  0  0
    2.0000    1.1900    0.0000 H   0  0  0  0  0  0  0  0  0  0  0  0
    2.5369    2.1200    0.0000 H   0  0  0  0  0  0  0  0  0  0  0  0
    4.2690    5.1200    0.0000 H   0  0  0  0  0  0  0  0  0  0  0  0
  1 19  1  0  0  0  0
  2 21  1  0  0  0  0
  3 22  1  0  0  0  0
  4  9  1  0  0  0  0
  4 10  1  0  0  0  0
  4 13  1  0  0  0  0
  5 11  1  0  0  0  0
  5 12  1  0  0  0  0
  5 14  1  0  0  0  0
  6 13  1  0  0  0  0
  6 16  2  0  0  0  0
  7 13  2  0  0  0  0
  7 17  1  0  0  0  0
  8 16  1  0  0  0  0
  8 37  1  0  0  0  0
  8 38  1  0  0  0  0
  9 12  1  0  0  0  0
  9 24  1  0  0  0  0
  9 25  1  0  0  0  0
 10 11  1  0  0  0  0
 10 26  1  0  0  0  0
 10 27  1  0  0  0  0
 11 28  1  0  0  0  0
 11 29  1  0  0  0  0
 12 30  1  0  0  0  0
 12 31  1  0  0  0  0
 14 32  1  0  0  0  0
 14 33  1  0  0  0  0
 14 34  1  0  0  0  0
 15 16  1  0  0  0  0
 15 17  2  0  0  0  0
 15 18  1  0  0  0  0
 17 35  1  0  0  0  0
 18 19  1  0  0  0  0
 18 20  2  0  0  0  0
 19 21  2  0  0  0  0
 20 22  1  0  0  0  0
 20 36  1  0  0  0  0
 21 23  1  0  0  0  0
 22 23  2  0  0  0  0
 23 39  1  0  0  0  0
M  END
> <PUBCHEM_COMPOUND_CID>
60803

> <PUBCHEM_COMPOUND_CANONICALIZED>
1

> <PUBCHEM_CACTVS_COMPLEXITY>
393

> <PUBCHEM_CACTVS_HBOND_ACCEPTOR>
5

> <PUBCHEM_CACTVS_HBOND_DONOR>
1

> <PUBCHEM_CACTVS_ROTATABLE_BOND>
2

> <PUBCHEM_CACTVS_SUBSKEYS>
AAADceBzgAAGAAAAAAAAAAAAAAAAAAAAAAA8WIAAAAAAAAABwAAAHAIQAAAADALBGiQ/sJdIEACgAjJnZACCgCkxBaAB2mAoRpiIaKLB21GUJAgogALIyCcQgMAOgAAQIACBAAQAACBAAQIACAAAAAAAAA==

> <PUBCHEM_IUPAC_OPENEYE_NAME>
2-(4-methylpiperazin-1-yl)-5-(2,3,5-trichlorophenyl)pyrimidin-4-amine

> <PUBCHEM_IUPAC_CAS_NAME>
2-(4-methyl-1-piperazinyl)-5-(2,3,5-trichlorophenyl)-4-pyrimidinamine

> <PUBCHEM_IUPAC_NAME>
2-(4-methylpiperazin-1-yl)-5-(2,3,5-trichlorophenyl)pyrimidin-4-amine

> <PUBCHEM_IUPAC_SYSTEMATIC_NAME>
2-(4-methylpiperazin-1-yl)-5-[2,3,5-tris(chloranyl)phenyl]pyrimidin-4-amine

> <PUBCHEM_IUPAC_TRADITIONAL_NAME>
[2-(4-methylpiperazino)-5-(2,3,5-trichlorophenyl)pyrimidin-4-yl]amine

> <PUBCHEM_IUPAC_INCHI>
InChI=1S/C15H16Cl3N5/c1-22-2-4-23(5-3-22)15-20-8-11(14(19)21-15)10-6-9(16)7-12(17)13(10)18/h6-8H,2-5H2,1H3,(H2,19,20,21)

> <PUBCHEM_IUPAC_INCHIKEY>
PDOCBJADCWMDGL-UHFFFAOYSA-N

> <PUBCHEM_XLOGP3_AA>
3.6

> <PUBCHEM_EXACT_MASS>
371.047129

> <PUBCHEM_MOLECULAR_FORMULA>
C15H16Cl3N5

> <PUBCHEM_MOLECULAR_WEIGHT>
372.68004

> <PUBCHEM_OPENEYE_CAN_SMILES>
CN1CCN(CC1)C2=NC=C(C(=N2)N)C3=CC(=CC(=C3Cl)Cl)Cl

> <PUBCHEM_OPENEYE_ISO_SMILES>
CN1CCN(CC1)C2=NC=C(C(=N2)N)C3=CC(=CC(=C3Cl)Cl)Cl

> <PUBCHEM_CACTVS_TPSA>
58.3

> <PUBCHEM_MONOISOTOPIC_WEIGHT>
371.047129

> <PUBCHEM_TOTAL_CHARGE>
0

> <PUBCHEM_HEAVY_ATOM_COUNT>
23

> <PUBCHEM_ATOM_DEF_STEREO_COUNT>
0

> <PUBCHEM_ATOM_UDEF_STEREO_COUNT>
0

> <PUBCHEM_BOND_DEF_STEREO_COUNT>
0

> <PUBCHEM_BOND_UDEF_STEREO_COUNT>
0

> <PUBCHEM_ISOTOPIC_ATOM_COUNT>
0

> <PUBCHEM_COMPONENT_COUNT>
1

> <PUBCHEM_CACTVS_TAUTO_COUNT>
3

> <PUBCHEM_COORDINATE_TYPE>
1
5
255

> <PUBCHEM_BONDANNOTATIONS>
15  16  8
15  17  8
18  19  8
18  20  8
19  21  8
20  22  8
21  23  8
22  23  8
6  13  8
6  16  8
7  13  8
7  17  8

$$$$

