161240
  -OEChem-07051212493D

 43 44  0     1  0  0  0  0  0999 V2000
   -1.5208    2.0279    1.8124 O   0  0  0  0  0  0  0  0  0  0  0  0
   -0.5525   -2.4220   -0.5782 O   0  0  0  0  0  0  0  0  0  0  0  0
   -1.2784   -2.0042    1.5292 O   0  0  0  0  0  0  0  0  0  0  0  0
   -0.8650    2.5446   -0.3559 N   0  0  0  0  0  0  0  0  0  0  0  0
    2.2585   -1.0278    1.7272 N   0  0  0  0  0  0  0  0  0  0  0  0
   -3.8829   -2.3633    0.6533 N   0  0  0  0  0  0  0  0  0  0  0  0
   -2.1095    0.1067   -1.6674 C   0  0  0  0  0  0  0  0  0  0  0  0
   -2.3510    1.5672   -2.0702 C   0  0  0  0  0  0  0  0  0  0  0  0
   -3.1198   -0.4411   -0.6543 C   0  0  0  0  0  0  0  0  0  0  0  0
   -2.1730    2.5821   -0.9446 C   0  0  0  0  0  0  0  0  0  0  0  0
   -2.8743   -1.9164   -0.3111 C   0  0  1  0  0  0  0  0  0  0  0  0
    1.4948    0.9739    1.2208 C   0  0  0  0  0  0  0  0  0  0  0  0
    0.8386    2.3135    1.3374 C   0  0  0  0  0  0  0  0  0  0  0  0
    2.1083    0.4498    0.0625 C   0  0  0  0  0  0  0  0  0  0  0  0
    2.5842   -0.8174    0.4062 C   0  0  0  0  0  0  0  0  0  0  0  0
   -0.6394    2.2674    0.9910 C   0  0  0  0  0  0  0  0  0  0  0  0
    1.5949    0.0595    2.2289 C   0  0  0  0  0  0  0  0  0  0  0  0
    2.3125    0.9176   -1.2509 C   0  0  0  0  0  0  0  0  0  0  0  0
   -1.5135   -2.1185    0.3327 C   0  0  0  0  0  0  0  0  0  0  0  0
    3.2569   -1.6433   -0.5014 C   0  0  0  0  0  0  0  0  0  0  0  0
    2.9838    0.1023   -2.1694 C   0  0  0  0  0  0  0  0  0  0  0  0
    3.4478   -1.1581   -1.7982 C   0  0  0  0  0  0  0  0  0  0  0  0
   -1.0892    0.0141   -1.2811 H   0  0  0  0  0  0  0  0  0  0  0  0
   -2.1547   -0.5083   -2.5751 H   0  0  0  0  0  0  0  0  0  0  0  0
   -1.6504    1.8132   -2.8785 H   0  0  0  0  0  0  0  0  0  0  0  0
   -3.3597    1.6684   -2.4881 H   0  0  0  0  0  0  0  0  0  0  0  0
   -3.0712    0.1574    0.2634 H   0  0  0  0  0  0  0  0  0  0  0  0
   -4.1322   -0.3208   -1.0607 H   0  0  0  0  0  0  0  0  0  0  0  0
   -2.9407    2.4436   -0.1769 H   0  0  0  0  0  0  0  0  0  0  0  0
   -2.3048    3.5915   -1.3497 H   0  0  0  0  0  0  0  0  0  0  0  0
   -2.9470   -2.5437   -1.2067 H   0  0  0  0  0  0  0  0  0  0  0  0
    0.9250    2.6876    2.3653 H   0  0  0  0  0  0  0  0  0  0  0  0
    1.3515    3.0494    0.7066 H   0  0  0  0  0  0  0  0  0  0  0  0
   -0.0777    2.7752   -0.9538 H   0  0  0  0  0  0  0  0  0  0  0  0
    1.2583    0.0724    3.2562 H   0  0  0  0  0  0  0  0  0  0  0  0
    2.4771   -1.8647    2.2498 H   0  0  0  0  0  0  0  0  0  0  0  0
    1.9638    1.8986   -1.5587 H   0  0  0  0  0  0  0  0  0  0  0  0
   -4.8134   -2.2416    0.2550 H   0  0  0  0  0  0  0  0  0  0  0  0
   -3.7754   -3.3634    0.8202 H   0  0  0  0  0  0  0  0  0  0  0  0
    3.6179   -2.6250   -0.2136 H   0  0  0  0  0  0  0  0  0  0  0  0
    3.1451    0.4584   -3.1834 H   0  0  0  0  0  0  0  0  0  0  0  0
    3.9665   -1.7747   -2.5278 H   0  0  0  0  0  0  0  0  0  0  0  0
    0.3226   -2.5528   -0.1557 H   0  0  0  0  0  0  0  0  0  0  0  0
  1 16  2  0  0  0  0
  2 19  1  0  0  0  0
  2 43  1  0  0  0  0
  3 19  2  0  0  0  0
  4 10  1  0  0  0  0
  4 16  1  0  0  0  0
  4 34  1  0  0  0  0
  5 15  1  0  0  0  0
  5 17  1  0  0  0  0
  5 36  1  0  0  0  0
  6 11  1  0  0  0  0
  6 38  1  0  0  0  0
  6 39  1  0  0  0  0
  7  8  1  0  0  0  0
  7  9  1  0  0  0  0
  7 23  1  0  0  0  0
  7 24  1  0  0  0  0
  8 10  1  0  0  0  0
  8 25  1  0  0  0  0
  8 26  1  0  0  0  0
  9 11  1  0  0  0  0
  9 27  1  0  0  0  0
  9 28  1  0  0  0  0
 10 29  1  0  0  0  0
 10 30  1  0  0  0  0
 11 19  1  0  0  0  0
 11 31  1  0  0  0  0
 12 13  1  0  0  0  0
 12 14  1  0  0  0  0
 12 17  2  0  0  0  0
 13 16  1  0  0  0  0
 13 32  1  0  0  0  0
 13 33  1  0  0  0  0
 14 15  1  0  0  0  0
 14 18  2  0  0  0  0
 15 20  2  0  0  0  0
 17 35  1  0  0  0  0
 18 21  1  0  0  0  0
 18 37  1  0  0  0  0
 20 22  1  0  0  0  0
 20 40  1  0  0  0  0
 21 22  2  0  0  0  0
 21 41  1  0  0  0  0
 22 42  1  0  0  0  0
M  END
> <PUBCHEM_COMPOUND_CID>
161240

> <PUBCHEM_CONFORMER_RMSD>
1

> <PUBCHEM_CONFORMER_DIVERSEORDER>
3
231
64
10
318
160
140
352
20
170
24
107
47
270
210
132
12
366
225
50
139
300
85
227
28
213
129
350
206
202
346
311
55
137
102
18
187
58
290
305
15
99
208
62
238
400
173
370
193
72
136
367
101
74
34
42
33
251
280
30
61
45
89
226
329
385
75
162
9
302
277
71
174
267
131
2
119
172
347
177
218
126
78
181
13
217
221
97
118
313
198
384
105
141
209
380
39
48
250
195
337
396
373
185
215
248
349
304
165
375
123
106
186
60
95
240
4
322
216
374
297
279
214
197
148
188
112
199
190
109
245
35
191
286
212
178
23
90
364
32
46
369
22
399
116
283
262
125
86
124
88
360
70
306
192
27
252
143
334
355
76
204
38
266
120
145
79
392
73
269
96
150
91
239
161
230
246
228
390
317
68
1
233
117
5
100
362
19
211
201
87
183
315
115
21
224
182
388
278
232
103
319
163
351
397
330
241
244
324
196
63
94
164
265
343
82
17
127
43
83
176
203
184
37
365
6
142
276
243
54
389
80
296
159
52
261
205
113
383
121
393
249
130
84
323
234
331
25
287
312
36
301
361
220
314
149
29
219
59
235
11
378
282
111
387
395
229
67
377
344
108
168
260
222
128
292
284
321
7
354
14
207
154
158
291
256
175
320
363
110
285
189
294
138
273
309
66
200
114
357
394
44
104
264
152
281
376
242
144
56
134
341
257
307
171
16
57
398
155
167
151
156
98
8
327
328
81
31
272
345
133
338
92
295
179
303
169
336
157
53
255
49
146
254
26
359
147
358
77
316
342
69
289
253
153
41
166
135
223
194
293
258
40
298
340
333
93
356
382
268
391
379
271
348
381
275
325
299
237
326
308
353
332
371
372
180
51
310
288
368
259
236
247
386
335
122
263
274
65
339

> <PUBCHEM_MMFF94_PARTIAL_CHARGES>
28
1 -0.57
10 0.3
11 0.33
12 -0.18
13 0.24
15 -0.15
16 0.57
17 -0.3
18 -0.15
19 0.66
2 -0.65
20 -0.15
21 -0.15
22 -0.15
3 -0.57
34 0.37
35 0.15
36 0.27
37 0.15
38 0.36
39 0.36
4 -0.73
40 0.15
41 0.15
42 0.15
43 0.5
5 0.03
6 -0.99

> <PUBCHEM_EFFECTIVE_ROTOR_COUNT>
9

> <PUBCHEM_PHARMACOPHORE_FEATURES>
11
1 1 acceptor
1 2 acceptor
1 3 acceptor
1 4 donor
1 5 cation
1 5 donor
1 6 cation
1 6 donor
3 2 3 19 anion
5 5 12 14 15 17 rings
6 14 15 18 20 21 22 rings

> <PUBCHEM_HEAVY_ATOM_COUNT>
22

> <PUBCHEM_ATOM_DEF_STEREO_COUNT>
1

> <PUBCHEM_ATOM_UDEF_STEREO_COUNT>
0

> <PUBCHEM_BOND_DEF_STEREO_COUNT>
0

> <PUBCHEM_BOND_UDEF_STEREO_COUNT>
0

> <PUBCHEM_ISOTOPIC_ATOM_COUNT>
0

> <PUBCHEM_COMPONENT_COUNT>
1

> <PUBCHEM_CACTVS_TAUTO_COUNT>
2

> <PUBCHEM_CONFORMER_ID>
000275D800000003

> <PUBCHEM_MMFF94_ENERGY>
22.7167

> <PUBCHEM_FEATURE_SELFOVERLAP>
55.969

> <PUBCHEM_SHAPE_FINGERPRINT>
11140007 195 17969485036436833283
11582403 64 15303747883517089648
12156800 1 9721151978009455385
12363563 72 17677631880555323724
13009979 54 17344936150475153202
14251740 79 18196918067233409454
14251751 93 17843665893139381758
15415430 2 18042975460975493037
15635459 17 18119823408342980823
15664445 248 17486212210898041045
16752209 62 18270411601955404837
17357779 13 17749110010712038430
20397935 3 18270415913823118500
20600515 1 18123218893776938760
22889148 1 18272079534918950233
23419403 2 16878229757543643250
2818148 4 18192133009708944755
35225 105 18118664737983635621
3797600 57 15840143269538159771
445580 2 8211659088765063572
576247 118 18041266678182525524
6287921 2 16609386717099286298

> <PUBCHEM_SHAPE_MULTIPOLES>
420.2
5.86
3.27
2.29
0.09
0.29
0.1
-2.88
2.24
2.6
-0.61
-0.84
0.52
1.08

> <PUBCHEM_SHAPE_SELFOVERLAP>
876.38

> <PUBCHEM_SHAPE_VOLUME>
238.3

> <PUBCHEM_COORDINATE_TYPE>
2
5
10

$$$$

