73000
  -OEChem-07051212442D

 17 18  0     0  0  0  0  0  0999 V2000
    4.2690    1.8100    0.0000 O   0  0  0  0  0  0  0  0  0  0  0  0
    4.2690   -1.1900    0.0000 N   0  0  0  0  0  0  0  0  0  0  0  0
    3.4030    0.3100    0.0000 N   0  0  0  0  0  0  0  0  0  0  0  0
    6.0290   -1.2247    0.0000 N   0  0  0  0  0  0  0  0  0  0  0  0
    6.0290    0.8447    0.0000 N   0  0  0  0  0  0  0  0  0  0  0  0
    2.5369   -1.1900    0.0000 N   0  0  0  0  0  0  0  0  0  0  0  0
    5.1350   -0.6900    0.0000 C   0  0  0  0  0  0  0  0  0  0  0  0
    5.1350    0.3100    0.0000 C   0  0  0  0  0  0  0  0  0  0  0  0
    3.4030   -0.6900    0.0000 C   0  0  0  0  0  0  0  0  0  0  0  0
    4.2690    0.8100    0.0000 C   0  0  0  0  0  0  0  0  0  0  0  0
    6.9350   -0.7108    0.0000 C   0  0  0  0  0  0  0  0  0  0  0  0
    6.9350    0.3308    0.0000 C   0  0  0  0  0  0  0  0  0  0  0  0
    4.2690   -1.8100    0.0000 H   0  0  0  0  0  0  0  0  0  0  0  0
    7.4708   -1.0229    0.0000 H   0  0  0  0  0  0  0  0  0  0  0  0
    7.4708    0.6429    0.0000 H   0  0  0  0  0  0  0  0  0  0  0  0
    2.0000   -0.8800    0.0000 H   0  0  0  0  0  0  0  0  0  0  0  0
    2.5369   -1.8100    0.0000 H   0  0  0  0  0  0  0  0  0  0  0  0
  1 10  2  0  0  0  0
  2  7  1  0  0  0  0
  2  9  1  0  0  0  0
  2 13  1  0  0  0  0
  3  9  2  0  0  0  0
  3 10  1  0  0  0  0
  4  7  2  0  0  0  0
  4 11  1  0  0  0  0
  5  8  2  0  0  0  0
  5 12  1  0  0  0  0
  6  9  1  0  0  0  0
  6 16  1  0  0  0  0
  6 17  1  0  0  0  0
  7  8  1  0  0  0  0
  8 10  1  0  0  0  0
 11 12  2  0  0  0  0
 11 14  1  0  0  0  0
 12 15  1  0  0  0  0
M  END
> <PUBCHEM_COMPOUND_CID>
73000

> <PUBCHEM_COMPOUND_CANONICALIZED>
1

> <PUBCHEM_CACTVS_COMPLEXITY>
238

> <PUBCHEM_CACTVS_HBOND_ACCEPTOR>
3

> <PUBCHEM_CACTVS_HBOND_DONOR>
2

> <PUBCHEM_CACTVS_ROTATABLE_BOND>
0

> <PUBCHEM_CACTVS_SUBSKEYS>
AAADcYBjoAAAAAAAAAAAAAAAAAAAAAAAAAAsQAAAAAAAAACBgAAAHgAQAAAACAjBlgQtsBLIEACoARd3dACAgC0XEiAJUAG4dECAQEhASCAUAIAIAALAAGAAAAAAAAAAAAAAAAAAAAAAAAAAAAAAAAAAAA==

> <PUBCHEM_IUPAC_OPENEYE_NAME>
2-amino-1H-pteridin-4-one

> <PUBCHEM_IUPAC_CAS_NAME>
2-amino-1H-pteridin-4-one

> <PUBCHEM_IUPAC_NAME>
2-amino-1H-pteridin-4-one

> <PUBCHEM_IUPAC_SYSTEMATIC_NAME>
2-azanyl-1H-pteridin-4-one

> <PUBCHEM_IUPAC_TRADITIONAL_NAME>
2-amino-1H-pteridin-4-one

> <PUBCHEM_IUPAC_INCHI>
InChI=1S/C6H5N5O/c7-6-10-4-3(5(12)11-6)8-1-2-9-4/h1-2H,(H3,7,9,10,11,12)

> <PUBCHEM_IUPAC_INCHIKEY>
HNXQXTQTPAJEJL-UHFFFAOYSA-N

> <PUBCHEM_XLOGP3_AA>
-1.4

> <PUBCHEM_EXACT_MASS>
163.04941

> <PUBCHEM_MOLECULAR_FORMULA>
C6H5N5O

> <PUBCHEM_MOLECULAR_WEIGHT>
163.1368

> <PUBCHEM_OPENEYE_CAN_SMILES>
C1=CN=C2C(=N1)C(=O)N=C(N2)N

> <PUBCHEM_OPENEYE_ISO_SMILES>
C1=CN=C2C(=N1)C(=O)N=C(N2)N

> <PUBCHEM_CACTVS_TPSA>
93.3

> <PUBCHEM_MONOISOTOPIC_WEIGHT>
163.04941

> <PUBCHEM_TOTAL_CHARGE>
0

> <PUBCHEM_HEAVY_ATOM_COUNT>
12

> <PUBCHEM_ATOM_DEF_STEREO_COUNT>
0

> <PUBCHEM_ATOM_UDEF_STEREO_COUNT>
0

> <PUBCHEM_BOND_DEF_STEREO_COUNT>
0

> <PUBCHEM_BOND_UDEF_STEREO_COUNT>
0

> <PUBCHEM_ISOTOPIC_ATOM_COUNT>
0

> <PUBCHEM_COMPONENT_COUNT>
1

> <PUBCHEM_CACTVS_TAUTO_COUNT>
12

> <PUBCHEM_COORDINATE_TYPE>
1
5
255

> <PUBCHEM_BONDANNOTATIONS>
11  12  8
2  7  8
2  9  8
3  10  8
3  9  8
4  11  8
4  7  8
5  12  8
5  8  8
7  8  8
8  10  8

$$$$

