91457
  -OEChem-07051212573D

 42 43  0     1  0  0  0  0  0999 V2000
   -3.0729    0.2492    1.3614 O   0  0  0  0  0  0  0  0  0  0  0  0
    1.2007   -1.0123    0.1414 C   0  0  1  0  0  0  0  0  0  0  0  0
    0.8674    0.4069   -0.4162 C   0  0  1  0  0  0  0  0  0  0  0  0
   -1.6123   -0.1553   -0.5006 C   0  0  1  0  0  0  0  0  0  0  0  0
   -0.5555    0.8552   -0.0269 C   0  0  0  0  0  0  0  0  0  0  0  0
    0.1154   -2.0097   -0.3372 C   0  0  0  0  0  0  0  0  0  0  0  0
   -1.3092   -1.5703    0.0051 C   0  0  0  0  0  0  0  0  0  0  0  0
    2.5759   -1.4661   -0.4249 C   0  0  0  0  0  0  0  0  0  0  0  0
    1.9930    1.3807   -0.0953 C   0  0  0  0  0  0  0  0  0  0  0  0
   -3.0097    0.2833   -0.0649 C   0  0  0  0  0  0  0  0  0  0  0  0
    3.7017   -0.4585   -0.1680 C   0  0  0  0  0  0  0  0  0  0  0  0
    1.2629   -1.0360    1.6891 C   0  0  0  0  0  0  0  0  0  0  0  0
    3.3367    0.9501   -0.6364 C   0  0  0  0  0  0  0  0  0  0  0  0
   -4.0751   -0.6600   -0.6215 C   0  0  0  0  0  0  0  0  0  0  0  0
   -3.2824    1.7206   -0.5033 C   0  0  0  0  0  0  0  0  0  0  0  0
    1.8635    2.5223    0.5983 C   0  0  0  0  0  0  0  0  0  0  0  0
    0.8577    0.3322   -1.5158 H   0  0  0  0  0  0  0  0  0  0  0  0
   -1.5767   -0.1777   -1.5995 H   0  0  0  0  0  0  0  0  0  0  0  0
   -0.6263    1.0107    1.0559 H   0  0  0  0  0  0  0  0  0  0  0  0
   -0.7290    1.8269   -0.5034 H   0  0  0  0  0  0  0  0  0  0  0  0
    0.2989   -3.0035    0.0907 H   0  0  0  0  0  0  0  0  0  0  0  0
    0.1840   -2.1285   -1.4270 H   0  0  0  0  0  0  0  0  0  0  0  0
   -1.9872   -2.2975   -0.4550 H   0  0  0  0  0  0  0  0  0  0  0  0
   -1.4620   -1.6467    1.0871 H   0  0  0  0  0  0  0  0  0  0  0  0
    2.4923   -1.6147   -1.5100 H   0  0  0  0  0  0  0  0  0  0  0  0
    2.8589   -2.4384   -0.0026 H   0  0  0  0  0  0  0  0  0  0  0  0
    4.6082   -0.7897   -0.6885 H   0  0  0  0  0  0  0  0  0  0  0  0
    3.9507   -0.4405    0.8995 H   0  0  0  0  0  0  0  0  0  0  0  0
    0.3105   -0.7595    2.1499 H   0  0  0  0  0  0  0  0  0  0  0  0
    1.5162   -2.0399    2.0494 H   0  0  0  0  0  0  0  0  0  0  0  0
    2.0154   -0.3492    2.0877 H   0  0  0  0  0  0  0  0  0  0  0  0
    3.2968    0.9716   -1.7329 H   0  0  0  0  0  0  0  0  0  0  0  0
    4.1325    1.6435   -0.3393 H   0  0  0  0  0  0  0  0  0  0  0  0
   -5.0794   -0.2763   -0.4042 H   0  0  0  0  0  0  0  0  0  0  0  0
   -3.9892   -0.7760   -1.7068 H   0  0  0  0  0  0  0  0  0  0  0  0
   -4.0406   -1.6473   -0.1498 H   0  0  0  0  0  0  0  0  0  0  0  0
   -2.7105    2.4514    0.0784 H   0  0  0  0  0  0  0  0  0  0  0  0
   -4.3328    1.9818   -0.3237 H   0  0  0  0  0  0  0  0  0  0  0  0
   -3.0842    1.8672   -1.5702 H   0  0  0  0  0  0  0  0  0  0  0  0
    0.9133    2.8520    1.0013 H   0  0  0  0  0  0  0  0  0  0  0  0
    2.7190    3.1634    0.7858 H   0  0  0  0  0  0  0  0  0  0  0  0
   -3.9670    0.5228    1.6289 H   0  0  0  0  0  0  0  0  0  0  0  0
  1 10  1  0  0  0  0
  1 42  1  0  0  0  0
  2  3  1  0  0  0  0
  2  6  1  0  0  0  0
  2  8  1  0  0  0  0
  2 12  1  0  0  0  0
  3  5  1  0  0  0  0
  3  9  1  0  0  0  0
  3 17  1  0  0  0  0
  4  5  1  0  0  0  0
  4  7  1  0  0  0  0
  4 10  1  0  0  0  0
  4 18  1  0  0  0  0
  5 19  1  0  0  0  0
  5 20  1  0  0  0  0
  6  7  1  0  0  0  0
  6 21  1  0  0  0  0
  6 22  1  0  0  0  0
  7 23  1  0  0  0  0
  7 24  1  0  0  0  0
  8 11  1  0  0  0  0
  8 25  1  0  0  0  0
  8 26  1  0  0  0  0
  9 13  1  0  0  0  0
  9 16  2  0  0  0  0
 10 14  1  0  0  0  0
 10 15  1  0  0  0  0
 11 13  1  0  0  0  0
 11 27  1  0  0  0  0
 11 28  1  0  0  0  0
 12 29  1  0  0  0  0
 12 30  1  0  0  0  0
 12 31  1  0  0  0  0
 13 32  1  0  0  0  0
 13 33  1  0  0  0  0
 14 34  1  0  0  0  0
 14 35  1  0  0  0  0
 14 36  1  0  0  0  0
 15 37  1  0  0  0  0
 15 38  1  0  0  0  0
 15 39  1  0  0  0  0
 16 40  1  0  0  0  0
 16 41  1  0  0  0  0
M  END
> <PUBCHEM_COMPOUND_CID>
91457

> <PUBCHEM_CONFORMER_RMSD>
0.6

> <PUBCHEM_CONFORMER_DIVERSEORDER>
1
2
3

> <PUBCHEM_MMFF94_PARTIAL_CHARGES>
9
1 -0.68
10 0.28
13 0.14
16 -0.3
3 0.14
40 0.15
41 0.15
42 0.4
9 -0.28

> <PUBCHEM_EFFECTIVE_ROTOR_COUNT>
2.4

> <PUBCHEM_PHARMACOPHORE_FEATURES>
5
1 1 acceptor
1 1 donor
3 10 14 15 hydrophobe
6 2 3 4 5 6 7 rings
6 2 3 8 9 11 13 rings

> <PUBCHEM_HEAVY_ATOM_COUNT>
16

> <PUBCHEM_ATOM_DEF_STEREO_COUNT>
3

> <PUBCHEM_ATOM_UDEF_STEREO_COUNT>
0

> <PUBCHEM_BOND_DEF_STEREO_COUNT>
0

> <PUBCHEM_BOND_UDEF_STEREO_COUNT>
0

> <PUBCHEM_ISOTOPIC_ATOM_COUNT>
0

> <PUBCHEM_COMPONENT_COUNT>
1

> <PUBCHEM_CACTVS_TAUTO_COUNT>
1

> <PUBCHEM_CONFORMER_ID>
0001654100000001

> <PUBCHEM_MMFF94_ENERGY>
44.4322

> <PUBCHEM_FEATURE_SELFOVERLAP>
25.386

> <PUBCHEM_SHAPE_FINGERPRINT>
10608611 8 18411140203696589981
10967382 1 18409729547558002500
10980938 120 18411982472700624422
11132069 177 18409173233482053646
11471102 20 18410576188707064086
11615757 297 18260826003649684289
12491281 212 18335970983188293794
12654215 9 18270124646389603244
12932764 1 17845940727089463839
13140716 1 18338517422101028810
13221675 6 18411419509651402150
13380535 21 18340475656573435878
13380535 76 18411138000399622046
13897977 150 18337391526314956532
14144814 61 18408604764268836173
14251717 144 18410015437571267463
14289901 80 15554443024402753087
14648413 74 18336546006532082890
14993402 34 18335983142230321694
15196674 1 18411138060439116724
15309172 13 18408879663909319819
15536298 74 18333734589575260532
15775835 57 18343016662362857012
16945 1 18409445873726841246
17802600 8 18411426102568613413
17844478 74 17917702513670786517
18186145 218 18114173133857024844
19422 9 18040994059655089599
200 152 18113626677321552647
20233049 118 18342177825348850460
20645477 70 18341056302140361095
21501502 16 18266179427070885134
21524375 3 18411982420892296927
21639500 275 18335431148780644597
22094290 62 18409448051264749764
22854114 111 18412262817842622804
231179 274 17917721205146802430
2334 1 18122343467429407494
23402539 116 18188780568901736766
23402655 69 18335706061231917461
23493267 7 17346599698709650977
23557571 272 16444497601457409815
23558518 356 17623857820826167200
25 1 18413666920277477814
2748010 2 18122620557307857966
3060560 45 18335426789272788430
3286 77 18413395327761948718
5104073 3 18411138051833358505
528886 8 18335422361499148254
53812653 166 18410856517159738432
5939293 188 18337963388473703716
69090 78 18335141942746789047
7364860 26 18261397711036225252
74978 22 18334579005630595311
7832392 63 18335423448020164902
81228 2 17550389540126406179
9981440 41 17401496948880851336

> <PUBCHEM_SHAPE_MULTIPOLES>
323.4
6.37
2.17
1.01
3.1
0.5
-0.38
1
0.87
-0.73
-0.08
0
-0.11
0.02

> <PUBCHEM_SHAPE_SELFOVERLAP>
660.303

> <PUBCHEM_SHAPE_VOLUME>
186.2

> <PUBCHEM_COORDINATE_TYPE>
2
5
10

$$$$

