234906
  -OEChem-07051213063D

 57 60  0     1  0  0  0  0  0999 V2000
   -1.0855   -0.2280   -2.1888 Br  0  0  0  0  0  0  0  0  0  0  0  0
   -0.1191    2.4441    0.9074 O   0  0  0  0  0  0  0  0  0  0  0  0
    5.3735    0.6593    0.7769 O   0  0  0  0  0  0  0  0  0  0  0  0
   -6.1987   -0.2069   -1.0556 O   0  0  0  0  0  0  0  0  0  0  0  0
    2.1785    0.3705    0.1232 C   0  0  1  0  0  0  0  0  0  0  0  0
    1.3780   -0.9367   -0.0516 C   0  0  2  0  0  0  0  0  0  0  0  0
   -0.0518   -0.8488    0.5022 C   0  0  1  0  0  0  0  0  0  0  0  0
   -0.8581    0.3232   -0.1716 C   0  0  2  0  0  0  0  0  0  0  0  0
    3.5137   -0.0840   -0.5204 C   0  0  2  0  0  0  0  0  0  0  0  0
    1.4553    1.4903   -0.6494 C   0  0  0  0  0  0  0  0  0  0  0  0
    2.3257   -2.0069    0.4877 C   0  0  0  0  0  0  0  0  0  0  0  0
   -2.3380    0.4392    0.4220 C   0  0  2  0  0  0  0  0  0  0  0  0
   -0.0395    1.6571   -0.2762 C   0  0  2  0  0  0  0  0  0  0  0  0
    3.7239   -1.5244    0.0244 C   0  0  1  0  0  0  0  0  0  0  0  0
   -0.7919   -2.1961    0.4192 C   0  0  0  0  0  0  0  0  0  0  0  0
    2.4126    0.7773    1.6019 C   0  0  0  0  0  0  0  0  0  0  0  0
   -3.0138   -0.9400    0.3538 C   0  0  0  0  0  0  0  0  0  0  0  0
   -2.2312   -2.1057    0.9203 C   0  0  0  0  0  0  0  0  0  0  0  0
   -3.1678    1.5278   -0.3309 C   0  0  0  0  0  0  0  0  0  0  0  0
   -2.3589    0.8335    1.9277 C   0  0  0  0  0  0  0  0  0  0  0  0
    4.6717    0.8193   -0.2205 C   0  0  0  0  0  0  0  0  0  0  0  0
    4.3240   -2.4424   -1.0364 C   0  0  0  0  0  0  0  0  0  0  0  0
   -4.6689    1.3876   -0.1275 C   0  0  0  0  0  0  0  0  0  0  0  0
   -4.2531   -1.1399   -0.1243 C   0  0  0  0  0  0  0  0  0  0  0  0
   -5.1157    0.0005   -0.5124 C   0  0  0  0  0  0  0  0  0  0  0  0
    4.9352    1.9300   -1.2010 C   0  0  0  0  0  0  0  0  0  0  0  0
    1.2998   -1.1539   -1.1264 H   0  0  0  0  0  0  0  0  0  0  0  0
    0.0333   -0.6265    1.5706 H   0  0  0  0  0  0  0  0  0  0  0  0
    3.4056   -0.1337   -1.6131 H   0  0  0  0  0  0  0  0  0  0  0  0
    1.5243    1.2854   -1.7250 H   0  0  0  0  0  0  0  0  0  0  0  0
    1.9705    2.4440   -0.4845 H   0  0  0  0  0  0  0  0  0  0  0  0
    2.2829   -2.0537    1.5820 H   0  0  0  0  0  0  0  0  0  0  0  0
    2.0766   -3.0026    0.1060 H   0  0  0  0  0  0  0  0  0  0  0  0
   -0.4862    2.2930   -1.0501 H   0  0  0  0  0  0  0  0  0  0  0  0
    4.3956   -1.5463    0.8907 H   0  0  0  0  0  0  0  0  0  0  0  0
   -0.2654   -2.9419    1.0278 H   0  0  0  0  0  0  0  0  0  0  0  0
   -0.7813   -2.5908   -0.6030 H   0  0  0  0  0  0  0  0  0  0  0  0
    3.1056    0.1057    2.1192 H   0  0  0  0  0  0  0  0  0  0  0  0
    2.8371    1.7858    1.6656 H   0  0  0  0  0  0  0  0  0  0  0  0
    1.5022    0.7701    2.2006 H   0  0  0  0  0  0  0  0  0  0  0  0
   -2.2187   -2.0127    2.0137 H   0  0  0  0  0  0  0  0  0  0  0  0
   -2.7327   -3.0582    0.7076 H   0  0  0  0  0  0  0  0  0  0  0  0
   -2.9933    1.4955   -1.4097 H   0  0  0  0  0  0  0  0  0  0  0  0
   -2.8561    2.5319   -0.0170 H   0  0  0  0  0  0  0  0  0  0  0  0
   -1.6317    0.2778    2.5254 H   0  0  0  0  0  0  0  0  0  0  0  0
   -2.1649    1.8993    2.0796 H   0  0  0  0  0  0  0  0  0  0  0  0
   -3.3412    0.6413    2.3781 H   0  0  0  0  0  0  0  0  0  0  0  0
    3.6743   -2.5178   -1.9149 H   0  0  0  0  0  0  0  0  0  0  0  0
    5.2995   -2.0690   -1.3649 H   0  0  0  0  0  0  0  0  0  0  0  0
    4.4663   -3.4517   -0.6364 H   0  0  0  0  0  0  0  0  0  0  0  0
    0.0014    1.8649    1.6741 H   0  0  0  0  0  0  0  0  0  0  0  0
   -5.1884    2.1115   -0.7652 H   0  0  0  0  0  0  0  0  0  0  0  0
   -4.9631    1.5793    0.9091 H   0  0  0  0  0  0  0  0  0  0  0  0
   -4.6979   -2.1279   -0.1732 H   0  0  0  0  0  0  0  0  0  0  0  0
    5.0333    1.5198   -2.2091 H   0  0  0  0  0  0  0  0  0  0  0  0
    4.1298    2.6645   -1.1682 H   0  0  0  0  0  0  0  0  0  0  0  0
    5.8735    2.4284   -0.9406 H   0  0  0  0  0  0  0  0  0  0  0  0
  1  8  1  0  0  0  0
  2 13  1  0  0  0  0
  2 51  1  0  0  0  0
  3 21  2  0  0  0  0
  4 25  2  0  0  0  0
  5  6  1  0  0  0  0
  5  9  1  0  0  0  0
  5 10  1  0  0  0  0
  5 16  1  0  0  0  0
  6  7  1  0  0  0  0
  6 11  1  0  0  0  0
  6 27  1  0  0  0  0
  7  8  1  0  0  0  0
  7 15  1  0  0  0  0
  7 28  1  0  0  0  0
  8 12  1  0  0  0  0
  8 13  1  0  0  0  0
  9 14  1  0  0  0  0
  9 21  1  0  0  0  0
  9 29  1  0  0  0  0
 10 13  1  0  0  0  0
 10 30  1  0  0  0  0
 10 31  1  0  0  0  0
 11 14  1  0  0  0  0
 11 32  1  0  0  0  0
 11 33  1  0  0  0  0
 12 17  1  0  0  0  0
 12 19  1  0  0  0  0
 12 20  1  0  0  0  0
 13 34  1  0  0  0  0
 14 22  1  0  0  0  0
 14 35  1  0  0  0  0
 15 18  1  0  0  0  0
 15 36  1  0  0  0  0
 15 37  1  0  0  0  0
 16 38  1  0  0  0  0
 16 39  1  0  0  0  0
 16 40  1  0  0  0  0
 17 18  1  0  0  0  0
 17 24  2  0  0  0  0
 18 41  1  0  0  0  0
 18 42  1  0  0  0  0
 19 23  1  0  0  0  0
 19 43  1  0  0  0  0
 19 44  1  0  0  0  0
 20 45  1  0  0  0  0
 20 46  1  0  0  0  0
 20 47  1  0  0  0  0
 21 26  1  0  0  0  0
 22 48  1  0  0  0  0
 22 49  1  0  0  0  0
 22 50  1  0  0  0  0
 23 25  1  0  0  0  0
 23 52  1  0  0  0  0
 23 53  1  0  0  0  0
 24 25  1  0  0  0  0
 24 54  1  0  0  0  0
 26 55  1  0  0  0  0
 26 56  1  0  0  0  0
 26 57  1  0  0  0  0
M  END
> <PUBCHEM_COMPOUND_CID>
234906

> <PUBCHEM_CONFORMER_RMSD>
0.6

> <PUBCHEM_CONFORMER_DIVERSEORDER>
1
2

> <PUBCHEM_MMFF94_PARTIAL_CHARGES>
17
1 -0.23
12 0.14
13 0.28
17 -0.28
18 0.14
2 -0.68
21 0.45
23 0.06
24 -0.14
25 0.49
26 0.06
3 -0.57
4 -0.57
51 0.4
54 0.15
8 0.23
9 0.06

> <PUBCHEM_EFFECTIVE_ROTOR_COUNT>
2.8

> <PUBCHEM_PHARMACOPHORE_FEATURES>
9
1 1 hydrophobe
1 2 acceptor
1 2 donor
1 3 acceptor
1 4 acceptor
5 5 6 9 11 14 rings
6 12 17 19 23 24 25 rings
6 5 6 7 8 10 13 rings
6 7 8 12 15 17 18 rings

> <PUBCHEM_HEAVY_ATOM_COUNT>
26

> <PUBCHEM_ATOM_DEF_STEREO_COUNT>
8

> <PUBCHEM_ATOM_UDEF_STEREO_COUNT>
0

> <PUBCHEM_BOND_DEF_STEREO_COUNT>
0

> <PUBCHEM_BOND_UDEF_STEREO_COUNT>
0

> <PUBCHEM_ISOTOPIC_ATOM_COUNT>
0

> <PUBCHEM_COMPONENT_COUNT>
1

> <PUBCHEM_CACTVS_TAUTO_COUNT>
15

> <PUBCHEM_CONFORMER_ID>
0003959A00000001

> <PUBCHEM_MMFF94_ENERGY>
100.1157

> <PUBCHEM_FEATURE_SELFOVERLAP>
45.756

> <PUBCHEM_SHAPE_FINGERPRINT>
10366900 7 17967247576854142602
10498660 4 18341888593645216312
10863032 1 18408037429016675242
10906281 52 18262217994255879785
11370993 70 18342738502932360139
12011746 2 18410011018150055583
12107183 9 17688587586197221553
12236239 1 18040999570430335693
12403259 415 18059012908119949077
12788726 201 18187361090288991561
13224815 77 18334295379302537274
13533116 47 18114183068169348843
13583140 156 17895759491264077683
14787075 74 18410577288276850325
14790565 3 18341889735975142029
15196674 1 18412261761338670763
15375358 24 18202842154041552210
15788980 27 13614521852921090712
1601671 61 18342739589785854836
16945 1 18130774638597567371
17349148 13 17458062668858932453
17980427 23 17749094592080522817
1813 80 16630239264309490623
18608769 82 18200307698768594691
200 152 17967535675287595195
20645477 70 18335139847209093006
20691752 17 17845924251610701696
21029758 11 18408042901216570977
21033648 29 18060429031926126941
21267235 1 18339633537946101587
21279426 13 18339363101441082205
21285901 2 17988931118933314447
21421861 104 17560253530213020090
22393880 68 18268435813893610463
23559900 14 18410291450040732258
296302 2 17632577136875679481
3004659 81 18343301509316403114
3286 77 17531535381205651858
335352 9 18269834384010161782
34797466 226 16588303839518913208
34934 24 18412829053804819138
350125 39 18269828732233782481
3633792 109 18341055207055543373
5104073 3 18412259566652620434
5283173 99 18271530913103379749
9709674 26 18412537691523411650

> <PUBCHEM_SHAPE_MULTIPOLES>
523.4
10.96
2.4
1.39
1.09
0.47
-0.14
-0.92
-2.24
-1.26
0.07
0.14
-0.16
0.11

> <PUBCHEM_SHAPE_SELFOVERLAP>
1100.979

> <PUBCHEM_SHAPE_VOLUME>
301.6

> <PUBCHEM_COORDINATE_TYPE>
2
5
10

$$$$

