47205715
  -OEChem-06241223003D

 35 35  0     0  0  0  0  0  0999 V2000
    3.3543   -1.3138    0.7045 O   0  0  0  0  0  0  0  0  0  0  0  0
   -0.2065   -1.3721   -1.7767 O   0  0  0  0  0  0  0  0  0  0  0  0
    0.3112    2.7189   -0.9260 O   0  0  0  0  0  0  0  0  0  0  0  0
   -0.7240    0.3121   -0.2081 N   0  0  0  0  0  0  0  0  0  0  0  0
    0.7416    3.3452    1.2440 N   0  0  0  0  0  0  0  0  0  0  0  0
   -2.1129    0.4447   -0.5511 C   0  0  0  0  0  0  0  0  0  0  0  0
   -3.0045   -0.4886    0.2610 C   0  0  0  0  0  0  0  0  0  0  0  0
   -4.4818   -0.3702   -0.1206 C   0  0  0  0  0  0  0  0  0  0  0  0
   -0.2285    1.1809    0.8651 C   0  0  0  0  0  0  0  0  0  0  0  0
    0.1206   -0.6073   -0.8698 C   0  0  0  0  0  0  0  0  0  0  0  0
    1.5248   -0.6758   -0.4351 C   0  0  0  0  0  0  0  0  0  0  0  0
   -5.3380   -1.3539    0.6617 C   0  0  0  0  0  0  0  0  0  0  0  0
    2.0169   -1.4996    0.5505 C   0  0  0  0  0  0  0  0  0  0  0  0
    0.2760    2.4791    0.2779 C   0  0  0  0  0  0  0  0  0  0  0  0
    2.6309    0.0635   -0.9178 C   0  0  0  0  0  0  0  0  0  0  0  0
    1.3999   -2.5020    1.4329 C   0  0  0  0  0  0  0  0  0  0  0  0
    3.7200   -0.3610   -0.1925 C   0  0  0  0  0  0  0  0  0  0  0  0
   -2.2286    0.2048   -1.6150 H   0  0  0  0  0  0  0  0  0  0  0  0
   -2.4220    1.4889   -0.4253 H   0  0  0  0  0  0  0  0  0  0  0  0
   -2.8867   -0.2745    1.3306 H   0  0  0  0  0  0  0  0  0  0  0  0
   -2.6725   -1.5247    0.1163 H   0  0  0  0  0  0  0  0  0  0  0  0
   -4.6050   -0.5614   -1.1929 H   0  0  0  0  0  0  0  0  0  0  0  0
   -4.8334    0.6502    0.0706 H   0  0  0  0  0  0  0  0  0  0  0  0
   -1.0453    1.3909    1.5647 H   0  0  0  0  0  0  0  0  0  0  0  0
    0.5751    0.7051    1.4317 H   0  0  0  0  0  0  0  0  0  0  0  0
   -5.2591   -1.1724    1.7384 H   0  0  0  0  0  0  0  0  0  0  0  0
   -6.3895   -1.2517    0.3759 H   0  0  0  0  0  0  0  0  0  0  0  0
   -5.0308   -2.3858    0.4635 H   0  0  0  0  0  0  0  0  0  0  0  0
    2.6374    0.8127   -1.6965 H   0  0  0  0  0  0  0  0  0  0  0  0
    1.7236   -3.5087    1.1512 H   0  0  0  0  0  0  0  0  0  0  0  0
    1.6869   -2.3274    2.4746 H   0  0  0  0  0  0  0  0  0  0  0  0
    0.3076   -2.4682    1.3765 H   0  0  0  0  0  0  0  0  0  0  0  0
    4.7677   -0.0979   -0.1939 H   0  0  0  0  0  0  0  0  0  0  0  0
    1.1244    4.2505    0.9924 H   0  0  0  0  0  0  0  0  0  0  0  0
    0.7160    3.1191    2.2332 H   0  0  0  0  0  0  0  0  0  0  0  0
  1 13  1  0  0  0  0
  1 17  1  0  0  0  0
  2 10  2  0  0  0  0
  3 14  2  0  0  0  0
  4  6  1  0  0  0  0
  4  9  1  0  0  0  0
  4 10  1  0  0  0  0
  5 14  1  0  0  0  0
  5 34  1  0  0  0  0
  5 35  1  0  0  0  0
  6  7  1  0  0  0  0
  6 18  1  0  0  0  0
  6 19  1  0  0  0  0
  7  8  1  0  0  0  0
  7 20  1  0  0  0  0
  7 21  1  0  0  0  0
  8 12  1  0  0  0  0
  8 22  1  0  0  0  0
  8 23  1  0  0  0  0
  9 14  1  0  0  0  0
  9 24  1  0  0  0  0
  9 25  1  0  0  0  0
 10 11  1  0  0  0  0
 11 13  2  0  0  0  0
 11 15  1  0  0  0  0
 12 26  1  0  0  0  0
 12 27  1  0  0  0  0
 12 28  1  0  0  0  0
 13 16  1  0  0  0  0
 15 17  2  0  0  0  0
 15 29  1  0  0  0  0
 16 30  1  0  0  0  0
 16 31  1  0  0  0  0
 16 32  1  0  0  0  0
 17 33  1  0  0  0  0
M  END
> <PUBCHEM_COMPOUND_CID>
47205715

> <PUBCHEM_CONFORMER_RMSD>
0.8

> <PUBCHEM_CONFORMER_DIVERSEORDER>
1
103
195
22
15
200
144
109
308
263
306
256
229
240
49
303
283
291
185
233
66
33
64
244
158
236
205
276
247
113
74
43
273
186
91
286
224
243
274
42
293
292
88
23
238
120
44
156
142
289
95
122
281
267
188
48
129
257
163
223
36
107
145
222
93
194
97
63
160
211
125
85
102
290
296
26
310
112
79
294
118
32
241
181
140
98
313
54
154
86
266
288
287
37
275
305
78
295
137
146
47
258
264
41
72
167
225
147
148
27
254
307
279
302
24
77
170
246
38
65
299
60
105
90
212
260
278
252
19
106
126
219
87
297
301
80
139
265
25
201
304
207
162
231
259
70
285
96
20
234
21
46
34
255
11
262
39
228
227
73
111
216
180
237
58
239
218
69
199
214
17
250
131
300
68
232
251
89
209
171
94
284
14
75
280
76
173
141
40
67
261
210
149
172
183
12
53
215
50
16
217
253
235
136
2
159
193
220
157
242
134
115
187
179
198
71
268
190
311
272
92
133
164
57
204
13
84
28
226
4
117
153
81
213
269
8
104
123
248
271
56
6
30
127
59
101
206
196
138
99
83
221
192
177
31
121
166
298
168
51
18
189
175
176
208
35
130
312
182
29
3
10
174
249
202
108
5
132
161
110
152
197
124
116
151
55
9
150
45
52
169
143
128
7
245
270
178
191
309
61
277
184
203
100
282
82
62
119
155
135
114
230
165

> <PUBCHEM_MMFF94_PARTIAL_CHARGES>
18
1 -0.28
10 0.72
11 -0.09
13 -0.04
14 0.57
15 -0.15
16 0.18
17 -0.01
2 -0.57
29 0.15
3 -0.57
33 0.15
34 0.37
35 0.37
4 -0.66
5 -0.8
6 0.3
9 0.36

> <PUBCHEM_EFFECTIVE_ROTOR_COUNT>
7

> <PUBCHEM_PHARMACOPHORE_FEATURES>
6
1 1 acceptor
1 12 hydrophobe
1 2 acceptor
1 3 acceptor
1 5 donor
5 1 11 13 15 17 rings

> <PUBCHEM_HEAVY_ATOM_COUNT>
17

> <PUBCHEM_ATOM_DEF_STEREO_COUNT>
0

> <PUBCHEM_ATOM_UDEF_STEREO_COUNT>
0

> <PUBCHEM_BOND_DEF_STEREO_COUNT>
0

> <PUBCHEM_BOND_UDEF_STEREO_COUNT>
0

> <PUBCHEM_ISOTOPIC_ATOM_COUNT>
0

> <PUBCHEM_COMPONENT_COUNT>
1

> <PUBCHEM_CACTVS_TAUTO_COUNT>
2

> <PUBCHEM_CONFORMER_ID>
02D04D5300000001

> <PUBCHEM_MMFF94_ENERGY>
27.5044

> <PUBCHEM_FEATURE_SELFOVERLAP>
30.446

> <PUBCHEM_SHAPE_FINGERPRINT>
108231 29 18412541002948270466
12644460 14 18263638464236314521
14252887 29 18114173159732570599
14787075 74 18270961245979005426
14955137 171 17968083188574725471
15207287 21 14261346985963383874
15375462 189 18412831282919440387
15490181 8 17035860369695941844
16945 1 17095817597609432646
18222031 100 18113623395608056791
18785283 64 18054228726389575953
19010151 120 18410004468229977232
200 152 18131071584020370722
20344682 10 18339098071920872410
20369508 70 18412268307470184147
20645477 70 18262236608918512519
21041028 32 18260264149077038585
2255824 54 18268425737910909469
23419403 2 18196681598770743701
23526113 38 17346596387479361051
23557571 272 18118123812279577852
23598294 1 18118688952623972738
7364860 26 18189054183835289393
7495541 125 18271238314693816843
81228 2 17830442144302302929

> <PUBCHEM_SHAPE_MULTIPOLES>
322.28
6.99
2.88
1.24
9.64
2.39
0.05
-4.35
-0.75
-1.21
-1.18
-0.33
-0.15
-0.11

> <PUBCHEM_SHAPE_SELFOVERLAP>
649.936

> <PUBCHEM_SHAPE_VOLUME>
190.2

> <PUBCHEM_COORDINATE_TYPE>
2
5
10

$$$$

