66030
  -OEChem-07051213043D

 49 49  0     0  0  0  0  0  0999 V2000
    8.3282   -1.3456   -0.4369 O   0  0  0  0  0  0  0  0  0  0  0  0
   -2.9930   -0.0354   -0.3418 C   0  0  0  0  0  0  0  0  0  0  0  0
   -1.7873    0.7767    0.1430 C   0  0  0  0  0  0  0  0  0  0  0  0
   -4.3363    0.5254    0.1312 C   0  0  0  0  0  0  0  0  0  0  0  0
   -0.4100    0.2088   -0.2219 C   0  0  0  0  0  0  0  0  0  0  0  0
   -5.5298   -0.3384   -0.2933 C   0  0  0  0  0  0  0  0  0  0  0  0
    0.7949    0.9845    0.3202 C   0  0  0  0  0  0  0  0  0  0  0  0
   -6.8749    0.2353    0.1639 C   0  0  0  0  0  0  0  0  0  0  0  0
    2.1424    0.3403   -0.0219 C   0  0  0  0  0  0  0  0  0  0  0  0
   -8.0692   -0.6509   -0.2011 C   0  0  0  0  0  0  0  0  0  0  0  0
    3.3342    1.1413    0.5181 C   0  0  0  0  0  0  0  0  0  0  0  0
   -9.4125   -0.0626    0.2316 C   0  0  0  0  0  0  0  0  0  0  0  0
    4.6660    0.4780    0.2640 C   0  0  0  0  0  0  0  0  0  0  0  0
  -10.5674   -0.9712   -0.1616 C   0  0  0  0  0  0  0  0  0  0  0  0
    5.1941   -0.4097    1.2015 C   0  0  0  0  0  0  0  0  0  0  0  0
    5.3688    0.7529   -0.9091 C   0  0  0  0  0  0  0  0  0  0  0  0
    6.4247   -1.0224    0.9660 C   0  0  0  0  0  0  0  0  0  0  0  0
    6.5995    0.1404   -1.1447 C   0  0  0  0  0  0  0  0  0  0  0  0
    7.1276   -0.7473   -0.2071 C   0  0  0  0  0  0  0  0  0  0  0  0
   -2.9808   -0.0783   -1.4376 H   0  0  0  0  0  0  0  0  0  0  0  0
   -2.8907   -1.0673    0.0161 H   0  0  0  0  0  0  0  0  0  0  0  0
   -1.8431    0.8665    1.2353 H   0  0  0  0  0  0  0  0  0  0  0  0
   -1.8638    1.7965   -0.2547 H   0  0  0  0  0  0  0  0  0  0  0  0
   -4.4625    1.5401   -0.2657 H   0  0  0  0  0  0  0  0  0  0  0  0
   -4.3281    0.6104    1.2248 H   0  0  0  0  0  0  0  0  0  0  0  0
   -0.3328    0.1520   -1.3149 H   0  0  0  0  0  0  0  0  0  0  0  0
   -0.3539   -0.8239    0.1455 H   0  0  0  0  0  0  0  0  0  0  0  0
   -5.4080   -1.3471    0.1202 H   0  0  0  0  0  0  0  0  0  0  0  0
   -5.5339   -0.4403   -1.3854 H   0  0  0  0  0  0  0  0  0  0  0  0
    0.7040    1.0681    1.4102 H   0  0  0  0  0  0  0  0  0  0  0  0
    0.7693    2.0060   -0.0788 H   0  0  0  0  0  0  0  0  0  0  0  0
   -7.0114    1.2279   -0.2824 H   0  0  0  0  0  0  0  0  0  0  0  0
   -6.8552    0.3771    1.2516 H   0  0  0  0  0  0  0  0  0  0  0  0
    2.1672   -0.6774    0.3883 H   0  0  0  0  0  0  0  0  0  0  0  0
    2.2323    0.2396   -1.1109 H   0  0  0  0  0  0  0  0  0  0  0  0
   -7.9386   -1.6369    0.2618 H   0  0  0  0  0  0  0  0  0  0  0  0
   -8.0772   -0.8096   -1.2867 H   0  0  0  0  0  0  0  0  0  0  0  0
    3.2145    1.2995    1.5979 H   0  0  0  0  0  0  0  0  0  0  0  0
    3.3373    2.1447    0.0732 H   0  0  0  0  0  0  0  0  0  0  0  0
   -9.4207    0.0842    1.3177 H   0  0  0  0  0  0  0  0  0  0  0  0
   -9.5533    0.9212   -0.2307 H   0  0  0  0  0  0  0  0  0  0  0  0
  -10.6044   -1.1118   -1.2466 H   0  0  0  0  0  0  0  0  0  0  0  0
  -10.4712   -1.9545    0.3097 H   0  0  0  0  0  0  0  0  0  0  0  0
  -11.5187   -0.5336    0.1567 H   0  0  0  0  0  0  0  0  0  0  0  0
    4.6548   -0.6334    2.1181 H   0  0  0  0  0  0  0  0  0  0  0  0
    4.9666    1.4412   -1.6476 H   0  0  0  0  0  0  0  0  0  0  0  0
    6.8306   -1.7135    1.6996 H   0  0  0  0  0  0  0  0  0  0  0  0
    7.1369    0.3625   -2.0627 H   0  0  0  0  0  0  0  0  0  0  0  0
    8.6729   -1.0413   -1.2940 H   0  0  0  0  0  0  0  0  0  0  0  0
  1 19  1  0  0  0  0
  1 49  1  0  0  0  0
  2  3  1  0  0  0  0
  2  4  1  0  0  0  0
  2 20  1  0  0  0  0
  2 21  1  0  0  0  0
  3  5  1  0  0  0  0
  3 22  1  0  0  0  0
  3 23  1  0  0  0  0
  4  6  1  0  0  0  0
  4 24  1  0  0  0  0
  4 25  1  0  0  0  0
  5  7  1  0  0  0  0
  5 26  1  0  0  0  0
  5 27  1  0  0  0  0
  6  8  1  0  0  0  0
  6 28  1  0  0  0  0
  6 29  1  0  0  0  0
  7  9  1  0  0  0  0
  7 30  1  0  0  0  0
  7 31  1  0  0  0  0
  8 10  1  0  0  0  0
  8 32  1  0  0  0  0
  8 33  1  0  0  0  0
  9 11  1  0  0  0  0
  9 34  1  0  0  0  0
  9 35  1  0  0  0  0
 10 12  1  0  0  0  0
 10 36  1  0  0  0  0
 10 37  1  0  0  0  0
 11 13  1  0  0  0  0
 11 38  1  0  0  0  0
 11 39  1  0  0  0  0
 12 14  1  0  0  0  0
 12 40  1  0  0  0  0
 12 41  1  0  0  0  0
 13 15  2  0  0  0  0
 13 16  1  0  0  0  0
 14 42  1  0  0  0  0
 14 43  1  0  0  0  0
 14 44  1  0  0  0  0
 15 17  1  0  0  0  0
 15 45  1  0  0  0  0
 16 18  2  0  0  0  0
 16 46  1  0  0  0  0
 17 19  2  0  0  0  0
 17 47  1  0  0  0  0
 18 19  1  0  0  0  0
 18 48  1  0  0  0  0
M  END
> <PUBCHEM_COMPOUND_CID>
66030

> <PUBCHEM_CONFORMER_RMSD>
1.2

> <PUBCHEM_CONFORMER_DIVERSEORDER>
1
27
43
30
42
7
9
47
23
64
77
59
12
26
51
55
21
40
22
3
32
19
20
35
5
4
63
67
37
57
73
49
44
70
72
76
68
34
75
61
2
13
18
41
11
52
6
24
58
14
39
60
66
54
36
71
10
8
48
50
46
74
29
16
31
25
53
62
17
38
65
45
15
33
28
69
56

> <PUBCHEM_MMFF94_PARTIAL_CHARGES>
13
1 -0.53
11 0.14
13 -0.14
15 -0.15
16 -0.15
17 -0.15
18 -0.15
19 0.08
45 0.15
46 0.15
47 0.15
48 0.15
49 0.45

> <PUBCHEM_EFFECTIVE_ROTOR_COUNT>
11

> <PUBCHEM_PHARMACOPHORE_FEATURES>
3
1 1 donor
1 14 hydrophobe
6 13 15 16 17 18 19 rings

> <PUBCHEM_HEAVY_ATOM_COUNT>
19

> <PUBCHEM_ATOM_DEF_STEREO_COUNT>
0

> <PUBCHEM_ATOM_UDEF_STEREO_COUNT>
0

> <PUBCHEM_BOND_DEF_STEREO_COUNT>
0

> <PUBCHEM_BOND_UDEF_STEREO_COUNT>
0

> <PUBCHEM_ISOTOPIC_ATOM_COUNT>
0

> <PUBCHEM_COMPONENT_COUNT>
1

> <PUBCHEM_CACTVS_TAUTO_COUNT>
2

> <PUBCHEM_CONFORMER_ID>
000101EE00000001

> <PUBCHEM_MMFF94_ENERGY>
17.1314

> <PUBCHEM_FEATURE_SELFOVERLAP>
15.223

> <PUBCHEM_SHAPE_FINGERPRINT>
10299344 5 18201720656644914947
11315181 36 12679463098140422501
11638347 137 16008744727687985622
12592606 108 18201438048319103515
14123256 10 12391514187051283367
14202775 3 18334571327227083407
14216079 64 18113615703136805262
14251764 18 18342175579555565361
14251764 46 18410575080368111620
14344974 52 14404891467110981766
14428016 248 12751239229712079999
155225 1 10519978267490517126
15690457 1 18260269646217991175
1754911 235 14979959160363958447
1818759 1 18272930514839691907
21095086 128 18344146995018885771
21150785 3 15195285330559722777
21267235 1 18408604772722030009
21315763 28 18334013878936337761
21360442 33 13901366913801230952
21360442 67 15698281114210704754
21360443 126 14764341630725306448
21362267 313 7636861949531214629
21792934 111 15719395036231073369
221357 26 16774079588244551724
22224240 67 5039949646354483789
22956985 138 17829321738281742158
232437 2 18342175549923531691
23521765 1 18408322177623628525
246663 6 18410854369211743363
249057 3 14117512122219068043
28498 318 18409731772546266605
33532 11 18412266155138005786
33684 2 18410856563940031621
5283156 175 18272087197504544597
5758199 1 11023830583051583029
67123 10 10159697993823814137
8209 1 13470690343767883157

> <PUBCHEM_SHAPE_MULTIPOLES>
385.14
35.51
1.08
0.91
60.57
0.08
0.01
13.49
-2.82
-1.02
0.05
-1.39
0.03
-0.54

> <PUBCHEM_SHAPE_SELFOVERLAP>
742.068

> <PUBCHEM_SHAPE_VOLUME>
235.5

> <PUBCHEM_COORDINATE_TYPE>
2
5
10

$$$$

