107377
  -OEChem-07051213053D

 40 40  0     1  0  0  0  0  0999 V2000
    0.0918    0.3727   -0.0363 O   0  0  0  0  0  0  0  0  0  0  0  0
    1.0540    2.3149   -0.8118 O   0  0  0  0  0  0  0  0  0  0  0  0
    6.0226   -1.3545    0.6941 O   0  0  0  0  0  0  0  0  0  0  0  0
   -2.2801   -0.1151    0.1455 C   0  0  1  0  0  0  0  0  0  0  0  0
   -3.6677    0.5595    0.1082 C   0  0  0  0  0  0  0  0  0  0  0  0
   -2.1894   -1.4202   -0.6768 C   0  0  0  0  0  0  0  0  0  0  0  0
   -4.7968   -0.3307    0.6378 C   0  0  0  0  0  0  0  0  0  0  0  0
   -1.2058    0.9076   -0.2594 C   0  0  0  0  0  0  0  0  0  0  0  0
   -6.1712    0.3417    0.5806 C   0  0  0  0  0  0  0  0  0  0  0  0
   -2.4453   -1.2637   -2.1695 C   0  0  0  0  0  0  0  0  0  0  0  0
   -7.3003   -0.5462    1.0808 C   0  0  0  0  0  0  0  0  0  0  0  0
    1.1372    1.1847   -0.3565 C   0  0  0  0  0  0  0  0  0  0  0  0
    2.4313    0.5118   -0.0793 C   0  0  0  0  0  0  0  0  0  0  0  0
    3.5223    1.2823    0.2672 C   0  0  0  0  0  0  0  0  0  0  0  0
    2.5033   -0.8630   -0.1759 C   0  0  0  0  0  0  0  0  0  0  0  0
    4.7383    0.6506    0.5284 C   0  0  0  0  0  0  0  0  0  0  0  0
    3.7192   -1.4946    0.0854 C   0  0  0  0  0  0  0  0  0  0  0  0
    4.8367   -0.7379    0.4375 C   0  0  0  0  0  0  0  0  0  0  0  0
   -2.0752   -0.4006    1.1871 H   0  0  0  0  0  0  0  0  0  0  0  0
   -3.6372    1.4721    0.7176 H   0  0  0  0  0  0  0  0  0  0  0  0
   -3.9019    0.8818   -0.9134 H   0  0  0  0  0  0  0  0  0  0  0  0
   -2.8843   -2.1647   -0.2729 H   0  0  0  0  0  0  0  0  0  0  0  0
   -1.1908   -1.8556   -0.5451 H   0  0  0  0  0  0  0  0  0  0  0  0
   -4.5763   -0.6207    1.6722 H   0  0  0  0  0  0  0  0  0  0  0  0
   -4.8519   -1.2538    0.0509 H   0  0  0  0  0  0  0  0  0  0  0  0
   -1.3154    1.8102    0.3548 H   0  0  0  0  0  0  0  0  0  0  0  0
   -1.3154    1.1978   -1.3104 H   0  0  0  0  0  0  0  0  0  0  0  0
   -6.1508    1.2604    1.1786 H   0  0  0  0  0  0  0  0  0  0  0  0
   -6.3876    0.6393   -0.4524 H   0  0  0  0  0  0  0  0  0  0  0  0
   -1.7149   -0.5986   -2.6384 H   0  0  0  0  0  0  0  0  0  0  0  0
   -2.3643   -2.2382   -2.6625 H   0  0  0  0  0  0  0  0  0  0  0  0
   -3.4488   -0.8773   -2.3679 H   0  0  0  0  0  0  0  0  0  0  0  0
   -8.2561   -0.0168    1.0197 H   0  0  0  0  0  0  0  0  0  0  0  0
   -7.3759   -1.4575    0.4794 H   0  0  0  0  0  0  0  0  0  0  0  0
   -7.1360   -0.8353    2.1236 H   0  0  0  0  0  0  0  0  0  0  0  0
    3.4573    2.3635    0.3448 H   0  0  0  0  0  0  0  0  0  0  0  0
    1.6518   -1.4735   -0.4611 H   0  0  0  0  0  0  0  0  0  0  0  0
    5.6012    1.2513    0.8029 H   0  0  0  0  0  0  0  0  0  0  0  0
    3.7905   -2.5763    0.0104 H   0  0  0  0  0  0  0  0  0  0  0  0
    6.6855   -0.6801    0.9220 H   0  0  0  0  0  0  0  0  0  0  0  0
  1  8  1  0  0  0  0
  1 12  1  0  0  0  0
  2 12  2  0  0  0  0
  3 18  1  0  0  0  0
  3 40  1  0  0  0  0
  4  5  1  0  0  0  0
  4  6  1  0  0  0  0
  4  8  1  0  0  0  0
  4 19  1  0  0  0  0
  5  7  1  0  0  0  0
  5 20  1  0  0  0  0
  5 21  1  0  0  0  0
  6 10  1  0  0  0  0
  6 22  1  0  0  0  0
  6 23  1  0  0  0  0
  7  9  1  0  0  0  0
  7 24  1  0  0  0  0
  7 25  1  0  0  0  0
  8 26  1  0  0  0  0
  8 27  1  0  0  0  0
  9 11  1  0  0  0  0
  9 28  1  0  0  0  0
  9 29  1  0  0  0  0
 10 30  1  0  0  0  0
 10 31  1  0  0  0  0
 10 32  1  0  0  0  0
 11 33  1  0  0  0  0
 11 34  1  0  0  0  0
 11 35  1  0  0  0  0
 12 13  1  0  0  0  0
 13 14  2  0  0  0  0
 13 15  1  0  0  0  0
 14 16  1  0  0  0  0
 14 36  1  0  0  0  0
 15 17  2  0  0  0  0
 15 37  1  0  0  0  0
 16 18  2  0  0  0  0
 16 38  1  0  0  0  0
 17 18  1  0  0  0  0
 17 39  1  0  0  0  0
M  END
> <PUBCHEM_COMPOUND_CID>
107377

> <PUBCHEM_CONFORMER_RMSD>
0.8

> <PUBCHEM_CONFORMER_DIVERSEORDER>
1
101
91
108
71
113
125
240
219
252
15
150
30
92
190
248
225
77
47
144
16
267
222
55
233
26
220
40
99
226
244
134
140
46
180
272
100
229
175
133
202
27
72
259
268
223
247
206
171
109
75
73
5
242
85
189
211
111
174
234
48
3
94
254
193
239
218
141
255
235
86
146
142
56
90
192
7
4
270
275
117
213
83
195
194
80
106
182
260
210
12
212
118
115
119
98
231
184
19
165
181
61
208
66
201
209
6
78
273
112
241
224
230
65
199
105
188
17
161
8
21
179
28
262
205
95
88
124
51
20
152
232
203
217
2
23
138
41
93
238
126
228
129
58
13
123
97
250
168
104
44
216
246
52
36
63
59
147
265
70
245
145
149
183
191
159
130
82
33
166
221
170
37
38
18
257
57
103
84
31
249
162
237
87
139
131
74
164
148
122
14
53
198
60
11
22
200
256
160
67
158
169
227
42
9
107
173
274
135
155
49
50
264
79
62
151
68
261
163
96
143
176
243
120
251
54
45
64
110
35
172
29
34
185
204
187
266
167
76
214
81
43
137
154
271
69
153
10
39
127
263
136
253
25
32
157
128
236
269
177
89
196
114
258
186
102
215
197
121
24
132
116
178
156
207

> <PUBCHEM_MMFF94_PARTIAL_CHARGES>
16
1 -0.43
12 0.63
13 0.09
14 -0.15
15 -0.15
16 -0.15
17 -0.15
18 0.08
2 -0.57
3 -0.53
36 0.15
37 0.15
38 0.15
39 0.15
40 0.45
8 0.28

> <PUBCHEM_EFFECTIVE_ROTOR_COUNT>
8

> <PUBCHEM_PHARMACOPHORE_FEATURES>
6
1 10 hydrophobe
1 11 hydrophobe
1 2 acceptor
1 3 donor
5 4 5 6 7 9 hydrophobe
6 13 14 15 16 17 18 rings

> <PUBCHEM_HEAVY_ATOM_COUNT>
18

> <PUBCHEM_ATOM_DEF_STEREO_COUNT>
0

> <PUBCHEM_ATOM_UDEF_STEREO_COUNT>
1

> <PUBCHEM_BOND_DEF_STEREO_COUNT>
0

> <PUBCHEM_BOND_UDEF_STEREO_COUNT>
0

> <PUBCHEM_ISOTOPIC_ATOM_COUNT>
0

> <PUBCHEM_COMPONENT_COUNT>
1

> <PUBCHEM_CACTVS_TAUTO_COUNT>
3

> <PUBCHEM_CONFORMER_ID>
0001A37100000001

> <PUBCHEM_MMFF94_ENERGY>
33.3704

> <PUBCHEM_FEATURE_SELFOVERLAP>
30.448

> <PUBCHEM_SHAPE_FINGERPRINT>
117890 112 15140674800364639475
12236239 1 18260548905397583571
12553582 1 18272104815507917482
12596602 18 18113335276301264659
12616971 3 18334864896165969878
12633257 1 17167867451979156257
12714333 28 6266901251673883401
13533116 47 15285906030875310607
13551218 46 18334857259730396471
13685833 64 18201998841302182682
14123256 10 10879990255475643379
14251764 18 18187644670585237959
15501527 24 10592042449427495489
15527383 91 18408605855449187120
1813 80 17561359608344742012
19050596 39 18113907035311373422
19141452 34 18334298643282763431
20645477 70 18201438099468483434
21267235 1 18340763832179098186
21424621 283 14201939265267569307
2297311 6 15339121251862980031
23352939 185 10231757778079370111
23503953 91 17676213454915907726
23557571 272 15338843100663604735
23622692 88 18259702298513386741
29717793 49 12175630585212198632
351380 3 18343305890035339234
465052 167 18272641338564463691
5104073 3 18042414542610252962

> <PUBCHEM_SHAPE_MULTIPOLES>
352.82
15.61
1.64
1.1
13.53
0.08
0.43
-3.07
-7.31
-1.23
0.43
0.96
-0.33
-0.82

> <PUBCHEM_SHAPE_SELFOVERLAP>
704.785

> <PUBCHEM_SHAPE_VOLUME>
208.8

> <PUBCHEM_COORDINATE_TYPE>
2
5
10

$$$$

