5281866
  -OEChem-07051213003D

 39 40  0     0  0  0  0  0  0999 V2000
   -0.4032   -0.8263    2.8056 O   0  0  0  0  0  0  0  0  0  0  0  0
   -0.9026   -2.8969   -0.2854 O   0  0  0  0  0  0  0  0  0  0  0  0
    5.2080    3.2122   -0.4799 O   0  0  0  0  0  0  0  0  0  0  0  0
   -0.9064   -0.1758    0.5468 C   0  0  0  0  0  0  0  0  0  0  0  0
    0.2836   -0.8324    0.0437 C   0  0  0  0  0  0  0  0  0  0  0  0
   -2.9016    1.1166    0.1163 C   0  0  0  0  0  0  0  0  0  0  0  0
   -1.7515    0.4792   -0.3489 C   0  0  0  0  0  0  0  0  0  0  0  0
   -1.2111   -0.1930    1.9080 C   0  0  0  0  0  0  0  0  0  0  0  0
    1.4750   -0.1116   -0.0376 C   0  0  0  0  0  0  0  0  0  0  0  0
    0.2479   -2.1685   -0.3554 C   0  0  0  0  0  0  0  0  0  0  0  0
   -3.8052    1.8177   -0.8407 C   0  0  0  0  0  0  0  0  0  0  0  0
    2.6310   -0.7271   -0.5177 C   0  0  0  0  0  0  0  0  0  0  0  0
   -3.2066    1.0992    1.4774 C   0  0  0  0  0  0  0  0  0  0  0  0
   -2.3613    0.4445    2.3733 C   0  0  0  0  0  0  0  0  0  0  0  0
    1.4040   -2.7841   -0.8354 C   0  0  0  0  0  0  0  0  0  0  0  0
    2.5955   -2.0633   -0.9164 C   0  0  0  0  0  0  0  0  0  0  0  0
    3.8744    0.0232   -0.6030 C   0  0  0  0  0  0  0  0  0  0  0  0
   -4.8835    0.9239   -1.3966 C   0  0  0  0  0  0  0  0  0  0  0  0
    4.1627    1.1581    0.0737 C   0  0  0  0  0  0  0  0  0  0  0  0
    5.4634    1.8871   -0.0354 C   0  0  0  0  0  0  0  0  0  0  0  0
   -5.0123    0.6172   -2.6924 C   0  0  0  0  0  0  0  0  0  0  0  0
   -1.5185    0.4942   -1.4119 H   0  0  0  0  0  0  0  0  0  0  0  0
    1.4692    0.9339    0.2611 H   0  0  0  0  0  0  0  0  0  0  0  0
   -4.2848    2.6703   -0.3426 H   0  0  0  0  0  0  0  0  0  0  0  0
   -3.2105    2.2597   -1.6512 H   0  0  0  0  0  0  0  0  0  0  0  0
   -4.1002    1.5907    1.8529 H   0  0  0  0  0  0  0  0  0  0  0  0
   -2.6051    0.4344    3.4321 H   0  0  0  0  0  0  0  0  0  0  0  0
    1.3917   -3.8245   -1.1492 H   0  0  0  0  0  0  0  0  0  0  0  0
    3.4868   -2.5604   -1.2919 H   0  0  0  0  0  0  0  0  0  0  0  0
    4.6316   -0.3877   -1.2676 H   0  0  0  0  0  0  0  0  0  0  0  0
   -5.6083    0.5195   -0.6941 H   0  0  0  0  0  0  0  0  0  0  0  0
    0.3614   -1.2288    2.3647 H   0  0  0  0  0  0  0  0  0  0  0  0
    3.4524    1.5907    0.7724 H   0  0  0  0  0  0  0  0  0  0  0  0
   -0.7289   -3.7990   -0.6048 H   0  0  0  0  0  0  0  0  0  0  0  0
    5.9445    1.9413    0.9457 H   0  0  0  0  0  0  0  0  0  0  0  0
    6.1593    1.4111   -0.7333 H   0  0  0  0  0  0  0  0  0  0  0  0
   -5.8177   -0.0273   -3.0271 H   0  0  0  0  0  0  0  0  0  0  0  0
   -4.3218    0.9989   -3.4363 H   0  0  0  0  0  0  0  0  0  0  0  0
    4.8248    3.1557   -1.3721 H   0  0  0  0  0  0  0  0  0  0  0  0
  1  8  1  0  0  0  0
  1 32  1  0  0  0  0
  2 10  1  0  0  0  0
  2 34  1  0  0  0  0
  3 20  1  0  0  0  0
  3 39  1  0  0  0  0
  4  5  1  0  0  0  0
  4  7  1  0  0  0  0
  4  8  2  0  0  0  0
  5  9  1  0  0  0  0
  5 10  2  0  0  0  0
  6  7  2  0  0  0  0
  6 11  1  0  0  0  0
  6 13  1  0  0  0  0
  7 22  1  0  0  0  0
  8 14  1  0  0  0  0
  9 12  2  0  0  0  0
  9 23  1  0  0  0  0
 10 15  1  0  0  0  0
 11 18  1  0  0  0  0
 11 24  1  0  0  0  0
 11 25  1  0  0  0  0
 12 16  1  0  0  0  0
 12 17  1  0  0  0  0
 13 14  2  0  0  0  0
 13 26  1  0  0  0  0
 14 27  1  0  0  0  0
 15 16  2  0  0  0  0
 15 28  1  0  0  0  0
 16 29  1  0  0  0  0
 17 19  2  0  0  0  0
 17 30  1  0  0  0  0
 18 21  2  0  0  0  0
 18 31  1  0  0  0  0
 19 20  1  0  0  0  0
 19 33  1  0  0  0  0
 20 35  1  0  0  0  0
 20 36  1  0  0  0  0
 21 37  1  0  0  0  0
 21 38  1  0  0  0  0
M  END
> <PUBCHEM_COMPOUND_CID>
5281866

> <PUBCHEM_CONFORMER_RMSD>
0.8

> <PUBCHEM_CONFORMER_DIVERSEORDER>
1
5
12
8
7
2
11
10
6
4
9
3

> <PUBCHEM_MMFF94_PARTIAL_CHARGES>
33
1 -0.53
10 0.08
11 0.28
12 0.03
13 -0.15
14 -0.15
15 -0.15
16 -0.15
17 -0.18
18 -0.29
19 -0.29
2 -0.53
20 0.42
21 -0.3
22 0.15
23 0.15
26 0.15
27 0.15
28 0.15
29 0.15
3 -0.68
30 0.15
31 0.15
32 0.45
33 0.15
34 0.45
37 0.15
38 0.15
39 0.4
6 -0.14
7 -0.15
8 0.08
9 -0.15

> <PUBCHEM_EFFECTIVE_ROTOR_COUNT>
5

> <PUBCHEM_PHARMACOPHORE_FEATURES>
7
1 1 donor
1 2 donor
1 21 hydrophobe
1 3 acceptor
1 3 donor
6 4 6 7 8 13 14 rings
6 5 9 10 12 15 16 rings

> <PUBCHEM_HEAVY_ATOM_COUNT>
21

> <PUBCHEM_ATOM_DEF_STEREO_COUNT>
0

> <PUBCHEM_ATOM_UDEF_STEREO_COUNT>
0

> <PUBCHEM_BOND_DEF_STEREO_COUNT>
1

> <PUBCHEM_BOND_UDEF_STEREO_COUNT>
0

> <PUBCHEM_ISOTOPIC_ATOM_COUNT>
0

> <PUBCHEM_COMPONENT_COUNT>
1

> <PUBCHEM_CACTVS_TAUTO_COUNT>
8

> <PUBCHEM_CONFORMER_ID>
0050984A00000001

> <PUBCHEM_MMFF94_ENERGY>
57.9408

> <PUBCHEM_FEATURE_SELFOVERLAP>
35.52

> <PUBCHEM_SHAPE_FINGERPRINT>
10764073 3 8387950488411505947
11543360 7 18262245550739605973
11582403 64 17774179970904848099
11725454 13 17846230976441669733
11961588 58 18270977755569488673
12166972 35 17897738784520566554
12403260 363 18190749828475805130
12633257 1 15482669061620912084
12892183 10 10878548825822611903
12969540 114 18412256250942986148
13009979 54 16374100510047680223
13134695 92 17836070552999537342
13583140 156 17918269849002030402
14251732 14 15574719062290644108
14251757 5 17023481745783964007
14767858 380 17895204263862237165
15061688 2 17989495138201527981
15342168 16 18116128087148563240
15842332 3 17024580333698436283
1813 80 16596718685627625686
204376 136 18334562526389654842
21065201 7 16341984746120584907
212916 134 16343702166256041753
21304303 282 16916799440114387347
21756936 100 16589958647800562730
23382010 3 18041287642134194571
23557571 272 17273387652154294203
23559900 14 17130693067382635610
238078 22 17023197007006309693
27216 239 18270668754495557520
283562 15 17972875852924900686
2838139 119 18271816760319861580
341906 21 16558456578243361885
350125 39 17901090937564173152
445580 182 13254535149017929588
474 4 18114732833015906562
495365 180 17560239274520530786
6327066 14 18340492154055075452
633830 44 17678994205632163474
77492 1 17025149893696190395

> <PUBCHEM_SHAPE_MULTIPOLES>
414.56
10.21
2.79
2.09
3.3
0.7
-0.87
-9.4
5.96
3.67
0.79
-3.39
-0.19
0.16

> <PUBCHEM_SHAPE_SELFOVERLAP>
883.737

> <PUBCHEM_SHAPE_VOLUME>
230.8

> <PUBCHEM_COORDINATE_TYPE>
2
5
10

$$$$

