2762
  -OEChem-07051212543D

 29 31  0     0  0  0  0  0  0999 V2000
   -4.0338    0.7196    0.1179 O   0  0  0  0  0  0  0  0  0  0  0  0
   -3.7546   -1.6565   -0.1636 O   0  0  0  0  0  0  0  0  0  0  0  0
    1.3914   -2.4482   -0.1858 O   0  0  0  0  0  0  0  0  0  0  0  0
    4.1343   -0.6797   -1.2156 O   0  0  0  0  0  0  0  0  0  0  0  0
    4.3305   -1.0159    1.0380 O   0  0  0  0  0  0  0  0  0  0  0  0
    0.8121    1.4692    0.2774 N   0  0  0  0  0  0  0  0  0  0  0  0
    2.0786    0.9738    0.2351 N   0  0  0  0  0  0  0  0  0  0  0  0
   -0.3380    0.6741    0.1651 C   0  0  0  0  0  0  0  0  0  0  0  0
   -0.2158   -0.7216   -0.0009 C   0  0  0  0  0  0  0  0  0  0  0  0
   -2.7232    0.3513    0.0924 C   0  0  0  0  0  0  0  0  0  0  0  0
   -1.6411    1.2062    0.2104 C   0  0  0  0  0  0  0  0  0  0  0  0
   -2.5655   -1.0028   -0.0681 C   0  0  0  0  0  0  0  0  0  0  0  0
   -1.3176   -1.5788   -0.1196 C   0  0  0  0  0  0  0  0  0  0  0  0
    0.7104    2.9100    0.4504 C   0  0  0  0  0  0  0  0  0  0  0  0
    1.1412   -1.2632   -0.0466 C   0  0  0  0  0  0  0  0  0  0  0  0
    2.2754   -0.2962    0.0847 C   0  0  0  0  0  0  0  0  0  0  0  0
   -4.6818   -0.5586   -0.0434 C   0  0  0  0  0  0  0  0  0  0  0  0
    0.6912    3.6289   -0.8828 C   0  0  0  0  0  0  0  0  0  0  0  0
    3.7064   -0.7117    0.0550 C   0  0  0  0  0  0  0  0  0  0  0  0
   -1.8378    2.2665    0.3216 H   0  0  0  0  0  0  0  0  0  0  0  0
   -1.2044   -2.6495   -0.2466 H   0  0  0  0  0  0  0  0  0  0  0  0
   -0.1374    3.2073    1.0764 H   0  0  0  0  0  0  0  0  0  0  0  0
    1.5903    3.2623    1.0064 H   0  0  0  0  0  0  0  0  0  0  0  0
   -5.3050   -0.5250   -0.9445 H   0  0  0  0  0  0  0  0  0  0  0  0
   -5.3270   -0.7372    0.8245 H   0  0  0  0  0  0  0  0  0  0  0  0
    1.5850    3.3949   -1.4709 H   0  0  0  0  0  0  0  0  0  0  0  0
   -0.1823    3.3446   -1.4781 H   0  0  0  0  0  0  0  0  0  0  0  0
    0.6595    4.7124   -0.7308 H   0  0  0  0  0  0  0  0  0  0  0  0
    5.0751   -0.9452   -1.2974 H   0  0  0  0  0  0  0  0  0  0  0  0
  1 10  1  0  0  0  0
  1 17  1  0  0  0  0
  2 12  1  0  0  0  0
  2 17  1  0  0  0  0
  3 15  2  0  0  0  0
  4 19  1  0  0  0  0
  4 29  1  0  0  0  0
  5 19  2  0  0  0  0
  6  7  1  0  0  0  0
  6  8  1  0  0  0  0
  6 14  1  0  0  0  0
  7 16  2  0  0  0  0
  8  9  1  0  0  0  0
  8 11  2  0  0  0  0
  9 13  2  0  0  0  0
  9 15  1  0  0  0  0
 10 11  1  0  0  0  0
 10 12  2  0  0  0  0
 11 20  1  0  0  0  0
 12 13  1  0  0  0  0
 13 21  1  0  0  0  0
 14 18  1  0  0  0  0
 14 22  1  0  0  0  0
 14 23  1  0  0  0  0
 15 16  1  0  0  0  0
 16 19  1  0  0  0  0
 17 24  1  0  0  0  0
 17 25  1  0  0  0  0
 18 26  1  0  0  0  0
 18 27  1  0  0  0  0
 18 28  1  0  0  0  0
M  END
> <PUBCHEM_COMPOUND_CID>
2762

> <PUBCHEM_CONFORMER_RMSD>
0.6

> <PUBCHEM_CONFORMER_DIVERSEORDER>
1
2

> <PUBCHEM_MMFF94_PARTIAL_CHARGES>
21
1 -0.36
10 0.08
11 -0.15
12 0.08
13 -0.15
14 0.37
15 0.48
16 0.45
17 0.56
19 0.72
2 -0.36
20 0.15
21 0.15
29 0.5
3 -0.57
4 -0.65
5 -0.57
6 -0.43
7 -0.49
8 0.1
9 0.09

> <PUBCHEM_EFFECTIVE_ROTOR_COUNT>
2.6

> <PUBCHEM_PHARMACOPHORE_FEATURES>
11
1 1 acceptor
1 16 anion
1 2 acceptor
1 3 acceptor
1 4 acceptor
1 5 acceptor
1 7 acceptor
3 4 5 19 anion
5 1 2 10 12 17 rings
6 6 7 8 9 15 16 rings
6 8 9 10 11 12 13 rings

> <PUBCHEM_HEAVY_ATOM_COUNT>
19

> <PUBCHEM_ATOM_DEF_STEREO_COUNT>
0

> <PUBCHEM_ATOM_UDEF_STEREO_COUNT>
0

> <PUBCHEM_BOND_DEF_STEREO_COUNT>
0

> <PUBCHEM_BOND_UDEF_STEREO_COUNT>
0

> <PUBCHEM_ISOTOPIC_ATOM_COUNT>
0

> <PUBCHEM_COMPONENT_COUNT>
1

> <PUBCHEM_CACTVS_TAUTO_COUNT>
1

> <PUBCHEM_CONFORMER_ID>
00000ACA00000001

> <PUBCHEM_MMFF94_ENERGY>
53.5944

> <PUBCHEM_FEATURE_SELFOVERLAP>
56.376

> <PUBCHEM_SHAPE_FINGERPRINT>
10967382 1 18265616472405758505
11132069 177 18334579074466298514
11471102 20 18409736119058386423
11680986 33 18195244412550265544
12032990 46 18334853939583279550
12236239 1 17989486351384521954
12553582 1 18411417340682257763
13132413 78 18336545005620476549
13140716 1 18264770952607210483
138480 1 18410856516754069753
13862211 1 18409173224602514387
15196674 1 18408887308739850371
15375462 189 18201721798716137851
15442244 35 18409167680036852385
15536298 74 18188210901044380009
15848700 24 18333452045193852350
1601671 61 18336825402649878113
16945 1 18409728443893884099
17804303 29 18410291393831383649
18785283 64 18127118685289539001
193761 8 17761493595400921394
200 152 17967541160003225207
20645477 70 18196944275365981167
20671657 1 18265609871257607749
20905425 154 18047471407340550254
21029758 11 18335423465031488825
21029758 27 18342167873635370749
21267235 1 18336256895135662123
21421861 104 17698443569747727810
21501502 16 18119811314000087143
221490 88 18196647398272810187
2255824 54 18268709415789286804
2297311 6 18262230136397548526
2334 1 17832988248106855235
23366157 5 17986115097734808548
23402539 116 18334868245992859078
23419403 2 14719120933936699999
23463225 33 18411702088656130514
23557571 272 18116985787927861828
23558518 356 17620484510504440578
23559900 14 18337399223397497945
2748010 2 18337119977398232344
3071541 12 18194680367369978204
3071541 158 18413108342395353877
335352 9 18409449211106380093
34934 24 18338243789834872619
5104073 3 18335701594592537211
7164475 11 18127411374810734614
7364860 26 18191586354571241744
7495541 125 18059566941520933715
81228 2 18194104446931607032
8809292 202 18271523105053237251
90316 7 18198355128835694296
9709674 26 18124316013123527643
9981440 41 17330844517264457345

> <PUBCHEM_SHAPE_MULTIPOLES>
351.7
7.26
2.93
0.76
1.61
2.89
0.06
-3.47
0.03
-1.1
0.43
-0.47
0.11
-0.19

> <PUBCHEM_SHAPE_SELFOVERLAP>
777.753

> <PUBCHEM_SHAPE_VOLUME>
187.5

> <PUBCHEM_COORDINATE_TYPE>
2
5
10

$$$$

