26548
  -OEChem-07051212483D

 17 17  0     0  0  0  0  0  0999 V2000
   -3.4744    0.0000    0.5881 O   0  0  0  0  0  0  0  0  0  0  0  0
    3.5841    0.0003    1.1230 N   0  0  0  0  0  0  0  0  0  0  0  0
    0.5199   -0.0004   -0.5412 C   0  0  0  0  0  0  0  0  0  0  0  0
   -0.1515   -1.2082   -0.3512 C   0  0  0  0  0  0  0  0  0  0  0  0
   -0.1510    1.2078   -0.3518 C   0  0  0  0  0  0  0  0  0  0  0  0
    1.9547   -0.0005   -0.9473 C   0  0  0  0  0  0  0  0  0  0  0  0
   -1.4939   -1.2077    0.0278 C   0  0  0  0  0  0  0  0  0  0  0  0
   -1.4933    1.2082    0.0274 C   0  0  0  0  0  0  0  0  0  0  0  0
   -2.1648    0.0004    0.2172 C   0  0  0  0  0  0  0  0  0  0  0  0
    2.8702    0.0001    0.2082 C   0  0  0  0  0  0  0  0  0  0  0  0
    0.3599   -2.1565   -0.4942 H   0  0  0  0  0  0  0  0  0  0  0  0
    0.3608    2.1559   -0.4952 H   0  0  0  0  0  0  0  0  0  0  0  0
    2.1623    0.8714   -1.5804 H   0  0  0  0  0  0  0  0  0  0  0  0
    2.1625   -0.8730   -1.5795 H   0  0  0  0  0  0  0  0  0  0  0  0
   -2.0055   -2.1554    0.1730 H   0  0  0  0  0  0  0  0  0  0  0  0
   -2.0105    2.1525    0.1738 H   0  0  0  0  0  0  0  0  0  0  0  0
   -3.7773   -0.9204    0.6739 H   0  0  0  0  0  0  0  0  0  0  0  0
  1  9  1  0  0  0  0
  1 17  1  0  0  0  0
  2 10  3  0  0  0  0
  3  4  2  0  0  0  0
  3  5  1  0  0  0  0
  3  6  1  0  0  0  0
  4  7  1  0  0  0  0
  4 11  1  0  0  0  0
  5  8  2  0  0  0  0
  5 12  1  0  0  0  0
  6 10  1  0  0  0  0
  6 13  1  0  0  0  0
  6 14  1  0  0  0  0
  7  9  2  0  0  0  0
  7 15  1  0  0  0  0
  8  9  1  0  0  0  0
  8 16  1  0  0  0  0
M  END
> <PUBCHEM_COMPOUND_CID>
26548

> <PUBCHEM_CONFORMER_RMSD>
0.4

> <PUBCHEM_CONFORMER_DIVERSEORDER>
1
2
3

> <PUBCHEM_MMFF94_PARTIAL_CHARGES>
15
1 -0.53
10 0.36
11 0.15
12 0.15
15 0.15
16 0.15
17 0.45
2 -0.56
3 -0.14
4 -0.15
5 -0.15
6 0.34
7 -0.15
8 -0.15
9 0.08

> <PUBCHEM_EFFECTIVE_ROTOR_COUNT>
1

> <PUBCHEM_PHARMACOPHORE_FEATURES>
3
1 1 donor
1 2 acceptor
6 3 4 5 7 8 9 rings

> <PUBCHEM_HEAVY_ATOM_COUNT>
10

> <PUBCHEM_ATOM_DEF_STEREO_COUNT>
0

> <PUBCHEM_ATOM_UDEF_STEREO_COUNT>
0

> <PUBCHEM_BOND_DEF_STEREO_COUNT>
0

> <PUBCHEM_BOND_UDEF_STEREO_COUNT>
0

> <PUBCHEM_ISOTOPIC_ATOM_COUNT>
0

> <PUBCHEM_COMPONENT_COUNT>
1

> <PUBCHEM_CACTVS_TAUTO_COUNT>
2

> <PUBCHEM_CONFORMER_ID>
000067B400000001

> <PUBCHEM_MMFF94_ENERGY>
19.154

> <PUBCHEM_FEATURE_SELFOVERLAP>
15.223

> <PUBCHEM_SHAPE_FINGERPRINT>
10857977 72 18408318873928582157
11769659 78 16271637880648478659
12932764 1 17603864537583438382
15310529 11 16630519596724640949
16945 1 18410846664225030951
17846911 113 18260833717236965649
20645464 45 17822010917304544286
20653085 51 14057008174363420914
20871998 184 18115021888119771639
21040471 1 18266444580818280845
23552423 10 17698149656545552069
2748010 2 18051398862874485615
369184 2 17967819361692473926
5084963 1 18190723401241333174

> <PUBCHEM_SHAPE_MULTIPOLES>
194.94
4.81
1.21
0.88
1.83
0
0.02
0
1.78
-0.51
-0.09
0.5
0
0

> <PUBCHEM_SHAPE_SELFOVERLAP>
403.129

> <PUBCHEM_SHAPE_VOLUME>
110.1

> <PUBCHEM_COORDINATE_TYPE>
2
5
10

$$$$

