439773
  -OEChem-07051212473D

 25 24  0     0  0  0  0  0  0999 V2000
    0.2999   -1.4755    0.2027 O   0  0  0  0  0  0  0  0  0  0  0  0
    3.5969    1.1222   -0.1231 O   0  0  0  0  0  0  0  0  0  0  0  0
    2.9003   -1.0252   -0.3891 O   0  0  0  0  0  0  0  0  0  0  0  0
   -2.2014    0.1683   -0.0997 N   0  3  0  0  0  0  0  0  0  0  0  0
   -1.1166    0.3093    0.9582 C   0  0  0  0  0  0  0  0  0  0  0  0
   -2.4242   -1.3061   -0.4048 C   0  0  0  0  0  0  0  0  0  0  0  0
   -3.4956    0.7807    0.4163 C   0  0  0  0  0  0  0  0  0  0  0  0
   -1.7697    0.8891   -1.3686 C   0  0  0  0  0  0  0  0  0  0  0  0
    0.1931   -0.2855    0.4932 C   0  0  0  0  0  0  0  0  0  0  0  0
    1.3514    0.6895    0.3970 C   0  0  0  0  0  0  0  0  0  0  0  0
    2.6658    0.1332   -0.0822 C   0  0  0  0  0  0  0  0  0  0  0  0
   -1.0020    1.3767    1.1770 H   0  0  0  0  0  0  0  0  0  0  0  0
   -1.4460   -0.2033    1.8688 H   0  0  0  0  0  0  0  0  0  0  0  0
   -2.4841   -1.8606    0.5363 H   0  0  0  0  0  0  0  0  0  0  0  0
   -3.3719   -1.3977   -0.9460 H   0  0  0  0  0  0  0  0  0  0  0  0
   -1.6298   -1.6829   -1.0526 H   0  0  0  0  0  0  0  0  0  0  0  0
   -3.3125    1.8347    0.6455 H   0  0  0  0  0  0  0  0  0  0  0  0
   -4.2606    0.6882   -0.3603 H   0  0  0  0  0  0  0  0  0  0  0  0
   -3.7976    0.2389    1.3175 H   0  0  0  0  0  0  0  0  0  0  0  0
   -1.5658    1.9353   -1.1217 H   0  0  0  0  0  0  0  0  0  0  0  0
   -0.8788    0.4077   -1.7809 H   0  0  0  0  0  0  0  0  0  0  0  0
   -2.5891    0.8250   -2.0915 H   0  0  0  0  0  0  0  0  0  0  0  0
    1.5107    1.1052    1.3980 H   0  0  0  0  0  0  0  0  0  0  0  0
    1.0566    1.4865   -0.2940 H   0  0  0  0  0  0  0  0  0  0  0  0
    4.4683    0.7911   -0.4286 H   0  0  0  0  0  0  0  0  0  0  0  0
  1  9  2  0  0  0  0
  2 11  1  0  0  0  0
  2 25  1  0  0  0  0
  3 11  2  0  0  0  0
  4  5  1  0  0  0  0
  4  6  1  0  0  0  0
  4  7  1  0  0  0  0
  4  8  1  0  0  0  0
  5  9  1  0  0  0  0
  5 12  1  0  0  0  0
  5 13  1  0  0  0  0
  6 14  1  0  0  0  0
  6 15  1  0  0  0  0
  6 16  1  0  0  0  0
  7 17  1  0  0  0  0
  7 18  1  0  0  0  0
  7 19  1  0  0  0  0
  8 20  1  0  0  0  0
  8 21  1  0  0  0  0
  8 22  1  0  0  0  0
  9 10  1  0  0  0  0
 10 11  1  0  0  0  0
 10 23  1  0  0  0  0
 10 24  1  0  0  0  0
M  CHG  1   4   1
M  END
> <PUBCHEM_COMPOUND_CID>
439773

> <PUBCHEM_CONFORMER_RMSD>
0.6

> <PUBCHEM_CONFORMER_DIVERSEORDER>
2
20
10
7
16
19
1
21
8
14
17
22
3
15
9
18
13
11
4
12
6
5

> <PUBCHEM_MMFF94_PARTIAL_CHARGES>
12
1 -0.57
10 0.12
11 0.66
2 -0.65
25 0.5
3 -0.57
4 -1.01
5 0.56
6 0.5
7 0.5
8 0.5
9 0.45

> <PUBCHEM_EFFECTIVE_ROTOR_COUNT>
4

> <PUBCHEM_PHARMACOPHORE_FEATURES>
6
1 1 acceptor
1 10 anion
1 2 acceptor
1 3 acceptor
1 4 cation
3 2 3 11 anion

> <PUBCHEM_HEAVY_ATOM_COUNT>
11

> <PUBCHEM_ATOM_DEF_STEREO_COUNT>
0

> <PUBCHEM_ATOM_UDEF_STEREO_COUNT>
0

> <PUBCHEM_BOND_DEF_STEREO_COUNT>
0

> <PUBCHEM_BOND_UDEF_STEREO_COUNT>
0

> <PUBCHEM_ISOTOPIC_ATOM_COUNT>
0

> <PUBCHEM_COMPONENT_COUNT>
1

> <PUBCHEM_CACTVS_TAUTO_COUNT>
5

> <PUBCHEM_CONFORMER_ID>
0006B5DD00000002

> <PUBCHEM_MMFF94_ENERGY>
26.5452

> <PUBCHEM_FEATURE_SELFOVERLAP>
30.779

> <PUBCHEM_SHAPE_FINGERPRINT>
11062470 55 15719395048667601088
12897270 3 18341059570320049855
12932764 1 17988648527064548682
13839132 238 16843894280886319543
14325111 11 18409446972985255010
14390081 3 17632582668624907524
15310529 11 17603866680439783349
15775835 57 18413106156203830340
17844478 74 17917982915058764385
18186145 218 18409729582076022372
18342897 96 17131004211993005277
20279233 1 4823209490148794292
20653085 51 18343578559875321385
21028194 46 17703791456960903160
21119208 17 16732698363566944476
21293036 1 18410012100534633088
23235685 24 18335424586144345785
23402539 116 17131841936710877507
29004967 10 8286197270970486946
3248919 1 18041288732944903466
5084963 1 18341615880048316211
528716 315 17676764288471161980

> <PUBCHEM_SHAPE_MULTIPOLES>
203.79
5.66
1.29
0.95
2.02
0.32
0.15
-1.04
0.48
-0.07
0.13
-0.47
-0.18
0.01

> <PUBCHEM_SHAPE_SELFOVERLAP>
382.79

> <PUBCHEM_SHAPE_VOLUME>
128.5

> <PUBCHEM_COORDINATE_TYPE>
2
5
10

$$$$

