443307
  -OEChem-07051213023D

 65 68  0     1  0  0  0  0  0999 V2000
   -2.2194   -0.7608    0.5448 O   0  0  0  0  0  0  0  0  0  0  0  0
   -2.9456    1.2685   -0.3483 O   0  0  0  0  0  0  0  0  0  0  0  0
   -4.5209   -2.9026   -2.0986 O   0  0  0  0  0  0  0  0  0  0  0  0
   -5.1149   -0.0667   -1.5712 O   0  0  0  0  0  0  0  0  0  0  0  0
   -3.5273   -4.1693    0.3215 O   0  0  0  0  0  0  0  0  0  0  0  0
   -1.0763    3.3214   -0.9335 O   0  0  0  0  0  0  0  0  0  0  0  0
   -1.4338   -3.8606    1.9940 O   0  0  0  0  0  0  0  0  0  0  0  0
   -0.1953   -2.0252    1.4526 O   0  0  0  0  0  0  0  0  0  0  0  0
   -2.2269    1.6895    1.7988 O   0  0  0  0  0  0  0  0  0  0  0  0
    3.8980    0.9717    0.4272 C   0  0  1  0  0  0  0  0  0  0  0  0
    3.9789    0.6808    1.9391 C   0  0  0  0  0  0  0  0  0  0  0  0
   -4.2509   -2.2107   -0.8787 C   0  0  2  0  0  0  0  0  0  0  0  0
   -3.9225   -0.7487   -1.1829 C   0  0  2  0  0  0  0  0  0  0  0  0
   -3.0823   -2.9122   -0.1856 C   0  0  1  0  0  0  0  0  0  0  0  0
    3.3570   -0.6628    2.3012 C   0  0  0  0  0  0  0  0  0  0  0  0
    4.2641   -0.2348   -0.4244 C   0  0  0  0  0  0  0  0  0  0  0  0
   -3.3454   -0.0437    0.0450 C   0  0  1  0  0  0  0  0  0  0  0  0
    4.0747   -1.7994    1.5798 C   0  0  0  0  0  0  0  0  0  0  0  0
   -2.5603   -2.0738    0.9745 C   0  0  1  0  0  0  0  0  0  0  0  0
    4.3099   -1.5349    0.1143 C   0  0  0  0  0  0  0  0  0  0  0  0
    2.5589    1.6044    0.0605 C   0  0  0  0  0  0  0  0  0  0  0  0
    4.5479   -0.0484   -1.7893 C   0  0  0  0  0  0  0  0  0  0  0  0
    4.6465   -2.6142   -0.7183 C   0  0  0  0  0  0  0  0  0  0  0  0
   -2.0508    3.4264    0.1034 C   0  0  0  0  0  0  0  0  0  0  0  0
    1.5224    0.8014   -0.4018 C   0  0  0  0  0  0  0  0  0  0  0  0
    2.3872    2.9775    0.1927 C   0  0  0  0  0  0  0  0  0  0  0  0
   -1.2648   -2.6154    1.4859 C   0  0  0  0  0  0  0  0  0  0  0  0
   -2.3954    2.0382    0.6363 C   0  0  0  0  0  0  0  0  0  0  0  0
    4.8709   -1.1310   -2.6061 C   0  0  0  0  0  0  0  0  0  0  0  0
    4.9198   -2.4138   -2.0708 C   0  0  0  0  0  0  0  0  0  0  0  0
    0.1179    2.7564   -0.6064 C   0  0  0  0  0  0  0  0  0  0  0  0
    0.2978    1.3794   -0.7364 C   0  0  0  0  0  0  0  0  0  0  0  0
    1.1625    3.5555   -0.1419 C   0  0  0  0  0  0  0  0  0  0  0  0
   -1.4743    4.3032    1.2138 C   0  0  0  0  0  0  0  0  0  0  0  0
   -3.3071    4.0550   -0.4911 C   0  0  0  0  0  0  0  0  0  0  0  0
    4.6723    1.7264    0.2206 H   0  0  0  0  0  0  0  0  0  0  0  0
    5.0356    0.6608    2.2398 H   0  0  0  0  0  0  0  0  0  0  0  0
    3.5071    1.4799    2.5234 H   0  0  0  0  0  0  0  0  0  0  0  0
   -5.1606   -2.2880   -0.2704 H   0  0  0  0  0  0  0  0  0  0  0  0
   -3.2270   -0.6886   -2.0292 H   0  0  0  0  0  0  0  0  0  0  0  0
   -2.2912   -3.1137   -0.9195 H   0  0  0  0  0  0  0  0  0  0  0  0
    3.4149   -0.8235    3.3838 H   0  0  0  0  0  0  0  0  0  0  0  0
    2.2927   -0.6653    2.0402 H   0  0  0  0  0  0  0  0  0  0  0  0
   -4.1120    0.0535    0.8262 H   0  0  0  0  0  0  0  0  0  0  0  0
   -3.2638   -2.0189    1.8144 H   0  0  0  0  0  0  0  0  0  0  0  0
    3.4878   -2.7175    1.7036 H   0  0  0  0  0  0  0  0  0  0  0  0
    5.0507   -1.9664    2.0529 H   0  0  0  0  0  0  0  0  0  0  0  0
    4.5169    0.9480   -2.2243 H   0  0  0  0  0  0  0  0  0  0  0  0
    4.7009   -3.6217   -0.3123 H   0  0  0  0  0  0  0  0  0  0  0  0
    1.6225   -0.2745   -0.5054 H   0  0  0  0  0  0  0  0  0  0  0  0
    3.1948    3.6100    0.5505 H   0  0  0  0  0  0  0  0  0  0  0  0
   -5.2466   -2.4326   -2.5440 H   0  0  0  0  0  0  0  0  0  0  0  0
   -4.8772    0.8609   -1.7412 H   0  0  0  0  0  0  0  0  0  0  0  0
   -2.7476   -4.6555    0.6381 H   0  0  0  0  0  0  0  0  0  0  0  0
    5.0862   -0.9720   -3.6586 H   0  0  0  0  0  0  0  0  0  0  0  0
    5.1759   -3.2582   -2.7040 H   0  0  0  0  0  0  0  0  0  0  0  0
   -0.4943    0.7467   -1.1236 H   0  0  0  0  0  0  0  0  0  0  0  0
    1.0459    4.6320   -0.0571 H   0  0  0  0  0  0  0  0  0  0  0  0
   -1.0849    5.2478    0.8181 H   0  0  0  0  0  0  0  0  0  0  0  0
   -0.6731    3.8149    1.7784 H   0  0  0  0  0  0  0  0  0  0  0  0
   -2.2508    4.5492    1.9485 H   0  0  0  0  0  0  0  0  0  0  0  0
   -3.6569    3.5031   -1.3713 H   0  0  0  0  0  0  0  0  0  0  0  0
   -3.1036    5.0758   -0.8346 H   0  0  0  0  0  0  0  0  0  0  0  0
   -4.1253    4.0909    0.2362 H   0  0  0  0  0  0  0  0  0  0  0  0
   -0.5930   -4.2350    2.3334 H   0  0  0  0  0  0  0  0  0  0  0  0
  1 17  1  0  0  0  0
  1 19  1  0  0  0  0
  2 17  1  0  0  0  0
  2 28  1  0  0  0  0
  3 12  1  0  0  0  0
  3 52  1  0  0  0  0
  4 13  1  0  0  0  0
  4 53  1  0  0  0  0
  5 14  1  0  0  0  0
  5 54  1  0  0  0  0
  6 24  1  0  0  0  0
  6 31  1  0  0  0  0
  7 27  1  0  0  0  0
  7 65  1  0  0  0  0
  8 27  2  0  0  0  0
  9 28  2  0  0  0  0
 10 11  1  0  0  0  0
 10 16  1  0  0  0  0
 10 21  1  0  0  0  0
 10 36  1  0  0  0  0
 11 15  1  0  0  0  0
 11 37  1  0  0  0  0
 11 38  1  0  0  0  0
 12 13  1  0  0  0  0
 12 14  1  0  0  0  0
 12 39  1  0  0  0  0
 13 17  1  0  0  0  0
 13 40  1  0  0  0  0
 14 19  1  0  0  0  0
 14 41  1  0  0  0  0
 15 18  1  0  0  0  0
 15 42  1  0  0  0  0
 15 43  1  0  0  0  0
 16 20  1  0  0  0  0
 16 22  2  0  0  0  0
 17 44  1  0  0  0  0
 18 20  1  0  0  0  0
 18 46  1  0  0  0  0
 18 47  1  0  0  0  0
 19 27  1  0  0  0  0
 19 45  1  0  0  0  0
 20 23  2  0  0  0  0
 21 25  2  0  0  0  0
 21 26  1  0  0  0  0
 22 29  1  0  0  0  0
 22 48  1  0  0  0  0
 23 30  1  0  0  0  0
 23 49  1  0  0  0  0
 24 28  1  0  0  0  0
 24 34  1  0  0  0  0
 24 35  1  0  0  0  0
 25 32  1  0  0  0  0
 25 50  1  0  0  0  0
 26 33  2  0  0  0  0
 26 51  1  0  0  0  0
 29 30  2  0  0  0  0
 29 55  1  0  0  0  0
 30 56  1  0  0  0  0
 31 32  2  0  0  0  0
 31 33  1  0  0  0  0
 32 57  1  0  0  0  0
 33 58  1  0  0  0  0
 34 59  1  0  0  0  0
 34 60  1  0  0  0  0
 34 61  1  0  0  0  0
 35 62  1  0  0  0  0
 35 63  1  0  0  0  0
 35 64  1  0  0  0  0
M  END
> <PUBCHEM_COMPOUND_CID>
443307

> <PUBCHEM_CONFORMER_RMSD>
1.2

> <PUBCHEM_CONFORMER_DIVERSEORDER>
1
451
30
592
68
197
120
106
185
330
542
821
56
689
857
46
211
652
62
35
844
54
498
172
243
221
98
500
242
369
606
737
883
8
131
16
742
105
544
734
295
584
26
342
39
124
160
61
132
248
434
361
856
284
701
833
170
525
367
430
206
175
146
345
491
870
2
13
90
563
66
21
157
199
202
650
134
266
761
24
355
19
222
241
333
187
244
716
561
126
112
127
5
363
745
38
832
357
558
10
402
116
591
720
480
317
654
69
627
398
344
37
468
502
383
390
225
549
18
448
510
55
74
648
394
261
633
6
858
881
438
20
89
540
871
73
645
435
41
217
619
51
313
519
315
15
725
580
102
77
687
113
48
384
815
49
395
310
65
95
264
128
152
150
478
479
165
167
125
79
272
178
795
618
392
446
86
710
17
101
81
362
159
884
380
198
200
161
783
45
177
189
692
47
810
179
235
570
60
601
840
436
204
811
180
331
215
866
778
130
661
4
246
87
139
461
121
186
676
195
604
865
302
322
115
874
404
672
58
719
29
32
136
526
7
307
432
340
801
286
254
585
193
622
365
23
681
807
868
694
154
188
462
103
499
44
764
543
59
760
9
281
12
660
774
507
439
274
527
793
205
341
251
174

> <PUBCHEM_MMFF94_PARTIAL_CHARGES>
43
1 -0.56
10 0.29
12 0.28
13 0.28
14 0.28
16 -0.14
17 0.56
18 0.14
19 0.34
2 -0.43
20 -0.14
21 -0.14
22 -0.15
23 -0.15
24 0.34
25 -0.15
26 -0.15
27 0.66
28 0.66
29 -0.15
3 -0.68
30 -0.15
31 0.08
32 -0.15
33 -0.15
4 -0.68
48 0.15
49 0.15
5 -0.68
50 0.15
51 0.15
52 0.4
53 0.4
54 0.4
55 0.15
56 0.15
57 0.15
58 0.15
6 -0.36
65 0.5
7 -0.65
8 -0.57
9 -0.57

> <PUBCHEM_EFFECTIVE_ROTOR_COUNT>
9

> <PUBCHEM_PHARMACOPHORE_FEATURES>
17
1 1 acceptor
1 3 acceptor
1 3 donor
1 4 acceptor
1 4 donor
1 5 acceptor
1 5 donor
1 6 acceptor
1 7 acceptor
1 8 acceptor
1 9 acceptor
3 24 34 35 hydrophobe
3 7 8 27 anion
6 1 12 13 14 17 19 rings
6 10 11 15 16 18 20 rings
6 16 20 22 23 29 30 rings
6 21 25 26 31 32 33 rings

> <PUBCHEM_HEAVY_ATOM_COUNT>
35

> <PUBCHEM_ATOM_DEF_STEREO_COUNT>
5

> <PUBCHEM_ATOM_UDEF_STEREO_COUNT>
1

> <PUBCHEM_BOND_DEF_STEREO_COUNT>
0

> <PUBCHEM_BOND_UDEF_STEREO_COUNT>
0

> <PUBCHEM_ISOTOPIC_ATOM_COUNT>
0

> <PUBCHEM_COMPONENT_COUNT>
1

> <PUBCHEM_CACTVS_TAUTO_COUNT>
1

> <PUBCHEM_CONFORMER_ID>
0006C3AB00000001

> <PUBCHEM_MMFF94_ENERGY>
105.7037

> <PUBCHEM_FEATURE_SELFOVERLAP>
86.376

> <PUBCHEM_SHAPE_FINGERPRINT>
10369192 42 13037172691603223246
10928967 22 18269549610577429394
11285246 1 18410571764833311755
11455722 242 18339913906134897774
11513181 2 18261107427113109806
11552529 35 18114177575085642536
12422481 6 18041542712121188675
12553582 1 18343292652613628800
12788726 201 18413392037753839305
14068700 686 18120096087460051040
14251757 5 18197195139994644350
14659021 117 18412267259271473048
15001296 14 18343869892123957241
15419009 47 17903914801563897502
15420108 30 17540812133099247401
17627616 140 17767406055896923451
17909252 39 18264195916805754380
20764821 26 17838343239096472410
20775438 99 17039545408987768591
20775530 9 18337666404353944785
21703447 108 18190188896888728216
23559900 14 18337113345657640384
23572383 38 18193853551836947111
24941158 1 17023484005374377298
3027735 51 18268724972698942077
3298306 158 17695349569733971012
338550 245 17697596950680092178
354706 35 17333944049201085959
437795 70 18263636423984645046
463206 1 18412269419777153625
508706 21 18262513813959473694
563151 248 17896861327207555377
613672 6 18265624177767186551
6823239 73 18334573560440245454

> <PUBCHEM_SHAPE_MULTIPOLES>
667.46
11.2
5.98
2.07
5.2
1.46
0.02
-7.43
-4.55
-6.29
0.59
1.69
-1.33
0.44

> <PUBCHEM_SHAPE_SELFOVERLAP>
1440.064

> <PUBCHEM_SHAPE_VOLUME>
361.5

> <PUBCHEM_COORDINATE_TYPE>
2
5
10

$$$$

