10988
  -OEChem-06261205122D

 34 33  0     0  0  0  0  0  0999 V2000
    5.4641   -0.4400    0.0000 N   0  0  0  0  0  0  0  0  0  0  0  0
    7.1962   -0.4400    0.0000 C   0  0  0  0  0  0  0  0  0  0  0  0
    3.7320   -0.4400    0.0000 C   0  0  0  0  0  0  0  0  0  0  0  0
    8.0622    0.0600    0.0000 C   0  0  0  0  0  0  0  0  0  0  0  0
    2.8660    0.0600    0.0000 C   0  0  0  0  0  0  0  0  0  0  0  0
    6.3301    0.0600    0.0000 C   0  0  0  0  0  0  0  0  0  0  0  0
    4.5981    0.0600    0.0000 C   0  0  0  0  0  0  0  0  0  0  0  0
    2.0000   -0.4400    0.0000 C   0  0  0  0  0  0  0  0  0  0  0  0
    2.8660    1.0600    0.0000 C   0  0  0  0  0  0  0  0  0  0  0  0
    8.9282   -0.4400    0.0000 C   0  0  0  0  0  0  0  0  0  0  0  0
    8.0622    1.0600    0.0000 C   0  0  0  0  0  0  0  0  0  0  0  0
    3.3335   -0.9149    0.0000 H   0  0  0  0  0  0  0  0  0  0  0  0
    4.1306   -0.9149    0.0000 H   0  0  0  0  0  0  0  0  0  0  0  0
    6.7976   -0.9149    0.0000 H   0  0  0  0  0  0  0  0  0  0  0  0
    7.5947   -0.9149    0.0000 H   0  0  0  0  0  0  0  0  0  0  0  0
    2.8660   -0.5600    0.0000 H   0  0  0  0  0  0  0  0  0  0  0  0
    8.0622   -0.5600    0.0000 H   0  0  0  0  0  0  0  0  0  0  0  0
    6.7287    0.5349    0.0000 H   0  0  0  0  0  0  0  0  0  0  0  0
    5.9316    0.5349    0.0000 H   0  0  0  0  0  0  0  0  0  0  0  0
    4.9966    0.5349    0.0000 H   0  0  0  0  0  0  0  0  0  0  0  0
    4.1996    0.5349    0.0000 H   0  0  0  0  0  0  0  0  0  0  0  0
    5.4641   -1.0600    0.0000 H   0  0  0  0  0  0  0  0  0  0  0  0
    8.6822    1.0600    0.0000 H   0  0  0  0  0  0  0  0  0  0  0  0
    8.0622    1.6800    0.0000 H   0  0  0  0  0  0  0  0  0  0  0  0
    7.4422    1.0600    0.0000 H   0  0  0  0  0  0  0  0  0  0  0  0
    8.6182   -0.9769    0.0000 H   0  0  0  0  0  0  0  0  0  0  0  0
    9.4651   -0.7500    0.0000 H   0  0  0  0  0  0  0  0  0  0  0  0
    9.2382    0.0969    0.0000 H   0  0  0  0  0  0  0  0  0  0  0  0
    3.4860    1.0600    0.0000 H   0  0  0  0  0  0  0  0  0  0  0  0
    2.8660    1.6800    0.0000 H   0  0  0  0  0  0  0  0  0  0  0  0
    2.2460    1.0600    0.0000 H   0  0  0  0  0  0  0  0  0  0  0  0
    1.6900    0.0969    0.0000 H   0  0  0  0  0  0  0  0  0  0  0  0
    1.4631   -0.7500    0.0000 H   0  0  0  0  0  0  0  0  0  0  0  0
    2.3100   -0.9769    0.0000 H   0  0  0  0  0  0  0  0  0  0  0  0
  1  6  1  0  0  0  0
  1  7  1  0  0  0  0
  1 22  1  0  0  0  0
  2  4  1  0  0  0  0
  2  6  1  0  0  0  0
  2 14  1  0  0  0  0
  2 15  1  0  0  0  0
  3  5  1  0  0  0  0
  3  7  1  0  0  0  0
  3 12  1  0  0  0  0
  3 13  1  0  0  0  0
  4 10  1  0  0  0  0
  4 11  1  0  0  0  0
  4 17  1  0  0  0  0
  5  8  1  0  0  0  0
  5  9  1  0  0  0  0
  5 16  1  0  0  0  0
  6 18  1  0  0  0  0
  6 19  1  0  0  0  0
  7 20  1  0  0  0  0
  7 21  1  0  0  0  0
  8 32  1  0  0  0  0
  8 33  1  0  0  0  0
  8 34  1  0  0  0  0
  9 29  1  0  0  0  0
  9 30  1  0  0  0  0
  9 31  1  0  0  0  0
 10 26  1  0  0  0  0
 10 27  1  0  0  0  0
 10 28  1  0  0  0  0
 11 23  1  0  0  0  0
 11 24  1  0  0  0  0
 11 25  1  0  0  0  0
M  END
> <PUBCHEM_COMPOUND_CID>
10988

> <PUBCHEM_COMPOUND_CANONICALIZED>
1

> <PUBCHEM_CACTVS_COMPLEXITY>
66.9

> <PUBCHEM_CACTVS_HBOND_ACCEPTOR>
1

> <PUBCHEM_CACTVS_HBOND_DONOR>
1

> <PUBCHEM_CACTVS_ROTATABLE_BOND>
6

> <PUBCHEM_CACTVS_SUBSKEYS>
AAADceByAAAAAAAAAAAAAAAAAAAAAAAAAAAAAAAAAAAAAAAAAAAAHAAQAAAADQDBAAQCAALAAAAAAAAAAAAAAAAAAAAAAIAIAAAAAAAAgAAEAAAAEACAAAAAAAAIAAAAAAAAAAAAAAAAAAAAAAAAAAAAAA==

> <PUBCHEM_IUPAC_OPENEYE_NAME>
N-isopentyl-3-methyl-butan-1-amine

> <PUBCHEM_IUPAC_CAS_NAME>
3-methyl-N-(3-methylbutyl)-1-butanamine

> <PUBCHEM_IUPAC_NAME>
3-methyl-N-(3-methylbutyl)butan-1-amine

> <PUBCHEM_IUPAC_SYSTEMATIC_NAME>
3-methyl-N-(3-methylbutyl)butan-1-amine

> <PUBCHEM_IUPAC_TRADITIONAL_NAME>
diisoamylamine

> <PUBCHEM_IUPAC_INCHI>
InChI=1S/C10H23N/c1-9(2)5-7-11-8-6-10(3)4/h9-11H,5-8H2,1-4H3

> <PUBCHEM_IUPAC_INCHIKEY>
SPVVMXMTSODFPU-UHFFFAOYSA-N

> <PUBCHEM_XLOGP3_AA>
3.2

> <PUBCHEM_EXACT_MASS>
157.18305

> <PUBCHEM_MOLECULAR_FORMULA>
C10H23N

> <PUBCHEM_MOLECULAR_WEIGHT>
157.29632

> <PUBCHEM_OPENEYE_CAN_SMILES>
CC(C)CCNCCC(C)C

> <PUBCHEM_OPENEYE_ISO_SMILES>
CC(C)CCNCCC(C)C

> <PUBCHEM_CACTVS_TPSA>
12

> <PUBCHEM_MONOISOTOPIC_WEIGHT>
157.18305

> <PUBCHEM_TOTAL_CHARGE>
0

> <PUBCHEM_HEAVY_ATOM_COUNT>
11

> <PUBCHEM_ATOM_DEF_STEREO_COUNT>
0

> <PUBCHEM_ATOM_UDEF_STEREO_COUNT>
0

> <PUBCHEM_BOND_DEF_STEREO_COUNT>
0

> <PUBCHEM_BOND_UDEF_STEREO_COUNT>
0

> <PUBCHEM_ISOTOPIC_ATOM_COUNT>
0

> <PUBCHEM_COMPONENT_COUNT>
1

> <PUBCHEM_CACTVS_TAUTO_COUNT>
1

> <PUBCHEM_COORDINATE_TYPE>
1
5
255

$$$$

