5321164
  -OEChem-07051213083D

 52 55  0     1  0  0  0  0  0999 V2000
   -3.6858    0.0193   -0.5255 O   0  0  0  0  0  0  0  0  0  0  0  0
   -2.8553    0.6765    1.5536 O   0  0  0  0  0  0  0  0  0  0  0  0
   -6.7282   -2.1169    1.2203 O   0  0  0  0  0  0  0  0  0  0  0  0
   -6.0352   -2.5990   -1.5444 O   0  0  0  0  0  0  0  0  0  0  0  0
   -4.3292   -1.4068    2.7764 O   0  0  0  0  0  0  0  0  0  0  0  0
   -3.0798   -0.0666   -3.2052 O   0  0  0  0  0  0  0  0  0  0  0  0
    1.7948    0.4128    0.2648 O   0  0  0  0  0  0  0  0  0  0  0  0
   -0.4989    4.4981   -0.1088 O   0  0  0  0  0  0  0  0  0  0  0  0
    2.3626    3.7550   -0.7541 O   0  0  0  0  0  0  0  0  0  0  0  0
    6.7077   -1.8555    1.9793 O   0  0  0  0  0  0  0  0  0  0  0  0
    6.7088   -3.6475   -0.1438 O   0  0  0  0  0  0  0  0  0  0  0  0
   -5.4173   -1.9258    0.6859 C   0  0  1  0  0  0  0  0  0  0  0  0
   -5.5598   -1.4977   -0.7747 C   0  0  1  0  0  0  0  0  0  0  0  0
   -4.6836   -0.8637    1.5048 C   0  0  2  0  0  0  0  0  0  0  0  0
   -4.2153   -1.0302   -1.3373 C   0  0  1  0  0  0  0  0  0  0  0  0
   -3.4032   -0.4081    0.8050 C   0  0  1  0  0  0  0  0  0  0  0  0
   -4.3548   -0.4882   -2.7564 C   0  0  0  0  0  0  0  0  0  0  0  0
   -1.6987    1.2282    1.0750 C   0  0  0  0  0  0  0  0  0  0  0  0
   -0.5599    0.4300    0.9464 C   0  0  0  0  0  0  0  0  0  0  0  0
   -1.6814    2.5909    0.7217 C   0  0  0  0  0  0  0  0  0  0  0  0
    0.5812    1.0309    0.4600 C   0  0  0  0  0  0  0  0  0  0  0  0
    0.5942    2.3804    0.1120 C   0  0  0  0  0  0  0  0  0  0  0  0
   -0.5176    3.1870    0.2300 C   0  0  0  0  0  0  0  0  0  0  0  0
    1.9376    2.6935   -0.3584 C   0  0  0  0  0  0  0  0  0  0  0  0
    2.6428    1.3952   -0.2327 C   0  0  0  0  0  0  0  0  0  0  0  0
    3.9222    1.1995   -0.5549 C   0  0  0  0  0  0  0  0  0  0  0  0
    4.6566   -0.0747   -0.4439 C   0  0  0  0  0  0  0  0  0  0  0  0
    5.3393   -0.3627    0.7259 C   0  0  0  0  0  0  0  0  0  0  0  0
    4.6474   -0.9564   -1.5115 C   0  0  0  0  0  0  0  0  0  0  0  0
    6.0332   -1.5681    0.8313 C   0  0  0  0  0  0  0  0  0  0  0  0
    5.3414   -2.1618   -1.4061 C   0  0  0  0  0  0  0  0  0  0  0  0
    6.0342   -2.4676   -0.2348 C   0  0  0  0  0  0  0  0  0  0  0  0
   -4.9070   -2.8938    0.7639 H   0  0  0  0  0  0  0  0  0  0  0  0
   -6.3076   -0.6987   -0.8490 H   0  0  0  0  0  0  0  0  0  0  0  0
   -5.3439   -0.0097    1.6976 H   0  0  0  0  0  0  0  0  0  0  0  0
   -3.4889   -1.8540   -1.3591 H   0  0  0  0  0  0  0  0  0  0  0  0
   -2.6819   -1.2357    0.7852 H   0  0  0  0  0  0  0  0  0  0  0  0
   -5.0240    0.3780   -2.7906 H   0  0  0  0  0  0  0  0  0  0  0  0
   -4.7285   -1.2502   -3.4463 H   0  0  0  0  0  0  0  0  0  0  0  0
   -7.1717   -2.7860    0.6711 H   0  0  0  0  0  0  0  0  0  0  0  0
   -5.3745   -3.3105   -1.4905 H   0  0  0  0  0  0  0  0  0  0  0  0
   -3.7436   -2.1685    2.6266 H   0  0  0  0  0  0  0  0  0  0  0  0
   -2.7547    0.6042   -2.5806 H   0  0  0  0  0  0  0  0  0  0  0  0
   -0.5540   -0.6161    1.2299 H   0  0  0  0  0  0  0  0  0  0  0  0
   -2.5892    3.1794    0.8356 H   0  0  0  0  0  0  0  0  0  0  0  0
    4.5179    2.0255   -0.9372 H   0  0  0  0  0  0  0  0  0  0  0  0
   -1.3803    4.8774    0.0512 H   0  0  0  0  0  0  0  0  0  0  0  0
    5.3421    0.3351    1.5597 H   0  0  0  0  0  0  0  0  0  0  0  0
    4.1113   -0.7290   -2.4291 H   0  0  0  0  0  0  0  0  0  0  0  0
    5.3340   -2.8535   -2.2442 H   0  0  0  0  0  0  0  0  0  0  0  0
    7.1288   -2.7267    1.8769 H   0  0  0  0  0  0  0  0  0  0  0  0
    6.5981   -4.1406   -0.9748 H   0  0  0  0  0  0  0  0  0  0  0  0
  1 15  1  0  0  0  0
  1 16  1  0  0  0  0
  2 16  1  0  0  0  0
  2 18  1  0  0  0  0
  3 12  1  0  0  0  0
  3 40  1  0  0  0  0
  4 13  1  0  0  0  0
  4 41  1  0  0  0  0
  5 14  1  0  0  0  0
  5 42  1  0  0  0  0
  6 17  1  0  0  0  0
  6 43  1  0  0  0  0
  7 21  1  0  0  0  0
  7 25  1  0  0  0  0
  8 23  1  0  0  0  0
  8 47  1  0  0  0  0
  9 24  2  0  0  0  0
 10 30  1  0  0  0  0
 10 51  1  0  0  0  0
 11 32  1  0  0  0  0
 11 52  1  0  0  0  0
 12 13  1  0  0  0  0
 12 14  1  0  0  0  0
 12 33  1  0  0  0  0
 13 15  1  0  0  0  0
 13 34  1  0  0  0  0
 14 16  1  0  0  0  0
 14 35  1  0  0  0  0
 15 17  1  0  0  0  0
 15 36  1  0  0  0  0
 16 37  1  0  0  0  0
 17 38  1  0  0  0  0
 17 39  1  0  0  0  0
 18 19  1  0  0  0  0
 18 20  2  0  0  0  0
 19 21  2  0  0  0  0
 19 44  1  0  0  0  0
 20 23  1  0  0  0  0
 20 45  1  0  0  0  0
 21 22  1  0  0  0  0
 22 23  2  0  0  0  0
 22 24  1  0  0  0  0
 24 25  1  0  0  0  0
 25 26  2  0  0  0  0
 26 27  1  0  0  0  0
 26 46  1  0  0  0  0
 27 28  2  0  0  0  0
 27 29  1  0  0  0  0
 28 30  1  0  0  0  0
 28 48  1  0  0  0  0
 29 31  2  0  0  0  0
 29 49  1  0  0  0  0
 30 32  2  0  0  0  0
 31 32  1  0  0  0  0
 31 50  1  0  0  0  0
M  END
> <PUBCHEM_COMPOUND_CID>
5321164

> <PUBCHEM_CONFORMER_RMSD>
0.8

> <PUBCHEM_CONFORMER_DIVERSEORDER>
1
321
294
155
143
218
208
199
246
341
121
197
255
109
362
201
196
240
338
343
320
350
360
105
345
146
333
43
220
149
270
154
225
301
344
18
259
349
203
135
61
47
42
103
186
319
281
296
280
20
315
214
28
158
291
102
200
310
356
14
244
361
233
160
8
331
123
326
318
297
104
285
288
151
174
312
12
108
198
292
307
298
37
180
24
29
336
106
337
363
161
334
111
183
7
52
327
159
4
284
162
332
177
232
31
205
235
23
9
168
269
254
249
276
213
156
260
10
17
256
25
219
273
227
316
195
258
19
84
207
73
2
15
275
303
268
78
152
243
147
322
49
302
252
329
11
287
6
127
16
134
13
62
112
138
96
190
26
293
189
323
98
140
283
191
309
175
170
130
279
317
124
328
5
164
163
3
304
348
157
311
176
300
99
342
286
51
128
122
65
202
314
354
182
238
126
118
57
179
75
97
295
165
116
217
114
90
132
204
265
271
347
185
125
359
215
222
355
187
100
313
30
305
253
212
340
173
216
353
131
364
129
351
267
352
82
67
139
230
93
339
358
234
248
299
27
346
263
115
357
245
120
71
171
142
241
172
50
58
44
290
34
194
282
324
264
80
239
137
95
74
117
148
77
365
210
278
119
133
33
83
231
226
46
272
261
145
306
35
141
289
89
21
188
94
69
136
266
274
86
48
330
153
70
22
110
59
63
325
144
166
209
221
247
228
167
87
236
224
64
192
229
150
56
251
36
81
277
92
45
178
40
308
211
262
335
237
76
169
184
32
55
79
54
41
113
257
91
101
38
72
53
193
250
39
68
88
206
223
107
66
181
60
242
85

> <PUBCHEM_MMFF94_PARTIAL_CHARGES>
45
1 -0.56
10 -0.53
11 -0.53
12 0.28
13 0.28
14 0.28
15 0.28
16 0.56
17 0.28
18 0.08
19 -0.15
2 -0.36
20 -0.15
21 0.08
22 0.09
23 0.08
24 0.47
25 0.09
26 -0.18
27 0.03
28 -0.15
29 -0.15
3 -0.68
30 0.08
31 -0.15
32 0.08
4 -0.68
40 0.4
41 0.4
42 0.4
43 0.4
44 0.15
45 0.15
46 0.15
47 0.45
48 0.15
49 0.15
5 -0.68
50 0.15
51 0.45
52 0.45
6 -0.68
7 -0.16
8 -0.53
9 -0.57

> <PUBCHEM_EFFECTIVE_ROTOR_COUNT>
5.4

> <PUBCHEM_PHARMACOPHORE_FEATURES>
19
1 1 acceptor
1 10 donor
1 11 donor
1 2 acceptor
1 3 acceptor
1 3 donor
1 4 acceptor
1 4 donor
1 5 acceptor
1 5 donor
1 6 acceptor
1 6 donor
1 7 acceptor
1 8 donor
1 9 acceptor
5 7 21 22 24 25 rings
6 1 12 13 14 15 16 rings
6 18 19 20 21 22 23 rings
6 27 28 29 30 31 32 rings

> <PUBCHEM_HEAVY_ATOM_COUNT>
32

> <PUBCHEM_ATOM_DEF_STEREO_COUNT>
5

> <PUBCHEM_ATOM_UDEF_STEREO_COUNT>
0

> <PUBCHEM_BOND_DEF_STEREO_COUNT>
1

> <PUBCHEM_BOND_UDEF_STEREO_COUNT>
0

> <PUBCHEM_ISOTOPIC_ATOM_COUNT>
0

> <PUBCHEM_COMPONENT_COUNT>
1

> <PUBCHEM_CACTVS_TAUTO_COUNT>
64

> <PUBCHEM_CONFORMER_ID>
005131CC00000001

> <PUBCHEM_MMFF94_ENERGY>
103.0945

> <PUBCHEM_FEATURE_SELFOVERLAP>
96.583

> <PUBCHEM_SHAPE_FINGERPRINT>
10 15 5256407205810410299
10074138 170 16518198067361635632
10622 236 18408318886819057644
10670039 82 14907911478287584943
10693767 8 18337114449780883123
11135609 149 18338811026018514788
11135926 11 18123461683967604396
11410812 94 16128384826528687726
11991303 11 17983855867892076285
12166972 35 17989479706405243446
12422481 6 17240753029801793028
13540713 5 18266996471569661776
13627167 48 11887405741037009582
13782708 43 17917149386656192267
14347332 77 18340481257311153160
15183329 4 15626227935526022682
15320294 125 17313376783062159863
15326921 28 16590531613902315377
15338160 23 7925328762952731941
17492 89 18339071696922320240
18393751 57 7709471519939339233
19315092 285 17749392538182610208
19958102 18 17346599659859818907
20028762 73 18260264161999097742
20691028 202 9583518724211920794
208703 8 18411136974250890162
21033650 10 15913053135706972349
21703447 108 18412833465179812088
23536364 44 18130796689107540013
23569914 152 18122935220209061237
2748736 6 9727351286412649126
2838139 119 12319462060522547654
32027 91 18339079281438666827
34797466 226 16629396927166221149
3504750 166 17968371363995823579
3610482 184 14764069033604310087
392239 28 16588033419893374810
397830 11 15574720183762145154
437795 70 14692571061263443334
46194498 28 17345189987358711949
50009960 94 17913787273931722946
513202 73 18409726262499059669
5364581 5 4678522624688528171
5937810 71 9870308788410309562
6034566 193 9223224148309475009
6058803 2 18194936695904878412
6431902 208 18410574032902935422
6712543 237 16153704353669027151
7970288 3 18409164376975256971

> <PUBCHEM_SHAPE_MULTIPOLES>
593.98
17.96
4.21
2.08
6.82
2.91
-0.72
-23.07
0.86
2.53
-0.33
-2.87
-1.11
-0.72

> <PUBCHEM_SHAPE_SELFOVERLAP>
1304.897

> <PUBCHEM_SHAPE_VOLUME>
319

> <PUBCHEM_COORDINATE_TYPE>
2
5
10

$$$$

