8544
  -OEChem-06261202532D

 38 41  0     1  0  0  0  0  0999 V2000
    2.5357   -1.7532    0.0000 O   0  0  0  0  0  0  0  0  0  0  0  0
    7.0628   -0.2009    0.0000 N   0  3  0  0  0  0  0  0  0  0  0  0
    7.9288    0.2991    0.0000 C   0  0  3  0  0  0  0  0  0  0  0  0
    7.9288    1.2991    0.0000 C   0  0  3  0  0  0  0  0  0  0  0  0
    8.8750   -0.0056    0.0000 C   0  0  0  0  0  0  0  0  0  0  0  0
    8.8750    1.6038    0.0000 C   0  0  0  0  0  0  0  0  0  0  0  0
    7.0628    1.7991    0.0000 C   0  0  0  0  0  0  0  0  0  0  0  0
    9.4586    0.7991    0.0000 C   0  0  0  0  0  0  0  0  0  0  0  0
    6.1968    1.2991    0.0000 C   0  0  0  0  0  0  0  0  0  0  0  0
    6.1968    0.2991    0.0000 C   0  0  0  0  0  0  0  0  0  0  0  0
    7.0789   -1.2424    0.0000 C   0  0  0  0  0  0  0  0  0  0  0  0
    5.2868   -0.2078    0.0000 C   0  0  0  0  0  0  0  0  0  0  0  0
    6.1808   -1.7702    0.0000 C   0  0  0  0  0  0  0  0  0  0  0  0
    5.2787   -1.2494    0.0000 C   0  0  0  0  0  0  0  0  0  0  0  0
    4.3599    0.3563    0.0000 C   0  0  0  0  0  0  0  0  0  0  0  0
    4.3433   -1.7991    0.0000 C   0  0  0  0  0  0  0  0  0  0  0  0
    3.4120   -0.1716    0.0000 C   0  0  0  0  0  0  0  0  0  0  0  0
    3.4037   -1.2566    0.0000 C   0  0  0  0  0  0  0  0  0  0  0  0
    8.0188   -0.5461    0.0000 H   0  0  0  0  0  0  0  0  0  0  0  0
    8.0188    2.1443    0.0000 H   0  0  0  0  0  0  0  0  0  0  0  0
    8.6240   -0.5726    0.0000 H   0  0  0  0  0  0  0  0  0  0  0  0
    9.4124   -0.3149    0.0000 H   0  0  0  0  0  0  0  0  0  0  0  0
    9.4124    1.9130    0.0000 H   0  0  0  0  0  0  0  0  0  0  0  0
    8.6240    2.1707    0.0000 H   0  0  0  0  0  0  0  0  0  0  0  0
    7.4613    2.2740    0.0000 H   0  0  0  0  0  0  0  0  0  0  0  0
    6.6643    2.2740    0.0000 H   0  0  0  0  0  0  0  0  0  0  0  0
    9.9195    0.3844    0.0000 H   0  0  0  0  0  0  0  0  0  0  0  0
    9.9195    1.2138    0.0000 H   0  0  0  0  0  0  0  0  0  0  0  0
    5.9847    1.8817    0.0000 H   0  0  0  0  0  0  0  0  0  0  0  0
    5.5862    1.1914    0.0000 H   0  0  0  0  0  0  0  0  0  0  0  0
    7.2969   -1.8228    0.0000 H   0  0  0  0  0  0  0  0  0  0  0  0
    7.6880   -1.1269    0.0000 H   0  0  0  0  0  0  0  0  0  0  0  0
    5.7835   -2.2462    0.0000 H   0  0  0  0  0  0  0  0  0  0  0  0
    6.5818   -2.2431    0.0000 H   0  0  0  0  0  0  0  0  0  0  0  0
    4.3719    0.9762    0.0000 H   0  0  0  0  0  0  0  0  0  0  0  0
    4.3457   -2.4191    0.0000 H   0  0  0  0  0  0  0  0  0  0  0  0
    2.8787    0.1446    0.0000 H   0  0  0  0  0  0  0  0  0  0  0  0
    2.0000   -1.4412    0.0000 H   0  0  0  0  0  0  0  0  0  0  0  0
  1 18  1  0  0  0  0
  1 38  1  0  0  0  0
  2  3  1  0  0  0  0
  2 10  2  0  0  0  0
  2 11  1  0  0  0  0
  3  4  1  0  0  0  0
  3  5  1  0  0  0  0
  3 19  1  0  0  0  0
  4  6  1  0  0  0  0
  4  7  1  0  0  0  0
  4 20  1  0  0  0  0
  5  8  1  0  0  0  0
  5 21  1  0  0  0  0
  5 22  1  0  0  0  0
  6  8  1  0  0  0  0
  6 23  1  0  0  0  0
  6 24  1  0  0  0  0
  7  9  1  0  0  0  0
  7 25  1  0  0  0  0
  7 26  1  0  0  0  0
  8 27  1  0  0  0  0
  8 28  1  0  0  0  0
  9 10  1  0  0  0  0
  9 29  1  0  0  0  0
  9 30  1  0  0  0  0
 10 12  1  0  0  0  0
 11 13  1  0  0  0  0
 11 31  1  0  0  0  0
 11 32  1  0  0  0  0
 12 14  2  0  0  0  0
 12 15  1  0  0  0  0
 13 14  1  0  0  0  0
 13 33  1  0  0  0  0
 13 34  1  0  0  0  0
 14 16  1  0  0  0  0
 15 17  2  0  0  0  0
 15 35  1  0  0  0  0
 16 18  2  0  0  0  0
 16 36  1  0  0  0  0
 17 18  1  0  0  0  0
 17 37  1  0  0  0  0
M  CHG  1   2   1
M  END
> <PUBCHEM_COMPOUND_CID>
8544

> <PUBCHEM_COMPOUND_CANONICALIZED>
1

> <PUBCHEM_CACTVS_COMPLEXITY>
375

> <PUBCHEM_CACTVS_HBOND_ACCEPTOR>
1

> <PUBCHEM_CACTVS_HBOND_DONOR>
1

> <PUBCHEM_CACTVS_ROTATABLE_BOND>
0

> <PUBCHEM_CACTVS_SUBSKEYS>
AAADceB6IAAAAAAAAAAAAAAAAAAAAYAAAAAwQIAAAAAAAECxAAAAHgAACAAADSzBmAQwBoMAAgCgAyBiBAACAAAgIAAIiAA+CJgIJqKCkROEcAAkwBGImAeQ0PIOoAABAAAQAABAAAIAACAAAAAAAQAAAA==

> <PUBCHEM_IUPAC_INCHI>
InChI=1S/C16H19NO/c18-13-5-6-14-12(10-13)8-9-17-15-3-1-2-11(15)4-7-16(14)17/h5-6,10-11,15H,1-4,7-9H2/p+1

> <PUBCHEM_IUPAC_INCHIKEY>
AFZUMYMXNCDSQR-UHFFFAOYSA-O

> <PUBCHEM_XLOGP3_AA>
2.3

> <PUBCHEM_EXACT_MASS>
242.154489

> <PUBCHEM_MOLECULAR_FORMULA>
C16H20NO+

> <PUBCHEM_MOLECULAR_WEIGHT>
242.3361

> <PUBCHEM_OPENEYE_CAN_SMILES>
C1CC2CCC3=[N+](C2C1)CCC4=C3C=CC(=C4)O

> <PUBCHEM_OPENEYE_ISO_SMILES>
C1CC2CCC3=[N+](C2C1)CCC4=C3C=CC(=C4)O

> <PUBCHEM_CACTVS_TPSA>
23.2

> <PUBCHEM_MONOISOTOPIC_WEIGHT>
242.154489

> <PUBCHEM_TOTAL_CHARGE>
1

> <PUBCHEM_HEAVY_ATOM_COUNT>
18

> <PUBCHEM_ATOM_DEF_STEREO_COUNT>
0

> <PUBCHEM_ATOM_UDEF_STEREO_COUNT>
2

> <PUBCHEM_BOND_DEF_STEREO_COUNT>
0

> <PUBCHEM_BOND_UDEF_STEREO_COUNT>
0

> <PUBCHEM_ISOTOPIC_ATOM_COUNT>
0

> <PUBCHEM_COMPONENT_COUNT>
1

> <PUBCHEM_CACTVS_TAUTO_COUNT>
9

> <PUBCHEM_COORDINATE_TYPE>
1
5
255

> <PUBCHEM_BONDANNOTATIONS>
12  14  8
12  15  8
14  16  8
15  17  8
16  18  8
17  18  8
3  19  3
4  20  3

$$$$

