6008
  -OEChem-06261201033D

 47 48  0     0  0  0  0  0  0999 V2000
    1.0859    0.6438   -0.0915 S   0  0  0  0  0  0  0  0  0  0  0  0
    0.1458   -1.7675    0.3125 O   0  0  0  0  0  0  0  0  0  0  0  0
    5.0219   -0.3208    0.2025 N   0  0  0  0  0  0  0  0  0  0  0  0
   -1.5034   -0.1361   -0.0113 N   0  0  0  0  0  0  0  0  0  0  0  0
    3.8274    0.4959   -0.0099 C   0  0  0  0  0  0  0  0  0  0  0  0
    5.0520   -1.4376   -0.7411 C   0  0  0  0  0  0  0  0  0  0  0  0
    6.2288    0.4943    0.0684 C   0  0  0  0  0  0  0  0  0  0  0  0
    2.5783   -0.3579    0.1699 C   0  0  0  0  0  0  0  0  0  0  0  0
    6.2552   -2.3321   -0.4949 C   0  0  0  0  0  0  0  0  0  0  0  0
    6.2146    1.6605    1.0421 C   0  0  0  0  0  0  0  0  0  0  0  0
   -0.1729   -0.5946    0.1296 C   0  0  0  0  0  0  0  0  0  0  0  0
   -1.8463    1.2553   -0.1181 C   0  0  0  0  0  0  0  0  0  0  0  0
   -2.5962   -1.0807    0.0581 C   0  0  0  0  0  0  0  0  0  0  0  0
   -2.0054    1.9818    1.0378 C   0  0  0  0  0  0  0  0  0  0  0  0
   -3.7713   -0.6688    0.6300 C   0  0  0  0  0  0  0  0  0  0  0  0
   -1.9995    1.7988   -1.3712 C   0  0  0  0  0  0  0  0  0  0  0  0
   -2.3988   -2.3369   -0.4521 C   0  0  0  0  0  0  0  0  0  0  0  0
   -2.3379    3.3325    0.9346 C   0  0  0  0  0  0  0  0  0  0  0  0
   -4.8256   -1.5795    0.6968 C   0  0  0  0  0  0  0  0  0  0  0  0
   -2.3319    3.1496   -1.4745 C   0  0  0  0  0  0  0  0  0  0  0  0
   -3.4532   -3.2476   -0.3853 C   0  0  0  0  0  0  0  0  0  0  0  0
   -2.5010    3.9164   -0.3215 C   0  0  0  0  0  0  0  0  0  0  0  0
   -4.6667   -2.8688    0.1891 C   0  0  0  0  0  0  0  0  0  0  0  0
    3.7662    1.2989    0.7324 H   0  0  0  0  0  0  0  0  0  0  0  0
    3.8402    0.9578   -1.0064 H   0  0  0  0  0  0  0  0  0  0  0  0
    4.1980   -2.1047   -0.6010 H   0  0  0  0  0  0  0  0  0  0  0  0
    5.0454   -1.0985   -1.7845 H   0  0  0  0  0  0  0  0  0  0  0  0
    7.1189   -0.0909    0.3213 H   0  0  0  0  0  0  0  0  0  0  0  0
    6.3589    0.8705   -0.9542 H   0  0  0  0  0  0  0  0  0  0  0  0
    2.5472   -0.8016    1.1710 H   0  0  0  0  0  0  0  0  0  0  0  0
    2.5054   -1.1508   -0.5763 H   0  0  0  0  0  0  0  0  0  0  0  0
    7.1893   -1.8830   -0.8462 H   0  0  0  0  0  0  0  0  0  0  0  0
    6.3603   -2.5902    0.5646 H   0  0  0  0  0  0  0  0  0  0  0  0
    6.1349   -3.2706   -1.0482 H   0  0  0  0  0  0  0  0  0  0  0  0
    5.5411    2.4632    0.7258 H   0  0  0  0  0  0  0  0  0  0  0  0
    5.9447    1.3434    2.0552 H   0  0  0  0  0  0  0  0  0  0  0  0
    7.2163    2.1021    1.0970 H   0  0  0  0  0  0  0  0  0  0  0  0
   -1.8730    1.5358    2.0190 H   0  0  0  0  0  0  0  0  0  0  0  0
   -3.9485    0.3116    1.0519 H   0  0  0  0  0  0  0  0  0  0  0  0
   -1.8689    1.2059   -2.2714 H   0  0  0  0  0  0  0  0  0  0  0  0
   -1.5023   -2.6520   -0.9729 H   0  0  0  0  0  0  0  0  0  0  0  0
   -2.4679    3.9299    1.8322 H   0  0  0  0  0  0  0  0  0  0  0  0
   -5.7701   -1.2862    1.1458 H   0  0  0  0  0  0  0  0  0  0  0  0
   -2.4588    3.6044   -2.4526 H   0  0  0  0  0  0  0  0  0  0  0  0
   -3.3360   -4.2464   -0.7957 H   0  0  0  0  0  0  0  0  0  0  0  0
   -2.7593    4.9682   -0.4020 H   0  0  0  0  0  0  0  0  0  0  0  0
   -5.4887   -3.5768    0.2379 H   0  0  0  0  0  0  0  0  0  0  0  0
  1  8  1  0  0  0  0
  1 11  1  0  0  0  0
  2 11  2  0  0  0  0
  3  5  1  0  0  0  0
  3  6  1  0  0  0  0
  3  7  1  0  0  0  0
  4 11  1  0  0  0  0
  4 12  1  0  0  0  0
  4 13  1  0  0  0  0
  5  8  1  0  0  0  0
  5 24  1  0  0  0  0
  5 25  1  0  0  0  0
  6  9  1  0  0  0  0
  6 26  1  0  0  0  0
  6 27  1  0  0  0  0
  7 10  1  0  0  0  0
  7 28  1  0  0  0  0
  7 29  1  0  0  0  0
  8 30  1  0  0  0  0
  8 31  1  0  0  0  0
  9 32  1  0  0  0  0
  9 33  1  0  0  0  0
  9 34  1  0  0  0  0
 10 35  1  0  0  0  0
 10 36  1  0  0  0  0
 10 37  1  0  0  0  0
 12 14  2  0  0  0  0
 12 16  1  0  0  0  0
 13 15  2  0  0  0  0
 13 17  1  0  0  0  0
 14 18  1  0  0  0  0
 14 38  1  0  0  0  0
 15 19  1  0  0  0  0
 15 39  1  0  0  0  0
 16 20  2  0  0  0  0
 16 40  1  0  0  0  0
 17 21  2  0  0  0  0
 17 41  1  0  0  0  0
 18 22  2  0  0  0  0
 18 42  1  0  0  0  0
 19 23  2  0  0  0  0
 19 43  1  0  0  0  0
 20 22  1  0  0  0  0
 20 44  1  0  0  0  0
 21 23  1  0  0  0  0
 21 45  1  0  0  0  0
 22 46  1  0  0  0  0
 23 47  1  0  0  0  0
M  END
> <PUBCHEM_COMPOUND_CID>
6008

> <PUBCHEM_CONFORMER_RMSD>
1

> <PUBCHEM_CONFORMER_DIVERSEORDER>
1
48
6
44
17
19
53
12
42
22
5
65
30
16
39
34
2
25
23
46
45
43
59
51
63
21
7
58
20
10
11
54
4
57
35
60
24
8
37
50
3
52
15
33
28
41
14
29
47
62
31
61
18
56
9
32
55
13
64
38
36
26
27
49
40

> <PUBCHEM_MMFF94_PARTIAL_CHARGES>
31
1 -0.37
11 0.77
12 0.12
13 0.12
14 -0.15
15 -0.15
16 -0.15
17 -0.15
18 -0.15
19 -0.15
2 -0.57
20 -0.15
21 -0.15
22 -0.15
23 -0.15
3 -0.81
38 0.15
39 0.15
4 -0.29
40 0.15
41 0.15
42 0.15
43 0.15
44 0.15
45 0.15
46 0.15
47 0.15
5 0.27
6 0.27
7 0.27
8 0.23

> <PUBCHEM_EFFECTIVE_ROTOR_COUNT>
9

> <PUBCHEM_PHARMACOPHORE_FEATURES>
3
1 3 cation
6 12 14 16 18 20 22 rings
6 13 15 17 19 21 23 rings

> <PUBCHEM_HEAVY_ATOM_COUNT>
23

> <PUBCHEM_ATOM_DEF_STEREO_COUNT>
0

> <PUBCHEM_ATOM_UDEF_STEREO_COUNT>
0

> <PUBCHEM_BOND_DEF_STEREO_COUNT>
0

> <PUBCHEM_BOND_UDEF_STEREO_COUNT>
0

> <PUBCHEM_ISOTOPIC_ATOM_COUNT>
0

> <PUBCHEM_COMPONENT_COUNT>
1

> <PUBCHEM_CACTVS_TAUTO_COUNT>
1

> <PUBCHEM_CONFORMER_ID>
0000177800000001

> <PUBCHEM_MMFF94_ENERGY>
95.902

> <PUBCHEM_FEATURE_SELFOVERLAP>
15.223

> <PUBCHEM_SHAPE_FINGERPRINT>
10411042 1 18195245517048223091
10764073 3 17676753332817147321
11045515 52 18200316490286736621
11056379 131 18412542141098811886
11101153 10 18128247896975383100
11405975 8 18337675347256329978
11545043 162 18334860567350768314
11809386 21 18272655688077009010
12107183 9 17837498810314413914
12403259 226 18335704901517030704
13073987 5 18412830205504777802
13257819 101 14130155479504781731
14251751 93 18412546548025180666
14347332 77 18412262826849288934
14508225 48 18338528417618298317
14713325 29 18336824298737580233
14955137 171 18197201556945381931
15042514 8 18411131425347672931
15131766 46 15504653693217384120
15230672 131 17908696582076015750
16087824 20 18340771538184364501
17844677 252 18409724080713383586
1813 80 18194666095747243135
21236236 1 18410855490388248112
21304253 13 18262232215167092289
2132832 1 17917709046432550276
21426921 1 18411983576243598852
2297311 6 18336538335520305054
23402539 116 18339645538295658327
23559900 14 18336838502094636657
283562 15 18343024380466937715
350125 39 18410852140324787576
4214541 1 18409728508597883884
4409770 3 18341902917920324581
497634 4 17968365793328334320
5104073 3 18335425712137908418
7399639 24 18043542612076765120

> <PUBCHEM_SHAPE_MULTIPOLES>
461.35
13.9
4.51
1.03
28.8
2.06
-0.13
-6.52
1.26
-6.26
-0.58
-0.31
0.62
1.5

> <PUBCHEM_SHAPE_SELFOVERLAP>
945.018

> <PUBCHEM_SHAPE_VOLUME>
268.1

> <PUBCHEM_COORDINATE_TYPE>
2
5
10

$$$$

