5281620
  -OEChem-07051212582D

 53 56  0     1  0  0  0  0  0999 V2000
   10.3474   -0.5447    0.0000 O   0  0  0  0  0  0  0  0  0  0  0  0
    8.6155   -0.5247    0.0000 O   0  0  0  0  0  0  0  0  0  0  0  0
   10.3127   -3.5445    0.0000 O   0  0  0  0  0  0  0  0  0  0  0  0
   12.0562   -2.5646    0.0000 O   0  0  0  0  0  0  0  0  0  0  0  0
    8.5923   -2.5246    0.0000 O   0  0  0  0  0  0  0  0  0  0  0  0
    6.8671    0.5099    0.0000 O   0  0  0  0  0  0  0  0  0  0  0  0
   10.3972    0.4858    0.0000 O   0  0  0  0  0  0  0  0  0  0  0  0
    8.6155    3.5445    0.0000 O   0  0  0  0  0  0  0  0  0  0  0  0
    5.1350    2.5099    0.0000 O   0  0  0  0  0  0  0  0  0  0  0  0
    6.8671    3.5099    0.0000 O   0  0  0  0  0  0  0  0  0  0  0  0
    2.5369    1.0099    0.0000 O   0  0  0  0  0  0  0  0  0  0  0  0
    2.5369   -0.9901    0.0000 O   0  0  0  0  0  0  0  0  0  0  0  0
   10.3243   -2.5446    0.0000 C   0  0  2  0  0  0  0  0  0  0  0  0
   11.1960   -2.0546    0.0000 C   0  0  2  0  0  0  0  0  0  0  0  0
    9.4641   -2.0346    0.0000 C   0  0  2  0  0  0  0  0  0  0  0  0
   11.2076   -1.0547    0.0000 C   0  0  2  0  0  0  0  0  0  0  0  0
    9.4756   -1.0347    0.0000 C   0  0  1  0  0  0  0  0  0  0  0  0
   12.0793   -0.5647    0.0000 C   0  0  0  0  0  0  0  0  0  0  0  0
    8.6270    0.4753    0.0000 C   0  0  0  0  0  0  0  0  0  0  0  0
    7.7331    1.0099    0.0000 C   0  0  0  0  0  0  0  0  0  0  0  0
    9.5331    0.9891    0.0000 C   0  0  0  0  0  0  0  0  0  0  0  0
    7.7331    2.0099    0.0000 C   0  0  0  0  0  0  0  0  0  0  0  0
    8.6270    2.5446    0.0000 C   0  0  0  0  0  0  0  0  0  0  0  0
    9.5331    2.0307    0.0000 C   0  0  0  0  0  0  0  0  0  0  0  0
    6.8671    2.5099    0.0000 C   0  0  0  0  0  0  0  0  0  0  0  0
    6.0010    1.0099    0.0000 C   0  0  0  0  0  0  0  0  0  0  0  0
    6.0010    2.0099    0.0000 C   0  0  0  0  0  0  0  0  0  0  0  0
    5.1350    0.5099    0.0000 C   0  0  0  0  0  0  0  0  0  0  0  0
    4.2690    1.0099    0.0000 C   0  0  0  0  0  0  0  0  0  0  0  0
    5.1350   -0.4901    0.0000 C   0  0  0  0  0  0  0  0  0  0  0  0
    3.4030    0.5099    0.0000 C   0  0  0  0  0  0  0  0  0  0  0  0
    4.2690   -0.9901    0.0000 C   0  0  0  0  0  0  0  0  0  0  0  0
    3.4030   -0.4901    0.0000 C   0  0  0  0  0  0  0  0  0  0  0  0
   10.8576   -2.8608    0.0000 H   0  0  0  0  0  0  0  0  0  0  0  0
   11.1889   -2.6746    0.0000 H   0  0  0  0  0  0  0  0  0  0  0  0
    8.9308   -1.7184    0.0000 H   0  0  0  0  0  0  0  0  0  0  0  0
   11.2148   -0.4347    0.0000 H   0  0  0  0  0  0  0  0  0  0  0  0
    8.9352   -1.3384    0.0000 H   0  0  0  0  0  0  0  0  0  0  0  0
   12.3831   -1.1052    0.0000 H   0  0  0  0  0  0  0  0  0  0  0  0
   12.6198   -0.2610    0.0000 H   0  0  0  0  0  0  0  0  0  0  0  0
   11.7756   -0.0243    0.0000 H   0  0  0  0  0  0  0  0  0  0  0  0
   10.8460   -3.8607    0.0000 H   0  0  0  0  0  0  0  0  0  0  0  0
   12.5967   -2.2608    0.0000 H   0  0  0  0  0  0  0  0  0  0  0  0
    8.5852   -3.1445    0.0000 H   0  0  0  0  0  0  0  0  0  0  0  0
   10.0688    2.3428    0.0000 H   0  0  0  0  0  0  0  0  0  0  0  0
   10.9353    0.7937    0.0000 H   0  0  0  0  0  0  0  0  0  0  0  0
    4.2690    1.6299    0.0000 H   0  0  0  0  0  0  0  0  0  0  0  0
    5.6720   -0.8001    0.0000 H   0  0  0  0  0  0  0  0  0  0  0  0
    9.1488    3.8607    0.0000 H   0  0  0  0  0  0  0  0  0  0  0  0
    5.1350    3.1299    0.0000 H   0  0  0  0  0  0  0  0  0  0  0  0
    4.2690   -1.6101    0.0000 H   0  0  0  0  0  0  0  0  0  0  0  0
    2.0000    0.6999    0.0000 H   0  0  0  0  0  0  0  0  0  0  0  0
    2.5369   -1.6101    0.0000 H   0  0  0  0  0  0  0  0  0  0  0  0
  1 16  1  0  0  0  0
  1 17  1  0  0  0  0
 17  2  1  6  0  0  0
  2 19  1  0  0  0  0
 13  3  1  1  0  0  0
  3 42  1  0  0  0  0
 14  4  1  6  0  0  0
  4 43  1  0  0  0  0
 15  5  1  1  0  0  0
  5 44  1  0  0  0  0
  6 20  1  0  0  0  0
  6 26  1  0  0  0  0
  7 21  1  0  0  0  0
  7 46  1  0  0  0  0
  8 23  1  0  0  0  0
  8 49  1  0  0  0  0
  9 27  1  0  0  0  0
  9 50  1  0  0  0  0
 10 25  2  0  0  0  0
 11 31  1  0  0  0  0
 11 52  1  0  0  0  0
 12 33  1  0  0  0  0
 12 53  1  0  0  0  0
 13 14  1  0  0  0  0
 13 15  1  0  0  0  0
 13 34  1  0  0  0  0
 14 16  1  0  0  0  0
 14 35  1  0  0  0  0
 15 17  1  0  0  0  0
 15 36  1  0  0  0  0
 16 18  1  1  0  0  0
 16 37  1  0  0  0  0
 17 38  1  0  0  0  0
 18 39  1  0  0  0  0
 18 40  1  0  0  0  0
 18 41  1  0  0  0  0
 19 20  1  0  0  0  0
 19 21  2  0  0  0  0
 20 22  2  0  0  0  0
 21 24  1  0  0  0  0
 22 23  1  0  0  0  0
 22 25  1  0  0  0  0
 23 24  2  0  0  0  0
 24 45  1  0  0  0  0
 25 27  1  0  0  0  0
 26 27  2  0  0  0  0
 26 28  1  0  0  0  0
 28 29  2  0  0  0  0
 28 30  1  0  0  0  0
 29 31  1  0  0  0  0
 29 47  1  0  0  0  0
 30 32  2  0  0  0  0
 30 48  1  0  0  0  0
 31 33  2  0  0  0  0
 32 33  1  0  0  0  0
 32 51  1  0  0  0  0
M  END
> <PUBCHEM_COMPOUND_CID>
5281620

> <PUBCHEM_COMPOUND_CANONICALIZED>
1

> <PUBCHEM_CACTVS_COMPLEXITY>
772

> <PUBCHEM_CACTVS_HBOND_ACCEPTOR>
12

> <PUBCHEM_CACTVS_HBOND_DONOR>
8

> <PUBCHEM_CACTVS_ROTATABLE_BOND>
3

> <PUBCHEM_CACTVS_SUBSKEYS>
AAADceB4PAAAAAAAAAAAAAAAAAAAAAAAAAA0YIEAAAAAAACBQAAAGgAACAAADBSwmAMyDoAABgCIAqBSAAICCAAkIAAIiAFGiMgdNzaGNRqieWOl4BUPuQfK7LzOIQABCAAIQABCAAIQABCAAAAAAAAAAA==

> <PUBCHEM_IUPAC_OPENEYE_NAME>
2-(3,4-dihydroxyphenyl)-3,5,7-trihydroxy-8-[(2S,3R,4R,5R,6S)-3,4,5-trihydroxy-6-methyl-tetrahydropyran-2-yl]oxy-chromen-4-one

> <PUBCHEM_IUPAC_CAS_NAME>
2-(3,4-dihydroxyphenyl)-3,5,7-trihydroxy-8-[[(2S,3R,4R,5R,6S)-3,4,5-trihydroxy-6-methyl-2-oxanyl]oxy]-1-benzopyran-4-one

> <PUBCHEM_IUPAC_NAME>
2-(3,4-dihydroxyphenyl)-3,5,7-trihydroxy-8-[(2S,3R,4R,5R,6S)-3,4,5-trihydroxy-6-methyloxan-2-yl]oxychromen-4-one

> <PUBCHEM_IUPAC_SYSTEMATIC_NAME>
2-[3,4-bis(oxidanyl)phenyl]-8-[(2S,3R,4R,5R,6S)-6-methyl-3,4,5-tris(oxidanyl)oxan-2-yl]oxy-3,5,7-tris(oxidanyl)chromen-4-one

> <PUBCHEM_IUPAC_TRADITIONAL_NAME>
2-(3,4-dihydroxyphenyl)-3,5,7-trihydroxy-8-[(2S,3R,4R,5R,6S)-3,4,5-trihydroxy-6-methyl-tetrahydropyran-2-yl]oxy-chromone

> <PUBCHEM_IUPAC_INCHI>
InChI=1S/C21H20O12/c1-6-13(26)15(28)17(30)21(31-6)33-19-11(25)5-10(24)12-14(27)16(29)18(32-20(12)19)7-2-3-8(22)9(23)4-7/h2-6,13,15,17,21-26,28-30H,1H3/t6-,13-,15+,17+,21-/m0/s1

> <PUBCHEM_IUPAC_INCHIKEY>
LXSRQKADIMPZPQ-QBURSZLVSA-N

> <PUBCHEM_XLOGP3_AA>
0.5

> <PUBCHEM_EXACT_MASS>
464.095476

> <PUBCHEM_MOLECULAR_FORMULA>
C21H20O12

> <PUBCHEM_MOLECULAR_WEIGHT>
464.3763

> <PUBCHEM_OPENEYE_CAN_SMILES>
CC1C(C(C(C(O1)OC2=C(C=C(C3=C2OC(=C(C3=O)O)C4=CC(=C(C=C4)O)O)O)O)O)O)O

> <PUBCHEM_OPENEYE_ISO_SMILES>
C[C@H]1[C@@H]([C@H]([C@H]([C@@H](O1)OC2=C(C=C(C3=C2OC(=C(C3=O)O)C4=CC(=C(C=C4)O)O)O)O)O)O)O

> <PUBCHEM_CACTVS_TPSA>
207

> <PUBCHEM_MONOISOTOPIC_WEIGHT>
464.095476

> <PUBCHEM_TOTAL_CHARGE>
0

> <PUBCHEM_HEAVY_ATOM_COUNT>
33

> <PUBCHEM_ATOM_DEF_STEREO_COUNT>
5

> <PUBCHEM_ATOM_UDEF_STEREO_COUNT>
0

> <PUBCHEM_BOND_DEF_STEREO_COUNT>
0

> <PUBCHEM_BOND_UDEF_STEREO_COUNT>
0

> <PUBCHEM_ISOTOPIC_ATOM_COUNT>
0

> <PUBCHEM_COMPONENT_COUNT>
1

> <PUBCHEM_CACTVS_TAUTO_COUNT>
435

> <PUBCHEM_COORDINATE_TYPE>
1
5
255

> <PUBCHEM_BONDANNOTATIONS>
16  18  5
19  20  8
19  21  8
17  2  6
20  22  8
21  24  8
22  23  8
22  25  8
23  24  8
25  27  8
26  27  8
28  29  8
28  30  8
29  31  8
13  3  5
30  32  8
31  33  8
32  33  8
14  4  6
15  5  5
6  20  8
6  26  8

$$$$

