221062
  -OEChem-07051213023D

 52 54  0     1  0  0  0  0  0999 V2000
    5.1509   -0.9926   -0.1346 O   0  0  0  0  0  0  0  0  0  0  0  0
    3.4790   -2.0241    1.0214 O   0  0  0  0  0  0  0  0  0  0  0  0
    0.5295    0.9093    0.0221 C   0  0  1  0  0  0  0  0  0  0  0  0
    1.5348   -0.2987    0.1921 C   0  0  2  0  0  0  0  0  0  0  0  0
    2.9800   -0.0844   -0.3607 C   0  0  2  0  0  0  0  0  0  0  0  0
   -0.7426    0.5884    0.9142 C   0  0  2  0  0  0  0  0  0  0  0  0
    1.2314    2.1976    0.5305 C   0  0  0  0  0  0  0  0  0  0  0  0
    0.8913   -1.6357   -0.2421 C   0  0  0  0  0  0  0  0  0  0  0  0
    3.5434    1.2697    0.1210 C   0  0  0  0  0  0  0  0  0  0  0  0
    2.5988    2.4417   -0.1049 C   0  0  0  0  0  0  0  0  0  0  0  0
   -1.3335   -0.7602    0.5195 C   0  0  0  0  0  0  0  0  0  0  0  0
   -0.3809   -1.9244    0.5565 C   0  0  0  0  0  0  0  0  0  0  0  0
    0.0731    1.1282   -1.4431 C   0  0  0  0  0  0  0  0  0  0  0  0
   -1.7923    1.7356    0.9923 C   0  0  0  0  0  0  0  0  0  0  0  0
    3.1409   -0.2294   -1.8804 C   0  0  0  0  0  0  0  0  0  0  0  0
    3.8642   -1.1471    0.2626 C   0  0  0  0  0  0  0  0  0  0  0  0
   -2.6146   -0.9137    0.1467 C   0  0  0  0  0  0  0  0  0  0  0  0
   -3.1724    1.4120    0.4987 C   0  0  0  0  0  0  0  0  0  0  0  0
   -3.5483    0.1883    0.0989 C   0  0  0  0  0  0  0  0  0  0  0  0
   -4.9309   -0.1140   -0.3936 C   0  0  0  0  0  0  0  0  0  0  0  0
   -4.8815   -0.6182   -1.8326 C   0  0  0  0  0  0  0  0  0  0  0  0
   -5.6205   -1.1281    0.5153 C   0  0  0  0  0  0  0  0  0  0  0  0
    1.6652   -0.3853    1.2849 H   0  0  0  0  0  0  0  0  0  0  0  0
   -0.3779    0.4652    1.9463 H   0  0  0  0  0  0  0  0  0  0  0  0
    1.3589    2.1374    1.6195 H   0  0  0  0  0  0  0  0  0  0  0  0
    0.6138    3.0822    0.3415 H   0  0  0  0  0  0  0  0  0  0  0  0
    1.5598   -2.4910   -0.1192 H   0  0  0  0  0  0  0  0  0  0  0  0
    0.6509   -1.6127   -1.3111 H   0  0  0  0  0  0  0  0  0  0  0  0
    4.5003    1.4929   -0.3688 H   0  0  0  0  0  0  0  0  0  0  0  0
    3.7673    1.2144    1.1960 H   0  0  0  0  0  0  0  0  0  0  0  0
    3.0393    3.3437    0.3371 H   0  0  0  0  0  0  0  0  0  0  0  0
    2.4997    2.6472   -1.1755 H   0  0  0  0  0  0  0  0  0  0  0  0
   -0.1175   -2.1300    1.6017 H   0  0  0  0  0  0  0  0  0  0  0  0
   -0.8468   -2.8371    0.1663 H   0  0  0  0  0  0  0  0  0  0  0  0
   -0.7041    1.8973   -1.5053 H   0  0  0  0  0  0  0  0  0  0  0  0
    0.8731    1.4822   -2.0910 H   0  0  0  0  0  0  0  0  0  0  0  0
   -0.3440    0.2262   -1.8981 H   0  0  0  0  0  0  0  0  0  0  0  0
   -1.4569    2.6294    0.4597 H   0  0  0  0  0  0  0  0  0  0  0  0
   -1.8860    2.0425    2.0428 H   0  0  0  0  0  0  0  0  0  0  0  0
    2.5801    0.5154   -2.4419 H   0  0  0  0  0  0  0  0  0  0  0  0
    4.1845   -0.1124   -2.1965 H   0  0  0  0  0  0  0  0  0  0  0  0
    2.8232   -1.2200   -2.2240 H   0  0  0  0  0  0  0  0  0  0  0  0
   -2.9657   -1.9035   -0.1275 H   0  0  0  0  0  0  0  0  0  0  0  0
   -3.8842    2.2331    0.4753 H   0  0  0  0  0  0  0  0  0  0  0  0
   -5.5345    0.8034   -0.3841 H   0  0  0  0  0  0  0  0  0  0  0  0
    5.7399   -1.6708    0.2594 H   0  0  0  0  0  0  0  0  0  0  0  0
   -4.4016   -1.5983   -1.9249 H   0  0  0  0  0  0  0  0  0  0  0  0
   -4.3465    0.0846   -2.4816 H   0  0  0  0  0  0  0  0  0  0  0  0
   -5.8977   -0.7210   -2.2303 H   0  0  0  0  0  0  0  0  0  0  0  0
   -5.6116   -0.7951    1.5594 H   0  0  0  0  0  0  0  0  0  0  0  0
   -5.1619   -2.1216    0.4716 H   0  0  0  0  0  0  0  0  0  0  0  0
   -6.6690   -1.2466    0.2188 H   0  0  0  0  0  0  0  0  0  0  0  0
  1 16  1  0  0  0  0
  1 46  1  0  0  0  0
  2 16  2  0  0  0  0
  3  4  1  0  0  0  0
  3  6  1  0  0  0  0
  3  7  1  0  0  0  0
  3 13  1  0  0  0  0
  4  5  1  0  0  0  0
  4  8  1  0  0  0  0
  4 23  1  0  0  0  0
  5  9  1  0  0  0  0
  5 15  1  0  0  0  0
  5 16  1  0  0  0  0
  6 11  1  0  0  0  0
  6 14  1  0  0  0  0
  6 24  1  0  0  0  0
  7 10  1  0  0  0  0
  7 25  1  0  0  0  0
  7 26  1  0  0  0  0
  8 12  1  0  0  0  0
  8 27  1  0  0  0  0
  8 28  1  0  0  0  0
  9 10  1  0  0  0  0
  9 29  1  0  0  0  0
  9 30  1  0  0  0  0
 10 31  1  0  0  0  0
 10 32  1  0  0  0  0
 11 12  1  0  0  0  0
 11 17  2  0  0  0  0
 12 33  1  0  0  0  0
 12 34  1  0  0  0  0
 13 35  1  0  0  0  0
 13 36  1  0  0  0  0
 13 37  1  0  0  0  0
 14 18  1  0  0  0  0
 14 38  1  0  0  0  0
 14 39  1  0  0  0  0
 15 40  1  0  0  0  0
 15 41  1  0  0  0  0
 15 42  1  0  0  0  0
 17 19  1  0  0  0  0
 17 43  1  0  0  0  0
 18 19  2  0  0  0  0
 18 44  1  0  0  0  0
 19 20  1  0  0  0  0
 20 21  1  0  0  0  0
 20 22  1  0  0  0  0
 20 45  1  0  0  0  0
 21 47  1  0  0  0  0
 21 48  1  0  0  0  0
 21 49  1  0  0  0  0
 22 50  1  0  0  0  0
 22 51  1  0  0  0  0
 22 52  1  0  0  0  0
M  END
> <PUBCHEM_COMPOUND_CID>
221062

> <PUBCHEM_CONFORMER_RMSD>
0.6

> <PUBCHEM_CONFORMER_DIVERSEORDER>
1
2
3

> <PUBCHEM_MMFF94_PARTIAL_CHARGES>
15
1 -0.65
11 -0.28
12 0.14
14 0.14
16 0.66
17 -0.15
18 -0.29
19 -0.14
2 -0.57
20 0.14
43 0.15
44 0.15
46 0.5
5 0.06
6 0.14

> <PUBCHEM_EFFECTIVE_ROTOR_COUNT>
3.4

> <PUBCHEM_PHARMACOPHORE_FEATURES>
7
1 1 acceptor
1 2 acceptor
3 1 2 16 anion
3 20 21 22 hydrophobe
6 3 4 5 7 9 10 rings
6 3 4 6 8 11 12 rings
6 6 11 14 17 18 19 rings

> <PUBCHEM_HEAVY_ATOM_COUNT>
22

> <PUBCHEM_ATOM_DEF_STEREO_COUNT>
4

> <PUBCHEM_ATOM_UDEF_STEREO_COUNT>
0

> <PUBCHEM_BOND_DEF_STEREO_COUNT>
0

> <PUBCHEM_BOND_UDEF_STEREO_COUNT>
0

> <PUBCHEM_ISOTOPIC_ATOM_COUNT>
0

> <PUBCHEM_COMPONENT_COUNT>
1

> <PUBCHEM_CACTVS_TAUTO_COUNT>
1

> <PUBCHEM_CONFORMER_ID>
00035F8600000001

> <PUBCHEM_MMFF94_ENERGY>
68.2442

> <PUBCHEM_FEATURE_SELFOVERLAP>
35.614

> <PUBCHEM_SHAPE_FINGERPRINT>
10062212 137 18261113010718319665
10863032 1 18338232639820080449
10967382 1 18337950095554944192
11471102 20 18411983537815597028
11680986 33 18269830917807724816
11806522 49 18408885152750650833
12011746 2 18411132537680840814
12166972 35 18131627868384716773
12236239 1 18040433279192740267
12403259 226 18342462581327491468
12403259 415 17917716786284909205
12403260 363 18410294739336951600
12616971 3 18113336393272043575
12788726 201 17968082131976360945
13140716 1 18337378345123726515
13224815 77 18261384547019401049
13533116 47 18336827502767586185
13583140 156 16988279768582058529
13862211 1 18409171034116381066
14178342 30 17825099569709828072
14787075 74 17822017466955721128
15196674 1 18409728469626992137
15536298 74 18334294240698574913
15788980 27 18113056026391568557
15848700 24 18334293201833233086
15848702 151 18260545679444868263
16945 1 18263627589136280970
17349148 13 18335421287546282363
17357779 13 17917443042001600389
17492 89 18261669376339832727
17862501 102 18261114101323488697
18186145 218 18342459210284111517
18222031 100 18334018332548118858
192875 21 18333733519833193208
200 152 18260550026341901793
20028762 73 18113623369633311047
20369508 70 18411984650417848656
20645477 70 18409161087066731246
21033648 29 17203619176900971213
21267235 1 18336817658544418106
21503847 285 14692565507622478422
21709351 56 18410296951519500285
22393880 68 18130238128921743287
23402539 116 18259989301202586853
23557571 272 16805317838269368139
23559900 14 18337674105446616944
25147074 1 18189035594937524088
2748010 2 18049709733435282307
2871803 45 18410296904522545685
312423 11 18261940904077048025
3286 77 18413110580067864940
335352 9 18410571829125341575
34934 24 18189337858082928472
350125 39 18411414051386551897
4340502 62 18262803943437600024
439807 62 17972333828648232559
465052 167 18335133185313909630
495365 180 17677618557867458288
5104073 3 18334853926898903713
602551 16 15285931212679906773
69090 78 18333732381972652295
7495541 125 18130218268819088179
9709674 26 18261100889967474759
9981440 41 17619352000780391864

> <PUBCHEM_SHAPE_MULTIPOLES>
441.01
9.95
2.21
1.23
6.66
0.5
0.58
-3.01
1.48
-1.36
-0.47
0.29
-0.06
-0.47

> <PUBCHEM_SHAPE_SELFOVERLAP>
928.721

> <PUBCHEM_SHAPE_VOLUME>
244.7

> <PUBCHEM_COORDINATE_TYPE>
2
5
10

$$$$

