64971
  -OEChem-07051212553D

 81 85  0     1  0  0  0  0  0999 V2000
   -7.0556    1.1972   -0.4045 O   0  0  0  0  0  0  0  0  0  0  0  0
    4.7291   -2.7463    1.0518 O   0  0  0  0  0  0  0  0  0  0  0  0
    3.4378   -1.1664    2.0678 O   0  0  0  0  0  0  0  0  0  0  0  0
   -0.6392   -0.9517    0.0643 C   0  0  1  0  0  0  0  0  0  0  0  0
    0.8148   -0.8125   -0.6589 C   0  0  1  0  0  0  0  0  0  0  0  0
   -1.3215    0.4773    0.1200 C   0  0  1  0  0  0  0  0  0  0  0  0
    1.6849    0.2334    0.1522 C   0  0  1  0  0  0  0  0  0  0  0  0
   -2.8561    0.5186    0.5585 C   0  0  2  0  0  0  0  0  0  0  0  0
    3.1252    0.3112   -0.4016 C   0  0  2  0  0  0  0  0  0  0  0  0
   -3.6313   -0.4948   -0.3678 C   0  0  1  0  0  0  0  0  0  0  0  0
    3.8142   -1.0635   -0.3353 C   0  0  1  0  0  0  0  0  0  0  0  0
   -1.5666   -1.9249   -0.7159 C   0  0  0  0  0  0  0  0  0  0  0  0
   -0.4175    1.5042    0.8389 C   0  0  0  0  0  0  0  0  0  0  0  0
    1.5816   -2.1812   -0.7323 C   0  0  0  0  0  0  0  0  0  0  0  0
    0.9898    1.5963    0.2427 C   0  0  0  0  0  0  0  0  0  0  0  0
   -3.0331   -1.9122   -0.2701 C   0  0  0  0  0  0  0  0  0  0  0  0
    3.0533   -2.0779   -1.1880 C   0  0  0  0  0  0  0  0  0  0  0  0
   -5.2032   -0.4343   -0.2987 C   0  0  0  0  0  0  0  0  0  0  0  0
    4.1579    1.2522    0.2490 C   0  0  1  0  0  0  0  0  0  0  0  0
   -3.4221    1.9464    0.2753 C   0  0  0  0  0  0  0  0  0  0  0  0
   -0.4650   -1.5530    1.4914 C   0  0  0  0  0  0  0  0  0  0  0  0
    0.6557   -0.3468   -2.1467 C   0  0  0  0  0  0  0  0  0  0  0  0
    5.2232   -0.7184   -0.8137 C   0  0  0  0  0  0  0  0  0  0  0  0
    5.5212    0.6430   -0.1584 C   0  0  0  0  0  0  0  0  0  0  0  0
   -3.0363    0.2424    2.0704 C   0  0  0  0  0  0  0  0  0  0  0  0
   -5.6440    1.0391   -0.5432 C   0  0  2  0  0  0  0  0  0  0  0  0
   -4.9438    2.0515    0.3562 C   0  0  0  0  0  0  0  0  0  0  0  0
    3.9517   -1.6362    1.0634 C   0  0  0  0  0  0  0  0  0  0  0  0
   -5.7913   -0.9992    1.0098 C   0  0  0  0  0  0  0  0  0  0  0  0
   -5.8154   -1.2876   -1.4447 C   0  0  0  0  0  0  0  0  0  0  0  0
    4.0569    2.6807   -0.1802 C   0  0  0  0  0  0  0  0  0  0  0  0
    4.1682    2.9381   -1.6537 C   0  0  0  0  0  0  0  0  0  0  0  0
    3.8765    3.6749    0.7018 C   0  0  0  0  0  0  0  0  0  0  0  0
   -1.3625    0.8262   -0.9194 H   0  0  0  0  0  0  0  0  0  0  0  0
    1.7403   -0.1064    1.1842 H   0  0  0  0  0  0  0  0  0  0  0  0
    3.0559    0.5899   -1.4580 H   0  0  0  0  0  0  0  0  0  0  0  0
   -3.4044   -0.1679   -1.3971 H   0  0  0  0  0  0  0  0  0  0  0  0
   -1.1884   -2.9518   -0.6405 H   0  0  0  0  0  0  0  0  0  0  0  0
   -1.5705   -1.6810   -1.7820 H   0  0  0  0  0  0  0  0  0  0  0  0
   -0.3265    1.2693    1.9037 H   0  0  0  0  0  0  0  0  0  0  0  0
   -0.8549    2.5060    0.7849 H   0  0  0  0  0  0  0  0  0  0  0  0
    1.0594   -2.8689   -1.4085 H   0  0  0  0  0  0  0  0  0  0  0  0
    1.5913   -2.6711    0.2440 H   0  0  0  0  0  0  0  0  0  0  0  0
    0.9470    2.0790   -0.7399 H   0  0  0  0  0  0  0  0  0  0  0  0
    1.5592    2.2615    0.8968 H   0  0  0  0  0  0  0  0  0  0  0  0
   -3.5640   -2.6021   -0.9327 H   0  0  0  0  0  0  0  0  0  0  0  0
   -3.1369   -2.3287    0.7349 H   0  0  0  0  0  0  0  0  0  0  0  0
    3.5105   -3.0735   -1.1326 H   0  0  0  0  0  0  0  0  0  0  0  0
    3.0954   -1.7945   -2.2461 H   0  0  0  0  0  0  0  0  0  0  0  0
    4.0668    1.1917    1.3414 H   0  0  0  0  0  0  0  0  0  0  0  0
   -3.1137    2.2710   -0.7272 H   0  0  0  0  0  0  0  0  0  0  0  0
   -2.9995    2.6726    0.9797 H   0  0  0  0  0  0  0  0  0  0  0  0
    0.0217   -2.5310    1.4685 H   0  0  0  0  0  0  0  0  0  0  0  0
    0.1095   -0.9144    2.1646 H   0  0  0  0  0  0  0  0  0  0  0  0
   -1.4144   -1.7456    1.9868 H   0  0  0  0  0  0  0  0  0  0  0  0
    0.1253   -1.0901   -2.7487 H   0  0  0  0  0  0  0  0  0  0  0  0
    0.1275    0.6019   -2.2522 H   0  0  0  0  0  0  0  0  0  0  0  0
    1.6135   -0.2093   -2.6537 H   0  0  0  0  0  0  0  0  0  0  0  0
    5.2330   -0.5951   -1.9044 H   0  0  0  0  0  0  0  0  0  0  0  0
    5.9970   -1.4522   -0.5685 H   0  0  0  0  0  0  0  0  0  0  0  0
    6.1118    0.4786    0.7528 H   0  0  0  0  0  0  0  0  0  0  0  0
    6.1488    1.2598   -0.8071 H   0  0  0  0  0  0  0  0  0  0  0  0
   -2.1729    0.5630    2.6578 H   0  0  0  0  0  0  0  0  0  0  0  0
   -3.8815    0.7858    2.5003 H   0  0  0  0  0  0  0  0  0  0  0  0
   -3.2142   -0.8104    2.2939 H   0  0  0  0  0  0  0  0  0  0  0  0
   -5.4033    1.3131   -1.5799 H   0  0  0  0  0  0  0  0  0  0  0  0
   -5.2978    1.9499    1.3877 H   0  0  0  0  0  0  0  0  0  0  0  0
   -5.2494    3.0637    0.0606 H   0  0  0  0  0  0  0  0  0  0  0  0
   -6.8814   -1.0982    0.9395 H   0  0  0  0  0  0  0  0  0  0  0  0
   -5.3978   -1.9958    1.2326 H   0  0  0  0  0  0  0  0  0  0  0  0
   -5.6022   -0.3583    1.8712 H   0  0  0  0  0  0  0  0  0  0  0  0
   -5.4055   -0.9970   -2.4183 H   0  0  0  0  0  0  0  0  0  0  0  0
   -5.6259   -2.3563   -1.3041 H   0  0  0  0  0  0  0  0  0  0  0  0
   -6.9040   -1.1809   -1.4990 H   0  0  0  0  0  0  0  0  0  0  0  0
   -7.4794    0.8164   -1.1913 H   0  0  0  0  0  0  0  0  0  0  0  0
    5.0316    2.4532   -2.1136 H   0  0  0  0  0  0  0  0  0  0  0  0
    3.2653    2.6108   -2.1783 H   0  0  0  0  0  0  0  0  0  0  0  0
    4.2737    4.0104   -1.8575 H   0  0  0  0  0  0  0  0  0  0  0  0
    4.8309   -3.1313    1.9483 H   0  0  0  0  0  0  0  0  0  0  0  0
    3.8021    4.7081    0.3794 H   0  0  0  0  0  0  0  0  0  0  0  0
    3.7980    3.4808    1.7663 H   0  0  0  0  0  0  0  0  0  0  0  0
  1 26  1  0  0  0  0
  1 75  1  0  0  0  0
  2 28  1  0  0  0  0
  2 79  1  0  0  0  0
  3 28  2  0  0  0  0
  4  5  1  0  0  0  0
  4  6  1  0  0  0  0
  4 12  1  0  0  0  0
  4 21  1  0  0  0  0
  5  7  1  0  0  0  0
  5 14  1  0  0  0  0
  5 22  1  0  0  0  0
  6  8  1  0  0  0  0
  6 13  1  0  0  0  0
  6 34  1  0  0  0  0
  7  9  1  0  0  0  0
  7 15  1  0  0  0  0
  7 35  1  0  0  0  0
  8 10  1  0  0  0  0
  8 20  1  0  0  0  0
  8 25  1  0  0  0  0
  9 11  1  0  0  0  0
  9 19  1  0  0  0  0
  9 36  1  0  0  0  0
 10 16  1  0  0  0  0
 10 18  1  0  0  0  0
 10 37  1  0  0  0  0
 11 17  1  0  0  0  0
 11 23  1  0  0  0  0
 11 28  1  0  0  0  0
 12 16  1  0  0  0  0
 12 38  1  0  0  0  0
 12 39  1  0  0  0  0
 13 15  1  0  0  0  0
 13 40  1  0  0  0  0
 13 41  1  0  0  0  0
 14 17  1  0  0  0  0
 14 42  1  0  0  0  0
 14 43  1  0  0  0  0
 15 44  1  0  0  0  0
 15 45  1  0  0  0  0
 16 46  1  0  0  0  0
 16 47  1  0  0  0  0
 17 48  1  0  0  0  0
 17 49  1  0  0  0  0
 18 26  1  0  0  0  0
 18 29  1  0  0  0  0
 18 30  1  0  0  0  0
 19 24  1  0  0  0  0
 19 31  1  0  0  0  0
 19 50  1  0  0  0  0
 20 27  1  0  0  0  0
 20 51  1  0  0  0  0
 20 52  1  0  0  0  0
 21 53  1  0  0  0  0
 21 54  1  0  0  0  0
 21 55  1  0  0  0  0
 22 56  1  0  0  0  0
 22 57  1  0  0  0  0
 22 58  1  0  0  0  0
 23 24  1  0  0  0  0
 23 59  1  0  0  0  0
 23 60  1  0  0  0  0
 24 61  1  0  0  0  0
 24 62  1  0  0  0  0
 25 63  1  0  0  0  0
 25 64  1  0  0  0  0
 25 65  1  0  0  0  0
 26 27  1  0  0  0  0
 26 66  1  0  0  0  0
 27 67  1  0  0  0  0
 27 68  1  0  0  0  0
 29 69  1  0  0  0  0
 29 70  1  0  0  0  0
 29 71  1  0  0  0  0
 30 72  1  0  0  0  0
 30 73  1  0  0  0  0
 30 74  1  0  0  0  0
 31 32  1  0  0  0  0
 31 33  2  0  0  0  0
 32 76  1  0  0  0  0
 32 77  1  0  0  0  0
 32 78  1  0  0  0  0
 33 80  1  0  0  0  0
 33 81  1  0  0  0  0
M  END
> <PUBCHEM_COMPOUND_CID>
64971

> <PUBCHEM_CONFORMER_RMSD>
0.8

> <PUBCHEM_CONFORMER_DIVERSEORDER>
1

> <PUBCHEM_MMFF94_PARTIAL_CHARGES>
14
1 -0.68
11 0.06
19 0.14
2 -0.65
26 0.28
28 0.66
3 -0.57
31 -0.28
32 0.14
33 -0.3
75 0.4
79 0.5
80 0.15
81 0.15

> <PUBCHEM_EFFECTIVE_ROTOR_COUNT>
4.6

> <PUBCHEM_PHARMACOPHORE_FEATURES>
11
1 1 acceptor
1 1 donor
1 2 acceptor
1 3 acceptor
3 18 29 30 hydrophobe
3 2 3 28 anion
5 9 11 19 23 24 rings
6 4 5 6 7 13 15 rings
6 4 6 8 10 12 16 rings
6 5 7 9 11 14 17 rings
6 8 10 18 20 26 27 rings

> <PUBCHEM_HEAVY_ATOM_COUNT>
33

> <PUBCHEM_ATOM_DEF_STEREO_COUNT>
10

> <PUBCHEM_ATOM_UDEF_STEREO_COUNT>
0

> <PUBCHEM_BOND_DEF_STEREO_COUNT>
0

> <PUBCHEM_BOND_UDEF_STEREO_COUNT>
0

> <PUBCHEM_ISOTOPIC_ATOM_COUNT>
0

> <PUBCHEM_COMPONENT_COUNT>
1

> <PUBCHEM_CACTVS_TAUTO_COUNT>
1

> <PUBCHEM_CONFORMER_ID>
0000FDCB00000001

> <PUBCHEM_MMFF94_ENERGY>
156.1044

> <PUBCHEM_FEATURE_SELFOVERLAP>
55.968

> <PUBCHEM_SHAPE_FINGERPRINT>
10595046 47 18408887296066016621
10906281 52 17822837737580506727
11089746 13 18342457045446469110
11578080 2 17488445404733531392
12107183 9 18051132793644811514
12166972 35 18040996280469582522
12236239 1 18201720682357164107
12403260 363 18336266837689241585
12596602 18 18131350812998217843
12633257 1 18339082695895546578
12788726 201 17531237388022299345
13224815 77 17676483964677581474
13533116 47 17988367069531945330
13583140 156 18059563698477558720
13782708 43 17917993918549108419
13811026 1 18411421683411126083
13878862 14 18270137771656965460
14528608 73 18334854991718463500
14790565 3 18262516992124041469
15082195 135 18113613499903082606
15183329 4 18334015012670066565
15196674 1 18335138700410256365
15788980 27 18409166636581254451
17349148 13 18040998453369586563
17844677 252 18411974780514592993
18608769 82 18337950079351053539
18681886 176 18186240628617301394
20511986 3 18335432222575235444
20715895 44 18263927820472939661
21033648 144 18341903935105121340
21033648 29 17060070241233925573
21315764 268 18271530891902739573
21859007 373 17630902697090176157
22149856 69 17603855712006374515
22393880 68 18042960983041671740
23522609 53 17751613521838561849
23559900 14 18187076308635680270
255183 451 17752757207184021398
2838139 119 18261958453271202077
3004659 81 18409166632085697172
335352 9 18335697265766506454
3411729 13 18340771438719446024
34797466 226 17894622652386444149
3493558 16 18335975424280235265
350125 39 18410011027325910060
3680242 22 18338232781575224051
4058900 60 17915449507594114660
4073 2 18059007285379991738
4325135 7 18113900472664655461
4340502 62 17917151602700665170
474 4 18058445397038074172
5104073 3 18411694400933794185
5283173 99 18339926021356638501
6036956 94 16249419761398060236
6086070 43 18056779820945951108
8988823 20 18131074848437991838

> <PUBCHEM_SHAPE_MULTIPOLES>
661.52
14.54
3.13
1.49
11.4
1.46
-0.13
2.97
1.27
-3.35
0.03
-0.25
-0.32
-0.98

> <PUBCHEM_SHAPE_SELFOVERLAP>
1406.262

> <PUBCHEM_SHAPE_VOLUME>
366.9

> <PUBCHEM_COORDINATE_TYPE>
2
5
10

$$$$

