12190
  -OEChem-06261206383D

 20 19  0     0  0  0  0  0  0999 V2000
    2.4010   -0.1832   -0.2633 O   0  0  0  0  0  0  0  0  0  0  0  0
   -2.4108   -0.1695   -0.2953 O   0  0  0  0  0  0  0  0  0  0  0  0
    0.0169   -1.4841    0.2948 O   0  0  0  0  0  0  0  0  0  0  0  0
    0.0024   -0.1829   -0.2967 C   0  0  0  0  0  0  0  0  0  0  0  0
    1.2567    0.5531    0.1557 C   0  0  0  0  0  0  0  0  0  0  0  0
   -1.2614    0.5434    0.1494 C   0  0  0  0  0  0  0  0  0  0  0  0
    3.6050    0.4684    0.1151 C   0  0  0  0  0  0  0  0  0  0  0  0
   -3.6098    0.4548    0.1402 C   0  0  0  0  0  0  0  0  0  0  0  0
    0.0054   -0.3373   -1.3808 H   0  0  0  0  0  0  0  0  0  0  0  0
    1.2767    0.6369    1.2492 H   0  0  0  0  0  0  0  0  0  0  0  0
    1.2838    1.5578   -0.2818 H   0  0  0  0  0  0  0  0  0  0  0  0
   -1.2798    1.5570   -0.2678 H   0  0  0  0  0  0  0  0  0  0  0  0
   -1.2915    0.6077    1.2441 H   0  0  0  0  0  0  0  0  0  0  0  0
    0.0077   -1.3753    1.2612 H   0  0  0  0  0  0  0  0  0  0  0  0
    3.6651    0.5629    1.2036 H   0  0  0  0  0  0  0  0  0  0  0  0
    3.6714    1.4552   -0.3534 H   0  0  0  0  0  0  0  0  0  0  0  0
    4.4473   -0.1378   -0.2290 H   0  0  0  0  0  0  0  0  0  0  0  0
   -3.6578    0.4746    1.2334 H   0  0  0  0  0  0  0  0  0  0  0  0
   -4.4565   -0.1266   -0.2346 H   0  0  0  0  0  0  0  0  0  0  0  0
   -3.6809    1.4712   -0.2589 H   0  0  0  0  0  0  0  0  0  0  0  0
  1  5  1  0  0  0  0
  1  7  1  0  0  0  0
  2  6  1  0  0  0  0
  2  8  1  0  0  0  0
  3  4  1  0  0  0  0
  3 14  1  0  0  0  0
  4  5  1  0  0  0  0
  4  6  1  0  0  0  0
  4  9  1  0  0  0  0
  5 10  1  0  0  0  0
  5 11  1  0  0  0  0
  6 12  1  0  0  0  0
  6 13  1  0  0  0  0
  7 15  1  0  0  0  0
  7 16  1  0  0  0  0
  7 17  1  0  0  0  0
  8 18  1  0  0  0  0
  8 19  1  0  0  0  0
  8 20  1  0  0  0  0
M  END
> <PUBCHEM_COMPOUND_CID>
12190

> <PUBCHEM_CONFORMER_RMSD>
0.6

> <PUBCHEM_CONFORMER_DIVERSEORDER>
1
12
5
20
4
17
11
13
15
8
9
16
19
6
2
7
18
10
14
3

> <PUBCHEM_MMFF94_PARTIAL_CHARGES>
9
1 -0.56
14 0.4
2 -0.56
3 -0.68
4 0.28
5 0.28
6 0.28
7 0.28
8 0.28

> <PUBCHEM_EFFECTIVE_ROTOR_COUNT>
4

> <PUBCHEM_PHARMACOPHORE_FEATURES>
4
1 1 acceptor
1 2 acceptor
1 3 acceptor
1 3 donor

> <PUBCHEM_HEAVY_ATOM_COUNT>
8

> <PUBCHEM_ATOM_DEF_STEREO_COUNT>
0

> <PUBCHEM_ATOM_UDEF_STEREO_COUNT>
0

> <PUBCHEM_BOND_DEF_STEREO_COUNT>
0

> <PUBCHEM_BOND_UDEF_STEREO_COUNT>
0

> <PUBCHEM_ISOTOPIC_ATOM_COUNT>
0

> <PUBCHEM_COMPONENT_COUNT>
1

> <PUBCHEM_CACTVS_TAUTO_COUNT>
1

> <PUBCHEM_CONFORMER_ID>
00002F9E00000001

> <PUBCHEM_MMFF94_ENERGY>
18.4847

> <PUBCHEM_FEATURE_SELFOVERLAP>
20.305

> <PUBCHEM_SHAPE_FINGERPRINT>
10219947 1 17847058895780867085
11062470 55 14490190505383545376
14325111 11 18410856559645070836
14390081 3 18334296491556843489
23235685 24 18412830183016974225
5460574 1 10231756690850698620

> <PUBCHEM_SHAPE_MULTIPOLES>
147.03
5.82
0.95
0.63
0.04
0.25
0
-1.37
0.1
-0.01
0.09
0.01
0
-0.01

> <PUBCHEM_SHAPE_SELFOVERLAP>
259.672

> <PUBCHEM_SHAPE_VOLUME>
97.4

> <PUBCHEM_COORDINATE_TYPE>
2
5
10

$$$$

