182232
  -OEChem-07051212583D

 35 37  0     1  0  0  0  0  0999 V2000
    0.4549   -0.7564   -0.1122 O   0  0  0  0  0  0  0  0  0  0  0  0
   -0.0194    1.3181    1.8285 O   0  0  0  0  0  0  0  0  0  0  0  0
    4.3337    2.1447   -0.0041 O   0  0  0  0  0  0  0  0  0  0  0  0
    4.8207   -2.5783   -0.3163 O   0  0  0  0  0  0  0  0  0  0  0  0
   -5.1192    0.8216   -1.5251 O   0  0  0  0  0  0  0  0  0  0  0  0
   -5.8044   -0.9645    0.4908 O   0  0  0  0  0  0  0  0  0  0  0  0
    0.0531    1.6128    0.4328 C   0  0  2  0  0  0  0  0  0  0  0  0
   -0.3709    0.3867   -0.3866 C   0  0  2  0  0  0  0  0  0  0  0  0
    1.4883    1.9919    0.0735 C   0  0  0  0  0  0  0  0  0  0  0  0
    2.3596    0.7698   -0.0370 C   0  0  0  0  0  0  0  0  0  0  0  0
    1.8040   -0.5126   -0.1302 C   0  0  0  0  0  0  0  0  0  0  0  0
   -1.8267    0.0278   -0.1540 C   0  0  0  0  0  0  0  0  0  0  0  0
    3.7536    0.9117   -0.0675 C   0  0  0  0  0  0  0  0  0  0  0  0
    2.6311   -1.6360   -0.2110 C   0  0  0  0  0  0  0  0  0  0  0  0
   -2.8192    0.5945   -0.9521 C   0  0  0  0  0  0  0  0  0  0  0  0
   -2.1684   -0.8691    0.8571 C   0  0  0  0  0  0  0  0  0  0  0  0
    4.5778   -0.2103   -0.1624 C   0  0  0  0  0  0  0  0  0  0  0  0
    4.0166   -1.4836   -0.2298 C   0  0  0  0  0  0  0  0  0  0  0  0
   -4.1573    0.2637   -0.7384 C   0  0  0  0  0  0  0  0  0  0  0  0
   -3.5067   -1.1995    1.0708 C   0  0  0  0  0  0  0  0  0  0  0  0
   -4.5012   -0.6331    0.2731 C   0  0  0  0  0  0  0  0  0  0  0  0
   -0.6142    2.4622    0.2455 H   0  0  0  0  0  0  0  0  0  0  0  0
   -0.2559    0.6047   -1.4587 H   0  0  0  0  0  0  0  0  0  0  0  0
    1.8781    2.6666    0.8446 H   0  0  0  0  0  0  0  0  0  0  0  0
    1.4972    2.5092   -0.8935 H   0  0  0  0  0  0  0  0  0  0  0  0
    2.1954   -2.6308   -0.2665 H   0  0  0  0  0  0  0  0  0  0  0  0
   -2.5497    1.2950   -1.7389 H   0  0  0  0  0  0  0  0  0  0  0  0
    0.2293    2.1243    2.3119 H   0  0  0  0  0  0  0  0  0  0  0  0
   -1.4125   -1.3161    1.4968 H   0  0  0  0  0  0  0  0  0  0  0  0
    5.6576   -0.0842   -0.1813 H   0  0  0  0  0  0  0  0  0  0  0  0
   -3.7684   -1.8975    1.8615 H   0  0  0  0  0  0  0  0  0  0  0  0
    3.6790    2.8424   -0.1630 H   0  0  0  0  0  0  0  0  0  0  0  0
    5.7491   -2.2885   -0.3173 H   0  0  0  0  0  0  0  0  0  0  0  0
   -4.6970    1.4153   -2.1695 H   0  0  0  0  0  0  0  0  0  0  0  0
   -6.3541   -0.4815   -0.1505 H   0  0  0  0  0  0  0  0  0  0  0  0
  1  8  1  0  0  0  0
  1 11  1  0  0  0  0
  2  7  1  0  0  0  0
  2 28  1  0  0  0  0
  3 13  1  0  0  0  0
  3 32  1  0  0  0  0
  4 18  1  0  0  0  0
  4 33  1  0  0  0  0
  5 19  1  0  0  0  0
  5 34  1  0  0  0  0
  6 21  1  0  0  0  0
  6 35  1  0  0  0  0
  7  8  1  0  0  0  0
  7  9  1  0  0  0  0
  7 22  1  0  0  0  0
  8 12  1  0  0  0  0
  8 23  1  0  0  0  0
  9 10  1  0  0  0  0
  9 24  1  0  0  0  0
  9 25  1  0  0  0  0
 10 11  1  0  0  0  0
 10 13  2  0  0  0  0
 11 14  2  0  0  0  0
 12 15  2  0  0  0  0
 12 16  1  0  0  0  0
 13 17  1  0  0  0  0
 14 18  1  0  0  0  0
 14 26  1  0  0  0  0
 15 19  1  0  0  0  0
 15 27  1  0  0  0  0
 16 20  2  0  0  0  0
 16 29  1  0  0  0  0
 17 18  2  0  0  0  0
 17 30  1  0  0  0  0
 19 21  2  0  0  0  0
 20 21  1  0  0  0  0
 20 31  1  0  0  0  0
M  END
> <PUBCHEM_COMPOUND_CID>
182232

> <PUBCHEM_CONFORMER_RMSD>
0.6

> <PUBCHEM_CONFORMER_DIVERSEORDER>
2
7
6
3
8
9
5
4
10
1

> <PUBCHEM_MMFF94_PARTIAL_CHARGES>
31
1 -0.36
10 -0.14
11 0.08
12 -0.14
13 0.08
14 -0.15
15 -0.15
16 -0.15
17 -0.15
18 0.08
19 0.08
2 -0.68
20 -0.15
21 0.08
26 0.15
27 0.15
28 0.4
29 0.15
3 -0.53
30 0.15
31 0.15
32 0.45
33 0.45
34 0.45
35 0.45
4 -0.53
5 -0.53
6 -0.53
7 0.28
8 0.42
9 0.14

> <PUBCHEM_EFFECTIVE_ROTOR_COUNT>
1.8

> <PUBCHEM_PHARMACOPHORE_FEATURES>
10
1 1 acceptor
1 2 acceptor
1 2 donor
1 3 donor
1 4 donor
1 5 donor
1 6 donor
6 1 7 8 9 10 11 rings
6 10 11 13 14 17 18 rings
6 12 15 16 19 20 21 rings

> <PUBCHEM_HEAVY_ATOM_COUNT>
21

> <PUBCHEM_ATOM_DEF_STEREO_COUNT>
2

> <PUBCHEM_ATOM_UDEF_STEREO_COUNT>
0

> <PUBCHEM_BOND_DEF_STEREO_COUNT>
0

> <PUBCHEM_BOND_UDEF_STEREO_COUNT>
0

> <PUBCHEM_ISOTOPIC_ATOM_COUNT>
0

> <PUBCHEM_COMPONENT_COUNT>
1

> <PUBCHEM_CACTVS_TAUTO_COUNT>
90

> <PUBCHEM_CONFORMER_ID>
0002C7D800000002

> <PUBCHEM_MMFF94_ENERGY>
60.5497

> <PUBCHEM_FEATURE_SELFOVERLAP>
50.779

> <PUBCHEM_SHAPE_FINGERPRINT>
10835480 77 18341901774620987789
11471102 20 18408605842564200796
11796584 16 17917434254277187322
12236239 1 17022896831494078483
12403259 415 18131917070244911173
12596602 18 16153434917301004146
12916748 109 16988842757337605209
13073987 5 18334851715090940009
13134695 92 18040720238220845513
13140716 1 17828208692879063480
13533116 47 18259982660771833787
13544592 145 18131068251078152843
13544653 18 18261110798382946172
13760787 5 18113337509430784125
13955234 65 18334581205429350288
14341114 176 18412819175590820537
14386348 63 18272087180045035467
14573314 32 18130790061967454901
14866123 147 17689433110612444848
15188451 53 15069205419515281749
15196674 1 18410854382228689461
15219456 202 18343585114201039405
15375358 24 18272654523639159371
15375462 189 17894912901796892712
15788980 27 18410016533019991079
15961568 22 16845005694254212876
17349148 13 16588023481370466453
17844677 252 18412820304856275549
17980427 23 4822920361930824481
1813 80 17822277020524984372
18186145 218 17846780736392334216
18222031 100 16298391253188734452
193927 3 18187918551690718822
200 152 18186802508253493003
20645477 70 18408884048965512174
21033648 29 18342470209785378201
21033650 10 16414914291892715060
21065201 7 17418377990981836299
21267235 1 18335129921687254382
21279426 13 18270121343665195789
221357 26 18412832391379471741
221490 88 18270391681586122314
2215653 11 18342183284468470743
22393880 68 17989210377517346507
23175994 123 18409444791521930049
23402539 116 5761648175273320793
23557571 272 17632581530421924149
23559900 14 18273217516916747974
239999 70 18272088297343343314
26918003 58 18412829096733224274
2871803 45 18342738563520695114
3004659 81 17988361563705501370
312423 11 18114728443606854496
314194 84 18113903753671964575
33824 294 18411419493130883474
345986 75 17677051364481080626
34797466 226 17203035310008419119
4214541 1 18272370893100608101
46194498 28 17774156791130025333
465052 167 18260259750655896822
4990 188 17846501426158353017
5104073 3 18336266833315316104
5281201 14 18131630075686820037
5283173 99 18201163268516497293
542803 24 16950276287355062129
633830 44 16128371549798097773
9709674 26 18129657496187343011

> <PUBCHEM_SHAPE_MULTIPOLES>
396.95
11.38
2
1.01
5.2
0.08
0.13
3.26
-1.59
-2.45
0.12
0.98
-0.17
1.17

> <PUBCHEM_SHAPE_SELFOVERLAP>
876.504

> <PUBCHEM_SHAPE_VOLUME>
211.8

> <PUBCHEM_COORDINATE_TYPE>
2
5
10

$$$$

