46174024
  -OEChem-07051213113D

 51 52  0     1  0  0  0  0  0999 V2000
   -0.0343    0.0395    0.0566 O   0  0  0  0  0  0  0  0  0  0  0  0
   -1.9962    0.9093    1.0534 O   0  0  0  0  0  0  0  0  0  0  0  0
    2.9712    0.8269    1.9748 O   0  0  0  0  0  0  0  0  0  0  0  0
    4.4981    0.8296   -0.5555 O   0  0  0  0  0  0  0  0  0  0  0  0
   -3.3257   -2.7610   -0.3056 O   0  0  0  0  0  0  0  0  0  0  0  0
   -4.1218   -0.3615   -1.6745 O   0  0  0  0  0  0  0  0  0  0  0  0
    2.1324   -1.9891   -0.2689 N   0  0  0  0  0  0  0  0  0  0  0  0
    2.3292    2.8374   -0.3193 N   0  0  0  0  0  0  0  0  0  0  0  0
   -0.7183   -2.5776    0.9710 N   0  0  0  0  0  0  0  0  0  0  0  0
   -2.9615    3.3838    0.1370 N   0  0  0  0  0  0  0  0  0  0  0  0
    1.0400    0.8706    0.5046 C   0  0  1  0  0  0  0  0  0  0  0  0
    2.1079    0.0020    1.1923 C   0  0  1  0  0  0  0  0  0  0  0  0
    1.5513    1.6624   -0.7140 C   0  0  2  0  0  0  0  0  0  0  0  0
    2.9355   -0.8640    0.2167 C   0  0  2  0  0  0  0  0  0  0  0  0
    3.4592   -0.0507   -0.9823 C   0  0  1  0  0  0  0  0  0  0  0  0
    2.3592    0.7665   -1.6716 C   0  0  0  0  0  0  0  0  0  0  0  0
   -1.0145   -0.1315    1.0782 C   0  0  1  0  0  0  0  0  0  0  0  0
   -1.7033   -1.4956    0.9510 C   0  0  1  0  0  0  0  0  0  0  0  0
   -2.5494   -1.5617   -0.3252 C   0  0  2  0  0  0  0  0  0  0  0  0
   -3.5011   -0.3619   -0.3912 C   0  0  1  0  0  0  0  0  0  0  0  0
   -2.7497    0.9552   -0.1630 C   0  0  1  0  0  0  0  0  0  0  0  0
   -3.6997    2.1449   -0.0549 C   0  0  0  0  0  0  0  0  0  0  0  0
    2.9915   -3.0737   -0.7096 C   0  0  0  0  0  0  0  0  0  0  0  0
    0.6470    1.6075    1.2204 H   0  0  0  0  0  0  0  0  0  0  0  0
    1.6304   -0.6705    1.9151 H   0  0  0  0  0  0  0  0  0  0  0  0
    0.6827    2.0304   -1.2762 H   0  0  0  0  0  0  0  0  0  0  0  0
    3.7982   -1.2314    0.7907 H   0  0  0  0  0  0  0  0  0  0  0  0
    3.9257   -0.7038   -1.7264 H   0  0  0  0  0  0  0  0  0  0  0  0
    1.6657    0.0776   -2.1711 H   0  0  0  0  0  0  0  0  0  0  0  0
    2.7983    1.3856   -2.4649 H   0  0  0  0  0  0  0  0  0  0  0  0
   -0.5477   -0.0920    2.0708 H   0  0  0  0  0  0  0  0  0  0  0  0
   -2.3708   -1.6333    1.8123 H   0  0  0  0  0  0  0  0  0  0  0  0
   -1.9194   -1.6020   -1.2223 H   0  0  0  0  0  0  0  0  0  0  0  0
   -4.2955   -0.4825    0.3553 H   0  0  0  0  0  0  0  0  0  0  0  0
   -2.0666    1.1433   -1.0030 H   0  0  0  0  0  0  0  0  0  0  0  0
    1.5427   -2.3385    0.4857 H   0  0  0  0  0  0  0  0  0  0  0  0
    1.7523    3.4565    0.2485 H   0  0  0  0  0  0  0  0  0  0  0  0
    2.5943    3.3690   -1.1474 H   0  0  0  0  0  0  0  0  0  0  0  0
    2.4189    1.3095    2.6132 H   0  0  0  0  0  0  0  0  0  0  0  0
   -4.3127    2.2316   -0.9579 H   0  0  0  0  0  0  0  0  0  0  0  0
   -4.3742    2.0112    0.7989 H   0  0  0  0  0  0  0  0  0  0  0  0
    4.8144    1.3145   -1.3367 H   0  0  0  0  0  0  0  0  0  0  0  0
   -0.2233   -2.5711    1.8619 H   0  0  0  0  0  0  0  0  0  0  0  0
   -1.1964   -3.4758    0.9135 H   0  0  0  0  0  0  0  0  0  0  0  0
    3.6478   -3.4274    0.0928 H   0  0  0  0  0  0  0  0  0  0  0  0
    2.3661   -3.9202   -1.0127 H   0  0  0  0  0  0  0  0  0  0  0  0
    3.5987   -2.8092   -1.5792 H   0  0  0  0  0  0  0  0  0  0  0  0
   -3.8887   -2.7441    0.4871 H   0  0  0  0  0  0  0  0  0  0  0  0
   -3.4294   -0.2243   -2.3433 H   0  0  0  0  0  0  0  0  0  0  0  0
   -3.6163    4.1512    0.2816 H   0  0  0  0  0  0  0  0  0  0  0  0
   -2.4001    3.3216    0.9855 H   0  0  0  0  0  0  0  0  0  0  0  0
  1 11  1  0  0  0  0
  1 17  1  0  0  0  0
  2 17  1  0  0  0  0
  2 21  1  0  0  0  0
  3 12  1  0  0  0  0
  3 39  1  0  0  0  0
  4 15  1  0  0  0  0
  4 42  1  0  0  0  0
  5 19  1  0  0  0  0
  5 48  1  0  0  0  0
  6 20  1  0  0  0  0
  6 49  1  0  0  0  0
  7 14  1  0  0  0  0
  7 23  1  0  0  0  0
  7 36  1  0  0  0  0
  8 13  1  0  0  0  0
  8 37  1  0  0  0  0
  8 38  1  0  0  0  0
  9 18  1  0  0  0  0
  9 43  1  0  0  0  0
  9 44  1  0  0  0  0
 10 22  1  0  0  0  0
 10 50  1  0  0  0  0
 10 51  1  0  0  0  0
 11 12  1  0  0  0  0
 11 13  1  0  0  0  0
 11 24  1  0  0  0  0
 12 14  1  0  0  0  0
 12 25  1  0  0  0  0
 13 16  1  0  0  0  0
 13 26  1  0  0  0  0
 14 15  1  0  0  0  0
 14 27  1  0  0  0  0
 15 16  1  0  0  0  0
 15 28  1  0  0  0  0
 16 29  1  0  0  0  0
 16 30  1  0  0  0  0
 17 18  1  0  0  0  0
 17 31  1  0  0  0  0
 18 19  1  0  0  0  0
 18 32  1  0  0  0  0
 19 20  1  0  0  0  0
 19 33  1  0  0  0  0
 20 21  1  0  0  0  0
 20 34  1  0  0  0  0
 21 22  1  0  0  0  0
 21 35  1  0  0  0  0
 22 40  1  0  0  0  0
 22 41  1  0  0  0  0
 23 45  1  0  0  0  0
 23 46  1  0  0  0  0
 23 47  1  0  0  0  0
M  END
> <PUBCHEM_COMPOUND_CID>
46174024

> <PUBCHEM_CONFORMER_RMSD>
0.8

> <PUBCHEM_CONFORMER_DIVERSEORDER>
1
11
20
12
7
16
15
21
14
17
19
2
13
4
5
10
8
6
3
9
18

> <PUBCHEM_MMFF94_PARTIAL_CHARGES>
33
1 -0.56
10 -0.99
11 0.28
12 0.28
13 0.27
14 0.27
15 0.28
17 0.56
18 0.27
19 0.28
2 -0.56
20 0.28
21 0.28
22 0.27
23 0.27
3 -0.68
36 0.36
37 0.36
38 0.36
39 0.4
4 -0.68
42 0.4
43 0.36
44 0.36
48 0.4
49 0.4
5 -0.68
50 0.36
51 0.36
6 -0.68
7 -0.9
8 -0.99
9 -0.99

> <PUBCHEM_EFFECTIVE_ROTOR_COUNT>
6.4

> <PUBCHEM_PHARMACOPHORE_FEATURES>
20
1 1 acceptor
1 10 cation
1 10 donor
1 2 acceptor
1 3 acceptor
1 3 donor
1 4 acceptor
1 4 donor
1 5 acceptor
1 5 donor
1 6 acceptor
1 6 donor
1 7 cation
1 7 donor
1 8 cation
1 8 donor
1 9 cation
1 9 donor
6 11 12 13 14 15 16 rings
6 2 17 18 19 20 21 rings

> <PUBCHEM_HEAVY_ATOM_COUNT>
23

> <PUBCHEM_ATOM_DEF_STEREO_COUNT>
10

> <PUBCHEM_ATOM_UDEF_STEREO_COUNT>
0

> <PUBCHEM_BOND_DEF_STEREO_COUNT>
0

> <PUBCHEM_BOND_UDEF_STEREO_COUNT>
0

> <PUBCHEM_ISOTOPIC_ATOM_COUNT>
0

> <PUBCHEM_COMPONENT_COUNT>
1

> <PUBCHEM_CACTVS_TAUTO_COUNT>
1

> <PUBCHEM_CONFORMER_ID>
02C08F4800000001

> <PUBCHEM_MMFF94_ENERGY>
46.3706

> <PUBCHEM_FEATURE_SELFOVERLAP>
101.539

> <PUBCHEM_SHAPE_FINGERPRINT>
10616163 171 18337104579703184079
10764073 3 17759281700645297138
11370993 70 18340205164076047054
116883 192 17979067516406243420
12500047 106 18335703887719957000
12553582 1 18122904223040071779
12788726 201 18200876163233099395
13224815 77 18262798454279283571
13583140 156 17749404658189922096
14178342 30 18338813259464162698
16752209 62 18411423886592374563
16945 1 18339918221199611419
17492 89 18410291411001573927
18186145 218 18271533000741795701
192875 21 18269293325488996405
19862831 5 18059574629084878565
21524375 3 18129094709906941505
22393880 68 18335128792115909806
23419403 2 17541410228895755650
23557571 272 18124324800352081521
23558518 356 18272649017702024435
23559900 14 18261116318038355504
2748010 2 17545596751782089251
633830 44 17916578894486491121
7164475 11 18410297978274867343
74978 22 18342734096258919696
7832392 63 18340767168730305857
9709674 26 18409726266060998751

> <PUBCHEM_SHAPE_MULTIPOLES>
418.19
7.73
3.26
1.34
1.21
0.31
0.09
-0.68
-2.03
0.87
-0.26
-0.46
-0.04
-0.08

> <PUBCHEM_SHAPE_SELFOVERLAP>
847.339

> <PUBCHEM_SHAPE_VOLUME>
240.4

> <PUBCHEM_COORDINATE_TYPE>
2
5
10

$$$$

