439543
  -OEChem-07051212462D

 44 44  0     1  0  0  0  0  0999 V2000
    6.8671    1.3450    0.0000 O   0  0  0  0  0  0  0  0  0  0  0  0
    7.7331   -0.1550    0.0000 O   0  0  0  0  0  0  0  0  0  0  0  0
    4.2690   -1.1550    0.0000 O   0  0  0  0  0  0  0  0  0  0  0  0
    6.0010   -1.1550    0.0000 N   0  0  0  0  0  0  0  0  0  0  0  0
    4.2690    2.8450    0.0000 N   0  0  0  0  0  0  0  0  0  0  0  0
    3.4030    4.3450    0.0000 N   0  0  0  0  0  0  0  0  0  0  0  0
    2.5369    2.8450    0.0000 N   0  0  0  0  0  0  0  0  0  0  0  0
    5.1350    0.3450    0.0000 C   0  0  0  0  0  0  0  0  0  0  0  0
    6.0010   -0.1550    0.0000 C   0  0  2  0  0  0  0  0  0  0  0  0
    5.1350    1.3450    0.0000 C   0  0  0  0  0  0  0  0  0  0  0  0
    4.2690    1.8450    0.0000 C   0  0  0  0  0  0  0  0  0  0  0  0
    6.8671    0.3450    0.0000 C   0  0  0  0  0  0  0  0  0  0  0  0
    5.1350   -1.6550    0.0000 C   0  0  0  0  0  0  0  0  0  0  0  0
    5.1350   -2.6550    0.0000 C   0  0  0  0  0  0  0  0  0  0  0  0
    7.7331    1.8450    0.0000 C   0  0  0  0  0  0  0  0  0  0  0  0
    4.2690   -3.1550    0.0000 C   0  0  0  0  0  0  0  0  0  0  0  0
    6.0010   -3.1550    0.0000 C   0  0  0  0  0  0  0  0  0  0  0  0
    3.4030    3.3450    0.0000 C   0  0  0  0  0  0  0  0  0  0  0  0
    7.7331    2.8450    0.0000 C   0  0  0  0  0  0  0  0  0  0  0  0
    4.2690   -4.1550    0.0000 C   0  0  0  0  0  0  0  0  0  0  0  0
    6.0010   -4.1550    0.0000 C   0  0  0  0  0  0  0  0  0  0  0  0
    5.1350   -4.6550    0.0000 C   0  0  0  0  0  0  0  0  0  0  0  0
    4.5244    0.4527    0.0000 H   0  0  0  0  0  0  0  0  0  0  0  0
    4.9230   -0.2376    0.0000 H   0  0  0  0  0  0  0  0  0  0  0  0
    6.5380   -0.4650    0.0000 H   0  0  0  0  0  0  0  0  0  0  0  0
    5.7456    1.2373    0.0000 H   0  0  0  0  0  0  0  0  0  0  0  0
    5.3471    1.9276    0.0000 H   0  0  0  0  0  0  0  0  0  0  0  0
    3.6584    1.9527    0.0000 H   0  0  0  0  0  0  0  0  0  0  0  0
    4.0569    1.2624    0.0000 H   0  0  0  0  0  0  0  0  0  0  0  0
    6.5380   -1.4650    0.0000 H   0  0  0  0  0  0  0  0  0  0  0  0
    7.9451    1.2624    0.0000 H   0  0  0  0  0  0  0  0  0  0  0  0
    8.3437    1.9527    0.0000 H   0  0  0  0  0  0  0  0  0  0  0  0
    3.7320   -2.8450    0.0000 H   0  0  0  0  0  0  0  0  0  0  0  0
    6.5380   -2.8450    0.0000 H   0  0  0  0  0  0  0  0  0  0  0  0
    8.3531    2.8450    0.0000 H   0  0  0  0  0  0  0  0  0  0  0  0
    7.7331    3.4650    0.0000 H   0  0  0  0  0  0  0  0  0  0  0  0
    7.1131    2.8450    0.0000 H   0  0  0  0  0  0  0  0  0  0  0  0
    3.7320   -4.4650    0.0000 H   0  0  0  0  0  0  0  0  0  0  0  0
    6.5380   -4.4650    0.0000 H   0  0  0  0  0  0  0  0  0  0  0  0
    5.1350   -5.2750    0.0000 H   0  0  0  0  0  0  0  0  0  0  0  0
    2.8660    4.6550    0.0000 H   0  0  0  0  0  0  0  0  0  0  0  0
    3.9399    4.6550    0.0000 H   0  0  0  0  0  0  0  0  0  0  0  0
    2.0000    3.1550    0.0000 H   0  0  0  0  0  0  0  0  0  0  0  0
    2.5369    2.2250    0.0000 H   0  0  0  0  0  0  0  0  0  0  0  0
  1 12  1  0  0  0  0
  1 15  1  0  0  0  0
  2 12  2  0  0  0  0
  3 13  2  0  0  0  0
  9  4  1  6  0  0  0
  4 13  1  0  0  0  0
  4 30  1  0  0  0  0
  5 11  1  0  0  0  0
  5 18  2  0  0  0  0
  6 18  1  0  0  0  0
  6 41  1  0  0  0  0
  6 42  1  0  0  0  0
  7 18  1  0  0  0  0
  7 43  1  0  0  0  0
  7 44  1  0  0  0  0
  8  9  1  0  0  0  0
  8 10  1  0  0  0  0
  8 23  1  0  0  0  0
  8 24  1  0  0  0  0
  9 12  1  0  0  0  0
  9 25  1  0  0  0  0
 10 11  1  0  0  0  0
 10 26  1  0  0  0  0
 10 27  1  0  0  0  0
 11 28  1  0  0  0  0
 11 29  1  0  0  0  0
 13 14  1  0  0  0  0
 14 16  2  0  0  0  0
 14 17  1  0  0  0  0
 15 19  1  0  0  0  0
 15 31  1  0  0  0  0
 15 32  1  0  0  0  0
 16 20  1  0  0  0  0
 16 33  1  0  0  0  0
 17 21  2  0  0  0  0
 17 34  1  0  0  0  0
 19 35  1  0  0  0  0
 19 36  1  0  0  0  0
 19 37  1  0  0  0  0
 20 22  2  0  0  0  0
 20 38  1  0  0  0  0
 21 22  1  0  0  0  0
 21 39  1  0  0  0  0
 22 40  1  0  0  0  0
M  END
> <PUBCHEM_COMPOUND_CID>
439543

> <PUBCHEM_COMPOUND_CANONICALIZED>
1

> <PUBCHEM_CACTVS_COMPLEXITY>
388

> <PUBCHEM_CACTVS_HBOND_ACCEPTOR>
4

> <PUBCHEM_CACTVS_HBOND_DONOR>
3

> <PUBCHEM_CACTVS_ROTATABLE_BOND>
9

> <PUBCHEM_CACTVS_SUBSKEYS>
AAADceBzsAAAAAAAAAAAAAAAAAAAAAAAAAAwAAAAAAAAAAABAAAAHgAQAAAADCjhmAYzCILABACoAiHSPACCAAEkAAAIiIGIBMgKIDKAlTGHIQhklgCYiYeYmQCOAAAAAAAAAAAAAAAAAAAAAAAAAAAAAA==

> <PUBCHEM_IUPAC_OPENEYE_NAME>
ethyl (2R)-2-benzamido-5-guanidino-pentanoate

> <PUBCHEM_IUPAC_CAS_NAME>
(2R)-2-benzamido-5-(diaminomethylideneamino)pentanoic acid ethyl ester

> <PUBCHEM_IUPAC_NAME>
ethyl (2R)-2-benzamido-5-(diaminomethylideneamino)pentanoate

> <PUBCHEM_IUPAC_SYSTEMATIC_NAME>
ethyl (2R)-2-benzamido-5-[bis(azanyl)methylideneamino]pentanoate

> <PUBCHEM_IUPAC_TRADITIONAL_NAME>
(2R)-2-benzamido-5-guanidino-valeric acid ethyl ester

> <PUBCHEM_IUPAC_INCHI>
InChI=1S/C15H22N4O3/c1-2-22-14(21)12(9-6-10-18-15(16)17)19-13(20)11-7-4-3-5-8-11/h3-5,7-8,12H,2,6,9-10H2,1H3,(H,19,20)(H4,16,17,18)/t12-/m1/s1

> <PUBCHEM_IUPAC_INCHIKEY>
YQDHCCVUYCIGSW-GFCCVEGCSA-N

> <PUBCHEM_XLOGP3_AA>
0.7

> <PUBCHEM_EXACT_MASS>
306.169191

> <PUBCHEM_MOLECULAR_FORMULA>
C15H22N4O3

> <PUBCHEM_MOLECULAR_WEIGHT>
306.36018

> <PUBCHEM_OPENEYE_CAN_SMILES>
CCOC(=O)C(CCCN=C(N)N)NC(=O)C1=CC=CC=C1

> <PUBCHEM_OPENEYE_ISO_SMILES>
CCOC(=O)[C@@H](CCCN=C(N)N)NC(=O)C1=CC=CC=C1

> <PUBCHEM_CACTVS_TPSA>
120

> <PUBCHEM_MONOISOTOPIC_WEIGHT>
306.169191

> <PUBCHEM_TOTAL_CHARGE>
0

> <PUBCHEM_HEAVY_ATOM_COUNT>
22

> <PUBCHEM_ATOM_DEF_STEREO_COUNT>
1

> <PUBCHEM_ATOM_UDEF_STEREO_COUNT>
0

> <PUBCHEM_BOND_DEF_STEREO_COUNT>
0

> <PUBCHEM_BOND_UDEF_STEREO_COUNT>
0

> <PUBCHEM_ISOTOPIC_ATOM_COUNT>
0

> <PUBCHEM_COMPONENT_COUNT>
1

> <PUBCHEM_CACTVS_TAUTO_COUNT>
4

> <PUBCHEM_COORDINATE_TYPE>
1
5
255

> <PUBCHEM_BONDANNOTATIONS>
14  16  8
14  17  8
16  20  8
17  21  8
20  22  8
21  22  8
9  4  6

$$$$

