4755
  -OEChem-07051213042D

 33 34  0     0  0  0  0  0  0999 V2000
    8.9282   -0.9400    0.0000 Cl  0  0  0  0  0  0  0  0  0  0  0  0
    4.5981   -1.4400    0.0000 O   0  0  0  0  0  0  0  0  0  0  0  0
    4.5981    1.5600    0.0000 N   0  0  0  0  0  0  0  0  0  0  0  0
    7.1962   -0.9400    0.0000 N   0  0  0  0  0  0  0  0  0  0  0  0
    5.4641    0.0600    0.0000 N   0  0  0  0  0  0  0  0  0  0  0  0
    7.1962   -2.9400    0.0000 N   0  0  0  0  0  0  0  0  0  0  0  0
    5.4641   -2.9400    0.0000 N   0  0  0  0  0  0  0  0  0  0  0  0
    3.7320    0.0600    0.0000 N   0  0  0  0  0  0  0  0  0  0  0  0
    8.9282   -2.9400    0.0000 N   0  0  0  0  0  0  0  0  0  0  0  0
    3.7320    2.0600    0.0000 C   0  0  0  0  0  0  0  0  0  0  0  0
    6.3301   -1.4400    0.0000 C   0  0  0  0  0  0  0  0  0  0  0  0
    3.7320    3.0600    0.0000 C   0  0  0  0  0  0  0  0  0  0  0  0
    2.8660    1.5600    0.0000 C   0  0  0  0  0  0  0  0  0  0  0  0
    6.3301   -2.4400    0.0000 C   0  0  0  0  0  0  0  0  0  0  0  0
    4.5981    0.5600    0.0000 C   0  0  0  0  0  0  0  0  0  0  0  0
    5.4641   -0.9400    0.0000 C   0  0  0  0  0  0  0  0  0  0  0  0
    2.8660    3.5600    0.0000 C   0  0  0  0  0  0  0  0  0  0  0  0
    2.0000    2.0600    0.0000 C   0  0  0  0  0  0  0  0  0  0  0  0
    2.0000    3.0600    0.0000 C   0  0  0  0  0  0  0  0  0  0  0  0
    8.0622   -2.4400    0.0000 C   0  0  0  0  0  0  0  0  0  0  0  0
    8.0622   -1.4400    0.0000 C   0  0  0  0  0  0  0  0  0  0  0  0
    5.1350    1.8700    0.0000 H   0  0  0  0  0  0  0  0  0  0  0  0
    4.2690    3.3700    0.0000 H   0  0  0  0  0  0  0  0  0  0  0  0
    2.8660    0.9400    0.0000 H   0  0  0  0  0  0  0  0  0  0  0  0
    2.8660    4.1800    0.0000 H   0  0  0  0  0  0  0  0  0  0  0  0
    1.4631    1.7500    0.0000 H   0  0  0  0  0  0  0  0  0  0  0  0
    1.4631    3.3700    0.0000 H   0  0  0  0  0  0  0  0  0  0  0  0
    5.4641   -3.5600    0.0000 H   0  0  0  0  0  0  0  0  0  0  0  0
    4.9272   -2.6300    0.0000 H   0  0  0  0  0  0  0  0  0  0  0  0
    3.1951    0.3700    0.0000 H   0  0  0  0  0  0  0  0  0  0  0  0
    3.7320   -0.5600    0.0000 H   0  0  0  0  0  0  0  0  0  0  0  0
    8.9282   -3.5600    0.0000 H   0  0  0  0  0  0  0  0  0  0  0  0
    9.4651   -2.6300    0.0000 H   0  0  0  0  0  0  0  0  0  0  0  0
  1 21  1  0  0  0  0
  2 16  2  0  0  0  0
  3 10  1  0  0  0  0
  3 15  1  0  0  0  0
  3 22  1  0  0  0  0
  4 11  1  0  0  0  0
  4 21  2  0  0  0  0
  5 15  2  0  0  0  0
  5 16  1  0  0  0  0
  6 14  1  0  0  0  0
  6 20  2  0  0  0  0
  7 14  1  0  0  0  0
  7 28  1  0  0  0  0
  7 29  1  0  0  0  0
  8 15  1  0  0  0  0
  8 30  1  0  0  0  0
  8 31  1  0  0  0  0
  9 20  1  0  0  0  0
  9 32  1  0  0  0  0
  9 33  1  0  0  0  0
 10 12  2  0  0  0  0
 10 13  1  0  0  0  0
 11 14  2  0  0  0  0
 11 16  1  0  0  0  0
 12 17  1  0  0  0  0
 12 23  1  0  0  0  0
 13 18  2  0  0  0  0
 13 24  1  0  0  0  0
 17 19  2  0  0  0  0
 17 25  1  0  0  0  0
 18 19  1  0  0  0  0
 18 26  1  0  0  0  0
 19 27  1  0  0  0  0
 20 21  1  0  0  0  0
M  END
> <PUBCHEM_COMPOUND_CID>
4755

> <PUBCHEM_COMPOUND_CANONICALIZED>
1

> <PUBCHEM_CACTVS_COMPLEXITY>
399

> <PUBCHEM_CACTVS_HBOND_ACCEPTOR>
5

> <PUBCHEM_CACTVS_HBOND_DONOR>
4

> <PUBCHEM_CACTVS_ROTATABLE_BOND>
3

> <PUBCHEM_CACTVS_SUBSKEYS>
AAADccBzoAAEAAAAAAAAAAAAAAAAAAAAAAA8QAAAAAAAAAABwAAAHgIQAAAACAqBliAx8JLIEACoASdydACCgC0nEiAJmAGgdMiIYGrA2bHUIIhgkALIyGcQAAAAAAAAAAAAAAAAAAAAAAAAAAAAAAAAAA==

> <PUBCHEM_IUPAC_OPENEYE_NAME>
3,5-diamino-N-[amino(anilino)methylene]-6-chloro-pyrazine-2-carboxamide

> <PUBCHEM_IUPAC_CAS_NAME>
3,5-diamino-N-[amino(anilino)methylidene]-6-chloro-2-pyrazinecarboxamide

> <PUBCHEM_IUPAC_NAME>
3,5-diamino-N-[amino(anilino)methylidene]-6-chloropyrazine-2-carboxamide

> <PUBCHEM_IUPAC_SYSTEMATIC_NAME>
3,5-bis(azanyl)-N-[azanyl(phenylazanyl)methylidene]-6-chloranyl-pyrazine-2-carboxamide

> <PUBCHEM_IUPAC_TRADITIONAL_NAME>
3,5-diamino-N-[amino(anilino)methylene]-6-chloro-pyrazinamide

> <PUBCHEM_IUPAC_INCHI>
InChI=1S/C12H12ClN7O/c13-8-10(15)19-9(14)7(18-8)11(21)20-12(16)17-6-4-2-1-3-5-6/h1-5H,(H4,14,15,19)(H3,16,17,20,21)

> <PUBCHEM_IUPAC_INCHIKEY>
NIOHELZQFBGCEO-UHFFFAOYSA-N

> <PUBCHEM_XLOGP3_AA>
1.3

> <PUBCHEM_EXACT_MASS>
305.079186

> <PUBCHEM_MOLECULAR_FORMULA>
C12H12ClN7O

> <PUBCHEM_MOLECULAR_WEIGHT>
305.72298

> <PUBCHEM_OPENEYE_CAN_SMILES>
C1=CC=C(C=C1)NC(=NC(=O)C2=C(N=C(C(=N2)Cl)N)N)N

> <PUBCHEM_OPENEYE_ISO_SMILES>
C1=CC=C(C=C1)NC(=NC(=O)C2=C(N=C(C(=N2)Cl)N)N)N

> <PUBCHEM_CACTVS_TPSA>
145

> <PUBCHEM_MONOISOTOPIC_WEIGHT>
305.079186

> <PUBCHEM_TOTAL_CHARGE>
0

> <PUBCHEM_HEAVY_ATOM_COUNT>
21

> <PUBCHEM_ATOM_DEF_STEREO_COUNT>
0

> <PUBCHEM_ATOM_UDEF_STEREO_COUNT>
0

> <PUBCHEM_BOND_DEF_STEREO_COUNT>
0

> <PUBCHEM_BOND_UDEF_STEREO_COUNT>
0

> <PUBCHEM_ISOTOPIC_ATOM_COUNT>
0

> <PUBCHEM_COMPONENT_COUNT>
1

> <PUBCHEM_CACTVS_TAUTO_COUNT>
54

> <PUBCHEM_COORDINATE_TYPE>
1
5
255

> <PUBCHEM_BONDANNOTATIONS>
10  12  8
10  13  8
11  14  8
12  17  8
13  18  8
17  19  8
18  19  8
20  21  8
4  11  8
4  21  8
6  14  8
6  20  8

$$$$

