17396162
  -OEChem-06241222553D

 35 37  0     0  0  0  0  0  0999 V2000
   -2.6256   -1.1900    0.0867 S   0  0  0  0  0  0  0  0  0  0  0  0
    0.3912   -1.7114    0.0016 S   0  0  0  0  0  0  0  0  0  0  0  0
   -5.0393    0.3951   -2.1504 F   0  0  0  0  0  0  0  0  0  0  0  0
    7.4192   -0.1746   -0.0907 O   0  0  0  0  0  0  0  0  0  0  0  0
    3.6591    1.6395    0.1505 O   0  0  0  0  0  0  0  0  0  0  0  0
    2.7417   -0.5292    0.0336 N   0  0  0  0  0  0  0  0  0  0  0  0
    0.7411    0.8223    0.1549 N   0  0  0  0  0  0  0  0  0  0  0  0
   -0.6298    0.6331    0.1669 N   0  0  0  0  0  0  0  0  0  0  0  0
    5.1737   -0.1183   -0.0145 C   0  0  0  0  0  0  0  0  0  0  0  0
   -4.9567    0.2494    0.2176 C   0  0  0  0  0  0  0  0  0  0  0  0
    6.3281    0.6294    0.0066 C   0  0  0  0  0  0  0  0  0  0  0  0
   -3.4742    0.4132    0.2022 C   0  0  0  0  0  0  0  0  0  0  0  0
    3.7920    0.4229    0.0728 C   0  0  0  0  0  0  0  0  0  0  0  0
    5.5818   -1.4684   -0.1324 C   0  0  0  0  0  0  0  0  0  0  0  0
   -5.6736    0.2481   -0.9789 C   0  0  0  0  0  0  0  0  0  0  0  0
   -5.6261    0.0971    1.4319 C   0  0  0  0  0  0  0  0  0  0  0  0
    6.5988    2.0714    0.1104 C   0  0  0  0  0  0  0  0  0  0  0  0
    6.9563   -1.4495   -0.1746 C   0  0  0  0  0  0  0  0  0  0  0  0
    1.3907   -0.3192    0.0720 C   0  0  0  0  0  0  0  0  0  0  0  0
   -7.0599    0.0946   -0.9611 C   0  0  0  0  0  0  0  0  0  0  0  0
   -7.0125   -0.0562    1.4496 C   0  0  0  0  0  0  0  0  0  0  0  0
   -0.9468   -0.6419    0.0921 C   0  0  0  0  0  0  0  0  0  0  0  0
   -7.7294   -0.0574    0.2531 C   0  0  0  0  0  0  0  0  0  0  0  0
   -3.1780    1.0476   -0.6417 H   0  0  0  0  0  0  0  0  0  0  0  0
   -3.1505    0.9324    1.1125 H   0  0  0  0  0  0  0  0  0  0  0  0
    4.9697   -2.3573   -0.1817 H   0  0  0  0  0  0  0  0  0  0  0  0
   -5.0800    0.0952    2.3716 H   0  0  0  0  0  0  0  0  0  0  0  0
    6.1477    2.6106   -0.7283 H   0  0  0  0  0  0  0  0  0  0  0  0
    7.6738    2.2783    0.0998 H   0  0  0  0  0  0  0  0  0  0  0  0
    6.1914    2.4751    1.0424 H   0  0  0  0  0  0  0  0  0  0  0  0
    2.9949   -1.5106   -0.0351 H   0  0  0  0  0  0  0  0  0  0  0  0
    7.7124   -2.2165   -0.2582 H   0  0  0  0  0  0  0  0  0  0  0  0
   -7.6178    0.0939   -1.8929 H   0  0  0  0  0  0  0  0  0  0  0  0
   -7.5337   -0.1750    2.3950 H   0  0  0  0  0  0  0  0  0  0  0  0
   -8.8088   -0.1769    0.2669 H   0  0  0  0  0  0  0  0  0  0  0  0
  1 12  1  0  0  0  0
  1 22  1  0  0  0  0
  2 19  1  0  0  0  0
  2 22  1  0  0  0  0
  3 15  1  0  0  0  0
  4 11  1  0  0  0  0
  4 18  1  0  0  0  0
  5 13  2  0  0  0  0
  6 13  1  0  0  0  0
  6 19  1  0  0  0  0
  6 31  1  0  0  0  0
  7  8  1  0  0  0  0
  7 19  2  0  0  0  0
  8 22  2  0  0  0  0
  9 11  2  0  0  0  0
  9 13  1  0  0  0  0
  9 14  1  0  0  0  0
 10 12  1  0  0  0  0
 10 15  1  0  0  0  0
 10 16  2  0  0  0  0
 11 17  1  0  0  0  0
 12 24  1  0  0  0  0
 12 25  1  0  0  0  0
 14 18  2  0  0  0  0
 14 26  1  0  0  0  0
 15 20  2  0  0  0  0
 16 21  1  0  0  0  0
 16 27  1  0  0  0  0
 17 28  1  0  0  0  0
 17 29  1  0  0  0  0
 17 30  1  0  0  0  0
 18 32  1  0  0  0  0
 20 23  1  0  0  0  0
 20 33  1  0  0  0  0
 21 23  2  0  0  0  0
 21 34  1  0  0  0  0
 23 35  1  0  0  0  0
M  END
> <PUBCHEM_COMPOUND_CID>
17396162

> <PUBCHEM_CONFORMER_RMSD>
0.8

> <PUBCHEM_CONFORMER_DIVERSEORDER>
1
160
154
304
50
393
226
104
397
39
291
377
132
105
363
82
266
410
13
272
308
404
382
207
381
150
265
8
140
10
276
388
237
48
368
421
122
159
297
380
62
413
358
329
356
4
332
379
364
218
347
333
392
367
23
383
287
72
422
312
91
311
341
93
273
26
352
327
213
269
399
44
416
210
166
418
230
25
406
121
65
403
248
224
113
232
196
231
366
53
395
271
209
302
12
353
290
30
118
415
188
338
384
350
245
343
211
317
2
203
328
219
295
405
280
74
200
89
254
220
112
114
313
47
168
238
191
195
310
420
355
336
124
149
277
88
321
386
172
35
370
77
349
78
76
267
141
135
60
369
228
138
111
41
20
162
307
251
42
303
173
106
331
294
342
152
299
306
243
75
281
330
289
285
296
139
153
378
38
234
262
411
18
204
385
185
274
134
133
260
49
128
359
33
236
246
253
64
283
129
247
83
298
315
357
127
263
407
43
205
293
309
249
31
96
136
387
11
157
408
373
278
286
264
116
216
344
165
130
131
176
179
102
109
354
164
389
156
190
194
322
143
301
71
316
300
214
184
192
51
183
225
125
233
255
171
68
221
202
161
348
324
206
362
337
241
223
98
155
412
59
239
123
178
147
314
120
29
345
19
252
186
334
391
181
108
371
174
85
146
227
409
361
56
52
95
97
117
351
163
40
180
325
63
100
54
390
244
70
103
36
84
187
170
400
376
57
275
282
99
268
270
9
193
55
201
142
169
208
137
318
175
222
126
396
34
398
284
58
37
288
335
257
261
167
319
279
73
67
177
242
28
305
256
402
372
22
339
46
21
86
229
107
119
394
419
182
250
92
258
197
360
90
212
6
148
61
365
189
27
417
144
80
215
320
326
14
158
81
87
3
375
414
346
94
101
24
323
15
235
115
110
340
259
217
5
374
401
32
7
145
240
292
198
16
151
69
66
17
79
199
45

> <PUBCHEM_MMFF94_PARTIAL_CHARGES>
30
1 -0.29
10 -0.14
11 -0.04
12 0.37
13 0.72
14 -0.15
15 0.19
16 -0.15
17 0.18
18 -0.01
19 0.44
2 -0.08
20 -0.15
21 -0.15
22 0.43
23 -0.15
26 0.15
27 0.15
3 -0.19
31 0.37
32 0.15
33 0.15
34 0.15
35 0.15
4 -0.28
5 -0.57
6 -0.49
7 -0.34
8 -0.34
9 -0.09

> <PUBCHEM_EFFECTIVE_ROTOR_COUNT>
6

> <PUBCHEM_PHARMACOPHORE_FEATURES>
7
1 4 acceptor
1 5 acceptor
1 6 donor
1 8 acceptor
5 2 7 8 19 22 rings
5 4 9 11 14 18 rings
6 10 15 16 20 21 23 rings

> <PUBCHEM_HEAVY_ATOM_COUNT>
23

> <PUBCHEM_ATOM_DEF_STEREO_COUNT>
0

> <PUBCHEM_ATOM_UDEF_STEREO_COUNT>
0

> <PUBCHEM_BOND_DEF_STEREO_COUNT>
0

> <PUBCHEM_BOND_UDEF_STEREO_COUNT>
0

> <PUBCHEM_ISOTOPIC_ATOM_COUNT>
0

> <PUBCHEM_COMPONENT_COUNT>
1

> <PUBCHEM_CACTVS_TAUTO_COUNT>
3

> <PUBCHEM_CONFORMER_ID>
010971C200000001

> <PUBCHEM_MMFF94_ENERGY>
33.5504

> <PUBCHEM_FEATURE_SELFOVERLAP>
35.52

> <PUBCHEM_SHAPE_FINGERPRINT>
10 15 17560802100104250080
10299344 5 17603304856005137991
10835480 77 18263928748628942080
11089746 13 17458063754931855075
11315181 36 17313104138696341163
12091667 2 17489587857961427499
12236239 1 17603304860099658123
12516196 113 14117518735851694614
13533116 47 17822009856949178242
14123256 10 18409730672987133449
14170010 4 18342457028673093676
14251764 18 17822008705148447513
14251764 46 17489585666779007315
14849402 71 17968657112202107721
14856354 85 16298107562942563117
14933364 13 18060137639157233959
15119646 104 17530681052213239558
15183329 4 18333453148758036010
15419008 47 17703795816527646869
15716309 27 17967532389363378601
15849732 13 17847058878464062519
20157964 124 18335137597036418406
20281389 69 18272934920679448364
21150785 3 17748829605240239335
21521721 280 18335700524966234450
22224240 67 17989487403076639859
23035841 295 16660647358404208143
23081809 10 17675925395511563906
23536379 177 16081085995894736311
23559900 14 18189060810726987584
255183 451 17461143625554065998
2838139 119 18259705597132841129
328311 84 18201716266872217202
335352 9 18408319974062760894
3545911 37 18202282507108054371
397830 11 17559661841926636641
4073 2 18129657496477695090
4325135 7 17749108907153285277
5758199 1 17967812751927949971
8209 1 18410573993741392235

> <PUBCHEM_SHAPE_MULTIPOLES>
447.07
25.74
1.44
1.03
0.62
0.02
0.17
2.64
0.05
-2.88
-0.02
2.47
0.08
0.34

> <PUBCHEM_SHAPE_SELFOVERLAP>
936.672

> <PUBCHEM_SHAPE_VOLUME>
256.1

> <PUBCHEM_COORDINATE_TYPE>
2
5
10

$$$$

