12933
  -OEChem-06261207332D

 41 43  0     1  0  0  0  0  0999 V2000
    8.0712    0.8285    0.0000 Cl  0  0  0  0  0  0  0  0  0  0  0  0
    4.5411   -1.1957    0.0000 S   0  0  0  0  0  0  0  0  0  0  0  0
    8.0712   -1.2198    0.0000 S   0  0  0  0  0  0  0  0  0  0  0  0
    4.0411   -2.0617    0.0000 O   0  0  0  0  0  0  0  0  0  0  0  0
    5.0411   -2.0617    0.0000 O   0  0  0  0  0  0  0  0  0  0  0  0
    8.9314   -2.7232    0.0000 O   0  0  0  0  0  0  0  0  0  0  0  0
    7.1994   -2.7165    0.0000 O   0  0  0  0  0  0  0  0  0  0  0  0
    3.6750   -0.6957    0.0000 N   0  0  0  0  0  0  0  0  0  0  0  0
    4.5411    0.8043    0.0000 N   0  0  0  0  0  0  0  0  0  0  0  0
    8.0673   -2.2198    0.0000 N   0  0  0  0  0  0  0  0  0  0  0  0
    2.8090    1.8043    0.0000 C   0  0  0  0  0  0  0  0  0  0  0  0
    3.6180    2.3921    0.0000 C   0  0  0  0  0  0  0  0  0  0  0  0
    2.0000    2.3921    0.0000 C   0  0  0  0  0  0  0  0  0  0  0  0
    2.8090    0.8043    0.0000 C   0  0  0  0  0  0  0  0  0  0  0  0
    2.3090    3.3432    0.0000 C   0  0  0  0  0  0  0  0  0  0  0  0
    3.3090    3.3432    0.0000 C   0  0  0  0  0  0  0  0  0  0  0  0
    3.6750    0.3043    0.0000 C   0  0  3  0  0  0  0  0  0  0  0  0
    5.4071    0.3043    0.0000 C   0  0  0  0  0  0  0  0  0  0  0  0
    5.4071   -0.6957    0.0000 C   0  0  0  0  0  0  0  0  0  0  0  0
    6.3010    0.8390    0.0000 C   0  0  0  0  0  0  0  0  0  0  0  0
    6.3010   -1.2304    0.0000 C   0  0  0  0  0  0  0  0  0  0  0  0
    7.2071   -0.7165    0.0000 C   0  0  0  0  0  0  0  0  0  0  0  0
    7.2071    0.3251    0.0000 C   0  0  0  0  0  0  0  0  0  0  0  0
    3.3614    1.5228    0.0000 H   0  0  0  0  0  0  0  0  0  0  0  0
    3.9280    1.8552    0.0000 H   0  0  0  0  0  0  0  0  0  0  0  0
    4.1844    2.6443    0.0000 H   0  0  0  0  0  0  0  0  0  0  0  0
    1.4336    2.6443    0.0000 H   0  0  0  0  0  0  0  0  0  0  0  0
    1.6900    1.8552    0.0000 H   0  0  0  0  0  0  0  0  0  0  0  0
    2.1984    0.9120    0.0000 H   0  0  0  0  0  0  0  0  0  0  0  0
    2.5970    0.2217    0.0000 H   0  0  0  0  0  0  0  0  0  0  0  0
    3.9155    3.4721    0.0000 H   0  0  0  0  0  0  0  0  0  0  0  0
    3.2442    3.9598    0.0000 H   0  0  0  0  0  0  0  0  0  0  0  0
    2.3738    3.9598    0.0000 H   0  0  0  0  0  0  0  0  0  0  0  0
    1.7026    3.4721    0.0000 H   0  0  0  0  0  0  0  0  0  0  0  0
    3.1381   -0.0057    0.0000 H   0  0  0  0  0  0  0  0  0  0  0  0
    3.1381   -1.0057    0.0000 H   0  0  0  0  0  0  0  0  0  0  0  0
    4.5411    1.4243    0.0000 H   0  0  0  0  0  0  0  0  0  0  0  0
    6.2939    1.4589    0.0000 H   0  0  0  0  0  0  0  0  0  0  0  0
    6.2939   -1.8503    0.0000 H   0  0  0  0  0  0  0  0  0  0  0  0
    8.9290   -3.3432    0.0000 H   0  0  0  0  0  0  0  0  0  0  0  0
    7.1970   -3.3365    0.0000 H   0  0  0  0  0  0  0  0  0  0  0  0
  1 23  1  0  0  0  0
  2  4  2  0  0  0  0
  2  5  2  0  0  0  0
  2  8  1  0  0  0  0
  2 19  1  0  0  0  0
  3 10  1  0  0  0  0
  3 22  1  0  0  0  0
  6 10  1  0  0  0  0
  6 40  1  0  0  0  0
  7 10  1  0  0  0  0
  7 41  1  0  0  0  0
  8 17  1  0  0  0  0
  8 36  1  0  0  0  0
  9 17  1  0  0  0  0
  9 18  1  0  0  0  0
  9 37  1  0  0  0  0
 11 12  1  0  0  0  0
 11 13  1  0  0  0  0
 11 14  1  0  0  0  0
 11 24  1  0  0  0  0
 12 16  1  0  0  0  0
 12 25  1  0  0  0  0
 12 26  1  0  0  0  0
 13 15  1  0  0  0  0
 13 27  1  0  0  0  0
 13 28  1  0  0  0  0
 14 17  1  0  0  0  0
 14 29  1  0  0  0  0
 14 30  1  0  0  0  0
 15 16  1  0  0  0  0
 15 33  1  0  0  0  0
 15 34  1  0  0  0  0
 16 31  1  0  0  0  0
 16 32  1  0  0  0  0
 17 35  1  0  0  0  0
 18 19  1  0  0  0  0
 18 20  2  0  0  0  0
 19 21  2  0  0  0  0
 20 23  1  0  0  0  0
 20 38  1  0  0  0  0
 21 22  1  0  0  0  0
 21 39  1  0  0  0  0
 22 23  2  0  0  0  0
M  END
> <PUBCHEM_COMPOUND_CID>
12933

> <PUBCHEM_COMPOUND_CANONICALIZED>
1

> <PUBCHEM_CACTVS_COMPLEXITY>
510

> <PUBCHEM_CACTVS_HBOND_ACCEPTOR>
8

> <PUBCHEM_CACTVS_HBOND_DONOR>
4

> <PUBCHEM_CACTVS_ROTATABLE_BOND>
4

> <PUBCHEM_CACTVS_SUBSKEYS>
AAADceBzOABkAAAAAAAAAAAAAAAAAYAAAAA8QAAAAAAAAACxAAAAHAYUSAAADQrBUCQxwYLAQAKAACRCQHDCABAhBwAAiJwIZoiIICLBkpGEIAhgkALIyCcQgAAOAAYAAEIAAYAADAAAhAADAAAAAAAAAA==

> <PUBCHEM_IUPAC_OPENEYE_NAME>
6-chloro-3-(cyclopentylmethyl)-7-(dihydroxyamino)sulfanyl-1,1-dioxo-3,4-dihydro-2H-1$l^{6},2,4-benzothiadiazine

> <PUBCHEM_IUPAC_CAS_NAME>
6-chloro-3-(cyclopentylmethyl)-N,N-dihydroxy-1,1-dioxo-3,4-dihydro-2H-1$l^{6},2,4-benzothiadiazine-7-sulfenamide

> <PUBCHEM_IUPAC_NAME>
6-chloro-3-(cyclopentylmethyl)-7-(dihydroxyamino)sulfanyl-1,1-dioxo-3,4-dihydro-2H-1$l^{6},2,4-benzothiadiazine

> <PUBCHEM_IUPAC_SYSTEMATIC_NAME>
7-[bis(oxidanyl)amino]sulfanyl-6-chloranyl-3-(cyclopentylmethyl)-1,1-bis(oxidanylidene)-3,4-dihydro-2H-1$l^{6},2,4-benzothiadiazine

> <PUBCHEM_IUPAC_TRADITIONAL_NAME>
[[6-chloro-3-(cyclopentylmethyl)-1,1-diketo-3,4-dihydro-2H-1$l^{6},2,4-benzothiadiazin-7-yl]thio]-dihydroxy-amine

> <PUBCHEM_IUPAC_INCHI>
InChI=1S/C13H18ClN3O4S2/c14-9-6-10-12(7-11(9)22-17(18)19)23(20,21)16-13(15-10)5-8-3-1-2-4-8/h6-8,13,15-16,18-19H,1-5H2

> <PUBCHEM_IUPAC_INCHIKEY>
KRRFMYCPDHUCNJ-UHFFFAOYSA-N

> <PUBCHEM_XLOGP3>
2.1

> <PUBCHEM_EXACT_MASS>
379.042726

> <PUBCHEM_MOLECULAR_FORMULA>
C13H18ClN3O4S2

> <PUBCHEM_MOLECULAR_WEIGHT>
379.88272

> <PUBCHEM_OPENEYE_CAN_SMILES>
C1CCC(C1)CC2NC3=CC(=C(C=C3S(=O)(=O)N2)SN(O)O)Cl

> <PUBCHEM_OPENEYE_ISO_SMILES>
C1CCC(C1)CC2NC3=CC(=C(C=C3S(=O)(=O)N2)SN(O)O)Cl

> <PUBCHEM_CACTVS_TPSA>
136

> <PUBCHEM_MONOISOTOPIC_WEIGHT>
379.042726

> <PUBCHEM_TOTAL_CHARGE>
0

> <PUBCHEM_HEAVY_ATOM_COUNT>
23

> <PUBCHEM_ATOM_DEF_STEREO_COUNT>
0

> <PUBCHEM_ATOM_UDEF_STEREO_COUNT>
1

> <PUBCHEM_BOND_DEF_STEREO_COUNT>
0

> <PUBCHEM_BOND_UDEF_STEREO_COUNT>
0

> <PUBCHEM_ISOTOPIC_ATOM_COUNT>
0

> <PUBCHEM_COMPONENT_COUNT>
1

> <PUBCHEM_CACTVS_TAUTO_COUNT>
1

> <PUBCHEM_COORDINATE_TYPE>
1
5
255

> <PUBCHEM_BONDANNOTATIONS>
17  14  3
18  19  8
18  20  8
19  21  8
20  23  8
21  22  8
22  23  8

$$$$

