442353
  -OEChem-07051212573D

 39 40  0     1  0  0  0  0  0999 V2000
    0.1776    0.2649   -0.0587 C   0  0  1  0  0  0  0  0  0  0  0  0
    1.6352    0.9331   -0.0147 C   0  0  0  0  0  0  0  0  0  0  0  0
    2.6069    0.0915    0.8675 C   0  0  0  0  0  0  0  0  0  0  0  0
   -0.5283    0.3381    1.3338 C   0  0  0  0  0  0  0  0  0  0  0  0
   -0.7609    1.0491   -1.0440 C   0  0  0  0  0  0  0  0  0  0  0  0
    0.3646   -1.2295   -0.4534 C   0  0  0  0  0  0  0  0  0  0  0  0
    2.6827   -1.3802    0.4727 C   0  0  0  0  0  0  0  0  0  0  0  0
    1.3051   -2.0246    0.4267 C   0  0  0  0  0  0  0  0  0  0  0  0
    1.6375    2.3628    0.5835 C   0  0  0  0  0  0  0  0  0  0  0  0
    2.2392    1.0518   -1.4393 C   0  0  0  0  0  0  0  0  0  0  0  0
   -1.9290   -0.2916    1.3372 C   0  0  0  0  0  0  0  0  0  0  0  0
   -2.2306    0.7497   -0.9025 C   0  0  0  0  0  0  0  0  0  0  0  0
   -2.7675    0.1253    0.1587 C   0  0  0  0  0  0  0  0  0  0  0  0
   -0.2020   -1.8469   -1.5056 C   0  0  0  0  0  0  0  0  0  0  0  0
   -4.2306   -0.1933    0.2382 C   0  0  0  0  0  0  0  0  0  0  0  0
    2.3047    0.1557    1.9205 H   0  0  0  0  0  0  0  0  0  0  0  0
    3.6184    0.5164    0.8238 H   0  0  0  0  0  0  0  0  0  0  0  0
   -0.6459    1.3889    1.6292 H   0  0  0  0  0  0  0  0  0  0  0  0
    0.0672   -0.1281    2.1256 H   0  0  0  0  0  0  0  0  0  0  0  0
   -0.4676    0.8632   -2.0840 H   0  0  0  0  0  0  0  0  0  0  0  0
   -0.6604    2.1293   -0.8963 H   0  0  0  0  0  0  0  0  0  0  0  0
    3.3120   -1.9170    1.1924 H   0  0  0  0  0  0  0  0  0  0  0  0
    3.1749   -1.4814   -0.5021 H   0  0  0  0  0  0  0  0  0  0  0  0
    0.8905   -2.1021    1.4380 H   0  0  0  0  0  0  0  0  0  0  0  0
    1.4143   -3.0565    0.0702 H   0  0  0  0  0  0  0  0  0  0  0  0
    0.9987    3.0514    0.0244 H   0  0  0  0  0  0  0  0  0  0  0  0
    1.3154    2.3706    1.6294 H   0  0  0  0  0  0  0  0  0  0  0  0
    2.6490    2.7875    0.5657 H   0  0  0  0  0  0  0  0  0  0  0  0
    2.2352    0.0994   -1.9775 H   0  0  0  0  0  0  0  0  0  0  0  0
    1.6907    1.7785   -2.0480 H   0  0  0  0  0  0  0  0  0  0  0  0
    3.2794    1.3960   -1.3963 H   0  0  0  0  0  0  0  0  0  0  0  0
   -2.4316    0.0021    2.2670 H   0  0  0  0  0  0  0  0  0  0  0  0
   -1.8510   -1.3852    1.3521 H   0  0  0  0  0  0  0  0  0  0  0  0
   -2.8676    1.0594   -1.7270 H   0  0  0  0  0  0  0  0  0  0  0  0
   -0.8705   -1.3505   -2.1966 H   0  0  0  0  0  0  0  0  0  0  0  0
   -0.0042   -2.8943   -1.7129 H   0  0  0  0  0  0  0  0  0  0  0  0
   -4.3773   -1.2725    0.3496 H   0  0  0  0  0  0  0  0  0  0  0  0
   -4.7722    0.1258   -0.6584 H   0  0  0  0  0  0  0  0  0  0  0  0
   -4.6833    0.3101    1.0984 H   0  0  0  0  0  0  0  0  0  0  0  0
  1  2  1  0  0  0  0
  1  4  1  0  0  0  0
  1  5  1  0  0  0  0
  1  6  1  0  0  0  0
  2  3  1  0  0  0  0
  2  9  1  0  0  0  0
  2 10  1  0  0  0  0
  3  7  1  0  0  0  0
  3 16  1  0  0  0  0
  3 17  1  0  0  0  0
  4 11  1  0  0  0  0
  4 18  1  0  0  0  0
  4 19  1  0  0  0  0
  5 12  1  0  0  0  0
  5 20  1  0  0  0  0
  5 21  1  0  0  0  0
  6  8  1  0  0  0  0
  6 14  2  0  0  0  0
  7  8  1  0  0  0  0
  7 22  1  0  0  0  0
  7 23  1  0  0  0  0
  8 24  1  0  0  0  0
  8 25  1  0  0  0  0
  9 26  1  0  0  0  0
  9 27  1  0  0  0  0
  9 28  1  0  0  0  0
 10 29  1  0  0  0  0
 10 30  1  0  0  0  0
 10 31  1  0  0  0  0
 11 13  1  0  0  0  0
 11 32  1  0  0  0  0
 11 33  1  0  0  0  0
 12 13  2  0  0  0  0
 12 34  1  0  0  0  0
 13 15  1  0  0  0  0
 14 35  1  0  0  0  0
 14 36  1  0  0  0  0
 15 37  1  0  0  0  0
 15 38  1  0  0  0  0
 15 39  1  0  0  0  0
M  END
> <PUBCHEM_COMPOUND_CID>
442353

> <PUBCHEM_CONFORMER_RMSD>
0.6

> <PUBCHEM_CONFORMER_DIVERSEORDER>
3
2
4
1

> <PUBCHEM_MMFF94_PARTIAL_CHARGES>
12
1 0.14
11 0.14
12 -0.29
13 -0.28
14 -0.3
15 0.14
34 0.15
35 0.15
36 0.15
5 0.14
6 -0.28
8 0.14

> <PUBCHEM_EFFECTIVE_ROTOR_COUNT>
1.4

> <PUBCHEM_PHARMACOPHORE_FEATURES>
3
3 2 9 10 hydrophobe
6 1 2 3 6 7 8 rings
6 1 4 5 11 12 13 rings

> <PUBCHEM_HEAVY_ATOM_COUNT>
15

> <PUBCHEM_ATOM_DEF_STEREO_COUNT>
1

> <PUBCHEM_ATOM_UDEF_STEREO_COUNT>
0

> <PUBCHEM_BOND_DEF_STEREO_COUNT>
0

> <PUBCHEM_BOND_UDEF_STEREO_COUNT>
0

> <PUBCHEM_ISOTOPIC_ATOM_COUNT>
0

> <PUBCHEM_COMPONENT_COUNT>
1

> <PUBCHEM_CACTVS_TAUTO_COUNT>
1

> <PUBCHEM_CONFORMER_ID>
0006BFF100000003

> <PUBCHEM_MMFF94_ENERGY>
37.8481

> <PUBCHEM_FEATURE_SELFOVERLAP>
15.224

> <PUBCHEM_SHAPE_FINGERPRINT>
10219947 1 18261961850394952746
10863032 1 17274242977394853788
11471102 22 18412265064173601427
12326174 3 18264753506254784102
12423570 1 7397426666010408268
13134695 92 18195828446487677628
13172582 1 18259992577919794302
13538477 17 17676777461278303111
14142880 1 17108773954763679089
14617773 55 17681859313827752814
14817 1 7773126920178058694
14993402 34 18260263070944775454
15219456 202 18130511915537793773
15490181 7 18265054622032549820
15775835 57 18337108956237733860
15881359 60 18056228866772812134
16945 1 18412271639705234395
17990270 104 18129381656070217154
18175812 5 18201436939668895505
18186145 218 17894910698521095197
20201158 50 18131069389249702827
20511035 2 18272378589344515924
20645477 70 18411984689457975047
21501502 16 18129371760539751589
22344851 341 17900267403154404602
23402539 116 17917724491403438527
23419403 2 17768006286430107692
23559900 14 17346319327602657138
2748010 2 18127117572702910410
276578 36 18334572404297509808
3060560 45 18113890563816537573
3286 77 18411142437253585665
5084963 1 18060706116723340533
528862 383 18335707151800195387
5337951 7 17846495954380418152
77492 1 17240774985917332417
81228 2 17257088165034299370

> <PUBCHEM_SHAPE_MULTIPOLES>
308.69
4.71
1.98
1.39
3.77
0.15
-0.17
-0.13
0.66
-1.39
-0.19
-0.02
0.02
-0.08

> <PUBCHEM_SHAPE_SELFOVERLAP>
630.822

> <PUBCHEM_SHAPE_VOLUME>
178.1

> <PUBCHEM_COORDINATE_TYPE>
2
5
10

$$$$

