54675773
  -OEChem-07051212502D

 25 25  0     0  0  0  0  0  0999 V2000
    5.1350    1.0950    0.0000 O   0  0  0  0  0  0  0  0  0  0  0  0
    6.8671   -1.9050    0.0000 O   0  0  0  0  0  0  0  0  0  0  0  0
    7.7331    2.5950    0.0000 O   0  0  0  0  0  0  0  0  0  0  0  0
    8.5991    1.0950    0.0000 O   0  0  0  0  0  0  0  0  0  0  0  0
    2.5369   -1.4050    0.0000 O   0  0  0  0  0  0  0  0  0  0  0  0
    3.4030   -2.9050    0.0000 O   0  0  0  0  0  0  0  0  0  0  0  0
    5.1350   -1.9050    0.0000 N   0  0  0  0  0  0  0  0  0  0  0  0
    6.8671    0.0950    0.0000 C   0  0  0  0  0  0  0  0  0  0  0  0
    6.0010   -0.4050    0.0000 C   0  0  0  0  0  0  0  0  0  0  0  0
    6.8671    1.0950    0.0000 C   0  0  0  0  0  0  0  0  0  0  0  0
    5.1350    0.0950    0.0000 C   0  0  0  0  0  0  0  0  0  0  0  0
    6.0010   -1.4050    0.0000 C   0  0  0  0  0  0  0  0  0  0  0  0
    4.2690   -0.4050    0.0000 C   0  0  0  0  0  0  0  0  0  0  0  0
    4.2690   -1.4050    0.0000 C   0  0  0  0  0  0  0  0  0  0  0  0
    7.7331    1.5950    0.0000 C   0  0  0  0  0  0  0  0  0  0  0  0
    3.4030   -1.9050    0.0000 C   0  0  0  0  0  0  0  0  0  0  0  0
    7.0791   -0.4876    0.0000 H   0  0  0  0  0  0  0  0  0  0  0  0
    7.4776    0.2027    0.0000 H   0  0  0  0  0  0  0  0  0  0  0  0
    6.6550    1.6776    0.0000 H   0  0  0  0  0  0  0  0  0  0  0  0
    6.2565    0.9873    0.0000 H   0  0  0  0  0  0  0  0  0  0  0  0
    3.7320   -0.0950    0.0000 H   0  0  0  0  0  0  0  0  0  0  0  0
    5.1350   -2.5250    0.0000 H   0  0  0  0  0  0  0  0  0  0  0  0
    4.5981    1.4050    0.0000 H   0  0  0  0  0  0  0  0  0  0  0  0
    8.2700    2.9050    0.0000 H   0  0  0  0  0  0  0  0  0  0  0  0
    2.0000   -1.7150    0.0000 H   0  0  0  0  0  0  0  0  0  0  0  0
  1 11  1  0  0  0  0
  1 23  1  0  0  0  0
  2 12  2  0  0  0  0
  3 15  1  0  0  0  0
  3 24  1  0  0  0  0
  4 15  2  0  0  0  0
  5 16  1  0  0  0  0
  5 25  1  0  0  0  0
  6 16  2  0  0  0  0
  7 12  1  0  0  0  0
  7 14  1  0  0  0  0
  7 22  1  0  0  0  0
  8  9  1  0  0  0  0
  8 10  1  0  0  0  0
  8 17  1  0  0  0  0
  8 18  1  0  0  0  0
  9 11  2  0  0  0  0
  9 12  1  0  0  0  0
 10 15  1  0  0  0  0
 10 19  1  0  0  0  0
 10 20  1  0  0  0  0
 11 13  1  0  0  0  0
 13 14  2  0  0  0  0
 13 21  1  0  0  0  0
 14 16  1  0  0  0  0
M  END
> <PUBCHEM_COMPOUND_CID>
54675773

> <PUBCHEM_COMPOUND_CANONICALIZED>
1

> <PUBCHEM_CACTVS_COMPLEXITY>
420

> <PUBCHEM_CACTVS_HBOND_ACCEPTOR>
6

> <PUBCHEM_CACTVS_HBOND_DONOR>
4

> <PUBCHEM_CACTVS_ROTATABLE_BOND>
4

> <PUBCHEM_CACTVS_SUBSKEYS>
AAADccByOAAAAAAAAAAAAAAAAAAAAAAAAAAgAAAAAAAAAAAAAAAAHgAQCAAADAyBgAAACALAAgCIAiXSWACAAAAgIgAACAGAAEgKBBIAgCAEUAAEhACYkYKYFwIAAAAAAAAAAAAAAAAAAAAAAAAAAAAAAA==

> <PUBCHEM_IUPAC_OPENEYE_NAME>
5-(2-carboxyethyl)-4-hydroxy-6-oxo-1H-pyridine-2-carboxylic acid

> <PUBCHEM_IUPAC_CAS_NAME>
5-(2-carboxyethyl)-4-hydroxy-6-oxo-1H-pyridine-2-carboxylic acid

> <PUBCHEM_IUPAC_NAME>
5-(2-carboxyethyl)-4-hydroxy-6-oxo-1H-pyridine-2-carboxylic acid

> <PUBCHEM_IUPAC_SYSTEMATIC_NAME>
5-(3-hydroxy-3-oxopropyl)-4-oxidanyl-6-oxidanylidene-1H-pyridine-2-carboxylic acid

> <PUBCHEM_IUPAC_TRADITIONAL_NAME>
5-(2-carboxyethyl)-4-hydroxy-6-keto-1H-pyridine-2-carboxylic acid

> <PUBCHEM_IUPAC_INCHI>
InChI=1S/C9H9NO6/c11-6-3-5(9(15)16)10-8(14)4(6)1-2-7(12)13/h3H,1-2H2,(H,12,13)(H,15,16)(H2,10,11,14)

> <PUBCHEM_IUPAC_INCHIKEY>
MEACACCQPBWCOO-UHFFFAOYSA-N

> <PUBCHEM_XLOGP3_AA>
-0.9

> <PUBCHEM_EXACT_MASS>
227.042987

> <PUBCHEM_MOLECULAR_FORMULA>
C9H9NO6

> <PUBCHEM_MOLECULAR_WEIGHT>
227.17086

> <PUBCHEM_OPENEYE_CAN_SMILES>
C1=C(NC(=O)C(=C1O)CCC(=O)O)C(=O)O

> <PUBCHEM_OPENEYE_ISO_SMILES>
C1=C(NC(=O)C(=C1O)CCC(=O)O)C(=O)O

> <PUBCHEM_CACTVS_TPSA>
124

> <PUBCHEM_MONOISOTOPIC_WEIGHT>
227.042987

> <PUBCHEM_TOTAL_CHARGE>
0

> <PUBCHEM_HEAVY_ATOM_COUNT>
16

> <PUBCHEM_ATOM_DEF_STEREO_COUNT>
0

> <PUBCHEM_ATOM_UDEF_STEREO_COUNT>
0

> <PUBCHEM_BOND_DEF_STEREO_COUNT>
0

> <PUBCHEM_BOND_UDEF_STEREO_COUNT>
0

> <PUBCHEM_ISOTOPIC_ATOM_COUNT>
0

> <PUBCHEM_COMPONENT_COUNT>
1

> <PUBCHEM_CACTVS_TAUTO_COUNT>
50

> <PUBCHEM_COORDINATE_TYPE>
1
5
255

> <PUBCHEM_BONDANNOTATIONS>
11  13  8
13  14  8
7  12  8
7  14  8
9  11  8
9  12  8

$$$$

