5281676
  -OEChem-07051212583D

 42 44  0     0  0  0  0  0  0999 V2000
   -0.5582    0.7277    0.0125 O   0  0  0  0  0  0  0  0  0  0  0  0
    0.6086   -2.7622    0.2293 O   0  0  0  0  0  0  0  0  0  0  0  0
   -4.8536    2.7345   -0.2194 O   0  0  0  0  0  0  0  0  0  0  0  0
   -4.5645   -1.9994    0.0065 O   0  0  0  0  0  0  0  0  0  0  0  0
   -2.1596   -3.0172    0.1386 O   0  0  0  0  0  0  0  0  0  0  0  0
    1.6802    0.0665    2.5132 O   0  0  0  0  0  0  0  0  0  0  0  0
    5.7398    0.8149    0.1521 O   0  0  0  0  0  0  0  0  0  0  0  0
    4.4282    0.3764   -2.2590 O   0  0  0  0  0  0  0  0  0  0  0  0
   -2.5276   -0.6911    0.0123 C   0  0  0  0  0  0  0  0  0  0  0  0
    0.2446   -0.4001    0.0790 C   0  0  0  0  0  0  0  0  0  0  0  0
   -1.9184    0.5612   -0.0252 C   0  0  0  0  0  0  0  0  0  0  0  0
    1.6828   -0.0806    0.1142 C   0  0  0  0  0  0  0  0  0  0  0  0
   -0.2168   -1.6630    0.1301 C   0  0  0  0  0  0  0  0  0  0  0  0
   -1.6815   -1.8914    0.0967 C   0  0  0  0  0  0  0  0  0  0  0  0
   -3.9199   -0.8001   -0.0278 C   0  0  0  0  0  0  0  0  0  0  0  0
   -2.6990    1.7148   -0.1027 C   0  0  0  0  0  0  0  0  0  0  0  0
    2.3440    0.1398    1.3243 C   0  0  0  0  0  0  0  0  0  0  0  0
    2.3892    0.0009   -1.0874 C   0  0  0  0  0  0  0  0  0  0  0  0
   -4.0895    1.6103   -0.1434 C   0  0  0  0  0  0  0  0  0  0  0  0
   -4.6984    0.3553   -0.1061 C   0  0  0  0  0  0  0  0  0  0  0  0
    3.7513    0.3016   -1.0790 C   0  0  0  0  0  0  0  0  0  0  0  0
    3.7061    0.4406    1.3324 C   0  0  0  0  0  0  0  0  0  0  0  0
    4.4097    0.5214    0.1309 C   0  0  0  0  0  0  0  0  0  0  0  0
    0.9688   -3.2385   -1.0533 C   0  0  0  0  0  0  0  0  0  0  0  0
   -4.1672    3.9846   -0.2539 C   0  0  0  0  0  0  0  0  0  0  0  0
    6.1006    2.1932    0.0851 C   0  0  0  0  0  0  0  0  0  0  0  0
   -2.1694    2.6615   -0.1284 H   0  0  0  0  0  0  0  0  0  0  0  0
    1.8843   -0.1576   -2.0380 H   0  0  0  0  0  0  0  0  0  0  0  0
   -5.7827    0.2796   -0.1378 H   0  0  0  0  0  0  0  0  0  0  0  0
    4.2265    0.6122    2.2716 H   0  0  0  0  0  0  0  0  0  0  0  0
   -3.9265   -2.7276    0.0555 H   0  0  0  0  0  0  0  0  0  0  0  0
    1.5597   -2.5167   -1.6202 H   0  0  0  0  0  0  0  0  0  0  0  0
    0.0846   -3.5290   -1.6318 H   0  0  0  0  0  0  0  0  0  0  0  0
    1.5839   -4.1337   -0.9184 H   0  0  0  0  0  0  0  0  0  0  0  0
    2.3027    0.2483    3.2380 H   0  0  0  0  0  0  0  0  0  0  0  0
    5.3652    0.5530   -2.0672 H   0  0  0  0  0  0  0  0  0  0  0  0
   -3.6017    4.1592    0.6678 H   0  0  0  0  0  0  0  0  0  0  0  0
   -4.9285    4.7694   -0.3144 H   0  0  0  0  0  0  0  0  0  0  0  0
   -3.5424    4.0765   -1.1488 H   0  0  0  0  0  0  0  0  0  0  0  0
    5.7264    2.7283    0.9636 H   0  0  0  0  0  0  0  0  0  0  0  0
    5.7109    2.6535   -0.8284 H   0  0  0  0  0  0  0  0  0  0  0  0
    7.1918    2.2613    0.0728 H   0  0  0  0  0  0  0  0  0  0  0  0
  1 10  1  0  0  0  0
  1 11  1  0  0  0  0
  2 13  1  0  0  0  0
  2 24  1  0  0  0  0
  3 19  1  0  0  0  0
  3 25  1  0  0  0  0
  4 15  1  0  0  0  0
  4 31  1  0  0  0  0
  5 14  2  0  0  0  0
  6 17  1  0  0  0  0
  6 35  1  0  0  0  0
  7 23  1  0  0  0  0
  7 26  1  0  0  0  0
  8 21  1  0  0  0  0
  8 36  1  0  0  0  0
  9 11  1  0  0  0  0
  9 14  1  0  0  0  0
  9 15  2  0  0  0  0
 10 12  1  0  0  0  0
 10 13  2  0  0  0  0
 11 16  2  0  0  0  0
 12 17  1  0  0  0  0
 12 18  2  0  0  0  0
 13 14  1  0  0  0  0
 15 20  1  0  0  0  0
 16 19  1  0  0  0  0
 16 27  1  0  0  0  0
 17 22  2  0  0  0  0
 18 21  1  0  0  0  0
 18 28  1  0  0  0  0
 19 20  2  0  0  0  0
 20 29  1  0  0  0  0
 21 23  2  0  0  0  0
 22 23  1  0  0  0  0
 22 30  1  0  0  0  0
 24 32  1  0  0  0  0
 24 33  1  0  0  0  0
 24 34  1  0  0  0  0
 25 37  1  0  0  0  0
 25 38  1  0  0  0  0
 25 39  1  0  0  0  0
 26 40  1  0  0  0  0
 26 41  1  0  0  0  0
 26 42  1  0  0  0  0
M  END
> <PUBCHEM_COMPOUND_CID>
5281676

> <PUBCHEM_CONFORMER_RMSD>
0.8

> <PUBCHEM_CONFORMER_DIVERSEORDER>
3
4
6
2
7
8
1
5

> <PUBCHEM_MMFF94_PARTIAL_CHARGES>
33
1 -0.16
10 0.05
11 0.08
12 0.03
13 0.09
14 0.47
15 0.08
16 -0.15
17 0.08
18 -0.15
19 0.08
2 -0.36
20 -0.15
21 0.08
22 -0.15
23 0.08
24 0.28
25 0.28
26 0.28
27 0.15
28 0.15
29 0.15
3 -0.36
30 0.15
31 0.45
35 0.45
36 0.45
4 -0.53
5 -0.57
6 -0.53
7 -0.36
8 -0.53
9 0.09

> <PUBCHEM_EFFECTIVE_ROTOR_COUNT>
4

> <PUBCHEM_PHARMACOPHORE_FEATURES>
11
1 1 acceptor
1 2 acceptor
1 3 acceptor
1 4 donor
1 5 acceptor
1 6 donor
1 7 acceptor
1 8 donor
6 1 9 10 11 13 14 rings
6 12 17 18 21 22 23 rings
6 9 11 15 16 19 20 rings

> <PUBCHEM_HEAVY_ATOM_COUNT>
26

> <PUBCHEM_ATOM_DEF_STEREO_COUNT>
0

> <PUBCHEM_ATOM_UDEF_STEREO_COUNT>
0

> <PUBCHEM_BOND_DEF_STEREO_COUNT>
0

> <PUBCHEM_BOND_UDEF_STEREO_COUNT>
0

> <PUBCHEM_ISOTOPIC_ATOM_COUNT>
0

> <PUBCHEM_COMPONENT_COUNT>
1

> <PUBCHEM_CACTVS_TAUTO_COUNT>
53

> <PUBCHEM_CONFORMER_ID>
0050978C00000003

> <PUBCHEM_MMFF94_ENERGY>
105.0157

> <PUBCHEM_FEATURE_SELFOVERLAP>
55.85

> <PUBCHEM_SHAPE_FINGERPRINT>
10411042 1 17762900961969723675
10498660 4 18336546113648354721
10615611 76 17488725831411532245
10670039 82 18342733056913855300
12107183 9 17983590868482954066
12236239 1 17775292625496351954
12390115 104 18262508304033364945
12403259 415 18334002909030213886
12633257 1 15338832050002973768
12788726 201 17341513160604758858
12916748 109 18340200800310042410
13140716 1 18053099524217002099
13540713 4 18267571589592089719
13540713 5 18195264406441043467
13911987 19 16588856855756395228
13965767 371 17845094154433467860
14251764 75 18046901860634438833
14341114 328 16988553606832544716
14739800 52 18269009600430107776
14790565 3 18412823569042379076
14848178 96 18048603908818082401
1601671 61 18342739649889231148
16752209 62 18339647732860435731
16988056 13 15750095964742959781
17980427 23 17989204824272001581
18608769 82 18336261267960742539
20511986 3 17703527544158720141
20645477 70 16732969947713761222
20691752 17 17274255187982231651
21033648 29 17968671431833497288
21033650 10 18269813403316187468
21279426 13 18189047758738249142
21792961 116 17821996585821701228
22122407 14 15985387789547537461
22149856 69 18052517054381675393
22393880 68 18187642561028607807
23366157 5 17986110940154147515
23402539 116 18335989666596659926
23557571 272 18261391101139826008
23559900 14 18047473610274066967
2916195 48 18261960661169345624
3298306 158 18113898299179803382
34797466 226 17969770900891583580
3633792 109 16844472512676927371
38570 142 16772077330198786964
469060 322 18267846347286909921
474 4 16772384016417584572
495365 180 17605858012304875923
5104073 3 18271521022041195131
5265222 85 18263919948594302558
5283173 99 18335700512345492120
7808743 9 18412267250386334337
9849439 229 17981607375651562269
9981440 41 18343860017915276211

> <PUBCHEM_SHAPE_MULTIPOLES>
488.11
11.82
3.39
1.24
5.75
0.1
0.15
9.26
-1.2
-4.06
-0.53
1.78
0
0.56

> <PUBCHEM_SHAPE_SELFOVERLAP>
1075.207

> <PUBCHEM_SHAPE_VOLUME>
262.7

> <PUBCHEM_COORDINATE_TYPE>
2
5
10

$$$$

