443719
  -OEChem-07051213033D

 40 44  0     0  0  0  0  0  0999 V2000
   -5.1444   -1.9437    0.1889 O   0  0  0  0  0  0  0  0  0  0  0  0
   -6.1278    0.2488    0.0288 O   0  0  0  0  0  0  0  0  0  0  0  0
    4.0931   -1.9528    0.1227 O   0  0  0  0  0  0  0  0  0  0  0  0
    5.8238    0.1668   -0.0595 O   0  0  0  0  0  0  0  0  0  0  0  0
   -0.0330   -1.3766    0.1075 N   0  0  0  0  0  0  0  0  0  0  0  0
    0.2395    1.0043   -0.0796 C   0  0  0  0  0  0  0  0  0  0  0  0
   -1.9862   -0.0160    0.0160 C   0  0  0  0  0  0  0  0  0  0  0  0
   -0.5789   -0.1496    0.0160 C   0  0  0  0  0  0  0  0  0  0  0  0
    1.6683    0.8413   -0.0778 C   0  0  0  0  0  0  0  0  0  0  0  0
   -2.5902    1.2728   -0.0789 C   0  0  0  0  0  0  0  0  0  0  0  0
    2.2006   -0.4590    0.0195 C   0  0  0  0  0  0  0  0  0  0  0  0
   -0.3924    2.2635   -0.1725 C   0  0  0  0  0  0  0  0  0  0  0  0
   -2.8391   -1.1412    0.1090 C   0  0  0  0  0  0  0  0  0  0  0  0
   -1.7779    2.3970   -0.1721 C   0  0  0  0  0  0  0  0  0  0  0  0
   -4.2083   -0.9594    0.1055 C   0  0  0  0  0  0  0  0  0  0  0  0
   -3.9894    1.4188   -0.0794 C   0  0  0  0  0  0  0  0  0  0  0  0
   -4.7682    0.2870    0.0141 C   0  0  0  0  0  0  0  0  0  0  0  0
    2.6092    1.8999   -0.1678 C   0  0  0  0  0  0  0  0  0  0  0  0
    3.5884   -0.6859    0.0265 C   0  0  0  0  0  0  0  0  0  0  0  0
    1.3079   -1.5121    0.1084 C   0  0  0  0  0  0  0  0  0  0  0  0
    4.4791    0.3782   -0.0641 C   0  0  0  0  0  0  0  0  0  0  0  0
    3.9893    1.6722   -0.1612 C   0  0  0  0  0  0  0  0  0  0  0  0
   -6.3605   -1.1702    0.1391 C   0  0  0  0  0  0  0  0  0  0  0  0
    4.3206   -2.6490   -1.0986 C   0  0  0  0  0  0  0  0  0  0  0  0
    6.4762    0.1646    1.2094 C   0  0  0  0  0  0  0  0  0  0  0  0
    0.1856    3.1808   -0.2479 H   0  0  0  0  0  0  0  0  0  0  0  0
   -2.4426   -2.1503    0.1838 H   0  0  0  0  0  0  0  0  0  0  0  0
   -2.2072    3.3939   -0.2460 H   0  0  0  0  0  0  0  0  0  0  0  0
   -4.4561    2.3972   -0.1510 H   0  0  0  0  0  0  0  0  0  0  0  0
    2.2847    2.9343   -0.2461 H   0  0  0  0  0  0  0  0  0  0  0  0
    1.6338   -2.5447    0.1936 H   0  0  0  0  0  0  0  0  0  0  0  0
    4.6707    2.5157   -0.2335 H   0  0  0  0  0  0  0  0  0  0  0  0
   -6.9364   -1.3618    1.0518 H   0  0  0  0  0  0  0  0  0  0  0  0
   -6.9501   -1.4977   -0.7249 H   0  0  0  0  0  0  0  0  0  0  0  0
    4.6406   -3.6665   -0.8579 H   0  0  0  0  0  0  0  0  0  0  0  0
    5.1148   -2.1620   -1.6733 H   0  0  0  0  0  0  0  0  0  0  0  0
    3.4075   -2.7043   -1.6995 H   0  0  0  0  0  0  0  0  0  0  0  0
    7.5404   -0.0266    1.0468 H   0  0  0  0  0  0  0  0  0  0  0  0
    6.0723   -0.6260    1.8494 H   0  0  0  0  0  0  0  0  0  0  0  0
    6.3657    1.1377    1.6985 H   0  0  0  0  0  0  0  0  0  0  0  0
  1 15  1  0  0  0  0
  1 23  1  0  0  0  0
  2 17  1  0  0  0  0
  2 23  1  0  0  0  0
  3 19  1  0  0  0  0
  3 24  1  0  0  0  0
  4 21  1  0  0  0  0
  4 25  1  0  0  0  0
  5  8  2  0  0  0  0
  5 20  1  0  0  0  0
  6  8  1  0  0  0  0
  6  9  2  0  0  0  0
  6 12  1  0  0  0  0
  7  8  1  0  0  0  0
  7 10  1  0  0  0  0
  7 13  2  0  0  0  0
  9 11  1  0  0  0  0
  9 18  1  0  0  0  0
 10 14  1  0  0  0  0
 10 16  2  0  0  0  0
 11 19  1  0  0  0  0
 11 20  2  0  0  0  0
 12 14  2  0  0  0  0
 12 26  1  0  0  0  0
 13 15  1  0  0  0  0
 13 27  1  0  0  0  0
 14 28  1  0  0  0  0
 15 17  2  0  0  0  0
 16 17  1  0  0  0  0
 16 29  1  0  0  0  0
 18 22  2  0  0  0  0
 18 30  1  0  0  0  0
 19 21  2  0  0  0  0
 20 31  1  0  0  0  0
 21 22  1  0  0  0  0
 22 32  1  0  0  0  0
 23 33  1  0  0  0  0
 23 34  1  0  0  0  0
 24 35  1  0  0  0  0
 24 36  1  0  0  0  0
 24 37  1  0  0  0  0
 25 38  1  0  0  0  0
 25 39  1  0  0  0  0
 25 40  1  0  0  0  0
M  END
> <PUBCHEM_COMPOUND_CID>
443719

> <PUBCHEM_CONFORMER_RMSD>
0.6

> <PUBCHEM_CONFORMER_DIVERSEORDER>
2
1

> <PUBCHEM_MMFF94_PARTIAL_CHARGES>
27
1 -0.36
12 -0.15
13 -0.15
14 -0.15
15 0.08
16 -0.15
17 0.08
18 -0.15
19 0.08
2 -0.36
20 0.16
21 0.08
22 -0.15
23 0.56
24 0.28
25 0.28
26 0.15
27 0.15
28 0.15
29 0.15
3 -0.36
30 0.15
31 0.15
32 0.15
4 -0.36
5 -0.62
8 0.31

> <PUBCHEM_EFFECTIVE_ROTOR_COUNT>
2.6

> <PUBCHEM_PHARMACOPHORE_FEATURES>
10
1 1 acceptor
1 2 acceptor
1 3 acceptor
1 4 acceptor
1 5 acceptor
5 1 2 15 17 23 rings
6 5 6 8 9 11 20 rings
6 6 7 8 10 12 14 rings
6 7 10 13 15 16 17 rings
6 9 11 18 19 21 22 rings

> <PUBCHEM_HEAVY_ATOM_COUNT>
25

> <PUBCHEM_ATOM_DEF_STEREO_COUNT>
0

> <PUBCHEM_ATOM_UDEF_STEREO_COUNT>
0

> <PUBCHEM_BOND_DEF_STEREO_COUNT>
0

> <PUBCHEM_BOND_UDEF_STEREO_COUNT>
0

> <PUBCHEM_ISOTOPIC_ATOM_COUNT>
0

> <PUBCHEM_COMPONENT_COUNT>
1

> <PUBCHEM_CACTVS_TAUTO_COUNT>
1

> <PUBCHEM_CONFORMER_ID>
0006C54700000002

> <PUBCHEM_MMFF94_ENERGY>
106.464

> <PUBCHEM_FEATURE_SELFOVERLAP>
50.98

> <PUBCHEM_SHAPE_FINGERPRINT>
10 15 18337965493962338136
10906281 52 18268971177398676905
11963148 33 18339367370513149342
12107183 9 17762054737014836729
12166972 35 17489306360882464820
12236239 1 18040432201008314363
12403259 226 18340208604292525820
12516196 113 18260267434610546681
12838862 33 18339662087284405293
13073987 5 18114179791272527320
13140716 1 18122632652500071170
13288520 33 18411981347857192205
13402501 40 18410855451548789723
13862211 1 18340771446871140971
14251764 18 18202005400598367472
14341114 176 18409161147217372351
15196674 1 18411417336709206157
15927050 60 17470446231667544196
16087824 20 18268995453451724365
17349148 13 17918272047603487085
17492 89 18265332987775191718
17844677 252 18336256950579405123
17857418 61 18412827979719798537
1813 80 17418091022578593173
18681886 176 18411704245046594672
19591789 44 18410855490304001543
200 152 18260548926935814553
20028762 73 18335422344082474190
20645477 70 18411135853026646358
21130935 74 18259984907119376962
21236236 1 18408603699771496753
21267235 1 18412256225505445939
21279426 13 18340207522023642285
21682296 61 18115296924893195255
21792934 111 18409174299109216889
22393880 68 18129666446698338095
23402539 116 18411142407172782639
23522609 53 18196059279606091940
23559900 14 18411142458449042192
239999 70 18408599288771512198
2871803 45 18272934938012097011
3004659 81 18201999919903593132
335352 9 18412263922698900405
34797466 226 17095517357973664860
350125 39 18411419492862273780
3545911 37 18408886235282908364
3886686 26 17046015437910638090
4073 2 18059850606836033035
4214541 1 18411981382016652365
5104073 3 18261958573630214800
5283173 99 18059303162047223397
7495541 125 17968099681164947616
9709674 26 18341324539563641506

> <PUBCHEM_SHAPE_MULTIPOLES>
486.03
14.44
2.43
0.72
2.44
0.06
0.02
4.32
1.63
-0.57
-0.39
-0.61
0.1
0.66

> <PUBCHEM_SHAPE_SELFOVERLAP>
1116.436

> <PUBCHEM_SHAPE_VOLUME>
252.6

> <PUBCHEM_COORDINATE_TYPE>
2
5
10

$$$$

