72884
  -OEChem-07051213093D

 16 15  0     0  0  0  0  0  0999 V2000
   -2.0039    1.3004    0.3016 O   0  0  0  0  0  0  0  0  0  0  0  0
    2.0098   -1.2964    0.3080 O   0  0  0  0  0  0  0  0  0  0  0  0
   -0.5507   -0.4150   -0.2871 N   0  0  0  0  0  0  0  0  0  0  0  0
    0.5496    0.4047   -0.3038 N   0  0  0  0  0  0  0  0  0  0  0  0
   -1.7824    0.1235    0.0265 C   0  0  0  0  0  0  0  0  0  0  0  0
    1.7850   -0.1263    0.0074 C   0  0  0  0  0  0  0  0  0  0  0  0
   -2.8850   -0.8989   -0.0311 C   0  0  0  0  0  0  0  0  0  0  0  0
    2.8776    0.9080   -0.0214 C   0  0  0  0  0  0  0  0  0  0  0  0
   -0.4086   -1.3879   -0.5388 H   0  0  0  0  0  0  0  0  0  0  0  0
    0.4004    1.3775   -0.5518 H   0  0  0  0  0  0  0  0  0  0  0  0
   -3.7061   -0.5866    0.6203 H   0  0  0  0  0  0  0  0  0  0  0  0
   -3.2474   -0.9799   -1.0594 H   0  0  0  0  0  0  0  0  0  0  0  0
   -2.5297   -1.8770    0.3057 H   0  0  0  0  0  0  0  0  0  0  0  0
    3.8363    0.4202   -0.2185 H   0  0  0  0  0  0  0  0  0  0  0  0
    2.6973    1.6462   -0.8081 H   0  0  0  0  0  0  0  0  0  0  0  0
    2.9194    1.4142    0.9468 H   0  0  0  0  0  0  0  0  0  0  0  0
  1  5  2  0  0  0  0
  2  6  2  0  0  0  0
  3  4  1  0  0  0  0
  3  5  1  0  0  0  0
  3  9  1  0  0  0  0
  4  6  1  0  0  0  0
  4 10  1  0  0  0  0
  5  7  1  0  0  0  0
  6  8  1  0  0  0  0
  7 11  1  0  0  0  0
  7 12  1  0  0  0  0
  7 13  1  0  0  0  0
  8 14  1  0  0  0  0
  8 15  1  0  0  0  0
  8 16  1  0  0  0  0
M  END
> <PUBCHEM_COMPOUND_CID>
72884

> <PUBCHEM_CONFORMER_RMSD>
0.6

> <PUBCHEM_CONFORMER_DIVERSEORDER>
1
2

> <PUBCHEM_MMFF94_PARTIAL_CHARGES>
10
1 -0.57
10 0.37
2 -0.57
3 -0.43
4 -0.43
5 0.57
6 0.57
7 0.06
8 0.06
9 0.37

> <PUBCHEM_EFFECTIVE_ROTOR_COUNT>
3

> <PUBCHEM_PHARMACOPHORE_FEATURES>
4
1 1 acceptor
1 2 acceptor
1 3 donor
1 4 donor

> <PUBCHEM_HEAVY_ATOM_COUNT>
8

> <PUBCHEM_ATOM_DEF_STEREO_COUNT>
0

> <PUBCHEM_ATOM_UDEF_STEREO_COUNT>
0

> <PUBCHEM_BOND_DEF_STEREO_COUNT>
0

> <PUBCHEM_BOND_UDEF_STEREO_COUNT>
0

> <PUBCHEM_ISOTOPIC_ATOM_COUNT>
0

> <PUBCHEM_COMPONENT_COUNT>
1

> <PUBCHEM_CACTVS_TAUTO_COUNT>
3

> <PUBCHEM_CONFORMER_ID>
00011CB400000001

> <PUBCHEM_MMFF94_ENERGY>
10.4582

> <PUBCHEM_FEATURE_SELFOVERLAP>
21.843

> <PUBCHEM_SHAPE_FINGERPRINT>
11062470 55 17132123402981472711
12932764 1 17988358285985655821
14325111 11 18410292518764675095
14390081 3 18261112950288376368
23552423 10 18271241728507092830
29004967 10 16630522951310480524
3248919 1 18335430104950493678
5460574 1 9295294936423333959

> <PUBCHEM_SHAPE_MULTIPOLES>
142.94
4.78
1.18
0.61
0.01
0
0
0
-0.18
0
-0.11
0
0
-0.2

> <PUBCHEM_SHAPE_SELFOVERLAP>
263.859

> <PUBCHEM_SHAPE_VOLUME>
90.2

> <PUBCHEM_COORDINATE_TYPE>
2
5
10

$$$$

