441149
  -OEChem-07051212522D

 22 22  0     1  0  0  0  0  0999 V2000
    3.7690    1.0000    0.0000 O   0  0  0  0  0  0  0  0  0  0  0  0
    2.5369    0.1340    0.0000 O   0  0  0  0  0  0  0  0  0  0  0  0
    5.7690    1.0000    0.0000 O   0  0  0  0  0  0  0  0  0  0  0  0
    4.2690    1.8660    0.0000 O   0  0  0  0  0  0  0  0  0  0  0  0
    4.2690    0.1340    0.0000 C   0  0  1  0  0  0  0  0  0  0  0  0
    3.4030   -0.3660    0.0000 C   0  0  2  0  0  0  0  0  0  0  0  0
    3.4030   -1.3660    0.0000 C   0  0  0  0  0  0  0  0  0  0  0  0
    5.1350   -0.3660    0.0000 C   0  0  0  0  0  0  0  0  0  0  0  0
    4.2690   -1.8660    0.0000 C   0  0  0  0  0  0  0  0  0  0  0  0
    5.1350   -1.3660    0.0000 C   0  0  0  0  0  0  0  0  0  0  0  0
    4.7690    1.0000    0.0000 C   0  0  0  0  0  0  0  0  0  0  0  0
    2.5369   -1.8660    0.0000 C   0  0  0  0  0  0  0  0  0  0  0  0
    3.4030    0.2540    0.0000 H   0  0  0  0  0  0  0  0  0  0  0  0
    5.6720   -0.0560    0.0000 H   0  0  0  0  0  0  0  0  0  0  0  0
    4.2690   -2.4860    0.0000 H   0  0  0  0  0  0  0  0  0  0  0  0
    5.6720   -1.6760    0.0000 H   0  0  0  0  0  0  0  0  0  0  0  0
    2.2269   -1.3291    0.0000 H   0  0  0  0  0  0  0  0  0  0  0  0
    2.0000   -2.1760    0.0000 H   0  0  0  0  0  0  0  0  0  0  0  0
    2.8469   -2.4030    0.0000 H   0  0  0  0  0  0  0  0  0  0  0  0
    3.1490    1.0000    0.0000 H   0  0  0  0  0  0  0  0  0  0  0  0
    2.0000   -0.1760    0.0000 H   0  0  0  0  0  0  0  0  0  0  0  0
    6.0790    1.5369    0.0000 H   0  0  0  0  0  0  0  0  0  0  0  0
  5  1  1  6  0  0  0
  1 20  1  0  0  0  0
  6  2  1  6  0  0  0
  2 21  1  0  0  0  0
  3 11  1  0  0  0  0
  3 22  1  0  0  0  0
  4 11  2  0  0  0  0
  5  6  1  0  0  0  0
  5  8  1  0  0  0  0
  5 11  1  0  0  0  0
  6  7  1  0  0  0  0
  6 13  1  0  0  0  0
  7  9  2  0  0  0  0
  7 12  1  0  0  0  0
  8 10  2  0  0  0  0
  8 14  1  0  0  0  0
  9 10  1  0  0  0  0
  9 15  1  0  0  0  0
 10 16  1  0  0  0  0
 12 17  1  0  0  0  0
 12 18  1  0  0  0  0
 12 19  1  0  0  0  0
M  END
> <PUBCHEM_COMPOUND_CID>
441149

> <PUBCHEM_COMPOUND_CANONICALIZED>
1

> <PUBCHEM_CACTVS_COMPLEXITY>
266

> <PUBCHEM_CACTVS_HBOND_ACCEPTOR>
4

> <PUBCHEM_CACTVS_HBOND_DONOR>
3

> <PUBCHEM_CACTVS_ROTATABLE_BOND>
1

> <PUBCHEM_CACTVS_SUBSKEYS>
AAADccBwOAAAAAAAAAAAAAAAAAAAAAAAAAAgAAAAAAAAAAAAAAAAGgAACAAADFSggAICCAAAAgCIAiDSCAIAAAAgAAAICAFAAAgJFBYAAQAAUAAF4AAJkAKIAAAMAAAAAAAAAAAAAAAAAAAAAAAAAAAAAA==

> <PUBCHEM_IUPAC_OPENEYE_NAME>
(1R,6S)-1,6-dihydroxy-5-methyl-cyclohexa-2,4-diene-1-carboxylic acid

> <PUBCHEM_IUPAC_CAS_NAME>
(1R,6S)-1,6-dihydroxy-5-methyl-1-cyclohexa-2,4-dienecarboxylic acid

> <PUBCHEM_IUPAC_NAME>
(1R,6S)-1,6-dihydroxy-5-methylcyclohexa-2,4-diene-1-carboxylic acid

> <PUBCHEM_IUPAC_SYSTEMATIC_NAME>
(1R,6S)-5-methyl-1,6-bis(oxidanyl)cyclohexa-2,4-diene-1-carboxylic acid

> <PUBCHEM_IUPAC_TRADITIONAL_NAME>
(1R,6S)-1,6-dihydroxy-5-methyl-cyclohexa-2,4-diene-1-carboxylic acid

> <PUBCHEM_IUPAC_INCHI>
InChI=1S/C8H10O4/c1-5-3-2-4-8(12,6(5)9)7(10)11/h2-4,6,9,12H,1H3,(H,10,11)/t6-,8+/m0/s1

> <PUBCHEM_IUPAC_INCHIKEY>
AXRMZRLNCOVFJZ-POYBYMJQSA-N

> <PUBCHEM_XLOGP3_AA>
0

> <PUBCHEM_EXACT_MASS>
170.057909

> <PUBCHEM_MOLECULAR_FORMULA>
C8H10O4

> <PUBCHEM_MOLECULAR_WEIGHT>
170.1626

> <PUBCHEM_OPENEYE_CAN_SMILES>
CC1=CC=CC(C1O)(C(=O)O)O

> <PUBCHEM_OPENEYE_ISO_SMILES>
CC1=CC=C[C@@]([C@H]1O)(C(=O)O)O

> <PUBCHEM_CACTVS_TPSA>
77.8

> <PUBCHEM_MONOISOTOPIC_WEIGHT>
170.057909

> <PUBCHEM_TOTAL_CHARGE>
0

> <PUBCHEM_HEAVY_ATOM_COUNT>
12

> <PUBCHEM_ATOM_DEF_STEREO_COUNT>
2

> <PUBCHEM_ATOM_UDEF_STEREO_COUNT>
0

> <PUBCHEM_BOND_DEF_STEREO_COUNT>
0

> <PUBCHEM_BOND_UDEF_STEREO_COUNT>
0

> <PUBCHEM_ISOTOPIC_ATOM_COUNT>
0

> <PUBCHEM_COMPONENT_COUNT>
1

> <PUBCHEM_CACTVS_TAUTO_COUNT>
1

> <PUBCHEM_COORDINATE_TYPE>
1
5
255

> <PUBCHEM_BONDANNOTATIONS>
5  1  6
6  2  6

$$$$

