81748
  -OEChem-07051212513D

 20 20  0     0  0  0  0  0  0999 V2000
   -1.6638    2.4347    0.0033 O   0  0  0  0  0  0  0  0  0  0  0  0
    1.8487   -0.5673   -0.0095 N   0  0  0  0  0  0  0  0  0  0  0  0
   -0.3694   -1.2204   -0.0035 N   0  0  0  0  0  0  0  0  0  0  0  0
    0.1311    1.0595   -0.0028 N   0  0  0  0  0  0  0  0  0  0  0  0
   -2.1932    0.2365    0.0042 N   0  0  0  0  0  0  0  0  0  0  0  0
   -2.5040   -2.1090    0.0033 N   0  0  0  0  0  0  0  0  0  0  0  0
    2.9220    0.3797   -0.0115 C   0  0  0  0  0  0  0  0  0  0  0  0
    0.5351   -0.1853   -0.0053 C   0  0  0  0  0  0  0  0  0  0  0  0
    4.2708   -0.3189    0.0188 C   0  0  0  0  0  0  0  0  0  0  0  0
   -1.7238   -0.9852    0.0014 C   0  0  0  0  0  0  0  0  0  0  0  0
   -1.2534    1.2758    0.0016 C   0  0  0  0  0  0  0  0  0  0  0  0
    2.8664    1.0078   -0.9079 H   0  0  0  0  0  0  0  0  0  0  0  0
    2.8448    1.0377    0.8617 H   0  0  0  0  0  0  0  0  0  0  0  0
    2.0786   -1.5569   -0.0154 H   0  0  0  0  0  0  0  0  0  0  0  0
   -0.0309   -2.1778   -0.0053 H   0  0  0  0  0  0  0  0  0  0  0  0
    4.3708   -0.9396    0.9156 H   0  0  0  0  0  0  0  0  0  0  0  0
    4.3953   -0.9690   -0.8538 H   0  0  0  0  0  0  0  0  0  0  0  0
    5.0820    0.4155    0.0178 H   0  0  0  0  0  0  0  0  0  0  0  0
   -2.0957   -3.0374    0.0006 H   0  0  0  0  0  0  0  0  0  0  0  0
   -3.5162   -2.0457    0.0069 H   0  0  0  0  0  0  0  0  0  0  0  0
  1 11  2  0  0  0  0
  2  7  1  0  0  0  0
  2  8  1  0  0  0  0
  2 14  1  0  0  0  0
  3  8  1  0  0  0  0
  3 10  1  0  0  0  0
  3 15  1  0  0  0  0
  4  8  2  0  0  0  0
  4 11  1  0  0  0  0
  5 10  2  0  0  0  0
  5 11  1  0  0  0  0
  6 10  1  0  0  0  0
  6 19  1  0  0  0  0
  6 20  1  0  0  0  0
  7  9  1  0  0  0  0
  7 12  1  0  0  0  0
  7 13  1  0  0  0  0
  9 16  1  0  0  0  0
  9 17  1  0  0  0  0
  9 18  1  0  0  0  0
M  END
> <PUBCHEM_COMPOUND_CID>
81748

> <PUBCHEM_CONFORMER_RMSD>
0.4

> <PUBCHEM_CONFORMER_DIVERSEORDER>
1
6
2
5
7
4
3

> <PUBCHEM_MMFF94_PARTIAL_CHARGES>
14
1 -0.57
10 0.55
11 0.99
14 0.4
15 0.4
19 0.4
2 -0.82
20 0.4
3 -0.5
4 -0.66
5 -0.66
6 -0.85
7 0.37
8 0.55

> <PUBCHEM_EFFECTIVE_ROTOR_COUNT>
2

> <PUBCHEM_PHARMACOPHORE_FEATURES>
7
1 1 acceptor
1 2 donor
1 3 donor
1 4 donor
1 5 donor
1 6 donor
6 3 4 5 8 10 11 rings

> <PUBCHEM_HEAVY_ATOM_COUNT>
11

> <PUBCHEM_ATOM_DEF_STEREO_COUNT>
0

> <PUBCHEM_ATOM_UDEF_STEREO_COUNT>
0

> <PUBCHEM_BOND_DEF_STEREO_COUNT>
0

> <PUBCHEM_BOND_UDEF_STEREO_COUNT>
0

> <PUBCHEM_ISOTOPIC_ATOM_COUNT>
0

> <PUBCHEM_COMPONENT_COUNT>
1

> <PUBCHEM_CACTVS_TAUTO_COUNT>
17

> <PUBCHEM_CONFORMER_ID>
00013F5400000001

> <PUBCHEM_MMFF94_ENERGY>
26.9822

> <PUBCHEM_FEATURE_SELFOVERLAP>
35.803

> <PUBCHEM_SHAPE_FINGERPRINT>
10857977 72 18263373511835092282
12716758 59 18264202681067807838
12932764 1 17489311936129439188
13024252 1 16272205301673332681
13380535 76 18191873533216581143
14325111 11 18410575128287952608
20871998 184 18259701181526666031
21040471 1 18122625221605437509
21061003 4 17095236991245859266
23402539 116 18334586749989347831
23552423 10 18201157637782190748
2748010 2 18193568757103789253
6333449 129 18335986449307588716

> <PUBCHEM_SHAPE_MULTIPOLES>
195.6
5.25
1.91
0.57
6.47
0.44
0
-1.01
0.03
-2.04
0
0.05
0
0

> <PUBCHEM_SHAPE_SELFOVERLAP>
394.957

> <PUBCHEM_SHAPE_VOLUME>
112.4

> <PUBCHEM_COORDINATE_TYPE>
2
5
10

$$$$

