394846
  -OEChem-07051213003D

 49 51  0     1  0  0  0  0  0999 V2000
    0.5929    3.4850    0.7345 O   0  0  0  0  0  0  0  0  0  0  0  0
   -1.5130    1.7449   -1.4312 O   0  0  0  0  0  0  0  0  0  0  0  0
   -1.0993    4.3905   -0.5211 O   0  0  0  0  0  0  0  0  0  0  0  0
    5.6879   -0.2111    0.2713 O   0  0  0  0  0  0  0  0  0  0  0  0
   -5.1335   -1.6635   -0.8767 O   0  0  0  0  0  0  0  0  0  0  0  0
    5.1599   -2.8847   -0.2762 O   0  0  0  0  0  0  0  0  0  0  0  0
   -3.9048   -3.6265    0.6606 O   0  0  0  0  0  0  0  0  0  0  0  0
    0.3093    1.2315    0.1356 C   0  0  2  0  0  0  0  0  0  0  0  0
   -0.9912    1.9833   -0.1425 C   0  0  2  0  0  0  0  0  0  0  0  0
    0.9993    2.1635    1.1171 C   0  0  0  0  0  0  0  0  0  0  0  0
    1.1717    1.0189   -1.1132 C   0  0  0  0  0  0  0  0  0  0  0  0
   -2.0794    1.7081    0.8926 C   0  0  0  0  0  0  0  0  0  0  0  0
   -0.5438    3.4216   -0.0272 C   0  0  0  0  0  0  0  0  0  0  0  0
    2.2384   -0.0206   -0.8880 C   0  0  0  0  0  0  0  0  0  0  0  0
   -2.5689    0.2848    0.8278 C   0  0  0  0  0  0  0  0  0  0  0  0
    3.4806    0.3690   -0.4084 C   0  0  0  0  0  0  0  0  0  0  0  0
    1.9629   -1.3519   -1.1646 C   0  0  0  0  0  0  0  0  0  0  0  0
   -3.6344   -0.0332   -0.0018 C   0  0  0  0  0  0  0  0  0  0  0  0
   -1.9473   -0.6861    1.5995 C   0  0  0  0  0  0  0  0  0  0  0  0
    4.4685   -0.5935   -0.2008 C   0  0  0  0  0  0  0  0  0  0  0  0
   -4.0881   -1.3509   -0.0611 C   0  0  0  0  0  0  0  0  0  0  0  0
    2.9508   -2.3144   -0.9571 C   0  0  0  0  0  0  0  0  0  0  0  0
   -2.4009   -2.0037    1.5403 C   0  0  0  0  0  0  0  0  0  0  0  0
    4.2036   -1.9352   -0.4752 C   0  0  0  0  0  0  0  0  0  0  0  0
   -3.4713   -2.3361    0.7099 C   0  0  0  0  0  0  0  0  0  0  0  0
    5.8577   -0.1917    1.6872 C   0  0  0  0  0  0  0  0  0  0  0  0
   -5.7079   -0.5982   -1.6314 C   0  0  0  0  0  0  0  0  0  0  0  0
    0.1626    0.2539    0.5935 H   0  0  0  0  0  0  0  0  0  0  0  0
    0.6582    1.9938    2.1446 H   0  0  0  0  0  0  0  0  0  0  0  0
    2.0877    2.1170    1.1200 H   0  0  0  0  0  0  0  0  0  0  0  0
    1.6264    1.9574   -1.4564 H   0  0  0  0  0  0  0  0  0  0  0  0
    0.5651    0.6629   -1.9546 H   0  0  0  0  0  0  0  0  0  0  0  0
   -2.9334    2.3791    0.7216 H   0  0  0  0  0  0  0  0  0  0  0  0
   -1.7413    1.9383    1.9114 H   0  0  0  0  0  0  0  0  0  0  0  0
   -0.9240    2.1484   -2.0905 H   0  0  0  0  0  0  0  0  0  0  0  0
    3.7060    1.4139   -0.2155 H   0  0  0  0  0  0  0  0  0  0  0  0
    0.9894   -1.6586   -1.5368 H   0  0  0  0  0  0  0  0  0  0  0  0
   -4.0747    0.7746   -0.5759 H   0  0  0  0  0  0  0  0  0  0  0  0
   -1.1307   -0.4392    2.2721 H   0  0  0  0  0  0  0  0  0  0  0  0
    2.7306   -3.3562   -1.1739 H   0  0  0  0  0  0  0  0  0  0  0  0
   -1.9198   -2.7655    2.1479 H   0  0  0  0  0  0  0  0  0  0  0  0
    4.7980   -3.7544   -0.5183 H   0  0  0  0  0  0  0  0  0  0  0  0
   -4.6500   -3.6750    0.0367 H   0  0  0  0  0  0  0  0  0  0  0  0
    6.8805    0.1273    1.9054 H   0  0  0  0  0  0  0  0  0  0  0  0
    5.7052   -1.1908    2.1076 H   0  0  0  0  0  0  0  0  0  0  0  0
    5.1636    0.5193    2.1466 H   0  0  0  0  0  0  0  0  0  0  0  0
   -4.9901   -0.1737   -2.3418 H   0  0  0  0  0  0  0  0  0  0  0  0
   -6.1527    0.1631   -0.9815 H   0  0  0  0  0  0  0  0  0  0  0  0
   -6.5239   -1.0263   -2.2229 H   0  0  0  0  0  0  0  0  0  0  0  0
  1 10  1  0  0  0  0
  1 13  1  0  0  0  0
  2  9  1  0  0  0  0
  2 35  1  0  0  0  0
  3 13  2  0  0  0  0
  4 20  1  0  0  0  0
  4 26  1  0  0  0  0
  5 21  1  0  0  0  0
  5 27  1  0  0  0  0
  6 24  1  0  0  0  0
  6 42  1  0  0  0  0
  7 25  1  0  0  0  0
  7 43  1  0  0  0  0
  8  9  1  0  0  0  0
  8 10  1  0  0  0  0
  8 11  1  0  0  0  0
  8 28  1  0  0  0  0
  9 12  1  0  0  0  0
  9 13  1  0  0  0  0
 10 29  1  0  0  0  0
 10 30  1  0  0  0  0
 11 14  1  0  0  0  0
 11 31  1  0  0  0  0
 11 32  1  0  0  0  0
 12 15  1  0  0  0  0
 12 33  1  0  0  0  0
 12 34  1  0  0  0  0
 14 16  2  0  0  0  0
 14 17  1  0  0  0  0
 15 18  2  0  0  0  0
 15 19  1  0  0  0  0
 16 20  1  0  0  0  0
 16 36  1  0  0  0  0
 17 22  2  0  0  0  0
 17 37  1  0  0  0  0
 18 21  1  0  0  0  0
 18 38  1  0  0  0  0
 19 23  2  0  0  0  0
 19 39  1  0  0  0  0
 20 24  2  0  0  0  0
 21 25  2  0  0  0  0
 22 24  1  0  0  0  0
 22 40  1  0  0  0  0
 23 25  1  0  0  0  0
 23 41  1  0  0  0  0
 26 44  1  0  0  0  0
 26 45  1  0  0  0  0
 26 46  1  0  0  0  0
 27 47  1  0  0  0  0
 27 48  1  0  0  0  0
 27 49  1  0  0  0  0
M  END
> <PUBCHEM_COMPOUND_CID>
394846

> <PUBCHEM_CONFORMER_RMSD>
0.8

> <PUBCHEM_CONFORMER_DIVERSEORDER>
51
135
54
104
138
48
99
59
91
120
146
24
46
127
102
79
29
87
130
82
123
53
117
83
143
139
63
13
56
145
81
90
142
55
107
47
144
67
28
136
92
33
85
118
40
49
147
78
140
65
57
66
129
105
8
126
62
128
88
137
86
111
106
11
133
73
23
50
45
37
76
58
84
10
109
12
98
116
44
38
121
60
9
132
16
80
112
134
7
122
95
52
19
115
17
108
68
34
124
110
41
27
75
131
101
14
74
35
30
96
77
21
3
25
71
69
113
94
61
39
31
2
119
43
125
36
97
42
6
114
32
22
93
1
100
5
26
15
20
64
72
103
89
18
141
70
4

> <PUBCHEM_MMFF94_PARTIAL_CHARGES>
35
1 -0.43
10 0.28
11 0.14
12 0.14
13 0.66
14 -0.14
15 -0.14
16 -0.15
17 -0.15
18 -0.15
19 -0.15
2 -0.68
20 0.08
21 0.08
22 -0.15
23 -0.15
24 0.08
25 0.08
26 0.28
27 0.28
3 -0.57
35 0.4
36 0.15
37 0.15
38 0.15
39 0.15
4 -0.36
40 0.15
41 0.15
42 0.45
43 0.45
5 -0.36
6 -0.53
7 -0.53
9 0.34

> <PUBCHEM_EFFECTIVE_ROTOR_COUNT>
6.8

> <PUBCHEM_PHARMACOPHORE_FEATURES>
10
1 2 acceptor
1 2 donor
1 3 acceptor
1 4 acceptor
1 5 acceptor
1 6 donor
1 7 donor
5 1 8 9 10 13 rings
6 14 16 17 20 22 24 rings
6 15 18 19 21 23 25 rings

> <PUBCHEM_HEAVY_ATOM_COUNT>
27

> <PUBCHEM_ATOM_DEF_STEREO_COUNT>
2

> <PUBCHEM_ATOM_UDEF_STEREO_COUNT>
0

> <PUBCHEM_BOND_DEF_STEREO_COUNT>
0

> <PUBCHEM_BOND_UDEF_STEREO_COUNT>
0

> <PUBCHEM_ISOTOPIC_ATOM_COUNT>
0

> <PUBCHEM_COMPONENT_COUNT>
1

> <PUBCHEM_CACTVS_TAUTO_COUNT>
8

> <PUBCHEM_CONFORMER_ID>
0006065E00000033

> <PUBCHEM_MMFF94_ENERGY>
94.1222

> <PUBCHEM_FEATURE_SELFOVERLAP>
50.747

> <PUBCHEM_SHAPE_FINGERPRINT>
11796584 16 17846223232463070123
12293681 25 18267328472567360485
12363563 72 18338783551117412063
12553582 1 18194091123737189823
12596602 18 15864069853850131994
12788726 201 18272374234152492107
12969540 37 18051688845912442541
13083527 12 18410571756628433876
13544653 18 18409440397464145396
14081887 123 18339640169865788570
1454969 45 18335983057138201228
14848178 5 18412824672769469574
14866123 147 18265043829502499729
14950920 106 14996831251569464302
15163728 17 8790620220519350256
15352361 1 18410005520555344087
19315092 285 16951415300013590923
20567600 70 18268430144357827946
21133410 52 17468204345434697126
21304303 282 17697906973745640349
21452121 199 18271236110985593560
22113638 7 18262234400577945975
23559900 14 18194688068837105905
23572383 38 18411703162261447594
255183 313 17976242849602920649
3027735 51 18198340869623515867
339767 52 18410580560831388042
38570 142 4677963029832091450
4280585 95 18341342110274667825
46194498 28 17272565024331012983
463206 1 18341885273499087395
469060 322 17751952209678372758
5104073 3 18042974375166250338
5283173 99 18130516317890218493
5924683 9 18336545035590029136
6004065 56 18262247599312743359
613672 6 18410854343484800207
9709674 26 17901942268912434958

> <PUBCHEM_SHAPE_MULTIPOLES>
514.56
11.59
4.25
1.45
5.93
2.53
0.15
-10.47
-0.42
-1.68
0.15
-0.37
-0.23
1.09

> <PUBCHEM_SHAPE_SELFOVERLAP>
1113.469

> <PUBCHEM_SHAPE_VOLUME>
283.7

> <PUBCHEM_COORDINATE_TYPE>
2
5
10

$$$$

