644073
  -OEChem-07051212542D

 75 81  0     1  0  0  0  0  0999 V2000
    5.0395   -2.5771    0.0000 O   0  0  0  0  0  0  0  0  0  0  0  0
    7.4805   -2.7776    0.0000 O   0  0  0  0  0  0  0  0  0  0  0  0
    4.5036   -2.1927    0.0000 O   0  0  0  0  0  0  0  0  0  0  0  0
    2.6200   -2.7776    0.0000 O   0  0  0  0  0  0  0  0  0  0  0  0
    6.0154    1.4317    0.0000 N   0  0  3  0  0  0  0  0  0  0  0  0
    6.0154   -0.2399    0.0000 C   0  0  2  0  0  0  0  0  0  0  0  0
    5.5328   -1.0758    0.0000 C   0  0  1  0  0  0  0  0  0  0  0  0
    6.9805   -1.9116    0.0000 C   0  0  1  0  0  0  0  0  0  0  0  0
    6.0154   -1.9116    0.0000 C   0  0  2  0  0  0  0  0  0  0  0  0
    6.3478   -1.4189    0.0000 C   0  0  2  0  0  0  0  0  0  0  0  0
    6.7124   -0.6897    0.0000 C   0  0  0  0  0  0  0  0  0  0  0  0
    5.5328    0.5959    0.0000 C   0  0  1  0  0  0  0  0  0  0  0  0
    6.9805   -0.2399    0.0000 C   0  0  0  0  0  0  0  0  0  0  0  0
    7.4631   -1.0758    0.0000 C   0  0  0  0  0  0  0  0  0  0  0  0
    5.0503   -0.2399    0.0000 C   0  0  0  0  0  0  0  0  0  0  0  0
    4.5677   -1.0758    0.0000 C   0  0  0  0  0  0  0  0  0  0  0  0
    4.5677    0.5959    0.0000 C   0  0  0  0  0  0  0  0  0  0  0  0
    5.4257   -1.8058    0.0000 C   0  0  1  0  0  0  0  0  0  0  0  0
    5.0395    1.6052    0.0000 C   0  0  0  0  0  0  0  0  0  0  0  0
    4.0851   -0.2399    0.0000 C   0  0  0  0  0  0  0  0  0  0  0  0
    4.0851   -1.9116    0.0000 C   0  0  0  0  0  0  0  0  0  0  0  0
    6.9220    1.8537    0.0000 C   0  0  0  0  0  0  0  0  0  0  0  0
    5.6467   -2.7812    0.0000 C   0  0  0  0  0  0  0  0  0  0  0  0
    7.0098    2.8498    0.0000 C   0  0  0  0  0  0  0  0  0  0  0  0
    4.9807   -0.7454    0.0000 C   0  0  0  0  0  0  0  0  0  0  0  0
    3.1200   -0.2399    0.0000 C   0  0  0  0  0  0  0  0  0  0  0  0
    3.1200   -1.9116    0.0000 C   0  0  0  0  0  0  0  0  0  0  0  0
    7.5840    3.6686    0.0000 C   0  0  0  0  0  0  0  0  0  0  0  0
    6.5878    3.7564    0.0000 C   0  0  0  0  0  0  0  0  0  0  0  0
    8.4805   -2.7776    0.0000 C   0  0  0  0  0  0  0  0  0  0  0  0
    2.6374   -1.0758    0.0000 C   0  0  0  0  0  0  0  0  0  0  0  0
    5.8676   -3.7564    0.0000 C   0  0  0  0  0  0  0  0  0  0  0  0
    4.9125   -3.4601    0.0000 C   0  0  0  0  0  0  0  0  0  0  0  0
    6.6017   -3.0774    0.0000 C   0  0  0  0  0  0  0  0  0  0  0  0
    6.4032   -2.6680    0.0000 H   0  0  0  0  0  0  0  0  0  0  0  0
    5.7671   -0.7982    0.0000 H   0  0  0  0  0  0  0  0  0  0  0  0
    7.2565   -0.9870    0.0000 H   0  0  0  0  0  0  0  0  0  0  0  0
    7.0294   -0.1568    0.0000 H   0  0  0  0  0  0  0  0  0  0  0  0
    6.3290    0.2982    0.0000 H   0  0  0  0  0  0  0  0  0  0  0  0
    7.5631   -0.0279    0.0000 H   0  0  0  0  0  0  0  0  0  0  0  0
    6.8728    0.3706    0.0000 H   0  0  0  0  0  0  0  0  0  0  0  0
    7.9380   -1.4743    0.0000 H   0  0  0  0  0  0  0  0  0  0  0  0
    7.9380   -0.6772    0.0000 H   0  0  0  0  0  0  0  0  0  0  0  0
    4.4668   -0.0301    0.0000 H   0  0  0  0  0  0  0  0  0  0  0  0
    5.6487   -0.0777    0.0000 H   0  0  0  0  0  0  0  0  0  0  0  0
    4.6754    1.2065    0.0000 H   0  0  0  0  0  0  0  0  0  0  0  0
    3.9851    0.8079    0.0000 H   0  0  0  0  0  0  0  0  0  0  0  0
    5.1109    2.2210    0.0000 H   0  0  0  0  0  0  0  0  0  0  0  0
    4.4205    1.6391    0.0000 H   0  0  0  0  0  0  0  0  0  0  0  0
    7.0820    1.2547    0.0000 H   0  0  0  0  0  0  0  0  0  0  0  0
    7.5397    1.9073    0.0000 H   0  0  0  0  0  0  0  0  0  0  0  0
    7.5923    2.6374    0.0000 H   0  0  0  0  0  0  0  0  0  0  0  0
    5.5524   -0.5055    0.0000 H   0  0  0  0  0  0  0  0  0  0  0  0
    4.7408   -0.1737    0.0000 H   0  0  0  0  0  0  0  0  0  0  0  0
    4.4090   -0.9853    0.0000 H   0  0  0  0  0  0  0  0  0  0  0  0
    2.8100    0.2970    0.0000 H   0  0  0  0  0  0  0  0  0  0  0  0
    4.4255   -2.8078    0.0000 H   0  0  0  0  0  0  0  0  0  0  0  0
    8.1457    3.4062    0.0000 H   0  0  0  0  0  0  0  0  0  0  0  0
    7.7448    4.2674    0.0000 H   0  0  0  0  0  0  0  0  0  0  0  0
    6.5342    4.3741    0.0000 H   0  0  0  0  0  0  0  0  0  0  0  0
    5.9888    3.5964    0.0000 H   0  0  0  0  0  0  0  0  0  0  0  0
    8.4805   -3.3976    0.0000 H   0  0  0  0  0  0  0  0  0  0  0  0
    9.1005   -2.7776    0.0000 H   0  0  0  0  0  0  0  0  0  0  0  0
    8.4805   -2.1576    0.0000 H   0  0  0  0  0  0  0  0  0  0  0  0
    2.0174   -1.0758    0.0000 H   0  0  0  0  0  0  0  0  0  0  0  0
    5.2630   -3.8934    0.0000 H   0  0  0  0  0  0  0  0  0  0  0  0
    6.0046   -4.3611    0.0000 H   0  0  0  0  0  0  0  0  0  0  0  0
    6.4723   -3.6194    0.0000 H   0  0  0  0  0  0  0  0  0  0  0  0
    4.4916   -3.0049    0.0000 H   0  0  0  0  0  0  0  0  0  0  0  0
    4.4573   -3.8811    0.0000 H   0  0  0  0  0  0  0  0  0  0  0  0
    5.3335   -3.9153    0.0000 H   0  0  0  0  0  0  0  0  0  0  0  0
    6.4180   -3.6696    0.0000 H   0  0  0  0  0  0  0  0  0  0  0  0
    7.1939   -3.2611    0.0000 H   0  0  0  0  0  0  0  0  0  0  0  0
    6.7854   -2.4853    0.0000 H   0  0  0  0  0  0  0  0  0  0  0  0
    2.0000   -2.7776    0.0000 H   0  0  0  0  0  0  0  0  0  0  0  0
  1  9  1  0  0  0  0
  1 21  1  0  0  0  0
  8  2  1  1  0  0  0
  2 30  1  0  0  0  0
 18  3  1  1  0  0  0
  3 57  1  0  0  0  0
  4 27  1  0  0  0  0
  4 75  1  0  0  0  0
  5 12  1  0  0  0  0
  5 19  1  0  0  0  0
  5 22  1  0  0  0  0
  6  7  1  0  0  0  0
  6 11  1  1  0  0  0
  6 12  1  0  0  0  0
  6 13  1  0  0  0  0
  7  9  1  0  0  0  0
  7 15  1  1  0  0  0
  7 16  1  0  0  0  0
  8  9  1  0  0  0  0
  8 10  1  0  0  0  0
  8 14  1  0  0  0  0
  9 35  1  1  0  0  0
 10 11  1  0  0  0  0
 10 18  1  0  0  0  0
 10 36  1  6  0  0  0
 11 37  1  0  0  0  0
 11 38  1  0  0  0  0
 12 17  1  0  0  0  0
 12 39  1  6  0  0  0
 13 14  1  0  0  0  0
 13 40  1  0  0  0  0
 13 41  1  0  0  0  0
 14 42  1  0  0  0  0
 14 43  1  0  0  0  0
 15 19  1  0  0  0  0
 15 44  1  0  0  0  0
 15 45  1  0  0  0  0
 16 20  2  0  0  0  0
 16 21  1  0  0  0  0
 17 20  1  0  0  0  0
 17 46  1  0  0  0  0
 17 47  1  0  0  0  0
 18 23  1  0  0  0  0
 18 25  1  0  0  0  0
 19 48  1  0  0  0  0
 19 49  1  0  0  0  0
 20 26  1  0  0  0  0
 21 27  2  0  0  0  0
 22 24  1  0  0  0  0
 22 50  1  0  0  0  0
 22 51  1  0  0  0  0
 23 32  1  0  0  0  0
 23 33  1  0  0  0  0
 23 34  1  0  0  0  0
 24 28  1  0  0  0  0
 24 29  1  0  0  0  0
 24 52  1  0  0  0  0
 25 53  1  0  0  0  0
 25 54  1  0  0  0  0
 25 55  1  0  0  0  0
 26 31  2  0  0  0  0
 26 56  1  0  0  0  0
 27 31  1  0  0  0  0
 28 29  1  0  0  0  0
 28 58  1  0  0  0  0
 28 59  1  0  0  0  0
 29 60  1  0  0  0  0
 29 61  1  0  0  0  0
 30 62  1  0  0  0  0
 30 63  1  0  0  0  0
 30 64  1  0  0  0  0
 31 65  1  0  0  0  0
 32 66  1  0  0  0  0
 32 67  1  0  0  0  0
 32 68  1  0  0  0  0
 33 69  1  0  0  0  0
 33 70  1  0  0  0  0
 33 71  1  0  0  0  0
 34 72  1  0  0  0  0
 34 73  1  0  0  0  0
 34 74  1  0  0  0  0
M  END
> <PUBCHEM_COMPOUND_CID>
644073

> <PUBCHEM_COMPOUND_CANONICALIZED>
1

> <PUBCHEM_CACTVS_COMPLEXITY>
869

> <PUBCHEM_CACTVS_HBOND_ACCEPTOR>
5

> <PUBCHEM_CACTVS_HBOND_DONOR>
2

> <PUBCHEM_CACTVS_ROTATABLE_BOND>
5

> <PUBCHEM_CACTVS_SUBSKEYS>
AAADcfB6OAAAAAAAAAAAAAAAGAAAASAAAAA8YMGDAAAWAEjxAAAAHgAACAAAD3zhmAYyBoMABgCAAiBCAAACCAAgIAAIiAAOiIgNJiKGsRuGeCOlwBGLuAfw8P8PoAABAAAYQADQAAaAADSAAAAAAAAAAA==

> <PUBCHEM_IUPAC_INCHI>
InChI=1S/C29H41NO4/c1-25(2,3)26(4,32)20-15-27-10-11-29(20,33-5)24-28(27)12-13-30(16-17-6-7-17)21(27)14-18-8-9-19(31)23(34-24)22(18)28/h8-9,17,20-21,24,31-32H,6-7,10-16H2,1-5H3/t20-,21-,24-,26+,27-,28+,29-/m1/s1

> <PUBCHEM_IUPAC_INCHIKEY>
RMRJXGBAOAMLHD-IHFGGWKQSA-N

> <PUBCHEM_XLOGP3>
5

> <PUBCHEM_EXACT_MASS>
467.303559

> <PUBCHEM_MOLECULAR_FORMULA>
C29H41NO4

> <PUBCHEM_MOLECULAR_WEIGHT>
467.64014

> <PUBCHEM_OPENEYE_CAN_SMILES>
CC(C)(C)C(C)(C1CC23CCC1(C4C25CCN(C3CC6=C5C(=C(C=C6)O)O4)CC7CC7)OC)O

> <PUBCHEM_OPENEYE_ISO_SMILES>
C[C@]([C@H]1C[C@@]23CC[C@@]1([C@H]4[C@@]25CCN([C@@H]3CC6=C5C(=C(C=C6)O)O4)CC7CC7)OC)(C(C)(C)C)O

> <PUBCHEM_CACTVS_TPSA>
62.2

> <PUBCHEM_MONOISOTOPIC_WEIGHT>
467.303559

> <PUBCHEM_TOTAL_CHARGE>
0

> <PUBCHEM_HEAVY_ATOM_COUNT>
34

> <PUBCHEM_ATOM_DEF_STEREO_COUNT>
7

> <PUBCHEM_ATOM_UDEF_STEREO_COUNT>
0

> <PUBCHEM_BOND_DEF_STEREO_COUNT>
0

> <PUBCHEM_BOND_UDEF_STEREO_COUNT>
0

> <PUBCHEM_ISOTOPIC_ATOM_COUNT>
0

> <PUBCHEM_COMPONENT_COUNT>
1

> <PUBCHEM_CACTVS_TAUTO_COUNT>
2

> <PUBCHEM_COORDINATE_TYPE>
1
5
255

> <PUBCHEM_BONDANNOTATIONS>
10  36  6
12  39  6
16  20  8
16  21  8
8  2  5
20  26  8
21  27  8
26  31  8
27  31  8
18  3  5
6  11  5
7  15  5
9  35  5

$$$$

