51090875
  -OEChem-06241223002D

 43 46  0     0  0  0  0  0  0999 V2000
    4.4818   -2.9190    0.0000 F   0  0  0  0  0  0  0  0  0  0  0  0
    2.8090    1.0810    0.0000 O   0  0  0  0  0  0  0  0  0  0  0  0
    7.0799    0.5810    0.0000 O   0  0  0  0  0  0  0  0  0  0  0  0
    5.3478    0.5810    0.0000 N   0  0  0  0  0  0  0  0  0  0  0  0
    3.7601    2.3901    0.0000 N   0  0  0  0  0  0  0  0  0  0  0  0
    3.7601    0.7720    0.0000 N   0  0  0  0  0  0  0  0  0  0  0  0
    8.0261   -1.1143    0.0000 N   0  0  0  0  0  0  0  0  0  0  0  0
    8.0261   -2.7237    0.0000 N   0  0  0  0  0  0  0  0  0  0  0  0
    5.3478    1.5810    0.0000 C   0  0  0  0  0  0  0  0  0  0  0  0
    4.8478    2.4470    0.0000 C   0  0  0  0  0  0  0  0  0  0  0  0
    6.3478    1.5810    0.0000 C   0  0  0  0  0  0  0  0  0  0  0  0
    6.8478    2.4470    0.0000 C   0  0  0  0  0  0  0  0  0  0  0  0
    5.3478    3.3130    0.0000 C   0  0  0  0  0  0  0  0  0  0  0  0
    6.3478    3.3130    0.0000 C   0  0  0  0  0  0  0  0  0  0  0  0
    4.3478    1.5810    0.0000 C   0  0  0  0  0  0  0  0  0  0  0  0
    6.2139    0.0810    0.0000 C   0  0  0  0  0  0  0  0  0  0  0  0
    6.2139   -0.9190    0.0000 C   0  0  0  0  0  0  0  0  0  0  0  0
    2.8090    2.0811    0.0000 C   0  0  0  0  0  0  0  0  0  0  0  0
    7.0799   -1.4190    0.0000 C   0  0  0  0  0  0  0  0  0  0  0  0
    5.3478   -1.4190    0.0000 C   0  0  0  0  0  0  0  0  0  0  0  0
    7.0799   -2.4190    0.0000 C   0  0  0  0  0  0  0  0  0  0  0  0
    2.0000    2.6689    0.0000 C   0  0  0  0  0  0  0  0  0  0  0  0
    5.3478   -2.4190    0.0000 C   0  0  0  0  0  0  0  0  0  0  0  0
    6.2139   -2.9190    0.0000 C   0  0  0  0  0  0  0  0  0  0  0  0
    8.6097   -1.9190    0.0000 C   0  0  0  0  0  0  0  0  0  0  0  0
    4.3729    2.8456    0.0000 H   0  0  0  0  0  0  0  0  0  0  0  0
    4.3729    2.0485    0.0000 H   0  0  0  0  0  0  0  0  0  0  0  0
    6.2402    0.9704    0.0000 H   0  0  0  0  0  0  0  0  0  0  0  0
    6.9304    1.3689    0.0000 H   0  0  0  0  0  0  0  0  0  0  0  0
    5.4555    3.9236    0.0000 H   0  0  0  0  0  0  0  0  0  0  0  0
    4.7652    3.5251    0.0000 H   0  0  0  0  0  0  0  0  0  0  0  0
    7.3228    2.0485    0.0000 H   0  0  0  0  0  0  0  0  0  0  0  0
    7.3228    2.8456    0.0000 H   0  0  0  0  0  0  0  0  0  0  0  0
    6.9304    3.5251    0.0000 H   0  0  0  0  0  0  0  0  0  0  0  0
    6.2402    3.9236    0.0000 H   0  0  0  0  0  0  0  0  0  0  0  0
    5.0378    0.0441    0.0000 H   0  0  0  0  0  0  0  0  0  0  0  0
    4.8109   -1.1090    0.0000 H   0  0  0  0  0  0  0  0  0  0  0  0
    2.3644    3.1705    0.0000 H   0  0  0  0  0  0  0  0  0  0  0  0
    1.4984    3.0333    0.0000 H   0  0  0  0  0  0  0  0  0  0  0  0
    1.6356    2.1673    0.0000 H   0  0  0  0  0  0  0  0  0  0  0  0
    6.2139   -3.5390    0.0000 H   0  0  0  0  0  0  0  0  0  0  0  0
    8.2187   -3.3130    0.0000 H   0  0  0  0  0  0  0  0  0  0  0  0
    9.2297   -1.9190    0.0000 H   0  0  0  0  0  0  0  0  0  0  0  0
  1 23  1  0  0  0  0
  2  6  1  0  0  0  0
  2 18  1  0  0  0  0
  3 16  2  0  0  0  0
  4  9  1  0  0  0  0
  4 16  1  0  0  0  0
  4 36  1  0  0  0  0
  5 15  1  0  0  0  0
  5 18  2  0  0  0  0
  6 15  2  0  0  0  0
  7 19  1  0  0  0  0
  7 25  2  0  0  0  0
  8 21  1  0  0  0  0
  8 25  1  0  0  0  0
  8 42  1  0  0  0  0
  9 10  1  0  0  0  0
  9 11  1  0  0  0  0
  9 15  1  0  0  0  0
 10 13  1  0  0  0  0
 10 26  1  0  0  0  0
 10 27  1  0  0  0  0
 11 12  1  0  0  0  0
 11 28  1  0  0  0  0
 11 29  1  0  0  0  0
 12 14  1  0  0  0  0
 12 32  1  0  0  0  0
 12 33  1  0  0  0  0
 13 14  1  0  0  0  0
 13 30  1  0  0  0  0
 13 31  1  0  0  0  0
 14 34  1  0  0  0  0
 14 35  1  0  0  0  0
 16 17  1  0  0  0  0
 17 19  2  0  0  0  0
 17 20  1  0  0  0  0
 18 22  1  0  0  0  0
 19 21  1  0  0  0  0
 20 23  2  0  0  0  0
 20 37  1  0  0  0  0
 21 24  2  0  0  0  0
 22 38  1  0  0  0  0
 22 39  1  0  0  0  0
 22 40  1  0  0  0  0
 23 24  1  0  0  0  0
 24 41  1  0  0  0  0
 25 43  1  0  0  0  0
M  END
> <PUBCHEM_COMPOUND_CID>
51090875

> <PUBCHEM_COMPOUND_CANONICALIZED>
1

> <PUBCHEM_CACTVS_COMPLEXITY>
501

> <PUBCHEM_CACTVS_HBOND_ACCEPTOR>
6

> <PUBCHEM_CACTVS_HBOND_DONOR>
2

> <PUBCHEM_CACTVS_ROTATABLE_BOND>
3

> <PUBCHEM_CACTVS_SUBSKEYS>
AAADceB7sQAAAAAAAAAAAAAAAAAAAWLAAAAwYAAAAAAAAFgB/AAAHwAUAAAADIiBnww30LbZkACpAydzdgCCgC21EqAh2aE4dNiIaLrA3ZGUIYholQLIyecciACOAAAAQAACACAAAACAAAQAQAAAAAAAAA==

> <PUBCHEM_IUPAC_OPENEYE_NAME>
6-fluoro-N-[1-(5-methyl-1,2,4-oxadiazol-3-yl)cyclohexyl]-1H-benzimidazole-4-carboxamide

> <PUBCHEM_IUPAC_CAS_NAME>
6-fluoro-N-[1-(5-methyl-1,2,4-oxadiazol-3-yl)cyclohexyl]-1H-benzimidazole-4-carboxamide

> <PUBCHEM_IUPAC_NAME>
6-fluoro-N-[1-(5-methyl-1,2,4-oxadiazol-3-yl)cyclohexyl]-1H-benzimidazole-4-carboxamide

> <PUBCHEM_IUPAC_SYSTEMATIC_NAME>
6-fluoranyl-N-[1-(5-methyl-1,2,4-oxadiazol-3-yl)cyclohexyl]-1H-benzimidazole-4-carboxamide

> <PUBCHEM_IUPAC_TRADITIONAL_NAME>
6-fluoro-N-[1-(5-methyl-1,2,4-oxadiazol-3-yl)cyclohexyl]-1H-benzimidazole-4-carboxamide

> <PUBCHEM_IUPAC_INCHI>
InChI=1S/C17H18FN5O2/c1-10-21-16(23-25-10)17(5-3-2-4-6-17)22-15(24)12-7-11(18)8-13-14(12)20-9-19-13/h7-9H,2-6H2,1H3,(H,19,20)(H,22,24)

> <PUBCHEM_IUPAC_INCHIKEY>
JRVFGJBDSZJHLD-UHFFFAOYSA-N

> <PUBCHEM_XLOGP3_AA>
2.6

> <PUBCHEM_EXACT_MASS>
343.144453

> <PUBCHEM_MOLECULAR_FORMULA>
C17H18FN5O2

> <PUBCHEM_MOLECULAR_WEIGHT>
343.355523

> <PUBCHEM_OPENEYE_CAN_SMILES>
CC1=NC(=NO1)C2(CCCCC2)NC(=O)C3=CC(=CC4=C3N=CN4)F

> <PUBCHEM_OPENEYE_ISO_SMILES>
CC1=NC(=NO1)C2(CCCCC2)NC(=O)C3=CC(=CC4=C3N=CN4)F

> <PUBCHEM_CACTVS_TPSA>
96.7

> <PUBCHEM_MONOISOTOPIC_WEIGHT>
343.144453

> <PUBCHEM_TOTAL_CHARGE>
0

> <PUBCHEM_HEAVY_ATOM_COUNT>
25

> <PUBCHEM_ATOM_DEF_STEREO_COUNT>
0

> <PUBCHEM_ATOM_UDEF_STEREO_COUNT>
0

> <PUBCHEM_BOND_DEF_STEREO_COUNT>
0

> <PUBCHEM_BOND_UDEF_STEREO_COUNT>
0

> <PUBCHEM_ISOTOPIC_ATOM_COUNT>
0

> <PUBCHEM_COMPONENT_COUNT>
1

> <PUBCHEM_CACTVS_TAUTO_COUNT>
7

> <PUBCHEM_COORDINATE_TYPE>
1
5
255

> <PUBCHEM_BONDANNOTATIONS>
17  19  8
17  20  8
19  21  8
2  18  8
2  6  8
20  23  8
21  24  8
23  24  8
5  15  8
5  18  8
6  15  8
7  19  8
7  25  8
8  21  8
8  25  8

$$$$

