8869
  -OEChem-06261203113D

 22 21  0     0  0  0  0  0  0999 V2000
    1.0970   -2.2023   -0.4286 S   0  0  0  0  0  0  0  0  0  0  0  0
   -1.0766   -0.6949    0.3572 O   0  0  0  0  0  0  0  0  0  0  0  0
    1.0099    0.3007    0.2714 N   0  0  0  0  0  0  0  0  0  0  0  0
   -1.8447    0.5070    0.1847 C   0  0  0  0  0  0  0  0  0  0  0  0
   -1.7212    0.9776   -1.2564 C   0  0  0  0  0  0  0  0  0  0  0  0
   -3.2909    0.2369    0.5709 C   0  0  0  0  0  0  0  0  0  0  0  0
    2.4307    0.1464   -0.0181 C   0  0  0  0  0  0  0  0  0  0  0  0
    0.2671   -0.7431    0.1105 C   0  0  0  0  0  0  0  0  0  0  0  0
    3.1287    1.4717    0.2085 C   0  0  0  0  0  0  0  0  0  0  0  0
   -1.4452    1.2724    0.8608 H   0  0  0  0  0  0  0  0  0  0  0  0
   -2.3581    1.8489   -1.4401 H   0  0  0  0  0  0  0  0  0  0  0  0
   -0.6947    1.2594   -1.5091 H   0  0  0  0  0  0  0  0  0  0  0  0
   -2.0108    0.1825   -1.9526 H   0  0  0  0  0  0  0  0  0  0  0  0
   -3.9054    1.1368    0.4726 H   0  0  0  0  0  0  0  0  0  0  0  0
   -3.3490   -0.1156    1.6063 H   0  0  0  0  0  0  0  0  0  0  0  0
   -3.7210   -0.5533   -0.0543 H   0  0  0  0  0  0  0  0  0  0  0  0
    2.9123   -0.5743    0.6547 H   0  0  0  0  0  0  0  0  0  0  0  0
    2.6125   -0.1178   -1.0675 H   0  0  0  0  0  0  0  0  0  0  0  0
    4.1992    1.3855   -0.0022 H   0  0  0  0  0  0  0  0  0  0  0  0
    2.7123    2.2493   -0.4407 H   0  0  0  0  0  0  0  0  0  0  0  0
    3.0084    1.8053    1.2447 H   0  0  0  0  0  0  0  0  0  0  0  0
    0.0163   -2.9953   -0.4645 H   0  0  0  0  0  0  0  0  0  0  0  0
  1  8  1  0  0  0  0
  1 22  1  0  0  0  0
  2  4  1  0  0  0  0
  2  8  1  0  0  0  0
  3  7  1  0  0  0  0
  3  8  2  0  0  0  0
  4  5  1  0  0  0  0
  4  6  1  0  0  0  0
  4 10  1  0  0  0  0
  5 11  1  0  0  0  0
  5 12  1  0  0  0  0
  5 13  1  0  0  0  0
  6 14  1  0  0  0  0
  6 15  1  0  0  0  0
  6 16  1  0  0  0  0
  7  9  1  0  0  0  0
  7 17  1  0  0  0  0
  7 18  1  0  0  0  0
  9 19  1  0  0  0  0
  9 20  1  0  0  0  0
  9 21  1  0  0  0  0
M  END
> <PUBCHEM_COMPOUND_CID>
8869

> <PUBCHEM_CONFORMER_RMSD>
0.6

> <PUBCHEM_CONFORMER_DIVERSEORDER>
1
14
7
4
6
5
9
13
3
8
12
10
11
2

> <PUBCHEM_MMFF94_PARTIAL_CHARGES>
7
1 -0.32
2 -0.43
22 0.18
3 -0.7
4 0.28
7 0.25
8 0.74

> <PUBCHEM_EFFECTIVE_ROTOR_COUNT>
3

> <PUBCHEM_PHARMACOPHORE_FEATURES>
1
3 4 5 6 hydrophobe

> <PUBCHEM_HEAVY_ATOM_COUNT>
9

> <PUBCHEM_ATOM_DEF_STEREO_COUNT>
0

> <PUBCHEM_ATOM_UDEF_STEREO_COUNT>
0

> <PUBCHEM_BOND_DEF_STEREO_COUNT>
0

> <PUBCHEM_BOND_UDEF_STEREO_COUNT>
0

> <PUBCHEM_ISOTOPIC_ATOM_COUNT>
0

> <PUBCHEM_COMPONENT_COUNT>
1

> <PUBCHEM_CACTVS_TAUTO_COUNT>
2

> <PUBCHEM_CONFORMER_ID>
000022A500000001

> <PUBCHEM_MMFF94_ENERGY>
25.3321

> <PUBCHEM_FEATURE_SELFOVERLAP>
5.074

> <PUBCHEM_SHAPE_FINGERPRINT>
1 1 18408322211545744622
10857977 72 17417798552949639401
12932741 1 17915742191965599287
12932764 1 17845085358556476299
14325111 11 18336263461897532042
14390081 3 18409449184767026272
15310529 11 17822010968902134993
170605 34 18412543219077412243
18380122 1 18202277018076299607
19973954 147 18196091277090516549
21028194 46 18343302561198158344
21040471 1 18335703772177872130
23211744 41 18131073752809822915
23235685 24 18408324367191948800
5084963 1 17630308960357157695
81228 2 17617107910379981994

> <PUBCHEM_SHAPE_MULTIPOLES>
178.21
4.77
1.78
0.88
0.6
0.9
-0.23
-2.24
0.59
-1.39
-0.25
0.43
-0.13
0.43

> <PUBCHEM_SHAPE_SELFOVERLAP>
315.127

> <PUBCHEM_SHAPE_VOLUME>
119.3

> <PUBCHEM_COORDINATE_TYPE>
2
5
10

$$$$

