24883455
  -OEChem-07051213103D

 28 27  0     1  0  0  0  0  0999 V2000
    4.7707   -0.2811    0.2384 S   0  0  0  0  0  0  0  0  0  0  0  0
   -0.4371    0.6420   -1.3334 O   0  0  0  0  0  0  0  0  0  0  0  0
   -0.8666   -1.8276    1.2499 O   0  0  0  0  0  0  0  0  0  0  0  0
   -0.7336   -2.0225   -1.0098 O   0  0  0  0  0  0  0  0  0  0  0  0
   -4.1517    1.2589    0.5525 O   0  0  0  0  0  0  0  0  0  0  0  0
   -3.2681   -0.0607   -1.0684 O   0  0  0  0  0  0  0  0  0  0  0  0
   -0.5817    0.1912    0.0104 C   0  0  1  0  0  0  0  0  0  0  0  0
    0.6989    0.5984    0.7755 C   0  0  0  0  0  0  0  0  0  0  0  0
    1.9936    0.0183    0.1784 C   0  0  0  0  0  0  0  0  0  0  0  0
   -1.8051    0.8844    0.6436 C   0  0  0  0  0  0  0  0  0  0  0  0
    3.2524    0.4176    0.9503 C   0  0  0  0  0  0  0  0  0  0  0  0
   -0.7338   -1.3261   -0.0039 C   0  0  0  0  0  0  0  0  0  0  0  0
   -3.1222    0.6178   -0.0616 C   0  0  0  0  0  0  0  0  0  0  0  0
    4.9842    0.8893   -1.1219 C   0  0  0  0  0  0  0  0  0  0  0  0
    0.7900    1.6927    0.7634 H   0  0  0  0  0  0  0  0  0  0  0  0
    0.6239    0.2946    1.8272 H   0  0  0  0  0  0  0  0  0  0  0  0
    2.0798    0.3513   -0.8622 H   0  0  0  0  0  0  0  0  0  0  0  0
    1.9248   -1.0761    0.1589 H   0  0  0  0  0  0  0  0  0  0  0  0
   -1.6571    1.9713    0.6123 H   0  0  0  0  0  0  0  0  0  0  0  0
   -1.9206    0.5732    1.6884 H   0  0  0  0  0  0  0  0  0  0  0  0
    3.1758    0.0449    1.9776 H   0  0  0  0  0  0  0  0  0  0  0  0
    3.3441    1.5071    1.0137 H   0  0  0  0  0  0  0  0  0  0  0  0
   -1.2453    0.4135   -1.8226 H   0  0  0  0  0  0  0  0  0  0  0  0
   -0.9616   -2.8038    1.2453 H   0  0  0  0  0  0  0  0  0  0  0  0
    5.9148    0.6578   -1.6473 H   0  0  0  0  0  0  0  0  0  0  0  0
    5.0501    1.9126   -0.7429 H   0  0  0  0  0  0  0  0  0  0  0  0
    4.1617    0.8118   -1.8368 H   0  0  0  0  0  0  0  0  0  0  0  0
   -5.0050    1.1012    0.0948 H   0  0  0  0  0  0  0  0  0  0  0  0
  1 11  1  0  0  0  0
  1 14  1  0  0  0  0
  2  7  1  0  0  0  0
  2 23  1  0  0  0  0
  3 12  1  0  0  0  0
  3 24  1  0  0  0  0
  4 12  2  0  0  0  0
  5 13  1  0  0  0  0
  5 28  1  0  0  0  0
  6 13  2  0  0  0  0
  7  8  1  0  0  0  0
  7 10  1  0  0  0  0
  7 12  1  0  0  0  0
  8  9  1  0  0  0  0
  8 15  1  0  0  0  0
  8 16  1  0  0  0  0
  9 11  1  0  0  0  0
  9 17  1  0  0  0  0
  9 18  1  0  0  0  0
 10 13  1  0  0  0  0
 10 19  1  0  0  0  0
 10 20  1  0  0  0  0
 11 21  1  0  0  0  0
 11 22  1  0  0  0  0
 14 25  1  0  0  0  0
 14 26  1  0  0  0  0
 14 27  1  0  0  0  0
M  END
> <PUBCHEM_COMPOUND_CID>
24883455

> <PUBCHEM_CONFORMER_RMSD>
0.8

> <PUBCHEM_CONFORMER_DIVERSEORDER>
1
18
162
149
155
101
20
79
141
123
96
14
102
148
147
150
116
36
99
103
166
167
154
25
83
106
67
62
110
66
72
146
50
70
120
65
77
76
127
32
85
59
80
111
4
71
160
129
170
57
107
30
28
92
165
88
48
104
98
60
49
19
3
158
43
64
128
157
39
163
143
126
122
74
168
21
52
124
6
44
135
142
87
100
54
117
17
105
63
33
56
144
31
133
131
145
139
86
82
8
115
108
169
112
58
130
13
68
151
164
156
34
94
109
125
16
9
53
132
113
152
97
91
81
73
114
47
84
7
134
78
35
137
93
41
24
95
121
51
27
75
2
15
26
38
136
90
22
159
153
46
161
119
23
5
138
140
55
29
89
12
37
61
118
40
69
10
42
45
11

> <PUBCHEM_MMFF94_PARTIAL_CHARGES>
15
1 -0.46
10 0.06
11 0.23
12 0.66
13 0.66
14 0.23
2 -0.68
23 0.4
24 0.5
28 0.5
3 -0.65
4 -0.57
5 -0.65
6 -0.57
7 0.34

> <PUBCHEM_EFFECTIVE_ROTOR_COUNT>
7

> <PUBCHEM_PHARMACOPHORE_FEATURES>
10
1 14 hydrophobe
1 2 acceptor
1 2 donor
1 3 acceptor
1 4 acceptor
1 5 acceptor
1 6 acceptor
3 3 4 12 anion
3 5 6 13 anion
4 1 8 9 11 hydrophobe

> <PUBCHEM_HEAVY_ATOM_COUNT>
14

> <PUBCHEM_ATOM_DEF_STEREO_COUNT>
0

> <PUBCHEM_ATOM_UDEF_STEREO_COUNT>
1

> <PUBCHEM_BOND_DEF_STEREO_COUNT>
0

> <PUBCHEM_BOND_UDEF_STEREO_COUNT>
0

> <PUBCHEM_ISOTOPIC_ATOM_COUNT>
0

> <PUBCHEM_COMPONENT_COUNT>
1

> <PUBCHEM_CACTVS_TAUTO_COUNT>
1

> <PUBCHEM_CONFORMER_ID>
017BB0FF00000001

> <PUBCHEM_MMFF94_ENERGY>
18.8716

> <PUBCHEM_FEATURE_SELFOVERLAP>
50.871

> <PUBCHEM_SHAPE_FINGERPRINT>
10922049 32 18187082871113294379
11315181 36 15502091939464009914
12932764 1 17774739592791430160
13024252 1 13830139390178909659
13214271 11 15913325771513899976
14115302 16 18334290947096975176
14943859 89 17989487424698792400
14993402 34 18202292385337558997
15375358 24 17748831796084763472
16945 1 18131077060340751241
18186145 218 17968109632609590016
187816 3 17603867818643176793
200 152 5256404989702165744
20279233 1 17458344126993409850
20325693 3 18335405843270991564
20645476 183 18201717319387104922
20645477 56 17917438605632724820
20645477 70 15719385166892345708
20671657 53 5833986170166308386
20871999 31 18338515219152077358
23402539 116 17822020829809806800
23419403 2 17762292128511193755
23559900 14 17749396949504230968
366044 4 18260833717247534571
4175511 318 18272655640668234188
449060 50 16487252188233361080

> <PUBCHEM_SHAPE_MULTIPOLES>
262.62
8.49
1.46
1.17
7.89
0.77
0.15
-2.84
1.1
-0.78
-0.02
0.24
0.04
-0.46

> <PUBCHEM_SHAPE_SELFOVERLAP>
491.44

> <PUBCHEM_SHAPE_VOLUME>
165.5

> <PUBCHEM_COORDINATE_TYPE>
2
5
10

$$$$

