443686
  -OEChem-07051213022D

 47 50  0     1  0  0  0  0  0999 V2000
    2.5405   -0.5892    0.0000 O   0  0  0  0  0  0  0  0  0  0  0  0
    2.5247   -2.6374    0.0000 O   0  0  0  0  0  0  0  0  0  0  0  0
    4.2986   -3.6616    0.0000 O   0  0  0  0  0  0  0  0  0  0  0  0
    2.5247    2.4528    0.0000 O   0  0  0  0  0  0  0  0  0  0  0  0
    4.2986    3.4770    0.0000 O   0  0  0  0  0  0  0  0  0  0  0  0
    6.0427   -0.5923    0.0000 N   0  0  3  0  0  0  0  0  0  0  0  0
    5.1767   -1.0923    0.0000 C   0  0  1  0  0  0  0  0  0  0  0  0
    4.3107   -0.5923    0.0000 C   0  0  1  0  0  0  0  0  0  0  0  0
    3.4007   -1.0991    0.0000 C   0  0  1  0  0  0  0  0  0  0  0  0
    5.1928   -2.1338    0.0000 C   0  0  0  0  0  0  0  0  0  0  0  0
    3.3926   -2.1407    0.0000 C   0  0  2  0  0  0  0  0  0  0  0  0
    4.2947   -2.6616    0.0000 C   0  0  2  0  0  0  0  0  0  0  0  0
    4.3107    0.4077    0.0000 C   0  0  0  0  0  0  0  0  0  0  0  0
    6.6606   -1.3706    0.0000 C   0  0  0  0  0  0  0  0  0  0  0  0
    6.0427    0.4077    0.0000 C   0  0  0  0  0  0  0  0  0  0  0  0
    6.1808   -2.2409    0.0000 C   0  0  0  0  0  0  0  0  0  0  0  0
    5.1767    0.9077    0.0000 C   0  0  0  0  0  0  0  0  0  0  0  0
    3.4007    0.9146    0.0000 C   0  0  0  0  0  0  0  0  0  0  0  0
    5.1928    1.9492    0.0000 C   0  0  0  0  0  0  0  0  0  0  0  0
    3.3926    1.9562    0.0000 C   0  0  0  0  0  0  0  0  0  0  0  0
    4.2947    2.4770    0.0000 C   0  0  0  0  0  0  0  0  0  0  0  0
    2.5208   -3.6374    0.0000 C   0  0  0  0  0  0  0  0  0  0  0  0
    2.5208    3.4528    0.0000 C   0  0  0  0  0  0  0  0  0  0  0  0
    5.1665    3.9736    0.0000 C   0  0  0  0  0  0  0  0  0  0  0  0
    4.4406   -1.5173    0.0000 H   0  0  0  0  0  0  0  0  0  0  0  0
    5.0468   -0.1673    0.0000 H   0  0  0  0  0  0  0  0  0  0  0  0
    2.8608   -1.4040    0.0000 H   0  0  0  0  0  0  0  0  0  0  0  0
    3.3914   -2.7607    0.0000 H   0  0  0  0  0  0  0  0  0  0  0  0
    4.8334   -2.9684    0.0000 H   0  0  0  0  0  0  0  0  0  0  0  0
    7.1595   -1.7389    0.0000 H   0  0  0  0  0  0  0  0  0  0  0  0
    7.0913   -0.9246    0.0000 H   0  0  0  0  0  0  0  0  0  0  0  0
    6.6533    0.3000    0.0000 H   0  0  0  0  0  0  0  0  0  0  0  0
    6.2548    0.9903    0.0000 H   0  0  0  0  0  0  0  0  0  0  0  0
    6.4668   -2.7910    0.0000 H   0  0  0  0  0  0  0  0  0  0  0  0
    2.8674    0.5984    0.0000 H   0  0  0  0  0  0  0  0  0  0  0  0
    2.0000   -0.8929    0.0000 H   0  0  0  0  0  0  0  0  0  0  0  0
    5.7332    2.2530    0.0000 H   0  0  0  0  0  0  0  0  0  0  0  0
    3.7628   -3.9736    0.0000 H   0  0  0  0  0  0  0  0  0  0  0  0
    1.9008   -3.6350    0.0000 H   0  0  0  0  0  0  0  0  0  0  0  0
    2.5184   -4.2574    0.0000 H   0  0  0  0  0  0  0  0  0  0  0  0
    3.1408   -3.6398    0.0000 H   0  0  0  0  0  0  0  0  0  0  0  0
    3.1408    3.4552    0.0000 H   0  0  0  0  0  0  0  0  0  0  0  0
    2.5184    4.0728    0.0000 H   0  0  0  0  0  0  0  0  0  0  0  0
    1.9008    3.4504    0.0000 H   0  0  0  0  0  0  0  0  0  0  0  0
    5.4744    3.4355    0.0000 H   0  0  0  0  0  0  0  0  0  0  0  0
    5.7046    4.2815    0.0000 H   0  0  0  0  0  0  0  0  0  0  0  0
    4.8586    4.5117    0.0000 H   0  0  0  0  0  0  0  0  0  0  0  0
  9  1  1  1  0  0  0
  1 36  1  0  0  0  0
 11  2  1  6  0  0  0
  2 22  1  0  0  0  0
 12  3  1  1  0  0  0
  3 38  1  0  0  0  0
  4 20  1  0  0  0  0
  4 23  1  0  0  0  0
  5 21  1  0  0  0  0
  5 24  1  0  0  0  0
  6  7  1  0  0  0  0
  6 14  1  0  0  0  0
  6 15  1  0  0  0  0
  7  8  1  0  0  0  0
  7 10  1  0  0  0  0
  7 25  1  1  0  0  0
  8  9  1  0  0  0  0
  8 13  1  0  0  0  0
  8 26  1  6  0  0  0
  9 11  1  0  0  0  0
  9 27  1  0  0  0  0
 10 12  1  0  0  0  0
 10 16  2  0  0  0  0
 11 12  1  0  0  0  0
 11 28  1  0  0  0  0
 12 29  1  0  0  0  0
 13 17  1  0  0  0  0
 13 18  2  0  0  0  0
 14 16  1  0  0  0  0
 14 30  1  0  0  0  0
 14 31  1  0  0  0  0
 15 17  1  0  0  0  0
 15 32  1  0  0  0  0
 15 33  1  0  0  0  0
 16 34  1  0  0  0  0
 17 19  2  0  0  0  0
 18 20  1  0  0  0  0
 18 35  1  0  0  0  0
 19 21  1  0  0  0  0
 19 37  1  0  0  0  0
 20 21  2  0  0  0  0
 22 39  1  0  0  0  0
 22 40  1  0  0  0  0
 22 41  1  0  0  0  0
 23 42  1  0  0  0  0
 23 43  1  0  0  0  0
 23 44  1  0  0  0  0
 24 45  1  0  0  0  0
 24 46  1  0  0  0  0
 24 47  1  0  0  0  0
M  END
> <PUBCHEM_COMPOUND_CID>
443686

> <PUBCHEM_COMPOUND_CANONICALIZED>
1

> <PUBCHEM_CACTVS_COMPLEXITY>
512

> <PUBCHEM_CACTVS_HBOND_ACCEPTOR>
6

> <PUBCHEM_CACTVS_HBOND_DONOR>
2

> <PUBCHEM_CACTVS_ROTATABLE_BOND>
3

> <PUBCHEM_CACTVS_SUBSKEYS>
AAADceB6OAAAAAAAAAAAAAAAAAAAAQAAAAA8YIAAAAAAAECxAAAAHgAACAAADTzhmAYyBoMABgCAAiBCAACCCAAgIAAAiAAOjIgNNiKEsRuEcCpnwBGLuAew8P8OoAABAAAQQABAgAIUADSAAAAAAAAAAA==

> <PUBCHEM_IUPAC_INCHI>
InChI=1S/C18H23NO5/c1-22-12-6-9-8-19-5-4-10-15(19)14(11(9)7-13(12)23-2)17(21)18(24-3)16(10)20/h4,6-7,14-18,20-21H,5,8H2,1-3H3/t14-,15+,16+,17-,18-/m0/s1

> <PUBCHEM_IUPAC_INCHIKEY>
OHZXJDOKMFHAFO-PNKHAZJDSA-N

> <PUBCHEM_XLOGP3_AA>
-0.4

> <PUBCHEM_EXACT_MASS>
333.157623

> <PUBCHEM_MOLECULAR_FORMULA>
C18H23NO5

> <PUBCHEM_MOLECULAR_WEIGHT>
333.37892

> <PUBCHEM_OPENEYE_CAN_SMILES>
COC1C(C2C3C(=CCN3CC4=CC(=C(C=C24)OC)OC)C1O)O

> <PUBCHEM_OPENEYE_ISO_SMILES>
CO[C@@H]1[C@H]([C@@H]2[C@H]3C(=CCN3CC4=CC(=C(C=C24)OC)OC)[C@H]1O)O

> <PUBCHEM_CACTVS_TPSA>
71.4

> <PUBCHEM_MONOISOTOPIC_WEIGHT>
333.157623

> <PUBCHEM_TOTAL_CHARGE>
0

> <PUBCHEM_HEAVY_ATOM_COUNT>
24

> <PUBCHEM_ATOM_DEF_STEREO_COUNT>
5

> <PUBCHEM_ATOM_UDEF_STEREO_COUNT>
0

> <PUBCHEM_BOND_DEF_STEREO_COUNT>
0

> <PUBCHEM_BOND_UDEF_STEREO_COUNT>
0

> <PUBCHEM_ISOTOPIC_ATOM_COUNT>
0

> <PUBCHEM_COMPONENT_COUNT>
1

> <PUBCHEM_CACTVS_TAUTO_COUNT>
1

> <PUBCHEM_COORDINATE_TYPE>
1
5
255

> <PUBCHEM_BONDANNOTATIONS>
9  1  5
13  17  8
13  18  8
17  19  8
18  20  8
19  21  8
11  2  6
20  21  8
12  3  5
7  25  5
8  26  6

$$$$

