443028
  -OEChem-07051213002D

 62 65  0     1  0  0  0  0  0999 V2000
    4.6557   -0.0018    0.0000 O   0  0  0  0  0  0  0  0  0  0  0  0
    7.7244   -0.0018    0.0000 O   0  0  0  0  0  0  0  0  0  0  0  0
    2.6691    3.1252    0.0000 O   0  0  0  0  0  0  0  0  0  0  0  0
    9.7191   -3.1200    0.0000 O   0  0  0  0  0  0  0  0  0  0  0  0
    5.9637    4.1956    0.0000 O   0  0  0  0  0  0  0  0  0  0  0  0
    6.4264   -4.1962    0.0000 O   0  0  0  0  0  0  0  0  0  0  0  0
    4.0074    4.6114    0.0000 O   0  0  0  0  0  0  0  0  0  0  0  0
    8.3834   -4.6086    0.0000 O   0  0  0  0  0  0  0  0  0  0  0  0
    6.1945   -0.5018    0.0000 C   0  0  1  0  0  0  0  0  0  0  0  0
    6.1945    0.4982    0.0000 C   0  0  1  0  0  0  0  0  0  0  0  0
    5.2435    0.8072    0.0000 C   0  0  1  0  0  0  0  0  0  0  0  0
    7.1407   -0.8065    0.0000 C   0  0  1  0  0  0  0  0  0  0  0  0
    7.1407    0.8029    0.0000 C   0  0  0  0  0  0  0  0  0  0  0  0
    5.2435   -0.8108    0.0000 C   0  0  0  0  0  0  0  0  0  0  0  0
    4.9344    1.7583    0.0000 C   0  0  0  0  0  0  0  0  0  0  0  0
    7.4514   -1.7570    0.0000 C   0  0  0  0  0  0  0  0  0  0  0  0
    5.6036    2.5014    0.0000 C   0  0  0  0  0  0  0  0  0  0  0  0
    6.7836   -2.5013    0.0000 C   0  0  0  0  0  0  0  0  0  0  0  0
    3.9563    1.9662    0.0000 C   0  0  0  0  0  0  0  0  0  0  0  0
    8.4299   -1.9633    0.0000 C   0  0  0  0  0  0  0  0  0  0  0  0
    3.6473    2.9172    0.0000 C   0  0  0  0  0  0  0  0  0  0  0  0
    8.7406   -2.9138    0.0000 C   0  0  0  0  0  0  0  0  0  0  0  0
    5.2946    3.4525    0.0000 C   0  0  0  0  0  0  0  0  0  0  0  0
    7.0942   -3.4519    0.0000 C   0  0  0  0  0  0  0  0  0  0  0  0
    4.3164    3.6604    0.0000 C   0  0  0  0  0  0  0  0  0  0  0  0
    8.0727   -3.6581    0.0000 C   0  0  0  0  0  0  0  0  0  0  0  0
    2.0000    2.3820    0.0000 C   0  0  0  0  0  0  0  0  0  0  0  0
   10.3869   -2.3757    0.0000 C   0  0  0  0  0  0  0  0  0  0  0  0
    5.6547    5.1467    0.0000 C   0  0  0  0  0  0  0  0  0  0  0  0
    6.7370   -5.1467    0.0000 C   0  0  0  0  0  0  0  0  0  0  0  0
    3.0292    4.8194    0.0000 C   0  0  0  0  0  0  0  0  0  0  0  0
    9.3619   -4.8148    0.0000 C   0  0  0  0  0  0  0  0  0  0  0  0
    6.1956    1.3482    0.0000 H   0  0  0  0  0  0  0  0  0  0  0  0
    6.1956   -1.3518    0.0000 H   0  0  0  0  0  0  0  0  0  0  0  0
    7.7532   -0.9027    0.0000 H   0  0  0  0  0  0  0  0  0  0  0  0
    4.6311    0.9042    0.0000 H   0  0  0  0  0  0  0  0  0  0  0  0
    7.6781    1.1122    0.0000 H   0  0  0  0  0  0  0  0  0  0  0  0
    6.8897    1.3698    0.0000 H   0  0  0  0  0  0  0  0  0  0  0  0
    4.7065   -1.1208    0.0000 H   0  0  0  0  0  0  0  0  0  0  0  0
    5.4956   -1.3772    0.0000 H   0  0  0  0  0  0  0  0  0  0  0  0
    6.2100    2.3725    0.0000 H   0  0  0  0  0  0  0  0  0  0  0  0
    6.1769   -2.3735    0.0000 H   0  0  0  0  0  0  0  0  0  0  0  0
    3.5414    1.5054    0.0000 H   0  0  0  0  0  0  0  0  0  0  0  0
    8.8440   -1.5018    0.0000 H   0  0  0  0  0  0  0  0  0  0  0  0
   10.8484   -2.7898    0.0000 H   0  0  0  0  0  0  0  0  0  0  0  0
   10.8010   -1.9142    0.0000 H   0  0  0  0  0  0  0  0  0  0  0  0
    9.9254   -1.9616    0.0000 H   0  0  0  0  0  0  0  0  0  0  0  0
    1.5392    2.7969    0.0000 H   0  0  0  0  0  0  0  0  0  0  0  0
    1.5851    1.9213    0.0000 H   0  0  0  0  0  0  0  0  0  0  0  0
    2.4608    1.9672    0.0000 H   0  0  0  0  0  0  0  0  0  0  0  0
    6.1477   -5.3393    0.0000 H   0  0  0  0  0  0  0  0  0  0  0  0
    6.9296   -5.7360    0.0000 H   0  0  0  0  0  0  0  0  0  0  0  0
    7.3264   -4.9541    0.0000 H   0  0  0  0  0  0  0  0  0  0  0  0
    6.2443    5.3383    0.0000 H   0  0  0  0  0  0  0  0  0  0  0  0
    5.4631    5.7363    0.0000 H   0  0  0  0  0  0  0  0  0  0  0  0
    5.0650    4.9551    0.0000 H   0  0  0  0  0  0  0  0  0  0  0  0
    3.1582    5.4258    0.0000 H   0  0  0  0  0  0  0  0  0  0  0  0
    2.4228    4.9483    0.0000 H   0  0  0  0  0  0  0  0  0  0  0  0
    2.9003    4.2129    0.0000 H   0  0  0  0  0  0  0  0  0  0  0  0
    9.2340   -5.4215    0.0000 H   0  0  0  0  0  0  0  0  0  0  0  0
    9.9686   -4.9427    0.0000 H   0  0  0  0  0  0  0  0  0  0  0  0
    9.4898   -4.2082    0.0000 H   0  0  0  0  0  0  0  0  0  0  0  0
  1 11  1  0  0  0  0
  1 14  1  0  0  0  0
  2 12  1  0  0  0  0
  2 13  1  0  0  0  0
  3 21  1  0  0  0  0
  3 27  1  0  0  0  0
  4 22  1  0  0  0  0
  4 28  1  0  0  0  0
  5 23  1  0  0  0  0
  5 29  1  0  0  0  0
  6 24  1  0  0  0  0
  6 30  1  0  0  0  0
  7 25  1  0  0  0  0
  7 31  1  0  0  0  0
  8 26  1  0  0  0  0
  8 32  1  0  0  0  0
  9 10  1  0  0  0  0
  9 12  1  0  0  0  0
  9 14  1  0  0  0  0
  9 34  1  6  0  0  0
 10 11  1  0  0  0  0
 10 13  1  0  0  0  0
 10 33  1  6  0  0  0
 11 15  1  6  0  0  0
 11 36  1  0  0  0  0
 12 16  1  6  0  0  0
 12 35  1  0  0  0  0
 13 37  1  0  0  0  0
 13 38  1  0  0  0  0
 14 39  1  0  0  0  0
 14 40  1  0  0  0  0
 15 17  2  0  0  0  0
 15 19  1  0  0  0  0
 16 18  2  0  0  0  0
 16 20  1  0  0  0  0
 17 23  1  0  0  0  0
 17 41  1  0  0  0  0
 18 24  1  0  0  0  0
 18 42  1  0  0  0  0
 19 21  2  0  0  0  0
 19 43  1  0  0  0  0
 20 22  2  0  0  0  0
 20 44  1  0  0  0  0
 21 25  1  0  0  0  0
 22 26  1  0  0  0  0
 23 25  2  0  0  0  0
 24 26  2  0  0  0  0
 27 48  1  0  0  0  0
 27 49  1  0  0  0  0
 27 50  1  0  0  0  0
 28 45  1  0  0  0  0
 28 46  1  0  0  0  0
 28 47  1  0  0  0  0
 29 54  1  0  0  0  0
 29 55  1  0  0  0  0
 29 56  1  0  0  0  0
 30 51  1  0  0  0  0
 30 52  1  0  0  0  0
 30 53  1  0  0  0  0
 31 57  1  0  0  0  0
 31 58  1  0  0  0  0
 31 59  1  0  0  0  0
 32 60  1  0  0  0  0
 32 61  1  0  0  0  0
 32 62  1  0  0  0  0
M  END
> <PUBCHEM_COMPOUND_CID>
443028

> <PUBCHEM_COMPOUND_CANONICALIZED>
1

> <PUBCHEM_CACTVS_COMPLEXITY>
512

> <PUBCHEM_CACTVS_HBOND_ACCEPTOR>
8

> <PUBCHEM_CACTVS_HBOND_DONOR>
0

> <PUBCHEM_CACTVS_ROTATABLE_BOND>
8

> <PUBCHEM_CACTVS_SUBSKEYS>
AAADceB4PAAAAAAAAAAAAAAAAAAAASJAAAAwYAAAAAASAAABQAAAGgAAAAAADRSgmAIyBoAABACAAiBCAAACCAAgIAAAiAAGiIgNJyKEMRqCMCIlwBUKqAfA4PwOoAABCAAAQABAAAIQAACAAAAAAAAAAA==

> <PUBCHEM_IUPAC_OPENEYE_NAME>
(3S,3aR,6S,6aR)-3,6-bis(3,4,5-trimethoxyphenyl)-1,3,3a,4,6,6a-hexahydrofuro[3,4-c]furan

> <PUBCHEM_IUPAC_CAS_NAME>
(3S,3aR,6S,6aR)-3,6-bis(3,4,5-trimethoxyphenyl)-1,3,3a,4,6,6a-hexahydrofuro[3,4-c]furan

> <PUBCHEM_IUPAC_NAME>
(3S,3aR,6S,6aR)-3,6-bis(3,4,5-trimethoxyphenyl)-1,3,3a,4,6,6a-hexahydrofuro[3,4-c]furan

> <PUBCHEM_IUPAC_SYSTEMATIC_NAME>
(3S,3aR,6S,6aR)-3,6-bis(3,4,5-trimethoxyphenyl)-1,3,3a,4,6,6a-hexahydrofuro[3,4-c]furan

> <PUBCHEM_IUPAC_TRADITIONAL_NAME>
(3S,3aR,6S,6aR)-3,6-bis(3,4,5-trimethoxyphenyl)-1,3,3a,4,6,6a-hexahydrofuro[3,4-c]furan

> <PUBCHEM_IUPAC_INCHI>
InChI=1S/C24H30O8/c1-25-17-7-13(8-18(26-2)23(17)29-5)21-15-11-32-22(16(15)12-31-21)14-9-19(27-3)24(30-6)20(10-14)28-4/h7-10,15-16,21-22H,11-12H2,1-6H3/t15-,16-,21+,22+/m0/s1

> <PUBCHEM_IUPAC_INCHIKEY>
HRLFUIXSXUASEX-RZTYQLBFSA-N

> <PUBCHEM_XLOGP3_AA>
2.9

> <PUBCHEM_EXACT_MASS>
446.194068

> <PUBCHEM_MOLECULAR_FORMULA>
C24H30O8

> <PUBCHEM_MOLECULAR_WEIGHT>
446.4902

> <PUBCHEM_OPENEYE_CAN_SMILES>
COC1=CC(=CC(=C1OC)OC)C2C3COC(C3CO2)C4=CC(=C(C(=C4)OC)OC)OC

> <PUBCHEM_OPENEYE_ISO_SMILES>
COC1=CC(=CC(=C1OC)OC)[C@@H]2[C@H]3CO[C@@H]([C@H]3CO2)C4=CC(=C(C(=C4)OC)OC)OC

> <PUBCHEM_CACTVS_TPSA>
73.8

> <PUBCHEM_MONOISOTOPIC_WEIGHT>
446.194068

> <PUBCHEM_TOTAL_CHARGE>
0

> <PUBCHEM_HEAVY_ATOM_COUNT>
32

> <PUBCHEM_ATOM_DEF_STEREO_COUNT>
4

> <PUBCHEM_ATOM_UDEF_STEREO_COUNT>
0

> <PUBCHEM_BOND_DEF_STEREO_COUNT>
0

> <PUBCHEM_BOND_UDEF_STEREO_COUNT>
0

> <PUBCHEM_ISOTOPIC_ATOM_COUNT>
0

> <PUBCHEM_COMPONENT_COUNT>
1

> <PUBCHEM_CACTVS_TAUTO_COUNT>
1

> <PUBCHEM_COORDINATE_TYPE>
1
5
255

> <PUBCHEM_BONDANNOTATIONS>
10  33  6
11  15  6
12  16  6
15  17  8
15  19  8
16  18  8
16  20  8
17  23  8
18  24  8
19  21  8
20  22  8
21  25  8
22  26  8
23  25  8
24  26  8
9  34  6

$$$$

