17395337
  -OEChem-06241222492D

 52 54  0     0  0  0  0  0  0999 V2000
    6.3301   -1.0000    0.0000 O   0  0  0  0  0  0  0  0  0  0  0  0
    2.8660   -4.0000    0.0000 O   0  0  0  0  0  0  0  0  0  0  0  0
    4.5981   -5.0000    0.0000 O   0  0  0  0  0  0  0  0  0  0  0  0
    6.3301    4.0000    0.0000 N   0  0  0  0  0  0  0  0  0  0  0  0
    4.5981   -1.0000    0.0000 N   0  0  0  0  0  0  0  0  0  0  0  0
    7.1962    3.5000    0.0000 C   0  0  0  0  0  0  0  0  0  0  0  0
    6.3301    5.0000    0.0000 C   0  0  0  0  0  0  0  0  0  0  0  0
    7.1962    5.5000    0.0000 C   0  0  0  0  0  0  0  0  0  0  0  0
    8.0622    4.0000    0.0000 C   0  0  0  0  0  0  0  0  0  0  0  0
    8.0622    5.0000    0.0000 C   0  0  0  0  0  0  0  0  0  0  0  0
    5.4641    3.5000    0.0000 C   0  0  0  0  0  0  0  0  0  0  0  0
    5.4641    2.5000    0.0000 C   0  0  0  0  0  0  0  0  0  0  0  0
    4.5981    2.0000    0.0000 C   0  0  0  0  0  0  0  0  0  0  0  0
    6.3301    2.0000    0.0000 C   0  0  0  0  0  0  0  0  0  0  0  0
    4.5981    1.0000    0.0000 C   0  0  0  0  0  0  0  0  0  0  0  0
    6.3301    1.0000    0.0000 C   0  0  0  0  0  0  0  0  0  0  0  0
    5.4641    0.5000    0.0000 C   0  0  0  0  0  0  0  0  0  0  0  0
    5.4641   -0.5000    0.0000 C   0  0  0  0  0  0  0  0  0  0  0  0
    4.5981   -2.0000    0.0000 C   0  0  0  0  0  0  0  0  0  0  0  0
    3.7320   -2.5000    0.0000 C   0  0  0  0  0  0  0  0  0  0  0  0
    5.4641   -2.5000    0.0000 C   0  0  0  0  0  0  0  0  0  0  0  0
    3.7320   -3.5000    0.0000 C   0  0  0  0  0  0  0  0  0  0  0  0
    4.5981   -4.0000    0.0000 C   0  0  0  0  0  0  0  0  0  0  0  0
    5.4641   -3.5000    0.0000 C   0  0  0  0  0  0  0  0  0  0  0  0
    2.0000   -3.5000    0.0000 C   0  0  0  0  0  0  0  0  0  0  0  0
    5.4641   -5.5000    0.0000 C   0  0  0  0  0  0  0  0  0  0  0  0
    6.7976    3.0250    0.0000 H   0  0  0  0  0  0  0  0  0  0  0  0
    7.5947    3.0250    0.0000 H   0  0  0  0  0  0  0  0  0  0  0  0
    6.1181    5.5826    0.0000 H   0  0  0  0  0  0  0  0  0  0  0  0
    5.7196    4.8923    0.0000 H   0  0  0  0  0  0  0  0  0  0  0  0
    8.2742    3.4174    0.0000 H   0  0  0  0  0  0  0  0  0  0  0  0
    8.6728    4.1077    0.0000 H   0  0  0  0  0  0  0  0  0  0  0  0
    7.5947    5.9750    0.0000 H   0  0  0  0  0  0  0  0  0  0  0  0
    6.7976    5.9750    0.0000 H   0  0  0  0  0  0  0  0  0  0  0  0
    8.6728    4.8923    0.0000 H   0  0  0  0  0  0  0  0  0  0  0  0
    8.2742    5.5826    0.0000 H   0  0  0  0  0  0  0  0  0  0  0  0
    5.2520    4.0826    0.0000 H   0  0  0  0  0  0  0  0  0  0  0  0
    4.8535    3.3923    0.0000 H   0  0  0  0  0  0  0  0  0  0  0  0
    4.0611    2.3100    0.0000 H   0  0  0  0  0  0  0  0  0  0  0  0
    6.8671    2.3100    0.0000 H   0  0  0  0  0  0  0  0  0  0  0  0
    4.0611    0.6900    0.0000 H   0  0  0  0  0  0  0  0  0  0  0  0
    6.8671    0.6900    0.0000 H   0  0  0  0  0  0  0  0  0  0  0  0
    4.0611   -0.6900    0.0000 H   0  0  0  0  0  0  0  0  0  0  0  0
    3.1951   -2.1900    0.0000 H   0  0  0  0  0  0  0  0  0  0  0  0
    6.0010   -2.1900    0.0000 H   0  0  0  0  0  0  0  0  0  0  0  0
    6.0010   -3.8100    0.0000 H   0  0  0  0  0  0  0  0  0  0  0  0
    2.3100   -2.9631    0.0000 H   0  0  0  0  0  0  0  0  0  0  0  0
    1.4631   -3.1900    0.0000 H   0  0  0  0  0  0  0  0  0  0  0  0
    1.6900   -4.0369    0.0000 H   0  0  0  0  0  0  0  0  0  0  0  0
    5.1541   -6.0369    0.0000 H   0  0  0  0  0  0  0  0  0  0  0  0
    6.0010   -5.8100    0.0000 H   0  0  0  0  0  0  0  0  0  0  0  0
    5.7741   -4.9631    0.0000 H   0  0  0  0  0  0  0  0  0  0  0  0
  1 18  2  0  0  0  0
  2 22  1  0  0  0  0
  2 25  1  0  0  0  0
  3 23  1  0  0  0  0
  3 26  1  0  0  0  0
  4  6  1  0  0  0  0
  4  7  1  0  0  0  0
  4 11  1  0  0  0  0
  5 18  1  0  0  0  0
  5 19  1  0  0  0  0
  5 43  1  0  0  0  0
  6  9  1  0  0  0  0
  6 27  1  0  0  0  0
  6 28  1  0  0  0  0
  7  8  1  0  0  0  0
  7 29  1  0  0  0  0
  7 30  1  0  0  0  0
  8 10  1  0  0  0  0
  8 33  1  0  0  0  0
  8 34  1  0  0  0  0
  9 10  1  0  0  0  0
  9 31  1  0  0  0  0
  9 32  1  0  0  0  0
 10 35  1  0  0  0  0
 10 36  1  0  0  0  0
 11 12  1  0  0  0  0
 11 37  1  0  0  0  0
 11 38  1  0  0  0  0
 12 13  2  0  0  0  0
 12 14  1  0  0  0  0
 13 15  1  0  0  0  0
 13 39  1  0  0  0  0
 14 16  2  0  0  0  0
 14 40  1  0  0  0  0
 15 17  2  0  0  0  0
 15 41  1  0  0  0  0
 16 17  1  0  0  0  0
 16 42  1  0  0  0  0
 17 18  1  0  0  0  0
 19 20  2  0  0  0  0
 19 21  1  0  0  0  0
 20 22  1  0  0  0  0
 20 44  1  0  0  0  0
 21 24  2  0  0  0  0
 21 45  1  0  0  0  0
 22 23  2  0  0  0  0
 23 24  1  0  0  0  0
 24 46  1  0  0  0  0
 25 47  1  0  0  0  0
 25 48  1  0  0  0  0
 25 49  1  0  0  0  0
 26 50  1  0  0  0  0
 26 51  1  0  0  0  0
 26 52  1  0  0  0  0
M  END
> <PUBCHEM_COMPOUND_CID>
17395337

> <PUBCHEM_COMPOUND_CANONICALIZED>
1

> <PUBCHEM_CACTVS_COMPLEXITY>
431

> <PUBCHEM_CACTVS_HBOND_ACCEPTOR>
4

> <PUBCHEM_CACTVS_HBOND_DONOR>
1

> <PUBCHEM_CACTVS_ROTATABLE_BOND>
6

> <PUBCHEM_CACTVS_SUBSKEYS>
AAADceB7MAAAAAAAAAAAAAAAAAAAAAAAAAA8YIAAAAAAAAABQAAAHgAQAAAADAzBmAYyxoPABACIAiVSUACCCAAlIgAIiAEO7MgNJjLEtZuEMSpm1BnK6Ye42AOOQEAAAgAAQACAgAAEAACAAAAAAAAAAA==

> <PUBCHEM_IUPAC_OPENEYE_NAME>
N-(3,4-dimethoxyphenyl)-4-(1-piperidylmethyl)benzamide

> <PUBCHEM_IUPAC_CAS_NAME>
N-(3,4-dimethoxyphenyl)-4-(1-piperidinylmethyl)benzamide

> <PUBCHEM_IUPAC_NAME>
N-(3,4-dimethoxyphenyl)-4-(piperidin-1-ylmethyl)benzamide

> <PUBCHEM_IUPAC_SYSTEMATIC_NAME>
N-(3,4-dimethoxyphenyl)-4-(piperidin-1-ylmethyl)benzamide

> <PUBCHEM_IUPAC_TRADITIONAL_NAME>
N-(3,4-dimethoxyphenyl)-4-(piperidinomethyl)benzamide

> <PUBCHEM_IUPAC_INCHI>
InChI=1S/C21H26N2O3/c1-25-19-11-10-18(14-20(19)26-2)22-21(24)17-8-6-16(7-9-17)15-23-12-4-3-5-13-23/h6-11,14H,3-5,12-13,15H2,1-2H3,(H,22,24)

> <PUBCHEM_IUPAC_INCHIKEY>
IWASLNGUOHRSCJ-UHFFFAOYSA-N

> <PUBCHEM_XLOGP3_AA>
3.4

> <PUBCHEM_EXACT_MASS>
354.194343

> <PUBCHEM_MOLECULAR_FORMULA>
C21H26N2O3

> <PUBCHEM_MOLECULAR_WEIGHT>
354.44274

> <PUBCHEM_OPENEYE_CAN_SMILES>
COC1=C(C=C(C=C1)NC(=O)C2=CC=C(C=C2)CN3CCCCC3)OC

> <PUBCHEM_OPENEYE_ISO_SMILES>
COC1=C(C=C(C=C1)NC(=O)C2=CC=C(C=C2)CN3CCCCC3)OC

> <PUBCHEM_CACTVS_TPSA>
50.8

> <PUBCHEM_MONOISOTOPIC_WEIGHT>
354.194343

> <PUBCHEM_TOTAL_CHARGE>
0

> <PUBCHEM_HEAVY_ATOM_COUNT>
26

> <PUBCHEM_ATOM_DEF_STEREO_COUNT>
0

> <PUBCHEM_ATOM_UDEF_STEREO_COUNT>
0

> <PUBCHEM_BOND_DEF_STEREO_COUNT>
0

> <PUBCHEM_BOND_UDEF_STEREO_COUNT>
0

> <PUBCHEM_ISOTOPIC_ATOM_COUNT>
0

> <PUBCHEM_COMPONENT_COUNT>
1

> <PUBCHEM_CACTVS_TAUTO_COUNT>
2

> <PUBCHEM_COORDINATE_TYPE>
1
5
255

> <PUBCHEM_BONDANNOTATIONS>
12  13  8
12  14  8
13  15  8
14  16  8
15  17  8
16  17  8
19  20  8
19  21  8
20  22  8
21  24  8
22  23  8
23  24  8

$$$$

