439804
  -OEChem-07051212473D

 23 23  0     1  0  0  0  0  0999 V2000
   -0.7872   -0.8882   -0.2032 O   0  0  0  0  0  0  0  0  0  0  0  0
    0.3545    1.5525   -1.2445 O   0  0  0  0  0  0  0  0  0  0  0  0
    2.6832    1.3410    0.2228 O   0  0  0  0  0  0  0  0  0  0  0  0
    0.4542   -2.8638   -0.4092 O   0  0  0  0  0  0  0  0  0  0  0  0
   -3.3075    0.0820    0.2529 O   0  0  0  0  0  0  0  0  0  0  0  0
    0.2683    1.2791    0.1555 C   0  0  2  0  0  0  0  0  0  0  0  0
    1.5496    0.5672    0.5944 C   0  0  1  0  0  0  0  0  0  0  0  0
   -0.9454    0.3827    0.4442 C   0  0  1  0  0  0  0  0  0  0  0  0
    1.6324   -0.8249   -0.0238 C   0  0  0  0  0  0  0  0  0  0  0  0
    0.3548   -1.6103    0.2595 C   0  0  1  0  0  0  0  0  0  0  0  0
   -2.2568    0.9828   -0.0485 C   0  0  0  0  0  0  0  0  0  0  0  0
    0.1775    2.2454    0.6629 H   0  0  0  0  0  0  0  0  0  0  0  0
    1.5599    0.4778    1.6870 H   0  0  0  0  0  0  0  0  0  0  0  0
   -1.0314    0.1968    1.5230 H   0  0  0  0  0  0  0  0  0  0  0  0
    1.8025   -0.7528   -1.1062 H   0  0  0  0  0  0  0  0  0  0  0  0
    2.5084   -1.3624    0.3600 H   0  0  0  0  0  0  0  0  0  0  0  0
    0.2544   -1.8060    1.3342 H   0  0  0  0  0  0  0  0  0  0  0  0
   -2.2472    1.1221   -1.1343 H   0  0  0  0  0  0  0  0  0  0  0  0
   -2.4577    1.9423    0.4379 H   0  0  0  0  0  0  0  0  0  0  0  0
    0.2322    0.7175   -1.7269 H   0  0  0  0  0  0  0  0  0  0  0  0
    2.6647    1.4495   -0.7435 H   0  0  0  0  0  0  0  0  0  0  0  0
   -0.1243   -3.4861    0.0634 H   0  0  0  0  0  0  0  0  0  0  0  0
   -4.1323    0.4859   -0.0666 H   0  0  0  0  0  0  0  0  0  0  0  0
  1  8  1  0  0  0  0
  1 10  1  0  0  0  0
  2  6  1  0  0  0  0
  2 20  1  0  0  0  0
  3  7  1  0  0  0  0
  3 21  1  0  0  0  0
  4 10  1  0  0  0  0
  4 22  1  0  0  0  0
  5 11  1  0  0  0  0
  5 23  1  0  0  0  0
  6  7  1  0  0  0  0
  6  8  1  0  0  0  0
  6 12  1  0  0  0  0
  7  9  1  0  0  0  0
  7 13  1  0  0  0  0
  8 11  1  0  0  0  0
  8 14  1  0  0  0  0
  9 10  1  0  0  0  0
  9 15  1  0  0  0  0
  9 16  1  0  0  0  0
 10 17  1  0  0  0  0
 11 18  1  0  0  0  0
 11 19  1  0  0  0  0
M  END
> <PUBCHEM_COMPOUND_CID>
439804

> <PUBCHEM_CONFORMER_RMSD>
0.6

> <PUBCHEM_CONFORMER_DIVERSEORDER>
1
4
5
2
3

> <PUBCHEM_MMFF94_PARTIAL_CHARGES>
14
1 -0.56
10 0.56
11 0.28
2 -0.68
20 0.4
21 0.4
22 0.4
23 0.4
3 -0.68
4 -0.68
5 -0.68
6 0.28
7 0.28
8 0.28

> <PUBCHEM_EFFECTIVE_ROTOR_COUNT>
2.2

> <PUBCHEM_PHARMACOPHORE_FEATURES>
10
1 1 acceptor
1 2 acceptor
1 2 donor
1 3 acceptor
1 3 donor
1 4 acceptor
1 4 donor
1 5 acceptor
1 5 donor
6 1 6 7 8 9 10 rings

> <PUBCHEM_HEAVY_ATOM_COUNT>
11

> <PUBCHEM_ATOM_DEF_STEREO_COUNT>
3

> <PUBCHEM_ATOM_UDEF_STEREO_COUNT>
1

> <PUBCHEM_BOND_DEF_STEREO_COUNT>
0

> <PUBCHEM_BOND_UDEF_STEREO_COUNT>
0

> <PUBCHEM_ISOTOPIC_ATOM_COUNT>
0

> <PUBCHEM_COMPONENT_COUNT>
1

> <PUBCHEM_CACTVS_TAUTO_COUNT>
1

> <PUBCHEM_CONFORMER_ID>
0006B5FC00000001

> <PUBCHEM_MMFF94_ENERGY>
22.8563

> <PUBCHEM_FEATURE_SELFOVERLAP>
50.803

> <PUBCHEM_SHAPE_FINGERPRINT>
1 1 18409166627495389303
10219947 1 18343585135633924753
12423570 1 4891008890279371792
137420 1 15363386278906722163
161256 15 18124312967516714165
16945 1 18191869139459730017
193761 8 17760929941020207072
20711978 78 17973461071686827956
21040471 1 18337392617416049752
23235685 24 18411142394019173600
23552423 10 18193271017006722945
241688 4 17257087597987950802
2748010 2 18410852135960858606
29004967 10 18200308947991836001
528862 383 18341621442020545139

> <PUBCHEM_SHAPE_MULTIPOLES>
197.03
3.18
2.21
0.78
2.12
1.33
-0.1
-0.75
0.36
-1.04
-0.37
-0.05
-0.18
0.14

> <PUBCHEM_SHAPE_SELFOVERLAP>
389.592

> <PUBCHEM_SHAPE_VOLUME>
115.6

> <PUBCHEM_COORDINATE_TYPE>
2
5
10

$$$$

