6311
  -OEChem-06261201143D

 64 68  0     0  0  0  0  0  0999 V2000
   -3.1407   -1.7242    1.1826 O   0  0  0  0  0  0  0  0  0  0  0  0
    3.1378    1.7284    1.1755 O   0  0  0  0  0  0  0  0  0  0  0  0
  -10.0280   -0.5448    0.5833 N   0  0  0  0  0  0  0  0  0  0  0  0
   10.0250    0.5454    0.5819 N   0  0  0  0  0  0  0  0  0  0  0  0
   -9.8294    0.7518   -1.4041 N   0  0  0  0  0  0  0  0  0  0  0  0
    9.8265   -0.7574   -1.4016 N   0  0  0  0  0  0  0  0  0  0  0  0
   -3.6284    0.2970    0.0954 N   0  0  0  0  0  0  0  0  0  0  0  0
    3.6466   -0.2958    0.0930 N   0  0  0  0  0  0  0  0  0  0  0  0
  -11.9118   -0.5195   -0.9129 C   0  0  0  0  0  0  0  0  0  0  0  0
   11.9093    0.5148   -0.9137 C   0  0  0  0  0  0  0  0  0  0  0  0
  -11.4687   -0.6542    0.5351 C   0  0  0  0  0  0  0  0  0  0  0  0
   11.4657    0.6542    0.5337 C   0  0  0  0  0  0  0  0  0  0  0  0
  -11.2947    0.7364   -1.5185 C   0  0  0  0  0  0  0  0  0  0  0  0
   11.2920   -0.7428   -1.5155 C   0  0  0  0  0  0  0  0  0  0  0  0
   -9.3099    0.1394   -0.3834 C   0  0  0  0  0  0  0  0  0  0  0  0
    9.3070   -0.1417   -0.3829 C   0  0  0  0  0  0  0  0  0  0  0  0
   -7.8182    0.1805   -0.2574 C   0  0  0  0  0  0  0  0  0  0  0  0
    7.8153   -0.1820   -0.2572 C   0  0  0  0  0  0  0  0  0  0  0  0
   -7.1400   -0.8749    0.3524 C   0  0  0  0  0  0  0  0  0  0  0  0
    7.1371    0.8755    0.3492 C   0  0  0  0  0  0  0  0  0  0  0  0
   -7.1068    1.2745   -0.7504 C   0  0  0  0  0  0  0  0  0  0  0  0
    7.1038   -1.2773   -0.7471 C   0  0  0  0  0  0  0  0  0  0  0  0
   -5.0393    0.2575   -0.0241 C   0  0  0  0  0  0  0  0  0  0  0  0
    5.0363   -0.2575   -0.0245 C   0  0  0  0  0  0  0  0  0  0  0  0
   -5.7506   -0.8365    0.4691 C   0  0  0  0  0  0  0  0  0  0  0  0
    5.7477    0.8377    0.4654 C   0  0  0  0  0  0  0  0  0  0  0  0
   -5.7176    1.3130   -0.6338 C   0  0  0  0  0  0  0  0  0  0  0  0
    5.7144   -1.3151   -0.6307 C   0  0  0  0  0  0  0  0  0  0  0  0
   -1.3588   -0.3198    0.6688 C   0  0  0  0  0  0  0  0  0  0  0  0
    1.3559    0.3224    0.6666 C   0  0  0  0  0  0  0  0  0  0  0  0
   -2.7739   -0.6547    0.6693 C   0  0  0  0  0  0  0  0  0  0  0  0
    2.8025    0.6646    0.6660 C   0  0  0  0  0  0  0  0  0  0  0  0
   -0.4021   -1.3349    0.6701 C   0  0  0  0  0  0  0  0  0  0  0  0
    0.9553   -1.0138    0.6690 C   0  0  0  0  0  0  0  0  0  0  0  0
   -0.9583    1.0163    0.6663 C   0  0  0  0  0  0  0  0  0  0  0  0
    0.3990    1.3373    0.6651 C   0  0  0  0  0  0  0  0  0  0  0  0
  -11.5843   -1.3981   -1.4831 H   0  0  0  0  0  0  0  0  0  0  0  0
  -13.0044   -0.4763   -0.9744 H   0  0  0  0  0  0  0  0  0  0  0  0
   13.0018    0.4713   -0.9748 H   0  0  0  0  0  0  0  0  0  0  0  0
   11.5821    1.3917   -1.4867 H   0  0  0  0  0  0  0  0  0  0  0  0
  -11.9128    0.1380    1.1474 H   0  0  0  0  0  0  0  0  0  0  0  0
  -11.7867   -1.6173    0.9465 H   0  0  0  0  0  0  0  0  0  0  0  0
   11.9094   -0.1363    1.1486 H   0  0  0  0  0  0  0  0  0  0  0  0
   11.7839    1.6184    0.9423 H   0  0  0  0  0  0  0  0  0  0  0  0
  -11.7001    1.6364   -1.0415 H   0  0  0  0  0  0  0  0  0  0  0  0
  -11.5587    0.7871   -2.5804 H   0  0  0  0  0  0  0  0  0  0  0  0
   11.6968   -1.6413   -1.0356 H   0  0  0  0  0  0  0  0  0  0  0  0
   11.5562   -0.7968   -2.5772 H   0  0  0  0  0  0  0  0  0  0  0  0
   -9.5679   -0.9320    1.4016 H   0  0  0  0  0  0  0  0  0  0  0  0
    9.5647    0.9352    1.3989 H   0  0  0  0  0  0  0  0  0  0  0  0
   -7.6652   -1.7485    0.7284 H   0  0  0  0  0  0  0  0  0  0  0  0
    7.6624    1.7501    0.7226 H   0  0  0  0  0  0  0  0  0  0  0  0
   -7.6129    2.1128   -1.2217 H   0  0  0  0  0  0  0  0  0  0  0  0
    7.6098   -2.1172   -1.2155 H   0  0  0  0  0  0  0  0  0  0  0  0
   -5.2969   -1.6920    0.9487 H   0  0  0  0  0  0  0  0  0  0  0  0
    5.2957    1.6957    0.9426 H   0  0  0  0  0  0  0  0  0  0  0  0
   -5.1758    2.1725   -1.0203 H   0  0  0  0  0  0  0  0  0  0  0  0
    5.1731   -2.1760   -1.0149 H   0  0  0  0  0  0  0  0  0  0  0  0
   -3.2129    1.1193   -0.3338 H   0  0  0  0  0  0  0  0  0  0  0  0
    3.2210   -1.1164   -0.3290 H   0  0  0  0  0  0  0  0  0  0  0  0
   -0.6933   -2.3822    0.6749 H   0  0  0  0  0  0  0  0  0  0  0  0
    1.6635   -1.8359    0.7065 H   0  0  0  0  0  0  0  0  0  0  0  0
   -1.6645    1.8404    0.7030 H   0  0  0  0  0  0  0  0  0  0  0  0
    0.6912    2.3842    0.6664 H   0  0  0  0  0  0  0  0  0  0  0  0
  1 31  2  0  0  0  0
  2 32  2  0  0  0  0
  3 11  1  0  0  0  0
  3 15  1  0  0  0  0
  3 49  1  0  0  0  0
  4 12  1  0  0  0  0
  4 16  1  0  0  0  0
  4 50  1  0  0  0  0
  5 13  1  0  0  0  0
  5 15  2  0  0  0  0
  6 14  1  0  0  0  0
  6 16  2  0  0  0  0
  7 23  1  0  0  0  0
  7 31  1  0  0  0  0
  7 59  1  0  0  0  0
  8 24  1  0  0  0  0
  8 32  1  0  0  0  0
  8 60  1  0  0  0  0
  9 11  1  0  0  0  0
  9 13  1  0  0  0  0
  9 37  1  0  0  0  0
  9 38  1  0  0  0  0
 10 12  1  0  0  0  0
 10 14  1  0  0  0  0
 10 39  1  0  0  0  0
 10 40  1  0  0  0  0
 11 41  1  0  0  0  0
 11 42  1  0  0  0  0
 12 43  1  0  0  0  0
 12 44  1  0  0  0  0
 13 45  1  0  0  0  0
 13 46  1  0  0  0  0
 14 47  1  0  0  0  0
 14 48  1  0  0  0  0
 15 17  1  0  0  0  0
 16 18  1  0  0  0  0
 17 19  2  0  0  0  0
 17 21  1  0  0  0  0
 18 20  2  0  0  0  0
 18 22  1  0  0  0  0
 19 25  1  0  0  0  0
 19 51  1  0  0  0  0
 20 26  1  0  0  0  0
 20 52  1  0  0  0  0
 21 27  2  0  0  0  0
 21 53  1  0  0  0  0
 22 28  2  0  0  0  0
 22 54  1  0  0  0  0
 23 25  2  0  0  0  0
 23 27  1  0  0  0  0
 24 26  2  0  0  0  0
 24 28  1  0  0  0  0
 25 55  1  0  0  0  0
 26 56  1  0  0  0  0
 27 57  1  0  0  0  0
 28 58  1  0  0  0  0
 29 31  1  0  0  0  0
 29 33  2  0  0  0  0
 29 35  1  0  0  0  0
 30 32  1  0  0  0  0
 30 34  2  0  0  0  0
 30 36  1  0  0  0  0
 33 34  1  0  0  0  0
 33 61  1  0  0  0  0
 34 62  1  0  0  0  0
 35 36  2  0  0  0  0
 35 63  1  0  0  0  0
 36 64  1  0  0  0  0
M  END
> <PUBCHEM_COMPOUND_CID>
6311

> <PUBCHEM_CONFORMER_RMSD>
1

> <PUBCHEM_CONFORMER_DIVERSEORDER>
2
1
4
3
5

> <PUBCHEM_MMFF94_PARTIAL_CHARGES>
50
1 -0.57
11 0.37
12 0.37
13 0.25
14 0.25
15 0.41
16 0.41
17 0.09
18 0.09
19 -0.15
2 -0.57
20 -0.15
21 -0.15
22 -0.15
23 0.12
24 0.12
25 -0.15
26 -0.15
27 -0.15
28 -0.15
29 0.09
3 -0.82
30 0.09
31 0.54
32 0.54
33 -0.15
34 -0.15
35 -0.15
36 -0.15
4 -0.82
49 0.4
5 -0.7
50 0.4
51 0.15
52 0.15
53 0.15
54 0.15
55 0.15
56 0.15
57 0.15
58 0.15
59 0.37
6 -0.7
60 0.37
61 0.15
62 0.15
63 0.15
64 0.15
7 -0.55
8 -0.55

> <PUBCHEM_EFFECTIVE_ROTOR_COUNT>
9.6

> <PUBCHEM_PHARMACOPHORE_FEATURES>
13
1 1 acceptor
1 2 acceptor
1 3 donor
1 4 donor
1 7 donor
1 8 donor
3 3 5 15 cation
3 4 6 16 cation
6 17 19 21 23 25 27 rings
6 18 20 22 24 26 28 rings
6 29 30 33 34 35 36 rings
6 3 5 9 11 13 15 rings
6 4 6 10 12 14 16 rings

> <PUBCHEM_HEAVY_ATOM_COUNT>
36

> <PUBCHEM_ATOM_DEF_STEREO_COUNT>
0

> <PUBCHEM_ATOM_UDEF_STEREO_COUNT>
0

> <PUBCHEM_BOND_DEF_STEREO_COUNT>
0

> <PUBCHEM_BOND_UDEF_STEREO_COUNT>
0

> <PUBCHEM_ISOTOPIC_ATOM_COUNT>
0

> <PUBCHEM_COMPONENT_COUNT>
1

> <PUBCHEM_CACTVS_TAUTO_COUNT>
6

> <PUBCHEM_CONFORMER_ID>
000018A700000002

> <PUBCHEM_MMFF94_ENERGY>
114.9766

> <PUBCHEM_FEATURE_SELFOVERLAP>
65.966

> <PUBCHEM_SHAPE_FINGERPRINT>
10 15 10015865375229322553
10165383 225 17346601871857543059
10580692 12 18410575106137915408
10883706 142 14836125459822511898
11408170 108 16298374803859435694
12498461 61 7420935488557166717
12522641 33 18335138712916285766
12559415 90 15841558487221523116
12664476 115 15626224615067670359
13383668 1 17822848806297201238
14251764 46 17703791414116699339
14251920 1 13912320187710402699
14344974 52 18272932691554459517
15061470 23 15626229026742901055
15219723 13 14764078883088200016
15247644 1 15791450426539257271
15510794 2 18410009918591325499
155225 1 15482670182628371188
15773216 30 17916310605060510563
15840311 113 16845569790499242805
15890870 6 18409729573180977150
16728433 110 17458348520750644872
16992610 120 17275102825848270211
20501277 279 10375871878879211740
21057603 130 16081376245337080916
21102433 48 15285358431483100228
21792961 116 18113335315657174401
21895431 317 15792005727889225102
232437 2 15719392836627464318
23399689 5 16630806620946811093
23528940 14 5472846105817931173
23581129 1 18411981355740037210
3092352 35 15913329082749011179
335352 9 18410855464423129288
3991529 128 16487253288399181533
4017518 198 18335137583609100759
4874694 18 18411417315620115282
5028188 123 16845289415941663699
6673363 416 18412266164735931421
67123 10 18410856559639789577
9663363 56 18334577937223001448

> <PUBCHEM_SHAPE_MULTIPOLES>
699.24
54.66
1.33
1.15
0.18
0
0.25
-0.06
21.24
-0.01
-0.11
0.01
0
2.57

> <PUBCHEM_SHAPE_SELFOVERLAP>
1523.384

> <PUBCHEM_SHAPE_VOLUME>
374

> <PUBCHEM_COORDINATE_TYPE>
2
5
10

$$$$

