17395992
  -OEChem-06241222532D

 44 44  0     1  0  0  0  0  0999 V2000
    4.7320   -0.7500    0.0000 O   0  0  0  0  0  0  0  0  0  0  0  0
    4.7320   -2.7500    0.0000 O   0  0  0  0  0  0  0  0  0  0  0  0
    3.8660    0.7500    0.0000 O   0  0  0  0  0  0  0  0  0  0  0  0
    8.1962    3.2500    0.0000 O   0  0  0  0  0  0  0  0  0  0  0  0
    3.0000   -2.7500    0.0000 N   0  0  0  0  0  0  0  0  0  0  0  0
    6.4641    3.2500    0.0000 N   0  0  0  0  0  0  0  0  0  0  0  0
    3.0000   -3.7500    0.0000 C   0  0  0  0  0  0  0  0  0  0  0  0
    3.0000   -4.7500    0.0000 C   0  0  0  0  0  0  0  0  0  0  0  0
    2.0000   -3.7500    0.0000 C   0  0  0  0  0  0  0  0  0  0  0  0
    4.0000   -3.7500    0.0000 C   0  0  0  0  0  0  0  0  0  0  0  0
    3.8660   -2.2500    0.0000 C   0  0  0  0  0  0  0  0  0  0  0  0
    3.8660   -1.2500    0.0000 C   0  0  3  0  0  0  0  0  0  0  0  0
    3.0000   -0.7500    0.0000 C   0  0  0  0  0  0  0  0  0  0  0  0
    4.7320    0.2500    0.0000 C   0  0  0  0  0  0  0  0  0  0  0  0
    5.5981    0.7500    0.0000 C   0  0  0  0  0  0  0  0  0  0  0  0
    5.5981    1.7500    0.0000 C   0  0  0  0  0  0  0  0  0  0  0  0
    6.4641    2.2500    0.0000 C   0  0  0  0  0  0  0  0  0  0  0  0
    6.4641    0.2500    0.0000 C   0  0  0  0  0  0  0  0  0  0  0  0
    7.3301    1.7500    0.0000 C   0  0  0  0  0  0  0  0  0  0  0  0
    7.3301    0.7500    0.0000 C   0  0  0  0  0  0  0  0  0  0  0  0
    7.3301    3.7500    0.0000 C   0  0  0  0  0  0  0  0  0  0  0  0
    7.3301    4.7500    0.0000 C   0  0  0  0  0  0  0  0  0  0  0  0
    2.4631   -2.4400    0.0000 H   0  0  0  0  0  0  0  0  0  0  0  0
    4.0000   -4.3700    0.0000 H   0  0  0  0  0  0  0  0  0  0  0  0
    4.6200   -3.7500    0.0000 H   0  0  0  0  0  0  0  0  0  0  0  0
    2.3800   -4.7500    0.0000 H   0  0  0  0  0  0  0  0  0  0  0  0
    3.0000   -5.3700    0.0000 H   0  0  0  0  0  0  0  0  0  0  0  0
    3.6200   -4.7500    0.0000 H   0  0  0  0  0  0  0  0  0  0  0  0
    2.0000   -3.1300    0.0000 H   0  0  0  0  0  0  0  0  0  0  0  0
    1.3800   -3.7500    0.0000 H   0  0  0  0  0  0  0  0  0  0  0  0
    2.0000   -4.3700    0.0000 H   0  0  0  0  0  0  0  0  0  0  0  0
    4.0000   -3.1300    0.0000 H   0  0  0  0  0  0  0  0  0  0  0  0
    3.8660   -0.6300    0.0000 H   0  0  0  0  0  0  0  0  0  0  0  0
    3.3100   -0.2131    0.0000 H   0  0  0  0  0  0  0  0  0  0  0  0
    2.4631   -0.4400    0.0000 H   0  0  0  0  0  0  0  0  0  0  0  0
    2.6900   -1.2869    0.0000 H   0  0  0  0  0  0  0  0  0  0  0  0
    5.0611    2.0600    0.0000 H   0  0  0  0  0  0  0  0  0  0  0  0
    6.4641   -0.3700    0.0000 H   0  0  0  0  0  0  0  0  0  0  0  0
    7.8671    2.0600    0.0000 H   0  0  0  0  0  0  0  0  0  0  0  0
    7.8671    0.4400    0.0000 H   0  0  0  0  0  0  0  0  0  0  0  0
    5.9272    3.5600    0.0000 H   0  0  0  0  0  0  0  0  0  0  0  0
    7.9501    4.7500    0.0000 H   0  0  0  0  0  0  0  0  0  0  0  0
    7.3301    5.3700    0.0000 H   0  0  0  0  0  0  0  0  0  0  0  0
    6.7101    4.7500    0.0000 H   0  0  0  0  0  0  0  0  0  0  0  0
  1 12  1  0  0  0  0
  1 14  1  0  0  0  0
  2 11  2  0  0  0  0
  3 14  2  0  0  0  0
  4 21  2  0  0  0  0
  5  7  1  0  0  0  0
  5 11  1  0  0  0  0
  5 23  1  0  0  0  0
  6 17  1  0  0  0  0
  6 21  1  0  0  0  0
  6 41  1  0  0  0  0
  7  8  1  0  0  0  0
  7  9  1  0  0  0  0
  7 10  1  0  0  0  0
  8 26  1  0  0  0  0
  8 27  1  0  0  0  0
  8 28  1  0  0  0  0
  9 29  1  0  0  0  0
  9 30  1  0  0  0  0
  9 31  1  0  0  0  0
 10 24  1  0  0  0  0
 10 25  1  0  0  0  0
 10 32  1  0  0  0  0
 11 12  1  0  0  0  0
 12 13  1  0  0  0  0
 12 33  1  0  0  0  0
 13 34  1  0  0  0  0
 13 35  1  0  0  0  0
 13 36  1  0  0  0  0
 14 15  1  0  0  0  0
 15 16  2  0  0  0  0
 15 18  1  0  0  0  0
 16 17  1  0  0  0  0
 16 37  1  0  0  0  0
 17 19  2  0  0  0  0
 18 20  2  0  0  0  0
 18 38  1  0  0  0  0
 19 20  1  0  0  0  0
 19 39  1  0  0  0  0
 20 40  1  0  0  0  0
 21 22  1  0  0  0  0
 22 42  1  0  0  0  0
 22 43  1  0  0  0  0
 22 44  1  0  0  0  0
M  END
> <PUBCHEM_COMPOUND_CID>
17395992

> <PUBCHEM_COMPOUND_CANONICALIZED>
1

> <PUBCHEM_CACTVS_COMPLEXITY>
428

> <PUBCHEM_CACTVS_HBOND_ACCEPTOR>
4

> <PUBCHEM_CACTVS_HBOND_DONOR>
2

> <PUBCHEM_CACTVS_ROTATABLE_BOND>
6

> <PUBCHEM_CACTVS_SUBSKEYS>
AAADceB7OAAAAAAAAAAAAAAAAAAAAAAAAAAwAAAAAAAAAAABAAAAHgAQAAAADJyhmAIyyILABACIAiXSWAKCAAAlAgAIiAFAbMgKJjLAtZ2HMQhk1AHY6Ye8yCCOAAAAQAAAAAAAAACAAAAAAAAAAAAAAA==

> <PUBCHEM_IUPAC_OPENEYE_NAME>
[2-(tert-butylamino)-1-methyl-2-oxo-ethyl] 3-acetamidobenzoate

> <PUBCHEM_IUPAC_CAS_NAME>
3-acetamidobenzoic acid [1-(tert-butylamino)-1-oxopropan-2-yl] ester

> <PUBCHEM_IUPAC_NAME>
[1-(tert-butylamino)-1-oxopropan-2-yl] 3-acetamidobenzoate

> <PUBCHEM_IUPAC_SYSTEMATIC_NAME>
[1-(tert-butylamino)-1-oxidanylidene-propan-2-yl] 3-acetamidobenzoate

> <PUBCHEM_IUPAC_TRADITIONAL_NAME>
3-acetamidobenzoic acid [2-(tert-butylamino)-2-keto-1-methyl-ethyl] ester

> <PUBCHEM_IUPAC_INCHI>
InChI=1S/C16H22N2O4/c1-10(14(20)18-16(3,4)5)22-15(21)12-7-6-8-13(9-12)17-11(2)19/h6-10H,1-5H3,(H,17,19)(H,18,20)

> <PUBCHEM_IUPAC_INCHIKEY>
AQLASVBWQVOJJZ-UHFFFAOYSA-N

> <PUBCHEM_XLOGP3_AA>
1.7

> <PUBCHEM_EXACT_MASS>
306.157957

> <PUBCHEM_MOLECULAR_FORMULA>
C16H22N2O4

> <PUBCHEM_MOLECULAR_WEIGHT>
306.35688

> <PUBCHEM_OPENEYE_CAN_SMILES>
CC(C(=O)NC(C)(C)C)OC(=O)C1=CC(=CC=C1)NC(=O)C

> <PUBCHEM_OPENEYE_ISO_SMILES>
CC(C(=O)NC(C)(C)C)OC(=O)C1=CC(=CC=C1)NC(=O)C

> <PUBCHEM_CACTVS_TPSA>
84.5

> <PUBCHEM_MONOISOTOPIC_WEIGHT>
306.157957

> <PUBCHEM_TOTAL_CHARGE>
0

> <PUBCHEM_HEAVY_ATOM_COUNT>
22

> <PUBCHEM_ATOM_DEF_STEREO_COUNT>
0

> <PUBCHEM_ATOM_UDEF_STEREO_COUNT>
1

> <PUBCHEM_BOND_DEF_STEREO_COUNT>
0

> <PUBCHEM_BOND_UDEF_STEREO_COUNT>
0

> <PUBCHEM_ISOTOPIC_ATOM_COUNT>
0

> <PUBCHEM_COMPONENT_COUNT>
1

> <PUBCHEM_CACTVS_TAUTO_COUNT>
6

> <PUBCHEM_COORDINATE_TYPE>
1
5
255

> <PUBCHEM_BONDANNOTATIONS>
12  13  3
15  16  8
15  18  8
16  17  8
17  19  8
18  20  8
19  20  8

$$$$

