122281
  -OEChem-07051212503D

 65 69  0     1  0  0  0  0  0999 V2000
   -2.1465    0.1719    0.8575 O   0  0  0  0  0  0  0  0  0  0  0  0
   -1.1089    3.1611    0.4017 O   0  0  0  0  0  0  0  0  0  0  0  0
   -4.2736    0.5716   -0.0137 O   0  0  0  0  0  0  0  0  0  0  0  0
   -2.7468   -2.5851    1.0099 O   0  0  0  0  0  0  0  0  0  0  0  0
    8.8343   -1.3407   -0.7690 O   0  0  0  0  0  0  0  0  0  0  0  0
   -5.6373   -3.0809    1.2795 O   0  0  0  0  0  0  0  0  0  0  0  0
   -7.0830   -1.6386   -0.7888 O   0  0  0  0  0  0  0  0  0  0  0  0
   -7.4159    0.9311   -1.5379 O   0  0  0  0  0  0  0  0  0  0  0  0
   -6.0954    2.3342   -0.3198 O   0  0  0  0  0  0  0  0  0  0  0  0
    0.9638    1.8272    0.1859 C   0  0  1  0  0  0  0  0  0  0  0  0
    1.1423    0.2956    0.2474 C   0  0  2  0  0  0  0  0  0  0  0  0
    2.5140   -0.1471   -0.2626 C   0  0  1  0  0  0  0  0  0  0  0  0
   -0.4883    1.9218    0.6945 C   0  0  2  0  0  0  0  0  0  0  0  0
    3.6130    0.4876    0.6430 C   0  0  2  0  0  0  0  0  0  0  0  0
   -0.1179   -0.2426   -0.4317 C   0  0  0  0  0  0  0  0  0  0  0  0
    2.0098    2.4652    1.1086 C   0  0  0  0  0  0  0  0  0  0  0  0
   -1.2125    0.7680   -0.0331 C   0  0  1  0  0  0  0  0  0  0  0  0
    3.4409    2.0272    0.7424 C   0  0  0  0  0  0  0  0  0  0  0  0
    2.6812   -1.6679   -0.2540 C   0  0  0  0  0  0  0  0  0  0  0  0
    1.0854    2.4407   -1.2315 C   0  0  0  0  0  0  0  0  0  0  0  0
    5.0061    0.0173    0.2331 C   0  0  0  0  0  0  0  0  0  0  0  0
    4.0080   -2.0472   -0.9050 C   0  0  0  0  0  0  0  0  0  0  0  0
    5.1761   -1.2020   -0.4589 C   0  0  0  0  0  0  0  0  0  0  0  0
    6.1562    0.7345    0.6076 C   0  0  0  0  0  0  0  0  0  0  0  0
   -3.2471   -0.4031    0.1541 C   0  0  2  0  0  0  0  0  0  0  0  0
    6.4681   -1.6402   -0.7992 C   0  0  0  0  0  0  0  0  0  0  0  0
   -3.7649   -1.5852    0.9739 C   0  0  1  0  0  0  0  0  0  0  0  0
    7.4343    0.2834    0.2706 C   0  0  0  0  0  0  0  0  0  0  0  0
    7.5905   -0.9015   -0.4366 C   0  0  0  0  0  0  0  0  0  0  0  0
   -5.0328   -2.1748    0.3556 C   0  0  2  0  0  0  0  0  0  0  0  0
   -5.3928    0.0620   -0.7296 C   0  0  1  0  0  0  0  0  0  0  0  0
   -6.0526   -1.0839    0.0272 C   0  0  1  0  0  0  0  0  0  0  0  0
   -6.3077    1.2401   -0.8211 C   0  0  0  0  0  0  0  0  0  0  0  0
    1.0765   -0.0227    1.3016 H   0  0  0  0  0  0  0  0  0  0  0  0
    2.6472    0.1941   -1.2974 H   0  0  0  0  0  0  0  0  0  0  0  0
   -0.5334    1.7814    1.7822 H   0  0  0  0  0  0  0  0  0  0  0  0
    3.4699    0.0959    1.6622 H   0  0  0  0  0  0  0  0  0  0  0  0
    0.0070   -0.2543   -1.5203 H   0  0  0  0  0  0  0  0  0  0  0  0
   -0.3455   -1.2628   -0.1068 H   0  0  0  0  0  0  0  0  0  0  0  0
    1.8165    2.1756    2.1498 H   0  0  0  0  0  0  0  0  0  0  0  0
    1.9394    3.5591    1.0760 H   0  0  0  0  0  0  0  0  0  0  0  0
   -1.7282    1.1542   -0.9227 H   0  0  0  0  0  0  0  0  0  0  0  0
    3.7457    2.4959   -0.2010 H   0  0  0  0  0  0  0  0  0  0  0  0
    4.1064    2.4334    1.5129 H   0  0  0  0  0  0  0  0  0  0  0  0
    1.8678   -2.1605   -0.7981 H   0  0  0  0  0  0  0  0  0  0  0  0
    2.6496   -2.0441    0.7767 H   0  0  0  0  0  0  0  0  0  0  0  0
    2.0665    2.2705   -1.6827 H   0  0  0  0  0  0  0  0  0  0  0  0
    0.3419    2.0402   -1.9275 H   0  0  0  0  0  0  0  0  0  0  0  0
    0.9386    3.5265   -1.1945 H   0  0  0  0  0  0  0  0  0  0  0  0
    3.9140   -1.9418   -1.9935 H   0  0  0  0  0  0  0  0  0  0  0  0
    4.2119   -3.1039   -0.6936 H   0  0  0  0  0  0  0  0  0  0  0  0
   -2.0379    3.0954    0.6815 H   0  0  0  0  0  0  0  0  0  0  0  0
    6.0835    1.6564    1.1766 H   0  0  0  0  0  0  0  0  0  0  0  0
   -2.9126   -0.7663   -0.8285 H   0  0  0  0  0  0  0  0  0  0  0  0
    6.5960   -2.5690   -1.3516 H   0  0  0  0  0  0  0  0  0  0  0  0
   -3.9512   -1.2763    2.0101 H   0  0  0  0  0  0  0  0  0  0  0  0
    8.2991    0.8684    0.5724 H   0  0  0  0  0  0  0  0  0  0  0  0
   -4.7918   -2.7601   -0.5407 H   0  0  0  0  0  0  0  0  0  0  0  0
   -5.0871   -0.2121   -1.7470 H   0  0  0  0  0  0  0  0  0  0  0  0
   -6.5266   -0.7273    0.9500 H   0  0  0  0  0  0  0  0  0  0  0  0
   -3.0465   -3.2902    1.6078 H   0  0  0  0  0  0  0  0  0  0  0  0
    9.4921   -0.7055   -0.4374 H   0  0  0  0  0  0  0  0  0  0  0  0
   -5.0186   -3.8175    1.4180 H   0  0  0  0  0  0  0  0  0  0  0  0
   -6.6769   -1.9549   -1.6138 H   0  0  0  0  0  0  0  0  0  0  0  0
   -8.0310    1.6920   -1.6080 H   0  0  0  0  0  0  0  0  0  0  0  0
  1 17  1  0  0  0  0
  1 25  1  0  0  0  0
  2 13  1  0  0  0  0
  2 52  1  0  0  0  0
  3 25  1  0  0  0  0
  3 31  1  0  0  0  0
  4 27  1  0  0  0  0
  4 61  1  0  0  0  0
  5 29  1  0  0  0  0
  5 62  1  0  0  0  0
  6 30  1  0  0  0  0
  6 63  1  0  0  0  0
  7 32  1  0  0  0  0
  7 64  1  0  0  0  0
  8 33  1  0  0  0  0
  8 65  1  0  0  0  0
  9 33  2  0  0  0  0
 10 11  1  0  0  0  0
 10 13  1  0  0  0  0
 10 16  1  0  0  0  0
 10 20  1  0  0  0  0
 11 12  1  0  0  0  0
 11 15  1  0  0  0  0
 11 34  1  0  0  0  0
 12 14  1  0  0  0  0
 12 19  1  0  0  0  0
 12 35  1  0  0  0  0
 13 17  1  0  0  0  0
 13 36  1  0  0  0  0
 14 18  1  0  0  0  0
 14 21  1  0  0  0  0
 14 37  1  0  0  0  0
 15 17  1  0  0  0  0
 15 38  1  0  0  0  0
 15 39  1  0  0  0  0
 16 18  1  0  0  0  0
 16 40  1  0  0  0  0
 16 41  1  0  0  0  0
 17 42  1  0  0  0  0
 18 43  1  0  0  0  0
 18 44  1  0  0  0  0
 19 22  1  0  0  0  0
 19 45  1  0  0  0  0
 19 46  1  0  0  0  0
 20 47  1  0  0  0  0
 20 48  1  0  0  0  0
 20 49  1  0  0  0  0
 21 23  2  0  0  0  0
 21 24  1  0  0  0  0
 22 23  1  0  0  0  0
 22 50  1  0  0  0  0
 22 51  1  0  0  0  0
 23 26  1  0  0  0  0
 24 28  2  0  0  0  0
 24 53  1  0  0  0  0
 25 27  1  0  0  0  0
 25 54  1  0  0  0  0
 26 29  2  0  0  0  0
 26 55  1  0  0  0  0
 27 30  1  0  0  0  0
 27 56  1  0  0  0  0
 28 29  1  0  0  0  0
 28 57  1  0  0  0  0
 30 32  1  0  0  0  0
 30 58  1  0  0  0  0
 31 32  1  0  0  0  0
 31 33  1  0  0  0  0
 31 59  1  0  0  0  0
 32 60  1  0  0  0  0
M  END
> <PUBCHEM_COMPOUND_CID>
122281

> <PUBCHEM_CONFORMER_RMSD>
0.8

> <PUBCHEM_CONFORMER_DIVERSEORDER>
1
18
26
24
3
25
2
19
13
9
23
4
8
27
20
17
6
21
15
11
22
10
14
12
5
7
16

> <PUBCHEM_MMFF94_PARTIAL_CHARGES>
34
1 -0.56
13 0.28
14 0.14
17 0.28
2 -0.68
21 -0.14
22 0.14
23 -0.14
24 -0.15
25 0.56
26 -0.15
27 0.28
28 -0.15
29 0.08
3 -0.56
30 0.28
31 0.34
32 0.28
33 0.66
4 -0.68
5 -0.53
52 0.4
53 0.15
55 0.15
57 0.15
6 -0.68
61 0.4
62 0.45
63 0.4
64 0.4
65 0.5
7 -0.68
8 -0.65
9 -0.57

> <PUBCHEM_EFFECTIVE_ROTOR_COUNT>
5.6

> <PUBCHEM_PHARMACOPHORE_FEATURES>
19
1 1 acceptor
1 2 acceptor
1 2 donor
1 3 acceptor
1 4 acceptor
1 4 donor
1 5 donor
1 6 acceptor
1 6 donor
1 7 acceptor
1 7 donor
1 8 acceptor
1 9 acceptor
3 8 9 33 anion
5 10 11 13 15 17 rings
6 10 11 12 14 16 18 rings
6 12 14 19 21 22 23 rings
6 21 23 24 26 28 29 rings
6 3 25 27 30 31 32 rings

> <PUBCHEM_HEAVY_ATOM_COUNT>
33

> <PUBCHEM_ATOM_DEF_STEREO_COUNT>
11

> <PUBCHEM_ATOM_UDEF_STEREO_COUNT>
0

> <PUBCHEM_BOND_DEF_STEREO_COUNT>
0

> <PUBCHEM_BOND_UDEF_STEREO_COUNT>
0

> <PUBCHEM_ISOTOPIC_ATOM_COUNT>
0

> <PUBCHEM_COMPONENT_COUNT>
1

> <PUBCHEM_CACTVS_TAUTO_COUNT>
9

> <PUBCHEM_CONFORMER_ID>
0001DDA900000001

> <PUBCHEM_MMFF94_ENERGY>
107.3033

> <PUBCHEM_FEATURE_SELFOVERLAP>
96.645

> <PUBCHEM_SHAPE_FINGERPRINT>
10165383 225 18059860623654646773
10391435 84 18409456856010965056
10669705 162 18188203307579267063
10835480 77 18410579448434942873
10864689 126 18411415146461242070
11200772 48 17917990577454689323
11315181 36 18040433296251309809
11578080 2 14188141394797062692
11719270 70 18334016099365916438
11796584 16 18202004308827329154
11963148 33 18410860962852901302
12516196 113 18333732420553459568
12643181 29 18342741827231798507
12645989 146 18263085423368661159
12857493 111 18409169926289865872
13402501 40 18410008823781015634
13685833 64 18335699425475744386
13811026 1 18410296891062494434
14202776 33 15984834795528865773
14856354 85 15338828764806394097
150020 25 18409728478691505126
15131766 46 15577284154731942176
15183329 4 17418098715144412583
15351339 4 18200885070847760499
15361156 5 18412263908943703549
15419008 91 18268449987117882316
15510800 12 18114731712003445710
15849732 13 18187087251800471878
16087824 20 18267303326083111365
21033650 10 17274826891448228397
21267235 1 18186797003176161748
21279426 13 18412548699983118041
21315759 40 15068343428037007302
21623969 137 18040431101465421702
22393880 68 18272657822849575107
23559900 14 18411142411594766329
23576562 1 17417530212368231117
249057 3 18059856164845467277
25269216 80 16415187928807259851
3004659 81 18202004313285871832
335352 9 18411702101456844493
3383291 50 18270959038577670315
3633792 109 18187087295151428273
395649 100 18343016709807879290
4073 2 18272087171460440939
4144715 1 18129097819389534481
4340502 62 6555415323264059316
437815 12 18408325479831396193
6009941 240 18273214209808059639

> <PUBCHEM_SHAPE_MULTIPOLES>
626.3
22.42
3.01
1.06
1.21
0.36
-0.04
-9.84
-4.84
-1.95
0.41
-0.59
-0.01
2.73

> <PUBCHEM_SHAPE_SELFOVERLAP>
1357.111

> <PUBCHEM_SHAPE_VOLUME>
339.1

> <PUBCHEM_COORDINATE_TYPE>
2
5
10

$$$$

