9561554
  -OEChem-07051213063D

 46 49  0     1  0  0  0  0  0999 V2000
   -4.5984    1.8928    0.2745 O   0  0  0  0  0  0  0  0  0  0  0  0
   -5.3905   -2.2588    0.1497 O   0  0  0  0  0  0  0  0  0  0  0  0
    6.0204   -0.5073   -0.2736 O   0  0  0  0  0  0  0  0  0  0  0  0
   -5.3961   -0.8619    0.1980 N   0  0  0  0  0  0  0  0  0  0  0  0
   -1.8892   -0.2897    0.2366 C   0  0  1  0  0  0  0  0  0  0  0  0
   -0.4311   -0.5717   -0.1272 C   0  0  1  0  0  0  0  0  0  0  0  0
   -2.3461    1.0881   -0.3193 C   0  0  2  0  0  0  0  0  0  0  0  0
    0.4631    0.5194    0.5401 C   0  0  2  0  0  0  0  0  0  0  0  0
   -1.5303    2.1716    0.3752 C   0  0  0  0  0  0  0  0  0  0  0  0
   -0.0187    1.9506    0.1756 C   0  0  0  0  0  0  0  0  0  0  0  0
   -2.9755   -1.2966   -0.1650 C   0  0  0  0  0  0  0  0  0  0  0  0
    0.0393   -1.9511    0.3374 C   0  0  0  0  0  0  0  0  0  0  0  0
   -3.8072    1.0023    0.0533 C   0  0  0  0  0  0  0  0  0  0  0  0
    1.9445    0.2520    0.2859 C   0  0  0  0  0  0  0  0  0  0  0  0
   -2.2877    1.2375   -1.8505 C   0  0  0  0  0  0  0  0  0  0  0  0
   -4.1895   -0.4430    0.0542 C   0  0  0  0  0  0  0  0  0  0  0  0
    1.4512   -2.2172   -0.1760 C   0  0  0  0  0  0  0  0  0  0  0  0
    2.3969   -1.0530   -0.0082 C   0  0  0  0  0  0  0  0  0  0  0  0
    2.9026    1.2720    0.4242 C   0  0  0  0  0  0  0  0  0  0  0  0
    3.7686   -1.2910   -0.2057 C   0  0  0  0  0  0  0  0  0  0  0  0
    4.2630    1.0200    0.2341 C   0  0  0  0  0  0  0  0  0  0  0  0
    4.6962   -0.2603   -0.0853 C   0  0  0  0  0  0  0  0  0  0  0  0
    6.9146    0.5954   -0.1281 C   0  0  0  0  0  0  0  0  0  0  0  0
   -1.9350   -0.2424    1.3395 H   0  0  0  0  0  0  0  0  0  0  0  0
   -0.3116   -0.5311   -1.2176 H   0  0  0  0  0  0  0  0  0  0  0  0
    0.3424    0.4247    1.6306 H   0  0  0  0  0  0  0  0  0  0  0  0
   -1.7529    2.1801    1.4503 H   0  0  0  0  0  0  0  0  0  0  0  0
   -1.8095    3.1652    0.0037 H   0  0  0  0  0  0  0  0  0  0  0  0
    0.2534    2.1765   -0.8628 H   0  0  0  0  0  0  0  0  0  0  0  0
    0.4984    2.6928    0.7949 H   0  0  0  0  0  0  0  0  0  0  0  0
   -2.9639   -2.1744    0.4857 H   0  0  0  0  0  0  0  0  0  0  0  0
   -2.9072   -1.5987   -1.2133 H   0  0  0  0  0  0  0  0  0  0  0  0
   -0.6233   -2.7422   -0.0305 H   0  0  0  0  0  0  0  0  0  0  0  0
    0.0235   -2.0047    1.4337 H   0  0  0  0  0  0  0  0  0  0  0  0
   -1.2689    1.1857   -2.2432 H   0  0  0  0  0  0  0  0  0  0  0  0
   -2.8762    0.4709   -2.3662 H   0  0  0  0  0  0  0  0  0  0  0  0
   -2.7045    2.2059   -2.1531 H   0  0  0  0  0  0  0  0  0  0  0  0
    1.4022   -2.4581   -1.2458 H   0  0  0  0  0  0  0  0  0  0  0  0
    1.8510   -3.0981    0.3409 H   0  0  0  0  0  0  0  0  0  0  0  0
    2.6108    2.2835    0.6904 H   0  0  0  0  0  0  0  0  0  0  0  0
    4.1133   -2.2928   -0.4539 H   0  0  0  0  0  0  0  0  0  0  0  0
    4.9269    1.8694    0.3557 H   0  0  0  0  0  0  0  0  0  0  0  0
   -6.3339   -2.4620    0.2666 H   0  0  0  0  0  0  0  0  0  0  0  0
    7.9256    0.2186   -0.3141 H   0  0  0  0  0  0  0  0  0  0  0  0
    6.9030    0.9903    0.8934 H   0  0  0  0  0  0  0  0  0  0  0  0
    6.7201    1.3723   -0.8754 H   0  0  0  0  0  0  0  0  0  0  0  0
  1 13  2  0  0  0  0
  2  4  1  0  0  0  0
  2 43  1  0  0  0  0
  3 22  1  0  0  0  0
  3 23  1  0  0  0  0
  4 16  2  0  0  0  0
  5  6  1  0  0  0  0
  5  7  1  0  0  0  0
  5 11  1  0  0  0  0
  5 24  1  0  0  0  0
  6  8  1  0  0  0  0
  6 12  1  0  0  0  0
  6 25  1  0  0  0  0
  7  9  1  0  0  0  0
  7 13  1  0  0  0  0
  7 15  1  0  0  0  0
  8 10  1  0  0  0  0
  8 14  1  0  0  0  0
  8 26  1  0  0  0  0
  9 10  1  0  0  0  0
  9 27  1  0  0  0  0
  9 28  1  0  0  0  0
 10 29  1  0  0  0  0
 10 30  1  0  0  0  0
 11 16  1  0  0  0  0
 11 31  1  0  0  0  0
 11 32  1  0  0  0  0
 12 17  1  0  0  0  0
 12 33  1  0  0  0  0
 12 34  1  0  0  0  0
 13 16  1  0  0  0  0
 14 18  2  0  0  0  0
 14 19  1  0  0  0  0
 15 35  1  0  0  0  0
 15 36  1  0  0  0  0
 15 37  1  0  0  0  0
 17 18  1  0  0  0  0
 17 38  1  0  0  0  0
 17 39  1  0  0  0  0
 18 20  1  0  0  0  0
 19 21  2  0  0  0  0
 19 40  1  0  0  0  0
 20 22  2  0  0  0  0
 20 41  1  0  0  0  0
 21 22  1  0  0  0  0
 21 42  1  0  0  0  0
 23 44  1  0  0  0  0
 23 45  1  0  0  0  0
 23 46  1  0  0  0  0
M  END
> <PUBCHEM_COMPOUND_CID>
9561554

> <PUBCHEM_CONFORMER_RMSD>
0.6

> <PUBCHEM_CONFORMER_DIVERSEORDER>
1

> <PUBCHEM_MMFF94_PARTIAL_CHARGES>
21
1 -0.57
11 0.06
13 0.51
14 -0.14
16 0.39
17 0.14
18 -0.14
19 -0.15
2 -0.34
20 -0.15
21 -0.15
22 0.08
23 0.28
3 -0.36
4 -0.51
40 0.15
41 0.15
42 0.15
43 0.4
7 0.06
8 0.14

> <PUBCHEM_EFFECTIVE_ROTOR_COUNT>
2

> <PUBCHEM_PHARMACOPHORE_FEATURES>
8
1 1 acceptor
1 2 anion
1 3 acceptor
1 4 acceptor
5 5 7 11 13 16 rings
6 14 18 19 20 21 22 rings
6 5 6 7 8 9 10 rings
6 6 8 12 14 17 18 rings

> <PUBCHEM_HEAVY_ATOM_COUNT>
23

> <PUBCHEM_ATOM_DEF_STEREO_COUNT>
4

> <PUBCHEM_ATOM_UDEF_STEREO_COUNT>
0

> <PUBCHEM_BOND_DEF_STEREO_COUNT>
1

> <PUBCHEM_BOND_UDEF_STEREO_COUNT>
0

> <PUBCHEM_ISOTOPIC_ATOM_COUNT>
0

> <PUBCHEM_COMPONENT_COUNT>
1

> <PUBCHEM_CACTVS_TAUTO_COUNT>
3

> <PUBCHEM_CONFORMER_ID>
0091E5D200000001

> <PUBCHEM_MMFF94_ENERGY>
82.2496

> <PUBCHEM_FEATURE_SELFOVERLAP>
40.701

> <PUBCHEM_SHAPE_FINGERPRINT>
10366900 7 17131835352199160360
10591671 39 18343010074463358398
10616163 171 18335984250563940487
11488393 25 17242436447051498750
11578080 2 17201091532548956655
11963148 33 18340775836070664507
12011746 2 18411708669010310295
12166972 35 17988921163652997652
12236239 1 17989207062408690208
12403259 415 18335711520288597648
12403814 3 17775286101462329925
12788726 201 17096929276784892696
128620 24 18341894116799072820
13140716 1 17835246644937780835
13224815 77 18341055197821809378
13288520 33 18409166597921144109
13402501 40 18410011013929136210
13862211 1 18410296882472988674
14787075 74 18342457010870660843
14790565 3 18409442575002599560
15196674 1 18410012164806148730
15788980 27 16587747551143982044
15927050 60 17397544204082877069
17492 89 18266179615886714730
1813 80 17489298699103569421
18608769 82 18336265631157054234
18681886 176 18410858725110740368
19591789 44 18337112263462888947
200 152 17894632569371082208
21236236 1 18410009931824049027
21267235 1 18409724032930972035
21279426 13 18264486363990148294
21709351 56 18342462538382853404
2297311 6 18334569148928739764
23402539 116 18408608067378274812
23557571 272 18334288768925895094
23559900 14 18334020467194695440
2871803 45 18413113870123544307
3004659 81 18342172324361089230
335352 9 18410295796932459181
34797466 226 17676477308528487740
34934 24 18339365291985166089
350125 39 18410572877530287504
3545911 37 18410292531654864712
4073 2 18273206504251836658
4214541 1 18409166627764479633
4325135 7 18413106147656184935
474229 33 18411138026274901238
5104073 3 18336830882753777195
9709674 26 18410287046982179914
9996256 80 18409167697158887582

> <PUBCHEM_SHAPE_MULTIPOLES>
450.74
12.65
2.26
0.82
8.83
0.24
0.27
0.84
0.35
-1.46
-0.08
-0.32
-0.22
0.41

> <PUBCHEM_SHAPE_SELFOVERLAP>
983.983

> <PUBCHEM_SHAPE_VOLUME>
245.5

> <PUBCHEM_COORDINATE_TYPE>
2
5
10

$$$$

