441740
  -OEChem-07051212563D

 92 98  0     1  0  0  0  0  0999 V2000
    1.3945    1.1113    0.9971 O   0  0  0  0  0  0  0  0  0  0  0  0
   -1.8278    2.6754    0.8904 O   0  0  0  0  0  0  0  0  0  0  0  0
   -2.9191   -2.9832   -0.8811 O   0  0  0  0  0  0  0  0  0  0  0  0
    3.0046   -0.5689   -0.8681 O   0  0  0  0  0  0  0  0  0  0  0  0
    2.0886   -3.4823   -1.2736 O   0  0  0  0  0  0  0  0  0  0  0  0
    3.0230   -2.4425    1.1007 O   0  0  0  0  0  0  0  0  0  0  0  0
   -6.2256    0.3945   -0.9309 O   0  0  0  0  0  0  0  0  0  0  0  0
   -4.2869    2.8156   -1.9053 O   0  0  0  0  0  0  0  0  0  0  0  0
    1.0644    0.9161    3.2751 O   0  0  0  0  0  0  0  0  0  0  0  0
    3.2576    0.6069   -2.8311 O   0  0  0  0  0  0  0  0  0  0  0  0
   -3.2664   -0.5337    1.5339 N   0  0  2  0  0  0  0  0  0  0  0  0
   -2.0512   -0.6824   -0.6538 C   0  0  1  0  0  0  0  0  0  0  0  0
   -2.4272    0.8515   -0.7865 C   0  0  2  0  0  0  0  0  0  0  0  0
   -0.6378   -1.0572   -1.2790 C   0  0  1  0  0  0  0  0  0  0  0  0
   -1.9478   -0.7160    0.8897 C   0  0  1  0  0  0  0  0  0  0  0  0
   -0.9134    0.4377    1.1137 C   0  0  1  0  0  0  0  0  0  0  0  0
    0.5766   -0.2279   -0.8317 C   0  0  1  0  0  0  0  0  0  0  0  0
    0.5325   -0.0029    0.7022 C   0  0  1  0  0  0  0  0  0  0  0  0
   -1.3866    1.5580    0.1443 C   0  0  2  0  0  0  0  0  0  0  0  0
   -3.9143    1.0627   -0.3261 C   0  0  2  0  0  0  0  0  0  0  0  0
   -3.1057   -1.6338   -1.3037 C   0  0  2  0  0  0  0  0  0  0  0  0
   -0.1322   -2.5115   -1.0323 C   0  0  0  0  0  0  0  0  0  0  0  0
    1.3733   -2.4044   -0.6896 C   0  0  2  0  0  0  0  0  0  0  0  0
    1.7585   -1.0706   -1.3042 C   0  0  2  0  0  0  0  0  0  0  0  0
    1.0321   -1.1921    1.5756 C   0  0  0  0  0  0  0  0  0  0  0  0
   -4.0031    0.6902    1.1852 C   0  0  0  0  0  0  0  0  0  0  0  0
   -4.8416    0.1751   -1.2095 C   0  0  1  0  0  0  0  0  0  0  0  0
    1.6166   -2.4054    0.8290 C   0  0  2  0  0  0  0  0  0  0  0  0
   -4.5666   -1.3040   -1.0654 C   0  0  0  0  0  0  0  0  0  0  0  0
   -4.3946    2.5207   -0.5323 C   0  0  0  0  0  0  0  0  0  0  0  0
   -3.2118   -0.7259    2.9801 C   0  0  0  0  0  0  0  0  0  0  0  0
   -0.7382    3.4724    1.3423 C   0  0  0  0  0  0  0  0  0  0  0  0
    1.7350    1.2456    2.3062 C   0  0  0  0  0  0  0  0  0  0  0  0
   -4.6063   -0.8437    3.5713 C   0  0  0  0  0  0  0  0  0  0  0  0
   -3.3627   -3.9009   -1.8691 C   0  0  0  0  0  0  0  0  0  0  0  0
    3.6587    0.2652   -1.7294 C   0  0  0  0  0  0  0  0  0  0  0  0
    3.2828   -3.0159    2.3704 C   0  0  0  0  0  0  0  0  0  0  0  0
   -4.7084    4.1453   -2.2011 C   0  0  0  0  0  0  0  0  0  0  0  0
    3.0923    1.8742    2.3995 C   0  0  0  0  0  0  0  0  0  0  0  0
    4.9505    0.7201   -1.1560 C   0  0  0  0  0  0  0  0  0  0  0  0
    5.4657    1.9695   -1.5019 C   0  0  0  0  0  0  0  0  0  0  0  0
    5.6489   -0.1015   -0.2711 C   0  0  0  0  0  0  0  0  0  0  0  0
    6.6792    2.3971   -0.9631 C   0  0  0  0  0  0  0  0  0  0  0  0
    6.8624    0.3262    0.2677 C   0  0  0  0  0  0  0  0  0  0  0  0
    7.3775    1.5756   -0.0783 C   0  0  0  0  0  0  0  0  0  0  0  0
   -2.2952    1.1798   -1.8245 H   0  0  0  0  0  0  0  0  0  0  0  0
   -0.7279   -0.9263   -2.3680 H   0  0  0  0  0  0  0  0  0  0  0  0
   -1.5712   -1.6881    1.2121 H   0  0  0  0  0  0  0  0  0  0  0  0
   -0.9512    0.7714    2.1520 H   0  0  0  0  0  0  0  0  0  0  0  0
    0.6410    0.7216   -1.3724 H   0  0  0  0  0  0  0  0  0  0  0  0
   -0.6009    1.9351   -0.5124 H   0  0  0  0  0  0  0  0  0  0  0  0
   -2.9397   -1.5650   -2.3893 H   0  0  0  0  0  0  0  0  0  0  0  0
   -0.2896   -3.1091   -1.9387 H   0  0  0  0  0  0  0  0  0  0  0  0
   -0.6523   -3.0290   -0.2230 H   0  0  0  0  0  0  0  0  0  0  0  0
    1.7572   -1.1748   -2.3989 H   0  0  0  0  0  0  0  0  0  0  0  0
    1.7951   -0.9197    2.2986 H   0  0  0  0  0  0  0  0  0  0  0  0
    0.2115   -1.5683    2.1963 H   0  0  0  0  0  0  0  0  0  0  0  0
   -3.6613    1.5250    1.8071 H   0  0  0  0  0  0  0  0  0  0  0  0
   -5.0652    0.5631    1.4265 H   0  0  0  0  0  0  0  0  0  0  0  0
   -4.6957    0.4392   -2.2652 H   0  0  0  0  0  0  0  0  0  0  0  0
    1.1762   -3.3288    1.2317 H   0  0  0  0  0  0  0  0  0  0  0  0
   -4.9164   -1.6830   -0.0969 H   0  0  0  0  0  0  0  0  0  0  0  0
   -5.1988   -1.8427   -1.7835 H   0  0  0  0  0  0  0  0  0  0  0  0
   -5.4384    2.6305   -0.2115 H   0  0  0  0  0  0  0  0  0  0  0  0
   -3.8217    3.2480    0.0445 H   0  0  0  0  0  0  0  0  0  0  0  0
   -2.6679    0.0826    3.4821 H   0  0  0  0  0  0  0  0  0  0  0  0
   -2.6813   -1.6591    3.2061 H   0  0  0  0  0  0  0  0  0  0  0  0
    1.9541   -3.4514   -2.2360 H   0  0  0  0  0  0  0  0  0  0  0  0
   -6.7425   -0.1417   -1.5561 H   0  0  0  0  0  0  0  0  0  0  0  0
   -0.0124    3.6759    0.5491 H   0  0  0  0  0  0  0  0  0  0  0  0
   -1.1482    4.4314    1.6735 H   0  0  0  0  0  0  0  0  0  0  0  0
   -0.2598    3.0132    2.2070 H   0  0  0  0  0  0  0  0  0  0  0  0
   -4.5372   -1.1816    4.6112 H   0  0  0  0  0  0  0  0  0  0  0  0
   -5.2140   -1.5760    3.0286 H   0  0  0  0  0  0  0  0  0  0  0  0
   -5.1357    0.1140    3.5849 H   0  0  0  0  0  0  0  0  0  0  0  0
   -4.4470   -3.8641   -1.9993 H   0  0  0  0  0  0  0  0  0  0  0  0
   -2.8558   -3.7305   -2.8242 H   0  0  0  0  0  0  0  0  0  0  0  0
   -3.1049   -4.9080   -1.5284 H   0  0  0  0  0  0  0  0  0  0  0  0
    2.7837   -2.4944    3.1909 H   0  0  0  0  0  0  0  0  0  0  0  0
    2.9939   -4.0721    2.3758 H   0  0  0  0  0  0  0  0  0  0  0  0
    4.3611   -2.9646    2.5474 H   0  0  0  0  0  0  0  0  0  0  0  0
   -5.7579    4.2834   -1.9241 H   0  0  0  0  0  0  0  0  0  0  0  0
   -4.0789    4.8706   -1.6767 H   0  0  0  0  0  0  0  0  0  0  0  0
   -4.6055    4.3055   -3.2776 H   0  0  0  0  0  0  0  0  0  0  0  0
    3.8502    1.1640    2.0619 H   0  0  0  0  0  0  0  0  0  0  0  0
    3.2956    2.1432    3.4399 H   0  0  0  0  0  0  0  0  0  0  0  0
    3.1247    2.7869    1.7988 H   0  0  0  0  0  0  0  0  0  0  0  0
    4.9321    2.6229   -2.1872 H   0  0  0  0  0  0  0  0  0  0  0  0
    5.2785   -1.0844    0.0055 H   0  0  0  0  0  0  0  0  0  0  0  0
    7.0800    3.3701   -1.2317 H   0  0  0  0  0  0  0  0  0  0  0  0
    7.4076   -0.3145    0.9546 H   0  0  0  0  0  0  0  0  0  0  0  0
    8.3225    1.9083    0.3410 H   0  0  0  0  0  0  0  0  0  0  0  0
  1 18  1  0  0  0  0
  1 33  1  0  0  0  0
  2 19  1  0  0  0  0
  2 32  1  0  0  0  0
  3 21  1  0  0  0  0
  3 35  1  0  0  0  0
  4 24  1  0  0  0  0
  4 36  1  0  0  0  0
  5 23  1  0  0  0  0
  5 68  1  0  0  0  0
  6 28  1  0  0  0  0
  6 37  1  0  0  0  0
  7 27  1  0  0  0  0
  7 69  1  0  0  0  0
  8 30  1  0  0  0  0
  8 38  1  0  0  0  0
  9 33  2  0  0  0  0
 10 36  2  0  0  0  0
 11 15  1  0  0  0  0
 11 26  1  0  0  0  0
 11 31  1  0  0  0  0
 12 13  1  0  0  0  0
 12 14  1  0  0  0  0
 12 15  1  0  0  0  0
 12 21  1  0  0  0  0
 13 19  1  0  0  0  0
 13 20  1  0  0  0  0
 13 46  1  0  0  0  0
 14 17  1  0  0  0  0
 14 22  1  0  0  0  0
 14 47  1  0  0  0  0
 15 16  1  0  0  0  0
 15 48  1  0  0  0  0
 16 18  1  0  0  0  0
 16 19  1  0  0  0  0
 16 49  1  0  0  0  0
 17 18  1  0  0  0  0
 17 24  1  0  0  0  0
 17 50  1  0  0  0  0
 18 25  1  0  0  0  0
 19 51  1  0  0  0  0
 20 26  1  0  0  0  0
 20 27  1  0  0  0  0
 20 30  1  0  0  0  0
 21 29  1  0  0  0  0
 21 52  1  0  0  0  0
 22 23  1  0  0  0  0
 22 53  1  0  0  0  0
 22 54  1  0  0  0  0
 23 24  1  0  0  0  0
 23 28  1  0  0  0  0
 24 55  1  0  0  0  0
 25 28  1  0  0  0  0
 25 56  1  0  0  0  0
 25 57  1  0  0  0  0
 26 58  1  0  0  0  0
 26 59  1  0  0  0  0
 27 29  1  0  0  0  0
 27 60  1  0  0  0  0
 28 61  1  0  0  0  0
 29 62  1  0  0  0  0
 29 63  1  0  0  0  0
 30 64  1  0  0  0  0
 30 65  1  0  0  0  0
 31 34  1  0  0  0  0
 31 66  1  0  0  0  0
 31 67  1  0  0  0  0
 32 70  1  0  0  0  0
 32 71  1  0  0  0  0
 32 72  1  0  0  0  0
 33 39  1  0  0  0  0
 34 73  1  0  0  0  0
 34 74  1  0  0  0  0
 34 75  1  0  0  0  0
 35 76  1  0  0  0  0
 35 77  1  0  0  0  0
 35 78  1  0  0  0  0
 36 40  1  0  0  0  0
 37 79  1  0  0  0  0
 37 80  1  0  0  0  0
 37 81  1  0  0  0  0
 38 82  1  0  0  0  0
 38 83  1  0  0  0  0
 38 84  1  0  0  0  0
 39 85  1  0  0  0  0
 39 86  1  0  0  0  0
 39 87  1  0  0  0  0
 40 41  2  0  0  0  0
 40 42  1  0  0  0  0
 41 43  1  0  0  0  0
 41 88  1  0  0  0  0
 42 44  2  0  0  0  0
 42 89  1  0  0  0  0
 43 45  2  0  0  0  0
 43 90  1  0  0  0  0
 44 45  1  0  0  0  0
 44 91  1  0  0  0  0
 45 92  1  0  0  0  0
M  END
> <PUBCHEM_COMPOUND_CID>
441740

> <PUBCHEM_CONFORMER_RMSD>
1.2

> <PUBCHEM_CONFORMER_DIVERSEORDER>
1
2
3

> <PUBCHEM_MMFF94_PARTIAL_CHARGES>
42
1 -0.43
10 -0.57
11 -0.81
15 0.27
18 0.28
19 0.28
2 -0.56
21 0.28
23 0.28
24 0.28
26 0.27
27 0.28
28 0.28
3 -0.56
30 0.28
31 0.27
32 0.28
33 0.66
35 0.28
36 0.63
37 0.28
38 0.28
39 0.06
4 -0.43
40 0.09
41 -0.15
42 -0.15
43 -0.15
44 -0.15
45 -0.15
5 -0.68
6 -0.56
68 0.4
69 0.4
7 -0.68
8 -0.56
88 0.15
89 0.15
9 -0.57
90 0.15
91 0.15
92 0.15

> <PUBCHEM_EFFECTIVE_ROTOR_COUNT>
13

> <PUBCHEM_PHARMACOPHORE_FEATURES>
16
1 10 acceptor
1 11 cation
1 2 acceptor
1 3 acceptor
1 5 acceptor
1 5 donor
1 6 acceptor
1 7 acceptor
1 7 donor
1 8 acceptor
1 9 acceptor
6 12 13 20 21 27 29 rings
6 40 41 42 43 44 45 rings
8 11 12 13 15 16 19 20 26 rings
8 12 13 14 15 16 17 18 19 rings
8 14 17 18 22 23 24 25 28 rings

> <PUBCHEM_HEAVY_ATOM_COUNT>
45

> <PUBCHEM_ATOM_DEF_STEREO_COUNT>
13

> <PUBCHEM_ATOM_UDEF_STEREO_COUNT>
1

> <PUBCHEM_BOND_DEF_STEREO_COUNT>
0

> <PUBCHEM_BOND_UDEF_STEREO_COUNT>
0

> <PUBCHEM_ISOTOPIC_ATOM_COUNT>
0

> <PUBCHEM_COMPONENT_COUNT>
1

> <PUBCHEM_CACTVS_TAUTO_COUNT>
1

> <PUBCHEM_CONFORMER_ID>
0006BD8C00000001

> <PUBCHEM_MMFF94_ENERGY>
233.5531

> <PUBCHEM_FEATURE_SELFOVERLAP>
82.665

> <PUBCHEM_SHAPE_FINGERPRINT>
10675989 125 17551235503098513741
11007060 377 18193840332613490504
11135926 11 17677037032523334350
11578080 2 18269845374588898821
12422481 6 17988926708471269804
13140716 1 18042146322293092003
13690498 29 18115880589938063871
13726171 33 18261666056219161369
14747281 78 18190745426166995169
15324884 4 17462036204860454409
18608769 82 18337106753626873663
19319366 153 18341614853552061490
20511986 3 18200323224368026684
21814621 53 18059852888012325904
22393880 68 18041572355357770071
23559900 14 17168152182767781081
27425 322 17559122184187665381
392239 28 18262507105547403148
4093350 32 17059791008251157554
6086070 43 18042424524193402248
6669772 16 17677913249070189264
77296 10 16917061140691921360

> <PUBCHEM_SHAPE_MULTIPOLES>
862.4
13.69
4.01
2.92
15.05
0.04
2.03
7.56
-4.02
-2.19
-1.35
-1.34
-0.05
0

> <PUBCHEM_SHAPE_SELFOVERLAP>
1885.507

> <PUBCHEM_SHAPE_VOLUME>
459.7

> <PUBCHEM_COORDINATE_TYPE>
2
5
10

$$$$

