245229
  -OEChem-07051213073D

 65 69  0     1  0  0  0  0  0999 V2000
   -3.1399   -0.0298    1.2533 O   0  0  0  0  0  0  0  0  0  0  0  0
   -3.8062   -1.8828   -0.0299 O   0  0  0  0  0  0  0  0  0  0  0  0
   -4.6658    1.4064   -1.4718 O   0  0  0  0  0  0  0  0  0  0  0  0
    6.5160   -0.2563    1.6453 O   0  0  0  0  0  0  0  0  0  0  0  0
   -1.5906    0.8492   -0.4611 C   0  0  1  0  0  0  0  0  0  0  0  0
   -0.8226   -0.4938   -0.4450 C   0  0  2  0  0  0  0  0  0  0  0  0
    0.6473   -0.3490   -0.8572 C   0  0  1  0  0  0  0  0  0  0  0  0
   -3.0121    0.3440   -0.1162 C   0  0  1  0  0  0  0  0  0  0  0  0
    1.3538    0.6216    0.1349 C   0  0  1  0  0  0  0  0  0  0  0  0
   -1.7281   -1.4367   -1.2403 C   0  0  0  0  0  0  0  0  0  0  0  0
   -3.1573   -0.9612   -0.9015 C   0  0  1  0  0  0  0  0  0  0  0  0
   -0.9263    1.7667    0.5756 C   0  0  0  0  0  0  0  0  0  0  0  0
    2.8891    0.8052   -0.1768 C   0  0  2  0  0  0  0  0  0  0  0  0
    0.5748    1.9577    0.2890 C   0  0  0  0  0  0  0  0  0  0  0  0
    1.3630   -1.7050   -0.8640 C   0  0  0  0  0  0  0  0  0  0  0  0
   -1.5923    1.5417   -1.8515 C   0  0  0  0  0  0  0  0  0  0  0  0
    2.8375   -1.5590   -1.2639 C   0  0  1  0  0  0  0  0  0  0  0  0
    3.5583   -0.5782   -0.3346 C   0  0  0  0  0  0  0  0  0  0  0  0
    3.5247    1.5873    1.0116 C   0  0  0  0  0  0  0  0  0  0  0  0
   -4.0944    1.3481   -0.3840 C   0  0  0  0  0  0  0  0  0  0  0  0
   -3.8010   -1.2985    1.2743 C   0  0  0  0  0  0  0  0  0  0  0  0
    3.1231    1.6096   -1.4766 C   0  0  0  0  0  0  0  0  0  0  0  0
    5.0411    1.5259    1.0404 C   0  0  0  0  0  0  0  0  0  0  0  0
    4.7154   -0.8954    0.2760 C   0  0  0  0  0  0  0  0  0  0  0  0
    3.4567   -2.9593   -1.3896 C   0  0  0  0  0  0  0  0  0  0  0  0
   -4.4485    2.2786    0.7443 C   0  0  0  0  0  0  0  0  0  0  0  0
   -3.0621   -2.2246    2.2323 C   0  0  0  0  0  0  0  0  0  0  0  0
   -5.2458   -1.1056    1.7261 C   0  0  0  0  0  0  0  0  0  0  0  0
    5.4923    0.0931    1.0610 C   0  0  0  0  0  0  0  0  0  0  0  0
   -0.8111   -0.8780    0.5866 H   0  0  0  0  0  0  0  0  0  0  0  0
    0.6980    0.0543   -1.8739 H   0  0  0  0  0  0  0  0  0  0  0  0
    1.2958    0.1349    1.1225 H   0  0  0  0  0  0  0  0  0  0  0  0
   -1.5391   -1.3263   -2.3141 H   0  0  0  0  0  0  0  0  0  0  0  0
   -1.5625   -2.4844   -0.9699 H   0  0  0  0  0  0  0  0  0  0  0  0
   -3.7450   -0.8857   -1.8217 H   0  0  0  0  0  0  0  0  0  0  0  0
   -1.0341    1.3532    1.5859 H   0  0  0  0  0  0  0  0  0  0  0  0
   -1.4073    2.7509    0.5863 H   0  0  0  0  0  0  0  0  0  0  0  0
    0.6925    2.5719   -0.6091 H   0  0  0  0  0  0  0  0  0  0  0  0
    0.9933    2.5417    1.1161 H   0  0  0  0  0  0  0  0  0  0  0  0
    0.8632   -2.3755   -1.5739 H   0  0  0  0  0  0  0  0  0  0  0  0
    1.2862   -2.1777    0.1245 H   0  0  0  0  0  0  0  0  0  0  0  0
   -0.5862    1.7458   -2.2265 H   0  0  0  0  0  0  0  0  0  0  0  0
   -2.0976    0.9444   -2.6172 H   0  0  0  0  0  0  0  0  0  0  0  0
   -2.1043    2.5096   -1.8012 H   0  0  0  0  0  0  0  0  0  0  0  0
    2.8720   -1.1263   -2.2731 H   0  0  0  0  0  0  0  0  0  0  0  0
    3.1504    1.1782    1.9607 H   0  0  0  0  0  0  0  0  0  0  0  0
    3.2236    2.6414    0.9881 H   0  0  0  0  0  0  0  0  0  0  0  0
    4.1814    1.6112   -1.7627 H   0  0  0  0  0  0  0  0  0  0  0  0
    2.5661    1.2021   -2.3255 H   0  0  0  0  0  0  0  0  0  0  0  0
    2.8225    2.6565   -1.3627 H   0  0  0  0  0  0  0  0  0  0  0  0
    5.4046    2.0196    1.9483 H   0  0  0  0  0  0  0  0  0  0  0  0
    5.4894    2.0269    0.1770 H   0  0  0  0  0  0  0  0  0  0  0  0
    5.1794   -1.8701    0.1826 H   0  0  0  0  0  0  0  0  0  0  0  0
    4.4815   -2.9072   -1.7727 H   0  0  0  0  0  0  0  0  0  0  0  0
    3.4687   -3.4834   -0.4276 H   0  0  0  0  0  0  0  0  0  0  0  0
    2.8831   -3.5725   -2.0939 H   0  0  0  0  0  0  0  0  0  0  0  0
   -5.0942    1.7745    1.4654 H   0  0  0  0  0  0  0  0  0  0  0  0
   -3.5551    2.6541    1.2442 H   0  0  0  0  0  0  0  0  0  0  0  0
   -4.9875    3.1401    0.3380 H   0  0  0  0  0  0  0  0  0  0  0  0
   -2.0311   -2.3850    1.8998 H   0  0  0  0  0  0  0  0  0  0  0  0
   -3.0141   -1.7983    3.2398 H   0  0  0  0  0  0  0  0  0  0  0  0
   -3.5379   -3.2098    2.2800 H   0  0  0  0  0  0  0  0  0  0  0  0
   -5.2968   -0.5847    2.6878 H   0  0  0  0  0  0  0  0  0  0  0  0
   -5.8092   -0.5122    0.9983 H   0  0  0  0  0  0  0  0  0  0  0  0
   -5.7642   -2.0669    1.8110 H   0  0  0  0  0  0  0  0  0  0  0  0
  1  8  1  0  0  0  0
  1 21  1  0  0  0  0
  2 11  1  0  0  0  0
  2 21  1  0  0  0  0
  3 20  2  0  0  0  0
  4 29  2  0  0  0  0
  5  6  1  0  0  0  0
  5  8  1  0  0  0  0
  5 12  1  0  0  0  0
  5 16  1  0  0  0  0
  6  7  1  0  0  0  0
  6 10  1  0  0  0  0
  6 30  1  0  0  0  0
  7  9  1  0  0  0  0
  7 15  1  0  0  0  0
  7 31  1  0  0  0  0
  8 11  1  0  0  0  0
  8 20  1  0  0  0  0
  9 13  1  0  0  0  0
  9 14  1  0  0  0  0
  9 32  1  0  0  0  0
 10 11  1  0  0  0  0
 10 33  1  0  0  0  0
 10 34  1  0  0  0  0
 11 35  1  0  0  0  0
 12 14  1  0  0  0  0
 12 36  1  0  0  0  0
 12 37  1  0  0  0  0
 13 18  1  0  0  0  0
 13 19  1  0  0  0  0
 13 22  1  0  0  0  0
 14 38  1  0  0  0  0
 14 39  1  0  0  0  0
 15 17  1  0  0  0  0
 15 40  1  0  0  0  0
 15 41  1  0  0  0  0
 16 42  1  0  0  0  0
 16 43  1  0  0  0  0
 16 44  1  0  0  0  0
 17 18  1  0  0  0  0
 17 25  1  0  0  0  0
 17 45  1  0  0  0  0
 18 24  2  0  0  0  0
 19 23  1  0  0  0  0
 19 46  1  0  0  0  0
 19 47  1  0  0  0  0
 20 26  1  0  0  0  0
 21 27  1  0  0  0  0
 21 28  1  0  0  0  0
 22 48  1  0  0  0  0
 22 49  1  0  0  0  0
 22 50  1  0  0  0  0
 23 29  1  0  0  0  0
 23 51  1  0  0  0  0
 23 52  1  0  0  0  0
 24 29  1  0  0  0  0
 24 53  1  0  0  0  0
 25 54  1  0  0  0  0
 25 55  1  0  0  0  0
 25 56  1  0  0  0  0
 26 57  1  0  0  0  0
 26 58  1  0  0  0  0
 26 59  1  0  0  0  0
 27 60  1  0  0  0  0
 27 61  1  0  0  0  0
 27 62  1  0  0  0  0
 28 63  1  0  0  0  0
 28 64  1  0  0  0  0
 28 65  1  0  0  0  0
M  END
> <PUBCHEM_COMPOUND_CID>
245229

> <PUBCHEM_CONFORMER_RMSD>
0.8

> <PUBCHEM_CONFORMER_DIVERSEORDER>
1

> <PUBCHEM_MMFF94_PARTIAL_CHARGES>
16
1 -0.56
11 0.28
13 0.14
17 0.14
18 -0.28
2 -0.56
20 0.45
21 0.56
23 0.06
24 -0.14
26 0.06
29 0.49
3 -0.57
4 -0.57
53 0.15
8 0.34

> <PUBCHEM_EFFECTIVE_ROTOR_COUNT>
3

> <PUBCHEM_PHARMACOPHORE_FEATURES>
10
1 1 acceptor
1 2 acceptor
1 3 acceptor
1 4 acceptor
3 21 27 28 hydrophobe
5 1 2 8 11 21 rings
5 5 6 8 10 11 rings
6 13 18 19 23 24 29 rings
6 5 6 7 9 12 14 rings
6 7 9 13 15 17 18 rings

> <PUBCHEM_HEAVY_ATOM_COUNT>
29

> <PUBCHEM_ATOM_DEF_STEREO_COUNT>
8

> <PUBCHEM_ATOM_UDEF_STEREO_COUNT>
0

> <PUBCHEM_BOND_DEF_STEREO_COUNT>
0

> <PUBCHEM_BOND_UDEF_STEREO_COUNT>
0

> <PUBCHEM_ISOTOPIC_ATOM_COUNT>
0

> <PUBCHEM_COMPONENT_COUNT>
1

> <PUBCHEM_CACTVS_TAUTO_COUNT>
10

> <PUBCHEM_CONFORMER_ID>
0003BDED00000001

> <PUBCHEM_MMFF94_ENERGY>
98.9246

> <PUBCHEM_FEATURE_SELFOVERLAP>
51.5

> <PUBCHEM_SHAPE_FINGERPRINT>
10 15 18336553737874324680
10319926 262 18201438112232215522
10675989 125 17112704141855370100
1100329 8 17106775558441814312
11370993 144 18261948673688392201
11405975 8 18273493489666176369
11578080 2 17485100909858817998
11796584 16 17632584885265993114
12035758 1 18270665572542190481
12236239 1 18273218578349033828
12422481 6 18261682545088889478
12553582 1 18114169818284872724
12596602 18 17846504712557570672
12633257 1 18189609454065302099
13140716 1 17898838312747501712
13224815 77 18334289851389464100
13544653 18 18338229376051046023
13583140 156 17987819478507577062
13675066 3 18410572885824504788
14068700 675 16663201390782459903
14790565 3 17972884662140117216
14955137 171 18408601475220881164
15196674 1 18260553320507900028
15361156 5 18412258467325530796
15788980 27 18413112736320782488
17349148 13 18342455911801923720
1813 80 17845923066052145773
18222031 100 13686308950372241192
20511986 3 17096389365130848980
20721686 56 18188214329235728518
21033648 29 18261102006906677049
21859007 373 17769948096600033405
22122407 14 17385718110792233625
22182313 1 18336269062914740212
23557571 272 18131062732161079309
23559900 14 18270105950597690454
23569914 152 11596405630464336298
2838139 119 5038798535575215794
3380486 145 18261672589365084725
3633792 109 17096092518825005845
392239 28 17677060053484535976
4015057 19 18188224177263493717
460360 51 18041825324568238128
5081480 168 16083023378528081084
5104073 3 18335698402957244619
602551 16 17632291255347211818
7808743 9 5472876830441849531
9709674 26 18261672704654092012
9981440 41 18261394498733068875

> <PUBCHEM_SHAPE_MULTIPOLES>
573.33
12.28
2.62
1.76
5.81
0.52
-0.27
0.15
-5.3
-0.31
0.2
-0.54
0.4
2.06

> <PUBCHEM_SHAPE_SELFOVERLAP>
1242.511

> <PUBCHEM_SHAPE_VOLUME>
312.5

> <PUBCHEM_COORDINATE_TYPE>
2
5
10

$$$$

