5281099
  -OEChem-07051212542D

 94 97  0     1  0  0  0  0  0999 V2000
    9.4649   -1.8148    0.0000 O   0  0  0  0  0  0  0  0  0  0  0  0
    6.8930   -3.2868    0.0000 O   0  0  0  0  0  0  0  0  0  0  0  0
   11.1969   -2.8148    0.0000 O   0  0  0  0  0  0  0  0  0  0  0  0
   12.0630   -0.3148    0.0000 O   0  0  0  0  0  0  0  0  0  0  0  0
    8.4649    0.9172    0.0000 O   0  0  0  0  0  0  0  0  0  0  0  0
    9.0926   -5.0052    0.0000 O   0  0  0  0  0  0  0  0  0  0  0  0
    7.3516    2.2441    0.0000 O   0  0  0  0  0  0  0  0  0  0  0  0
   11.1969    1.1852    0.0000 O   0  0  0  0  0  0  0  0  0  0  0  0
    9.4649    1.1852    0.0000 O   0  0  0  0  0  0  0  0  0  0  0  0
    9.9970    2.2028    0.0000 O   0  0  0  0  0  0  0  0  0  0  0  0
    7.7703    4.8565    0.0000 O   0  0  0  0  0  0  0  0  0  0  0  0
    3.5472   -1.3898    0.0000 O   0  0  0  0  0  0  0  0  0  0  0  0
    3.9954   -3.0628    0.0000 O   0  0  0  0  0  0  0  0  0  0  0  0
    9.6497    4.1724    0.0000 N   0  0  0  0  0  0  0  0  0  0  0  0
   10.3309   -2.3148    0.0000 C   0  0  1  0  0  0  0  0  0  0  0  0
    9.4649   -0.8148    0.0000 C   0  0  2  0  0  0  0  0  0  0  0  0
   10.3309   -0.3148    0.0000 C   0  0  1  0  0  0  0  0  0  0  0  0
   11.1969   -1.8148    0.0000 C   0  0  0  0  0  0  0  0  0  0  0  0
   11.1969   -0.8148    0.0000 C   0  0  2  0  0  0  0  0  0  0  0  0
    9.8309   -3.1808    0.0000 C   0  0  0  0  0  0  0  0  0  0  0  0
    8.9840   -4.0111    0.0000 C   0  0  2  0  0  0  0  0  0  0  0  0
    7.7592   -2.7863    0.0000 C   0  0  2  0  0  0  0  0  0  0  0  0
    8.0181   -3.7523    0.0000 C   0  0  0  0  0  0  0  0  0  0  0  0
    8.4649   -0.8148    0.0000 C   0  0  0  0  0  0  0  0  0  0  0  0
    6.8932   -2.2863    0.0000 C   0  0  1  0  0  0  0  0  0  0  0  0
    7.9649    0.0512    0.0000 C   0  0  2  0  0  0  0  0  0  0  0  0
   10.3309    0.6852    0.0000 C   0  0  0  0  0  0  0  0  0  0  0  0
    8.2912    1.9021    0.0000 C   0  0  3  0  0  0  0  0  0  0  0  0
    9.0573    2.5448    0.0000 C   0  0  2  0  0  0  0  0  0  0  0  0
    8.8836    3.5296    0.0000 C   0  0  2  0  0  0  0  0  0  0  0  0
    7.9440    3.8717    0.0000 C   0  0  1  0  0  0  0  0  0  0  0  0
    5.9273   -2.5452    0.0000 C   0  0  0  0  0  0  0  0  0  0  0  0
    7.1779    3.2289    0.0000 C   0  0  1  0  0  0  0  0  0  0  0  0
    6.9649    0.0512    0.0000 C   0  0  0  0  0  0  0  0  0  0  0  0
    6.2382    3.5709    0.0000 C   0  0  0  0  0  0  0  0  0  0  0  0
    5.2202   -1.8380    0.0000 C   0  0  0  0  0  0  0  0  0  0  0  0
    6.4649    0.9172    0.0000 C   0  0  0  0  0  0  0  0  0  0  0  0
    4.2543   -2.0969    0.0000 C   0  0  0  0  0  0  0  0  0  0  0  0
    5.4649    0.9172    0.0000 C   0  0  0  0  0  0  0  0  0  0  0  0
    4.9649    1.7833    0.0000 C   0  0  0  0  0  0  0  0  0  0  0  0
    3.5472   -0.3898    0.0000 C   0  0  1  0  0  0  0  0  0  0  0  0
    2.8401    0.3173    0.0000 C   0  0  0  0  0  0  0  0  0  0  0  0
    4.4710   -0.0071    0.0000 C   0  0  0  0  0  0  0  0  0  0  0  0
    3.9649    1.7833    0.0000 C   0  0  0  0  0  0  0  0  0  0  0  0
    3.0989    1.2833    0.0000 C   0  0  0  0  0  0  0  0  0  0  0  0
    3.4649    2.6493    0.0000 C   0  0  0  0  0  0  0  0  0  0  0  0
    2.5989    2.1493    0.0000 C   0  0  0  0  0  0  0  0  0  0  0  0
    9.4649    0.0352    0.0000 H   0  0  0  0  0  0  0  0  0  0  0  0
   10.8679   -0.0048    0.0000 H   0  0  0  0  0  0  0  0  0  0  0  0
   11.4090   -2.3974    0.0000 H   0  0  0  0  0  0  0  0  0  0  0  0
   11.8075   -1.7071    0.0000 H   0  0  0  0  0  0  0  0  0  0  0  0
   11.1969   -0.1948    0.0000 H   0  0  0  0  0  0  0  0  0  0  0  0
   10.0391   -3.7648    0.0000 H   0  0  0  0  0  0  0  0  0  0  0  0
    9.3409   -2.8010    0.0000 H   0  0  0  0  0  0  0  0  0  0  0  0
    9.5678   -4.2197    0.0000 H   0  0  0  0  0  0  0  0  0  0  0  0
    7.9964   -2.2135    0.0000 H   0  0  0  0  0  0  0  0  0  0  0  0
    7.4004   -3.8063    0.0000 H   0  0  0  0  0  0  0  0  0  0  0  0
    7.9640   -4.3699    0.0000 H   0  0  0  0  0  0  0  0  0  0  0  0
    7.8823   -1.0269    0.0000 H   0  0  0  0  0  0  0  0  0  0  0  0
    8.5726   -1.4254    0.0000 H   0  0  0  0  0  0  0  0  0  0  0  0
    6.8934   -1.6663    0.0000 H   0  0  0  0  0  0  0  0  0  0  0  0
    8.5849    0.0512    0.0000 H   0  0  0  0  0  0  0  0  0  0  0  0
   11.1969   -3.4348    0.0000 H   0  0  0  0  0  0  0  0  0  0  0  0
    9.0900    1.6113    0.0000 H   0  0  0  0  0  0  0  0  0  0  0  0
    9.1650    1.9343    0.0000 H   0  0  0  0  0  0  0  0  0  0  0  0
   12.5999   -0.6248    0.0000 H   0  0  0  0  0  0  0  0  0  0  0  0
    9.4663    3.3176    0.0000 H   0  0  0  0  0  0  0  0  0  0  0  0
    8.4189    4.2702    0.0000 H   0  0  0  0  0  0  0  0  0  0  0  0
    5.7668   -3.1440    0.0000 H   0  0  0  0  0  0  0  0  0  0  0  0
    6.7030    2.8304    0.0000 H   0  0  0  0  0  0  0  0  0  0  0  0
    9.6600   -5.2550    0.0000 H   0  0  0  0  0  0  0  0  0  0  0  0
    6.6549   -0.4857    0.0000 H   0  0  0  0  0  0  0  0  0  0  0  0
    6.4503    4.1535    0.0000 H   0  0  0  0  0  0  0  0  0  0  0  0
    5.6556    3.7830    0.0000 H   0  0  0  0  0  0  0  0  0  0  0  0
    6.0262    2.9883    0.0000 H   0  0  0  0  0  0  0  0  0  0  0  0
   11.1969    1.8052    0.0000 H   0  0  0  0  0  0  0  0  0  0  0  0
    9.5420    4.7830    0.0000 H   0  0  0  0  0  0  0  0  0  0  0  0
   10.2323    3.9604    0.0000 H   0  0  0  0  0  0  0  0  0  0  0  0
    5.3807   -1.2392    0.0000 H   0  0  0  0  0  0  0  0  0  0  0  0
   10.4719    2.6014    0.0000 H   0  0  0  0  0  0  0  0  0  0  0  0
    6.5726    1.5278    0.0000 H   0  0  0  0  0  0  0  0  0  0  0  0
    8.2452    5.2550    0.0000 H   0  0  0  0  0  0  0  0  0  0  0  0
    5.1549    0.3803    0.0000 H   0  0  0  0  0  0  0  0  0  0  0  0
    5.2749    2.3202    0.0000 H   0  0  0  0  0  0  0  0  0  0  0  0
    4.0627   -0.7342    0.0000 H   0  0  0  0  0  0  0  0  0  0  0  0
    2.2781    0.5794    0.0000 H   0  0  0  0  0  0  0  0  0  0  0  0
    2.4844   -0.1905    0.0000 H   0  0  0  0  0  0  0  0  0  0  0  0
    4.7083   -0.5799    0.0000 H   0  0  0  0  0  0  0  0  0  0  0  0
    5.0438    0.2302    0.0000 H   0  0  0  0  0  0  0  0  0  0  0  0
    4.2338    0.5657    0.0000 H   0  0  0  0  0  0  0  0  0  0  0  0
    3.7529    1.2006    0.0000 H   0  0  0  0  0  0  0  0  0  0  0  0
    3.7136    1.3642    0.0000 H   0  0  0  0  0  0  0  0  0  0  0  0
    3.6254    3.2482    0.0000 H   0  0  0  0  0  0  0  0  0  0  0  0
    2.0000    2.3098    0.0000 H   0  0  0  0  0  0  0  0  0  0  0  0
  1 15  1  0  0  0  0
  1 16  1  0  0  0  0
 22  2  1  6  0  0  0
 25  2  1  1  0  0  0
 15  3  1  6  0  0  0
  3 63  1  0  0  0  0
 19  4  1  1  0  0  0
  4 66  1  0  0  0  0
 26  5  1  6  0  0  0
  5 28  1  0  0  0  0
 21  6  1  1  0  0  0
  6 71  1  0  0  0  0
  7 28  1  0  0  0  0
  7 33  1  0  0  0  0
  8 27  1  0  0  0  0
  8 76  1  0  0  0  0
  9 27  2  0  0  0  0
 29 10  1  6  0  0  0
 10 80  1  0  0  0  0
 31 11  1  1  0  0  0
 11 82  1  0  0  0  0
 12 38  1  0  0  0  0
 12 41  1  0  0  0  0
 13 38  2  0  0  0  0
 30 14  1  6  0  0  0
 14 77  1  0  0  0  0
 14 78  1  0  0  0  0
 15 18  1  0  0  0  0
 15 20  1  0  0  0  0
 16 17  1  0  0  0  0
 16 24  1  0  0  0  0
 16 48  1  6  0  0  0
 17 19  1  0  0  0  0
 17 27  1  6  0  0  0
 17 49  1  0  0  0  0
 18 19  1  0  0  0  0
 18 50  1  0  0  0  0
 18 51  1  0  0  0  0
 19 52  1  0  0  0  0
 20 21  1  0  0  0  0
 20 53  1  0  0  0  0
 20 54  1  0  0  0  0
 21 23  1  0  0  0  0
 21 55  1  0  0  0  0
 22 23  1  0  0  0  0
 22 25  1  0  0  0  0
 22 56  1  0  0  0  0
 23 57  1  0  0  0  0
 23 58  1  0  0  0  0
 24 26  1  0  0  0  0
 24 59  1  0  0  0  0
 24 60  1  0  0  0  0
 25 32  1  0  0  0  0
 25 61  1  0  0  0  0
 26 34  1  0  0  0  0
 26 62  1  0  0  0  0
 28 29  1  0  0  0  0
 28 64  1  0  0  0  0
 29 30  1  0  0  0  0
 29 65  1  0  0  0  0
 30 31  1  0  0  0  0
 30 67  1  0  0  0  0
 31 33  1  0  0  0  0
 31 68  1  0  0  0  0
 32 36  2  0  0  0  0
 32 69  1  0  0  0  0
 33 35  1  6  0  0  0
 33 70  1  0  0  0  0
 34 37  2  0  0  0  0
 34 72  1  0  0  0  0
 35 73  1  0  0  0  0
 35 74  1  0  0  0  0
 35 75  1  0  0  0  0
 36 38  1  0  0  0  0
 36 79  1  0  0  0  0
 37 39  1  0  0  0  0
 37 81  1  0  0  0  0
 39 40  2  0  0  0  0
 39 83  1  0  0  0  0
 40 44  1  0  0  0  0
 40 84  1  0  0  0  0
 41 42  1  0  0  0  0
 41 43  1  1  0  0  0
 41 85  1  0  0  0  0
 42 45  1  0  0  0  0
 42 86  1  0  0  0  0
 42 87  1  0  0  0  0
 43 88  1  0  0  0  0
 43 89  1  0  0  0  0
 43 90  1  0  0  0  0
 44 46  2  0  0  0  0
 44 91  1  0  0  0  0
 45 47  2  0  0  0  0
 45 92  1  0  0  0  0
 46 47  1  0  0  0  0
 46 93  1  0  0  0  0
 47 94  1  0  0  0  0
M  END
> <PUBCHEM_COMPOUND_CID>
5281099

> <PUBCHEM_COMPOUND_CANONICALIZED>
1

> <PUBCHEM_CACTVS_COMPLEXITY>
1220

> <PUBCHEM_CACTVS_HBOND_ACCEPTOR>
14

> <PUBCHEM_CACTVS_HBOND_DONOR>
7

> <PUBCHEM_CACTVS_ROTATABLE_BOND>
3

> <PUBCHEM_CACTVS_SUBSKEYS>
AAADcfB+PAAAAAAAAAAAAAAAEgAAAAAAAAAkSAAAAAAAAAAAAAAAHgAQCAAADTzxgAcCCABABgCIACDSCAAAAAAgAAAICIEAAEgbFBYAoQAiUAAH8AAPoYPI7OzOAAAAAAAAAAAAAAAAAAAAAAAAAAAAAA==

> <PUBCHEM_IUPAC_INCHI>
InChI=1S/C33H47NO13/c1-18-10-8-6-4-3-5-7-9-11-21(45-32-30(39)28(34)29(38)19(2)44-32)15-25-27(31(40)41)22(36)17-33(42,47-25)16-20(35)14-24-23(46-24)12-13-26(37)43-18/h3-9,11-13,18-25,27-30,32,35-36,38-39,42H,10,14-17,34H2,1-2H3,(H,40,41)/b4-3+,7-5+,8-6+,11-9+,13-12+/t18-,19-,20+,21+,22+,23-,24-,25+,27-,28+,29-,30+,32?,33-/m1/s1

> <PUBCHEM_IUPAC_INCHIKEY>
NCXMLFZGDNKEPB-BQGNJOPGSA-N

> <PUBCHEM_XLOGP3_AA>
-1.3

> <PUBCHEM_EXACT_MASS>
665.304741

> <PUBCHEM_MOLECULAR_FORMULA>
C33H47NO13

> <PUBCHEM_MOLECULAR_WEIGHT>
665.72518

> <PUBCHEM_OPENEYE_CAN_SMILES>
CC1CC=CC=CC=CC=CC(CC2C(C(CC(O2)(CC(CC3C(O3)C=CC(=O)O1)O)O)O)C(=O)O)OC4C(C(C(C(O4)C)O)N)O

> <PUBCHEM_OPENEYE_ISO_SMILES>
C[C@@H]1C/C=C/C=C/C=C/C=C/[C@@H](C[C@H]2[C@@H]([C@H](C[C@](O2)(C[C@H](C[C@@H]3[C@H](O3)/C=C/C(=O)O1)O)O)O)C(=O)O)OC4[C@H]([C@H]([C@@H]([C@H](O4)C)O)N)O

> <PUBCHEM_CACTVS_TPSA>
231

> <PUBCHEM_MONOISOTOPIC_WEIGHT>
665.304741

> <PUBCHEM_TOTAL_CHARGE>
0

> <PUBCHEM_HEAVY_ATOM_COUNT>
47

> <PUBCHEM_ATOM_DEF_STEREO_COUNT>
13

> <PUBCHEM_ATOM_UDEF_STEREO_COUNT>
1

> <PUBCHEM_BOND_DEF_STEREO_COUNT>
5

> <PUBCHEM_BOND_UDEF_STEREO_COUNT>
0

> <PUBCHEM_ISOTOPIC_ATOM_COUNT>
0

> <PUBCHEM_COMPONENT_COUNT>
1

> <PUBCHEM_CACTVS_TAUTO_COUNT>
1

> <PUBCHEM_COORDINATE_TYPE>
1
5
255

> <PUBCHEM_BONDANNOTATIONS>
29  10  6
31  11  5
30  14  6
16  48  6
17  27  6
22  2  6
25  2  5
28  64  3
15  3  6
33  35  6
19  4  5
41  43  5
26  5  6
21  6  5

$$$$

