161240
  -OEChem-07051212492D

 43 44  0     1  0  0  0  0  0999 V2000
    6.6353   -1.6747    0.0000 O   0  0  0  0  0  0  0  0  0  0  0  0
   11.1241    3.6966    0.0000 O   0  0  0  0  0  0  0  0  0  0  0  0
    9.4778    4.2347    0.0000 O   0  0  0  0  0  0  0  0  0  0  0  0
    6.2781    0.0201    0.0000 N   0  0  0  0  0  0  0  0  0  0  0  0
    4.6783   -3.6966    0.0000 N   0  0  0  0  0  0  0  0  0  0  0  0
   10.5028    1.7955    0.0000 N   0  0  0  0  0  0  0  0  0  0  0  0
    8.5458    1.3831    0.0000 C   0  0  0  0  0  0  0  0  0  0  0  0
    7.5673    1.1769    0.0000 C   0  0  0  0  0  0  0  0  0  0  0  0
    8.8564    2.3336    0.0000 C   0  0  0  0  0  0  0  0  0  0  0  0
    7.2566    0.2264    0.0000 C   0  0  0  0  0  0  0  0  0  0  0  0
    9.8349    2.5398    0.0000 C   0  0  1  0  0  0  0  0  0  0  0  0
    4.6783   -2.0871    0.0000 C   0  0  0  0  0  0  0  0  0  0  0  0
    4.9889   -1.1366    0.0000 C   0  0  0  0  0  0  0  0  0  0  0  0
    3.7320   -2.3918    0.0000 C   0  0  0  0  0  0  0  0  0  0  0  0
    3.7320   -3.3918    0.0000 C   0  0  0  0  0  0  0  0  0  0  0  0
    5.9674   -0.9304    0.0000 C   0  0  0  0  0  0  0  0  0  0  0  0
    5.2619   -2.8918    0.0000 C   0  0  0  0  0  0  0  0  0  0  0  0
    2.8660   -1.8918    0.0000 C   0  0  0  0  0  0  0  0  0  0  0  0
   10.1456    3.4904    0.0000 C   0  0  0  0  0  0  0  0  0  0  0  0
    2.8660   -3.8918    0.0000 C   0  0  0  0  0  0  0  0  0  0  0  0
    2.0000   -2.3918    0.0000 C   0  0  0  0  0  0  0  0  0  0  0  0
    2.0000   -3.3918    0.0000 C   0  0  0  0  0  0  0  0  0  0  0  0
    8.5663    0.7634    0.0000 H   0  0  0  0  0  0  0  0  0  0  0  0
    9.1596    1.2958    0.0000 H   0  0  0  0  0  0  0  0  0  0  0  0
    7.5467    1.7965    0.0000 H   0  0  0  0  0  0  0  0  0  0  0  0
    6.9534    1.2642    0.0000 H   0  0  0  0  0  0  0  0  0  0  0  0
    8.8359    2.9533    0.0000 H   0  0  0  0  0  0  0  0  0  0  0  0
    8.2426    2.4210    0.0000 H   0  0  0  0  0  0  0  0  0  0  0  0
    7.2772   -0.3933    0.0000 H   0  0  0  0  0  0  0  0  0  0  0  0
    7.8704    0.1390    0.0000 H   0  0  0  0  0  0  0  0  0  0  0  0
    9.6423    1.9505    0.0000 H   0  0  0  0  0  0  0  0  0  0  0  0
    4.9684   -0.5169    0.0000 H   0  0  0  0  0  0  0  0  0  0  0  0
    4.3751   -1.0492    0.0000 H   0  0  0  0  0  0  0  0  0  0  0  0
    5.8640    0.4816    0.0000 H   0  0  0  0  0  0  0  0  0  0  0  0
    5.8819   -2.8918    0.0000 H   0  0  0  0  0  0  0  0  0  0  0  0
    4.8709   -4.2859    0.0000 H   0  0  0  0  0  0  0  0  0  0  0  0
    2.8660   -1.2718    0.0000 H   0  0  0  0  0  0  0  0  0  0  0  0
   11.1095    1.9234    0.0000 H   0  0  0  0  0  0  0  0  0  0  0  0
   10.3102    1.2062    0.0000 H   0  0  0  0  0  0  0  0  0  0  0  0
    2.8660   -4.5118    0.0000 H   0  0  0  0  0  0  0  0  0  0  0  0
    1.4631   -2.0819    0.0000 H   0  0  0  0  0  0  0  0  0  0  0  0
    1.4631   -3.7018    0.0000 H   0  0  0  0  0  0  0  0  0  0  0  0
   11.3167    4.2859    0.0000 H   0  0  0  0  0  0  0  0  0  0  0  0
  1 16  2  0  0  0  0
  2 19  1  0  0  0  0
  2 43  1  0  0  0  0
  3 19  2  0  0  0  0
  4 10  1  0  0  0  0
  4 16  1  0  0  0  0
  4 34  1  0  0  0  0
  5 15  1  0  0  0  0
  5 17  1  0  0  0  0
  5 36  1  0  0  0  0
 11  6  1  1  0  0  0
  6 38  1  0  0  0  0
  6 39  1  0  0  0  0
  7  8  1  0  0  0  0
  7  9  1  0  0  0  0
  7 23  1  0  0  0  0
  7 24  1  0  0  0  0
  8 10  1  0  0  0  0
  8 25  1  0  0  0  0
  8 26  1  0  0  0  0
  9 11  1  0  0  0  0
  9 27  1  0  0  0  0
  9 28  1  0  0  0  0
 10 29  1  0  0  0  0
 10 30  1  0  0  0  0
 11 19  1  0  0  0  0
 11 31  1  0  0  0  0
 12 13  1  0  0  0  0
 12 14  1  0  0  0  0
 12 17  2  0  0  0  0
 13 16  1  0  0  0  0
 13 32  1  0  0  0  0
 13 33  1  0  0  0  0
 14 15  1  0  0  0  0
 14 18  2  0  0  0  0
 15 20  2  0  0  0  0
 17 35  1  0  0  0  0
 18 21  1  0  0  0  0
 18 37  1  0  0  0  0
 20 22  1  0  0  0  0
 20 40  1  0  0  0  0
 21 22  2  0  0  0  0
 21 41  1  0  0  0  0
 22 42  1  0  0  0  0
M  END
> <PUBCHEM_COMPOUND_CID>
161240

> <PUBCHEM_COMPOUND_CANONICALIZED>
1

> <PUBCHEM_CACTVS_COMPLEXITY>
389

> <PUBCHEM_CACTVS_HBOND_ACCEPTOR>
4

> <PUBCHEM_CACTVS_HBOND_DONOR>
4

> <PUBCHEM_CACTVS_ROTATABLE_BOND>
8

> <PUBCHEM_CACTVS_SUBSKEYS>
AAADceB7MAAAAAAAAAAAAAAAAAAAAWAAAAAwAAAAAAAAAFgB8AAAHgAQCAAADCjBngQ8yPLJkgCoAzX3XACCgCAxAiAI2aG4ZJgKIPLAlZGEYAhklgDIyAecycCegAAAAAACAAAAAAAAAAQAAAAAAAAAAA==

> <PUBCHEM_IUPAC_OPENEYE_NAME>
(2S)-2-amino-6-[[2-(1H-indol-3-yl)acetyl]amino]hexanoic acid

> <PUBCHEM_IUPAC_CAS_NAME>
(2S)-2-amino-6-[[2-(1H-indol-3-yl)-1-oxoethyl]amino]hexanoic acid

> <PUBCHEM_IUPAC_NAME>
(2S)-2-amino-6-[[2-(1H-indol-3-yl)acetyl]amino]hexanoic acid

> <PUBCHEM_IUPAC_SYSTEMATIC_NAME>
(2S)-2-azanyl-6-[2-(1H-indol-3-yl)ethanoylamino]hexanoic acid

> <PUBCHEM_IUPAC_TRADITIONAL_NAME>
(2S)-2-amino-6-[[2-(1H-indol-3-yl)acetyl]amino]hexanoic acid

> <PUBCHEM_IUPAC_INCHI>
InChI=1S/C16H21N3O3/c17-13(16(21)22)6-3-4-8-18-15(20)9-11-10-19-14-7-2-1-5-12(11)14/h1-2,5,7,10,13,19H,3-4,6,8-9,17H2,(H,18,20)(H,21,22)/t13-/m0/s1

> <PUBCHEM_IUPAC_INCHIKEY>
FKIGOUKDKBOZID-ZDUSSCGKSA-N

> <PUBCHEM_XLOGP3>
-1.4

> <PUBCHEM_EXACT_MASS>
303.158292

> <PUBCHEM_MOLECULAR_FORMULA>
C16H21N3O3

> <PUBCHEM_MOLECULAR_WEIGHT>
303.35624

> <PUBCHEM_OPENEYE_CAN_SMILES>
C1=CC=C2C(=C1)C(=CN2)CC(=O)NCCCCC(C(=O)O)N

> <PUBCHEM_OPENEYE_ISO_SMILES>
C1=CC=C2C(=C1)C(=CN2)CC(=O)NCCCC[C@@H](C(=O)O)N

> <PUBCHEM_CACTVS_TPSA>
108

> <PUBCHEM_MONOISOTOPIC_WEIGHT>
303.158292

> <PUBCHEM_TOTAL_CHARGE>
0

> <PUBCHEM_HEAVY_ATOM_COUNT>
22

> <PUBCHEM_ATOM_DEF_STEREO_COUNT>
1

> <PUBCHEM_ATOM_UDEF_STEREO_COUNT>
0

> <PUBCHEM_BOND_DEF_STEREO_COUNT>
0

> <PUBCHEM_BOND_UDEF_STEREO_COUNT>
0

> <PUBCHEM_ISOTOPIC_ATOM_COUNT>
0

> <PUBCHEM_COMPONENT_COUNT>
1

> <PUBCHEM_CACTVS_TAUTO_COUNT>
2

> <PUBCHEM_COORDINATE_TYPE>
1
5
255

> <PUBCHEM_BONDANNOTATIONS>
12  14  8
12  17  8
14  15  8
14  18  8
15  20  8
18  21  8
20  22  8
21  22  8
5  15  8
5  17  8
11  6  5

$$$$

