5284650
  -OEChem-07051213063D

 27 28  0     0  0  0  0  0  0999 V2000
    5.6069   -0.3525    0.0162 O   0  0  0  0  0  0  0  0  0  0  0  0
    1.5250    0.2842   -0.0092 C   0  0  0  0  0  0  0  0  0  0  0  0
   -2.3099   -0.2368   -0.0062 C   0  0  0  0  0  0  0  0  0  0  0  0
    0.0692    0.5118   -0.0175 C   0  0  0  0  0  0  0  0  0  0  0  0
   -0.8726   -0.4610   -0.0173 C   0  0  0  0  0  0  0  0  0  0  0  0
    2.0179   -0.9399    0.4126 C   0  0  0  0  0  0  0  0  0  0  0  0
    2.3723    1.2993   -0.4226 C   0  0  0  0  0  0  0  0  0  0  0  0
   -2.8211    0.9897    0.4181 C   0  0  0  0  0  0  0  0  0  0  0  0
   -3.1768   -1.2480   -0.4204 C   0  0  0  0  0  0  0  0  0  0  0  0
    3.3961   -1.1547    0.4210 C   0  0  0  0  0  0  0  0  0  0  0  0
    3.7505    1.0843   -0.4142 C   0  0  0  0  0  0  0  0  0  0  0  0
    4.2625   -0.1426    0.0076 C   0  0  0  0  0  0  0  0  0  0  0  0
   -4.1992    1.2050    0.4282 C   0  0  0  0  0  0  0  0  0  0  0  0
   -4.5548   -1.0327   -0.4104 C   0  0  0  0  0  0  0  0  0  0  0  0
   -5.0660    0.1938    0.0140 C   0  0  0  0  0  0  0  0  0  0  0  0
   -0.2159    1.5602   -0.0420 H   0  0  0  0  0  0  0  0  0  0  0  0
   -0.5832   -1.5079   -0.0457 H   0  0  0  0  0  0  0  0  0  0  0  0
    1.3835   -1.7470    0.7643 H   0  0  0  0  0  0  0  0  0  0  0  0
    1.9893    2.2604   -0.7554 H   0  0  0  0  0  0  0  0  0  0  0  0
   -2.1882    1.7986    0.7707 H   0  0  0  0  0  0  0  0  0  0  0  0
   -2.7974   -2.2102   -0.7561 H   0  0  0  0  0  0  0  0  0  0  0  0
    3.7832   -2.1132    0.7567 H   0  0  0  0  0  0  0  0  0  0  0  0
    4.4204    1.8764   -0.7377 H   0  0  0  0  0  0  0  0  0  0  0  0
   -4.5983    2.1579    0.7634 H   0  0  0  0  0  0  0  0  0  0  0  0
   -5.2300   -1.8199   -0.7330 H   0  0  0  0  0  0  0  0  0  0  0  0
   -6.1391    0.3610    0.0230 H   0  0  0  0  0  0  0  0  0  0  0  0
    5.7832   -1.2540    0.3360 H   0  0  0  0  0  0  0  0  0  0  0  0
  1 12  1  0  0  0  0
  1 27  1  0  0  0  0
  2  4  1  0  0  0  0
  2  6  2  0  0  0  0
  2  7  1  0  0  0  0
  3  5  1  0  0  0  0
  3  8  2  0  0  0  0
  3  9  1  0  0  0  0
  4  5  2  0  0  0  0
  4 16  1  0  0  0  0
  5 17  1  0  0  0  0
  6 10  1  0  0  0  0
  6 18  1  0  0  0  0
  7 11  2  0  0  0  0
  7 19  1  0  0  0  0
  8 13  1  0  0  0  0
  8 20  1  0  0  0  0
  9 14  2  0  0  0  0
  9 21  1  0  0  0  0
 10 12  2  0  0  0  0
 10 22  1  0  0  0  0
 11 12  1  0  0  0  0
 11 23  1  0  0  0  0
 13 15  2  0  0  0  0
 13 24  1  0  0  0  0
 14 15  1  0  0  0  0
 14 25  1  0  0  0  0
 15 26  1  0  0  0  0
M  END
> <PUBCHEM_COMPOUND_CID>
5284650

> <PUBCHEM_CONFORMER_RMSD>
0.6

> <PUBCHEM_CONFORMER_DIVERSEORDER>
2
1

> <PUBCHEM_MMFF94_PARTIAL_CHARGES>
27
1 -0.53
10 -0.15
11 -0.15
12 0.08
13 -0.15
14 -0.15
15 -0.15
16 0.15
17 0.15
18 0.15
19 0.15
2 0.03
20 0.15
21 0.15
22 0.15
23 0.15
24 0.15
25 0.15
26 0.15
27 0.45
3 0.03
4 -0.18
5 -0.18
6 -0.15
7 -0.15
8 -0.15
9 -0.15

> <PUBCHEM_EFFECTIVE_ROTOR_COUNT>
2

> <PUBCHEM_PHARMACOPHORE_FEATURES>
3
1 1 donor
6 2 6 7 10 11 12 rings
6 3 8 9 13 14 15 rings

> <PUBCHEM_HEAVY_ATOM_COUNT>
15

> <PUBCHEM_ATOM_DEF_STEREO_COUNT>
0

> <PUBCHEM_ATOM_UDEF_STEREO_COUNT>
0

> <PUBCHEM_BOND_DEF_STEREO_COUNT>
1

> <PUBCHEM_BOND_UDEF_STEREO_COUNT>
0

> <PUBCHEM_ISOTOPIC_ATOM_COUNT>
0

> <PUBCHEM_COMPONENT_COUNT>
1

> <PUBCHEM_CACTVS_TAUTO_COUNT>
2

> <PUBCHEM_CONFORMER_ID>
0050A32A00000002

> <PUBCHEM_MMFF94_ENERGY>
45.4309

> <PUBCHEM_FEATURE_SELFOVERLAP>
15.223

> <PUBCHEM_SHAPE_FINGERPRINT>
10616163 171 18335983069395836399
10680689 15 15841552959904522127
10912923 1 18411700984643794361
11471102 20 18202563965041909420
12107183 9 17689716780343811393
12236239 1 18409448085255164520
13167823 11 18410013225837384479
14123238 8 18411700993165137379
15242433 33 18411699893659057207
17834072 33 18410573959429159244
18186145 218 17489592242231389281
19050596 39 18411136930962963993
19489759 90 17240483628473958017
200 152 18408042901095076131
20279233 1 15769776857727684299
20612939 158 17988918943054607300
20645477 70 18272936063320480578
21267235 1 18410566280085864019
22646028 1 18409731750855093741
23402539 116 18186807980601140445
23402655 69 18413389851673514188
23557571 272 17240477056657491976
23559900 14 18187936036027736352
26918003 58 17846495928568500977
29717793 49 18187364341573479076
300161 21 18410863165463092617
3545911 37 18409165523973494355
42 15 18410855468723377653
4214541 1 18409730673050612373
42788 4 18410575080368111616
474 4 17773592711516068764
4990 188 18114173142810787694
5104073 3 18410573955113126225
522135 26 18202565085922787626
542803 24 18334855013182535821
573450 72 18334299785933740835
77779 3 18411135831519816965
9709674 26 18409160009135967711
9971528 1 18202566155512550236
9981440 41 17332525670649100976

> <PUBCHEM_SHAPE_MULTIPOLES>
302.82
11.91
1.35
0.71
0.48
0.05
0
-0.48
-0.19
-0.2
-0.02
-0.06
0.01
-0.84

> <PUBCHEM_SHAPE_SELFOVERLAP>
651.996

> <PUBCHEM_SHAPE_VOLUME>
167.5

> <PUBCHEM_COORDINATE_TYPE>
2
5
10

$$$$

