5281632
  -OEChem-07051212583D

 90 95  0     1  0  0  0  0  0999 V2000
    3.1412    2.1207   -0.4754 O   0  0  0  0  0  0  0  0  0  0  0  0
    0.7378    0.5724    0.1013 O   0  0  0  0  0  0  0  0  0  0  0  0
    5.5545    0.7165    0.5642 O   0  0  0  0  0  0  0  0  0  0  0  0
    1.3140   -2.6045    2.7018 O   0  0  0  0  0  0  0  0  0  0  0  0
   -3.3932   -1.0777   -1.3300 O   0  0  0  0  0  0  0  0  0  0  0  0
   -0.9659   -3.5447    2.0165 O   0  0  0  0  0  0  0  0  0  0  0  0
    4.9577   -3.0514   -2.3673 O   0  0  0  0  0  0  0  0  0  0  0  0
    6.0421   -2.3809   -0.4918 O   0  0  0  0  0  0  0  0  0  0  0  0
    1.9000    0.6194    0.9235 C   0  0  2  0  0  0  0  0  0  0  0  0
    2.0072    2.0102    1.6307 C   0  0  2  0  0  0  0  0  0  0  0  0
    3.1654    0.7778    0.0327 C   0  0  2  0  0  0  0  0  0  0  0  0
    2.4015    2.9518    0.4472 C   0  0  0  0  0  0  0  0  0  0  0  0
    3.1110    1.9094    2.7371 C   0  0  0  0  0  0  0  0  0  0  0  0
    4.0397    0.7127    2.4552 C   0  0  2  0  0  0  0  0  0  0  0  0
    2.0866   -0.5410    1.8738 C   0  0  0  0  0  0  0  0  0  0  0  0
    4.3959    0.7236    0.9685 C   0  0  0  0  0  0  0  0  0  0  0  0
    3.2045   -0.5268    2.6169 C   0  0  0  0  0  0  0  0  0  0  0  0
    3.2902   -0.2062   -1.1181 C   0  0  0  0  0  0  0  0  0  0  0  0
    3.3149    4.1070    0.8874 C   0  0  0  0  0  0  0  0  0  0  0  0
    1.2423    3.5880   -0.3287 C   0  0  0  0  0  0  0  0  0  0  0  0
    1.1262   -1.6454    1.9664 C   0  0  0  0  0  0  0  0  0  0  0  0
   -0.1793   -0.4191    0.2521 C   0  0  0  0  0  0  0  0  0  0  0  0
   -0.0595   -1.5035    1.1131 C   0  0  0  0  0  0  0  0  0  0  0  0
    4.5099    0.0756   -1.9518 C   0  0  0  0  0  0  0  0  0  0  0  0
   -1.3149   -0.3097   -0.5567 C   0  0  0  0  0  0  0  0  0  0  0  0
   -1.0686   -2.4750    1.1713 C   0  0  0  0  0  0  0  0  0  0  0  0
    5.5424   -0.7573   -2.1828 C   0  0  0  0  0  0  0  0  0  0  0  0
   -2.3245   -1.2742   -0.5021 C   0  0  0  0  0  0  0  0  0  0  0  0
   -2.2054   -2.3608    0.3623 C   0  0  0  0  0  0  0  0  0  0  0  0
   -1.4563    0.8480   -1.4984 C   0  0  0  0  0  0  0  0  0  0  0  0
    6.7455   -0.4274   -3.0201 C   0  0  0  0  0  0  0  0  0  0  0  0
   -3.2569   -3.3618    0.4137 C   0  0  0  0  0  0  0  0  0  0  0  0
    5.5574   -2.1251   -1.5853 C   0  0  0  0  0  0  0  0  0  0  0  0
   -4.4739   -2.0353   -1.3250 C   0  0  1  0  0  0  0  0  0  0  0  0
   -2.1540    2.0260   -0.8703 C   0  0  0  0  0  0  0  0  0  0  0  0
   -4.3181   -3.2034   -0.3799 C   0  0  0  0  0  0  0  0  0  0  0  0
   -5.7400   -1.2525   -0.9572 C   0  0  0  0  0  0  0  0  0  0  0  0
   -4.5905   -2.5590   -2.7612 C   0  0  0  0  0  0  0  0  0  0  0  0
   -2.4632    3.2067   -1.4395 C   0  0  0  0  0  0  0  0  0  0  0  0
   -5.6770   -0.7570    0.4825 C   0  0  0  0  0  0  0  0  0  0  0  0
   -2.0982    3.4792   -2.8746 C   0  0  0  0  0  0  0  0  0  0  0  0
   -3.1634    4.3445   -0.7521 C   0  0  0  0  0  0  0  0  0  0  0  0
   -6.9233    0.0019    0.8407 C   0  0  0  0  0  0  0  0  0  0  0  0
   -7.1276    1.3309    0.7687 C   0  0  0  0  0  0  0  0  0  0  0  0
   -6.0306    2.2475    0.2969 C   0  0  0  0  0  0  0  0  0  0  0  0
   -8.4036    2.0299    1.1439 C   0  0  0  0  0  0  0  0  0  0  0  0
    1.0610    2.3388    2.0757 H   0  0  0  0  0  0  0  0  0  0  0  0
    2.6067    1.7465    3.7012 H   0  0  0  0  0  0  0  0  0  0  0  0
    3.6868    2.8230    2.8870 H   0  0  0  0  0  0  0  0  0  0  0  0
    4.9281    0.7000    3.0899 H   0  0  0  0  0  0  0  0  0  0  0  0
    3.4770   -1.2966    3.3275 H   0  0  0  0  0  0  0  0  0  0  0  0
    3.2873   -1.2339   -0.7406 H   0  0  0  0  0  0  0  0  0  0  0  0
    2.4258   -0.1100   -1.7868 H   0  0  0  0  0  0  0  0  0  0  0  0
    4.3195    3.7623    1.1539 H   0  0  0  0  0  0  0  0  0  0  0  0
    2.8792    4.6786    1.7132 H   0  0  0  0  0  0  0  0  0  0  0  0
    3.4853    4.8032    0.0564 H   0  0  0  0  0  0  0  0  0  0  0  0
    0.5948    4.1747    0.3304 H   0  0  0  0  0  0  0  0  0  0  0  0
    0.6394    2.8348   -0.8329 H   0  0  0  0  0  0  0  0  0  0  0  0
    1.6103    4.2419   -1.1281 H   0  0  0  0  0  0  0  0  0  0  0  0
    4.5409    1.0554   -2.4260 H   0  0  0  0  0  0  0  0  0  0  0  0
   -0.4726    1.1480   -1.8776 H   0  0  0  0  0  0  0  0  0  0  0  0
   -2.0068    0.5351   -2.3949 H   0  0  0  0  0  0  0  0  0  0  0  0
    6.8266   -1.1221   -3.8623 H   0  0  0  0  0  0  0  0  0  0  0  0
    7.6583   -0.4984   -2.4198 H   0  0  0  0  0  0  0  0  0  0  0  0
    6.6888    0.5878   -3.4260 H   0  0  0  0  0  0  0  0  0  0  0  0
   -3.1850   -4.2148    1.0771 H   0  0  0  0  0  0  0  0  0  0  0  0
   -0.2388   -3.4242    2.6450 H   0  0  0  0  0  0  0  0  0  0  0  0
   -2.4446    1.9048    0.1735 H   0  0  0  0  0  0  0  0  0  0  0  0
   -5.1108   -3.9472   -0.3498 H   0  0  0  0  0  0  0  0  0  0  0  0
   -6.6322   -1.8787   -1.0952 H   0  0  0  0  0  0  0  0  0  0  0  0
   -5.8468   -0.3900   -1.6290 H   0  0  0  0  0  0  0  0  0  0  0  0
   -5.4333   -3.2486   -2.8812 H   0  0  0  0  0  0  0  0  0  0  0  0
   -3.6739   -3.0810   -3.0615 H   0  0  0  0  0  0  0  0  0  0  0  0
   -4.7188   -1.7317   -3.4692 H   0  0  0  0  0  0  0  0  0  0  0  0
    4.9672   -3.9417   -1.9556 H   0  0  0  0  0  0  0  0  0  0  0  0
   -5.6113   -1.5927    1.1890 H   0  0  0  0  0  0  0  0  0  0  0  0
   -4.7859   -0.1485    0.6650 H   0  0  0  0  0  0  0  0  0  0  0  0
   -1.4396    4.3525   -2.9328 H   0  0  0  0  0  0  0  0  0  0  0  0
   -3.0019    3.6917   -3.4558 H   0  0  0  0  0  0  0  0  0  0  0  0
   -1.5817    2.6518   -3.3679 H   0  0  0  0  0  0  0  0  0  0  0  0
   -4.1086    4.5712   -1.2553 H   0  0  0  0  0  0  0  0  0  0  0  0
   -2.5357    5.2412   -0.7629 H   0  0  0  0  0  0  0  0  0  0  0  0
   -3.3871    4.1075    0.2931 H   0  0  0  0  0  0  0  0  0  0  0  0
   -7.7521   -0.6176    1.1808 H   0  0  0  0  0  0  0  0  0  0  0  0
   -5.6151    2.8023    1.1442 H   0  0  0  0  0  0  0  0  0  0  0  0
   -5.2127    1.7379   -0.2158 H   0  0  0  0  0  0  0  0  0  0  0  0
   -6.4322    2.9723   -0.4203 H   0  0  0  0  0  0  0  0  0  0  0  0
   -8.8202    2.5558    0.2790 H   0  0  0  0  0  0  0  0  0  0  0  0
   -9.1596    1.3235    1.5021 H   0  0  0  0  0  0  0  0  0  0  0  0
   -8.2199    2.7567    1.9417 H   0  0  0  0  0  0  0  0  0  0  0  0
  1 11  1  0  0  0  0
  1 12  1  0  0  0  0
  2  9  1  0  0  0  0
  2 22  1  0  0  0  0
  3 16  2  0  0  0  0
  4 21  2  0  0  0  0
  5 28  1  0  0  0  0
  5 34  1  0  0  0  0
  6 26  1  0  0  0  0
  6 67  1  0  0  0  0
  7 33  1  0  0  0  0
  7 75  1  0  0  0  0
  8 33  2  0  0  0  0
  9 10  1  0  0  0  0
  9 11  1  0  0  0  0
  9 15  1  0  0  0  0
 10 12  1  0  0  0  0
 10 13  1  0  0  0  0
 10 47  1  0  0  0  0
 11 16  1  0  0  0  0
 11 18  1  0  0  0  0
 12 19  1  0  0  0  0
 12 20  1  0  0  0  0
 13 14  1  0  0  0  0
 13 48  1  0  0  0  0
 13 49  1  0  0  0  0
 14 16  1  0  0  0  0
 14 17  1  0  0  0  0
 14 50  1  0  0  0  0
 15 17  2  0  0  0  0
 15 21  1  0  0  0  0
 17 51  1  0  0  0  0
 18 24  1  0  0  0  0
 18 52  1  0  0  0  0
 18 53  1  0  0  0  0
 19 54  1  0  0  0  0
 19 55  1  0  0  0  0
 19 56  1  0  0  0  0
 20 57  1  0  0  0  0
 20 58  1  0  0  0  0
 20 59  1  0  0  0  0
 21 23  1  0  0  0  0
 22 23  2  0  0  0  0
 22 25  1  0  0  0  0
 23 26  1  0  0  0  0
 24 27  2  0  0  0  0
 24 60  1  0  0  0  0
 25 28  2  0  0  0  0
 25 30  1  0  0  0  0
 26 29  2  0  0  0  0
 27 31  1  0  0  0  0
 27 33  1  0  0  0  0
 28 29  1  0  0  0  0
 29 32  1  0  0  0  0
 30 35  1  0  0  0  0
 30 61  1  0  0  0  0
 30 62  1  0  0  0  0
 31 63  1  0  0  0  0
 31 64  1  0  0  0  0
 31 65  1  0  0  0  0
 32 36  2  0  0  0  0
 32 66  1  0  0  0  0
 34 36  1  0  0  0  0
 34 37  1  0  0  0  0
 34 38  1  0  0  0  0
 35 39  2  0  0  0  0
 35 68  1  0  0  0  0
 36 69  1  0  0  0  0
 37 40  1  0  0  0  0
 37 70  1  0  0  0  0
 37 71  1  0  0  0  0
 38 72  1  0  0  0  0
 38 73  1  0  0  0  0
 38 74  1  0  0  0  0
 39 41  1  0  0  0  0
 39 42  1  0  0  0  0
 40 43  1  0  0  0  0
 40 76  1  0  0  0  0
 40 77  1  0  0  0  0
 41 78  1  0  0  0  0
 41 79  1  0  0  0  0
 41 80  1  0  0  0  0
 42 81  1  0  0  0  0
 42 82  1  0  0  0  0
 42 83  1  0  0  0  0
 43 44  2  0  0  0  0
 43 84  1  0  0  0  0
 44 45  1  0  0  0  0
 44 46  1  0  0  0  0
 45 85  1  0  0  0  0
 45 86  1  0  0  0  0
 45 87  1  0  0  0  0
 46 88  1  0  0  0  0
 46 89  1  0  0  0  0
 46 90  1  0  0  0  0
M  END
> <PUBCHEM_COMPOUND_CID>
5281632

> <PUBCHEM_CONFORMER_RMSD>
1.2

> <PUBCHEM_CONFORMER_DIVERSEORDER>
2
33
20
23
28
24
18
10
3
31
29
35
15
26
25
34
19
12
32
36
7
4
14
9
30
11
6
21
17
13
16
1
5
27
8
22

> <PUBCHEM_MMFF94_PARTIAL_CHARGES>
48
1 -0.56
11 0.34
12 0.28
14 0.2
15 -0.12
16 0.45
17 -0.29
18 0.14
2 -0.36
21 0.47
22 0.08
23 0.09
24 -0.29
25 -0.14
26 0.08
27 -0.12
28 0.08
29 0.03
3 -0.57
30 0.28
31 0.14
32 -0.18
33 0.71
34 0.42
35 -0.29
36 -0.29
39 -0.28
4 -0.57
40 0.14
41 0.14
42 0.14
43 -0.29
44 -0.28
45 0.14
46 0.14
5 -0.36
51 0.15
6 -0.53
60 0.15
66 0.15
67 0.45
68 0.15
69 0.15
7 -0.65
75 0.5
8 -0.57
84 0.15
9 0.42

> <PUBCHEM_EFFECTIVE_ROTOR_COUNT>
9.2

> <PUBCHEM_PHARMACOPHORE_FEATURES>
17
1 1 acceptor
1 2 acceptor
1 3 acceptor
1 31 hydrophobe
1 4 acceptor
1 5 acceptor
1 6 donor
1 7 acceptor
1 8 acceptor
10 1 9 10 11 12 13 14 15 16 17 rings
3 12 19 20 hydrophobe
3 39 41 42 hydrophobe
3 44 45 46 hydrophobe
3 7 8 33 anion
6 2 9 15 21 22 23 rings
6 22 23 25 26 28 29 rings
6 5 28 29 32 34 36 rings

> <PUBCHEM_HEAVY_ATOM_COUNT>
46

> <PUBCHEM_ATOM_DEF_STEREO_COUNT>
2

> <PUBCHEM_ATOM_UDEF_STEREO_COUNT>
3

> <PUBCHEM_BOND_DEF_STEREO_COUNT>
1

> <PUBCHEM_BOND_UDEF_STEREO_COUNT>
0

> <PUBCHEM_ISOTOPIC_ATOM_COUNT>
0

> <PUBCHEM_COMPONENT_COUNT>
1

> <PUBCHEM_CACTVS_TAUTO_COUNT>
19

> <PUBCHEM_CONFORMER_ID>
0050976000000002

> <PUBCHEM_MMFF94_ENERGY>
161.5395

> <PUBCHEM_FEATURE_SELFOVERLAP>
86.399

> <PUBCHEM_SHAPE_FINGERPRINT>
10190108 129 18058999688406082953
10581848 31 18045503268304494827
10674148 151 18410565202460516518
10864689 126 18266181828295902445
11513181 2 17972315105961927597
12422481 6 18259983743800165253
12633046 712 16371018343300989447
12788726 201 18130794442813101637
13383668 40 17822581624644551530
13782708 43 17676770877162654055
13947947 73 17313098683207251911
140371 6 17622163464997580669
14840074 17 18201998855194893225
15001296 14 17417239919122158381
15297060 5 17346311549712627394
15324884 4 17042870306696305216
15328829 1 17346302817980578093
15361156 5 18337102363325778620
15475509 8 18409721881004527287
15781502 409 17976248359818783101
15975801 100 17916300709180988452
16112460 7 18198629839560991905
19311894 1 18263643047003719052
21814621 53 17531246119764996051
23559900 14 18337670793947898790
244849 19 17968675881662241004
249057 3 17894904166113169495
25223398 141 16843078348658804316
392239 28 18057911077151785025
4144715 1 18193269698795102843
4173938 306 7709454979413744683
4173938 77 17274531023862075629
437795 70 18337379509154679196
46194498 28 18262805039208271900
5776283 40 18269255929657520220
6086070 43 14635161092495263075
6523845 18 18268148836837388305

> <PUBCHEM_SHAPE_MULTIPOLES>
899.7
16.61
5.02
2.88
13.33
2.29
0.39
-0.52
3.96
2.78
0.79
-3.35
-0.58
1.73

> <PUBCHEM_SHAPE_SELFOVERLAP>
1973.791

> <PUBCHEM_SHAPE_VOLUME>
487.3

> <PUBCHEM_COORDINATE_TYPE>
2
5
10

$$$$

