146302
  -OEChem-07051212453D

 45 47  0     1  0  0  0  0  0999 V2000
    2.9729   -0.2761   -1.2914 P   0  0  1  0  0  0  0  0  0  0  0  0
    1.7114   -2.4476    0.2442 P   0  0  2  0  0  0  0  0  0  0  0  0
    0.1145   -1.3366    2.4621 P   0  0  0  0  0  0  0  0  0  0  0  0
   -0.1415    2.7027   -1.0771 O   0  0  0  0  0  0  0  0  0  0  0  0
    1.6291    3.5403    1.9316 O   0  0  0  0  0  0  0  0  0  0  0  0
    1.9193    0.8436   -0.7872 O   0  0  0  0  0  0  0  0  0  0  0  0
    2.2004   -1.6805   -1.0895 O   0  0  0  0  0  0  0  0  0  0  0  0
    3.0073   -0.1005   -2.8993 O   0  0  0  0  0  0  0  0  0  0  0  0
    4.3204   -0.2154   -0.6327 O   0  0  0  0  0  0  0  0  0  0  0  0
   -3.8320   -2.4612   -0.8055 O   0  0  0  0  0  0  0  0  0  0  0  0
    0.8193   -1.3380    1.0079 O   0  0  0  0  0  0  0  0  0  0  0  0
    3.0482   -2.5431    1.1480 O   0  0  0  0  0  0  0  0  0  0  0  0
    1.0149   -3.7557    0.0102 O   0  0  0  0  0  0  0  0  0  0  0  0
   -0.7287    0.0424    2.4587 O   0  0  0  0  0  0  0  0  0  0  0  0
   -1.0252   -2.4751    2.3327 O   0  0  0  0  0  0  0  0  0  0  0  0
    1.0595   -1.5032    3.6155 O   0  0  0  0  0  0  0  0  0  0  0  0
   -2.0535    1.6519   -0.1512 N   0  0  0  0  0  0  0  0  0  0  0  0
   -3.7324    0.2478    0.3613 N   0  0  0  0  0  0  0  0  0  0  0  0
   -0.8483    0.1656   -1.6572 N   0  0  0  0  0  0  0  0  0  0  0  0
   -1.8651   -1.9989   -1.9459 N   0  0  0  0  0  0  0  0  0  0  0  0
    0.7900    2.7846    1.0825 C   0  0  2  0  0  0  0  0  0  0  0  0
   -1.2386    2.8676   -0.1592 C   0  0  1  0  0  0  0  0  0  0  0  0
    1.0718    3.0430   -0.3879 C   0  0  1  0  0  0  0  0  0  0  0  0
   -0.6523    3.2251    1.2017 C   0  0  0  0  0  0  0  0  0  0  0  0
    2.2216    2.2200   -0.9399 C   0  0  0  0  0  0  0  0  0  0  0  0
   -1.8405    0.4962   -0.8251 C   0  0  0  0  0  0  0  0  0  0  0  0
   -3.2191    1.4507    0.5574 C   0  0  0  0  0  0  0  0  0  0  0  0
   -2.8649   -0.3515   -0.5082 C   0  0  0  0  0  0  0  0  0  0  0  0
   -2.9222   -1.6875   -1.0777 C   0  0  0  0  0  0  0  0  0  0  0  0
   -0.9359   -1.1106   -2.1790 C   0  0  0  0  0  0  0  0  0  0  0  0
    0.8796    1.7260    1.3419 H   0  0  0  0  0  0  0  0  0  0  0  0
   -1.8924    3.6625   -0.5357 H   0  0  0  0  0  0  0  0  0  0  0  0
    1.2787    4.1062   -0.5637 H   0  0  0  0  0  0  0  0  0  0  0  0
   -0.6965    4.3121    1.3491 H   0  0  0  0  0  0  0  0  0  0  0  0
   -1.1629    2.7771    2.0591 H   0  0  0  0  0  0  0  0  0  0  0  0
    3.1576    2.4475   -0.4207 H   0  0  0  0  0  0  0  0  0  0  0  0
    2.3468    2.4241   -2.0081 H   0  0  0  0  0  0  0  0  0  0  0  0
    2.5450    3.2603    1.7644 H   0  0  0  0  0  0  0  0  0  0  0  0
   -3.6414    2.2164    1.1938 H   0  0  0  0  0  0  0  0  0  0  0  0
   -0.0841    0.7840   -1.9063 H   0  0  0  0  0  0  0  0  0  0  0  0
   -0.1039   -1.3463   -2.8610 H   0  0  0  0  0  0  0  0  0  0  0  0
    3.5598    0.6108   -3.2878 H   0  0  0  0  0  0  0  0  0  0  0  0
    3.7175   -3.2276    0.9348 H   0  0  0  0  0  0  0  0  0  0  0  0
   -1.1827    0.3249    3.2809 H   0  0  0  0  0  0  0  0  0  0  0  0
   -1.5476   -2.7169    3.1269 H   0  0  0  0  0  0  0  0  0  0  0  0
  1  6  1  0  0  0  0
  1  7  1  0  0  0  0
  1  8  1  0  0  0  0
  1  9  2  0  0  0  0
  2  7  1  0  0  0  0
  2 11  1  0  0  0  0
  2 12  1  0  0  0  0
  2 13  2  0  0  0  0
  3 11  1  0  0  0  0
  3 14  1  0  0  0  0
  3 15  1  0  0  0  0
  3 16  2  0  0  0  0
  4 22  1  0  0  0  0
  4 23  1  0  0  0  0
  5 21  1  0  0  0  0
  5 38  1  0  0  0  0
  6 25  1  0  0  0  0
  8 42  1  0  0  0  0
 10 29  2  0  0  0  0
 12 43  1  0  0  0  0
 14 44  1  0  0  0  0
 15 45  1  0  0  0  0
 17 22  1  0  0  0  0
 17 26  1  0  0  0  0
 17 27  1  0  0  0  0
 18 27  2  0  0  0  0
 18 28  1  0  0  0  0
 19 26  1  0  0  0  0
 19 30  1  0  0  0  0
 19 40  1  0  0  0  0
 20 29  1  0  0  0  0
 20 30  2  0  0  0  0
 21 23  1  0  0  0  0
 21 24  1  0  0  0  0
 21 31  1  0  0  0  0
 22 24  1  0  0  0  0
 22 32  1  0  0  0  0
 23 25  1  0  0  0  0
 23 33  1  0  0  0  0
 24 34  1  0  0  0  0
 24 35  1  0  0  0  0
 25 36  1  0  0  0  0
 25 37  1  0  0  0  0
 26 28  2  0  0  0  0
 27 39  1  0  0  0  0
 28 29  1  0  0  0  0
 30 41  1  0  0  0  0
M  END
> <PUBCHEM_COMPOUND_CID>
146302

> <PUBCHEM_CONFORMER_RMSD>
1.2

> <PUBCHEM_CONFORMER_DIVERSEORDER>
4
117
55
244
29
76
21
70
43
216
148
330
312
326
200
34
236
88
250
137
42
309
64
93
232
185
92
177
134
5
98
90
75
248
151
193
317
251
94
195
38
240
173
260
194
209
254
163
288
224
234
152
278
129
167
82
127
292
97
256
18
91
108
104
69
9
35
143
215
300
103
20
263
266
79
40
264
85
105
211
118
168
30
242
286
301
39
77
217
262
277
58
261
132
188
281
17
114
60
81
337
31
139
280
268
270
149
176
128
48
144
305
50
80
182
155
95
138
115
327
53
65
171
241
142
7
338
37
164
269
130
84
54
107
318
258
237
214
259
63
272
231
192
174
147
110
228
271
205
160
315
44
267
124
161
159
45
219
150
8
86
196
49
285
14
189
101
87
16
282
1
62
316
112
190
198
304
136
26
122
293
133
296
229
78
331
89
145
279
295
208
57
227
22
175
123
321
233
226
119
283
33
183
291
191
6
252
157
106
218
246
284
169
121
96
51
322
68
243
116
11
172
41
170
297
207
23
19
289
178
313
187
46
306
308
302
72
303
3
113
274
102
83
212
146
265
154
186
307
299
12
255
235
311
325
332
253
15
247
225
141
239
100
336
197
2
179
245
273
52
126
99
120
290
25
213
166
222
27
156
201
294
324
276
109
59
275
73
71
28
202
249
184
298
47
339
328
135
221
67
131
24
181
180
310
319
66
314
220
206
323
329
230
158
335
199
203
10
223
165
61
340
32
153
204
287
210
125
238
56
111
320
74
36
333
257
140
13
334
162

> <PUBCHEM_MMFF94_PARTIAL_CHARGES>
37
1 1.51
10 -0.57
11 -0.54
12 -0.77
13 -0.7
14 -0.77
15 -0.77
16 -0.7
17 0.05
18 -0.57
19 -0.53
2 1.51
20 -0.66
21 0.28
22 0.54
23 0.28
25 0.28
26 -0.07
27 0.04
28 0.14
29 0.87
3 1.51
30 0.44
38 0.4
39 0.15
4 -0.56
40 0.4
41 0.06
42 0.5
43 0.5
44 0.5
45 0.5
5 -0.68
6 -0.55
7 -0.54
8 -0.77
9 -0.7

> <PUBCHEM_EFFECTIVE_ROTOR_COUNT>
9

> <PUBCHEM_PHARMACOPHORE_FEATURES>
18
1 10 acceptor
1 12 acceptor
1 13 acceptor
1 14 acceptor
1 15 acceptor
1 16 acceptor
1 19 donor
1 20 donor
1 4 acceptor
1 5 acceptor
1 5 donor
1 8 acceptor
1 9 acceptor
3 17 18 27 cation
4 3 14 15 16 anion
5 17 18 26 27 28 rings
5 4 21 22 23 24 rings
6 19 20 26 28 29 30 rings

> <PUBCHEM_HEAVY_ATOM_COUNT>
30

> <PUBCHEM_ATOM_DEF_STEREO_COUNT>
3

> <PUBCHEM_ATOM_UDEF_STEREO_COUNT>
0

> <PUBCHEM_BOND_DEF_STEREO_COUNT>
0

> <PUBCHEM_BOND_UDEF_STEREO_COUNT>
0

> <PUBCHEM_ISOTOPIC_ATOM_COUNT>
0

> <PUBCHEM_COMPONENT_COUNT>
1

> <PUBCHEM_CACTVS_TAUTO_COUNT>
3

> <PUBCHEM_CONFORMER_ID>
00023B7E00000004

> <PUBCHEM_MMFF94_ENERGY>
-10.536

> <PUBCHEM_FEATURE_SELFOVERLAP>
91.551

> <PUBCHEM_SHAPE_FINGERPRINT>
11244481 83 13914855481314957943
12539773 59 17693656326343397728
13140716 1 18261108530772537677
14787075 74 17916278633555040299
19026451 147 18120403997780627375
19930381 70 17905886972724807607
20691752 17 17916873408873565157
20764821 26 17838888240460256188
23419403 2 17626932089676360779
238 59 17905037050119998596
35225 105 16616958469584566329
5845 1 16256708453905091142
6287921 2 17827110366029057354

> <PUBCHEM_SHAPE_MULTIPOLES>
532.71
5.17
4.61
2.73
0.03
1.7
-1.57
-1.87
1.98
-0.67
-1.27
-0.96
-1.26
-1.02

> <PUBCHEM_SHAPE_SELFOVERLAP>
1087.516

> <PUBCHEM_SHAPE_VOLUME>
310

> <PUBCHEM_COORDINATE_TYPE>
2
5
10

$$$$

