443290
  -OEChem-07051213013D

 25 25  0     1  0  0  0  0  0999 V2000
    1.5113    1.5495    1.1690 O   0  0  0  0  0  0  0  0  0  0  0  0
    3.4029    1.4696   -0.7025 O   0  0  0  0  0  0  0  0  0  0  0  0
   -4.3064   -0.0639   -1.2533 O   0  0  0  0  0  0  0  0  0  0  0  0
   -3.8718    0.4597    0.9139 O   0  0  0  0  0  0  0  0  0  0  0  0
    1.1538    0.8531   -0.0273 C   0  0  2  0  0  0  0  0  0  0  0  0
    0.2986   -0.3245    0.3873 C   0  0  0  0  0  0  0  0  0  0  0  0
    2.4199    0.4452   -0.8171 C   0  0  2  0  0  0  0  0  0  0  0  0
   -1.1401   -0.0462    0.7037 C   0  0  0  0  0  0  0  0  0  0  0  0
    0.8309   -1.5560    0.4858 C   0  0  0  0  0  0  0  0  0  0  0  0
    2.9917   -0.8785   -0.3852 C   0  0  0  0  0  0  0  0  0  0  0  0
   -2.0407   -0.2168   -0.5092 C   0  0  0  0  0  0  0  0  0  0  0  0
    2.2307   -1.7971    0.2262 C   0  0  0  0  0  0  0  0  0  0  0  0
   -3.4808    0.1058   -0.1912 C   0  0  0  0  0  0  0  0  0  0  0  0
    0.5813    1.5526   -0.6484 H   0  0  0  0  0  0  0  0  0  0  0  0
    2.1701    0.3515   -1.8817 H   0  0  0  0  0  0  0  0  0  0  0  0
   -1.2469    0.9631    1.1200 H   0  0  0  0  0  0  0  0  0  0  0  0
   -1.4772   -0.7212    1.5023 H   0  0  0  0  0  0  0  0  0  0  0  0
    0.2309   -2.4056    0.7950 H   0  0  0  0  0  0  0  0  0  0  0  0
    4.0305   -1.1007   -0.6091 H   0  0  0  0  0  0  0  0  0  0  0  0
   -1.7196    0.4511   -1.3169 H   0  0  0  0  0  0  0  0  0  0  0  0
   -1.9985   -1.2511   -0.8696 H   0  0  0  0  0  0  0  0  0  0  0  0
    2.6430   -2.7581    0.5132 H   0  0  0  0  0  0  0  0  0  0  0  0
    0.7063    1.9547    1.5335 H   0  0  0  0  0  0  0  0  0  0  0  0
    2.9955    2.3000   -1.0029 H   0  0  0  0  0  0  0  0  0  0  0  0
   -5.2396    0.1373   -1.0277 H   0  0  0  0  0  0  0  0  0  0  0  0
  1  5  1  0  0  0  0
  1 23  1  0  0  0  0
  2  7  1  0  0  0  0
  2 24  1  0  0  0  0
  3 13  1  0  0  0  0
  3 25  1  0  0  0  0
  4 13  2  0  0  0  0
  5  6  1  0  0  0  0
  5  7  1  0  0  0  0
  5 14  1  0  0  0  0
  6  8  1  0  0  0  0
  6  9  2  0  0  0  0
  7 10  1  0  0  0  0
  7 15  1  0  0  0  0
  8 11  1  0  0  0  0
  8 16  1  0  0  0  0
  8 17  1  0  0  0  0
  9 12  1  0  0  0  0
  9 18  1  0  0  0  0
 10 12  2  0  0  0  0
 10 19  1  0  0  0  0
 11 13  1  0  0  0  0
 11 20  1  0  0  0  0
 11 21  1  0  0  0  0
 12 22  1  0  0  0  0
M  END
> <PUBCHEM_COMPOUND_CID>
443290

> <PUBCHEM_CONFORMER_RMSD>
0.6

> <PUBCHEM_CONFORMER_DIVERSEORDER>
1
15
7
5
22
19
8
24
12
6
13
20
23
25
4
18
11
14
16
3
10
9
2
21
17

> <PUBCHEM_MMFF94_PARTIAL_CHARGES>
19
1 -0.68
10 -0.29
11 0.06
12 -0.15
13 0.66
18 0.15
19 0.15
2 -0.68
22 0.15
23 0.4
24 0.4
25 0.5
3 -0.65
4 -0.57
5 0.42
6 -0.28
7 0.42
8 0.14
9 -0.15

> <PUBCHEM_EFFECTIVE_ROTOR_COUNT>
3.4

> <PUBCHEM_PHARMACOPHORE_FEATURES>
8
1 1 acceptor
1 1 donor
1 2 acceptor
1 2 donor
1 3 acceptor
1 4 acceptor
3 3 4 13 anion
6 5 6 7 9 10 12 rings

> <PUBCHEM_HEAVY_ATOM_COUNT>
13

> <PUBCHEM_ATOM_DEF_STEREO_COUNT>
2

> <PUBCHEM_ATOM_UDEF_STEREO_COUNT>
0

> <PUBCHEM_BOND_DEF_STEREO_COUNT>
0

> <PUBCHEM_BOND_UDEF_STEREO_COUNT>
0

> <PUBCHEM_ISOTOPIC_ATOM_COUNT>
0

> <PUBCHEM_COMPONENT_COUNT>
1

> <PUBCHEM_CACTVS_TAUTO_COUNT>
1

> <PUBCHEM_CONFORMER_ID>
0006C39A00000001

> <PUBCHEM_MMFF94_ENERGY>
18.8987

> <PUBCHEM_FEATURE_SELFOVERLAP>
40.669

> <PUBCHEM_SHAPE_FINGERPRINT>
10751810 167 17385437726731355701
11031198 65 18343575226954221966
11471102 20 18343021107606561582
12932764 1 18187651305972093609
13380535 21 18342167826538625083
14144814 61 18040435512211893211
14251717 144 18410578408973411159
14993402 34 17894908542384014446
15219456 202 17917701388294487555
15775835 57 18408881806712671103
16945 1 18200016456756437298
18186145 218 18130499820867755131
19422 9 18187644730335082503
20279233 1 17203891868674810011
20606313 2 18272652354939118372
20645477 70 18342180015840524935
20820808 20 18342732988605548832
23402655 69 18411702123132030621
25 1 18341323418777357930
2748010 2 17905311949913170640
522135 26 18410014368620224239
74978 22 17967537839740252199
77492 1 17968371346726296531

> <PUBCHEM_SHAPE_MULTIPOLES>
244.06
6.77
1.5
1.01
6.97
0.16
0.01
-0.77
-1.72
-1.7
0.17
0.34
-0.17
-0.22

> <PUBCHEM_SHAPE_SELFOVERLAP>
494.041

> <PUBCHEM_SHAPE_VOLUME>
140.7

> <PUBCHEM_COORDINATE_TYPE>
2
5
10

$$$$

