10332558
  -OEChem-07051213103D

 44 44  0     1  0  0  0  0  0999 V2000
   -2.3574    0.2577   -1.7583 O   0  0  0  0  0  0  0  0  0  0  0  0
   -2.3765   -2.3670   -0.7722 O   0  0  0  0  0  0  0  0  0  0  0  0
    3.7703    1.8689   -0.2409 O   0  0  0  0  0  0  0  0  0  0  0  0
   -0.8155    1.0720   -0.0509 C   0  0  2  0  0  0  0  0  0  0  0  0
   -1.8036   -0.0528   -0.4723 C   0  0  2  0  0  0  0  0  0  0  0  0
   -1.6364    2.3375    0.2723 C   0  0  0  0  0  0  0  0  0  0  0  0
    0.2629    1.4722   -1.0872 C   0  0  0  0  0  0  0  0  0  0  0  0
   -1.2618   -1.4983   -0.5110 C   0  0  1  0  0  0  0  0  0  0  0  0
    1.4133    0.4844   -1.3286 C   0  0  0  0  0  0  0  0  0  0  0  0
   -2.7413    2.0032    1.2639 C   0  0  0  0  0  0  0  0  0  0  0  0
   -0.7231    3.4275    0.8142 C   0  0  0  0  0  0  0  0  0  0  0  0
   -0.5616   -2.0147    0.7314 C   0  0  0  0  0  0  0  0  0  0  0  0
    2.1963    0.0833   -0.0955 C   0  0  0  0  0  0  0  0  0  0  0  0
    0.5734   -2.9985    0.5216 C   0  0  0  0  0  0  0  0  0  0  0  0
    1.7735   -2.4373   -0.2532 C   0  0  0  0  0  0  0  0  0  0  0  0
    2.3340   -1.1808    0.3523 C   0  0  0  0  0  0  0  0  0  0  0  0
    2.8791    1.2112    0.6361 C   0  0  0  0  0  0  0  0  0  0  0  0
   -0.9255   -1.6686    1.9784 C   0  0  0  0  0  0  0  0  0  0  0  0
   -0.3104    0.7712    0.8734 H   0  0  0  0  0  0  0  0  0  0  0  0
   -2.6626   -0.1120    0.1977 H   0  0  0  0  0  0  0  0  0  0  0  0
   -2.1094    2.7350   -0.6346 H   0  0  0  0  0  0  0  0  0  0  0  0
    0.7550    2.4095   -0.8227 H   0  0  0  0  0  0  0  0  0  0  0  0
   -0.2209    1.6715   -2.0525 H   0  0  0  0  0  0  0  0  0  0  0  0
   -0.6234   -1.6062   -1.3890 H   0  0  0  0  0  0  0  0  0  0  0  0
    2.1125    0.9452   -2.0396 H   0  0  0  0  0  0  0  0  0  0  0  0
    1.0229   -0.3786   -1.8678 H   0  0  0  0  0  0  0  0  0  0  0  0
   -3.6070    1.5343    0.7866 H   0  0  0  0  0  0  0  0  0  0  0  0
   -3.1366    2.9198    1.7185 H   0  0  0  0  0  0  0  0  0  0  0  0
   -2.3867    1.3718    2.0848 H   0  0  0  0  0  0  0  0  0  0  0  0
   -0.1685    3.9453    0.0265 H   0  0  0  0  0  0  0  0  0  0  0  0
   -1.3109    4.2112    1.3070 H   0  0  0  0  0  0  0  0  0  0  0  0
   -0.0173    3.0431    1.5578 H   0  0  0  0  0  0  0  0  0  0  0  0
    0.9311   -3.3784    1.4881 H   0  0  0  0  0  0  0  0  0  0  0  0
    0.1835   -3.8732   -0.0145 H   0  0  0  0  0  0  0  0  0  0  0  0
    1.5177   -2.3074   -1.3081 H   0  0  0  0  0  0  0  0  0  0  0  0
    2.5699   -3.1930   -0.2528 H   0  0  0  0  0  0  0  0  0  0  0  0
   -2.9369    1.0309   -1.6566 H   0  0  0  0  0  0  0  0  0  0  0  0
    2.9208   -1.3466    1.2549 H   0  0  0  0  0  0  0  0  0  0  0  0
   -2.9897   -2.3082   -0.0195 H   0  0  0  0  0  0  0  0  0  0  0  0
    3.4547    0.8519    1.4960 H   0  0  0  0  0  0  0  0  0  0  0  0
    2.1464    1.9318    1.0102 H   0  0  0  0  0  0  0  0  0  0  0  0
   -1.7528   -0.9960    2.1699 H   0  0  0  0  0  0  0  0  0  0  0  0
   -0.4098   -2.0649    2.8470 H   0  0  0  0  0  0  0  0  0  0  0  0
    4.1779    2.5985    0.2561 H   0  0  0  0  0  0  0  0  0  0  0  0
  1  5  1  0  0  0  0
  1 37  1  0  0  0  0
  2  8  1  0  0  0  0
  2 39  1  0  0  0  0
  3 17  1  0  0  0  0
  3 44  1  0  0  0  0
  4  5  1  0  0  0  0
  4  6  1  0  0  0  0
  4  7  1  0  0  0  0
  4 19  1  0  0  0  0
  5  8  1  0  0  0  0
  5 20  1  0  0  0  0
  6 10  1  0  0  0  0
  6 11  1  0  0  0  0
  6 21  1  0  0  0  0
  7  9  1  0  0  0  0
  7 22  1  0  0  0  0
  7 23  1  0  0  0  0
  8 12  1  0  0  0  0
  8 24  1  0  0  0  0
  9 13  1  0  0  0  0
  9 25  1  0  0  0  0
  9 26  1  0  0  0  0
 10 27  1  0  0  0  0
 10 28  1  0  0  0  0
 10 29  1  0  0  0  0
 11 30  1  0  0  0  0
 11 31  1  0  0  0  0
 11 32  1  0  0  0  0
 12 14  1  0  0  0  0
 12 18  2  0  0  0  0
 13 16  2  0  0  0  0
 13 17  1  0  0  0  0
 14 15  1  0  0  0  0
 14 33  1  0  0  0  0
 14 34  1  0  0  0  0
 15 16  1  0  0  0  0
 15 35  1  0  0  0  0
 15 36  1  0  0  0  0
 16 38  1  0  0  0  0
 17 40  1  0  0  0  0
 17 41  1  0  0  0  0
 18 42  1  0  0  0  0
 18 43  1  0  0  0  0
M  END
> <PUBCHEM_COMPOUND_CID>
10332558

> <PUBCHEM_CONFORMER_RMSD>
0.6

> <PUBCHEM_CONFORMER_DIVERSEORDER>
1
16
13
14
15
7
2
8
12
4
5
6
10
9
11
3

> <PUBCHEM_MMFF94_PARTIAL_CHARGES>
19
1 -0.68
12 -0.28
13 -0.28
14 0.14
15 0.14
16 -0.29
17 0.42
18 -0.3
2 -0.68
3 -0.68
37 0.4
38 0.15
39 0.4
42 0.15
43 0.15
44 0.4
5 0.28
8 0.42
9 0.14

> <PUBCHEM_EFFECTIVE_ROTOR_COUNT>
3.4

> <PUBCHEM_PHARMACOPHORE_FEATURES>
7
1 1 acceptor
1 1 donor
1 2 acceptor
1 2 donor
1 3 acceptor
1 3 donor
3 6 10 11 hydrophobe

> <PUBCHEM_HEAVY_ATOM_COUNT>
18

> <PUBCHEM_ATOM_DEF_STEREO_COUNT>
3

> <PUBCHEM_ATOM_UDEF_STEREO_COUNT>
0

> <PUBCHEM_BOND_DEF_STEREO_COUNT>
1

> <PUBCHEM_BOND_UDEF_STEREO_COUNT>
0

> <PUBCHEM_ISOTOPIC_ATOM_COUNT>
0

> <PUBCHEM_COMPONENT_COUNT>
1

> <PUBCHEM_CACTVS_TAUTO_COUNT>
1

> <PUBCHEM_CONFORMER_ID>
009DA98E00000001

> <PUBCHEM_MMFF94_ENERGY>
46.4494

> <PUBCHEM_FEATURE_SELFOVERLAP>
35.528

> <PUBCHEM_SHAPE_FINGERPRINT>
108231 29 17904487307365176604
13027679 85 17690558585254455205
13140716 1 18341612641849080394
14142880 1 17970616390308739554
14251711 518 16974501032127862947
14817 1 13811352344121925147
15775835 57 17905603663701511714
15852999 172 17987537977507959094
15881359 60 17775562048515261641
16945 1 18193848264801030998
20510252 161 18266461997169252068
20511035 2 18054199275650620946
21061003 4 17832973962787269928
2334 1 18341898441915821702
23419403 2 16613992738885052430
23558518 356 18338234972230058188
2748010 2 18271802402481548182
7832392 63 17542514180707611530
81228 2 18266727013515013737

> <PUBCHEM_SHAPE_MULTIPOLES>
352.82
4.25
3.84
1.4
1.54
1.07
-0.05
1.09
-1
-1.54
-0.14
0.48
-0.47
-0.63

> <PUBCHEM_SHAPE_SELFOVERLAP>
693.136

> <PUBCHEM_SHAPE_VOLUME>
210.6

> <PUBCHEM_COORDINATE_TYPE>
2
5
10

$$$$

