440341
  -OEChem-07051212493D

 37 38  0     1  0  0  0  0  0999 V2000
    2.7662    2.9078   -0.0528 P   0  0  0  0  0  0  0  0  0  0  0  0
    1.0117   -0.8634    1.0998 O   0  0  0  0  0  0  0  0  0  0  0  0
    0.7960   -3.7654   -1.0103 O   0  0  0  0  0  0  0  0  0  0  0  0
    2.8203   -3.2918    0.7399 O   0  0  0  0  0  0  0  0  0  0  0  0
    2.5164    1.4513    0.6089 O   0  0  0  0  0  0  0  0  0  0  0  0
    1.7978    2.9119   -1.3480 O   0  0  0  0  0  0  0  0  0  0  0  0
    4.2439    2.7650   -0.6938 O   0  0  0  0  0  0  0  0  0  0  0  0
    2.5905    4.0676    0.8832 O   0  0  0  0  0  0  0  0  0  0  0  0
   -4.3785    2.9561   -0.0969 O   0  0  0  0  0  0  0  0  0  0  0  0
   -4.5058    1.1536    1.2801 O   0  0  0  0  0  0  0  0  0  0  0  0
   -1.0726   -1.4590    0.1349 N   0  0  0  0  0  0  0  0  0  0  0  0
   -3.2636   -1.4827   -0.2350 N   0  0  0  0  0  0  0  0  0  0  0  0
    1.0874   -2.4224   -0.6813 C   0  0  2  0  0  0  0  0  0  0  0  0
    2.4980   -2.2315   -0.1599 C   0  0  1  0  0  0  0  0  0  0  0  0
    0.2601   -1.9351    0.4984 C   0  0  1  0  0  0  0  0  0  0  0  0
    2.3788   -0.9333    0.6324 C   0  0  1  0  0  0  0  0  0  0  0  0
    2.6623    0.3034   -0.2087 C   0  0  0  0  0  0  0  0  0  0  0  0
   -1.3976   -0.1967   -0.2781 C   0  0  0  0  0  0  0  0  0  0  0  0
   -2.2258   -2.1946    0.1449 C   0  0  0  0  0  0  0  0  0  0  0  0
   -2.7540   -0.2361   -0.5002 C   0  0  0  0  0  0  0  0  0  0  0  0
   -3.6328    0.8506   -0.9587 C   0  0  0  0  0  0  0  0  0  0  0  0
   -4.1987    1.6449    0.2012 C   0  0  0  0  0  0  0  0  0  0  0  0
    0.9213   -1.8003   -1.5684 H   0  0  0  0  0  0  0  0  0  0  0  0
    3.2551   -2.2199   -0.9491 H   0  0  0  0  0  0  0  0  0  0  0  0
    0.1173   -2.7146    1.2573 H   0  0  0  0  0  0  0  0  0  0  0  0
    3.0152   -0.9302    1.5245 H   0  0  0  0  0  0  0  0  0  0  0  0
    1.9552    0.3766   -1.0407 H   0  0  0  0  0  0  0  0  0  0  0  0
    3.6809    0.2631   -0.6066 H   0  0  0  0  0  0  0  0  0  0  0  0
    0.9973   -4.3156   -0.2342 H   0  0  0  0  0  0  0  0  0  0  0  0
    3.7098   -3.1141    1.0904 H   0  0  0  0  0  0  0  0  0  0  0  0
   -0.6667    0.5936   -0.3803 H   0  0  0  0  0  0  0  0  0  0  0  0
   -2.2479   -3.2364    0.4342 H   0  0  0  0  0  0  0  0  0  0  0  0
   -4.4732    0.4579   -1.5407 H   0  0  0  0  0  0  0  0  0  0  0  0
   -3.0668    1.5293   -1.6077 H   0  0  0  0  0  0  0  0  0  0  0  0
    1.7227    3.7314   -1.8818 H   0  0  0  0  0  0  0  0  0  0  0  0
    4.6709    3.5576   -1.0832 H   0  0  0  0  0  0  0  0  0  0  0  0
   -4.7659    3.4527    0.6552 H   0  0  0  0  0  0  0  0  0  0  0  0
  1  5  1  0  0  0  0
  1  6  1  0  0  0  0
  1  7  1  0  0  0  0
  1  8  2  0  0  0  0
  2 15  1  0  0  0  0
  2 16  1  0  0  0  0
  3 13  1  0  0  0  0
  3 29  1  0  0  0  0
  4 14  1  0  0  0  0
  4 30  1  0  0  0  0
  5 17  1  0  0  0  0
  6 35  1  0  0  0  0
  7 36  1  0  0  0  0
  9 22  1  0  0  0  0
  9 37  1  0  0  0  0
 10 22  2  0  0  0  0
 11 15  1  0  0  0  0
 11 18  1  0  0  0  0
 11 19  1  0  0  0  0
 12 19  2  0  0  0  0
 12 20  1  0  0  0  0
 13 14  1  0  0  0  0
 13 15  1  0  0  0  0
 13 23  1  0  0  0  0
 14 16  1  0  0  0  0
 14 24  1  0  0  0  0
 15 25  1  0  0  0  0
 16 17  1  0  0  0  0
 16 26  1  0  0  0  0
 17 27  1  0  0  0  0
 17 28  1  0  0  0  0
 18 20  2  0  0  0  0
 18 31  1  0  0  0  0
 19 32  1  0  0  0  0
 20 21  1  0  0  0  0
 21 22  1  0  0  0  0
 21 33  1  0  0  0  0
 21 34  1  0  0  0  0
M  END
> <PUBCHEM_COMPOUND_CID>
440341

> <PUBCHEM_CONFORMER_RMSD>
0.8

> <PUBCHEM_CONFORMER_DIVERSEORDER>
11
81
141
91
62
109
119
54
50
87
137
73
147
52
143
142
84
21
140
29
126
145
8
77
47
35
89
64
132
134
51
94
19
90
128
72
110
37
18
49
80
32
46
96
121
98
104
92
85
28
144
36
130
120
115
139
113
53
69
86
114
65
40
57
45
82
108
7
39
123
78
95
99
76
34
138
16
146
27
97
116
122
133
105
79
2
129
5
61
43
33
38
42
106
20
83
58
107
31
111
88
71
3
26
48
74
23
30
93
9
127
10
4
125
102
1
15
44
12
17
14
24
56
55
41
124
6
70
63
100
66
13
135
60
117
75
118
101
131
22
68
103
112
59
25
67
136

> <PUBCHEM_MMFF94_PARTIAL_CHARGES>
29
1 1.51
10 -0.57
11 0.05
12 -0.57
13 0.28
14 0.28
15 0.54
16 0.28
17 0.28
18 -0.3
19 0.04
2 -0.56
20 0.05
21 0.24
22 0.66
29 0.4
3 -0.68
30 0.4
31 0.15
32 0.15
35 0.5
36 0.5
37 0.5
4 -0.68
5 -0.55
6 -0.77
7 -0.77
8 -0.7
9 -0.65

> <PUBCHEM_EFFECTIVE_ROTOR_COUNT>
7

> <PUBCHEM_PHARMACOPHORE_FEATURES>
15
1 10 acceptor
1 2 acceptor
1 3 acceptor
1 3 donor
1 4 acceptor
1 4 donor
1 6 acceptor
1 7 acceptor
1 8 acceptor
1 9 acceptor
3 11 12 19 cation
3 9 10 22 anion
4 1 6 7 8 anion
5 11 12 18 19 20 rings
5 2 13 14 15 16 rings

> <PUBCHEM_HEAVY_ATOM_COUNT>
22

> <PUBCHEM_ATOM_DEF_STEREO_COUNT>
4

> <PUBCHEM_ATOM_UDEF_STEREO_COUNT>
0

> <PUBCHEM_BOND_DEF_STEREO_COUNT>
0

> <PUBCHEM_BOND_UDEF_STEREO_COUNT>
0

> <PUBCHEM_ISOTOPIC_ATOM_COUNT>
0

> <PUBCHEM_COMPONENT_COUNT>
1

> <PUBCHEM_CACTVS_TAUTO_COUNT>
1

> <PUBCHEM_CONFORMER_ID>
0006B8150000000B

> <PUBCHEM_MMFF94_ENERGY>
4.8578

> <PUBCHEM_FEATURE_SELFOVERLAP>
76.223

> <PUBCHEM_SHAPE_FINGERPRINT>
10382601 240 17846506911269660872
11221954 11 18271524199979331475
11615756 256 18411140203833571041
12173636 292 17977390430055260380
12422481 6 18126876934824286272
12633257 1 18129678489881588002
13583140 156 17631175371831604707
15003188 100 18052271879977667309
15163728 17 18127108811317877612
15210252 30 18053647347126399420
15295992 7 17987506173507585547
1601671 61 18411704326766770794
17980427 23 18119279300474812922
18785283 64 18339917207787984299
20567600 299 18334866038416832504
20621476 13 18268158736890291965
21524375 3 18126572210920199538
21860390 5 18116719714482244453
23558518 356 18338811069511597283
23559900 14 18336841869570665991
474 4 18411426128486038651
5048184 11 18411696543843561869
53777708 50 18336272275397965295
5939293 188 18338525260564160154
6287921 2 18341886347261211439
84936 182 18335424517382937552
9981440 41 18124607383398609058

> <PUBCHEM_SHAPE_MULTIPOLES>
393.81
8.05
5.15
1
6.61
1.84
0.01
6.83
-0.33
-4.55
0.29
-0.02
0.15
-0.48

> <PUBCHEM_SHAPE_SELFOVERLAP>
806.926

> <PUBCHEM_SHAPE_VOLUME>
229.9

> <PUBCHEM_COORDINATE_TYPE>
2
5
10

$$$$

