17395316
  -OEChem-06241222492D

 49 51  0     1  0  0  0  0  0999 V2000
    3.7320    1.0000    0.0000 O   0  0  0  0  0  0  0  0  0  0  0  0
    5.4641   -2.0000    0.0000 O   0  0  0  0  0  0  0  0  0  0  0  0
    6.3301   -0.5000    0.0000 N   0  0  0  0  0  0  0  0  0  0  0  0
    4.5981    2.5000    0.0000 N   0  0  0  0  0  0  0  0  0  0  0  0
    5.4641    1.0000    0.0000 C   0  0  3  0  0  0  0  0  0  0  0  0
    6.3301    1.5000    0.0000 C   0  0  0  0  0  0  0  0  0  0  0  0
    5.4641    0.0000    0.0000 C   0  0  0  0  0  0  0  0  0  0  0  0
    7.1962    1.0000    0.0000 C   0  0  0  0  0  0  0  0  0  0  0  0
    7.1962    0.0000    0.0000 C   0  0  0  0  0  0  0  0  0  0  0  0
    4.5981    1.5000    0.0000 C   0  0  0  0  0  0  0  0  0  0  0  0
    6.3301   -1.5000    0.0000 C   0  0  0  0  0  0  0  0  0  0  0  0
    7.1962   -2.0000    0.0000 C   0  0  0  0  0  0  0  0  0  0  0  0
    7.1962   -3.0000    0.0000 C   0  0  0  0  0  0  0  0  0  0  0  0
    8.0622   -1.5000    0.0000 C   0  0  0  0  0  0  0  0  0  0  0  0
    3.7320    3.0000    0.0000 C   0  0  0  0  0  0  0  0  0  0  0  0
    8.0622   -3.5000    0.0000 C   0  0  0  0  0  0  0  0  0  0  0  0
    8.9282   -3.0000    0.0000 C   0  0  0  0  0  0  0  0  0  0  0  0
    8.9282   -2.0000    0.0000 C   0  0  0  0  0  0  0  0  0  0  0  0
    3.7320    4.0000    0.0000 C   0  0  0  0  0  0  0  0  0  0  0  0
    2.8660    2.5000    0.0000 C   0  0  0  0  0  0  0  0  0  0  0  0
    8.0622   -4.5000    0.0000 C   0  0  0  0  0  0  0  0  0  0  0  0
    9.7942   -3.5000    0.0000 C   0  0  0  0  0  0  0  0  0  0  0  0
    2.8660    4.5000    0.0000 C   0  0  0  0  0  0  0  0  0  0  0  0
    2.0000    3.0000    0.0000 C   0  0  0  0  0  0  0  0  0  0  0  0
    2.0000    4.0000    0.0000 C   0  0  0  0  0  0  0  0  0  0  0  0
    5.4641    1.6200    0.0000 H   0  0  0  0  0  0  0  0  0  0  0  0
    6.7287    1.9750    0.0000 H   0  0  0  0  0  0  0  0  0  0  0  0
    5.9316    1.9750    0.0000 H   0  0  0  0  0  0  0  0  0  0  0  0
    4.8535    0.1077    0.0000 H   0  0  0  0  0  0  0  0  0  0  0  0
    5.2520   -0.5826    0.0000 H   0  0  0  0  0  0  0  0  0  0  0  0
    7.8067    0.8923    0.0000 H   0  0  0  0  0  0  0  0  0  0  0  0
    7.4082    1.5826    0.0000 H   0  0  0  0  0  0  0  0  0  0  0  0
    7.4082   -0.5826    0.0000 H   0  0  0  0  0  0  0  0  0  0  0  0
    7.8067    0.1077    0.0000 H   0  0  0  0  0  0  0  0  0  0  0  0
    5.1350    2.8100    0.0000 H   0  0  0  0  0  0  0  0  0  0  0  0
    6.6592   -3.3100    0.0000 H   0  0  0  0  0  0  0  0  0  0  0  0
    8.0622   -0.8800    0.0000 H   0  0  0  0  0  0  0  0  0  0  0  0
    9.4651   -1.6900    0.0000 H   0  0  0  0  0  0  0  0  0  0  0  0
    4.2690    4.3100    0.0000 H   0  0  0  0  0  0  0  0  0  0  0  0
    2.8660    1.8800    0.0000 H   0  0  0  0  0  0  0  0  0  0  0  0
    7.4422   -4.5000    0.0000 H   0  0  0  0  0  0  0  0  0  0  0  0
    8.0622   -5.1200    0.0000 H   0  0  0  0  0  0  0  0  0  0  0  0
    8.6822   -4.5000    0.0000 H   0  0  0  0  0  0  0  0  0  0  0  0
    9.4842   -4.0369    0.0000 H   0  0  0  0  0  0  0  0  0  0  0  0
   10.3312   -3.8100    0.0000 H   0  0  0  0  0  0  0  0  0  0  0  0
   10.1042   -2.9631    0.0000 H   0  0  0  0  0  0  0  0  0  0  0  0
    2.8660    5.1200    0.0000 H   0  0  0  0  0  0  0  0  0  0  0  0
    1.4631    2.6900    0.0000 H   0  0  0  0  0  0  0  0  0  0  0  0
    1.4631    4.3100    0.0000 H   0  0  0  0  0  0  0  0  0  0  0  0
  1 10  2  0  0  0  0
  2 11  2  0  0  0  0
  3  7  1  0  0  0  0
  3  9  1  0  0  0  0
  3 11  1  0  0  0  0
  4 10  1  0  0  0  0
  4 15  1  0  0  0  0
  4 35  1  0  0  0  0
  5  6  1  0  0  0  0
  5  7  1  0  0  0  0
  5 10  1  0  0  0  0
  5 26  1  0  0  0  0
  6  8  1  0  0  0  0
  6 27  1  0  0  0  0
  6 28  1  0  0  0  0
  7 29  1  0  0  0  0
  7 30  1  0  0  0  0
  8  9  1  0  0  0  0
  8 31  1  0  0  0  0
  8 32  1  0  0  0  0
  9 33  1  0  0  0  0
  9 34  1  0  0  0  0
 11 12  1  0  0  0  0
 12 13  2  0  0  0  0
 12 14  1  0  0  0  0
 13 16  1  0  0  0  0
 13 36  1  0  0  0  0
 14 18  2  0  0  0  0
 14 37  1  0  0  0  0
 15 19  2  0  0  0  0
 15 20  1  0  0  0  0
 16 17  2  0  0  0  0
 16 21  1  0  0  0  0
 17 18  1  0  0  0  0
 17 22  1  0  0  0  0
 18 38  1  0  0  0  0
 19 23  1  0  0  0  0
 19 39  1  0  0  0  0
 20 24  2  0  0  0  0
 20 40  1  0  0  0  0
 21 41  1  0  0  0  0
 21 42  1  0  0  0  0
 21 43  1  0  0  0  0
 22 44  1  0  0  0  0
 22 45  1  0  0  0  0
 22 46  1  0  0  0  0
 23 25  2  0  0  0  0
 23 47  1  0  0  0  0
 24 25  1  0  0  0  0
 24 48  1  0  0  0  0
 25 49  1  0  0  0  0
M  END
> <PUBCHEM_COMPOUND_CID>
17395316

> <PUBCHEM_COMPOUND_CANONICALIZED>
1

> <PUBCHEM_CACTVS_COMPLEXITY>
473

> <PUBCHEM_CACTVS_HBOND_ACCEPTOR>
2

> <PUBCHEM_CACTVS_HBOND_DONOR>
1

> <PUBCHEM_CACTVS_ROTATABLE_BOND>
3

> <PUBCHEM_CACTVS_SUBSKEYS>
AAADceB7MAAAAAAAAAAAAAAAAAAAAAAAAAA8YIAAAAAAAAABQAAAHgAQAAAADQjBmAQywIPAAACIAiVSUACCAAAlAgAIiAEIZMgIIDrA1ZGEIQhglgDIyYcYicCOwAACAAAQAACAAAQAACAAAAAAAAAAAA==

> <PUBCHEM_IUPAC_OPENEYE_NAME>
1-(3,4-dimethylbenzoyl)-N-phenyl-piperidine-3-carboxamide

> <PUBCHEM_IUPAC_CAS_NAME>
1-[(3,4-dimethylphenyl)-oxomethyl]-N-phenyl-3-piperidinecarboxamide

> <PUBCHEM_IUPAC_NAME>
1-(3,4-dimethylbenzoyl)-N-phenylpiperidine-3-carboxamide

> <PUBCHEM_IUPAC_SYSTEMATIC_NAME>
1-(3,4-dimethylphenyl)carbonyl-N-phenyl-piperidine-3-carboxamide

> <PUBCHEM_IUPAC_TRADITIONAL_NAME>
1-(3,4-dimethylbenzoyl)-N-phenyl-nipecotamide

> <PUBCHEM_IUPAC_INCHI>
InChI=1S/C21H24N2O2/c1-15-10-11-17(13-16(15)2)21(25)23-12-6-7-18(14-23)20(24)22-19-8-4-3-5-9-19/h3-5,8-11,13,18H,6-7,12,14H2,1-2H3,(H,22,24)

> <PUBCHEM_IUPAC_INCHIKEY>
KHYXIEPKVGSDPW-UHFFFAOYSA-N

> <PUBCHEM_XLOGP3_AA>
3.4

> <PUBCHEM_EXACT_MASS>
336.183778

> <PUBCHEM_MOLECULAR_FORMULA>
C21H24N2O2

> <PUBCHEM_MOLECULAR_WEIGHT>
336.42746

> <PUBCHEM_OPENEYE_CAN_SMILES>
CC1=C(C=C(C=C1)C(=O)N2CCCC(C2)C(=O)NC3=CC=CC=C3)C

> <PUBCHEM_OPENEYE_ISO_SMILES>
CC1=C(C=C(C=C1)C(=O)N2CCCC(C2)C(=O)NC3=CC=CC=C3)C

> <PUBCHEM_CACTVS_TPSA>
49.4

> <PUBCHEM_MONOISOTOPIC_WEIGHT>
336.183778

> <PUBCHEM_TOTAL_CHARGE>
0

> <PUBCHEM_HEAVY_ATOM_COUNT>
25

> <PUBCHEM_ATOM_DEF_STEREO_COUNT>
0

> <PUBCHEM_ATOM_UDEF_STEREO_COUNT>
1

> <PUBCHEM_BOND_DEF_STEREO_COUNT>
0

> <PUBCHEM_BOND_UDEF_STEREO_COUNT>
0

> <PUBCHEM_ISOTOPIC_ATOM_COUNT>
0

> <PUBCHEM_COMPONENT_COUNT>
1

> <PUBCHEM_CACTVS_TAUTO_COUNT>
9

> <PUBCHEM_COORDINATE_TYPE>
1
5
255

> <PUBCHEM_BONDANNOTATIONS>
12  13  8
12  14  8
13  16  8
14  18  8
15  19  8
15  20  8
16  17  8
17  18  8
19  23  8
20  24  8
23  25  8
24  25  8
5  10  3

$$$$

