13259
  -OEChem-06261208133D

 30 31  0     0  0  0  0  0  0999 V2000
   -3.3454   -2.8446   -0.1287 Br  0  0  0  0  0  0  0  0  0  0  0  0
    3.9346   -1.3414   -0.5146 N   0  0  0  0  0  0  0  0  0  0  0  0
   -0.5492    2.4720    0.0941 N   0  0  0  0  0  0  0  0  0  0  0  0
    2.8118   -0.6377    0.1300 C   0  0  0  0  0  0  0  0  0  0  0  0
    1.8972   -0.0169   -0.9807 C   0  0  0  0  0  0  0  0  0  0  0  0
    0.7282    0.7705   -0.5384 C   0  0  0  0  0  0  0  0  0  0  0  0
   -0.5818    0.2743   -0.2882 C   0  0  0  0  0  0  0  0  0  0  0  0
    3.4154    0.4410    1.0399 C   0  0  0  0  0  0  0  0  0  0  0  0
    2.0573   -1.6706    0.9781 C   0  0  0  0  0  0  0  0  0  0  0  0
   -1.3635    1.3620    0.1070 C   0  0  0  0  0  0  0  0  0  0  0  0
    0.7166    2.1246   -0.2947 C   0  0  0  0  0  0  0  0  0  0  0  0
   -1.1795   -0.9997   -0.3603 C   0  0  0  0  0  0  0  0  0  0  0  0
   -2.7183    1.2389    0.4352 C   0  0  0  0  0  0  0  0  0  0  0  0
   -2.5338   -1.1379   -0.0351 C   0  0  0  0  0  0  0  0  0  0  0  0
   -3.2894   -0.0345    0.3564 C   0  0  0  0  0  0  0  0  0  0  0  0
    2.5182    0.6260   -1.6222 H   0  0  0  0  0  0  0  0  0  0  0  0
    1.5515   -0.8237   -1.6427 H   0  0  0  0  0  0  0  0  0  0  0  0
    3.9465    1.2040    0.4589 H   0  0  0  0  0  0  0  0  0  0  0  0
    2.6429    0.9456    1.6300 H   0  0  0  0  0  0  0  0  0  0  0  0
    4.1287    0.0116    1.7540 H   0  0  0  0  0  0  0  0  0  0  0  0
    1.2508   -1.2058    1.5546 H   0  0  0  0  0  0  0  0  0  0  0  0
    2.7233   -2.1559    1.7021 H   0  0  0  0  0  0  0  0  0  0  0  0
    1.6213   -2.4591    0.3543 H   0  0  0  0  0  0  0  0  0  0  0  0
    1.4940    2.8730   -0.3623 H   0  0  0  0  0  0  0  0  0  0  0  0
    4.5599   -1.7250    0.1934 H   0  0  0  0  0  0  0  0  0  0  0  0
    4.4904   -0.6806   -1.0566 H   0  0  0  0  0  0  0  0  0  0  0  0
   -0.8441    3.4077    0.3368 H   0  0  0  0  0  0  0  0  0  0  0  0
   -0.5942   -1.8607   -0.6709 H   0  0  0  0  0  0  0  0  0  0  0  0
   -3.3073    2.0975    0.7401 H   0  0  0  0  0  0  0  0  0  0  0  0
   -4.3418   -0.1467    0.6083 H   0  0  0  0  0  0  0  0  0  0  0  0
  1 14  1  0  0  0  0
  2  4  1  0  0  0  0
  2 25  1  0  0  0  0
  2 26  1  0  0  0  0
  3 10  1  0  0  0  0
  3 11  1  0  0  0  0
  3 27  1  0  0  0  0
  4  5  1  0  0  0  0
  4  8  1  0  0  0  0
  4  9  1  0  0  0  0
  5  6  1  0  0  0  0
  5 16  1  0  0  0  0
  5 17  1  0  0  0  0
  6  7  1  0  0  0  0
  6 11  2  0  0  0  0
  7 10  2  0  0  0  0
  7 12  1  0  0  0  0
  8 18  1  0  0  0  0
  8 19  1  0  0  0  0
  8 20  1  0  0  0  0
  9 21  1  0  0  0  0
  9 22  1  0  0  0  0
  9 23  1  0  0  0  0
 10 13  1  0  0  0  0
 11 24  1  0  0  0  0
 12 14  2  0  0  0  0
 12 28  1  0  0  0  0
 13 15  2  0  0  0  0
 13 29  1  0  0  0  0
 14 15  1  0  0  0  0
 15 30  1  0  0  0  0
M  END
> <PUBCHEM_COMPOUND_CID>
13259

> <PUBCHEM_CONFORMER_RMSD>
0.6

> <PUBCHEM_CONFORMER_DIVERSEORDER>
1
9
3
4
6
7
5
8
2

> <PUBCHEM_MMFF94_PARTIAL_CHARGES>
19
1 -0.11
10 -0.15
11 -0.3
12 -0.15
13 -0.15
14 0.11
15 -0.15
2 -0.99
24 0.15
25 0.36
26 0.36
27 0.27
28 0.15
29 0.15
3 0.03
30 0.15
4 0.27
5 0.18
6 -0.18

> <PUBCHEM_EFFECTIVE_ROTOR_COUNT>
2

> <PUBCHEM_PHARMACOPHORE_FEATURES>
8
1 1 hydrophobe
1 2 cation
1 2 donor
1 3 cation
1 3 donor
3 4 8 9 hydrophobe
5 3 6 7 10 11 rings
6 7 10 12 13 14 15 rings

> <PUBCHEM_HEAVY_ATOM_COUNT>
15

> <PUBCHEM_ATOM_DEF_STEREO_COUNT>
0

> <PUBCHEM_ATOM_UDEF_STEREO_COUNT>
0

> <PUBCHEM_BOND_DEF_STEREO_COUNT>
0

> <PUBCHEM_BOND_UDEF_STEREO_COUNT>
0

> <PUBCHEM_ISOTOPIC_ATOM_COUNT>
0

> <PUBCHEM_COMPONENT_COUNT>
1

> <PUBCHEM_CACTVS_TAUTO_COUNT>
1

> <PUBCHEM_CONFORMER_ID>
000033CB00000001

> <PUBCHEM_MMFF94_ENERGY>
19.3489

> <PUBCHEM_FEATURE_SELFOVERLAP>
40.686

> <PUBCHEM_SHAPE_FINGERPRINT>
10618630 7 18341895194857066918
11132069 177 18410859884055259634
11578080 2 17845675671546561940
11769659 78 18341050697118160855
11806522 49 18196938768642946726
12202030 40 16629391429518177889
12251169 10 18335136505349879681
12382932 28 18408326604933031618
12500047 106 18124320664272363796
12553582 1 18342173354119336979
13083527 12 17830474794516638317
13140716 1 18335411327923201025
13296908 3 18408604760063604702
14178342 30 18411429418156778642
14787075 74 18127131875413491496
15375462 189 18201996633668042971
16945 1 18337381742717293749
17804303 29 18118114995096821550
20291156 8 18413106147598513203
20361792 2 17203609306723220532
20442098 301 18411421747482487122
20510252 161 17971754625330241401
20559304 39 18120651336240483733
20645477 70 18051136887308554143
20653085 51 8502370078822484620
20871998 184 18187085078473316247
20871998 22 18336262336447425366
21501502 16 18266168436328767333
21501925 9 18263930934239449943
21650355 55 18337963375482995128
22445834 79 18200311159741737922
23184049 29 18337388228117663831
232386 152 18411973654879571519
23388829 49 18117854199997114663
23402539 116 18187372073343007589
23463225 33 18340763827298464639
23552423 10 18126276442276588101
23559900 14 18335422426282120180
25 1 8862404040198310104
2748010 2 18336267855670454349
34934 24 18341339962896566489
427121 178 16014338098321653161
5902787 121 18339642243923470611
6338986 31 18337399214665333431
7364860 26 18119528726099586009
81228 2 18264477563206753397

> <PUBCHEM_SHAPE_MULTIPOLES>
304.67
6.23
2.66
0.9
0.98
0.12
-0.05
3.92
-0.71
-1.34
-0.07
0.46
0.11
-0.34

> <PUBCHEM_SHAPE_SELFOVERLAP>
634.453

> <PUBCHEM_SHAPE_VOLUME>
179.3

> <PUBCHEM_COORDINATE_TYPE>
2
5
10

$$$$

