12563
  -OEChem-06261207053D

 25 26  0     0  0  0  0  0  0999 V2000
    0.6594    0.1995    0.0004 C   0  0  0  0  0  0  0  0  0  0  0  0
    1.4130   -0.9758    0.0002 C   0  0  0  0  0  0  0  0  0  0  0  0
   -0.7871    0.1615    0.0003 C   0  0  0  0  0  0  0  0  0  0  0  0
    1.3042    1.4377    0.0003 C   0  0  0  0  0  0  0  0  0  0  0  0
    2.8065   -0.9129   -0.0003 C   0  0  0  0  0  0  0  0  0  0  0  0
   -1.4840    0.1430   -1.2079 C   0  0  0  0  0  0  0  0  0  0  0  0
   -1.4845    0.1427    1.2083 C   0  0  0  0  0  0  0  0  0  0  0  0
    0.7593   -2.3207   -0.0002 C   0  0  0  0  0  0  0  0  0  0  0  0
    2.6977    1.5006    0.0000 C   0  0  0  0  0  0  0  0  0  0  0  0
    3.4488    0.3253   -0.0002 C   0  0  0  0  0  0  0  0  0  0  0  0
   -2.8784    0.1061   -1.2082 C   0  0  0  0  0  0  0  0  0  0  0  0
   -2.8790    0.1057    1.2078 C   0  0  0  0  0  0  0  0  0  0  0  0
   -3.5759    0.0874   -0.0005 C   0  0  0  0  0  0  0  0  0  0  0  0
    0.7356    2.3650    0.0005 H   0  0  0  0  0  0  0  0  0  0  0  0
    3.4081   -1.8180   -0.0006 H   0  0  0  0  0  0  0  0  0  0  0  0
   -0.9559    0.1566   -2.1584 H   0  0  0  0  0  0  0  0  0  0  0  0
   -0.9568    0.1560    2.1590 H   0  0  0  0  0  0  0  0  0  0  0  0
    1.4982   -3.1300    0.0007 H   0  0  0  0  0  0  0  0  0  0  0  0
    0.1411   -2.4524    0.8938 H   0  0  0  0  0  0  0  0  0  0  0  0
    0.1426   -2.4526   -0.8951 H   0  0  0  0  0  0  0  0  0  0  0  0
    3.1980    2.4645   -0.0001 H   0  0  0  0  0  0  0  0  0  0  0  0
    4.5338    0.3744   -0.0006 H   0  0  0  0  0  0  0  0  0  0  0  0
   -3.4211    0.0916   -2.1488 H   0  0  0  0  0  0  0  0  0  0  0  0
   -3.4222    0.0909    2.1481 H   0  0  0  0  0  0  0  0  0  0  0  0
   -4.6615    0.0584   -0.0008 H   0  0  0  0  0  0  0  0  0  0  0  0
  1  2  1  0  0  0  0
  1  3  1  0  0  0  0
  1  4  2  0  0  0  0
  2  5  2  0  0  0  0
  2  8  1  0  0  0  0
  3  6  2  0  0  0  0
  3  7  1  0  0  0  0
  4  9  1  0  0  0  0
  4 14  1  0  0  0  0
  5 10  1  0  0  0  0
  5 15  1  0  0  0  0
  6 11  1  0  0  0  0
  6 16  1  0  0  0  0
  7 12  2  0  0  0  0
  7 17  1  0  0  0  0
  8 18  1  0  0  0  0
  8 19  1  0  0  0  0
  8 20  1  0  0  0  0
  9 10  2  0  0  0  0
  9 21  1  0  0  0  0
 10 22  1  0  0  0  0
 11 13  2  0  0  0  0
 11 23  1  0  0  0  0
 12 13  1  0  0  0  0
 12 24  1  0  0  0  0
 13 25  1  0  0  0  0
M  END
> <PUBCHEM_COMPOUND_CID>
12563

> <PUBCHEM_CONFORMER_RMSD>
0.4

> <PUBCHEM_CONFORMER_DIVERSEORDER>
1

> <PUBCHEM_MMFF94_PARTIAL_CHARGES>
20
10 -0.15
11 -0.15
12 -0.15
13 -0.15
14 0.15
15 0.15
16 0.15
17 0.15
2 -0.14
21 0.15
22 0.15
23 0.15
24 0.15
25 0.15
4 -0.15
5 -0.15
6 -0.15
7 -0.15
8 0.14
9 -0.15

> <PUBCHEM_EFFECTIVE_ROTOR_COUNT>
1

> <PUBCHEM_PHARMACOPHORE_FEATURES>
2
6 1 2 4 5 9 10 rings
6 3 6 7 11 12 13 rings

> <PUBCHEM_HEAVY_ATOM_COUNT>
13

> <PUBCHEM_ATOM_DEF_STEREO_COUNT>
0

> <PUBCHEM_ATOM_UDEF_STEREO_COUNT>
0

> <PUBCHEM_BOND_DEF_STEREO_COUNT>
0

> <PUBCHEM_BOND_UDEF_STEREO_COUNT>
0

> <PUBCHEM_ISOTOPIC_ATOM_COUNT>
0

> <PUBCHEM_COMPONENT_COUNT>
1

> <PUBCHEM_CACTVS_TAUTO_COUNT>
1

> <PUBCHEM_CONFORMER_ID>
0000311300000001

> <PUBCHEM_MMFF94_ENERGY>
42.4008

> <PUBCHEM_FEATURE_SELFOVERLAP>
10.149

> <PUBCHEM_SHAPE_FINGERPRINT>
10219947 1 18413388735198236516
10608611 8 17989212550823455029
107287 299 18201430385359014726
11031198 65 18342735213071599740
11471102 20 18411985783883104380
11578080 2 12605734090469938694
12236239 1 17676206883331030285
12326174 3 18271814578597541042
124424 183 17417823858707036936
12932764 1 17775287161770560755
13538477 17 17386013853538991743
13581323 91 15123791777539444633
14144814 61 17822009817534473009
14251717 144 18409452496186811479
15219456 202 17989208157018799557
15279307 12 17894633655882192655
15309172 13 18412542085290441938
15775835 57 17894627041431855985
16945 1 18410574006921751686
17844478 74 17917705820758804613
18175812 5 17703788098159327775
18186145 218 18333729096306937676
19049666 15 17630334261993524773
19422 9 17676204680086784167
200 152 18333740113140495621
20201158 50 18131069372043394763
20279233 1 17775567541693998235
204376 136 18268148665471076768
20645464 45 17561366184224332785
20645477 70 18339371875943574199
21639500 275 18337118864727506540
21730867 7 18343581845620144318
22802520 49 17843693393778237013
23236772 104 17748827406058598291
23402539 116 16773809073507265919
23557571 272 16988558039502337295
23559900 14 16558475283395680458
23728640 28 15170802917709854715
2748010 2 18195518208515834234
474 4 17678754323367304464
528886 8 18409170987098048528
53748568 43 17894347787216734663
77492 1 17676488354097189153
81228 2 16681769290000845610
8272917 22 18189891097215487903

> <PUBCHEM_SHAPE_MULTIPOLES>
267.53
5.7
1.52
1.07
0.92
0.6
0
-0.8
0
-1.29
0
0.98
-0.06
0

> <PUBCHEM_SHAPE_SELFOVERLAP>
580.203

> <PUBCHEM_SHAPE_VOLUME>
137.9

> <PUBCHEM_COORDINATE_TYPE>
2
5
10

$$$$

