9540
  -OEChem-06261203483D

 22 21  0     0  0  0  0  0  0999 V2000
   -5.1244   -1.0434   -0.1509 S   0  0  0  0  0  0  0  0  0  0  0  0
    5.0329   -1.0113   -0.1030 F   0  0  0  0  0  0  0  0  0  0  0  0
   -2.5391   -0.2130    0.3840 N   0  0  0  0  0  0  0  0  0  0  0  0
    0.3357    0.2422   -0.2182 C   0  0  0  0  0  0  0  0  0  0  0  0
    1.7522    0.6693    0.1715 C   0  0  0  0  0  0  0  0  0  0  0  0
   -0.6803    1.3481    0.0828 C   0  0  0  0  0  0  0  0  0  0  0  0
    2.7708   -0.4190   -0.1585 C   0  0  0  0  0  0  0  0  0  0  0  0
   -2.0940    0.9737   -0.3482 C   0  0  0  0  0  0  0  0  0  0  0  0
    4.1844    0.0098    0.1915 C   0  0  0  0  0  0  0  0  0  0  0  0
   -3.6380   -0.5563    0.1490 C   0  0  0  0  0  0  0  0  0  0  0  0
    0.0726   -0.6720    0.3267 H   0  0  0  0  0  0  0  0  0  0  0  0
    0.3065    0.0015   -1.2879 H   0  0  0  0  0  0  0  0  0  0  0  0
    1.7872    0.8942    1.2444 H   0  0  0  0  0  0  0  0  0  0  0  0
    2.0165    1.5912   -0.3608 H   0  0  0  0  0  0  0  0  0  0  0  0
   -0.6710    1.5658    1.1581 H   0  0  0  0  0  0  0  0  0  0  0  0
   -0.3853    2.2685   -0.4352 H   0  0  0  0  0  0  0  0  0  0  0  0
    2.5306   -1.3414    0.3834 H   0  0  0  0  0  0  0  0  0  0  0  0
    2.7284   -0.6713   -1.2248 H   0  0  0  0  0  0  0  0  0  0  0  0
   -2.1088    0.7899   -1.4309 H   0  0  0  0  0  0  0  0  0  0  0  0
   -2.7581    1.8244   -0.1442 H   0  0  0  0  0  0  0  0  0  0  0  0
    4.2849    0.2331    1.2576 H   0  0  0  0  0  0  0  0  0  0  0  0
    4.4950    0.8845   -0.3873 H   0  0  0  0  0  0  0  0  0  0  0  0
  1 10  2  0  0  0  0
  2  9  1  0  0  0  0
  3  8  1  0  0  0  0
  3 10  2  0  0  0  0
  4  5  1  0  0  0  0
  4  6  1  0  0  0  0
  4 11  1  0  0  0  0
  4 12  1  0  0  0  0
  5  7  1  0  0  0  0
  5 13  1  0  0  0  0
  5 14  1  0  0  0  0
  6  8  1  0  0  0  0
  6 15  1  0  0  0  0
  6 16  1  0  0  0  0
  7  9  1  0  0  0  0
  7 17  1  0  0  0  0
  7 18  1  0  0  0  0
  8 19  1  0  0  0  0
  8 20  1  0  0  0  0
  9 21  1  0  0  0  0
  9 22  1  0  0  0  0
M  END
> <PUBCHEM_COMPOUND_CID>
9540

> <PUBCHEM_CONFORMER_RMSD>
0.6

> <PUBCHEM_CONFORMER_DIVERSEORDER>
1
296
77
287
11
355
6
186
239
316
343
258
12
189
345
2
300
25
350
8
313
360
47
269
37
31
325
223
301
116
326
57
173
150
200
293
62
347
9
281
243
91
187
307
295
199
49
284
242
213
40
209
264
71
351
245
333
310
72
144
5
95
315
252
138
288
283
302
262
322
35
55
222
304
23
228
289
308
129
236
319
353
151
265
216
135
294
51
273
342
68
306
260
285
191
4
352
217
134
212
99
298
341
147
272
26
303
279
195
356
149
7
323
280
56
180
221
89
331
321
124
358
43
54
36
181
192
318
63
336
344
193
267
39
82
59
174
93
45
330
104
268
211
250
110
41
14
188
305
79
127
338
204
131
85
159
171
202
168
340
3
312
97
335
172
161
81
256
160
286
137
234
66
334
162
122
112
182
292
327
106
119
244
65
42
73
255
139
203
10
16
205
154
141
121
317
27
184
176
123
94
207
128
96
359
111
155
145
148
70
136
348
271
64
230
263
20
227
241
53
33
251
24
30
185
248
214
142
87
76
88
238
58
13
118
320
291
78
152
21
275
224
274
282
146
339
196
253
194
38
299
17
226
60
231
237
46
229
113
206
143
84
15
153
332
117
133
132
346
177
278
190
328
309
29
175
140
32
165
218
208
354
314
115
75
254
19
259
249
44
266
225
240
277
28
357
101
349
233
61
219
108
270
337
102
311
109
210
86
166
261
198
34
107
201
67
22
276
235
257
163
126
197
69
246
74
167
215
98
125
297
179
232
103
247
157
169
18
183
120
50
92
329
324
156
170
90
290
130
80
164
158
83
52
114
48
105
100
220
178

> <PUBCHEM_MMFF94_PARTIAL_CHARGES>
6
1 -0.27
10 0.57
2 -0.34
3 -0.55
8 0.25
9 0.34

> <PUBCHEM_EFFECTIVE_ROTOR_COUNT>
6

> <PUBCHEM_PHARMACOPHORE_FEATURES>
3
1 1 acceptor
1 3 acceptor
4 4 5 6 7 hydrophobe

> <PUBCHEM_HEAVY_ATOM_COUNT>
10

> <PUBCHEM_ATOM_DEF_STEREO_COUNT>
0

> <PUBCHEM_ATOM_UDEF_STEREO_COUNT>
0

> <PUBCHEM_BOND_DEF_STEREO_COUNT>
0

> <PUBCHEM_BOND_UDEF_STEREO_COUNT>
0

> <PUBCHEM_ISOTOPIC_ATOM_COUNT>
0

> <PUBCHEM_COMPONENT_COUNT>
1

> <PUBCHEM_CACTVS_TAUTO_COUNT>
1

> <PUBCHEM_CONFORMER_ID>
0000254400000001

> <PUBCHEM_MMFF94_ENERGY>
1.6983

> <PUBCHEM_FEATURE_SELFOVERLAP>
15.228

> <PUBCHEM_SHAPE_FINGERPRINT>
100836 57 9007060183784590443
11062470 55 10879992462772257376
114248 4 14692571005312258139
12032990 46 18335700568058435716
12815109 37 18411983550937888775
13690532 89 18342176656737820622
14123238 8 18113899342877246694
14123255 352 7709193317332478875
14252887 29 17385996291391448662
14993402 34 16200430264912153994
15501527 24 17489867115885804290
177051 138 18411418414619305948
17834072 8 18202012027885646005
17834076 25 10807937063394045926
18342897 14 7637401830350456579
187816 3 16415480445896812081
20211469 26 18410011022735251065
20605781 2 9511467723380880083
20724930 31 18334858303312107464
20724930 69 9007060166562315397
20871999 31 17418384614180239573
21119208 17 15913330178218930327
212847 35 9727641587689188334
22485316 2 18409451379806297423
23402539 116 18409452496766897901
23402655 69 12391522974865652827
449060 50 6483357728808997049

> <PUBCHEM_SHAPE_MULTIPOLES>
197.39
10.88
1.2
0.65
1.13
0.16
-0.01
-5.75
-0.04
-0.29
-0.04
-0.12
0.01
0.12

> <PUBCHEM_SHAPE_SELFOVERLAP>
350.723

> <PUBCHEM_SHAPE_VOLUME>
128

> <PUBCHEM_COORDINATE_TYPE>
2
5
10

$$$$

