440591
  -OEChem-07051212503D

 44 46  0     1  0  0  0  0  0999 V2000
    5.5033   -0.6626   -0.4878 O   0  0  0  0  0  0  0  0  0  0  0  0
    3.7746   -2.7407    0.1474 O   0  0  0  0  0  0  0  0  0  0  0  0
   -5.4774    1.2563   -0.4228 O   0  0  0  0  0  0  0  0  0  0  0  0
   -6.1919   -1.2466    0.5528 O   0  0  0  0  0  0  0  0  0  0  0  0
   -0.3989    1.7666    0.5208 N   0  0  2  0  0  0  0  0  0  0  0  0
   -0.0401    0.3486    0.2961 C   0  0  2  0  0  0  0  0  0  0  0  0
    1.4455    0.0944    0.0981 C   0  0  0  0  0  0  0  0  0  0  0  0
    0.3057    2.6622   -0.4048 C   0  0  0  0  0  0  0  0  0  0  0  0
    1.8303    2.5632   -0.3160 C   0  0  0  0  0  0  0  0  0  0  0  0
    2.3228    1.1424   -0.2333 C   0  0  0  0  0  0  0  0  0  0  0  0
   -0.8410   -0.1944   -0.8984 C   0  0  0  0  0  0  0  0  0  0  0  0
   -0.2178    2.1644    1.9172 C   0  0  0  0  0  0  0  0  0  0  0  0
    1.9528   -1.2090    0.2216 C   0  0  0  0  0  0  0  0  0  0  0  0
   -2.2634   -0.4707   -0.5145 C   0  0  0  0  0  0  0  0  0  0  0  0
    3.6859    0.8735   -0.4236 C   0  0  0  0  0  0  0  0  0  0  0  0
    3.3088   -1.4669    0.0221 C   0  0  0  0  0  0  0  0  0  0  0  0
    4.1747   -0.4262   -0.3009 C   0  0  0  0  0  0  0  0  0  0  0  0
   -3.2207    0.5298   -0.6473 C   0  0  0  0  0  0  0  0  0  0  0  0
   -2.6150   -1.7252   -0.0271 C   0  0  0  0  0  0  0  0  0  0  0  0
   -4.5440    0.2729   -0.2892 C   0  0  0  0  0  0  0  0  0  0  0  0
   -3.9383   -1.9823    0.3311 C   0  0  0  0  0  0  0  0  0  0  0  0
   -4.9028   -0.9831    0.2000 C   0  0  0  0  0  0  0  0  0  0  0  0
    6.3467   -0.5668    0.6587 C   0  0  0  0  0  0  0  0  0  0  0  0
   -0.3352   -0.2211    1.1899 H   0  0  0  0  0  0  0  0  0  0  0  0
   -0.0037    3.7012   -0.2339 H   0  0  0  0  0  0  0  0  0  0  0  0
   -0.0075    2.4459   -1.4331 H   0  0  0  0  0  0  0  0  0  0  0  0
    2.1856    3.1020    0.5710 H   0  0  0  0  0  0  0  0  0  0  0  0
    2.2655    3.0539   -1.1950 H   0  0  0  0  0  0  0  0  0  0  0  0
   -0.4047   -1.1337   -1.2661 H   0  0  0  0  0  0  0  0  0  0  0  0
   -0.8051    0.4682   -1.7718 H   0  0  0  0  0  0  0  0  0  0  0  0
    0.8122    2.0459    2.2694 H   0  0  0  0  0  0  0  0  0  0  0  0
   -0.8687    1.5694    2.5678 H   0  0  0  0  0  0  0  0  0  0  0  0
   -0.5125    3.2099    2.0608 H   0  0  0  0  0  0  0  0  0  0  0  0
    1.2843   -2.0293    0.4747 H   0  0  0  0  0  0  0  0  0  0  0  0
    4.3692    1.6851   -0.6639 H   0  0  0  0  0  0  0  0  0  0  0  0
   -2.9419    1.5070   -1.0336 H   0  0  0  0  0  0  0  0  0  0  0  0
   -1.8718   -2.5104    0.0820 H   0  0  0  0  0  0  0  0  0  0  0  0
   -4.2112   -2.9626    0.7123 H   0  0  0  0  0  0  0  0  0  0  0  0
    4.7247   -2.7447   -0.0609 H   0  0  0  0  0  0  0  0  0  0  0  0
    7.3664   -0.8201    0.3558 H   0  0  0  0  0  0  0  0  0  0  0  0
    6.0278   -1.2689    1.4357 H   0  0  0  0  0  0  0  0  0  0  0  0
    6.3418    0.4549    1.0514 H   0  0  0  0  0  0  0  0  0  0  0  0
   -5.0483    2.0552   -0.7746 H   0  0  0  0  0  0  0  0  0  0  0  0
   -6.7214   -0.4452    0.3972 H   0  0  0  0  0  0  0  0  0  0  0  0
  1 17  1  0  0  0  0
  1 23  1  0  0  0  0
  2 16  1  0  0  0  0
  2 39  1  0  0  0  0
  3 20  1  0  0  0  0
  3 43  1  0  0  0  0
  4 22  1  0  0  0  0
  4 44  1  0  0  0  0
  5  6  1  0  0  0  0
  5  8  1  0  0  0  0
  5 12  1  0  0  0  0
  6  7  1  0  0  0  0
  6 11  1  0  0  0  0
  6 24  1  0  0  0  0
  7 10  1  0  0  0  0
  7 13  2  0  0  0  0
  8  9  1  0  0  0  0
  8 25  1  0  0  0  0
  8 26  1  0  0  0  0
  9 10  1  0  0  0  0
  9 27  1  0  0  0  0
  9 28  1  0  0  0  0
 10 15  2  0  0  0  0
 11 14  1  0  0  0  0
 11 29  1  0  0  0  0
 11 30  1  0  0  0  0
 12 31  1  0  0  0  0
 12 32  1  0  0  0  0
 12 33  1  0  0  0  0
 13 16  1  0  0  0  0
 13 34  1  0  0  0  0
 14 18  2  0  0  0  0
 14 19  1  0  0  0  0
 15 17  1  0  0  0  0
 15 35  1  0  0  0  0
 16 17  2  0  0  0  0
 18 20  1  0  0  0  0
 18 36  1  0  0  0  0
 19 21  2  0  0  0  0
 19 37  1  0  0  0  0
 20 22  2  0  0  0  0
 21 22  1  0  0  0  0
 21 38  1  0  0  0  0
 23 40  1  0  0  0  0
 23 41  1  0  0  0  0
 23 42  1  0  0  0  0
M  END
> <PUBCHEM_COMPOUND_CID>
440591

> <PUBCHEM_CONFORMER_RMSD>
0.6

> <PUBCHEM_CONFORMER_DIVERSEORDER>
5
36
1
19
29
11
2
37
35
27
38
26
15
13
12
18
32
3
25
24
14
16
30
23
4
31
20
28
9
21
7
10
17
22
39
8
34
33
6

> <PUBCHEM_MMFF94_PARTIAL_CHARGES>
31
1 -0.36
10 -0.14
11 0.14
12 0.27
13 -0.15
14 -0.14
15 -0.15
16 0.08
17 0.08
18 -0.15
19 -0.15
2 -0.53
20 0.08
21 -0.15
22 0.08
23 0.28
3 -0.53
34 0.15
35 0.15
36 0.15
37 0.15
38 0.15
39 0.45
4 -0.53
43 0.45
44 0.45
5 -0.81
6 0.41
7 -0.14
8 0.27
9 0.14

> <PUBCHEM_EFFECTIVE_ROTOR_COUNT>
3.8

> <PUBCHEM_PHARMACOPHORE_FEATURES>
8
1 1 acceptor
1 2 donor
1 3 donor
1 4 donor
1 5 cation
6 14 18 19 20 21 22 rings
6 5 6 7 8 9 10 rings
6 7 10 13 15 16 17 rings

> <PUBCHEM_HEAVY_ATOM_COUNT>
23

> <PUBCHEM_ATOM_DEF_STEREO_COUNT>
1

> <PUBCHEM_ATOM_UDEF_STEREO_COUNT>
0

> <PUBCHEM_BOND_DEF_STEREO_COUNT>
0

> <PUBCHEM_BOND_UDEF_STEREO_COUNT>
0

> <PUBCHEM_ISOTOPIC_ATOM_COUNT>
0

> <PUBCHEM_COMPONENT_COUNT>
1

> <PUBCHEM_CACTVS_TAUTO_COUNT>
54

> <PUBCHEM_CONFORMER_ID>
0006B90F00000005

> <PUBCHEM_MMFF94_ENERGY>
75.1971

> <PUBCHEM_FEATURE_SELFOVERLAP>
40.62

> <PUBCHEM_SHAPE_FINGERPRINT>
11045515 52 17988925612922845668
11135609 187 18126276455647501436
11265709 11 18335137600856742424
12107183 9 18193551405815566153
12166972 35 17632574968692616614
12236239 1 18186236229879784792
12516196 113 18040719160020082026
12553582 1 18336278889610398758
12596602 18 16733267841754962163
12633257 1 18042670751069905355
12788726 201 18114742762547694098
13134695 92 17895484643728191257
13140716 1 18118974594510510978
13533116 47 18046068151831969207
13685833 64 18341609296269945235
14341114 176 18340480068053286569
14790565 3 17620188737840668668
14866123 147 17615968150518573787
15196674 1 18339924822569671941
15352361 1 18411699902459897526
15927050 60 17686621243676079916
16087824 20 18195527215379752701
17349148 13 16877939409079764743
17492 89 18124319569631274938
17844677 252 18341043052150486949
1813 80 18335404794882441628
200 152 18408886243809500498
20600515 1 15936961934163168361
20602899 9 15267055982460466888
21033648 29 17313683627719649779
21033650 10 16270234002306076446
21065198 57 18340768140052271783
21250096 35 18260831500864983731
21267235 1 18409722972190049086
21279426 13 18268430316435938927
221357 26 18341898468138961847
221490 88 18199180698526898795
23402539 116 18408328782961739078
23557571 272 18042402594659925684
23559900 14 18411144614591060209
23622692 118 17751936726585580183
26918003 58 18410577292482127342
3004659 81 18202282507287292046
314173 85 17458338650198106816
3323516 105 18201721712964250691
335352 9 18411702106347943453
339767 52 18335425689940404346
3421961 26 18410294670870662840
345986 75 18187368778348750515
4073 2 17845929628598962019
4214541 1 18413671305760723527
46194498 28 17560518391686576069
465052 167 18334006172968372047
5104073 3 18338232666059402825
7495541 125 18130221566873715623
77779 3 18342457002649770567
8863177 126 17915447303922665939
9709674 26 18056195770219436299

> <PUBCHEM_SHAPE_MULTIPOLES>
444.87
12.68
2.6
0.93
2.62
0.7
-0.28
-6.28
-0.32
-0.64
-0.32
0.06
0.38
0.12

> <PUBCHEM_SHAPE_SELFOVERLAP>
960.227

> <PUBCHEM_SHAPE_VOLUME>
245.5

> <PUBCHEM_COORDINATE_TYPE>
2
5
10

$$$$

