91735
  -OEChem-07051213123D

 39 41  0     0  0  0  0  0  0999 V2000
    5.5168    2.5552    0.4271 F   0  0  0  0  0  0  0  0  0  0  0  0
    3.6246    3.0962    1.3387 F   0  0  0  0  0  0  0  0  0  0  0  0
    4.6443    1.2770    1.9547 F   0  0  0  0  0  0  0  0  0  0  0  0
   -1.6214    2.2210    0.5403 F   0  0  0  0  0  0  0  0  0  0  0  0
   -6.2419    2.9661   -0.1499 F   0  0  0  0  0  0  0  0  0  0  0  0
    0.5040   -0.6492   -0.5699 O   0  0  0  0  0  0  0  0  0  0  0  0
   -2.9641   -2.6010   -0.1846 O   0  0  0  0  0  0  0  0  0  0  0  0
   -1.9649   -0.5129    0.1986 N   0  0  0  0  0  0  0  0  0  0  0  0
    1.7358   -2.4999    0.0632 N   0  0  0  0  0  0  0  0  0  0  0  0
   -0.6753   -2.5613    0.2290 C   0  0  0  0  0  0  0  0  0  0  0  0
    1.7004   -0.0698   -0.8617 C   0  0  0  0  0  0  0  0  0  0  0  0
    3.6060    1.2520   -0.1841 C   0  0  0  0  0  0  0  0  0  0  0  0
    0.5185   -1.9433   -0.0771 C   0  0  0  0  0  0  0  0  0  0  0  0
    2.3800    0.6577    0.1154 C   0  0  0  0  0  0  0  0  0  0  0  0
   -3.0601    0.3811    0.1091 C   0  0  0  0  0  0  0  0  0  0  0  0
   -1.9628   -1.9071    0.0541 C   0  0  0  0  0  0  0  0  0  0  0  0
    2.2468   -0.2030   -2.1382 C   0  0  0  0  0  0  0  0  0  0  0  0
    4.1523    1.1187   -1.4607 C   0  0  0  0  0  0  0  0  0  0  0  0
   -0.6158   -3.8605    0.7209 C   0  0  0  0  0  0  0  0  0  0  0  0
    3.4728    0.3911   -2.4376 C   0  0  0  0  0  0  0  0  0  0  0  0
    4.3323    2.0303    0.8601 C   0  0  0  0  0  0  0  0  0  0  0  0
   -2.8456    1.7372    0.2862 C   0  0  0  0  0  0  0  0  0  0  0  0
   -4.3220   -0.1240   -0.1535 C   0  0  0  0  0  0  0  0  0  0  0  0
    0.6181   -4.4802    0.8844 C   0  0  0  0  0  0  0  0  0  0  0  0
   -3.9261    2.6150    0.1983 C   0  0  0  0  0  0  0  0  0  0  0  0
   -5.4024    0.7537   -0.2413 C   0  0  0  0  0  0  0  0  0  0  0  0
    1.7540   -3.7634    0.5440 C   0  0  0  0  0  0  0  0  0  0  0  0
   -5.2044    2.1233   -0.0654 C   0  0  0  0  0  0  0  0  0  0  0  0
    1.9511    0.7618    1.1092 H   0  0  0  0  0  0  0  0  0  0  0  0
   -1.0820   -0.0587    0.4197 H   0  0  0  0  0  0  0  0  0  0  0  0
    1.7224   -0.7670   -2.9049 H   0  0  0  0  0  0  0  0  0  0  0  0
    5.1058    1.5742   -1.7132 H   0  0  0  0  0  0  0  0  0  0  0  0
   -1.5175   -4.4055    0.9873 H   0  0  0  0  0  0  0  0  0  0  0  0
    3.8979    0.2875   -3.4317 H   0  0  0  0  0  0  0  0  0  0  0  0
   -4.5577   -1.1670   -0.3016 H   0  0  0  0  0  0  0  0  0  0  0  0
    0.6889   -5.4918    1.2674 H   0  0  0  0  0  0  0  0  0  0  0  0
   -3.7721    3.6813    0.3353 H   0  0  0  0  0  0  0  0  0  0  0  0
   -6.3985    0.3727   -0.4467 H   0  0  0  0  0  0  0  0  0  0  0  0
    2.7408   -4.2013    0.6532 H   0  0  0  0  0  0  0  0  0  0  0  0
  1 21  1  0  0  0  0
  2 21  1  0  0  0  0
  3 21  1  0  0  0  0
  4 22  1  0  0  0  0
  5 28  1  0  0  0  0
  6 11  1  0  0  0  0
  6 13  1  0  0  0  0
  7 16  2  0  0  0  0
  8 15  1  0  0  0  0
  8 16  1  0  0  0  0
  8 30  1  0  0  0  0
  9 13  1  0  0  0  0
  9 27  2  0  0  0  0
 10 13  2  0  0  0  0
 10 16  1  0  0  0  0
 10 19  1  0  0  0  0
 11 14  1  0  0  0  0
 11 17  2  0  0  0  0
 12 14  2  0  0  0  0
 12 18  1  0  0  0  0
 12 21  1  0  0  0  0
 14 29  1  0  0  0  0
 15 22  2  0  0  0  0
 15 23  1  0  0  0  0
 17 20  1  0  0  0  0
 17 31  1  0  0  0  0
 18 20  2  0  0  0  0
 18 32  1  0  0  0  0
 19 24  2  0  0  0  0
 19 33  1  0  0  0  0
 20 34  1  0  0  0  0
 22 25  1  0  0  0  0
 23 26  2  0  0  0  0
 23 35  1  0  0  0  0
 24 27  1  0  0  0  0
 24 36  1  0  0  0  0
 25 28  2  0  0  0  0
 25 37  1  0  0  0  0
 26 28  1  0  0  0  0
 26 38  1  0  0  0  0
 27 39  1  0  0  0  0
M  END
> <PUBCHEM_COMPOUND_CID>
91735

> <PUBCHEM_CONFORMER_RMSD>
0.8

> <PUBCHEM_CONFORMER_DIVERSEORDER>
1
193
161
104
74
3
141
39
183
42
213
89
181
34
100
67
168
207
75
169
153
24
2
76
31
106
112
101
212
95
62
190
157
158
38
122
84
36
174
108
26
194
211
63
216
54
97
139
61
25
79
5
145
201
32
203
200
73
191
59
110
81
14
187
184
197
10
57
133
65
103
109
22
92
6
189
208
77
15
118
45
206
123
165
56
105
35
170
41
70
80
135
176
196
188
115
124
78
47
13
91
30
149
55
126
119
33
82
86
128
154
140
96
40
146
162
98
27
195
46
205
29
179
215
83
132
164
202
9
50
18
121
186
11
171
177
28
160
64
163
166
23
120
129
136
151
143
156
66
60
180
137
69
4
148
88
37
130
178
138
44
21
48
99
85
182
125
173
93
192
43
185
175
142
167
7
116
102
111
114
49
72
144
53
71
52
90
58
134
214
147
210
155
68
198
16
150
17
209
19
172
127
51
152
8
12
204
20
199
159
131
107
87
117
113
94

> <PUBCHEM_MMFF94_PARTIAL_CHARGES>
39
1 -0.34
10 0.09
11 0.08
12 -0.14
13 0.39
14 -0.15
15 0.12
16 0.54
17 -0.15
18 -0.15
19 -0.15
2 -0.34
20 -0.15
21 1.16
22 0.19
23 -0.15
24 -0.15
25 -0.15
26 -0.15
27 0.16
28 0.19
29 0.15
3 -0.34
30 0.37
31 0.15
32 0.15
33 0.15
34 0.15
35 0.15
36 0.15
37 0.15
38 0.15
39 0.15
4 -0.19
5 -0.19
6 -0.17
7 -0.57
8 -0.55
9 -0.62

> <PUBCHEM_EFFECTIVE_ROTOR_COUNT>
6

> <PUBCHEM_PHARMACOPHORE_FEATURES>
7
1 6 acceptor
1 7 acceptor
1 8 donor
1 9 acceptor
6 11 12 14 17 18 20 rings
6 15 22 23 25 26 28 rings
6 9 10 13 19 24 27 rings

> <PUBCHEM_HEAVY_ATOM_COUNT>
28

> <PUBCHEM_ATOM_DEF_STEREO_COUNT>
0

> <PUBCHEM_ATOM_UDEF_STEREO_COUNT>
0

> <PUBCHEM_BOND_DEF_STEREO_COUNT>
0

> <PUBCHEM_BOND_UDEF_STEREO_COUNT>
0

> <PUBCHEM_ISOTOPIC_ATOM_COUNT>
0

> <PUBCHEM_COMPONENT_COUNT>
1

> <PUBCHEM_CACTVS_TAUTO_COUNT>
2

> <PUBCHEM_CONFORMER_ID>
0001665700000001

> <PUBCHEM_MMFF94_ENERGY>
82.2944

> <PUBCHEM_FEATURE_SELFOVERLAP>
35.569

> <PUBCHEM_SHAPE_FINGERPRINT>
10411042 1 17258216263902113954
10498660 4 18335695066221355221
108634 29 18188762847708495756
10937287 8 18412541016039069319
11049842 53 18129081387082037222
11331351 85 17325779569917631799
11582403 64 17749970864150741918
11720765 8 17534893393123415830
11725454 13 17605280584291129826
12107183 9 18270978886052996304
12166972 35 17830179369855851139
12422481 6 17345768485008867862
12788726 201 17410477798279037762
13140716 1 18271526493650792203
13402501 40 18042405725058452232
13617811 41 18342459232276777085
138480 1 17835241520983741699
13878862 14 17842571909831043733
13965767 371 18059867189556770646
14114211 68 18053913360046900893
14725015 67 17976267833136894275
14739800 52 18335431183113840321
17980427 23 17974597936624987599
17980427 26 18337124448427929574
18681886 176 17902800991757890995
21033648 29 18340193120618808612
21304253 13 17979363280571271690
21304303 282 18118144496811128870
21591340 35 18118676849606976312
22149856 69 18198880649093091257
22393880 68 18335974372191816839
23559900 14 18050856812601639875
350125 39 18199462353913432606
376196 1 18261109656111926542
469060 322 18054483856622046907
474 4 18059283387864584031
508706 21 18191584151279054836
5104073 3 18198614622813115793
5252454 2 18268127916172957117
5895379 119 17027960301245787097
6371380 46 18410291420340120510
7064713 232 18272932695828399789
7808743 9 18127113192190112644
79837 15 18200872851207139882
84936 182 18337666541666323602
9849439 229 18342172250397053613
9981440 41 18343018865934671307

> <PUBCHEM_SHAPE_MULTIPOLES>
518.16
11.38
5.19
1.38
7.5
5.07
-0.49
-14.39
0.24
-0.69
2.12
-2.44
-0.56
0.67

> <PUBCHEM_SHAPE_SELFOVERLAP>
1143.165

> <PUBCHEM_SHAPE_VOLUME>
278.1

> <PUBCHEM_COORDINATE_TYPE>
2
5
10

$$$$

