23724605
  -OEChem-07051213083D

 29 29  0     1  0  0  0  0  0999 V2000
    2.9134    0.2823   -0.0730 P   0  0  0  0  0  0  0  0  0  0  0  0
   -0.3438    0.8174   -0.3366 O   0  0  0  0  0  0  0  0  0  0  0  0
   -1.6667   -1.8642    1.5456 O   0  0  0  0  0  0  0  0  0  0  0  0
    1.6161   -0.3719   -0.7767 O   0  0  0  0  0  0  0  0  0  0  0  0
   -2.9045   -0.1430   -1.4162 O   0  0  0  0  0  0  0  0  0  0  0  0
    0.2749   -2.7976   -0.1501 O   0  0  0  0  0  0  0  0  0  0  0  0
   -1.3071    3.2613    0.4704 O   0  0  0  0  0  0  0  0  0  0  0  0
    3.0013   -0.4735    1.3540 O   0  0  0  0  0  0  0  0  0  0  0  0
    2.3924    1.7615    0.3212 O   0  0  0  0  0  0  0  0  0  0  0  0
    4.1689    0.2503   -0.8945 O   0  0  0  0  0  0  0  0  0  0  0  0
   -1.8059   -1.6171    0.1453 C   0  0  1  0  0  0  0  0  0  0  0  0
   -2.5101   -0.2722   -0.0521 C   0  0  1  0  0  0  0  0  0  0  0  0
   -0.4156   -1.6008   -0.4970 C   0  0  1  0  0  0  0  0  0  0  0  0
   -1.5924    0.8919    0.3612 C   0  0  2  0  0  0  0  0  0  0  0  0
    0.3865   -0.3760   -0.0522 C   0  0  2  0  0  0  0  0  0  0  0  0
   -2.2073    2.2518    0.0507 C   0  0  0  0  0  0  0  0  0  0  0  0
   -2.3914   -2.4427   -0.2755 H   0  0  0  0  0  0  0  0  0  0  0  0
   -3.4210   -0.2290    0.5571 H   0  0  0  0  0  0  0  0  0  0  0  0
   -0.5165   -1.5847   -1.5895 H   0  0  0  0  0  0  0  0  0  0  0  0
   -1.3734    0.8448    1.4361 H   0  0  0  0  0  0  0  0  0  0  0  0
    0.5971   -0.4291    1.0219 H   0  0  0  0  0  0  0  0  0  0  0  0
   -3.1590    2.3828    0.5748 H   0  0  0  0  0  0  0  0  0  0  0  0
   -2.3641    2.3816   -1.0249 H   0  0  0  0  0  0  0  0  0  0  0  0
   -2.5606   -1.8945    1.9273 H   0  0  0  0  0  0  0  0  0  0  0  0
   -3.5010   -0.8834   -1.6203 H   0  0  0  0  0  0  0  0  0  0  0  0
   -0.2645   -3.5466   -0.4561 H   0  0  0  0  0  0  0  0  0  0  0  0
   -1.7203    4.1175    0.2660 H   0  0  0  0  0  0  0  0  0  0  0  0
    3.7581   -0.2805    1.9474 H   0  0  0  0  0  0  0  0  0  0  0  0
    3.0319    2.4073    0.6900 H   0  0  0  0  0  0  0  0  0  0  0  0
  1  4  1  0  0  0  0
  1  8  1  0  0  0  0
  1  9  1  0  0  0  0
  1 10  2  0  0  0  0
  2 14  1  0  0  0  0
  2 15  1  0  0  0  0
  3 11  1  0  0  0  0
  3 24  1  0  0  0  0
  4 15  1  0  0  0  0
  5 12  1  0  0  0  0
  5 25  1  0  0  0  0
  6 13  1  0  0  0  0
  6 26  1  0  0  0  0
  7 16  1  0  0  0  0
  7 27  1  0  0  0  0
  8 28  1  0  0  0  0
  9 29  1  0  0  0  0
 11 12  1  0  0  0  0
 11 13  1  0  0  0  0
 11 17  1  0  0  0  0
 12 14  1  0  0  0  0
 12 18  1  0  0  0  0
 13 15  1  0  0  0  0
 13 19  1  0  0  0  0
 14 16  1  0  0  0  0
 14 20  1  0  0  0  0
 15 21  1  0  0  0  0
 16 22  1  0  0  0  0
 16 23  1  0  0  0  0
M  END
> <PUBCHEM_COMPOUND_CID>
23724605

> <PUBCHEM_CONFORMER_RMSD>
0.6

> <PUBCHEM_CONFORMER_DIVERSEORDER>
1
10
15
5
7
3
14
6
17
2
11
8
4
9
12
13
16

> <PUBCHEM_MMFF94_PARTIAL_CHARGES>
22
1 1.51
10 -0.7
11 0.28
12 0.28
13 0.28
14 0.28
15 0.56
16 0.28
2 -0.56
24 0.4
25 0.4
26 0.4
27 0.4
28 0.5
29 0.5
3 -0.68
4 -0.55
5 -0.68
6 -0.68
7 -0.68
8 -0.77
9 -0.77

> <PUBCHEM_EFFECTIVE_ROTOR_COUNT>
4.2

> <PUBCHEM_PHARMACOPHORE_FEATURES>
14
1 10 acceptor
1 2 acceptor
1 3 acceptor
1 3 donor
1 5 acceptor
1 5 donor
1 6 acceptor
1 6 donor
1 7 acceptor
1 7 donor
1 8 acceptor
1 9 acceptor
4 1 8 9 10 anion
6 2 11 12 13 14 15 rings

> <PUBCHEM_HEAVY_ATOM_COUNT>
16

> <PUBCHEM_ATOM_DEF_STEREO_COUNT>
4

> <PUBCHEM_ATOM_UDEF_STEREO_COUNT>
1

> <PUBCHEM_BOND_DEF_STEREO_COUNT>
0

> <PUBCHEM_BOND_UDEF_STEREO_COUNT>
0

> <PUBCHEM_ISOTOPIC_ATOM_COUNT>
0

> <PUBCHEM_COMPONENT_COUNT>
1

> <PUBCHEM_CACTVS_TAUTO_COUNT>
1

> <PUBCHEM_CONFORMER_ID>
016A023D00000001

> <PUBCHEM_MMFF94_ENERGY>
4.6936

> <PUBCHEM_FEATURE_SELFOVERLAP>
71.097

> <PUBCHEM_SHAPE_FINGERPRINT>
13024252 1 12103571861840633623
13380535 76 18267306615304178213
13380536 55 18120377815717265717
13764800 53 18341882000606660027
14614273 12 18270406125835536605
15076042 46 18413674599578860818
15490181 8 18269271438024581843
15775835 57 18201716297147848252
16945 1 18409171038637870303
192875 21 18195553534299967100
193761 8 18121215652188826847
19868273 325 18048879597914046062
20510252 161 18334289847089442984
20645476 183 17703509896011390014
21061003 4 18193822752979941179
21501502 16 18193560192643725391
21524375 3 18122911094681536749
2306618 200 18040987445278827546
2334 1 18050006584426476517
23402539 116 18188218615190811255
23419403 2 17623304771094389847
23598294 1 18340764862512222864
25610 171 18338518534312838242
2748010 2 18120660128049075069
305870 269 18124031492618968782
3286 77 15936690367855454598
7364860 26 17757555531133780207
81228 2 18410287017202135161

> <PUBCHEM_SHAPE_MULTIPOLES>
280.3
5.08
2.77
1.02
4.85
0.92
0.12
1.16
-0.49
-1.67
0.48
-0.02
-0.28
0.04

> <PUBCHEM_SHAPE_SELFOVERLAP>
548.076

> <PUBCHEM_SHAPE_VOLUME>
169.2

> <PUBCHEM_COORDINATE_TYPE>
2
5
10

$$$$

