441961
  -OEChem-07051212563D

 46 48  0     0  0  0  0  0  0999 V2000
   -2.1544    0.4177    0.4743 O   0  0  0  0  0  0  0  0  0  0  0  0
    2.1221   -1.5446    0.5283 O   0  0  0  0  0  0  0  0  0  0  0  0
    1.6730    3.0974   -0.7285 O   0  0  0  0  0  0  0  0  0  0  0  0
    3.9817    1.8815   -0.6543 O   0  0  0  0  0  0  0  0  0  0  0  0
   -3.0575    1.5272    0.2792 C   0  0  0  0  0  0  0  0  0  0  0  0
   -0.8162    0.6012    0.2670 C   0  0  0  0  0  0  0  0  0  0  0  0
   -0.0014   -0.5135    0.4854 C   0  0  0  0  0  0  0  0  0  0  0  0
   -0.2554    1.8144   -0.1405 C   0  0  0  0  0  0  0  0  0  0  0  0
    1.3768   -0.4159    0.2971 C   0  0  0  0  0  0  0  0  0  0  0  0
   -2.4252    2.8244   -0.1664 C   0  0  0  0  0  0  0  0  0  0  0  0
    1.9387    0.7918   -0.1092 C   0  0  0  0  0  0  0  0  0  0  0  0
    1.1294    1.9098   -0.3298 C   0  0  0  0  0  0  0  0  0  0  0  0
   -1.1131    2.9655   -0.3651 C   0  0  0  0  0  0  0  0  0  0  0  0
   -0.6061   -1.8117    0.9220 C   0  0  0  0  0  0  0  0  0  0  0  0
   -4.0780    1.0737   -0.7714 C   0  0  0  0  0  0  0  0  0  0  0  0
   -3.7658    1.7452    1.6215 C   0  0  0  0  0  0  0  0  0  0  0  0
    3.3957    0.8678   -0.3005 C   0  0  0  0  0  0  0  0  0  0  0  0
   -0.9975   -2.6915   -0.2371 C   0  0  0  0  0  0  0  0  0  0  0  0
    3.4944   -1.4755    0.3498 C   0  0  0  0  0  0  0  0  0  0  0  0
    4.1509   -0.3724   -0.0379 C   0  0  0  0  0  0  0  0  0  0  0  0
   -2.2260   -3.1378   -0.5621 C   0  0  0  0  0  0  0  0  0  0  0  0
    4.1982   -2.7653    0.6325 C   0  0  0  0  0  0  0  0  0  0  0  0
   -2.5470   -4.0165   -1.7376 C   0  0  0  0  0  0  0  0  0  0  0  0
   -3.4173   -2.7729    0.2834 C   0  0  0  0  0  0  0  0  0  0  0  0
   -3.0749    3.6808   -0.3303 H   0  0  0  0  0  0  0  0  0  0  0  0
   -0.7008    3.9148   -0.6843 H   0  0  0  0  0  0  0  0  0  0  0  0
    0.1130   -2.3769    1.5301 H   0  0  0  0  0  0  0  0  0  0  0  0
   -1.4136   -1.6258    1.6342 H   0  0  0  0  0  0  0  0  0  0  0  0
   -3.5835    0.8507   -1.7246 H   0  0  0  0  0  0  0  0  0  0  0  0
   -4.5759    0.1487   -0.4593 H   0  0  0  0  0  0  0  0  0  0  0  0
   -4.8473    1.8326   -0.9518 H   0  0  0  0  0  0  0  0  0  0  0  0
   -4.5323    2.5256    1.5600 H   0  0  0  0  0  0  0  0  0  0  0  0
   -4.2428    0.8200    1.9659 H   0  0  0  0  0  0  0  0  0  0  0  0
   -3.0475    2.0289    2.4002 H   0  0  0  0  0  0  0  0  0  0  0  0
   -0.1711   -3.0007   -0.8768 H   0  0  0  0  0  0  0  0  0  0  0  0
    5.2267   -0.3516   -0.1685 H   0  0  0  0  0  0  0  0  0  0  0  0
    2.6343    3.0276   -0.8250 H   0  0  0  0  0  0  0  0  0  0  0  0
    4.0214   -3.0725    1.6682 H   0  0  0  0  0  0  0  0  0  0  0  0
    5.2803   -2.6877    0.4846 H   0  0  0  0  0  0  0  0  0  0  0  0
    3.8237   -3.5525   -0.0299 H   0  0  0  0  0  0  0  0  0  0  0  0
   -1.6477   -4.2685   -2.3091 H   0  0  0  0  0  0  0  0  0  0  0  0
   -3.0029   -4.9531   -1.4009 H   0  0  0  0  0  0  0  0  0  0  0  0
   -3.2426   -3.5106   -2.4147 H   0  0  0  0  0  0  0  0  0  0  0  0
   -3.2553   -1.9907    1.0233 H   0  0  0  0  0  0  0  0  0  0  0  0
   -4.2281   -2.4148   -0.3615 H   0  0  0  0  0  0  0  0  0  0  0  0
   -3.7795   -3.6610    0.8124 H   0  0  0  0  0  0  0  0  0  0  0  0
  1  5  1  0  0  0  0
  1  6  1  0  0  0  0
  2  9  1  0  0  0  0
  2 19  1  0  0  0  0
  3 12  1  0  0  0  0
  3 37  1  0  0  0  0
  4 17  2  0  0  0  0
  5 10  1  0  0  0  0
  5 15  1  0  0  0  0
  5 16  1  0  0  0  0
  6  7  2  0  0  0  0
  6  8  1  0  0  0  0
  7  9  1  0  0  0  0
  7 14  1  0  0  0  0
  8 12  2  0  0  0  0
  8 13  1  0  0  0  0
  9 11  2  0  0  0  0
 10 13  2  0  0  0  0
 10 25  1  0  0  0  0
 11 12  1  0  0  0  0
 11 17  1  0  0  0  0
 13 26  1  0  0  0  0
 14 18  1  0  0  0  0
 14 27  1  0  0  0  0
 14 28  1  0  0  0  0
 15 29  1  0  0  0  0
 15 30  1  0  0  0  0
 15 31  1  0  0  0  0
 16 32  1  0  0  0  0
 16 33  1  0  0  0  0
 16 34  1  0  0  0  0
 17 20  1  0  0  0  0
 18 21  2  0  0  0  0
 18 35  1  0  0  0  0
 19 20  2  0  0  0  0
 19 22  1  0  0  0  0
 20 36  1  0  0  0  0
 21 23  1  0  0  0  0
 21 24  1  0  0  0  0
 22 38  1  0  0  0  0
 22 39  1  0  0  0  0
 22 40  1  0  0  0  0
 23 41  1  0  0  0  0
 23 42  1  0  0  0  0
 23 43  1  0  0  0  0
 24 44  1  0  0  0  0
 24 45  1  0  0  0  0
 24 46  1  0  0  0  0
M  END
> <PUBCHEM_COMPOUND_CID>
441961

> <PUBCHEM_CONFORMER_RMSD>
0.6

> <PUBCHEM_CONFORMER_DIVERSEORDER>
2
9
5
7
10
1
4
8
3
6

> <PUBCHEM_MMFF94_PARTIAL_CHARGES>
27
1 -0.36
10 -0.29
11 0.09
12 0.08
13 -0.18
14 0.28
17 0.47
18 -0.29
19 -0.06
2 -0.16
20 -0.14
21 -0.28
22 0.14
23 0.14
24 0.14
25 0.15
26 0.15
3 -0.53
35 0.15
36 0.15
37 0.45
4 -0.57
5 0.42
6 0.08
7 -0.14
8 0.03
9 0.08

> <PUBCHEM_EFFECTIVE_ROTOR_COUNT>
2.4

> <PUBCHEM_PHARMACOPHORE_FEATURES>
9
1 1 acceptor
1 2 acceptor
1 3 donor
1 4 acceptor
3 21 23 24 hydrophobe
3 5 15 16 hydrophobe
6 1 5 6 8 10 13 rings
6 2 9 11 17 19 20 rings
6 6 7 8 9 11 12 rings

> <PUBCHEM_HEAVY_ATOM_COUNT>
24

> <PUBCHEM_ATOM_DEF_STEREO_COUNT>
0

> <PUBCHEM_ATOM_UDEF_STEREO_COUNT>
0

> <PUBCHEM_BOND_DEF_STEREO_COUNT>
0

> <PUBCHEM_BOND_UDEF_STEREO_COUNT>
0

> <PUBCHEM_ISOTOPIC_ATOM_COUNT>
0

> <PUBCHEM_COMPONENT_COUNT>
1

> <PUBCHEM_CACTVS_TAUTO_COUNT>
14

> <PUBCHEM_CONFORMER_ID>
0006BE6900000002

> <PUBCHEM_MMFF94_ENERGY>
67.8065

> <PUBCHEM_FEATURE_SELFOVERLAP>
45.727

> <PUBCHEM_SHAPE_FINGERPRINT>
10616163 171 18410289186281860974
10967382 1 18342172323464264488
1100329 8 18341334495419159658
11578080 2 17605002407258096035
11582403 64 11716334195934780547
116883 192 18264486178784464431
12422481 6 18192965258855192515
12553582 1 18050289158883848587
12715332 25 18265052607808978122
12788726 201 18262231097821701115
13140716 1 18412536639266681811
13583140 156 17131271397207203787
138480 1 16609135560596729111
14178342 30 18338531724816930248
14790565 3 18194672898401206232
15042514 8 18340204197434417275
15196674 1 18199465656875534936
15403338 16 16194529426498143755
15442244 35 18412545422707020738
16087824 20 18411416182206859873
16728300 4 16621816159343971554
16945 1 18413669097726176688
17492 89 18341049636093304346
18681886 176 18124607624054226072
19591789 44 18196371648202428018
20028762 73 18116441517135682311
20261772 1 18339627997733208691
20739085 24 17690252212531918513
20775438 99 16385134792981779975
21033648 29 17757017823220265976
21267235 1 18126836329638752536
21478907 32 18338239241633720427
21634736 98 18340771416484694615
22033318 11 17830140569697241731
2334 1 17765140684050042232
23402539 116 18121229932907483380
23419403 2 16828190789409462296
23559900 14 18408326575612539808
238 59 17482871086913030829
25147074 1 18202284680909865938
266924 87 17834960767519637701
2748010 2 18055071227253331148
283562 15 17688867540798129264
335352 9 17910954974141585172
34934 24 18343302583094851776
350125 39 18267576919113429569
352729 6 18336262456849129291
38695281 34 18121504819726251789
5104073 3 18055350494949389288
6438718 38 18113614560765506759
7164475 11 18337961077844634486
7364860 26 17329149585824732523
7471813 234 17975710393579001926
7832392 63 18412542107192448930
81228 2 18196942071578162979
9709674 26 18336261353353640790

> <PUBCHEM_SHAPE_MULTIPOLES>
470.43
7.51
4.87
1.04
3.8
2.98
0
0.8
-0.38
-3.21
1.5
-0.7
0.34
-1.79

> <PUBCHEM_SHAPE_SELFOVERLAP>
1020.283

> <PUBCHEM_SHAPE_VOLUME>
259.3

> <PUBCHEM_COORDINATE_TYPE>
2
5
10

$$$$

