6395359
  -OEChem-07051212532D

 22 21  0     0  0  0  0  0  0999 V2000
    5.4641    0.7220    0.0000 O   0  0  0  0  0  0  0  0  0  0  0  0
    4.5981   -0.7780    0.0000 O   0  0  0  0  0  0  0  0  0  0  0  0
    2.8660    0.2220    0.0000 N   0  3  0  0  0  0  0  0  0  0  0  0
    3.7320    0.7220    0.0000 C   0  0  0  0  0  0  0  0  0  0  0  0
    2.0000   -0.2780    0.0000 C   0  0  0  0  0  0  0  0  0  0  0  0
    2.3660    1.0880    0.0000 C   0  0  0  0  0  0  0  0  0  0  0  0
    3.3660   -0.6440    0.0000 C   0  0  0  0  0  0  0  0  0  0  0  0
    4.5981    0.2220    0.0000 C   0  0  0  0  0  0  0  0  0  0  0  0
    4.1306    1.1969    0.0000 H   0  0  0  0  0  0  0  0  0  0  0  0
    3.3335    1.1969    0.0000 H   0  0  0  0  0  0  0  0  0  0  0  0
    1.6900    0.2589    0.0000 H   0  0  0  0  0  0  0  0  0  0  0  0
    1.4631   -0.5880    0.0000 H   0  0  0  0  0  0  0  0  0  0  0  0
    2.3100   -0.8149    0.0000 H   0  0  0  0  0  0  0  0  0  0  0  0
    2.9030    1.3980    0.0000 H   0  0  0  0  0  0  0  0  0  0  0  0
    2.0560    1.6249    0.0000 H   0  0  0  0  0  0  0  0  0  0  0  0
    1.8291    0.7780    0.0000 H   0  0  0  0  0  0  0  0  0  0  0  0
    2.8291   -0.9540    0.0000 H   0  0  0  0  0  0  0  0  0  0  0  0
    3.6760   -1.1810    0.0000 H   0  0  0  0  0  0  0  0  0  0  0  0
    3.9030   -0.3340    0.0000 H   0  0  0  0  0  0  0  0  0  0  0  0
    4.5981    0.8420    0.0000 H   0  0  0  0  0  0  0  0  0  0  0  0
    6.0010    0.4120    0.0000 H   0  0  0  0  0  0  0  0  0  0  0  0
    5.1350   -1.0880    0.0000 H   0  0  0  0  0  0  0  0  0  0  0  0
  1  8  1  0  0  0  0
  1 21  1  0  0  0  0
  2  8  1  0  0  0  0
  2 22  1  0  0  0  0
  3  4  1  0  0  0  0
  3  5  1  0  0  0  0
  3  6  1  0  0  0  0
  3  7  1  0  0  0  0
  4  8  1  0  0  0  0
  4  9  1  0  0  0  0
  4 10  1  0  0  0  0
  5 11  1  0  0  0  0
  5 12  1  0  0  0  0
  5 13  1  0  0  0  0
  6 14  1  0  0  0  0
  6 15  1  0  0  0  0
  6 16  1  0  0  0  0
  7 17  1  0  0  0  0
  7 18  1  0  0  0  0
  7 19  1  0  0  0  0
  8 20  1  0  0  0  0
M  CHG  1   3   1
M  END
> <PUBCHEM_COMPOUND_CID>
6395359

> <PUBCHEM_COMPOUND_CANONICALIZED>
1

> <PUBCHEM_CACTVS_COMPLEXITY>
65.3

> <PUBCHEM_CACTVS_HBOND_ACCEPTOR>
2

> <PUBCHEM_CACTVS_HBOND_DONOR>
2

> <PUBCHEM_CACTVS_ROTATABLE_BOND>
2

> <PUBCHEM_CACTVS_SUBSKEYS>
AAADccBiMAAAAAAAAAAAAAAAAAAAAAAAAAAAAAAAAAAAAAAAAAAAHgAACAAAAADxgAcCCAMAAgAAAAAAAAAAAAAAAAAAAAAIAAACEAAAAAAAAAAAAAAQAAAAAAAAAAAAAAAAAAAAAAAAAAAAAAAAAAAAAA==

> <PUBCHEM_IUPAC_OPENEYE_NAME>
2,2-dihydroxyethyl(trimethyl)ammonium

> <PUBCHEM_IUPAC_CAS_NAME>
2,2-dihydroxyethyl(trimethyl)ammonium

> <PUBCHEM_IUPAC_NAME>
2,2-dihydroxyethyl(trimethyl)azanium

> <PUBCHEM_IUPAC_SYSTEMATIC_NAME>
2,2-bis(oxidanyl)ethyl-trimethyl-azanium

> <PUBCHEM_IUPAC_TRADITIONAL_NAME>
2,2-dihydroxyethyl(trimethyl)ammonium

> <PUBCHEM_IUPAC_INCHI>
InChI=1S/C5H14NO2/c1-6(2,3)4-5(7)8/h5,7-8H,4H2,1-3H3/q+1

> <PUBCHEM_IUPAC_INCHIKEY>
HEHORKLRCFPRON-UHFFFAOYSA-N

> <PUBCHEM_XLOGP3_AA>
-0.9

> <PUBCHEM_EXACT_MASS>
120.102454

> <PUBCHEM_MOLECULAR_FORMULA>
C5H14NO2+

> <PUBCHEM_MOLECULAR_WEIGHT>
120.17016

> <PUBCHEM_OPENEYE_CAN_SMILES>
C[N+](C)(C)CC(O)O

> <PUBCHEM_OPENEYE_ISO_SMILES>
C[N+](C)(C)CC(O)O

> <PUBCHEM_CACTVS_TPSA>
40.5

> <PUBCHEM_MONOISOTOPIC_WEIGHT>
120.102454

> <PUBCHEM_TOTAL_CHARGE>
1

> <PUBCHEM_HEAVY_ATOM_COUNT>
8

> <PUBCHEM_ATOM_DEF_STEREO_COUNT>
0

> <PUBCHEM_ATOM_UDEF_STEREO_COUNT>
0

> <PUBCHEM_BOND_DEF_STEREO_COUNT>
0

> <PUBCHEM_BOND_UDEF_STEREO_COUNT>
0

> <PUBCHEM_ISOTOPIC_ATOM_COUNT>
0

> <PUBCHEM_COMPONENT_COUNT>
1

> <PUBCHEM_CACTVS_TAUTO_COUNT>
1

> <PUBCHEM_COORDINATE_TYPE>
1
5
255

$$$$

