17395584
  -OEChem-06241222512D

 38 40  0     0  0  0  0  0  0999 V2000
    9.8222    1.5173    0.0000 O   0  0  0  0  0  0  0  0  0  0  0  0
    6.3301   -1.5173    0.0000 O   0  0  0  0  0  0  0  0  0  0  0  0
   11.5923   -0.5415    0.0000 O   0  0  0  0  0  0  0  0  0  0  0  0
    5.4641   -0.0173    0.0000 N   0  0  0  0  0  0  0  0  0  0  0  0
    9.8222   -0.5520    0.0000 N   0  0  0  0  0  0  0  0  0  0  0  0
    4.5981   -0.5173    0.0000 C   0  0  0  0  0  0  0  0  0  0  0  0
    7.1962   -0.0173    0.0000 C   0  0  0  0  0  0  0  0  0  0  0  0
    8.9282   -0.0173    0.0000 C   0  0  0  0  0  0  0  0  0  0  0  0
    8.9282    0.9827    0.0000 C   0  0  0  0  0  0  0  0  0  0  0  0
    6.3301   -0.5173    0.0000 C   0  0  0  0  0  0  0  0  0  0  0  0
    8.0622   -0.5173    0.0000 C   0  0  0  0  0  0  0  0  0  0  0  0
    3.7320   -0.0173    0.0000 C   0  0  0  0  0  0  0  0  0  0  0  0
    7.1962    0.9827    0.0000 C   0  0  0  0  0  0  0  0  0  0  0  0
    8.0622    1.4827    0.0000 C   0  0  0  0  0  0  0  0  0  0  0  0
    5.4641    0.9827    0.0000 C   0  0  0  0  0  0  0  0  0  0  0  0
   10.7282    1.0035    0.0000 C   0  0  0  0  0  0  0  0  0  0  0  0
   10.7282   -0.0381    0.0000 C   0  0  0  0  0  0  0  0  0  0  0  0
    3.7320    0.9827    0.0000 C   0  0  0  0  0  0  0  0  0  0  0  0
    2.8660   -0.5173    0.0000 C   0  0  0  0  0  0  0  0  0  0  0  0
    2.8660    1.4827    0.0000 C   0  0  0  0  0  0  0  0  0  0  0  0
    2.0000   -0.0173    0.0000 C   0  0  0  0  0  0  0  0  0  0  0  0
    2.0000    0.9827    0.0000 C   0  0  0  0  0  0  0  0  0  0  0  0
    4.1996   -0.9923    0.0000 H   0  0  0  0  0  0  0  0  0  0  0  0
    4.9966   -0.9923    0.0000 H   0  0  0  0  0  0  0  0  0  0  0  0
    8.0622   -1.1373    0.0000 H   0  0  0  0  0  0  0  0  0  0  0  0
    6.6592    1.2927    0.0000 H   0  0  0  0  0  0  0  0  0  0  0  0
    8.0622    2.1027    0.0000 H   0  0  0  0  0  0  0  0  0  0  0  0
    9.8150   -1.1720    0.0000 H   0  0  0  0  0  0  0  0  0  0  0  0
    6.0841    0.9827    0.0000 H   0  0  0  0  0  0  0  0  0  0  0  0
    5.4641    1.6027    0.0000 H   0  0  0  0  0  0  0  0  0  0  0  0
    4.8441    0.9827    0.0000 H   0  0  0  0  0  0  0  0  0  0  0  0
   11.3391    0.8974    0.0000 H   0  0  0  0  0  0  0  0  0  0  0  0
   10.9373    1.5872    0.0000 H   0  0  0  0  0  0  0  0  0  0  0  0
    4.2690    1.2927    0.0000 H   0  0  0  0  0  0  0  0  0  0  0  0
    2.8660   -1.1373    0.0000 H   0  0  0  0  0  0  0  0  0  0  0  0
    2.8660    2.1027    0.0000 H   0  0  0  0  0  0  0  0  0  0  0  0
    1.4631   -0.3273    0.0000 H   0  0  0  0  0  0  0  0  0  0  0  0
    1.4631    1.2927    0.0000 H   0  0  0  0  0  0  0  0  0  0  0  0
  1  9  1  0  0  0  0
  1 16  1  0  0  0  0
  2 10  2  0  0  0  0
  3 17  2  0  0  0  0
  4  6  1  0  0  0  0
  4 10  1  0  0  0  0
  4 15  1  0  0  0  0
  5  8  1  0  0  0  0
  5 17  1  0  0  0  0
  5 28  1  0  0  0  0
  6 12  1  0  0  0  0
  6 23  1  0  0  0  0
  6 24  1  0  0  0  0
  7 10  1  0  0  0  0
  7 11  2  0  0  0  0
  7 13  1  0  0  0  0
  8  9  2  0  0  0  0
  8 11  1  0  0  0  0
  9 14  1  0  0  0  0
 11 25  1  0  0  0  0
 12 18  2  0  0  0  0
 12 19  1  0  0  0  0
 13 14  2  0  0  0  0
 13 26  1  0  0  0  0
 14 27  1  0  0  0  0
 15 29  1  0  0  0  0
 15 30  1  0  0  0  0
 15 31  1  0  0  0  0
 16 17  1  0  0  0  0
 16 32  1  0  0  0  0
 16 33  1  0  0  0  0
 18 20  1  0  0  0  0
 18 34  1  0  0  0  0
 19 21  2  0  0  0  0
 19 35  1  0  0  0  0
 20 22  2  0  0  0  0
 20 36  1  0  0  0  0
 21 22  1  0  0  0  0
 21 37  1  0  0  0  0
 22 38  1  0  0  0  0
M  END
> <PUBCHEM_COMPOUND_CID>
17395584

> <PUBCHEM_COMPOUND_CANONICALIZED>
1

> <PUBCHEM_CACTVS_COMPLEXITY>
420

> <PUBCHEM_CACTVS_HBOND_ACCEPTOR>
3

> <PUBCHEM_CACTVS_HBOND_DONOR>
1

> <PUBCHEM_CACTVS_ROTATABLE_BOND>
3

> <PUBCHEM_CACTVS_SUBSKEYS>
AAADceB7MAAAAAAAAAAAAAAAAAAAAAAAAAA8YIAAAAAAAACxQAAAHgAQAAAADAzhmAYyxoPABACIAiVSUAKCCAAlIgAIiAFPbMgOJjLEtZ+HOSjk1hHY6Yec3ALOIAAAQAAAEABAAACAAAAgAAAAAAAAAA==

> <PUBCHEM_IUPAC_OPENEYE_NAME>
N-benzyl-N-methyl-3-oxo-4H-1,4-benzoxazine-6-carboxamide

> <PUBCHEM_IUPAC_CAS_NAME>
N-methyl-3-oxo-N-(phenylmethyl)-4H-1,4-benzoxazine-6-carboxamide

> <PUBCHEM_IUPAC_NAME>
N-benzyl-N-methyl-3-oxo-4H-1,4-benzoxazine-6-carboxamide

> <PUBCHEM_IUPAC_SYSTEMATIC_NAME>
N-methyl-3-oxidanylidene-N-(phenylmethyl)-4H-1,4-benzoxazine-6-carboxamide

> <PUBCHEM_IUPAC_TRADITIONAL_NAME>
N-benzyl-3-keto-N-methyl-4H-1,4-benzoxazine-6-carboxamide

> <PUBCHEM_IUPAC_INCHI>
InChI=1S/C17H16N2O3/c1-19(10-12-5-3-2-4-6-12)17(21)13-7-8-15-14(9-13)18-16(20)11-22-15/h2-9H,10-11H2,1H3,(H,18,20)

> <PUBCHEM_IUPAC_INCHIKEY>
KHKJFEGKHQBHBW-UHFFFAOYSA-N

> <PUBCHEM_XLOGP3_AA>
1.8

> <PUBCHEM_EXACT_MASS>
296.116092

> <PUBCHEM_MOLECULAR_FORMULA>
C17H16N2O3

> <PUBCHEM_MOLECULAR_WEIGHT>
296.32054

> <PUBCHEM_OPENEYE_CAN_SMILES>
CN(CC1=CC=CC=C1)C(=O)C2=CC3=C(C=C2)OCC(=O)N3

> <PUBCHEM_OPENEYE_ISO_SMILES>
CN(CC1=CC=CC=C1)C(=O)C2=CC3=C(C=C2)OCC(=O)N3

> <PUBCHEM_CACTVS_TPSA>
58.6

> <PUBCHEM_MONOISOTOPIC_WEIGHT>
296.116092

> <PUBCHEM_TOTAL_CHARGE>
0

> <PUBCHEM_HEAVY_ATOM_COUNT>
22

> <PUBCHEM_ATOM_DEF_STEREO_COUNT>
0

> <PUBCHEM_ATOM_UDEF_STEREO_COUNT>
0

> <PUBCHEM_BOND_DEF_STEREO_COUNT>
0

> <PUBCHEM_BOND_UDEF_STEREO_COUNT>
0

> <PUBCHEM_ISOTOPIC_ATOM_COUNT>
0

> <PUBCHEM_COMPONENT_COUNT>
1

> <PUBCHEM_CACTVS_TAUTO_COUNT>
3

> <PUBCHEM_COORDINATE_TYPE>
1
5
255

> <PUBCHEM_BONDANNOTATIONS>
12  18  8
12  19  8
13  14  8
18  20  8
19  21  8
20  22  8
21  22  8
7  11  8
7  13  8
8  11  8
8  9  8
9  14  8

$$$$

