28598
  -OEChem-07051213052D

 33 37  0     0  0  0  0  0  0999 V2000
    2.0024    3.0135    0.0000 O   0  0  0  0  0  0  0  0  0  0  0  0
    4.6544   -0.5316    0.0000 C   0  0  0  0  0  0  0  0  0  0  0  0
    4.6704   -1.5731    0.0000 C   0  0  0  0  0  0  0  0  0  0  0  0
    3.7884   -0.0316    0.0000 C   0  0  0  0  0  0  0  0  0  0  0  0
    5.5204   -0.0316    0.0000 C   0  0  0  0  0  0  0  0  0  0  0  0
    3.7884    0.9684    0.0000 C   0  0  0  0  0  0  0  0  0  0  0  0
    3.7724   -2.1009    0.0000 C   0  0  0  0  0  0  0  0  0  0  0  0
    5.5476   -2.0359    0.0000 C   0  0  0  0  0  0  0  0  0  0  0  0
    4.6544    1.4684    0.0000 C   0  0  0  0  0  0  0  0  0  0  0  0
    5.5204    0.9684    0.0000 C   0  0  0  0  0  0  0  0  0  0  0  0
    2.8784   -0.5385    0.0000 C   0  0  0  0  0  0  0  0  0  0  0  0
    6.3799   -0.5264    0.0000 C   0  0  0  0  0  0  0  0  0  0  0  0
    2.8703   -1.5801    0.0000 C   0  0  0  0  0  0  0  0  0  0  0  0
    6.3933   -1.5180    0.0000 C   0  0  0  0  0  0  0  0  0  0  0  0
    3.7985   -3.1424    0.0000 C   0  0  0  0  0  0  0  0  0  0  0  0
    5.5977   -3.0765    0.0000 C   0  0  0  0  0  0  0  0  0  0  0  0
    2.8784    1.4752    0.0000 C   0  0  0  0  0  0  0  0  0  0  0  0
    4.6704    2.5099    0.0000 C   0  0  0  0  0  0  0  0  0  0  0  0
    4.7173   -3.6335    0.0000 C   0  0  0  0  0  0  0  0  0  0  0  0
    2.8703    2.5168    0.0000 C   0  0  0  0  0  0  0  0  0  0  0  0
    3.7724    3.0376    0.0000 C   0  0  0  0  0  0  0  0  0  0  0  0
    6.0573    1.2784    0.0000 H   0  0  0  0  0  0  0  0  0  0  0  0
    2.3450   -0.2223    0.0000 H   0  0  0  0  0  0  0  0  0  0  0  0
    6.9145   -0.2124    0.0000 H   0  0  0  0  0  0  0  0  0  0  0  0
    2.3322   -1.8880    0.0000 H   0  0  0  0  0  0  0  0  0  0  0  0
    6.9362   -1.8174    0.0000 H   0  0  0  0  0  0  0  0  0  0  0  0
    3.2707   -3.4678    0.0000 H   0  0  0  0  0  0  0  0  0  0  0  0
    6.1479   -3.3624    0.0000 H   0  0  0  0  0  0  0  0  0  0  0  0
    2.3450    1.1590    0.0000 H   0  0  0  0  0  0  0  0  0  0  0  0
    5.2109    2.8136    0.0000 H   0  0  0  0  0  0  0  0  0  0  0  0
    4.7400   -4.2530    0.0000 H   0  0  0  0  0  0  0  0  0  0  0  0
    3.7748    3.6576    0.0000 H   0  0  0  0  0  0  0  0  0  0  0  0
    2.0000    3.6335    0.0000 H   0  0  0  0  0  0  0  0  0  0  0  0
  1 20  1  0  0  0  0
  1 33  1  0  0  0  0
  2  3  1  0  0  0  0
  2  4  1  0  0  0  0
  2  5  2  0  0  0  0
  3  7  1  0  0  0  0
  3  8  2  0  0  0  0
  4  6  2  0  0  0  0
  4 11  1  0  0  0  0
  5 10  1  0  0  0  0
  5 12  1  0  0  0  0
  6  9  1  0  0  0  0
  6 17  1  0  0  0  0
  7 13  1  0  0  0  0
  7 15  2  0  0  0  0
  8 14  1  0  0  0  0
  8 16  1  0  0  0  0
  9 10  2  0  0  0  0
  9 18  1  0  0  0  0
 10 22  1  0  0  0  0
 11 13  2  0  0  0  0
 11 23  1  0  0  0  0
 12 14  2  0  0  0  0
 12 24  1  0  0  0  0
 13 25  1  0  0  0  0
 14 26  1  0  0  0  0
 15 19  1  0  0  0  0
 15 27  1  0  0  0  0
 16 19  2  0  0  0  0
 16 28  1  0  0  0  0
 17 20  2  0  0  0  0
 17 29  1  0  0  0  0
 18 21  2  0  0  0  0
 18 30  1  0  0  0  0
 19 31  1  0  0  0  0
 20 21  1  0  0  0  0
 21 32  1  0  0  0  0
M  END
> <PUBCHEM_COMPOUND_CID>
28598

> <PUBCHEM_COMPOUND_CANONICALIZED>
1

> <PUBCHEM_CACTVS_COMPLEXITY>
405

> <PUBCHEM_CACTVS_HBOND_ACCEPTOR>
1

> <PUBCHEM_CACTVS_HBOND_DONOR>
1

> <PUBCHEM_CACTVS_ROTATABLE_BOND>
0

> <PUBCHEM_CACTVS_SUBSKEYS>
AAADccB4IAAAAAAAAAAAAAAAAAAAAAAAAAAwYMGDAAAAAADBVAAAGgAACAAADASAmAAwBsAAAgCAAiBCAAACAAAgIAAIiAAGCIgIJiKCERKAcAAkwBEImAeAwPAO4AADAAAQAADAAAYAACAAAAAAAAAAAA==

> <PUBCHEM_IUPAC_OPENEYE_NAME>
benzo[a]pyren-9-ol

> <PUBCHEM_IUPAC_CAS_NAME>
9-benzo[a]pyrenol

> <PUBCHEM_IUPAC_NAME>
benzo[a]pyren-9-ol

> <PUBCHEM_IUPAC_SYSTEMATIC_NAME>
benzo[a]pyren-9-ol

> <PUBCHEM_IUPAC_TRADITIONAL_NAME>
benzo[a]pyren-9-ol

> <PUBCHEM_IUPAC_INCHI>
InChI=1S/C20H12O/c21-16-8-6-14-10-15-5-4-12-2-1-3-13-7-9-17(18(14)11-16)20(15)19(12)13/h1-11,21H

> <PUBCHEM_IUPAC_INCHIKEY>
OBBBXCAFTKLFGZ-UHFFFAOYSA-N

> <PUBCHEM_XLOGP3>
5.8

> <PUBCHEM_EXACT_MASS>
268.088815

> <PUBCHEM_MOLECULAR_FORMULA>
C20H12O

> <PUBCHEM_MOLECULAR_WEIGHT>
268.30868

> <PUBCHEM_OPENEYE_CAN_SMILES>
C1=CC2=C3C(=C1)C=CC4=C3C(=CC5=C4C=C(C=C5)O)C=C2

> <PUBCHEM_OPENEYE_ISO_SMILES>
C1=CC2=C3C(=C1)C=CC4=C3C(=CC5=C4C=C(C=C5)O)C=C2

> <PUBCHEM_CACTVS_TPSA>
20.2

> <PUBCHEM_MONOISOTOPIC_WEIGHT>
268.088815

> <PUBCHEM_TOTAL_CHARGE>
0

> <PUBCHEM_HEAVY_ATOM_COUNT>
21

> <PUBCHEM_ATOM_DEF_STEREO_COUNT>
0

> <PUBCHEM_ATOM_UDEF_STEREO_COUNT>
0

> <PUBCHEM_BOND_DEF_STEREO_COUNT>
0

> <PUBCHEM_BOND_UDEF_STEREO_COUNT>
0

> <PUBCHEM_ISOTOPIC_ATOM_COUNT>
0

> <PUBCHEM_COMPONENT_COUNT>
1

> <PUBCHEM_CACTVS_TAUTO_COUNT>
3

> <PUBCHEM_COORDINATE_TYPE>
1
5
255

> <PUBCHEM_BONDANNOTATIONS>
11  13  8
12  14  8
15  19  8
16  19  8
17  20  8
18  21  8
2  3  8
2  4  8
2  5  8
20  21  8
3  7  8
3  8  8
4  11  8
4  6  8
5  10  8
5  12  8
6  17  8
6  9  8
7  13  8
7  15  8
8  14  8
8  16  8
9  10  8
9  18  8

$$$$

