5281577
  -OEChem-07051212582D

 80 81  0     1  0  0  0  0  0999 V2000
    2.8660    0.5779    0.0000 O   0  0  0  0  0  0  0  0  0  0  0  0
    3.7226    0.0613    0.0000 O   0  0  0  0  0  0  0  0  0  0  0  0
    6.9641    0.2119    0.0000 O   0  0  0  0  0  0  0  0  0  0  0  0
    3.7118   -2.8852    0.0000 O   0  0  0  0  0  0  0  0  0  0  0  0
    5.4641    1.0780    0.0000 N   0  0  0  0  0  0  0  0  0  0  0  0
    5.4641   -0.9221    0.0000 N   0  0  0  0  0  0  0  0  0  0  0  0
    7.9641    1.9440    0.0000 N   0  0  0  0  0  0  0  0  0  0  0  0
    4.5981   -3.4220    0.0000 N   0  0  0  0  0  0  0  0  0  0  0  0
    3.7320    1.0780    0.0000 C   0  0  2  0  0  0  0  0  0  0  0  0
    4.5981    0.5779    0.0000 C   0  0  1  0  0  0  0  0  0  0  0  0
    3.7320    2.0780    0.0000 C   0  0  0  0  0  0  0  0  0  0  0  0
    6.9641    1.9440    0.0000 C   0  0  1  0  0  0  0  0  0  0  0  0
    5.4641   -1.9220    0.0000 C   0  0  1  0  0  0  0  0  0  0  0  0
    6.3301   -2.4220    0.0000 C   0  0  2  0  0  0  0  0  0  0  0  0
    6.4641    2.8100    0.0000 C   0  0  0  0  0  0  0  0  0  0  0  0
    4.5981   -0.4221    0.0000 C   0  0  0  0  0  0  0  0  0  0  0  0
    6.9641    3.6760    0.0000 C   0  0  0  0  0  0  0  0  0  0  0  0
    6.4641    1.0780    0.0000 C   0  0  0  0  0  0  0  0  0  0  0  0
    2.8660    2.5779    0.0000 C   0  0  0  0  0  0  0  0  0  0  0  0
    4.5981    2.5780    0.0000 C   0  0  0  0  0  0  0  0  0  0  0  0
    7.1962   -1.9220    0.0000 C   0  0  0  0  0  0  0  0  0  0  0  0
    6.3301   -3.4220    0.0000 C   0  0  0  0  0  0  0  0  0  0  0  0
    4.5981   -2.4220    0.0000 C   0  0  0  0  0  0  0  0  0  0  0  0
    6.4641    4.5420    0.0000 C   0  0  0  0  0  0  0  0  0  0  0  0
    7.9641    3.6760    0.0000 C   0  0  0  0  0  0  0  0  0  0  0  0
    2.8660   -0.4221    0.0000 C   0  0  0  0  0  0  0  0  0  0  0  0
    8.0622   -2.4220    0.0000 C   0  0  0  0  0  0  0  0  0  0  0  0
    8.4641    2.8100    0.0000 C   0  0  0  0  0  0  0  0  0  0  0  0
    8.4641    1.0780    0.0000 C   0  0  0  0  0  0  0  0  0  0  0  0
    3.7320   -0.9221    0.0000 C   0  0  0  0  0  0  0  0  0  0  0  0
    2.0000   -0.9221    0.0000 C   0  0  0  0  0  0  0  0  0  0  0  0
    2.8660   -2.4220    0.0000 C   0  0  0  0  0  0  0  0  0  0  0  0
    3.7320   -3.9220    0.0000 C   0  0  0  0  0  0  0  0  0  0  0  0
    3.7320   -1.9220    0.0000 C   0  0  0  0  0  0  0  0  0  0  0  0
    2.0000   -1.9220    0.0000 C   0  0  0  0  0  0  0  0  0  0  0  0
    2.8660   -3.4220    0.0000 C   0  0  0  0  0  0  0  0  0  0  0  0
    5.1350    0.2679    0.0000 H   0  0  0  0  0  0  0  0  0  0  0  0
    3.1951    1.3880    0.0000 H   0  0  0  0  0  0  0  0  0  0  0  0
    4.2690    1.7680    0.0000 H   0  0  0  0  0  0  0  0  0  0  0  0
    7.2741    1.4070    0.0000 H   0  0  0  0  0  0  0  0  0  0  0  0
    6.2002   -1.4970    0.0000 H   0  0  0  0  0  0  0  0  0  0  0  0
    6.8671   -2.7320    0.0000 H   0  0  0  0  0  0  0  0  0  0  0  0
    5.9892    3.2085    0.0000 H   0  0  0  0  0  0  0  0  0  0  0  0
    5.9892    2.4115    0.0000 H   0  0  0  0  0  0  0  0  0  0  0  0
    5.4641    1.6980    0.0000 H   0  0  0  0  0  0  0  0  0  0  0  0
    7.2741    3.1391    0.0000 H   0  0  0  0  0  0  0  0  0  0  0  0
    6.0841   -0.9221    0.0000 H   0  0  0  0  0  0  0  0  0  0  0  0
    3.1760    3.1149    0.0000 H   0  0  0  0  0  0  0  0  0  0  0  0
    2.3291    2.8879    0.0000 H   0  0  0  0  0  0  0  0  0  0  0  0
    2.5560    2.0410    0.0000 H   0  0  0  0  0  0  0  0  0  0  0  0
    4.9081    2.0410    0.0000 H   0  0  0  0  0  0  0  0  0  0  0  0
    5.1350    2.8880    0.0000 H   0  0  0  0  0  0  0  0  0  0  0  0
    4.2881    3.1149    0.0000 H   0  0  0  0  0  0  0  0  0  0  0  0
    7.5947   -1.4471    0.0000 H   0  0  0  0  0  0  0  0  0  0  0  0
    6.7976   -1.4471    0.0000 H   0  0  0  0  0  0  0  0  0  0  0  0
    5.7101   -3.4220    0.0000 H   0  0  0  0  0  0  0  0  0  0  0  0
    6.3301   -4.0420    0.0000 H   0  0  0  0  0  0  0  0  0  0  0  0
    6.9501   -3.4220    0.0000 H   0  0  0  0  0  0  0  0  0  0  0  0
    7.9641    3.0560    0.0000 H   0  0  0  0  0  0  0  0  0  0  0  0
    7.0010    4.8520    0.0000 H   0  0  0  0  0  0  0  0  0  0  0  0
    6.1541    5.0790    0.0000 H   0  0  0  0  0  0  0  0  0  0  0  0
    5.9272    4.2320    0.0000 H   0  0  0  0  0  0  0  0  0  0  0  0
    8.5841    3.6760    0.0000 H   0  0  0  0  0  0  0  0  0  0  0  0
    7.9641    4.2960    0.0000 H   0  0  0  0  0  0  0  0  0  0  0  0
    7.7522   -2.9590    0.0000 H   0  0  0  0  0  0  0  0  0  0  0  0
    8.5991   -2.7320    0.0000 H   0  0  0  0  0  0  0  0  0  0  0  0
    8.3722   -1.8851    0.0000 H   0  0  0  0  0  0  0  0  0  0  0  0
    9.0010    2.5000    0.0000 H   0  0  0  0  0  0  0  0  0  0  0  0
    8.7741    3.3469    0.0000 H   0  0  0  0  0  0  0  0  0  0  0  0
    7.9272    3.1200    0.0000 H   0  0  0  0  0  0  0  0  0  0  0  0
    7.9272    0.7680    0.0000 H   0  0  0  0  0  0  0  0  0  0  0  0
    8.7741    0.5410    0.0000 H   0  0  0  0  0  0  0  0  0  0  0  0
    9.0010    1.3880    0.0000 H   0  0  0  0  0  0  0  0  0  0  0  0
    5.1350   -3.7320    0.0000 H   0  0  0  0  0  0  0  0  0  0  0  0
    4.2690   -0.6121    0.0000 H   0  0  0  0  0  0  0  0  0  0  0  0
    1.4631   -0.6121    0.0000 H   0  0  0  0  0  0  0  0  0  0  0  0
    3.7320   -4.5420    0.0000 H   0  0  0  0  0  0  0  0  0  0  0  0
    4.2690   -2.2320    0.0000 H   0  0  0  0  0  0  0  0  0  0  0  0
    1.4631   -2.2320    0.0000 H   0  0  0  0  0  0  0  0  0  0  0  0
    2.3291   -3.7320    0.0000 H   0  0  0  0  0  0  0  0  0  0  0  0
  1  9  1  0  0  0  0
  1 26  1  0  0  0  0
  2 16  2  0  0  0  0
  3 18  2  0  0  0  0
  4 23  2  0  0  0  0
 10  5  1  6  0  0  0
  5 18  1  0  0  0  0
  5 45  1  0  0  0  0
  6 13  1  0  0  0  0
  6 16  1  0  0  0  0
  6 47  1  0  0  0  0
 12  7  1  6  0  0  0
  7 28  1  0  0  0  0
  7 29  1  0  0  0  0
  8 23  1  0  0  0  0
  8 33  1  0  0  0  0
  8 74  1  0  0  0  0
  9 10  1  0  0  0  0
  9 11  1  1  0  0  0
  9 38  1  0  0  0  0
 10 16  1  0  0  0  0
 10 37  1  0  0  0  0
 11 19  1  0  0  0  0
 11 20  1  0  0  0  0
 11 39  1  0  0  0  0
 12 15  1  0  0  0  0
 12 18  1  0  0  0  0
 12 40  1  0  0  0  0
 13 14  1  0  0  0  0
 13 23  1  0  0  0  0
 13 41  1  6  0  0  0
 14 21  1  0  0  0  0
 14 22  1  6  0  0  0
 14 42  1  0  0  0  0
 15 17  1  0  0  0  0
 15 43  1  0  0  0  0
 15 44  1  0  0  0  0
 17 24  1  0  0  0  0
 17 25  1  0  0  0  0
 17 46  1  0  0  0  0
 19 48  1  0  0  0  0
 19 49  1  0  0  0  0
 19 50  1  0  0  0  0
 20 51  1  0  0  0  0
 20 52  1  0  0  0  0
 20 53  1  0  0  0  0
 21 27  1  0  0  0  0
 21 54  1  0  0  0  0
 21 55  1  0  0  0  0
 22 56  1  0  0  0  0
 22 57  1  0  0  0  0
 22 58  1  0  0  0  0
 24 60  1  0  0  0  0
 24 61  1  0  0  0  0
 24 62  1  0  0  0  0
 25 59  1  0  0  0  0
 25 63  1  0  0  0  0
 25 64  1  0  0  0  0
 26 30  2  0  0  0  0
 26 31  1  0  0  0  0
 27 65  1  0  0  0  0
 27 66  1  0  0  0  0
 27 67  1  0  0  0  0
 28 68  1  0  0  0  0
 28 69  1  0  0  0  0
 28 70  1  0  0  0  0
 29 71  1  0  0  0  0
 29 72  1  0  0  0  0
 29 73  1  0  0  0  0
 30 34  1  0  0  0  0
 30 75  1  0  0  0  0
 31 35  2  0  0  0  0
 31 76  1  0  0  0  0
 32 34  2  0  0  0  0
 32 35  1  0  0  0  0
 32 36  1  0  0  0  0
 33 36  2  0  0  0  0
 33 77  1  0  0  0  0
 34 78  1  0  0  0  0
 35 79  1  0  0  0  0
 36 80  1  0  0  0  0
M  END
> <PUBCHEM_COMPOUND_CID>
5281577

> <PUBCHEM_COMPOUND_CANONICALIZED>
1

> <PUBCHEM_CACTVS_COMPLEXITY>
759

> <PUBCHEM_CACTVS_HBOND_ACCEPTOR>
5

> <PUBCHEM_CACTVS_HBOND_DONOR>
3

> <PUBCHEM_CACTVS_ROTATABLE_BOND>
8

> <PUBCHEM_CACTVS_SUBSKEYS>
AAADcfB7uAAAAAAAAAAAAAAAAAAAAAAAAAAwAAAAAAAAAAABAAAAHgAQAAAADTzhmAYyBoPABACIAiFWUAACCAAgIgAIiIGOCIgOZjaEsTqXOCCm9hGYqAeYwAAOIAAAAAAAAABAAAAAAAAAAAAAAAAAAA==

> <PUBCHEM_IUPAC_OPENEYE_NAME>
(2S)-2-(dimethylamino)-N-[(2Z,6S,9S,10S)-10-isopropyl-6-[(1S)-1-methylpropyl]-5,8-dioxo-11-oxa-4,7-diazabicyclo[10.2.2]hexadeca-1(14),2,12,15-tetraen-9-yl]-4-methyl-pentanamide

> <PUBCHEM_IUPAC_CAS_NAME>
(2S)-N-[(2Z,6S,9S,10S)-6-[(2S)-butan-2-yl]-5,8-dioxo-10-propan-2-yl-11-oxa-4,7-diazabicyclo[10.2.2]hexadeca-1(14),2,12,15-tetraen-9-yl]-2-(dimethylamino)-4-methylpentanamide

> <PUBCHEM_IUPAC_NAME>
(2S)-N-[(2Z,6S,9S,10S)-6-[(2S)-butan-2-yl]-5,8-dioxo-10-propan-2-yl-11-oxa-4,7-diazabicyclo[10.2.2]hexadeca-1(14),2,12,15-tetraen-9-yl]-2-(dimethylamino)-4-methylpentanamide

> <PUBCHEM_IUPAC_SYSTEMATIC_NAME>
(2S)-N-[(2Z,6S,9S,10S)-6-[(2S)-butan-2-yl]-5,8-bis(oxidanylidene)-10-propan-2-yl-11-oxa-4,7-diazabicyclo[10.2.2]hexadeca-1(14),2,12,15-tetraen-9-yl]-2-(dimethylamino)-4-methyl-pentanamide

> <PUBCHEM_IUPAC_TRADITIONAL_NAME>
(2S)-2-(dimethylamino)-N-[(2Z,6S,9S,10S)-10-isopropyl-5,8-diketo-6-[(1S)-1-methylpropyl]-11-oxa-4,7-diazabicyclo[10.2.2]hexadeca-1(14),2,12,15-tetraen-9-yl]-4-methyl-valeramide

> <PUBCHEM_IUPAC_INCHI>
InChI=1S/C28H44N4O4/c1-9-19(6)23-27(34)29-15-14-20-10-12-21(13-11-20)36-25(18(4)5)24(28(35)30-23)31-26(33)22(32(7)8)16-17(2)3/h10-15,17-19,22-25H,9,16H2,1-8H3,(H,29,34)(H,30,35)(H,31,33)/b15-14-/t19-,22-,23-,24-,25-/m0/s1

> <PUBCHEM_IUPAC_INCHIKEY>
OMVRKRVDDRUXPW-RJJCKBEYSA-N

> <PUBCHEM_XLOGP3_AA>
5

> <PUBCHEM_EXACT_MASS>
500.336256

> <PUBCHEM_MOLECULAR_FORMULA>
C28H44N4O4

> <PUBCHEM_MOLECULAR_WEIGHT>
500.67336

> <PUBCHEM_OPENEYE_CAN_SMILES>
CCC(C)C1C(=O)NC=CC2=CC=C(C=C2)OC(C(C(=O)N1)NC(=O)C(CC(C)C)N(C)C)C(C)C

> <PUBCHEM_OPENEYE_ISO_SMILES>
CC[C@H](C)[C@H]1C(=O)N/C=C\C2=CC=C(C=C2)O[C@H]([C@@H](C(=O)N1)NC(=O)[C@H](CC(C)C)N(C)C)C(C)C

> <PUBCHEM_CACTVS_TPSA>
99.8

> <PUBCHEM_MONOISOTOPIC_WEIGHT>
500.336256

> <PUBCHEM_TOTAL_CHARGE>
0

> <PUBCHEM_HEAVY_ATOM_COUNT>
36

> <PUBCHEM_ATOM_DEF_STEREO_COUNT>
5

> <PUBCHEM_ATOM_UDEF_STEREO_COUNT>
0

> <PUBCHEM_BOND_DEF_STEREO_COUNT>
1

> <PUBCHEM_BOND_UDEF_STEREO_COUNT>
0

> <PUBCHEM_ISOTOPIC_ATOM_COUNT>
0

> <PUBCHEM_COMPONENT_COUNT>
1

> <PUBCHEM_CACTVS_TAUTO_COUNT>
18

> <PUBCHEM_COORDINATE_TYPE>
1
5
255

> <PUBCHEM_BONDANNOTATIONS>
13  41  6
14  22  6
26  30  8
26  31  8
30  34  8
31  35  8
32  34  8
32  35  8
10  5  6
12  7  6
9  11  5

$$$$

