442882
  -OEChem-07051213003D

 43 47  0     0  0  0  0  0  0999 V2000
    1.1352    4.2798   -0.1527 O   0  0  0  0  0  0  0  0  0  0  0  0
    3.8940   -1.8943   -1.5781 O   0  0  0  0  0  0  0  0  0  0  0  0
    4.6690   -2.3854    0.6502 O   0  0  0  0  0  0  0  0  0  0  0  0
   -2.8002   -2.9924    0.1655 O   0  0  0  0  0  0  0  0  0  0  0  0
   -4.9820   -1.3157   -0.1900 O   0  0  0  0  0  0  0  0  0  0  0  0
    2.6637    2.5829    0.1469 O   0  0  0  0  0  0  0  0  0  0  0  0
    0.1660    0.8120    0.0833 C   0  0  0  0  0  0  0  0  0  0  0  0
    0.3036    2.1829   -0.0322 C   0  0  0  0  0  0  0  0  0  0  0  0
   -1.1276    0.2699    0.0152 C   0  0  0  0  0  0  0  0  0  0  0  0
   -0.7698    3.0266   -0.2096 C   0  0  0  0  0  0  0  0  0  0  0  0
   -2.2488    1.1317   -0.1679 C   0  0  0  0  0  0  0  0  0  0  0  0
    1.3422   -0.0213    0.2680 C   0  0  0  0  0  0  0  0  0  0  0  0
   -2.0550    2.5212   -0.2798 C   0  0  0  0  0  0  0  0  0  0  0  0
   -0.3003    4.4209   -0.2968 C   0  0  0  0  0  0  0  0  0  0  0  0
    1.5226    2.9752    0.0056 C   0  0  0  0  0  0  0  0  0  0  0  0
   -1.3380   -1.1133    0.1247 C   0  0  0  0  0  0  0  0  0  0  0  0
   -3.5349    0.5740   -0.2335 C   0  0  0  0  0  0  0  0  0  0  0  0
    2.0084   -0.5270   -0.8473 C   0  0  0  0  0  0  0  0  0  0  0  0
   -2.6260   -1.6452    0.0562 C   0  0  0  0  0  0  0  0  0  0  0  0
    1.7896   -0.3046    1.5674 C   0  0  0  0  0  0  0  0  0  0  0  0
   -3.7208   -0.8044   -0.1223 C   0  0  0  0  0  0  0  0  0  0  0  0
    3.1194   -1.3135   -0.6218 C   0  0  0  0  0  0  0  0  0  0  0  0
    3.5619   -1.5940    0.6508 C   0  0  0  0  0  0  0  0  0  0  0  0
    2.9177   -1.1037    1.7679 C   0  0  0  0  0  0  0  0  0  0  0  0
    4.8741   -2.5713   -0.7651 C   0  0  0  0  0  0  0  0  0  0  0  0
   -2.7673   -3.7497   -1.0424 C   0  0  0  0  0  0  0  0  0  0  0  0
   -5.6969   -1.4413    1.0376 C   0  0  0  0  0  0  0  0  0  0  0  0
   -2.8960    3.1950   -0.4197 H   0  0  0  0  0  0  0  0  0  0  0  0
   -0.5118    4.8753   -1.2683 H   0  0  0  0  0  0  0  0  0  0  0  0
   -0.6751    5.0423    0.5207 H   0  0  0  0  0  0  0  0  0  0  0  0
   -0.5161   -1.8111    0.2663 H   0  0  0  0  0  0  0  0  0  0  0  0
   -4.4027    1.2163   -0.3737 H   0  0  0  0  0  0  0  0  0  0  0  0
    1.6747   -0.3172   -1.8584 H   0  0  0  0  0  0  0  0  0  0  0  0
    1.2658    0.0928    2.4340 H   0  0  0  0  0  0  0  0  0  0  0  0
    3.2693   -1.3272    2.7687 H   0  0  0  0  0  0  0  0  0  0  0  0
    5.8691   -2.1942   -1.0280 H   0  0  0  0  0  0  0  0  0  0  0  0
    4.8341   -3.6438   -0.9876 H   0  0  0  0  0  0  0  0  0  0  0  0
   -3.5628   -3.4273   -1.7215 H   0  0  0  0  0  0  0  0  0  0  0  0
   -2.9270   -4.8019   -0.7915 H   0  0  0  0  0  0  0  0  0  0  0  0
   -1.7927   -3.6503   -1.5307 H   0  0  0  0  0  0  0  0  0  0  0  0
   -5.8372   -0.4600    1.5017 H   0  0  0  0  0  0  0  0  0  0  0  0
   -5.1688   -2.1101    1.7247 H   0  0  0  0  0  0  0  0  0  0  0  0
   -6.6794   -1.8689    0.8197 H   0  0  0  0  0  0  0  0  0  0  0  0
  1 14  1  0  0  0  0
  1 15  1  0  0  0  0
  2 22  1  0  0  0  0
  2 25  1  0  0  0  0
  3 23  1  0  0  0  0
  3 25  1  0  0  0  0
  4 19  1  0  0  0  0
  4 26  1  0  0  0  0
  5 21  1  0  0  0  0
  5 27  1  0  0  0  0
  6 15  2  0  0  0  0
  7  8  1  0  0  0  0
  7  9  2  0  0  0  0
  7 12  1  0  0  0  0
  8 10  2  0  0  0  0
  8 15  1  0  0  0  0
  9 11  1  0  0  0  0
  9 16  1  0  0  0  0
 10 13  1  0  0  0  0
 10 14  1  0  0  0  0
 11 13  2  0  0  0  0
 11 17  1  0  0  0  0
 12 18  2  0  0  0  0
 12 20  1  0  0  0  0
 13 28  1  0  0  0  0
 14 29  1  0  0  0  0
 14 30  1  0  0  0  0
 16 19  2  0  0  0  0
 16 31  1  0  0  0  0
 17 21  2  0  0  0  0
 17 32  1  0  0  0  0
 18 22  1  0  0  0  0
 18 33  1  0  0  0  0
 19 21  1  0  0  0  0
 20 24  2  0  0  0  0
 20 34  1  0  0  0  0
 22 23  2  0  0  0  0
 23 24  1  0  0  0  0
 24 35  1  0  0  0  0
 25 36  1  0  0  0  0
 25 37  1  0  0  0  0
 26 38  1  0  0  0  0
 26 39  1  0  0  0  0
 26 40  1  0  0  0  0
 27 41  1  0  0  0  0
 27 42  1  0  0  0  0
 27 43  1  0  0  0  0
M  END
> <PUBCHEM_COMPOUND_CID>
442882

> <PUBCHEM_CONFORMER_RMSD>
0.8

> <PUBCHEM_CONFORMER_DIVERSEORDER>
1
2

> <PUBCHEM_MMFF94_PARTIAL_CHARGES>
29
1 -0.43
10 -0.14
13 -0.15
14 0.42
15 0.63
16 -0.15
17 -0.15
18 -0.15
19 0.08
2 -0.36
20 -0.15
21 0.08
22 0.08
23 0.08
24 -0.15
25 0.56
26 0.28
27 0.28
28 0.15
3 -0.36
31 0.15
32 0.15
33 0.15
34 0.15
35 0.15
4 -0.36
5 -0.36
6 -0.57
8 0.09

> <PUBCHEM_EFFECTIVE_ROTOR_COUNT>
4

> <PUBCHEM_PHARMACOPHORE_FEATURES>
10
1 2 acceptor
1 3 acceptor
1 4 acceptor
1 5 acceptor
1 6 acceptor
5 1 8 10 14 15 rings
5 2 3 22 23 25 rings
6 12 18 20 22 23 24 rings
6 7 8 9 10 11 13 rings
6 9 11 16 17 19 21 rings

> <PUBCHEM_HEAVY_ATOM_COUNT>
27

> <PUBCHEM_ATOM_DEF_STEREO_COUNT>
0

> <PUBCHEM_ATOM_UDEF_STEREO_COUNT>
0

> <PUBCHEM_BOND_DEF_STEREO_COUNT>
0

> <PUBCHEM_BOND_UDEF_STEREO_COUNT>
0

> <PUBCHEM_ISOTOPIC_ATOM_COUNT>
0

> <PUBCHEM_COMPONENT_COUNT>
1

> <PUBCHEM_CACTVS_TAUTO_COUNT>
1

> <PUBCHEM_CONFORMER_ID>
0006C20200000001

> <PUBCHEM_MMFF94_ENERGY>
107.8693

> <PUBCHEM_FEATURE_SELFOVERLAP>
51.021

> <PUBCHEM_SHAPE_FINGERPRINT>
10319926 262 17905072566244358794
10369192 42 17532962428020915304
10411042 1 18411417332277108283
1100329 8 18339079427605399593
11069576 57 17540839203892953791
11135926 11 18122914131097172205
11578080 2 17273443692750877892
12107183 9 18335687374541116003
12173636 292 17474957996349205572
12236239 1 17271715393773936568
12403259 327 15719396096698104651
12553582 1 18412552024019292963
12788726 201 18199742712536509666
12839892 36 17688048421783468720
13140716 1 18338238279540142297
138480 1 14663864311136000333
14251757 5 18268137846195257310
14790565 3 17761482991011753300
14844126 61 18197507435372283266
14863182 85 17261869954067579159
14866123 147 18048594021739725873
15042514 8 18195522821199836489
16752209 62 18054800742912853457
17492 89 18121218684774140383
1813 80 18408035230025178563
19319366 153 17415555677692958659
20028762 73 17397547502865316678
20775438 99 17543120781183621319
20905425 154 18410009914713427372
21033648 29 17531828963642754003
21421861 104 18270401560248345265
22849341 161 18338496604837488161
23184049 29 18412552019523696608
23366157 5 18056481643005014885
23557571 272 18117850013274341696
23559900 14 18408610240220211269
314173 41 18411697656060542131
3178227 256 18124017186996477769
335352 9 18339361980882230165
4280585 95 18411145744700176414
4409770 3 17983020247522957749
6138700 20 18196086643675957236
7364860 26 18266458694091767433
7970288 3 18412544331833651395
8863177 126 17844512324526747195
9709674 26 18197218044950245579
9981440 41 17044015455971569328

> <PUBCHEM_SHAPE_MULTIPOLES>
520.43
8.83
5.19
1.09
1.28
4.33
-0.21
-10.26
-0.36
0.15
1.06
-0.78
-0.63
0.36

> <PUBCHEM_SHAPE_SELFOVERLAP>
1189.857

> <PUBCHEM_SHAPE_VOLUME>
274.4

> <PUBCHEM_COORDINATE_TYPE>
2
5
10

$$$$

