47205004
  -OEChem-06241222572D

 26 27  0     0  0  0  0  0  0999 V2000
    3.4030    0.2953    0.0000 O   0  0  0  0  0  0  0  0  0  0  0  0
    5.1350    0.2953    0.0000 N   0  0  0  0  0  0  0  0  0  0  0  0
    6.1056    2.7898    0.0000 N   0  0  0  0  0  0  0  0  0  0  0  0
    7.0837    2.9977    0.0000 N   0  0  0  0  0  0  0  0  0  0  0  0
    5.1350   -1.7047    0.0000 N   0  0  0  0  0  0  0  0  0  0  0  0
    3.4030   -2.7047    0.0000 N   0  0  0  0  0  0  0  0  0  0  0  0
    2.5369   -1.2047    0.0000 N   0  0  0  0  0  0  0  0  0  0  0  0
    5.1350    1.2953    0.0000 C   0  0  0  0  0  0  0  0  0  0  0  0
    6.0010    1.7953    0.0000 C   0  0  0  0  0  0  0  0  0  0  0  0
    4.2690   -0.2047    0.0000 C   0  0  0  0  0  0  0  0  0  0  0  0
    6.9146    1.3886    0.0000 C   0  0  0  0  0  0  0  0  0  0  0  0
    4.2690   -1.2047    0.0000 C   0  0  0  0  0  0  0  0  0  0  0  0
    7.5837    2.1317    0.0000 C   0  0  0  0  0  0  0  0  0  0  0  0
    3.4030   -1.7047    0.0000 C   0  0  0  0  0  0  0  0  0  0  0  0
    5.1350   -2.7047    0.0000 C   0  0  0  0  0  0  0  0  0  0  0  0
    4.2690   -3.2047    0.0000 C   0  0  0  0  0  0  0  0  0  0  0  0
    4.9230    1.8779    0.0000 H   0  0  0  0  0  0  0  0  0  0  0  0
    4.5244    1.1877    0.0000 H   0  0  0  0  0  0  0  0  0  0  0  0
    5.6720   -0.0147    0.0000 H   0  0  0  0  0  0  0  0  0  0  0  0
    7.0435    0.7821    0.0000 H   0  0  0  0  0  0  0  0  0  0  0  0
    5.6448    3.2047    0.0000 H   0  0  0  0  0  0  0  0  0  0  0  0
    8.2003    2.0669    0.0000 H   0  0  0  0  0  0  0  0  0  0  0  0
    5.6720   -3.0147    0.0000 H   0  0  0  0  0  0  0  0  0  0  0  0
    4.2690   -3.8247    0.0000 H   0  0  0  0  0  0  0  0  0  0  0  0
    2.0000   -1.5147    0.0000 H   0  0  0  0  0  0  0  0  0  0  0  0
    2.5369   -0.5847    0.0000 H   0  0  0  0  0  0  0  0  0  0  0  0
  1 10  2  0  0  0  0
  2  8  1  0  0  0  0
  2 10  1  0  0  0  0
  2 19  1  0  0  0  0
  3  4  1  0  0  0  0
  3  9  1  0  0  0  0
  3 21  1  0  0  0  0
  4 13  2  0  0  0  0
  5 12  2  0  0  0  0
  5 15  1  0  0  0  0
  6 14  2  0  0  0  0
  6 16  1  0  0  0  0
  7 14  1  0  0  0  0
  7 25  1  0  0  0  0
  7 26  1  0  0  0  0
  8  9  1  0  0  0  0
  8 17  1  0  0  0  0
  8 18  1  0  0  0  0
  9 11  2  0  0  0  0
 10 12  1  0  0  0  0
 11 13  1  0  0  0  0
 11 20  1  0  0  0  0
 12 14  1  0  0  0  0
 13 22  1  0  0  0  0
 15 16  2  0  0  0  0
 15 23  1  0  0  0  0
 16 24  1  0  0  0  0
M  END
> <PUBCHEM_COMPOUND_CID>
47205004

> <PUBCHEM_COMPOUND_CANONICALIZED>
1

> <PUBCHEM_CACTVS_COMPLEXITY>
248

> <PUBCHEM_CACTVS_HBOND_ACCEPTOR>
5

> <PUBCHEM_CACTVS_HBOND_DONOR>
3

> <PUBCHEM_CACTVS_ROTATABLE_BOND>
3

> <PUBCHEM_CACTVS_SUBSKEYS>
AAADccBzoAAAAAAAAAAAAAAAAAAAAWAAAAAsAAAAAAAAAAAB4AAAHgAYAAAACAjBlgQ9sJLrEACqATd3dACQhC03kiAYeaG4dFiAYMhAweEUhIhAHgLAQGAAAAAAAAAAAAAAAAAAAAAAAAAAAAAAAAAAAA==

> <PUBCHEM_IUPAC_OPENEYE_NAME>
3-amino-N-(1H-pyrazol-5-ylmethyl)pyrazine-2-carboxamide

> <PUBCHEM_IUPAC_CAS_NAME>
3-amino-N-(1H-pyrazol-5-ylmethyl)-2-pyrazinecarboxamide

> <PUBCHEM_IUPAC_NAME>
3-amino-N-(1H-pyrazol-5-ylmethyl)pyrazine-2-carboxamide

> <PUBCHEM_IUPAC_SYSTEMATIC_NAME>
3-azanyl-N-(1H-pyrazol-5-ylmethyl)pyrazine-2-carboxamide

> <PUBCHEM_IUPAC_TRADITIONAL_NAME>
3-amino-N-(1H-pyrazol-5-ylmethyl)pyrazinamide

> <PUBCHEM_IUPAC_INCHI>
InChI=1S/C9H10N6O/c10-8-7(11-3-4-12-8)9(16)13-5-6-1-2-14-15-6/h1-4H,5H2,(H2,10,12)(H,13,16)(H,14,15)

> <PUBCHEM_IUPAC_INCHIKEY>
GPSSJOYPPCOXRK-UHFFFAOYSA-N

> <PUBCHEM_XLOGP3_AA>
-0.6

> <PUBCHEM_EXACT_MASS>
218.091609

> <PUBCHEM_MOLECULAR_FORMULA>
C9H10N6O

> <PUBCHEM_MOLECULAR_WEIGHT>
218.2153

> <PUBCHEM_OPENEYE_CAN_SMILES>
C1=CN=C(C(=N1)C(=O)NCC2=CC=NN2)N

> <PUBCHEM_OPENEYE_ISO_SMILES>
C1=CN=C(C(=N1)C(=O)NCC2=CC=NN2)N

> <PUBCHEM_CACTVS_TPSA>
110

> <PUBCHEM_MONOISOTOPIC_WEIGHT>
218.091609

> <PUBCHEM_TOTAL_CHARGE>
0

> <PUBCHEM_HEAVY_ATOM_COUNT>
16

> <PUBCHEM_ATOM_DEF_STEREO_COUNT>
0

> <PUBCHEM_ATOM_UDEF_STEREO_COUNT>
0

> <PUBCHEM_BOND_DEF_STEREO_COUNT>
0

> <PUBCHEM_BOND_UDEF_STEREO_COUNT>
0

> <PUBCHEM_ISOTOPIC_ATOM_COUNT>
0

> <PUBCHEM_COMPONENT_COUNT>
1

> <PUBCHEM_CACTVS_TAUTO_COUNT>
14

> <PUBCHEM_COORDINATE_TYPE>
1
5
255

> <PUBCHEM_BONDANNOTATIONS>
11  13  8
12  14  8
15  16  8
3  4  8
3  9  8
4  13  8
5  12  8
5  15  8
6  14  8
6  16  8
9  11  8

$$$$

