5462509
  -OEChem-07051213022D

 41 44  0     1  0  0  0  0  0999 V2000
    5.1102    1.0410    0.0000 N   0  0  3  0  0  0  0  0  0  0  0  0
    4.6660   -0.4499    0.0000 C   0  0  2  0  0  0  0  0  0  0  0  0
    5.5321    0.0501    0.0000 C   0  0  2  0  0  0  0  0  0  0  0  0
    5.5321    1.0501    0.0000 C   0  0  1  0  0  0  0  0  0  0  0  0
    4.4629   -0.0800    0.0000 C   0  0  0  0  0  0  0  0  0  0  0  0
    4.6500   -1.4914    0.0000 C   0  0  0  0  0  0  0  0  0  0  0  0
    6.4421   -0.4568    0.0000 C   0  0  0  0  0  0  0  0  0  0  0  0
    3.8000    0.0501    0.0000 C   0  0  0  0  0  0  0  0  0  0  0  0
    4.6660    1.5501    0.0000 C   0  0  0  0  0  0  0  0  0  0  0  0
    4.3793    0.7156    0.0000 C   0  0  0  0  0  0  0  0  0  0  0  0
    5.5480   -2.0192    0.0000 C   0  0  0  0  0  0  0  0  0  0  0  0
    6.4501   -1.4984    0.0000 C   0  0  0  0  0  0  0  0  0  0  0  0
    3.8000    1.0501    0.0000 C   0  0  0  0  0  0  0  0  0  0  0  0
    2.9061   -0.4846    0.0000 C   0  0  0  0  0  0  0  0  0  0  0  0
    5.3181    2.0192    0.0000 C   0  0  0  0  0  0  0  0  0  0  0  0
    2.9061    1.5848    0.0000 C   0  0  0  0  0  0  0  0  0  0  0  0
    2.0000    0.0293    0.0000 C   0  0  0  0  0  0  0  0  0  0  0  0
    2.0000    1.0709    0.0000 C   0  0  0  0  0  0  0  0  0  0  0  0
    6.2682    0.4751    0.0000 H   0  0  0  0  0  0  0  0  0  0  0  0
    5.9571    1.7862    0.0000 H   0  0  0  0  0  0  0  0  0  0  0  0
    3.8682    0.0952    0.0000 H   0  0  0  0  0  0  0  0  0  0  0  0
    5.0546    0.1053    0.0000 H   0  0  0  0  0  0  0  0  0  0  0  0
    4.0408   -1.3759    0.0000 H   0  0  0  0  0  0  0  0  0  0  0  0
    4.4319   -2.0718    0.0000 H   0  0  0  0  0  0  0  0  0  0  0  0
    7.0537   -0.5581    0.0000 H   0  0  0  0  0  0  0  0  0  0  0  0
    6.6466    0.1285    0.0000 H   0  0  0  0  0  0  0  0  0  0  0  0
    5.0646    2.0250    0.0000 H   0  0  0  0  0  0  0  0  0  0  0  0
    4.2675    2.0250    0.0000 H   0  0  0  0  0  0  0  0  0  0  0  0
    4.1877    1.3053    0.0000 H   0  0  0  0  0  0  0  0  0  0  0  0
    3.7729    0.5867    0.0000 H   0  0  0  0  0  0  0  0  0  0  0  0
    5.1470   -2.4921    0.0000 H   0  0  0  0  0  0  0  0  0  0  0  0
    5.9453   -2.4951    0.0000 H   0  0  0  0  0  0  0  0  0  0  0  0
    6.6636   -2.0804    0.0000 H   0  0  0  0  0  0  0  0  0  0  0  0
    7.0601   -1.3876    0.0000 H   0  0  0  0  0  0  0  0  0  0  0  0
    2.9132   -1.1045    0.0000 H   0  0  0  0  0  0  0  0  0  0  0  0
    5.9245    1.8903    0.0000 H   0  0  0  0  0  0  0  0  0  0  0  0
    5.4470    2.6256    0.0000 H   0  0  0  0  0  0  0  0  0  0  0  0
    4.7116    2.1481    0.0000 H   0  0  0  0  0  0  0  0  0  0  0  0
    2.9132    2.2047    0.0000 H   0  0  0  0  0  0  0  0  0  0  0  0
    1.4643   -0.2828    0.0000 H   0  0  0  0  0  0  0  0  0  0  0  0
    1.4643    1.3830    0.0000 H   0  0  0  0  0  0  0  0  0  0  0  0
  1  4  1  0  0  0  0
  1 10  1  0  0  0  0
  1 15  1  0  0  0  0
  2  3  1  0  0  0  0
  2  5  1  0  0  0  0
  2  6  1  1  0  0  0
  2  8  1  0  0  0  0
  3  4  1  0  0  0  0
  3  7  1  0  0  0  0
  3 19  1  1  0  0  0
  4  9  1  0  0  0  0
  4 20  1  1  0  0  0
  5 10  1  0  0  0  0
  5 21  1  0  0  0  0
  5 22  1  0  0  0  0
  6 11  1  0  0  0  0
  6 23  1  0  0  0  0
  6 24  1  0  0  0  0
  7 12  1  0  0  0  0
  7 25  1  0  0  0  0
  7 26  1  0  0  0  0
  8 13  1  0  0  0  0
  8 14  2  0  0  0  0
  9 13  1  0  0  0  0
  9 27  1  0  0  0  0
  9 28  1  0  0  0  0
 10 29  1  0  0  0  0
 10 30  1  0  0  0  0
 11 12  1  0  0  0  0
 11 31  1  0  0  0  0
 11 32  1  0  0  0  0
 12 33  1  0  0  0  0
 12 34  1  0  0  0  0
 13 16  2  0  0  0  0
 14 17  1  0  0  0  0
 14 35  1  0  0  0  0
 15 36  1  0  0  0  0
 15 37  1  0  0  0  0
 15 38  1  0  0  0  0
 16 18  1  0  0  0  0
 16 39  1  0  0  0  0
 17 18  2  0  0  0  0
 17 40  1  0  0  0  0
 18 41  1  0  0  0  0
M  END
> <PUBCHEM_COMPOUND_CID>
5462509

> <PUBCHEM_COMPOUND_CANONICALIZED>
1

> <PUBCHEM_CACTVS_COMPLEXITY>
326

> <PUBCHEM_CACTVS_HBOND_ACCEPTOR>
1

> <PUBCHEM_CACTVS_HBOND_DONOR>
0

> <PUBCHEM_CACTVS_ROTATABLE_BOND>
0

> <PUBCHEM_CACTVS_SUBSKEYS>
AAADceB6AAAAAAAAAAAAAAAAAAAAAAAAAAA8YMEAAAAWAADxAAAAHAAAAAAADyjBGAQyAIMAAACAAiBCAAACAAAgAAAIiAAIAIgIICKAkRGEIAAggACIiAcQgMAPgAAAAAAQAACQAASAACQAAAAAAAAAAA==

> <PUBCHEM_IUPAC_INCHI>
InChI=1S/C17H23N/c1-18-11-10-17-9-5-4-8-15(17)16(18)12-13-6-2-3-7-14(13)17/h2-3,6-7,15-16H,4-5,8-12H2,1H3/t15-,16+,17-/m0/s1

> <PUBCHEM_IUPAC_INCHIKEY>
IHBSVVZENGBQDY-BBWFWOEESA-N

> <PUBCHEM_XLOGP3>
3.5

> <PUBCHEM_EXACT_MASS>
241.18305

> <PUBCHEM_MOLECULAR_FORMULA>
C17H23N

> <PUBCHEM_MOLECULAR_WEIGHT>
241.37122

> <PUBCHEM_OPENEYE_CAN_SMILES>
CN1CCC23CCCCC2C1CC4=CC=CC=C34

> <PUBCHEM_OPENEYE_ISO_SMILES>
CN1CC[C@]23CCCC[C@H]2[C@H]1CC4=CC=CC=C34

> <PUBCHEM_CACTVS_TPSA>
3.2

> <PUBCHEM_MONOISOTOPIC_WEIGHT>
241.18305

> <PUBCHEM_TOTAL_CHARGE>
0

> <PUBCHEM_HEAVY_ATOM_COUNT>
18

> <PUBCHEM_ATOM_DEF_STEREO_COUNT>
3

> <PUBCHEM_ATOM_UDEF_STEREO_COUNT>
0

> <PUBCHEM_BOND_DEF_STEREO_COUNT>
0

> <PUBCHEM_BOND_UDEF_STEREO_COUNT>
0

> <PUBCHEM_ISOTOPIC_ATOM_COUNT>
0

> <PUBCHEM_COMPONENT_COUNT>
1

> <PUBCHEM_CACTVS_TAUTO_COUNT>
1

> <PUBCHEM_COORDINATE_TYPE>
1
5
255

> <PUBCHEM_BONDANNOTATIONS>
13  16  8
14  17  8
16  18  8
17  18  8
2  6  5
3  19  5
4  20  5
8  13  8
8  14  8

$$$$

