17040
  -OEChem-07051213053D

 26 26  0     0  0  0  0  0  0999 V2000
    1.4192    0.1224    0.9545 O   0  0  0  0  0  0  0  0  0  0  0  0
    1.9984   -0.0580   -1.2901 O   0  0  0  0  0  0  0  0  0  0  0  0
    3.6247   -0.1041    0.3639 N   0  0  0  0  0  0  0  0  0  0  0  0
   -1.9995   -0.8424    0.0786 C   0  0  0  0  0  0  0  0  0  0  0  0
   -2.5633    0.4070   -0.1801 C   0  0  0  0  0  0  0  0  0  0  0  0
   -0.6611   -0.9382    0.4599 C   0  0  0  0  0  0  0  0  0  0  0  0
    0.1134    0.2155    0.5824 C   0  0  0  0  0  0  0  0  0  0  0  0
   -1.7888    1.5606   -0.0577 C   0  0  0  0  0  0  0  0  0  0  0  0
   -0.4505    1.4648    0.3235 C   0  0  0  0  0  0  0  0  0  0  0  0
   -2.8097   -2.0907   -0.0460 C   0  0  0  0  0  0  0  0  0  0  0  0
   -3.9939    0.5346   -0.5889 C   0  0  0  0  0  0  0  0  0  0  0  0
    2.3316   -0.0178   -0.1093 C   0  0  0  0  0  0  0  0  0  0  0  0
    4.7794   -0.2536   -0.4908 C   0  0  0  0  0  0  0  0  0  0  0  0
   -0.2122   -1.9072    0.6646 H   0  0  0  0  0  0  0  0  0  0  0  0
   -2.2121    2.5419   -0.2552 H   0  0  0  0  0  0  0  0  0  0  0  0
    0.1472    2.3674    0.4177 H   0  0  0  0  0  0  0  0  0  0  0  0
   -3.1784   -2.2107   -1.0699 H   0  0  0  0  0  0  0  0  0  0  0  0
   -2.2195   -2.9829    0.1910 H   0  0  0  0  0  0  0  0  0  0  0  0
   -3.6573   -2.0714    0.6467 H   0  0  0  0  0  0  0  0  0  0  0  0
   -4.6544    0.1405    0.1902 H   0  0  0  0  0  0  0  0  0  0  0  0
   -4.2772    1.5801   -0.7536 H   0  0  0  0  0  0  0  0  0  0  0  0
   -4.1765   -0.0004   -1.5265 H   0  0  0  0  0  0  0  0  0  0  0  0
    3.7727   -0.0609    1.3674 H   0  0  0  0  0  0  0  0  0  0  0  0
    5.4546    0.5844   -0.3016 H   0  0  0  0  0  0  0  0  0  0  0  0
    4.4956   -0.2706   -1.5457 H   0  0  0  0  0  0  0  0  0  0  0  0
    5.2805   -1.1879   -0.2264 H   0  0  0  0  0  0  0  0  0  0  0  0
  1  7  1  0  0  0  0
  1 12  1  0  0  0  0
  2 12  2  0  0  0  0
  3 12  1  0  0  0  0
  3 13  1  0  0  0  0
  3 23  1  0  0  0  0
  4  5  2  0  0  0  0
  4  6  1  0  0  0  0
  4 10  1  0  0  0  0
  5  8  1  0  0  0  0
  5 11  1  0  0  0  0
  6  7  2  0  0  0  0
  6 14  1  0  0  0  0
  7  9  1  0  0  0  0
  8  9  2  0  0  0  0
  8 15  1  0  0  0  0
  9 16  1  0  0  0  0
 10 17  1  0  0  0  0
 10 18  1  0  0  0  0
 10 19  1  0  0  0  0
 11 20  1  0  0  0  0
 11 21  1  0  0  0  0
 11 22  1  0  0  0  0
 13 24  1  0  0  0  0
 13 25  1  0  0  0  0
 13 26  1  0  0  0  0
M  END
> <PUBCHEM_COMPOUND_CID>
17040

> <PUBCHEM_CONFORMER_RMSD>
0.6

> <PUBCHEM_CONFORMER_DIVERSEORDER>
2
10
19
16
15
11
24
23
3
9
4
12
22
17
18
7
14
13
6
20
21
1
5
8

> <PUBCHEM_MMFF94_PARTIAL_CHARGES>
17
1 -0.23
10 0.14
11 0.14
12 0.78
13 0.3
14 0.15
15 0.15
16 0.15
2 -0.57
23 0.37
3 -0.73
4 -0.14
5 -0.14
6 -0.15
7 0.08
8 -0.15
9 -0.15

> <PUBCHEM_EFFECTIVE_ROTOR_COUNT>
3

> <PUBCHEM_PHARMACOPHORE_FEATURES>
3
1 2 acceptor
1 3 donor
6 4 5 6 7 8 9 rings

> <PUBCHEM_HEAVY_ATOM_COUNT>
13

> <PUBCHEM_ATOM_DEF_STEREO_COUNT>
0

> <PUBCHEM_ATOM_UDEF_STEREO_COUNT>
0

> <PUBCHEM_BOND_DEF_STEREO_COUNT>
0

> <PUBCHEM_BOND_UDEF_STEREO_COUNT>
0

> <PUBCHEM_ISOTOPIC_ATOM_COUNT>
0

> <PUBCHEM_COMPONENT_COUNT>
1

> <PUBCHEM_CACTVS_TAUTO_COUNT>
2

> <PUBCHEM_CONFORMER_ID>
0000429000000002

> <PUBCHEM_MMFF94_ENERGY>
33.327

> <PUBCHEM_FEATURE_SELFOVERLAP>
15.223

> <PUBCHEM_SHAPE_FINGERPRINT>
11127187 94 18410856538534406903
12032990 46 18337110051829005723
12532896 13 17681253783742853225
13024252 1 17060614499784917473
14115302 16 18343298158708954709
14911166 2 18410866468788919541
14993402 34 18201727271016123573
15219456 202 18041851588430345096
15775835 57 17561083635057398812
16945 1 18411146852770057977
17870717 6 18261939843457386206
18175812 5 17968100789503762964
18186145 218 15985106271605172516
200 152 16225770735009107660
20201158 50 17967249818937912038
20279233 1 17822006519031264430
20281407 28 18186517692087768162
20645476 183 17775288265973015555
20645477 70 16588582140524998012
20871998 22 17905890280218630851
20871999 31 18342743975116262719
21061003 4 16877659041719235594
21119208 17 17917712422023123436
22213442 358 18263083223453777112
23402539 116 18410301323511026732
23557571 272 18334849494165371846
23559900 14 18408327688098149192
2748010 2 18123204411305004265
293599 30 18338517577295279817
3312278 4 18412545409579467403
4175511 318 18202289125483612495
77492 1 17561091323301988488

> <PUBCHEM_SHAPE_MULTIPOLES>
250.81
7.2
1.51
0.86
6.87
0.28
0.07
0.88
1.74
-1.62
-0.05
0.26
-0.01
0.18

> <PUBCHEM_SHAPE_SELFOVERLAP>
514.734

> <PUBCHEM_SHAPE_VOLUME>
144.7

> <PUBCHEM_COORDINATE_TYPE>
2
5
10

$$$$

