582698
  -OEChem-06241222433D

 33 32  0     0  0  0  0  0  0999 V2000
    0.0005    1.5548    0.0001 Si  0  0  0  0  0  0  0  0  0  0  0  0
   -0.8625    2.5241    1.0646 O   0  0  0  0  0  0  0  0  0  0  0  0
    0.8670    2.5207   -1.0646 O   0  0  0  0  0  0  0  0  0  0  0  0
    4.3516   -3.0298   -0.5590 N   0  0  0  0  0  0  0  0  0  0  0  0
   -4.3674   -3.0138    0.5602 N   0  0  0  0  0  0  0  0  0  0  0  0
    1.1849    0.4318    0.9410 C   0  0  0  0  0  0  0  0  0  0  0  0
   -1.1880    0.4359   -0.9407 C   0  0  0  0  0  0  0  0  0  0  0  0
    2.0195   -0.5174    0.0739 C   0  0  0  0  0  0  0  0  0  0  0  0
   -2.0262   -0.5102   -0.0732 C   0  0  0  0  0  0  0  0  0  0  0  0
    2.9795   -1.3489    0.9261 C   0  0  0  0  0  0  0  0  0  0  0  0
   -2.9892   -1.3383   -0.9253 C   0  0  0  0  0  0  0  0  0  0  0  0
   -1.8140    3.4477    0.5560 C   0  0  0  0  0  0  0  0  0  0  0  0
    1.8574    3.4050   -0.5600 C   0  0  0  0  0  0  0  0  0  0  0  0
    3.7457   -2.2875    0.0956 C   0  0  0  0  0  0  0  0  0  0  0  0
   -3.7587   -2.2739   -0.0946 C   0  0  0  0  0  0  0  0  0  0  0  0
    0.6033   -0.1540    1.6625 H   0  0  0  0  0  0  0  0  0  0  0  0
    1.8566    1.0677    1.5297 H   0  0  0  0  0  0  0  0  0  0  0  0
   -0.6090   -0.1521   -1.6624 H   0  0  0  0  0  0  0  0  0  0  0  0
   -1.8577    1.0745   -1.5289 H   0  0  0  0  0  0  0  0  0  0  0  0
    2.5914    0.0534   -0.6699 H   0  0  0  0  0  0  0  0  0  0  0  0
    1.3592   -1.1882   -0.4916 H   0  0  0  0  0  0  0  0  0  0  0  0
   -2.5960    0.0632    0.6702 H   0  0  0  0  0  0  0  0  0  0  0  0
   -1.3683   -1.1831    0.4925 H   0  0  0  0  0  0  0  0  0  0  0  0
    2.4164   -1.9090    1.6815 H   0  0  0  0  0  0  0  0  0  0  0  0
    3.6691   -0.6871    1.4627 H   0  0  0  0  0  0  0  0  0  0  0  0
   -2.4280   -1.9006   -1.6806 H   0  0  0  0  0  0  0  0  0  0  0  0
   -3.6763   -0.6741   -1.4621 H   0  0  0  0  0  0  0  0  0  0  0  0
   -2.2287    4.0067    1.4004 H   0  0  0  0  0  0  0  0  0  0  0  0
   -2.6399    2.9294    0.0570 H   0  0  0  0  0  0  0  0  0  0  0  0
   -1.3482    4.1656   -0.1281 H   0  0  0  0  0  0  0  0  0  0  0  0
    1.4324    4.1128    0.1602 H   0  0  0  0  0  0  0  0  0  0  0  0
    2.2588    3.9794   -1.4006 H   0  0  0  0  0  0  0  0  0  0  0  0
    2.6855    2.8516   -0.1044 H   0  0  0  0  0  0  0  0  0  0  0  0
  1  2  1  0  0  0  0
  1  3  1  0  0  0  0
  1  6  1  0  0  0  0
  1  7  1  0  0  0  0
  2 12  1  0  0  0  0
  3 13  1  0  0  0  0
  4 14  3  0  0  0  0
  5 15  3  0  0  0  0
  6  8  1  0  0  0  0
  6 16  1  0  0  0  0
  6 17  1  0  0  0  0
  7  9  1  0  0  0  0
  7 18  1  0  0  0  0
  7 19  1  0  0  0  0
  8 10  1  0  0  0  0
  8 20  1  0  0  0  0
  8 21  1  0  0  0  0
  9 11  1  0  0  0  0
  9 22  1  0  0  0  0
  9 23  1  0  0  0  0
 10 14  1  0  0  0  0
 10 24  1  0  0  0  0
 10 25  1  0  0  0  0
 11 15  1  0  0  0  0
 11 26  1  0  0  0  0
 11 27  1  0  0  0  0
 12 28  1  0  0  0  0
 12 29  1  0  0  0  0
 12 30  1  0  0  0  0
 13 31  1  0  0  0  0
 13 32  1  0  0  0  0
 13 33  1  0  0  0  0
M  END
> <PUBCHEM_COMPOUND_CID>
582698

> <PUBCHEM_CONFORMER_RMSD>
0.8

> <PUBCHEM_CONFORMER_DIVERSEORDER>
1
114
93
66
23
6
80
55
4
102
89
5
7
33
97
47
18
112
50
30
10
82
110
56
49
41
37
113
95
28
116
45
2
96
34
115
15
40
104
20
103
88
8
85
3
90
59
70
51
60
73
107
100
99
57
75
84
39
14
42
71
76
52
105
12
54
16
87
48
106
11
79
77
67
94
74
13
81
92
53
108
64
26
68
25
111
9
91
78
98
35
38
69
61
63
118
62
86
17
36
31
83
117
109
65
101
58
29
72
46
44
24
21
43
19
22
27
32

> <PUBCHEM_MMFF94_PARTIAL_CHARGES>
13
1 0.76
10 0.2
11 0.2
12 0.28
13 0.28
14 0.36
15 0.36
2 -0.58
3 -0.58
4 -0.56
5 -0.56
6 -0.08
7 -0.08

> <PUBCHEM_EFFECTIVE_ROTOR_COUNT>
8

> <PUBCHEM_PHARMACOPHORE_FEATURES>
2
1 4 acceptor
1 5 acceptor

> <PUBCHEM_HEAVY_ATOM_COUNT>
15

> <PUBCHEM_ATOM_DEF_STEREO_COUNT>
0

> <PUBCHEM_ATOM_UDEF_STEREO_COUNT>
0

> <PUBCHEM_BOND_DEF_STEREO_COUNT>
0

> <PUBCHEM_BOND_UDEF_STEREO_COUNT>
0

> <PUBCHEM_ISOTOPIC_ATOM_COUNT>
0

> <PUBCHEM_COMPONENT_COUNT>
1

> <PUBCHEM_CACTVS_TAUTO_COUNT>
1

> <PUBCHEM_CONFORMER_ID>
0008E42A00000001

> <PUBCHEM_MMFF94_ENERGY>
9.9207

> <PUBCHEM_FEATURE_SELFOVERLAP>
10.149

> <PUBCHEM_SHAPE_FINGERPRINT>
12841375 5 18269275651566795446
13533116 47 18050286973827183003
13911882 115 17198253379816777667
14863182 85 18050013186187005456
15422964 175 18337125461733755419
17859628 70 17906449927305797923
20645477 70 17983598316130759919
21452121 199 18267039292012664584
21665056 4 17329718029168328774
23557571 272 18194147267823853754
7364860 26 18124320393483351470
81228 2 18049188805542274129

> <PUBCHEM_SHAPE_MULTIPOLES>
305.21
6.95
5.07
1.05
0.08
1.63
0
-10.82
0
-0.03
-0.01
0
0.26
-0.29

> <PUBCHEM_SHAPE_SELFOVERLAP>
554.514

> <PUBCHEM_SHAPE_VOLUME>
192.7

> <PUBCHEM_COORDINATE_TYPE>
2
5
10

$$$$

