119269
  -OEChem-07051212462D

 46 48  0     1  0  0  0  0  0999 V2000
    6.0290    0.6051    0.0000 O   0  0  0  0  0  0  0  0  0  0  0  0
    6.0174   -2.4642    0.0000 O   0  0  0  0  0  0  0  0  0  0  0  0
    4.2690   -2.4296    0.0000 O   0  0  0  0  0  0  0  0  0  0  0  0
    2.5369    0.5704    0.0000 O   0  0  0  0  0  0  0  0  0  0  0  0
    6.9273   -2.9504    0.0000 O   0  0  0  0  0  0  0  0  0  0  0  0
   10.3914   -2.9638    0.0000 O   0  0  0  0  0  0  0  0  0  0  0  0
    6.9350   -0.9504    0.0000 C   0  0  3  0  0  0  0  0  0  0  0  0
    6.9350    0.0912    0.0000 C   0  0  0  0  0  0  0  0  0  0  0  0
    5.1350   -0.9296    0.0000 C   0  0  0  0  0  0  0  0  0  0  0  0
    6.0290   -1.4643    0.0000 C   0  0  0  0  0  0  0  0  0  0  0  0
    5.1350    0.0704    0.0000 C   0  0  0  0  0  0  0  0  0  0  0  0
    7.7991   -1.4538    0.0000 C   0  0  0  0  0  0  0  0  0  0  0  0
    4.2690    0.5704    0.0000 C   0  0  0  0  0  0  0  0  0  0  0  0
    4.2690   -1.4296    0.0000 C   0  0  0  0  0  0  0  0  0  0  0  0
    4.2690    1.5704    0.0000 C   0  0  0  0  0  0  0  0  0  0  0  0
    3.4030    0.0704    0.0000 C   0  0  0  0  0  0  0  0  0  0  0  0
    7.7953   -2.4537    0.0000 C   0  0  0  0  0  0  0  0  0  0  0  0
    3.4030   -0.9296    0.0000 C   0  0  0  0  0  0  0  0  0  0  0  0
    8.6671   -0.9571    0.0000 C   0  0  0  0  0  0  0  0  0  0  0  0
    3.4030    2.0704    0.0000 C   0  0  0  0  0  0  0  0  0  0  0  0
    8.6594   -2.9571    0.0000 C   0  0  0  0  0  0  0  0  0  0  0  0
    9.5312   -1.4604    0.0000 C   0  0  0  0  0  0  0  0  0  0  0  0
    9.5273   -2.4604    0.0000 C   0  0  0  0  0  0  0  0  0  0  0  0
    3.4030    3.0704    0.0000 C   0  0  0  0  0  0  0  0  0  0  0  0
    2.5369    3.5704    0.0000 C   0  0  0  0  0  0  0  0  0  0  0  0
    4.2690    3.5704    0.0000 C   0  0  0  0  0  0  0  0  0  0  0  0
    7.4726   -0.6415    0.0000 H   0  0  0  0  0  0  0  0  0  0  0  0
    7.5459   -0.0149    0.0000 H   0  0  0  0  0  0  0  0  0  0  0  0
    7.1441    0.6749    0.0000 H   0  0  0  0  0  0  0  0  0  0  0  0
    4.8796    1.4627    0.0000 H   0  0  0  0  0  0  0  0  0  0  0  0
    4.4810    2.1530    0.0000 H   0  0  0  0  0  0  0  0  0  0  0  0
    2.8660   -1.2396    0.0000 H   0  0  0  0  0  0  0  0  0  0  0  0
    8.6694   -0.3371    0.0000 H   0  0  0  0  0  0  0  0  0  0  0  0
    2.8660    1.7604    0.0000 H   0  0  0  0  0  0  0  0  0  0  0  0
    8.6570   -3.5771    0.0000 H   0  0  0  0  0  0  0  0  0  0  0  0
   10.0693   -1.1525    0.0000 H   0  0  0  0  0  0  0  0  0  0  0  0
    3.7320   -2.7396    0.0000 H   0  0  0  0  0  0  0  0  0  0  0  0
    2.0000    0.2604    0.0000 H   0  0  0  0  0  0  0  0  0  0  0  0
    6.9249   -3.5704    0.0000 H   0  0  0  0  0  0  0  0  0  0  0  0
    2.8469    4.1073    0.0000 H   0  0  0  0  0  0  0  0  0  0  0  0
    2.0000    3.8804    0.0000 H   0  0  0  0  0  0  0  0  0  0  0  0
    2.2269    3.0335    0.0000 H   0  0  0  0  0  0  0  0  0  0  0  0
    4.5790    3.0335    0.0000 H   0  0  0  0  0  0  0  0  0  0  0  0
    4.8059    3.8804    0.0000 H   0  0  0  0  0  0  0  0  0  0  0  0
    3.9590    4.1073    0.0000 H   0  0  0  0  0  0  0  0  0  0  0  0
   10.9295   -2.6558    0.0000 H   0  0  0  0  0  0  0  0  0  0  0  0
  1  8  1  0  0  0  0
  1 11  1  0  0  0  0
  2 10  2  0  0  0  0
  3 14  1  0  0  0  0
  3 37  1  0  0  0  0
  4 16  1  0  0  0  0
  4 38  1  0  0  0  0
  5 17  1  0  0  0  0
  5 39  1  0  0  0  0
  6 23  1  0  0  0  0
  6 46  1  0  0  0  0
  7  8  1  0  0  0  0
  7 10  1  0  0  0  0
  7 12  1  0  0  0  0
  7 27  1  0  0  0  0
  8 28  1  0  0  0  0
  8 29  1  0  0  0  0
  9 10  1  0  0  0  0
  9 11  1  0  0  0  0
  9 14  2  0  0  0  0
 11 13  2  0  0  0  0
 12 17  2  0  0  0  0
 12 19  1  0  0  0  0
 13 15  1  0  0  0  0
 13 16  1  0  0  0  0
 14 18  1  0  0  0  0
 15 20  1  0  0  0  0
 15 30  1  0  0  0  0
 15 31  1  0  0  0  0
 16 18  2  0  0  0  0
 17 21  1  0  0  0  0
 18 32  1  0  0  0  0
 19 22  2  0  0  0  0
 19 33  1  0  0  0  0
 20 24  2  0  0  0  0
 20 34  1  0  0  0  0
 21 23  2  0  0  0  0
 21 35  1  0  0  0  0
 22 23  1  0  0  0  0
 22 36  1  0  0  0  0
 24 25  1  0  0  0  0
 24 26  1  0  0  0  0
 25 40  1  0  0  0  0
 25 41  1  0  0  0  0
 25 42  1  0  0  0  0
 26 43  1  0  0  0  0
 26 44  1  0  0  0  0
 26 45  1  0  0  0  0
M  END
> <PUBCHEM_COMPOUND_CID>
119269

> <PUBCHEM_COMPOUND_CANONICALIZED>
1

> <PUBCHEM_CACTVS_COMPLEXITY>
542

> <PUBCHEM_CACTVS_HBOND_ACCEPTOR>
6

> <PUBCHEM_CACTVS_HBOND_DONOR>
4

> <PUBCHEM_CACTVS_ROTATABLE_BOND>
3

> <PUBCHEM_CACTVS_SUBSKEYS>
AAADceB4OAAAAAAAAAAAAAAAAAAAAAAAAAA0YIAAAAAAAACRQAAAGgAACAAADQSgmAIyBoAABgCIAqBSAAACCAAkIAAIiAEGCMgMJzaGNRqCeWCl4BUIuQfK7PzOoAACCAAIAABAAAQQABAAAAAAAAAAAA==

> <PUBCHEM_IUPAC_OPENEYE_NAME>
3-(2,4-dihydroxyphenyl)-5,7-dihydroxy-8-(3-methylbut-2-enyl)chroman-4-one

> <PUBCHEM_IUPAC_CAS_NAME>
3-(2,4-dihydroxyphenyl)-5,7-dihydroxy-8-(3-methylbut-2-enyl)-3,4-dihydro-2H-1-benzopyran-4-one

> <PUBCHEM_IUPAC_NAME>
3-(2,4-dihydroxyphenyl)-5,7-dihydroxy-8-(3-methylbut-2-enyl)-2,3-dihydrochromen-4-one

> <PUBCHEM_IUPAC_SYSTEMATIC_NAME>
3-[2,4-bis(oxidanyl)phenyl]-8-(3-methylbut-2-enyl)-5,7-bis(oxidanyl)-2,3-dihydrochromen-4-one

> <PUBCHEM_IUPAC_TRADITIONAL_NAME>
3-(2,4-dihydroxyphenyl)-5,7-dihydroxy-8-(3-methylbut-2-enyl)chroman-4-one

> <PUBCHEM_IUPAC_INCHI>
InChI=1S/C20H20O6/c1-10(2)3-5-13-16(23)8-17(24)18-19(25)14(9-26-20(13)18)12-6-4-11(21)7-15(12)22/h3-4,6-8,14,21-24H,5,9H2,1-2H3

> <PUBCHEM_IUPAC_INCHIKEY>
MERHMOCEIBOOMA-UHFFFAOYSA-N

> <PUBCHEM_XLOGP3_AA>
4.1

> <PUBCHEM_EXACT_MASS>
356.125988

> <PUBCHEM_MOLECULAR_FORMULA>
C20H20O6

> <PUBCHEM_MOLECULAR_WEIGHT>
356.3692

> <PUBCHEM_OPENEYE_CAN_SMILES>
CC(=CCC1=C(C=C(C2=C1OCC(C2=O)C3=C(C=C(C=C3)O)O)O)O)C

> <PUBCHEM_OPENEYE_ISO_SMILES>
CC(=CCC1=C(C=C(C2=C1OCC(C2=O)C3=C(C=C(C=C3)O)O)O)O)C

> <PUBCHEM_CACTVS_TPSA>
107

> <PUBCHEM_MONOISOTOPIC_WEIGHT>
356.125988

> <PUBCHEM_TOTAL_CHARGE>
0

> <PUBCHEM_HEAVY_ATOM_COUNT>
26

> <PUBCHEM_ATOM_DEF_STEREO_COUNT>
0

> <PUBCHEM_ATOM_UDEF_STEREO_COUNT>
1

> <PUBCHEM_BOND_DEF_STEREO_COUNT>
0

> <PUBCHEM_BOND_UDEF_STEREO_COUNT>
0

> <PUBCHEM_ISOTOPIC_ATOM_COUNT>
0

> <PUBCHEM_COMPONENT_COUNT>
1

> <PUBCHEM_CACTVS_TAUTO_COUNT>
249

> <PUBCHEM_COORDINATE_TYPE>
1
5
255

> <PUBCHEM_BONDANNOTATIONS>
11  13  8
12  17  8
12  19  8
13  16  8
14  18  8
16  18  8
17  21  8
19  22  8
21  23  8
22  23  8
7  12  3
9  11  8
9  14  8

$$$$

