126969
  -OEChem-07051212562D

 58 60  0     0  0  0  0  0  0999 V2000
    9.3900   -2.1080    0.0000 O   0  0  0  0  0  0  0  0  0  0  0  0
    7.6300    0.9266    0.0000 O   0  0  0  0  0  0  0  0  0  0  0  0
    5.8980   -2.0734    0.0000 O   0  0  0  0  0  0  0  0  0  0  0  0
    6.5820    1.8060    0.0000 O   0  0  0  0  0  0  0  0  0  0  0  0
    3.9284   -0.4207    0.0000 O   0  0  0  0  0  0  0  0  0  0  0  0
    3.3268    2.9908    0.0000 O   0  0  0  0  0  0  0  0  0  0  0  0
    8.4960   -3.5734    0.0000 O   0  0  0  0  0  0  0  0  0  0  0  0
    2.3008    0.1717    0.0000 O   0  0  0  0  0  0  0  0  0  0  0  0
   10.2961   -1.5942    0.0000 C   0  0  0  0  0  0  0  0  0  0  0  0
    8.4960   -1.5734    0.0000 C   0  0  0  0  0  0  0  0  0  0  0  0
    8.4960   -0.5734    0.0000 C   0  0  0  0  0  0  0  0  0  0  0  0
    6.7640   -0.5734    0.0000 C   0  0  0  0  0  0  0  0  0  0  0  0
    5.8980   -0.0734    0.0000 C   0  0  0  0  0  0  0  0  0  0  0  0
    7.6300   -0.0734    0.0000 C   0  0  0  0  0  0  0  0  0  0  0  0
    7.6300   -2.0734    0.0000 C   0  0  0  0  0  0  0  0  0  0  0  0
   10.2961   -0.5526    0.0000 C   0  0  0  0  0  0  0  0  0  0  0  0
    6.7640   -1.5734    0.0000 C   0  0  0  0  0  0  0  0  0  0  0  0
    9.3900   -0.0387    0.0000 C   0  0  0  0  0  0  0  0  0  0  0  0
    5.2552    0.6927    0.0000 C   0  0  0  0  0  0  0  0  0  0  0  0
   11.2961   -1.5981    0.0000 C   0  0  0  0  0  0  0  0  0  0  0  0
   10.7927   -2.4622    0.0000 C   0  0  0  0  0  0  0  0  0  0  0  0
    5.5972    1.6323    0.0000 C   0  0  0  0  0  0  0  0  0  0  0  0
    4.2704    0.5190    0.0000 C   0  0  0  0  0  0  0  0  0  0  0  0
    4.9544    2.3984    0.0000 C   0  0  0  0  0  0  0  0  0  0  0  0
    7.6300   -3.0734    0.0000 C   0  0  0  0  0  0  0  0  0  0  0  0
    3.6276    1.2850    0.0000 C   0  0  0  0  0  0  0  0  0  0  0  0
    3.9696    2.2247    0.0000 C   0  0  0  0  0  0  0  0  0  0  0  0
    5.2964    3.3381    0.0000 C   0  0  0  0  0  0  0  0  0  0  0  0
    6.7640   -3.5734    0.0000 C   0  0  0  0  0  0  0  0  0  0  0  0
    2.6428    1.1114    0.0000 C   0  0  0  0  0  0  0  0  0  0  0  0
    2.0000    1.8774    0.0000 C   0  0  0  0  0  0  0  0  0  0  0  0
    6.9240    2.7457    0.0000 C   0  0  0  0  0  0  0  0  0  0  0  0
    5.3040   -0.2512    0.0000 H   0  0  0  0  0  0  0  0  0  0  0  0
    6.2965    0.4016    0.0000 H   0  0  0  0  0  0  0  0  0  0  0  0
   10.8318   -0.2405    0.0000 H   0  0  0  0  0  0  0  0  0  0  0  0
    9.3828    0.5812    0.0000 H   0  0  0  0  0  0  0  0  0  0  0  0
   10.2546   -2.7701    0.0000 H   0  0  0  0  0  0  0  0  0  0  0  0
   11.1006   -3.0003    0.0000 H   0  0  0  0  0  0  0  0  0  0  0  0
   11.3308   -2.1542    0.0000 H   0  0  0  0  0  0  0  0  0  0  0  0
   11.2937   -2.2181    0.0000 H   0  0  0  0  0  0  0  0  0  0  0  0
   11.9161   -1.6004    0.0000 H   0  0  0  0  0  0  0  0  0  0  0  0
   11.2984   -0.9781    0.0000 H   0  0  0  0  0  0  0  0  0  0  0  0
    8.1670    1.2366    0.0000 H   0  0  0  0  0  0  0  0  0  0  0  0
    5.8980   -2.6934    0.0000 H   0  0  0  0  0  0  0  0  0  0  0  0
    5.8790    3.1260    0.0000 H   0  0  0  0  0  0  0  0  0  0  0  0
    5.5085    3.9207    0.0000 H   0  0  0  0  0  0  0  0  0  0  0  0
    4.7138    3.5501    0.0000 H   0  0  0  0  0  0  0  0  0  0  0  0
    6.4540   -3.0365    0.0000 H   0  0  0  0  0  0  0  0  0  0  0  0
    6.2271   -3.8834    0.0000 H   0  0  0  0  0  0  0  0  0  0  0  0
    7.0740   -4.1103    0.0000 H   0  0  0  0  0  0  0  0  0  0  0  0
    4.3269   -0.8956    0.0000 H   0  0  0  0  0  0  0  0  0  0  0  0
    3.5389    3.5734    0.0000 H   0  0  0  0  0  0  0  0  0  0  0  0
    2.4750    2.2760    0.0000 H   0  0  0  0  0  0  0  0  0  0  0  0
    1.6015    2.3524    0.0000 H   0  0  0  0  0  0  0  0  0  0  0  0
    1.5250    1.4789    0.0000 H   0  0  0  0  0  0  0  0  0  0  0  0
    7.5066    2.5336    0.0000 H   0  0  0  0  0  0  0  0  0  0  0  0
    7.1361    3.3283    0.0000 H   0  0  0  0  0  0  0  0  0  0  0  0
    6.3414    2.9577    0.0000 H   0  0  0  0  0  0  0  0  0  0  0  0
  1  9  1  0  0  0  0
  1 10  1  0  0  0  0
  2 14  1  0  0  0  0
  2 43  1  0  0  0  0
  3 17  1  0  0  0  0
  3 44  1  0  0  0  0
  4 22  1  0  0  0  0
  4 32  1  0  0  0  0
  5 23  1  0  0  0  0
  5 51  1  0  0  0  0
  6 27  1  0  0  0  0
  6 52  1  0  0  0  0
  7 25  2  0  0  0  0
  8 30  2  0  0  0  0
  9 16  1  0  0  0  0
  9 20  1  0  0  0  0
  9 21  1  0  0  0  0
 10 11  1  0  0  0  0
 10 15  2  0  0  0  0
 11 14  2  0  0  0  0
 11 18  1  0  0  0  0
 12 13  1  0  0  0  0
 12 14  1  0  0  0  0
 12 17  2  0  0  0  0
 13 19  1  0  0  0  0
 13 33  1  0  0  0  0
 13 34  1  0  0  0  0
 15 17  1  0  0  0  0
 15 25  1  0  0  0  0
 16 18  2  0  0  0  0
 16 35  1  0  0  0  0
 18 36  1  0  0  0  0
 19 22  2  0  0  0  0
 19 23  1  0  0  0  0
 20 40  1  0  0  0  0
 20 41  1  0  0  0  0
 20 42  1  0  0  0  0
 21 37  1  0  0  0  0
 21 38  1  0  0  0  0
 21 39  1  0  0  0  0
 22 24  1  0  0  0  0
 23 26  2  0  0  0  0
 24 27  2  0  0  0  0
 24 28  1  0  0  0  0
 25 29  1  0  0  0  0
 26 27  1  0  0  0  0
 26 30  1  0  0  0  0
 28 45  1  0  0  0  0
 28 46  1  0  0  0  0
 28 47  1  0  0  0  0
 29 48  1  0  0  0  0
 29 49  1  0  0  0  0
 29 50  1  0  0  0  0
 30 31  1  0  0  0  0
 31 53  1  0  0  0  0
 31 54  1  0  0  0  0
 31 55  1  0  0  0  0
 32 56  1  0  0  0  0
 32 57  1  0  0  0  0
 32 58  1  0  0  0  0
M  END
> <PUBCHEM_COMPOUND_CID>
126969

> <PUBCHEM_COMPOUND_CANONICALIZED>
1

> <PUBCHEM_CACTVS_COMPLEXITY>
748

> <PUBCHEM_CACTVS_HBOND_ACCEPTOR>
8

> <PUBCHEM_CACTVS_HBOND_DONOR>
4

> <PUBCHEM_CACTVS_ROTATABLE_BOND>
5

> <PUBCHEM_CACTVS_SUBSKEYS>
AAADceB4PAAAAAAAAAAAAAAAAAAAAAAAAAAwYIAAAAAAAACBQAAAGgAACAAADESAmAICBoAABgCIAqBSAAACCAAkIAAIiAEECMgMJzaGNBqCeWCl4BUIuQeI7OzOIAACCAAIAABAAAQQABAAAAAAAAAAAA==

> <PUBCHEM_IUPAC_OPENEYE_NAME>
1-[3-[(8-acetyl-5,7-dihydroxy-2,2-dimethyl-chromen-6-yl)methyl]-2,6-dihydroxy-4-methoxy-5-methyl-phenyl]ethanone

> <PUBCHEM_IUPAC_CAS_NAME>
1-[3-[(8-acetyl-5,7-dihydroxy-2,2-dimethyl-1-benzopyran-6-yl)methyl]-2,6-dihydroxy-4-methoxy-5-methylphenyl]ethanone

> <PUBCHEM_IUPAC_NAME>
1-[3-[(8-acetyl-5,7-dihydroxy-2,2-dimethylchromen-6-yl)methyl]-2,6-dihydroxy-4-methoxy-5-methylphenyl]ethanone

> <PUBCHEM_IUPAC_SYSTEMATIC_NAME>
1-[3-[[8-ethanoyl-2,2-dimethyl-5,7-bis(oxidanyl)chromen-6-yl]methyl]-4-methoxy-5-methyl-2,6-bis(oxidanyl)phenyl]ethanone

> <PUBCHEM_IUPAC_TRADITIONAL_NAME>
1-[3-[(8-acetyl-5,7-dihydroxy-2,2-dimethyl-chromen-6-yl)methyl]-2,6-dihydroxy-4-methoxy-5-methyl-phenyl]ethanone

> <PUBCHEM_IUPAC_INCHI>
InChI=1S/C24H26O8/c1-10-18(27)16(11(2)25)21(30)15(22(10)31-6)9-14-19(28)13-7-8-24(4,5)32-23(13)17(12(3)26)20(14)29/h7-8,27-30H,9H2,1-6H3

> <PUBCHEM_IUPAC_INCHIKEY>
DIXWVWLWNGDQEC-UHFFFAOYSA-N

> <PUBCHEM_XLOGP3_AA>
4.2

> <PUBCHEM_EXACT_MASS>
442.162768

> <PUBCHEM_MOLECULAR_FORMULA>
C24H26O8

> <PUBCHEM_MOLECULAR_WEIGHT>
442.45844

> <PUBCHEM_OPENEYE_CAN_SMILES>
CC1=C(C(=C(C(=C1O)C(=O)C)O)CC2=C(C3=C(C(=C2O)C(=O)C)OC(C=C3)(C)C)O)OC

> <PUBCHEM_OPENEYE_ISO_SMILES>
CC1=C(C(=C(C(=C1O)C(=O)C)O)CC2=C(C3=C(C(=C2O)C(=O)C)OC(C=C3)(C)C)O)OC

> <PUBCHEM_CACTVS_TPSA>
134

> <PUBCHEM_MONOISOTOPIC_WEIGHT>
442.162768

> <PUBCHEM_TOTAL_CHARGE>
0

> <PUBCHEM_HEAVY_ATOM_COUNT>
32

> <PUBCHEM_ATOM_DEF_STEREO_COUNT>
0

> <PUBCHEM_ATOM_UDEF_STEREO_COUNT>
0

> <PUBCHEM_BOND_DEF_STEREO_COUNT>
0

> <PUBCHEM_BOND_UDEF_STEREO_COUNT>
0

> <PUBCHEM_ISOTOPIC_ATOM_COUNT>
0

> <PUBCHEM_COMPONENT_COUNT>
1

> <PUBCHEM_CACTVS_TAUTO_COUNT>
594

> <PUBCHEM_COORDINATE_TYPE>
1
5
255

> <PUBCHEM_BONDANNOTATIONS>
10  11  8
10  15  8
11  14  8
12  14  8
12  17  8
15  17  8
19  22  8
19  23  8
22  24  8
23  26  8
24  27  8
26  27  8

$$$$

