223250
  -OEChem-07051213072D

 64 67  0     1  0  0  0  0  0999 V2000
    8.0319    1.8625    0.0000 O   0  0  0  0  0  0  0  0  0  0  0  0
    4.7950    1.1062    0.0000 O   0  0  0  0  0  0  0  0  0  0  0  0
    9.0465    2.4920    0.0000 O   0  0  0  0  0  0  0  0  0  0  0  0
    2.0000   -2.4462    0.0000 O   0  0  0  0  0  0  0  0  0  0  0  0
   10.8722    1.6754    0.0000 O   0  0  0  0  0  0  0  0  0  0  0  0
   11.8879    0.2723    0.0000 O   0  0  0  0  0  0  0  0  0  0  0  0
    7.3931    0.6062    0.0000 C   0  0  1  0  0  0  0  0  0  0  0  0
    7.3931   -0.3938    0.0000 C   0  0  2  0  0  0  0  0  0  0  0  0
    6.5271   -0.8938    0.0000 C   0  0  1  0  0  0  0  0  0  0  0  0
    5.6610   -0.3938    0.0000 C   0  0  1  0  0  0  0  0  0  0  0  0
    4.7510   -0.9007    0.0000 C   0  0  2  0  0  0  0  0  0  0  0  0
    8.3393    0.9109    0.0000 C   0  0  1  0  0  0  0  0  0  0  0  0
    6.5271    1.1062    0.0000 C   0  0  0  0  0  0  0  0  0  0  0  0
    5.6610    0.6062    0.0000 C   0  0  2  0  0  0  0  0  0  0  0  0
    8.3393   -0.6986    0.0000 C   0  0  0  0  0  0  0  0  0  0  0  0
    8.9229    0.1062    0.0000 C   0  0  0  0  0  0  0  0  0  0  0  0
    6.5431   -1.9353    0.0000 C   0  0  0  0  0  0  0  0  0  0  0  0
    4.7430   -1.9423    0.0000 C   0  0  0  0  0  0  0  0  0  0  0  0
    7.3931    1.6062    0.0000 C   0  0  0  0  0  0  0  0  0  0  0  0
    5.6451   -2.4631    0.0000 C   0  0  0  0  0  0  0  0  0  0  0  0
    3.8242   -0.3366    0.0000 C   0  0  0  0  0  0  0  0  0  0  0  0
    4.7587    0.0993    0.0000 C   0  0  0  0  0  0  0  0  0  0  0  0
    9.1493    1.4973    0.0000 C   0  0  0  0  0  0  0  0  0  0  0  0
    2.8763   -0.8645    0.0000 C   0  0  2  0  0  0  0  0  0  0  0  0
    3.8076   -2.4920    0.0000 C   0  0  0  0  0  0  0  0  0  0  0  0
    2.8680   -1.9495    0.0000 C   0  0  0  0  0  0  0  0  0  0  0  0
   10.0622    1.0890    0.0000 C   0  0  0  0  0  0  0  0  0  0  0  0
    2.0161   -0.3546    0.0000 C   0  0  0  0  0  0  0  0  0  0  0  0
   11.7851    1.2670    0.0000 C   0  0  0  0  0  0  0  0  0  0  0  0
   12.5951    1.8534    0.0000 C   0  0  0  0  0  0  0  0  0  0  0  0
    7.4830   -1.2390    0.0000 H   0  0  0  0  0  0  0  0  0  0  0  0
    7.2664   -1.3131    0.0000 H   0  0  0  0  0  0  0  0  0  0  0  0
    6.3972    0.0312    0.0000 H   0  0  0  0  0  0  0  0  0  0  0  0
    6.9256    1.5811    0.0000 H   0  0  0  0  0  0  0  0  0  0  0  0
    6.1285    1.5811    0.0000 H   0  0  0  0  0  0  0  0  0  0  0  0
    5.6610    1.2262    0.0000 H   0  0  0  0  0  0  0  0  0  0  0  0
    8.0883   -1.2655    0.0000 H   0  0  0  0  0  0  0  0  0  0  0  0
    8.8767   -1.0078    0.0000 H   0  0  0  0  0  0  0  0  0  0  0  0
    9.3838   -0.3086    0.0000 H   0  0  0  0  0  0  0  0  0  0  0  0
    9.3838    0.5209    0.0000 H   0  0  0  0  0  0  0  0  0  0  0  0
    6.7612   -2.5157    0.0000 H   0  0  0  0  0  0  0  0  0  0  0  0
    7.1523   -1.8198    0.0000 H   0  0  0  0  0  0  0  0  0  0  0  0
    8.0131    1.6062    0.0000 H   0  0  0  0  0  0  0  0  0  0  0  0
    7.3931    2.2262    0.0000 H   0  0  0  0  0  0  0  0  0  0  0  0
    6.7731    1.6062    0.0000 H   0  0  0  0  0  0  0  0  0  0  0  0
    5.2478   -2.9390    0.0000 H   0  0  0  0  0  0  0  0  0  0  0  0
    6.0460   -2.9360    0.0000 H   0  0  0  0  0  0  0  0  0  0  0  0
    4.2324    0.1301    0.0000 H   0  0  0  0  0  0  0  0  0  0  0  0
    3.4343    0.1455    0.0000 H   0  0  0  0  0  0  0  0  0  0  0  0
    5.3787    0.0945    0.0000 H   0  0  0  0  0  0  0  0  0  0  0  0
    4.7635    0.7193    0.0000 H   0  0  0  0  0  0  0  0  0  0  0  0
    4.1388    0.1041    0.0000 H   0  0  0  0  0  0  0  0  0  0  0  0
    2.8847   -0.2446    0.0000 H   0  0  0  0  0  0  0  0  0  0  0  0
    8.4476    2.3225    0.0000 H   0  0  0  0  0  0  0  0  0  0  0  0
    3.8100   -3.1120    0.0000 H   0  0  0  0  0  0  0  0  0  0  0  0
    4.7950    1.7262    0.0000 H   0  0  0  0  0  0  0  0  0  0  0  0
    9.7146    0.5756    0.0000 H   0  0  0  0  0  0  0  0  0  0  0  0
   10.5074    0.6575    0.0000 H   0  0  0  0  0  0  0  0  0  0  0  0
    2.3323    0.1788    0.0000 H   0  0  0  0  0  0  0  0  0  0  0  0
    1.4828   -0.0384    0.0000 H   0  0  0  0  0  0  0  0  0  0  0  0
    1.6999   -0.8879    0.0000 H   0  0  0  0  0  0  0  0  0  0  0  0
   12.9586    1.3512    0.0000 H   0  0  0  0  0  0  0  0  0  0  0  0
   13.0973    2.2170    0.0000 H   0  0  0  0  0  0  0  0  0  0  0  0
   12.2315    2.3556    0.0000 H   0  0  0  0  0  0  0  0  0  0  0  0
 12  1  1  6  0  0  0
  1 54  1  0  0  0  0
 14  2  1  1  0  0  0
  2 56  1  0  0  0  0
  3 23  2  0  0  0  0
  4 26  2  0  0  0  0
  5 27  1  0  0  0  0
  5 29  1  0  0  0  0
  6 29  2  0  0  0  0
  7  8  1  0  0  0  0
  7 12  1  0  0  0  0
  7 13  1  0  0  0  0
  7 19  1  1  0  0  0
  8  9  1  0  0  0  0
  8 15  1  0  0  0  0
  8 31  1  6  0  0  0
  9 10  1  0  0  0  0
  9 17  1  0  0  0  0
  9 32  1  1  0  0  0
 10 11  1  0  0  0  0
 10 14  1  0  0  0  0
 10 33  1  6  0  0  0
 11 18  1  0  0  0  0
 11 21  1  0  0  0  0
 11 22  1  1  0  0  0
 12 16  1  0  0  0  0
 12 23  1  0  0  0  0
 13 14  1  0  0  0  0
 13 34  1  0  0  0  0
 13 35  1  0  0  0  0
 14 36  1  0  0  0  0
 15 16  1  0  0  0  0
 15 37  1  0  0  0  0
 15 38  1  0  0  0  0
 16 39  1  0  0  0  0
 16 40  1  0  0  0  0
 17 20  1  0  0  0  0
 17 41  1  0  0  0  0
 17 42  1  0  0  0  0
 18 20  1  0  0  0  0
 18 25  2  0  0  0  0
 19 43  1  0  0  0  0
 19 44  1  0  0  0  0
 19 45  1  0  0  0  0
 20 46  1  0  0  0  0
 20 47  1  0  0  0  0
 21 24  1  0  0  0  0
 21 48  1  0  0  0  0
 21 49  1  0  0  0  0
 22 50  1  0  0  0  0
 22 51  1  0  0  0  0
 22 52  1  0  0  0  0
 23 27  1  0  0  0  0
 24 26  1  0  0  0  0
 24 28  1  6  0  0  0
 24 53  1  0  0  0  0
 25 26  1  0  0  0  0
 25 55  1  0  0  0  0
 27 57  1  0  0  0  0
 27 58  1  0  0  0  0
 28 59  1  0  0  0  0
 28 60  1  0  0  0  0
 28 61  1  0  0  0  0
 29 30  1  0  0  0  0
 30 62  1  0  0  0  0
 30 63  1  0  0  0  0
 30 64  1  0  0  0  0
M  END
> <PUBCHEM_COMPOUND_CID>
223250

> <PUBCHEM_COMPOUND_CANONICALIZED>
1

> <PUBCHEM_CACTVS_COMPLEXITY>
817

> <PUBCHEM_CACTVS_HBOND_ACCEPTOR>
6

> <PUBCHEM_CACTVS_HBOND_DONOR>
2

> <PUBCHEM_CACTVS_ROTATABLE_BOND>
4

> <PUBCHEM_CACTVS_SUBSKEYS>
AAADcfB4OAAAAAAAAAAAAAAAAAAAAYAAAAAwYIAAAAAAAGDAAAAAGgAACAAAD1SggAICCAAABgCIAqDSCAIAAAAgAAAACAFAAEgAEBIAAQQCQAAFgAAIAQPIzPDPgAAAAAAAAADAAAYAADAAAYAADAAAAA==

> <PUBCHEM_IUPAC_OPENEYE_NAME>
[2-[(2R,8S,9S,10R,11S,13S,14S,17R)-11,17-dihydroxy-2,10,13-trimethyl-3-oxo-2,6,7,8,9,11,12,14,15,16-decahydro-1H-cyclopenta[a]phenanthren-17-yl]-2-oxo-ethyl] acetate

> <PUBCHEM_IUPAC_CAS_NAME>
acetic acid [2-[(2R,8S,9S,10R,11S,13S,14S,17R)-11,17-dihydroxy-2,10,13-trimethyl-3-oxo-2,6,7,8,9,11,12,14,15,16-decahydro-1H-cyclopenta[a]phenanthren-17-yl]-2-oxoethyl] ester

> <PUBCHEM_IUPAC_NAME>
[2-[(2R,8S,9S,10R,11S,13S,14S,17R)-11,17-dihydroxy-2,10,13-trimethyl-3-oxo-2,6,7,8,9,11,12,14,15,16-decahydro-1H-cyclopenta[a]phenanthren-17-yl]-2-oxoethyl] acetate

> <PUBCHEM_IUPAC_SYSTEMATIC_NAME>
[2-oxidanylidene-2-[(2R,8S,9S,10R,11S,13S,14S,17R)-2,10,13-trimethyl-11,17-bis(oxidanyl)-3-oxidanylidene-2,6,7,8,9,11,12,14,15,16-decahydro-1H-cyclopenta[a]phenanthren-17-yl]ethyl] ethanoate

> <PUBCHEM_IUPAC_TRADITIONAL_NAME>
acetic acid [2-[(2R,8S,9S,10R,11S,13S,14S,17R)-11,17-dihydroxy-3-keto-2,10,13-trimethyl-2,6,7,8,9,11,12,14,15,16-decahydro-1H-cyclopenta[a]phenanthren-17-yl]-2-keto-ethyl] ester

> <PUBCHEM_IUPAC_INCHI>
InChI=1S/C24H34O6/c1-13-10-22(3)15(9-18(13)26)5-6-16-17-7-8-24(29,20(28)12-30-14(2)25)23(17,4)11-19(27)21(16)22/h9,13,16-17,19,21,27,29H,5-8,10-12H2,1-4H3/t13-,16+,17+,19+,21-,22+,23+,24+/m1/s1

> <PUBCHEM_IUPAC_INCHIKEY>
IKJVLEFNIBROAJ-GUTMJZMYSA-N

> <PUBCHEM_XLOGP3>
2.8

> <PUBCHEM_EXACT_MASS>
418.235539

> <PUBCHEM_MOLECULAR_FORMULA>
C24H34O6

> <PUBCHEM_MOLECULAR_WEIGHT>
418.52316

> <PUBCHEM_OPENEYE_CAN_SMILES>
CC1CC2(C3C(CCC2=CC1=O)C4CCC(C4(CC3O)C)(C(=O)COC(=O)C)O)C

> <PUBCHEM_OPENEYE_ISO_SMILES>
C[C@@H]1C[C@@]2([C@@H]3[C@@H](CCC2=CC1=O)[C@@H]4CC[C@@]([C@]4(C[C@@H]3O)C)(C(=O)COC(=O)C)O)C

> <PUBCHEM_CACTVS_TPSA>
101

> <PUBCHEM_MONOISOTOPIC_WEIGHT>
418.235539

> <PUBCHEM_TOTAL_CHARGE>
0

> <PUBCHEM_HEAVY_ATOM_COUNT>
30

> <PUBCHEM_ATOM_DEF_STEREO_COUNT>
8

> <PUBCHEM_ATOM_UDEF_STEREO_COUNT>
0

> <PUBCHEM_BOND_DEF_STEREO_COUNT>
0

> <PUBCHEM_BOND_UDEF_STEREO_COUNT>
0

> <PUBCHEM_ISOTOPIC_ATOM_COUNT>
0

> <PUBCHEM_COMPONENT_COUNT>
1

> <PUBCHEM_CACTVS_TAUTO_COUNT>
10

> <PUBCHEM_COORDINATE_TYPE>
1
5
255

> <PUBCHEM_BONDANNOTATIONS>
12  1  6
10  33  6
11  22  5
14  2  5
24  28  6
7  19  5
8  31  6
9  32  5

$$$$

