38439
  -OEChem-07051213112D

 22 24  0     0  0  0  0  0  0999 V2000
    7.2785    1.5346    0.0000 Cl  0  0  0  0  0  0  0  0  0  0  0  0
    9.0602    0.5242    0.0000 Cl  0  0  0  0  0  0  0  0  0  0  0  0
    9.0602   -1.5241    0.0000 Cl  0  0  0  0  0  0  0  0  0  0  0  0
    2.0000    0.5242    0.0000 Cl  0  0  0  0  0  0  0  0  0  0  0  0
    2.0000   -1.5241    0.0000 Cl  0  0  0  0  0  0  0  0  0  0  0  0
    5.5301    0.5000    0.0000 O   0  0  0  0  0  0  0  0  0  0  0  0
    5.5301   -1.5000    0.0000 O   0  0  0  0  0  0  0  0  0  0  0  0
    6.3961    0.0000    0.0000 C   0  0  0  0  0  0  0  0  0  0  0  0
    6.3961   -1.0000    0.0000 C   0  0  0  0  0  0  0  0  0  0  0  0
    4.6641    0.0000    0.0000 C   0  0  0  0  0  0  0  0  0  0  0  0
    4.6641   -1.0000    0.0000 C   0  0  0  0  0  0  0  0  0  0  0  0
    7.2901    0.5347    0.0000 C   0  0  0  0  0  0  0  0  0  0  0  0
    7.2901   -1.5346    0.0000 C   0  0  0  0  0  0  0  0  0  0  0  0
    3.7702    0.5347    0.0000 C   0  0  0  0  0  0  0  0  0  0  0  0
    3.7702   -1.5346    0.0000 C   0  0  0  0  0  0  0  0  0  0  0  0
    8.1962    0.0208    0.0000 C   0  0  0  0  0  0  0  0  0  0  0  0
    8.1962   -1.0208    0.0000 C   0  0  0  0  0  0  0  0  0  0  0  0
    2.8641    0.0208    0.0000 C   0  0  0  0  0  0  0  0  0  0  0  0
    2.8641   -1.0208    0.0000 C   0  0  0  0  0  0  0  0  0  0  0  0
    7.2829   -2.1546    0.0000 H   0  0  0  0  0  0  0  0  0  0  0  0
    3.7773    1.1546    0.0000 H   0  0  0  0  0  0  0  0  0  0  0  0
    3.7773   -2.1546    0.0000 H   0  0  0  0  0  0  0  0  0  0  0  0
  1 12  1  0  0  0  0
  2 16  1  0  0  0  0
  3 17  1  0  0  0  0
  4 18  1  0  0  0  0
  5 19  1  0  0  0  0
  6  8  1  0  0  0  0
  6 10  1  0  0  0  0
  7  9  1  0  0  0  0
  7 11  1  0  0  0  0
  8  9  1  0  0  0  0
  8 12  2  0  0  0  0
  9 13  2  0  0  0  0
 10 11  1  0  0  0  0
 10 14  2  0  0  0  0
 11 15  2  0  0  0  0
 12 16  1  0  0  0  0
 13 17  1  0  0  0  0
 13 20  1  0  0  0  0
 14 18  1  0  0  0  0
 14 21  1  0  0  0  0
 15 19  1  0  0  0  0
 15 22  1  0  0  0  0
 16 17  2  0  0  0  0
 18 19  2  0  0  0  0
M  END
> <PUBCHEM_COMPOUND_CID>
38439

> <PUBCHEM_COMPOUND_CANONICALIZED>
1

> <PUBCHEM_CACTVS_COMPLEXITY>
344

> <PUBCHEM_CACTVS_HBOND_ACCEPTOR>
2

> <PUBCHEM_CACTVS_HBOND_DONOR>
0

> <PUBCHEM_CACTVS_ROTATABLE_BOND>
0

> <PUBCHEM_CACTVS_SUBSKEYS>
AAADcQBwMAAHAAAAAAAAAAAAAAAAAAAAAAA0YIAAAAAAAACRQAAAGgIAAAAACAaAkCAwBoAABACAACBCAAACCAAgJUAAikAGi4gNJiOFMhqCOCKkwBEKqAeAQAAAACAAAQCASAQAQAACAQCQCAAAAAAAAA==

> <PUBCHEM_IUPAC_OPENEYE_NAME>
1,2,3,7,8-pentachlorodibenzo-p-dioxin

> <PUBCHEM_IUPAC_CAS_NAME>
1,2,3,7,8-pentachlorodibenzo-p-dioxin

> <PUBCHEM_IUPAC_NAME>
1,2,3,7,8-pentachlorodibenzo-p-dioxin

> <PUBCHEM_IUPAC_SYSTEMATIC_NAME>
1,2,3,7,8-pentakis(chloranyl)dibenzo-p-dioxin

> <PUBCHEM_IUPAC_TRADITIONAL_NAME>
1,2,3,7,8-pentachlorodibenzo-p-dioxin

> <PUBCHEM_IUPAC_INCHI>
InChI=1S/C12H3Cl5O2/c13-4-1-7-8(2-5(4)14)19-12-9(18-7)3-6(15)10(16)11(12)17/h1-3H

> <PUBCHEM_IUPAC_INCHIKEY>
FSPZPQQWDODWAU-UHFFFAOYSA-N

> <PUBCHEM_XLOGP3>
6.6

> <PUBCHEM_EXACT_MASS>
355.854618

> <PUBCHEM_MOLECULAR_FORMULA>
C12H3Cl5O2

> <PUBCHEM_MOLECULAR_WEIGHT>
356.41602

> <PUBCHEM_OPENEYE_CAN_SMILES>
C1=C2C(=CC(=C1Cl)Cl)OC3=C(C(=C(C=C3O2)Cl)Cl)Cl

> <PUBCHEM_OPENEYE_ISO_SMILES>
C1=C2C(=CC(=C1Cl)Cl)OC3=C(C(=C(C=C3O2)Cl)Cl)Cl

> <PUBCHEM_CACTVS_TPSA>
18.5

> <PUBCHEM_MONOISOTOPIC_WEIGHT>
353.857568

> <PUBCHEM_TOTAL_CHARGE>
0

> <PUBCHEM_HEAVY_ATOM_COUNT>
19

> <PUBCHEM_ATOM_DEF_STEREO_COUNT>
0

> <PUBCHEM_ATOM_UDEF_STEREO_COUNT>
0

> <PUBCHEM_BOND_DEF_STEREO_COUNT>
0

> <PUBCHEM_BOND_UDEF_STEREO_COUNT>
0

> <PUBCHEM_ISOTOPIC_ATOM_COUNT>
0

> <PUBCHEM_COMPONENT_COUNT>
1

> <PUBCHEM_CACTVS_TAUTO_COUNT>
1

> <PUBCHEM_COORDINATE_TYPE>
1
5
255

> <PUBCHEM_BONDANNOTATIONS>
10  11  8
10  14  8
11  15  8
12  16  8
13  17  8
14  18  8
15  19  8
16  17  8
18  19  8
8  12  8
8  9  8
9  13  8

$$$$

