854121
  -OEChem-06241222472D

 23 24  0     0  0  0  0  0  0999 V2000
    3.4782   -1.6433    0.0000 S   0  0  0  0  0  0  0  0  0  0  0  0
    7.0468   -0.6488    0.0000 S   0  0  0  0  0  0  0  0  0  0  0  0
    5.3147   -0.6488    0.0000 N   0  0  0  0  0  0  0  0  0  0  0  0
    7.9128    1.8512    0.0000 N   0  0  0  0  0  0  0  0  0  0  0  0
    4.4487   -0.1488    0.0000 C   0  0  0  0  0  0  0  0  0  0  0  0
    3.5827   -0.6488    0.0000 C   0  0  0  0  0  0  0  0  0  0  0  0
    4.4487    0.8512    0.0000 C   0  0  0  0  0  0  0  0  0  0  0  0
    6.1808   -0.1488    0.0000 C   0  0  0  0  0  0  0  0  0  0  0  0
    6.1808    0.8512    0.0000 C   0  0  0  0  0  0  0  0  0  0  0  0
    5.3147    1.3512    0.0000 C   0  0  0  0  0  0  0  0  0  0  0  0
    2.6691   -0.2420    0.0000 C   0  0  0  0  0  0  0  0  0  0  0  0
    2.0000   -0.9852    0.0000 C   0  0  0  0  0  0  0  0  0  0  0  0
    2.5000   -1.8512    0.0000 C   0  0  0  0  0  0  0  0  0  0  0  0
    7.0468   -1.6488    0.0000 C   0  0  0  0  0  0  0  0  0  0  0  0
    7.0468    1.3512    0.0000 C   0  0  0  0  0  0  0  0  0  0  0  0
    3.9118    1.1612    0.0000 H   0  0  0  0  0  0  0  0  0  0  0  0
    5.3147    1.9712    0.0000 H   0  0  0  0  0  0  0  0  0  0  0  0
    2.5402    0.3644    0.0000 H   0  0  0  0  0  0  0  0  0  0  0  0
    1.3834   -0.9204    0.0000 H   0  0  0  0  0  0  0  0  0  0  0  0
    2.2478   -2.4176    0.0000 H   0  0  0  0  0  0  0  0  0  0  0  0
    6.4268   -1.6488    0.0000 H   0  0  0  0  0  0  0  0  0  0  0  0
    7.0468   -2.2688    0.0000 H   0  0  0  0  0  0  0  0  0  0  0  0
    7.6668   -1.6488    0.0000 H   0  0  0  0  0  0  0  0  0  0  0  0
  1  6  1  0  0  0  0
  1 13  1  0  0  0  0
  2  8  1  0  0  0  0
  2 14  1  0  0  0  0
  3  5  2  0  0  0  0
  3  8  1  0  0  0  0
  4 15  3  0  0  0  0
  5  6  1  0  0  0  0
  5  7  1  0  0  0  0
  6 11  2  0  0  0  0
  7 10  2  0  0  0  0
  7 16  1  0  0  0  0
  8  9  2  0  0  0  0
  9 10  1  0  0  0  0
  9 15  1  0  0  0  0
 10 17  1  0  0  0  0
 11 12  1  0  0  0  0
 11 18  1  0  0  0  0
 12 13  2  0  0  0  0
 12 19  1  0  0  0  0
 13 20  1  0  0  0  0
 14 21  1  0  0  0  0
 14 22  1  0  0  0  0
 14 23  1  0  0  0  0
M  END
> <PUBCHEM_COMPOUND_CID>
854121

> <PUBCHEM_COMPOUND_CANONICALIZED>
1

> <PUBCHEM_CACTVS_COMPLEXITY>
261

> <PUBCHEM_CACTVS_HBOND_ACCEPTOR>
4

> <PUBCHEM_CACTVS_HBOND_DONOR>
0

> <PUBCHEM_CACTVS_ROTATABLE_BOND>
2

> <PUBCHEM_CACTVS_SUBSKEYS>
AAADccBzAABgAAAAAAAAAAAAAAAAASAAAAAsAAAAAAAAAAAB4AAAHAQAAAAADAiFXgCygZIIEAi0ByRiRACj0KBhCjBImDgwZJgIoOLgkZGEIAhggADoyA8QgMAMAAAAAAAAAAAAAAAAAAAAAAAAAAAAAA==

> <PUBCHEM_IUPAC_OPENEYE_NAME>
2-methylsulfanyl-6-(2-thienyl)pyridine-3-carbonitrile

> <PUBCHEM_IUPAC_CAS_NAME>
2-(methylthio)-6-thiophen-2-yl-3-pyridinecarbonitrile

> <PUBCHEM_IUPAC_NAME>
2-methylsulfanyl-6-thiophen-2-ylpyridine-3-carbonitrile

> <PUBCHEM_IUPAC_SYSTEMATIC_NAME>
2-methylsulfanyl-6-thiophen-2-yl-pyridine-3-carbonitrile

> <PUBCHEM_IUPAC_TRADITIONAL_NAME>
2-(methylthio)-6-(2-thienyl)nicotinonitrile

> <PUBCHEM_IUPAC_INCHI>
InChI=1S/C11H8N2S2/c1-14-11-8(7-12)4-5-9(13-11)10-3-2-6-15-10/h2-6H,1H3

> <PUBCHEM_IUPAC_INCHIKEY>
OSJMHNRVMZOBLT-UHFFFAOYSA-N

> <PUBCHEM_XLOGP3_AA>
2.8

> <PUBCHEM_EXACT_MASS>
232.01289

> <PUBCHEM_MOLECULAR_FORMULA>
C11H8N2S2

> <PUBCHEM_MOLECULAR_WEIGHT>
232.32462

> <PUBCHEM_OPENEYE_CAN_SMILES>
CSC1=C(C=CC(=N1)C2=CC=CS2)C#N

> <PUBCHEM_OPENEYE_ISO_SMILES>
CSC1=C(C=CC(=N1)C2=CC=CS2)C#N

> <PUBCHEM_CACTVS_TPSA>
90.2

> <PUBCHEM_MONOISOTOPIC_WEIGHT>
232.01289

> <PUBCHEM_TOTAL_CHARGE>
0

> <PUBCHEM_HEAVY_ATOM_COUNT>
15

> <PUBCHEM_ATOM_DEF_STEREO_COUNT>
0

> <PUBCHEM_ATOM_UDEF_STEREO_COUNT>
0

> <PUBCHEM_BOND_DEF_STEREO_COUNT>
0

> <PUBCHEM_BOND_UDEF_STEREO_COUNT>
0

> <PUBCHEM_ISOTOPIC_ATOM_COUNT>
0

> <PUBCHEM_COMPONENT_COUNT>
1

> <PUBCHEM_CACTVS_TAUTO_COUNT>
1

> <PUBCHEM_COORDINATE_TYPE>
1
5
255

> <PUBCHEM_BONDANNOTATIONS>
1  13  8
1  6  8
11  12  8
12  13  8
3  5  8
3  8  8
5  7  8
6  11  8
7  10  8
8  9  8
9  10  8

$$$$

