442343
  -OEChem-07051212573D

 42 42  0     1  0  0  0  0  0999 V2000
    0.5299   -2.1051    1.4324 O   0  0  0  0  0  0  0  0  0  0  0  0
    1.1685   -0.4348   -0.1539 C   0  0  1  0  0  0  0  0  0  0  0  0
    0.0651   -1.3962    0.2821 C   0  0  2  0  0  0  0  0  0  0  0  0
    1.3983    0.6568    0.8961 C   0  0  0  0  0  0  0  0  0  0  0  0
    2.4770   -1.1939   -0.4262 C   0  0  0  0  0  0  0  0  0  0  0  0
   -1.2075   -0.6035    0.6483 C   0  0  0  0  0  0  0  0  0  0  0  0
    2.4668    1.6531    0.4348 C   0  0  0  0  0  0  0  0  0  0  0  0
   -0.1849   -2.4258   -0.8211 C   0  0  0  0  0  0  0  0  0  0  0  0
    3.6700    1.0019   -0.2000 C   0  0  0  0  0  0  0  0  0  0  0  0
    3.6662   -0.2899   -0.5710 C   0  0  0  0  0  0  0  0  0  0  0  0
   -1.7393    0.2963   -0.4745 C   0  0  0  0  0  0  0  0  0  0  0  0
    4.8707    1.8797   -0.3951 C   0  0  0  0  0  0  0  0  0  0  0  0
   -2.9306    1.0894   -0.0127 C   0  0  0  0  0  0  0  0  0  0  0  0
   -4.2319    0.7693   -0.1450 C   0  0  0  0  0  0  0  0  0  0  0  0
   -5.3799    1.6085    0.3401 C   0  0  0  0  0  0  0  0  0  0  0  0
   -4.6384   -0.5058   -0.8341 C   0  0  0  0  0  0  0  0  0  0  0  0
    0.8869    0.0537   -1.0968 H   0  0  0  0  0  0  0  0  0  0  0  0
    1.7248    0.2145    1.8457 H   0  0  0  0  0  0  0  0  0  0  0  0
    0.5008    1.2434    1.1091 H   0  0  0  0  0  0  0  0  0  0  0  0
    2.3842   -1.7627   -1.3589 H   0  0  0  0  0  0  0  0  0  0  0  0
    2.7092   -1.9128    0.3677 H   0  0  0  0  0  0  0  0  0  0  0  0
   -1.9880   -1.3311    0.9162 H   0  0  0  0  0  0  0  0  0  0  0  0
   -1.0718   -0.0351    1.5771 H   0  0  0  0  0  0  0  0  0  0  0  0
    2.7802    2.2498    1.2999 H   0  0  0  0  0  0  0  0  0  0  0  0
    2.0263    2.3472   -0.2921 H   0  0  0  0  0  0  0  0  0  0  0  0
   -1.0660   -3.0322   -0.5791 H   0  0  0  0  0  0  0  0  0  0  0  0
   -0.3557   -1.9600   -1.7966 H   0  0  0  0  0  0  0  0  0  0  0  0
    0.6406   -3.1402   -0.9116 H   0  0  0  0  0  0  0  0  0  0  0  0
    4.5595   -0.7298   -1.0069 H   0  0  0  0  0  0  0  0  0  0  0  0
   -1.9680   -0.2849   -1.3724 H   0  0  0  0  0  0  0  0  0  0  0  0
   -0.9894    1.0309   -0.7855 H   0  0  0  0  0  0  0  0  0  0  0  0
    0.4846   -1.5157    2.2034 H   0  0  0  0  0  0  0  0  0  0  0  0
    5.6987    1.3470   -0.8745 H   0  0  0  0  0  0  0  0  0  0  0  0
    5.2288    2.2538    0.5695 H   0  0  0  0  0  0  0  0  0  0  0  0
    4.6150    2.7361   -1.0273 H   0  0  0  0  0  0  0  0  0  0  0  0
   -2.6887    2.0190    0.5008 H   0  0  0  0  0  0  0  0  0  0  0  0
   -5.9715    1.0572    1.0779 H   0  0  0  0  0  0  0  0  0  0  0  0
   -5.0319    2.5327    0.8131 H   0  0  0  0  0  0  0  0  0  0  0  0
   -6.0303    1.8848   -0.4959 H   0  0  0  0  0  0  0  0  0  0  0  0
   -3.8248   -1.2176   -0.9886 H   0  0  0  0  0  0  0  0  0  0  0  0
   -5.0830   -0.2789   -1.8087 H   0  0  0  0  0  0  0  0  0  0  0  0
   -5.3899   -1.0294   -0.2322 H   0  0  0  0  0  0  0  0  0  0  0  0
  1  3  1  0  0  0  0
  1 32  1  0  0  0  0
  2  3  1  0  0  0  0
  2  4  1  0  0  0  0
  2  5  1  0  0  0  0
  2 17  1  0  0  0  0
  3  6  1  0  0  0  0
  3  8  1  0  0  0  0
  4  7  1  0  0  0  0
  4 18  1  0  0  0  0
  4 19  1  0  0  0  0
  5 10  1  0  0  0  0
  5 20  1  0  0  0  0
  5 21  1  0  0  0  0
  6 11  1  0  0  0  0
  6 22  1  0  0  0  0
  6 23  1  0  0  0  0
  7  9  1  0  0  0  0
  7 24  1  0  0  0  0
  7 25  1  0  0  0  0
  8 26  1  0  0  0  0
  8 27  1  0  0  0  0
  8 28  1  0  0  0  0
  9 10  2  0  0  0  0
  9 12  1  0  0  0  0
 10 29  1  0  0  0  0
 11 13  1  0  0  0  0
 11 30  1  0  0  0  0
 11 31  1  0  0  0  0
 12 33  1  0  0  0  0
 12 34  1  0  0  0  0
 12 35  1  0  0  0  0
 13 14  2  0  0  0  0
 13 36  1  0  0  0  0
 14 15  1  0  0  0  0
 14 16  1  0  0  0  0
 15 37  1  0  0  0  0
 15 38  1  0  0  0  0
 15 39  1  0  0  0  0
 16 40  1  0  0  0  0
 16 41  1  0  0  0  0
 16 42  1  0  0  0  0
M  END
> <PUBCHEM_COMPOUND_CID>
442343

> <PUBCHEM_CONFORMER_RMSD>
0.6

> <PUBCHEM_CONFORMER_DIVERSEORDER>
1
31
30
8
25
22
2
23
27
14
17
5
32
7
19
28
15
29
24
10
18
4
26
20
13
6
21
11
16
12
3
9

> <PUBCHEM_MMFF94_PARTIAL_CHARGES>
15
1 -0.68
10 -0.29
11 0.14
12 0.14
13 -0.29
14 -0.28
15 0.14
16 0.14
29 0.15
3 0.28
32 0.4
36 0.15
5 0.14
7 0.14
9 -0.28

> <PUBCHEM_EFFECTIVE_ROTOR_COUNT>
4.8

> <PUBCHEM_PHARMACOPHORE_FEATURES>
4
1 1 acceptor
1 1 donor
3 14 15 16 hydrophobe
6 2 4 5 7 9 10 rings

> <PUBCHEM_HEAVY_ATOM_COUNT>
16

> <PUBCHEM_ATOM_DEF_STEREO_COUNT>
2

> <PUBCHEM_ATOM_UDEF_STEREO_COUNT>
0

> <PUBCHEM_BOND_DEF_STEREO_COUNT>
0

> <PUBCHEM_BOND_UDEF_STEREO_COUNT>
0

> <PUBCHEM_ISOTOPIC_ATOM_COUNT>
0

> <PUBCHEM_COMPONENT_COUNT>
1

> <PUBCHEM_CACTVS_TAUTO_COUNT>
1

> <PUBCHEM_CONFORMER_ID>
0006BFE700000001

> <PUBCHEM_MMFF94_ENERGY>
28.3165

> <PUBCHEM_FEATURE_SELFOVERLAP>
20.297

> <PUBCHEM_SHAPE_FINGERPRINT>
10498660 4 18272097131743243253
10922049 32 18411416198321385071
11471102 20 18334855035021401668
122479 349 18271521992587635242
12251169 10 12463571768341608928
12532896 13 18272369729011879906
12616999 72 16877940559708929422
12730499 353 18337942467935691075
12892183 10 14764360352540678165
13583140 156 15195296283201237357
13955234 65 18057603372520082979
14252887 29 11527950088111382488
14528608 73 18335428971812571741
15196674 1 18409166614816215765
15775835 57 18411983559089947598
17834072 32 18198337364951528948
17834072 33 18114470024362748749
18186145 218 18335990843249017253
20281475 54 8574422145448408259
204376 136 18131632266304574955
20621476 66 18341609258122090028
20645477 56 18339924797253795488
20871999 31 17749960955539754199
21069387 34 16371268005481026708
21250096 35 9871746892897641869
212847 35 18410576201750526704
21524375 3 18413110558561340810
22218785 32 18334009488893841606
22620623 9 17242177838227061487
231179 274 18131355232081585221
23402539 116 18187370917210788884
23402655 69 18186239528272386397
23558518 356 17837499557074032024
23590187 302 17458633336562805017
25 1 18408887338894279156
2637199 183 18261108595112176719
26918003 58 11095892553207160805
276578 36 17704076204882178226
2838139 119 18409733924351807948
2916195 48 18261400992307324488
298252 57 18260831483959843466
3060560 45 18115310097668272159
328317 168 18343866593499156109
4047638 21 18342172280646154980
42 15 10519982682257513117
449060 62 18341614849630828449
465052 167 10447926187599812048
474 4 18272086089413772021
4990 188 17894628166850242877
5104073 3 18201997772461942587
633830 44 18412265060063484431
6442390 28 18130780136129813515
69090 78 18334860489244895366
81539 233 18272654583942989127
83771 10 8718830885595609120
9999458 23 18059572542158430358

> <PUBCHEM_SHAPE_MULTIPOLES>
323.4
10.02
2.23
0.95
6.97
0.62
0.14
-6.98
-1.94
-0.67
0.06
-0.02
0.27
-0.33

> <PUBCHEM_SHAPE_SELFOVERLAP>
635.505

> <PUBCHEM_SHAPE_VOLUME>
193.8

> <PUBCHEM_COORDINATE_TYPE>
2
5
10

$$$$

