582915
  -OEChem-06241222443D

 46 47  0     1  0  0  0  0  0999 V2000
    1.4711    1.8750    1.7170 O   0  0  0  0  0  0  0  0  0  0  0  0
    1.7302   -1.2015   -0.2495 O   0  0  0  0  0  0  0  0  0  0  0  0
    3.8291    0.3136   -0.6109 O   0  0  0  0  0  0  0  0  0  0  0  0
    0.8360   -3.0835    0.7478 O   0  0  0  0  0  0  0  0  0  0  0  0
    2.6175    1.6693   -2.0361 O   0  0  0  0  0  0  0  0  0  0  0  0
   -0.9856    0.0146    0.0764 N   0  0  0  0  0  0  0  0  0  0  0  0
   -2.1840   -0.2354    0.6282 N   0  0  0  0  0  0  0  0  0  0  0  0
   -2.2238   -0.8218    1.8355 N   0  0  0  0  0  0  0  0  0  0  0  0
    1.8674    1.0173    0.6461 C   0  0  2  0  0  0  0  0  0  0  0  0
    1.2904   -0.4018    0.8571 C   0  0  1  0  0  0  0  0  0  0  0  0
    3.3973    1.0848    0.5056 C   0  0  1  0  0  0  0  0  0  0  0  0
   -0.2083   -0.4595    1.0259 C   0  0  0  0  0  0  0  0  0  0  0  0
    4.1084    0.5318    1.7379 C   0  0  0  0  0  0  0  0  0  0  0  0
   -0.9202   -0.9660    2.0899 C   0  0  0  0  0  0  0  0  0  0  0  0
    1.9148    3.2053    1.5022 C   0  0  0  0  0  0  0  0  0  0  0  0
    1.4314   -2.5276   -0.1652 C   0  0  0  0  0  0  0  0  0  0  0  0
    3.3606    0.7196   -1.8288 C   0  0  0  0  0  0  0  0  0  0  0  0
   -3.3593    0.1077   -0.0360 C   0  0  0  0  0  0  0  0  0  0  0  0
    1.9479   -3.2328   -1.3826 C   0  0  0  0  0  0  0  0  0  0  0  0
    3.8943   -0.1786   -2.9032 C   0  0  0  0  0  0  0  0  0  0  0  0
   -3.2910    0.7156   -1.2840 C   0  0  0  0  0  0  0  0  0  0  0  0
   -4.5876   -0.1648    0.5548 C   0  0  0  0  0  0  0  0  0  0  0  0
   -4.4678    1.0563   -1.9507 C   0  0  0  0  0  0  0  0  0  0  0  0
   -5.7644    0.1758   -0.1122 C   0  0  0  0  0  0  0  0  0  0  0  0
   -5.7044    0.7865   -1.3650 C   0  0  0  0  0  0  0  0  0  0  0  0
    1.3728    1.4077   -0.2470 H   0  0  0  0  0  0  0  0  0  0  0  0
    1.7305   -0.8119    1.7765 H   0  0  0  0  0  0  0  0  0  0  0  0
    3.7639    2.1037    0.3444 H   0  0  0  0  0  0  0  0  0  0  0  0
    3.9612   -0.5480    1.8431 H   0  0  0  0  0  0  0  0  0  0  0  0
    3.7911    1.0290    2.6586 H   0  0  0  0  0  0  0  0  0  0  0  0
    5.1905    0.6735    1.6331 H   0  0  0  0  0  0  0  0  0  0  0  0
   -0.5972   -1.4204    3.0144 H   0  0  0  0  0  0  0  0  0  0  0  0
    1.8113    3.5198    0.4584 H   0  0  0  0  0  0  0  0  0  0  0  0
    1.2822    3.8623    2.1076 H   0  0  0  0  0  0  0  0  0  0  0  0
    2.9390    3.3433    1.8601 H   0  0  0  0  0  0  0  0  0  0  0  0
    3.0397   -3.2589   -1.3580 H   0  0  0  0  0  0  0  0  0  0  0  0
    1.5926   -2.7293   -2.2855 H   0  0  0  0  0  0  0  0  0  0  0  0
    1.5692   -4.2589   -1.3936 H   0  0  0  0  0  0  0  0  0  0  0  0
   -2.3487    0.9426   -1.7752 H   0  0  0  0  0  0  0  0  0  0  0  0
   -4.6783   -0.6392    1.5281 H   0  0  0  0  0  0  0  0  0  0  0  0
    3.2974   -0.0510   -3.8106 H   0  0  0  0  0  0  0  0  0  0  0  0
    4.9342    0.0811   -3.1139 H   0  0  0  0  0  0  0  0  0  0  0  0
    3.8206   -1.2240   -2.5961 H   0  0  0  0  0  0  0  0  0  0  0  0
   -4.4218    1.5316   -2.9263 H   0  0  0  0  0  0  0  0  0  0  0  0
   -6.7278   -0.0342    0.3433 H   0  0  0  0  0  0  0  0  0  0  0  0
   -6.6207    1.0517   -1.8842 H   0  0  0  0  0  0  0  0  0  0  0  0
  1  9  1  0  0  0  0
  1 15  1  0  0  0  0
  2 10  1  0  0  0  0
  2 16  1  0  0  0  0
  3 11  1  0  0  0  0
  3 17  1  0  0  0  0
  4 16  2  0  0  0  0
  5 17  2  0  0  0  0
  6  7  1  0  0  0  0
  6 12  2  0  0  0  0
  7  8  1  0  0  0  0
  7 18  1  0  0  0  0
  8 14  2  0  0  0  0
  9 10  1  0  0  0  0
  9 11  1  0  0  0  0
  9 26  1  0  0  0  0
 10 12  1  0  0  0  0
 10 27  1  0  0  0  0
 11 13  1  0  0  0  0
 11 28  1  0  0  0  0
 12 14  1  0  0  0  0
 13 29  1  0  0  0  0
 13 30  1  0  0  0  0
 13 31  1  0  0  0  0
 14 32  1  0  0  0  0
 15 33  1  0  0  0  0
 15 34  1  0  0  0  0
 15 35  1  0  0  0  0
 16 19  1  0  0  0  0
 17 20  1  0  0  0  0
 18 21  2  0  0  0  0
 18 22  1  0  0  0  0
 19 36  1  0  0  0  0
 19 37  1  0  0  0  0
 19 38  1  0  0  0  0
 20 41  1  0  0  0  0
 20 42  1  0  0  0  0
 20 43  1  0  0  0  0
 21 23  1  0  0  0  0
 21 39  1  0  0  0  0
 22 24  2  0  0  0  0
 22 40  1  0  0  0  0
 23 25  2  0  0  0  0
 23 44  1  0  0  0  0
 24 25  1  0  0  0  0
 24 45  1  0  0  0  0
 25 46  1  0  0  0  0
M  END
> <PUBCHEM_COMPOUND_CID>
582915

> <PUBCHEM_CONFORMER_RMSD>
1

> <PUBCHEM_CONFORMER_DIVERSEORDER>
10
114
143
62
14
136
60
133
31
144
161
145
124
19
138
28
117
81
36
116
34
126
153
129
92
65
25
78
99
26
79
88
119
150
149
128
109
125
113
18
91
72
77
159
56
111
15
47
163
21
164
66
137
160
85
146
120
141
167
83
134
51
110
67
50
100
157
11
130
103
38
162
139
106
53
84
105
122
2
69
7
24
27
86
49
132
1
165
48
4
80
135
121
76
127
97
158
93
68
82
101
90
89
64
151
39
131
13
58
42
52
98
87
115
155
54
112
71
142
75
45
147
9
61
57
41
63
148
46
12
152
73
35
104
55
154
102
70
74
166
23
107
37
22
16
40
8
140
44
43
17
123
108
96
59
94
29
3
5
32
118
33
156
6
95
30
20

> <PUBCHEM_MMFF94_PARTIAL_CHARGES>
30
1 -0.56
10 0.46
11 0.28
12 0.11
14 0.14
15 0.28
16 0.66
17 0.66
18 -0.02
19 0.06
2 -0.43
20 0.06
21 -0.15
22 -0.15
23 -0.15
24 -0.15
25 -0.15
3 -0.43
32 0.15
39 0.15
4 -0.57
40 0.15
44 0.15
45 0.15
46 0.15
5 -0.57
6 -0.71
7 0.86
8 -0.71
9 0.28

> <PUBCHEM_EFFECTIVE_ROTOR_COUNT>
9

> <PUBCHEM_PHARMACOPHORE_FEATURES>
7
1 1 acceptor
1 4 acceptor
1 5 acceptor
1 6 acceptor
1 8 acceptor
5 6 7 8 12 14 rings
6 18 21 22 23 24 25 rings

> <PUBCHEM_HEAVY_ATOM_COUNT>
25

> <PUBCHEM_ATOM_DEF_STEREO_COUNT>
0

> <PUBCHEM_ATOM_UDEF_STEREO_COUNT>
3

> <PUBCHEM_BOND_DEF_STEREO_COUNT>
0

> <PUBCHEM_BOND_UDEF_STEREO_COUNT>
0

> <PUBCHEM_ISOTOPIC_ATOM_COUNT>
0

> <PUBCHEM_COMPONENT_COUNT>
1

> <PUBCHEM_CACTVS_TAUTO_COUNT>
1

> <PUBCHEM_CONFORMER_ID>
0008E5030000000A

> <PUBCHEM_MMFF94_ENERGY>
64.4419

> <PUBCHEM_FEATURE_SELFOVERLAP>
35.57

> <PUBCHEM_SHAPE_FINGERPRINT>
10498660 4 17131836529668818709
10764073 3 16834371458054960128
11135609 149 17605277487471893700
11578080 2 18054792776566892020
12730499 353 18411418393582436771
13965767 371 14692300585602778423
14251751 18 14129334151964502198
14251757 17 17313944100122121343
14739800 52 16915658065118766628
14957384 54 15984840236925355229
15163728 17 16628807679006850806
15342816 4 4750880389568984569
15664445 248 14996582649982163794
15849732 13 17989214746448061146
1813 80 17095804455088712719
20715895 44 16198209363716098813
21304303 94 16732989704109954223
23557571 272 17988916731346870883
23559900 14 17846221115139125755
238 59 18335133181008236678
2838139 119 17273681071435159924
3004659 81 15574425527130201333
3060560 45 18187653483341041314
3472631 163 16702294633860444055
44802255 64 17483070953928547446
495365 180 18263937556794600049
5281201 14 18270683207229164135
5895379 119 17630896090839819316
633830 44 17822834408289847433
7471813 234 17972317588521985622
7808743 9 17060048190919371693

> <PUBCHEM_SHAPE_MULTIPOLES>
470.2
10.52
2.64
2.42
14.08
0.92
-1.13
-2.42
-5.4
-3.62
0.6
-1.06
0
1.31

> <PUBCHEM_SHAPE_SELFOVERLAP>
985.368

> <PUBCHEM_SHAPE_VOLUME>
264.9

> <PUBCHEM_COORDINATE_TYPE>
2
5
10

$$$$

