47205254
  -OEChem-06241222582D

 39 41  0     0  0  0  0  0  0999 V2000
    2.0000   -0.5202    0.0000 O   0  0  0  0  0  0  0  0  0  0  0  0
    2.8380    2.2586    0.0000 O   0  0  0  0  0  0  0  0  0  0  0  0
    2.8660   -2.0202    0.0000 N   0  0  0  0  0  0  0  0  0  0  0  0
    4.5981    1.9798    0.0000 N   0  0  0  0  0  0  0  0  0  0  0  0
    4.0981    3.5186    0.0000 N   0  0  0  0  0  0  0  0  0  0  0  0
    2.8660   -4.0202    0.0000 C   0  0  0  0  0  0  0  0  0  0  0  0
    2.0000   -3.5202    0.0000 C   0  0  0  0  0  0  0  0  0  0  0  0
    3.7320   -3.5202    0.0000 C   0  0  0  0  0  0  0  0  0  0  0  0
    2.0000   -2.5202    0.0000 C   0  0  0  0  0  0  0  0  0  0  0  0
    3.7320   -2.5202    0.0000 C   0  0  0  0  0  0  0  0  0  0  0  0
    2.8660   -1.0202    0.0000 C   0  0  0  0  0  0  0  0  0  0  0  0
    3.7320   -0.5202    0.0000 C   0  0  0  0  0  0  0  0  0  0  0  0
    5.4071    2.5676    0.0000 C   0  0  0  0  0  0  0  0  0  0  0  0
    4.5981    0.9798    0.0000 C   0  0  0  0  0  0  0  0  0  0  0  0
    5.0981    3.5186    0.0000 C   0  0  0  0  0  0  0  0  0  0  0  0
    3.7320    0.4798    0.0000 C   0  0  0  0  0  0  0  0  0  0  0  0
    3.7891    2.5676    0.0000 C   0  0  0  0  0  0  0  0  0  0  0  0
    4.5981   -1.0202    0.0000 C   0  0  0  0  0  0  0  0  0  0  0  0
    5.4641    0.4798    0.0000 C   0  0  0  0  0  0  0  0  0  0  0  0
    5.4641   -0.5202    0.0000 C   0  0  0  0  0  0  0  0  0  0  0  0
    2.4675   -4.4952    0.0000 H   0  0  0  0  0  0  0  0  0  0  0  0
    3.2646   -4.4952    0.0000 H   0  0  0  0  0  0  0  0  0  0  0  0
    1.3894   -3.4126    0.0000 H   0  0  0  0  0  0  0  0  0  0  0  0
    1.7880   -4.1028    0.0000 H   0  0  0  0  0  0  0  0  0  0  0  0
    3.9441   -4.1028    0.0000 H   0  0  0  0  0  0  0  0  0  0  0  0
    4.3426   -3.4126    0.0000 H   0  0  0  0  0  0  0  0  0  0  0  0
    1.7880   -1.9376    0.0000 H   0  0  0  0  0  0  0  0  0  0  0  0
    1.3894   -2.6279    0.0000 H   0  0  0  0  0  0  0  0  0  0  0  0
    4.3426   -2.6279    0.0000 H   0  0  0  0  0  0  0  0  0  0  0  0
    3.9441   -1.9376    0.0000 H   0  0  0  0  0  0  0  0  0  0  0  0
    5.7171    2.0306    0.0000 H   0  0  0  0  0  0  0  0  0  0  0  0
    5.9735    2.8198    0.0000 H   0  0  0  0  0  0  0  0  0  0  0  0
    5.7045    3.6475    0.0000 H   0  0  0  0  0  0  0  0  0  0  0  0
    5.0333    4.1352    0.0000 H   0  0  0  0  0  0  0  0  0  0  0  0
    3.1951    0.7898    0.0000 H   0  0  0  0  0  0  0  0  0  0  0  0
    3.7336    4.0202    0.0000 H   0  0  0  0  0  0  0  0  0  0  0  0
    4.5981   -1.6402    0.0000 H   0  0  0  0  0  0  0  0  0  0  0  0
    6.0010    0.7898    0.0000 H   0  0  0  0  0  0  0  0  0  0  0  0
    6.0010   -0.8302    0.0000 H   0  0  0  0  0  0  0  0  0  0  0  0
  1 11  2  0  0  0  0
  2 17  2  0  0  0  0
  3  9  1  0  0  0  0
  3 10  1  0  0  0  0
  3 11  1  0  0  0  0
  4 13  1  0  0  0  0
  4 14  1  0  0  0  0
  4 17  1  0  0  0  0
  5 15  1  0  0  0  0
  5 17  1  0  0  0  0
  5 36  1  0  0  0  0
  6  7  1  0  0  0  0
  6  8  1  0  0  0  0
  6 21  1  0  0  0  0
  6 22  1  0  0  0  0
  7  9  1  0  0  0  0
  7 23  1  0  0  0  0
  7 24  1  0  0  0  0
  8 10  1  0  0  0  0
  8 25  1  0  0  0  0
  8 26  1  0  0  0  0
  9 27  1  0  0  0  0
  9 28  1  0  0  0  0
 10 29  1  0  0  0  0
 10 30  1  0  0  0  0
 11 12  1  0  0  0  0
 12 16  2  0  0  0  0
 12 18  1  0  0  0  0
 13 15  1  0  0  0  0
 13 31  1  0  0  0  0
 13 32  1  0  0  0  0
 14 16  1  0  0  0  0
 14 19  2  0  0  0  0
 15 33  1  0  0  0  0
 15 34  1  0  0  0  0
 16 35  1  0  0  0  0
 18 20  2  0  0  0  0
 18 37  1  0  0  0  0
 19 20  1  0  0  0  0
 19 38  1  0  0  0  0
 20 39  1  0  0  0  0
M  END
> <PUBCHEM_COMPOUND_CID>
47205254

> <PUBCHEM_COMPOUND_CANONICALIZED>
1

> <PUBCHEM_CACTVS_COMPLEXITY>
379

> <PUBCHEM_CACTVS_HBOND_ACCEPTOR>
2

> <PUBCHEM_CACTVS_HBOND_DONOR>
1

> <PUBCHEM_CACTVS_ROTATABLE_BOND>
2

> <PUBCHEM_CACTVS_SUBSKEYS>
AAADceBzMAAAAAAAAAAAAAAAAAAAAWAAAAA8QAAAAAAAAAABAAAAHgAQAAAADAjBmAQxwIPAAACIAiVSUACCAAAlAgAIiIEIZMiIYDLAlZGUIQholgLIyacciACOAAAAQAAAAAAAAACAAAAAAAAAAAAAAA==

> <PUBCHEM_IUPAC_OPENEYE_NAME>
1-[3-(piperidine-1-carbonyl)phenyl]imidazolidin-2-one

> <PUBCHEM_IUPAC_CAS_NAME>
1-[3-[oxo(1-piperidinyl)methyl]phenyl]-2-imidazolidinone

> <PUBCHEM_IUPAC_NAME>
1-[3-(piperidine-1-carbonyl)phenyl]imidazolidin-2-one

> <PUBCHEM_IUPAC_SYSTEMATIC_NAME>
1-(3-piperidin-1-ylcarbonylphenyl)imidazolidin-2-one

> <PUBCHEM_IUPAC_TRADITIONAL_NAME>
1-[3-(piperidine-1-carbonyl)phenyl]-2-imidazolidinone

> <PUBCHEM_IUPAC_INCHI>
InChI=1S/C15H19N3O2/c19-14(17-8-2-1-3-9-17)12-5-4-6-13(11-12)18-10-7-16-15(18)20/h4-6,11H,1-3,7-10H2,(H,16,20)

> <PUBCHEM_IUPAC_INCHIKEY>
WYBOADQNWMYEPQ-UHFFFAOYSA-N

> <PUBCHEM_XLOGP3_AA>
1.2

> <PUBCHEM_EXACT_MASS>
273.147727

> <PUBCHEM_MOLECULAR_FORMULA>
C15H19N3O2

> <PUBCHEM_MOLECULAR_WEIGHT>
273.33026

> <PUBCHEM_OPENEYE_CAN_SMILES>
C1CCN(CC1)C(=O)C2=CC(=CC=C2)N3CCNC3=O

> <PUBCHEM_OPENEYE_ISO_SMILES>
C1CCN(CC1)C(=O)C2=CC(=CC=C2)N3CCNC3=O

> <PUBCHEM_CACTVS_TPSA>
52.6

> <PUBCHEM_MONOISOTOPIC_WEIGHT>
273.147727

> <PUBCHEM_TOTAL_CHARGE>
0

> <PUBCHEM_HEAVY_ATOM_COUNT>
20

> <PUBCHEM_ATOM_DEF_STEREO_COUNT>
0

> <PUBCHEM_ATOM_UDEF_STEREO_COUNT>
0

> <PUBCHEM_BOND_DEF_STEREO_COUNT>
0

> <PUBCHEM_BOND_UDEF_STEREO_COUNT>
0

> <PUBCHEM_ISOTOPIC_ATOM_COUNT>
0

> <PUBCHEM_COMPONENT_COUNT>
1

> <PUBCHEM_CACTVS_TAUTO_COUNT>
2

> <PUBCHEM_COORDINATE_TYPE>
1
5
255

> <PUBCHEM_BONDANNOTATIONS>
12  16  8
12  18  8
14  16  8
14  19  8
18  20  8
19  20  8

$$$$

