441708
  -OEChem-07051212553D

 88 94  0     1  0  0  0  0  0999 V2000
    1.4036    0.7019    2.5307 O   0  0  0  0  0  0  0  0  0  0  0  0
    3.2387    2.4153    1.3074 O   0  0  0  0  0  0  0  0  0  0  0  0
    0.9562    2.7821   -0.0354 O   0  0  0  0  0  0  0  0  0  0  0  0
    1.5070   -2.8741   -1.6849 O   0  0  0  0  0  0  0  0  0  0  0  0
    5.6121    1.8794   -0.4161 O   0  0  0  0  0  0  0  0  0  0  0  0
    6.3262   -0.7078    1.1214 O   0  0  0  0  0  0  0  0  0  0  0  0
   -3.6094    0.4168   -0.2115 O   0  0  0  0  0  0  0  0  0  0  0  0
   -4.7402    2.4217   -0.2559 O   0  0  0  0  0  0  0  0  0  0  0  0
    0.0617   -1.4842    1.0456 N   0  0  2  0  0  0  0  0  0  0  0  0
   -7.3484    1.9919   -1.0529 N   0  0  0  0  0  0  0  0  0  0  0  0
    1.1955   -0.5172   -0.9242 C   0  0  2  0  0  0  0  0  0  0  0  0
    0.1173    0.6349   -0.8342 C   0  0  2  0  0  0  0  0  0  0  0  0
    1.3036   -0.8192    0.5940 C   0  0  1  0  0  0  0  0  0  0  0  0
    2.5945   -0.0102   -1.4642 C   0  0  1  0  0  0  0  0  0  0  0  0
    1.5986    0.6313    1.1228 C   0  0  2  0  0  0  0  0  0  0  0  0
    3.2660    1.1653   -0.7258 C   0  0  1  0  0  0  0  0  0  0  0  0
    3.0626    1.0739    0.8015 C   0  0  1  0  0  0  0  0  0  0  0  0
    0.5362    1.4971    0.3911 C   0  0  1  0  0  0  0  0  0  0  0  0
   -1.2775    0.0004   -0.5198 C   0  0  2  0  0  0  0  0  0  0  0  0
    0.7290   -1.6920   -1.8595 C   0  0  2  0  0  0  0  0  0  0  0  0
    3.7263   -1.0735   -1.5135 C   0  0  0  0  0  0  0  0  0  0  0  0
    4.9595   -0.4387   -0.8535 C   0  0  1  0  0  0  0  0  0  0  0  0
    4.7367    1.0374   -1.1352 C   0  0  2  0  0  0  0  0  0  0  0  0
    4.1427    0.2228    1.5269 C   0  0  0  0  0  0  0  0  0  0  0  0
   -1.1905   -0.7359    0.8570 C   0  0  0  0  0  0  0  0  0  0  0  0
   -1.6701   -0.9661   -1.6547 C   0  0  0  0  0  0  0  0  0  0  0  0
    4.9715   -0.7376    0.6570 C   0  0  2  0  0  0  0  0  0  0  0  0
   -0.7253   -2.1351   -1.7783 C   0  0  0  0  0  0  0  0  0  0  0  0
   -2.3886    1.0734   -0.4670 C   0  0  0  0  0  0  0  0  0  0  0  0
    0.1531   -2.0725    2.3748 C   0  0  0  0  0  0  0  0  0  0  0  0
   -0.1508    3.6350   -0.3006 C   0  0  0  0  0  0  0  0  0  0  0  0
   -0.9912   -3.0396    2.6269 C   0  0  0  0  0  0  0  0  0  0  0  0
    1.5853   -3.6240   -2.8875 C   0  0  0  0  0  0  0  0  0  0  0  0
    6.8974    1.9555   -1.0264 C   0  0  0  0  0  0  0  0  0  0  0  0
    6.4891   -1.5176    2.2730 C   0  0  0  0  0  0  0  0  0  0  0  0
   -4.7216    1.2073   -0.1281 C   0  0  0  0  0  0  0  0  0  0  0  0
   -5.9365    0.3984    0.1443 C   0  0  0  0  0  0  0  0  0  0  0  0
   -7.1921    0.7986   -0.3129 C   0  0  0  0  0  0  0  0  0  0  0  0
   -5.8038   -0.7831    0.8738 C   0  0  0  0  0  0  0  0  0  0  0  0
   -8.3151    0.0169   -0.0407 C   0  0  0  0  0  0  0  0  0  0  0  0
   -6.9269   -1.5645    1.1459 C   0  0  0  0  0  0  0  0  0  0  0  0
   -8.1824   -1.1646    0.6888 C   0  0  0  0  0  0  0  0  0  0  0  0
    0.0877    1.2017   -1.7718 H   0  0  0  0  0  0  0  0  0  0  0  0
    2.1386   -1.4959    0.7963 H   0  0  0  0  0  0  0  0  0  0  0  0
    2.4290    0.3244   -2.4996 H   0  0  0  0  0  0  0  0  0  0  0  0
    2.9056    2.1249   -1.1103 H   0  0  0  0  0  0  0  0  0  0  0  0
   -0.2808    1.6759    1.0934 H   0  0  0  0  0  0  0  0  0  0  0  0
    0.8719   -1.3143   -2.8834 H   0  0  0  0  0  0  0  0  0  0  0  0
    3.9475   -1.3050   -2.5631 H   0  0  0  0  0  0  0  0  0  0  0  0
    3.4876   -2.0163   -1.0221 H   0  0  0  0  0  0  0  0  0  0  0  0
    5.8807   -0.8124   -1.3138 H   0  0  0  0  0  0  0  0  0  0  0  0
    4.8220    1.2464   -2.2115 H   0  0  0  0  0  0  0  0  0  0  0  0
    3.6878   -0.3561    2.3409 H   0  0  0  0  0  0  0  0  0  0  0  0
    4.8328    0.9008    2.0505 H   0  0  0  0  0  0  0  0  0  0  0  0
   -2.0418   -1.4255    0.9044 H   0  0  0  0  0  0  0  0  0  0  0  0
   -1.3410   -0.0311    1.6833 H   0  0  0  0  0  0  0  0  0  0  0  0
   -2.6783   -1.3722   -1.5080 H   0  0  0  0  0  0  0  0  0  0  0  0
   -1.6950   -0.4223   -2.6088 H   0  0  0  0  0  0  0  0  0  0  0  0
    4.5931   -1.7586    0.7992 H   0  0  0  0  0  0  0  0  0  0  0  0
   -1.0012   -2.6975   -2.6787 H   0  0  0  0  0  0  0  0  0  0  0  0
   -0.8748   -2.8485   -0.9591 H   0  0  0  0  0  0  0  0  0  0  0  0
   -2.2194    1.8024    0.3293 H   0  0  0  0  0  0  0  0  0  0  0  0
   -2.4507    1.6056   -1.4241 H   0  0  0  0  0  0  0  0  0  0  0  0
    0.4530    0.6934    2.7239 H   0  0  0  0  0  0  0  0  0  0  0  0
    3.0106    2.4037    2.2529 H   0  0  0  0  0  0  0  0  0  0  0  0
    1.0861   -2.6431    2.4585 H   0  0  0  0  0  0  0  0  0  0  0  0
    0.1622   -1.3262    3.1738 H   0  0  0  0  0  0  0  0  0  0  0  0
    0.2453    4.6211   -0.5603 H   0  0  0  0  0  0  0  0  0  0  0  0
   -0.7831    3.7523    0.5848 H   0  0  0  0  0  0  0  0  0  0  0  0
   -0.7330    3.2793   -1.1532 H   0  0  0  0  0  0  0  0  0  0  0  0
   -1.9445   -2.5254    2.7846 H   0  0  0  0  0  0  0  0  0  0  0  0
   -1.1058   -3.7533    1.8038 H   0  0  0  0  0  0  0  0  0  0  0  0
   -0.7901   -3.6179    3.5356 H   0  0  0  0  0  0  0  0  0  0  0  0
    1.9946   -3.0216   -3.7047 H   0  0  0  0  0  0  0  0  0  0  0  0
    2.2692   -4.4601   -2.7144 H   0  0  0  0  0  0  0  0  0  0  0  0
    0.6166   -4.0442   -3.1690 H   0  0  0  0  0  0  0  0  0  0  0  0
    7.3804    0.9750   -1.0537 H   0  0  0  0  0  0  0  0  0  0  0  0
    6.8197    2.3685   -2.0368 H   0  0  0  0  0  0  0  0  0  0  0  0
    7.5175    2.6270   -0.4264 H   0  0  0  0  0  0  0  0  0  0  0  0
    5.8622   -1.1722    3.1001 H   0  0  0  0  0  0  0  0  0  0  0  0
    6.2713   -2.5659    2.0453 H   0  0  0  0  0  0  0  0  0  0  0  0
    7.5338   -1.4505    2.5895 H   0  0  0  0  0  0  0  0  0  0  0  0
   -4.8419   -1.1154    1.2553 H   0  0  0  0  0  0  0  0  0  0  0  0
   -9.2995    0.3170   -0.3907 H   0  0  0  0  0  0  0  0  0  0  0  0
   -6.8243   -2.4829    1.7165 H   0  0  0  0  0  0  0  0  0  0  0  0
   -8.2671    2.2634   -1.3778 H   0  0  0  0  0  0  0  0  0  0  0  0
   -6.5510    2.5708   -1.2767 H   0  0  0  0  0  0  0  0  0  0  0  0
   -9.0567   -1.7727    0.9015 H   0  0  0  0  0  0  0  0  0  0  0  0
  1 15  1  0  0  0  0
  1 64  1  0  0  0  0
  2 17  1  0  0  0  0
  2 65  1  0  0  0  0
  3 18  1  0  0  0  0
  3 31  1  0  0  0  0
  4 20  1  0  0  0  0
  4 33  1  0  0  0  0
  5 23  1  0  0  0  0
  5 34  1  0  0  0  0
  6 27  1  0  0  0  0
  6 35  1  0  0  0  0
  7 29  1  0  0  0  0
  7 36  1  0  0  0  0
  8 36  2  0  0  0  0
  9 13  1  0  0  0  0
  9 25  1  0  0  0  0
  9 30  1  0  0  0  0
 10 38  1  0  0  0  0
 10 86  1  0  0  0  0
 10 87  1  0  0  0  0
 11 12  1  0  0  0  0
 11 13  1  0  0  0  0
 11 14  1  0  0  0  0
 11 20  1  0  0  0  0
 12 18  1  0  0  0  0
 12 19  1  0  0  0  0
 12 43  1  0  0  0  0
 13 15  1  0  0  0  0
 13 44  1  0  0  0  0
 14 16  1  0  0  0  0
 14 21  1  0  0  0  0
 14 45  1  0  0  0  0
 15 17  1  0  0  0  0
 15 18  1  0  0  0  0
 16 17  1  0  0  0  0
 16 23  1  0  0  0  0
 16 46  1  0  0  0  0
 17 24  1  0  0  0  0
 18 47  1  0  0  0  0
 19 25  1  0  0  0  0
 19 26  1  0  0  0  0
 19 29  1  0  0  0  0
 20 28  1  0  0  0  0
 20 48  1  0  0  0  0
 21 22  1  0  0  0  0
 21 49  1  0  0  0  0
 21 50  1  0  0  0  0
 22 23  1  0  0  0  0
 22 27  1  0  0  0  0
 22 51  1  0  0  0  0
 23 52  1  0  0  0  0
 24 27  1  0  0  0  0
 24 53  1  0  0  0  0
 24 54  1  0  0  0  0
 25 55  1  0  0  0  0
 25 56  1  0  0  0  0
 26 28  1  0  0  0  0
 26 57  1  0  0  0  0
 26 58  1  0  0  0  0
 27 59  1  0  0  0  0
 28 60  1  0  0  0  0
 28 61  1  0  0  0  0
 29 62  1  0  0  0  0
 29 63  1  0  0  0  0
 30 32  1  0  0  0  0
 30 66  1  0  0  0  0
 30 67  1  0  0  0  0
 31 68  1  0  0  0  0
 31 69  1  0  0  0  0
 31 70  1  0  0  0  0
 32 71  1  0  0  0  0
 32 72  1  0  0  0  0
 32 73  1  0  0  0  0
 33 74  1  0  0  0  0
 33 75  1  0  0  0  0
 33 76  1  0  0  0  0
 34 77  1  0  0  0  0
 34 78  1  0  0  0  0
 34 79  1  0  0  0  0
 35 80  1  0  0  0  0
 35 81  1  0  0  0  0
 35 82  1  0  0  0  0
 36 37  1  0  0  0  0
 37 38  1  0  0  0  0
 37 39  2  0  0  0  0
 38 40  2  0  0  0  0
 39 41  1  0  0  0  0
 39 83  1  0  0  0  0
 40 42  1  0  0  0  0
 40 84  1  0  0  0  0
 41 42  2  0  0  0  0
 41 85  1  0  0  0  0
 42 88  1  0  0  0  0
M  END
> <PUBCHEM_COMPOUND_CID>
441708

> <PUBCHEM_CONFORMER_RMSD>
1.2

> <PUBCHEM_CONFORMER_DIVERSEORDER>
1
5
4
3
2
6

> <PUBCHEM_MMFF94_PARTIAL_CHARGES>
39
1 -0.68
10 -0.9
13 0.27
15 0.28
17 0.28
18 0.28
2 -0.68
20 0.28
23 0.28
25 0.27
27 0.28
29 0.28
3 -0.56
30 0.27
31 0.28
33 0.28
34 0.28
35 0.28
36 0.63
37 0.09
38 0.1
39 -0.15
4 -0.56
40 -0.15
41 -0.15
42 -0.15
5 -0.56
6 -0.56
64 0.4
65 0.4
7 -0.43
8 -0.57
83 0.15
84 0.15
85 0.15
86 0.4
87 0.4
88 0.15
9 -0.81

> <PUBCHEM_EFFECTIVE_ROTOR_COUNT>
11

> <PUBCHEM_PHARMACOPHORE_FEATURES>
17
1 1 acceptor
1 1 donor
1 10 cation
1 10 donor
1 2 acceptor
1 2 donor
1 3 acceptor
1 4 acceptor
1 5 acceptor
1 6 acceptor
1 8 acceptor
1 9 cation
6 11 12 19 20 26 28 rings
6 37 38 39 40 41 42 rings
8 11 12 13 14 15 16 17 18 rings
8 14 16 17 21 22 23 24 27 rings
8 9 11 12 13 15 18 19 25 rings

> <PUBCHEM_HEAVY_ATOM_COUNT>
42

> <PUBCHEM_ATOM_DEF_STEREO_COUNT>
12

> <PUBCHEM_ATOM_UDEF_STEREO_COUNT>
1

> <PUBCHEM_BOND_DEF_STEREO_COUNT>
0

> <PUBCHEM_BOND_UDEF_STEREO_COUNT>
0

> <PUBCHEM_ISOTOPIC_ATOM_COUNT>
0

> <PUBCHEM_COMPONENT_COUNT>
1

> <PUBCHEM_CACTVS_TAUTO_COUNT>
2

> <PUBCHEM_CONFORMER_ID>
0006BD6C00000001

> <PUBCHEM_MMFF94_ENERGY>
226.0682

> <PUBCHEM_FEATURE_SELFOVERLAP>
87.769

> <PUBCHEM_SHAPE_FINGERPRINT>
10 15 18409728439757088141
10076449 9 17604415384693819476
10165383 225 18113613465295606420
11646440 116 17603303756615206649
11719270 70 18260265269905026623
11828532 37 17844513428396489715
12035758 1 17967828153785947656
12107698 1 18408884014996066473
12730499 353 18113332024958150383
12788726 201 18336541703408272336
13692114 37 18041570139646113639
13782708 43 16199883872253085130
13811026 1 18410292531649576975
14747282 305 17059512853110880339
14955137 171 18261390023324782013
15183329 4 16950279603122880485
15840311 113 16056873624448332527
16090146 7 15864893353725731990
16728300 4 17909289193062585538
17909252 39 17897714599095233047
18365409 1 16199573681188493395
18608769 82 18188205408467069439
21033648 29 17605284986400110264
21521721 280 17749666311734312632
21781051 124 18408597076604820510
22149856 69 17968361455880831137
23569917 315 17846493764327913307
25222932 49 18201446861581828715
3178227 256 18040434382287237425
4340502 62 17917991689371150887
513532 50 18410574024154881979
6081469 158 11815905577834404456
6086070 43 15502662547233928455

> <PUBCHEM_SHAPE_MULTIPOLES>
807.42
18.36
3.14
2.24
30.55
0.06
0.17
-3.31
2.64
-0.7
-0.48
-2.17
2.16
0.88

> <PUBCHEM_SHAPE_SELFOVERLAP>
1770.754

> <PUBCHEM_SHAPE_VOLUME>
430.1

> <PUBCHEM_COORDINATE_TYPE>
2
5
10

$$$$

