46173880
  -OEChem-07051213103D

 61 61  0     1  0  0  0  0  0999 V2000
   -1.1680   -0.0881   -2.3612 S   0  0  0  0  0  0  0  0  0  0  0  0
    5.7668    1.2569    1.1829 S   0  0  1  0  0  0  0  0  0  0  0  0
   -4.8685   -0.3730    1.2274 S   0  0  0  0  0  0  0  0  0  0  0  0
   -0.0914   -0.7242   -0.0205 O   0  0  0  0  0  0  0  0  0  0  0  0
    2.5450   -3.5245   -1.4744 O   0  0  0  0  0  0  0  0  0  0  0  0
    1.9994   -3.4217    1.3394 O   0  0  0  0  0  0  0  0  0  0  0  0
    0.2122   -2.8179   -3.0289 O   0  0  0  0  0  0  0  0  0  0  0  0
   -0.5411   -0.2450    2.6386 O   0  0  0  0  0  0  0  0  0  0  0  0
   -4.0953    0.5618    0.1356 O   0  0  0  0  0  0  0  0  0  0  0  0
    6.5864    1.5395   -0.0376 O   0  0  0  0  0  0  0  0  0  0  0  0
   -6.0810    0.5931    1.7311 O   0  0  0  0  0  0  0  0  0  0  0  0
   -5.4631   -1.4959    0.5269 O   0  0  0  0  0  0  0  0  0  0  0  0
   -3.9822   -0.5899    2.3556 O   0  0  0  0  0  0  0  0  0  0  0  0
   -3.0900   -0.1456   -0.5254 N   0  0  0  0  0  0  0  0  0  0  0  0
    1.3110   -3.0602   -0.9231 C   0  0  1  0  0  0  0  0  0  0  0  0
    1.6023   -2.4021    0.4261 C   0  0  1  0  0  0  0  0  0  0  0  0
    0.6640   -2.0726   -1.8992 C   0  0  2  0  0  0  0  0  0  0  0  0
    0.3631   -1.6703    0.9478 C   0  0  1  0  0  0  0  0  0  0  0  0
   -0.5082   -1.3401   -1.2389 C   0  0  2  0  0  0  0  0  0  0  0  0
    0.6478   -0.8977    2.2323 C   0  0  0  0  0  0  0  0  0  0  0  0
   -0.9954    3.0019   -0.0428 C   0  0  0  0  0  0  0  0  0  0  0  0
   -2.4632    2.9709   -0.4845 C   0  0  0  0  0  0  0  0  0  0  0  0
   -2.7695    2.0620   -1.6793 C   0  0  0  0  0  0  0  0  0  0  0  0
   -0.0448    3.4929   -1.1384 C   0  0  0  0  0  0  0  0  0  0  0  0
   -2.4771    0.5979   -1.3920 C   0  0  0  0  0  0  0  0  0  0  0  0
    1.4132    3.5852   -0.6768 C   0  0  0  0  0  0  0  0  0  0  0  0
    2.0146    2.2362   -0.2783 C   0  0  0  0  0  0  0  0  0  0  0  0
    3.4587    2.3947    0.2026 C   0  0  0  0  0  0  0  0  0  0  0  0
    4.0433    1.0570    0.6364 C   0  0  0  0  0  0  0  0  0  0  0  0
    6.0112   -0.4810    1.6187 C   0  0  0  0  0  0  0  0  0  0  0  0
    0.6824   -3.9496   -0.7946 H   0  0  0  0  0  0  0  0  0  0  0  0
    2.4441   -1.7073    0.3240 H   0  0  0  0  0  0  0  0  0  0  0  0
    1.4251   -1.3638   -2.2498 H   0  0  0  0  0  0  0  0  0  0  0  0
   -0.4527   -2.3769    1.1530 H   0  0  0  0  0  0  0  0  0  0  0  0
   -1.3178   -2.0506   -1.0299 H   0  0  0  0  0  0  0  0  0  0  0  0
    0.9760   -1.5649    3.0349 H   0  0  0  0  0  0  0  0  0  0  0  0
    1.4070   -0.1294    2.0689 H   0  0  0  0  0  0  0  0  0  0  0  0
    3.1267   -2.7558   -1.6024 H   0  0  0  0  0  0  0  0  0  0  0  0
    1.2443   -4.0209    1.4678 H   0  0  0  0  0  0  0  0  0  0  0  0
   -0.4850   -3.4260   -2.7293 H   0  0  0  0  0  0  0  0  0  0  0  0
   -0.7121    2.0022    0.2985 H   0  0  0  0  0  0  0  0  0  0  0  0
   -0.9099    3.6644    0.8274 H   0  0  0  0  0  0  0  0  0  0  0  0
   -2.7689    3.9913   -0.7489 H   0  0  0  0  0  0  0  0  0  0  0  0
   -3.0707    2.6964    0.3836 H   0  0  0  0  0  0  0  0  0  0  0  0
   -0.0884    2.8363   -2.0126 H   0  0  0  0  0  0  0  0  0  0  0  0
   -0.3667    4.4864   -1.4734 H   0  0  0  0  0  0  0  0  0  0  0  0
   -2.2381    2.4059   -2.5724 H   0  0  0  0  0  0  0  0  0  0  0  0
   -3.8378    2.1410   -1.9172 H   0  0  0  0  0  0  0  0  0  0  0  0
    2.0089    4.0190   -1.4895 H   0  0  0  0  0  0  0  0  0  0  0  0
    1.4783    4.2819    0.1680 H   0  0  0  0  0  0  0  0  0  0  0  0
    1.4308    1.7873    0.5307 H   0  0  0  0  0  0  0  0  0  0  0  0
    1.9774    1.5471   -1.1304 H   0  0  0  0  0  0  0  0  0  0  0  0
    3.4936    3.1038    1.0394 H   0  0  0  0  0  0  0  0  0  0  0  0
    4.0650    2.8270   -0.6032 H   0  0  0  0  0  0  0  0  0  0  0  0
   -0.3353    0.2467    3.4518 H   0  0  0  0  0  0  0  0  0  0  0  0
    3.4764    0.6480    1.4767 H   0  0  0  0  0  0  0  0  0  0  0  0
    4.0226    0.3377   -0.1888 H   0  0  0  0  0  0  0  0  0  0  0  0
    7.0434   -0.6147    1.9508 H   0  0  0  0  0  0  0  0  0  0  0  0
    5.8263   -1.1145    0.7478 H   0  0  0  0  0  0  0  0  0  0  0  0
    5.3329   -0.7531    2.4308 H   0  0  0  0  0  0  0  0  0  0  0  0
   -6.6778    0.2016    2.4113 H   0  0  0  0  0  0  0  0  0  0  0  0
  1 19  1  0  0  0  0
  1 25  1  0  0  0  0
  2 10  2  0  0  0  0
  2 29  1  0  0  0  0
  2 30  1  0  0  0  0
  3  9  1  0  0  0  0
  3 11  1  0  0  0  0
  3 12  2  0  0  0  0
  3 13  2  0  0  0  0
  4 18  1  0  0  0  0
  4 19  1  0  0  0  0
  5 15  1  0  0  0  0
  5 38  1  0  0  0  0
  6 16  1  0  0  0  0
  6 39  1  0  0  0  0
  7 17  1  0  0  0  0
  7 40  1  0  0  0  0
  8 20  1  0  0  0  0
  8 55  1  0  0  0  0
  9 14  1  0  0  0  0
 11 61  1  0  0  0  0
 14 25  2  0  0  0  0
 15 16  1  0  0  0  0
 15 17  1  0  0  0  0
 15 31  1  0  0  0  0
 16 18  1  0  0  0  0
 16 32  1  0  0  0  0
 17 19  1  0  0  0  0
 17 33  1  0  0  0  0
 18 20  1  0  0  0  0
 18 34  1  0  0  0  0
 19 35  1  0  0  0  0
 20 36  1  0  0  0  0
 20 37  1  0  0  0  0
 21 22  1  0  0  0  0
 21 24  1  0  0  0  0
 21 41  1  0  0  0  0
 21 42  1  0  0  0  0
 22 23  1  0  0  0  0
 22 43  1  0  0  0  0
 22 44  1  0  0  0  0
 23 25  1  0  0  0  0
 23 47  1  0  0  0  0
 23 48  1  0  0  0  0
 24 26  1  0  0  0  0
 24 45  1  0  0  0  0
 24 46  1  0  0  0  0
 26 27  1  0  0  0  0
 26 49  1  0  0  0  0
 26 50  1  0  0  0  0
 27 28  1  0  0  0  0
 27 51  1  0  0  0  0
 27 52  1  0  0  0  0
 28 29  1  0  0  0  0
 28 53  1  0  0  0  0
 28 54  1  0  0  0  0
 29 56  1  0  0  0  0
 29 57  1  0  0  0  0
 30 58  1  0  0  0  0
 30 59  1  0  0  0  0
 30 60  1  0  0  0  0
M  END
> <PUBCHEM_COMPOUND_CID>
46173880

> <PUBCHEM_CONFORMER_RMSD>
1.2

> <PUBCHEM_CONFORMER_DIVERSEORDER>
2
142
147
139
8
4
67
144
51
145
16
101
78
6
173
11
179
17
134
38
12
120
168
108
169
57
47
55
143
151
84
7
1
62
19
121
102
48
92
149
86
46
36
138
79
184
146
182
111
44
60
13
163
105
161
35
123
64
81
97
65
119
43
14
166
107
152
135
122
10
94
32
24
141
59
115
82
113
93
61
132
96
50
177
39
74
117
172
167
20
66
76
54
150
181
106
118
25
183
124
49
125
126
83
9
109
41
140
95
91
42
63
175
110
131
88
87
170
33
53
71
26
89
80
34
116
40
3
52
70
21
75
180
90
28
165
128
100
27
73
22
162
29
155
37
112
103
159
178
129
148
5
158
68
137
30
18
104
69
174
133
58
127
153
98
45
56
176
160
156
136
72
15
23
99
157
154
85
114
164
77
171
31
130

> <PUBCHEM_MMFF94_PARTIAL_CHARGES>
29
1 -0.37
10 -0.5
11 -0.68
12 -0.65
13 -0.65
14 -0.51
15 0.28
16 0.28
17 0.28
18 0.28
19 0.51
2 0.11
20 0.28
23 0.06
25 0.53
29 0.19
3 1.67
30 0.19
38 0.4
39 0.4
4 -0.56
40 0.4
5 -0.68
55 0.4
6 -0.68
61 0.5
7 -0.68
8 -0.68
9 -0.12

> <PUBCHEM_EFFECTIVE_ROTOR_COUNT>
15.2

> <PUBCHEM_PHARMACOPHORE_FEATURES>
16
1 10 acceptor
1 11 acceptor
1 12 acceptor
1 13 acceptor
1 14 acceptor
1 4 acceptor
1 5 acceptor
1 5 donor
1 6 acceptor
1 6 donor
1 7 acceptor
1 7 donor
1 8 acceptor
1 8 donor
4 3 11 12 13 anion
6 4 15 16 17 18 19 rings

> <PUBCHEM_HEAVY_ATOM_COUNT>
30

> <PUBCHEM_ATOM_DEF_STEREO_COUNT>
5

> <PUBCHEM_ATOM_UDEF_STEREO_COUNT>
1

> <PUBCHEM_BOND_DEF_STEREO_COUNT>
0

> <PUBCHEM_BOND_UDEF_STEREO_COUNT>
1

> <PUBCHEM_ISOTOPIC_ATOM_COUNT>
0

> <PUBCHEM_COMPONENT_COUNT>
1

> <PUBCHEM_CACTVS_TAUTO_COUNT>
1

> <PUBCHEM_CONFORMER_ID>
02C08EB800000002

> <PUBCHEM_MMFF94_ENERGY>
42.5338

> <PUBCHEM_FEATURE_SELFOVERLAP>
81.269

> <PUBCHEM_SHAPE_MULTIPOLES>
565.26
10.9
4.72
2.5
4.87
0.45
-0.13
2.92
7.43
2.43
-2.06
-1.39
-1.65
0.99

> <PUBCHEM_SHAPE_SELFOVERLAP>
1066.692

> <PUBCHEM_SHAPE_VOLUME>
350.4

> <PUBCHEM_COORDINATE_TYPE>
2
5
10

$$$$

