441936
  -OEChem-07051212563D

 76 81  0     1  0  0  0  0  0999 V2000
    3.6482   -2.9232   -0.6558 O   0  0  0  0  0  0  0  0  0  0  0  0
    2.6463   -1.5052   -2.1431 O   0  0  0  0  0  0  0  0  0  0  0  0
   -6.9659    0.3515    0.6314 O   0  0  0  0  0  0  0  0  0  0  0  0
    3.5813    0.8320   -0.7962 C   0  0  2  0  0  0  0  0  0  0  0  0
    3.8349   -0.5909   -0.2866 C   0  0  2  0  0  0  0  0  0  0  0  0
    4.4299    1.4647    0.3366 C   0  0  1  0  0  0  0  0  0  0  0  0
    1.0998    0.7052    0.1843 C   0  0  2  0  0  0  0  0  0  0  0  0
    3.2453   -0.4766    1.1362 C   0  0  1  0  0  0  0  0  0  0  0  0
   -0.2841    0.1097   -0.4462 C   0  0  1  0  0  0  0  0  0  0  0  0
    2.0915    1.2051   -0.9226 C   0  0  0  0  0  0  0  0  0  0  0  0
    3.8811    0.8360    1.6430 C   0  0  0  0  0  0  0  0  0  0  0  0
    1.7303   -0.3705    1.0809 C   0  0  0  0  0  0  0  0  0  0  0  0
   -1.2195   -0.2956    0.7580 C   0  0  1  0  0  0  0  0  0  0  0  0
    5.3791   -0.6649   -0.2288 C   0  0  0  0  0  0  0  0  0  0  0  0
    5.7927    0.7800    0.0730 C   0  0  0  0  0  0  0  0  0  0  0  0
   -2.7312   -0.6377    0.4035 C   0  0  2  0  0  0  0  0  0  0  0  0
   -3.2975    0.5835   -0.4147 C   0  0  1  0  0  0  0  0  0  0  0  0
   -1.0009    1.1565   -1.3479 C   0  0  0  0  0  0  0  0  0  0  0  0
   -0.5323   -1.3118    1.7094 C   0  0  0  0  0  0  0  0  0  0  0  0
   -2.4607    0.8330   -1.6868 C   0  0  0  0  0  0  0  0  0  0  0  0
    0.9671   -1.2371    1.7723 C   0  0  0  0  0  0  0  0  0  0  0  0
    4.5394    2.9745    0.3522 C   0  0  0  0  0  0  0  0  0  0  0  0
    0.8021    1.9354    1.1063 C   0  0  0  0  0  0  0  0  0  0  0  0
    0.0209   -1.1254   -1.3485 C   0  0  0  0  0  0  0  0  0  0  0  0
    3.3072   -1.7027   -1.1347 C   0  0  0  0  0  0  0  0  0  0  0  0
   -4.8570    0.6018   -0.6323 C   0  0  0  0  0  0  0  0  0  0  0  0
   -3.5337   -0.7483    1.7352 C   0  0  0  0  0  0  0  0  0  0  0  0
   -2.8691   -1.9878   -0.3447 C   0  0  0  0  0  0  0  0  0  0  0  0
   -5.5464    0.4353    0.7549 C   0  0  2  0  0  0  0  0  0  0  0  0
   -5.0494   -0.7648    1.5546 C   0  0  0  0  0  0  0  0  0  0  0  0
   -5.2925    1.9836   -1.1949 C   0  0  0  0  0  0  0  0  0  0  0  0
   -5.3569   -0.4451   -1.6481 C   0  0  0  0  0  0  0  0  0  0  0  0
    4.0502    1.0077   -1.7752 H   0  0  0  0  0  0  0  0  0  0  0  0
    3.5575   -1.3181    1.7666 H   0  0  0  0  0  0  0  0  0  0  0  0
    2.0141    2.2955   -1.0279 H   0  0  0  0  0  0  0  0  0  0  0  0
    1.7681    0.8382   -1.9002 H   0  0  0  0  0  0  0  0  0  0  0  0
    3.1877    1.4767    2.1884 H   0  0  0  0  0  0  0  0  0  0  0  0
    4.6935    0.6190    2.3486 H   0  0  0  0  0  0  0  0  0  0  0  0
   -1.3157    0.6168    1.3630 H   0  0  0  0  0  0  0  0  0  0  0  0
    5.8167   -0.9918   -1.1796 H   0  0  0  0  0  0  0  0  0  0  0  0
    5.7267   -1.3530    0.5501 H   0  0  0  0  0  0  0  0  0  0  0  0
    6.4786    0.8418    0.9244 H   0  0  0  0  0  0  0  0  0  0  0  0
    6.2980    1.2182   -0.7964 H   0  0  0  0  0  0  0  0  0  0  0  0
   -3.1114    1.4659    0.2209 H   0  0  0  0  0  0  0  0  0  0  0  0
   -0.4513    1.2954   -2.2868 H   0  0  0  0  0  0  0  0  0  0  0  0
   -1.0118    2.1402   -0.8734 H   0  0  0  0  0  0  0  0  0  0  0  0
   -0.7796   -2.3394    1.4304 H   0  0  0  0  0  0  0  0  0  0  0  0
   -0.9187   -1.1702    2.7262 H   0  0  0  0  0  0  0  0  0  0  0  0
   -2.8528    1.6900   -2.2433 H   0  0  0  0  0  0  0  0  0  0  0  0
   -2.5063   -0.0140   -2.3763 H   0  0  0  0  0  0  0  0  0  0  0  0
    1.4460   -1.9884    2.3961 H   0  0  0  0  0  0  0  0  0  0  0  0
    4.9350    3.3489   -0.5981 H   0  0  0  0  0  0  0  0  0  0  0  0
    3.5705    3.4529    0.5149 H   0  0  0  0  0  0  0  0  0  0  0  0
    5.2123    3.3078    1.1495 H   0  0  0  0  0  0  0  0  0  0  0  0
    0.0935    2.6390    0.6673 H   0  0  0  0  0  0  0  0  0  0  0  0
    0.4103    1.6442    2.0872 H   0  0  0  0  0  0  0  0  0  0  0  0
    1.6946    2.5321    1.3011 H   0  0  0  0  0  0  0  0  0  0  0  0
    0.5494   -0.8216   -2.2521 H   0  0  0  0  0  0  0  0  0  0  0  0
    0.5616   -1.9212   -0.8349 H   0  0  0  0  0  0  0  0  0  0  0  0
   -0.8823   -1.5811   -1.7468 H   0  0  0  0  0  0  0  0  0  0  0  0
   -3.2831    0.1001    2.3859 H   0  0  0  0  0  0  0  0  0  0  0  0
   -3.2396   -1.6524    2.2826 H   0  0  0  0  0  0  0  0  0  0  0  0
   -2.8954   -1.8773   -1.4300 H   0  0  0  0  0  0  0  0  0  0  0  0
   -2.0672   -2.6899   -0.1083 H   0  0  0  0  0  0  0  0  0  0  0  0
   -3.7876   -2.5186   -0.0799 H   0  0  0  0  0  0  0  0  0  0  0  0
   -5.3449    1.3375    1.3486 H   0  0  0  0  0  0  0  0  0  0  0  0
   -5.3889   -1.6968    1.0903 H   0  0  0  0  0  0  0  0  0  0  0  0
   -5.5255   -0.7613    2.5438 H   0  0  0  0  0  0  0  0  0  0  0  0
   -4.9518    2.1330   -2.2242 H   0  0  0  0  0  0  0  0  0  0  0  0
   -6.3839    2.0840   -1.2100 H   0  0  0  0  0  0  0  0  0  0  0  0
   -4.8967    2.8033   -0.5850 H   0  0  0  0  0  0  0  0  0  0  0  0
   -4.8038   -0.3905   -2.5909 H   0  0  0  0  0  0  0  0  0  0  0  0
   -5.2884   -1.4663   -1.2719 H   0  0  0  0  0  0  0  0  0  0  0  0
   -6.4136   -0.2813   -1.8922 H   0  0  0  0  0  0  0  0  0  0  0  0
    3.2973   -3.6474   -1.2165 H   0  0  0  0  0  0  0  0  0  0  0  0
   -7.3381    0.3029    1.5284 H   0  0  0  0  0  0  0  0  0  0  0  0
  1 25  1  0  0  0  0
  1 75  1  0  0  0  0
  2 25  2  0  0  0  0
  3 29  1  0  0  0  0
  3 76  1  0  0  0  0
  4  5  1  0  0  0  0
  4  6  1  0  0  0  0
  4 10  1  0  0  0  0
  4 33  1  0  0  0  0
  5  8  1  0  0  0  0
  5 14  1  0  0  0  0
  5 25  1  0  0  0  0
  6 11  1  0  0  0  0
  6 15  1  0  0  0  0
  6 22  1  0  0  0  0
  7  9  1  0  0  0  0
  7 10  1  0  0  0  0
  7 12  1  0  0  0  0
  7 23  1  0  0  0  0
  8 11  1  0  0  0  0
  8 12  1  0  0  0  0
  8 34  1  0  0  0  0
  9 13  1  0  0  0  0
  9 18  1  0  0  0  0
  9 24  1  0  0  0  0
 10 35  1  0  0  0  0
 10 36  1  0  0  0  0
 11 37  1  0  0  0  0
 11 38  1  0  0  0  0
 12 21  2  0  0  0  0
 13 16  1  0  0  0  0
 13 19  1  0  0  0  0
 13 39  1  0  0  0  0
 14 15  1  0  0  0  0
 14 40  1  0  0  0  0
 14 41  1  0  0  0  0
 15 42  1  0  0  0  0
 15 43  1  0  0  0  0
 16 17  1  0  0  0  0
 16 27  1  0  0  0  0
 16 28  1  0  0  0  0
 17 20  1  0  0  0  0
 17 26  1  0  0  0  0
 17 44  1  0  0  0  0
 18 20  1  0  0  0  0
 18 45  1  0  0  0  0
 18 46  1  0  0  0  0
 19 21  1  0  0  0  0
 19 47  1  0  0  0  0
 19 48  1  0  0  0  0
 20 49  1  0  0  0  0
 20 50  1  0  0  0  0
 21 51  1  0  0  0  0
 22 52  1  0  0  0  0
 22 53  1  0  0  0  0
 22 54  1  0  0  0  0
 23 55  1  0  0  0  0
 23 56  1  0  0  0  0
 23 57  1  0  0  0  0
 24 58  1  0  0  0  0
 24 59  1  0  0  0  0
 24 60  1  0  0  0  0
 26 29  1  0  0  0  0
 26 31  1  0  0  0  0
 26 32  1  0  0  0  0
 27 30  1  0  0  0  0
 27 61  1  0  0  0  0
 27 62  1  0  0  0  0
 28 63  1  0  0  0  0
 28 64  1  0  0  0  0
 28 65  1  0  0  0  0
 29 30  1  0  0  0  0
 29 66  1  0  0  0  0
 30 67  1  0  0  0  0
 30 68  1  0  0  0  0
 31 69  1  0  0  0  0
 31 70  1  0  0  0  0
 31 71  1  0  0  0  0
 32 72  1  0  0  0  0
 32 73  1  0  0  0  0
 32 74  1  0  0  0  0
M  END
> <PUBCHEM_COMPOUND_CID>
441936

> <PUBCHEM_CONFORMER_RMSD>
0.8

> <PUBCHEM_CONFORMER_DIVERSEORDER>
1

> <PUBCHEM_MMFF94_PARTIAL_CHARGES>
14
1 -0.65
12 -0.28
19 0.14
2 -0.57
21 -0.29
25 0.66
29 0.28
3 -0.68
5 0.06
51 0.15
7 0.14
75 0.5
76 0.4
8 0.14

> <PUBCHEM_EFFECTIVE_ROTOR_COUNT>
3.2

> <PUBCHEM_PHARMACOPHORE_FEATURES>
11
1 1 acceptor
1 2 acceptor
1 3 acceptor
1 3 donor
3 1 2 25 anion
3 26 31 32 hydrophobe
6 16 17 26 27 29 30 rings
6 7 9 12 13 19 21 rings
6 9 13 16 17 18 20 rings
7 4 5 6 8 11 14 15 rings
8 4 5 6 7 8 10 11 12 rings

> <PUBCHEM_HEAVY_ATOM_COUNT>
32

> <PUBCHEM_ATOM_DEF_STEREO_COUNT>
10

> <PUBCHEM_ATOM_UDEF_STEREO_COUNT>
0

> <PUBCHEM_BOND_DEF_STEREO_COUNT>
0

> <PUBCHEM_BOND_UDEF_STEREO_COUNT>
0

> <PUBCHEM_ISOTOPIC_ATOM_COUNT>
0

> <PUBCHEM_COMPONENT_COUNT>
1

> <PUBCHEM_CACTVS_TAUTO_COUNT>
1

> <PUBCHEM_CONFORMER_ID>
0006BE5000000001

> <PUBCHEM_MMFF94_ENERGY>
169.5541

> <PUBCHEM_FEATURE_SELFOVERLAP>
57.643

> <PUBCHEM_SHAPE_FINGERPRINT>
11488393 25 18124594442520701923
11578080 2 18049159973833381944
12107183 9 16085558963673395059
12166972 35 15213306279211063729
12236239 1 16370725932925852404
12403259 415 18059576862795283840
12422481 6 15554182461606274831
12596602 18 16588030069533897639
12730499 353 18412823590838442906
12788726 201 18337677528282786384
13224815 77 16774080673926732594
13533116 47 17677048048523812295
13583140 156 17604433985685241123
13782708 43 18272649051946406818
14294032 229 15768663151444226605
14341114 328 14908179750629714649
14790565 3 17561075886984214117
15183329 4 14779267536233943409
15238133 3 16630525171961638165
15324884 4 17979328908559217066
15788980 27 18202565059852336039
1601671 61 18260832574807456184
17349148 13 5400797280620306873
17844677 252 18335979856775785341
17980427 23 17487622914713291668
1813 80 14261352483342350095
18222031 100 6050443716969564779
20511986 3 16153720833363277480
21033648 29 18411993451027845857
21033650 10 16557332959433606508
21781051 124 16127789955476268707
21792961 116 18341045316273101974
22149856 69 17346305064728703393
23557571 272 17774996895159169446
23559900 14 17845926429149019678
23569914 152 17115539757163704847
23569914 2 17686110146294209329
239999 70 18131067134903386644
3004659 81 14996285812001906168
32027 91 18266456697069826466
3411729 13 16915363409056054756
34797466 226 18410852157788921625
350125 39 17203057395236813354
4093350 32 18261670480393840779
4340502 62 18060703870792899088
5104073 3 17489319602045215769
7495541 125 8935000378181117140

> <PUBCHEM_SHAPE_MULTIPOLES>
640.94
13.8
2.15
1.81
8.88
0.22
0.13
2.97
-0.35
-1.28
0.14
0.25
-0.43
1.84

> <PUBCHEM_SHAPE_SELFOVERLAP>
1401.993

> <PUBCHEM_SHAPE_VOLUME>
347.8

> <PUBCHEM_COORDINATE_TYPE>
2
5
10

$$$$

