442751
  -OEChem-07051212593D

 53 55  0     1  0  0  0  0  0999 V2000
   -0.2151    0.3424   -0.1465 O   0  0  0  0  0  0  0  0  0  0  0  0
    2.5794   -1.9010   -0.4827 O   0  0  0  0  0  0  0  0  0  0  0  0
    0.9883   -0.3437   -1.9882 O   0  0  0  0  0  0  0  0  0  0  0  0
   -0.7034   -4.1760    0.6935 O   0  0  0  0  0  0  0  0  0  0  0  0
    0.1100   -3.2511   -1.2560 O   0  0  0  0  0  0  0  0  0  0  0  0
   -4.2747    1.8272    0.7982 N   0  0  1  0  0  0  0  0  0  0  0  0
   -3.0354    1.0186    0.6375 C   0  0  2  0  0  0  0  0  0  0  0  0
   -2.0444    1.8992   -0.1269 C   0  0  2  0  0  0  0  0  0  0  0  0
   -3.4738   -0.2878   -0.0203 C   0  0  0  0  0  0  0  0  0  0  0  0
   -2.9536    2.8346   -0.9105 C   0  0  0  0  0  0  0  0  0  0  0  0
   -4.0768    3.0955    0.0813 C   0  0  0  0  0  0  0  0  0  0  0  0
   -5.3915    1.0435    0.2501 C   0  0  0  0  0  0  0  0  0  0  0  0
   -4.9322   -0.3958    0.3756 C   0  0  0  0  0  0  0  0  0  0  0  0
   -1.0167    1.1809   -0.9841 C   0  0  0  0  0  0  0  0  0  0  0  0
    0.7588   -0.3702   -0.7851 C   0  0  0  0  0  0  0  0  0  0  0  0
    1.5434   -1.2162    0.2182 C   0  0  2  0  0  0  0  0  0  0  0  0
    2.2144   -0.3273    1.2929 C   0  0  0  0  0  0  0  0  0  0  0  0
    0.6478   -2.2662    0.9084 C   0  0  0  0  0  0  0  0  0  0  0  0
    3.1980    0.6894    0.7544 C   0  0  0  0  0  0  0  0  0  0  0  0
   -0.0036   -3.2581   -0.0378 C   0  0  0  0  0  0  0  0  0  0  0  0
    4.5441    0.3516    0.6149 C   0  0  0  0  0  0  0  0  0  0  0  0
    2.7582    1.9641    0.3971 C   0  0  0  0  0  0  0  0  0  0  0  0
    5.4506    1.2883    0.1184 C   0  0  0  0  0  0  0  0  0  0  0  0
    3.6647    2.9008   -0.0994 C   0  0  0  0  0  0  0  0  0  0  0  0
    5.0109    2.5629   -0.2388 C   0  0  0  0  0  0  0  0  0  0  0  0
   -1.3474   -5.2056   -0.0640 C   0  0  0  0  0  0  0  0  0  0  0  0
   -2.6374    0.7944    1.6353 H   0  0  0  0  0  0  0  0  0  0  0  0
   -1.5018    2.4978    0.6205 H   0  0  0  0  0  0  0  0  0  0  0  0
   -2.8896   -1.1457    0.3259 H   0  0  0  0  0  0  0  0  0  0  0  0
   -3.4084   -0.2433   -1.1130 H   0  0  0  0  0  0  0  0  0  0  0  0
   -2.4432    3.7563   -1.2059 H   0  0  0  0  0  0  0  0  0  0  0  0
   -3.3406    2.3463   -1.8130 H   0  0  0  0  0  0  0  0  0  0  0  0
   -3.7542    3.8514    0.8078 H   0  0  0  0  0  0  0  0  0  0  0  0
   -4.9824    3.4806   -0.3999 H   0  0  0  0  0  0  0  0  0  0  0  0
   -6.3155    1.2274    0.8066 H   0  0  0  0  0  0  0  0  0  0  0  0
   -5.5749    1.2698   -0.8084 H   0  0  0  0  0  0  0  0  0  0  0  0
   -5.0261   -0.7480    1.4100 H   0  0  0  0  0  0  0  0  0  0  0  0
   -5.4913   -1.0735   -0.2757 H   0  0  0  0  0  0  0  0  0  0  0  0
   -1.4862    0.5806   -1.7706 H   0  0  0  0  0  0  0  0  0  0  0  0
   -0.3667    1.9220   -1.4656 H   0  0  0  0  0  0  0  0  0  0  0  0
    1.4547    0.1965    1.8884 H   0  0  0  0  0  0  0  0  0  0  0  0
    2.7557   -0.9656    2.0054 H   0  0  0  0  0  0  0  0  0  0  0  0
    1.2607   -2.8574    1.6009 H   0  0  0  0  0  0  0  0  0  0  0  0
   -0.1514   -1.7725    1.4736 H   0  0  0  0  0  0  0  0  0  0  0  0
    2.1708   -2.4765   -1.1508 H   0  0  0  0  0  0  0  0  0  0  0  0
    4.9001   -0.6378    0.8895 H   0  0  0  0  0  0  0  0  0  0  0  0
    1.7153    2.2466    0.5086 H   0  0  0  0  0  0  0  0  0  0  0  0
    6.4988    1.0253    0.0099 H   0  0  0  0  0  0  0  0  0  0  0  0
    3.3229    3.8940   -0.3757 H   0  0  0  0  0  0  0  0  0  0  0  0
    5.7167    3.2924   -0.6250 H   0  0  0  0  0  0  0  0  0  0  0  0
   -2.0840   -4.7692   -0.7454 H   0  0  0  0  0  0  0  0  0  0  0  0
   -0.6056   -5.7888   -0.6177 H   0  0  0  0  0  0  0  0  0  0  0  0
   -1.8650   -5.8684    0.6345 H   0  0  0  0  0  0  0  0  0  0  0  0
  1 14  1  0  0  0  0
  1 15  1  0  0  0  0
  2 16  1  0  0  0  0
  2 45  1  0  0  0  0
  3 15  2  0  0  0  0
  4 20  1  0  0  0  0
  4 26  1  0  0  0  0
  5 20  2  0  0  0  0
  6  7  1  0  0  0  0
  6 11  1  0  0  0  0
  6 12  1  0  0  0  0
  7  8  1  0  0  0  0
  7  9  1  0  0  0  0
  7 27  1  0  0  0  0
  8 10  1  0  0  0  0
  8 14  1  0  0  0  0
  8 28  1  0  0  0  0
  9 13  1  0  0  0  0
  9 29  1  0  0  0  0
  9 30  1  0  0  0  0
 10 11  1  0  0  0  0
 10 31  1  0  0  0  0
 10 32  1  0  0  0  0
 11 33  1  0  0  0  0
 11 34  1  0  0  0  0
 12 13  1  0  0  0  0
 12 35  1  0  0  0  0
 12 36  1  0  0  0  0
 13 37  1  0  0  0  0
 13 38  1  0  0  0  0
 14 39  1  0  0  0  0
 14 40  1  0  0  0  0
 15 16  1  0  0  0  0
 16 17  1  0  0  0  0
 16 18  1  0  0  0  0
 17 19  1  0  0  0  0
 17 41  1  0  0  0  0
 17 42  1  0  0  0  0
 18 20  1  0  0  0  0
 18 43  1  0  0  0  0
 18 44  1  0  0  0  0
 19 21  2  0  0  0  0
 19 22  1  0  0  0  0
 21 23  1  0  0  0  0
 21 46  1  0  0  0  0
 22 24  2  0  0  0  0
 22 47  1  0  0  0  0
 23 25  2  0  0  0  0
 23 48  1  0  0  0  0
 24 25  1  0  0  0  0
 24 49  1  0  0  0  0
 25 50  1  0  0  0  0
 26 51  1  0  0  0  0
 26 52  1  0  0  0  0
 26 53  1  0  0  0  0
M  END
> <PUBCHEM_COMPOUND_CID>
442751

> <PUBCHEM_CONFORMER_RMSD>
1.2

> <PUBCHEM_CONFORMER_DIVERSEORDER>
1
83
44
100
51
93
24
29
90
49
106
67
102
34
84
33
57
13
92
22
108
99
70
7
18
11
40
107
23
78
64
9
69
6
101
82
48
8
54
105
56
21
81
5
17
72
85
4
47
65
97
77
45
46
30
66
80
71
41
94
95
96
37
20
75
10
32
12
103
14
59
91
79
27
73
60
87
31
50
15
68
53
89
76
19
88
63
26
16
25
62
28
3
35
39
104
98
55
86
61
38
42
2
52
43
109
36
74
58

> <PUBCHEM_MMFF94_PARTIAL_CHARGES>
28
1 -0.43
11 0.27
12 0.27
14 0.28
15 0.66
16 0.34
17 0.14
18 0.06
19 -0.14
2 -0.68
20 0.66
21 -0.15
22 -0.15
23 -0.15
24 -0.15
25 -0.15
26 0.28
3 -0.57
4 -0.43
45 0.4
46 0.15
47 0.15
48 0.15
49 0.15
5 -0.57
50 0.15
6 -0.81
7 0.27

> <PUBCHEM_EFFECTIVE_ROTOR_COUNT>
10.2

> <PUBCHEM_PHARMACOPHORE_FEATURES>
8
1 2 acceptor
1 2 donor
1 3 acceptor
1 5 acceptor
1 6 cation
5 6 7 8 10 11 rings
5 6 7 9 12 13 rings
6 19 21 22 23 24 25 rings

> <PUBCHEM_HEAVY_ATOM_COUNT>
26

> <PUBCHEM_ATOM_DEF_STEREO_COUNT>
3

> <PUBCHEM_ATOM_UDEF_STEREO_COUNT>
0

> <PUBCHEM_BOND_DEF_STEREO_COUNT>
0

> <PUBCHEM_BOND_UDEF_STEREO_COUNT>
0

> <PUBCHEM_ISOTOPIC_ATOM_COUNT>
0

> <PUBCHEM_COMPONENT_COUNT>
1

> <PUBCHEM_CACTVS_TAUTO_COUNT>
1

> <PUBCHEM_CONFORMER_ID>
0006C17F00000001

> <PUBCHEM_MMFF94_ENERGY>
54.9107

> <PUBCHEM_FEATURE_SELFOVERLAP>
41.009

> <PUBCHEM_SHAPE_FINGERPRINT>
10074138 170 18123775066087019914
10090160 65 18336836376302122277
1100329 8 17980198591569660757
12160290 23 17832181279592027022
12788726 201 17908998603585011178
13583140 156 18051139391200316693
138480 1 17690281937984749555
1454969 45 18338238159654733773
14787075 74 18260552178062761145
14790565 3 18411416198395699328
14840074 17 17988925526891377469
15183329 4 8286206045668365801
15927050 60 18410295818044370290
17980427 23 17489862739530700493
21133410 32 16117609689327744987
21202864 24 18339921494007103210
21756936 100 18262529091659272516
23419403 2 17027919374703286910
23558518 356 18264226776056476070
23559900 14 18051136092427906489
469060 322 16126991585565113302
474 4 18337113470201266032
5104073 3 18199176473044451937
5486654 2 18339079285554376429
6442390 28 18411698811543472582
7808743 9 18267586806444993848
9777508 108 18337395911756264210

> <PUBCHEM_SHAPE_MULTIPOLES>
500.74
10.53
5.35
1.08
0.46
7.31
0.22
-10.62
-1.81
-2.26
0.4
0.14
0.15
-0.03

> <PUBCHEM_SHAPE_SELFOVERLAP>
1050.355

> <PUBCHEM_SHAPE_VOLUME>
283

> <PUBCHEM_COORDINATE_TYPE>
2
5
10

$$$$

