5281293
  -OEChem-07051212562D

 31 34  0     0  0  0  0  0  0999 V2000
    5.9989   -0.4186    0.0000 O   0  0  0  0  0  0  0  0  0  0  0  0
    2.5836   -0.0563    0.0000 O   0  0  0  0  0  0  0  0  0  0  0  0
    2.5836    1.5532    0.0000 O   0  0  0  0  0  0  0  0  0  0  0  0
    4.3958    2.7485    0.0000 O   0  0  0  0  0  0  0  0  0  0  0  0
    3.9372   -1.9677    0.0000 O   0  0  0  0  0  0  0  0  0  0  0  0
    4.3958   -0.2515    0.0000 C   0  0  0  0  0  0  0  0  0  0  0  0
    3.5298    0.2485    0.0000 C   0  0  0  0  0  0  0  0  0  0  0  0
    5.2619    0.2485    0.0000 C   0  0  0  0  0  0  0  0  0  0  0  0
    3.5298    1.2485    0.0000 C   0  0  0  0  0  0  0  0  0  0  0  0
    4.6051   -1.2234    0.0000 C   0  0  0  0  0  0  0  0  0  0  0  0
    5.5938   -1.3264    0.0000 C   0  0  0  0  0  0  0  0  0  0  0  0
    5.2619    1.2485    0.0000 C   0  0  0  0  0  0  0  0  0  0  0  0
    4.3958    1.7485    0.0000 C   0  0  0  0  0  0  0  0  0  0  0  0
    2.0000    0.7485    0.0000 C   0  0  0  0  0  0  0  0  0  0  0  0
    6.0938   -2.1924    0.0000 C   0  0  0  0  0  0  0  0  0  0  0  0
    7.0938   -2.1924    0.0000 C   0  0  0  0  0  0  0  0  0  0  0  0
    7.5938   -3.0585    0.0000 C   0  0  0  0  0  0  0  0  0  0  0  0
    7.5938   -1.3264    0.0000 C   0  0  0  0  0  0  0  0  0  0  0  0
    8.5938   -3.0585    0.0000 C   0  0  0  0  0  0  0  0  0  0  0  0
    8.5938   -1.3264    0.0000 C   0  0  0  0  0  0  0  0  0  0  0  0
    9.0938   -2.1924    0.0000 C   0  0  0  0  0  0  0  0  0  0  0  0
    5.7988    1.5585    0.0000 H   0  0  0  0  0  0  0  0  0  0  0  0
    1.5391    1.1632    0.0000 H   0  0  0  0  0  0  0  0  0  0  0  0
    1.5391    0.3337    0.0000 H   0  0  0  0  0  0  0  0  0  0  0  0
    5.7838   -2.7294    0.0000 H   0  0  0  0  0  0  0  0  0  0  0  0
    4.9328    3.0585    0.0000 H   0  0  0  0  0  0  0  0  0  0  0  0
    7.2838   -3.5954    0.0000 H   0  0  0  0  0  0  0  0  0  0  0  0
    7.2838   -0.7895    0.0000 H   0  0  0  0  0  0  0  0  0  0  0  0
    8.9038   -3.5954    0.0000 H   0  0  0  0  0  0  0  0  0  0  0  0
    8.9038   -0.7895    0.0000 H   0  0  0  0  0  0  0  0  0  0  0  0
    9.7138   -2.1924    0.0000 H   0  0  0  0  0  0  0  0  0  0  0  0
  1  8  1  0  0  0  0
  1 11  1  0  0  0  0
  2  7  1  0  0  0  0
  2 14  1  0  0  0  0
  3  9  1  0  0  0  0
  3 14  1  0  0  0  0
  4 13  1  0  0  0  0
  4 26  1  0  0  0  0
  5 10  2  0  0  0  0
  6  7  1  0  0  0  0
  6  8  2  0  0  0  0
  6 10  1  0  0  0  0
  7  9  2  0  0  0  0
  8 12  1  0  0  0  0
  9 13  1  0  0  0  0
 10 11  1  0  0  0  0
 11 15  2  0  0  0  0
 12 13  2  0  0  0  0
 12 22  1  0  0  0  0
 14 23  1  0  0  0  0
 14 24  1  0  0  0  0
 15 16  1  0  0  0  0
 15 25  1  0  0  0  0
 16 17  2  0  0  0  0
 16 18  1  0  0  0  0
 17 19  1  0  0  0  0
 17 27  1  0  0  0  0
 18 20  2  0  0  0  0
 18 28  1  0  0  0  0
 19 21  2  0  0  0  0
 19 29  1  0  0  0  0
 20 21  1  0  0  0  0
 20 30  1  0  0  0  0
 21 31  1  0  0  0  0
M  END
> <PUBCHEM_COMPOUND_CID>
5281293

> <PUBCHEM_COMPOUND_CANONICALIZED>
1

> <PUBCHEM_CACTVS_COMPLEXITY>
454

> <PUBCHEM_CACTVS_HBOND_ACCEPTOR>
5

> <PUBCHEM_CACTVS_HBOND_DONOR>
1

> <PUBCHEM_CACTVS_ROTATABLE_BOND>
1

> <PUBCHEM_CACTVS_SUBSKEYS>
AAADccB4OAAAAAAAAAAAAAAAAAAAASJAAAAwYAAAAAAAAEgBQAAAGgAACAAADASAmAMwDoAABgCIAqBSAAICCAAkIAAIiAFGiMgdJzaGNR6ieWOl4BUPuYfK7LzOIQABCAAIQABCAAIQABCAAAAAAAAAAA==

> <PUBCHEM_IUPAC_OPENEYE_NAME>
(7Z)-7-benzylidene-4-hydroxy-furo[2,3-g][1,3]benzodioxol-8-one

> <PUBCHEM_IUPAC_CAS_NAME>
(7Z)-4-hydroxy-7-(phenylmethylene)-8-furo[2,3-g][1,3]benzodioxolone

> <PUBCHEM_IUPAC_NAME>
(7Z)-7-benzylidene-4-hydroxyfuro[2,3-g][1,3]benzodioxol-8-one

> <PUBCHEM_IUPAC_SYSTEMATIC_NAME>
(7Z)-4-oxidanyl-7-(phenylmethylidene)furo[2,3-g][1,3]benzodioxol-8-one

> <PUBCHEM_IUPAC_TRADITIONAL_NAME>
(7Z)-7-benzal-4-hydroxy-furo[2,3-g][1,3]benzodioxol-8-one

> <PUBCHEM_IUPAC_INCHI>
InChI=1S/C16H10O5/c17-10-7-11-13(16-15(10)19-8-20-16)14(18)12(21-11)6-9-4-2-1-3-5-9/h1-7,17H,8H2/b12-6-

> <PUBCHEM_IUPAC_INCHIKEY>
KLYHONUCJQKOKE-SDQBBNPISA-N

> <PUBCHEM_XLOGP3_AA>
3.1

> <PUBCHEM_EXACT_MASS>
282.052823

> <PUBCHEM_MOLECULAR_FORMULA>
C16H10O5

> <PUBCHEM_MOLECULAR_WEIGHT>
282.2476

> <PUBCHEM_OPENEYE_CAN_SMILES>
C1OC2=C(C=C3C(=C2O1)C(=O)C(=CC4=CC=CC=C4)O3)O

> <PUBCHEM_OPENEYE_ISO_SMILES>
C1OC2=C(C=C3C(=C2O1)C(=O)/C(=C/C4=CC=CC=C4)/O3)O

> <PUBCHEM_CACTVS_TPSA>
65

> <PUBCHEM_MONOISOTOPIC_WEIGHT>
282.052823

> <PUBCHEM_TOTAL_CHARGE>
0

> <PUBCHEM_HEAVY_ATOM_COUNT>
21

> <PUBCHEM_ATOM_DEF_STEREO_COUNT>
0

> <PUBCHEM_ATOM_UDEF_STEREO_COUNT>
0

> <PUBCHEM_BOND_DEF_STEREO_COUNT>
1

> <PUBCHEM_BOND_UDEF_STEREO_COUNT>
0

> <PUBCHEM_ISOTOPIC_ATOM_COUNT>
0

> <PUBCHEM_COMPONENT_COUNT>
1

> <PUBCHEM_CACTVS_TAUTO_COUNT>
4

> <PUBCHEM_COORDINATE_TYPE>
1
5
255

> <PUBCHEM_BONDANNOTATIONS>
12  13  8
16  17  8
16  18  8
17  19  8
18  20  8
19  21  8
20  21  8
6  7  8
6  8  8
7  9  8
8  12  8
9  13  8

$$$$

