50980
  -OEChem-07051213053D

 56 58  0     1  0  0  0  0  0999 V2000
    4.5452    2.7128    0.7648 F   0  0  0  0  0  0  0  0  0  0  0  0
    3.2502    4.0662    1.8696 F   0  0  0  0  0  0  0  0  0  0  0  0
   -2.9577   -0.5958    0.6333 O   0  0  0  0  0  0  0  0  0  0  0  0
   -3.2274   -0.2085   -1.6245 O   0  0  0  0  0  0  0  0  0  0  0  0
    2.5140    3.1660   -0.0734 O   0  0  0  0  0  0  0  0  0  0  0  0
    1.8048   -1.9889    1.0174 O   0  0  0  0  0  0  0  0  0  0  0  0
   -4.1536   -3.1839    2.4847 N   0  0  0  0  0  0  0  0  0  0  0  0
   -2.9530    1.6597   -0.0820 C   0  0  2  0  0  0  0  0  0  0  0  0
   -3.8669    2.5338   -0.9883 C   0  0  0  0  0  0  0  0  0  0  0  0
   -1.4877    2.0637   -0.0794 C   0  0  0  0  0  0  0  0  0  0  0  0
   -5.3284    2.0666   -0.9429 C   0  0  0  0  0  0  0  0  0  0  0  0
   -3.8146    4.0107   -0.5690 C   0  0  0  0  0  0  0  0  0  0  0  0
   -3.0596    0.1903   -0.4788 C   0  0  0  0  0  0  0  0  0  0  0  0
   -0.8765    2.4652    1.1086 C   0  0  0  0  0  0  0  0  0  0  0  0
   -0.7541    2.0328   -1.2652 C   0  0  0  0  0  0  0  0  0  0  0  0
   -3.0605   -2.0044    0.4034 C   0  0  1  0  0  0  0  0  0  0  0  0
    0.4682    2.8358    1.1105 C   0  0  0  0  0  0  0  0  0  0  0  0
    0.5906    2.4034   -1.2634 C   0  0  0  0  0  0  0  0  0  0  0  0
    1.2017    2.8048   -0.0755 C   0  0  0  0  0  0  0  0  0  0  0  0
   -1.6893   -2.5589    0.0948 C   0  0  0  0  0  0  0  0  0  0  0  0
   -0.5616   -2.0118    0.7070 C   0  0  0  0  0  0  0  0  0  0  0  0
   -1.5511   -3.6178   -0.8026 C   0  0  0  0  0  0  0  0  0  0  0  0
    0.7042   -2.5236    0.4217 C   0  0  0  0  0  0  0  0  0  0  0  0
   -3.6695   -2.6641    1.5670 C   0  0  0  0  0  0  0  0  0  0  0  0
   -0.2853   -4.1295   -1.0879 C   0  0  0  0  0  0  0  0  0  0  0  0
    0.8424   -3.5823   -0.4758 C   0  0  0  0  0  0  0  0  0  0  0  0
    3.2537    2.9366    1.1200 C   0  0  0  0  0  0  0  0  0  0  0  0
    2.9087   -1.7348    0.2206 C   0  0  0  0  0  0  0  0  0  0  0  0
    2.7464   -1.1182   -1.0200 C   0  0  0  0  0  0  0  0  0  0  0  0
    4.1827   -2.0964    0.6582 C   0  0  0  0  0  0  0  0  0  0  0  0
    3.8581   -0.8633   -1.8230 C   0  0  0  0  0  0  0  0  0  0  0  0
    5.2945   -1.8413   -0.1446 C   0  0  0  0  0  0  0  0  0  0  0  0
    5.1320   -1.2248   -1.3853 C   0  0  0  0  0  0  0  0  0  0  0  0
   -3.3517    1.7420    0.9398 H   0  0  0  0  0  0  0  0  0  0  0  0
   -3.5323    2.4690   -2.0317 H   0  0  0  0  0  0  0  0  0  0  0  0
   -5.7134    2.0749    0.0826 H   0  0  0  0  0  0  0  0  0  0  0  0
   -5.4503    1.0559   -1.3421 H   0  0  0  0  0  0  0  0  0  0  0  0
   -5.9637    2.7259   -1.5447 H   0  0  0  0  0  0  0  0  0  0  0  0
   -4.1140    4.1366    0.4771 H   0  0  0  0  0  0  0  0  0  0  0  0
   -2.8093    4.4262   -0.6889 H   0  0  0  0  0  0  0  0  0  0  0  0
   -4.4884    4.6136   -1.1875 H   0  0  0  0  0  0  0  0  0  0  0  0
   -1.4371    2.4993    2.0388 H   0  0  0  0  0  0  0  0  0  0  0  0
   -1.2109    1.7224   -2.2008 H   0  0  0  0  0  0  0  0  0  0  0  0
   -3.7275   -2.1886   -0.4499 H   0  0  0  0  0  0  0  0  0  0  0  0
    0.8995    3.1668    2.0504 H   0  0  0  0  0  0  0  0  0  0  0  0
    1.1576    2.3757   -2.1898 H   0  0  0  0  0  0  0  0  0  0  0  0
   -0.6497   -1.1930    1.4167 H   0  0  0  0  0  0  0  0  0  0  0  0
   -2.4216   -4.0545   -1.2849 H   0  0  0  0  0  0  0  0  0  0  0  0
   -0.1784   -4.9574   -1.7827 H   0  0  0  0  0  0  0  0  0  0  0  0
    1.8134   -4.0162   -0.6996 H   0  0  0  0  0  0  0  0  0  0  0  0
    2.9153    2.0764    1.7087 H   0  0  0  0  0  0  0  0  0  0  0  0
    1.7680   -0.8060   -1.3758 H   0  0  0  0  0  0  0  0  0  0  0  0
    4.3147   -2.5773    1.6235 H   0  0  0  0  0  0  0  0  0  0  0  0
    3.7322   -0.3778   -2.7864 H   0  0  0  0  0  0  0  0  0  0  0  0
    6.2866   -2.1226    0.1963 H   0  0  0  0  0  0  0  0  0  0  0  0
    5.9978   -1.0248   -2.0097 H   0  0  0  0  0  0  0  0  0  0  0  0
  1 27  1  0  0  0  0
  2 27  1  0  0  0  0
  3 13  1  0  0  0  0
  3 16  1  0  0  0  0
  4 13  2  0  0  0  0
  5 19  1  0  0  0  0
  5 27  1  0  0  0  0
  6 23  1  0  0  0  0
  6 28  1  0  0  0  0
  7 24  3  0  0  0  0
  8  9  1  0  0  0  0
  8 10  1  0  0  0  0
  8 13  1  0  0  0  0
  8 34  1  0  0  0  0
  9 11  1  0  0  0  0
  9 12  1  0  0  0  0
  9 35  1  0  0  0  0
 10 14  2  0  0  0  0
 10 15  1  0  0  0  0
 11 36  1  0  0  0  0
 11 37  1  0  0  0  0
 11 38  1  0  0  0  0
 12 39  1  0  0  0  0
 12 40  1  0  0  0  0
 12 41  1  0  0  0  0
 14 17  1  0  0  0  0
 14 42  1  0  0  0  0
 15 18  2  0  0  0  0
 15 43  1  0  0  0  0
 16 20  1  0  0  0  0
 16 24  1  0  0  0  0
 16 44  1  0  0  0  0
 17 19  2  0  0  0  0
 17 45  1  0  0  0  0
 18 19  1  0  0  0  0
 18 46  1  0  0  0  0
 20 21  2  0  0  0  0
 20 22  1  0  0  0  0
 21 23  1  0  0  0  0
 21 47  1  0  0  0  0
 22 25  2  0  0  0  0
 22 48  1  0  0  0  0
 23 26  2  0  0  0  0
 25 26  1  0  0  0  0
 25 49  1  0  0  0  0
 26 50  1  0  0  0  0
 27 51  1  0  0  0  0
 28 29  2  0  0  0  0
 28 30  1  0  0  0  0
 29 31  1  0  0  0  0
 29 52  1  0  0  0  0
 30 32  2  0  0  0  0
 30 53  1  0  0  0  0
 31 33  2  0  0  0  0
 31 54  1  0  0  0  0
 32 33  1  0  0  0  0
 32 55  1  0  0  0  0
 33 56  1  0  0  0  0
M  END
> <PUBCHEM_COMPOUND_CID>
50980

> <PUBCHEM_CONFORMER_RMSD>
1

> <PUBCHEM_CONFORMER_DIVERSEORDER>
1
309
147
262
126
441
432
260
343
71
40
312
186
2
223
200
243
366
94
428
55
411
204
85
202
193
325
360
404
250
106
385
245
57
151
229
74
253
49
236
349
216
128
414
333
203
35
29
210
31
423
41
351
167
438
232
234
184
118
174
138
452
228
407
136
53
45
185
115
449
240
264
231
165
356
4
448
124
96
61
105
369
415
352
324
280
359
406
112
431
72
337
37
304
110
444
67
79
68
173
89
350
218
395
329
416
397
387
307
358
390
442
306
278
82
13
160
146
176
3
362
113
315
413
87
322
425
149
100
180
382
120
380
10
391
208
410
5
344
108
28
14
339
305
421
372
394
169
224
226
206
277
435
156
330
272
201
195
451
257
361
66
453
433
320
56
111
77
44
95
181
34
122
219
54
159
242
189
318
445
199
140
178
150
83
177
238
275
215
342
233
46
429
246
301
86
297
60
364
294
295
379
109
430
381
157
255
302
6
11
116
326
341
137
447
247
274
90
374
33
78
131
412
211
310
217
161
152
69
230
241
7
188
20
418
12
323
386
235
144
419
338
371
143
450
164
300
102
97
263
65
365
93
99
63
314
22
76
221
248
163
104
345
327
292
422
213
357
183
398
25
368
267
286
373
389
334
9
58
454
375
313
284
207
265
182
328
409
296
237
408
117
289
75
299
319
194
378
282
252
403
141
335
443
50
222
148
434
135
261
269
308
36
190
440
119
384
114
84
103
405
279
80
214
268
198
377
436
420
153
133
145
288
276
283
38
287
336
254
270
19
446
27
244
347
191
273
139
172
249
17
52
383
227
437
251
290
23
154
132
348
225
417
426
332
187
47
123
70
355
363
424
16
98
388
205
281
401
101
142
259
396
15
271
220
298
39
346
62
340
26
81
48
316
197
170
42
21
321
73
125
393
402
392
130
266
166
196
129
439
427
311
303
127
317
212
162
331
258
376
51
158
354
171
370
30
285
64
134
179
256
107
399
192
209
91
18
175
400
32
291
155
121
293
43
92
168
367
59
24
88
353
239
8

> <PUBCHEM_MMFF94_PARTIAL_CHARGES>
43
1 -0.34
10 -0.14
13 0.66
14 -0.15
15 -0.15
16 0.62
17 -0.15
18 -0.15
19 0.08
2 -0.34
20 -0.14
21 -0.15
22 -0.15
23 0.08
24 0.36
25 -0.15
26 -0.15
27 0.96
28 0.08
29 -0.15
3 -0.43
30 -0.15
31 -0.15
32 -0.15
33 -0.15
4 -0.57
42 0.15
43 0.15
45 0.15
46 0.15
47 0.15
48 0.15
49 0.15
5 -0.36
50 0.15
52 0.15
53 0.15
54 0.15
55 0.15
56 0.15
6 -0.17
7 -0.56
8 0.2

> <PUBCHEM_EFFECTIVE_ROTOR_COUNT>
10

> <PUBCHEM_PHARMACOPHORE_FEATURES>
8
1 4 acceptor
1 5 acceptor
1 6 acceptor
1 7 acceptor
3 9 11 12 hydrophobe
6 10 14 15 17 18 19 rings
6 20 21 22 23 25 26 rings
6 28 29 30 31 32 33 rings

> <PUBCHEM_HEAVY_ATOM_COUNT>
33

> <PUBCHEM_ATOM_DEF_STEREO_COUNT>
0

> <PUBCHEM_ATOM_UDEF_STEREO_COUNT>
2

> <PUBCHEM_BOND_DEF_STEREO_COUNT>
0

> <PUBCHEM_BOND_UDEF_STEREO_COUNT>
0

> <PUBCHEM_ISOTOPIC_ATOM_COUNT>
0

> <PUBCHEM_COMPONENT_COUNT>
1

> <PUBCHEM_CACTVS_TAUTO_COUNT>
1

> <PUBCHEM_CONFORMER_ID>
0000C72400000001

> <PUBCHEM_MMFF94_ENERGY>
95.7688

> <PUBCHEM_FEATURE_SELFOVERLAP>
40.595

> <PUBCHEM_SHAPE_FINGERPRINT>
10864689 126 18192151714887253836
1100329 8 18336550528811217060
11513181 2 18187655652431746118
12156800 1 16342331032121981638
12788726 201 17902516222150380528
13122387 1 18410856529733585958
13140716 1 18410846664367527267
14117953 113 17623570152432601142
14725015 67 18342729694250231531
14932702 115 18268410460765505236
15297060 5 18118116103209154330
15968369 153 18335709291437480021
16112460 7 18188480380177940072
17492 54 18128532863100407461
20715895 44 16908631455582959197
20764821 26 18338242557474469510
20905425 154 18120082884444584054
238918 7 17828773837761161384
4112364 45 17536828383591325699
463206 1 18196086879339281096
5171179 24 18261959544403521412

> <PUBCHEM_SHAPE_MULTIPOLES>
636.12
9.68
6.77
1.62
3.32
0.52
0.26
1.68
-1.67
-1
1.99
-0.13
-0.15
3.1

> <PUBCHEM_SHAPE_SELFOVERLAP>
1361.005

> <PUBCHEM_SHAPE_VOLUME>
351.2

> <PUBCHEM_COORDINATE_TYPE>
2
5
10

$$$$

