5281479
  -OEChem-07051212573D

 54 57  0     1  0  0  0  0  0999 V2000
    4.7588   -1.3792   -1.0758 O   0  0  0  0  0  0  0  0  0  0  0  0
   -4.1102   -0.6979   -2.3703 O   0  0  0  0  0  0  0  0  0  0  0  0
    1.7873    0.2172    0.0448 O   0  0  0  0  0  0  0  0  0  0  0  0
   -0.7990    3.3840   -0.1609 O   0  0  0  0  0  0  0  0  0  0  0  0
    0.6878   -2.3824   -0.0996 O   0  0  0  0  0  0  0  0  0  0  0  0
    2.6783   -1.8100    0.7029 O   0  0  0  0  0  0  0  0  0  0  0  0
   -0.4169    4.6726    1.7123 O   0  0  0  0  0  0  0  0  0  0  0  0
   -1.5572   -3.3569    1.6868 O   0  0  0  0  0  0  0  0  0  0  0  0
   -2.0510   -1.2413    2.4862 O   0  0  0  0  0  0  0  0  0  0  0  0
    3.5412   -0.6588   -1.2276 C   0  0  2  0  0  0  0  0  0  0  0  0
   -0.3088    1.2408    0.6998 C   0  0  2  0  0  0  0  0  0  0  0  0
    0.5074   -0.0697    0.6204 C   0  0  1  0  0  0  0  0  0  0  0  0
    4.8348    0.0519   -1.0432 C   0  0  1  0  0  0  0  0  0  0  0  0
   -2.9369    0.0927   -2.5544 C   0  0  2  0  0  0  0  0  0  0  0  0
   -2.8691   -1.3282   -1.9877 C   0  0  1  0  0  0  0  0  0  0  0  0
   -0.3319    2.0960   -0.5712 C   0  0  1  0  0  0  0  0  0  0  0  0
   -0.1468   -1.2172   -0.2080 C   0  0  2  0  0  0  0  0  0  0  0  0
   -2.4666    1.1768   -1.6646 C   0  0  0  0  0  0  0  0  0  0  0  0
    2.6372   -0.8438   -0.0466 C   0  0  0  0  0  0  0  0  0  0  0  0
   -1.1499    1.4662   -1.6515 C   0  0  0  0  0  0  0  0  0  0  0  0
    0.1431    2.3157    1.6381 C   0  0  0  0  0  0  0  0  0  0  0  0
   -2.6585   -1.6466   -0.5584 C   0  0  0  0  0  0  0  0  0  0  0  0
    2.9531   -0.7516   -2.5769 C   0  0  0  0  0  0  0  0  0  0  0  0
   -1.5457   -1.6101    0.2002 C   0  0  0  0  0  0  0  0  0  0  0  0
    5.2639    0.5948    0.2676 C   0  0  0  0  0  0  0  0  0  0  0  0
   -0.3643    3.6113    1.1182 C   0  0  0  0  0  0  0  0  0  0  0  0
   -3.4882    1.7530   -0.7234 C   0  0  0  0  0  0  0  0  0  0  0  0
    0.8872    2.2511    2.7443 C   0  0  0  0  0  0  0  0  0  0  0  0
   -1.7538   -2.0203    1.6022 C   0  0  0  0  0  0  0  0  0  0  0  0
   -1.7252   -3.9102    2.9962 C   0  0  0  0  0  0  0  0  0  0  0  0
   -1.3308    0.9991    1.0193 H   0  0  0  0  0  0  0  0  0  0  0  0
    0.6825   -0.4347    1.6417 H   0  0  0  0  0  0  0  0  0  0  0  0
    5.2849    0.5636   -1.8830 H   0  0  0  0  0  0  0  0  0  0  0  0
   -2.6334    0.2264   -3.5890 H   0  0  0  0  0  0  0  0  0  0  0  0
   -2.4955   -2.0975   -2.6560 H   0  0  0  0  0  0  0  0  0  0  0  0
    0.6787    2.2513   -0.9754 H   0  0  0  0  0  0  0  0  0  0  0  0
   -0.1147   -0.9613   -1.2705 H   0  0  0  0  0  0  0  0  0  0  0  0
   -0.5358    0.9740   -2.4078 H   0  0  0  0  0  0  0  0  0  0  0  0
   -3.5780   -1.9688   -0.0673 H   0  0  0  0  0  0  0  0  0  0  0  0
    2.3989   -1.6889   -2.6943 H   0  0  0  0  0  0  0  0  0  0  0  0
    2.2571    0.0755   -2.7522 H   0  0  0  0  0  0  0  0  0  0  0  0
    3.7127   -0.7169   -3.3658 H   0  0  0  0  0  0  0  0  0  0  0  0
    5.0059   -0.0592    1.1069 H   0  0  0  0  0  0  0  0  0  0  0  0
    6.3502    0.7305    0.2781 H   0  0  0  0  0  0  0  0  0  0  0  0
    4.8012    1.5715    0.4403 H   0  0  0  0  0  0  0  0  0  0  0  0
   -3.1035    2.5762   -0.1191 H   0  0  0  0  0  0  0  0  0  0  0  0
   -3.8660    0.9880   -0.0382 H   0  0  0  0  0  0  0  0  0  0  0  0
   -4.3357    2.1468   -1.2949 H   0  0  0  0  0  0  0  0  0  0  0  0
    0.3055   -3.0735   -0.6675 H   0  0  0  0  0  0  0  0  0  0  0  0
    1.2634    1.3042    3.1148 H   0  0  0  0  0  0  0  0  0  0  0  0
    1.1409    3.1398    3.3125 H   0  0  0  0  0  0  0  0  0  0  0  0
   -2.7484   -3.7472    3.3481 H   0  0  0  0  0  0  0  0  0  0  0  0
   -1.0026   -3.4689    3.6894 H   0  0  0  0  0  0  0  0  0  0  0  0
   -1.5419   -4.9863    2.9364 H   0  0  0  0  0  0  0  0  0  0  0  0
  1 10  1  0  0  0  0
  1 13  1  0  0  0  0
  2 14  1  0  0  0  0
  2 15  1  0  0  0  0
  3 12  1  0  0  0  0
  3 19  1  0  0  0  0
  4 16  1  0  0  0  0
  4 26  1  0  0  0  0
  5 17  1  0  0  0  0
  5 49  1  0  0  0  0
  6 19  2  0  0  0  0
  7 26  2  0  0  0  0
  8 29  1  0  0  0  0
  8 30  1  0  0  0  0
  9 29  2  0  0  0  0
 10 13  1  0  0  0  0
 10 19  1  0  0  0  0
 10 23  1  0  0  0  0
 11 12  1  0  0  0  0
 11 16  1  0  0  0  0
 11 21  1  0  0  0  0
 11 31  1  0  0  0  0
 12 17  1  0  0  0  0
 12 32  1  0  0  0  0
 13 25  1  0  0  0  0
 13 33  1  0  0  0  0
 14 15  1  0  0  0  0
 14 18  1  0  0  0  0
 14 34  1  0  0  0  0
 15 22  1  0  0  0  0
 15 35  1  0  0  0  0
 16 20  1  0  0  0  0
 16 36  1  0  0  0  0
 17 24  1  0  0  0  0
 17 37  1  0  0  0  0
 18 20  2  0  0  0  0
 18 27  1  0  0  0  0
 20 38  1  0  0  0  0
 21 26  1  0  0  0  0
 21 28  2  0  0  0  0
 22 24  2  0  0  0  0
 22 39  1  0  0  0  0
 23 40  1  0  0  0  0
 23 41  1  0  0  0  0
 23 42  1  0  0  0  0
 24 29  1  0  0  0  0
 25 43  1  0  0  0  0
 25 44  1  0  0  0  0
 25 45  1  0  0  0  0
 27 46  1  0  0  0  0
 27 47  1  0  0  0  0
 27 48  1  0  0  0  0
 28 50  1  0  0  0  0
 28 51  1  0  0  0  0
 30 52  1  0  0  0  0
 30 53  1  0  0  0  0
 30 54  1  0  0  0  0
M  END
> <PUBCHEM_COMPOUND_CID>
5281479

> <PUBCHEM_CONFORMER_RMSD>
0.8

> <PUBCHEM_CONFORMER_DIVERSEORDER>
1
13
6
16
8
5
15
12
14
11
4
10
7
9
2
3

> <PUBCHEM_MMFF94_PARTIAL_CHARGES>
38
1 -0.3
10 0.05
11 0.14
12 0.28
13 -0.05
14 0.09
15 0.09
16 0.42
17 0.42
18 -0.18
19 0.72
2 -0.3
20 -0.29
21 -0.12
22 -0.19
23 0.09
24 -0.12
25 0.09
26 0.71
27 0.14
28 -0.3
29 0.71
3 -0.43
30 0.28
33 0.1
34 0.1
35 0.1
38 0.15
39 0.15
4 -0.43
49 0.4
5 -0.68
50 0.15
51 0.15
6 -0.57
7 -0.57
8 -0.43
9 -0.57

> <PUBCHEM_EFFECTIVE_ROTOR_COUNT>
6.4

> <PUBCHEM_PHARMACOPHORE_FEATURES>
8
1 1 acceptor
1 2 acceptor
1 5 acceptor
1 5 donor
1 6 acceptor
1 7 acceptor
1 9 acceptor
5 4 11 16 21 26 rings

> <PUBCHEM_HEAVY_ATOM_COUNT>
30

> <PUBCHEM_ATOM_DEF_STEREO_COUNT>
8

> <PUBCHEM_ATOM_UDEF_STEREO_COUNT>
0

> <PUBCHEM_BOND_DEF_STEREO_COUNT>
2

> <PUBCHEM_BOND_UDEF_STEREO_COUNT>
0

> <PUBCHEM_ISOTOPIC_ATOM_COUNT>
0

> <PUBCHEM_COMPONENT_COUNT>
1

> <PUBCHEM_CACTVS_TAUTO_COUNT>
1

> <PUBCHEM_CONFORMER_ID>
005096C700000001

> <PUBCHEM_MMFF94_ENERGY>
92.6943

> <PUBCHEM_FEATURE_SELFOVERLAP>
40.673

> <PUBCHEM_SHAPE_FINGERPRINT>
10764073 3 16310422281276911826
11578080 2 17912635818061360221
121448 382 18269843188766828532
12160290 23 17899670626328892464
12293681 160 18268165290856898109
12714826 92 17916575436837767106
12788726 201 18115870887353577808
13149001 5 18270131093214505981
133893 2 17536026666987633171
13911987 19 18191580857729943710
14787075 74 18269837674366320245
14790565 3 17463973823511686737
17349148 13 18126580131114375282
17357779 13 18260274005788949828
17980427 23 17461121497423055923
1813 80 17385998425673723124
19319366 153 17983026827829306983
20600515 1 18271261425638751168
20691752 17 17986139420461601949
20775438 99 17326652126910239239
21304303 282 18127421257193184376
22907989 373 18267282349050335700
23419403 2 18051408470415730481
23557571 272 18339910568206342998
23558518 356 17834394896809210986
2748010 2 17623581847718523527
3380486 145 18044097848205554062
35225 105 17609469963551851796
394222 165 17112405074881798369
4409770 3 18131628963327681130
469060 322 16485536902659349754
5845 1 17677031512799067102
621550 5 17698130999218602979
6786 2 11866100748843096681

> <PUBCHEM_SHAPE_MULTIPOLES>
564.56
6.93
4.49
2.93
8.77
2.29
0.61
-2.75
-4.65
-2.49
4.19
-1.79
-0.76
2.07

> <PUBCHEM_SHAPE_SELFOVERLAP>
1203.48

> <PUBCHEM_SHAPE_VOLUME>
313.9

> <PUBCHEM_COORDINATE_TYPE>
2
5
10

$$$$

