36647
  -OEChem-07051213043D

 22 23  0     0  0  0  0  0  0999 V2000
   -0.6196   -1.9371    1.9379 Cl  0  0  0  0  0  0  0  0  0  0  0  0
    0.6196   -1.9423   -1.9328 Cl  0  0  0  0  0  0  0  0  0  0  0  0
   -0.6188    1.9358   -1.9390 Cl  0  0  0  0  0  0  0  0  0  0  0  0
    0.6188    1.9409    1.9339 Cl  0  0  0  0  0  0  0  0  0  0  0  0
   -5.2382    0.0018    0.0000 Cl  0  0  0  0  0  0  0  0  0  0  0  0
    5.2382    0.0019    0.0000 Cl  0  0  0  0  0  0  0  0  0  0  0  0
   -0.7276   -0.0007   -0.0005 C   0  0  0  0  0  0  0  0  0  0  0  0
    0.7276   -0.0008    0.0005 C   0  0  0  0  0  0  0  0  0  0  0  0
   -1.4253   -0.8540    0.8545 C   0  0  0  0  0  0  0  0  0  0  0  0
    1.4253   -0.8562   -0.8523 C   0  0  0  0  0  0  0  0  0  0  0  0
   -1.4247    0.8531   -0.8552 C   0  0  0  0  0  0  0  0  0  0  0  0
    1.4247    0.8553    0.8530 C   0  0  0  0  0  0  0  0  0  0  0  0
   -2.8202   -0.8532    0.8547 C   0  0  0  0  0  0  0  0  0  0  0  0
    2.8202   -0.8554   -0.8525 C   0  0  0  0  0  0  0  0  0  0  0  0
   -2.8196    0.8537   -0.8550 C   0  0  0  0  0  0  0  0  0  0  0  0
    2.8196    0.8560    0.8527 C   0  0  0  0  0  0  0  0  0  0  0  0
   -3.5173    0.0007    0.0001 C   0  0  0  0  0  0  0  0  0  0  0  0
    3.5174    0.0006   -0.0001 C   0  0  0  0  0  0  0  0  0  0  0  0
   -3.3672   -1.5176    1.5204 H   0  0  0  0  0  0  0  0  0  0  0  0
    3.3673   -1.5216   -1.5164 H   0  0  0  0  0  0  0  0  0  0  0  0
   -3.3662    1.5187   -1.5204 H   0  0  0  0  0  0  0  0  0  0  0  0
    3.3662    1.5227    1.5164 H   0  0  0  0  0  0  0  0  0  0  0  0
  1  9  1  0  0  0  0
  2 10  1  0  0  0  0
  3 11  1  0  0  0  0
  4 12  1  0  0  0  0
  5 17  1  0  0  0  0
  6 18  1  0  0  0  0
  7  8  1  0  0  0  0
  7  9  2  0  0  0  0
  7 11  1  0  0  0  0
  8 10  2  0  0  0  0
  8 12  1  0  0  0  0
  9 13  1  0  0  0  0
 10 14  1  0  0  0  0
 11 15  2  0  0  0  0
 12 16  2  0  0  0  0
 13 17  2  0  0  0  0
 13 19  1  0  0  0  0
 14 18  2  0  0  0  0
 14 20  1  0  0  0  0
 15 17  1  0  0  0  0
 15 21  1  0  0  0  0
 16 18  1  0  0  0  0
 16 22  1  0  0  0  0
M  END
> <PUBCHEM_COMPOUND_CID>
36647

> <PUBCHEM_CONFORMER_RMSD>
0.6

> <PUBCHEM_CONFORMER_DIVERSEORDER>
1

> <PUBCHEM_MMFF94_PARTIAL_CHARGES>
20
1 -0.18
10 0.18
11 0.18
12 0.18
13 -0.15
14 -0.15
15 -0.15
16 -0.15
17 0.18
18 0.18
19 0.15
2 -0.18
20 0.15
21 0.15
22 0.15
3 -0.18
4 -0.18
5 -0.18
6 -0.18
9 0.18

> <PUBCHEM_EFFECTIVE_ROTOR_COUNT>
1

> <PUBCHEM_PHARMACOPHORE_FEATURES>
2
6 7 9 11 13 15 17 rings
6 8 10 12 14 16 18 rings

> <PUBCHEM_HEAVY_ATOM_COUNT>
18

> <PUBCHEM_ATOM_DEF_STEREO_COUNT>
0

> <PUBCHEM_ATOM_UDEF_STEREO_COUNT>
0

> <PUBCHEM_BOND_DEF_STEREO_COUNT>
0

> <PUBCHEM_BOND_UDEF_STEREO_COUNT>
0

> <PUBCHEM_ISOTOPIC_ATOM_COUNT>
0

> <PUBCHEM_COMPONENT_COUNT>
1

> <PUBCHEM_CACTVS_TAUTO_COUNT>
1

> <PUBCHEM_CONFORMER_ID>
00008F2700000001

> <PUBCHEM_MMFF94_ENERGY>
48.2681

> <PUBCHEM_FEATURE_SELFOVERLAP>
10.149

> <PUBCHEM_SHAPE_FINGERPRINT>
12035759 4 13582716769453212629
12119455 92 18260552216538034390
12592029 89 17967816075990238846
13140716 1 17605009018093894234
13538477 17 16200145448603965603
13581323 91 17489594467140486594
13583140 156 17913246193602859312
14115302 16 15984812710532572495
15207287 21 18410570690912067779
15309172 13 17894629240808480982
1601671 61 5256137796188202915
16752209 62 17131570383261458549
16945 1 18410575084663078918
18175812 5 18410575037418445327
200 152 17095243631202008019
20028762 73 18057025923501395267
20344682 1 18410855468718096958
20473742 2 18041006089663449753
20510252 161 17988367077852763437
20511035 2 17979629039982181261
20600515 1 17988911276142319189
20645476 183 15338834236273040715
23175994 123 18259979375412223440
23402539 116 18131637768147346271
23419403 2 18120922919722909137
23493267 7 18343023332832241728
23526113 38 18337668714993700186
23557571 272 18201999975205502860
23559900 14 18131347536323194998
2748010 2 17315648288095991004
3286 77 18041847199047426321
350125 39 17174631450387895688
474 4 16154573964634996922
568465 68 18261377915400199794
69090 78 18334580118544466439
77492 1 15719392832332496899
81228 2 17986091127706959261
8272917 22 17168413969920440015

> <PUBCHEM_SHAPE_MULTIPOLES>
381.65
7.49
1.83
1.83
0
0
0
-0.01
0
0.01
0
-0.01
0
1.21

> <PUBCHEM_SHAPE_SELFOVERLAP>
775.366

> <PUBCHEM_SHAPE_VOLUME>
214.3

> <PUBCHEM_COORDINATE_TYPE>
2
5
10

$$$$

