5282069
  -OEChem-07051213022D

 94 96  0     1  0  0  0  0  0999 V2000
    3.4954    1.5718    0.0000 O   0  0  0  0  0  0  0  0  0  0  0  0
    2.4954    5.0359    0.0000 O   0  0  0  0  0  0  0  0  0  0  0  0
    3.9954   -0.2942    0.0000 O   0  0  0  0  0  0  0  0  0  0  0  0
    4.9954    2.4378    0.0000 O   0  0  0  0  0  0  0  0  0  0  0  0
    4.9954   -5.2943    0.0000 O   0  0  0  0  0  0  0  0  0  0  0  0
    8.4596   -3.2943    0.0000 O   0  0  0  0  0  0  0  0  0  0  0  0
    3.3753   -6.4041    0.0000 O   0  0  0  0  0  0  0  0  0  0  0  0
    5.5164   -7.6339    0.0000 O   0  0  0  0  0  0  0  0  0  0  0  0
    3.9954    4.1698    0.0000 N   0  0  0  0  0  0  0  0  0  0  0  0
    6.7275   -6.2943    0.0000 N   0  0  0  0  0  0  0  0  0  0  0  0
    3.9954    5.9019    0.0000 C   0  0  0  0  0  0  0  0  0  0  0  0
    3.4954    6.7679    0.0000 C   0  0  0  0  0  0  0  0  0  0  0  0
    4.9954    5.9019    0.0000 C   0  0  0  0  0  0  0  0  0  0  0  0
    3.9954    7.6339    0.0000 C   0  0  0  0  0  0  0  0  0  0  0  0
    5.4954    6.7679    0.0000 C   0  0  0  0  0  0  0  0  0  0  0  0
    4.9954    7.6339    0.0000 C   0  0  0  0  0  0  0  0  0  0  0  0
    3.4954    5.0359    0.0000 C   0  0  0  0  0  0  0  0  0  0  0  0
    4.9954    0.7057    0.0000 C   0  0  1  0  0  0  0  0  0  0  0  0
    3.9954    0.7057    0.0000 C   0  0  2  0  0  0  0  0  0  0  0  0
    3.4954    3.3038    0.0000 C   0  0  1  0  0  0  0  0  0  0  0  0
    4.9954   -0.2943    0.0000 C   0  0  2  0  0  0  0  0  0  0  0  0
    3.4954   -0.1603    0.0000 C   0  0  0  0  0  0  0  0  0  0  0  0
    5.7026    1.4128    0.0000 C   0  0  0  0  0  0  0  0  0  0  0  0
    3.9954    2.4378    0.0000 C   0  0  0  0  0  0  0  0  0  0  0  0
    5.8615   -0.7943    0.0000 C   0  0  0  0  0  0  0  0  0  0  0  0
    2.4954    3.3038    0.0000 C   0  0  0  0  0  0  0  0  0  0  0  0
    5.8615   -1.7943    0.0000 C   0  0  0  0  0  0  0  0  0  0  0  0
    3.7543   -1.1262    0.0000 C   0  0  0  0  0  0  0  0  0  0  0  0
    6.7275   -0.2943    0.0000 C   0  0  0  0  0  0  0  0  0  0  0  0
    4.9954   -2.2943    0.0000 C   0  0  0  0  0  0  0  0  0  0  0  0
    4.9954   -3.2943    0.0000 C   0  0  0  0  0  0  0  0  0  0  0  0
    3.0472   -1.8333    0.0000 C   0  0  0  0  0  0  0  0  0  0  0  0
    5.8615   -3.7943    0.0000 C   0  0  0  0  0  0  0  0  0  0  0  0
    3.3060   -2.7992    0.0000 C   0  0  0  0  0  0  0  0  0  0  0  0
    5.8615   -4.7943    0.0000 C   0  0  0  0  0  0  0  0  0  0  0  0
    6.7275   -3.2943    0.0000 C   0  0  0  0  0  0  0  0  0  0  0  0
    6.7275   -5.2943    0.0000 C   0  0  0  0  0  0  0  0  0  0  0  0
    7.5935   -3.7943    0.0000 C   0  0  0  0  0  0  0  0  0  0  0  0
    7.5935   -4.7943    0.0000 C   0  0  0  0  0  0  0  0  0  0  0  0
    2.5989   -3.5064    0.0000 C   0  0  0  0  0  0  0  0  0  0  0  0
    4.0824   -5.6970    0.0000 C   0  0  2  0  0  0  0  0  0  0  0  0
    5.0484   -5.9558    0.0000 C   0  0  0  0  0  0  0  0  0  0  0  0
    5.7555   -6.6630    0.0000 C   0  0  0  0  0  0  0  0  0  0  0  0
    2.8577   -4.4723    0.0000 C   0  0  0  0  0  0  0  0  0  0  0  0
    3.8236   -4.7311    0.0000 C   0  0  0  0  0  0  0  0  0  0  0  0
    3.6342   -7.3701    0.0000 C   0  0  0  0  0  0  0  0  0  0  0  0
    4.3055    5.3650    0.0000 H   0  0  0  0  0  0  0  0  0  0  0  0
    3.0205    7.1664    0.0000 H   0  0  0  0  0  0  0  0  0  0  0  0
    3.0205    6.3694    0.0000 H   0  0  0  0  0  0  0  0  0  0  0  0
    4.8878    5.2913    0.0000 H   0  0  0  0  0  0  0  0  0  0  0  0
    5.5781    5.6898    0.0000 H   0  0  0  0  0  0  0  0  0  0  0  0
    4.1031    8.2445    0.0000 H   0  0  0  0  0  0  0  0  0  0  0  0
    5.9704    6.3694    0.0000 H   0  0  0  0  0  0  0  0  0  0  0  0
    3.4128    7.8460    0.0000 H   0  0  0  0  0  0  0  0  0  0  0  0
    5.9704    7.1664    0.0000 H   0  0  0  0  0  0  0  0  0  0  0  0
    5.5781    7.8460    0.0000 H   0  0  0  0  0  0  0  0  0  0  0  0
    4.8878    8.2445    0.0000 H   0  0  0  0  0  0  0  0  0  0  0  0
    5.5682    0.4685    0.0000 H   0  0  0  0  0  0  0  0  0  0  0  0
    4.3055    1.2427    0.0000 H   0  0  0  0  0  0  0  0  0  0  0  0
    4.6154    4.1698    0.0000 H   0  0  0  0  0  0  0  0  0  0  0  0
    4.1154    3.3038    0.0000 H   0  0  0  0  0  0  0  0  0  0  0  0
    4.8350   -0.8931    0.0000 H   0  0  0  0  0  0  0  0  0  0  0  0
    3.0570    0.2781    0.0000 H   0  0  0  0  0  0  0  0  0  0  0  0
    2.9585   -0.4703    0.0000 H   0  0  0  0  0  0  0  0  0  0  0  0
    6.1410    0.9744    0.0000 H   0  0  0  0  0  0  0  0  0  0  0  0
    6.1410    1.8512    0.0000 H   0  0  0  0  0  0  0  0  0  0  0  0
    5.2642    1.8512    0.0000 H   0  0  0  0  0  0  0  0  0  0  0  0
    2.4954    3.9238    0.0000 H   0  0  0  0  0  0  0  0  0  0  0  0
    1.8754    3.3038    0.0000 H   0  0  0  0  0  0  0  0  0  0  0  0
    2.4954    2.6838    0.0000 H   0  0  0  0  0  0  0  0  0  0  0  0
    6.3984   -2.1043    0.0000 H   0  0  0  0  0  0  0  0  0  0  0  0
    4.3531   -1.2867    0.0000 H   0  0  0  0  0  0  0  0  0  0  0  0
    7.0375   -0.8312    0.0000 H   0  0  0  0  0  0  0  0  0  0  0  0
    7.2644    0.0157    0.0000 H   0  0  0  0  0  0  0  0  0  0  0  0
    6.4175    0.2427    0.0000 H   0  0  0  0  0  0  0  0  0  0  0  0
    3.6855    0.2428    0.0000 H   0  0  0  0  0  0  0  0  0  0  0  0
    4.7834   -1.7116    0.0000 H   0  0  0  0  0  0  0  0  0  0  0  0
    4.3849   -2.4019    0.0000 H   0  0  0  0  0  0  0  0  0  0  0  0
    4.3849   -3.1866    0.0000 H   0  0  0  0  0  0  0  0  0  0  0  0
    4.7834   -3.8769    0.0000 H   0  0  0  0  0  0  0  0  0  0  0  0
    2.4483   -1.6728    0.0000 H   0  0  0  0  0  0  0  0  0  0  0  0
    3.9048   -2.9597    0.0000 H   0  0  0  0  0  0  0  0  0  0  0  0
    6.7275   -2.6743    0.0000 H   0  0  0  0  0  0  0  0  0  0  0  0
    8.1305   -5.1043    0.0000 H   0  0  0  0  0  0  0  0  0  0  0  0
    2.0000   -3.3459    0.0000 H   0  0  0  0  0  0  0  0  0  0  0  0
    7.2475   -6.6320    0.0000 H   0  0  0  0  0  0  0  0  0  0  0  0
    4.2429   -6.2959    0.0000 H   0  0  0  0  0  0  0  0  0  0  0  0
    5.6103   -5.6938    0.0000 H   0  0  0  0  0  0  0  0  0  0  0  0
    4.7384   -6.4928    0.0000 H   0  0  0  0  0  0  0  0  0  0  0  0
    2.4193   -4.9107    0.0000 H   0  0  0  0  0  0  0  0  0  0  0  0
    4.2620   -4.2927    0.0000 H   0  0  0  0  0  0  0  0  0  0  0  0
    3.0353   -7.5305    0.0000 H   0  0  0  0  0  0  0  0  0  0  0  0
    3.7946   -7.9689    0.0000 H   0  0  0  0  0  0  0  0  0  0  0  0
    4.2330   -7.2096    0.0000 H   0  0  0  0  0  0  0  0  0  0  0  0
 19  1  1  6  0  0  0
  1 24  1  0  0  0  0
  2 17  2  0  0  0  0
 21  3  1  6  0  0  0
  3 76  1  0  0  0  0
  4 24  2  0  0  0  0
  5 35  2  0  0  0  0
  6 38  2  0  0  0  0
 41  7  1  1  0  0  0
  7 46  1  0  0  0  0
  8 43  2  0  0  0  0
  9 17  1  0  0  0  0
 20  9  1  1  0  0  0
  9 60  1  0  0  0  0
 10 37  1  0  0  0  0
 10 43  1  0  0  0  0
 10 86  1  0  0  0  0
 11 12  1  0  0  0  0
 11 13  1  0  0  0  0
 11 17  1  0  0  0  0
 11 47  1  0  0  0  0
 12 14  1  0  0  0  0
 12 48  1  0  0  0  0
 12 49  1  0  0  0  0
 13 15  1  0  0  0  0
 13 50  1  0  0  0  0
 13 51  1  0  0  0  0
 14 16  1  0  0  0  0
 14 52  1  0  0  0  0
 14 54  1  0  0  0  0
 15 16  1  0  0  0  0
 15 53  1  0  0  0  0
 15 55  1  0  0  0  0
 16 56  1  0  0  0  0
 16 57  1  0  0  0  0
 18 19  1  0  0  0  0
 18 21  1  0  0  0  0
 18 23  1  6  0  0  0
 18 58  1  0  0  0  0
 19 22  1  0  0  0  0
 19 59  1  0  0  0  0
 20 24  1  0  0  0  0
 20 26  1  0  0  0  0
 20 61  1  0  0  0  0
 21 25  1  0  0  0  0
 21 62  1  0  0  0  0
 22 28  1  0  0  0  0
 22 63  1  0  0  0  0
 22 64  1  0  0  0  0
 23 65  1  0  0  0  0
 23 66  1  0  0  0  0
 23 67  1  0  0  0  0
 25 27  2  0  0  0  0
 25 29  1  0  0  0  0
 26 68  1  0  0  0  0
 26 69  1  0  0  0  0
 26 70  1  0  0  0  0
 27 30  1  0  0  0  0
 27 71  1  0  0  0  0
 28 32  2  0  0  0  0
 28 72  1  0  0  0  0
 29 73  1  0  0  0  0
 29 74  1  0  0  0  0
 29 75  1  0  0  0  0
 30 31  1  0  0  0  0
 30 77  1  0  0  0  0
 30 78  1  0  0  0  0
 31 33  1  0  0  0  0
 31 79  1  0  0  0  0
 31 80  1  0  0  0  0
 32 34  1  0  0  0  0
 32 81  1  0  0  0  0
 33 35  1  0  0  0  0
 33 36  2  0  0  0  0
 34 40  2  0  0  0  0
 34 82  1  0  0  0  0
 35 37  1  0  0  0  0
 36 38  1  0  0  0  0
 36 83  1  0  0  0  0
 37 39  2  0  0  0  0
 38 39  1  0  0  0  0
 39 84  1  0  0  0  0
 40 44  1  0  0  0  0
 40 85  1  0  0  0  0
 41 42  1  0  0  0  0
 41 45  1  0  0  0  0
 41 87  1  0  0  0  0
 42 43  1  0  0  0  0
 42 88  1  0  0  0  0
 42 89  1  0  0  0  0
 44 45  2  0  0  0  0
 44 90  1  0  0  0  0
 45 91  1  0  0  0  0
 46 92  1  0  0  0  0
 46 93  1  0  0  0  0
 46 94  1  0  0  0  0
M  END
> <PUBCHEM_COMPOUND_CID>
5282069

> <PUBCHEM_COMPOUND_CANONICALIZED>
1

> <PUBCHEM_CACTVS_COMPLEXITY>
1310

> <PUBCHEM_CACTVS_HBOND_ACCEPTOR>
8

> <PUBCHEM_CACTVS_HBOND_DONOR>
3

> <PUBCHEM_CACTVS_ROTATABLE_BOND>
6

> <PUBCHEM_CACTVS_SUBSKEYS>
AAADcfB/PAAAAAAAAAAAAAAAAAAAAAAAAAAwQAAAAAAAAAAAAAAAHgAQCAAADTzhgAYCCALABgCIAqXSWAAAAAAgAgAICIGIAEgKFBYAoSAHUAAH9gCYscOYiACOAAAAAAAAAAAAAAAAAAAAAAAAAAAAAA==

> <PUBCHEM_IUPAC_OPENEYE_NAME>
[(4Z,6R,7R,8S,10E,12E,14E,16R)-6-hydroxy-16-methoxy-5,7-dimethyl-18,22,24-trioxo-19-azabicyclo[18.3.1]tetracosa-1(23),4,10,12,14,20-hexaen-8-yl] (2R)-2-(cyclohexanecarbonylamino)propanoate

> <PUBCHEM_IUPAC_CAS_NAME>
(2R)-2-[[cyclohexyl(oxo)methyl]amino]propanoic acid [(4Z,6R,7R,8S,10E,12E,14E,16R)-6-hydroxy-16-methoxy-5,7-dimethyl-18,22,24-trioxo-19-azabicyclo[18.3.1]tetracosa-1(23),4,10,12,14,20-hexaen-8-yl] ester

> <PUBCHEM_IUPAC_NAME>
[(4Z,6R,7R,8S,10E,12E,14E,16R)-6-hydroxy-16-methoxy-5,7-dimethyl-18,22,24-trioxo-19-azabicyclo[18.3.1]tetracosa-1(23),4,10,12,14,20-hexaen-8-yl] (2R)-2-(cyclohexanecarbonylamino)propanoate

> <PUBCHEM_IUPAC_SYSTEMATIC_NAME>
[(4Z,6R,7R,8S,10E,12E,14E,16R)-16-methoxy-5,7-dimethyl-6-oxidanyl-18,22,24-tris(oxidanylidene)-19-azabicyclo[18.3.1]tetracosa-1(23),4,10,12,14,20-hexaen-8-yl] (2R)-2-(cyclohexylcarbonylamino)propanoate

> <PUBCHEM_IUPAC_TRADITIONAL_NAME>
(2R)-2-(cyclohexanecarbonylamino)propionic acid [(4Z,6R,7R,8S,10E,12E,14E,16R)-6-hydroxy-18,22,24-triketo-16-methoxy-5,7-dimethyl-19-azabicyclo[18.3.1]tetracosa-1(23),4,10,12,14,20-hexaen-8-yl] ester

> <PUBCHEM_IUPAC_INCHI>
InChI=1S/C36H48N2O8/c1-23-14-13-17-27-20-28(39)21-30(34(27)42)38-32(40)22-29(45-4)18-11-6-5-7-12-19-31(24(2)33(23)41)46-36(44)25(3)37-35(43)26-15-9-8-10-16-26/h5-7,11-12,14,18,20-21,24-26,29,31,33,41H,8-10,13,15-17,19,22H2,1-4H3,(H,37,43)(H,38,40)/b6-5+,12-7+,18-11+,23-14-/t24-,25+,29-,31-,33-/m0/s1

> <PUBCHEM_IUPAC_INCHIKEY>
WWUVMHRJRCRFSL-UOZMSBJPSA-N

> <PUBCHEM_XLOGP3_AA>
4.5

> <PUBCHEM_EXACT_MASS>
636.341067

> <PUBCHEM_MOLECULAR_FORMULA>
C36H48N2O8

> <PUBCHEM_MOLECULAR_WEIGHT>
636.77492

> <PUBCHEM_OPENEYE_CAN_SMILES>
CC1C(CC=CC=CC=CC(CC(=O)NC2=CC(=O)C=C(C2=O)CCC=C(C1O)C)OC)OC(=O)C(C)NC(=O)C3CCCCC3

> <PUBCHEM_OPENEYE_ISO_SMILES>
C[C@H]1[C@H](C/C=C/C=C/C=C/[C@@H](CC(=O)NC2=CC(=O)C=C(C2=O)CC/C=C(\[C@@H]1O)/C)OC)OC(=O)[C@@H](C)NC(=O)C3CCCCC3

> <PUBCHEM_CACTVS_TPSA>
148

> <PUBCHEM_MONOISOTOPIC_WEIGHT>
636.341067

> <PUBCHEM_TOTAL_CHARGE>
0

> <PUBCHEM_HEAVY_ATOM_COUNT>
46

> <PUBCHEM_ATOM_DEF_STEREO_COUNT>
5

> <PUBCHEM_ATOM_UDEF_STEREO_COUNT>
0

> <PUBCHEM_BOND_DEF_STEREO_COUNT>
4

> <PUBCHEM_BOND_UDEF_STEREO_COUNT>
0

> <PUBCHEM_ISOTOPIC_ATOM_COUNT>
0

> <PUBCHEM_COMPONENT_COUNT>
1

> <PUBCHEM_CACTVS_TAUTO_COUNT>
156

> <PUBCHEM_COORDINATE_TYPE>
1
5
255

> <PUBCHEM_BONDANNOTATIONS>
19  1  6
18  23  6
21  3  6
41  7  5
20  9  5

$$$$

