443073
  -OEChem-07051213013D

 17 16  0     1  0  0  0  0  0999 V2000
    1.1128    0.6203    1.3530 O   0  0  0  0  0  0  0  0  0  0  0  0
    0.2664   -1.6939   -0.1076 O   0  0  0  0  0  0  0  0  0  0  0  0
   -2.0655   -0.6045    0.6046 O   0  0  0  0  0  0  0  0  0  0  0  0
   -1.6905    1.3240   -0.5873 N   0  0  0  0  0  0  0  0  0  0  0  0
    1.1451    0.5566   -0.0731 C   0  0  2  0  0  0  0  0  0  0  0  0
    0.0367   -0.3753   -0.5795 C   0  0  2  0  0  0  0  0  0  0  0  0
    2.5334    0.0926   -0.4991 C   0  0  0  0  0  0  0  0  0  0  0  0
   -1.3384    0.0803   -0.1109 C   0  0  0  0  0  0  0  0  0  0  0  0
    0.9900    1.5762   -0.4404 H   0  0  0  0  0  0  0  0  0  0  0  0
    0.0423   -0.4017   -1.6756 H   0  0  0  0  0  0  0  0  0  0  0  0
    2.7820   -0.8833   -0.0683 H   0  0  0  0  0  0  0  0  0  0  0  0
    3.2935    0.7931   -0.1359 H   0  0  0  0  0  0  0  0  0  0  0  0
    2.6126    0.0283   -1.5885 H   0  0  0  0  0  0  0  0  0  0  0  0
    1.2242   -0.2845    1.6919 H   0  0  0  0  0  0  0  0  0  0  0  0
   -0.3835   -2.2759   -0.5375 H   0  0  0  0  0  0  0  0  0  0  0  0
   -1.0945    1.8619   -1.2079 H   0  0  0  0  0  0  0  0  0  0  0  0
   -2.5851    1.7381   -0.3473 H   0  0  0  0  0  0  0  0  0  0  0  0
  1  5  1  0  0  0  0
  1 14  1  0  0  0  0
  2  6  1  0  0  0  0
  2 15  1  0  0  0  0
  3  8  2  0  0  0  0
  4  8  1  0  0  0  0
  4 16  1  0  0  0  0
  4 17  1  0  0  0  0
  5  6  1  0  0  0  0
  5  7  1  0  0  0  0
  5  9  1  0  0  0  0
  6  8  1  0  0  0  0
  6 10  1  0  0  0  0
  7 11  1  0  0  0  0
  7 12  1  0  0  0  0
  7 13  1  0  0  0  0
M  END
> <PUBCHEM_COMPOUND_CID>
443073

> <PUBCHEM_CONFORMER_RMSD>
0.4

> <PUBCHEM_CONFORMER_DIVERSEORDER>
1
36
2
33
34
11
27
30
15
14
37
5
38
35
32
26
12
20
24
25
7
28
4
29
22
17
31
18
10
9
8
6
23
19
21
13
16
3

> <PUBCHEM_MMFF94_PARTIAL_CHARGES>
11
1 -0.68
14 0.4
15 0.4
16 0.37
17 0.37
2 -0.68
3 -0.57
4 -0.8
5 0.28
6 0.34
8 0.57

> <PUBCHEM_EFFECTIVE_ROTOR_COUNT>
2

> <PUBCHEM_PHARMACOPHORE_FEATURES>
6
1 1 acceptor
1 1 donor
1 2 acceptor
1 2 donor
1 3 acceptor
1 4 donor

> <PUBCHEM_HEAVY_ATOM_COUNT>
8

> <PUBCHEM_ATOM_DEF_STEREO_COUNT>
0

> <PUBCHEM_ATOM_UDEF_STEREO_COUNT>
2

> <PUBCHEM_BOND_DEF_STEREO_COUNT>
0

> <PUBCHEM_BOND_UDEF_STEREO_COUNT>
0

> <PUBCHEM_ISOTOPIC_ATOM_COUNT>
0

> <PUBCHEM_COMPONENT_COUNT>
1

> <PUBCHEM_CACTVS_TAUTO_COUNT>
2

> <PUBCHEM_CONFORMER_ID>
0006C2C100000001

> <PUBCHEM_MMFF94_ENERGY>
9.0326

> <PUBCHEM_FEATURE_SELFOVERLAP>
30.459

> <PUBCHEM_SHAPE_FINGERPRINT>
16714656 1 18269827640679067038
20096714 4 17313386690596863777
21040471 1 18410583893725412174
24536 1 18059024980792866093
29004967 10 16515952727384009902
5084963 1 18187646855905816733

> <PUBCHEM_SHAPE_MULTIPOLES>
142.05
2.83
1.2
0.92
0.45
0.24
-0.22
-0.36
0.13
-0.25
0.08
0.15
-0.14
0.31

> <PUBCHEM_SHAPE_SELFOVERLAP>
265.245

> <PUBCHEM_SHAPE_VOLUME>
89

> <PUBCHEM_COORDINATE_TYPE>
2
5
10

$$$$

