583013
  -OEChem-06241222443D

 18 18  0     0  0  0  0  0  0999 V2000
   -1.9580    2.3545    0.0001 Br  0  0  0  0  0  0  0  0  0  0  0  0
    0.6579    1.4481    0.0001 N   0  0  0  0  0  0  0  0  0  0  0  0
   -3.4145   -1.1813    0.0002 N   0  0  0  0  0  0  0  0  0  0  0  0
    1.3885   -0.8565   -0.0001 C   0  0  0  0  0  0  0  0  0  0  0  0
    1.6294    0.5080   -0.0002 C   0  0  0  0  0  0  0  0  0  0  0  0
    0.0654   -1.2836   -0.0003 C   0  0  0  0  0  0  0  0  0  0  0  0
    2.4938   -1.8552    0.0003 C   0  0  0  0  0  0  0  0  0  0  0  0
    3.0311    1.0245    0.0000 C   0  0  0  0  0  0  0  0  0  0  0  0
   -0.9619   -0.3464   -0.0002 C   0  0  0  0  0  0  0  0  0  0  0  0
   -0.6158    0.9952    0.0001 C   0  0  0  0  0  0  0  0  0  0  0  0
   -2.3159   -0.8074   -0.0001 C   0  0  0  0  0  0  0  0  0  0  0  0
   -0.1640   -2.3472   -0.0003 H   0  0  0  0  0  0  0  0  0  0  0  0
    2.1116   -2.8819    0.0003 H   0  0  0  0  0  0  0  0  0  0  0  0
    3.1167   -1.7426   -0.8929 H   0  0  0  0  0  0  0  0  0  0  0  0
    3.1161   -1.7425    0.8939 H   0  0  0  0  0  0  0  0  0  0  0  0
    3.5677    0.6908   -0.8936 H   0  0  0  0  0  0  0  0  0  0  0  0
    3.0419    2.1200   -0.0003 H   0  0  0  0  0  0  0  0  0  0  0  0
    3.5673    0.6913    0.8940 H   0  0  0  0  0  0  0  0  0  0  0  0
  1 10  1  0  0  0  0
  2  5  2  0  0  0  0
  2 10  1  0  0  0  0
  3 11  3  0  0  0  0
  4  5  1  0  0  0  0
  4  6  2  0  0  0  0
  4  7  1  0  0  0  0
  5  8  1  0  0  0  0
  6  9  1  0  0  0  0
  6 12  1  0  0  0  0
  7 13  1  0  0  0  0
  7 14  1  0  0  0  0
  7 15  1  0  0  0  0
  8 16  1  0  0  0  0
  8 17  1  0  0  0  0
  8 18  1  0  0  0  0
  9 10  2  0  0  0  0
  9 11  1  0  0  0  0
M  END
> <PUBCHEM_COMPOUND_CID>
583013

> <PUBCHEM_CONFORMER_RMSD>
0.4

> <PUBCHEM_CONFORMER_DIVERSEORDER>
1

> <PUBCHEM_MMFF94_PARTIAL_CHARGES>
12
1 -0.11
10 0.42
11 0.48
12 0.15
2 -0.62
3 -0.56
4 -0.14
5 0.17
6 -0.15
7 0.14
8 0.14
9 0.07

> <PUBCHEM_EFFECTIVE_ROTOR_COUNT>
0

> <PUBCHEM_PHARMACOPHORE_FEATURES>
4
1 1 hydrophobe
1 2 acceptor
1 3 acceptor
6 2 4 5 6 9 10 rings

> <PUBCHEM_HEAVY_ATOM_COUNT>
11

> <PUBCHEM_ATOM_DEF_STEREO_COUNT>
0

> <PUBCHEM_ATOM_UDEF_STEREO_COUNT>
0

> <PUBCHEM_BOND_DEF_STEREO_COUNT>
0

> <PUBCHEM_BOND_UDEF_STEREO_COUNT>
0

> <PUBCHEM_ISOTOPIC_ATOM_COUNT>
0

> <PUBCHEM_COMPONENT_COUNT>
1

> <PUBCHEM_CACTVS_TAUTO_COUNT>
1

> <PUBCHEM_CONFORMER_ID>
0008E56500000001

> <PUBCHEM_MMFF94_ENERGY>
22.4097

> <PUBCHEM_FEATURE_SELFOVERLAP>
20.297

> <PUBCHEM_SHAPE_FINGERPRINT>
11206711 2 18411412899675810349
12423570 1 12316872805307757394
13380535 21 18337662139419920588
161256 15 18408036299656476206
16945 1 18338798896993200164
193761 8 18338799038753598628
19973954 147 18338800116690156692
20201158 50 18271247101727523011
20511035 2 18044393839812905724
20588541 1 18268990877886389842
20645477 70 18410017632880493071
20711985 365 18338238283676171671
21040471 1 17978229687987000933
21501502 16 18339359772445859952
2334 1 18410856589826003364
23402655 69 18337126622298001005
23552423 10 18272085054110109398
23559900 14 17902229254860493062
241688 4 18269836578543115224
2748010 2 18337955700471246260
5084963 1 18259984907087319146
528886 8 18192998118895196586

> <PUBCHEM_SHAPE_MULTIPOLES>
222.36
4.42
2.31
0.62
0.18
0.55
0
-0.54
0
0.71
0
0.01
0.03
0

> <PUBCHEM_SHAPE_SELFOVERLAP>
447.807

> <PUBCHEM_SHAPE_VOLUME>
134

> <PUBCHEM_COORDINATE_TYPE>
2
5
10

$$$$

