439835
  -OEChem-07051212473D

 35 35  0     1  0  0  0  0  0999 V2000
    0.9420    2.4348   -0.1647 P   0  0  1  0  0  0  0  0  0  0  0  0
    3.0071    0.3789    0.2523 P   0  0  2  0  0  0  0  0  0  0  0  0
    2.1098   -2.4251    0.0619 P   0  0  0  0  0  0  0  0  0  0  0  0
   -3.0775   -0.2230   -1.4410 O   0  0  0  0  0  0  0  0  0  0  0  0
   -2.3964    1.0613    1.8386 O   0  0  0  0  0  0  0  0  0  0  0  0
   -4.7563   -0.0998    1.0496 O   0  0  0  0  0  0  0  0  0  0  0  0
   -0.6624    2.2506   -0.2641 O   0  0  0  0  0  0  0  0  0  0  0  0
   -2.6783   -2.4356   -0.7468 O   0  0  0  0  0  0  0  0  0  0  0  0
    1.5015    0.9536    0.1562 O   0  0  0  0  0  0  0  0  0  0  0  0
    1.4131    2.6853   -1.6921 O   0  0  0  0  0  0  0  0  0  0  0  0
    1.3969    3.4871    0.8043 O   0  0  0  0  0  0  0  0  0  0  0  0
    2.7957   -1.1398    0.7613 O   0  0  0  0  0  0  0  0  0  0  0  0
    3.6252    1.1268    1.5452 O   0  0  0  0  0  0  0  0  0  0  0  0
    3.8224    0.5097   -1.0004 O   0  0  0  0  0  0  0  0  0  0  0  0
    2.4241   -3.6305    1.0915 O   0  0  0  0  0  0  0  0  0  0  0  0
    3.0913   -2.7299   -1.1857 O   0  0  0  0  0  0  0  0  0  0  0  0
    0.6633   -2.2461   -0.2939 O   0  0  0  0  0  0  0  0  0  0  0  0
   -2.3735    0.1204    0.7865 C   0  0  2  0  0  0  0  0  0  0  0  0
   -2.5241    0.7823   -0.5734 C   0  0  1  0  0  0  0  0  0  0  0  0
   -3.5570   -0.8261    0.7999 C   0  0  2  0  0  0  0  0  0  0  0  0
   -3.5558   -1.3211   -0.6390 C   0  0  1  0  0  0  0  0  0  0  0  0
   -1.2111    1.2861   -1.1461 C   0  0  0  0  0  0  0  0  0  0  0  0
   -1.4417   -0.4554    0.8458 H   0  0  0  0  0  0  0  0  0  0  0  0
   -3.2281    1.6225   -0.5175 H   0  0  0  0  0  0  0  0  0  0  0  0
   -3.4637   -1.6134    1.5529 H   0  0  0  0  0  0  0  0  0  0  0  0
   -4.5535   -1.6087   -0.9867 H   0  0  0  0  0  0  0  0  0  0  0  0
   -1.3760    1.7522   -2.1235 H   0  0  0  0  0  0  0  0  0  0  0  0
   -0.5165    0.4539   -1.3057 H   0  0  0  0  0  0  0  0  0  0  0  0
   -1.6491    1.6689    1.7054 H   0  0  0  0  0  0  0  0  0  0  0  0
   -4.9439    0.4758    0.2897 H   0  0  0  0  0  0  0  0  0  0  0  0
   -2.9381   -2.9270   -1.5445 H   0  0  0  0  0  0  0  0  0  0  0  0
    1.3091    3.5803   -2.0797 H   0  0  0  0  0  0  0  0  0  0  0  0
    3.9260    2.0563    1.4569 H   0  0  0  0  0  0  0  0  0  0  0  0
    2.0354   -4.5147    0.9205 H   0  0  0  0  0  0  0  0  0  0  0  0
    2.8361   -3.4215   -1.8327 H   0  0  0  0  0  0  0  0  0  0  0  0
  1  7  1  0  0  0  0
  1  9  1  0  0  0  0
  1 10  1  0  0  0  0
  1 11  2  0  0  0  0
  2  9  1  0  0  0  0
  2 12  1  0  0  0  0
  2 13  1  0  0  0  0
  2 14  2  0  0  0  0
  3 12  1  0  0  0  0
  3 15  1  0  0  0  0
  3 16  1  0  0  0  0
  3 17  2  0  0  0  0
  4 19  1  0  0  0  0
  4 21  1  0  0  0  0
  5 18  1  0  0  0  0
  5 29  1  0  0  0  0
  6 20  1  0  0  0  0
  6 30  1  0  0  0  0
  7 22  1  0  0  0  0
  8 21  1  0  0  0  0
  8 31  1  0  0  0  0
 10 32  1  0  0  0  0
 13 33  1  0  0  0  0
 15 34  1  0  0  0  0
 16 35  1  0  0  0  0
 18 19  1  0  0  0  0
 18 20  1  0  0  0  0
 18 23  1  0  0  0  0
 19 22  1  0  0  0  0
 19 24  1  0  0  0  0
 20 21  1  0  0  0  0
 20 25  1  0  0  0  0
 21 26  1  0  0  0  0
 22 27  1  0  0  0  0
 22 28  1  0  0  0  0
M  END
> <PUBCHEM_COMPOUND_CID>
439835

> <PUBCHEM_CONFORMER_RMSD>
0.8

> <PUBCHEM_CONFORMER_DIVERSEORDER>
2
238
420
42
397
17
434
83
398
174
336
250
114
387
263
241
44
312
209
289
134
354
400
304
256
124
43
414
308
245
55
19
251
349
59
425
190
431
145
391
72
119
243
401
184
377
171
235
257
112
248
15
315
139
423
254
300
383
341
160
417
87
386
273
370
159
175
303
97
437
31
305
307
351
367
279
103
246
261
394
193
444
143
296
258
325
52
207
67
81
183
402
107
23
428
323
419
151
228
99
111
50
345
395
192
276
270
166
283
137
445
439
46
359
105
129
149
20
342
368
446
45
9
406
14
376
37
429
389
260
33
255
244
360
212
442
363
135
61
173
427
353
317
202
121
239
70
411
267
1
426
369
32
319
362
433
259
182
199
25
393
54
332
211
404
69
36
435
76
94
358
170
26
74
338
49
155
264
77
318
371
118
125
220
22
337
164
381
329
158
80
247
441
117
430
147
128
321
65
66
403
378
95
68
165
223
102
194
309
421
340
153
302
86
424
407
78
110
51
348
352
132
436
320
186
196
330
181
306
224
347
210
13
100
335
16
48
399
136
53
227
167
443
333
6
127
163
222
322
422
274
195
221
240
92
12
126
133
101
326
56
91
208
120
438
58
98
27
388
146
21
408
346
169
57
379
157
294
268
73
271
380
191
123
39
75
214
108
116
343
34
213
410
148
162
113
291
104
60
178
35
84
150
41
156
249
409
218
432
281
314
198
154
215
298
152
293
5
364
7
38
82
185
288
106
282
88
265
334
286
297
253
3
201
71
188
405
356
216
176
295
374
355
11
63
29
266
285
219
385
138
142
413
144
197
277
130
396
316
140
189
392
62
292
280
64
339
233
109
161
200
372
24
328
177
28
373
365
90
440
275
375
311
30
350
122
231
168
172
299
93
418
47
290
229
40
217
131
236
287
412
180
89
232
187
204
96
205
344
115
179
384
206
366
361
4
85
79
234
313
141
310
18
272
252
415
237
269
284
324
10
278
242
382
301
203
327
390
8
357
225
416
331
262
226
230

> <PUBCHEM_MMFF94_PARTIAL_CHARGES>
29
1 1.51
10 -0.77
11 -0.7
12 -0.54
13 -0.77
14 -0.7
15 -0.77
16 -0.77
17 -0.7
18 0.28
19 0.28
2 1.51
20 0.28
21 0.56
22 0.28
29 0.4
3 1.51
30 0.4
31 0.4
32 0.5
33 0.5
34 0.5
35 0.5
4 -0.56
5 -0.68
6 -0.68
7 -0.55
8 -0.68
9 -0.54

> <PUBCHEM_EFFECTIVE_ROTOR_COUNT>
8

> <PUBCHEM_PHARMACOPHORE_FEATURES>
16
1 10 acceptor
1 11 acceptor
1 13 acceptor
1 14 acceptor
1 15 acceptor
1 16 acceptor
1 17 acceptor
1 4 acceptor
1 5 acceptor
1 5 donor
1 6 acceptor
1 6 donor
1 8 acceptor
1 8 donor
4 3 15 16 17 anion
5 4 18 19 20 21 rings

> <PUBCHEM_HEAVY_ATOM_COUNT>
22

> <PUBCHEM_ATOM_DEF_STEREO_COUNT>
4

> <PUBCHEM_ATOM_UDEF_STEREO_COUNT>
0

> <PUBCHEM_BOND_DEF_STEREO_COUNT>
0

> <PUBCHEM_BOND_UDEF_STEREO_COUNT>
0

> <PUBCHEM_ISOTOPIC_ATOM_COUNT>
0

> <PUBCHEM_COMPONENT_COUNT>
1

> <PUBCHEM_CACTVS_TAUTO_COUNT>
1

> <PUBCHEM_CONFORMER_ID>
0006B61B00000002

> <PUBCHEM_MMFF94_ENERGY>
-28.8146

> <PUBCHEM_FEATURE_SELFOVERLAP>
81.3

> <PUBCHEM_SHAPE_FINGERPRINT>
12054548 360 18195525020307767486
12363563 72 17703516561884938680
12506688 2 18411422851315462348
12553582 1 18411420604815419077
12596599 1 17968364680710303662
13140716 1 18123472674350252952
13533116 47 18337102360027790819
14178342 30 18337681913665941464
14251705 54 18341615957505498526
14251757 17 17840909336459397039
14251757 5 16464727915118693214
15635459 17 18273500061108323923
20291156 8 18338512074829750294
20645477 70 18128833945072381485
2255824 54 18197491823013375908
6287921 2 18040709277327240654
7097593 13 18333724728415147889

> <PUBCHEM_SHAPE_MULTIPOLES>
382.13
7.54
3.93
1.42
2.84
0.85
0.07
2.8
1.02
-3.55
-0.17
0.18
-0.28
-0.21

> <PUBCHEM_SHAPE_SELFOVERLAP>
723.754

> <PUBCHEM_SHAPE_VOLUME>
236.7

> <PUBCHEM_COORDINATE_TYPE>
2
5
10

$$$$

