30196
  -OEChem-07051213063D

 58 61  0     1  0  0  0  0  0999 V2000
    5.3899    1.3246    0.3147 O   0  0  0  0  0  0  0  0  0  0  0  0
   -5.2996   -0.7349   -0.8966 O   0  0  0  0  0  0  0  0  0  0  0  0
   -6.0476    1.7266   -0.1556 O   0  0  0  0  0  0  0  0  0  0  0  0
    1.0066   -0.9653    0.2495 C   0  0  1  0  0  0  0  0  0  0  0  0
    2.4027   -0.6815   -0.3221 C   0  0  1  0  0  0  0  0  0  0  0  0
    0.0658    0.2338   -0.0970 C   0  0  1  0  0  0  0  0  0  0  0  0
    3.0331    0.6135    0.2345 C   0  0  1  0  0  0  0  0  0  0  0  0
   -1.4059   -0.0031    0.4149 C   0  0  2  0  0  0  0  0  0  0  0  0
    4.4463    0.5517   -0.4242 C   0  0  2  0  0  0  0  0  0  0  0  0
   -1.9029   -1.3539   -0.1937 C   0  0  1  0  0  0  0  0  0  0  0  0
    0.6805    1.5945    0.3254 C   0  0  0  0  0  0  0  0  0  0  0  0
    2.1261    1.7879   -0.1696 C   0  0  0  0  0  0  0  0  0  0  0  0
    3.4967   -1.7252   -0.1214 C   0  0  0  0  0  0  0  0  0  0  0  0
    0.4401   -2.2867   -0.2889 C   0  0  0  0  0  0  0  0  0  0  0  0
    4.8127   -0.9544   -0.3350 C   0  0  0  0  0  0  0  0  0  0  0  0
   -0.9939   -2.5327    0.1713 C   0  0  0  0  0  0  0  0  0  0  0  0
   -2.3505    1.1161   -0.1152 C   0  0  0  0  0  0  0  0  0  0  0  0
    3.1856    0.6124    1.7841 C   0  0  0  0  0  0  0  0  0  0  0  0
   -1.4561   -0.0060    1.9631 C   0  0  0  0  0  0  0  0  0  0  0  0
   -3.3623   -1.6644    0.1451 C   0  0  0  0  0  0  0  0  0  0  0  0
   -3.8409    0.8727    0.1729 C   0  0  2  0  0  0  0  0  0  0  0  0
    4.5174    1.0417   -1.8760 C   0  0  0  0  0  0  0  0  0  0  0  0
   -4.2519   -0.5201   -0.2874 C   0  0  0  0  0  0  0  0  0  0  0  0
   -4.6919    1.9527   -0.4929 C   0  0  0  0  0  0  0  0  0  0  0  0
    1.0854   -1.0701    1.3363 H   0  0  0  0  0  0  0  0  0  0  0  0
    2.2729   -0.5755   -1.4100 H   0  0  0  0  0  0  0  0  0  0  0  0
    0.0077    0.2716   -1.1967 H   0  0  0  0  0  0  0  0  0  0  0  0
   -1.8579   -1.2490   -1.2895 H   0  0  0  0  0  0  0  0  0  0  0  0
    0.6529    1.7097    1.4128 H   0  0  0  0  0  0  0  0  0  0  0  0
    0.0819    2.4157   -0.0840 H   0  0  0  0  0  0  0  0  0  0  0  0
    2.0875    1.8895   -1.2607 H   0  0  0  0  0  0  0  0  0  0  0  0
    2.5254    2.7330    0.2171 H   0  0  0  0  0  0  0  0  0  0  0  0
    3.4047   -2.5547   -0.8301 H   0  0  0  0  0  0  0  0  0  0  0  0
    3.4649   -2.1500    0.8883 H   0  0  0  0  0  0  0  0  0  0  0  0
    1.0640   -3.1263    0.0391 H   0  0  0  0  0  0  0  0  0  0  0  0
    0.4686   -2.2834   -1.3862 H   0  0  0  0  0  0  0  0  0  0  0  0
    5.5070   -1.1688    0.4857 H   0  0  0  0  0  0  0  0  0  0  0  0
    5.3039   -1.2999   -1.2523 H   0  0  0  0  0  0  0  0  0  0  0  0
   -1.3630   -3.4486   -0.3065 H   0  0  0  0  0  0  0  0  0  0  0  0
   -1.0132   -2.7180    1.2514 H   0  0  0  0  0  0  0  0  0  0  0  0
   -2.2088    1.2132   -1.2006 H   0  0  0  0  0  0  0  0  0  0  0  0
   -2.0725    2.0825    0.3225 H   0  0  0  0  0  0  0  0  0  0  0  0
    2.2347    0.4787    2.3061 H   0  0  0  0  0  0  0  0  0  0  0  0
    3.8485   -0.1823    2.1410 H   0  0  0  0  0  0  0  0  0  0  0  0
    3.5991    1.5660    2.1328 H   0  0  0  0  0  0  0  0  0  0  0  0
   -2.4471   -0.2599    2.3490 H   0  0  0  0  0  0  0  0  0  0  0  0
   -0.7595   -0.7224    2.4054 H   0  0  0  0  0  0  0  0  0  0  0  0
   -1.2115    0.9810    2.3695 H   0  0  0  0  0  0  0  0  0  0  0  0
   -3.5161   -1.8472    1.2129 H   0  0  0  0  0  0  0  0  0  0  0  0
   -3.6826   -2.5659   -0.3906 H   0  0  0  0  0  0  0  0  0  0  0  0
   -4.0341    0.9028    1.2521 H   0  0  0  0  0  0  0  0  0  0  0  0
    4.3075    2.1152   -1.9377 H   0  0  0  0  0  0  0  0  0  0  0  0
    5.5333    0.9153   -2.2696 H   0  0  0  0  0  0  0  0  0  0  0  0
    3.8318    0.5095   -2.5408 H   0  0  0  0  0  0  0  0  0  0  0  0
    5.6088    0.8619    1.1401 H   0  0  0  0  0  0  0  0  0  0  0  0
   -4.5947    1.9429   -1.5839 H   0  0  0  0  0  0  0  0  0  0  0  0
   -4.4124    2.9467   -0.1302 H   0  0  0  0  0  0  0  0  0  0  0  0
   -6.3606    0.9584   -0.6616 H   0  0  0  0  0  0  0  0  0  0  0  0
  1  9  1  0  0  0  0
  1 55  1  0  0  0  0
  2 23  2  0  0  0  0
  3 24  1  0  0  0  0
  3 58  1  0  0  0  0
  4  5  1  0  0  0  0
  4  6  1  0  0  0  0
  4 14  1  0  0  0  0
  4 25  1  0  0  0  0
  5  7  1  0  0  0  0
  5 13  1  0  0  0  0
  5 26  1  0  0  0  0
  6  8  1  0  0  0  0
  6 11  1  0  0  0  0
  6 27  1  0  0  0  0
  7  9  1  0  0  0  0
  7 12  1  0  0  0  0
  7 18  1  0  0  0  0
  8 10  1  0  0  0  0
  8 17  1  0  0  0  0
  8 19  1  0  0  0  0
  9 15  1  0  0  0  0
  9 22  1  0  0  0  0
 10 16  1  0  0  0  0
 10 20  1  0  0  0  0
 10 28  1  0  0  0  0
 11 12  1  0  0  0  0
 11 29  1  0  0  0  0
 11 30  1  0  0  0  0
 12 31  1  0  0  0  0
 12 32  1  0  0  0  0
 13 15  1  0  0  0  0
 13 33  1  0  0  0  0
 13 34  1  0  0  0  0
 14 16  1  0  0  0  0
 14 35  1  0  0  0  0
 14 36  1  0  0  0  0
 15 37  1  0  0  0  0
 15 38  1  0  0  0  0
 16 39  1  0  0  0  0
 16 40  1  0  0  0  0
 17 21  1  0  0  0  0
 17 41  1  0  0  0  0
 17 42  1  0  0  0  0
 18 43  1  0  0  0  0
 18 44  1  0  0  0  0
 18 45  1  0  0  0  0
 19 46  1  0  0  0  0
 19 47  1  0  0  0  0
 19 48  1  0  0  0  0
 20 23  1  0  0  0  0
 20 49  1  0  0  0  0
 20 50  1  0  0  0  0
 21 23  1  0  0  0  0
 21 24  1  0  0  0  0
 21 51  1  0  0  0  0
 22 52  1  0  0  0  0
 22 53  1  0  0  0  0
 22 54  1  0  0  0  0
 24 56  1  0  0  0  0
 24 57  1  0  0  0  0
M  END
> <PUBCHEM_COMPOUND_CID>
30196

> <PUBCHEM_CONFORMER_RMSD>
0.6

> <PUBCHEM_CONFORMER_DIVERSEORDER>
1
2

> <PUBCHEM_MMFF94_PARTIAL_CHARGES>
10
1 -0.68
2 -0.57
20 0.06
21 0.06
23 0.45
24 0.28
3 -0.68
55 0.4
58 0.4
9 0.28

> <PUBCHEM_EFFECTIVE_ROTOR_COUNT>
3

> <PUBCHEM_PHARMACOPHORE_FEATURES>
9
1 1 acceptor
1 1 donor
1 2 acceptor
1 3 acceptor
1 3 donor
5 5 7 9 13 15 rings
6 4 5 6 7 11 12 rings
6 4 6 8 10 14 16 rings
6 8 10 17 20 21 23 rings

> <PUBCHEM_HEAVY_ATOM_COUNT>
24

> <PUBCHEM_ATOM_DEF_STEREO_COUNT>
8

> <PUBCHEM_ATOM_UDEF_STEREO_COUNT>
0

> <PUBCHEM_BOND_DEF_STEREO_COUNT>
0

> <PUBCHEM_BOND_UDEF_STEREO_COUNT>
0

> <PUBCHEM_ISOTOPIC_ATOM_COUNT>
0

> <PUBCHEM_COMPONENT_COUNT>
1

> <PUBCHEM_CACTVS_TAUTO_COUNT>
3

> <PUBCHEM_CONFORMER_ID>
000075F400000001

> <PUBCHEM_MMFF94_ENERGY>
90.4081

> <PUBCHEM_FEATURE_SELFOVERLAP>
45.764

> <PUBCHEM_SHAPE_FINGERPRINT>
10366900 7 16877937227057004530
10411042 1 17618784661428889755
10498660 4 18408035208924881896
11315181 36 17748819701446373560
11578080 2 16445892791070709339
11595378 159 16271370828198568629
11796584 16 14490485213471214805
12011746 2 18260823804890160070
12236239 1 17917714570166154336
12403259 415 18187929439226923593
12592029 89 18342177795284307083
12633257 1 15482389764150363464
12788726 201 17968935421671421753
13224815 77 17821723918915488402
14528608 73 18408324388766765319
14790565 3 18339073908271555349
15099037 51 18411418414497895805
15183329 4 18409450323286716173
15196674 1 18410012147626422431
15238133 3 18131638885218703264
15420108 30 16456838884759947442
15788980 27 18201434796206025161
1601671 61 18342457041125433540
16752209 62 18336550404204502402
16945 1 18192717734988080010
17349148 13 17676480644609761419
18186145 218 17967808327868730219
18222031 100 13984669160956614409
18608769 82 18267018345890308771
19862831 5 17894346683183325161
200 152 17603304838883349467
20645477 70 18187643639550650062
20715895 44 18197501924955583309
21033648 29 18261402113092952209
21267235 1 18409440363057375879
21279426 13 18336545022626090742
21421861 104 17702680976577705554
221357 26 18333736797568297845
22393880 68 18259988158372203111
23227448 37 18409168796981544239
23402539 116 18334581252262676541
23402655 69 18334859428466919095
23559900 14 18260269655208670624
3004659 81 18341893035074189942
335352 9 18410854412852753582
34797466 226 17530959133980916332
34934 24 18412829067000613186
350125 39 18410568449735191723
3545911 37 18408039606596697225
3680242 22 18269838781771817042
4214541 1 18410293614361241205
4280585 95 17394720022710702670
474 4 17632574924814541303
495365 180 17386300830537717698
5104073 3 18410855477455984803
542803 24 17632574946231511469
543358 83 18341893026003973546
6138700 20 18265894838296126046
633830 44 17775565334049497378
9709674 26 18265052431567820627

> <PUBCHEM_SHAPE_MULTIPOLES>
476.3
11.59
2.3
1.15
3.78
0.59
0.28
-4.15
-2.75
0.79
-0.22
-0.7
-0.24
0.07

> <PUBCHEM_SHAPE_SELFOVERLAP>
1011.032

> <PUBCHEM_SHAPE_VOLUME>
264.2

> <PUBCHEM_COORDINATE_TYPE>
2
5
10

$$$$

