5283821
  -OEChem-07051213073D

 68 71  0     1  0  0  0  0  0999 V2000
   -3.6806    2.4908    1.4753 O   0  0  0  0  0  0  0  0  0  0  0  0
   -4.7921   -3.5170    0.7597 O   0  0  0  0  0  0  0  0  0  0  0  0
    6.4581   -2.6503    1.1062 O   0  0  0  0  0  0  0  0  0  0  0  0
    7.2528   -0.5270    0.9796 O   0  0  0  0  0  0  0  0  0  0  0  0
    0.2799    0.6532    0.6631 C   0  0  2  0  0  0  0  0  0  0  0  0
    1.0612    0.7980   -0.6603 C   0  0  1  0  0  0  0  0  0  0  0  0
   -1.2094    0.9910    0.5193 C   0  0  1  0  0  0  0  0  0  0  0  0
   -1.8427    0.0224   -0.5322 C   0  0  1  0  0  0  0  0  0  0  0  0
   -3.3849    0.2814   -0.7181 C   0  0  2  0  0  0  0  0  0  0  0  0
    2.4809    0.4515   -0.1489 C   0  0  2  0  0  0  0  0  0  0  0  0
   -4.0984    0.2153    0.6818 C   0  0  2  0  0  0  0  0  0  0  0  0
    0.4753   -0.2066   -1.6610 C   0  0  0  0  0  0  0  0  0  0  0  0
   -1.0366    0.0041   -1.8598 C   0  0  0  0  0  0  0  0  0  0  0  0
    1.1245    1.4349    1.6654 C   0  0  0  0  0  0  0  0  0  0  0  0
   -1.9328    0.8963    1.8716 C   0  0  0  0  0  0  0  0  0  0  0  0
    2.5739    1.1955    1.2037 C   0  0  0  0  0  0  0  0  0  0  0  0
   -3.4409    1.1128    1.7526 C   0  0  1  0  0  0  0  0  0  0  0  0
   -4.0522   -0.7639   -1.6634 C   0  0  0  0  0  0  0  0  0  0  0  0
    1.0199    2.2227   -1.2677 C   0  0  0  0  0  0  0  0  0  0  0  0
   -4.1955   -1.2284    1.2263 C   0  0  0  0  0  0  0  0  0  0  0  0
    3.6392    0.7728   -1.0822 C   0  0  1  0  0  0  0  0  0  0  0  0
   -3.6375    1.6575   -1.3887 C   0  0  0  0  0  0  0  0  0  0  0  0
   -4.1061   -2.1758   -1.0977 C   0  0  0  0  0  0  0  0  0  0  0  0
   -4.8364   -2.1937    0.2361 C   0  0  1  0  0  0  0  0  0  0  0  0
    4.9796    0.4106   -0.4102 C   0  0  0  0  0  0  0  0  0  0  0  0
    3.4527    0.0485   -2.4195 C   0  0  0  0  0  0  0  0  0  0  0  0
    5.0753   -1.0533    0.0243 C   0  0  0  0  0  0  0  0  0  0  0  0
    6.3727   -1.3432    0.7449 C   0  0  0  0  0  0  0  0  0  0  0  0
    0.3308   -0.4013    0.9834 H   0  0  0  0  0  0  0  0  0  0  0  0
   -1.3016    2.0252    0.1741 H   0  0  0  0  0  0  0  0  0  0  0  0
   -1.7295   -0.9891   -0.1180 H   0  0  0  0  0  0  0  0  0  0  0  0
    2.4723   -0.6256    0.0644 H   0  0  0  0  0  0  0  0  0  0  0  0
   -5.1286    0.5740    0.5403 H   0  0  0  0  0  0  0  0  0  0  0  0
    0.6418   -1.2334   -1.3110 H   0  0  0  0  0  0  0  0  0  0  0  0
    0.9278   -0.1347   -2.6505 H   0  0  0  0  0  0  0  0  0  0  0  0
   -1.1978    0.9326   -2.4163 H   0  0  0  0  0  0  0  0  0  0  0  0
   -1.3964   -0.8072   -2.5019 H   0  0  0  0  0  0  0  0  0  0  0  0
    0.9723    1.0836    2.6910 H   0  0  0  0  0  0  0  0  0  0  0  0
    0.8876    2.5045    1.6425 H   0  0  0  0  0  0  0  0  0  0  0  0
   -1.7364   -0.0823    2.3255 H   0  0  0  0  0  0  0  0  0  0  0  0
   -1.5149    1.6472    2.5535 H   0  0  0  0  0  0  0  0  0  0  0  0
    3.0893    2.1586    1.1144 H   0  0  0  0  0  0  0  0  0  0  0  0
    3.1197    0.5964    1.9407 H   0  0  0  0  0  0  0  0  0  0  0  0
   -3.9071    0.9166    2.7257 H   0  0  0  0  0  0  0  0  0  0  0  0
   -3.5578   -0.7848   -2.6406 H   0  0  0  0  0  0  0  0  0  0  0  0
   -5.0851   -0.4478   -1.8691 H   0  0  0  0  0  0  0  0  0  0  0  0
    1.4926    2.9667   -0.6187 H   0  0  0  0  0  0  0  0  0  0  0  0
    1.5337    2.2640   -2.2329 H   0  0  0  0  0  0  0  0  0  0  0  0
    0.0003    2.5718   -1.4518 H   0  0  0  0  0  0  0  0  0  0  0  0
   -3.2094   -1.6111    1.5149 H   0  0  0  0  0  0  0  0  0  0  0  0
   -4.7837   -1.2366    2.1534 H   0  0  0  0  0  0  0  0  0  0  0  0
    3.6818    1.8496   -1.2884 H   0  0  0  0  0  0  0  0  0  0  0  0
   -3.0976    2.4779   -0.9128 H   0  0  0  0  0  0  0  0  0  0  0  0
   -3.3368    1.6489   -2.4423 H   0  0  0  0  0  0  0  0  0  0  0  0
   -4.7037    1.9124   -1.3672 H   0  0  0  0  0  0  0  0  0  0  0  0
   -4.6214   -2.8390   -1.8037 H   0  0  0  0  0  0  0  0  0  0  0  0
   -3.0973   -2.5927   -0.9935 H   0  0  0  0  0  0  0  0  0  0  0  0
   -5.8906   -1.9320    0.0908 H   0  0  0  0  0  0  0  0  0  0  0  0
    5.8003    0.6332   -1.1052 H   0  0  0  0  0  0  0  0  0  0  0  0
    5.1509    1.0629    0.4552 H   0  0  0  0  0  0  0  0  0  0  0  0
    3.1104   -0.9835   -2.2950 H   0  0  0  0  0  0  0  0  0  0  0  0
    2.7771    0.5903   -3.0841 H   0  0  0  0  0  0  0  0  0  0  0  0
    4.4073    0.0043   -2.9577 H   0  0  0  0  0  0  0  0  0  0  0  0
   -3.2951    3.0109    2.2007 H   0  0  0  0  0  0  0  0  0  0  0  0
   -3.8598   -3.7556    0.8991 H   0  0  0  0  0  0  0  0  0  0  0  0
    4.2836   -1.3168    0.7299 H   0  0  0  0  0  0  0  0  0  0  0  0
    5.0183   -1.7126   -0.8479 H   0  0  0  0  0  0  0  0  0  0  0  0
    7.2992   -2.8465    1.5714 H   0  0  0  0  0  0  0  0  0  0  0  0
  1 17  1  0  0  0  0
  1 64  1  0  0  0  0
  2 24  1  0  0  0  0
  2 65  1  0  0  0  0
  3 28  1  0  0  0  0
  3 68  1  0  0  0  0
  4 28  2  0  0  0  0
  5  6  1  0  0  0  0
  5  7  1  0  0  0  0
  5 14  1  0  0  0  0
  5 29  1  0  0  0  0
  6 10  1  0  0  0  0
  6 12  1  0  0  0  0
  6 19  1  0  0  0  0
  7  8  1  0  0  0  0
  7 15  1  0  0  0  0
  7 30  1  0  0  0  0
  8  9  1  0  0  0  0
  8 13  1  0  0  0  0
  8 31  1  0  0  0  0
  9 11  1  0  0  0  0
  9 18  1  0  0  0  0
  9 22  1  0  0  0  0
 10 16  1  0  0  0  0
 10 21  1  0  0  0  0
 10 32  1  0  0  0  0
 11 17  1  0  0  0  0
 11 20  1  0  0  0  0
 11 33  1  0  0  0  0
 12 13  1  0  0  0  0
 12 34  1  0  0  0  0
 12 35  1  0  0  0  0
 13 36  1  0  0  0  0
 13 37  1  0  0  0  0
 14 16  1  0  0  0  0
 14 38  1  0  0  0  0
 14 39  1  0  0  0  0
 15 17  1  0  0  0  0
 15 40  1  0  0  0  0
 15 41  1  0  0  0  0
 16 42  1  0  0  0  0
 16 43  1  0  0  0  0
 17 44  1  0  0  0  0
 18 23  1  0  0  0  0
 18 45  1  0  0  0  0
 18 46  1  0  0  0  0
 19 47  1  0  0  0  0
 19 48  1  0  0  0  0
 19 49  1  0  0  0  0
 20 24  1  0  0  0  0
 20 50  1  0  0  0  0
 20 51  1  0  0  0  0
 21 25  1  0  0  0  0
 21 26  1  0  0  0  0
 21 52  1  0  0  0  0
 22 53  1  0  0  0  0
 22 54  1  0  0  0  0
 22 55  1  0  0  0  0
 23 24  1  0  0  0  0
 23 56  1  0  0  0  0
 23 57  1  0  0  0  0
 24 58  1  0  0  0  0
 25 27  1  0  0  0  0
 25 59  1  0  0  0  0
 25 60  1  0  0  0  0
 26 61  1  0  0  0  0
 26 62  1  0  0  0  0
 26 63  1  0  0  0  0
 27 28  1  0  0  0  0
 27 66  1  0  0  0  0
 27 67  1  0  0  0  0
M  END
> <PUBCHEM_COMPOUND_CID>
5283821

> <PUBCHEM_CONFORMER_RMSD>
0.8

> <PUBCHEM_CONFORMER_DIVERSEORDER>
3
6
11
7
10
4
9
5
13
8
1
12
2

> <PUBCHEM_MMFF94_PARTIAL_CHARGES>
11
1 -0.68
17 0.28
2 -0.68
24 0.28
27 0.06
28 0.66
3 -0.65
4 -0.57
64 0.4
65 0.4
68 0.5

> <PUBCHEM_EFFECTIVE_ROTOR_COUNT>
6.2

> <PUBCHEM_PHARMACOPHORE_FEATURES>
12
1 1 acceptor
1 1 donor
1 2 acceptor
1 2 donor
1 26 hydrophobe
1 3 acceptor
1 4 acceptor
3 3 4 28 anion
5 5 6 10 14 16 rings
6 5 6 7 8 12 13 rings
6 7 8 9 11 15 17 rings
6 9 11 18 20 23 24 rings

> <PUBCHEM_HEAVY_ATOM_COUNT>
28

> <PUBCHEM_ATOM_DEF_STEREO_COUNT>
10

> <PUBCHEM_ATOM_UDEF_STEREO_COUNT>
0

> <PUBCHEM_BOND_DEF_STEREO_COUNT>
0

> <PUBCHEM_BOND_UDEF_STEREO_COUNT>
0

> <PUBCHEM_ISOTOPIC_ATOM_COUNT>
0

> <PUBCHEM_COMPONENT_COUNT>
1

> <PUBCHEM_CACTVS_TAUTO_COUNT>
1

> <PUBCHEM_CONFORMER_ID>
00509FED00000003

> <PUBCHEM_MMFF94_ENERGY>
96.8039

> <PUBCHEM_FEATURE_SELFOVERLAP>
61.078

> <PUBCHEM_SHAPE_FINGERPRINT>
10 15 17022905640624964272
10076449 9 12319442287537803673
10319926 262 17386277822582574926
10498660 4 13470413223218143509
10670039 82 12679467503991183486
11796584 16 18341055224066626750
12403259 415 15213287652117320140
12422481 6 16588309440614787604
12596602 18 18333452036973189810
12616971 3 17988911297675119012
12633257 1 16226046647976919716
12954195 1 15913053196136740468
13140716 1 16661778635161725967
13224815 77 17676760964720603293
13383661 66 17343204235168470667
13583140 156 18261683644025576045
13675066 3 16660352697318996260
13782708 43 17418379112638375978
14211702 104 18408879646893552718
14251751 18 18341896281732063422
14251764 30 18201442463060349526
15183329 4 14333126403954928464
15188451 53 18334297522449370855
15788980 27 17988921184705587364
17349148 13 18336535041195733238
17780758 139 18259987084809564747
17980427 23 5112006157511845224
1813 80 18336537296729349388
18927931 339 17676202464147390509
19377110 9 17967814899807178296
20567600 247 18060143141712467298
21033648 29 16443336619909326057
21637258 2 18272656731806276426
21709351 56 12679456474277458958
22122407 14 7348880118679346750
22182313 1 16299486409978395525
22393880 68 14476957844383618200
23379529 103 16842179867729610635
23559900 14 18128827356629583045
23569914 152 15765323938710086818
23569914 2 8716849390167266290
2838139 119 8286189566469616730
392239 28 16805608036145659282
4015057 19 17203317867623265492
484985 159 18335417934016022931
5104073 3 17748824085969842400
531348 171 17988649656725298071

> <PUBCHEM_SHAPE_MULTIPOLES>
552.75
14.14
2.44
2.08
18.68
1.27
0.4
9.96
-4.14
-2.17
-0.83
-0.19
-0.29
-1.15

> <PUBCHEM_SHAPE_SELFOVERLAP>
1157.81

> <PUBCHEM_SHAPE_VOLUME>
310.9

> <PUBCHEM_COORDINATE_TYPE>
2
5
10

$$$$

