104758
  -OEChem-07051213013D

 54 56  0     1  0  0  0  0  0999 V2000
    0.4256   -1.7161    1.2153 S   0  0  0  0  0  0  0  0  0  0  0  0
    5.6132    3.5513    0.4650 O   0  0  0  0  0  0  0  0  0  0  0  0
    2.7695   -0.1454    2.2233 O   0  0  0  0  0  0  0  0  0  0  0  0
    4.1039    2.9314   -1.1124 O   0  0  0  0  0  0  0  0  0  0  0  0
   -3.4769    2.2393   -1.5298 O   0  0  0  0  0  0  0  0  0  0  0  0
    8.1917   -1.1188   -1.5634 O   0  0  0  0  0  0  0  0  0  0  0  0
    8.2527   -1.0059    0.7018 O   0  0  0  0  0  0  0  0  0  0  0  0
   -1.5794   -2.9537   -0.1237 N   0  0  3  0  0  0  0  0  0  0  0  0
    3.4747    0.6671    0.1938 N   0  0  0  0  0  0  0  0  0  0  0  0
   -6.4885    0.9689    0.7910 N   0  0  0  0  0  0  0  0  0  0  0  0
   -5.3670    2.7448   -0.3360 N   0  0  0  0  0  0  0  0  0  0  0  0
   -2.6803   -2.8300   -1.0540 C   0  0  0  0  0  0  0  0  0  0  0  0
    4.5832    1.4197    0.7360 C   0  0  1  0  0  0  0  0  0  0  0  0
   -3.6814   -1.8367   -0.5669 C   0  0  0  0  0  0  0  0  0  0  0  0
    5.8712    0.5926    0.8294 C   0  0  0  0  0  0  0  0  0  0  0  0
   -0.4624   -2.1310   -0.1889 C   0  0  0  0  0  0  0  0  0  0  0  0
   -4.5023    0.4286   -0.4608 C   0  0  0  0  0  0  0  0  0  0  0  0
   -3.5587   -0.4934   -0.9217 C   0  0  0  0  0  0  0  0  0  0  0  0
   -5.5672    0.0160    0.3520 C   0  0  0  0  0  0  0  0  0  0  0  0
    6.4370    0.0841   -0.5027 C   0  0  0  0  0  0  0  0  0  0  0  0
   -4.7385   -2.2554    0.2420 C   0  0  0  0  0  0  0  0  0  0  0  0
    1.5244   -0.7684    0.3061 C   0  0  0  0  0  0  0  0  0  0  0  0
   -5.6796   -1.3323    0.7007 C   0  0  0  0  0  0  0  0  0  0  0  0
    2.5917   -0.1036    0.9809 C   0  0  0  0  0  0  0  0  0  0  0  0
   -1.6894   -3.9876    0.9075 C   0  0  0  0  0  0  0  0  0  0  0  0
    0.0685   -1.5587   -1.3240 C   0  0  0  0  0  0  0  0  0  0  0  0
    1.2194   -0.7694   -1.0371 C   0  0  0  0  0  0  0  0  0  0  0  0
    4.7263    2.6830   -0.0879 C   0  0  0  0  0  0  0  0  0  0  0  0
   -4.4066    1.8724   -0.8178 C   0  0  0  0  0  0  0  0  0  0  0  0
   -6.3234    2.2814    0.4151 C   0  0  0  0  0  0  0  0  0  0  0  0
    7.7003   -0.7363   -0.3555 C   0  0  0  0  0  0  0  0  0  0  0  0
   -7.3517    3.2620    0.9228 C   0  0  0  0  0  0  0  0  0  0  0  0
   -3.1711   -3.8010   -1.2055 H   0  0  0  0  0  0  0  0  0  0  0  0
   -2.3439   -2.5567   -2.0616 H   0  0  0  0  0  0  0  0  0  0  0  0
    4.2974    1.7389    1.7460 H   0  0  0  0  0  0  0  0  0  0  0  0
    6.6449    1.1913    1.3276 H   0  0  0  0  0  0  0  0  0  0  0  0
    5.6914   -0.2708    1.4836 H   0  0  0  0  0  0  0  0  0  0  0  0
   -2.7361   -0.1728   -1.5549 H   0  0  0  0  0  0  0  0  0  0  0  0
    5.6927   -0.5451   -1.0031 H   0  0  0  0  0  0  0  0  0  0  0  0
    6.6700    0.9365   -1.1504 H   0  0  0  0  0  0  0  0  0  0  0  0
    3.3501    0.6941   -0.8128 H   0  0  0  0  0  0  0  0  0  0  0  0
   -4.8416   -3.3001    0.5236 H   0  0  0  0  0  0  0  0  0  0  0  0
   -6.4977   -1.6731    1.3302 H   0  0  0  0  0  0  0  0  0  0  0  0
   -2.4357   -4.7448    0.6429 H   0  0  0  0  0  0  0  0  0  0  0  0
   -1.9912   -3.5451    1.8628 H   0  0  0  0  0  0  0  0  0  0  0  0
   -0.7389   -4.5164    1.0407 H   0  0  0  0  0  0  0  0  0  0  0  0
   -0.3245   -1.6917   -2.3235 H   0  0  0  0  0  0  0  0  0  0  0  0
    1.7763   -0.2413   -1.8000 H   0  0  0  0  0  0  0  0  0  0  0  0
   -7.2574    0.6693    1.3786 H   0  0  0  0  0  0  0  0  0  0  0  0
   -8.3394    2.9769    0.5494 H   0  0  0  0  0  0  0  0  0  0  0  0
   -7.1213    4.2766    0.5864 H   0  0  0  0  0  0  0  0  0  0  0  0
   -7.3642    3.2420    2.0163 H   0  0  0  0  0  0  0  0  0  0  0  0
    5.6931    4.3758   -0.0604 H   0  0  0  0  0  0  0  0  0  0  0  0
    9.0205   -1.6357   -1.4735 H   0  0  0  0  0  0  0  0  0  0  0  0
  1 16  1  0  0  0  0
  1 22  1  0  0  0  0
  2 28  1  0  0  0  0
  2 53  1  0  0  0  0
  3 24  2  0  0  0  0
  4 28  2  0  0  0  0
  5 29  2  0  0  0  0
  6 31  1  0  0  0  0
  6 54  1  0  0  0  0
  7 31  2  0  0  0  0
  8 12  1  0  0  0  0
  8 16  1  0  0  0  0
  8 25  1  0  0  0  0
  9 13  1  0  0  0  0
  9 24  1  0  0  0  0
  9 41  1  0  0  0  0
 10 19  1  0  0  0  0
 10 30  1  0  0  0  0
 10 49  1  0  0  0  0
 11 29  1  0  0  0  0
 11 30  2  0  0  0  0
 12 14  1  0  0  0  0
 12 33  1  0  0  0  0
 12 34  1  0  0  0  0
 13 15  1  0  0  0  0
 13 28  1  0  0  0  0
 13 35  1  0  0  0  0
 14 18  2  0  0  0  0
 14 21  1  0  0  0  0
 15 20  1  0  0  0  0
 15 36  1  0  0  0  0
 15 37  1  0  0  0  0
 16 26  2  0  0  0  0
 17 18  1  0  0  0  0
 17 19  2  0  0  0  0
 17 29  1  0  0  0  0
 18 38  1  0  0  0  0
 19 23  1  0  0  0  0
 20 31  1  0  0  0  0
 20 39  1  0  0  0  0
 20 40  1  0  0  0  0
 21 23  2  0  0  0  0
 21 42  1  0  0  0  0
 22 24  1  0  0  0  0
 22 27  2  0  0  0  0
 23 43  1  0  0  0  0
 25 44  1  0  0  0  0
 25 45  1  0  0  0  0
 25 46  1  0  0  0  0
 26 27  1  0  0  0  0
 26 47  1  0  0  0  0
 27 48  1  0  0  0  0
 30 32  1  0  0  0  0
 32 50  1  0  0  0  0
 32 51  1  0  0  0  0
 32 52  1  0  0  0  0
M  END
> <PUBCHEM_COMPOUND_CID>
104758

> <PUBCHEM_CONFORMER_RMSD>
1

> <PUBCHEM_CONFORMER_DIVERSEORDER>
2
158
179
299
248
210
79
57
260
278
102
238
275
7
335
227
240
257
271
292
130
132
289
293
254
302
34
249
229
276
313
39
311
209
282
327
243
122
319
261
190
287
328
273
73
147
333
318
280
180
267
133
143
166
324
164
232
110
120
75
121
162
197
37
199
32
281
172
231
135
259
58
201
306
152
70
286
111
206
191
26
47
60
45
113
255
252
277
242
224
314
283
29
195
298
22
317
161
95
184
329
305
300
216
291
124
178
154
14
61
294
168
270
241
127
144
59
160
139
235
157
308
17
310
295
114
4
181
142
316
141
36
117
123
325
20
196
155
109
62
279
272
221
125
163
228
263
290
198
129
334
170
322
51
236
156
74
320
151
258
68
10
86
177
246
48
82
250
159
116
165
101
54
112
315
33
89
93
65
30
215
266
52
268
81
244
78
76
42
186
188
148
131
303
220
64
103
137
203
265
63
205
153
331
288
218
338
84
23
173
214
262
167
212
176
9
85
183
77
100
67
330
53
90
66
189
301
332
297
326
3
269
274
323
223
237
5
115
19
99
138
15
72
217
28
253
105
46
307
44
108
27
41
149
222
336
140
145
56
312
146
208
202
204
97
174
200
230
284
337
226
91
194
107
106
285
233
12
225
128
69
251
219
309
92
182
304
98
18
296
21
11
321
187
6
239
43
16
49
256
104
245
264
118
119
1
126
25
193
339
24
71
211
175
88
247
50
8
55
80
87
234
40
83
171
185
31
136
35
96
169
38
150
94
134
13
207
213
192

> <PUBCHEM_MMFF94_PARTIAL_CHARGES>
40
1 -0.08
10 -0.55
11 -0.66
12 0.51
13 0.36
14 -0.14
16 0.12
17 0.09
18 -0.15
19 0.1
2 -0.65
20 0.06
21 -0.15
22 -0.05
23 -0.15
24 0.71
25 0.37
26 -0.15
27 -0.15
28 0.66
29 0.69
3 -0.57
30 0.44
31 0.66
32 0.06
38 0.15
4 -0.57
41 0.37
42 0.15
43 0.15
47 0.15
48 0.15
49 0.4
5 -0.57
53 0.5
54 0.5
6 -0.65
7 -0.57
8 -0.82
9 -0.73

> <PUBCHEM_EFFECTIVE_ROTOR_COUNT>
10

> <PUBCHEM_PHARMACOPHORE_FEATURES>
15
1 10 donor
1 11 donor
1 2 acceptor
1 3 acceptor
1 4 acceptor
1 5 acceptor
1 6 acceptor
1 7 acceptor
1 8 cation
1 9 donor
3 2 4 28 anion
3 6 7 31 anion
5 1 16 22 26 27 rings
6 10 11 17 19 29 30 rings
6 14 17 18 19 21 23 rings

> <PUBCHEM_HEAVY_ATOM_COUNT>
32

> <PUBCHEM_ATOM_DEF_STEREO_COUNT>
1

> <PUBCHEM_ATOM_UDEF_STEREO_COUNT>
0

> <PUBCHEM_BOND_DEF_STEREO_COUNT>
0

> <PUBCHEM_BOND_UDEF_STEREO_COUNT>
0

> <PUBCHEM_ISOTOPIC_ATOM_COUNT>
0

> <PUBCHEM_COMPONENT_COUNT>
1

> <PUBCHEM_CACTVS_TAUTO_COUNT>
6

> <PUBCHEM_CONFORMER_ID>
0001993600000002

> <PUBCHEM_MMFF94_ENERGY>
81.2778

> <PUBCHEM_FEATURE_SELFOVERLAP>
76.293

> <PUBCHEM_SHAPE_FINGERPRINT>
10190108 129 17632577197427344728
10580692 12 18409731746977474946
10670039 82 18412833477520933407
10864689 126 18261962937286222313
11408170 132 18410284789243152796
12107183 9 18269853045711959842
13726171 33 18408601440455397041
14251764 75 18336261349538961945
14257110 125 18410014347440760975
14279260 333 17458622380328021054
14347329 18 18335430032125889451
14664723 55 18261387884447107777
14856354 85 17560797697816142875
15183329 4 18411992342947433974
15357212 105 17058064629557908332
15475509 8 18272929432581675910
15604295 49 17900828142034379072
15728490 51 9943802284055080088
16110190 28 18343019987216728941
18393751 57 18271802398877710091
19302320 297 18341044198680285009
19611394 137 17986381201762208419
20691028 202 18408609145547558657
20775438 99 10012148953673293881
21302155 148 18411135810483265805
21756936 100 18409736153577062623
21814621 53 18188214191823162498
21927370 108 18197494018807651275
2838139 119 18113905918314025431
38570 142 17989207040686369602
397638 26 18334300880987007472
4144715 1 18196648502290564338
4280585 95 7853571310035888267
437795 163 9511451226242873232
531348 171 18114465552564095110
6126387 218 18259991458088877986
636775 72 18047760295594935640
6700243 42 17253672042341923974
7808743 9 18408891711619613387
9849439 229 18411696617516596487

> <PUBCHEM_SHAPE_MULTIPOLES>
607.25
22.77
4.29
1.33
24.32
0.95
0.06
13.49
0.87
-4.25
0.13
0.49
-0.13
-0.01

> <PUBCHEM_SHAPE_SELFOVERLAP>
1280.572

> <PUBCHEM_SHAPE_VOLUME>
342.2

> <PUBCHEM_COORDINATE_TYPE>
2
5
10

$$$$

