854044
  -OEChem-06241222473D

 27 28  0     0  0  0  0  0  0999 V2000
    5.1900    0.2849   -0.3660 Cl  0  0  0  0  0  0  0  0  0  0  0  0
    1.4579    1.5521    0.2319 O   0  0  0  0  0  0  0  0  0  0  0  0
   -2.8241   -0.5103    0.5717 O   0  0  0  0  0  0  0  0  0  0  0  0
    3.4730    2.5933    0.0794 O   0  0  0  0  0  0  0  0  0  0  0  0
   -5.4672    1.5728   -0.6725 O   0  0  0  0  0  0  0  0  0  0  0  0
   -5.4176   -0.6647   -0.2495 O   0  0  0  0  0  0  0  0  0  0  0  0
    1.3098   -0.8717    0.0134 C   0  0  0  0  0  0  0  0  0  0  0  0
    0.7025    0.3669    0.2113 C   0  0  0  0  0  0  0  0  0  0  0  0
    2.7739   -0.9290   -0.1774 C   0  0  0  0  0  0  0  0  0  0  0  0
    0.4760   -2.0006    0.0087 C   0  0  0  0  0  0  0  0  0  0  0  0
   -0.6749    0.5070    0.3992 C   0  0  0  0  0  0  0  0  0  0  0  0
   -1.4813   -0.6252    0.3902 C   0  0  0  0  0  0  0  0  0  0  0  0
   -0.9062   -1.8782    0.1953 C   0  0  0  0  0  0  0  0  0  0  0  0
    3.4689    0.2237   -0.1525 C   0  0  0  0  0  0  0  0  0  0  0  0
    3.3908   -2.2893   -0.3900 C   0  0  0  0  0  0  0  0  0  0  0  0
    2.8329    1.5472    0.0572 C   0  0  0  0  0  0  0  0  0  0  0  0
   -3.4401    0.6968    0.1240 C   0  0  0  0  0  0  0  0  0  0  0  0
   -4.8641    0.4243   -0.2743 C   0  0  0  0  0  0  0  0  0  0  0  0
    0.8756   -3.0004   -0.1394 H   0  0  0  0  0  0  0  0  0  0  0  0
   -1.0752    1.5014    0.5731 H   0  0  0  0  0  0  0  0  0  0  0  0
   -1.5276   -2.7701    0.1867 H   0  0  0  0  0  0  0  0  0  0  0  0
    3.2003   -2.9367    0.4733 H   0  0  0  0  0  0  0  0  0  0  0  0
    4.4750   -2.2658   -0.5256 H   0  0  0  0  0  0  0  0  0  0  0  0
    2.9764   -2.7631   -1.2869 H   0  0  0  0  0  0  0  0  0  0  0  0
   -3.4378    1.4231    0.9435 H   0  0  0  0  0  0  0  0  0  0  0  0
   -2.9409    1.0973   -0.7672 H   0  0  0  0  0  0  0  0  0  0  0  0
   -6.3997    1.4235   -0.9381 H   0  0  0  0  0  0  0  0  0  0  0  0
  1 14  1  0  0  0  0
  2  8  1  0  0  0  0
  2 16  1  0  0  0  0
  3 12  1  0  0  0  0
  3 17  1  0  0  0  0
  4 16  2  0  0  0  0
  5 18  1  0  0  0  0
  5 27  1  0  0  0  0
  6 18  2  0  0  0  0
  7  8  2  0  0  0  0
  7  9  1  0  0  0  0
  7 10  1  0  0  0  0
  8 11  1  0  0  0  0
  9 14  2  0  0  0  0
  9 15  1  0  0  0  0
 10 13  2  0  0  0  0
 10 19  1  0  0  0  0
 11 12  2  0  0  0  0
 11 20  1  0  0  0  0
 12 13  1  0  0  0  0
 13 21  1  0  0  0  0
 14 16  1  0  0  0  0
 15 22  1  0  0  0  0
 15 23  1  0  0  0  0
 15 24  1  0  0  0  0
 17 18  1  0  0  0  0
 17 25  1  0  0  0  0
 17 26  1  0  0  0  0
M  END
> <PUBCHEM_COMPOUND_CID>
854044

> <PUBCHEM_CONFORMER_RMSD>
0.6

> <PUBCHEM_CONFORMER_DIVERSEORDER>
1
12
5
10
3
8
11
2
9
4
7
6

> <PUBCHEM_MMFF94_PARTIAL_CHARGES>
22
1 -0.14
10 -0.15
11 -0.15
12 0.08
13 -0.15
14 0.15
15 0.14
16 0.71
17 0.34
18 0.66
19 0.15
2 -0.23
20 0.15
21 0.15
27 0.5
3 -0.36
4 -0.57
5 -0.65
6 -0.57
7 0.03
8 0.08
9 -0.17

> <PUBCHEM_EFFECTIVE_ROTOR_COUNT>
3

> <PUBCHEM_PHARMACOPHORE_FEATURES>
7
1 3 acceptor
1 4 acceptor
1 5 acceptor
1 6 acceptor
3 5 6 18 anion
6 2 7 8 9 14 16 rings
6 7 8 10 11 12 13 rings

> <PUBCHEM_HEAVY_ATOM_COUNT>
18

> <PUBCHEM_ATOM_DEF_STEREO_COUNT>
0

> <PUBCHEM_ATOM_UDEF_STEREO_COUNT>
0

> <PUBCHEM_BOND_DEF_STEREO_COUNT>
0

> <PUBCHEM_BOND_UDEF_STEREO_COUNT>
0

> <PUBCHEM_ISOTOPIC_ATOM_COUNT>
0

> <PUBCHEM_COMPONENT_COUNT>
1

> <PUBCHEM_CACTVS_TAUTO_COUNT>
1

> <PUBCHEM_CONFORMER_ID>
000D081C00000001

> <PUBCHEM_MMFF94_ENERGY>
57.2685

> <PUBCHEM_FEATURE_SELFOVERLAP>
35.609

> <PUBCHEM_SHAPE_FINGERPRINT>
10411042 1 17690279738951645922
10608611 8 18339358552801683648
10693767 8 17896315986362306190
10967382 1 18409442592577568466
11471102 20 18409728491070082438
12011746 2 18408876361422114102
12236239 1 17530682121453828153
12403259 415 18202001049585487117
13140716 1 18265902350573046584
13583140 156 17632571630817342505
14911166 2 18408035217477828326
15099037 51 18410290315747236582
15196674 1 18338233748190596690
16945 1 18336252480251809554
17834072 33 18334016068968348847
18186145 218 18261660532721971755
200 152 17894912949262910193
20645477 56 18202281386110884599
20645477 70 18335136531109348414
21267235 1 18335409166995676554
212847 35 18202281420481068612
21452121 103 18410302406196304168
221357 26 18336551611686502669
22289505 5 18410575128013932180
231179 274 17988647423489977603
23402539 116 18335145284426420221
23402655 69 18334016124929413717
23559900 14 18335138713364152362
25 1 18412830191654582999
2748010 2 18048587124312060754
29717793 49 17385720335374035717
3060560 45 18261109716246815030
335352 9 18410572877983663214
34934 24 18409452466807920506
351380 180 18411983580744183981
3545911 37 18411696561144009875
4072396 5 18410584998413137914
495365 180 17822864082667229728
4990 188 18113332016267819991
5104073 3 18342454859603547939
543358 83 18337668736441883355
633830 44 18341339967729662631
69090 78 18408605842384976095
7364860 26 18334288774065088906

> <PUBCHEM_SHAPE_MULTIPOLES>
342.95
10.66
2.22
0.68
10.96
0.02
-0.01
-3.29
-2.3
-1.73
-0.06
0.11
0.01
0.51

> <PUBCHEM_SHAPE_SELFOVERLAP>
727.047

> <PUBCHEM_SHAPE_VOLUME>
192.2

> <PUBCHEM_COORDINATE_TYPE>
2
5
10

$$$$

