20218
  -OEChem-07051212472D

 26 27  0     1  0  0  0  0  0999 V2000
    2.2412   -2.4545    0.0000 O   0  0  0  0  0  0  0  0  0  0  0  0
    7.1888    0.2185    0.0000 O   0  0  0  0  0  0  0  0  0  0  0  0
    3.7543    1.4600    0.0000 C   0  0  0  0  0  0  0  0  0  0  0  0
    4.2320   -0.4886    0.0000 C   0  0  3  0  0  0  0  0  0  0  0  0
    4.4909    0.4774    0.0000 C   0  0  3  0  0  0  0  0  0  0  0  0
    6.0640   -1.2474    0.0000 C   0  0  0  0  0  0  0  0  0  0  0  0
    2.0000   -0.6225    0.0000 C   0  0  0  0  0  0  0  0  0  0  0  0
    2.5000   -1.4886    0.0000 C   0  0  0  0  0  0  0  0  0  0  0  0
    6.3228   -0.2815    0.0000 C   0  0  0  0  0  0  0  0  0  0  0  0
    3.8588    2.4545    0.0000 C   0  0  0  0  0  0  0  0  0  0  0  0
    2.8407    1.8667    0.0000 C   0  0  0  0  0  0  0  0  0  0  0  0
    3.9732   -1.4545    0.0000 C   0  0  0  0  0  0  0  0  0  0  0  0
    4.4980   -0.1426    0.0000 H   0  0  0  0  0  0  0  0  0  0  0  0
    5.8520   -1.8300    0.0000 H   0  0  0  0  0  0  0  0  0  0  0  0
    6.6553   -1.4338    0.0000 H   0  0  0  0  0  0  0  0  0  0  0  0
    1.7294   -0.0647    0.0000 H   0  0  0  0  0  0  0  0  0  0  0  0
    1.4523   -0.9131    0.0000 H   0  0  0  0  0  0  0  0  0  0  0  0
    4.4754    2.3897    0.0000 H   0  0  0  0  0  0  0  0  0  0  0  0
    3.0929    2.4331    0.0000 H   0  0  0  0  0  0  0  0  0  0  0  0
    2.2743    2.1189    0.0000 H   0  0  0  0  0  0  0  0  0  0  0  0
    2.5885    1.3003    0.0000 H   0  0  0  0  0  0  0  0  0  0  0  0
    3.9236    3.0711    0.0000 H   0  0  0  0  0  0  0  0  0  0  0  0
    3.2422    2.5193    0.0000 H   0  0  0  0  0  0  0  0  0  0  0  0
    3.3744   -1.2940    0.0000 H   0  0  0  0  0  0  0  0  0  0  0  0
    3.8128   -2.0534    0.0000 H   0  0  0  0  0  0  0  0  0  0  0  0
    4.5721   -1.6150    0.0000 H   0  0  0  0  0  0  0  0  0  0  0  0
  1  8  2  0  0  0  0
  2  9  2  0  0  0  0
  3  4  1  0  0  0  0
  3  5  1  0  0  0  0
  3 10  1  0  0  0  0
  3 11  1  0  0  0  0
  4  6  1  0  0  0  0
  4  8  1  0  0  0  0
  4 12  1  0  0  0  0
  5  7  1  0  0  0  0
  5  9  1  0  0  0  0
  5 13  1  0  0  0  0
  6  9  1  0  0  0  0
  6 14  1  0  0  0  0
  6 15  1  0  0  0  0
  7  8  1  0  0  0  0
  7 16  1  0  0  0  0
  7 17  1  0  0  0  0
 10 18  1  0  0  0  0
 10 22  1  0  0  0  0
 10 23  1  0  0  0  0
 11 19  1  0  0  0  0
 11 20  1  0  0  0  0
 11 21  1  0  0  0  0
 12 24  1  0  0  0  0
 12 25  1  0  0  0  0
 12 26  1  0  0  0  0
M  END
> <PUBCHEM_COMPOUND_CID>
20218

> <PUBCHEM_COMPOUND_CANONICALIZED>
1

> <PUBCHEM_CACTVS_COMPLEXITY>
278

> <PUBCHEM_CACTVS_HBOND_ACCEPTOR>
2

> <PUBCHEM_CACTVS_HBOND_DONOR>
0

> <PUBCHEM_CACTVS_ROTATABLE_BOND>
0

> <PUBCHEM_CACTVS_SUBSKEYS>
AAADccBwMAAAAAAAAAAAAAAAAAAAAYMAAAAwAAAAAAAAAAAAAAAAGgAAAAAADwSAgAACAAAAAAAIAIAQAAAAAAAAAAAAAAEAAAAAABIAAAAAAAAAAAAAAAEJisCvgAAAAAAAAACAAAAAAAAAAQAACAAAAA==

> <PUBCHEM_IUPAC_OPENEYE_NAME>
1,7,7-trimethylnorbornane-2,5-dione

> <PUBCHEM_IUPAC_CAS_NAME>
4,7,7-trimethylbicyclo[2.2.1]heptane-2,5-dione

> <PUBCHEM_IUPAC_NAME>
4,7,7-trimethylbicyclo[2.2.1]heptane-2,5-dione

> <PUBCHEM_IUPAC_SYSTEMATIC_NAME>
4,7,7-trimethylbicyclo[2.2.1]heptane-2,5-dione

> <PUBCHEM_IUPAC_TRADITIONAL_NAME>
1,7,7-trimethylnorbornane-2,5-quinone

> <PUBCHEM_IUPAC_INCHI>
InChI=1S/C10H14O2/c1-9(2)6-4-8(12)10(9,3)5-7(6)11/h6H,4-5H2,1-3H3

> <PUBCHEM_IUPAC_INCHIKEY>
UDIUFGIXIGLRSM-UHFFFAOYSA-N

> <PUBCHEM_XLOGP3_AA>
0.8

> <PUBCHEM_EXACT_MASS>
166.09938

> <PUBCHEM_MOLECULAR_FORMULA>
C10H14O2

> <PUBCHEM_MOLECULAR_WEIGHT>
166.21696

> <PUBCHEM_OPENEYE_CAN_SMILES>
CC1(C2CC(=O)C1(CC2=O)C)C

> <PUBCHEM_OPENEYE_ISO_SMILES>
CC1(C2CC(=O)C1(CC2=O)C)C

> <PUBCHEM_CACTVS_TPSA>
34.1

> <PUBCHEM_MONOISOTOPIC_WEIGHT>
166.09938

> <PUBCHEM_TOTAL_CHARGE>
0

> <PUBCHEM_HEAVY_ATOM_COUNT>
12

> <PUBCHEM_ATOM_DEF_STEREO_COUNT>
0

> <PUBCHEM_ATOM_UDEF_STEREO_COUNT>
2

> <PUBCHEM_BOND_DEF_STEREO_COUNT>
0

> <PUBCHEM_BOND_UDEF_STEREO_COUNT>
0

> <PUBCHEM_ISOTOPIC_ATOM_COUNT>
0

> <PUBCHEM_COMPONENT_COUNT>
1

> <PUBCHEM_CACTVS_TAUTO_COUNT>
4

> <PUBCHEM_COORDINATE_TYPE>
1
5
255

> <PUBCHEM_BONDANNOTATIONS>
5  3  3
4  12  3

$$$$

