17395798
  -OEChem-06241222523D

 41 44  0     1  0  0  0  0  0999 V2000
    3.1583   -2.6094    1.1810 S   0  0  0  0  0  0  0  0  0  0  0  0
    4.1940   -0.1762   -0.4612 O   0  0  0  0  0  0  0  0  0  0  0  0
    0.6499   -1.6931    0.6306 O   0  0  0  0  0  0  0  0  0  0  0  0
   -3.2000    1.4500    1.5351 O   0  0  0  0  0  0  0  0  0  0  0  0
   -4.9676    0.9365   -0.0203 O   0  0  0  0  0  0  0  0  0  0  0  0
    2.3278    0.9211    0.3845 N   0  0  0  0  0  0  0  0  0  0  0  0
    1.3452   -3.3826   -0.6604 N   0  0  0  0  0  0  0  0  0  0  0  0
    0.0686   -3.0357   -1.0619 N   0  0  0  0  0  0  0  0  0  0  0  0
    1.5648    3.1341   -0.2069 C   0  0  0  0  0  0  0  0  0  0  0  0
    2.4968    4.2011    0.2880 C   0  0  0  0  0  0  0  0  0  0  0  0
    1.7643    4.3867   -1.0085 C   0  0  0  0  0  0  0  0  0  0  0  0
    2.1336    1.8409   -0.7134 C   0  0  2  0  0  0  0  0  0  0  0  0
    1.2420    1.2124   -1.7766 C   0  0  0  0  0  0  0  0  0  0  0  0
    3.3482   -0.0151    0.4170 C   0  0  0  0  0  0  0  0  0  0  0  0
    3.3247   -0.8686    1.6631 C   0  0  0  0  0  0  0  0  0  0  0  0
   -1.5254   -1.2893   -0.2411 C   0  0  0  0  0  0  0  0  0  0  0  0
   -2.8712    0.4287    0.6978 C   0  0  0  0  0  0  0  0  0  0  0  0
    1.6434   -2.5732    0.3288 C   0  0  0  0  0  0  0  0  0  0  0  0
   -3.8806    0.1355   -0.1903 C   0  0  0  0  0  0  0  0  0  0  0  0
   -1.6794   -0.2665    0.6978 C   0  0  0  0  0  0  0  0  0  0  0  0
   -0.2972   -2.0461   -0.2810 C   0  0  0  0  0  0  0  0  0  0  0  0
   -2.5569   -1.5889   -1.1485 C   0  0  0  0  0  0  0  0  0  0  0  0
   -3.7540   -0.8693   -1.1273 C   0  0  0  0  0  0  0  0  0  0  0  0
   -4.5292    1.7672    1.0740 C   0  0  0  0  0  0  0  0  0  0  0  0
    0.6145    3.0146    0.3009 H   0  0  0  0  0  0  0  0  0  0  0  0
    3.5643    4.0244    0.2427 H   0  0  0  0  0  0  0  0  0  0  0  0
    2.1779    4.7937    1.1368 H   0  0  0  0  0  0  0  0  0  0  0  0
    2.3409    4.3346   -1.9238 H   0  0  0  0  0  0  0  0  0  0  0  0
    0.9536    5.1046   -1.0312 H   0  0  0  0  0  0  0  0  0  0  0  0
    3.1148    2.0211   -1.1714 H   0  0  0  0  0  0  0  0  0  0  0  0
    1.6506    0.2580   -2.1257 H   0  0  0  0  0  0  0  0  0  0  0  0
    1.1400    1.8758   -2.6420 H   0  0  0  0  0  0  0  0  0  0  0  0
    0.2360    1.0240   -1.3885 H   0  0  0  0  0  0  0  0  0  0  0  0
    1.6534    0.9439    1.1440 H   0  0  0  0  0  0  0  0  0  0  0  0
    2.5149   -0.5906    2.3441 H   0  0  0  0  0  0  0  0  0  0  0  0
    4.2716   -0.7285    2.1934 H   0  0  0  0  0  0  0  0  0  0  0  0
   -0.9077   -0.0033    1.4136 H   0  0  0  0  0  0  0  0  0  0  0  0
   -2.4414   -2.3844   -1.8815 H   0  0  0  0  0  0  0  0  0  0  0  0
   -4.5517   -1.0972   -1.8250 H   0  0  0  0  0  0  0  0  0  0  0  0
   -4.5475    2.8139    0.7493 H   0  0  0  0  0  0  0  0  0  0  0  0
   -5.2286    1.6454    1.9091 H   0  0  0  0  0  0  0  0  0  0  0  0
  1 15  1  0  0  0  0
  1 18  1  0  0  0  0
  2 14  2  0  0  0  0
  3 18  1  0  0  0  0
  3 21  1  0  0  0  0
  4 17  1  0  0  0  0
  4 24  1  0  0  0  0
  5 19  1  0  0  0  0
  5 24  1  0  0  0  0
  6 12  1  0  0  0  0
  6 14  1  0  0  0  0
  6 34  1  0  0  0  0
  7  8  1  0  0  0  0
  7 18  2  0  0  0  0
  8 21  2  0  0  0  0
  9 10  1  0  0  0  0
  9 11  1  0  0  0  0
  9 12  1  0  0  0  0
  9 25  1  0  0  0  0
 10 11  1  0  0  0  0
 10 26  1  0  0  0  0
 10 27  1  0  0  0  0
 11 28  1  0  0  0  0
 11 29  1  0  0  0  0
 12 13  1  0  0  0  0
 12 30  1  0  0  0  0
 13 31  1  0  0  0  0
 13 32  1  0  0  0  0
 13 33  1  0  0  0  0
 14 15  1  0  0  0  0
 15 35  1  0  0  0  0
 15 36  1  0  0  0  0
 16 20  2  0  0  0  0
 16 21  1  0  0  0  0
 16 22  1  0  0  0  0
 17 19  2  0  0  0  0
 17 20  1  0  0  0  0
 19 23  1  0  0  0  0
 20 37  1  0  0  0  0
 22 23  2  0  0  0  0
 22 38  1  0  0  0  0
 23 39  1  0  0  0  0
 24 40  1  0  0  0  0
 24 41  1  0  0  0  0
M  END
> <PUBCHEM_COMPOUND_CID>
17395798

> <PUBCHEM_CONFORMER_RMSD>
1.2

> <PUBCHEM_CONFORMER_DIVERSEORDER>
1
22
69
46
17
59
77
42
44
7
30
48
20
43
66
12
10
24
29
34
4
16
58
38
56
70
13
27
15
47
63
8
55
76
31
74
61
71
54
23
50
51
41
40
35
19
14
2
6
73
36
33
37
53
39
78
25
60
65
26
28
18
62
45
68
5
64
57
11
32
21
67
3
9
72
52
49
75

> <PUBCHEM_MMFF94_PARTIAL_CHARGES>
32
1 -0.29
10 -0.2
11 -0.2
12 0.4
14 0.57
15 0.29
16 0.05
17 0.08
18 0.53
19 0.08
2 -0.57
20 -0.15
21 0.43
22 -0.15
23 -0.15
24 0.56
25 0.1
26 0.1
27 0.1
28 0.1
29 0.1
3 -0.28
34 0.37
37 0.15
38 0.15
39 0.15
4 -0.36
5 -0.36
6 -0.73
7 -0.34
8 -0.34
9 -0.19

> <PUBCHEM_EFFECTIVE_ROTOR_COUNT>
8.2

> <PUBCHEM_PHARMACOPHORE_FEATURES>
7
1 2 acceptor
1 4 acceptor
1 5 acceptor
1 6 donor
5 3 7 8 18 21 rings
5 4 5 17 19 24 rings
6 16 17 19 20 22 23 rings

> <PUBCHEM_HEAVY_ATOM_COUNT>
24

> <PUBCHEM_ATOM_DEF_STEREO_COUNT>
0

> <PUBCHEM_ATOM_UDEF_STEREO_COUNT>
1

> <PUBCHEM_BOND_DEF_STEREO_COUNT>
0

> <PUBCHEM_BOND_UDEF_STEREO_COUNT>
0

> <PUBCHEM_ISOTOPIC_ATOM_COUNT>
0

> <PUBCHEM_COMPONENT_COUNT>
1

> <PUBCHEM_CACTVS_TAUTO_COUNT>
2

> <PUBCHEM_CONFORMER_ID>
0109705600000001

> <PUBCHEM_MMFF94_ENERGY>
40.8941

> <PUBCHEM_FEATURE_SELFOVERLAP>
35.676

> <PUBCHEM_SHAPE_FINGERPRINT>
10708813 3 18337397049753883248
12403259 327 17561081444714074211
12422481 6 17978252748183528130
12553582 1 18341899640359344768
12633257 1 17846225478852279066
13134695 92 18201444722118084810
13140716 1 18270116790656937969
13583140 156 17989209239820550723
13965767 371 18046087092083779258
14123250 116 17833829374201592452
14955137 171 18268128989935853962
1601671 61 18411982498739602946
17980427 23 18189070787930844887
20567600 299 18338243764002291525
20739085 24 18338799047538998002
21860390 5 18336543931730752047
21864079 5 18264766567107724401
23558518 356 18051695438956585346
23559900 14 17530951510456164301
328310 1195 17985854694442373669
4409770 3 15523464640794386975
474 4 18411702118811046739
5048184 11 18051973615045290196
5283268 108 17981322605896118458
5312544 6 18195531394118109135
5939293 188 18412546518092356206
6443956 14 18269555112177607004
7064713 232 17969517084902625779
9981440 41 17691980262643024456

> <PUBCHEM_SHAPE_MULTIPOLES>
459.34
8.11
5.08
1.39
6.89
3.55
-0.01
2.41
-1.76
-5.38
0.72
0.08
0
-2.17

> <PUBCHEM_SHAPE_SELFOVERLAP>
978.061

> <PUBCHEM_SHAPE_VOLUME>
261.6

> <PUBCHEM_COORDINATE_TYPE>
2
5
10

$$$$

