2381
  -OEChem-07051212543D

 52 55  0     1  0  0  0  0  0999 V2000
    1.6293   -0.0596   -1.6752 O   0  0  0  0  0  0  0  0  0  0  0  0
   -2.7938   -0.8069    0.1897 N   0  0  0  0  0  0  0  0  0  0  0  0
    1.6620   -0.7682    0.5862 C   0  0  1  0  0  0  0  0  0  0  0  0
    1.7051   -2.2838    0.2558 C   0  0  2  0  0  0  0  0  0  0  0  0
    3.8657   -1.7819    0.5274 C   0  0  1  0  0  0  0  0  0  0  0  0
    3.1756   -0.4119    0.7181 C   0  0  0  0  0  0  0  0  0  0  0  0
    2.8507   -2.7296    1.1740 C   0  0  0  0  0  0  0  0  0  0  0  0
    0.9201    0.0927   -0.4255 C   0  0  2  0  0  0  0  0  0  0  0  0
    2.3857   -2.4990   -1.0762 C   0  0  0  0  0  0  0  0  0  0  0  0
    3.6811   -2.1924   -0.9141 C   0  0  0  0  0  0  0  0  0  0  0  0
   -0.5257   -0.4333   -0.6677 C   0  0  0  0  0  0  0  0  0  0  0  0
    0.9132    1.5979   -0.1314 C   0  0  0  0  0  0  0  0  0  0  0  0
   -1.4691   -0.2883    0.5297 C   0  0  0  0  0  0  0  0  0  0  0  0
    0.9638    2.0099    1.1786 C   0  0  0  0  0  0  0  0  0  0  0  0
    0.8562    2.4722   -1.1901 C   0  0  0  0  0  0  0  0  0  0  0  0
   -3.3711   -0.0486   -0.9290 C   0  0  0  0  0  0  0  0  0  0  0  0
   -3.6757   -0.7740    1.3649 C   0  0  0  0  0  0  0  0  0  0  0  0
   -4.7364   -0.6097   -1.3299 C   0  0  0  0  0  0  0  0  0  0  0  0
   -5.0509   -1.3587    1.0391 C   0  0  0  0  0  0  0  0  0  0  0  0
   -5.6927   -0.6415   -0.1432 C   0  0  0  0  0  0  0  0  0  0  0  0
    0.9571    3.3790    1.4462 C   0  0  0  0  0  0  0  0  0  0  0  0
    0.8497    3.8412   -0.9227 C   0  0  0  0  0  0  0  0  0  0  0  0
    0.9001    4.2945    0.3955 C   0  0  0  0  0  0  0  0  0  0  0  0
    1.2060   -0.6820    1.5804 H   0  0  0  0  0  0  0  0  0  0  0  0
    0.7793   -2.8418    0.4014 H   0  0  0  0  0  0  0  0  0  0  0  0
    4.8860   -1.8620    0.9033 H   0  0  0  0  0  0  0  0  0  0  0  0
    3.3715   -0.0355    1.7297 H   0  0  0  0  0  0  0  0  0  0  0  0
    3.5469    0.3377    0.0138 H   0  0  0  0  0  0  0  0  0  0  0  0
    3.1113   -3.7903    1.0646 H   0  0  0  0  0  0  0  0  0  0  0  0
    2.6705   -2.5147    2.2335 H   0  0  0  0  0  0  0  0  0  0  0  0
    1.9082   -2.8021   -1.9945 H   0  0  0  0  0  0  0  0  0  0  0  0
    4.4414   -2.1961   -1.6784 H   0  0  0  0  0  0  0  0  0  0  0  0
   -0.8888    0.1346   -1.5308 H   0  0  0  0  0  0  0  0  0  0  0  0
   -0.5035   -1.4746   -1.0128 H   0  0  0  0  0  0  0  0  0  0  0  0
   -1.5437    0.7576    0.8477 H   0  0  0  0  0  0  0  0  0  0  0  0
   -1.0655   -0.8623    1.3713 H   0  0  0  0  0  0  0  0  0  0  0  0
    2.4200    0.5048   -1.6794 H   0  0  0  0  0  0  0  0  0  0  0  0
   -2.7710   -0.1242   -1.8385 H   0  0  0  0  0  0  0  0  0  0  0  0
   -3.4661    1.0160   -0.6779 H   0  0  0  0  0  0  0  0  0  0  0  0
   -3.7917    0.2522    1.7380 H   0  0  0  0  0  0  0  0  0  0  0  0
   -3.2371   -1.3680    2.1760 H   0  0  0  0  0  0  0  0  0  0  0  0
    0.9877    1.3335    2.0238 H   0  0  0  0  0  0  0  0  0  0  0  0
    0.7943    2.1469   -2.2235 H   0  0  0  0  0  0  0  0  0  0  0  0
   -5.1667   -0.0009   -2.1333 H   0  0  0  0  0  0  0  0  0  0  0  0
   -4.6151   -1.6253   -1.7282 H   0  0  0  0  0  0  0  0  0  0  0  0
   -4.9506   -2.4268    0.8079 H   0  0  0  0  0  0  0  0  0  0  0  0
   -5.7032   -1.2816    1.9163 H   0  0  0  0  0  0  0  0  0  0  0  0
   -5.9503    0.3845    0.1470 H   0  0  0  0  0  0  0  0  0  0  0  0
   -6.6260   -1.1410   -0.4250 H   0  0  0  0  0  0  0  0  0  0  0  0
    0.9910    3.7324    2.4726 H   0  0  0  0  0  0  0  0  0  0  0  0
    0.7997    4.5543   -1.7404 H   0  0  0  0  0  0  0  0  0  0  0  0
    0.8924    5.3603    0.6038 H   0  0  0  0  0  0  0  0  0  0  0  0
  1  8  1  0  0  0  0
  1 37  1  0  0  0  0
  2 13  1  0  0  0  0
  2 16  1  0  0  0  0
  2 17  1  0  0  0  0
  3  4  1  0  0  0  0
  3  6  1  0  0  0  0
  3  8  1  0  0  0  0
  3 24  1  0  0  0  0
  4  7  1  0  0  0  0
  4  9  1  0  0  0  0
  4 25  1  0  0  0  0
  5  6  1  0  0  0  0
  5  7  1  0  0  0  0
  5 10  1  0  0  0  0
  5 26  1  0  0  0  0
  6 27  1  0  0  0  0
  6 28  1  0  0  0  0
  7 29  1  0  0  0  0
  7 30  1  0  0  0  0
  8 11  1  0  0  0  0
  8 12  1  0  0  0  0
  9 10  2  0  0  0  0
  9 31  1  0  0  0  0
 10 32  1  0  0  0  0
 11 13  1  0  0  0  0
 11 33  1  0  0  0  0
 11 34  1  0  0  0  0
 12 14  2  0  0  0  0
 12 15  1  0  0  0  0
 13 35  1  0  0  0  0
 13 36  1  0  0  0  0
 14 21  1  0  0  0  0
 14 42  1  0  0  0  0
 15 22  2  0  0  0  0
 15 43  1  0  0  0  0
 16 18  1  0  0  0  0
 16 38  1  0  0  0  0
 16 39  1  0  0  0  0
 17 19  1  0  0  0  0
 17 40  1  0  0  0  0
 17 41  1  0  0  0  0
 18 20  1  0  0  0  0
 18 44  1  0  0  0  0
 18 45  1  0  0  0  0
 19 20  1  0  0  0  0
 19 46  1  0  0  0  0
 19 47  1  0  0  0  0
 20 48  1  0  0  0  0
 20 49  1  0  0  0  0
 21 23  2  0  0  0  0
 21 50  1  0  0  0  0
 22 23  1  0  0  0  0
 22 51  1  0  0  0  0
 23 52  1  0  0  0  0
M  END
> <PUBCHEM_COMPOUND_CID>
2381

> <PUBCHEM_CONFORMER_RMSD>
0.8

> <PUBCHEM_CONFORMER_DIVERSEORDER>
2
87
56
14
83
64
50
24
41
60
36
71
80
31
35
48
72
17
57
39
21
11
47
53
63
29
34
88
45
81
40
82
86
38
32
66
59
33
20
30
6
58
69
23
73
10
8
75
46
19
54
43
62
51
37
15
13
12
26
55
70
74
49
61
16
28
5
18
25
22
9
68
78
3
67
27
65
7
76
44
4
84
1
85
79
52
77
42

> <PUBCHEM_MMFF94_PARTIAL_CHARGES>
24
1 -0.68
10 -0.29
12 -0.14
13 0.27
14 -0.15
15 -0.15
16 0.27
17 0.27
2 -0.81
21 -0.15
22 -0.15
23 -0.15
31 0.15
32 0.15
37 0.4
4 0.14
42 0.15
43 0.15
5 0.14
50 0.15
51 0.15
52 0.15
8 0.42
9 -0.29

> <PUBCHEM_EFFECTIVE_ROTOR_COUNT>
6.8

> <PUBCHEM_PHARMACOPHORE_FEATURES>
6
1 1 acceptor
1 1 donor
1 2 cation
6 12 14 15 21 22 23 rings
6 2 16 17 18 19 20 rings
7 3 4 5 6 7 9 10 rings

> <PUBCHEM_HEAVY_ATOM_COUNT>
23

> <PUBCHEM_ATOM_DEF_STEREO_COUNT>
0

> <PUBCHEM_ATOM_UDEF_STEREO_COUNT>
4

> <PUBCHEM_BOND_DEF_STEREO_COUNT>
0

> <PUBCHEM_BOND_UDEF_STEREO_COUNT>
0

> <PUBCHEM_ISOTOPIC_ATOM_COUNT>
0

> <PUBCHEM_COMPONENT_COUNT>
1

> <PUBCHEM_CACTVS_TAUTO_COUNT>
1

> <PUBCHEM_CONFORMER_ID>
0000094D00000002

> <PUBCHEM_MMFF94_ENERGY>
81.6291

> <PUBCHEM_FEATURE_SELFOVERLAP>
30.446

> <PUBCHEM_SHAPE_FINGERPRINT>
10165383 225 17335860566798792337
11405975 8 18411978036774984891
11582403 64 15651012907311629584
12160290 23 17618491529466916636
12363563 72 18341045328219552431
12516196 113 18410295843133185442
12532896 13 9727046747550794464
12549972 3 17989200418268617105
12553582 1 18337380638694700055
12616971 3 18040433262382532463
12707595 3 18341890805511662951
12730499 353 18052525583436631707
12788726 201 17836653289492017473
13004483 165 18194414508857374347
13052359 8 17620762016752144989
13134695 92 18411428314450299805
13140716 1 17978513031305997768
13533116 47 18338790101860579491
13540713 4 17536889037309979874
13583140 156 18268430144848535615
13681431 1 18410567388250749436
13690498 29 17610042831107656158
13911987 19 18057297588476876086
13955234 65 18267860576160152825
14866123 147 17116078543425610555
14955137 171 18263070055495640638
15230672 131 17623004596390255076
15420108 30 17826820056816048392
15842332 3 17677610866018738015
17349148 13 17385446510156189383
17357779 13 18192448556323117133
17868525 174 18412261779236289865
17980427 23 17314248690680935847
1813 80 18187918529804399783
18222031 100 18260833738564557359
18785283 64 18198626518949540825
19078846 21 18263346127413880129
20369508 70 18412825772497349239
20645477 70 18341051813978755175
20739085 24 18187641422862208894
21033648 29 17532673393300356987
21049683 271 18272078358277415348
21120745 212 18120352505791995324
21250096 35 18341615974764982779
2132832 1 18113620106027241561
21344244 78 18186807972000410169
21524375 3 17612871491682496197
21641784 216 18198604709775506044
2255824 54 18263919943296781317
23419403 2 18054543345813338124
23558518 356 17548981512677108898
23559900 14 17703228421772891455
283562 15 18125437759876330802
3091708 16 9140857546203025560
312423 11 18261096449688358347
314173 41 18412259540957084499
314173 85 18263362645415281106
3380486 145 17974891420724987460
350125 39 17691683390239945602
5895379 119 15937506257265758385
6442390 28 17402877935136508761
6443956 14 18410295817331375929
6786 2 17549243849305610764
6823239 73 16773511071691332023
7164475 11 17981887755120961670
7364860 26 18337671901790660272
7471813 234 18186806876773472177
7615 1 17749100055462909305
81228 2 17980475994774729136
9841814 1 18409160004793040303
9971528 1 18260550043289844307
9981440 41 17688602558822519713

> <PUBCHEM_SHAPE_MULTIPOLES>
462.48
8.59
4.57
1.46
14.89
5.91
0.05
-8.08
-0.29
-4.77
-0.38
0.12
0.14
0.4

> <PUBCHEM_SHAPE_SELFOVERLAP>
998.821

> <PUBCHEM_SHAPE_VOLUME>
257.2

> <PUBCHEM_COORDINATE_TYPE>
2
5
10

$$$$

