46173811
  -OEChem-07051213082D

 60 61  0     1  0  0  0  0  0999 V2000
    7.3100   -0.9335    0.0000 O   0  0  0  0  0  0  0  0  0  0  0  0
    4.8100    1.6645    0.0000 O   0  0  0  0  0  0  0  0  0  0  0  0
    2.3100    2.5306    0.0000 O   0  0  0  0  0  0  0  0  0  0  0  0
    3.3100    4.2626    0.0000 O   0  0  0  0  0  0  0  0  0  0  0  0
    6.3100    2.5306    0.0000 O   0  0  0  0  0  0  0  0  0  0  0  0
    5.3100    4.2626    0.0000 O   0  0  0  0  0  0  0  0  0  0  0  0
    7.8100   -4.7996    0.0000 O   0  0  0  0  0  0  0  0  0  0  0  0
    2.3100    0.7985    0.0000 O   0  0  0  0  0  0  0  0  0  0  0  0
    6.3100    0.7985    0.0000 O   0  0  0  0  0  0  0  0  0  0  0  0
    6.9440   -2.2996    0.0000 C   0  0  0  0  0  0  0  0  0  0  0  0
    7.8100   -1.7996    0.0000 C   0  0  1  0  0  0  0  0  0  0  0  0
    6.9440   -3.2996    0.0000 C   0  0  0  0  0  0  0  0  0  0  0  0
    8.6760   -2.2996    0.0000 C   0  0  0  0  0  0  0  0  0  0  0  0
    5.9440   -2.2996    0.0000 C   0  0  0  0  0  0  0  0  0  0  0  0
    6.1779   -1.6568    0.0000 C   0  0  0  0  0  0  0  0  0  0  0  0
    3.3100    2.5306    0.0000 C   0  0  1  0  0  0  0  0  0  0  0  0
    3.8100    3.3966    0.0000 C   0  0  1  0  0  0  0  0  0  0  0  0
    3.8100    1.6645    0.0000 C   0  0  1  0  0  0  0  0  0  0  0  0
    4.8100    3.3966    0.0000 C   0  0  2  0  0  0  0  0  0  0  0  0
    7.8100   -3.7996    0.0000 C   0  0  0  0  0  0  0  0  0  0  0  0
    8.3100   -0.9335    0.0000 C   0  0  0  0  0  0  0  0  0  0  0  0
    8.6760   -3.2996    0.0000 C   0  0  0  0  0  0  0  0  0  0  0  0
    5.3100    2.5306    0.0000 C   0  0  1  0  0  0  0  0  0  0  0  0
    9.5420   -1.7996    0.0000 C   0  0  0  0  0  0  0  0  0  0  0  0
    3.3100    0.7985    0.0000 C   0  0  0  0  0  0  0  0  0  0  0  0
    7.8100   -0.0675    0.0000 C   0  0  0  0  0  0  0  0  0  0  0  0
    8.3100    0.7985    0.0000 C   0  0  0  0  0  0  0  0  0  0  0  0
    6.8100    1.6645    0.0000 C   0  0  0  0  0  0  0  0  0  0  0  0
    7.8100    1.6645    0.0000 C   0  0  0  0  0  0  0  0  0  0  0  0
    9.3100    0.7985    0.0000 C   0  0  0  0  0  0  0  0  0  0  0  0
    6.3334   -3.1919    0.0000 H   0  0  0  0  0  0  0  0  0  0  0  0
    6.7319   -3.8822    0.0000 H   0  0  0  0  0  0  0  0  0  0  0  0
    5.9440   -1.6796    0.0000 H   0  0  0  0  0  0  0  0  0  0  0  0
    5.3240   -2.2996    0.0000 H   0  0  0  0  0  0  0  0  0  0  0  0
    5.9440   -2.9196    0.0000 H   0  0  0  0  0  0  0  0  0  0  0  0
    6.5765   -1.1818    0.0000 H   0  0  0  0  0  0  0  0  0  0  0  0
    5.7030   -1.2582    0.0000 H   0  0  0  0  0  0  0  0  0  0  0  0
    5.7794   -2.1317    0.0000 H   0  0  0  0  0  0  0  0  0  0  0  0
    3.0000    3.0675    0.0000 H   0  0  0  0  0  0  0  0  0  0  0  0
    4.1200    3.9335    0.0000 H   0  0  0  0  0  0  0  0  0  0  0  0
    4.1200    1.1276    0.0000 H   0  0  0  0  0  0  0  0  0  0  0  0
    4.5000    3.9335    0.0000 H   0  0  0  0  0  0  0  0  0  0  0  0
    8.9300   -0.9335    0.0000 H   0  0  0  0  0  0  0  0  0  0  0  0
    9.2130   -3.6096    0.0000 H   0  0  0  0  0  0  0  0  0  0  0  0
    5.6200    3.0675    0.0000 H   0  0  0  0  0  0  0  0  0  0  0  0
    6.6900   -0.9335    0.0000 H   0  0  0  0  0  0  0  0  0  0  0  0
    9.8520   -2.3365    0.0000 H   0  0  0  0  0  0  0  0  0  0  0  0
   10.0790   -1.4896    0.0000 H   0  0  0  0  0  0  0  0  0  0  0  0
    9.2320   -1.2626    0.0000 H   0  0  0  0  0  0  0  0  0  0  0  0
    3.2023    0.1879    0.0000 H   0  0  0  0  0  0  0  0  0  0  0  0
    3.8926    0.5865    0.0000 H   0  0  0  0  0  0  0  0  0  0  0  0
    7.1900   -0.0675    0.0000 H   0  0  0  0  0  0  0  0  0  0  0  0
    2.0000    3.0675    0.0000 H   0  0  0  0  0  0  0  0  0  0  0  0
    2.6900    4.2626    0.0000 H   0  0  0  0  0  0  0  0  0  0  0  0
    5.0000    4.7996    0.0000 H   0  0  0  0  0  0  0  0  0  0  0  0
    8.1200    2.2015    0.0000 H   0  0  0  0  0  0  0  0  0  0  0  0
    2.0000    0.2616    0.0000 H   0  0  0  0  0  0  0  0  0  0  0  0
    9.3100    0.1785    0.0000 H   0  0  0  0  0  0  0  0  0  0  0  0
    9.9300    0.7985    0.0000 H   0  0  0  0  0  0  0  0  0  0  0  0
    9.3100    1.4185    0.0000 H   0  0  0  0  0  0  0  0  0  0  0  0
 11  1  1  6  0  0  0
  1 46  1  0  0  0  0
  2 18  1  0  0  0  0
  2 23  1  0  0  0  0
 16  3  1  1  0  0  0
  3 53  1  0  0  0  0
 17  4  1  6  0  0  0
  4 54  1  0  0  0  0
 23  5  1  6  0  0  0
  5 28  1  0  0  0  0
 19  6  1  1  0  0  0
  6 55  1  0  0  0  0
  7 20  2  0  0  0  0
  8 25  1  0  0  0  0
  8 57  1  0  0  0  0
  9 28  2  0  0  0  0
 10 11  1  0  0  0  0
 10 12  1  0  0  0  0
 10 14  1  0  0  0  0
 10 15  1  0  0  0  0
 11 13  1  0  0  0  0
 11 21  1  0  0  0  0
 12 20  1  0  0  0  0
 12 31  1  0  0  0  0
 12 32  1  0  0  0  0
 13 22  2  0  0  0  0
 13 24  1  0  0  0  0
 14 33  1  0  0  0  0
 14 34  1  0  0  0  0
 14 35  1  0  0  0  0
 15 36  1  0  0  0  0
 15 37  1  0  0  0  0
 15 38  1  0  0  0  0
 16 17  1  0  0  0  0
 16 18  1  0  0  0  0
 16 39  1  0  0  0  0
 17 19  1  0  0  0  0
 17 40  1  0  0  0  0
 18 25  1  6  0  0  0
 18 41  1  0  0  0  0
 19 23  1  0  0  0  0
 19 42  1  0  0  0  0
 20 22  1  0  0  0  0
 21 26  2  0  0  0  0
 21 43  1  0  0  0  0
 22 44  1  0  0  0  0
 23 45  1  0  0  0  0
 24 47  1  0  0  0  0
 24 48  1  0  0  0  0
 24 49  1  0  0  0  0
 25 50  1  0  0  0  0
 25 51  1  0  0  0  0
 26 27  1  0  0  0  0
 26 52  1  0  0  0  0
 27 29  2  0  0  0  0
 27 30  1  0  0  0  0
 28 29  1  0  0  0  0
 29 56  1  0  0  0  0
 30 58  1  0  0  0  0
 30 59  1  0  0  0  0
 30 60  1  0  0  0  0
M  END
> <PUBCHEM_COMPOUND_CID>
46173811

> <PUBCHEM_COMPOUND_CANONICALIZED>
1

> <PUBCHEM_CACTVS_COMPLEXITY>
766

> <PUBCHEM_CACTVS_HBOND_ACCEPTOR>
9

> <PUBCHEM_CACTVS_HBOND_DONOR>
5

> <PUBCHEM_CACTVS_ROTATABLE_BOND>
6

> <PUBCHEM_CACTVS_SUBSKEYS>
AAADceB4PAAAAAAAAAAAAAAAAAAAAAAAAAAkQAAAAAAAAAAAAAAAGgAACAAADlSwgAMCCAAABgCIAqDSCAAAAAAgAAAICAEAAEgZFBIAIQAiUAAFgAAPsQPK6AwPgAAAAAAAAAAAAAAAAAAAAAAAAAAAAA==

> <PUBCHEM_IUPAC_OPENEYE_NAME>
[(2S,3R,4S,5S,6R)-3,4,5-trihydroxy-6-(hydroxymethyl)tetrahydropyran-2-yl] (2Z,4E)-5-[(1S)-1-hydroxy-2,6,6-trimethyl-4-oxo-cyclohex-2-en-1-yl]-3-methyl-penta-2,4-dienoate

> <PUBCHEM_IUPAC_CAS_NAME>
(2Z,4E)-5-[(1S)-1-hydroxy-2,6,6-trimethyl-4-oxo-1-cyclohex-2-enyl]-3-methylpenta-2,4-dienoic acid [(2S,3R,4S,5S,6R)-3,4,5-trihydroxy-6-(hydroxymethyl)-2-oxanyl] ester

> <PUBCHEM_IUPAC_NAME>
[(2S,3R,4S,5S,6R)-3,4,5-trihydroxy-6-(hydroxymethyl)oxan-2-yl] (2Z,4E)-5-[(1S)-1-hydroxy-2,6,6-trimethyl-4-oxocyclohex-2-en-1-yl]-3-methylpenta-2,4-dienoate

> <PUBCHEM_IUPAC_SYSTEMATIC_NAME>
[(2S,3R,4S,5S,6R)-6-(hydroxymethyl)-3,4,5-tris(oxidanyl)oxan-2-yl] (2Z,4E)-3-methyl-5-[(1S)-2,6,6-trimethyl-1-oxidanyl-4-oxidanylidene-cyclohex-2-en-1-yl]penta-2,4-dienoate

> <PUBCHEM_IUPAC_TRADITIONAL_NAME>
(2Z,4E)-5-[(1S)-1-hydroxy-4-keto-2,6,6-trimethyl-cyclohex-2-en-1-yl]-3-methyl-penta-2,4-dienoic acid [(2S,3R,4S,5S,6R)-3,4,5-trihydroxy-6-methylol-tetrahydropyran-2-yl] ester

> <PUBCHEM_IUPAC_INCHI>
InChI=1S/C21H30O9/c1-11(5-6-21(28)12(2)8-13(23)9-20(21,3)4)7-15(24)30-19-18(27)17(26)16(25)14(10-22)29-19/h5-8,14,16-19,22,25-28H,9-10H2,1-4H3/b6-5+,11-7-/t14-,16-,17+,18-,19+,21-/m1/s1

> <PUBCHEM_IUPAC_INCHIKEY>
HLVPIMVSSMJFPS-VTEUUMMASA-N

> <PUBCHEM_XLOGP3_AA>
-0.2

> <PUBCHEM_EXACT_MASS>
426.188983

> <PUBCHEM_MOLECULAR_FORMULA>
C21H30O9

> <PUBCHEM_MOLECULAR_WEIGHT>
426.4575

> <PUBCHEM_OPENEYE_CAN_SMILES>
CC1=CC(=O)CC(C1(C=CC(=CC(=O)OC2C(C(C(C(O2)CO)O)O)O)C)O)(C)C

> <PUBCHEM_OPENEYE_ISO_SMILES>
CC1=CC(=O)CC([C@]1(/C=C/C(=C\C(=O)O[C@H]2[C@@H]([C@H]([C@@H]([C@H](O2)CO)O)O)O)/C)O)(C)C

> <PUBCHEM_CACTVS_TPSA>
154

> <PUBCHEM_MONOISOTOPIC_WEIGHT>
426.188983

> <PUBCHEM_TOTAL_CHARGE>
0

> <PUBCHEM_HEAVY_ATOM_COUNT>
30

> <PUBCHEM_ATOM_DEF_STEREO_COUNT>
6

> <PUBCHEM_ATOM_UDEF_STEREO_COUNT>
0

> <PUBCHEM_BOND_DEF_STEREO_COUNT>
2

> <PUBCHEM_BOND_UDEF_STEREO_COUNT>
0

> <PUBCHEM_ISOTOPIC_ATOM_COUNT>
0

> <PUBCHEM_COMPONENT_COUNT>
1

> <PUBCHEM_CACTVS_TAUTO_COUNT>
5

> <PUBCHEM_COORDINATE_TYPE>
1
5
255

> <PUBCHEM_BONDANNOTATIONS>
11  1  6
18  25  6
16  3  5
17  4  6
23  5  6
19  6  5

$$$$

