6442601
  -OEChem-07051213152D

 43 43  0     1  0  0  0  0  0999 V2000
    9.0773   -2.3235    0.0000 O   0  0  0  0  0  0  0  0  0  0  0  0
   10.3645   -1.1645    0.0000 O   0  0  0  0  0  0  0  0  0  0  0  0
   10.0140    2.5320    0.0000 O   0  0  0  0  0  0  0  0  0  0  0  0
   10.7185    0.9497    0.0000 O   0  0  0  0  0  0  0  0  0  0  0  0
    2.6166   -1.9234    0.0000 O   0  0  0  0  0  0  0  0  0  0  0  0
    2.4356   -0.2009    0.0000 O   0  0  0  0  0  0  0  0  0  0  0  0
    7.9082   -1.2171    0.0000 N   0  0  0  0  0  0  0  0  0  0  0  0
    8.4082    0.3218    0.0000 C   0  0  1  0  0  0  0  0  0  0  0  0
    7.4082    0.3218    0.0000 C   0  0  2  0  0  0  0  0  0  0  0  0
    8.7172   -0.6293    0.0000 C   0  0  1  0  0  0  0  0  0  0  0  0
    7.0992   -0.6293    0.0000 C   0  0  0  0  0  0  0  0  0  0  0  0
    8.9960    1.1308    0.0000 C   0  0  0  0  0  0  0  0  0  0  0  0
    6.8204    1.1308    0.0000 C   0  0  0  0  0  0  0  0  0  0  0  0
    9.3863   -1.3724    0.0000 C   0  0  0  0  0  0  0  0  0  0  0  0
    7.2271    2.0443    0.0000 C   0  0  0  0  0  0  0  0  0  0  0  0
    5.8259    1.0263    0.0000 C   0  0  0  0  0  0  0  0  0  0  0  0
    9.9095    1.5375    0.0000 C   0  0  0  0  0  0  0  0  0  0  0  0
    5.4191    0.1127    0.0000 C   0  0  0  0  0  0  0  0  0  0  0  0
    4.4246    0.0082    0.0000 C   0  0  0  0  0  0  0  0  0  0  0  0
    4.0179   -0.9054    0.0000 C   0  0  0  0  0  0  0  0  0  0  0  0
    4.6056   -1.7144    0.0000 C   0  0  0  0  0  0  0  0  0  0  0  0
    3.0233   -1.0099    0.0000 C   0  0  0  0  0  0  0  0  0  0  0  0
    8.1267    0.8742    0.0000 H   0  0  0  0  0  0  0  0  0  0  0  0
    7.6896    0.8742    0.0000 H   0  0  0  0  0  0  0  0  0  0  0  0
    8.6524   -1.2459    0.0000 H   0  0  0  0  0  0  0  0  0  0  0  0
    6.5328   -0.3771    0.0000 H   0  0  0  0  0  0  0  0  0  0  0  0
    6.7892   -1.1662    0.0000 H   0  0  0  0  0  0  0  0  0  0  0  0
    7.9082   -1.8371    0.0000 H   0  0  0  0  0  0  0  0  0  0  0  0
    8.9527    1.7493    0.0000 H   0  0  0  0  0  0  0  0  0  0  0  0
    9.3861    0.6490    0.0000 H   0  0  0  0  0  0  0  0  0  0  0  0
    7.7935    1.7922    0.0000 H   0  0  0  0  0  0  0  0  0  0  0  0
    7.4793    2.6107    0.0000 H   0  0  0  0  0  0  0  0  0  0  0  0
    6.6607    2.2965    0.0000 H   0  0  0  0  0  0  0  0  0  0  0  0
    5.4614    1.5279    0.0000 H   0  0  0  0  0  0  0  0  0  0  0  0
    5.3759   -0.5058    0.0000 H   0  0  0  0  0  0  0  0  0  0  0  0
    6.0207   -0.0373    0.0000 H   0  0  0  0  0  0  0  0  0  0  0  0
    9.4922   -2.7842    0.0000 H   0  0  0  0  0  0  0  0  0  0  0  0
   10.5804    2.7842    0.0000 H   0  0  0  0  0  0  0  0  0  0  0  0
    4.0602    0.5098    0.0000 H   0  0  0  0  0  0  0  0  0  0  0  0
    4.1041   -2.0788    0.0000 H   0  0  0  0  0  0  0  0  0  0  0  0
    4.9701   -2.2160    0.0000 H   0  0  0  0  0  0  0  0  0  0  0  0
    5.1072   -1.3499    0.0000 H   0  0  0  0  0  0  0  0  0  0  0  0
    2.0000   -1.9882    0.0000 H   0  0  0  0  0  0  0  0  0  0  0  0
  1 14  1  0  0  0  0
  1 37  1  0  0  0  0
  2 14  2  0  0  0  0
  3 17  1  0  0  0  0
  3 38  1  0  0  0  0
  4 17  2  0  0  0  0
  5 22  1  0  0  0  0
  5 43  1  0  0  0  0
  6 22  2  0  0  0  0
  7 10  1  0  0  0  0
  7 11  1  0  0  0  0
  7 28  1  0  0  0  0
  8  9  1  0  0  0  0
  8 10  1  0  0  0  0
  8 12  1  6  0  0  0
  8 23  1  0  0  0  0
  9 11  1  0  0  0  0
  9 13  1  6  0  0  0
  9 24  1  0  0  0  0
 10 14  1  1  0  0  0
 10 25  1  0  0  0  0
 11 26  1  0  0  0  0
 11 27  1  0  0  0  0
 12 17  1  0  0  0  0
 12 29  1  0  0  0  0
 12 30  1  0  0  0  0
 13 15  1  0  0  0  0
 13 16  2  0  0  0  0
 15 31  1  0  0  0  0
 15 32  1  0  0  0  0
 15 33  1  0  0  0  0
 16 18  1  0  0  0  0
 16 34  1  0  0  0  0
 18 19  1  0  0  0  0
 18 35  1  0  0  0  0
 18 36  1  0  0  0  0
 19 20  2  0  0  0  0
 19 39  1  0  0  0  0
 20 21  1  0  0  0  0
 20 22  1  0  0  0  0
 21 40  1  0  0  0  0
 21 41  1  0  0  0  0
 21 42  1  0  0  0  0
M  END
> <PUBCHEM_COMPOUND_CID>
6442601

> <PUBCHEM_COMPOUND_CANONICALIZED>
1

> <PUBCHEM_CACTVS_COMPLEXITY>
522

> <PUBCHEM_CACTVS_HBOND_ACCEPTOR>
7

> <PUBCHEM_CACTVS_HBOND_DONOR>
4

> <PUBCHEM_CACTVS_ROTATABLE_BOND>
7

> <PUBCHEM_CACTVS_SUBSKEYS>
AAADceByOAAAAAAAAAAAAAAAAAAAAWAAAAAAAAAAAAAAAAAAAAAAHgAQCAAADSjBgAQCCALAAgCIAiDSCAAAAAAgAAAACIGIAEgCBBIAgSAEUAAEkACYEYO8fwIOgAAAAAAAAAAAAAAAAAAAAAAAAAAAAA==

> <PUBCHEM_IUPAC_OPENEYE_NAME>
(2S,3S,4S)-3-(carboxymethyl)-4-[(1Z,4E)-5-carboxy-1-methyl-hexa-1,4-dienyl]pyrrolidine-2-carboxylic acid

> <PUBCHEM_IUPAC_CAS_NAME>
(2S,3S,4S)-4-[(2Z,5E)-6-carboxyhepta-2,5-dien-2-yl]-3-(carboxymethyl)-2-pyrrolidinecarboxylic acid

> <PUBCHEM_IUPAC_NAME>
(2S,3S,4S)-4-[(2Z,5E)-6-carboxyhepta-2,5-dien-2-yl]-3-(carboxymethyl)pyrrolidine-2-carboxylic acid

> <PUBCHEM_IUPAC_SYSTEMATIC_NAME>
(2S,3S,4S)-3-(2-hydroxy-2-oxoethyl)-4-[(2Z,5E)-6-methyl-7-oxidanyl-7-oxidanylidene-hepta-2,5-dien-2-yl]pyrrolidine-2-carboxylic acid

> <PUBCHEM_IUPAC_TRADITIONAL_NAME>
(2S,3S,4S)-3-(carboxymethyl)-4-[(1Z,4E)-5-carboxy-1-methyl-hexa-1,4-dienyl]proline

> <PUBCHEM_IUPAC_INCHI>
InChI=1S/C15H21NO6/c1-8(4-3-5-9(2)14(19)20)11-7-16-13(15(21)22)10(11)6-12(17)18/h4-5,10-11,13,16H,3,6-7H2,1-2H3,(H,17,18)(H,19,20)(H,21,22)/b8-4-,9-5+/t10-,11+,13-/m0/s1

> <PUBCHEM_IUPAC_INCHIKEY>
DDAJBUQQWFXHDM-UUYKTWPLSA-N

> <PUBCHEM_XLOGP3_AA>
-1.3

> <PUBCHEM_EXACT_MASS>
311.136887

> <PUBCHEM_MOLECULAR_FORMULA>
C15H21NO6

> <PUBCHEM_MOLECULAR_WEIGHT>
311.33034

> <PUBCHEM_OPENEYE_CAN_SMILES>
CC(=CCC=C(C)C(=O)O)C1CNC(C1CC(=O)O)C(=O)O

> <PUBCHEM_OPENEYE_ISO_SMILES>
C/C(=C/C/C=C(\C)/C(=O)O)/[C@H]1CN[C@@H]([C@H]1CC(=O)O)C(=O)O

> <PUBCHEM_CACTVS_TPSA>
124

> <PUBCHEM_MONOISOTOPIC_WEIGHT>
311.136887

> <PUBCHEM_TOTAL_CHARGE>
0

> <PUBCHEM_HEAVY_ATOM_COUNT>
22

> <PUBCHEM_ATOM_DEF_STEREO_COUNT>
3

> <PUBCHEM_ATOM_UDEF_STEREO_COUNT>
0

> <PUBCHEM_BOND_DEF_STEREO_COUNT>
2

> <PUBCHEM_BOND_UDEF_STEREO_COUNT>
0

> <PUBCHEM_ISOTOPIC_ATOM_COUNT>
0

> <PUBCHEM_COMPONENT_COUNT>
1

> <PUBCHEM_CACTVS_TAUTO_COUNT>
1

> <PUBCHEM_COORDINATE_TYPE>
1
5
255

> <PUBCHEM_BONDANNOTATIONS>
10  14  5
8  12  6
9  13  6

$$$$

