582869
  -OEChem-06241222442D

 46 45  0     1  0  0  0  0  0999 V2000
    2.8660    0.0000    0.0000 Si  0  0  0  0  0  0  0  0  0  0  0  0
    8.0622    0.0000    0.0000 Si  0  0  0  0  0  0  0  0  0  0  0  0
    3.7320    0.5000    0.0000 O   0  0  0  0  0  0  0  0  0  0  0  0
    7.1962    0.5000    0.0000 O   0  0  0  0  0  0  0  0  0  0  0  0
    5.4641    0.5000    0.0000 C   0  0  3  0  0  0  0  0  0  0  0  0
    4.5981    0.0000    0.0000 C   0  0  3  0  0  0  0  0  0  0  0  0
    6.3301    0.0000    0.0000 C   0  0  0  0  0  0  0  0  0  0  0  0
    4.5981   -1.0000    0.0000 C   0  0  0  0  0  0  0  0  0  0  0  0
    5.4641    1.5000    0.0000 C   0  0  0  0  0  0  0  0  0  0  0  0
    2.0000   -0.5000    0.0000 C   0  0  0  0  0  0  0  0  0  0  0  0
    2.3660    0.8660    0.0000 C   0  0  0  0  0  0  0  0  0  0  0  0
    3.3660   -0.8660    0.0000 C   0  0  0  0  0  0  0  0  0  0  0  0
    3.7320   -1.5000    0.0000 C   0  0  0  0  0  0  0  0  0  0  0  0
    8.9282   -0.5000    0.0000 C   0  0  0  0  0  0  0  0  0  0  0  0
    8.5622    0.8660    0.0000 C   0  0  0  0  0  0  0  0  0  0  0  0
    7.5622   -0.8660    0.0000 C   0  0  0  0  0  0  0  0  0  0  0  0
    6.0010    0.8100    0.0000 H   0  0  0  0  0  0  0  0  0  0  0  0
    4.5981    0.6200    0.0000 H   0  0  0  0  0  0  0  0  0  0  0  0
    5.9316   -0.4749    0.0000 H   0  0  0  0  0  0  0  0  0  0  0  0
    6.7287   -0.4749    0.0000 H   0  0  0  0  0  0  0  0  0  0  0  0
    4.8101   -1.5826    0.0000 H   0  0  0  0  0  0  0  0  0  0  0  0
    5.2087   -0.8923    0.0000 H   0  0  0  0  0  0  0  0  0  0  0  0
    6.0841    1.5000    0.0000 H   0  0  0  0  0  0  0  0  0  0  0  0
    5.4641    2.1200    0.0000 H   0  0  0  0  0  0  0  0  0  0  0  0
    4.8441    1.5000    0.0000 H   0  0  0  0  0  0  0  0  0  0  0  0
    1.6900    0.0369    0.0000 H   0  0  0  0  0  0  0  0  0  0  0  0
    1.4631   -0.8100    0.0000 H   0  0  0  0  0  0  0  0  0  0  0  0
    2.3100   -1.0369    0.0000 H   0  0  0  0  0  0  0  0  0  0  0  0
    2.9030    1.1760    0.0000 H   0  0  0  0  0  0  0  0  0  0  0  0
    2.0560    1.4030    0.0000 H   0  0  0  0  0  0  0  0  0  0  0  0
    1.8291    0.5560    0.0000 H   0  0  0  0  0  0  0  0  0  0  0  0
    2.8291   -1.1760    0.0000 H   0  0  0  0  0  0  0  0  0  0  0  0
    3.6760   -1.4030    0.0000 H   0  0  0  0  0  0  0  0  0  0  0  0
    3.9030   -0.5560    0.0000 H   0  0  0  0  0  0  0  0  0  0  0  0
    3.4220   -0.9631    0.0000 H   0  0  0  0  0  0  0  0  0  0  0  0
    3.1951   -1.8100    0.0000 H   0  0  0  0  0  0  0  0  0  0  0  0
    4.0420   -2.0369    0.0000 H   0  0  0  0  0  0  0  0  0  0  0  0
    7.0252   -0.5560    0.0000 H   0  0  0  0  0  0  0  0  0  0  0  0
    7.2522   -1.4030    0.0000 H   0  0  0  0  0  0  0  0  0  0  0  0
    8.0991   -1.1760    0.0000 H   0  0  0  0  0  0  0  0  0  0  0  0
    9.0991    0.5560    0.0000 H   0  0  0  0  0  0  0  0  0  0  0  0
    8.8722    1.4030    0.0000 H   0  0  0  0  0  0  0  0  0  0  0  0
    8.0252    1.1760    0.0000 H   0  0  0  0  0  0  0  0  0  0  0  0
    8.6182   -1.0369    0.0000 H   0  0  0  0  0  0  0  0  0  0  0  0
    9.4651   -0.8100    0.0000 H   0  0  0  0  0  0  0  0  0  0  0  0
    9.2382    0.0369    0.0000 H   0  0  0  0  0  0  0  0  0  0  0  0
  1  3  1  0  0  0  0
  1 10  1  0  0  0  0
  1 11  1  0  0  0  0
  1 12  1  0  0  0  0
  2  4  1  0  0  0  0
  2 14  1  0  0  0  0
  2 15  1  0  0  0  0
  2 16  1  0  0  0  0
  3  6  1  0  0  0  0
  4  7  1  0  0  0  0
  5  6  1  0  0  0  0
  5  7  1  0  0  0  0
  5  9  1  0  0  0  0
  5 17  1  0  0  0  0
  6  8  1  0  0  0  0
  6 18  1  0  0  0  0
  7 19  1  0  0  0  0
  7 20  1  0  0  0  0
  8 13  1  0  0  0  0
  8 21  1  0  0  0  0
  8 22  1  0  0  0  0
  9 23  1  0  0  0  0
  9 24  1  0  0  0  0
  9 25  1  0  0  0  0
 10 26  1  0  0  0  0
 10 27  1  0  0  0  0
 10 28  1  0  0  0  0
 11 29  1  0  0  0  0
 11 30  1  0  0  0  0
 11 31  1  0  0  0  0
 12 32  1  0  0  0  0
 12 33  1  0  0  0  0
 12 34  1  0  0  0  0
 13 35  1  0  0  0  0
 13 36  1  0  0  0  0
 13 37  1  0  0  0  0
 14 44  1  0  0  0  0
 14 45  1  0  0  0  0
 14 46  1  0  0  0  0
 15 41  1  0  0  0  0
 15 42  1  0  0  0  0
 15 43  1  0  0  0  0
 16 38  1  0  0  0  0
 16 39  1  0  0  0  0
 16 40  1  0  0  0  0
M  END
> <PUBCHEM_COMPOUND_CID>
582869

> <PUBCHEM_COMPOUND_CANONICALIZED>
1

> <PUBCHEM_CACTVS_COMPLEXITY>
194

> <PUBCHEM_CACTVS_HBOND_ACCEPTOR>
2

> <PUBCHEM_CACTVS_HBOND_DONOR>
0

> <PUBCHEM_CACTVS_ROTATABLE_BOND>
7

> <PUBCHEM_CACTVS_SUBSKEYS>
AAADceBwMAwAAAAAAAAAAAAAAAAAAAAAAAAAAAAAAAAAAAAAAAAAGhAAAEAADRSggAJCAAAAAAEAAAAAAAAAAAAAAAAAAAAAAAAAAAIAAAAAAAAFAAAAAACAAAAMAAAAAAAAAAAAAAAAAAAAAAAAAAAAAA==

> <PUBCHEM_IUPAC_OPENEYE_NAME>
trimethyl-(2-methyl-3-trimethylsilyloxy-pentoxy)silane

> <PUBCHEM_IUPAC_CAS_NAME>
trimethyl-(2-methyl-1-trimethylsilyloxypentan-3-yl)oxysilane

> <PUBCHEM_IUPAC_NAME>
trimethyl-(2-methyl-1-trimethylsilyloxypentan-3-yl)oxysilane

> <PUBCHEM_IUPAC_SYSTEMATIC_NAME>
trimethyl-(2-methyl-1-trimethylsilyloxy-pentan-3-yl)oxy-silane

> <PUBCHEM_IUPAC_TRADITIONAL_NAME>
trimethyl-(2-methyl-3-trimethylsilyloxy-pentoxy)silane

> <PUBCHEM_IUPAC_INCHI>
InChI=1S/C12H30O2Si2/c1-9-12(14-16(6,7)8)11(2)10-13-15(3,4)5/h11-12H,9-10H2,1-8H3

> <PUBCHEM_IUPAC_INCHIKEY>
MNFWYJCTGNOKKH-UHFFFAOYSA-N

> <PUBCHEM_EXACT_MASS>
262.178433

> <PUBCHEM_MOLECULAR_FORMULA>
C12H30O2Si2

> <PUBCHEM_MOLECULAR_WEIGHT>
262.5364

> <PUBCHEM_OPENEYE_CAN_SMILES>
CCC(C(C)CO[Si](C)(C)C)O[Si](C)(C)C

> <PUBCHEM_OPENEYE_ISO_SMILES>
CCC(C(C)CO[Si](C)(C)C)O[Si](C)(C)C

> <PUBCHEM_CACTVS_TPSA>
18.5

> <PUBCHEM_MONOISOTOPIC_WEIGHT>
262.178433

> <PUBCHEM_TOTAL_CHARGE>
0

> <PUBCHEM_HEAVY_ATOM_COUNT>
16

> <PUBCHEM_ATOM_DEF_STEREO_COUNT>
0

> <PUBCHEM_ATOM_UDEF_STEREO_COUNT>
2

> <PUBCHEM_BOND_DEF_STEREO_COUNT>
0

> <PUBCHEM_BOND_UDEF_STEREO_COUNT>
0

> <PUBCHEM_ISOTOPIC_ATOM_COUNT>
0

> <PUBCHEM_COMPONENT_COUNT>
1

> <PUBCHEM_CACTVS_TAUTO_COUNT>
1

> <PUBCHEM_COORDINATE_TYPE>
1
5
255

> <PUBCHEM_BONDANNOTATIONS>
5  9  3
6  8  3

$$$$

