9595287
  -OEChem-07051213122D

 27 26  0     0  0  0  0  0  0999 V2000
    6.3301   -1.0000    0.0000 S   0  0  0  0  0  0  0  0  0  0  0  0
    7.1962    1.5000    0.0000 O   0  0  0  0  0  0  0  0  0  0  0  0
    4.5981    0.0000    0.0000 O   0  0  0  0  0  0  0  0  0  0  0  0
    3.7320    1.5000    0.0000 O   0  0  0  0  0  0  0  0  0  0  0  0
    8.0622    0.0000    0.0000 N   0  0  0  0  0  0  0  0  0  0  0  0
    5.4641    0.5000    0.0000 N   0  0  0  0  0  0  0  0  0  0  0  0
    2.8660    0.0000    0.0000 N   0  0  0  0  0  0  0  0  0  0  0  0
    7.1962    0.5000    0.0000 C   0  0  0  0  0  0  0  0  0  0  0  0
    8.9282    0.5000    0.0000 C   0  0  0  0  0  0  0  0  0  0  0  0
    8.0622   -1.0000    0.0000 C   0  0  0  0  0  0  0  0  0  0  0  0
    6.3301    0.0000    0.0000 C   0  0  0  0  0  0  0  0  0  0  0  0
    5.4641   -1.5000    0.0000 C   0  0  0  0  0  0  0  0  0  0  0  0
    3.7320    0.5000    0.0000 C   0  0  0  0  0  0  0  0  0  0  0  0
    2.0000    0.5000    0.0000 C   0  0  0  0  0  0  0  0  0  0  0  0
    9.2382   -0.0369    0.0000 H   0  0  0  0  0  0  0  0  0  0  0  0
    9.4651    0.8100    0.0000 H   0  0  0  0  0  0  0  0  0  0  0  0
    8.6182    1.0369    0.0000 H   0  0  0  0  0  0  0  0  0  0  0  0
    7.4422   -1.0000    0.0000 H   0  0  0  0  0  0  0  0  0  0  0  0
    8.0622   -1.6200    0.0000 H   0  0  0  0  0  0  0  0  0  0  0  0
    8.6822   -1.0000    0.0000 H   0  0  0  0  0  0  0  0  0  0  0  0
    5.1541   -0.9631    0.0000 H   0  0  0  0  0  0  0  0  0  0  0  0
    4.9272   -1.8100    0.0000 H   0  0  0  0  0  0  0  0  0  0  0  0
    5.7741   -2.0369    0.0000 H   0  0  0  0  0  0  0  0  0  0  0  0
    2.8660   -0.6200    0.0000 H   0  0  0  0  0  0  0  0  0  0  0  0
    2.3100    1.0369    0.0000 H   0  0  0  0  0  0  0  0  0  0  0  0
    1.4631    0.8100    0.0000 H   0  0  0  0  0  0  0  0  0  0  0  0
    1.6900   -0.0369    0.0000 H   0  0  0  0  0  0  0  0  0  0  0  0
  1 11  1  0  0  0  0
  1 12  1  0  0  0  0
  2  8  2  0  0  0  0
  3  6  1  0  0  0  0
  3 13  1  0  0  0  0
  4 13  2  0  0  0  0
  5  8  1  0  0  0  0
  5  9  1  0  0  0  0
  5 10  1  0  0  0  0
  6 11  2  0  0  0  0
  7 13  1  0  0  0  0
  7 14  1  0  0  0  0
  7 24  1  0  0  0  0
  8 11  1  0  0  0  0
  9 15  1  0  0  0  0
  9 16  1  0  0  0  0
  9 17  1  0  0  0  0
 10 18  1  0  0  0  0
 10 19  1  0  0  0  0
 10 20  1  0  0  0  0
 12 21  1  0  0  0  0
 12 22  1  0  0  0  0
 12 23  1  0  0  0  0
 14 25  1  0  0  0  0
 14 26  1  0  0  0  0
 14 27  1  0  0  0  0
M  END
> <PUBCHEM_COMPOUND_CID>
9595287

> <PUBCHEM_COMPOUND_CANONICALIZED>
1

> <PUBCHEM_CACTVS_COMPLEXITY>
253

> <PUBCHEM_CACTVS_HBOND_ACCEPTOR>
5

> <PUBCHEM_CACTVS_HBOND_DONOR>
1

> <PUBCHEM_CACTVS_ROTATABLE_BOND>
4

> <PUBCHEM_CACTVS_SUBSKEYS>
AAADccBjMABAAAAAAAAAAAAAAAAAAAAAAAAAAAAAAAAAAAAAAAAAHgQUAAAAAAABwASCCAPQAAgoAAEwGAAAAAAAABAAAIAIAAEAAAAAAAAAAAAAAgAAAAAAAAAAAAAAAAAAAAAAAAAAAAAAAAAAAAAAAA==

> <PUBCHEM_IUPAC_OPENEYE_NAME>
methyl (1Z)-2-(dimethylamino)-N-(methylcarbamoyloxy)-2-oxo-ethanimidothioate

> <PUBCHEM_IUPAC_CAS_NAME>
(1Z)-2-(dimethylamino)-N-(methylcarbamoyloxy)-2-oxoethanimidothioic acid methyl ester

> <PUBCHEM_IUPAC_NAME>
methyl (1Z)-2-(dimethylamino)-N-(methylcarbamoyloxy)-2-oxoethanimidothioate

> <PUBCHEM_IUPAC_SYSTEMATIC_NAME>
methyl (1Z)-2-(dimethylamino)-N-(methylcarbamoyloxy)-2-oxidanylidene-ethanimidothioate

> <PUBCHEM_IUPAC_TRADITIONAL_NAME>
(1Z)-2-(dimethylamino)-2-keto-N-(methylcarbamoyloxy)thioacetimidic acid methyl ester

> <PUBCHEM_IUPAC_INCHI>
InChI=1S/C7H13N3O3S/c1-8-7(12)13-9-5(14-4)6(11)10(2)3/h1-4H3,(H,8,12)/b9-5-

> <PUBCHEM_IUPAC_INCHIKEY>
KZAUOCCYDRDERY-UITAMQMPSA-N

> <PUBCHEM_XLOGP3>
-0.5

> <PUBCHEM_EXACT_MASS>
219.067762

> <PUBCHEM_MOLECULAR_FORMULA>
C7H13N3O3S

> <PUBCHEM_MOLECULAR_WEIGHT>
219.26142

> <PUBCHEM_OPENEYE_CAN_SMILES>
CNC(=O)ON=C(C(=O)N(C)C)SC

> <PUBCHEM_OPENEYE_ISO_SMILES>
CNC(=O)O/N=C(/C(=O)N(C)C)\SC

> <PUBCHEM_CACTVS_TPSA>
96.3

> <PUBCHEM_MONOISOTOPIC_WEIGHT>
219.067762

> <PUBCHEM_TOTAL_CHARGE>
0

> <PUBCHEM_HEAVY_ATOM_COUNT>
14

> <PUBCHEM_ATOM_DEF_STEREO_COUNT>
0

> <PUBCHEM_ATOM_UDEF_STEREO_COUNT>
0

> <PUBCHEM_BOND_DEF_STEREO_COUNT>
1

> <PUBCHEM_BOND_UDEF_STEREO_COUNT>
0

> <PUBCHEM_ISOTOPIC_ATOM_COUNT>
0

> <PUBCHEM_COMPONENT_COUNT>
1

> <PUBCHEM_CACTVS_TAUTO_COUNT>
2

> <PUBCHEM_COORDINATE_TYPE>
1
5
255

$$$$

