5209
  -OEChem-06261200343D

 39 41  0     0  0  0  0  0  0999 V2000
    2.7538    2.5066    0.3838 O   0  0  0  0  0  0  0  0  0  0  0  0
   -0.5648   -1.0818    0.5647 N   0  0  0  0  0  0  0  0  0  0  0  0
   -0.0508    0.1768    0.3593 C   0  0  0  0  0  0  0  0  0  0  0  0
   -1.1014    0.9863   -0.0738 C   0  0  0  0  0  0  0  0  0  0  0  0
    1.2545    0.6542    0.5236 C   0  0  0  0  0  0  0  0  0  0  0  0
   -2.2763    0.1706   -0.1243 C   0  0  0  0  0  0  0  0  0  0  0  0
   -1.9095   -1.1133    0.2797 C   0  0  0  0  0  0  0  0  0  0  0  0
   -0.8352    2.3423   -0.3577 C   0  0  0  0  0  0  0  0  0  0  0  0
    1.4930    2.0008    0.2366 C   0  0  0  0  0  0  0  0  0  0  0  0
    2.3670   -0.2276    0.9898 C   0  0  0  0  0  0  0  0  0  0  0  0
    0.4652    2.8342   -0.1979 C   0  0  0  0  0  0  0  0  0  0  0  0
   -3.6214    0.4081   -0.4775 C   0  0  0  0  0  0  0  0  0  0  0  0
   -2.8199   -2.1741    0.3492 C   0  0  0  0  0  0  0  0  0  0  0  0
    3.0912   -0.9069   -0.1455 C   0  0  0  0  0  0  0  0  0  0  0  0
    0.7300    4.2733   -0.5029 C   0  0  0  0  0  0  0  0  0  0  0  0
   -4.5434   -0.6427   -0.4129 C   0  0  0  0  0  0  0  0  0  0  0  0
   -4.1463   -1.9139   -0.0053 C   0  0  0  0  0  0  0  0  0  0  0  0
    3.2031   -2.2271   -0.3872 C   0  0  0  0  0  0  0  0  0  0  0  0
    3.9434   -2.8379   -1.5430 C   0  0  0  0  0  0  0  0  0  0  0  0
    2.5676   -3.2278    0.5412 C   0  0  0  0  0  0  0  0  0  0  0  0
   -0.0312   -1.8782    0.8835 H   0  0  0  0  0  0  0  0  0  0  0  0
   -1.6388    2.9906   -0.6964 H   0  0  0  0  0  0  0  0  0  0  0  0
    3.1027    0.3555    1.5588 H   0  0  0  0  0  0  0  0  0  0  0  0
    1.9664   -0.9276    1.7265 H   0  0  0  0  0  0  0  0  0  0  0  0
   -3.9464    1.3941   -0.7973 H   0  0  0  0  0  0  0  0  0  0  0  0
   -2.5111   -3.1646    0.6664 H   0  0  0  0  0  0  0  0  0  0  0  0
    3.5853   -0.2301   -0.8423 H   0  0  0  0  0  0  0  0  0  0  0  0
    1.0921    4.7973    0.3879 H   0  0  0  0  0  0  0  0  0  0  0  0
    1.4616    4.3688   -1.3122 H   0  0  0  0  0  0  0  0  0  0  0  0
   -0.1786    4.7908   -0.8307 H   0  0  0  0  0  0  0  0  0  0  0  0
   -5.5803   -0.4631   -0.6842 H   0  0  0  0  0  0  0  0  0  0  0  0
   -4.8780   -2.7166    0.0381 H   0  0  0  0  0  0  0  0  0  0  0  0
    2.7908    3.4471    0.1529 H   0  0  0  0  0  0  0  0  0  0  0  0
    4.3671   -2.0710   -2.1997 H   0  0  0  0  0  0  0  0  0  0  0  0
    4.7670   -3.4632   -1.1841 H   0  0  0  0  0  0  0  0  0  0  0  0
    3.2683   -3.4562   -2.1435 H   0  0  0  0  0  0  0  0  0  0  0  0
    2.3898   -2.8649    1.5543 H   0  0  0  0  0  0  0  0  0  0  0  0
    1.6200   -3.5796    0.1208 H   0  0  0  0  0  0  0  0  0  0  0  0
    3.2246   -4.0982    0.6556 H   0  0  0  0  0  0  0  0  0  0  0  0
  1  9  1  0  0  0  0
  1 33  1  0  0  0  0
  2  3  1  0  0  0  0
  2  7  1  0  0  0  0
  2 21  1  0  0  0  0
  3  4  2  0  0  0  0
  3  5  1  0  0  0  0
  4  6  1  0  0  0  0
  4  8  1  0  0  0  0
  5  9  2  0  0  0  0
  5 10  1  0  0  0  0
  6  7  1  0  0  0  0
  6 12  2  0  0  0  0
  7 13  2  0  0  0  0
  8 11  2  0  0  0  0
  8 22  1  0  0  0  0
  9 11  1  0  0  0  0
 10 14  1  0  0  0  0
 10 23  1  0  0  0  0
 10 24  1  0  0  0  0
 11 15  1  0  0  0  0
 12 16  1  0  0  0  0
 12 25  1  0  0  0  0
 13 17  1  0  0  0  0
 13 26  1  0  0  0  0
 14 18  2  0  0  0  0
 14 27  1  0  0  0  0
 15 28  1  0  0  0  0
 15 29  1  0  0  0  0
 15 30  1  0  0  0  0
 16 17  2  0  0  0  0
 16 31  1  0  0  0  0
 17 32  1  0  0  0  0
 18 19  1  0  0  0  0
 18 20  1  0  0  0  0
 19 34  1  0  0  0  0
 19 35  1  0  0  0  0
 19 36  1  0  0  0  0
 20 37  1  0  0  0  0
 20 38  1  0  0  0  0
 20 39  1  0  0  0  0
M  END
> <PUBCHEM_COMPOUND_CID>
5209

> <PUBCHEM_CONFORMER_RMSD>
0.6

> <PUBCHEM_CONFORMER_DIVERSEORDER>
1
12
13
11
3
8
9
4
7
10
5
6
2

> <PUBCHEM_MMFF94_PARTIAL_CHARGES>
26
1 -0.53
10 0.28
11 -0.14
12 -0.15
13 -0.15
14 -0.29
15 0.14
16 -0.15
17 -0.15
18 -0.28
19 0.14
2 0.03
20 0.14
21 0.27
22 0.15
25 0.15
26 0.15
27 0.15
3 -0.15
31 0.15
32 0.15
33 0.45
5 -0.14
7 -0.15
8 -0.15
9 0.08

> <PUBCHEM_EFFECTIVE_ROTOR_COUNT>
2

> <PUBCHEM_PHARMACOPHORE_FEATURES>
7
1 1 donor
1 2 cation
1 2 donor
3 18 19 20 hydrophobe
5 2 3 4 6 7 rings
6 3 4 5 8 9 11 rings
6 6 7 12 13 16 17 rings

> <PUBCHEM_HEAVY_ATOM_COUNT>
20

> <PUBCHEM_ATOM_DEF_STEREO_COUNT>
0

> <PUBCHEM_ATOM_UDEF_STEREO_COUNT>
0

> <PUBCHEM_BOND_DEF_STEREO_COUNT>
0

> <PUBCHEM_BOND_UDEF_STEREO_COUNT>
0

> <PUBCHEM_ISOTOPIC_ATOM_COUNT>
0

> <PUBCHEM_COMPONENT_COUNT>
1

> <PUBCHEM_CACTVS_TAUTO_COUNT>
9

> <PUBCHEM_CONFORMER_ID>
0000145900000001

> <PUBCHEM_MMFF94_ENERGY>
43.164

> <PUBCHEM_FEATURE_SELFOVERLAP>
35.7

> <PUBCHEM_SHAPE_FINGERPRINT>
10616163 171 17764029064877732483
10906281 52 18200305525161695488
10967382 1 18340492149136907433
11578080 2 16771583696205909012
116883 192 18337958994579449252
12403259 327 15213310707053865823
12553582 1 18268143334826182810
12623949 98 17980460292881652059
12788726 201 17982444103382647266
13140716 1 18267881642563906601
13533116 47 18187646843902220827
13583140 156 14130202804937330955
138480 1 18411420600747045160
14022347 108 18200598119428446713
14790565 3 17256523548439278368
14863182 85 18125156035553932132
14866123 147 17759237788524992187
15422964 175 18337402603288774916
15442244 35 18410293605961470681
15475509 8 18045492273873375989
16752209 62 17693104371516569690
16945 1 18269567198167923377
17492 89 18265053535976205175
17818456 19 17749658693200639561
18681886 176 17691695489237594136
19591789 44 17184750732465874433
20645477 70 18268721510918566567
20871999 31 18196083567924777382
21665056 4 17330556956545297740
221490 88 18341609253214946203
2255824 54 18195528078023645832
22849339 104 17253128235548162494
23419403 2 17245022498124980456
23557571 272 18118414075508521010
23559900 14 18338806593680330161
2748010 2 18268731517775758297
3060560 45 18121780517850792548
3091708 16 8852346785927588296
314173 41 18411978061563983315
335352 9 18339365287875023325
3421961 26 18408887312908399114
352729 6 16754947281865312419
4280585 95 18412265077749995934
6443956 14 18412545392330759940
6669772 16 17829595168604975956
7364860 26 18267023842994506936
81228 2 18268995469454570472
8272917 22 18194398892730461891
9709674 26 18198063577966206707

> <PUBCHEM_SHAPE_MULTIPOLES>
400.74
7.15
4.56
0.9
2.65
3.07
0.13
-7.22
1.52
-3.17
0.7
-0.6
-0.32
0.98

> <PUBCHEM_SHAPE_SELFOVERLAP>
878.267

> <PUBCHEM_SHAPE_VOLUME>
220.7

> <PUBCHEM_COORDINATE_TYPE>
2
5
10

$$$$

