13277
  -OEChem-06261208243D

 31 33  0     0  0  0  0  0  0999 V2000
   -0.0001   -1.3027    0.0004 N   0  3  0  0  0  0  0  0  0  0  0  0
   -4.8874    1.3281   -0.0019 N   0  0  0  0  0  0  0  0  0  0  0  0
    4.8874    1.3282   -0.0014 N   0  0  0  0  0  0  0  0  0  0  0  0
   -1.1871   -0.6679    0.0005 C   0  0  0  0  0  0  0  0  0  0  0  0
    1.1871   -0.6679    0.0004 C   0  0  0  0  0  0  0  0  0  0  0  0
   -1.2156    0.7416    0.0009 C   0  0  0  0  0  0  0  0  0  0  0  0
    1.2156    0.7416    0.0009 C   0  0  0  0  0  0  0  0  0  0  0  0
    0.0000    1.4367    0.0014 C   0  0  0  0  0  0  0  0  0  0  0  0
   -2.3802   -1.3987   -0.0001 C   0  0  0  0  0  0  0  0  0  0  0  0
    2.3801   -1.3988   -0.0002 C   0  0  0  0  0  0  0  0  0  0  0  0
   -2.4583    1.3951    0.0007 C   0  0  0  0  0  0  0  0  0  0  0  0
    2.4585    1.3951    0.0005 C   0  0  0  0  0  0  0  0  0  0  0  0
   -0.0001   -2.7814    0.0002 C   0  0  0  0  0  0  0  0  0  0  0  0
   -3.6450    0.6594   -0.0002 C   0  0  0  0  0  0  0  0  0  0  0  0
    3.6452    0.6593   -0.0005 C   0  0  0  0  0  0  0  0  0  0  0  0
   -3.6057   -0.7338   -0.0007 C   0  0  0  0  0  0  0  0  0  0  0  0
    3.6057   -0.7340   -0.0008 C   0  0  0  0  0  0  0  0  0  0  0  0
    0.0000    2.5257    0.0017 H   0  0  0  0  0  0  0  0  0  0  0  0
   -2.4513   -2.4774   -0.0530 H   0  0  0  0  0  0  0  0  0  0  0  0
    2.4510   -2.4776   -0.0529 H   0  0  0  0  0  0  0  0  0  0  0  0
   -2.4988    2.4831    0.0008 H   0  0  0  0  0  0  0  0  0  0  0  0
    2.4990    2.4831    0.0007 H   0  0  0  0  0  0  0  0  0  0  0  0
    0.8362   -3.1932    0.5641 H   0  0  0  0  0  0  0  0  0  0  0  0
   -0.8366   -3.1934    0.5635 H   0  0  0  0  0  0  0  0  0  0  0  0
    0.0003   -3.1266   -1.0365 H   0  0  0  0  0  0  0  0  0  0  0  0
   -4.5259   -1.3129   -0.0127 H   0  0  0  0  0  0  0  0  0  0  0  0
    4.5258   -1.3132   -0.0127 H   0  0  0  0  0  0  0  0  0  0  0  0
   -4.9183    2.3389    0.0001 H   0  0  0  0  0  0  0  0  0  0  0  0
   -5.7480    0.7969   -0.0007 H   0  0  0  0  0  0  0  0  0  0  0  0
    5.7481    0.7972   -0.0015 H   0  0  0  0  0  0  0  0  0  0  0  0
    4.9181    2.3390   -0.0006 H   0  0  0  0  0  0  0  0  0  0  0  0
  1  4  2  0  0  0  0
  1  5  1  0  0  0  0
  1 13  1  0  0  0  0
  2 14  1  0  0  0  0
  2 28  1  0  0  0  0
  2 29  1  0  0  0  0
  3 15  1  0  0  0  0
  3 30  1  0  0  0  0
  3 31  1  0  0  0  0
  4  6  1  0  0  0  0
  4  9  1  0  0  0  0
  5  7  2  0  0  0  0
  5 10  1  0  0  0  0
  6  8  2  0  0  0  0
  6 11  1  0  0  0  0
  7  8  1  0  0  0  0
  7 12  1  0  0  0  0
  8 18  1  0  0  0  0
  9 16  2  0  0  0  0
  9 19  1  0  0  0  0
 10 17  2  0  0  0  0
 10 20  1  0  0  0  0
 11 14  2  0  0  0  0
 11 21  1  0  0  0  0
 12 15  2  0  0  0  0
 12 22  1  0  0  0  0
 13 23  1  0  0  0  0
 13 24  1  0  0  0  0
 13 25  1  0  0  0  0
 14 16  1  0  0  0  0
 15 17  1  0  0  0  0
 16 26  1  0  0  0  0
 17 27  1  0  0  0  0
M  CHG  1   1   1
M  END
> <PUBCHEM_COMPOUND_CID>
13277

> <PUBCHEM_CONFORMER_RMSD>
0.4

> <PUBCHEM_CONFORMER_DIVERSEORDER>
1

> <PUBCHEM_MMFF94_PARTIAL_CHARGES>
26
1 -0.21
10 -0.15
11 -0.15
12 -0.15
13 0.49
14 0.1
15 0.1
16 -0.15
17 -0.15
18 0.15
19 0.15
2 -0.9
20 0.15
21 0.15
22 0.15
26 0.15
27 0.15
28 0.4
29 0.4
3 -0.9
30 0.4
31 0.4
4 0.36
5 0.36
8 -0.15
9 -0.15

> <PUBCHEM_EFFECTIVE_ROTOR_COUNT>
0

> <PUBCHEM_PHARMACOPHORE_FEATURES>
7
1 2 cation
1 2 donor
1 3 cation
1 3 donor
6 1 4 5 6 7 8 rings
6 4 6 9 11 14 16 rings
6 5 7 10 12 15 17 rings

> <PUBCHEM_HEAVY_ATOM_COUNT>
17

> <PUBCHEM_ATOM_DEF_STEREO_COUNT>
0

> <PUBCHEM_ATOM_UDEF_STEREO_COUNT>
0

> <PUBCHEM_BOND_DEF_STEREO_COUNT>
0

> <PUBCHEM_BOND_UDEF_STEREO_COUNT>
0

> <PUBCHEM_ISOTOPIC_ATOM_COUNT>
0

> <PUBCHEM_COMPONENT_COUNT>
1

> <PUBCHEM_CACTVS_TAUTO_COUNT>
1

> <PUBCHEM_CONFORMER_ID>
000033DD00000001

> <PUBCHEM_MMFF94_ENERGY>
90.6215

> <PUBCHEM_FEATURE_SELFOVERLAP>
35.579

> <PUBCHEM_SHAPE_FINGERPRINT>
10062212 137 18410023138648413819
10411042 1 17185595162044947047
10608611 8 18410577287981633056
10967382 1 18338517546470314310
11132069 177 18410859862490797793
11471102 20 18410015471930992677
11543360 7 15647345099555551685
12403814 3 17632304444922596645
13140716 1 18411701027519815779
13221675 6 18410856559639815558
13380535 76 18410573985151788931
14144814 61 18411136939463136920
14325111 11 18410573985162059104
15196674 1 18410573989446580839
15219456 202 18410289224598742015
15230672 131 13514901083668213635
15309172 13 18409721859529781915
15442244 35 18194120948132511674
15536298 74 18334857238313211822
15775835 57 18410853261104919237
16945 1 18122626316663803463
18186145 218 18411982494059351684
193761 8 17689998259525850304
200 152 17968101910838315525
20510252 161 18260826003365107888
20645477 70 18335140954978294007
21267235 1 18410565193353772994
2334 1 18410856529580312739
23402539 116 18261681393494251092
23402655 69 18333453148684111693
23463225 33 18341613736870184950
23559900 14 18333731325990868270
25 1 18411703213816379167
2748010 2 18411134731802584447
296302 2 18409728460773118365
335352 9 18266740366589299998
34934 24 18410580586516191586
3545911 37 18410571790428684516
474 4 17130421282068429588
4990 188 17968086539060640716
5104073 3 18411700988864980762
528886 8 18410298016349252875
53812653 166 18335424551742500392
54173680 148 17980197487336070635
633830 44 18261673769763764103
69090 78 18408608049818681831
7364860 26 18192149514904272542
9709674 26 18409161078619598294

> <PUBCHEM_SHAPE_MULTIPOLES>
334.91
7.85
2.17
0.6
0
0.95
0
-3.08
0.01
0
0
0
0.01
0

> <PUBCHEM_SHAPE_SELFOVERLAP>
753.794

> <PUBCHEM_SHAPE_VOLUME>
177.3

> <PUBCHEM_COORDINATE_TYPE>
2
5
10

$$$$

