3981
  -OEChem-06251223483D

 49 52  0     1  0  0  0  0  0999 V2000
   -2.5723    1.5164    1.1347 O   0  0  0  0  0  0  0  0  0  0  0  0
   -0.4854   -2.2130    0.1639 N   0  0  2  0  0  0  0  0  0  0  0  0
    5.1838   -0.2759   -0.1579 N   0  0  0  0  0  0  0  0  0  0  0  0
   -4.1975    0.4922   -0.1741 N   0  0  0  0  0  0  0  0  0  0  0  0
    0.7390   -1.4134    0.4501 C   0  0  2  0  0  0  0  0  0  0  0  0
    0.6082    0.0783    0.0183 C   0  0  0  0  0  0  0  0  0  0  0  0
    1.9889   -2.1306   -0.1829 C   0  0  0  0  0  0  0  0  0  0  0  0
   -1.8384   -0.2055   -0.3038 C   0  0  2  0  0  0  0  0  0  0  0  0
   -1.6975   -1.4726    0.5432 C   0  0  0  0  0  0  0  0  0  0  0  0
    3.1837   -1.2458   -0.1528 C   0  0  0  0  0  0  0  0  0  0  0  0
    1.8387    0.9008    0.0101 C   0  0  0  0  0  0  0  0  0  0  0  0
    3.0188    0.1520   -0.0677 C   0  0  0  0  0  0  0  0  0  0  0  0
   -0.5747    0.5965   -0.3558 C   0  0  0  0  0  0  0  0  0  0  0  0
    4.2679    0.7505   -0.0754 C   0  0  0  0  0  0  0  0  0  0  0  0
   -0.4748   -3.5095    0.8492 C   0  0  0  0  0  0  0  0  0  0  0  0
   -2.8938    0.6797    0.2867 C   0  0  0  0  0  0  0  0  0  0  0  0
    4.5355   -1.4912   -0.2073 C   0  0  0  0  0  0  0  0  0  0  0  0
    1.9679    2.2933    0.0806 C   0  0  0  0  0  0  0  0  0  0  0  0
    4.4142    2.1367   -0.0074 C   0  0  0  0  0  0  0  0  0  0  0  0
    3.2349    2.8941    0.0707 C   0  0  0  0  0  0  0  0  0  0  0  0
   -5.3186    1.2842    0.3153 C   0  0  0  0  0  0  0  0  0  0  0  0
   -4.5336   -0.5117   -1.1805 C   0  0  0  0  0  0  0  0  0  0  0  0
   -5.9579    0.6441    1.5046 C   0  0  0  0  0  0  0  0  0  0  0  0
   -4.4373    0.0505   -2.5618 C   0  0  0  0  0  0  0  0  0  0  0  0
    0.8920   -1.3838    1.5409 H   0  0  0  0  0  0  0  0  0  0  0  0
    1.7782   -2.3991   -1.2263 H   0  0  0  0  0  0  0  0  0  0  0  0
    2.2180   -3.0534    0.3616 H   0  0  0  0  0  0  0  0  0  0  0  0
   -2.0464   -0.4674   -1.3431 H   0  0  0  0  0  0  0  0  0  0  0  0
   -1.6761   -1.2259    1.6151 H   0  0  0  0  0  0  0  0  0  0  0  0
   -2.5804   -2.1058    0.4004 H   0  0  0  0  0  0  0  0  0  0  0  0
   -0.6439    1.6171   -0.7246 H   0  0  0  0  0  0  0  0  0  0  0  0
   -1.4003   -4.0608    0.6452 H   0  0  0  0  0  0  0  0  0  0  0  0
   -0.3749   -3.4013    1.9350 H   0  0  0  0  0  0  0  0  0  0  0  0
    0.3335   -4.1500    0.4847 H   0  0  0  0  0  0  0  0  0  0  0  0
    5.1006   -2.4098   -0.2800 H   0  0  0  0  0  0  0  0  0  0  0  0
    1.0911    2.9312    0.1548 H   0  0  0  0  0  0  0  0  0  0  0  0
    6.1869   -0.1561   -0.1833 H   0  0  0  0  0  0  0  0  0  0  0  0
    5.3892    2.6107   -0.0129 H   0  0  0  0  0  0  0  0  0  0  0  0
    3.3072    3.9780    0.1284 H   0  0  0  0  0  0  0  0  0  0  0  0
   -4.9426    2.2731    0.6015 H   0  0  0  0  0  0  0  0  0  0  0  0
   -6.0433    1.4357   -0.4918 H   0  0  0  0  0  0  0  0  0  0  0  0
   -3.9054   -1.3983   -1.0942 H   0  0  0  0  0  0  0  0  0  0  0  0
   -5.5551   -0.8641   -0.9939 H   0  0  0  0  0  0  0  0  0  0  0  0
   -6.3596   -0.3454    1.2629 H   0  0  0  0  0  0  0  0  0  0  0  0
   -5.2412    0.5154    2.3230 H   0  0  0  0  0  0  0  0  0  0  0  0
   -6.7838    1.2596    1.8753 H   0  0  0  0  0  0  0  0  0  0  0  0
   -5.1505    0.8689   -2.7085 H   0  0  0  0  0  0  0  0  0  0  0  0
   -3.4436    0.4497   -2.7857 H   0  0  0  0  0  0  0  0  0  0  0  0
   -4.6642   -0.7206   -3.3052 H   0  0  0  0  0  0  0  0  0  0  0  0
  1 16  2  0  0  0  0
  2  5  1  0  0  0  0
  2  9  1  0  0  0  0
  2 15  1  0  0  0  0
  3 14  1  0  0  0  0
  3 17  1  0  0  0  0
  3 37  1  0  0  0  0
  4 16  1  0  0  0  0
  4 21  1  0  0  0  0
  4 22  1  0  0  0  0
  5  6  1  0  0  0  0
  5  7  1  0  0  0  0
  5 25  1  0  0  0  0
  6 11  1  0  0  0  0
  6 13  2  0  0  0  0
  7 10  1  0  0  0  0
  7 26  1  0  0  0  0
  7 27  1  0  0  0  0
  8  9  1  0  0  0  0
  8 13  1  0  0  0  0
  8 16  1  0  0  0  0
  8 28  1  0  0  0  0
  9 29  1  0  0  0  0
  9 30  1  0  0  0  0
 10 12  1  0  0  0  0
 10 17  2  0  0  0  0
 11 12  2  0  0  0  0
 11 18  1  0  0  0  0
 12 14  1  0  0  0  0
 13 31  1  0  0  0  0
 14 19  2  0  0  0  0
 15 32  1  0  0  0  0
 15 33  1  0  0  0  0
 15 34  1  0  0  0  0
 17 35  1  0  0  0  0
 18 20  2  0  0  0  0
 18 36  1  0  0  0  0
 19 20  1  0  0  0  0
 19 38  1  0  0  0  0
 20 39  1  0  0  0  0
 21 23  1  0  0  0  0
 21 40  1  0  0  0  0
 21 41  1  0  0  0  0
 22 24  1  0  0  0  0
 22 42  1  0  0  0  0
 22 43  1  0  0  0  0
 23 44  1  0  0  0  0
 23 45  1  0  0  0  0
 23 46  1  0  0  0  0
 24 47  1  0  0  0  0
 24 48  1  0  0  0  0
 24 49  1  0  0  0  0
M  END
> <PUBCHEM_COMPOUND_CID>
3981

> <PUBCHEM_CONFORMER_RMSD>
0.8

> <PUBCHEM_CONFORMER_DIVERSEORDER>
1
10
14
4
8
19
18
11
13
15
16
3
5
20
17
9
21
2
7
12
6

> <PUBCHEM_MMFF94_PARTIAL_CHARGES>
27
1 -0.57
10 -0.18
11 0.03
13 -0.29
14 -0.15
15 0.27
16 0.57
17 -0.3
18 -0.15
19 -0.15
2 -0.81
20 -0.15
21 0.3
22 0.3
3 0.03
31 0.15
35 0.15
36 0.15
37 0.27
38 0.15
39 0.15
4 -0.66
5 0.41
6 -0.17
7 0.18
8 0.2
9 0.27

> <PUBCHEM_EFFECTIVE_ROTOR_COUNT>
4.8

> <PUBCHEM_PHARMACOPHORE_FEATURES>
8
1 1 acceptor
1 2 cation
1 3 cation
1 3 donor
5 3 10 12 14 17 rings
6 11 12 14 18 19 20 rings
6 2 5 6 8 9 13 rings
6 5 6 7 10 11 12 rings

> <PUBCHEM_HEAVY_ATOM_COUNT>
24

> <PUBCHEM_ATOM_DEF_STEREO_COUNT>
0

> <PUBCHEM_ATOM_UDEF_STEREO_COUNT>
2

> <PUBCHEM_BOND_DEF_STEREO_COUNT>
0

> <PUBCHEM_BOND_UDEF_STEREO_COUNT>
0

> <PUBCHEM_ISOTOPIC_ATOM_COUNT>
0

> <PUBCHEM_COMPONENT_COUNT>
1

> <PUBCHEM_CACTVS_TAUTO_COUNT>
1

> <PUBCHEM_CONFORMER_ID>
00000F8D00000001

> <PUBCHEM_MMFF94_ENERGY>
57.4687

> <PUBCHEM_FEATURE_SELFOVERLAP>
40.841

> <PUBCHEM_SHAPE_FINGERPRINT>
10411042 1 17690559006552465394
10906281 52 18335688439334360644
10967382 1 18411134762574068250
11471102 20 18410858759264483916
11796584 16 15140961780993597519
12107183 9 17539962201603635089
12236239 1 17967533493391591213
12403259 415 18060702805788793885
12616971 3 18187365445802203365
12633257 1 18343030982226966082
12788726 201 17531790437702044408
12969540 114 17988097633321873447
13140716 1 18340491054695622682
13540713 4 18193259807833404178
14790565 3 18337382846629637313
15196674 1 18411135797049523250
15420108 30 16816844246318073952
17349148 13 18261115187855262498
18186145 218 18341621412324896189
19591789 44 18196370549154945864
200 152 18040439880066935303
20645477 70 18408323276734362502
21033648 144 18340776944113061620
21033648 29 17560812034553685773
21033650 10 16952220266789329672
21267235 1 18336536231376570646
21315764 119 16226313923897446685
21709351 56 18335990864745167429
21859007 373 17630075804142849036
23402539 116 18113903766746484637
23558518 356 17769655304774179314
23559900 14 18336548218857179712
3178227 256 18271513299341863178
335352 9 18411134745531557294
3380486 145 17404851562941491363
350125 39 18340200894514992980
3680242 22 18342464780830561674
469060 322 16629970902564993815
474 4 18409447007524315563
495365 180 17895484626837965904
5104073 3 18342177709342477618
543358 83 18408322185812565102
633830 44 18335139812912359295
8272917 22 18261668259484201438
9709674 26 18337386024963464998
9981440 41 17176617168039902944

> <PUBCHEM_SHAPE_MULTIPOLES>
473.1
11.82
2.92
1.16
8.06
0.95
-0.54
-4.61
-0.55
-2.35
0.67
2.3
-0.01
-0.28

> <PUBCHEM_SHAPE_SELFOVERLAP>
1030.229

> <PUBCHEM_SHAPE_VOLUME>
258.7

> <PUBCHEM_COORDINATE_TYPE>
2
5
10

$$$$

