13237
  -OEChem-06261207583D

 27 28  0     0  0  0  0  0  0999 V2000
    0.3469   -0.5628   -0.0002 C   0  0  0  0  0  0  0  0  0  0  0  0
    0.1958    0.8443    0.0001 C   0  0  0  0  0  0  0  0  0  0  0  0
   -2.0729   -0.8111    0.0000 C   0  0  0  0  0  0  0  0  0  0  0  0
   -2.2217    0.5726    0.0003 C   0  0  0  0  0  0  0  0  0  0  0  0
   -0.7976   -1.3766   -0.0003 C   0  0  0  0  0  0  0  0  0  0  0  0
   -1.0957    1.3963    0.0004 C   0  0  0  0  0  0  0  0  0  0  0  0
    1.6384   -1.1149   -0.0004 C   0  0  0  0  0  0  0  0  0  0  0  0
    2.7646   -0.2913   -0.0004 C   0  0  0  0  0  0  0  0  0  0  0  0
    1.3404    1.6580    0.0002 C   0  0  0  0  0  0  0  0  0  0  0  0
    2.6158    1.0924   -0.0001 C   0  0  0  0  0  0  0  0  0  0  0  0
   -3.2650   -1.7115    0.0006 C   0  0  0  0  0  0  0  0  0  0  0  0
   -3.5777    1.1992   -0.0007 C   0  0  0  0  0  0  0  0  0  0  0  0
    4.1286   -0.8945    0.0005 C   0  0  0  0  0  0  0  0  0  0  0  0
   -0.6867   -2.4597   -0.0004 H   0  0  0  0  0  0  0  0  0  0  0  0
   -1.2173    2.4783    0.0005 H   0  0  0  0  0  0  0  0  0  0  0  0
    1.7661   -2.1962   -0.0024 H   0  0  0  0  0  0  0  0  0  0  0  0
    1.2482    2.7421    0.0001 H   0  0  0  0  0  0  0  0  0  0  0  0
    3.4853    1.7446   -0.0018 H   0  0  0  0  0  0  0  0  0  0  0  0
   -3.8734   -1.5454    0.8955 H   0  0  0  0  0  0  0  0  0  0  0  0
   -3.8762   -1.5431   -0.8921 H   0  0  0  0  0  0  0  0  0  0  0  0
   -2.9762   -2.7684   -0.0013 H   0  0  0  0  0  0  0  0  0  0  0  0
   -4.1395    0.9046    0.8916 H   0  0  0  0  0  0  0  0  0  0  0  0
   -3.5200    2.2933    0.0015 H   0  0  0  0  0  0  0  0  0  0  0  0
   -4.1366    0.9079   -0.8960 H   0  0  0  0  0  0  0  0  0  0  0  0
    4.8619   -0.2200    0.4555 H   0  0  0  0  0  0  0  0  0  0  0  0
    4.1466   -1.8242    0.5794 H   0  0  0  0  0  0  0  0  0  0  0  0
    4.4438   -1.1118   -1.0249 H   0  0  0  0  0  0  0  0  0  0  0  0
  1  2  2  0  0  0  0
  1  5  1  0  0  0  0
  1  7  1  0  0  0  0
  2  6  1  0  0  0  0
  2  9  1  0  0  0  0
  3  4  1  0  0  0  0
  3  5  2  0  0  0  0
  3 11  1  0  0  0  0
  4  6  2  0  0  0  0
  4 12  1  0  0  0  0
  5 14  1  0  0  0  0
  6 15  1  0  0  0  0
  7  8  2  0  0  0  0
  7 16  1  0  0  0  0
  8 10  1  0  0  0  0
  8 13  1  0  0  0  0
  9 10  2  0  0  0  0
  9 17  1  0  0  0  0
 10 18  1  0  0  0  0
 11 19  1  0  0  0  0
 11 20  1  0  0  0  0
 11 21  1  0  0  0  0
 12 22  1  0  0  0  0
 12 23  1  0  0  0  0
 12 24  1  0  0  0  0
 13 25  1  0  0  0  0
 13 26  1  0  0  0  0
 13 27  1  0  0  0  0
M  END
> <PUBCHEM_COMPOUND_CID>
13237

> <PUBCHEM_CONFORMER_RMSD>
0.4

> <PUBCHEM_CONFORMER_DIVERSEORDER>
1

> <PUBCHEM_MMFF94_PARTIAL_CHARGES>
16
10 -0.15
11 0.14
12 0.14
13 0.14
14 0.15
15 0.15
16 0.15
17 0.15
18 0.15
3 -0.14
4 -0.14
5 -0.15
6 -0.15
7 -0.15
8 -0.14
9 -0.15

> <PUBCHEM_EFFECTIVE_ROTOR_COUNT>
0

> <PUBCHEM_PHARMACOPHORE_FEATURES>
2
6 1 2 3 4 5 6 rings
6 1 2 7 8 9 10 rings

> <PUBCHEM_HEAVY_ATOM_COUNT>
13

> <PUBCHEM_ATOM_DEF_STEREO_COUNT>
0

> <PUBCHEM_ATOM_UDEF_STEREO_COUNT>
0

> <PUBCHEM_BOND_DEF_STEREO_COUNT>
0

> <PUBCHEM_BOND_UDEF_STEREO_COUNT>
0

> <PUBCHEM_ISOTOPIC_ATOM_COUNT>
0

> <PUBCHEM_COMPONENT_COUNT>
1

> <PUBCHEM_CACTVS_TAUTO_COUNT>
1

> <PUBCHEM_CONFORMER_ID>
000033B500000001

> <PUBCHEM_MMFF94_ENERGY>
37.8166

> <PUBCHEM_FEATURE_SELFOVERLAP>
10.175

> <PUBCHEM_SHAPE_FINGERPRINT>
10062212 137 18410865377213390795
10130415 120 18412830217735428448
10608611 8 18409733928240437257
10967382 1 18266459991118747047
11132069 177 18410016563074180000
11471102 20 18410860974924380677
11769659 78 18410578353217743118
12032990 46 18410851032059376466
12251169 10 18409725201156691473
12932764 1 17418104233860915749
13140716 1 18410008827785566513
13296908 3 18409730634058199146
13380535 76 18336265751373752055
14144814 61 18410856542528544290
14325111 11 18410856529580553088
14911166 2 18339085998604039165
15196674 1 18410573972308792740
15219456 202 18335143055301509160
15375462 189 18059578048163865162
15442244 35 18410573998147181392
15536298 74 18334576807087511040
15775835 57 18200871876211821313
16945 1 18338516468449444709
17804303 29 18408037429417497756
17844478 74 18129934586176134475
18186145 218 17917717893764024670
193761 8 4719631599076536420
19422 9 18342171142121092942
200 152 17968106295968269927
20201158 50 18335420213741135286
20871998 184 18186800262355064031
21267235 1 18411128126211825115
21501502 16 18339357474601472357
21501925 9 18338808814331208146
2334 1 18338797793207827533
23402539 116 18114753732464263253
23402655 69 18263939902701337925
23463225 33 18412826901988975246
23552423 10 18272088249412692908
23559900 14 18335142033890492426
2748010 2 18338239267065452965
3312278 4 18409728486495352090
5104073 3 18410293592580392056
528886 8 18410016571432006033
53812653 166 18336550503109738360
6333449 129 18409169922041162991
69090 78 18335426789800068301
7364860 26 18191304875779598688
8809292 202 18343297071966366130

> <PUBCHEM_SHAPE_MULTIPOLES>
267.53
6.05
1.87
0.62
1.07
0.05
0
-0.98
0
-0.6
0
0
0
0

> <PUBCHEM_SHAPE_SELFOVERLAP>
579.913

> <PUBCHEM_SHAPE_VOLUME>
138.9

> <PUBCHEM_COORDINATE_TYPE>
2
5
10

$$$$

