76230
  -OEChem-07051212502D

 25 26  0     0  0  0  0  0  0999 V2000
    6.8834   -1.7623    0.0000 O   0  0  0  0  0  0  0  0  0  0  0  0
    5.1350    2.2723    0.0000 O   0  0  0  0  0  0  0  0  0  0  0  0
    2.5369   -0.2277    0.0000 O   0  0  0  0  0  0  0  0  0  0  0  0
    3.4030   -1.7277    0.0000 O   0  0  0  0  0  0  0  0  0  0  0  0
    5.1350   -0.7277    0.0000 N   0  0  0  0  0  0  0  0  0  0  0  0
    6.0010   -0.2277    0.0000 C   0  0  0  0  0  0  0  0  0  0  0  0
    6.0010    0.7723    0.0000 C   0  0  0  0  0  0  0  0  0  0  0  0
    6.8950   -0.7624    0.0000 C   0  0  0  0  0  0  0  0  0  0  0  0
    5.1350    1.2723    0.0000 C   0  0  0  0  0  0  0  0  0  0  0  0
    4.2690   -0.2277    0.0000 C   0  0  0  0  0  0  0  0  0  0  0  0
    6.8950    1.3070    0.0000 C   0  0  0  0  0  0  0  0  0  0  0  0
    4.2690    0.7723    0.0000 C   0  0  0  0  0  0  0  0  0  0  0  0
    7.8010   -0.2485    0.0000 C   0  0  0  0  0  0  0  0  0  0  0  0
    7.8010    0.7931    0.0000 C   0  0  0  0  0  0  0  0  0  0  0  0
    3.4030   -0.7277    0.0000 C   0  0  0  0  0  0  0  0  0  0  0  0
    7.7436   -2.2723    0.0000 C   0  0  0  0  0  0  0  0  0  0  0  0
    5.1350   -1.3477    0.0000 H   0  0  0  0  0  0  0  0  0  0  0  0
    6.8878    1.9269    0.0000 H   0  0  0  0  0  0  0  0  0  0  0  0
    3.7320    1.0823    0.0000 H   0  0  0  0  0  0  0  0  0  0  0  0
    8.3368   -0.5606    0.0000 H   0  0  0  0  0  0  0  0  0  0  0  0
    8.3368    1.1052    0.0000 H   0  0  0  0  0  0  0  0  0  0  0  0
    7.4274   -2.8056    0.0000 H   0  0  0  0  0  0  0  0  0  0  0  0
    8.2769   -2.5885    0.0000 H   0  0  0  0  0  0  0  0  0  0  0  0
    8.0598   -1.7390    0.0000 H   0  0  0  0  0  0  0  0  0  0  0  0
    2.0000   -0.5377    0.0000 H   0  0  0  0  0  0  0  0  0  0  0  0
  1  8  1  0  0  0  0
  1 16  1  0  0  0  0
  2  9  2  0  0  0  0
  3 15  1  0  0  0  0
  3 25  1  0  0  0  0
  4 15  2  0  0  0  0
  5  6  1  0  0  0  0
  5 10  1  0  0  0  0
  5 17  1  0  0  0  0
  6  7  2  0  0  0  0
  6  8  1  0  0  0  0
  7  9  1  0  0  0  0
  7 11  1  0  0  0  0
  8 13  2  0  0  0  0
  9 12  1  0  0  0  0
 10 12  2  0  0  0  0
 10 15  1  0  0  0  0
 11 14  2  0  0  0  0
 11 18  1  0  0  0  0
 12 19  1  0  0  0  0
 13 14  1  0  0  0  0
 13 20  1  0  0  0  0
 14 21  1  0  0  0  0
 16 22  1  0  0  0  0
 16 23  1  0  0  0  0
 16 24  1  0  0  0  0
M  END
> <PUBCHEM_COMPOUND_CID>
76230

> <PUBCHEM_COMPOUND_CANONICALIZED>
1

> <PUBCHEM_CACTVS_COMPLEXITY>
350

> <PUBCHEM_CACTVS_HBOND_ACCEPTOR>
5

> <PUBCHEM_CACTVS_HBOND_DONOR>
2

> <PUBCHEM_CACTVS_ROTATABLE_BOND>
2

> <PUBCHEM_CACTVS_SUBSKEYS>
AAADccByOAAAAAAAAAAAAAAAAAAAAAAAAAAwQAAAAAAAAACBAAAAHgAQCAAADAyBmAIyzoLABgCIAqTSSACCCAAlIgAIiAGHTMgOJjrEtbuFMahkwBHY+ceayLCOAAABAAACEAAAAAIAAAQgAAAAAAAAAA==

> <PUBCHEM_IUPAC_OPENEYE_NAME>
8-methoxy-4-oxo-1H-quinoline-2-carboxylic acid

> <PUBCHEM_IUPAC_CAS_NAME>
8-methoxy-4-oxo-1H-quinoline-2-carboxylic acid

> <PUBCHEM_IUPAC_NAME>
8-methoxy-4-oxo-1H-quinoline-2-carboxylic acid

> <PUBCHEM_IUPAC_SYSTEMATIC_NAME>
8-methoxy-4-oxidanylidene-1H-quinoline-2-carboxylic acid

> <PUBCHEM_IUPAC_TRADITIONAL_NAME>
4-keto-8-methoxy-1H-quinoline-2-carboxylic acid

> <PUBCHEM_IUPAC_INCHI>
InChI=1S/C11H9NO4/c1-16-9-4-2-3-6-8(13)5-7(11(14)15)12-10(6)9/h2-5H,1H3,(H,12,13)(H,14,15)

> <PUBCHEM_IUPAC_INCHIKEY>
BXZSKDOPGDPDEG-UHFFFAOYSA-N

> <PUBCHEM_XLOGP3_AA>
1.3

> <PUBCHEM_EXACT_MASS>
219.053158

> <PUBCHEM_MOLECULAR_FORMULA>
C11H9NO4

> <PUBCHEM_MOLECULAR_WEIGHT>
219.19346

> <PUBCHEM_OPENEYE_CAN_SMILES>
COC1=CC=CC2=C1NC(=CC2=O)C(=O)O

> <PUBCHEM_OPENEYE_ISO_SMILES>
COC1=CC=CC2=C1NC(=CC2=O)C(=O)O

> <PUBCHEM_CACTVS_TPSA>
75.6

> <PUBCHEM_MONOISOTOPIC_WEIGHT>
219.053158

> <PUBCHEM_TOTAL_CHARGE>
0

> <PUBCHEM_HEAVY_ATOM_COUNT>
16

> <PUBCHEM_ATOM_DEF_STEREO_COUNT>
0

> <PUBCHEM_ATOM_UDEF_STEREO_COUNT>
0

> <PUBCHEM_BOND_DEF_STEREO_COUNT>
0

> <PUBCHEM_BOND_UDEF_STEREO_COUNT>
0

> <PUBCHEM_ISOTOPIC_ATOM_COUNT>
0

> <PUBCHEM_COMPONENT_COUNT>
1

> <PUBCHEM_CACTVS_TAUTO_COUNT>
3

> <PUBCHEM_COORDINATE_TYPE>
1
5
255

> <PUBCHEM_BONDANNOTATIONS>
10  12  8
11  14  8
13  14  8
5  10  8
5  6  8
6  7  8
6  8  8
7  11  8
7  9  8
8  13  8
9  12  8

$$$$

