15691
  -OEChem-07051212523D

 16 16  0     1  0  0  0  0  0999 V2000
   -1.9295   -1.7958    0.7775 Cl  0  0  0  0  0  0  0  0  0  0  0  0
    0.5185   -1.9642   -1.4570 Cl  0  0  0  0  0  0  0  0  0  0  0  0
   -2.4809    1.5596    0.3697 Cl  0  0  0  0  0  0  0  0  0  0  0  0
    2.3184    0.4865    1.6134 Cl  0  0  0  0  0  0  0  0  0  0  0  0
   -0.6980   -0.5090    0.5615 C   0  0  1  0  0  0  0  0  0  0  0  0
    0.6565   -1.1017    0.1224 C   0  0  2  0  0  0  0  0  0  0  0  0
   -1.1999    0.5763   -0.4115 C   0  0  2  0  0  0  0  0  0  0  0  0
    1.7187    0.0076   -0.0106 C   0  0  1  0  0  0  0  0  0  0  0  0
   -0.1039    1.4942   -0.8795 C   0  0  0  0  0  0  0  0  0  0  0  0
    1.2002    1.2466   -0.6860 C   0  0  0  0  0  0  0  0  0  0  0  0
   -0.5713   -0.0748    1.5609 H   0  0  0  0  0  0  0  0  0  0  0  0
    0.9896   -1.8625    0.8375 H   0  0  0  0  0  0  0  0  0  0  0  0
   -1.6644    0.1252   -1.2956 H   0  0  0  0  0  0  0  0  0  0  0  0
    2.5939   -0.3658   -0.5532 H   0  0  0  0  0  0  0  0  0  0  0  0
   -0.3852    2.3982   -1.4140 H   0  0  0  0  0  0  0  0  0  0  0  0
    1.9304    1.9625   -1.0542 H   0  0  0  0  0  0  0  0  0  0  0  0
  1  5  1  0  0  0  0
  2  6  1  0  0  0  0
  3  7  1  0  0  0  0
  4  8  1  0  0  0  0
  5  6  1  0  0  0  0
  5  7  1  0  0  0  0
  5 11  1  0  0  0  0
  6  8  1  0  0  0  0
  6 12  1  0  0  0  0
  7  9  1  0  0  0  0
  7 13  1  0  0  0  0
  8 10  1  0  0  0  0
  8 14  1  0  0  0  0
  9 10  2  0  0  0  0
  9 15  1  0  0  0  0
 10 16  1  0  0  0  0
M  END
> <PUBCHEM_COMPOUND_CID>
15691

> <PUBCHEM_CONFORMER_RMSD>
0.4

> <PUBCHEM_CONFORMER_DIVERSEORDER>
1
4
12
19
10
17
6
11
20
9
18
3
2
16
13
14
15
5
7
8

> <PUBCHEM_MMFF94_PARTIAL_CHARGES>
12
1 -0.29
10 -0.29
15 0.15
16 0.15
2 -0.29
3 -0.29
4 -0.29
5 0.29
6 0.29
7 0.43
8 0.43
9 -0.29

> <PUBCHEM_EFFECTIVE_ROTOR_COUNT>
0.8

> <PUBCHEM_PHARMACOPHORE_FEATURES>
1
6 5 6 7 8 9 10 rings

> <PUBCHEM_HEAVY_ATOM_COUNT>
10

> <PUBCHEM_ATOM_DEF_STEREO_COUNT>
0

> <PUBCHEM_ATOM_UDEF_STEREO_COUNT>
4

> <PUBCHEM_BOND_DEF_STEREO_COUNT>
0

> <PUBCHEM_BOND_UDEF_STEREO_COUNT>
0

> <PUBCHEM_ISOTOPIC_ATOM_COUNT>
0

> <PUBCHEM_COMPONENT_COUNT>
1

> <PUBCHEM_CACTVS_TAUTO_COUNT>
1

> <PUBCHEM_CONFORMER_ID>
00003D4B00000001

> <PUBCHEM_MMFF94_ENERGY>
11.4665

> <PUBCHEM_FEATURE_SELFOVERLAP>
5.074

> <PUBCHEM_SHAPE_FINGERPRINT>
11680611 10 17774713182588913481
12423570 1 11931966374487807812
13024252 1 16554575336894556952
137420 1 11573643910076049338
14761567 1 16108673086011402693
16945 1 18130800000300452340
18185500 45 17185869493888826462
20511035 2 18336267928690121006
20653085 51 15937842630482843088
20653091 64 17488460758988569648
21040471 1 18270675493009139661
23211744 25 17331104508814239774
23211744 41 17978253838551105140
23235685 24 18340205309820247796
241688 4 17404291288356302440
2748010 2 18410845564523629030
5084963 1 18190440689330164194
53812654 25 17614851712134579135

> <PUBCHEM_SHAPE_MULTIPOLES>
213.27
2.92
2.2
1.37
0.47
0.61
0.09
-0.79
1.25
0.79
-0.47
-0.57
0.2
0.48

> <PUBCHEM_SHAPE_SELFOVERLAP>
387.269

> <PUBCHEM_SHAPE_VOLUME>
134.8

> <PUBCHEM_COORDINATE_TYPE>
2
5
10

$$$$

