7630
  -OEChem-06261202123D

 30 30  0     1  0  0  0  0  0999 V2000
   -3.9592    0.7948   -0.5948 O   0  0  0  0  0  0  0  0  0  0  0  0
   -0.6280   -0.7445   -0.0924 N   0  0  0  0  0  0  0  0  0  0  0  0
    0.7193   -0.2796   -0.4160 C   0  0  0  0  0  0  0  0  0  0  0  0
    1.0147    1.0239    0.3342 C   0  0  0  0  0  0  0  0  0  0  0  0
    1.7433   -1.3642   -0.0638 C   0  0  0  0  0  0  0  0  0  0  0  0
    2.4439    1.5006    0.0804 C   0  0  0  0  0  0  0  0  0  0  0  0
    3.1714   -0.8846   -0.3177 C   0  0  0  0  0  0  0  0  0  0  0  0
    3.4662    0.4193    0.4185 C   0  0  0  0  0  0  0  0  0  0  0  0
   -1.6208    0.2513   -0.4659 C   0  0  0  0  0  0  0  0  0  0  0  0
   -3.0479   -0.2223   -0.1798 C   0  0  1  0  0  0  0  0  0  0  0  0
   -3.3028   -0.4946    1.2972 C   0  0  0  0  0  0  0  0  0  0  0  0
    0.7869   -0.0927   -1.4967 H   0  0  0  0  0  0  0  0  0  0  0  0
    0.8641    0.8891    1.4133 H   0  0  0  0  0  0  0  0  0  0  0  0
    0.3679    1.8455    0.0120 H   0  0  0  0  0  0  0  0  0  0  0  0
    1.5566   -2.2689   -0.6555 H   0  0  0  0  0  0  0  0  0  0  0  0
    1.6440   -1.6490    0.9921 H   0  0  0  0  0  0  0  0  0  0  0  0
    2.6458    2.3969    0.6779 H   0  0  0  0  0  0  0  0  0  0  0  0
    2.5521    1.7877   -0.9729 H   0  0  0  0  0  0  0  0  0  0  0  0
    3.3210   -0.7379   -1.3945 H   0  0  0  0  0  0  0  0  0  0  0  0
    3.8811   -1.6563    0.0011 H   0  0  0  0  0  0  0  0  0  0  0  0
    4.4722    0.7691    0.1605 H   0  0  0  0  0  0  0  0  0  0  0  0
    3.4589    0.2365    1.5002 H   0  0  0  0  0  0  0  0  0  0  0  0
   -0.8169   -1.6191   -0.5814 H   0  0  0  0  0  0  0  0  0  0  0  0
   -1.5009    1.1867    0.0893 H   0  0  0  0  0  0  0  0  0  0  0  0
   -1.5413    0.5038   -1.5311 H   0  0  0  0  0  0  0  0  0  0  0  0
   -3.2748   -1.1207   -0.7643 H   0  0  0  0  0  0  0  0  0  0  0  0
   -4.3558   -0.7491    1.4604 H   0  0  0  0  0  0  0  0  0  0  0  0
   -3.0986    0.3949    1.9035 H   0  0  0  0  0  0  0  0  0  0  0  0
   -2.6890   -1.3198    1.6700 H   0  0  0  0  0  0  0  0  0  0  0  0
   -3.7754    1.5952   -0.0739 H   0  0  0  0  0  0  0  0  0  0  0  0
  1 10  1  0  0  0  0
  1 30  1  0  0  0  0
  2  3  1  0  0  0  0
  2  9  1  0  0  0  0
  2 23  1  0  0  0  0
  3  4  1  0  0  0  0
  3  5  1  0  0  0  0
  3 12  1  0  0  0  0
  4  6  1  0  0  0  0
  4 13  1  0  0  0  0
  4 14  1  0  0  0  0
  5  7  1  0  0  0  0
  5 15  1  0  0  0  0
  5 16  1  0  0  0  0
  6  8  1  0  0  0  0
  6 17  1  0  0  0  0
  6 18  1  0  0  0  0
  7  8  1  0  0  0  0
  7 19  1  0  0  0  0
  7 20  1  0  0  0  0
  8 21  1  0  0  0  0
  8 22  1  0  0  0  0
  9 10  1  0  0  0  0
  9 24  1  0  0  0  0
  9 25  1  0  0  0  0
 10 11  1  0  0  0  0
 10 26  1  0  0  0  0
 11 27  1  0  0  0  0
 11 28  1  0  0  0  0
 11 29  1  0  0  0  0
M  END
> <PUBCHEM_COMPOUND_CID>
7630

> <PUBCHEM_CONFORMER_RMSD>
0.6

> <PUBCHEM_CONFORMER_DIVERSEORDER>
1
35
29
30
26
20
33
8
31
11
17
27
18
34
15
23
3
5
19
32
14
22
13
9
16
25
6
10
12
21
24
7
4
28
2

> <PUBCHEM_MMFF94_PARTIAL_CHARGES>
7
1 -0.68
10 0.28
2 -0.9
23 0.36
3 0.27
30 0.4
9 0.27

> <PUBCHEM_EFFECTIVE_ROTOR_COUNT>
4.2

> <PUBCHEM_PHARMACOPHORE_FEATURES>
5
1 1 acceptor
1 1 donor
1 2 cation
1 2 donor
6 3 4 5 6 7 8 rings

> <PUBCHEM_HEAVY_ATOM_COUNT>
11

> <PUBCHEM_ATOM_DEF_STEREO_COUNT>
0

> <PUBCHEM_ATOM_UDEF_STEREO_COUNT>
1

> <PUBCHEM_BOND_DEF_STEREO_COUNT>
0

> <PUBCHEM_BOND_UDEF_STEREO_COUNT>
0

> <PUBCHEM_ISOTOPIC_ATOM_COUNT>
0

> <PUBCHEM_COMPONENT_COUNT>
1

> <PUBCHEM_CACTVS_TAUTO_COUNT>
1

> <PUBCHEM_CONFORMER_ID>
00001DCE00000001

> <PUBCHEM_MMFF94_ENERGY>
3.096

> <PUBCHEM_FEATURE_SELFOVERLAP>
25.371

> <PUBCHEM_SHAPE_FINGERPRINT>
10219947 1 18040716991256776414
10608611 8 18341899580008347613
10857977 72 17489867111917715719
10980938 120 18333733507296275422
11062470 55 14562530669656958002
11471102 20 18335425677118766996
124424 183 18272377498401489611
12500047 106 17561089128784845963
12932764 1 18413670210069660167
13922767 16 18408329894994089760
14144814 61 17821726139313321155
14251717 144 18260835903275196558
14325111 11 18409732828849687087
15219456 202 18343018874149623587
15775835 57 18040999496809379708
17844478 74 18273212006204889869
18186145 218 18186511107596902767
190213 19 17530684303276187023
20201158 50 18412545435296419531
20279233 1 18202565077269731491
20606313 2 18335144189283658060
20645477 70 18335426823675030023
20715346 28 18201998811538117695
20871998 22 17898285263385164614
23402655 69 18259992590915732589
3248919 1 17275102808478366535

> <PUBCHEM_SHAPE_MULTIPOLES>
215.52
6.98
1.31
0.86
3.97
0.09
-0.17
0.45
-0.53
-0.91
0
0.57
-0.03
0.52

> <PUBCHEM_SHAPE_SELFOVERLAP>
409.495

> <PUBCHEM_SHAPE_VOLUME>
132.4

> <PUBCHEM_COORDINATE_TYPE>
2
5
10

$$$$

