11954038
  -OEChem-07051213053D

 89 92  0     1  0  0  0  0  0999 V2000
    0.5528    3.0148   -1.6749 O   0  0  0  0  0  0  0  0  0  0  0  0
   -1.7761    4.6619    0.1134 O   0  0  0  0  0  0  0  0  0  0  0  0
    2.8287    1.5013   -1.2562 O   0  0  0  0  0  0  0  0  0  0  0  0
   -4.3441    4.1464    0.8946 O   0  0  0  0  0  0  0  0  0  0  0  0
   -5.2400    0.0812   -1.1703 O   0  0  0  0  0  0  0  0  0  0  0  0
   -4.6108   -1.9243    0.0852 O   0  0  0  0  0  0  0  0  0  0  0  0
   -2.9019   -0.6258   -2.7202 O   0  0  0  0  0  0  0  0  0  0  0  0
   -1.0131   -3.5357    2.7782 O   0  0  0  0  0  0  0  0  0  0  0  0
   -0.4490   -0.9064   -2.7143 O   0  0  0  0  0  0  0  0  0  0  0  0
    1.3736   -3.2370    1.9300 O   0  0  0  0  0  0  0  0  0  0  0  0
    4.1932   -1.7183   -1.8871 O   0  0  0  0  0  0  0  0  0  0  0  0
    3.1451   -2.4274    0.0996 N   0  0  0  0  0  0  0  0  0  0  0  0
    0.0622    3.2085    0.7090 C   0  0  2  0  0  0  0  0  0  0  0  0
    0.9131    3.7301   -0.4919 C   0  0  1  0  0  0  0  0  0  0  0  0
    2.4610    3.6852   -0.2882 C   0  0  1  0  0  0  0  0  0  0  0  0
   -1.4668    3.2941    0.3919 C   0  0  1  0  0  0  0  0  0  0  0  0
   -2.4253    2.7577    1.4982 C   0  0  1  0  0  0  0  0  0  0  0  0
    3.0172    2.2516   -0.0512 C   0  0  2  0  0  0  0  0  0  0  0  0
    0.4184    3.9578    2.0005 C   0  0  0  0  0  0  0  0  0  0  0  0
    4.5148    2.1835    0.3533 C   0  0  1  0  0  0  0  0  0  0  0  0
    3.1476    4.3663   -1.4860 C   0  0  0  0  0  0  0  0  0  0  0  0
   -3.9324    2.7950    1.1021 C   0  0  2  0  0  0  0  0  0  0  0  0
   -2.0371    1.3469    1.9573 C   0  0  0  0  0  0  0  0  0  0  0  0
    4.8319    3.0132    1.5984 C   0  0  0  0  0  0  0  0  0  0  0  0
    4.8994    0.7417    0.6209 C   0  0  0  0  0  0  0  0  0  0  0  0
   -4.2823    1.9882   -0.1171 C   0  0  0  0  0  0  0  0  0  0  0  0
   -4.6729   -1.2338   -1.1862 C   0  0  2  0  0  0  0  0  0  0  0  0
   -4.9182    0.8128   -0.0604 C   0  0  0  0  0  0  0  0  0  0  0  0
    5.9433    0.1267    0.0431 C   0  0  0  0  0  0  0  0  0  0  0  0
   -2.4040   -1.7568   -0.6630 C   0  0  0  0  0  0  0  0  0  0  0  0
   -3.2394   -1.1487   -1.6765 C   0  0  0  0  0  0  0  0  0  0  0  0
   -3.2817   -2.1723    0.3223 C   0  0  0  0  0  0  0  0  0  0  0  0
   -1.0168   -1.9079   -0.5593 C   0  0  0  0  0  0  0  0  0  0  0  0
   -2.8195   -2.7749    1.4732 C   0  0  0  0  0  0  0  0  0  0  0  0
   -0.5314   -2.5127    0.6240 C   0  0  0  0  0  0  0  0  0  0  0  0
   -5.5018   -2.0859   -2.1417 C   0  0  0  0  0  0  0  0  0  0  0  0
    6.2830   -1.2634    0.2581 C   0  0  0  0  0  0  0  0  0  0  0  0
   -1.4400   -2.9415    1.6206 C   0  0  0  0  0  0  0  0  0  0  0  0
   -0.0933   -1.4912   -1.5367 C   0  0  0  0  0  0  0  0  0  0  0  0
    0.8559   -2.6688    0.7944 C   0  0  0  0  0  0  0  0  0  0  0  0
    1.7695   -2.2477   -0.1837 C   0  0  0  0  0  0  0  0  0  0  0  0
    5.5222   -2.3311   -0.0432 C   0  0  0  0  0  0  0  0  0  0  0  0
   -3.7729   -3.2187    2.5311 C   0  0  0  0  0  0  0  0  0  0  0  0
    1.2816   -1.6635   -1.3519 C   0  0  0  0  0  0  0  0  0  0  0  0
    4.2125   -2.1236   -0.7302 C   0  0  0  0  0  0  0  0  0  0  0  0
    5.9439   -3.7475    0.1911 C   0  0  0  0  0  0  0  0  0  0  0  0
    0.2917    2.1459    0.8448 H   0  0  0  0  0  0  0  0  0  0  0  0
    0.6491    4.7812   -0.6697 H   0  0  0  0  0  0  0  0  0  0  0  0
    2.6852    4.3011    0.5880 H   0  0  0  0  0  0  0  0  0  0  0  0
   -1.6599    2.7291   -0.5255 H   0  0  0  0  0  0  0  0  0  0  0  0
   -2.3401    3.4284    2.3636 H   0  0  0  0  0  0  0  0  0  0  0  0
    2.4332    1.7567    0.7331 H   0  0  0  0  0  0  0  0  0  0  0  0
    0.3175    5.0410    1.8783 H   0  0  0  0  0  0  0  0  0  0  0  0
   -0.2090    3.6506    2.8409 H   0  0  0  0  0  0  0  0  0  0  0  0
    1.4485    3.7482    2.3047 H   0  0  0  0  0  0  0  0  0  0  0  0
    5.1273    2.5511   -0.4797 H   0  0  0  0  0  0  0  0  0  0  0  0
    3.0024    3.8088   -2.4168 H   0  0  0  0  0  0  0  0  0  0  0  0
    2.7470    5.3749   -1.6358 H   0  0  0  0  0  0  0  0  0  0  0  0
    4.2235    4.4720   -1.3180 H   0  0  0  0  0  0  0  0  0  0  0  0
   -4.5217    2.4327    1.9548 H   0  0  0  0  0  0  0  0  0  0  0  0
   -1.9422    0.6663    1.1073 H   0  0  0  0  0  0  0  0  0  0  0  0
   -2.7840    0.9353    2.6446 H   0  0  0  0  0  0  0  0  0  0  0  0
   -1.0828    1.3499    2.4925 H   0  0  0  0  0  0  0  0  0  0  0  0
   -0.2764    3.3946   -2.0110 H   0  0  0  0  0  0  0  0  0  0  0  0
   -1.7641    5.1519    0.9526 H   0  0  0  0  0  0  0  0  0  0  0  0
    5.8607    2.8418    1.9359 H   0  0  0  0  0  0  0  0  0  0  0  0
    4.1608    2.7635    2.4279 H   0  0  0  0  0  0  0  0  0  0  0  0
    4.7394    4.0844    1.3955 H   0  0  0  0  0  0  0  0  0  0  0  0
    1.8719    1.4239   -1.4088 H   0  0  0  0  0  0  0  0  0  0  0  0
    4.2658    0.1893    1.3126 H   0  0  0  0  0  0  0  0  0  0  0  0
   -3.9949    2.3850   -1.0875 H   0  0  0  0  0  0  0  0  0  0  0  0
   -4.1569    4.6401    1.7111 H   0  0  0  0  0  0  0  0  0  0  0  0
   -5.2405    0.3533    0.8631 H   0  0  0  0  0  0  0  0  0  0  0  0
    6.6108    0.6788   -0.6122 H   0  0  0  0  0  0  0  0  0  0  0  0
   -5.5614   -1.6301   -3.1360 H   0  0  0  0  0  0  0  0  0  0  0  0
   -6.5265   -2.1883   -1.7669 H   0  0  0  0  0  0  0  0  0  0  0  0
   -5.0887   -3.0955   -2.2431 H   0  0  0  0  0  0  0  0  0  0  0  0
    7.2733   -1.4216    0.6796 H   0  0  0  0  0  0  0  0  0  0  0  0
   -4.8179   -3.1206    2.2192 H   0  0  0  0  0  0  0  0  0  0  0  0
   -3.6232   -4.2771    2.7709 H   0  0  0  0  0  0  0  0  0  0  0  0
   -3.6504   -2.6141    3.4360 H   0  0  0  0  0  0  0  0  0  0  0  0
    1.9538   -1.3181   -2.1289 H   0  0  0  0  0  0  0  0  0  0  0  0
    3.3505   -2.8070    1.0216 H   0  0  0  0  0  0  0  0  0  0  0  0
   -1.7122   -3.5785    3.4476 H   0  0  0  0  0  0  0  0  0  0  0  0
    6.9726   -3.8100    0.5615 H   0  0  0  0  0  0  0  0  0  0  0  0
    5.8920   -4.3207   -0.7404 H   0  0  0  0  0  0  0  0  0  0  0  0
    5.2941   -4.2273    0.9297 H   0  0  0  0  0  0  0  0  0  0  0  0
    0.3397   -0.6933   -3.2408 H   0  0  0  0  0  0  0  0  0  0  0  0
    0.7105   -3.2638    2.6356 H   0  0  0  0  0  0  0  0  0  0  0  0
  1 14  1  0  0  0  0
  1 64  1  0  0  0  0
  2 16  1  0  0  0  0
  2 65  1  0  0  0  0
  3 18  1  0  0  0  0
  3 69  1  0  0  0  0
  4 22  1  0  0  0  0
  4 72  1  0  0  0  0
  5 27  1  0  0  0  0
  5 28  1  0  0  0  0
  6 27  1  0  0  0  0
  6 32  1  0  0  0  0
  7 31  2  0  0  0  0
  8 38  1  0  0  0  0
  8 84  1  0  0  0  0
  9 39  1  0  0  0  0
  9 88  1  0  0  0  0
 10 40  1  0  0  0  0
 10 89  1  0  0  0  0
 11 45  2  0  0  0  0
 12 41  1  0  0  0  0
 12 45  1  0  0  0  0
 12 83  1  0  0  0  0
 13 14  1  0  0  0  0
 13 16  1  0  0  0  0
 13 19  1  0  0  0  0
 13 47  1  0  0  0  0
 14 15  1  0  0  0  0
 14 48  1  0  0  0  0
 15 18  1  0  0  0  0
 15 21  1  0  0  0  0
 15 49  1  0  0  0  0
 16 17  1  0  0  0  0
 16 50  1  0  0  0  0
 17 22  1  0  0  0  0
 17 23  1  0  0  0  0
 17 51  1  0  0  0  0
 18 20  1  0  0  0  0
 18 52  1  0  0  0  0
 19 53  1  0  0  0  0
 19 54  1  0  0  0  0
 19 55  1  0  0  0  0
 20 24  1  0  0  0  0
 20 25  1  0  0  0  0
 20 56  1  0  0  0  0
 21 57  1  0  0  0  0
 21 58  1  0  0  0  0
 21 59  1  0  0  0  0
 22 26  1  0  0  0  0
 22 60  1  0  0  0  0
 23 61  1  0  0  0  0
 23 62  1  0  0  0  0
 23 63  1  0  0  0  0
 24 66  1  0  0  0  0
 24 67  1  0  0  0  0
 24 68  1  0  0  0  0
 25 29  2  0  0  0  0
 25 70  1  0  0  0  0
 26 28  2  0  0  0  0
 26 71  1  0  0  0  0
 27 31  1  0  0  0  0
 27 36  1  0  0  0  0
 28 73  1  0  0  0  0
 29 37  1  0  0  0  0
 29 74  1  0  0  0  0
 30 31  1  0  0  0  0
 30 32  2  0  0  0  0
 30 33  1  0  0  0  0
 32 34  1  0  0  0  0
 33 35  1  0  0  0  0
 33 39  2  0  0  0  0
 34 38  2  0  0  0  0
 34 43  1  0  0  0  0
 35 38  1  0  0  0  0
 35 40  2  0  0  0  0
 36 75  1  0  0  0  0
 36 76  1  0  0  0  0
 36 77  1  0  0  0  0
 37 42  2  0  0  0  0
 37 78  1  0  0  0  0
 39 44  1  0  0  0  0
 40 41  1  0  0  0  0
 41 44  2  0  0  0  0
 42 45  1  0  0  0  0
 42 46  1  0  0  0  0
 43 79  1  0  0  0  0
 43 80  1  0  0  0  0
 43 81  1  0  0  0  0
 44 82  1  0  0  0  0
 46 85  1  0  0  0  0
 46 86  1  0  0  0  0
 46 87  1  0  0  0  0
M  END
> <PUBCHEM_COMPOUND_CID>
11954038

> <PUBCHEM_CONFORMER_RMSD>
0.8

> <PUBCHEM_CONFORMER_DIVERSEORDER>
1
2

> <PUBCHEM_MMFF94_PARTIAL_CHARGES>
50
1 -0.68
10 -0.53
11 -0.57
12 -0.55
14 0.28
16 0.28
18 0.28
2 -0.68
20 0.14
22 0.42
25 -0.29
26 -0.29
27 0.62
28 -0.07
29 -0.15
3 -0.68
30 0.09
31 0.42
32 0.08
34 -0.14
37 -0.15
38 0.08
39 0.08
4 -0.68
40 0.08
41 0.12
42 -0.12
43 0.14
44 -0.15
45 0.62
46 0.14
5 -0.36
6 -0.36
64 0.4
65 0.4
69 0.4
7 -0.57
70 0.15
71 0.15
72 0.4
73 0.15
74 0.15
78 0.15
8 -0.53
82 0.15
83 0.37
84 0.45
88 0.45
89 0.45
9 -0.53

> <PUBCHEM_EFFECTIVE_ROTOR_COUNT>
2.2

> <PUBCHEM_PHARMACOPHORE_FEATURES>
19
1 1 acceptor
1 1 donor
1 10 donor
1 11 acceptor
1 12 donor
1 2 acceptor
1 2 donor
1 3 acceptor
1 3 donor
1 4 acceptor
1 4 donor
1 5 acceptor
1 6 acceptor
1 7 acceptor
1 8 donor
1 9 donor
5 6 27 30 31 32 rings
6 30 32 33 34 35 38 rings
6 33 35 39 40 41 44 rings

> <PUBCHEM_HEAVY_ATOM_COUNT>
46

> <PUBCHEM_ATOM_DEF_STEREO_COUNT>
8

> <PUBCHEM_ATOM_UDEF_STEREO_COUNT>
1

> <PUBCHEM_BOND_DEF_STEREO_COUNT>
3

> <PUBCHEM_BOND_UDEF_STEREO_COUNT>
0

> <PUBCHEM_ISOTOPIC_ATOM_COUNT>
0

> <PUBCHEM_COMPONENT_COUNT>
1

> <PUBCHEM_CACTVS_TAUTO_COUNT>
113

> <PUBCHEM_CONFORMER_ID>
00B6677600000001

> <PUBCHEM_MMFF94_ENERGY>
155.575

> <PUBCHEM_FEATURE_SELFOVERLAP>
96.606

> <PUBCHEM_SHAPE_FINGERPRINT>
10190206 1 17983828153338105420
10305334 12 18117274968261167069
10794284 68 15317442571741049475
10864689 126 17327168257603832100
1100329 8 18267577077758174444
11513181 2 18040713667031211374
12107698 1 18334018306351339911
12128747 34 18127131879254752446
13347071 3 18260267494919417252
140371 6 18268710516007770328
14040221 178 16090596930863511731
14295345 954 18116149051132212286
15001296 14 18335143124047781840
150020 26 17766840528931294100
15264996 142 17978767319514512162
15297060 5 17314512732701825315
15351339 4 18339373984429475881
15781502 13 16197030420836414019
15968369 153 18041007241410945776
16067690 210 18263927802949977826
20764821 26 18340466924836520392
21133410 62 17700133489397817173
22122407 14 18334012796224757882
3493558 16 18260824938360657770
354706 35 16966343192989930445
373842 8 18410008801963008416
392239 28 18194398025094476604
437795 70 18045200877496221606
463206 1 18336256959233449136
469060 322 17702944880542378564
50677037 204 18192432093855889856

> <PUBCHEM_SHAPE_MULTIPOLES>
877.11
12.73
7.19
2.24
7.92
5.6
0.01
-4.05
-1.22
1.62
2.33
-1.92
-0.96
-0.4

> <PUBCHEM_SHAPE_SELFOVERLAP>
1875.377

> <PUBCHEM_SHAPE_VOLUME>
486.8

> <PUBCHEM_COORDINATE_TYPE>
2
5
10

$$$$

