5281437
  -OEChem-07051212573D

 37 38  0     1  0  0  0  0  0999 V2000
    1.8975    1.5080    0.0357 O   0  0  0  0  0  0  0  0  0  0  0  0
    4.1815    1.2660    0.1044 O   0  0  0  0  0  0  0  0  0  0  0  0
    1.2093   -0.7442    0.3501 C   0  0  1  0  0  0  0  0  0  0  0  0
    0.7884    0.6275   -0.2150 C   0  0  1  0  0  0  0  0  0  0  0  0
    0.5103   -1.9818   -0.2642 C   0  0  0  0  0  0  0  0  0  0  0  0
    2.6857   -0.6350    0.1025 C   0  0  0  0  0  0  0  0  0  0  0  0
   -0.8457   -2.3933    0.3609 C   0  0  0  0  0  0  0  0  0  0  0  0
   -0.4182    1.1901    0.4739 C   0  0  0  0  0  0  0  0  0  0  0  0
   -2.0321   -1.5397   -0.0330 C   0  0  0  0  0  0  0  0  0  0  0  0
   -1.5347    1.6820   -0.1016 C   0  0  0  0  0  0  0  0  0  0  0  0
    3.0585    0.7961    0.0737 C   0  0  0  0  0  0  0  0  0  0  0  0
   -2.8106    1.7239    0.7262 C   0  0  0  0  0  0  0  0  0  0  0  0
   -3.5815    0.3816    0.6312 C   0  0  0  0  0  0  0  0  0  0  0  0
   -2.6551   -0.7833    0.8955 C   0  0  0  0  0  0  0  0  0  0  0  0
    3.6134   -1.5761   -0.0939 C   0  0  0  0  0  0  0  0  0  0  0  0
   -2.3821   -1.5639   -1.4959 C   0  0  0  0  0  0  0  0  0  0  0  0
   -1.6845    2.0422   -1.5506 C   0  0  0  0  0  0  0  0  0  0  0  0
    1.0798   -0.7687    1.4414 H   0  0  0  0  0  0  0  0  0  0  0  0
    0.6496    0.5702   -1.3006 H   0  0  0  0  0  0  0  0  0  0  0  0
    1.1599   -2.8541   -0.1206 H   0  0  0  0  0  0  0  0  0  0  0  0
    0.4181   -1.8623   -1.3501 H   0  0  0  0  0  0  0  0  0  0  0  0
   -0.7313   -2.4306    1.4518 H   0  0  0  0  0  0  0  0  0  0  0  0
   -1.0653   -3.4249    0.0551 H   0  0  0  0  0  0  0  0  0  0  0  0
   -0.4399    1.0159    1.5500 H   0  0  0  0  0  0  0  0  0  0  0  0
   -2.5724    1.9294    1.7785 H   0  0  0  0  0  0  0  0  0  0  0  0
   -3.4534    2.5488    0.3970 H   0  0  0  0  0  0  0  0  0  0  0  0
   -4.0659    0.3088   -0.3466 H   0  0  0  0  0  0  0  0  0  0  0  0
   -4.3888    0.3712    1.3725 H   0  0  0  0  0  0  0  0  0  0  0  0
   -2.3323   -0.8678    1.9327 H   0  0  0  0  0  0  0  0  0  0  0  0
    3.3665   -2.6310   -0.0761 H   0  0  0  0  0  0  0  0  0  0  0  0
    4.6536   -1.3230   -0.2719 H   0  0  0  0  0  0  0  0  0  0  0  0
   -2.4331   -2.5993   -1.8506 H   0  0  0  0  0  0  0  0  0  0  0  0
   -1.6275   -1.0372   -2.0869 H   0  0  0  0  0  0  0  0  0  0  0  0
   -3.3548   -1.1170   -1.7127 H   0  0  0  0  0  0  0  0  0  0  0  0
   -2.3916    1.3732   -2.0489 H   0  0  0  0  0  0  0  0  0  0  0  0
   -0.7399    2.0095   -2.0990 H   0  0  0  0  0  0  0  0  0  0  0  0
   -2.0653    3.0655   -1.6386 H   0  0  0  0  0  0  0  0  0  0  0  0
  1  4  1  0  0  0  0
  1 11  1  0  0  0  0
  2 11  2  0  0  0  0
  3  4  1  0  0  0  0
  3  5  1  0  0  0  0
  3  6  1  0  0  0  0
  3 18  1  0  0  0  0
  4  8  1  0  0  0  0
  4 19  1  0  0  0  0
  5  7  1  0  0  0  0
  5 20  1  0  0  0  0
  5 21  1  0  0  0  0
  6 11  1  0  0  0  0
  6 15  2  0  0  0  0
  7  9  1  0  0  0  0
  7 22  1  0  0  0  0
  7 23  1  0  0  0  0
  8 10  2  0  0  0  0
  8 24  1  0  0  0  0
  9 14  2  0  0  0  0
  9 16  1  0  0  0  0
 10 12  1  0  0  0  0
 10 17  1  0  0  0  0
 12 13  1  0  0  0  0
 12 25  1  0  0  0  0
 12 26  1  0  0  0  0
 13 14  1  0  0  0  0
 13 27  1  0  0  0  0
 13 28  1  0  0  0  0
 14 29  1  0  0  0  0
 15 30  1  0  0  0  0
 15 31  1  0  0  0  0
 16 32  1  0  0  0  0
 16 33  1  0  0  0  0
 16 34  1  0  0  0  0
 17 35  1  0  0  0  0
 17 36  1  0  0  0  0
 17 37  1  0  0  0  0
M  END
> <PUBCHEM_COMPOUND_CID>
5281437

> <PUBCHEM_CONFORMER_RMSD>
0.6

> <PUBCHEM_CONFORMER_DIVERSEORDER>
1
4
3
2

> <PUBCHEM_MMFF94_PARTIAL_CHARGES>
20
1 -0.43
10 -0.28
11 0.71
12 0.14
13 0.14
14 -0.29
15 -0.3
16 0.14
17 0.14
2 -0.57
24 0.15
29 0.15
3 0.14
30 0.15
31 0.15
4 0.42
6 -0.12
7 0.14
8 -0.29
9 -0.28

> <PUBCHEM_EFFECTIVE_ROTOR_COUNT>
1

> <PUBCHEM_PHARMACOPHORE_FEATURES>
2
1 2 acceptor
5 1 3 4 6 11 rings

> <PUBCHEM_HEAVY_ATOM_COUNT>
17

> <PUBCHEM_ATOM_DEF_STEREO_COUNT>
2

> <PUBCHEM_ATOM_UDEF_STEREO_COUNT>
0

> <PUBCHEM_BOND_DEF_STEREO_COUNT>
2

> <PUBCHEM_BOND_UDEF_STEREO_COUNT>
0

> <PUBCHEM_ISOTOPIC_ATOM_COUNT>
0

> <PUBCHEM_COMPONENT_COUNT>
1

> <PUBCHEM_CACTVS_TAUTO_COUNT>
1

> <PUBCHEM_CONFORMER_ID>
0050969D00000001

> <PUBCHEM_MMFF94_ENERGY>
40.5531

> <PUBCHEM_FEATURE_SELFOVERLAP>
10.148

> <PUBCHEM_SHAPE_FINGERPRINT>
10922523 26 18335414707693476974
10967382 1 18410289228930509274
11132069 177 18408606950364959576
12011746 2 18268987764499109799
12403814 3 18202002135822089057
13140716 1 18338802333304582570
13221675 6 18412822499357574027
14251745 187 18335991865198019834
14614273 12 18343025514390732853
14817 1 14010823691166167925
15196674 1 18410289224873016339
15309172 13 18264479766751563561
15442244 35 18410293648905875330
15775835 57 18334570235449808283
16945 1 18193274083544748594
18186145 218 18336263565298740812
20261772 1 18335689534261163379
20510252 161 18261386754427077617
20525323 117 18336550434274171418
21160774 45 18340775844875473765
21501502 16 18408606954960723878
2334 1 18411141329236211432
23402539 116 18190749626491640191
23419403 2 16165320535534726129
23463225 33 18412820291760006698
23559900 14 18189054369373581206
238 59 17335373861289524269
2748010 2 18411420656729287140
353137 74 18271537398376999674
5104073 3 18410288137961344283
69090 78 18409730703041465641
81228 2 18268720410921213643
8272917 22 17541094707603318649
8809292 202 18342448287781572330
9709674 26 18335977584875209758

> <PUBCHEM_SHAPE_MULTIPOLES>
338.11
6.12
2.66
1.03
3.79
0.4
0.34
-0.85
-0.58
-0.67
0.36
-0.86
-0.07
-0.04

> <PUBCHEM_SHAPE_SELFOVERLAP>
695.278

> <PUBCHEM_SHAPE_VOLUME>
194.6

> <PUBCHEM_COORDINATE_TYPE>
2
5
10

$$$$

