13989
  -OEChem-06241222412D

 53 56  0     0  0  0  0  0  0999 V2000
    8.3876    2.1079    0.0000 Cl  0  0  0  0  0  0  0  0  0  0  0  0
    6.8528    2.7967    0.0000 F   0  0  0  0  0  0  0  0  0  0  0  0
    3.3432   -0.5991    0.0000 O   0  0  0  0  0  0  0  0  0  0  0  0
    3.9206   -3.3500    0.0000 N   0  0  0  0  0  0  0  0  0  0  0  0
    2.4545   -4.7103    0.0000 N   0  0  0  0  0  0  0  0  0  0  0  0
    4.9417   -0.0398    0.0000 N   0  0  0  0  0  0  0  0  0  0  0  0
    3.9667    1.9847    0.0000 N   0  0  0  0  0  0  0  0  0  0  0  0
    4.6536   -2.6698    0.0000 C   0  0  0  0  0  0  0  0  0  0  0  0
    2.9650   -3.0552    0.0000 C   0  0  0  0  0  0  0  0  0  0  0  0
    4.1431   -4.3249    0.0000 C   0  0  0  0  0  0  0  0  0  0  0  0
    4.4311   -1.6949    0.0000 C   0  0  0  0  0  0  0  0  0  0  0  0
    3.4101   -5.0051    0.0000 C   0  0  0  0  0  0  0  0  0  0  0  0
    2.2320   -3.7354    0.0000 C   0  0  0  0  0  0  0  0  0  0  0  0
    5.1642   -1.0147    0.0000 C   0  0  0  0  0  0  0  0  0  0  0  0
    5.7235    0.5837    0.0000 C   0  0  0  0  0  0  0  0  0  0  0  0
    3.9667    0.1828    0.0000 C   0  0  0  0  0  0  0  0  0  0  0  0
    5.7235    1.5837    0.0000 C   0  0  0  0  0  0  0  0  0  0  0  0
    3.5328    1.0837    0.0000 C   0  0  0  0  0  0  0  0  0  0  0  0
    4.9417    2.2072    0.0000 C   0  0  0  0  0  0  0  0  0  0  0  0
    6.6174    0.0491    0.0000 C   0  0  0  0  0  0  0  0  0  0  0  0
    6.6174    2.1184    0.0000 C   0  0  0  0  0  0  0  0  0  0  0  0
    5.1642    3.1822    0.0000 C   0  0  0  0  0  0  0  0  0  0  0  0
    7.5235    0.5629    0.0000 C   0  0  0  0  0  0  0  0  0  0  0  0
    7.5235    1.6046    0.0000 C   0  0  0  0  0  0  0  0  0  0  0  0
    6.1198    3.4769    0.0000 C   0  0  0  0  0  0  0  0  0  0  0  0
    4.4311    3.8623    0.0000 C   0  0  0  0  0  0  0  0  0  0  0  0
    6.3423    4.4518    0.0000 C   0  0  0  0  0  0  0  0  0  0  0  0
    4.6536    4.8372    0.0000 C   0  0  0  0  0  0  0  0  0  0  0  0
    5.6092    5.1320    0.0000 C   0  0  0  0  0  0  0  0  0  0  0  0
    4.9900   -3.1906    0.0000 H   0  0  0  0  0  0  0  0  0  0  0  0
    5.2250   -2.4290    0.0000 H   0  0  0  0  0  0  0  0  0  0  0  0
    4.4795   -4.8457    0.0000 H   0  0  0  0  0  0  0  0  0  0  0  0
    4.7144   -4.0841    0.0000 H   0  0  0  0  0  0  0  0  0  0  0  0
    3.2479   -2.5035    0.0000 H   0  0  0  0  0  0  0  0  0  0  0  0
    2.4708   -2.6808    0.0000 H   0  0  0  0  0  0  0  0  0  0  0  0
    4.0948   -1.1740    0.0000 H   0  0  0  0  0  0  0  0  0  0  0  0
    3.8598   -1.9357    0.0000 H   0  0  0  0  0  0  0  0  0  0  0  0
    3.1272   -5.5568    0.0000 H   0  0  0  0  0  0  0  0  0  0  0  0
    3.9043   -5.3794    0.0000 H   0  0  0  0  0  0  0  0  0  0  0  0
    1.8956   -3.2146    0.0000 H   0  0  0  0  0  0  0  0  0  0  0  0
    1.6607   -3.9762    0.0000 H   0  0  0  0  0  0  0  0  0  0  0  0
    5.5006   -1.5355    0.0000 H   0  0  0  0  0  0  0  0  0  0  0  0
    5.7355   -0.7739    0.0000 H   0  0  0  0  0  0  0  0  0  0  0  0
    2.0000   -5.1320    0.0000 H   0  0  0  0  0  0  0  0  0  0  0  0
    3.0481    1.4703    0.0000 H   0  0  0  0  0  0  0  0  0  0  0  0
    3.0481    0.6972    0.0000 H   0  0  0  0  0  0  0  0  0  0  0  0
    6.6103   -0.5709    0.0000 H   0  0  0  0  0  0  0  0  0  0  0  0
    6.6103    2.7384    0.0000 H   0  0  0  0  0  0  0  0  0  0  0  0
    8.0592    0.2509    0.0000 H   0  0  0  0  0  0  0  0  0  0  0  0
    3.8387    3.6796    0.0000 H   0  0  0  0  0  0  0  0  0  0  0  0
    6.9347    4.6346    0.0000 H   0  0  0  0  0  0  0  0  0  0  0  0
    4.1992    5.2590    0.0000 H   0  0  0  0  0  0  0  0  0  0  0  0
    5.7472    5.7365    0.0000 H   0  0  0  0  0  0  0  0  0  0  0  0
  1 24  1  0  0  0  0
  2 25  1  0  0  0  0
  3 16  2  0  0  0  0
  4  8  1  0  0  0  0
  4  9  1  0  0  0  0
  4 10  1  0  0  0  0
  5 12  1  0  0  0  0
  5 13  1  0  0  0  0
  5 44  1  0  0  0  0
  6 14  1  0  0  0  0
  6 15  1  0  0  0  0
  6 16  1  0  0  0  0
  7 18  1  0  0  0  0
  7 19  2  0  0  0  0
  8 11  1  0  0  0  0
  8 30  1  0  0  0  0
  8 31  1  0  0  0  0
  9 13  1  0  0  0  0
  9 34  1  0  0  0  0
  9 35  1  0  0  0  0
 10 12  1  0  0  0  0
 10 32  1  0  0  0  0
 10 33  1  0  0  0  0
 11 14  1  0  0  0  0
 11 36  1  0  0  0  0
 11 37  1  0  0  0  0
 12 38  1  0  0  0  0
 12 39  1  0  0  0  0
 13 40  1  0  0  0  0
 13 41  1  0  0  0  0
 14 42  1  0  0  0  0
 14 43  1  0  0  0  0
 15 17  2  0  0  0  0
 15 20  1  0  0  0  0
 16 18  1  0  0  0  0
 17 19  1  0  0  0  0
 17 21  1  0  0  0  0
 18 45  1  0  0  0  0
 18 46  1  0  0  0  0
 19 22  1  0  0  0  0
 20 23  2  0  0  0  0
 20 47  1  0  0  0  0
 21 24  2  0  0  0  0
 21 48  1  0  0  0  0
 22 25  1  0  0  0  0
 22 26  2  0  0  0  0
 23 24  1  0  0  0  0
 23 49  1  0  0  0  0
 25 27  2  0  0  0  0
 26 28  1  0  0  0  0
 26 50  1  0  0  0  0
 27 29  1  0  0  0  0
 27 51  1  0  0  0  0
 28 29  2  0  0  0  0
 28 52  1  0  0  0  0
 29 53  1  0  0  0  0
M  END
> <PUBCHEM_COMPOUND_CID>
13989

> <PUBCHEM_COMPOUND_CANONICALIZED>
1

> <PUBCHEM_CACTVS_COMPLEXITY>
597

> <PUBCHEM_CACTVS_HBOND_ACCEPTOR>
5

> <PUBCHEM_CACTVS_HBOND_DONOR>
1

> <PUBCHEM_CACTVS_ROTATABLE_BOND>
5

> <PUBCHEM_CACTVS_SUBSKEYS>
AAADceB7oQAEAAAAAAAAAAAAAAAAAAAAAAA8YIAABAAAAAABQAAAHwIQAAAADArBmCwwwIPAAACoAyVyVACCAAAhBwAIiICoZpgIYKLB05GUIAhglgDIyAcQgMAOAABAIAACAAAAAIBAAAQAAAAAAAAAAA==

> <PUBCHEM_IUPAC_OPENEYE_NAME>
7-chloro-5-(2-fluorophenyl)-1-(3-piperazin-1-ylpropyl)-3H-1,4-benzodiazepin-2-one

> <PUBCHEM_IUPAC_CAS_NAME>
7-chloro-5-(2-fluorophenyl)-1-[3-(1-piperazinyl)propyl]-3H-1,4-benzodiazepin-2-one

> <PUBCHEM_IUPAC_NAME>
7-chloro-5-(2-fluorophenyl)-1-(3-piperazin-1-ylpropyl)-3H-1,4-benzodiazepin-2-one

> <PUBCHEM_IUPAC_SYSTEMATIC_NAME>
7-chloranyl-5-(2-fluorophenyl)-1-(3-piperazin-1-ylpropyl)-3H-1,4-benzodiazepin-2-one

> <PUBCHEM_IUPAC_TRADITIONAL_NAME>
7-chloro-5-(2-fluorophenyl)-1-(3-piperazinopropyl)-3H-1,4-benzodiazepin-2-one

> <PUBCHEM_IUPAC_INCHI>
InChI=1S/C22H24ClFN4O/c23-16-6-7-20-18(14-16)22(17-4-1-2-5-19(17)24)26-15-21(29)28(20)11-3-10-27-12-8-25-9-13-27/h1-2,4-7,14,25H,3,8-13,15H2

> <PUBCHEM_IUPAC_INCHIKEY>
HCGXHCQLJCFGAB-UHFFFAOYSA-N

> <PUBCHEM_XLOGP3>
2

> <PUBCHEM_EXACT_MASS>
414.162267

> <PUBCHEM_MOLECULAR_FORMULA>
C22H24ClFN4O

> <PUBCHEM_MOLECULAR_WEIGHT>
414.903563

> <PUBCHEM_OPENEYE_CAN_SMILES>
C1CN(CCN1)CCCN2C(=O)CN=C(C3=C2C=CC(=C3)Cl)C4=CC=CC=C4F

> <PUBCHEM_OPENEYE_ISO_SMILES>
C1CN(CCN1)CCCN2C(=O)CN=C(C3=C2C=CC(=C3)Cl)C4=CC=CC=C4F

> <PUBCHEM_CACTVS_TPSA>
47.9

> <PUBCHEM_MONOISOTOPIC_WEIGHT>
414.162267

> <PUBCHEM_TOTAL_CHARGE>
0

> <PUBCHEM_HEAVY_ATOM_COUNT>
29

> <PUBCHEM_ATOM_DEF_STEREO_COUNT>
0

> <PUBCHEM_ATOM_UDEF_STEREO_COUNT>
0

> <PUBCHEM_BOND_DEF_STEREO_COUNT>
0

> <PUBCHEM_BOND_UDEF_STEREO_COUNT>
0

> <PUBCHEM_ISOTOPIC_ATOM_COUNT>
0

> <PUBCHEM_COMPONENT_COUNT>
1

> <PUBCHEM_CACTVS_TAUTO_COUNT>
2

> <PUBCHEM_COORDINATE_TYPE>
1
5
255

> <PUBCHEM_BONDANNOTATIONS>
15  17  8
15  20  8
17  21  8
20  23  8
21  24  8
22  25  8
22  26  8
23  24  8
25  27  8
26  28  8
27  29  8
28  29  8

$$$$

