582812
  -OEChem-06241222442D

 11 11  0     0  0  0  0  0  0999 V2000
    2.0000    1.3100    0.0000 F   0  0  0  0  0  0  0  0  0  0  0  0
    2.0000   -0.6900    0.0000 O   0  0  0  0  0  0  0  0  0  0  0  0
    5.4641   -0.6900    0.0000 O   0  0  0  0  0  0  0  0  0  0  0  0
    3.7320   -0.6900    0.0000 N   0  0  0  0  0  0  0  0  0  0  0  0
    4.5981    0.8100    0.0000 N   0  0  0  0  0  0  0  0  0  0  0  0
    3.7320    1.3100    0.0000 N   0  0  0  0  0  0  0  0  0  0  0  0
    2.8660   -0.1900    0.0000 C   0  0  0  0  0  0  0  0  0  0  0  0
    4.5981   -0.1900    0.0000 C   0  0  0  0  0  0  0  0  0  0  0  0
    2.8660    0.8100    0.0000 C   0  0  0  0  0  0  0  0  0  0  0  0
    3.7320   -1.3100    0.0000 H   0  0  0  0  0  0  0  0  0  0  0  0
    5.1350    1.1200    0.0000 H   0  0  0  0  0  0  0  0  0  0  0  0
  1  9  1  0  0  0  0
  2  7  2  0  0  0  0
  3  8  2  0  0  0  0
  4  7  1  0  0  0  0
  4  8  1  0  0  0  0
  4 10  1  0  0  0  0
  5  6  1  0  0  0  0
  5  8  1  0  0  0  0
  5 11  1  0  0  0  0
  6  9  2  0  0  0  0
  7  9  1  0  0  0  0
M  END
> <PUBCHEM_COMPOUND_CID>
582812

> <PUBCHEM_COMPOUND_CANONICALIZED>
1

> <PUBCHEM_CACTVS_COMPLEXITY>
199

> <PUBCHEM_CACTVS_HBOND_ACCEPTOR>
4

> <PUBCHEM_CACTVS_HBOND_DONOR>
2

> <PUBCHEM_CACTVS_ROTATABLE_BOND>
0

> <PUBCHEM_CACTVS_SUBSKEYS>
AAADcQBDMQAAAAAAAAAAAAAAAAAAAAAAAAAgAAAAAAAAAAAAAAAADwAYAAAAAAABgAABAALiAAAoAAEwEAAQAAAAAAAGAAAAAACAAAAAAAAAAAAQDSIAAAAAAAAAAAAAAAAAAAAAAAAAAAAAAAAAAAAAAA==

> <PUBCHEM_IUPAC_OPENEYE_NAME>
6-fluoro-2H-1,2,4-triazine-3,5-dione

> <PUBCHEM_IUPAC_CAS_NAME>
6-fluoro-2H-1,2,4-triazine-3,5-dione

> <PUBCHEM_IUPAC_NAME>
6-fluoro-2H-1,2,4-triazine-3,5-dione

> <PUBCHEM_IUPAC_SYSTEMATIC_NAME>
6-fluoranyl-2H-1,2,4-triazine-3,5-dione

> <PUBCHEM_IUPAC_TRADITIONAL_NAME>
6-fluoro-2H-1,2,4-triazine-3,5-quinone

> <PUBCHEM_IUPAC_INCHI>
InChI=1S/C3H2FN3O2/c4-1-2(8)5-3(9)7-6-1/h(H2,5,7,8,9)

> <PUBCHEM_IUPAC_INCHIKEY>
BWPCMZQPSKDAQH-UHFFFAOYSA-N

> <PUBCHEM_XLOGP3>
0.3

> <PUBCHEM_EXACT_MASS>
131.013105

> <PUBCHEM_MOLECULAR_FORMULA>
C3H2FN3O2

> <PUBCHEM_MOLECULAR_WEIGHT>
131.065283

> <PUBCHEM_OPENEYE_CAN_SMILES>
C1(=O)C(=NNC(=O)N1)F

> <PUBCHEM_OPENEYE_ISO_SMILES>
C1(=O)C(=NNC(=O)N1)F

> <PUBCHEM_CACTVS_TPSA>
70.6

> <PUBCHEM_MONOISOTOPIC_WEIGHT>
131.013105

> <PUBCHEM_TOTAL_CHARGE>
0

> <PUBCHEM_HEAVY_ATOM_COUNT>
9

> <PUBCHEM_ATOM_DEF_STEREO_COUNT>
0

> <PUBCHEM_ATOM_UDEF_STEREO_COUNT>
0

> <PUBCHEM_BOND_DEF_STEREO_COUNT>
0

> <PUBCHEM_BOND_UDEF_STEREO_COUNT>
0

> <PUBCHEM_ISOTOPIC_ATOM_COUNT>
0

> <PUBCHEM_COMPONENT_COUNT>
1

> <PUBCHEM_CACTVS_TAUTO_COUNT>
9

> <PUBCHEM_COORDINATE_TYPE>
1
5
255

> <PUBCHEM_BONDANNOTATIONS>
4  7  8
4  8  8
5  6  8
5  8  8
6  9  8
7  9  8

$$$$

