8238
  -OEChem-06261202413D

 62 63  0     0  0  0  0  0  0999 V2000
    0.5410   -1.5527   -3.2496 O   0  0  0  0  0  0  0  0  0  0  0  0
    3.9906    0.9513   -0.9188 O   0  0  0  0  0  0  0  0  0  0  0  0
    0.5700   -1.3403    1.4761 O   0  0  0  0  0  0  0  0  0  0  0  0
   -2.2620   -3.3336    1.2885 O   0  0  0  0  0  0  0  0  0  0  0  0
    2.5896    1.3927    2.1082 O   0  0  0  0  0  0  0  0  0  0  0  0
   -1.2708    0.4456   -1.4760 O   0  0  0  0  0  0  0  0  0  0  0  0
   -4.8331    0.6424    1.7221 O   0  0  0  0  0  0  0  0  0  0  0  0
   -4.1485    2.1742   -1.2124 O   0  0  0  0  0  0  0  0  0  0  0  0
    2.4029   -0.2574   -2.2756 C   0  0  0  0  0  0  0  0  0  0  0  0
    1.1483   -1.0870   -2.0915 C   0  0  0  0  0  0  0  0  0  0  0  0
    0.6153   -1.3849   -0.8922 C   0  0  0  0  0  0  0  0  0  0  0  0
    2.9852    0.2355   -0.9389 C   0  0  0  0  0  0  0  0  0  0  0  0
    2.3460   -0.1506    0.3577 C   0  0  0  0  0  0  0  0  0  0  0  0
    2.0951    0.9971   -3.1152 C   0  0  0  0  0  0  0  0  0  0  0  0
    3.5010   -1.0962   -2.9554 C   0  0  0  0  0  0  0  0  0  0  0  0
   -0.6402   -2.2145   -0.7587 C   0  0  0  0  0  0  0  0  0  0  0  0
    1.2376   -0.9154    0.3421 C   0  0  0  0  0  0  0  0  0  0  0  0
   -1.7510   -1.4503   -0.1053 C   0  0  0  0  0  0  0  0  0  0  0  0
    2.9450    0.3208    1.6212 C   0  0  0  0  0  0  0  0  0  0  0  0
    3.9903   -0.5806    2.2529 C   0  0  0  0  0  0  0  0  0  0  0  0
   -2.0198   -0.1406   -0.4971 C   0  0  0  0  0  0  0  0  0  0  0  0
   -2.5122   -2.0536    0.8938 C   0  0  0  0  0  0  0  0  0  0  0  0
   -3.0542    0.5691    0.1127 C   0  0  0  0  0  0  0  0  0  0  0  0
    5.0139    0.2011    3.0729 C   0  0  0  0  0  0  0  0  0  0  0  0
   -3.5467   -1.3439    1.5036 C   0  0  0  0  0  0  0  0  0  0  0  0
   -3.8176   -0.0326    1.1131 C   0  0  0  0  0  0  0  0  0  0  0  0
   -3.3389    1.9404   -0.2946 C   0  0  0  0  0  0  0  0  0  0  0  0
   -2.6355    3.1103    0.4138 C   0  0  0  0  0  0  0  0  0  0  0  0
    5.7382    1.2329    2.2237 C   0  0  0  0  0  0  0  0  0  0  0  0
   -1.8136    3.9850   -0.5330 C   0  0  0  0  0  0  0  0  0  0  0  0
   -2.9548   -4.3714    0.5982 C   0  0  0  0  0  0  0  0  0  0  0  0
   -1.1111    5.1072    0.2136 C   0  0  0  0  0  0  0  0  0  0  0  0
    1.7392    0.7467   -4.1203 H   0  0  0  0  0  0  0  0  0  0  0  0
    1.3292    1.6163   -2.6324 H   0  0  0  0  0  0  0  0  0  0  0  0
    2.9853    1.6253   -3.2383 H   0  0  0  0  0  0  0  0  0  0  0  0
    3.7430   -1.9853   -2.3607 H   0  0  0  0  0  0  0  0  0  0  0  0
    3.2053   -1.4319   -3.9552 H   0  0  0  0  0  0  0  0  0  0  0  0
    4.4292   -0.5236   -3.0696 H   0  0  0  0  0  0  0  0  0  0  0  0
   -1.0113   -2.5701   -1.7277 H   0  0  0  0  0  0  0  0  0  0  0  0
   -0.3770   -3.1229   -0.2022 H   0  0  0  0  0  0  0  0  0  0  0  0
    4.5068   -1.1432    1.4666 H   0  0  0  0  0  0  0  0  0  0  0  0
    3.4715   -1.2989    2.8971 H   0  0  0  0  0  0  0  0  0  0  0  0
    1.0641   -1.2683   -4.0159 H   0  0  0  0  0  0  0  0  0  0  0  0
    4.5223    0.7057    3.9127 H   0  0  0  0  0  0  0  0  0  0  0  0
    5.7429   -0.4984    3.4972 H   0  0  0  0  0  0  0  0  0  0  0  0
    1.0217   -0.9864    2.2599 H   0  0  0  0  0  0  0  0  0  0  0  0
   -4.1371   -1.8190    2.2834 H   0  0  0  0  0  0  0  0  0  0  0  0
   -3.4107    3.7010    0.9159 H   0  0  0  0  0  0  0  0  0  0  0  0
   -1.9854    2.7038    1.1979 H   0  0  0  0  0  0  0  0  0  0  0  0
    5.0735    2.0272    1.8734 H   0  0  0  0  0  0  0  0  0  0  0  0
    6.5296    1.7081    2.8128 H   0  0  0  0  0  0  0  0  0  0  0  0
    6.2065    0.7654    1.3514 H   0  0  0  0  0  0  0  0  0  0  0  0
   -1.0666    3.3738   -1.0517 H   0  0  0  0  0  0  0  0  0  0  0  0
   -2.4645    4.4104   -1.3058 H   0  0  0  0  0  0  0  0  0  0  0  0
   -1.6637    1.2892   -1.7498 H   0  0  0  0  0  0  0  0  0  0  0  0
   -5.2457    0.0648    2.3869 H   0  0  0  0  0  0  0  0  0  0  0  0
   -4.0323   -4.2912    0.7736 H   0  0  0  0  0  0  0  0  0  0  0  0
   -2.6081   -5.3323    0.9882 H   0  0  0  0  0  0  0  0  0  0  0  0
   -2.7468   -4.3345   -0.4756 H   0  0  0  0  0  0  0  0  0  0  0  0
   -0.4239    4.7074    0.9662 H   0  0  0  0  0  0  0  0  0  0  0  0
   -0.5318    5.7214   -0.4829 H   0  0  0  0  0  0  0  0  0  0  0  0
   -1.8347    5.7555    0.7180 H   0  0  0  0  0  0  0  0  0  0  0  0
  1 10  1  0  0  0  0
  1 43  1  0  0  0  0
  2 12  2  0  0  0  0
  3 17  1  0  0  0  0
  3 46  1  0  0  0  0
  4 22  1  0  0  0  0
  4 31  1  0  0  0  0
  5 19  2  0  0  0  0
  6 21  1  0  0  0  0
  6 55  1  0  0  0  0
  7 26  1  0  0  0  0
  7 56  1  0  0  0  0
  8 27  2  0  0  0  0
  9 10  1  0  0  0  0
  9 12  1  0  0  0  0
  9 14  1  0  0  0  0
  9 15  1  0  0  0  0
 10 11  2  0  0  0  0
 11 16  1  0  0  0  0
 11 17  1  0  0  0  0
 12 13  1  0  0  0  0
 13 17  2  0  0  0  0
 13 19  1  0  0  0  0
 14 33  1  0  0  0  0
 14 34  1  0  0  0  0
 14 35  1  0  0  0  0
 15 36  1  0  0  0  0
 15 37  1  0  0  0  0
 15 38  1  0  0  0  0
 16 18  1  0  0  0  0
 16 39  1  0  0  0  0
 16 40  1  0  0  0  0
 18 21  1  0  0  0  0
 18 22  2  0  0  0  0
 19 20  1  0  0  0  0
 20 24  1  0  0  0  0
 20 41  1  0  0  0  0
 20 42  1  0  0  0  0
 21 23  2  0  0  0  0
 22 25  1  0  0  0  0
 23 26  1  0  0  0  0
 23 27  1  0  0  0  0
 24 29  1  0  0  0  0
 24 44  1  0  0  0  0
 24 45  1  0  0  0  0
 25 26  2  0  0  0  0
 25 47  1  0  0  0  0
 27 28  1  0  0  0  0
 28 30  1  0  0  0  0
 28 48  1  0  0  0  0
 28 49  1  0  0  0  0
 29 50  1  0  0  0  0
 29 51  1  0  0  0  0
 29 52  1  0  0  0  0
 30 32  1  0  0  0  0
 30 53  1  0  0  0  0
 30 54  1  0  0  0  0
 31 57  1  0  0  0  0
 31 58  1  0  0  0  0
 31 59  1  0  0  0  0
 32 60  1  0  0  0  0
 32 61  1  0  0  0  0
 32 62  1  0  0  0  0
M  END
> <PUBCHEM_COMPOUND_CID>
8238

> <PUBCHEM_CONFORMER_RMSD>
1

> <PUBCHEM_CONFORMER_DIVERSEORDER>
8
55
108
150
84
43
157
147
89
64
91
131
87
54
126
42
79
119
151
132
128
160
52
106
50
31
100
26
61
1
58
65
163
129
62
17
73
118
124
63
136
115
45
37
76
47
101
117
107
133
29
23
53
38
146
121
149
143
75
35
98
80
138
111
19
67
85
9
144
116
33
145
88
72
159
81
96
112
28
93
60
154
153
78
48
30
125
110
103
104
83
134
152
127
77
27
97
130
68
156
114
140
135
99
57
105
120
34
162
94
25
51
5
32
123
113
74
40
18
122
44
95
70
109
16
39
141
69
3
137
56
148
158
142
11
161
66
24
49
90
13
139
71
155
14
2
46
92
86
59
36
15
6
102
10
82
21
12
20
4
7
22
41

> <PUBCHEM_MMFF94_PARTIAL_CHARGES>
31
1 -0.53
10 -0.06
11 -0.14
12 0.49
13 0.03
16 0.28
17 0.08
18 -0.14
19 0.49
2 -0.57
20 0.06
21 0.08
22 0.08
23 0.09
25 -0.15
26 0.08
27 0.42
28 0.06
3 -0.53
31 0.28
4 -0.36
43 0.45
46 0.45
47 0.15
5 -0.57
55 0.45
56 0.45
6 -0.53
7 -0.53
8 -0.57
9 0.2

> <PUBCHEM_EFFECTIVE_ROTOR_COUNT>
9.2

> <PUBCHEM_PHARMACOPHORE_FEATURES>
14
1 1 donor
1 13 anion
1 2 acceptor
1 29 hydrophobe
1 3 donor
1 32 hydrophobe
1 4 acceptor
1 5 acceptor
1 6 donor
1 7 donor
1 8 acceptor
3 9 14 15 hydrophobe
6 18 21 22 23 25 26 rings
6 9 10 11 12 13 17 rings

> <PUBCHEM_HEAVY_ATOM_COUNT>
32

> <PUBCHEM_ATOM_DEF_STEREO_COUNT>
0

> <PUBCHEM_ATOM_UDEF_STEREO_COUNT>
0

> <PUBCHEM_BOND_DEF_STEREO_COUNT>
0

> <PUBCHEM_BOND_UDEF_STEREO_COUNT>
0

> <PUBCHEM_ISOTOPIC_ATOM_COUNT>
0

> <PUBCHEM_COMPONENT_COUNT>
1

> <PUBCHEM_CACTVS_TAUTO_COUNT>
418

> <PUBCHEM_CONFORMER_ID>
0000202E00000008

> <PUBCHEM_MMFF94_ENERGY>
96.8394

> <PUBCHEM_FEATURE_SELFOVERLAP>
71.041

> <PUBCHEM_SHAPE_FINGERPRINT>
10165383 225 17903314356371401899
10369192 42 16808972404651665448
105312 117 16588882148734074424
10764073 3 17186182284089667106
11049842 53 17910942858007136078
11578080 2 17750775710566850942
11582403 64 17607281840976174706
11640471 11 17274522296308583567
11725454 13 17678203622449120538
11763715 3 17984429542056685666
12128747 34 18264220278050460786
12633257 1 18341331102568816105
12788726 201 17987782035109564251
13009979 54 17775007838862876010
13134695 92 16734373014655705726
133893 2 16009028432011620862
13583140 156 18115889416164383098
13726171 33 18196060353416591620
13782708 43 17752730676849514247
13965767 371 17123681627402513145
14114207 22 16897403831240080429
14856354 85 18269847419752876618
15297060 5 17833802221735352125
15324884 4 17895739725893264255
15513586 35 17830758464359658952
17974551 9 17979944883540604434
19315092 285 17130149689104253755
20603629 256 15482661373508015502
21033648 29 18336822104415902801
21591340 35 16965482846495083032
22149856 69 17982717878691414721
23536364 44 17031589780686848038
23559900 14 18263623178121076342
238 59 16805612519896065077
513202 73 15692671638136019042
550186 7 18334868220845534624
6287921 2 17391896077343722085
7808743 9 18268127834325797021
9862522 239 17605299323180454656

> <PUBCHEM_SHAPE_MULTIPOLES>
611.59
9.17
4.39
3.18
5.1
3.34
-1.16
2.18
6.27
-6.24
0.41
4.96
-0.56
2.08

> <PUBCHEM_SHAPE_SELFOVERLAP>
1292.979

> <PUBCHEM_SHAPE_VOLUME>
341.5

> <PUBCHEM_COORDINATE_TYPE>
2
5
10

$$$$

