65807
  -OEChem-07051213012D

 39 40  0     1  0  0  0  0  0999 V2000
    3.5000   -0.9305    0.0000 O   0  0  0  0  0  0  0  0  0  0  0  0
    3.7009   -0.1077    0.0000 O   0  0  0  0  0  0  0  0  0  0  0  0
    4.6072   -1.9446    0.0000 O   0  0  0  0  0  0  0  0  0  0  0  0
    5.3837    2.3674    0.0000 O   0  0  0  0  0  0  0  0  0  0  0  0
    2.9223    2.5089    0.0000 O   0  0  0  0  0  0  0  0  0  0  0  0
    7.8228    1.1426    0.0000 O   0  0  0  0  0  0  0  0  0  0  0  0
    5.7626   -2.9106    0.0000 O   0  0  0  0  0  0  0  0  0  0  0  0
    6.6980   -0.3233    0.0000 N   0  0  0  0  0  0  0  0  0  0  0  0
    4.7543    2.7501    0.0000 N   0  0  0  0  0  0  0  0  0  0  0  0
    4.8660    0.4355    0.0000 C   0  0  1  0  0  0  0  0  0  0  0  0
    4.6072   -0.5304    0.0000 C   0  0  2  0  0  0  0  0  0  0  0  0
    5.3143   -1.2375    0.0000 C   0  0  2  0  0  0  0  0  0  0  0  0
    5.1248    1.4014    0.0000 C   0  0  1  0  0  0  0  0  0  0  0  0
    3.8882    2.2501    0.0000 C   0  0  0  0  0  0  0  0  0  0  0  0
    6.9568    0.6426    0.0000 C   0  0  0  0  0  0  0  0  0  0  0  0
    2.5000    0.8015    0.0000 C   0  0  0  0  0  0  0  0  0  0  0  0
    2.5000   -0.9305    0.0000 C   0  0  0  0  0  0  0  0  0  0  0  0
    2.0000   -0.0645    0.0000 C   0  0  0  0  0  0  0  0  0  0  0  0
    6.0214   -1.9446    0.0000 C   0  0  0  0  0  0  0  0  0  0  0  0
    6.0214   -0.5304    0.0000 C   0  0  0  0  0  0  0  0  0  0  0  0
    2.0000    1.6676    0.0000 C   0  0  0  0  0  0  0  0  0  0  0  0
    4.2516   -1.0383    0.0000 H   0  0  0  0  0  0  0  0  0  0  0  0
    7.0080   -0.8602    0.0000 H   0  0  0  0  0  0  0  0  0  0  0  0
    4.9147    3.3490    0.0000 H   0  0  0  0  0  0  0  0  0  0  0  0
    1.9174   -1.1426    0.0000 H   0  0  0  0  0  0  0  0  0  0  0  0
    2.6077   -1.5411    0.0000 H   0  0  0  0  0  0  0  0  0  0  0  0
    1.5250    0.3340    0.0000 H   0  0  0  0  0  0  0  0  0  0  0  0
    1.5250   -0.4630    0.0000 H   0  0  0  0  0  0  0  0  0  0  0  0
    6.5833   -2.2066    0.0000 H   0  0  0  0  0  0  0  0  0  0  0  0
    6.3770   -1.4368    0.0000 H   0  0  0  0  0  0  0  0  0  0  0  0
    6.4598   -0.9688    0.0000 H   0  0  0  0  0  0  0  0  0  0  0  0
    6.4598   -0.0920    0.0000 H   0  0  0  0  0  0  0  0  0  0  0  0
    5.5830   -0.0920    0.0000 H   0  0  0  0  0  0  0  0  0  0  0  0
    3.6469    0.5098    0.0000 H   0  0  0  0  0  0  0  0  0  0  0  0
    4.7677   -2.5435    0.0000 H   0  0  0  0  0  0  0  0  0  0  0  0
    5.9825    2.5278    0.0000 H   0  0  0  0  0  0  0  0  0  0  0  0
    2.3100    2.2045    0.0000 H   0  0  0  0  0  0  0  0  0  0  0  0
    1.3800    1.6676    0.0000 H   0  0  0  0  0  0  0  0  0  0  0  0
    6.2010   -3.3490    0.0000 H   0  0  0  0  0  0  0  0  0  0  0  0
 10  1  1  1  0  0  0
  1 17  1  0  0  0  0
 11  2  1  6  0  0  0
  2 34  1  0  0  0  0
 12  3  1  1  0  0  0
  3 35  1  0  0  0  0
 13  4  1  1  0  0  0
  4 36  1  0  0  0  0
  5 14  2  0  0  0  0
  6 15  2  0  0  0  0
  7 19  1  0  0  0  0
  7 39  1  0  0  0  0
  8 10  1  0  0  0  0
  8 15  1  0  0  0  0
  8 23  1  0  0  0  0
  9 13  1  0  0  0  0
  9 14  1  0  0  0  0
  9 24  1  0  0  0  0
 10 11  1  0  0  0  0
 10 14  1  0  0  0  0
 11 12  1  0  0  0  0
 11 22  1  0  0  0  0
 12 19  1  0  0  0  0
 12 20  1  0  0  0  0
 13 15  1  0  0  0  0
 13 16  1  0  0  0  0
 16 18  1  0  0  0  0
 16 21  2  0  0  0  0
 17 18  1  0  0  0  0
 17 25  1  0  0  0  0
 17 26  1  0  0  0  0
 18 27  1  0  0  0  0
 18 28  1  0  0  0  0
 19 29  1  0  0  0  0
 19 30  1  0  0  0  0
 20 31  1  0  0  0  0
 20 32  1  0  0  0  0
 20 33  1  0  0  0  0
 21 37  1  0  0  0  0
 21 38  1  0  0  0  0
M  END
> <PUBCHEM_COMPOUND_CID>
65807

> <PUBCHEM_COMPOUND_CANONICALIZED>
1

> <PUBCHEM_CACTVS_COMPLEXITY>
510

> <PUBCHEM_CACTVS_HBOND_ACCEPTOR>
7

> <PUBCHEM_CACTVS_HBOND_DONOR>
6

> <PUBCHEM_CACTVS_ROTATABLE_BOND>
3

> <PUBCHEM_CACTVS_SUBSKEYS>
AAADceBzOAAAAAAAAAAAAAAAAAAAAAAAAAAsAAAAAAAWLAAAAAAAHgAQCAAADFyhgAICAALABgCIAgFSEAKAAAAgAAAAAAHAAAkDVBYAgSQfQAAHdACTEAD6FAIMAAAAAAAAAAAAAAAAAAAAAAAAAAAAAA==

> <PUBCHEM_IUPAC_OPENEYE_NAME>
(1R,6S)-1-hydroxy-2-methylene-6-[(1S,2S)-1,2,3-trihydroxy-2-methyl-propyl]-5-oxa-8,10-diazabicyclo[4.2.2]decane-7,9-dione

> <PUBCHEM_IUPAC_CAS_NAME>
(1R,6S)-1-hydroxy-2-methylene-6-[(1S,2S)-1,2,3-trihydroxy-2-methylpropyl]-5-oxa-8,10-diazabicyclo[4.2.2]decane-7,9-dione

> <PUBCHEM_IUPAC_NAME>
(1R,6S)-1-hydroxy-2-methylidene-6-[(1S,2S)-1,2,3-trihydroxy-2-methylpropyl]-5-oxa-8,10-diazabicyclo[4.2.2]decane-7,9-dione

> <PUBCHEM_IUPAC_SYSTEMATIC_NAME>
(1R,6S)-2-methylidene-6-[(1S,2S)-2-methyl-1,2,3-tris(oxidanyl)propyl]-1-oxidanyl-5-oxa-8,10-diazabicyclo[4.2.2]decane-7,9-dione

> <PUBCHEM_IUPAC_TRADITIONAL_NAME>
(1R,6S)-1-hydroxy-2-methylene-6-[(1S,2S)-1,2,3-trihydroxy-2-methyl-propyl]-5-oxa-8,10-diazabicyclo[4.2.2]decane-7,9-quinone

> <PUBCHEM_IUPAC_INCHI>
InChI=1S/C12H18N2O7/c1-6-3-4-21-12(7(16)10(2,19)5-15)9(18)13-11(6,20)8(17)14-12/h7,15-16,19-20H,1,3-5H2,2H3,(H,13,18)(H,14,17)/t7-,10-,11+,12-/m0/s1

> <PUBCHEM_IUPAC_INCHIKEY>
WOUDXEYYJPOSNE-VKZDFBPFSA-N

> <PUBCHEM_XLOGP3_AA>
-2.9

> <PUBCHEM_EXACT_MASS>
302.111401

> <PUBCHEM_MOLECULAR_FORMULA>
C12H18N2O7

> <PUBCHEM_MOLECULAR_WEIGHT>
302.28052

> <PUBCHEM_OPENEYE_CAN_SMILES>
CC(CO)(C(C12C(=O)NC(C(=C)CCO1)(C(=O)N2)O)O)O

> <PUBCHEM_OPENEYE_ISO_SMILES>
C[C@](CO)([C@@H]([C@@]12C(=O)N[C@@](C(=C)CCO1)(C(=O)N2)O)O)O

> <PUBCHEM_CACTVS_TPSA>
148

> <PUBCHEM_MONOISOTOPIC_WEIGHT>
302.111401

> <PUBCHEM_TOTAL_CHARGE>
0

> <PUBCHEM_HEAVY_ATOM_COUNT>
21

> <PUBCHEM_ATOM_DEF_STEREO_COUNT>
4

> <PUBCHEM_ATOM_UDEF_STEREO_COUNT>
0

> <PUBCHEM_BOND_DEF_STEREO_COUNT>
0

> <PUBCHEM_BOND_UDEF_STEREO_COUNT>
0

> <PUBCHEM_ISOTOPIC_ATOM_COUNT>
0

> <PUBCHEM_COMPONENT_COUNT>
1

> <PUBCHEM_CACTVS_TAUTO_COUNT>
4

> <PUBCHEM_COORDINATE_TYPE>
1
5
255

> <PUBCHEM_BONDANNOTATIONS>
10  1  5
11  2  6
12  3  5
13  4  5

$$$$

