441926
  -OEChem-07051212563D

 59 61  0     1  0  0  0  0  0999 V2000
   -0.0776   -0.4703    0.0264 O   0  0  0  0  0  0  0  0  0  0  0  0
   -2.5129    3.5188   -0.2927 O   0  0  0  0  0  0  0  0  0  0  0  0
    0.2065    4.2053    0.0997 O   0  0  0  0  0  0  0  0  0  0  0  0
   -4.8536   -0.6356   -0.6577 O   0  0  0  0  0  0  0  0  0  0  0  0
    4.2125    1.6529    0.6551 O   0  0  0  0  0  0  0  0  0  0  0  0
   -3.3070   -2.7864   -0.9911 O   0  0  0  0  0  0  0  0  0  0  0  0
    2.1981   -1.8096    0.8673 O   0  0  0  0  0  0  0  0  0  0  0  0
   -1.2790    1.4390   -0.1315 C   0  0  0  0  0  0  0  0  0  0  0  0
    0.0899    1.7845    0.0663 C   0  0  0  0  0  0  0  0  0  0  0  0
   -1.3249    0.0485   -0.1480 C   0  0  0  0  0  0  0  0  0  0  0  0
    0.7801    0.5798    0.1564 C   0  0  0  0  0  0  0  0  0  0  0  0
   -2.4924   -0.6933   -0.3200 C   0  0  0  0  0  0  0  0  0  0  0  0
    2.1566    0.4802    0.3523 C   0  0  0  0  0  0  0  0  0  0  0  0
   -1.4073   -2.9226    0.4904 C   0  0  1  0  0  0  0  0  0  0  0  0
   -2.4819    2.1499   -0.2979 C   0  0  0  0  0  0  0  0  0  0  0  0
    0.8186    2.9830    0.1786 C   0  0  0  0  0  0  0  0  0  0  0  0
   -2.4668   -2.1457   -0.3267 C   0  0  0  0  0  0  0  0  0  0  0  0
   -3.6721    1.4311   -0.4728 C   0  0  0  0  0  0  0  0  0  0  0  0
   -3.6746    0.0344   -0.4833 C   0  0  0  0  0  0  0  0  0  0  0  0
    2.2044    2.9144    0.3755 C   0  0  0  0  0  0  0  0  0  0  0  0
    2.8593    1.6836    0.4609 C   0  0  0  0  0  0  0  0  0  0  0  0
    4.2741   -0.9640   -0.0308 C   0  0  0  0  0  0  0  0  0  0  0  0
    2.8128   -0.8130    0.4370 C   0  0  0  0  0  0  0  0  0  0  0  0
    4.6161   -2.3414   -0.6256 C   0  0  0  0  0  0  0  0  0  0  0  0
   -2.0540   -3.8266    1.5545 C   0  0  0  0  0  0  0  0  0  0  0  0
   -0.5626   -3.7613   -0.4679 C   0  0  0  0  0  0  0  0  0  0  0  0
   -4.9603    2.1736   -0.6513 C   0  0  0  0  0  0  0  0  0  0  0  0
    2.9934    4.1814    0.4978 C   0  0  0  0  0  0  0  0  0  0  0  0
    3.7055   -2.6372   -1.8194 C   0  0  0  0  0  0  0  0  0  0  0  0
    6.0812   -2.4130   -1.0640 C   0  0  0  0  0  0  0  0  0  0  0  0
   -2.8821   -3.0403    2.5629 C   0  0  0  0  0  0  0  0  0  0  0  0
   -0.7544   -2.2543    1.0495 H   0  0  0  0  0  0  0  0  0  0  0  0
    4.9201   -0.7752    0.8344 H   0  0  0  0  0  0  0  0  0  0  0  0
    4.4835   -0.2159   -0.8041 H   0  0  0  0  0  0  0  0  0  0  0  0
    4.4453   -3.1129    0.1354 H   0  0  0  0  0  0  0  0  0  0  0  0
   -2.7006   -4.5725    1.0762 H   0  0  0  0  0  0  0  0  0  0  0  0
   -1.2723   -4.3776    2.0914 H   0  0  0  0  0  0  0  0  0  0  0  0
   -1.1687   -4.5112   -0.9878 H   0  0  0  0  0  0  0  0  0  0  0  0
    0.2349   -4.2838    0.0708 H   0  0  0  0  0  0  0  0  0  0  0  0
   -0.0959   -3.1278   -1.2300 H   0  0  0  0  0  0  0  0  0  0  0  0
   -5.1688    2.7938    0.2273 H   0  0  0  0  0  0  0  0  0  0  0  0
   -4.9168    2.8049   -1.5456 H   0  0  0  0  0  0  0  0  0  0  0  0
   -5.8248    1.5148   -0.7782 H   0  0  0  0  0  0  0  0  0  0  0  0
    3.7384    4.2464   -0.3028 H   0  0  0  0  0  0  0  0  0  0  0  0
    2.3774    5.0827    0.4228 H   0  0  0  0  0  0  0  0  0  0  0  0
    3.4940    4.2278    1.4712 H   0  0  0  0  0  0  0  0  0  0  0  0
    3.8000   -1.8666   -2.5924 H   0  0  0  0  0  0  0  0  0  0  0  0
    3.9681   -3.5991   -2.2734 H   0  0  0  0  0  0  0  0  0  0  0  0
    2.6527   -2.6974   -1.5289 H   0  0  0  0  0  0  0  0  0  0  0  0
    6.3008   -1.6735   -1.8415 H   0  0  0  0  0  0  0  0  0  0  0  0
    6.3210   -3.4051   -1.4609 H   0  0  0  0  0  0  0  0  0  0  0  0
    6.7468   -2.2212   -0.2161 H   0  0  0  0  0  0  0  0  0  0  0  0
   -3.2658   -3.7120    3.3376 H   0  0  0  0  0  0  0  0  0  0  0  0
   -3.7411   -2.5565    2.0883 H   0  0  0  0  0  0  0  0  0  0  0  0
   -2.2774   -2.2701    3.0521 H   0  0  0  0  0  0  0  0  0  0  0  0
   -3.4112    3.8590   -0.4193 H   0  0  0  0  0  0  0  0  0  0  0  0
   -0.7448    4.0784   -0.0369 H   0  0  0  0  0  0  0  0  0  0  0  0
   -4.7300   -1.5898   -0.5340 H   0  0  0  0  0  0  0  0  0  0  0  0
    4.5921    2.5430    0.7002 H   0  0  0  0  0  0  0  0  0  0  0  0
  1 10  1  0  0  0  0
  1 11  1  0  0  0  0
  2 15  1  0  0  0  0
  2 56  1  0  0  0  0
  3 16  1  0  0  0  0
  3 57  1  0  0  0  0
  4 19  1  0  0  0  0
  4 58  1  0  0  0  0
  5 21  1  0  0  0  0
  5 59  1  0  0  0  0
  6 17  2  0  0  0  0
  7 23  2  0  0  0  0
  8  9  1  0  0  0  0
  8 10  2  0  0  0  0
  8 15  1  0  0  0  0
  9 11  2  0  0  0  0
  9 16  1  0  0  0  0
 10 12  1  0  0  0  0
 11 13  1  0  0  0  0
 12 17  1  0  0  0  0
 12 19  2  0  0  0  0
 13 21  2  0  0  0  0
 13 23  1  0  0  0  0
 14 17  1  0  0  0  0
 14 25  1  0  0  0  0
 14 26  1  0  0  0  0
 14 32  1  0  0  0  0
 15 18  2  0  0  0  0
 16 20  2  0  0  0  0
 18 19  1  0  0  0  0
 18 27  1  0  0  0  0
 20 21  1  0  0  0  0
 20 28  1  0  0  0  0
 22 23  1  0  0  0  0
 22 24  1  0  0  0  0
 22 33  1  0  0  0  0
 22 34  1  0  0  0  0
 24 29  1  0  0  0  0
 24 30  1  0  0  0  0
 24 35  1  0  0  0  0
 25 31  1  0  0  0  0
 25 36  1  0  0  0  0
 25 37  1  0  0  0  0
 26 38  1  0  0  0  0
 26 39  1  0  0  0  0
 26 40  1  0  0  0  0
 27 41  1  0  0  0  0
 27 42  1  0  0  0  0
 27 43  1  0  0  0  0
 28 44  1  0  0  0  0
 28 45  1  0  0  0  0
 28 46  1  0  0  0  0
 29 47  1  0  0  0  0
 29 48  1  0  0  0  0
 29 49  1  0  0  0  0
 30 50  1  0  0  0  0
 30 51  1  0  0  0  0
 30 52  1  0  0  0  0
 31 53  1  0  0  0  0
 31 54  1  0  0  0  0
 31 55  1  0  0  0  0
M  END
> <PUBCHEM_COMPOUND_CID>
441926

> <PUBCHEM_CONFORMER_RMSD>
0.8

> <PUBCHEM_CONFORMER_DIVERSEORDER>
1
44
52
31
70
47
21
41
75
17
7
45
55
53
80
78
60
40
71
73
66
2
37
74
39
43
24
5
12
62
36
33
64
14
48
19
4
67
79
23
27
63
50
69
9
22
68
16
25
51
29
8
11
46
65
38
20
13
10
56
54
61
35
59
6
72
15
77
30
58
57
42
76
32
49
26
3
34
18
28

> <PUBCHEM_MMFF94_PARTIAL_CHARGES>
27
1 -0.28
10 0.14
11 0.14
12 0.09
13 0.09
14 0.06
15 0.08
16 0.08
17 0.42
18 -0.14
19 0.08
2 -0.53
20 -0.14
21 0.08
22 0.06
23 0.42
27 0.14
28 0.14
3 -0.53
4 -0.53
5 -0.53
56 0.45
57 0.45
58 0.45
59 0.45
6 -0.57
7 -0.57

> <PUBCHEM_EFFECTIVE_ROTOR_COUNT>
6

> <PUBCHEM_PHARMACOPHORE_FEATURES>
13
1 1 acceptor
1 2 donor
1 26 hydrophobe
1 3 donor
1 31 hydrophobe
1 4 donor
1 5 donor
1 6 acceptor
1 7 acceptor
3 24 29 30 hydrophobe
5 1 8 9 10 11 rings
6 8 10 12 15 18 19 rings
6 9 11 13 16 20 21 rings

> <PUBCHEM_HEAVY_ATOM_COUNT>
31

> <PUBCHEM_ATOM_DEF_STEREO_COUNT>
0

> <PUBCHEM_ATOM_UDEF_STEREO_COUNT>
1

> <PUBCHEM_BOND_DEF_STEREO_COUNT>
0

> <PUBCHEM_BOND_UDEF_STEREO_COUNT>
0

> <PUBCHEM_ISOTOPIC_ATOM_COUNT>
0

> <PUBCHEM_COMPONENT_COUNT>
1

> <PUBCHEM_CACTVS_TAUTO_COUNT>
441

> <PUBCHEM_CONFORMER_ID>
0006BE4600000001

> <PUBCHEM_MMFF94_ENERGY>
83.9122

> <PUBCHEM_FEATURE_SELFOVERLAP>
66.176

> <PUBCHEM_SHAPE_FINGERPRINT>
10616163 171 18051137986149482505
10675989 125 17476364280258331108
10693767 8 17754198666769260495
10967382 1 18339370651804106337
1100329 8 18339650034878159745
11227688 84 17688869735790441470
11513181 2 18116154363795611798
11578080 2 17200831931904267436
12553582 1 18266752465770524922
12788726 201 18051129486974050730
13140716 1 18195819693618888569
13402501 40 18189334735573581206
140371 6 18189047750290674004
14223421 5 18194684761163252384
14251757 5 18268699679694707878
14363568 33 17905865017226478170
14790565 3 16532000417572812304
14866123 147 17539403641096578216
15361156 5 18410286991368930838
15420108 30 16598424066732538017
16112460 7 18261382403641317041
17492 89 18263369105199133935
17627616 140 17695345163176900034
19319366 153 17559390464977689098
19591789 44 18266745860126797237
20600515 1 18048346558561507976
20775438 99 17323005120239484703
21133410 32 16699167571805998658
221490 88 18267863891843314920
22440779 20 17198495409249034339
23559900 14 18334023799883341600
283562 15 17832985323392830608
3178227 256 18195231451025203881
3298306 158 18053954127955628175
335352 9 18264492961018178333
3380486 145 17478048259905503003
3383291 50 18412549816628065123
3882209 13 17541707891394358286
4280585 95 18337957908902224246
4403749 210 17398417242349639592
460360 51 18340753854632336178
474144 1 17340414026823166442
6823239 73 18334581274117249714
9709674 26 18338802204086655394

> <PUBCHEM_SHAPE_MULTIPOLES>
596.88
9.55
6.05
1.23
5.53
0.9
0.4
-3.39
-2.77
0.26
1.03
-0.28
-1.37
3.02

> <PUBCHEM_SHAPE_SELFOVERLAP>
1298.029

> <PUBCHEM_SHAPE_VOLUME>
331

> <PUBCHEM_COORDINATE_TYPE>
2
5
10

$$$$

