443244
  -OEChem-07051213012D

 63 65  0     1  0  0  0  0  0999 V2000
    3.0000   -2.0233    0.0000 S   0  0  0  0  0  0  0  0  0  0  0  0
    6.4641   -2.0233    0.0000 P   0  0  3  0  0  0  0  0  0  0  0  0
    7.3301   -0.5233    0.0000 P   0  0  3  0  0  0  0  0  0  0  0  0
    9.1667    2.4712    0.0000 O   0  0  0  0  0  0  0  0  0  0  0  0
    4.7320   -3.0233    0.0000 O   0  0  0  0  0  0  0  0  0  0  0  0
    6.4641   -3.0233    0.0000 O   0  0  0  0  0  0  0  0  0  0  0  0
    3.0000   -5.0233    0.0000 O   0  0  0  0  0  0  0  0  0  0  0  0
   10.1836    0.0918    0.0000 O   0  0  0  0  0  0  0  0  0  0  0  0
    4.7320   -6.0233    0.0000 O   0  0  0  0  0  0  0  0  0  0  0  0
   11.6394    1.7086    0.0000 O   0  0  0  0  0  0  0  0  0  0  0  0
    6.4641   -5.0233    0.0000 O   0  0  0  0  0  0  0  0  0  0  0  0
    8.1962   -0.0233    0.0000 O   0  0  0  0  0  0  0  0  0  0  0  0
    6.4641   -1.0233    0.0000 O   0  0  0  0  0  0  0  0  0  0  0  0
    3.0000   -1.0233    0.0000 O   0  0  0  0  0  0  0  0  0  0  0  0
    2.0000   -2.0233    0.0000 O   0  0  0  0  0  0  0  0  0  0  0  0
    4.0000   -2.0233    0.0000 O   0  0  0  0  0  0  0  0  0  0  0  0
    7.4641   -2.0233    0.0000 O   0  0  0  0  0  0  0  0  0  0  0  0
   12.1339    2.8882    0.0000 O   0  0  0  0  0  0  0  0  0  0  0  0
    5.4641   -2.0233    0.0000 O   0  0  0  0  0  0  0  0  0  0  0  0
    6.8301    0.3427    0.0000 O   0  0  0  0  0  0  0  0  0  0  0  0
    7.8301   -1.3893    0.0000 O   0  0  0  0  0  0  0  0  0  0  0  0
   11.7718    6.3333    0.0000 O   0  0  0  0  0  0  0  0  0  0  0  0
   10.5516    3.5927    0.0000 N   0  0  0  0  0  0  0  0  0  0  0  0
   11.9528    4.6108    0.0000 N   0  0  0  0  0  0  0  0  0  0  0  0
    3.8660   -4.5233    0.0000 C   0  0  2  0  0  0  0  0  0  0  0  0
    3.8660   -3.5233    0.0000 C   0  0  1  0  0  0  0  0  0  0  0  0
    9.9757    1.0700    0.0000 C   0  0  1  0  0  0  0  0  0  0  0  0
    4.7320   -5.0233    0.0000 C   0  0  1  0  0  0  0  0  0  0  0  0
   10.6449    1.8131    0.0000 C   0  0  2  0  0  0  0  0  0  0  0  0
    9.0622    1.4767    0.0000 C   0  0  1  0  0  0  0  0  0  0  0  0
   10.1449    2.6791    0.0000 C   0  0  1  0  0  0  0  0  0  0  0  0
    5.5981   -4.5233    0.0000 C   0  0  2  0  0  0  0  0  0  0  0  0
    5.5981   -3.5233    0.0000 C   0  0  2  0  0  0  0  0  0  0  0  0
    3.0000   -3.0233    0.0000 C   0  0  0  0  0  0  0  0  0  0  0  0
    8.1962    0.9767    0.0000 C   0  0  0  0  0  0  0  0  0  0  0  0
   11.5461    3.6972    0.0000 C   0  0  0  0  0  0  0  0  0  0  0  0
    9.9638    4.4017    0.0000 C   0  0  0  0  0  0  0  0  0  0  0  0
   10.3705    5.3152    0.0000 C   0  0  0  0  0  0  0  0  0  0  0  0
   11.3651    5.4198    0.0000 C   0  0  0  0  0  0  0  0  0  0  0  0
    3.8660   -5.1433    0.0000 H   0  0  0  0  0  0  0  0  0  0  0  0
    3.8660   -2.9033    0.0000 H   0  0  0  0  0  0  0  0  0  0  0  0
   10.5746    0.9095    0.0000 H   0  0  0  0  0  0  0  0  0  0  0  0
    5.2690   -5.3333    0.0000 H   0  0  0  0  0  0  0  0  0  0  0  0
   10.9825    2.3331    0.0000 H   0  0  0  0  0  0  0  0  0  0  0  0
    8.5422    1.8144    0.0000 H   0  0  0  0  0  0  0  0  0  0  0  0
    9.7547    3.1610    0.0000 H   0  0  0  0  0  0  0  0  0  0  0  0
    5.5981   -5.1433    0.0000 H   0  0  0  0  0  0  0  0  0  0  0  0
    5.5981   -2.9033    0.0000 H   0  0  0  0  0  0  0  0  0  0  0  0
    2.3894   -2.9156    0.0000 H   0  0  0  0  0  0  0  0  0  0  0  0
    2.7880   -3.6059    0.0000 H   0  0  0  0  0  0  0  0  0  0  0  0
    7.9841    1.5593    0.0000 H   0  0  0  0  0  0  0  0  0  0  0  0
    7.5856    0.8690    0.0000 H   0  0  0  0  0  0  0  0  0  0  0  0
    2.4631   -4.7133    0.0000 H   0  0  0  0  0  0  0  0  0  0  0  0
   10.7733   -0.0998    0.0000 H   0  0  0  0  0  0  0  0  0  0  0  0
    4.1951   -6.3333    0.0000 H   0  0  0  0  0  0  0  0  0  0  0  0
   11.8916    1.1422    0.0000 H   0  0  0  0  0  0  0  0  0  0  0  0
    7.0010   -4.7133    0.0000 H   0  0  0  0  0  0  0  0  0  0  0  0
    9.3472    4.3369    0.0000 H   0  0  0  0  0  0  0  0  0  0  0  0
   12.5695    4.6756    0.0000 H   0  0  0  0  0  0  0  0  0  0  0  0
   10.0061    5.8168    0.0000 H   0  0  0  0  0  0  0  0  0  0  0  0
    2.4631   -0.7133    0.0000 H   0  0  0  0  0  0  0  0  0  0  0  0
    7.7741   -2.5602    0.0000 H   0  0  0  0  0  0  0  0  0  0  0  0
    6.2101    0.3427    0.0000 H   0  0  0  0  0  0  0  0  0  0  0  0
  1 14  1  0  0  0  0
  1 15  2  0  0  0  0
  1 16  2  0  0  0  0
  1 34  1  0  0  0  0
  2  6  1  0  0  0  0
  2 13  1  0  0  0  0
  2 17  1  0  0  0  0
  2 19  2  0  0  0  0
  3 12  1  0  0  0  0
  3 13  1  0  0  0  0
  3 20  1  0  0  0  0
  3 21  2  0  0  0  0
  4 30  1  0  0  0  0
  4 31  1  0  0  0  0
  5 26  1  0  0  0  0
  5 33  1  0  0  0  0
 33  6  1  6  0  0  0
 25  7  1  6  0  0  0
  7 53  1  0  0  0  0
 27  8  1  6  0  0  0
  8 54  1  0  0  0  0
 28  9  1  1  0  0  0
  9 55  1  0  0  0  0
 29 10  1  6  0  0  0
 10 56  1  0  0  0  0
 32 11  1  6  0  0  0
 11 57  1  0  0  0  0
 12 35  1  0  0  0  0
 14 61  1  0  0  0  0
 17 62  1  0  0  0  0
 18 36  2  0  0  0  0
 20 63  1  0  0  0  0
 22 39  2  0  0  0  0
 31 23  1  1  0  0  0
 23 36  1  0  0  0  0
 23 37  1  0  0  0  0
 24 36  1  0  0  0  0
 24 39  1  0  0  0  0
 24 59  1  0  0  0  0
 25 26  1  0  0  0  0
 25 28  1  0  0  0  0
 25 40  1  0  0  0  0
 26 34  1  1  0  0  0
 26 41  1  0  0  0  0
 27 29  1  0  0  0  0
 27 30  1  0  0  0  0
 27 42  1  0  0  0  0
 28 32  1  0  0  0  0
 28 43  1  0  0  0  0
 29 31  1  0  0  0  0
 29 44  1  0  0  0  0
 30 35  1  1  0  0  0
 30 45  1  0  0  0  0
 31 46  1  0  0  0  0
 32 33  1  0  0  0  0
 32 47  1  0  0  0  0
 33 48  1  0  0  0  0
 34 49  1  0  0  0  0
 34 50  1  0  0  0  0
 35 51  1  0  0  0  0
 35 52  1  0  0  0  0
 37 38  2  0  0  0  0
 37 58  1  0  0  0  0
 38 39  1  0  0  0  0
 38 60  1  0  0  0  0
M  END
> <PUBCHEM_COMPOUND_CID>
443244

> <PUBCHEM_COMPOUND_CANONICALIZED>
1

> <PUBCHEM_CACTVS_COMPLEXITY>
1180

> <PUBCHEM_CACTVS_HBOND_ACCEPTOR>
19

> <PUBCHEM_CACTVS_HBOND_DONOR>
9

> <PUBCHEM_CACTVS_ROTATABLE_BOND>
10

> <PUBCHEM_CACTVS_SUBSKEYS>
AAADceBzPgNAAAAAAAAAAAAAAAAAASAAAAAkQAAAAAAAAAAAAAAAHgQQCCAACBT1wAeBCAPAB5KIQCFWUPDAAAAAAgAIAAAIAECTEAIAgAAOQAAPFyIXAMHwcAYAAAAAAAAAAAAAAAAAAAAAAAAAAAAAAA==

> <PUBCHEM_IUPAC_OPENEYE_NAME>
[(2S,3S,4S,5R,6R)-6-[[[(2R,3S,4R,5R)-5-(2,4-dioxopyrimidin-1-yl)-3,4-dihydroxy-tetrahydrofuran-2-yl]methoxy-hydroxy-phosphoryl]oxy-hydroxy-phosphoryl]oxy-3,4,5-trihydroxy-tetrahydropyran-2-yl]methanesulfonic acid

> <PUBCHEM_IUPAC_CAS_NAME>
[(2S,3S,4S,5R,6R)-6-[[[(2R,3S,4R,5R)-5-(2,4-dioxo-1-pyrimidinyl)-3,4-dihydroxy-2-oxolanyl]methoxy-hydroxyphosphoryl]oxy-hydroxyphosphoryl]oxy-3,4,5-trihydroxy-2-oxanyl]methanesulfonic acid

> <PUBCHEM_IUPAC_NAME>
[(2S,3S,4S,5R,6R)-6-[[[(2R,3S,4R,5R)-5-(2,4-dioxopyrimidin-1-yl)-3,4-dihydroxyoxolan-2-yl]methoxy-hydroxyphosphoryl]oxy-hydroxyphosphoryl]oxy-3,4,5-trihydroxyoxan-2-yl]methanesulfonic acid

> <PUBCHEM_IUPAC_SYSTEMATIC_NAME>
[(2S,3S,4S,5R,6R)-6-[[[(2R,3S,4R,5R)-5-[2,4-bis(oxidanylidene)pyrimidin-1-yl]-3,4-bis(oxidanyl)oxolan-2-yl]methoxy-oxidanyl-phosphoryl]oxy-oxidanyl-phosphoryl]oxy-3,4,5-tris(oxidanyl)oxan-2-yl]methanesulfonic acid

> <PUBCHEM_IUPAC_TRADITIONAL_NAME>
[(2S,3S,4S,5R,6R)-6-[[[(2R,3S,4R,5R)-5-(2,4-diketopyrimidin-1-yl)-3,4-dihydroxy-tetrahydrofuran-2-yl]methoxy-hydroxy-phosphoryl]oxy-hydroxy-phosphoryl]oxy-3,4,5-trihydroxy-tetrahydropyran-2-yl]methanesulfonic acid

> <PUBCHEM_IUPAC_INCHI>
InChI=1S/C15H24N2O19P2S/c18-7-1-2-17(15(24)16-7)13-11(22)8(19)5(33-13)3-32-37(25,26)36-38(27,28)35-14-12(23)10(21)9(20)6(34-14)4-39(29,30)31/h1-2,5-6,8-14,19-23H,3-4H2,(H,25,26)(H,27,28)(H,16,18,24)(H,29,30,31)/t5-,6-,8-,9-,10+,11-,12-,13-,14-/m1/s1

> <PUBCHEM_IUPAC_INCHIKEY>
FQANCGQCBCUSMI-JZMIEXBBSA-N

> <PUBCHEM_XLOGP3_AA>
-7.6

> <PUBCHEM_EXACT_MASS>
630.016921

> <PUBCHEM_MOLECULAR_FORMULA>
C15H24N2O19P2S

> <PUBCHEM_MOLECULAR_WEIGHT>
630.365584

> <PUBCHEM_OPENEYE_CAN_SMILES>
C1=CN(C(=O)NC1=O)C2C(C(C(O2)COP(=O)(O)OP(=O)(O)OC3C(C(C(C(O3)CS(=O)(=O)O)O)O)O)O)O

> <PUBCHEM_OPENEYE_ISO_SMILES>
C1=CN(C(=O)NC1=O)[C@H]2[C@@H]([C@@H]([C@H](O2)COP(=O)(O)OP(=O)(O)O[C@@H]3[C@@H]([C@H]([C@@H]([C@H](O3)CS(=O)(=O)O)O)O)O)O)O

> <PUBCHEM_CACTVS_TPSA>
334

> <PUBCHEM_MONOISOTOPIC_WEIGHT>
630.016921

> <PUBCHEM_TOTAL_CHARGE>
0

> <PUBCHEM_HEAVY_ATOM_COUNT>
39

> <PUBCHEM_ATOM_DEF_STEREO_COUNT>
9

> <PUBCHEM_ATOM_UDEF_STEREO_COUNT>
0

> <PUBCHEM_BOND_DEF_STEREO_COUNT>
0

> <PUBCHEM_BOND_UDEF_STEREO_COUNT>
0

> <PUBCHEM_ISOTOPIC_ATOM_COUNT>
0

> <PUBCHEM_COMPONENT_COUNT>
1

> <PUBCHEM_CACTVS_TAUTO_COUNT>
3

> <PUBCHEM_COORDINATE_TYPE>
1
5
255

> <PUBCHEM_BONDANNOTATIONS>
29  10  6
32  11  6
31  23  5
23  36  8
23  37  8
24  36  8
24  39  8
26  34  5
30  35  5
37  38  8
38  39  8
33  6  6
25  7  6
27  8  6
28  9  5

$$$$

