9838356
  -OEChem-07051213052D

 32 34  0     1  0  0  0  0  0999 V2000
    6.8671    1.4279    0.0000 O   0  0  0  0  0  0  0  0  0  0  0  0
    6.8671   -1.5721    0.0000 O   0  0  0  0  0  0  0  0  0  0  0  0
    8.6155   -1.6067    0.0000 O   0  0  0  0  0  0  0  0  0  0  0  0
   10.3972    1.4521    0.0000 O   0  0  0  0  0  0  0  0  0  0  0  0
    2.5369   -2.0721    0.0000 O   0  0  0  0  0  0  0  0  0  0  0  0
    6.0010   -0.0721    0.0000 C   0  0  3  0  0  0  0  0  0  0  0  0
    6.0010    0.9279    0.0000 C   0  0  0  0  0  0  0  0  0  0  0  0
    6.8671   -0.5721    0.0000 C   0  0  0  0  0  0  0  0  0  0  0  0
    5.1350   -0.5721    0.0000 C   0  0  0  0  0  0  0  0  0  0  0  0
    7.7331   -0.0721    0.0000 C   0  0  0  0  0  0  0  0  0  0  0  0
    7.7331    0.9279    0.0000 C   0  0  0  0  0  0  0  0  0  0  0  0
    8.6270   -0.6067    0.0000 C   0  0  0  0  0  0  0  0  0  0  0  0
    4.2690   -0.0721    0.0000 C   0  0  0  0  0  0  0  0  0  0  0  0
    5.1350   -1.5721    0.0000 C   0  0  0  0  0  0  0  0  0  0  0  0
    8.6270    1.4626    0.0000 C   0  0  0  0  0  0  0  0  0  0  0  0
    9.5331   -0.0929    0.0000 C   0  0  0  0  0  0  0  0  0  0  0  0
    9.5331    0.9487    0.0000 C   0  0  0  0  0  0  0  0  0  0  0  0
    3.4030   -0.5721    0.0000 C   0  0  0  0  0  0  0  0  0  0  0  0
    4.2690   -2.0721    0.0000 C   0  0  0  0  0  0  0  0  0  0  0  0
    3.4030   -1.5721    0.0000 C   0  0  0  0  0  0  0  0  0  0  0  0
    5.4641    0.2379    0.0000 H   0  0  0  0  0  0  0  0  0  0  0  0
    5.7890    1.5105    0.0000 H   0  0  0  0  0  0  0  0  0  0  0  0
    5.3905    0.8203    0.0000 H   0  0  0  0  0  0  0  0  0  0  0  0
    4.2690    0.5479    0.0000 H   0  0  0  0  0  0  0  0  0  0  0  0
    5.6720   -1.8821    0.0000 H   0  0  0  0  0  0  0  0  0  0  0  0
    8.6199    2.0826    0.0000 H   0  0  0  0  0  0  0  0  0  0  0  0
   10.0688   -0.4050    0.0000 H   0  0  0  0  0  0  0  0  0  0  0  0
    2.8660   -0.2621    0.0000 H   0  0  0  0  0  0  0  0  0  0  0  0
    4.2690   -2.6921    0.0000 H   0  0  0  0  0  0  0  0  0  0  0  0
    9.1488   -1.9229    0.0000 H   0  0  0  0  0  0  0  0  0  0  0  0
   10.3948    2.0721    0.0000 H   0  0  0  0  0  0  0  0  0  0  0  0
    2.0000   -1.7621    0.0000 H   0  0  0  0  0  0  0  0  0  0  0  0
  1  7  1  0  0  0  0
  1 11  1  0  0  0  0
  2  8  2  0  0  0  0
  3 12  1  0  0  0  0
  3 30  1  0  0  0  0
  4 17  1  0  0  0  0
  4 31  1  0  0  0  0
  5 20  1  0  0  0  0
  5 32  1  0  0  0  0
  6  7  1  0  0  0  0
  6  8  1  0  0  0  0
  6  9  1  0  0  0  0
  6 21  1  0  0  0  0
  7 22  1  0  0  0  0
  7 23  1  0  0  0  0
  8 10  1  0  0  0  0
  9 13  2  0  0  0  0
  9 14  1  0  0  0  0
 10 11  1  0  0  0  0
 10 12  2  0  0  0  0
 11 15  2  0  0  0  0
 12 16  1  0  0  0  0
 13 18  1  0  0  0  0
 13 24  1  0  0  0  0
 14 19  2  0  0  0  0
 14 25  1  0  0  0  0
 15 17  1  0  0  0  0
 15 26  1  0  0  0  0
 16 17  2  0  0  0  0
 16 27  1  0  0  0  0
 18 20  2  0  0  0  0
 18 28  1  0  0  0  0
 19 20  1  0  0  0  0
 19 29  1  0  0  0  0
M  END
> <PUBCHEM_COMPOUND_CID>
9838356

> <PUBCHEM_COMPOUND_CANONICALIZED>
1

> <PUBCHEM_CACTVS_COMPLEXITY>
363

> <PUBCHEM_CACTVS_HBOND_ACCEPTOR>
5

> <PUBCHEM_CACTVS_HBOND_DONOR>
3

> <PUBCHEM_CACTVS_ROTATABLE_BOND>
1

> <PUBCHEM_CACTVS_SUBSKEYS>
AAADccBwOAAAAAAAAAAAAAAAAAAAAAAAAAA0YIAAAAAAAACRQAAAGgAACAAADQSgmAIwBoAABgCIAqBSAAACCAAkIAAIiAEGCMgMJzaGNRqCeWCl4BUIuQeI7PzOoAAACAAIAABAAAAQABAAAAAAAAAAAA==

> <PUBCHEM_IUPAC_OPENEYE_NAME>
5,7-dihydroxy-3-(4-hydroxyphenyl)chroman-4-one

> <PUBCHEM_IUPAC_CAS_NAME>
5,7-dihydroxy-3-(4-hydroxyphenyl)-3,4-dihydro-2H-1-benzopyran-4-one

> <PUBCHEM_IUPAC_NAME>
5,7-dihydroxy-3-(4-hydroxyphenyl)-2,3-dihydrochromen-4-one

> <PUBCHEM_IUPAC_SYSTEMATIC_NAME>
3-(4-hydroxyphenyl)-5,7-bis(oxidanyl)-2,3-dihydrochromen-4-one

> <PUBCHEM_IUPAC_TRADITIONAL_NAME>
5,7-dihydroxy-3-(4-hydroxyphenyl)chroman-4-one

> <PUBCHEM_IUPAC_INCHI>
InChI=1S/C15H12O5/c16-9-3-1-8(2-4-9)11-7-20-13-6-10(17)5-12(18)14(13)15(11)19/h1-6,11,16-18H,7H2

> <PUBCHEM_IUPAC_INCHIKEY>
UQGVUYNHDKMLSE-UHFFFAOYSA-N

> <PUBCHEM_XLOGP3_AA>
2.6

> <PUBCHEM_EXACT_MASS>
272.068473

> <PUBCHEM_MOLECULAR_FORMULA>
C15H12O5

> <PUBCHEM_MOLECULAR_WEIGHT>
272.25278

> <PUBCHEM_OPENEYE_CAN_SMILES>
C1C(C(=O)C2=C(C=C(C=C2O1)O)O)C3=CC=C(C=C3)O

> <PUBCHEM_OPENEYE_ISO_SMILES>
C1C(C(=O)C2=C(C=C(C=C2O1)O)O)C3=CC=C(C=C3)O

> <PUBCHEM_CACTVS_TPSA>
87

> <PUBCHEM_MONOISOTOPIC_WEIGHT>
272.068473

> <PUBCHEM_TOTAL_CHARGE>
0

> <PUBCHEM_HEAVY_ATOM_COUNT>
20

> <PUBCHEM_ATOM_DEF_STEREO_COUNT>
0

> <PUBCHEM_ATOM_UDEF_STEREO_COUNT>
1

> <PUBCHEM_BOND_DEF_STEREO_COUNT>
0

> <PUBCHEM_BOND_UDEF_STEREO_COUNT>
0

> <PUBCHEM_ISOTOPIC_ATOM_COUNT>
0

> <PUBCHEM_COMPONENT_COUNT>
1

> <PUBCHEM_CACTVS_TAUTO_COUNT>
66

> <PUBCHEM_COORDINATE_TYPE>
1
5
255

> <PUBCHEM_BONDANNOTATIONS>
10  11  8
10  12  8
11  15  8
12  16  8
13  18  8
14  19  8
15  17  8
16  17  8
18  20  8
19  20  8
6  9  3
9  13  8
9  14  8

$$$$

