6219
  -OEChem-06261201112D

 57 58  0     0  0  0  0  0  0999 V2000
    6.5000   -0.2990    0.0000 O   0  0  0  0  0  0  0  0  0  0  0  0
    5.0000   -1.1651    0.0000 O   0  0  0  0  0  0  0  0  0  0  0  0
    3.5000    1.4330    0.0000 N   0  0  0  0  0  0  0  0  0  0  0  0
    7.0000   -1.1651    0.0000 C   0  0  0  0  0  0  0  0  0  0  0  0
    7.5000   -0.2990    0.0000 C   0  0  0  0  0  0  0  0  0  0  0  0
    6.1340   -1.6651    0.0000 C   0  0  0  0  0  0  0  0  0  0  0  0
    7.8660   -1.6651    0.0000 C   0  0  0  0  0  0  0  0  0  0  0  0
    7.0000    0.5670    0.0000 C   0  0  0  0  0  0  0  0  0  0  0  0
    8.5000   -0.2990    0.0000 C   0  0  0  0  0  0  0  0  0  0  0  0
    7.8660   -2.6651    0.0000 C   0  0  0  0  0  0  0  0  0  0  0  0
    6.1340   -2.6651    0.0000 C   0  0  0  0  0  0  0  0  0  0  0  0
    7.5000    1.4330    0.0000 C   0  0  0  0  0  0  0  0  0  0  0  0
    9.0000    0.5670    0.0000 C   0  0  0  0  0  0  0  0  0  0  0  0
    7.0000   -3.1651    0.0000 C   0  0  0  0  0  0  0  0  0  0  0  0
    8.5000    1.4330    0.0000 C   0  0  0  0  0  0  0  0  0  0  0  0
    5.5000   -0.2990    0.0000 C   0  0  0  0  0  0  0  0  0  0  0  0
    5.0000    0.5670    0.0000 C   0  0  0  0  0  0  0  0  0  0  0  0
    4.0000    0.5670    0.0000 C   0  0  0  0  0  0  0  0  0  0  0  0
    2.5000    1.4330    0.0000 C   0  0  0  0  0  0  0  0  0  0  0  0
    4.0000    2.2990    0.0000 C   0  0  0  0  0  0  0  0  0  0  0  0
    2.0000    2.2990    0.0000 C   0  0  0  0  0  0  0  0  0  0  0  0
    3.5000    3.1651    0.0000 C   0  0  0  0  0  0  0  0  0  0  0  0
    7.8100   -0.8360    0.0000 H   0  0  0  0  0  0  0  0  0  0  0  0
    5.9219   -1.0824    0.0000 H   0  0  0  0  0  0  0  0  0  0  0  0
    5.5234   -1.7727    0.0000 H   0  0  0  0  0  0  0  0  0  0  0  0
    8.4766   -1.7727    0.0000 H   0  0  0  0  0  0  0  0  0  0  0  0
    8.0781   -1.0824    0.0000 H   0  0  0  0  0  0  0  0  0  0  0  0
    6.5250    0.9655    0.0000 H   0  0  0  0  0  0  0  0  0  0  0  0
    6.5250    0.1685    0.0000 H   0  0  0  0  0  0  0  0  0  0  0  0
    8.3923   -0.9096    0.0000 H   0  0  0  0  0  0  0  0  0  0  0  0
    9.0826   -0.5111    0.0000 H   0  0  0  0  0  0  0  0  0  0  0  0
    8.0781   -3.2477    0.0000 H   0  0  0  0  0  0  0  0  0  0  0  0
    8.4766   -2.5574    0.0000 H   0  0  0  0  0  0  0  0  0  0  0  0
    5.5234   -2.5574    0.0000 H   0  0  0  0  0  0  0  0  0  0  0  0
    5.9219   -3.2477    0.0000 H   0  0  0  0  0  0  0  0  0  0  0  0
    7.6077    2.0436    0.0000 H   0  0  0  0  0  0  0  0  0  0  0  0
    9.4750    0.1685    0.0000 H   0  0  0  0  0  0  0  0  0  0  0  0
    9.4750    0.9655    0.0000 H   0  0  0  0  0  0  0  0  0  0  0  0
    6.9174    1.6451    0.0000 H   0  0  0  0  0  0  0  0  0  0  0  0
    6.6015   -3.6400    0.0000 H   0  0  0  0  0  0  0  0  0  0  0  0
    7.3985   -3.6400    0.0000 H   0  0  0  0  0  0  0  0  0  0  0  0
    9.0826    1.6451    0.0000 H   0  0  0  0  0  0  0  0  0  0  0  0
    8.3923    2.0436    0.0000 H   0  0  0  0  0  0  0  0  0  0  0  0
    5.5826    0.7790    0.0000 H   0  0  0  0  0  0  0  0  0  0  0  0
    4.8923    1.1776    0.0000 H   0  0  0  0  0  0  0  0  0  0  0  0
    3.4174    0.3549    0.0000 H   0  0  0  0  0  0  0  0  0  0  0  0
    4.1077   -0.0436    0.0000 H   0  0  0  0  0  0  0  0  0  0  0  0
    4.4750    1.9005    0.0000 H   0  0  0  0  0  0  0  0  0  0  0  0
    4.4750    2.6976    0.0000 H   0  0  0  0  0  0  0  0  0  0  0  0
    1.9174    1.2210    0.0000 H   0  0  0  0  0  0  0  0  0  0  0  0
    2.6077    0.8224    0.0000 H   0  0  0  0  0  0  0  0  0  0  0  0
    4.0369    3.4751    0.0000 H   0  0  0  0  0  0  0  0  0  0  0  0
    3.1900    3.7020    0.0000 H   0  0  0  0  0  0  0  0  0  0  0  0
    2.9631    2.8551    0.0000 H   0  0  0  0  0  0  0  0  0  0  0  0
    2.5369    2.6090    0.0000 H   0  0  0  0  0  0  0  0  0  0  0  0
    1.6900    2.8360    0.0000 H   0  0  0  0  0  0  0  0  0  0  0  0
    1.4631    1.9890    0.0000 H   0  0  0  0  0  0  0  0  0  0  0  0
  1  4  1  0  0  0  0
  1 16  1  0  0  0  0
  2 16  2  0  0  0  0
  3 18  1  0  0  0  0
  3 19  1  0  0  0  0
  3 20  1  0  0  0  0
  4  5  1  0  0  0  0
  4  6  1  0  0  0  0
  4  7  1  0  0  0  0
  5  8  1  0  0  0  0
  5  9  1  0  0  0  0
  5 23  1  0  0  0  0
  6 11  1  0  0  0  0
  6 24  1  0  0  0  0
  6 25  1  0  0  0  0
  7 10  1  0  0  0  0
  7 26  1  0  0  0  0
  7 27  1  0  0  0  0
  8 12  1  0  0  0  0
  8 28  1  0  0  0  0
  8 29  1  0  0  0  0
  9 13  1  0  0  0  0
  9 30  1  0  0  0  0
  9 31  1  0  0  0  0
 10 14  1  0  0  0  0
 10 32  1  0  0  0  0
 10 33  1  0  0  0  0
 11 14  1  0  0  0  0
 11 34  1  0  0  0  0
 11 35  1  0  0  0  0
 12 15  1  0  0  0  0
 12 36  1  0  0  0  0
 12 39  1  0  0  0  0
 13 15  1  0  0  0  0
 13 37  1  0  0  0  0
 13 38  1  0  0  0  0
 14 40  1  0  0  0  0
 14 41  1  0  0  0  0
 15 42  1  0  0  0  0
 15 43  1  0  0  0  0
 16 17  1  0  0  0  0
 17 18  1  0  0  0  0
 17 44  1  0  0  0  0
 17 45  1  0  0  0  0
 18 46  1  0  0  0  0
 18 47  1  0  0  0  0
 19 21  1  0  0  0  0
 19 50  1  0  0  0  0
 19 51  1  0  0  0  0
 20 22  1  0  0  0  0
 20 48  1  0  0  0  0
 20 49  1  0  0  0  0
 21 55  1  0  0  0  0
 21 56  1  0  0  0  0
 21 57  1  0  0  0  0
 22 52  1  0  0  0  0
 22 53  1  0  0  0  0
 22 54  1  0  0  0  0
M  END
> <PUBCHEM_COMPOUND_CID>
6219

> <PUBCHEM_COMPOUND_CANONICALIZED>
1

> <PUBCHEM_CACTVS_COMPLEXITY>
326

> <PUBCHEM_CACTVS_HBOND_ACCEPTOR>
3

> <PUBCHEM_CACTVS_HBOND_DONOR>
0

> <PUBCHEM_CACTVS_ROTATABLE_BOND>
8

> <PUBCHEM_CACTVS_SUBSKEYS>
AAADcfB6MAAAAAAAAAAAAAAAAAAAAAAAAAAwYAAAAAAAAAAAAAAAHgAAAAAADUTBgAQCCAMABAAIAACQCAAAAAAAAAAAAAEIAAAAAAoAAAAGAAAGAACAAAGAwOAOgAAAAAAAAAAAAAAAAAAAAAAAAAAAAA==

> <PUBCHEM_IUPAC_OPENEYE_NAME>
(1-cyclohexylcyclohexyl) 3-(diethylamino)propanoate

> <PUBCHEM_IUPAC_CAS_NAME>
3-(diethylamino)propanoic acid (1-cyclohexylcyclohexyl) ester

> <PUBCHEM_IUPAC_NAME>
(1-cyclohexylcyclohexyl) 3-(diethylamino)propanoate

> <PUBCHEM_IUPAC_SYSTEMATIC_NAME>
(1-cyclohexylcyclohexyl) 3-(diethylamino)propanoate

> <PUBCHEM_IUPAC_TRADITIONAL_NAME>
3-(diethylamino)propionic acid (1-cyclohexylcyclohexyl) ester

> <PUBCHEM_IUPAC_INCHI>
InChI=1S/C19H35NO2/c1-3-20(4-2)16-13-18(21)22-19(14-9-6-10-15-19)17-11-7-5-8-12-17/h17H,3-16H2,1-2H3

> <PUBCHEM_IUPAC_INCHIKEY>
IHHSVHBYWHJESA-UHFFFAOYSA-N

> <PUBCHEM_XLOGP3_AA>
4.8

> <PUBCHEM_EXACT_MASS>
309.266779

> <PUBCHEM_MOLECULAR_FORMULA>
C19H35NO2

> <PUBCHEM_MOLECULAR_WEIGHT>
309.4867

> <PUBCHEM_OPENEYE_CAN_SMILES>
CCN(CC)CCC(=O)OC1(CCCCC1)C2CCCCC2

> <PUBCHEM_OPENEYE_ISO_SMILES>
CCN(CC)CCC(=O)OC1(CCCCC1)C2CCCCC2

> <PUBCHEM_CACTVS_TPSA>
29.5

> <PUBCHEM_MONOISOTOPIC_WEIGHT>
309.266779

> <PUBCHEM_TOTAL_CHARGE>
0

> <PUBCHEM_HEAVY_ATOM_COUNT>
22

> <PUBCHEM_ATOM_DEF_STEREO_COUNT>
0

> <PUBCHEM_ATOM_UDEF_STEREO_COUNT>
0

> <PUBCHEM_BOND_DEF_STEREO_COUNT>
0

> <PUBCHEM_BOND_UDEF_STEREO_COUNT>
0

> <PUBCHEM_ISOTOPIC_ATOM_COUNT>
0

> <PUBCHEM_COMPONENT_COUNT>
1

> <PUBCHEM_CACTVS_TAUTO_COUNT>
1

> <PUBCHEM_COORDINATE_TYPE>
1
5
255

$$$$

