87310
  -OEChem-07051212542D

 22 21  0     1  0  0  0  0  0999 V2000
    4.5981   -0.0950    0.0000 S   0  0  3  0  0  0  0  0  0  0  0  0
    4.5981   -1.0950    0.0000 O   0  0  0  0  0  0  0  0  0  0  0  0
    8.0622   -0.0950    0.0000 O   0  0  0  0  0  0  0  0  0  0  0  0
    7.1962    1.4050    0.0000 O   0  0  0  0  0  0  0  0  0  0  0  0
    6.3301   -1.0950    0.0000 N   0  0  0  0  0  0  0  0  0  0  0  0
    5.4641    0.4050    0.0000 C   0  0  0  0  0  0  0  0  0  0  0  0
    6.3301   -0.0950    0.0000 C   0  0  1  0  0  0  0  0  0  0  0  0
    3.7320    0.4050    0.0000 C   0  0  0  0  0  0  0  0  0  0  0  0
    7.1962    0.4050    0.0000 C   0  0  0  0  0  0  0  0  0  0  0  0
    2.8660   -0.0950    0.0000 C   0  0  0  0  0  0  0  0  0  0  0  0
    2.0000    0.4050    0.0000 C   0  0  0  0  0  0  0  0  0  0  0  0
    5.8626    0.8799    0.0000 H   0  0  0  0  0  0  0  0  0  0  0  0
    5.0656    0.8799    0.0000 H   0  0  0  0  0  0  0  0  0  0  0  0
    6.8671   -0.4050    0.0000 H   0  0  0  0  0  0  0  0  0  0  0  0
    4.1306    0.8799    0.0000 H   0  0  0  0  0  0  0  0  0  0  0  0
    3.3335    0.8799    0.0000 H   0  0  0  0  0  0  0  0  0  0  0  0
    5.7932   -1.4050    0.0000 H   0  0  0  0  0  0  0  0  0  0  0  0
    6.8671   -1.4050    0.0000 H   0  0  0  0  0  0  0  0  0  0  0  0
    2.8660   -0.7150    0.0000 H   0  0  0  0  0  0  0  0  0  0  0  0
    8.5991    0.2150    0.0000 H   0  0  0  0  0  0  0  0  0  0  0  0
    2.0000    1.0250    0.0000 H   0  0  0  0  0  0  0  0  0  0  0  0
    1.4631    0.0950    0.0000 H   0  0  0  0  0  0  0  0  0  0  0  0
  1  2  2  0  0  0  0
  1  6  1  0  0  0  0
  1  8  1  0  0  0  0
  3  9  1  0  0  0  0
  3 20  1  0  0  0  0
  4  9  2  0  0  0  0
  7  5  1  1  0  0  0
  5 17  1  0  0  0  0
  5 18  1  0  0  0  0
  6  7  1  0  0  0  0
  6 12  1  0  0  0  0
  6 13  1  0  0  0  0
  7  9  1  0  0  0  0
  7 14  1  0  0  0  0
  8 10  1  0  0  0  0
  8 15  1  0  0  0  0
  8 16  1  0  0  0  0
 10 11  2  0  0  0  0
 10 19  1  0  0  0  0
 11 21  1  0  0  0  0
 11 22  1  0  0  0  0
M  END
> <PUBCHEM_COMPOUND_CID>
87310

> <PUBCHEM_COMPOUND_CANONICALIZED>
1

> <PUBCHEM_CACTVS_COMPLEXITY>
181

> <PUBCHEM_CACTVS_HBOND_ACCEPTOR>
5

> <PUBCHEM_CACTVS_HBOND_DONOR>
2

> <PUBCHEM_CACTVS_ROTATABLE_BOND>
5

> <PUBCHEM_CACTVS_SUBSKEYS>
AAADccBiMABAAAAAAAAAAAAAAAAAAAAAAAAAAAAAAAAAAAAAAAAAHgQQCAAACCjFwASACABAAgqIACDSCEBAAAAAABAIAIGAAAACAAAgAQAAQAAAEAAgAAAAAAAAAAAAAAAAAAAAAAAAAAAAAAAAAAAAAA==

> <PUBCHEM_IUPAC_OPENEYE_NAME>
(2R)-3-allylsulfinyl-2-amino-propanoic acid

> <PUBCHEM_IUPAC_CAS_NAME>
(2R)-2-amino-3-prop-2-enylsulfinylpropanoic acid

> <PUBCHEM_IUPAC_NAME>
(2R)-2-amino-3-prop-2-enylsulfinylpropanoic acid

> <PUBCHEM_IUPAC_SYSTEMATIC_NAME>
(2R)-2-azanyl-3-prop-2-enylsulfinyl-propanoic acid

> <PUBCHEM_IUPAC_TRADITIONAL_NAME>
(2R)-3-allylsulfinyl-2-amino-propionic acid

> <PUBCHEM_IUPAC_INCHI>
InChI=1S/C6H11NO3S/c1-2-3-11(10)4-5(7)6(8)9/h2,5H,1,3-4,7H2,(H,8,9)/t5-,11?/m0/s1

> <PUBCHEM_IUPAC_INCHIKEY>
XUHLIQGRKRUKPH-ITZCMCNPSA-N

> <PUBCHEM_XLOGP3_AA>
-3.5

> <PUBCHEM_EXACT_MASS>
177.045964

> <PUBCHEM_MOLECULAR_FORMULA>
C6H11NO3S

> <PUBCHEM_MOLECULAR_WEIGHT>
177.22144

> <PUBCHEM_OPENEYE_CAN_SMILES>
C=CCS(=O)CC(C(=O)O)N

> <PUBCHEM_OPENEYE_ISO_SMILES>
C=CCS(=O)C[C@@H](C(=O)O)N

> <PUBCHEM_CACTVS_TPSA>
99.6

> <PUBCHEM_MONOISOTOPIC_WEIGHT>
177.045964

> <PUBCHEM_TOTAL_CHARGE>
0

> <PUBCHEM_HEAVY_ATOM_COUNT>
11

> <PUBCHEM_ATOM_DEF_STEREO_COUNT>
1

> <PUBCHEM_ATOM_UDEF_STEREO_COUNT>
1

> <PUBCHEM_BOND_DEF_STEREO_COUNT>
0

> <PUBCHEM_BOND_UDEF_STEREO_COUNT>
0

> <PUBCHEM_ISOTOPIC_ATOM_COUNT>
0

> <PUBCHEM_COMPONENT_COUNT>
1

> <PUBCHEM_CACTVS_TAUTO_COUNT>
1

> <PUBCHEM_COORDINATE_TYPE>
1
5
255

> <PUBCHEM_BONDANNOTATIONS>
1  6  3
7  5  5

$$$$

