9705
  -OEChem-06261203583D

 54 56  0     0  0  0  0  0  0999 V2000
   -6.7983   -1.0003   -1.5383 Cl  0  0  0  0  0  0  0  0  0  0  0  0
    6.7968   -0.9984    1.5415 Cl  0  0  0  0  0  0  0  0  0  0  0  0
   -3.6415   -0.6881    0.2313 N   0  0  0  0  0  0  0  0  0  0  0  0
    3.6416   -0.6885   -0.2315 N   0  0  0  0  0  0  0  0  0  0  0  0
   -1.4855   -1.8325   -0.0428 C   0  0  0  0  0  0  0  0  0  0  0  0
    1.4854   -1.8325    0.0420 C   0  0  0  0  0  0  0  0  0  0  0  0
   -0.6934   -3.0948    0.3205 C   0  0  0  0  0  0  0  0  0  0  0  0
   -0.6934   -0.5695    0.3187 C   0  0  0  0  0  0  0  0  0  0  0  0
    0.6934   -3.0952   -0.3201 C   0  0  0  0  0  0  0  0  0  0  0  0
    0.6936   -0.5701   -0.3218 C   0  0  0  0  0  0  0  0  0  0  0  0
   -2.8467   -1.8323    0.6501 C   0  0  0  0  0  0  0  0  0  0  0  0
    2.8473   -1.8331   -0.6496 C   0  0  0  0  0  0  0  0  0  0  0  0
   -4.9371   -0.6794    0.8983 C   0  0  0  0  0  0  0  0  0  0  0  0
    4.9380   -0.6806   -0.8973 C   0  0  0  0  0  0  0  0  0  0  0  0
   -5.7712    0.5052    0.4883 C   0  0  0  0  0  0  0  0  0  0  0  0
    5.7716    0.5046   -0.4879 C   0  0  0  0  0  0  0  0  0  0  0  0
   -6.6336    0.4381   -0.5986 C   0  0  0  0  0  0  0  0  0  0  0  0
    6.6330    0.4389    0.6000 C   0  0  0  0  0  0  0  0  0  0  0  0
   -5.6536    1.6733    1.2320 C   0  0  0  0  0  0  0  0  0  0  0  0
    5.6546    1.6718   -1.2330 C   0  0  0  0  0  0  0  0  0  0  0  0
   -7.3906    1.5566   -0.9478 C   0  0  0  0  0  0  0  0  0  0  0  0
    7.3895    1.5577    0.9486 C   0  0  0  0  0  0  0  0  0  0  0  0
   -6.4105    2.7917    0.8825 C   0  0  0  0  0  0  0  0  0  0  0  0
    6.4111    2.7906   -0.8843 C   0  0  0  0  0  0  0  0  0  0  0  0
   -7.2789    2.7333   -0.2073 C   0  0  0  0  0  0  0  0  0  0  0  0
    7.2785    2.7336    0.2065 C   0  0  0  0  0  0  0  0  0  0  0  0
   -1.6448   -1.8393   -1.1307 H   0  0  0  0  0  0  0  0  0  0  0  0
    1.6438   -1.8379    1.1300 H   0  0  0  0  0  0  0  0  0  0  0  0
   -0.5869   -3.1693    1.4104 H   0  0  0  0  0  0  0  0  0  0  0  0
   -1.2407   -3.9870   -0.0063 H   0  0  0  0  0  0  0  0  0  0  0  0
   -1.2236    0.3312   -0.0119 H   0  0  0  0  0  0  0  0  0  0  0  0
   -0.5861   -0.4932    1.4086 H   0  0  0  0  0  0  0  0  0  0  0  0
    0.5870   -3.1708   -1.4099 H   0  0  0  0  0  0  0  0  0  0  0  0
    1.2407   -3.9871    0.0077 H   0  0  0  0  0  0  0  0  0  0  0  0
    1.2239    0.3310    0.0074 H   0  0  0  0  0  0  0  0  0  0  0  0
    0.5864   -0.4957   -1.4117 H   0  0  0  0  0  0  0  0  0  0  0  0
   -3.3756   -2.7616    0.4036 H   0  0  0  0  0  0  0  0  0  0  0  0
   -2.7041   -1.8145    1.7380 H   0  0  0  0  0  0  0  0  0  0  0  0
    3.3760   -2.7622   -0.4016 H   0  0  0  0  0  0  0  0  0  0  0  0
    2.7056   -1.8166   -1.7377 H   0  0  0  0  0  0  0  0  0  0  0  0
   -3.7765   -0.7228   -0.7792 H   0  0  0  0  0  0  0  0  0  0  0  0
    3.7757   -0.7220    0.7792 H   0  0  0  0  0  0  0  0  0  0  0  0
   -5.4802   -1.6167    0.7288 H   0  0  0  0  0  0  0  0  0  0  0  0
   -4.7874   -0.6358    1.9861 H   0  0  0  0  0  0  0  0  0  0  0  0
    5.4809   -1.6177   -0.7261 H   0  0  0  0  0  0  0  0  0  0  0  0
    4.7892   -0.6383   -1.9852 H   0  0  0  0  0  0  0  0  0  0  0  0
   -4.9794    1.7344    2.0819 H   0  0  0  0  0  0  0  0  0  0  0  0
    4.9812    1.7317   -2.0836 H   0  0  0  0  0  0  0  0  0  0  0  0
   -8.0720    1.5276   -1.7943 H   0  0  0  0  0  0  0  0  0  0  0  0
    8.0701    1.5298    1.7958 H   0  0  0  0  0  0  0  0  0  0  0  0
   -6.3232    3.7082    1.4587 H   0  0  0  0  0  0  0  0  0  0  0  0
    6.3243    3.7064   -1.4617 H   0  0  0  0  0  0  0  0  0  0  0  0
   -7.8680    3.6043   -0.4793 H   0  0  0  0  0  0  0  0  0  0  0  0
    7.8673    3.6049    0.4780 H   0  0  0  0  0  0  0  0  0  0  0  0
  1 17  1  0  0  0  0
  2 18  1  0  0  0  0
  3 11  1  0  0  0  0
  3 13  1  0  0  0  0
  3 41  1  0  0  0  0
  4 12  1  0  0  0  0
  4 14  1  0  0  0  0
  4 42  1  0  0  0  0
  5  7  1  0  0  0  0
  5  8  1  0  0  0  0
  5 11  1  0  0  0  0
  5 27  1  0  0  0  0
  6  9  1  0  0  0  0
  6 10  1  0  0  0  0
  6 12  1  0  0  0  0
  6 28  1  0  0  0  0
  7  9  1  0  0  0  0
  7 29  1  0  0  0  0
  7 30  1  0  0  0  0
  8 10  1  0  0  0  0
  8 31  1  0  0  0  0
  8 32  1  0  0  0  0
  9 33  1  0  0  0  0
  9 34  1  0  0  0  0
 10 35  1  0  0  0  0
 10 36  1  0  0  0  0
 11 37  1  0  0  0  0
 11 38  1  0  0  0  0
 12 39  1  0  0  0  0
 12 40  1  0  0  0  0
 13 15  1  0  0  0  0
 13 43  1  0  0  0  0
 13 44  1  0  0  0  0
 14 16  1  0  0  0  0
 14 45  1  0  0  0  0
 14 46  1  0  0  0  0
 15 17  1  0  0  0  0
 15 19  2  0  0  0  0
 16 18  1  0  0  0  0
 16 20  2  0  0  0  0
 17 21  2  0  0  0  0
 18 22  2  0  0  0  0
 19 23  1  0  0  0  0
 19 47  1  0  0  0  0
 20 24  1  0  0  0  0
 20 48  1  0  0  0  0
 21 25  1  0  0  0  0
 21 49  1  0  0  0  0
 22 26  1  0  0  0  0
 22 50  1  0  0  0  0
 23 25  2  0  0  0  0
 23 51  1  0  0  0  0
 24 26  2  0  0  0  0
 24 52  1  0  0  0  0
 25 53  1  0  0  0  0
 26 54  1  0  0  0  0
M  END
> <PUBCHEM_COMPOUND_CID>
9705

> <PUBCHEM_CONFORMER_RMSD>
1

> <PUBCHEM_CONFORMER_DIVERSEORDER>
1
38
124
10
156
151
180
122
67
202
130
98
127
172
142
66
138
5
187
105
46
112
34
28
39
169
37
48
25
140
74
161
118
81
114
152
62
20
71
2
203
100
41
186
109
139
60
182
117
72
157
173
77
6
14
145
65
43
144
189
164
183
160
149
99
59
197
56
159
177
123
204
32
107
94
175
87
44
29
129
115
22
31
163
184
73
58
146
194
193
141
17
90
27
196
50
7
188
201
55
26
40
185
131
24
68
80
36
167
11
113
134
136
137
148
104
9
79
170
199
154
97
85
143
91
86
119
12
4
174
78
106
198
205
30
84
165
158
96
53
126
69
191
150
116
16
45
190
82
135
13
103
57
178
35
176
19
155
93
3
88
47
8
181
101
132
52
120
108
23
171
70
76
15
89
102
110
42
162
21
64
33
168
179
54
195
200
125
121
111
61
133
147
49
83
95
166
92
75
63
153
18
51
192
128

> <PUBCHEM_MMFF94_PARTIAL_CHARGES>
30
1 -0.18
11 0.27
12 0.27
13 0.41
14 0.41
15 -0.14
16 -0.14
17 0.18
18 0.18
19 -0.15
2 -0.18
20 -0.15
21 -0.15
22 -0.15
23 -0.15
24 -0.15
25 -0.15
26 -0.15
3 -0.9
4 -0.9
41 0.36
42 0.36
47 0.15
48 0.15
49 0.15
50 0.15
51 0.15
52 0.15
53 0.15
54 0.15

> <PUBCHEM_EFFECTIVE_ROTOR_COUNT>
9.2

> <PUBCHEM_PHARMACOPHORE_FEATURES>
7
1 3 cation
1 3 donor
1 4 cation
1 4 donor
6 15 17 19 21 23 25 rings
6 16 18 20 22 24 26 rings
6 5 6 7 8 9 10 rings

> <PUBCHEM_HEAVY_ATOM_COUNT>
26

> <PUBCHEM_ATOM_DEF_STEREO_COUNT>
0

> <PUBCHEM_ATOM_UDEF_STEREO_COUNT>
0

> <PUBCHEM_BOND_DEF_STEREO_COUNT>
0

> <PUBCHEM_BOND_UDEF_STEREO_COUNT>
0

> <PUBCHEM_ISOTOPIC_ATOM_COUNT>
0

> <PUBCHEM_COMPONENT_COUNT>
1

> <PUBCHEM_CACTVS_TAUTO_COUNT>
1

> <PUBCHEM_CONFORMER_ID>
000025E900000001

> <PUBCHEM_MMFF94_ENERGY>
48.6334

> <PUBCHEM_FEATURE_SELFOVERLAP>
35.52

> <PUBCHEM_SHAPE_FINGERPRINT>
10280341 67 17970636178410742656
10554248 39 17677043663662994390
10883706 163 18201720669451586061
11297750 10 17413031246694808398
11386260 185 17894899751519870356
11475781 23 18260821601487645454
11497681 19 7925638804468825282
125118 31 18341891883833018044
12661589 4 8214147309822927756
12778500 126 18131920356390726114
13248334 5 18122062267358348158
14123256 34 8934999265547444471
14251757 52 18342460348181465424
14347424 109 18272656762303785378
14931854 50 17748818627351225912
15183329 4 18334571317877071064
15803439 3 16588021303347957527
16994733 274 18411422799590920624
17134984 74 5978390513316797292
20058555 10 18409725179713932193
20398071 356 9295287235937524701
20691028 202 18411140191196679908
20715895 44 18410288091470979532
21130935 74 18060699485595172842
21150785 3 16225767410804835807
21298829 104 18410852157356814436
21424621 283 18412260636047014675
21585481 151 11600008768865850168
21585482 111 18342734139567867348
21682296 61 8934994863696414127
24771293 8 18411980243444157148
2748736 6 18410856559639802566
2835820 25 14764081120538827231
2835820 40 18053658084814989876
312425 54 16773798057100924538
3504750 166 11311766264670252923
3918712 181 18408889563566870641
393628 179 18260838067981451272
393628 194 18411696587225810269
397638 26 15841550790946259049
4169191 19 18413670210285866517
44555599 121 18341332206365127716
465052 167 10807934856282269322
5470011 282 5978382820223079874
6328613 192 18410853261411134377
636775 72 18264770965613801784
6712543 237 15626220213100706129
999808 66 9727633895450247001

> <PUBCHEM_SHAPE_MULTIPOLES>
528.85
28.17
3.68
1.23
0.01
0.5
0
26.26
0
0
0
0
0.18
-1.33

> <PUBCHEM_SHAPE_SELFOVERLAP>
1083.49

> <PUBCHEM_SHAPE_VOLUME>
302.6

> <PUBCHEM_COORDINATE_TYPE>
2
5
10

$$$$

