440343
  -OEChem-07051212492D

 25 25  0     1  0  0  0  0  0999 V2000
    6.0010   -2.1550    0.0000 O   0  0  0  0  0  0  0  0  0  0  0  0
    2.5369    2.8450    0.0000 O   0  0  0  0  0  0  0  0  0  0  0  0
    4.2690   -3.1550    0.0000 O   0  0  0  0  0  0  0  0  0  0  0  0
    4.2690    2.8450    0.0000 O   0  0  0  0  0  0  0  0  0  0  0  0
    4.2690   -0.1550    0.0000 N   0  3  0  0  0  0  0  0  0  0  0  0
    2.5369    0.8450    0.0000 N   0  0  0  0  0  0  0  0  0  0  0  0
    4.2690    0.8450    0.0000 C   0  0  0  0  0  0  0  0  0  0  0  0
    3.4030    1.3450    0.0000 C   0  0  1  0  0  0  0  0  0  0  0  0
    5.1350   -0.6550    0.0000 C   0  0  0  0  0  0  0  0  0  0  0  0
    3.4030   -0.6550    0.0000 C   0  0  0  0  0  0  0  0  0  0  0  0
    5.1350   -1.6550    0.0000 C   0  0  0  0  0  0  0  0  0  0  0  0
    3.4030    2.3450    0.0000 C   0  0  0  0  0  0  0  0  0  0  0  0
    3.4030   -1.6550    0.0000 C   0  0  0  0  0  0  0  0  0  0  0  0
    4.2690   -2.1550    0.0000 C   0  0  0  0  0  0  0  0  0  0  0  0
    4.8796    0.7373    0.0000 H   0  0  0  0  0  0  0  0  0  0  0  0
    4.4810    1.4276    0.0000 H   0  0  0  0  0  0  0  0  0  0  0  0
    3.4030    0.7250    0.0000 H   0  0  0  0  0  0  0  0  0  0  0  0
    5.6720   -0.3450    0.0000 H   0  0  0  0  0  0  0  0  0  0  0  0
    2.8660   -0.3450    0.0000 H   0  0  0  0  0  0  0  0  0  0  0  0
    2.8660   -1.9650    0.0000 H   0  0  0  0  0  0  0  0  0  0  0  0
    2.0000    1.1550    0.0000 H   0  0  0  0  0  0  0  0  0  0  0  0
    2.5369    0.2250    0.0000 H   0  0  0  0  0  0  0  0  0  0  0  0
    6.5380   -1.8450    0.0000 H   0  0  0  0  0  0  0  0  0  0  0  0
    2.5369    3.4650    0.0000 H   0  0  0  0  0  0  0  0  0  0  0  0
    3.7320   -3.4650    0.0000 H   0  0  0  0  0  0  0  0  0  0  0  0
  1 11  1  0  0  0  0
  1 23  1  0  0  0  0
  2 12  1  0  0  0  0
  2 24  1  0  0  0  0
  3 14  1  0  0  0  0
  3 25  1  0  0  0  0
  4 12  2  0  0  0  0
  5  7  1  0  0  0  0
  5  9  2  0  0  0  0
  5 10  1  0  0  0  0
  8  6  1  6  0  0  0
  6 21  1  0  0  0  0
  6 22  1  0  0  0  0
  7  8  1  0  0  0  0
  7 15  1  0  0  0  0
  7 16  1  0  0  0  0
  8 12  1  0  0  0  0
  8 17  1  0  0  0  0
  9 11  1  0  0  0  0
  9 18  1  0  0  0  0
 10 13  2  0  0  0  0
 10 19  1  0  0  0  0
 11 14  2  0  0  0  0
 13 14  1  0  0  0  0
 13 20  1  0  0  0  0
M  CHG  1   5   1
M  END
> <PUBCHEM_COMPOUND_CID>
440343

> <PUBCHEM_COMPOUND_CANONICALIZED>
1

> <PUBCHEM_CACTVS_COMPLEXITY>
212

> <PUBCHEM_CACTVS_HBOND_ACCEPTOR>
5

> <PUBCHEM_CACTVS_HBOND_DONOR>
4

> <PUBCHEM_CACTVS_ROTATABLE_BOND>
3

> <PUBCHEM_CACTVS_SUBSKEYS>
AAADccBzOAAAAAAAAAAAAAAAAAAAAAAAAAAsAAAAAAAAAAABgAAAHgAQCAAACCzBkgQ8jpNMEgCoADD3TASCgCAxYiAI2KG/7JgLZmrSkJOUcAlm0BnZ2AYwAAAAAAAAAAAAAAAAAAAAAAAAAAAAAAAAAA==

> <PUBCHEM_IUPAC_OPENEYE_NAME>
(2S)-2-amino-3-(3,4-dihydroxypyridin-1-ium-1-yl)propanoic acid

> <PUBCHEM_IUPAC_CAS_NAME>
(2S)-2-amino-3-(3,4-dihydroxy-1-pyridin-1-iumyl)propanoic acid

> <PUBCHEM_IUPAC_NAME>
(2S)-2-amino-3-(3,4-dihydroxypyridin-1-ium-1-yl)propanoic acid

> <PUBCHEM_IUPAC_SYSTEMATIC_NAME>
(2S)-2-azanyl-3-[3,4-bis(oxidanyl)pyridin-1-ium-1-yl]propanoic acid

> <PUBCHEM_IUPAC_TRADITIONAL_NAME>
(2S)-2-amino-3-(3,4-dihydroxypyridin-1-ium-1-yl)propionic acid

> <PUBCHEM_IUPAC_INCHI>
InChI=1S/C8H10N2O4/c9-5(8(13)14)3-10-2-1-6(11)7(12)4-10/h1-2,4-5H,3,9H2,(H2,12,13,14)/p+1/t5-/m0/s1

> <PUBCHEM_IUPAC_INCHIKEY>
PWDJFVLCTVHYOX-YFKPBYRVSA-O

> <PUBCHEM_XLOGP3_AA>
-3.4

> <PUBCHEM_EXACT_MASS>
199.071882

> <PUBCHEM_MOLECULAR_FORMULA>
C8H11N2O4+

> <PUBCHEM_MOLECULAR_WEIGHT>
199.18394

> <PUBCHEM_OPENEYE_CAN_SMILES>
C1=C[N+](=CC(=C1O)O)CC(C(=O)O)N

> <PUBCHEM_OPENEYE_ISO_SMILES>
C1=C[N+](=CC(=C1O)O)C[C@@H](C(=O)O)N

> <PUBCHEM_CACTVS_TPSA>
108

> <PUBCHEM_MONOISOTOPIC_WEIGHT>
199.071882

> <PUBCHEM_TOTAL_CHARGE>
1

> <PUBCHEM_HEAVY_ATOM_COUNT>
14

> <PUBCHEM_ATOM_DEF_STEREO_COUNT>
1

> <PUBCHEM_ATOM_UDEF_STEREO_COUNT>
0

> <PUBCHEM_BOND_DEF_STEREO_COUNT>
0

> <PUBCHEM_BOND_UDEF_STEREO_COUNT>
0

> <PUBCHEM_ISOTOPIC_ATOM_COUNT>
0

> <PUBCHEM_COMPONENT_COUNT>
1

> <PUBCHEM_CACTVS_TAUTO_COUNT>
8

> <PUBCHEM_COORDINATE_TYPE>
1
5
255

> <PUBCHEM_BONDANNOTATIONS>
10  13  8
11  14  8
13  14  8
5  10  8
5  9  8
8  6  6
9  11  8

$$$$

