9682
  -OEChem-06261203562D

 45 46  0     0  0  0  0  0  0999 V2000
    3.1116    0.0000    0.0000 I   0  5  0  0  0  0  0  0  0  0  0  0
    6.7319    5.2221    0.0000 Cl  0  0  0  0  0  0  0  0  0  0  0  0
    3.2018    3.1980    0.0000 S   0  0  0  0  0  0  0  0  0  0  0  0
    1.4697    8.1980    0.0000 N   0  3  0  0  0  0  0  0  0  0  0  0
    3.2018    5.1980    0.0000 N   0  0  0  0  0  0  0  0  0  0  0  0
    2.3358    7.6980    0.0000 C   0  0  0  0  0  0  0  0  0  0  0  0
    2.3358    6.6980    0.0000 C   0  0  0  0  0  0  0  0  0  0  0  0
    3.2018    6.1980    0.0000 C   0  0  0  0  0  0  0  0  0  0  0  0
    0.6037    8.6980    0.0000 C   0  0  0  0  0  0  0  0  0  0  0  0
    1.9697    9.0640    0.0000 C   0  0  0  0  0  0  0  0  0  0  0  0
    0.9697    7.3320    0.0000 C   0  0  0  0  0  0  0  0  0  0  0  0
    4.0678    4.6980    0.0000 C   0  0  0  0  0  0  0  0  0  0  0  0
    2.3358    4.6980    0.0000 C   0  0  0  0  0  0  0  0  0  0  0  0
    4.0678    3.6980    0.0000 C   0  0  0  0  0  0  0  0  0  0  0  0
    2.3358    3.6980    0.0000 C   0  0  0  0  0  0  0  0  0  0  0  0
    4.9617    5.2326    0.0000 C   0  0  0  0  0  0  0  0  0  0  0  0
    1.4418    5.2326    0.0000 C   0  0  0  0  0  0  0  0  0  0  0  0
    4.9617    3.1633    0.0000 C   0  0  0  0  0  0  0  0  0  0  0  0
    1.4418    3.1633    0.0000 C   0  0  0  0  0  0  0  0  0  0  0  0
    5.8678    4.7188    0.0000 C   0  0  0  0  0  0  0  0  0  0  0  0
    0.5357    4.7188    0.0000 C   0  0  0  0  0  0  0  0  0  0  0  0
    5.8678    3.6772    0.0000 C   0  0  0  0  0  0  0  0  0  0  0  0
    0.5357    3.6772    0.0000 C   0  0  0  0  0  0  0  0  0  0  0  0
    2.9463    7.5903    0.0000 H   0  0  0  0  0  0  0  0  0  0  0  0
    2.5478    8.2806    0.0000 H   0  0  0  0  0  0  0  0  0  0  0  0
    1.7252    6.8056    0.0000 H   0  0  0  0  0  0  0  0  0  0  0  0
    2.1237    6.1154    0.0000 H   0  0  0  0  0  0  0  0  0  0  0  0
    3.8124    6.0903    0.0000 H   0  0  0  0  0  0  0  0  0  0  0  0
    3.4138    6.7806    0.0000 H   0  0  0  0  0  0  0  0  0  0  0  0
    0.9137    9.2349    0.0000 H   0  0  0  0  0  0  0  0  0  0  0  0
    0.0668    9.0080    0.0000 H   0  0  0  0  0  0  0  0  0  0  0  0
    0.4328    7.6420    0.0000 H   0  0  0  0  0  0  0  0  0  0  0  0
    0.6597    6.7950    0.0000 H   0  0  0  0  0  0  0  0  0  0  0  0
    1.5067    7.0220    0.0000 H   0  0  0  0  0  0  0  0  0  0  0  0
    2.5067    8.7540    0.0000 H   0  0  0  0  0  0  0  0  0  0  0  0
    2.2797    9.6009    0.0000 H   0  0  0  0  0  0  0  0  0  0  0  0
    1.4328    9.3740    0.0000 H   0  0  0  0  0  0  0  0  0  0  0  0
    0.2937    8.1610    0.0000 H   0  0  0  0  0  0  0  0  0  0  0  0
    4.9546    5.8526    0.0000 H   0  0  0  0  0  0  0  0  0  0  0  0
    1.4490    5.8526    0.0000 H   0  0  0  0  0  0  0  0  0  0  0  0
    4.9546    2.5434    0.0000 H   0  0  0  0  0  0  0  0  0  0  0  0
    1.4490    2.5434    0.0000 H   0  0  0  0  0  0  0  0  0  0  0  0
    0.0000    5.0309    0.0000 H   0  0  0  0  0  0  0  0  0  0  0  0
    6.4035    3.3651    0.0000 H   0  0  0  0  0  0  0  0  0  0  0  0
    0.0000    3.3651    0.0000 H   0  0  0  0  0  0  0  0  0  0  0  0
  2 20  1  0  0  0  0
  3 14  1  0  0  0  0
  3 15  1  0  0  0  0
  4  6  1  0  0  0  0
  4  9  1  0  0  0  0
  4 10  1  0  0  0  0
  4 11  1  0  0  0  0
  5  8  1  0  0  0  0
  5 12  1  0  0  0  0
  5 13  1  0  0  0  0
  6  7  1  0  0  0  0
  6 24  1  0  0  0  0
  6 25  1  0  0  0  0
  7  8  1  0  0  0  0
  7 26  1  0  0  0  0
  7 27  1  0  0  0  0
  8 28  1  0  0  0  0
  8 29  1  0  0  0  0
  9 30  1  0  0  0  0
  9 31  1  0  0  0  0
  9 38  1  0  0  0  0
 10 35  1  0  0  0  0
 10 36  1  0  0  0  0
 10 37  1  0  0  0  0
 11 32  1  0  0  0  0
 11 33  1  0  0  0  0
 11 34  1  0  0  0  0
 12 14  2  0  0  0  0
 12 16  1  0  0  0  0
 13 15  1  0  0  0  0
 13 17  2  0  0  0  0
 14 18  1  0  0  0  0
 15 19  2  0  0  0  0
 16 20  2  0  0  0  0
 16 39  1  0  0  0  0
 17 21  1  0  0  0  0
 17 40  1  0  0  0  0
 18 22  2  0  0  0  0
 18 41  1  0  0  0  0
 19 23  1  0  0  0  0
 19 42  1  0  0  0  0
 20 22  1  0  0  0  0
 21 23  2  0  0  0  0
 21 43  1  0  0  0  0
 22 44  1  0  0  0  0
 23 45  1  0  0  0  0
M  CHG  2   1  -1   4   1
M  END
> <PUBCHEM_COMPOUND_CID>
9682

> <PUBCHEM_COMPOUND_CANONICALIZED>
1

> <PUBCHEM_CACTVS_COMPLEXITY>
371

> <PUBCHEM_CACTVS_HBOND_ACCEPTOR>
3

> <PUBCHEM_CACTVS_HBOND_DONOR>
0

> <PUBCHEM_CACTVS_ROTATABLE_BOND>
4

> <PUBCHEM_CACTVS_SUBSKEYS>
AAADceB7AABEAgAAAAAAAAAAAAAAAAAAAAA8YIAAAAAAAACxQAAAHAYAAAAACArBUCQywYMAAAiAACRCQACCAAAhDxAIiBwIZogIIGLh05GEIAhggADoyAcQAAAAAAIAAAIAAQAABAAABAACAAAAAAAAAA==

> <PUBCHEM_IUPAC_OPENEYE_NAME>
3-(2-chlorophenothiazin-10-yl)propyl-trimethyl-ammonium iodide

> <PUBCHEM_IUPAC_CAS_NAME>
3-(2-chloro-10-phenothiazinyl)propyl-trimethylammonium iodide

> <PUBCHEM_IUPAC_NAME>
3-(2-chlorophenothiazin-10-yl)propyl-trimethylazanium iodide

> <PUBCHEM_IUPAC_SYSTEMATIC_NAME>
3-(2-chloranylphenothiazin-10-yl)propyl-trimethyl-azanium iodide

> <PUBCHEM_IUPAC_TRADITIONAL_NAME>
3-(2-chlorophenothiazin-10-yl)propyl-trimethyl-ammonium iodide

> <PUBCHEM_IUPAC_INCHI>
InChI=1S/C18H22ClN2S.HI/c1-21(2,3)12-6-11-20-15-7-4-5-8-17(15)22-18-10-9-14(19)13-16(18)20;/h4-5,7-10,13H,6,11-12H2,1-3H3;1H/q+1;/p-1

> <PUBCHEM_IUPAC_INCHIKEY>
SHVVOGYMOKHKHG-UHFFFAOYSA-M

> <PUBCHEM_EXACT_MASS>
460.023695

> <PUBCHEM_MOLECULAR_FORMULA>
C18H22ClIN2S

> <PUBCHEM_MOLECULAR_WEIGHT>
460.80315

> <PUBCHEM_OPENEYE_CAN_SMILES>
C[N+](C)(C)CCCN1C2=CC=CC=C2SC3=C1C=C(C=C3)Cl.[I-]

> <PUBCHEM_OPENEYE_ISO_SMILES>
C[N+](C)(C)CCCN1C2=CC=CC=C2SC3=C1C=C(C=C3)Cl.[I-]

> <PUBCHEM_CACTVS_TPSA>
28.5

> <PUBCHEM_MONOISOTOPIC_WEIGHT>
460.023695

> <PUBCHEM_TOTAL_CHARGE>
0

> <PUBCHEM_HEAVY_ATOM_COUNT>
23

> <PUBCHEM_ATOM_DEF_STEREO_COUNT>
0

> <PUBCHEM_ATOM_UDEF_STEREO_COUNT>
0

> <PUBCHEM_BOND_DEF_STEREO_COUNT>
0

> <PUBCHEM_BOND_UDEF_STEREO_COUNT>
0

> <PUBCHEM_ISOTOPIC_ATOM_COUNT>
0

> <PUBCHEM_COMPONENT_COUNT>
2

> <PUBCHEM_CACTVS_TAUTO_COUNT>
1

> <PUBCHEM_COORDINATE_TYPE>
1
5
255

> <PUBCHEM_BONDANNOTATIONS>
12  14  8
12  16  8
13  15  8
13  17  8
14  18  8
15  19  8
16  20  8
17  21  8
18  22  8
19  23  8
20  22  8
21  23  8

$$$$

