439692
  -OEChem-07051212472D

 18 18  0     1  0  0  0  0  0999 V2000
    4.2690   -1.6550    0.0000 O   0  0  0  0  0  0  0  0  0  0  0  0
    4.2690    1.3450    0.0000 O   0  0  0  0  0  0  0  0  0  0  0  0
    6.0010    0.3450    0.0000 O   0  0  0  0  0  0  0  0  0  0  0  0
    2.5369    0.3450    0.0000 O   0  0  0  0  0  0  0  0  0  0  0  0
    2.5369   -1.6550    0.0000 O   0  0  0  0  0  0  0  0  0  0  0  0
    4.2690    0.3450    0.0000 C   0  0  1  0  0  0  0  0  0  0  0  0
    5.1350   -0.1550    0.0000 C   0  0  1  0  0  0  0  0  0  0  0  0
    3.4030   -0.1550    0.0000 C   0  0  2  0  0  0  0  0  0  0  0  0
    5.1350   -1.1550    0.0000 C   0  0  0  0  0  0  0  0  0  0  0  0
    3.4030   -1.1550    0.0000 C   0  0  0  0  0  0  0  0  0  0  0  0
    4.8059    0.6550    0.0000 H   0  0  0  0  0  0  0  0  0  0  0  0
    5.1350    0.4650    0.0000 H   0  0  0  0  0  0  0  0  0  0  0  0
    3.4030    0.4650    0.0000 H   0  0  0  0  0  0  0  0  0  0  0  0
    5.3471   -1.7376    0.0000 H   0  0  0  0  0  0  0  0  0  0  0  0
    5.7456   -1.0473    0.0000 H   0  0  0  0  0  0  0  0  0  0  0  0
    4.8059    1.6550    0.0000 H   0  0  0  0  0  0  0  0  0  0  0  0
    6.5380    0.0350    0.0000 H   0  0  0  0  0  0  0  0  0  0  0  0
    2.0000    0.0350    0.0000 H   0  0  0  0  0  0  0  0  0  0  0  0
  1  9  1  0  0  0  0
  1 10  1  0  0  0  0
  6  2  1  1  0  0  0
  2 16  1  0  0  0  0
  7  3  1  6  0  0  0
  3 17  1  0  0  0  0
  8  4  1  6  0  0  0
  4 18  1  0  0  0  0
  5 10  2  0  0  0  0
  6  7  1  0  0  0  0
  6  8  1  0  0  0  0
  6 11  1  0  0  0  0
  7  9  1  0  0  0  0
  7 12  1  0  0  0  0
  8 10  1  0  0  0  0
  8 13  1  0  0  0  0
  9 14  1  0  0  0  0
  9 15  1  0  0  0  0
M  END
> <PUBCHEM_COMPOUND_CID>
439692

> <PUBCHEM_COMPOUND_CANONICALIZED>
1

> <PUBCHEM_CACTVS_COMPLEXITY>
145

> <PUBCHEM_CACTVS_HBOND_ACCEPTOR>
5

> <PUBCHEM_CACTVS_HBOND_DONOR>
3

> <PUBCHEM_CACTVS_ROTATABLE_BOND>
0

> <PUBCHEM_CACTVS_SUBSKEYS>
AAADccBgOAAAAAAAAAAAAAAAAAAAAAAAAAAkAAAAAAAAAAAAAAAAGgAACAAACBSggAIACAAABgAIAACQCAIAAAAAAAAAAAFAAAABEBYAAAACQAAFIAADAADKBAAAAAAAAAAAAAAAAAAAAAAAAAAAAAAAAA==

> <PUBCHEM_IUPAC_OPENEYE_NAME>
(3R,4S,5R)-3,4,5-trihydroxytetrahydropyran-2-one

> <PUBCHEM_IUPAC_CAS_NAME>
(3R,4S,5R)-3,4,5-trihydroxy-2-oxanone

> <PUBCHEM_IUPAC_NAME>
(3R,4S,5R)-3,4,5-trihydroxyoxan-2-one

> <PUBCHEM_IUPAC_SYSTEMATIC_NAME>
(3R,4S,5R)-3,4,5-tris(oxidanyl)oxan-2-one

> <PUBCHEM_IUPAC_TRADITIONAL_NAME>
(3R,4S,5R)-3,4,5-trihydroxytetrahydropyran-2-one

> <PUBCHEM_IUPAC_INCHI>
InChI=1S/C5H8O5/c6-2-1-10-5(9)4(8)3(2)7/h2-4,6-8H,1H2/t2-,3+,4-/m1/s1

> <PUBCHEM_IUPAC_INCHIKEY>
XXBSUZSONOQQGK-FLRLBIABSA-N

> <PUBCHEM_XLOGP3_AA>
-2

> <PUBCHEM_EXACT_MASS>
148.037173

> <PUBCHEM_MOLECULAR_FORMULA>
C5H8O5

> <PUBCHEM_MOLECULAR_WEIGHT>
148.11402

> <PUBCHEM_OPENEYE_CAN_SMILES>
C1C(C(C(C(=O)O1)O)O)O

> <PUBCHEM_OPENEYE_ISO_SMILES>
C1[C@H]([C@@H]([C@H](C(=O)O1)O)O)O

> <PUBCHEM_CACTVS_TPSA>
87

> <PUBCHEM_MONOISOTOPIC_WEIGHT>
148.037173

> <PUBCHEM_TOTAL_CHARGE>
0

> <PUBCHEM_HEAVY_ATOM_COUNT>
10

> <PUBCHEM_ATOM_DEF_STEREO_COUNT>
3

> <PUBCHEM_ATOM_UDEF_STEREO_COUNT>
0

> <PUBCHEM_BOND_DEF_STEREO_COUNT>
0

> <PUBCHEM_BOND_UDEF_STEREO_COUNT>
0

> <PUBCHEM_ISOTOPIC_ATOM_COUNT>
0

> <PUBCHEM_COMPONENT_COUNT>
1

> <PUBCHEM_CACTVS_TAUTO_COUNT>
8

> <PUBCHEM_COORDINATE_TYPE>
1
5
255

> <PUBCHEM_BONDANNOTATIONS>
6  2  5
7  3  6
8  4  6

$$$$

