17395278
  -OEChem-06241222493D

 57 58  0     0  0  0  0  0  0999 V2000
    4.4450   -1.2716   -2.3710 Cl  0  0  0  0  0  0  0  0  0  0  0  0
    4.6632   -0.5053    0.7755 S   0  0  0  0  0  0  0  0  0  0  0  0
    4.3910   -0.3303    2.1903 O   0  0  0  0  0  0  0  0  0  0  0  0
    5.6041   -1.5254    0.3507 O   0  0  0  0  0  0  0  0  0  0  0  0
   -0.8552   -2.0381    1.5282 O   0  0  0  0  0  0  0  0  0  0  0  0
   -3.8439    2.3223    0.3190 O   0  0  0  0  0  0  0  0  0  0  0  0
   -6.9905   -0.9138   -1.2101 O   0  0  0  0  0  0  0  0  0  0  0  0
    5.1089    1.0108    0.0850 N   0  0  0  0  0  0  0  0  0  0  0  0
   -1.1817    0.2309    1.0704 N   0  0  0  0  0  0  0  0  0  0  0  0
    3.1184   -0.8524   -0.0181 C   0  0  0  0  0  0  0  0  0  0  0  0
    6.5340    1.4193    0.1723 C   0  0  0  0  0  0  0  0  0  0  0  0
    4.1886    2.1595    0.2816 C   0  0  0  0  0  0  0  0  0  0  0  0
    1.9581   -0.7901    0.7534 C   0  0  0  0  0  0  0  0  0  0  0  0
    0.7186   -1.0560    0.1717 C   0  0  0  0  0  0  0  0  0  0  0  0
   -2.4126    0.3712    1.8454 C   0  0  0  0  0  0  0  0  0  0  0  0
    3.0392   -1.1807   -1.3714 C   0  0  0  0  0  0  0  0  0  0  0  0
   -0.4914   -0.9914    0.9758 C   0  0  0  0  0  0  0  0  0  0  0  0
    7.2913    0.8937   -1.0304 C   0  0  0  0  0  0  0  0  0  0  0  0
    3.7387    2.6907   -1.0643 C   0  0  0  0  0  0  0  0  0  0  0  0
   -3.6301    0.0435    1.0303 C   0  0  0  0  0  0  0  0  0  0  0  0
    0.6394   -1.3843   -1.1817 C   0  0  0  0  0  0  0  0  0  0  0  0
    1.7997   -1.4466   -1.9533 C   0  0  0  0  0  0  0  0  0  0  0  0
   -0.7159    1.4381    0.4025 C   0  0  0  0  0  0  0  0  0  0  0  0
   -4.2895    1.0349    0.3035 C   0  0  0  0  0  0  0  0  0  0  0  0
   -4.0997   -1.2697    1.0036 C   0  0  0  0  0  0  0  0  0  0  0  0
   -5.4181    0.7130   -0.4501 C   0  0  0  0  0  0  0  0  0  0  0  0
   -5.2284   -1.5916    0.2500 C   0  0  0  0  0  0  0  0  0  0  0  0
   -5.8876   -0.6001   -0.4769 C   0  0  0  0  0  0  0  0  0  0  0  0
   -4.5779    3.2711   -0.4524 C   0  0  0  0  0  0  0  0  0  0  0  0
   -7.6157    0.1483   -1.9293 C   0  0  0  0  0  0  0  0  0  0  0  0
    6.6374    2.5096    0.1957 H   0  0  0  0  0  0  0  0  0  0  0  0
    6.9746    1.0429    1.1020 H   0  0  0  0  0  0  0  0  0  0  0  0
    3.3052    1.8559    0.8522 H   0  0  0  0  0  0  0  0  0  0  0  0
    4.6599    2.9533    0.8714 H   0  0  0  0  0  0  0  0  0  0  0  0
    1.9933   -0.5330    1.8086 H   0  0  0  0  0  0  0  0  0  0  0  0
   -2.3586   -0.3155    2.6999 H   0  0  0  0  0  0  0  0  0  0  0  0
   -2.4711    1.3760    2.2798 H   0  0  0  0  0  0  0  0  0  0  0  0
    8.3298    1.2389   -1.0028 H   0  0  0  0  0  0  0  0  0  0  0  0
    6.8403    1.2480   -1.9633 H   0  0  0  0  0  0  0  0  0  0  0  0
    7.3065   -0.1989   -1.0602 H   0  0  0  0  0  0  0  0  0  0  0  0
    3.0556    3.5353   -0.9313 H   0  0  0  0  0  0  0  0  0  0  0  0
    3.2178    1.9213   -1.6424 H   0  0  0  0  0  0  0  0  0  0  0  0
    4.5926    3.0331   -1.6580 H   0  0  0  0  0  0  0  0  0  0  0  0
   -0.3215   -1.5927   -1.6451 H   0  0  0  0  0  0  0  0  0  0  0  0
    1.7200   -1.7035   -3.0065 H   0  0  0  0  0  0  0  0  0  0  0  0
   -0.7821    2.2847    1.0927 H   0  0  0  0  0  0  0  0  0  0  0  0
    0.3168    1.3729    0.0585 H   0  0  0  0  0  0  0  0  0  0  0  0
   -1.3528    1.6242   -0.4665 H   0  0  0  0  0  0  0  0  0  0  0  0
   -3.6020   -2.0535    1.5676 H   0  0  0  0  0  0  0  0  0  0  0  0
   -5.9319    1.4766   -1.0140 H   0  0  0  0  0  0  0  0  0  0  0  0
   -5.5905   -2.6159    0.2341 H   0  0  0  0  0  0  0  0  0  0  0  0
   -4.5393    3.0411   -1.5227 H   0  0  0  0  0  0  0  0  0  0  0  0
   -5.6016    3.3914   -0.0816 H   0  0  0  0  0  0  0  0  0  0  0  0
   -4.0822    4.2391   -0.3227 H   0  0  0  0  0  0  0  0  0  0  0  0
   -8.0119    0.9152   -1.2550 H   0  0  0  0  0  0  0  0  0  0  0  0
   -6.9521    0.5637   -2.6954 H   0  0  0  0  0  0  0  0  0  0  0  0
   -8.4740   -0.2827   -2.4557 H   0  0  0  0  0  0  0  0  0  0  0  0
  1 16  1  0  0  0  0
  2  3  2  0  0  0  0
  2  4  2  0  0  0  0
  2  8  1  0  0  0  0
  2 10  1  0  0  0  0
  5 17  2  0  0  0  0
  6 24  1  0  0  0  0
  6 29  1  0  0  0  0
  7 28  1  0  0  0  0
  7 30  1  0  0  0  0
  8 11  1  0  0  0  0
  8 12  1  0  0  0  0
  9 15  1  0  0  0  0
  9 17  1  0  0  0  0
  9 23  1  0  0  0  0
 10 13  1  0  0  0  0
 10 16  2  0  0  0  0
 11 18  1  0  0  0  0
 11 31  1  0  0  0  0
 11 32  1  0  0  0  0
 12 19  1  0  0  0  0
 12 33  1  0  0  0  0
 12 34  1  0  0  0  0
 13 14  2  0  0  0  0
 13 35  1  0  0  0  0
 14 17  1  0  0  0  0
 14 21  1  0  0  0  0
 15 20  1  0  0  0  0
 15 36  1  0  0  0  0
 15 37  1  0  0  0  0
 16 22  1  0  0  0  0
 18 38  1  0  0  0  0
 18 39  1  0  0  0  0
 18 40  1  0  0  0  0
 19 41  1  0  0  0  0
 19 42  1  0  0  0  0
 19 43  1  0  0  0  0
 20 24  2  0  0  0  0
 20 25  1  0  0  0  0
 21 22  2  0  0  0  0
 21 44  1  0  0  0  0
 22 45  1  0  0  0  0
 23 46  1  0  0  0  0
 23 47  1  0  0  0  0
 23 48  1  0  0  0  0
 24 26  1  0  0  0  0
 25 27  2  0  0  0  0
 25 49  1  0  0  0  0
 26 28  2  0  0  0  0
 26 50  1  0  0  0  0
 27 28  1  0  0  0  0
 27 51  1  0  0  0  0
 29 52  1  0  0  0  0
 29 53  1  0  0  0  0
 29 54  1  0  0  0  0
 30 55  1  0  0  0  0
 30 56  1  0  0  0  0
 30 57  1  0  0  0  0
M  END
> <PUBCHEM_COMPOUND_CID>
17395278

> <PUBCHEM_CONFORMER_RMSD>
1

> <PUBCHEM_CONFORMER_DIVERSEORDER>
1
163
219
102
40
54
192
89
13
21
83
173
108
98
88
178
55
169
232
38
20
14
39
70
208
211
50
64
133
216
8
125
213
222
167
47
97
215
75
68
140
187
81
139
61
65
229
233
120
67
154
53
227
186
203
170
72
23
90
221
99
166
228
201
162
190
69
220
5
129
106
27
46
52
138
176
28
71
155
212
128
79
171
168
59
185
131
60
41
182
150
9
122
200
105
174
226
29
91
113
195
145
160
157
109
74
193
177
76
183
231
205
179
16
151
127
57
85
164
26
32
115
189
175
78
19
62
12
114
10
137
181
107
96
15
95
198
86
66
4
143
103
134
135
104
117
118
147
77
141
197
112
124
73
230
223
42
199
30
152
31
34
210
93
82
142
123
148
132
48
63
202
87
49
3
153
33
110
37
165
58
116
22
56
7
136
146
126
156
224
191
130
92
24
84
94
209
161
159
204
214
217
80
45
158
180
225
172
100
207
188
51
218
11
149
184
36
43
119
35
111
101
6
121
144
18
44
206
25
2
196
17
194

> <PUBCHEM_MMFF94_PARTIAL_CHARGES>
34
1 -0.18
10 -0.01
11 0.36
12 0.36
13 -0.15
14 0.09
15 0.44
16 0.18
17 0.54
2 1.45
20 -0.14
21 -0.15
22 -0.15
23 0.3
24 0.08
25 -0.15
26 -0.15
27 -0.15
28 0.08
29 0.28
3 -0.65
30 0.28
35 0.15
4 -0.65
44 0.15
45 0.15
49 0.15
5 -0.57
50 0.15
51 0.15
6 -0.36
7 -0.36
8 -0.85
9 -0.66

> <PUBCHEM_EFFECTIVE_ROTOR_COUNT>
10

> <PUBCHEM_PHARMACOPHORE_FEATURES>
7
1 3 acceptor
1 4 acceptor
1 5 acceptor
1 6 acceptor
1 7 acceptor
6 10 13 14 16 21 22 rings
6 20 24 25 26 27 28 rings

> <PUBCHEM_HEAVY_ATOM_COUNT>
30

> <PUBCHEM_ATOM_DEF_STEREO_COUNT>
0

> <PUBCHEM_ATOM_UDEF_STEREO_COUNT>
0

> <PUBCHEM_BOND_DEF_STEREO_COUNT>
0

> <PUBCHEM_BOND_UDEF_STEREO_COUNT>
0

> <PUBCHEM_ISOTOPIC_ATOM_COUNT>
0

> <PUBCHEM_COMPONENT_COUNT>
1

> <PUBCHEM_CACTVS_TAUTO_COUNT>
1

> <PUBCHEM_CONFORMER_ID>
01096E4E00000001

> <PUBCHEM_MMFF94_ENERGY>
92.7375

> <PUBCHEM_FEATURE_SELFOVERLAP>
35.539

> <PUBCHEM_SHAPE_FINGERPRINT>
11089746 13 18059853969895554834
11387372 6 5617247161741241701
11991303 11 17677053434492229102
12107183 9 13470692537889477575
12633257 1 13686294651756330291
13533116 47 17845941831181396394
13782708 43 17604978398971828926
14251758 9 15052014580362334283
14251764 30 6988322728957947971
14251764 38 18272363166112259389
14767858 380 17240481381736628591
15064986 266 18188196694384529515
15142383 8 12103855544383249966
15183329 4 18272373065985184705
15352257 5 7997971279928104709
15537594 2 13840273615096607349
15799311 1 14345785041906027957
15961568 22 18412821378603848604
17980427 23 17989197175040696757
1813 80 14417849241877931249
20511986 3 17489317368852002331
20832881 197 12031790258058466316
21315759 148 9510873973889743663
21315763 191 7997970180284166745
21344244 181 4823221641012455596
21344244 246 16081630280721974902
21421861 104 11815619623776568318
22149856 69 16950551191349003411
22950370 63 7565338734575448003
23522609 53 15937506214142064227
23559900 14 18190449648890770210
2838139 119 18410290273146086964
34797466 226 18259979375406584653
4325135 7 18259704480208962933
497634 4 16805599296562068969
5283173 99 18411980299479055313

> <PUBCHEM_SHAPE_MULTIPOLES>
583.8
19.29
2.53
1.83
7.4
1.8
0.34
3.92
6.47
0.02
0.53
-0.29
-0.64
0.51

> <PUBCHEM_SHAPE_SELFOVERLAP>
1191.953

> <PUBCHEM_SHAPE_VOLUME>
341.7

> <PUBCHEM_COORDINATE_TYPE>
2
5
10

$$$$

