46199512
  -OEChem-07051213153D

 34 34  0     1  0  0  0  0  0999 V2000
   -0.8452   -0.7933   -1.0838 O   0  0  0  0  0  0  0  0  0  0  0  0
    0.8709    0.0200    0.3354 O   0  0  0  0  0  0  0  0  0  0  0  0
   -2.7220    2.5946    0.3479 O   0  0  0  0  0  0  0  0  0  0  0  0
   -3.5806    0.0074    1.2539 O   0  0  0  0  0  0  0  0  0  0  0  0
    0.1089    2.6565   -0.2503 O   0  0  0  0  0  0  0  0  0  0  0  0
   -1.7388   -3.3392   -0.6699 O   0  0  0  0  0  0  0  0  0  0  0  0
    2.8246   -0.7811    2.2247 O   0  0  0  0  0  0  0  0  0  0  0  0
    4.2153   -0.2761   -0.9118 O   0  0  0  0  0  0  0  0  0  0  0  0
    2.9670    1.5553   -0.3997 O   0  0  0  0  0  0  0  0  0  0  0  0
   -1.8662    1.4518    0.4180 C   0  0  1  0  0  0  0  0  0  0  0  0
   -2.7083    0.2043    0.1437 C   0  0  1  0  0  0  0  0  0  0  0  0
   -0.7588    1.5924   -0.6246 C   0  0  2  0  0  0  0  0  0  0  0  0
   -1.8202   -1.0305   -0.0620 C   0  0  1  0  0  0  0  0  0  0  0  0
    0.0331    0.2939   -0.7862 C   0  0  2  0  0  0  0  0  0  0  0  0
   -2.6279   -2.2521   -0.4918 C   0  0  0  0  0  0  0  0  0  0  0  0
    2.0460   -0.6731   -0.0554 C   0  0  2  0  0  0  0  0  0  0  0  0
    2.5122   -1.5716    1.0828 C   0  0  0  0  0  0  0  0  0  0  0  0
    3.0899    0.3408   -0.4707 C   0  0  0  0  0  0  0  0  0  0  0  0
   -1.4510    1.4393    1.4325 H   0  0  0  0  0  0  0  0  0  0  0  0
   -3.3368    0.3710   -0.7396 H   0  0  0  0  0  0  0  0  0  0  0  0
   -1.2152    1.8634   -1.5854 H   0  0  0  0  0  0  0  0  0  0  0  0
   -1.2935   -1.2882    0.8666 H   0  0  0  0  0  0  0  0  0  0  0  0
    0.6618    0.4364   -1.6752 H   0  0  0  0  0  0  0  0  0  0  0  0
   -3.1294   -2.0707   -1.4483 H   0  0  0  0  0  0  0  0  0  0  0  0
   -3.3732   -2.5237    0.2619 H   0  0  0  0  0  0  0  0  0  0  0  0
   -3.0971    2.6382   -0.5482 H   0  0  0  0  0  0  0  0  0  0  0  0
   -3.0336   -0.1778    2.0362 H   0  0  0  0  0  0  0  0  0  0  0  0
    0.8052    2.7185   -0.9263 H   0  0  0  0  0  0  0  0  0  0  0  0
    1.8339   -1.3157   -0.9206 H   0  0  0  0  0  0  0  0  0  0  0  0
    1.7232   -2.2732    1.3722 H   0  0  0  0  0  0  0  0  0  0  0  0
    3.4058   -2.1410    0.8109 H   0  0  0  0  0  0  0  0  0  0  0  0
   -2.2722   -4.1041   -0.9456 H   0  0  0  0  0  0  0  0  0  0  0  0
    2.0279   -0.2722    2.4529 H   0  0  0  0  0  0  0  0  0  0  0  0
    4.9078    0.3682   -1.1717 H   0  0  0  0  0  0  0  0  0  0  0  0
  1 13  1  0  0  0  0
  1 14  1  0  0  0  0
  2 14  1  0  0  0  0
  2 16  1  0  0  0  0
  3 10  1  0  0  0  0
  3 26  1  0  0  0  0
  4 11  1  0  0  0  0
  4 27  1  0  0  0  0
  5 12  1  0  0  0  0
  5 28  1  0  0  0  0
  6 15  1  0  0  0  0
  6 32  1  0  0  0  0
  7 17  1  0  0  0  0
  7 33  1  0  0  0  0
  8 18  1  0  0  0  0
  8 34  1  0  0  0  0
  9 18  2  0  0  0  0
 10 11  1  0  0  0  0
 10 12  1  0  0  0  0
 10 19  1  0  0  0  0
 11 13  1  0  0  0  0
 11 20  1  0  0  0  0
 12 14  1  0  0  0  0
 12 21  1  0  0  0  0
 13 15  1  0  0  0  0
 13 22  1  0  0  0  0
 14 23  1  0  0  0  0
 15 24  1  0  0  0  0
 15 25  1  0  0  0  0
 16 17  1  0  0  0  0
 16 18  1  0  0  0  0
 16 29  1  0  0  0  0
 17 30  1  0  0  0  0
 17 31  1  0  0  0  0
M  END
> <PUBCHEM_COMPOUND_CID>
46199512

> <PUBCHEM_CONFORMER_RMSD>
0.8

> <PUBCHEM_CONFORMER_DIVERSEORDER>
1
5
11
14
9
7
19
20
21
12
10
6
18
24
22
16
2
4
8
13
26
25
23
15
17
3

> <PUBCHEM_MMFF94_PARTIAL_CHARGES>
24
1 -0.56
10 0.28
11 0.28
12 0.28
13 0.28
14 0.56
15 0.28
16 0.34
17 0.28
18 0.66
2 -0.56
26 0.4
27 0.4
28 0.4
3 -0.68
32 0.4
33 0.4
34 0.5
4 -0.68
5 -0.68
6 -0.68
7 -0.68
8 -0.65
9 -0.57

> <PUBCHEM_EFFECTIVE_ROTOR_COUNT>
6.2

> <PUBCHEM_PHARMACOPHORE_FEATURES>
16
1 1 acceptor
1 2 acceptor
1 3 acceptor
1 3 donor
1 4 acceptor
1 4 donor
1 5 acceptor
1 5 donor
1 6 acceptor
1 6 donor
1 7 acceptor
1 7 donor
1 8 acceptor
1 9 acceptor
3 8 9 18 anion
6 1 10 11 12 13 14 rings

> <PUBCHEM_HEAVY_ATOM_COUNT>
18

> <PUBCHEM_ATOM_DEF_STEREO_COUNT>
6

> <PUBCHEM_ATOM_UDEF_STEREO_COUNT>
0

> <PUBCHEM_BOND_DEF_STEREO_COUNT>
0

> <PUBCHEM_BOND_UDEF_STEREO_COUNT>
0

> <PUBCHEM_ISOTOPIC_ATOM_COUNT>
0

> <PUBCHEM_COMPONENT_COUNT>
1

> <PUBCHEM_CACTVS_TAUTO_COUNT>
1

> <PUBCHEM_CONFORMER_ID>
02C0F2D800000001

> <PUBCHEM_MMFF94_ENERGY>
41.6854

> <PUBCHEM_FEATURE_SELFOVERLAP>
81.315

> <PUBCHEM_SHAPE_FINGERPRINT>
11132069 177 18409732828944833924
11578080 2 17843994496676785388
12251169 10 18409729590365289528
12553582 1 18339647724413042771
12932764 1 18059860579760364180
13538477 17 18412832403736631918
14178342 30 18266762297156680002
14787075 74 17621883089442482956
15076042 46 18125160682375970512
15279307 12 18270961348995079474
15309172 13 18191295181679358225
15375462 189 18201717302027712459
15669948 3 18411983576254135382
16752209 62 18336838583994057103
16945 1 18334863826645298813
18522851 12 18343019978056965234
18981168 100 15937267577195231696
20442098 301 18411420609321285466
20510252 161 18115015433100332793
20871998 184 18339350981085629013
22445834 79 18201435912966035376
23388829 49 18270115691282583853
23402539 116 18041278786592112535
23419403 2 16525041213480101109
23557571 272 18113609076445665188
23559900 14 18187085031566331292
23598288 3 17987245605988202231
23598291 2 17844530113774273530
23598294 1 18340484572772496761
2748010 2 16971965571146008725
34934 24 18342177730627532645
6049 1 17168430363599768146
7097593 13 17913219933719208906
7364860 26 17398673398398265511
81228 2 18189072952815849791

> <PUBCHEM_SHAPE_MULTIPOLES>
317.61
6.01
2.8
1.19
3.23
0.39
-0.5
0.67
-0.77
-2.1
0.35
0.6
0.34
-1.16

> <PUBCHEM_SHAPE_SELFOVERLAP>
638.005

> <PUBCHEM_SHAPE_VOLUME>
183.3

> <PUBCHEM_COORDINATE_TYPE>
2
5
10

$$$$

