168948
  -OEChem-07051212482D

 34 36  0     1  0  0  0  0  0999 V2000
    4.4026    0.9869    0.0000 O   0  0  0  0  0  0  0  0  0  0  0  0
    6.7523    2.0706    0.0000 O   0  0  0  0  0  0  0  0  0  0  0  0
    5.3548    3.4884    0.0000 O   0  0  0  0  0  0  0  0  0  0  0  0
    4.6783   -0.7737    0.0000 N   0  0  0  0  0  0  0  0  0  0  0  0
    4.6783   -2.3832    0.0000 N   0  0  0  0  0  0  0  0  0  0  0  0
    2.8660   -0.5784    0.0000 N   0  0  0  0  0  0  0  0  0  0  0  0
    2.0000   -2.0784    0.0000 N   0  0  0  0  0  0  0  0  0  0  0  0
    2.8660   -3.5784    0.0000 N   0  0  0  0  0  0  0  0  0  0  0  0
    4.9889    0.1768    0.0000 C   0  0  1  0  0  0  0  0  0  0  0  0
    5.9422    1.4842    0.0000 C   0  0  1  0  0  0  0  0  0  0  0  0
    5.9405    0.4842    0.0000 C   0  0  0  0  0  0  0  0  0  0  0  0
    4.9917    1.7949    0.0000 C   0  0  1  0  0  0  0  0  0  0  0  0
    4.6844    2.7464    0.0000 C   0  0  0  0  0  0  0  0  0  0  0  0
    3.7320   -1.0784    0.0000 C   0  0  0  0  0  0  0  0  0  0  0  0
    5.2619   -1.5784    0.0000 C   0  0  0  0  0  0  0  0  0  0  0  0
    3.7320   -2.0784    0.0000 C   0  0  0  0  0  0  0  0  0  0  0  0
    2.8660   -2.5784    0.0000 C   0  0  0  0  0  0  0  0  0  0  0  0
    2.0000   -1.0784    0.0000 C   0  0  0  0  0  0  0  0  0  0  0  0
    2.0000   -4.0784    0.0000 C   0  0  0  0  0  0  0  0  0  0  0  0
    5.4266   -0.2623    0.0000 H   0  0  0  0  0  0  0  0  0  0  0  0
    6.4942    1.2018    0.0000 H   0  0  0  0  0  0  0  0  0  0  0  0
    6.0684   -0.1225    0.0000 H   0  0  0  0  0  0  0  0  0  0  0  0
    6.5572    0.5479    0.0000 H   0  0  0  0  0  0  0  0  0  0  0  0
    4.3795    1.8929    0.0000 H   0  0  0  0  0  0  0  0  0  0  0  0
    4.3035    3.2357    0.0000 H   0  0  0  0  0  0  0  0  0  0  0  0
    4.1364    2.4563    0.0000 H   0  0  0  0  0  0  0  0  0  0  0  0
    5.8819   -1.5784    0.0000 H   0  0  0  0  0  0  0  0  0  0  0  0
    7.3182    1.8174    0.0000 H   0  0  0  0  0  0  0  0  0  0  0  0
    5.1642    4.0784    0.0000 H   0  0  0  0  0  0  0  0  0  0  0  0
    1.4631   -0.7684    0.0000 H   0  0  0  0  0  0  0  0  0  0  0  0
    3.4030   -3.8884    0.0000 H   0  0  0  0  0  0  0  0  0  0  0  0
    1.6900   -3.5415    0.0000 H   0  0  0  0  0  0  0  0  0  0  0  0
    1.4631   -4.3884    0.0000 H   0  0  0  0  0  0  0  0  0  0  0  0
    2.3100   -4.6154    0.0000 H   0  0  0  0  0  0  0  0  0  0  0  0
  1  9  1  0  0  0  0
  1 12  1  0  0  0  0
 10  2  1  1  0  0  0
  2 28  1  0  0  0  0
  3 13  1  0  0  0  0
  3 29  1  0  0  0  0
  9  4  1  6  0  0  0
  4 14  1  0  0  0  0
  4 15  1  0  0  0  0
  5 15  2  0  0  0  0
  5 16  1  0  0  0  0
  6 14  2  0  0  0  0
  6 18  1  0  0  0  0
  7 17  1  0  0  0  0
  7 18  2  0  0  0  0
  8 17  1  0  0  0  0
  8 19  1  0  0  0  0
  8 31  1  0  0  0  0
  9 11  1  0  0  0  0
  9 20  1  0  0  0  0
 10 11  1  0  0  0  0
 10 12  1  0  0  0  0
 10 21  1  0  0  0  0
 11 22  1  0  0  0  0
 11 23  1  0  0  0  0
 12 13  1  6  0  0  0
 12 24  1  0  0  0  0
 13 25  1  0  0  0  0
 13 26  1  0  0  0  0
 14 16  1  0  0  0  0
 15 27  1  0  0  0  0
 16 17  2  0  0  0  0
 18 30  1  0  0  0  0
 19 32  1  0  0  0  0
 19 33  1  0  0  0  0
 19 34  1  0  0  0  0
M  END
> <PUBCHEM_COMPOUND_CID>
168948

> <PUBCHEM_COMPOUND_CANONICALIZED>
1

> <PUBCHEM_CACTVS_COMPLEXITY>
321

> <PUBCHEM_CACTVS_HBOND_ACCEPTOR>
7

> <PUBCHEM_CACTVS_HBOND_DONOR>
3

> <PUBCHEM_CACTVS_ROTATABLE_BOND>
3

> <PUBCHEM_CACTVS_SUBSKEYS>
AAADccBzsAAAAAAAAAAAAAAAAAAAAWJAAAAsAAAAAAAAAFgB+AAAHgAQCAAACBzhlwYH8L/MFgCgAQZhZACAgC0REKABUKAoVBCBWAJAyEAeRAgPAALDACCwMAIAAAAAAAAAAAAAAAAAAAAAAAAAAAAAAA==

> <PUBCHEM_IUPAC_OPENEYE_NAME>
(2R,3S,5R)-2-(hydroxymethyl)-5-[6-(methylamino)purin-9-yl]tetrahydrofuran-3-ol

> <PUBCHEM_IUPAC_CAS_NAME>
(2R,3S,5R)-2-(hydroxymethyl)-5-[6-(methylamino)-9-purinyl]-3-oxolanol

> <PUBCHEM_IUPAC_NAME>
(2R,3S,5R)-2-(hydroxymethyl)-5-[6-(methylamino)purin-9-yl]oxolan-3-ol

> <PUBCHEM_IUPAC_SYSTEMATIC_NAME>
(2R,3S,5R)-2-(hydroxymethyl)-5-[6-(methylamino)purin-9-yl]oxolan-3-ol

> <PUBCHEM_IUPAC_TRADITIONAL_NAME>
(2R,3S,5R)-5-[6-(methylamino)purin-9-yl]-2-methylol-tetrahydrofuran-3-ol

> <PUBCHEM_IUPAC_INCHI>
InChI=1S/C11H15N5O3/c1-12-10-9-11(14-4-13-10)16(5-15-9)8-2-6(18)7(3-17)19-8/h4-8,17-18H,2-3H2,1H3,(H,12,13,14)/t6-,7+,8+/m0/s1

> <PUBCHEM_IUPAC_INCHIKEY>
DYSDOYRQWBDGQQ-XLPZGREQSA-N

> <PUBCHEM_XLOGP3>
-0.2

> <PUBCHEM_EXACT_MASS>
265.117489

> <PUBCHEM_MOLECULAR_FORMULA>
C11H15N5O3

> <PUBCHEM_MOLECULAR_WEIGHT>
265.2685

> <PUBCHEM_OPENEYE_CAN_SMILES>
CNC1=NC=NC2=C1N=CN2C3CC(C(O3)CO)O

> <PUBCHEM_OPENEYE_ISO_SMILES>
CNC1=NC=NC2=C1N=CN2[C@H]3C[C@@H]([C@H](O3)CO)O

> <PUBCHEM_CACTVS_TPSA>
105

> <PUBCHEM_MONOISOTOPIC_WEIGHT>
265.117489

> <PUBCHEM_TOTAL_CHARGE>
0

> <PUBCHEM_HEAVY_ATOM_COUNT>
19

> <PUBCHEM_ATOM_DEF_STEREO_COUNT>
3

> <PUBCHEM_ATOM_UDEF_STEREO_COUNT>
0

> <PUBCHEM_BOND_DEF_STEREO_COUNT>
0

> <PUBCHEM_BOND_UDEF_STEREO_COUNT>
0

> <PUBCHEM_ISOTOPIC_ATOM_COUNT>
0

> <PUBCHEM_COMPONENT_COUNT>
1

> <PUBCHEM_CACTVS_TAUTO_COUNT>
3

> <PUBCHEM_COORDINATE_TYPE>
1
5
255

> <PUBCHEM_BONDANNOTATIONS>
12  13  6
14  16  8
16  17  8
10  2  5
4  14  8
4  15  8
9  4  6
5  15  8
5  16  8
6  14  8
6  18  8
7  17  8
7  18  8

$$$$

