442292
  -OEChem-07051212573D

 37 41  0     1  0  0  0  0  0999 V2000
    2.6658    0.9746    1.2021 O   0  0  0  0  0  0  0  0  0  0  0  0
    1.2076   -2.1069    0.2408 O   0  0  0  0  0  0  0  0  0  0  0  0
   -1.2148    1.9231    1.2063 O   0  0  0  0  0  0  0  0  0  0  0  0
   -0.0210   -0.9240   -1.9411 O   0  0  0  0  0  0  0  0  0  0  0  0
    3.4130   -1.5077   -0.1304 O   0  0  0  0  0  0  0  0  0  0  0  0
    0.3757    1.1208   -2.9125 O   0  0  0  0  0  0  0  0  0  0  0  0
    0.3474    0.0260    1.0077 C   0  0  1  0  0  0  0  0  0  0  0  0
    1.7708    0.0683    0.5627 C   0  0  1  0  0  0  0  0  0  0  0  0
   -0.3179    1.2644    0.3085 C   0  0  2  0  0  0  0  0  0  0  0  0
    2.0854    1.3753   -0.0478 C   0  0  1  0  0  0  0  0  0  0  0  0
   -0.0399   -1.3793    0.4590 C   0  0  1  0  0  0  0  0  0  0  0  0
    0.8681    2.2448    0.0497 C   0  0  0  0  0  0  0  0  0  0  0  0
   -1.1045    0.9102   -0.9776 C   0  0  2  0  0  0  0  0  0  0  0  0
   -0.8461   -1.3785   -0.8490 C   0  0  1  0  0  0  0  0  0  0  0  0
   -1.9661   -0.3504   -0.8375 C   0  0  1  0  0  0  0  0  0  0  0  0
    2.2638   -1.2370    0.1744 C   0  0  0  0  0  0  0  0  0  0  0  0
    0.2569    0.0435    2.5409 C   0  0  0  0  0  0  0  0  0  0  0  0
   -0.1762    0.4313   -2.0711 C   0  0  0  0  0  0  0  0  0  0  0  0
   -2.9090   -0.4120    0.3150 C   0  0  0  0  0  0  0  0  0  0  0  0
   -3.1620   -1.7737    0.8905 C   0  0  0  0  0  0  0  0  0  0  0  0
   -3.4971    0.6874    0.8094 C   0  0  0  0  0  0  0  0  0  0  0  0
    2.6933    1.4587   -0.9321 H   0  0  0  0  0  0  0  0  0  0  0  0
   -0.5609   -1.9515    1.2261 H   0  0  0  0  0  0  0  0  0  0  0  0
    0.9929    2.9641    0.8680 H   0  0  0  0  0  0  0  0  0  0  0  0
    0.7185    2.8315   -0.8624 H   0  0  0  0  0  0  0  0  0  0  0  0
   -1.7042    1.7510   -1.3432 H   0  0  0  0  0  0  0  0  0  0  0  0
   -1.1828   -2.3882   -1.1042 H   0  0  0  0  0  0  0  0  0  0  0  0
   -2.5554   -0.4794   -1.7584 H   0  0  0  0  0  0  0  0  0  0  0  0
    0.8309   -0.7818    2.9792 H   0  0  0  0  0  0  0  0  0  0  0  0
    0.6645    0.9679    2.9645 H   0  0  0  0  0  0  0  0  0  0  0  0
   -0.7800   -0.0606    2.8773 H   0  0  0  0  0  0  0  0  0  0  0  0
   -0.7088    2.3193    1.9344 H   0  0  0  0  0  0  0  0  0  0  0  0
   -3.0990   -2.5621    0.1349 H   0  0  0  0  0  0  0  0  0  0  0  0
   -2.4983   -2.0016    1.7255 H   0  0  0  0  0  0  0  0  0  0  0  0
   -4.1833   -1.8273    1.2886 H   0  0  0  0  0  0  0  0  0  0  0  0
   -4.1719    0.6182    1.6572 H   0  0  0  0  0  0  0  0  0  0  0  0
   -3.4005    1.6639    0.3494 H   0  0  0  0  0  0  0  0  0  0  0  0
  1  8  1  0  0  0  0
  1 10  1  0  0  0  0
  2 11  1  0  0  0  0
  2 16  1  0  0  0  0
  3  9  1  0  0  0  0
  3 32  1  0  0  0  0
  4 14  1  0  0  0  0
  4 18  1  0  0  0  0
  5 16  2  0  0  0  0
  6 18  2  0  0  0  0
  7  8  1  0  0  0  0
  7  9  1  0  0  0  0
  7 11  1  0  0  0  0
  7 17  1  0  0  0  0
  8 10  1  0  0  0  0
  8 16  1  0  0  0  0
  9 12  1  0  0  0  0
  9 13  1  0  0  0  0
 10 12  1  0  0  0  0
 10 22  1  0  0  0  0
 11 14  1  0  0  0  0
 11 23  1  0  0  0  0
 12 24  1  0  0  0  0
 12 25  1  0  0  0  0
 13 15  1  0  0  0  0
 13 18  1  0  0  0  0
 13 26  1  0  0  0  0
 14 15  1  0  0  0  0
 14 27  1  0  0  0  0
 15 19  1  0  0  0  0
 15 28  1  0  0  0  0
 17 29  1  0  0  0  0
 17 30  1  0  0  0  0
 17 31  1  0  0  0  0
 19 20  1  0  0  0  0
 19 21  2  0  0  0  0
 20 33  1  0  0  0  0
 20 34  1  0  0  0  0
 20 35  1  0  0  0  0
 21 36  1  0  0  0  0
 21 37  1  0  0  0  0
M  END
> <PUBCHEM_COMPOUND_CID>
442292

> <PUBCHEM_CONFORMER_RMSD>
0.6

> <PUBCHEM_CONFORMER_DIVERSEORDER>
1

> <PUBCHEM_MMFF94_PARTIAL_CHARGES>
24
1 -0.3
10 -0.05
11 0.28
12 0.09
13 0.06
14 0.28
15 0.14
16 0.72
18 0.66
19 -0.28
2 -0.43
20 0.14
21 -0.3
22 0.1
3 -0.68
32 0.4
36 0.15
37 0.15
4 -0.43
5 -0.57
6 -0.57
7 0.09
8 0.05
9 0.28

> <PUBCHEM_EFFECTIVE_ROTOR_COUNT>
2

> <PUBCHEM_PHARMACOPHORE_FEATURES>
8
1 1 acceptor
1 3 acceptor
1 3 donor
1 5 acceptor
1 6 acceptor
5 2 7 8 11 16 rings
6 1 7 8 9 10 12 rings
8 4 7 9 11 13 14 15 18 rings

> <PUBCHEM_HEAVY_ATOM_COUNT>
21

> <PUBCHEM_ATOM_DEF_STEREO_COUNT>
8

> <PUBCHEM_ATOM_UDEF_STEREO_COUNT>
0

> <PUBCHEM_BOND_DEF_STEREO_COUNT>
0

> <PUBCHEM_BOND_UDEF_STEREO_COUNT>
0

> <PUBCHEM_ISOTOPIC_ATOM_COUNT>
0

> <PUBCHEM_COMPONENT_COUNT>
1

> <PUBCHEM_CACTVS_TAUTO_COUNT>
1

> <PUBCHEM_CONFORMER_ID>
0006BFB400000001

> <PUBCHEM_MMFF94_ENERGY>
88.5778

> <PUBCHEM_FEATURE_SELFOVERLAP>
41.004

> <PUBCHEM_SHAPE_FINGERPRINT>
10863032 1 18334852792689705745
10948715 1 17823975632698205800
12011746 2 18045499974364687253
12423570 1 8475769529576653951
12808571 1 18116151069539383337
141345 1 15399363815491170997
14181834 199 16198454309346823871
144361 1 16977912339993466070
14817 1 16248547848665593484
16945 1 18270127798689772605
22344851 12 17313659335173542139
23419403 2 18201171978524940230
23493267 7 17606093148700055925
2748010 2 18266201563216232044
528886 8 18192165814520886776
5845 1 15315220759013087608

> <PUBCHEM_SHAPE_MULTIPOLES>
396.95
4
2.07
1.99
1.35
0.06
0.21
-1.3
-0.81
-0.38
0.26
-0.08
0.53
0.17

> <PUBCHEM_SHAPE_SELFOVERLAP>
908.967

> <PUBCHEM_SHAPE_VOLUME>
206.4

> <PUBCHEM_COORDINATE_TYPE>
2
5
10

$$$$

