9942
  -OEChem-06261204123D

 45 47  0     1  0  0  0  0  0999 V2000
   -4.9961    0.8462    0.8073 O   0  0  0  0  0  0  0  0  0  0  0  0
   -3.2219   -0.1258   -0.2994 N   0  0  0  0  0  0  0  0  0  0  0  0
   -0.7429   -1.1333    0.6830 N   0  0  0  0  0  0  0  0  0  0  0  0
   -2.0766   -0.1573   -1.1968 C   0  0  2  0  0  0  0  0  0  0  0  0
   -3.2124   -1.4048    0.3871 C   0  0  1  0  0  0  0  0  0  0  0  0
   -2.2013   -1.5554   -1.8217 C   0  0  0  0  0  0  0  0  0  0  0  0
   -2.9605   -2.3860   -0.7662 C   0  0  0  0  0  0  0  0  0  0  0  0
   -0.8161   -0.0399   -0.3089 C   0  0  0  0  0  0  0  0  0  0  0  0
   -2.0262   -1.3676    1.3777 C   0  0  0  0  0  0  0  0  0  0  0  0
   -4.0451    0.9295    0.0284 C   0  0  0  0  0  0  0  0  0  0  0  0
    0.3471   -0.9242    1.6296 C   0  0  0  0  0  0  0  0  0  0  0  0
   -3.7236    2.2390   -0.6433 C   0  0  0  0  0  0  0  0  0  0  0  0
    1.6750   -0.8608    0.9347 C   0  0  0  0  0  0  0  0  0  0  0  0
   -4.7198    3.2931   -0.2238 C   0  0  0  0  0  0  0  0  0  0  0  0
    2.4868    0.2068    0.9945 C   0  0  0  0  0  0  0  0  0  0  0  0
    3.8043    0.3101    0.3450 C   0  0  0  0  0  0  0  0  0  0  0  0
    4.1104   -0.5362   -0.7091 C   0  0  0  0  0  0  0  0  0  0  0  0
    4.7141    1.2517    0.7996 C   0  0  0  0  0  0  0  0  0  0  0  0
    5.3583   -0.4386   -1.3243 C   0  0  0  0  0  0  0  0  0  0  0  0
    5.9621    1.3493    0.1842 C   0  0  0  0  0  0  0  0  0  0  0  0
    6.2842    0.5040   -0.8778 C   0  0  0  0  0  0  0  0  0  0  0  0
   -2.0989    0.6367   -1.9466 H   0  0  0  0  0  0  0  0  0  0  0  0
   -4.1526   -1.5967    0.9126 H   0  0  0  0  0  0  0  0  0  0  0  0
   -1.2344   -1.9948   -2.0865 H   0  0  0  0  0  0  0  0  0  0  0  0
   -2.8041   -1.5060   -2.7365 H   0  0  0  0  0  0  0  0  0  0  0  0
   -3.9145   -2.7180   -1.1931 H   0  0  0  0  0  0  0  0  0  0  0  0
   -2.4083   -3.2791   -0.4572 H   0  0  0  0  0  0  0  0  0  0  0  0
    0.0577   -0.0651   -0.9701 H   0  0  0  0  0  0  0  0  0  0  0  0
   -0.8272    0.9335    0.1994 H   0  0  0  0  0  0  0  0  0  0  0  0
   -2.2053   -0.5763    2.1179 H   0  0  0  0  0  0  0  0  0  0  0  0
   -1.9782   -2.3226    1.9141 H   0  0  0  0  0  0  0  0  0  0  0  0
    0.3904   -1.7674    2.3306 H   0  0  0  0  0  0  0  0  0  0  0  0
    0.1733   -0.0228    2.2319 H   0  0  0  0  0  0  0  0  0  0  0  0
   -2.7112    2.5501   -0.3670 H   0  0  0  0  0  0  0  0  0  0  0  0
   -3.7728    2.1102   -1.7292 H   0  0  0  0  0  0  0  0  0  0  0  0
    1.9607   -1.7618    0.3994 H   0  0  0  0  0  0  0  0  0  0  0  0
   -4.4919    4.2447   -0.7149 H   0  0  0  0  0  0  0  0  0  0  0  0
   -4.6943    3.4616    0.8583 H   0  0  0  0  0  0  0  0  0  0  0  0
   -5.7423    3.0121   -0.4984 H   0  0  0  0  0  0  0  0  0  0  0  0
    2.1750    1.0759    1.5696 H   0  0  0  0  0  0  0  0  0  0  0  0
    3.4134   -1.2685   -1.1041 H   0  0  0  0  0  0  0  0  0  0  0  0
    4.4786    1.9163    1.6265 H   0  0  0  0  0  0  0  0  0  0  0  0
    5.6078   -1.0929   -2.1546 H   0  0  0  0  0  0  0  0  0  0  0  0
    6.6833    2.0833    0.5317 H   0  0  0  0  0  0  0  0  0  0  0  0
    7.2554    0.5810   -1.3576 H   0  0  0  0  0  0  0  0  0  0  0  0
  1 10  2  0  0  0  0
  2  4  1  0  0  0  0
  2  5  1  0  0  0  0
  2 10  1  0  0  0  0
  3  8  1  0  0  0  0
  3  9  1  0  0  0  0
  3 11  1  0  0  0  0
  4  6  1  0  0  0  0
  4  8  1  0  0  0  0
  4 22  1  0  0  0  0
  5  7  1  0  0  0  0
  5  9  1  0  0  0  0
  5 23  1  0  0  0  0
  6  7  1  0  0  0  0
  6 24  1  0  0  0  0
  6 25  1  0  0  0  0
  7 26  1  0  0  0  0
  7 27  1  0  0  0  0
  8 28  1  0  0  0  0
  8 29  1  0  0  0  0
  9 30  1  0  0  0  0
  9 31  1  0  0  0  0
 10 12  1  0  0  0  0
 11 13  1  0  0  0  0
 11 32  1  0  0  0  0
 11 33  1  0  0  0  0
 12 14  1  0  0  0  0
 12 34  1  0  0  0  0
 12 35  1  0  0  0  0
 13 15  2  0  0  0  0
 13 36  1  0  0  0  0
 14 37  1  0  0  0  0
 14 38  1  0  0  0  0
 14 39  1  0  0  0  0
 15 16  1  0  0  0  0
 15 40  1  0  0  0  0
 16 17  2  0  0  0  0
 16 18  1  0  0  0  0
 17 19  1  0  0  0  0
 17 41  1  0  0  0  0
 18 20  2  0  0  0  0
 18 42  1  0  0  0  0
 19 21  2  0  0  0  0
 19 43  1  0  0  0  0
 20 21  1  0  0  0  0
 20 44  1  0  0  0  0
 21 45  1  0  0  0  0
M  END
> <PUBCHEM_COMPOUND_CID>
9942

> <PUBCHEM_CONFORMER_RMSD>
0.8

> <PUBCHEM_CONFORMER_DIVERSEORDER>
1
8
10
14
22
20
18
11
16
9
12
7
19
5
17
13
3
21
15
6
4
2

> <PUBCHEM_MMFF94_PARTIAL_CHARGES>
25
1 -0.57
10 0.57
11 0.41
12 0.06
13 -0.29
15 -0.18
16 0.03
17 -0.15
18 -0.15
19 -0.15
2 -0.66
20 -0.15
21 -0.15
3 -0.81
36 0.15
4 0.3
40 0.15
41 0.15
42 0.15
43 0.15
44 0.15
45 0.15
5 0.3
8 0.27
9 0.27

> <PUBCHEM_EFFECTIVE_ROTOR_COUNT>
6.2

> <PUBCHEM_PHARMACOPHORE_FEATURES>
5
1 1 acceptor
1 14 hydrophobe
1 3 cation
6 16 17 18 19 20 21 rings
8 2 3 4 5 6 7 8 9 rings

> <PUBCHEM_HEAVY_ATOM_COUNT>
21

> <PUBCHEM_ATOM_DEF_STEREO_COUNT>
0

> <PUBCHEM_ATOM_UDEF_STEREO_COUNT>
0

> <PUBCHEM_BOND_DEF_STEREO_COUNT>
0

> <PUBCHEM_BOND_UDEF_STEREO_COUNT>
1

> <PUBCHEM_ISOTOPIC_ATOM_COUNT>
0

> <PUBCHEM_COMPONENT_COUNT>
1

> <PUBCHEM_CACTVS_TAUTO_COUNT>
1

> <PUBCHEM_CONFORMER_ID>
000026D600000001

> <PUBCHEM_MMFF94_ENERGY>
60.3753

> <PUBCHEM_FEATURE_SELFOVERLAP>
25.371

> <PUBCHEM_SHAPE_FINGERPRINT>
10 15 12103559729201373740
105312 117 18040718099542942437
10753850 27 7132135556090452085
107951 10 18261109673329167527
10803635 8 17894349973566513758
12390115 104 18341888649685805569
12616971 3 15985106302023371574
12633257 1 16774076241963718622
13073987 5 18201723933910976514
14251752 14 18336545014848363670
14251757 5 18187083978999137865
14251764 38 18127691526837973420
14251764 75 17907016528013426609
14341114 328 15913322490243275584
14848160 23 9511455606887890912
14848178 5 8214131958702677136
15163728 17 17898566734098465201
15183329 4 17458340883607435736
16120349 67 17606389106697431857
17844677 252 18336542716782631256
18222031 100 5978107947238804938
200 152 14490191613490389058
20645477 56 18260828198546842627
21033648 29 18261399906118019824
21756936 100 18273497879275357235
22061861 79 17167577194385220924
22393880 68 18040439867509542198
23198884 109 17530962492993358657
23402539 116 18411140204334568570
23402655 69 18409451397271029370
23559900 14 16226055453335266330
25122255 55 9367345967978749688
3004659 81 17385719206472759630
392239 28 13973671832707769945
46194498 28 17897172316709069048
5281201 14 18187645739784207424
5283173 99 18407760335466172112
531348 171 18335703858014375726
542803 24 18201438052387230502
559249 180 6483361014944073819
6126387 218 18338241566170870610
633830 44 18343305838616953358
7288768 16 17417808495793688089
76465 3 7565047372684053681
7808743 9 18342182206178809385
90127 26 18337951195477775384

> <PUBCHEM_SHAPE_MULTIPOLES>
416.34
14.34
2.39
1.45
16.96
1.39
-0.07
7.83
-2.76
-4.43
-0.3
0.15
-0.56
0.33

> <PUBCHEM_SHAPE_SELFOVERLAP>
876.305

> <PUBCHEM_SHAPE_VOLUME>
233.1

> <PUBCHEM_COORDINATE_TYPE>
2
5
10

$$$$

