11946
  -OEChem-06261206193D

 19 20  0     0  0  0  0  0  0999 V2000
   -3.7659   -0.5979    0.0004 O   0  5  0  0  0  0  0  0  0  0  0  0
   -3.1801    1.5177    0.0003 O   0  0  0  0  0  0  0  0  0  0  0  0
    1.7639    1.5339   -0.0001 N   0  0  0  0  0  0  0  0  0  0  0  0
   -2.8870    0.2976    0.0000 N   0  3  0  0  0  0  0  0  0  0  0  0
    1.1752   -0.8029    0.0000 C   0  0  0  0  0  0  0  0  0  0  0  0
    0.8292    0.5646   -0.0002 C   0  0  0  0  0  0  0  0  0  0  0  0
   -0.5223    0.8982   -0.0003 C   0  0  0  0  0  0  0  0  0  0  0  0
    0.1735   -1.7884    0.0000 C   0  0  0  0  0  0  0  0  0  0  0  0
   -1.5185   -0.0814   -0.0004 C   0  0  0  0  0  0  0  0  0  0  0  0
   -1.1705   -1.4265   -0.0002 C   0  0  0  0  0  0  0  0  0  0  0  0
    2.5356   -1.1393    0.0001 C   0  0  0  0  0  0  0  0  0  0  0  0
    3.5010   -0.1427    0.0003 C   0  0  0  0  0  0  0  0  0  0  0  0
    3.0659    1.1671    0.0001 C   0  0  0  0  0  0  0  0  0  0  0  0
   -0.7829    1.9560   -0.0002 H   0  0  0  0  0  0  0  0  0  0  0  0
    0.4357   -2.8442    0.0001 H   0  0  0  0  0  0  0  0  0  0  0  0
   -1.9146   -2.2184   -0.0001 H   0  0  0  0  0  0  0  0  0  0  0  0
    2.8505   -2.1803    0.0002 H   0  0  0  0  0  0  0  0  0  0  0  0
    4.5572   -0.3849    0.0004 H   0  0  0  0  0  0  0  0  0  0  0  0
    3.7748    1.9885    0.0002 H   0  0  0  0  0  0  0  0  0  0  0  0
  1  4  1  0  0  0  0
  2  4  2  0  0  0  0
  3  6  1  0  0  0  0
  3 13  2  0  0  0  0
  4  9  1  0  0  0  0
  5  6  2  0  0  0  0
  5  8  1  0  0  0  0
  5 11  1  0  0  0  0
  6  7  1  0  0  0  0
  7  9  2  0  0  0  0
  7 14  1  0  0  0  0
  8 10  2  0  0  0  0
  8 15  1  0  0  0  0
  9 10  1  0  0  0  0
 10 16  1  0  0  0  0
 11 12  2  0  0  0  0
 11 17  1  0  0  0  0
 12 13  1  0  0  0  0
 12 18  1  0  0  0  0
 13 19  1  0  0  0  0
M  CHG  2   1  -1   4   1
M  END
> <PUBCHEM_COMPOUND_CID>
11946

> <PUBCHEM_CONFORMER_RMSD>
0.4

> <PUBCHEM_CONFORMER_DIVERSEORDER>
1

> <PUBCHEM_MMFF94_PARTIAL_CHARGES>
18
1 -0.52
10 -0.15
11 -0.15
12 -0.15
13 0.16
14 0.15
15 0.15
16 0.15
17 0.15
18 0.15
19 0.15
2 -0.52
3 -0.62
4 0.91
6 0.31
7 -0.15
8 -0.15
9 0.13

> <PUBCHEM_EFFECTIVE_ROTOR_COUNT>
1

> <PUBCHEM_PHARMACOPHORE_FEATURES>
6
1 1 acceptor
1 1 anion
1 2 acceptor
1 3 acceptor
6 3 5 6 11 12 13 rings
6 5 6 7 8 9 10 rings

> <PUBCHEM_HEAVY_ATOM_COUNT>
13

> <PUBCHEM_ATOM_DEF_STEREO_COUNT>
0

> <PUBCHEM_ATOM_UDEF_STEREO_COUNT>
0

> <PUBCHEM_BOND_DEF_STEREO_COUNT>
0

> <PUBCHEM_BOND_UDEF_STEREO_COUNT>
0

> <PUBCHEM_ISOTOPIC_ATOM_COUNT>
0

> <PUBCHEM_COMPONENT_COUNT>
1

> <PUBCHEM_CACTVS_TAUTO_COUNT>
1

> <PUBCHEM_CONFORMER_ID>
00002EAA00000001

> <PUBCHEM_MMFF94_ENERGY>
41.1224

> <PUBCHEM_FEATURE_SELFOVERLAP>
30.559

> <PUBCHEM_SHAPE_FINGERPRINT>
10219947 1 18272087201424900444
10608611 8 18410858741504651737
10967382 1 18410855456023189510
10980938 120 18411418431799253154
11471102 20 18410860996362125037
12032990 46 18411130346646451211
12932764 1 17313394404627139689
13380535 76 18410576158547788938
14144814 61 18410856568235090024
14325111 11 18410573993831244897
14897335 6 18336832991893818510
14911166 2 18409157831977289374
15442244 35 18265897049924175970
15536298 74 18333450945861650358
15775835 57 18413385419520322884
16945 1 18410856572830795974
17844478 74 17988639709702463757
18186145 218 18334571390674814909
193761 8 17689998938157030854
20201158 50 18409165528215973966
20645476 183 17916567749231325422
20645477 70 18337114574493086519
21501502 16 18267026059503469830
23235685 24 18409736153191297352
23402539 116 18259995872033123020
23402655 69 18335428988828793781
23463225 33 18341615949068557706
23552423 10 18127693734276421006
23559900 14 18334005074711946820
25 1 18340206404962691487
2748010 2 18338511915989943294
528886 8 18410016515892895250
53812653 166 18262523593884531320
69090 78 18260553281753311815
7364860 26 18264208195864357894

> <PUBCHEM_SHAPE_MULTIPOLES>
245.83
5.59
1.71
0.59
1.8
0.12
0
-1.09
0
-0.09
0
-0.06
0.02
0

> <PUBCHEM_SHAPE_SELFOVERLAP>
541.9

> <PUBCHEM_SHAPE_VOLUME>
132.3

> <PUBCHEM_COORDINATE_TYPE>
2
5
10

$$$$

