73466
  -OEChem-07051212583D

 49 51  0     1  0  0  0  0  0999 V2000
    0.4418   -0.4513   -0.3693 O   0  0  0  0  0  0  0  0  0  0  0  0
   -0.9646   -0.5324    1.5173 O   0  0  0  0  0  0  0  0  0  0  0  0
    2.4097    0.8017   -0.4076 O   0  0  0  0  0  0  0  0  0  0  0  0
   -2.7299    1.7043    1.5195 O   0  0  0  0  0  0  0  0  0  0  0  0
    1.9201   -2.7064    0.4891 O   0  0  0  0  0  0  0  0  0  0  0  0
   -2.9726    4.2235    0.3236 O   0  0  0  0  0  0  0  0  0  0  0  0
    4.7232   -2.5917   -0.4113 O   0  0  0  0  0  0  0  0  0  0  0  0
    5.9054   -0.0464    0.2812 O   0  0  0  0  0  0  0  0  0  0  0  0
    3.4009    3.3449   -0.0829 O   0  0  0  0  0  0  0  0  0  0  0  0
   -3.7772   -2.7579   -1.4454 O   0  0  0  0  0  0  0  0  0  0  0  0
   -4.1683   -3.1279    0.7773 O   0  0  0  0  0  0  0  0  0  0  0  0
   -1.6087    0.7989   -0.4887 C   0  0  2  0  0  0  0  0  0  0  0  0
   -2.5383    1.8831    0.1216 C   0  0  1  0  0  0  0  0  0  0  0  0
   -2.5530   -0.3392   -0.9550 C   0  0  2  0  0  0  0  0  0  0  0  0
   -0.4946    0.2762    0.4307 C   0  0  2  0  0  0  0  0  0  0  0  0
   -3.8320    1.6116   -0.5852 C   0  0  0  0  0  0  0  0  0  0  0  0
   -3.8383    0.4082   -1.1681 C   0  0  0  0  0  0  0  0  0  0  0  0
    1.7647   -0.3388    0.1543 C   0  0  2  0  0  0  0  0  0  0  0  0
   -2.6677   -1.4265    0.0676 C   0  0  0  0  0  0  0  0  0  0  0  0
   -2.0074    3.2916   -0.1286 C   0  0  0  0  0  0  0  0  0  0  0  0
    2.5238   -1.6158   -0.2064 C   0  0  1  0  0  0  0  0  0  0  0  0
    3.9977   -1.5165    0.1871 C   0  0  2  0  0  0  0  0  0  0  0  0
    4.6127   -0.2035   -0.2978 C   0  0  1  0  0  0  0  0  0  0  0  0
    3.7339    0.9860    0.0962 C   0  0  1  0  0  0  0  0  0  0  0  0
   -1.9305   -1.4461    1.1840 C   0  0  0  0  0  0  0  0  0  0  0  0
    4.2659    2.2956   -0.4773 C   0  0  0  0  0  0  0  0  0  0  0  0
   -3.6165   -2.5253   -0.1258 C   0  0  0  0  0  0  0  0  0  0  0  0
   -1.1405    1.2107   -1.3972 H   0  0  0  0  0  0  0  0  0  0  0  0
   -2.1825   -0.7470   -1.9032 H   0  0  0  0  0  0  0  0  0  0  0  0
    0.0058    1.1493    0.8694 H   0  0  0  0  0  0  0  0  0  0  0  0
   -4.6801    2.2819   -0.5878 H   0  0  0  0  0  0  0  0  0  0  0  0
   -4.6866    0.0056   -1.7042 H   0  0  0  0  0  0  0  0  0  0  0  0
    1.7236   -0.2401    1.2488 H   0  0  0  0  0  0  0  0  0  0  0  0
    2.4301   -1.8320   -1.2773 H   0  0  0  0  0  0  0  0  0  0  0  0
   -1.0812    3.4674    0.4288 H   0  0  0  0  0  0  0  0  0  0  0  0
   -1.8230    3.4750   -1.1927 H   0  0  0  0  0  0  0  0  0  0  0  0
    4.1159   -1.6292    1.2718 H   0  0  0  0  0  0  0  0  0  0  0  0
    4.7434   -0.2425   -1.3863 H   0  0  0  0  0  0  0  0  0  0  0  0
    3.6796    1.0918    1.1883 H   0  0  0  0  0  0  0  0  0  0  0  0
   -2.0219   -2.1821    1.9717 H   0  0  0  0  0  0  0  0  0  0  0  0
   -1.8975    1.9204    1.9725 H   0  0  0  0  0  0  0  0  0  0  0  0
    4.2876    2.2744   -1.5720 H   0  0  0  0  0  0  0  0  0  0  0  0
    5.2708    2.5205   -0.1089 H   0  0  0  0  0  0  0  0  0  0  0  0
    1.9916   -2.5327    1.4433 H   0  0  0  0  0  0  0  0  0  0  0  0
   -2.6134    5.1119    0.1588 H   0  0  0  0  0  0  0  0  0  0  0  0
    5.6558   -2.4925   -0.1538 H   0  0  0  0  0  0  0  0  0  0  0  0
    5.7987   -0.0035    1.2468 H   0  0  0  0  0  0  0  0  0  0  0  0
    2.5105    3.1315   -0.4105 H   0  0  0  0  0  0  0  0  0  0  0  0
   -4.4085   -3.4891   -1.6168 H   0  0  0  0  0  0  0  0  0  0  0  0
  1 15  1  0  0  0  0
  1 18  1  0  0  0  0
  2 15  1  0  0  0  0
  2 25  1  0  0  0  0
  3 18  1  0  0  0  0
  3 24  1  0  0  0  0
  4 13  1  0  0  0  0
  4 41  1  0  0  0  0
  5 21  1  0  0  0  0
  5 44  1  0  0  0  0
  6 20  1  0  0  0  0
  6 45  1  0  0  0  0
  7 22  1  0  0  0  0
  7 46  1  0  0  0  0
  8 23  1  0  0  0  0
  8 47  1  0  0  0  0
  9 26  1  0  0  0  0
  9 48  1  0  0  0  0
 10 27  1  0  0  0  0
 10 49  1  0  0  0  0
 11 27  2  0  0  0  0
 12 13  1  0  0  0  0
 12 14  1  0  0  0  0
 12 15  1  0  0  0  0
 12 28  1  0  0  0  0
 13 16  1  0  0  0  0
 13 20  1  0  0  0  0
 14 17  1  0  0  0  0
 14 19  1  0  0  0  0
 14 29  1  0  0  0  0
 15 30  1  0  0  0  0
 16 17  2  0  0  0  0
 16 31  1  0  0  0  0
 17 32  1  0  0  0  0
 18 21  1  0  0  0  0
 18 33  1  0  0  0  0
 19 25  2  0  0  0  0
 19 27  1  0  0  0  0
 20 35  1  0  0  0  0
 20 36  1  0  0  0  0
 21 22  1  0  0  0  0
 21 34  1  0  0  0  0
 22 23  1  0  0  0  0
 22 37  1  0  0  0  0
 23 24  1  0  0  0  0
 23 38  1  0  0  0  0
 24 26  1  0  0  0  0
 24 39  1  0  0  0  0
 25 40  1  0  0  0  0
 26 42  1  0  0  0  0
 26 43  1  0  0  0  0
M  END
> <PUBCHEM_COMPOUND_CID>
73466

> <PUBCHEM_CONFORMER_RMSD>
0.8

> <PUBCHEM_CONFORMER_DIVERSEORDER>
2
44
65
49
70
68
45
46
26
7
94
77
90
80
48
11
20
36
81
79
60
37
21
100
98
72
3
23
78
73
82
96
59
38
95
69
61
76
99
86
92
14
66
1
62
67
41
56
52
6
84
28
4
88
97
43
47
29
50
18
40
74
16
17
87
8
42
31
19
83
54
57
63
51
35
75
89
33
24
39
53
64
32
22
71
30
15
58
27
10
25
93
85
55
34
12
13
91
9
5

> <PUBCHEM_MMFF94_PARTIAL_CHARGES>
36
1 -0.56
10 -0.65
11 -0.57
13 0.42
14 0.28
15 0.56
16 -0.29
17 -0.29
18 0.56
19 -0.12
2 -0.36
20 0.28
21 0.28
22 0.28
23 0.28
24 0.28
25 -0.07
26 0.28
27 0.71
3 -0.56
31 0.15
32 0.15
4 -0.68
40 0.15
41 0.4
44 0.4
45 0.4
46 0.4
47 0.4
48 0.4
49 0.5
5 -0.68
6 -0.68
7 -0.68
8 -0.68
9 -0.68

> <PUBCHEM_EFFECTIVE_ROTOR_COUNT>
6.8

> <PUBCHEM_PHARMACOPHORE_FEATURES>
21
1 1 acceptor
1 10 acceptor
1 11 acceptor
1 2 acceptor
1 3 acceptor
1 4 acceptor
1 4 donor
1 5 acceptor
1 5 donor
1 6 acceptor
1 6 donor
1 7 acceptor
1 7 donor
1 8 acceptor
1 8 donor
1 9 acceptor
1 9 donor
3 10 11 27 anion
5 12 13 14 16 17 rings
6 2 12 14 15 19 25 rings
6 3 18 21 22 23 24 rings

> <PUBCHEM_HEAVY_ATOM_COUNT>
27

> <PUBCHEM_ATOM_DEF_STEREO_COUNT>
9

> <PUBCHEM_ATOM_UDEF_STEREO_COUNT>
0

> <PUBCHEM_BOND_DEF_STEREO_COUNT>
0

> <PUBCHEM_BOND_UDEF_STEREO_COUNT>
0

> <PUBCHEM_ISOTOPIC_ATOM_COUNT>
0

> <PUBCHEM_COMPONENT_COUNT>
1

> <PUBCHEM_CACTVS_TAUTO_COUNT>
1

> <PUBCHEM_CONFORMER_ID>
00011EFA00000002

> <PUBCHEM_MMFF94_ENERGY>
77.9415

> <PUBCHEM_FEATURE_SELFOVERLAP>
106.928

> <PUBCHEM_SHAPE_FINGERPRINT>
10616163 171 18409168822197589830
10670039 82 18127114300687716932
11045515 52 18199474260127091093
11405975 8 18340488958292893058
11578080 2 17459488696527204609
12107183 9 17836089244728280266
12403260 363 18342182124964327106
12633257 1 18058457667622164008
12788726 201 18340501027531134387
13224815 77 18411132511684235470
133893 2 15696286496801326869
13583140 156 17822023003495515498
13911987 19 17694213370632527772
14251764 38 18411982464411753424
14790565 3 18193556890706087321
15064981 194 18342162389384595213
17349148 13 17846218804604618486
17492 89 18411136918321382798
17844677 252 18409442592545985014
19930381 70 18050570638171389672
200 152 18186526509434132686
20286276 3 18410565219545492086
20681677 76 18411981334682022984
21033648 144 18341622537617449428
21065198 57 18338516447328023246
21709351 56 18411419501720870326
221490 88 18411416198748750470
22393880 68 18410006672213312646
23227448 37 18337952401926040773
23557571 272 18341048532238625607
23558518 356 18272360992715609728
23559900 14 18410020956989260576
25265897 201 17971730406093484269
312423 11 18339349795526981902
350125 39 18338511942102365584
4214541 1 18411702114362656846
469060 322 18122894348614716889
474 4 18343303686727665636
5104073 3 18409171039028404114
9709674 26 18335700610654882566
9981440 41 18270408178835166176

> <PUBCHEM_SHAPE_MULTIPOLES>
491.08
10.76
4.17
1.03
10.82
1.86
0.1
-1.36
-1.33
-2.58
0.18
-0.93
-0.19
-0.32

> <PUBCHEM_SHAPE_SELFOVERLAP>
1045.492

> <PUBCHEM_SHAPE_VOLUME>
267.4

> <PUBCHEM_COORDINATE_TYPE>
2
5
10

$$$$

