73065
  -OEChem-07051212553D

 34 37  0     1  0  0  0  0  0999 V2000
    3.9198   -1.5437    0.9003 O   0  0  0  0  0  0  0  0  0  0  0  0
    3.5797    1.1219    1.7067 O   0  0  0  0  0  0  0  0  0  0  0  0
    3.4343    1.7530   -1.8651 O   0  0  0  0  0  0  0  0  0  0  0  0
   -3.8123    1.9824    0.3015 O   0  0  0  0  0  0  0  0  0  0  0  0
   -4.6738   -0.2587    0.1061 O   0  0  0  0  0  0  0  0  0  0  0  0
   -0.6231   -3.3230   -0.6416 O   0  0  0  0  0  0  0  0  0  0  0  0
    1.1615   -1.9609   -0.1670 N   0  0  0  0  0  0  0  0  0  0  0  0
    1.6995   -0.7351    0.4174 C   0  0  1  0  0  0  0  0  0  0  0  0
    3.1980   -0.6225    0.0835 C   0  0  1  0  0  0  0  0  0  0  0  0
    3.7273    0.7952    0.3235 C   0  0  1  0  0  0  0  0  0  0  0  0
    0.8911    0.4443   -0.0709 C   0  0  0  0  0  0  0  0  0  0  0  0
    2.9560    1.8128   -0.5234 C   0  0  2  0  0  0  0  0  0  0  0  0
    1.4701    1.5703   -0.5292 C   0  0  0  0  0  0  0  0  0  0  0  0
   -0.5760    0.2493   -0.0452 C   0  0  0  0  0  0  0  0  0  0  0  0
   -1.0981   -1.0652   -0.1426 C   0  0  0  0  0  0  0  0  0  0  0  0
   -0.1844   -2.2194   -0.3321 C   0  0  0  0  0  0  0  0  0  0  0  0
   -1.4683    1.3248    0.1160 C   0  0  0  0  0  0  0  0  0  0  0  0
   -2.4804   -1.3054   -0.1051 C   0  0  0  0  0  0  0  0  0  0  0  0
   -2.8234    1.0585    0.1535 C   0  0  0  0  0  0  0  0  0  0  0  0
   -3.3149   -0.2190    0.0448 C   0  0  0  0  0  0  0  0  0  0  0  0
   -4.9825    1.1404    0.2689 C   0  0  0  0  0  0  0  0  0  0  0  0
    1.5652   -0.8385    1.5027 H   0  0  0  0  0  0  0  0  0  0  0  0
    3.3754   -0.9086   -0.9617 H   0  0  0  0  0  0  0  0  0  0  0  0
    4.8004    0.8244    0.1002 H   0  0  0  0  0  0  0  0  0  0  0  0
    3.1334    2.8269   -0.1463 H   0  0  0  0  0  0  0  0  0  0  0  0
    0.8695    2.3833   -0.9289 H   0  0  0  0  0  0  0  0  0  0  0  0
    1.7951   -2.7474   -0.2764 H   0  0  0  0  0  0  0  0  0  0  0  0
   -1.1223    2.3479    0.2244 H   0  0  0  0  0  0  0  0  0  0  0  0
    4.8609   -1.4650    0.6686 H   0  0  0  0  0  0  0  0  0  0  0  0
   -2.8942   -2.3047   -0.1874 H   0  0  0  0  0  0  0  0  0  0  0  0
    3.9515    2.0106    1.8385 H   0  0  0  0  0  0  0  0  0  0  0  0
    4.3786    1.9845   -1.8506 H   0  0  0  0  0  0  0  0  0  0  0  0
   -5.5353    1.2713    1.2063 H   0  0  0  0  0  0  0  0  0  0  0  0
   -5.6209    1.4584   -0.5635 H   0  0  0  0  0  0  0  0  0  0  0  0
  1  9  1  0  0  0  0
  1 29  1  0  0  0  0
  2 10  1  0  0  0  0
  2 31  1  0  0  0  0
  3 12  1  0  0  0  0
  3 32  1  0  0  0  0
  4 19  1  0  0  0  0
  4 21  1  0  0  0  0
  5 20  1  0  0  0  0
  5 21  1  0  0  0  0
  6 16  2  0  0  0  0
  7  8  1  0  0  0  0
  7 16  1  0  0  0  0
  7 27  1  0  0  0  0
  8  9  1  0  0  0  0
  8 11  1  0  0  0  0
  8 22  1  0  0  0  0
  9 10  1  0  0  0  0
  9 23  1  0  0  0  0
 10 12  1  0  0  0  0
 10 24  1  0  0  0  0
 11 13  2  0  0  0  0
 11 14  1  0  0  0  0
 12 13  1  0  0  0  0
 12 25  1  0  0  0  0
 13 26  1  0  0  0  0
 14 15  1  0  0  0  0
 14 17  2  0  0  0  0
 15 16  1  0  0  0  0
 15 18  2  0  0  0  0
 17 19  1  0  0  0  0
 17 28  1  0  0  0  0
 18 20  1  0  0  0  0
 18 30  1  0  0  0  0
 19 20  2  0  0  0  0
 21 33  1  0  0  0  0
 21 34  1  0  0  0  0
M  END
> <PUBCHEM_COMPOUND_CID>
73065

> <PUBCHEM_CONFORMER_RMSD>
0.6

> <PUBCHEM_CONFORMER_DIVERSEORDER>
1
2

> <PUBCHEM_MMFF94_PARTIAL_CHARGES>
28
1 -0.68
10 0.28
11 -0.17
12 0.42
13 -0.29
14 0.03
15 0.09
16 0.54
17 -0.15
18 -0.15
19 0.08
2 -0.68
20 0.08
21 0.56
26 0.15
27 0.37
28 0.15
29 0.4
3 -0.68
30 0.15
31 0.4
32 0.4
4 -0.36
5 -0.36
6 -0.57
7 -0.73
8 0.44
9 0.28

> <PUBCHEM_EFFECTIVE_ROTOR_COUNT>
1.4

> <PUBCHEM_PHARMACOPHORE_FEATURES>
14
1 1 acceptor
1 1 donor
1 2 acceptor
1 2 donor
1 3 acceptor
1 3 donor
1 4 acceptor
1 5 acceptor
1 6 acceptor
1 7 donor
5 4 5 19 20 21 rings
6 14 15 17 18 19 20 rings
6 7 8 11 14 15 16 rings
6 8 9 10 11 12 13 rings

> <PUBCHEM_HEAVY_ATOM_COUNT>
21

> <PUBCHEM_ATOM_DEF_STEREO_COUNT>
4

> <PUBCHEM_ATOM_UDEF_STEREO_COUNT>
0

> <PUBCHEM_BOND_DEF_STEREO_COUNT>
0

> <PUBCHEM_BOND_UDEF_STEREO_COUNT>
0

> <PUBCHEM_ISOTOPIC_ATOM_COUNT>
0

> <PUBCHEM_COMPONENT_COUNT>
1

> <PUBCHEM_CACTVS_TAUTO_COUNT>
2

> <PUBCHEM_CONFORMER_ID>
00011D6900000001

> <PUBCHEM_MMFF94_ENERGY>
54.9043

> <PUBCHEM_FEATURE_SELFOVERLAP>
71.253

> <PUBCHEM_SHAPE_FINGERPRINT>
10062212 137 18408895035597278691
10411042 1 17112408378334562991
10616163 171 18267860579938518726
10759866 29 18201429230208023436
10967382 1 18410011048088206495
11132069 177 18411986857894031633
12173636 292 18335145258709286103
12236239 1 18131352969008502916
12403259 118 18202007616337528329
12403814 3 17846506898337065621
12553582 1 17472980597427294318
12592029 89 18411975901501129115
12633257 1 17346605170386976488
12644460 14 17704067387557126736
12788726 201 17696752160134889234
13140716 1 18411140255130559763
13380535 76 18411417328240688339
138480 1 17688588690320924839
14178342 30 18050303478879112066
15196674 1 18410293614308448195
15309172 13 18408597063635093739
15442244 35 18412829113923506458
15536298 74 18334856146980036031
16752209 62 18263642853313173750
16945 1 18193277377911349558
1813 80 17346045584257974282
18186145 218 18409449219163571164
19784866 9 18262518220906765953
20510252 161 18114458968541831569
20715895 44 17909557490979632349
21267235 1 18411692210062798011
21524375 3 18412826880450984691
23184049 59 18343587360305417916
2334 1 18410290293976890583
23366157 5 18127684049051783183
23402539 116 18186811257149555813
23463225 33 18342177782188005284
23557571 272 17605838006420908250
23558518 356 17693374443418685780
23559900 14 18263080083832982614
25147074 1 18129108818900466790
2748010 2 18338795731523357406
3091708 16 9409705740186897571
335352 9 18338236076042058302
350125 39 18338515356316867036
38570 142 17559087923455053156
42630746 31 18261953059213959479
44154327 71 18341607109851977836
474 4 18202843244757523441
495365 180 17168150027047736562
5104073 3 18410855477740574635
633830 44 17775566433455279313
69090 78 18409173194669157419
7064713 232 18335989739210554065
7097593 13 18201455683059715210
7164475 11 18047478824538301446
7364860 26 18116993501536488615
7808743 9 18192995907451789056
7832392 63 18338519630088576654
8272917 22 18263919020332415349
9709674 26 18410567422974731475
9981440 41 17478613413008530880
9999458 23 17988920102458425990

> <PUBCHEM_SHAPE_MULTIPOLES>
391.97
8.37
2.58
0.93
3.75
1.39
-0.04
-3.59
1.21
-0.24
-0.49
-1.02
-0.28
-0.83

> <PUBCHEM_SHAPE_SELFOVERLAP>
879.921

> <PUBCHEM_SHAPE_VOLUME>
204.6

> <PUBCHEM_COORDINATE_TYPE>
2
5
10

$$$$

