5484726
  -OEChem-07051213153D

 32 36  0     1  0  0  0  0  0999 V2000
    3.4320    1.3061   -0.3856 O   0  0  0  0  0  0  0  0  0  0  0  0
    4.7475   -0.4748    0.5120 O   0  0  0  0  0  0  0  0  0  0  0  0
   -0.3236   -1.5352   -0.3365 O   0  0  0  0  0  0  0  0  0  0  0  0
   -0.8741    3.2814    0.2407 O   0  0  0  0  0  0  0  0  0  0  0  0
   -4.7403   -1.5436    0.0929 O   0  0  0  0  0  0  0  0  0  0  0  0
   -2.1290   -2.9537   -0.3176 O   0  0  0  0  0  0  0  0  0  0  0  0
    2.6339   -1.0096   -0.5657 C   0  0  1  0  0  0  0  0  0  0  0  0
    1.5470   -0.0309   -0.3465 C   0  0  0  0  0  0  0  0  0  0  0  0
    3.8598   -0.0682   -0.5568 C   0  0  1  0  0  0  0  0  0  0  0  0
    0.1803   -0.2197   -0.2374 C   0  0  0  0  0  0  0  0  0  0  0  0
   -0.6712    0.8744   -0.0368 C   0  0  0  0  0  0  0  0  0  0  0  0
    2.0695    1.2476   -0.2631 C   0  0  0  0  0  0  0  0  0  0  0  0
   -2.0975    0.6063    0.0719 C   0  0  0  0  0  0  0  0  0  0  0  0
   -3.1524    1.6409    0.2885 C   0  0  0  0  0  0  0  0  0  0  0  0
    2.9406   -1.9018    0.5719 C   0  0  0  0  0  0  0  0  0  0  0  0
   -2.5397   -0.6483   -0.0233 C   0  0  0  0  0  0  0  0  0  0  0  0
   -4.4564    0.8460    0.3285 C   0  0  0  0  0  0  0  0  0  0  0  0
   -0.1163    2.1637    0.0478 C   0  0  0  0  0  0  0  0  0  0  0  0
    1.2651    2.3562   -0.0667 C   0  0  0  0  0  0  0  0  0  0  0  0
   -4.0000   -0.5724    0.1271 C   0  0  0  0  0  0  0  0  0  0  0  0
    4.1103   -1.5489    1.0902 C   0  0  0  0  0  0  0  0  0  0  0  0
   -1.6856   -1.8156   -0.2353 C   0  0  0  0  0  0  0  0  0  0  0  0
    2.5354   -1.5404   -1.5173 H   0  0  0  0  0  0  0  0  0  0  0  0
    4.4183   -0.1330   -1.4991 H   0  0  0  0  0  0  0  0  0  0  0  0
   -3.0121    2.1754    1.2342 H   0  0  0  0  0  0  0  0  0  0  0  0
   -3.1844    2.3688   -0.5293 H   0  0  0  0  0  0  0  0  0  0  0  0
    2.3266   -2.7202    0.9156 H   0  0  0  0  0  0  0  0  0  0  0  0
   -5.1307    1.1413   -0.4804 H   0  0  0  0  0  0  0  0  0  0  0  0
   -4.9565    0.9450    1.2961 H   0  0  0  0  0  0  0  0  0  0  0  0
    1.7066    3.3460   -0.0037 H   0  0  0  0  0  0  0  0  0  0  0  0
    4.6321   -1.9923    1.9193 H   0  0  0  0  0  0  0  0  0  0  0  0
   -0.3001    4.0658    0.2689 H   0  0  0  0  0  0  0  0  0  0  0  0
  1  9  1  0  0  0  0
  1 12  1  0  0  0  0
  2  9  1  0  0  0  0
  2 21  1  0  0  0  0
  3 10  1  0  0  0  0
  3 22  1  0  0  0  0
  4 18  1  0  0  0  0
  4 32  1  0  0  0  0
  5 20  2  0  0  0  0
  6 22  2  0  0  0  0
  7  8  1  0  0  0  0
  7  9  1  0  0  0  0
  7 15  1  0  0  0  0
  7 23  1  0  0  0  0
  8 10  1  0  0  0  0
  8 12  2  0  0  0  0
  9 24  1  0  0  0  0
 10 11  2  0  0  0  0
 11 13  1  0  0  0  0
 11 18  1  0  0  0  0
 12 19  1  0  0  0  0
 13 14  1  0  0  0  0
 13 16  2  0  0  0  0
 14 17  1  0  0  0  0
 14 25  1  0  0  0  0
 14 26  1  0  0  0  0
 15 21  2  0  0  0  0
 15 27  1  0  0  0  0
 16 20  1  0  0  0  0
 16 22  1  0  0  0  0
 17 20  1  0  0  0  0
 17 28  1  0  0  0  0
 17 29  1  0  0  0  0
 18 19  2  0  0  0  0
 19 30  1  0  0  0  0
 21 31  1  0  0  0  0
M  END
> <PUBCHEM_COMPOUND_CID>
5484726

> <PUBCHEM_CONFORMER_RMSD>
0.6

> <PUBCHEM_CONFORMER_DIVERSEORDER>
1

> <PUBCHEM_MMFF94_PARTIAL_CHARGES>
26
1 -0.36
10 0.08
11 0.03
12 0.08
13 -0.17
14 0.14
15 -0.29
16 0.03
17 0.06
18 0.08
19 -0.15
2 -0.36
20 0.49
21 -0.07
22 0.71
27 0.15
3 -0.23
30 0.15
31 0.15
32 0.45
4 -0.53
5 -0.57
6 -0.57
7 0.28
8 -0.14
9 0.56

> <PUBCHEM_EFFECTIVE_ROTOR_COUNT>
0.8

> <PUBCHEM_PHARMACOPHORE_FEATURES>
11
1 1 acceptor
1 16 anion
1 2 acceptor
1 4 donor
1 5 acceptor
1 6 acceptor
5 1 7 8 9 12 rings
5 13 14 16 17 20 rings
5 2 7 9 15 21 rings
6 3 10 11 13 16 22 rings
6 8 10 11 12 18 19 rings

> <PUBCHEM_HEAVY_ATOM_COUNT>
22

> <PUBCHEM_ATOM_DEF_STEREO_COUNT>
2

> <PUBCHEM_ATOM_UDEF_STEREO_COUNT>
0

> <PUBCHEM_BOND_DEF_STEREO_COUNT>
0

> <PUBCHEM_BOND_UDEF_STEREO_COUNT>
0

> <PUBCHEM_ISOTOPIC_ATOM_COUNT>
0

> <PUBCHEM_COMPONENT_COUNT>
1

> <PUBCHEM_CACTVS_TAUTO_COUNT>
35

> <PUBCHEM_CONFORMER_ID>
0053B0B600000001

> <PUBCHEM_MMFF94_ENERGY>
66.7404

> <PUBCHEM_FEATURE_SELFOVERLAP>
56.564

> <PUBCHEM_SHAPE_FINGERPRINT>
10062212 137 18407762543042042495
10319926 262 18118987995061773898
10616163 171 18337103458621930134
10759866 29 18201707449752498356
10967382 1 18409727326880555901
11132069 177 18187927334429022109
12236239 1 18059852892175242046
12251169 10 18409449193546825918
12403259 226 18340210674935994565
12403260 363 18408043988164907245
12403814 3 17775003522399358509
12553582 1 18409169909093061734
12788726 201 18337099172587336720
13140716 1 18409451349599238170
138480 1 15168264149445030277
13862211 1 18409169900825159703
14178342 30 17903371302978523160
14790565 3 18192700362046444921
15196674 1 18410571777723111221
15375462 189 18202285826954244114
15442244 35 18410292488847616607
15536298 74 18334293128507753864
16752209 62 18266452303391096460
16945 1 18336823203684580052
17349148 13 18113620066966165223
17492 89 18268992153645307370
17804303 29 18335135392921642901
1813 80 17418097620091438692
19591789 44 18411418423399313479
20028762 73 18041561330852942471
20510252 161 18043813301910723096
20715895 44 17981893256937424317
21033648 29 16515978067591031346
21267235 1 18411127035506299374
21421861 104 18058171807383981594
21501502 16 18266176136693198910
221490 88 18125433112325694203
2334 1 18265331698899263982
23366157 5 18056201258797471268
23402539 116 18260556644902303479
23463225 33 18411416219664158020
23559900 14 18115862078755254478
3004659 81 18201435900302705758
3091708 16 9354225469944223272
335352 9 18410291449935166205
34934 24 18337392643349422780
350125 39 18410006638090833945
3680242 22 18195800984888559731
474 4 17559383657506895404
5104073 3 18409162191258397025
7364860 26 18118402847789009592
7471813 234 17682140793025896415
7832392 63 18336828589225305519
9709674 26 18335693944802601927
9981440 41 17333090823799224528

> <PUBCHEM_SHAPE_MULTIPOLES>
417.53
8.49
2.86
0.75
0.06
0.57
-0.06
-2.8
-1.26
0.76
-0.09
-0.41
-0.12
-0.78

> <PUBCHEM_SHAPE_SELFOVERLAP>
969.105

> <PUBCHEM_SHAPE_VOLUME>
213.6

> <PUBCHEM_COORDINATE_TYPE>
2
5
10

$$$$

