6508048
  -OEChem-07051213062D

 25 26  0     0  0  0  0  0  0999 V2000
    2.0000   -1.7500    0.0000 O   0  0  0  0  0  0  0  0  0  0  0  0
    8.0622   -0.2500    0.0000 N   0  0  0  0  0  0  0  0  0  0  0  0
    8.0622    1.7500    0.0000 N   0  0  0  0  0  0  0  0  0  0  0  0
    4.5981   -0.2500    0.0000 C   0  0  0  0  0  0  0  0  0  0  0  0
    7.1962    0.2500    0.0000 C   0  0  0  0  0  0  0  0  0  0  0  0
    5.4641    0.2500    0.0000 C   0  0  0  0  0  0  0  0  0  0  0  0
    6.3301   -0.2500    0.0000 C   0  0  0  0  0  0  0  0  0  0  0  0
    3.7320    0.2500    0.0000 C   0  0  0  0  0  0  0  0  0  0  0  0
    4.5981   -1.2500    0.0000 C   0  0  0  0  0  0  0  0  0  0  0  0
    2.8660   -0.2500    0.0000 C   0  0  0  0  0  0  0  0  0  0  0  0
    3.7320   -1.7500    0.0000 C   0  0  0  0  0  0  0  0  0  0  0  0
    7.1962    1.2500    0.0000 C   0  0  0  0  0  0  0  0  0  0  0  0
    2.8660   -1.2500    0.0000 C   0  0  0  0  0  0  0  0  0  0  0  0
    8.9282    0.2500    0.0000 C   0  0  0  0  0  0  0  0  0  0  0  0
    8.9282    1.2500    0.0000 C   0  0  0  0  0  0  0  0  0  0  0  0
    5.4641    0.8700    0.0000 H   0  0  0  0  0  0  0  0  0  0  0  0
    6.3301   -0.8700    0.0000 H   0  0  0  0  0  0  0  0  0  0  0  0
    3.7320    0.8700    0.0000 H   0  0  0  0  0  0  0  0  0  0  0  0
    5.1350   -1.5600    0.0000 H   0  0  0  0  0  0  0  0  0  0  0  0
    8.0622   -0.8700    0.0000 H   0  0  0  0  0  0  0  0  0  0  0  0
    2.3291    0.0600    0.0000 H   0  0  0  0  0  0  0  0  0  0  0  0
    3.7320   -2.3700    0.0000 H   0  0  0  0  0  0  0  0  0  0  0  0
    6.6592    1.5600    0.0000 H   0  0  0  0  0  0  0  0  0  0  0  0
    9.4651   -0.0600    0.0000 H   0  0  0  0  0  0  0  0  0  0  0  0
    9.4651    1.5600    0.0000 H   0  0  0  0  0  0  0  0  0  0  0  0
  1 13  2  0  0  0  0
  2  5  1  0  0  0  0
  2 14  1  0  0  0  0
  2 20  1  0  0  0  0
  3 12  2  0  0  0  0
  3 15  1  0  0  0  0
  4  6  2  0  0  0  0
  4  8  1  0  0  0  0
  4  9  1  0  0  0  0
  5  7  2  0  0  0  0
  5 12  1  0  0  0  0
  6  7  1  0  0  0  0
  6 16  1  0  0  0  0
  7 17  1  0  0  0  0
  8 10  2  0  0  0  0
  8 18  1  0  0  0  0
  9 11  2  0  0  0  0
  9 19  1  0  0  0  0
 10 13  1  0  0  0  0
 10 21  1  0  0  0  0
 11 13  1  0  0  0  0
 11 22  1  0  0  0  0
 12 23  1  0  0  0  0
 14 15  2  0  0  0  0
 14 24  1  0  0  0  0
 15 25  1  0  0  0  0
M  END
> <PUBCHEM_COMPOUND_CID>
6508048

> <PUBCHEM_COMPOUND_CANONICALIZED>
1

> <PUBCHEM_CACTVS_COMPLEXITY>
430

> <PUBCHEM_CACTVS_HBOND_ACCEPTOR>
3

> <PUBCHEM_CACTVS_HBOND_DONOR>
1

> <PUBCHEM_CACTVS_ROTATABLE_BOND>
1

> <PUBCHEM_CACTVS_SUBSKEYS>
AAADccBzIAAAAAAAAAAAAAAAAAAAAAAAAAAgQAAAAAAAAAAAAAAAHgAQAAAADAzBgAQAAALAAACoArR3RAAAAAAgAgAICIAIAFgIAAAAAQAAAAAAEAAIgYIAAAAAAAAAAAAAAAAAAAAAAAAAAAAAAAAAAA==

> <PUBCHEM_IUPAC_OPENEYE_NAME>
4-[(2E)-2-(1H-pyrazin-2-ylidene)ethylidene]cyclohexa-2,5-dien-1-one

> <PUBCHEM_IUPAC_CAS_NAME>
4-[(2E)-2-(1H-pyrazin-2-ylidene)ethylidene]-1-cyclohexa-2,5-dienone

> <PUBCHEM_IUPAC_NAME>
4-[(2E)-2-(1H-pyrazin-2-ylidene)ethylidene]cyclohexa-2,5-dien-1-one

> <PUBCHEM_IUPAC_SYSTEMATIC_NAME>
4-[(2E)-2-(1H-pyrazin-2-ylidene)ethylidene]cyclohexa-2,5-dien-1-one

> <PUBCHEM_IUPAC_TRADITIONAL_NAME>
4-[(2E)-2-(1H-pyrazin-2-ylidene)ethylidene]cyclohexa-2,5-dien-1-one

> <PUBCHEM_IUPAC_INCHI>
InChI=1S/C12H10N2O/c15-12-5-2-10(3-6-12)1-4-11-9-13-7-8-14-11/h1-9,14H/b11-4+

> <PUBCHEM_IUPAC_INCHIKEY>
RYHIWGGIKINYKX-NYYWCZLTSA-N

> <PUBCHEM_XLOGP3_AA>
1

> <PUBCHEM_EXACT_MASS>
198.079313

> <PUBCHEM_MOLECULAR_FORMULA>
C12H10N2O

> <PUBCHEM_MOLECULAR_WEIGHT>
198.2206

> <PUBCHEM_OPENEYE_CAN_SMILES>
C1=CC(=O)C=CC1=CC=C2C=NC=CN2

> <PUBCHEM_OPENEYE_ISO_SMILES>
C1=CC(=O)C=CC1=C/C=C/2\C=NC=CN2

> <PUBCHEM_CACTVS_TPSA>
41.5

> <PUBCHEM_MONOISOTOPIC_WEIGHT>
198.079313

> <PUBCHEM_TOTAL_CHARGE>
0

> <PUBCHEM_HEAVY_ATOM_COUNT>
15

> <PUBCHEM_ATOM_DEF_STEREO_COUNT>
0

> <PUBCHEM_ATOM_UDEF_STEREO_COUNT>
0

> <PUBCHEM_BOND_DEF_STEREO_COUNT>
1

> <PUBCHEM_BOND_UDEF_STEREO_COUNT>
0

> <PUBCHEM_ISOTOPIC_ATOM_COUNT>
0

> <PUBCHEM_COMPONENT_COUNT>
1

> <PUBCHEM_CACTVS_TAUTO_COUNT>
4

> <PUBCHEM_COORDINATE_TYPE>
1
5
255

$$$$

