5281967
  -OEChem-07051213022D

 61 62  0     1  0  0  0  0  0999 V2000
    8.2146   -3.6448    0.0000 S   0  0  0  0  0  0  0  0  0  0  0  0
    4.2294    3.6406    0.0000 O   0  0  0  0  0  0  0  0  0  0  0  0
    7.7146   -5.1836    0.0000 N   0  0  0  0  0  0  0  0  0  0  0  0
    9.4747   -4.9048    0.0000 C   0  0  1  0  0  0  0  0  0  0  0  0
   10.4528   -4.6969    0.0000 C   0  0  2  0  0  0  0  0  0  0  0  0
   10.1438   -5.6480    0.0000 C   0  0  0  0  0  0  0  0  0  0  0  0
    8.5236   -4.5958    0.0000 C   0  0  0  0  0  0  0  0  0  0  0  0
   11.1960   -4.0278    0.0000 C   0  0  0  0  0  0  0  0  0  0  0  0
    6.9056   -4.5958    0.0000 C   0  0  1  0  0  0  0  0  0  0  0  0
    7.2146   -3.6448    0.0000 C   0  0  0  0  0  0  0  0  0  0  0  0
    5.9545   -4.9048    0.0000 C   0  0  0  0  0  0  0  0  0  0  0  0
    5.2114   -4.2357    0.0000 C   0  0  0  0  0  0  0  0  0  0  0  0
    5.4193   -3.2576    0.0000 C   0  0  0  0  0  0  0  0  0  0  0  0
    4.6762   -2.5884    0.0000 C   0  0  0  0  0  0  0  0  0  0  0  0
    3.0705    2.3534    0.0000 C   0  0  0  0  0  0  0  0  0  0  0  0
    3.2784    3.3316    0.0000 C   0  0  2  0  0  0  0  0  0  0  0  0
    3.8136    1.6843    0.0000 C   0  0  0  0  0  0  0  0  0  0  0  0
    2.5352    4.0007    0.0000 C   0  0  0  0  0  0  0  0  0  0  0  0
    3.6057    0.7061    0.0000 C   0  0  0  0  0  0  0  0  0  0  0  0
    4.8841   -1.6103    0.0000 C   0  0  0  0  0  0  0  0  0  0  0  0
    4.3488    0.0370    0.0000 C   0  0  0  0  0  0  0  0  0  0  0  0
    4.1409   -0.9411    0.0000 C   0  0  0  0  0  0  0  0  0  0  0  0
    2.6546    0.3971    0.0000 C   0  0  0  0  0  0  0  0  0  0  0  0
    2.7431    4.9788    0.0000 C   0  0  0  0  0  0  0  0  0  0  0  0
    4.4374    4.6187    0.0000 C   0  0  0  0  0  0  0  0  0  0  0  0
    2.0000    5.6480    0.0000 C   0  0  0  0  0  0  0  0  0  0  0  0
    9.0117   -5.6177    0.0000 H   0  0  0  0  0  0  0  0  0  0  0  0
   10.1714   -4.1445    0.0000 H   0  0  0  0  0  0  0  0  0  0  0  0
    9.7621   -6.1365    0.0000 H   0  0  0  0  0  0  0  0  0  0  0  0
   10.6912   -5.9390    0.0000 H   0  0  0  0  0  0  0  0  0  0  0  0
   11.6108   -4.4885    0.0000 H   0  0  0  0  0  0  0  0  0  0  0  0
   11.6567   -3.6129    0.0000 H   0  0  0  0  0  0  0  0  0  0  0  0
   10.7811   -3.5670    0.0000 H   0  0  0  0  0  0  0  0  0  0  0  0
    6.8086   -5.2082    0.0000 H   0  0  0  0  0  0  0  0  0  0  0  0
    7.2794   -3.0282    0.0000 H   0  0  0  0  0  0  0  0  0  0  0  0
    6.6082   -3.5158    0.0000 H   0  0  0  0  0  0  0  0  0  0  0  0
    5.8256   -5.5113    0.0000 H   0  0  0  0  0  0  0  0  0  0  0  0
    4.6217   -4.4273    0.0000 H   0  0  0  0  0  0  0  0  0  0  0  0
    5.9942   -3.4898    0.0000 H   0  0  0  0  0  0  0  0  0  0  0  0
    5.7479   -2.7318    0.0000 H   0  0  0  0  0  0  0  0  0  0  0  0
    4.1013   -2.3562    0.0000 H   0  0  0  0  0  0  0  0  0  0  0  0
    4.3476   -3.1142    0.0000 H   0  0  0  0  0  0  0  0  0  0  0  0
    2.4956    2.5857    0.0000 H   0  0  0  0  0  0  0  0  0  0  0  0
    2.7419    1.8276    0.0000 H   0  0  0  0  0  0  0  0  0  0  0  0
    3.7391    2.9167    0.0000 H   0  0  0  0  0  0  0  0  0  0  0  0
    4.3885    1.4520    0.0000 H   0  0  0  0  0  0  0  0  0  0  0  0
    4.1422    2.2101    0.0000 H   0  0  0  0  0  0  0  0  0  0  0  0
    1.9604    4.2330    0.0000 H   0  0  0  0  0  0  0  0  0  0  0  0
    2.2067    3.4749    0.0000 H   0  0  0  0  0  0  0  0  0  0  0  0
    5.4737   -1.4187    0.0000 H   0  0  0  0  0  0  0  0  0  0  0  0
    4.9385    0.2286    0.0000 H   0  0  0  0  0  0  0  0  0  0  0  0
    3.5513   -1.1327    0.0000 H   0  0  0  0  0  0  0  0  0  0  0  0
    2.4630    0.9868    0.0000 H   0  0  0  0  0  0  0  0  0  0  0  0
    2.0650    0.2055    0.0000 H   0  0  0  0  0  0  0  0  0  0  0  0
    2.8462   -0.1925    0.0000 H   0  0  0  0  0  0  0  0  0  0  0  0
    3.3328    5.1704    0.0000 H   0  0  0  0  0  0  0  0  0  0  0  0
    5.0438    4.4898    0.0000 H   0  0  0  0  0  0  0  0  0  0  0  0
    4.5662    5.2252    0.0000 H   0  0  0  0  0  0  0  0  0  0  0  0
    3.8309    4.7476    0.0000 H   0  0  0  0  0  0  0  0  0  0  0  0
    2.1289    6.2544    0.0000 H   0  0  0  0  0  0  0  0  0  0  0  0
    1.4103    5.4564    0.0000 H   0  0  0  0  0  0  0  0  0  0  0  0
  1  7  1  0  0  0  0
  1 10  1  0  0  0  0
 16  2  1  6  0  0  0
  2 25  1  0  0  0  0
  3  7  2  0  0  0  0
  3  9  1  0  0  0  0
  4  5  1  0  0  0  0
  4  6  1  0  0  0  0
  4  7  1  0  0  0  0
  4 27  1  6  0  0  0
  5  6  1  0  0  0  0
  5  8  1  1  0  0  0
  5 28  1  0  0  0  0
  6 29  1  0  0  0  0
  6 30  1  0  0  0  0
  8 31  1  0  0  0  0
  8 32  1  0  0  0  0
  8 33  1  0  0  0  0
  9 10  1  0  0  0  0
  9 11  1  6  0  0  0
  9 34  1  0  0  0  0
 10 35  1  0  0  0  0
 10 36  1  0  0  0  0
 11 12  2  0  0  0  0
 11 37  1  0  0  0  0
 12 13  1  0  0  0  0
 12 38  1  0  0  0  0
 13 14  1  0  0  0  0
 13 39  1  0  0  0  0
 13 40  1  0  0  0  0
 14 20  1  0  0  0  0
 14 41  1  0  0  0  0
 14 42  1  0  0  0  0
 15 16  1  0  0  0  0
 15 17  1  0  0  0  0
 15 43  1  0  0  0  0
 15 44  1  0  0  0  0
 16 18  1  0  0  0  0
 16 45  1  0  0  0  0
 17 19  1  0  0  0  0
 17 46  1  0  0  0  0
 17 47  1  0  0  0  0
 18 24  1  0  0  0  0
 18 48  1  0  0  0  0
 18 49  1  0  0  0  0
 19 21  2  0  0  0  0
 19 23  1  0  0  0  0
 20 22  2  0  0  0  0
 20 50  1  0  0  0  0
 21 22  1  0  0  0  0
 21 51  1  0  0  0  0
 22 52  1  0  0  0  0
 23 53  1  0  0  0  0
 23 54  1  0  0  0  0
 23 55  1  0  0  0  0
 24 26  2  0  0  0  0
 24 56  1  0  0  0  0
 25 57  1  0  0  0  0
 25 58  1  0  0  0  0
 25 59  1  0  0  0  0
 26 60  1  0  0  0  0
 26 61  1  0  0  0  0
M  END
> <PUBCHEM_COMPOUND_CID>
5281967

> <PUBCHEM_COMPOUND_CANONICALIZED>
1

> <PUBCHEM_CACTVS_COMPLEXITY>
561

> <PUBCHEM_CACTVS_HBOND_ACCEPTOR>
3

> <PUBCHEM_CACTVS_HBOND_DONOR>
0

> <PUBCHEM_CACTVS_ROTATABLE_BOND>
12

> <PUBCHEM_CACTVS_SUBSKEYS>
AAADcfB6IABAAAAAAAAAAAAAGAAAAQAAAAAAAAAAAAAAAAAAAAAAHgQAAAAADTzlwAaCAAIABAigAiBiBACAEAAgABAICAAwAAgIAAIgAQAAAAAEwAAogAOAgAAIAAAAAAAAAAAAAAAAAAAAAAAAAAAAAA==

> <PUBCHEM_IUPAC_OPENEYE_NAME>
(4R)-4-[(1Z,5E,7E,11R)-11-methoxy-8-methyl-tetradeca-1,5,7,13-tetraenyl]-2-[(1R,2S)-2-methylcyclopropyl]-4,5-dihydrothiazole

> <PUBCHEM_IUPAC_CAS_NAME>
(4R)-4-[(1Z,5E,7E,11R)-11-methoxy-8-methyltetradeca-1,5,7,13-tetraenyl]-2-[(1R,2S)-2-methylcyclopropyl]-4,5-dihydrothiazole

> <PUBCHEM_IUPAC_NAME>
(4R)-4-[(1Z,5E,7E,11R)-11-methoxy-8-methyltetradeca-1,5,7,13-tetraenyl]-2-[(1R,2S)-2-methylcyclopropyl]-4,5-dihydro-1,3-thiazole

> <PUBCHEM_IUPAC_SYSTEMATIC_NAME>
(4R)-4-[(1Z,5E,7E,11R)-11-methoxy-8-methyl-tetradeca-1,5,7,13-tetraenyl]-2-[(1R,2S)-2-methylcyclopropyl]-4,5-dihydro-1,3-thiazole

> <PUBCHEM_IUPAC_TRADITIONAL_NAME>
(4R)-4-[(1Z,5E,7E,11R)-11-methoxy-8-methyl-tetradeca-1,5,7,13-tetraenyl]-2-[(1R,2S)-2-methylcyclopropyl]-2-thiazoline

> <PUBCHEM_IUPAC_INCHI>
InChI=1S/C23H35NOS/c1-5-11-21(25-4)15-14-18(2)12-9-7-6-8-10-13-20-17-26-23(24-20)22-16-19(22)3/h5,7,9-10,12-13,19-22H,1,6,8,11,14-17H2,2-4H3/b9-7+,13-10-,18-12+/t19-,20+,21-,22+/m0/s1

> <PUBCHEM_IUPAC_INCHIKEY>
LUEYTMPPCOCKBX-KWYHTCOPSA-N

> <PUBCHEM_XLOGP3_AA>
6.1

> <PUBCHEM_EXACT_MASS>
373.243936

> <PUBCHEM_MOLECULAR_FORMULA>
C23H35NOS

> <PUBCHEM_MOLECULAR_WEIGHT>
373.5951

> <PUBCHEM_OPENEYE_CAN_SMILES>
CC1CC1C2=NC(CS2)C=CCCC=CC=C(C)CCC(CC=C)OC

> <PUBCHEM_OPENEYE_ISO_SMILES>
C[C@H]1C[C@H]1C2=N[C@@H](CS2)/C=C\CC/C=C/C=C(\C)/CC[C@H](CC=C)OC

> <PUBCHEM_CACTVS_TPSA>
46.9

> <PUBCHEM_MONOISOTOPIC_WEIGHT>
373.243936

> <PUBCHEM_TOTAL_CHARGE>
0

> <PUBCHEM_HEAVY_ATOM_COUNT>
26

> <PUBCHEM_ATOM_DEF_STEREO_COUNT>
4

> <PUBCHEM_ATOM_UDEF_STEREO_COUNT>
0

> <PUBCHEM_BOND_DEF_STEREO_COUNT>
3

> <PUBCHEM_BOND_UDEF_STEREO_COUNT>
0

> <PUBCHEM_ISOTOPIC_ATOM_COUNT>
0

> <PUBCHEM_COMPONENT_COUNT>
1

> <PUBCHEM_CACTVS_TAUTO_COUNT>
1

> <PUBCHEM_COORDINATE_TYPE>
1
5
255

> <PUBCHEM_BONDANNOTATIONS>
16  2  6
4  27  6
5  8  5
9  11  6

$$$$

