439715
  -OEChem-07051212473D

 31 33  0     1  0  0  0  0  0999 V2000
    3.3758    1.1882    0.2924 P   0  0  2  0  0  0  0  0  0  0  0  0
    0.3606   -1.2194   -1.0840 O   0  0  0  0  0  0  0  0  0  0  0  0
    2.0305    1.3835   -0.6023 O   0  0  0  0  0  0  0  0  0  0  0  0
    2.8579   -0.0727    1.1803 O   0  0  0  0  0  0  0  0  0  0  0  0
    3.3249    2.4268    1.3293 O   0  0  0  0  0  0  0  0  0  0  0  0
    1.3812   -3.8199   -0.7674 O   0  0  0  0  0  0  0  0  0  0  0  0
    4.6570    1.0038   -0.4604 O   0  0  0  0  0  0  0  0  0  0  0  0
   -1.9456    2.1467   -1.4951 O   0  0  0  0  0  0  0  0  0  0  0  0
   -5.1900    0.0731    1.0386 O   0  0  0  0  0  0  0  0  0  0  0  0
   -1.3917    0.1546   -0.4072 N   0  0  0  0  0  0  0  0  0  0  0  0
   -3.5596    1.1130   -0.2322 N   0  0  0  0  0  0  0  0  0  0  0  0
    0.9262    0.7776    0.0857 C   0  0  2  0  0  0  0  0  0  0  0  0
    1.5244   -0.4151    0.8095 C   0  0  1  0  0  0  0  0  0  0  0  0
   -0.0401    0.1477   -0.8973 C   0  0  1  0  0  0  0  0  0  0  0  0
    1.5057   -1.4922   -0.2626 C   0  0  1  0  0  0  0  0  0  0  0  0
    1.4020   -2.8957    0.3063 C   0  0  0  0  0  0  0  0  0  0  0  0
   -2.2675    1.2058   -0.7664 C   0  0  0  0  0  0  0  0  0  0  0  0
   -1.8352   -0.8715    0.4187 C   0  0  0  0  0  0  0  0  0  0  0  0
   -3.0699   -0.9464    0.9201 C   0  0  0  0  0  0  0  0  0  0  0  0
   -4.0467    0.1120    0.5937 C   0  0  0  0  0  0  0  0  0  0  0  0
    0.4912    1.5313    0.7490 H   0  0  0  0  0  0  0  0  0  0  0  0
    0.9415   -0.6868    1.6951 H   0  0  0  0  0  0  0  0  0  0  0  0
    0.0026    0.6441   -1.8731 H   0  0  0  0  0  0  0  0  0  0  0  0
    2.3874   -1.4325   -0.9134 H   0  0  0  0  0  0  0  0  0  0  0  0
    0.4891   -3.0422    0.8884 H   0  0  0  0  0  0  0  0  0  0  0  0
    2.2647   -3.1186    0.9423 H   0  0  0  0  0  0  0  0  0  0  0  0
   -1.1360   -1.6490    0.6829 H   0  0  0  0  0  0  0  0  0  0  0  0
    3.4960    3.3331    0.9954 H   0  0  0  0  0  0  0  0  0  0  0  0
    1.3271   -4.7097   -0.3791 H   0  0  0  0  0  0  0  0  0  0  0  0
   -4.2061    1.8579   -0.4772 H   0  0  0  0  0  0  0  0  0  0  0  0
   -3.3790   -1.7590    1.5660 H   0  0  0  0  0  0  0  0  0  0  0  0
  1  3  1  0  0  0  0
  1  4  1  0  0  0  0
  1  5  1  0  0  0  0
  1  7  2  0  0  0  0
  2 14  1  0  0  0  0
  2 15  1  0  0  0  0
  3 12  1  0  0  0  0
  4 13  1  0  0  0  0
  5 28  1  0  0  0  0
  6 16  1  0  0  0  0
  6 29  1  0  0  0  0
  8 17  2  0  0  0  0
  9 20  2  0  0  0  0
 10 14  1  0  0  0  0
 10 17  1  0  0  0  0
 10 18  1  0  0  0  0
 11 17  1  0  0  0  0
 11 20  1  0  0  0  0
 11 30  1  0  0  0  0
 12 13  1  0  0  0  0
 12 14  1  0  0  0  0
 12 21  1  0  0  0  0
 13 15  1  0  0  0  0
 13 22  1  0  0  0  0
 14 23  1  0  0  0  0
 15 16  1  0  0  0  0
 15 24  1  0  0  0  0
 16 25  1  0  0  0  0
 16 26  1  0  0  0  0
 18 19  2  0  0  0  0
 18 27  1  0  0  0  0
 19 20  1  0  0  0  0
 19 31  1  0  0  0  0
M  END
> <PUBCHEM_COMPOUND_CID>
439715

> <PUBCHEM_CONFORMER_RMSD>
0.6

> <PUBCHEM_CONFORMER_DIVERSEORDER>
1
8
6
3
10
11
12
5
4
9
2
13
7

> <PUBCHEM_MMFF94_PARTIAL_CHARGES>
25
1 1.51
10 -0.47
11 -0.49
12 0.28
13 0.28
14 0.58
15 0.28
16 0.28
17 0.69
18 -0.04
19 -0.14
2 -0.56
20 0.62
27 0.15
28 0.5
29 0.4
3 -0.55
30 0.37
31 0.15
4 -0.55
5 -0.77
6 -0.68
7 -0.7
8 -0.57
9 -0.57

> <PUBCHEM_EFFECTIVE_ROTOR_COUNT>
3

> <PUBCHEM_PHARMACOPHORE_FEATURES>
11
1 11 donor
1 2 acceptor
1 5 acceptor
1 6 acceptor
1 6 donor
1 7 acceptor
1 8 acceptor
1 9 acceptor
5 1 3 4 12 13 rings
5 2 12 13 14 15 rings
6 10 11 17 18 19 20 rings

> <PUBCHEM_HEAVY_ATOM_COUNT>
20

> <PUBCHEM_ATOM_DEF_STEREO_COUNT>
4

> <PUBCHEM_ATOM_UDEF_STEREO_COUNT>
0

> <PUBCHEM_BOND_DEF_STEREO_COUNT>
0

> <PUBCHEM_BOND_UDEF_STEREO_COUNT>
0

> <PUBCHEM_ISOTOPIC_ATOM_COUNT>
0

> <PUBCHEM_COMPONENT_COUNT>
1

> <PUBCHEM_CACTVS_TAUTO_COUNT>
3

> <PUBCHEM_CONFORMER_ID>
0006B5A300000001

> <PUBCHEM_MMFF94_ENERGY>
38.916

> <PUBCHEM_FEATURE_SELFOVERLAP>
56.301

> <PUBCHEM_SHAPE_FINGERPRINT>
10366900 7 18410016507445534985
10608611 8 18270687592090346133
10922049 32 18410851028265354750
11132069 177 18271248209876512641
11578080 2 16126702641745731526
12251169 10 17988644056119793825
12507560 40 18272652398020783477
12592029 89 18411697712448706314
12839892 36 18339372854874630627
13140716 1 18055063264589445849
13583140 156 16771020664833010576
14178342 30 18197481962343249971
14223421 5 18200315549335425269
14252887 29 18129928053747220283
14289901 80 18260554458943271787
15219456 202 18341613767182862983
15309172 13 18336271145472724700
16945 1 18340216244690614198
17804303 29 17912073156203121815
1813 80 12679192664585626850
18186145 218 18041284262322077688
19049666 15 18054514878732708909
19784866 170 18343294847500139785
19784866 9 18260265265493579592
204376 136 18335423400575109976
20645477 56 18192718848033689976
20645477 70 18266191706530181775
21041028 32 18044093690518780762
21524375 3 18188214178362902726
21731228 192 18266184941650598754
22182313 1 17988645267901724669
22224240 67 18336264527212932507
23175994 123 17759238891978776615
23402539 116 18059019380651436051
23526113 38 17692827290254875999
23557571 272 17775001332193053189
23559900 14 18129940212208927975
2748010 2 18057609969679000351
276578 36 18186803569384780162
31174 14 18336542841173061599
3729539 64 18118095157212906190
458136 41 18408599271148297278
5104073 3 18201157762605664785
6049 1 18127971021517535077
621550 34 18412263943582957781
633830 44 17821730490221076724
6442390 28 18263923237584598730
7364860 26 18337106886137610022
7808743 9 17906739099053885176
81228 2 17472999306536366018
8272917 22 18334851766271922555
9709674 26 18272650190603025547

> <PUBCHEM_SHAPE_MULTIPOLES>
358.52
7.57
2.77
1.15
3.93
2.37
0.01
-3.32
2.33
-2.21
-0.53
0.06
-0.21
1.11

> <PUBCHEM_SHAPE_SELFOVERLAP>
756.673

> <PUBCHEM_SHAPE_VOLUME>
202.4

> <PUBCHEM_COORDINATE_TYPE>
2
5
10

$$$$

