443457
  -OEChem-07051213022D

 48 52  0     1  0  0  0  0  0999 V2000
    5.2308    0.3935    0.0000 O   0  0  0  0  0  0  0  0  0  0  0  0
    2.2862   -0.7071    0.0000 O   0  0  0  0  0  0  0  0  0  0  0  0
    2.8090    0.9501    0.0000 O   0  0  0  0  0  0  0  0  0  0  0  0
    6.3076    1.6219    0.0000 O   0  0  0  0  0  0  0  0  0  0  0  0
    4.5817    1.4764    0.0000 O   0  0  0  0  0  0  0  0  0  0  0  0
    6.2989   -0.4947    0.0000 C   0  0  1  0  0  0  0  0  0  0  0  0
    5.0849   -1.3404    0.0000 C   0  0  2  0  0  0  0  0  0  0  0  0
    5.9970   -1.3619    0.0000 C   0  0  2  0  0  0  0  0  0  0  0  0
    4.8219   -0.4664    0.0000 C   0  0  2  0  0  0  0  0  0  0  0  0
    5.5707    0.0545    0.0000 C   0  0  2  0  0  0  0  0  0  0  0  0
    3.9046   -0.2503    0.0000 C   0  0  3  0  0  0  0  0  0  0  0  0
    6.9949   -1.3272    0.0000 C   0  0  0  0  0  0  0  0  0  0  0  0
    7.1658   -0.1901    0.0000 C   0  0  0  0  0  0  0  0  0  0  0  0
    6.4872   -2.1385    0.0000 C   0  0  0  0  0  0  0  0  0  0  0  0
    8.0478   -1.5897    0.0000 C   0  0  1  0  0  0  0  0  0  0  0  0
    4.4471   -2.0549    0.0000 C   0  0  0  0  0  0  0  0  0  0  0  0
    3.2595   -0.9365    0.0000 C   0  0  2  0  0  0  0  0  0  0  0  0
    7.3995   -2.2397    0.0000 C   0  0  0  0  0  0  0  0  0  0  0  0
    7.9434   -0.6771    0.0000 C   0  0  0  0  0  0  0  0  0  0  0  0
    3.5310   -1.8392    0.0000 C   0  0  0  0  0  0  0  0  0  0  0  0
    3.6398    0.3935    0.0000 C   0  0  0  0  0  0  0  0  0  0  0  0
    5.4867    1.0509    0.0000 C   0  0  0  0  0  0  0  0  0  0  0  0
    2.9212   -0.0692    0.0000 C   0  0  0  0  0  0  0  0  0  0  0  0
    8.7470   -0.0820    0.0000 C   0  0  0  0  0  0  0  0  0  0  0  0
    5.5778   -2.1014    0.0000 H   0  0  0  0  0  0  0  0  0  0  0  0
    4.3868    0.2639    0.0000 H   0  0  0  0  0  0  0  0  0  0  0  0
    6.1135    0.3541    0.0000 H   0  0  0  0  0  0  0  0  0  0  0  0
    7.0378   -1.9457    0.0000 H   0  0  0  0  0  0  0  0  0  0  0  0
    6.4198   -1.5587    0.0000 H   0  0  0  0  0  0  0  0  0  0  0  0
    6.8352    0.3344    0.0000 H   0  0  0  0  0  0  0  0  0  0  0  0
    7.6036    0.2489    0.0000 H   0  0  0  0  0  0  0  0  0  0  0  0
    6.5578   -2.7544    0.0000 H   0  0  0  0  0  0  0  0  0  0  0  0
    5.9024   -2.3444    0.0000 H   0  0  0  0  0  0  0  0  0  0  0  0
    8.8505   -1.8692    0.0000 H   0  0  0  0  0  0  0  0  0  0  0  0
    4.9715   -2.3858    0.0000 H   0  0  0  0  0  0  0  0  0  0  0  0
    4.2074   -2.6267    0.0000 H   0  0  0  0  0  0  0  0  0  0  0  0
    2.8346   -1.3880    0.0000 H   0  0  0  0  0  0  0  0  0  0  0  0
    7.9250   -2.5688    0.0000 H   0  0  0  0  0  0  0  0  0  0  0  0
    7.1956   -2.8253    0.0000 H   0  0  0  0  0  0  0  0  0  0  0  0
    3.4958   -2.4582    0.0000 H   0  0  0  0  0  0  0  0  0  0  0  0
    2.9152   -1.9120    0.0000 H   0  0  0  0  0  0  0  0  0  0  0  0
    2.8088   -0.6789    0.0000 H   0  0  0  0  0  0  0  0  0  0  0  0
    2.3114    0.0432    0.0000 H   0  0  0  0  0  0  0  0  0  0  0  0
    3.0335    0.5406    0.0000 H   0  0  0  0  0  0  0  0  0  0  0  0
    8.6766    0.5340    0.0000 H   0  0  0  0  0  0  0  0  0  0  0  0
    9.3157   -0.3290    0.0000 H   0  0  0  0  0  0  0  0  0  0  0  0
    1.8612   -1.1586    0.0000 H   0  0  0  0  0  0  0  0  0  0  0  0
    6.2556    2.2397    0.0000 H   0  0  0  0  0  0  0  0  0  0  0  0
  7  1  1  1  0  0  0
  1 21  1  0  0  0  0
 17  2  1  6  0  0  0
  2 47  1  0  0  0  0
  3 21  2  0  0  0  0
  4 22  1  0  0  0  0
  4 48  1  0  0  0  0
  5 22  2  0  0  0  0
  6  8  1  0  0  0  0
  6 10  1  0  0  0  0
  6 12  1  1  0  0  0
  6 13  1  0  0  0  0
  7  8  1  0  0  0  0
  7  9  1  0  0  0  0
  7 16  1  0  0  0  0
  8 14  1  0  0  0  0
  8 25  1  6  0  0  0
  9 10  1  0  0  0  0
  9 11  1  0  0  0  0
  9 26  1  6  0  0  0
 10 22  1  6  0  0  0
 10 27  1  0  0  0  0
 11 17  1  0  0  0  0
 11 21  1  0  0  0  0
 11 23  1  0  0  0  0
 12 15  1  0  0  0  0
 12 28  1  0  0  0  0
 12 29  1  0  0  0  0
 13 19  1  0  0  0  0
 13 30  1  0  0  0  0
 13 31  1  0  0  0  0
 14 18  1  0  0  0  0
 14 32  1  0  0  0  0
 14 33  1  0  0  0  0
 15 18  1  0  0  0  0
 15 19  1  0  0  0  0
 15 34  1  1  0  0  0
 16 20  1  0  0  0  0
 16 35  1  0  0  0  0
 16 36  1  0  0  0  0
 17 20  1  0  0  0  0
 17 37  1  0  0  0  0
 18 38  1  0  0  0  0
 18 39  1  0  0  0  0
 19 24  2  0  0  0  0
 20 40  1  0  0  0  0
 20 41  1  0  0  0  0
 23 42  1  0  0  0  0
 23 43  1  0  0  0  0
 23 44  1  0  0  0  0
 24 45  1  0  0  0  0
 24 46  1  0  0  0  0
M  END
> <PUBCHEM_COMPOUND_CID>
443457

> <PUBCHEM_COMPOUND_CANONICALIZED>
1

> <PUBCHEM_CACTVS_COMPLEXITY>
685

> <PUBCHEM_CACTVS_HBOND_ACCEPTOR>
5

> <PUBCHEM_CACTVS_HBOND_DONOR>
2

> <PUBCHEM_CACTVS_ROTATABLE_BOND>
1

> <PUBCHEM_CACTVS_SUBSKEYS>
AAADceB4OAAAAAAAAAAAAAAAAAAAAaMEAAAwYAAABogSAGDAAAAAGgAACAAAD1SggAICCAAABgCIAgDSCAAAAAAgAAAAAAEAAAgAEBYAAQACQAAFoAAAAAHK7vzPgAAAAAAAAADCAAYAADAAAYAADAAAAA==

> <PUBCHEM_IUPAC_INCHI>
InChI=1S/C19H24O5/c1-9-7-18-8-10(9)3-4-11(18)19-6-5-12(20)17(2,16(23)24-19)14(19)13(18)15(21)22/h10-14,20H,1,3-8H2,2H3,(H,21,22)/t10-,11-,12+,13-,14-,17?,18+,19-/m1/s1

> <PUBCHEM_IUPAC_INCHIKEY>
RSQSQJNRHICNNH-WTVOOMFRSA-N

> <PUBCHEM_XLOGP3_AA>
1.7

> <PUBCHEM_EXACT_MASS>
332.162374

> <PUBCHEM_MOLECULAR_FORMULA>
C19H24O5

> <PUBCHEM_MOLECULAR_WEIGHT>
332.39086

> <PUBCHEM_OPENEYE_CAN_SMILES>
CC12C(CCC3(C1C(C45C3CCC(C4)C(=C)C5)C(=O)O)OC2=O)O

> <PUBCHEM_OPENEYE_ISO_SMILES>
CC12[C@H](CC[C@@]3([C@@H]1[C@@H]([C@]45[C@H]3CC[C@H](C4)C(=C)C5)C(=O)O)OC2=O)O

> <PUBCHEM_CACTVS_TPSA>
83.8

> <PUBCHEM_MONOISOTOPIC_WEIGHT>
332.162374

> <PUBCHEM_TOTAL_CHARGE>
0

> <PUBCHEM_HEAVY_ATOM_COUNT>
24

> <PUBCHEM_ATOM_DEF_STEREO_COUNT>
7

> <PUBCHEM_ATOM_UDEF_STEREO_COUNT>
1

> <PUBCHEM_BOND_DEF_STEREO_COUNT>
0

> <PUBCHEM_BOND_UDEF_STEREO_COUNT>
0

> <PUBCHEM_ISOTOPIC_ATOM_COUNT>
0

> <PUBCHEM_COMPONENT_COUNT>
1

> <PUBCHEM_CACTVS_TAUTO_COUNT>
1

> <PUBCHEM_COORDINATE_TYPE>
1
5
255

> <PUBCHEM_BONDANNOTATIONS>
7  1  5
10  22  6
11  23  3
15  34  5
17  2  6
6  12  5
8  25  6
9  26  6

$$$$

