50891
  -OEChem-07051213113D

 22 23  0     0  0  0  0  0  0999 V2000
   -0.9686   -0.0164    2.3863 Cl  0  0  0  0  0  0  0  0  0  0  0  0
    3.4659   -2.7445   -0.0294 Cl  0  0  0  0  0  0  0  0  0  0  0  0
    3.4650    2.7445    0.0038 Cl  0  0  0  0  0  0  0  0  0  0  0  0
   -4.1133   -0.0146    2.0391 Cl  0  0  0  0  0  0  0  0  0  0  0  0
    5.1011   -0.0002    0.1019 Cl  0  0  0  0  0  0  0  0  0  0  0  0
   -5.3402    0.0056   -0.9064 Cl  0  0  0  0  0  0  0  0  0  0  0  0
    0.5894    0.0014   -0.2211 C   0  0  0  0  0  0  0  0  0  0  0  0
   -0.8587    0.0028   -0.3238 C   0  0  0  0  0  0  0  0  0  0  0  0
    1.2805    1.2090   -0.1641 C   0  0  0  0  0  0  0  0  0  0  0  0
    1.2801   -1.2069   -0.1782 C   0  0  0  0  0  0  0  0  0  0  0  0
   -1.6857   -0.0051    0.7994 C   0  0  0  0  0  0  0  0  0  0  0  0
   -1.4180    0.0116   -1.6016 C   0  0  0  0  0  0  0  0  0  0  0  0
    2.6713   -1.2077   -0.0777 C   0  0  0  0  0  0  0  0  0  0  0  0
    2.6716    1.2082   -0.0637 C   0  0  0  0  0  0  0  0  0  0  0  0
   -3.0719   -0.0042    0.6449 C   0  0  0  0  0  0  0  0  0  0  0  0
   -2.8043    0.0123   -1.7561 C   0  0  0  0  0  0  0  0  0  0  0  0
    3.3670   -0.0001   -0.0205 C   0  0  0  0  0  0  0  0  0  0  0  0
   -3.6312    0.0044   -0.6328 C   0  0  0  0  0  0  0  0  0  0  0  0
    0.7356    2.1506   -0.1971 H   0  0  0  0  0  0  0  0  0  0  0  0
    0.7349   -2.1480   -0.2224 H   0  0  0  0  0  0  0  0  0  0  0  0
   -0.7905    0.0177   -2.4901 H   0  0  0  0  0  0  0  0  0  0  0  0
   -3.2223    0.0190   -2.7596 H   0  0  0  0  0  0  0  0  0  0  0  0
  1 11  1  0  0  0  0
  2 13  1  0  0  0  0
  3 14  1  0  0  0  0
  4 15  1  0  0  0  0
  5 17  1  0  0  0  0
  6 18  1  0  0  0  0
  7  8  1  0  0  0  0
  7  9  2  0  0  0  0
  7 10  1  0  0  0  0
  8 11  2  0  0  0  0
  8 12  1  0  0  0  0
  9 14  1  0  0  0  0
  9 19  1  0  0  0  0
 10 13  2  0  0  0  0
 10 20  1  0  0  0  0
 11 15  1  0  0  0  0
 12 16  2  0  0  0  0
 12 21  1  0  0  0  0
 13 17  1  0  0  0  0
 14 17  2  0  0  0  0
 15 18  2  0  0  0  0
 16 18  1  0  0  0  0
 16 22  1  0  0  0  0
M  END
> <PUBCHEM_COMPOUND_CID>
50891

> <PUBCHEM_CONFORMER_RMSD>
0.6

> <PUBCHEM_CONFORMER_DIVERSEORDER>
1

> <PUBCHEM_MMFF94_PARTIAL_CHARGES>
20
1 -0.18
10 -0.15
11 0.18
12 -0.15
13 0.18
14 0.18
15 0.18
16 -0.15
17 0.18
18 0.18
19 0.15
2 -0.18
20 0.15
21 0.15
22 0.15
3 -0.18
4 -0.18
5 -0.18
6 -0.18
9 -0.15

> <PUBCHEM_EFFECTIVE_ROTOR_COUNT>
1

> <PUBCHEM_PHARMACOPHORE_FEATURES>
2
6 7 9 10 13 14 17 rings
6 8 11 12 15 16 18 rings

> <PUBCHEM_HEAVY_ATOM_COUNT>
18

> <PUBCHEM_ATOM_DEF_STEREO_COUNT>
0

> <PUBCHEM_ATOM_UDEF_STEREO_COUNT>
0

> <PUBCHEM_BOND_DEF_STEREO_COUNT>
0

> <PUBCHEM_BOND_UDEF_STEREO_COUNT>
0

> <PUBCHEM_ISOTOPIC_ATOM_COUNT>
0

> <PUBCHEM_COMPONENT_COUNT>
1

> <PUBCHEM_CACTVS_TAUTO_COUNT>
1

> <PUBCHEM_CONFORMER_ID>
0000C6CB00000001

> <PUBCHEM_MMFF94_ENERGY>
52.1127

> <PUBCHEM_FEATURE_SELFOVERLAP>
10.149

> <PUBCHEM_SHAPE_FINGERPRINT>
10366900 7 18059852878942102532
11132069 177 16343986901561219077
11471102 20 18411702080414355660
12236239 1 17676207974252678167
12403259 415 17703504415564385993
12403814 3 17968089855034167865
12553582 1 18191863651130595918
12670546 56 17749112209424025249
13009979 54 17386562621663915066
13140716 1 18266744576516800650
13544592 145 17703789270907244443
13581323 91 15338843036180910392
13583140 156 18262235517611534897
14386348 63 17704352186279179863
15219456 202 17989207014473154821
15375358 24 17704073971298678400
16945 1 18410576189208145902
1813 80 17897996070352106414
18186145 218 18335417924861202764
19049666 15 17631460123155990908
200 152 18333457551357711013
20279233 1 17775283876088989031
20600515 1 16199870566359986573
20645477 70 18341339988687885334
21065201 7 16343707655039473883
21267235 1 16298384626322962503
22112679 90 17168143442282772712
2255824 54 18334012800741076678
23048698 100 18186802461167179869
23175994 123 18130785685185121516
23402539 116 15985106292948477915
23526113 38 17988088914606691090
23557571 272 17131824344450804761
23559900 14 16773797021818555066
23598291 2 17821717364616241521
4409770 3 15665021213614051926
474 4 18188777111400601808
573450 72 16877665690371008895
602551 16 16200428031624255552
6049 1 17846775243134463764
633830 44 18042389254275467004
69090 78 18060425690262021011
7615 1 17748832924922820441
77492 1 17676488345428061917
8272917 22 18335420200803505766
9981440 41 16451258331047930384

> <PUBCHEM_SHAPE_MULTIPOLES>
381.65
9.82
1.83
1.65
2.03
0
-0.71
0
0.4
-3.69
0.05
2.46
-0.01
0.04

> <PUBCHEM_SHAPE_SELFOVERLAP>
773.437

> <PUBCHEM_SHAPE_VOLUME>
214.8

> <PUBCHEM_COORDINATE_TYPE>
2
5
10

$$$$

