12308619
  -OEChem-07051213093D

 84 88  0     1  0  0  0  0  0999 V2000
   -6.1539    0.7919    0.3652 O   0  0  0  0  0  0  0  0  0  0  0  0
    1.5502    0.8281   -0.0842 C   0  0  2  0  0  0  0  0  0  0  0  0
    1.0441   -0.5648    0.5150 C   0  0  1  0  0  0  0  0  0  0  0  0
    3.0789    0.9363    0.1566 C   0  0  1  0  0  0  0  0  0  0  0  0
    3.9524   -0.2191   -0.4043 C   0  0  1  0  0  0  0  0  0  0  0  0
   -0.4877   -0.7206    0.1485 C   0  0  2  0  0  0  0  0  0  0  0  0
    1.9083   -1.7340   -0.0628 C   0  0  0  0  0  0  0  0  0  0  0  0
    5.3206    0.2414    0.1770 C   0  0  2  0  0  0  0  0  0  0  0  0
    3.4312   -1.5567    0.1486 C   0  0  0  0  0  0  0  0  0  0  0  0
    3.8571    2.1985   -0.2171 C   0  0  0  0  0  0  0  0  0  0  0  0
    0.7969    1.9610    0.6635 C   0  0  0  0  0  0  0  0  0  0  0  0
   -2.8546    0.4178    0.4435 C   0  0  2  0  0  0  0  0  0  0  0  0
   -1.3039    0.5428    0.4699 C   0  0  0  0  0  0  0  0  0  0  0  0
    5.3328    1.7676   -0.0868 C   0  0  0  0  0  0  0  0  0  0  0  0
   -3.2723   -0.9158   -0.2661 C   0  0  1  0  0  0  0  0  0  0  0  0
   -1.1539   -1.9390    0.8076 C   0  0  0  0  0  0  0  0  0  0  0  0
    1.2050    0.9920   -1.5954 C   0  0  0  0  0  0  0  0  0  0  0  0
    1.1952   -0.6398    2.0744 C   0  0  0  0  0  0  0  0  0  0  0  0
   -2.6045   -2.1554    0.3693 C   0  0  0  0  0  0  0  0  0  0  0  0
   -0.6892    1.7177    0.7418 C   0  0  0  0  0  0  0  0  0  0  0  0
    4.0491   -0.3204   -1.9456 C   0  0  0  0  0  0  0  0  0  0  0  0
   -4.8239   -1.1109   -0.5422 C   0  0  0  0  0  0  0  0  0  0  0  0
    6.5726   -0.4555   -0.3367 C   0  0  0  0  0  0  0  0  0  0  0  0
   -3.4615    1.6351   -0.3332 C   0  0  0  0  0  0  0  0  0  0  0  0
   -5.5377    0.2522   -0.8024 C   0  0  2  0  0  0  0  0  0  0  0  0
   -3.3244    0.4575    1.9174 C   0  0  0  0  0  0  0  0  0  0  0  0
   -4.5707    1.2987   -1.3327 C   0  0  0  0  0  0  0  0  0  0  0  0
   -4.9575   -1.9526   -1.8445 C   0  0  0  0  0  0  0  0  0  0  0  0
   -5.5597   -1.9108    0.5551 C   0  0  0  0  0  0  0  0  0  0  0  0
    7.8250    0.1315    0.3143 C   0  0  0  0  0  0  0  0  0  0  0  0
    6.4966   -1.9614   -0.0842 C   0  0  0  0  0  0  0  0  0  0  0  0
   -6.8606    1.9868    0.0705 C   0  0  0  0  0  0  0  0  0  0  0  0
    3.1878    0.9091    1.2508 H   0  0  0  0  0  0  0  0  0  0  0  0
   -0.5512   -0.8774   -0.9370 H   0  0  0  0  0  0  0  0  0  0  0  0
    1.6982   -1.8653   -1.1297 H   0  0  0  0  0  0  0  0  0  0  0  0
    1.6206   -2.6827    0.4064 H   0  0  0  0  0  0  0  0  0  0  0  0
    5.2906    0.1053    1.2698 H   0  0  0  0  0  0  0  0  0  0  0  0
    3.6596   -1.6437    1.2170 H   0  0  0  0  0  0  0  0  0  0  0  0
    3.9083   -2.4112   -0.3366 H   0  0  0  0  0  0  0  0  0  0  0  0
    3.6289    3.0315    0.4559 H   0  0  0  0  0  0  0  0  0  0  0  0
    3.6566    2.5361   -1.2375 H   0  0  0  0  0  0  0  0  0  0  0  0
    0.9658    2.9160    0.1493 H   0  0  0  0  0  0  0  0  0  0  0  0
    1.1806    2.0930    1.6822 H   0  0  0  0  0  0  0  0  0  0  0  0
    5.8698    2.0233   -1.0075 H   0  0  0  0  0  0  0  0  0  0  0  0
    5.8186    2.2995    0.7389 H   0  0  0  0  0  0  0  0  0  0  0  0
   -2.8165   -0.8413   -1.2677 H   0  0  0  0  0  0  0  0  0  0  0  0
   -1.1526   -1.8275    1.8985 H   0  0  0  0  0  0  0  0  0  0  0  0
   -0.5921   -2.8552    0.5966 H   0  0  0  0  0  0  0  0  0  0  0  0
    1.2917    0.0612   -2.1550 H   0  0  0  0  0  0  0  0  0  0  0  0
    0.1749    1.3272   -1.7589 H   0  0  0  0  0  0  0  0  0  0  0  0
    1.8346    1.7428   -2.0802 H   0  0  0  0  0  0  0  0  0  0  0  0
    0.4970    0.0185    2.5995 H   0  0  0  0  0  0  0  0  0  0  0  0
    1.0055   -1.6565    2.4379 H   0  0  0  0  0  0  0  0  0  0  0  0
    2.1969   -0.3867    2.4267 H   0  0  0  0  0  0  0  0  0  0  0  0
   -2.6304   -2.9817   -0.3514 H   0  0  0  0  0  0  0  0  0  0  0  0
   -3.1573   -2.5025    1.2484 H   0  0  0  0  0  0  0  0  0  0  0  0
   -1.2832    2.5895    1.0042 H   0  0  0  0  0  0  0  0  0  0  0  0
    4.8031   -1.0489   -2.2580 H   0  0  0  0  0  0  0  0  0  0  0  0
    3.1286   -0.6744   -2.4070 H   0  0  0  0  0  0  0  0  0  0  0  0
    4.3070    0.6326   -2.4166 H   0  0  0  0  0  0  0  0  0  0  0  0
    6.6893   -0.2951   -1.4151 H   0  0  0  0  0  0  0  0  0  0  0  0
   -2.6901    2.1551   -0.9165 H   0  0  0  0  0  0  0  0  0  0  0  0
   -3.8346    2.3812    0.3801 H   0  0  0  0  0  0  0  0  0  0  0  0
   -6.3335    0.0917   -1.5422 H   0  0  0  0  0  0  0  0  0  0  0  0
   -2.9942    1.3756    2.4186 H   0  0  0  0  0  0  0  0  0  0  0  0
   -4.4105    0.4355    2.0097 H   0  0  0  0  0  0  0  0  0  0  0  0
   -2.9308   -0.3805    2.5010 H   0  0  0  0  0  0  0  0  0  0  0  0
   -5.0664    2.2241   -1.6444 H   0  0  0  0  0  0  0  0  0  0  0  0
   -4.1070    0.9173   -2.2523 H   0  0  0  0  0  0  0  0  0  0  0  0
   -6.0103   -2.1383   -2.0887 H   0  0  0  0  0  0  0  0  0  0  0  0
   -4.5067   -1.4426   -2.7029 H   0  0  0  0  0  0  0  0  0  0  0  0
   -4.4725   -2.9295   -1.7455 H   0  0  0  0  0  0  0  0  0  0  0  0
   -6.6394   -1.9279    0.3632 H   0  0  0  0  0  0  0  0  0  0  0  0
   -5.2339   -2.9562    0.5881 H   0  0  0  0  0  0  0  0  0  0  0  0
   -5.4109   -1.4831    1.5496 H   0  0  0  0  0  0  0  0  0  0  0  0
    7.7868    0.0383    1.4052 H   0  0  0  0  0  0  0  0  0  0  0  0
    8.7236   -0.3901   -0.0338 H   0  0  0  0  0  0  0  0  0  0  0  0
    7.9548    1.1894    0.0666 H   0  0  0  0  0  0  0  0  0  0  0  0
    6.1297   -2.1945    0.9203 H   0  0  0  0  0  0  0  0  0  0  0  0
    7.4920   -2.4130   -0.1736 H   0  0  0  0  0  0  0  0  0  0  0  0
    5.8839   -2.4698   -0.8305 H   0  0  0  0  0  0  0  0  0  0  0  0
   -7.5861    2.1440    0.8748 H   0  0  0  0  0  0  0  0  0  0  0  0
   -7.4192    1.9225   -0.8691 H   0  0  0  0  0  0  0  0  0  0  0  0
   -6.1966    2.8554    0.0754 H   0  0  0  0  0  0  0  0  0  0  0  0
  1 25  1  0  0  0  0
  1 32  1  0  0  0  0
  2  3  1  0  0  0  0
  2  4  1  0  0  0  0
  2 11  1  0  0  0  0
  2 17  1  0  0  0  0
  3  6  1  0  0  0  0
  3  7  1  0  0  0  0
  3 18  1  0  0  0  0
  4  5  1  0  0  0  0
  4 10  1  0  0  0  0
  4 33  1  0  0  0  0
  5  8  1  0  0  0  0
  5  9  1  0  0  0  0
  5 21  1  0  0  0  0
  6 13  1  0  0  0  0
  6 16  1  0  0  0  0
  6 34  1  0  0  0  0
  7  9  1  0  0  0  0
  7 35  1  0  0  0  0
  7 36  1  0  0  0  0
  8 14  1  0  0  0  0
  8 23  1  0  0  0  0
  8 37  1  0  0  0  0
  9 38  1  0  0  0  0
  9 39  1  0  0  0  0
 10 14  1  0  0  0  0
 10 40  1  0  0  0  0
 10 41  1  0  0  0  0
 11 20  1  0  0  0  0
 11 42  1  0  0  0  0
 11 43  1  0  0  0  0
 12 13  1  0  0  0  0
 12 15  1  0  0  0  0
 12 24  1  0  0  0  0
 12 26  1  0  0  0  0
 13 20  2  0  0  0  0
 14 44  1  0  0  0  0
 14 45  1  0  0  0  0
 15 19  1  0  0  0  0
 15 22  1  0  0  0  0
 15 46  1  0  0  0  0
 16 19  1  0  0  0  0
 16 47  1  0  0  0  0
 16 48  1  0  0  0  0
 17 49  1  0  0  0  0
 17 50  1  0  0  0  0
 17 51  1  0  0  0  0
 18 52  1  0  0  0  0
 18 53  1  0  0  0  0
 18 54  1  0  0  0  0
 19 55  1  0  0  0  0
 19 56  1  0  0  0  0
 20 57  1  0  0  0  0
 21 58  1  0  0  0  0
 21 59  1  0  0  0  0
 21 60  1  0  0  0  0
 22 25  1  0  0  0  0
 22 28  1  0  0  0  0
 22 29  1  0  0  0  0
 23 30  1  0  0  0  0
 23 31  1  0  0  0  0
 23 61  1  0  0  0  0
 24 27  1  0  0  0  0
 24 62  1  0  0  0  0
 24 63  1  0  0  0  0
 25 27  1  0  0  0  0
 25 64  1  0  0  0  0
 26 65  1  0  0  0  0
 26 66  1  0  0  0  0
 26 67  1  0  0  0  0
 27 68  1  0  0  0  0
 27 69  1  0  0  0  0
 28 70  1  0  0  0  0
 28 71  1  0  0  0  0
 28 72  1  0  0  0  0
 29 73  1  0  0  0  0
 29 74  1  0  0  0  0
 29 75  1  0  0  0  0
 30 76  1  0  0  0  0
 30 77  1  0  0  0  0
 30 78  1  0  0  0  0
 31 79  1  0  0  0  0
 31 80  1  0  0  0  0
 31 81  1  0  0  0  0
 32 82  1  0  0  0  0
 32 83  1  0  0  0  0
 32 84  1  0  0  0  0
M  END
> <PUBCHEM_COMPOUND_CID>
12308619

> <PUBCHEM_CONFORMER_RMSD>
0.8

> <PUBCHEM_CONFORMER_DIVERSEORDER>
1

> <PUBCHEM_MMFF94_PARTIAL_CHARGES>
9
1 -0.56
11 0.14
12 0.14
13 -0.28
20 -0.29
25 0.28
32 0.28
57 0.15
6 0.14

> <PUBCHEM_EFFECTIVE_ROTOR_COUNT>
4.4

> <PUBCHEM_PHARMACOPHORE_FEATURES>
8
1 1 acceptor
3 22 28 29 hydrophobe
3 23 30 31 hydrophobe
5 4 5 8 10 14 rings
6 12 15 22 24 25 27 rings
6 2 3 4 5 7 9 rings
6 2 3 6 11 13 20 rings
6 6 12 13 15 16 19 rings

> <PUBCHEM_HEAVY_ATOM_COUNT>
32

> <PUBCHEM_ATOM_DEF_STEREO_COUNT>
9

> <PUBCHEM_ATOM_UDEF_STEREO_COUNT>
0

> <PUBCHEM_BOND_DEF_STEREO_COUNT>
0

> <PUBCHEM_BOND_UDEF_STEREO_COUNT>
0

> <PUBCHEM_ISOTOPIC_ATOM_COUNT>
0

> <PUBCHEM_COMPONENT_COUNT>
1

> <PUBCHEM_CACTVS_TAUTO_COUNT>
1

> <PUBCHEM_CONFORMER_ID>
00BBD08B00000001

> <PUBCHEM_MMFF94_ENERGY>
163.9838

> <PUBCHEM_FEATURE_SELFOVERLAP>
40.699

> <PUBCHEM_SHAPE_FINGERPRINT>
10165383 225 18340771542294656869
10835480 77 18337115562040515960
11089746 13 18343023281171197620
11135926 11 18338523035924218399
11315181 36 17749106677558895721
11719270 70 18040718091312178214
11796584 16 17821728338489817751
12166972 35 18272931592285834396
12236239 1 18410855442953573878
12516196 113 18113056021928017224
12788726 201 18115871961522722433
13533116 47 17489317429630092442
13690498 29 18115600245175600551
13782708 43 18341334409551507506
13811026 1 18410579453203962207
14394314 77 18411134766674668969
14790565 3 18121214544599500265
14856354 85 13984666919031697509
15064986 266 18270392794599843299
15183329 4 18201728348620307087
15788980 27 18410853248235841604
17349148 13 18410290298266583048
17857418 61 18335420175413392674
1813 80 13839978907061991858
18608769 82 18270957952367064691
18681886 176 18335428928757072458
19958102 18 18201445761289661447
20028762 73 18187083979859149998
20511986 3 18335996293604772210
21033648 29 18338243665006579953
21267235 1 18410567362454662962
21279426 13 18412827992799996238
22393880 68 18341061760990975013
23402539 116 18334576840983045309
23522609 53 17898259776590625937
23559900 14 18335427824365454176
23569943 247 17702111468062037370
2838139 119 17775289360873106789
3004659 81 18343304764864547472
335352 9 18412261740132833892
350125 39 18413109484771894672
3633792 109 18337112388201602261
4015057 19 18338234851728719024
404807 14 17178540661076266550
4073 2 18130783417521452154
4098825 35 18412828001532316477
4340502 62 16343698867763227281
439807 62 18261676948794450279
5283173 99 18412831299740607021
6669772 16 17535763892779350816
7495541 125 17313106311163991480

> <PUBCHEM_SHAPE_MULTIPOLES>
652.68
17.61
2.37
1.37
6.4
0.12
0.09
0.1
2.82
-1.02
0.01
-0.67
0.13
-0.24

> <PUBCHEM_SHAPE_SELFOVERLAP>
1379.036

> <PUBCHEM_SHAPE_VOLUME>
363.4

> <PUBCHEM_COORDINATE_TYPE>
2
5
10

$$$$

