215
  -OEChem-07051212463D

 12 11  0     0  0  0  0  0  0999 V2000
   -0.4258    1.3143    0.0019 O   0  0  0  0  0  0  0  0  0  0  0  0
    1.9482    0.0331   -0.0050 N   0  0  0  0  0  0  0  0  0  0  0  0
    0.7546   -0.7998    0.0059 C   0  0  0  0  0  0  0  0  0  0  0  0
   -0.4755    0.0848    0.0009 C   0  0  0  0  0  0  0  0  0  0  0  0
   -1.8014   -0.6324   -0.0037 C   0  0  0  0  0  0  0  0  0  0  0  0
    0.7443   -1.4235    0.9042 H   0  0  0  0  0  0  0  0  0  0  0  0
    0.7402   -1.4395   -0.8810 H   0  0  0  0  0  0  0  0  0  0  0  0
   -1.8792   -1.2524   -0.9001 H   0  0  0  0  0  0  0  0  0  0  0  0
   -1.8856   -1.2518    0.8926 H   0  0  0  0  0  0  0  0  0  0  0  0
   -2.6161    0.0971   -0.0069 H   0  0  0  0  0  0  0  0  0  0  0  0
    1.9470    0.6506    0.8057 H   0  0  0  0  0  0  0  0  0  0  0  0
    1.9426    0.6357   -0.8270 H   0  0  0  0  0  0  0  0  0  0  0  0
  1  4  2  0  0  0  0
  2  3  1  0  0  0  0
  2 11  1  0  0  0  0
  2 12  1  0  0  0  0
  3  4  1  0  0  0  0
  3  6  1  0  0  0  0
  3  7  1  0  0  0  0
  4  5  1  0  0  0  0
  5  8  1  0  0  0  0
  5  9  1  0  0  0  0
  5 10  1  0  0  0  0
M  END
> <PUBCHEM_COMPOUND_CID>
215

> <PUBCHEM_CONFORMER_RMSD>
0.4

> <PUBCHEM_CONFORMER_DIVERSEORDER>
1
2
4
3

> <PUBCHEM_MMFF94_PARTIAL_CHARGES>
7
1 -0.57
11 0.36
12 0.36
2 -0.99
3 0.33
4 0.45
5 0.06

> <PUBCHEM_EFFECTIVE_ROTOR_COUNT>
1

> <PUBCHEM_PHARMACOPHORE_FEATURES>
3
1 1 acceptor
1 2 cation
1 2 donor

> <PUBCHEM_HEAVY_ATOM_COUNT>
5

> <PUBCHEM_ATOM_DEF_STEREO_COUNT>
0

> <PUBCHEM_ATOM_UDEF_STEREO_COUNT>
0

> <PUBCHEM_BOND_DEF_STEREO_COUNT>
0

> <PUBCHEM_BOND_UDEF_STEREO_COUNT>
0

> <PUBCHEM_ISOTOPIC_ATOM_COUNT>
0

> <PUBCHEM_COMPONENT_COUNT>
1

> <PUBCHEM_CACTVS_TAUTO_COUNT>
4

> <PUBCHEM_CONFORMER_ID>
000000D700000001

> <PUBCHEM_MMFF94_ENERGY>
2.3664

> <PUBCHEM_FEATURE_SELFOVERLAP>
15.223

> <PUBCHEM_SHAPE_FINGERPRINT>
139733 1 9295294936592255875
16714656 1 18334007272616896238
20096714 4 17907013237650622496
21015797 1 8862356739823647571
21040471 1 17834114525675635104
29004967 10 18341325600578754355
5460574 1 9223239541408862883
5943 1 10283797044413331001

> <PUBCHEM_SHAPE_MULTIPOLES>
92.05
2.15
1.08
0.58
0.26
0.24
0
-0.4
-0.01
-0.13
0
-0.03
-0.03
0

> <PUBCHEM_SHAPE_SELFOVERLAP>
159.877

> <PUBCHEM_SHAPE_VOLUME>
61.4

> <PUBCHEM_COORDINATE_TYPE>
2
5
10

$$$$

