3464
  -OEChem-06251223263D

 28 27  0     1  0  0  0  0  0999 V2000
    0.1383   -1.2860   -0.4193 S   0  0  0  0  0  0  0  0  0  0  0  0
    1.5147    1.9672    0.5241 O   0  0  0  0  0  0  0  0  0  0  0  0
    4.9436   -0.0374   -0.6110 O   0  0  0  0  0  0  0  0  0  0  0  0
    1.7417    1.2437   -1.6106 O   0  0  0  0  0  0  0  0  0  0  0  0
    4.3139   -0.2891    1.5570 O   0  0  0  0  0  0  0  0  0  0  0  0
   -3.4971    0.3008    0.3847 N   0  0  0  0  0  0  0  0  0  0  0  0
   -5.7281    0.8812    0.6093 N   0  0  0  0  0  0  0  0  0  0  0  0
   -5.2655   -1.0052   -0.5833 N   0  0  0  0  0  0  0  0  0  0  0  0
    1.6113   -0.3953    0.1995 C   0  0  1  0  0  0  0  0  0  0  0  0
    2.8776   -1.1592   -0.1814 C   0  0  0  0  0  0  0  0  0  0  0  0
   -1.1195   -0.1535    0.2092 C   0  0  0  0  0  0  0  0  0  0  0  0
   -2.5126   -0.6395   -0.1583 C   0  0  0  0  0  0  0  0  0  0  0  0
    1.6196    0.9928   -0.4186 C   0  0  0  0  0  0  0  0  0  0  0  0
    4.1052   -0.4677    0.3637 C   0  0  0  0  0  0  0  0  0  0  0  0
   -4.7431    0.0471    0.1352 C   0  0  0  0  0  0  0  0  0  0  0  0
    1.5381   -0.3157    1.2901 H   0  0  0  0  0  0  0  0  0  0  0  0
    2.8741   -2.1790    0.2214 H   0  0  0  0  0  0  0  0  0  0  0  0
    2.9790   -1.2437   -1.2711 H   0  0  0  0  0  0  0  0  0  0  0  0
   -0.9774    0.8464   -0.2128 H   0  0  0  0  0  0  0  0  0  0  0  0
   -1.0265   -0.0763    1.2981 H   0  0  0  0  0  0  0  0  0  0  0  0
   -2.6813   -1.6382    0.2641 H   0  0  0  0  0  0  0  0  0  0  0  0
   -2.6080   -0.6933   -1.2503 H   0  0  0  0  0  0  0  0  0  0  0  0
    1.5375    2.8636    0.1263 H   0  0  0  0  0  0  0  0  0  0  0  0
    5.7288    0.4211   -0.2427 H   0  0  0  0  0  0  0  0  0  0  0  0
   -5.4992    1.7031    1.1578 H   0  0  0  0  0  0  0  0  0  0  0  0
   -6.7091    0.7017    0.4254 H   0  0  0  0  0  0  0  0  0  0  0  0
   -6.2667   -1.1020   -0.7148 H   0  0  0  0  0  0  0  0  0  0  0  0
   -4.6795   -1.7177   -1.0034 H   0  0  0  0  0  0  0  0  0  0  0  0
  1  9  1  0  0  0  0
  1 11  1  0  0  0  0
  2 13  1  0  0  0  0
  2 23  1  0  0  0  0
  3 14  1  0  0  0  0
  3 24  1  0  0  0  0
  4 13  2  0  0  0  0
  5 14  2  0  0  0  0
  6 12  1  0  0  0  0
  6 15  2  0  0  0  0
  7 15  1  0  0  0  0
  7 25  1  0  0  0  0
  7 26  1  0  0  0  0
  8 15  1  0  0  0  0
  8 27  1  0  0  0  0
  8 28  1  0  0  0  0
  9 10  1  0  0  0  0
  9 13  1  0  0  0  0
  9 16  1  0  0  0  0
 10 14  1  0  0  0  0
 10 17  1  0  0  0  0
 10 18  1  0  0  0  0
 11 12  1  0  0  0  0
 11 19  1  0  0  0  0
 11 20  1  0  0  0  0
 12 21  1  0  0  0  0
 12 22  1  0  0  0  0
M  END
> <PUBCHEM_COMPOUND_CID>
3464

> <PUBCHEM_CONFORMER_RMSD>
0.8

> <PUBCHEM_CONFORMER_DIVERSEORDER>
1
25
10
142
22
152
15
161
94
87
102
149
70
124
128
8
145
98
16
86
82
162
11
134
119
99
103
83
122
71
156
5
155
106
89
26
107
150
110
12
4
112
3
9
116
117
18
140
56
85
66
118
6
57
132
115
39
27
42
138
50
159
109
35
100
34
130
123
52
45
33
46
74
72
120
104
91
23
157
36
151
153
24
31
68
148
92
37
21
105
54
88
48
63
13
77
69
93
90
143
20
154
139
136
7
14
38
51
81
44
30
2
111
131
113
29
78
60
158
40
97
76
73
135
144
127
61
84
165
32
96
163
19
47
129
80
79
62
67
28
17
64
164
141
166
49
65
133
126
146
58
59
95
43
108
53
41
121
137
114
101
160
55
147
75
125

> <PUBCHEM_MMFF94_PARTIAL_CHARGES>
21
1 -0.46
10 0.06
11 0.23
12 0.25
13 0.66
14 0.66
15 0.55
2 -0.65
23 0.5
24 0.5
25 0.4
26 0.4
27 0.4
28 0.4
3 -0.65
4 -0.57
5 -0.57
6 -0.7
7 -0.85
8 -0.85
9 0.29

> <PUBCHEM_EFFECTIVE_ROTOR_COUNT>
7

> <PUBCHEM_PHARMACOPHORE_FEATURES>
10
1 2 acceptor
1 3 acceptor
1 4 acceptor
1 5 acceptor
1 7 donor
1 8 donor
3 2 4 13 anion
3 3 5 14 anion
4 1 9 10 11 hydrophobe
4 6 7 8 15 cation

> <PUBCHEM_HEAVY_ATOM_COUNT>
15

> <PUBCHEM_ATOM_DEF_STEREO_COUNT>
0

> <PUBCHEM_ATOM_UDEF_STEREO_COUNT>
1

> <PUBCHEM_BOND_DEF_STEREO_COUNT>
0

> <PUBCHEM_BOND_UDEF_STEREO_COUNT>
0

> <PUBCHEM_ISOTOPIC_ATOM_COUNT>
0

> <PUBCHEM_COMPONENT_COUNT>
1

> <PUBCHEM_CACTVS_TAUTO_COUNT>
2

> <PUBCHEM_CONFORMER_ID>
00000D8800000001

> <PUBCHEM_MMFF94_ENERGY>
32.3082

> <PUBCHEM_FEATURE_SELFOVERLAP>
50.917

> <PUBCHEM_SHAPE_FINGERPRINT>
10354089 29 18411133654145692307
11287383 113 15285361691321228223
12815109 37 18334013903919690272
13922767 16 18409449176182184507
14123238 8 18411702088566641555
14251718 22 12391507586050572219
15048467 5 18260831467412626336
15375358 24 13984662542691631519
17802600 8 18411984667650692653
17834072 33 18409729521645838967
17834076 25 18113900464016860658
18186145 218 17846783988368360099
18342897 14 18411980264945048434
18522853 276 18333449867624535641
19050596 39 18410007728880424387
20279233 1 14273732932910595127
212847 35 18341607114389648557
21618674 57 17561081427813493649
23402539 116 16877951546346080861
23557571 272 15864061122291947873
23558518 356 17841714002260506466
42 15 18411982464126449131
42788 4 17458065975788805323
9971528 1 18334855056327517726

> <PUBCHEM_SHAPE_MULTIPOLES>
274.12
11.85
1.36
0.98
11.76
0.32
0.05
-0.17
-1.64
-0.28
0.13
-0.79
0.16
-0.63

> <PUBCHEM_SHAPE_SELFOVERLAP>
516.572

> <PUBCHEM_SHAPE_VOLUME>
170.2

> <PUBCHEM_COORDINATE_TYPE>
2
5
10

$$$$

