9840292
  -OEChem-07051212493D

 41 42  0     1  0  0  0  0  0999 V2000
    1.9983   -0.5596    0.3516 O   0  0  0  0  0  0  0  0  0  0  0  0
    5.8191    0.9463    0.3832 O   0  0  0  0  0  0  0  0  0  0  0  0
    5.3611   -1.7959   -0.4081 O   0  0  0  0  0  0  0  0  0  0  0  0
    1.0747    1.5825    0.3994 O   0  0  0  0  0  0  0  0  0  0  0  0
    3.5587    2.6483   -0.4384 O   0  0  0  0  0  0  0  0  0  0  0  0
    1.3862   -3.2066   -0.0669 O   0  0  0  0  0  0  0  0  0  0  0  0
   -7.3835   -0.2939    1.0856 O   0  0  0  0  0  0  0  0  0  0  0  0
   -6.9110   -0.8989   -1.0627 O   0  0  0  0  0  0  0  0  0  0  0  0
    4.6103    0.4870   -0.2238 C   0  0  1  0  0  0  0  0  0  0  0  0
    4.3845   -0.9616    0.2094 C   0  0  1  0  0  0  0  0  0  0  0  0
    2.9861   -1.4369   -0.1922 C   0  0  1  0  0  0  0  0  0  0  0  0
    3.4500    1.3821    0.2115 C   0  0  2  0  0  0  0  0  0  0  0  0
    2.1019    0.7661   -0.1624 C   0  0  1  0  0  0  0  0  0  0  0  0
    2.6942   -2.8394    0.3318 C   0  0  0  0  0  0  0  0  0  0  0  0
   -0.2148    1.1846    0.1754 C   0  0  0  0  0  0  0  0  0  0  0  0
   -1.0419    0.8863    1.2537 C   0  0  0  0  0  0  0  0  0  0  0  0
   -0.6894    1.0813   -1.1284 C   0  0  0  0  0  0  0  0  0  0  0  0
   -2.3568    0.4802    1.0260 C   0  0  0  0  0  0  0  0  0  0  0  0
   -2.0044    0.6754   -1.3561 C   0  0  0  0  0  0  0  0  0  0  0  0
   -2.8379    0.3748   -0.2788 C   0  0  0  0  0  0  0  0  0  0  0  0
   -4.2088   -0.0487   -0.5173 C   0  0  0  0  0  0  0  0  0  0  0  0
   -5.2103   -0.0006    0.3890 C   0  0  0  0  0  0  0  0  0  0  0  0
   -6.5663   -0.4529    0.0185 C   0  0  0  0  0  0  0  0  0  0  0  0
    4.7634    0.5539   -1.3080 H   0  0  0  0  0  0  0  0  0  0  0  0
    4.5225   -1.0431    1.2946 H   0  0  0  0  0  0  0  0  0  0  0  0
    3.5020    1.5737    1.2899 H   0  0  0  0  0  0  0  0  0  0  0  0
    2.8737   -1.4532   -1.2849 H   0  0  0  0  0  0  0  0  0  0  0  0
    1.9958    0.7514   -1.2551 H   0  0  0  0  0  0  0  0  0  0  0  0
    2.7320   -2.8744    1.4257 H   0  0  0  0  0  0  0  0  0  0  0  0
    3.3962   -3.5761   -0.0692 H   0  0  0  0  0  0  0  0  0  0  0  0
    6.5327    0.3501    0.0982 H   0  0  0  0  0  0  0  0  0  0  0  0
    5.2416   -1.7357   -1.3713 H   0  0  0  0  0  0  0  0  0  0  0  0
    3.5165    2.4994   -1.3984 H   0  0  0  0  0  0  0  0  0  0  0  0
    0.7723   -2.5410    0.2883 H   0  0  0  0  0  0  0  0  0  0  0  0
   -0.6690    0.9623    2.2713 H   0  0  0  0  0  0  0  0  0  0  0  0
   -0.0610    1.3287   -1.9790 H   0  0  0  0  0  0  0  0  0  0  0  0
   -2.9626    0.2376    1.8941 H   0  0  0  0  0  0  0  0  0  0  0  0
   -2.3634    0.6040   -2.3801 H   0  0  0  0  0  0  0  0  0  0  0  0
   -4.4158   -0.4188   -1.5194 H   0  0  0  0  0  0  0  0  0  0  0  0
   -5.0767    0.3805    1.3951 H   0  0  0  0  0  0  0  0  0  0  0  0
   -8.3011   -0.5815    0.8916 H   0  0  0  0  0  0  0  0  0  0  0  0
  1 11  1  0  0  0  0
  1 13  1  0  0  0  0
  2  9  1  0  0  0  0
  2 31  1  0  0  0  0
  3 10  1  0  0  0  0
  3 32  1  0  0  0  0
  4 13  1  0  0  0  0
  4 15  1  0  0  0  0
  5 12  1  0  0  0  0
  5 33  1  0  0  0  0
  6 14  1  0  0  0  0
  6 34  1  0  0  0  0
  7 23  1  0  0  0  0
  7 41  1  0  0  0  0
  8 23  2  0  0  0  0
  9 10  1  0  0  0  0
  9 12  1  0  0  0  0
  9 24  1  0  0  0  0
 10 11  1  0  0  0  0
 10 25  1  0  0  0  0
 11 14  1  0  0  0  0
 11 27  1  0  0  0  0
 12 13  1  0  0  0  0
 12 26  1  0  0  0  0
 13 28  1  0  0  0  0
 14 29  1  0  0  0  0
 14 30  1  0  0  0  0
 15 16  2  0  0  0  0
 15 17  1  0  0  0  0
 16 18  1  0  0  0  0
 16 35  1  0  0  0  0
 17 19  2  0  0  0  0
 17 36  1  0  0  0  0
 18 20  2  0  0  0  0
 18 37  1  0  0  0  0
 19 20  1  0  0  0  0
 19 38  1  0  0  0  0
 20 21  1  0  0  0  0
 21 22  2  0  0  0  0
 21 39  1  0  0  0  0
 22 23  1  0  0  0  0
 22 40  1  0  0  0  0
M  END
> <PUBCHEM_COMPOUND_CID>
9840292

> <PUBCHEM_CONFORMER_RMSD>
0.8

> <PUBCHEM_CONFORMER_DIVERSEORDER>
1
60
10
40
34
47
64
43
37
9
29
23
15
62
57
8
4
33
18
56
12
53
28
38
55
63
7
22
61
3
32
27
58
16
2
36
50
5
21
48
30
52
20
25
19
17
51
26
46
39
45
54
59
24
6
35
44
31
42
49
13
11
14
41

> <PUBCHEM_MMFF94_PARTIAL_CHARGES>
34
1 -0.56
10 0.28
11 0.28
12 0.28
13 0.56
14 0.28
15 0.08
16 -0.15
17 -0.15
18 -0.15
19 -0.15
2 -0.68
20 0.03
21 -0.18
22 -0.14
23 0.71
3 -0.68
31 0.4
32 0.4
33 0.4
34 0.4
35 0.15
36 0.15
37 0.15
38 0.15
39 0.15
4 -0.36
40 0.15
41 0.5
5 -0.68
6 -0.68
7 -0.65
8 -0.57
9 0.28

> <PUBCHEM_EFFECTIVE_ROTOR_COUNT>
6.2

> <PUBCHEM_PHARMACOPHORE_FEATURES>
15
1 1 acceptor
1 2 acceptor
1 2 donor
1 3 acceptor
1 3 donor
1 4 acceptor
1 5 acceptor
1 5 donor
1 6 acceptor
1 6 donor
1 7 acceptor
1 8 acceptor
3 7 8 23 anion
6 1 9 10 11 12 13 rings
6 15 16 17 18 19 20 rings

> <PUBCHEM_HEAVY_ATOM_COUNT>
23

> <PUBCHEM_ATOM_DEF_STEREO_COUNT>
5

> <PUBCHEM_ATOM_UDEF_STEREO_COUNT>
0

> <PUBCHEM_BOND_DEF_STEREO_COUNT>
1

> <PUBCHEM_BOND_UDEF_STEREO_COUNT>
0

> <PUBCHEM_ISOTOPIC_ATOM_COUNT>
0

> <PUBCHEM_COMPONENT_COUNT>
1

> <PUBCHEM_CACTVS_TAUTO_COUNT>
1

> <PUBCHEM_CONFORMER_ID>
009626A400000001

> <PUBCHEM_MMFF94_ENERGY>
71.8463

> <PUBCHEM_FEATURE_SELFOVERLAP>
76.232

> <PUBCHEM_SHAPE_FINGERPRINT>
10366900 7 17917137407944417506
11089746 13 8142087555194851001
11796584 16 17894908500099038327
12107183 9 17686048801470362593
12236239 1 17894346692005563297
12516196 113 18186803565258832593
12596602 18 17458062672953635003
12730499 353 18343300349268817624
12788726 201 17385714820931206377
13402501 40 18201716249961613923
13533116 47 18334293158398503857
13685833 64 18272083895138768243
13836976 161 18342735192145343948
14251764 18 17894909608522119779
14617045 38 18411976957730852247
15183329 4 18340211886274903969
15483637 11 18124031226537913723
15537594 2 18186526492491699263
17492 89 18119248617170596718
17844677 252 18412821409006060813
200 152 18334579061528824456
20028762 73 18187366575516532086
20567600 247 18335147458323787863
20645477 70 18343304781532655264
21033650 10 15696872759853184605
21197605 99 18267017259195374651
21267235 1 18261670476262462462
21285901 2 17703793647531420253
21315763 178 18186241727928469247
21623969 137 18342170060185317731
220451 1 18187360996659027381
22224240 67 18336553716262331456
23522609 53 17824799210654253233
23536379 177 18409728465812189641
23557571 272 17275390931864219165
23559900 14 18340771421407682465
239999 70 17846780689306053656
2838139 119 9871751287187632563
3004659 81 18343022211244325643
33382 64 18411418427788947251
33824 294 18412828010375601698
3472631 163 14261054464220148158
351380 3 17894635863785201535
4072396 5 16588020230402340429
42630746 31 18409448077219189340
4340502 62 18336267855780996508
46194498 28 17847061064723898268
465052 167 18040995120659562069
5104073 3 18262808496071370144
6025842 7 18340202999502441060

> <PUBCHEM_SHAPE_MULTIPOLES>
426.37
15.65
2.33
1.01
20.93
1.48
-0.03
3.96
0.36
-3.79
-0.07
0.94
-0.16
-0.08

> <PUBCHEM_SHAPE_SELFOVERLAP>
893.207

> <PUBCHEM_SHAPE_VOLUME>
238.2

> <PUBCHEM_COORDINATE_TYPE>
2
5
10

$$$$

