5930
  -OEChem-07051213012D

 43 42  0     0  0  0  0  0  0999 V2000
    6.2089    0.8660    0.0000 S   0  0  0  0  0  0  0  0  0  0  0  0
    1.4030    2.1760    0.0000 O   0  0  0  0  0  0  0  0  0  0  0  0
    6.2089    4.0420    0.0000 O   0  0  0  0  0  0  0  0  0  0  0  0
    7.0749    1.3660    0.0000 O   0  0  0  0  0  0  0  0  0  0  0  0
    5.3429    0.3660    0.0000 O   0  0  0  0  0  0  0  0  0  0  0  0
    5.7089    1.7320    0.0000 O   0  0  0  0  0  0  0  0  0  0  0  0
    6.7089    0.0000    0.0000 O   0  0  0  0  0  0  0  0  0  0  0  0
    1.4030    6.1760    0.0000 N   0  0  0  0  0  0  0  0  0  0  0  0
    6.2089    8.0420    0.0000 N   0  0  0  0  0  0  0  0  0  0  0  0
    6.2089    7.0420    0.0000 C   0  0  0  0  0  0  0  0  0  0  0  0
    1.4030    5.1760    0.0000 C   0  0  0  0  0  0  0  0  0  0  0  0
    2.2690    4.6760    0.0000 C   0  0  0  0  0  0  0  0  0  0  0  0
    7.0749    6.5420    0.0000 C   0  0  0  0  0  0  0  0  0  0  0  0
    0.5369    4.6760    0.0000 C   0  0  0  0  0  0  0  0  0  0  0  0
    5.3429    6.5420    0.0000 C   0  0  0  0  0  0  0  0  0  0  0  0
    2.2690    3.6760    0.0000 C   0  0  0  0  0  0  0  0  0  0  0  0
    7.0749    5.5420    0.0000 C   0  0  0  0  0  0  0  0  0  0  0  0
    0.5369    3.6760    0.0000 C   0  0  0  0  0  0  0  0  0  0  0  0
    5.3429    5.5420    0.0000 C   0  0  0  0  0  0  0  0  0  0  0  0
    6.2089    5.0420    0.0000 C   0  0  0  0  0  0  0  0  0  0  0  0
    1.4030    3.1760    0.0000 C   0  0  0  0  0  0  0  0  0  0  0  0
    2.2690    6.6760    0.0000 C   0  0  0  0  0  0  0  0  0  0  0  0
    7.0749    8.5420    0.0000 C   0  0  0  0  0  0  0  0  0  0  0  0
    2.8059    4.9860    0.0000 H   0  0  0  0  0  0  0  0  0  0  0  0
    7.6118    6.8520    0.0000 H   0  0  0  0  0  0  0  0  0  0  0  0
    0.0000    4.9860    0.0000 H   0  0  0  0  0  0  0  0  0  0  0  0
    4.8059    6.8520    0.0000 H   0  0  0  0  0  0  0  0  0  0  0  0
    7.6118    5.2320    0.0000 H   0  0  0  0  0  0  0  0  0  0  0  0
    2.8059    3.3660    0.0000 H   0  0  0  0  0  0  0  0  0  0  0  0
    4.8059    5.2320    0.0000 H   0  0  0  0  0  0  0  0  0  0  0  0
    0.0000    3.3660    0.0000 H   0  0  0  0  0  0  0  0  0  0  0  0
    0.8660    6.4860    0.0000 H   0  0  0  0  0  0  0  0  0  0  0  0
    5.6720    8.3520    0.0000 H   0  0  0  0  0  0  0  0  0  0  0  0
    7.3849    8.0051    0.0000 H   0  0  0  0  0  0  0  0  0  0  0  0
    7.6118    8.8520    0.0000 H   0  0  0  0  0  0  0  0  0  0  0  0
    2.5790    6.1391    0.0000 H   0  0  0  0  0  0  0  0  0  0  0  0
    2.8059    6.9860    0.0000 H   0  0  0  0  0  0  0  0  0  0  0  0
    1.9590    7.2130    0.0000 H   0  0  0  0  0  0  0  0  0  0  0  0
    6.7649    9.0790    0.0000 H   0  0  0  0  0  0  0  0  0  0  0  0
    0.8660    1.8660    0.0000 H   0  0  0  0  0  0  0  0  0  0  0  0
    5.6720    3.7320    0.0000 H   0  0  0  0  0  0  0  0  0  0  0  0
    7.6118    1.0560    0.0000 H   0  0  0  0  0  0  0  0  0  0  0  0
    4.8059    0.6760    0.0000 H   0  0  0  0  0  0  0  0  0  0  0  0
  1  4  1  0  0  0  0
  1  5  1  0  0  0  0
  1  6  2  0  0  0  0
  1  7  2  0  0  0  0
  2 21  1  0  0  0  0
  2 40  1  0  0  0  0
  3 20  1  0  0  0  0
  3 41  1  0  0  0  0
  4 42  1  0  0  0  0
  5 43  1  0  0  0  0
  8 11  1  0  0  0  0
  8 22  1  0  0  0  0
  8 32  1  0  0  0  0
  9 10  1  0  0  0  0
  9 23  1  0  0  0  0
  9 33  1  0  0  0  0
 10 13  2  0  0  0  0
 10 15  1  0  0  0  0
 11 12  2  0  0  0  0
 11 14  1  0  0  0  0
 12 16  1  0  0  0  0
 12 24  1  0  0  0  0
 13 17  1  0  0  0  0
 13 25  1  0  0  0  0
 14 18  2  0  0  0  0
 14 26  1  0  0  0  0
 15 19  2  0  0  0  0
 15 27  1  0  0  0  0
 16 21  2  0  0  0  0
 16 29  1  0  0  0  0
 17 20  2  0  0  0  0
 17 28  1  0  0  0  0
 18 21  1  0  0  0  0
 18 31  1  0  0  0  0
 19 20  1  0  0  0  0
 19 30  1  0  0  0  0
 22 36  1  0  0  0  0
 22 37  1  0  0  0  0
 22 38  1  0  0  0  0
 23 34  1  0  0  0  0
 23 35  1  0  0  0  0
 23 39  1  0  0  0  0
M  END
> <PUBCHEM_COMPOUND_CID>
5930

> <PUBCHEM_COMPOUND_CANONICALIZED>
1

> <PUBCHEM_CACTVS_COMPLEXITY>
158

> <PUBCHEM_CACTVS_HBOND_ACCEPTOR>
8

> <PUBCHEM_CACTVS_HBOND_DONOR>
6

> <PUBCHEM_CACTVS_ROTATABLE_BOND>
2

> <PUBCHEM_CACTVS_SUBSKEYS>
AAADceBzOABAAAAAAAAAAAAAAAAAAAAAAAAwYAAAAAAAAAABQAAAHgAQCAAACAyBkAQyxoLAAoCAACRCQDCCAAAhIgAIiIAObIgIJiLCkZOEcAhk0BFI2AewQAAAAEAAAAAAAAAAgAAAAAAAAAAAAAAAAA==

> <PUBCHEM_IUPAC_OPENEYE_NAME>
4-(methylamino)phenol; sulfuric acid

> <PUBCHEM_IUPAC_CAS_NAME>
4-(methylamino)phenol; sulfuric acid

> <PUBCHEM_IUPAC_NAME>
4-(methylamino)phenol; sulfuric acid

> <PUBCHEM_IUPAC_SYSTEMATIC_NAME>
4-(methylamino)phenol; sulfuric acid

> <PUBCHEM_IUPAC_TRADITIONAL_NAME>
4-(methylamino)phenol; sulfuric acid

> <PUBCHEM_IUPAC_INCHI>
InChI=1S/2C7H9NO.H2O4S/c2*1-8-6-2-4-7(9)5-3-6;1-5(2,3)4/h2*2-5,8-9H,1H3;(H2,1,2,3,4)

> <PUBCHEM_IUPAC_INCHIKEY>
ZVNPWFOVUDMGRP-UHFFFAOYSA-N

> <PUBCHEM_EXACT_MASS>
344.104207

> <PUBCHEM_MOLECULAR_FORMULA>
C14H20N2O6S

> <PUBCHEM_MOLECULAR_WEIGHT>
344.3834

> <PUBCHEM_OPENEYE_CAN_SMILES>
CNC1=CC=C(C=C1)O.CNC1=CC=C(C=C1)O.OS(=O)(=O)O

> <PUBCHEM_OPENEYE_ISO_SMILES>
CNC1=CC=C(C=C1)O.CNC1=CC=C(C=C1)O.OS(=O)(=O)O

> <PUBCHEM_CACTVS_TPSA>
148

> <PUBCHEM_MONOISOTOPIC_WEIGHT>
344.104207

> <PUBCHEM_TOTAL_CHARGE>
0

> <PUBCHEM_HEAVY_ATOM_COUNT>
23

> <PUBCHEM_ATOM_DEF_STEREO_COUNT>
0

> <PUBCHEM_ATOM_UDEF_STEREO_COUNT>
0

> <PUBCHEM_BOND_DEF_STEREO_COUNT>
0

> <PUBCHEM_BOND_UDEF_STEREO_COUNT>
0

> <PUBCHEM_ISOTOPIC_ATOM_COUNT>
0

> <PUBCHEM_COMPONENT_COUNT>
3

> <PUBCHEM_CACTVS_TAUTO_COUNT>
3

> <PUBCHEM_COORDINATE_TYPE>
1
5
255

> <PUBCHEM_BONDANNOTATIONS>
10  13  8
10  15  8
11  12  8
11  14  8
12  16  8
13  17  8
14  18  8
15  19  8
16  21  8
17  20  8
18  21  8
19  20  8

$$$$

