12884
  -OEChem-06261207303D

 26 28  0     0  0  0  0  0  0999 V2000
    0.2353    2.7870   -0.1207 O   0  0  0  0  0  0  0  0  0  0  0  0
   -2.5768    2.5315   -0.1808 O   0  0  0  0  0  0  0  0  0  0  0  0
    0.1587    0.3935   -0.0110 N   0  0  0  0  0  0  0  0  0  0  0  0
   -0.9270   -0.5214    0.0328 C   0  0  0  0  0  0  0  0  0  0  0  0
   -2.1389    0.1696   -0.0441 C   0  0  0  0  0  0  0  0  0  0  0  0
    1.5310    0.0315   -0.0110 C   0  0  0  0  0  0  0  0  0  0  0  0
   -0.3123    1.7056   -0.0658 C   0  0  0  0  0  0  0  0  0  0  0  0
   -1.8243    1.5900   -0.1094 C   0  0  0  0  0  0  0  0  0  0  0  0
   -0.9573   -1.8958    0.2110 C   0  0  0  0  0  0  0  0  0  0  0  0
   -3.3795   -0.4370   -0.0110 C   0  0  0  0  0  0  0  0  0  0  0  0
    1.9418   -1.1816   -0.5754 C   0  0  0  0  0  0  0  0  0  0  0  0
    2.4872    0.8843    0.5525 C   0  0  0  0  0  0  0  0  0  0  0  0
   -2.2011   -2.5438    0.2439 C   0  0  0  0  0  0  0  0  0  0  0  0
   -3.4007   -1.8222    0.1255 C   0  0  0  0  0  0  0  0  0  0  0  0
    3.2905   -1.5373   -0.5759 C   0  0  0  0  0  0  0  0  0  0  0  0
    3.8359    0.5285    0.5518 C   0  0  0  0  0  0  0  0  0  0  0  0
    4.2375   -0.6824   -0.0125 C   0  0  0  0  0  0  0  0  0  0  0  0
   -0.0732   -2.4983    0.3750 H   0  0  0  0  0  0  0  0  0  0  0  0
   -4.2988    0.1330   -0.0741 H   0  0  0  0  0  0  0  0  0  0  0  0
    1.2629   -1.8373   -1.1097 H   0  0  0  0  0  0  0  0  0  0  0  0
    2.2089    1.8218    1.0246 H   0  0  0  0  0  0  0  0  0  0  0  0
   -2.2391   -3.6217    0.3812 H   0  0  0  0  0  0  0  0  0  0  0  0
   -4.3503   -2.3489    0.1614 H   0  0  0  0  0  0  0  0  0  0  0  0
    3.6067   -2.4700   -1.0340 H   0  0  0  0  0  0  0  0  0  0  0  0
    4.5732    1.1915    0.9950 H   0  0  0  0  0  0  0  0  0  0  0  0
    5.2881   -0.9576   -0.0163 H   0  0  0  0  0  0  0  0  0  0  0  0
  1  7  2  0  0  0  0
  2  8  2  0  0  0  0
  3  4  1  0  0  0  0
  3  6  1  0  0  0  0
  3  7  1  0  0  0  0
  4  5  1  0  0  0  0
  4  9  2  0  0  0  0
  5  8  1  0  0  0  0
  5 10  2  0  0  0  0
  6 11  2  0  0  0  0
  6 12  1  0  0  0  0
  7  8  1  0  0  0  0
  9 13  1  0  0  0  0
  9 18  1  0  0  0  0
 10 14  1  0  0  0  0
 10 19  1  0  0  0  0
 11 15  1  0  0  0  0
 11 20  1  0  0  0  0
 12 16  2  0  0  0  0
 12 21  1  0  0  0  0
 13 14  2  0  0  0  0
 13 22  1  0  0  0  0
 14 23  1  0  0  0  0
 15 17  2  0  0  0  0
 15 24  1  0  0  0  0
 16 17  1  0  0  0  0
 16 25  1  0  0  0  0
 17 26  1  0  0  0  0
M  END
> <PUBCHEM_COMPOUND_CID>
12884

> <PUBCHEM_CONFORMER_RMSD>
0.6

> <PUBCHEM_CONFORMER_DIVERSEORDER>
1

> <PUBCHEM_MMFF94_PARTIAL_CHARGES>
26
1 -0.57
10 -0.15
11 -0.15
12 -0.15
13 -0.15
14 -0.15
15 -0.15
16 -0.15
17 -0.15
18 0.15
19 0.15
2 -0.57
20 0.15
21 0.15
22 0.15
23 0.15
24 0.15
25 0.15
26 0.15
3 -0.29
4 0.12
5 0.09
6 0.12
7 0.63
8 0.48
9 -0.15

> <PUBCHEM_EFFECTIVE_ROTOR_COUNT>
1.2

> <PUBCHEM_PHARMACOPHORE_FEATURES>
5
1 1 acceptor
1 2 acceptor
5 3 4 5 7 8 rings
6 4 5 9 10 13 14 rings
6 6 11 12 15 16 17 rings

> <PUBCHEM_HEAVY_ATOM_COUNT>
17

> <PUBCHEM_ATOM_DEF_STEREO_COUNT>
0

> <PUBCHEM_ATOM_UDEF_STEREO_COUNT>
0

> <PUBCHEM_BOND_DEF_STEREO_COUNT>
0

> <PUBCHEM_BOND_UDEF_STEREO_COUNT>
0

> <PUBCHEM_ISOTOPIC_ATOM_COUNT>
0

> <PUBCHEM_COMPONENT_COUNT>
1

> <PUBCHEM_CACTVS_TAUTO_COUNT>
1

> <PUBCHEM_CONFORMER_ID>
0000325400000001

> <PUBCHEM_MMFF94_ENERGY>
66.8967

> <PUBCHEM_FEATURE_SELFOVERLAP>
25.462

> <PUBCHEM_SHAPE_FINGERPRINT>
10319926 262 18193019178233004402
10493431 412 18191578864675915497
10608611 8 18335144206574297048
10616163 171 18410290324474775998
10618630 7 18340204098602443102
10967382 1 18050567640336224023
11132069 177 18410577270827845491
116883 192 18410292471773249087
12032990 46 18410571756148119410
12500047 106 18268433614728098916
12553582 1 18194951964021946631
12730499 353 17478614963729341909
13140716 1 18195801865415046467
13296908 3 18409449193673400422
13583140 156 14418131846373530823
14115302 16 17631730457056562351
14790565 3 17977374259409607929
15196674 1 18410011013781443002
15219456 202 18259989305460591816
16752209 62 18270975625619118323
16945 1 18339073783685303101
17357779 13 18266478545783654799
17804303 29 18408036295134687978
19049666 15 18189333644477437414
19141452 34 18187360992143033679
19591789 44 17617370023506855177
200 152 17458352926811804263
20510252 161 18334576884064626369
20645477 70 17836657318699576199
20871998 184 18260547822617653271
20871998 22 18338511915995133579
21029758 11 18335147475128902693
21267235 1 18339351990018263394
21296965 67 18339080385060716523
21501502 16 18339634542989424460
22213442 358 18338517426216465812
22721475 48 18338231557504100603
22802520 49 18261108642457134590
2334 1 18410575127807950189
23402539 116 18336839631713110167
23463225 33 18339079285490988486
23557571 272 18334285492440848372
23559900 14 18191307285609575798
2748010 2 18336828683777863735
335352 9 18411419527316386437
43471831 8 18200597032823534267
474 4 16772654509410807004
5104073 3 18335706083033717618
69090 78 18260553328982186247
7364860 26 17977101258333930025
77492 1 4895546373167477954
81228 2 18342731914563129105
8809292 202 18264766735044193014
9709674 26 18334293218908062102

> <PUBCHEM_SHAPE_MULTIPOLES>
333.13
6.67
2.74
0.69
3.86
0.8
0
-2.25
0.28
-1.79
-0.1
0.21
-0.06
0.64

> <PUBCHEM_SHAPE_SELFOVERLAP>
746.293

> <PUBCHEM_SHAPE_VOLUME>
175.4

> <PUBCHEM_COORDINATE_TYPE>
2
5
10

$$$$

