16061258
  -OEChem-07051213153D

 76 75  0     0  0  0  0  0  0999 V2000
   -7.0489    1.6647   -0.2227 C   0  0  0  0  0  0  0  0  0  0  0  0
   -7.1535    0.1997    0.1552 C   0  0  0  0  0  0  0  0  0  0  0  0
   -6.6043   -2.2330   -0.3921 C   0  0  0  0  0  0  0  0  0  0  0  0
   -5.3213   -2.9577   -0.8154 C   0  0  0  0  0  0  0  0  0  0  0  0
   -6.3602    2.5439    0.8273 C   0  0  0  0  0  0  0  0  0  0  0  0
   -6.5597   -0.7443   -0.6012 C   0  0  0  0  0  0  0  0  0  0  0  0
   -4.0722   -2.5339   -0.0611 C   0  0  0  0  0  0  0  0  0  0  0  0
   -7.9865   -0.0921    1.3738 C   0  0  0  0  0  0  0  0  0  0  0  0
   -4.9541    2.1009    1.1259 C   0  0  0  0  0  0  0  0  0  0  0  0
    7.4048    1.9992    0.6218 C   0  0  0  0  0  0  0  0  0  0  0  0
    8.4425    0.8752    0.7458 C   0  0  0  0  0  0  0  0  0  0  0  0
   -3.8255    2.5345    0.5319 C   0  0  0  0  0  0  0  0  0  0  0  0
   -4.1543   -2.6780    1.4357 C   0  0  0  0  0  0  0  0  0  0  0  0
   -3.0210   -2.0363   -0.7442 C   0  0  0  0  0  0  0  0  0  0  0  0
    6.2383    1.6759   -0.2914 C   0  0  0  0  0  0  0  0  0  0  0  0
    7.8911   -0.3755    1.3707 C   0  0  0  0  0  0  0  0  0  0  0  0
   -2.4400    2.0586    0.8678 C   0  0  0  0  0  0  0  0  0  0  0  0
   -3.8769    3.5825   -0.5457 C   0  0  0  0  0  0  0  0  0  0  0  0
    7.9221   -1.6288    0.8791 C   0  0  0  0  0  0  0  0  0  0  0  0
    6.4777    1.9333   -1.7573 C   0  0  0  0  0  0  0  0  0  0  0  0
    5.0627    1.1570    0.1167 C   0  0  0  0  0  0  0  0  0  0  0  0
   -1.7603   -1.5765   -0.1978 C   0  0  0  0  0  0  0  0  0  0  0  0
    3.9387    0.7959   -0.7246 C   0  0  0  0  0  0  0  0  0  0  0  0
   -0.7068   -1.0791   -0.8695 C   0  0  0  0  0  0  0  0  0  0  0  0
    8.5015   -2.0267   -0.4490 C   0  0  0  0  0  0  0  0  0  0  0  0
    7.3328   -2.7695    1.6655 C   0  0  0  0  0  0  0  0  0  0  0  0
    1.6130   -0.1193   -0.9981 C   0  0  0  0  0  0  0  0  0  0  0  0
    2.7988    0.2821   -0.2318 C   0  0  0  0  0  0  0  0  0  0  0  0
    0.5553   -0.6189   -0.3215 C   0  0  0  0  0  0  0  0  0  0  0  0
    1.6662    0.0665   -2.4943 C   0  0  0  0  0  0  0  0  0  0  0  0
   -8.0625    2.0501   -0.3932 H   0  0  0  0  0  0  0  0  0  0  0  0
   -6.5254    1.7790   -1.1811 H   0  0  0  0  0  0  0  0  0  0  0  0
   -7.4285   -2.6310   -0.9974 H   0  0  0  0  0  0  0  0  0  0  0  0
   -6.8293   -2.4865    0.6486 H   0  0  0  0  0  0  0  0  0  0  0  0
   -5.1837   -2.8285   -1.8972 H   0  0  0  0  0  0  0  0  0  0  0  0
   -5.4622   -4.0357   -0.6624 H   0  0  0  0  0  0  0  0  0  0  0  0
   -6.9281    2.5238    1.7662 H   0  0  0  0  0  0  0  0  0  0  0  0
   -6.3928    3.5912    0.5087 H   0  0  0  0  0  0  0  0  0  0  0  0
   -6.0163   -0.4203   -1.4877 H   0  0  0  0  0  0  0  0  0  0  0  0
   -8.9079    0.5000    1.3537 H   0  0  0  0  0  0  0  0  0  0  0  0
   -8.2945   -1.1384    1.4427 H   0  0  0  0  0  0  0  0  0  0  0  0
   -7.4340    0.1595    2.2844 H   0  0  0  0  0  0  0  0  0  0  0  0
   -4.8610    1.3399    1.8991 H   0  0  0  0  0  0  0  0  0  0  0  0
    7.8966    2.9165    0.2743 H   0  0  0  0  0  0  0  0  0  0  0  0
    7.0189    2.2397    1.6220 H   0  0  0  0  0  0  0  0  0  0  0  0
    9.2568    1.2331    1.3885 H   0  0  0  0  0  0  0  0  0  0  0  0
    8.8909    0.6943   -0.2341 H   0  0  0  0  0  0  0  0  0  0  0  0
   -4.5917   -3.6479    1.6967 H   0  0  0  0  0  0  0  0  0  0  0  0
   -3.1814   -2.6383    1.9304 H   0  0  0  0  0  0  0  0  0  0  0  0
   -4.7809   -1.8895    1.8641 H   0  0  0  0  0  0  0  0  0  0  0  0
   -3.0936   -1.9654   -1.8286 H   0  0  0  0  0  0  0  0  0  0  0  0
    7.4434   -0.2244    2.3526 H   0  0  0  0  0  0  0  0  0  0  0  0
   -1.8355    2.8872    1.2501 H   0  0  0  0  0  0  0  0  0  0  0  0
   -2.4562    1.2732    1.6304 H   0  0  0  0  0  0  0  0  0  0  0  0
   -1.9510    1.6527   -0.0226 H   0  0  0  0  0  0  0  0  0  0  0  0
   -3.4667    4.5257   -0.1699 H   0  0  0  0  0  0  0  0  0  0  0  0
   -4.8747    3.7805   -0.9418 H   0  0  0  0  0  0  0  0  0  0  0  0
   -3.2689    3.2655   -1.4008 H   0  0  0  0  0  0  0  0  0  0  0  0
    6.2241    1.0631   -2.3716 H   0  0  0  0  0  0  0  0  0  0  0  0
    7.5351    2.1439   -1.9524 H   0  0  0  0  0  0  0  0  0  0  0  0
    5.9043    2.8027   -2.0947 H   0  0  0  0  0  0  0  0  0  0  0  0
    4.9340    0.9757    1.1828 H   0  0  0  0  0  0  0  0  0  0  0  0
   -1.6588   -1.6331    0.8831 H   0  0  0  0  0  0  0  0  0  0  0  0
    4.0408    0.9609   -1.7914 H   0  0  0  0  0  0  0  0  0  0  0  0
   -0.8147   -1.0190   -1.9488 H   0  0  0  0  0  0  0  0  0  0  0  0
    7.7321   -2.5065   -1.0635 H   0  0  0  0  0  0  0  0  0  0  0  0
    9.3175   -2.7422   -0.3017 H   0  0  0  0  0  0  0  0  0  0  0  0
    8.9006   -1.1930   -1.0286 H   0  0  0  0  0  0  0  0  0  0  0  0
    6.5255   -3.2439    1.0978 H   0  0  0  0  0  0  0  0  0  0  0  0
    8.1003   -3.5219    1.8744 H   0  0  0  0  0  0  0  0  0  0  0  0
    6.9166   -2.4448    2.6251 H   0  0  0  0  0  0  0  0  0  0  0  0
    2.7302    0.1347    0.8462 H   0  0  0  0  0  0  0  0  0  0  0  0
    0.6186   -0.7063    0.7635 H   0  0  0  0  0  0  0  0  0  0  0  0
    2.4843   -0.5223   -2.9244 H   0  0  0  0  0  0  0  0  0  0  0  0
    1.8234    1.1220   -2.7439 H   0  0  0  0  0  0  0  0  0  0  0  0
    0.7568   -0.2411   -3.0135 H   0  0  0  0  0  0  0  0  0  0  0  0
  1  2  1  0  0  0  0
  1  5  1  0  0  0  0
  1 31  1  0  0  0  0
  1 32  1  0  0  0  0
  2  6  2  0  0  0  0
  2  8  1  0  0  0  0
  3  4  1  0  0  0  0
  3  6  1  0  0  0  0
  3 33  1  0  0  0  0
  3 34  1  0  0  0  0
  4  7  1  0  0  0  0
  4 35  1  0  0  0  0
  4 36  1  0  0  0  0
  5  9  1  0  0  0  0
  5 37  1  0  0  0  0
  5 38  1  0  0  0  0
  6 39  1  0  0  0  0
  7 13  1  0  0  0  0
  7 14  2  0  0  0  0
  8 40  1  0  0  0  0
  8 41  1  0  0  0  0
  8 42  1  0  0  0  0
  9 12  2  0  0  0  0
  9 43  1  0  0  0  0
 10 11  1  0  0  0  0
 10 15  1  0  0  0  0
 10 44  1  0  0  0  0
 10 45  1  0  0  0  0
 11 16  1  0  0  0  0
 11 46  1  0  0  0  0
 11 47  1  0  0  0  0
 12 17  1  0  0  0  0
 12 18  1  0  0  0  0
 13 48  1  0  0  0  0
 13 49  1  0  0  0  0
 13 50  1  0  0  0  0
 14 22  1  0  0  0  0
 14 51  1  0  0  0  0
 15 20  1  0  0  0  0
 15 21  2  0  0  0  0
 16 19  2  0  0  0  0
 16 52  1  0  0  0  0
 17 53  1  0  0  0  0
 17 54  1  0  0  0  0
 17 55  1  0  0  0  0
 18 56  1  0  0  0  0
 18 57  1  0  0  0  0
 18 58  1  0  0  0  0
 19 25  1  0  0  0  0
 19 26  1  0  0  0  0
 20 59  1  0  0  0  0
 20 60  1  0  0  0  0
 20 61  1  0  0  0  0
 21 23  1  0  0  0  0
 21 62  1  0  0  0  0
 22 24  2  0  0  0  0
 22 63  1  0  0  0  0
 23 28  2  0  0  0  0
 23 64  1  0  0  0  0
 24 29  1  0  0  0  0
 24 65  1  0  0  0  0
 25 66  1  0  0  0  0
 25 67  1  0  0  0  0
 25 68  1  0  0  0  0
 26 69  1  0  0  0  0
 26 70  1  0  0  0  0
 26 71  1  0  0  0  0
 27 28  1  0  0  0  0
 27 29  2  0  0  0  0
 27 30  1  0  0  0  0
 28 72  1  0  0  0  0
 29 73  1  0  0  0  0
 30 74  1  0  0  0  0
 30 75  1  0  0  0  0
 30 76  1  0  0  0  0
M  END
> <PUBCHEM_COMPOUND_CID>
16061258

> <PUBCHEM_CONFORMER_RMSD>
1.6

> <PUBCHEM_CONFORMER_DIVERSEORDER>
1
91
52
35
9
37
44
18
64
87
45
65
23
66
73
92
78
62
29
55
15
36
46
81
60
53
70
77
12
69
49
42
30
67
26
76
59
17
80
13
75
32
71
11
63
48
82
79
8
24
89
74
21
51
58
40
25
50
83
5
68
20
4
43
33
38
14
27
57
22
16
7
61
39
31
90
10
56
86
6
28
88
72
19
3
84
85
34
47
41
54
2

> <PUBCHEM_MMFF94_PARTIAL_CHARGES>
40
1 0.14
10 0.14
11 0.14
12 -0.28
13 0.14
14 -0.15
15 -0.28
16 -0.29
17 0.14
18 0.14
19 -0.28
2 -0.28
20 0.14
21 -0.15
22 -0.15
23 -0.15
24 -0.15
25 0.14
26 0.14
27 -0.14
28 -0.15
29 -0.15
3 0.14
30 0.14
39 0.15
4 0.14
43 0.15
5 0.14
51 0.15
52 0.15
6 -0.29
62 0.15
63 0.15
64 0.15
65 0.15
7 -0.28
72 0.15
73 0.15
8 0.14
9 -0.29

> <PUBCHEM_EFFECTIVE_ROTOR_COUNT>
13

> <PUBCHEM_PHARMACOPHORE_FEATURES>
9
1 13 hydrophobe
1 20 hydrophobe
1 30 hydrophobe
1 8 hydrophobe
3 12 17 18 hydrophobe
3 19 25 26 hydrophobe
4 1 2 5 9 hydrophobe
4 10 11 15 16 hydrophobe
4 3 4 6 7 hydrophobe

> <PUBCHEM_HEAVY_ATOM_COUNT>
30

> <PUBCHEM_ATOM_DEF_STEREO_COUNT>
0

> <PUBCHEM_ATOM_UDEF_STEREO_COUNT>
0

> <PUBCHEM_BOND_DEF_STEREO_COUNT>
6

> <PUBCHEM_BOND_UDEF_STEREO_COUNT>
0

> <PUBCHEM_ISOTOPIC_ATOM_COUNT>
0

> <PUBCHEM_COMPONENT_COUNT>
1

> <PUBCHEM_CACTVS_TAUTO_COUNT>
1

> <PUBCHEM_CONFORMER_ID>
00F5134A00000001

> <PUBCHEM_MMFF94_ENERGY>
39.896

> <PUBCHEM_FEATURE_SELFOVERLAP>
45.716

> <PUBCHEM_SHAPE_FINGERPRINT>
100830 39 18410013256044814285
10454371 7 18187072941434242941
10580692 12 18410855469504398214
11181472 205 18340761569079824644
13914758 101 18410855443270409954
14747282 305 17916594283565549930
15328684 2 18200891620287583185
15328829 1 17917998273671774713
15781502 593 17968100824122497912
18336668 15 18200589204168720725
4173938 306 16588027918114440206
54039377 194 8142079889216278741
6201320 215 18259984903304171929
6299153 45 18342737438117846824

> <PUBCHEM_SHAPE_MULTIPOLES>
617.39
31.93
3.99
1.53
37.15
0.11
-0.26
-1.32
9.34
-4.12
0.48
1.24
-0.15
-2.97

> <PUBCHEM_SHAPE_SELFOVERLAP>
1187.079

> <PUBCHEM_SHAPE_VOLUME>
373.3

> <PUBCHEM_COORDINATE_TYPE>
2
5
10

$$$$

