439428
  -OEChem-07051212452D

 21 22  0     0  0  0  0  0  0999 V2000
    3.7320   -1.6346    0.0000 O   0  0  0  0  0  0  0  0  0  0  0  0
    5.4804   -1.6692    0.0000 O   0  0  0  0  0  0  0  0  0  0  0  0
    2.0000    1.3654    0.0000 O   0  0  0  0  0  0  0  0  0  0  0  0
    4.5981   -0.1346    0.0000 C   0  0  0  0  0  0  0  0  0  0  0  0
    4.5981    0.8654    0.0000 C   0  0  0  0  0  0  0  0  0  0  0  0
    3.7320   -0.6346    0.0000 C   0  0  0  0  0  0  0  0  0  0  0  0
    5.4920   -0.6693    0.0000 C   0  0  0  0  0  0  0  0  0  0  0  0
    3.7320    1.3654    0.0000 C   0  0  0  0  0  0  0  0  0  0  0  0
    5.4920    1.4000    0.0000 C   0  0  0  0  0  0  0  0  0  0  0  0
    2.8660    0.8654    0.0000 C   0  0  0  0  0  0  0  0  0  0  0  0
    2.8660   -0.1346    0.0000 C   0  0  0  0  0  0  0  0  0  0  0  0
    6.3981   -0.1554    0.0000 C   0  0  0  0  0  0  0  0  0  0  0  0
    6.3981    0.8862    0.0000 C   0  0  0  0  0  0  0  0  0  0  0  0
    3.7320    1.9854    0.0000 H   0  0  0  0  0  0  0  0  0  0  0  0
    5.4848    2.0200    0.0000 H   0  0  0  0  0  0  0  0  0  0  0  0
    2.3291   -0.4446    0.0000 H   0  0  0  0  0  0  0  0  0  0  0  0
    6.9338   -0.4675    0.0000 H   0  0  0  0  0  0  0  0  0  0  0  0
    6.9338    1.1983    0.0000 H   0  0  0  0  0  0  0  0  0  0  0  0
    3.1951   -1.9446    0.0000 H   0  0  0  0  0  0  0  0  0  0  0  0
    6.0138   -1.9854    0.0000 H   0  0  0  0  0  0  0  0  0  0  0  0
    2.0000    1.9854    0.0000 H   0  0  0  0  0  0  0  0  0  0  0  0
  1  6  1  0  0  0  0
  1 19  1  0  0  0  0
  2  7  1  0  0  0  0
  2 20  1  0  0  0  0
  3 10  1  0  0  0  0
  3 21  1  0  0  0  0
  4  5  1  0  0  0  0
  4  6  2  0  0  0  0
  4  7  1  0  0  0  0
  5  8  2  0  0  0  0
  5  9  1  0  0  0  0
  6 11  1  0  0  0  0
  7 12  2  0  0  0  0
  8 10  1  0  0  0  0
  8 14  1  0  0  0  0
  9 13  2  0  0  0  0
  9 15  1  0  0  0  0
 10 11  2  0  0  0  0
 11 16  1  0  0  0  0
 12 13  1  0  0  0  0
 12 17  1  0  0  0  0
 13 18  1  0  0  0  0
M  END
> <PUBCHEM_COMPOUND_CID>
439428

> <PUBCHEM_COMPOUND_CANONICALIZED>
1

> <PUBCHEM_CACTVS_COMPLEXITY>
183

> <PUBCHEM_CACTVS_HBOND_ACCEPTOR>
3

> <PUBCHEM_CACTVS_HBOND_DONOR>
3

> <PUBCHEM_CACTVS_ROTATABLE_BOND>
0

> <PUBCHEM_CACTVS_SUBSKEYS>
AAADccBwMAAAAAAAAAAAAAAAAAAAAAAAAAAwYAAAAAAAAADBUAAAGgAACAAADASAmAAwBsAAAgCAAiBCAAACAAAgIAAIiAAGCIgIJyKCERKAcAAlwBUImAeA4LQOoAABCAAYAABAAAIQADAAAAAAAAAAAA==

> <PUBCHEM_IUPAC_OPENEYE_NAME>
naphthalene-1,3,8-triol

> <PUBCHEM_IUPAC_CAS_NAME>
naphthalene-1,3,8-triol

> <PUBCHEM_IUPAC_NAME>
naphthalene-1,3,8-triol

> <PUBCHEM_IUPAC_SYSTEMATIC_NAME>
naphthalene-1,3,8-triol

> <PUBCHEM_IUPAC_TRADITIONAL_NAME>
naphthalene-1,3,8-triol

> <PUBCHEM_IUPAC_INCHI>
InChI=1S/C10H8O3/c11-7-4-6-2-1-3-8(12)10(6)9(13)5-7/h1-5,11-13H

> <PUBCHEM_IUPAC_INCHIKEY>
USWUTUCXLQBQCG-UHFFFAOYSA-N

> <PUBCHEM_XLOGP3_AA>
2.7

> <PUBCHEM_EXACT_MASS>
176.047344

> <PUBCHEM_MOLECULAR_FORMULA>
C10H8O3

> <PUBCHEM_MOLECULAR_WEIGHT>
176.16872

> <PUBCHEM_OPENEYE_CAN_SMILES>
C1=CC2=CC(=CC(=C2C(=C1)O)O)O

> <PUBCHEM_OPENEYE_ISO_SMILES>
C1=CC2=CC(=CC(=C2C(=C1)O)O)O

> <PUBCHEM_CACTVS_TPSA>
60.7

> <PUBCHEM_MONOISOTOPIC_WEIGHT>
176.047344

> <PUBCHEM_TOTAL_CHARGE>
0

> <PUBCHEM_HEAVY_ATOM_COUNT>
13

> <PUBCHEM_ATOM_DEF_STEREO_COUNT>
0

> <PUBCHEM_ATOM_UDEF_STEREO_COUNT>
0

> <PUBCHEM_BOND_DEF_STEREO_COUNT>
0

> <PUBCHEM_BOND_UDEF_STEREO_COUNT>
0

> <PUBCHEM_ISOTOPIC_ATOM_COUNT>
0

> <PUBCHEM_COMPONENT_COUNT>
1

> <PUBCHEM_CACTVS_TAUTO_COUNT>
41

> <PUBCHEM_COORDINATE_TYPE>
1
5
255

> <PUBCHEM_BONDANNOTATIONS>
10  11  8
12  13  8
4  5  8
4  6  8
4  7  8
5  8  8
5  9  8
6  11  8
7  12  8
8  10  8
9  13  8

$$$$

