12994
  -OEChem-06261207383D

  8  7  0     0  0  0  0  0  0999 V2000
    2.9829    0.1524    0.0002 N   0  0  0  0  0  0  0  0  0  0  0  0
   -2.9827   -0.1529    0.0002 N   0  0  0  0  0  0  0  0  0  0  0  0
    0.4774   -0.4690   -0.0002 C   0  0  0  0  0  0  0  0  0  0  0  0
   -0.4775    0.4693   -0.0001 C   0  0  0  0  0  0  0  0  0  0  0  0
    1.8561   -0.1245    0.0000 C   0  0  0  0  0  0  0  0  0  0  0  0
   -1.8560    0.1247   -0.0001 C   0  0  0  0  0  0  0  0  0  0  0  0
    0.2229   -1.5246   -0.0002 H   0  0  0  0  0  0  0  0  0  0  0  0
   -0.2230    1.5249   -0.0001 H   0  0  0  0  0  0  0  0  0  0  0  0
  1  5  3  0  0  0  0
  2  6  3  0  0  0  0
  3  4  2  0  0  0  0
  3  5  1  0  0  0  0
  3  7  1  0  0  0  0
  4  6  1  0  0  0  0
  4  8  1  0  0  0  0
M  END
> <PUBCHEM_COMPOUND_CID>
12994

> <PUBCHEM_CONFORMER_RMSD>
0.4

> <PUBCHEM_CONFORMER_DIVERSEORDER>
1

> <PUBCHEM_MMFF94_PARTIAL_CHARGES>
8
1 -0.56
2 -0.56
3 -0.09
4 -0.09
5 0.49
6 0.49
7 0.15
8 0.15

> <PUBCHEM_EFFECTIVE_ROTOR_COUNT>
0

> <PUBCHEM_PHARMACOPHORE_FEATURES>
2
1 1 acceptor
1 2 acceptor

> <PUBCHEM_HEAVY_ATOM_COUNT>
6

> <PUBCHEM_ATOM_DEF_STEREO_COUNT>
0

> <PUBCHEM_ATOM_UDEF_STEREO_COUNT>
0

> <PUBCHEM_BOND_DEF_STEREO_COUNT>
0

> <PUBCHEM_BOND_UDEF_STEREO_COUNT>
1

> <PUBCHEM_ISOTOPIC_ATOM_COUNT>
0

> <PUBCHEM_COMPONENT_COUNT>
1

> <PUBCHEM_CACTVS_TAUTO_COUNT>
1

> <PUBCHEM_CONFORMER_ID>
000032C200000001

> <PUBCHEM_MMFF94_ENERGY>
1.7957

> <PUBCHEM_FEATURE_SELFOVERLAP>
10.149

> <PUBCHEM_SHAPE_FINGERPRINT>
11062470 55 16487256573278769717
14390081 3 18408045121303310168
16714656 1 18040436589916251751
29004967 10 18411695500018023483
5460574 1 9223230749610606594

> <PUBCHEM_SHAPE_MULTIPOLES>
113.52
4.37
0.68
0.59
0
0
0
0
0
0
0
0
0
0

> <PUBCHEM_SHAPE_SELFOVERLAP>
210.968

> <PUBCHEM_SHAPE_VOLUME>
66.7

> <PUBCHEM_COORDINATE_TYPE>
2
5
10

$$$$

