250822
  -OEChem-07051213072D

 54 57  0     1  0  0  0  0  0999 V2000
    5.0182    0.3722    0.0000 F   0  0  0  0  0  0  0  0  0  0  0  0
    8.0319    1.8625    0.0000 O   0  0  0  0  0  0  0  0  0  0  0  0
    4.7950    1.1062    0.0000 O   0  0  0  0  0  0  0  0  0  0  0  0
    9.9229    0.1062    0.0000 O   0  0  0  0  0  0  0  0  0  0  0  0
   10.0622    1.0890    0.0000 O   0  0  0  0  0  0  0  0  0  0  0  0
    2.0000   -2.4462    0.0000 O   0  0  0  0  0  0  0  0  0  0  0  0
    7.3931    0.6062    0.0000 C   0  0  1  0  0  0  0  0  0  0  0  0
    7.3931   -0.3938    0.0000 C   0  0  2  0  0  0  0  0  0  0  0  0
    6.5271   -0.8938    0.0000 C   0  0  1  0  0  0  0  0  0  0  0  0
    5.6610   -0.3938    0.0000 C   0  0  1  0  0  0  0  0  0  0  0  0
    8.3393    0.9109    0.0000 C   0  0  1  0  0  0  0  0  0  0  0  0
    6.5271    1.1062    0.0000 C   0  0  0  0  0  0  0  0  0  0  0  0
    8.3393   -0.6986    0.0000 C   0  0  0  0  0  0  0  0  0  0  0  0
    5.6610    0.6062    0.0000 C   0  0  2  0  0  0  0  0  0  0  0  0
    8.9229    0.1062    0.0000 C   0  0  1  0  0  0  0  0  0  0  0  0
    4.7510   -0.9007    0.0000 C   0  0  1  0  0  0  0  0  0  0  0  0
    6.5431   -1.9353    0.0000 C   0  0  0  0  0  0  0  0  0  0  0  0
    7.3931    1.6062    0.0000 C   0  0  0  0  0  0  0  0  0  0  0  0
    5.6451   -2.4631    0.0000 C   0  0  0  0  0  0  0  0  0  0  0  0
    4.7430   -1.9423    0.0000 C   0  0  0  0  0  0  0  0  0  0  0  0
    9.1493    1.4973    0.0000 C   0  0  0  0  0  0  0  0  0  0  0  0
    4.4163    0.0416    0.0000 C   0  0  0  0  0  0  0  0  0  0  0  0
    3.8242   -0.3366    0.0000 C   0  0  0  0  0  0  0  0  0  0  0  0
    3.8076   -2.4920    0.0000 C   0  0  0  0  0  0  0  0  0  0  0  0
    9.0465    2.4920    0.0000 C   0  0  0  0  0  0  0  0  0  0  0  0
    2.8763   -0.8645    0.0000 C   0  0  0  0  0  0  0  0  0  0  0  0
    2.8680   -1.9495    0.0000 C   0  0  0  0  0  0  0  0  0  0  0  0
    7.4830   -1.2390    0.0000 H   0  0  0  0  0  0  0  0  0  0  0  0
    7.2664   -1.3131    0.0000 H   0  0  0  0  0  0  0  0  0  0  0  0
    6.9256    1.5811    0.0000 H   0  0  0  0  0  0  0  0  0  0  0  0
    6.1285    1.5811    0.0000 H   0  0  0  0  0  0  0  0  0  0  0  0
    8.0883   -1.2655    0.0000 H   0  0  0  0  0  0  0  0  0  0  0  0
    8.8767   -1.0078    0.0000 H   0  0  0  0  0  0  0  0  0  0  0  0
    5.6610    1.2262    0.0000 H   0  0  0  0  0  0  0  0  0  0  0  0
    9.2046   -0.4461    0.0000 H   0  0  0  0  0  0  0  0  0  0  0  0
    6.7612   -2.5157    0.0000 H   0  0  0  0  0  0  0  0  0  0  0  0
    7.1523   -1.8198    0.0000 H   0  0  0  0  0  0  0  0  0  0  0  0
    8.0131    1.6062    0.0000 H   0  0  0  0  0  0  0  0  0  0  0  0
    7.3931    2.2262    0.0000 H   0  0  0  0  0  0  0  0  0  0  0  0
    6.7731    1.6062    0.0000 H   0  0  0  0  0  0  0  0  0  0  0  0
    5.2478   -2.9390    0.0000 H   0  0  0  0  0  0  0  0  0  0  0  0
    6.0460   -2.9360    0.0000 H   0  0  0  0  0  0  0  0  0  0  0  0
    5.0005    0.2492    0.0000 H   0  0  0  0  0  0  0  0  0  0  0  0
    4.2087    0.6259    0.0000 H   0  0  0  0  0  0  0  0  0  0  0  0
    3.8320   -0.1659    0.0000 H   0  0  0  0  0  0  0  0  0  0  0  0
    3.8361    0.2833    0.0000 H   0  0  0  0  0  0  0  0  0  0  0  0
    8.4476    2.3225    0.0000 H   0  0  0  0  0  0  0  0  0  0  0  0
    4.7950    1.7262    0.0000 H   0  0  0  0  0  0  0  0  0  0  0  0
   10.2329   -0.4308    0.0000 H   0  0  0  0  0  0  0  0  0  0  0  0
    3.8100   -3.1120    0.0000 H   0  0  0  0  0  0  0  0  0  0  0  0
    9.6632    2.5557    0.0000 H   0  0  0  0  0  0  0  0  0  0  0  0
    8.9828    3.1087    0.0000 H   0  0  0  0  0  0  0  0  0  0  0  0
    8.4298    2.4282    0.0000 H   0  0  0  0  0  0  0  0  0  0  0  0
    2.3430   -0.5483    0.0000 H   0  0  0  0  0  0  0  0  0  0  0  0
 10  1  1  6  0  0  0
 11  2  1  6  0  0  0
  2 47  1  0  0  0  0
 14  3  1  1  0  0  0
  3 48  1  0  0  0  0
 15  4  1  6  0  0  0
  4 49  1  0  0  0  0
  5 21  2  0  0  0  0
  6 27  2  0  0  0  0
  7  8  1  0  0  0  0
  7 11  1  0  0  0  0
  7 12  1  0  0  0  0
  7 18  1  1  0  0  0
  8  9  1  0  0  0  0
  8 13  1  0  0  0  0
  8 28  1  6  0  0  0
  9 10  1  0  0  0  0
  9 17  1  0  0  0  0
  9 29  1  1  0  0  0
 10 14  1  0  0  0  0
 10 16  1  0  0  0  0
 11 15  1  0  0  0  0
 11 21  1  0  0  0  0
 12 14  1  0  0  0  0
 12 30  1  0  0  0  0
 12 31  1  0  0  0  0
 13 15  1  0  0  0  0
 13 32  1  0  0  0  0
 13 33  1  0  0  0  0
 14 34  1  0  0  0  0
 15 35  1  0  0  0  0
 16 20  1  0  0  0  0
 16 22  1  1  0  0  0
 16 23  1  0  0  0  0
 17 19  1  0  0  0  0
 17 36  1  0  0  0  0
 17 37  1  0  0  0  0
 18 38  1  0  0  0  0
 18 39  1  0  0  0  0
 18 40  1  0  0  0  0
 19 20  1  0  0  0  0
 19 41  1  0  0  0  0
 19 42  1  0  0  0  0
 20 24  2  0  0  0  0
 21 25  1  0  0  0  0
 22 43  1  0  0  0  0
 22 44  1  0  0  0  0
 22 45  1  0  0  0  0
 23 26  2  0  0  0  0
 23 46  1  0  0  0  0
 24 27  1  0  0  0  0
 24 50  1  0  0  0  0
 25 51  1  0  0  0  0
 25 52  1  0  0  0  0
 25 53  1  0  0  0  0
 26 27  1  0  0  0  0
 26 54  1  0  0  0  0
M  END
> <PUBCHEM_COMPOUND_CID>
250822

> <PUBCHEM_COMPOUND_CANONICALIZED>
1

> <PUBCHEM_CACTVS_COMPLEXITY>
789

> <PUBCHEM_CACTVS_HBOND_ACCEPTOR>
6

> <PUBCHEM_CACTVS_HBOND_DONOR>
3

> <PUBCHEM_CACTVS_ROTATABLE_BOND>
1

> <PUBCHEM_CACTVS_SUBSKEYS>
AAADceB4OQAAAAAAAAAAAAAAAAAAAYAAAAAwYIAAAAAAAGDAAAAAGwAACAAAD1SggAICAAAAAgCIAqBSAAIAAAAgAAAICAFAAEgBEBYAAQAAQAAEoAAJAYPI7PTPgAAAAAAAAADAAAYAADAAAYAADCAAAA==

> <PUBCHEM_IUPAC_OPENEYE_NAME>
(8S,9R,10S,11S,13S,14S,16R,17S)-17-acetyl-9-fluoro-11,16,17-trihydroxy-10,13-dimethyl-6,7,8,11,12,14,15,16-octahydrocyclopenta[a]phenanthren-3-one

> <PUBCHEM_IUPAC_CAS_NAME>
(8S,9R,10S,11S,13S,14S,16R,17S)-17-acetyl-9-fluoro-11,16,17-trihydroxy-10,13-dimethyl-6,7,8,11,12,14,15,16-octahydrocyclopenta[a]phenanthren-3-one

> <PUBCHEM_IUPAC_NAME>
(8S,9R,10S,11S,13S,14S,16R,17S)-17-acetyl-9-fluoro-11,16,17-trihydroxy-10,13-dimethyl-6,7,8,11,12,14,15,16-octahydrocyclopenta[a]phenanthren-3-one

> <PUBCHEM_IUPAC_SYSTEMATIC_NAME>
(8S,9R,10S,11S,13S,14S,16R,17S)-17-ethanoyl-9-fluoranyl-10,13-dimethyl-11,16,17-tris(oxidanyl)-6,7,8,11,12,14,15,16-octahydrocyclopenta[a]phenanthren-3-one

> <PUBCHEM_IUPAC_TRADITIONAL_NAME>
(8S,9R,10S,11S,13S,14S,16R,17S)-17-acetyl-9-fluoro-11,16,17-trihydroxy-10,13-dimethyl-6,7,8,11,12,14,15,16-octahydrocyclopenta[a]phenanthren-3-one

> <PUBCHEM_IUPAC_INCHI>
InChI=1S/C21H27FO5/c1-11(23)21(27)16(25)9-15-14-5-4-12-8-13(24)6-7-18(12,2)20(14,22)17(26)10-19(15,21)3/h6-8,14-17,25-27H,4-5,9-10H2,1-3H3/t14-,15-,16+,17-,18-,19-,20-,21+/m0/s1

> <PUBCHEM_IUPAC_INCHIKEY>
DYCBAFABWCTLEN-PMVIMZBYSA-N

> <PUBCHEM_XLOGP3>
1.3

> <PUBCHEM_EXACT_MASS>
378.184252

> <PUBCHEM_MOLECULAR_FORMULA>
C21H27FO5

> <PUBCHEM_MOLECULAR_WEIGHT>
378.434483

> <PUBCHEM_OPENEYE_CAN_SMILES>
CC(=O)C1(C(CC2C1(CC(C3(C2CCC4=CC(=O)C=CC43C)F)O)C)O)O

> <PUBCHEM_OPENEYE_ISO_SMILES>
CC(=O)[C@]1([C@@H](C[C@@H]2[C@@]1(C[C@@H]([C@]3([C@H]2CCC4=CC(=O)C=C[C@@]43C)F)O)C)O)O

> <PUBCHEM_CACTVS_TPSA>
94.8

> <PUBCHEM_MONOISOTOPIC_WEIGHT>
378.184252

> <PUBCHEM_TOTAL_CHARGE>
0

> <PUBCHEM_HEAVY_ATOM_COUNT>
27

> <PUBCHEM_ATOM_DEF_STEREO_COUNT>
8

> <PUBCHEM_ATOM_UDEF_STEREO_COUNT>
0

> <PUBCHEM_BOND_DEF_STEREO_COUNT>
0

> <PUBCHEM_BOND_UDEF_STEREO_COUNT>
0

> <PUBCHEM_ISOTOPIC_ATOM_COUNT>
0

> <PUBCHEM_COMPONENT_COUNT>
1

> <PUBCHEM_CACTVS_TAUTO_COUNT>
6

> <PUBCHEM_COORDINATE_TYPE>
1
5
255

> <PUBCHEM_BONDANNOTATIONS>
10  1  6
16  22  5
11  2  6
14  3  5
15  4  6
7  18  5
8  28  6
9  29  5

$$$$

