582839
  -OEChem-06241222443D

 20 21  0     1  0  0  0  0  0999 V2000
   -0.2458    0.7720   -2.1182 F   0  0  0  0  0  0  0  0  0  0  0  0
   -0.1157   -1.8124   -1.6113 F   0  0  0  0  0  0  0  0  0  0  0  0
    1.5945    1.8090   -0.9765 F   0  0  0  0  0  0  0  0  0  0  0  0
    0.2632    2.2685    0.6767 F   0  0  0  0  0  0  0  0  0  0  0  0
    2.3283   -0.7525   -1.2180 F   0  0  0  0  0  0  0  0  0  0  0  0
    1.9762   -2.0681    0.4840 F   0  0  0  0  0  0  0  0  0  0  0  0
   -2.5053   -0.0931   -1.3286 F   0  0  0  0  0  0  0  0  0  0  0  0
   -2.2206    1.6598   -0.0690 F   0  0  0  0  0  0  0  0  0  0  0  0
    0.9776   -0.0016    1.9437 F   0  0  0  0  0  0  0  0  0  0  0  0
    2.8122    0.7044    1.0293 F   0  0  0  0  0  0  0  0  0  0  0  0
   -2.9381   -1.0612    1.0175 F   0  0  0  0  0  0  0  0  0  0  0  0
   -1.3747    0.1315    1.9568 F   0  0  0  0  0  0  0  0  0  0  0  0
   -0.7530   -1.4997    0.5211 O   0  0  0  0  0  0  0  0  0  0  0  0
   -0.3045    0.4424   -0.8087 C   0  0  1  0  0  0  0  0  0  0  0  0
    0.0920   -1.0157   -0.5475 C   0  0  2  0  0  0  0  0  0  0  0  0
    0.7571    1.2568   -0.0505 C   0  0  0  0  0  0  0  0  0  0  0  0
    1.5485   -0.9564   -0.1301 C   0  0  0  0  0  0  0  0  0  0  0  0
   -1.7323    0.4457   -0.3477 C   0  0  0  0  0  0  0  0  0  0  0  0
    1.5725    0.2654    0.7624 C   0  0  0  0  0  0  0  0  0  0  0  0
   -1.7322   -0.4947    0.8145 C   0  0  0  0  0  0  0  0  0  0  0  0
  1 14  1  0  0  0  0
  2 15  1  0  0  0  0
  3 16  1  0  0  0  0
  4 16  1  0  0  0  0
  5 17  1  0  0  0  0
  6 17  1  0  0  0  0
  7 18  1  0  0  0  0
  8 18  1  0  0  0  0
  9 19  1  0  0  0  0
 10 19  1  0  0  0  0
 11 20  1  0  0  0  0
 12 20  1  0  0  0  0
 13 15  1  0  0  0  0
 13 20  1  0  0  0  0
 14 15  1  0  0  0  0
 14 16  1  0  0  0  0
 14 18  1  0  0  0  0
 15 17  1  0  0  0  0
 16 19  1  0  0  0  0
 17 19  1  0  0  0  0
 18 20  1  0  0  0  0
M  END
> <PUBCHEM_COMPOUND_CID>
582839

> <PUBCHEM_CONFORMER_RMSD>
0.6

> <PUBCHEM_CONFORMER_DIVERSEORDER>
1
2
8
3
6
5
4
7
9
10

> <PUBCHEM_MMFF94_PARTIAL_CHARGES>
20
1 -0.34
10 -0.34
11 -0.34
12 -0.34
13 -0.56
14 0.34
15 0.62
16 0.68
17 0.68
18 0.68
19 0.68
2 -0.34
20 0.96
3 -0.34
4 -0.34
5 -0.34
6 -0.34
7 -0.34
8 -0.34
9 -0.34

> <PUBCHEM_EFFECTIVE_ROTOR_COUNT>
1.2

> <PUBCHEM_PHARMACOPHORE_FEATURES>
3
1 13 acceptor
5 13 14 15 18 20 rings
5 14 15 16 17 19 rings

> <PUBCHEM_HEAVY_ATOM_COUNT>
20

> <PUBCHEM_ATOM_DEF_STEREO_COUNT>
0

> <PUBCHEM_ATOM_UDEF_STEREO_COUNT>
2

> <PUBCHEM_BOND_DEF_STEREO_COUNT>
0

> <PUBCHEM_BOND_UDEF_STEREO_COUNT>
0

> <PUBCHEM_ISOTOPIC_ATOM_COUNT>
0

> <PUBCHEM_COMPONENT_COUNT>
1

> <PUBCHEM_CACTVS_TAUTO_COUNT>
1

> <PUBCHEM_CONFORMER_ID>
0008E4B700000001

> <PUBCHEM_MMFF94_ENERGY>
52.3863

> <PUBCHEM_FEATURE_SELFOVERLAP>
15.836

> <PUBCHEM_SHAPE_FINGERPRINT>
10863032 1 18042988612254868233
10948715 1 18115605836115438432
12423570 1 5079461425210148362
13024252 1 16126720165069483968
141345 1 5830875441106857456
144361 1 17981074966370838300
14817 1 4894111565958663476
15775835 57 17168147819044234473
15881359 60 18125463924510824303
16945 1 18272363148762785858
20511035 2 18336833107557359252
23419403 2 16744027825663016624
23559900 14 17912092947861159298
2748010 2 18262525899928573740
430814 3 17534043186644900872
5084963 1 17603308132986076637

> <PUBCHEM_SHAPE_MULTIPOLES>
318.44
3.09
1.81
1.6
0.47
0.16
0.03
-0.23
-0.48
-0.36
0.13
0.12
-0.03
0.25

> <PUBCHEM_SHAPE_SELFOVERLAP>
732.814

> <PUBCHEM_SHAPE_VOLUME>
165

> <PUBCHEM_COORDINATE_TYPE>
2
5
10

$$$$

