586151
  -OEChem-06241222452D

 29 30  0     1  0  0  0  0  0999 V2000
    4.6783   -0.9324    0.0000 O   0  0  0  0  0  0  0  0  0  0  0  0
    6.2619   -0.1276    0.0000 O   0  0  0  0  0  0  0  0  0  0  0  0
    3.7320    0.3724    0.0000 C   0  0  3  0  0  0  0  0  0  0  0  0
    3.7320   -0.6276    0.0000 C   0  0  3  0  0  0  0  0  0  0  0  0
    2.8660    0.8724    0.0000 C   0  0  0  0  0  0  0  0  0  0  0  0
    2.8660   -1.1276    0.0000 C   0  0  0  0  0  0  0  0  0  0  0  0
    2.0000    0.3724    0.0000 C   0  0  0  0  0  0  0  0  0  0  0  0
    2.0000   -0.6276    0.0000 C   0  0  0  0  0  0  0  0  0  0  0  0
    4.6783    0.6771    0.0000 C   0  0  0  0  0  0  0  0  0  0  0  0
    3.7320    1.3724    0.0000 C   0  0  0  0  0  0  0  0  0  0  0  0
    3.7320   -1.6276    0.0000 C   0  0  0  0  0  0  0  0  0  0  0  0
    5.2619   -0.1276    0.0000 C   0  0  0  0  0  0  0  0  0  0  0  0
    4.9889    1.6276    0.0000 C   0  0  0  0  0  0  0  0  0  0  0  0
    3.2646    1.3473    0.0000 H   0  0  0  0  0  0  0  0  0  0  0  0
    2.4675    1.3473    0.0000 H   0  0  0  0  0  0  0  0  0  0  0  0
    2.4675   -1.6026    0.0000 H   0  0  0  0  0  0  0  0  0  0  0  0
    3.2646   -1.6026    0.0000 H   0  0  0  0  0  0  0  0  0  0  0  0
    1.7880    0.9550    0.0000 H   0  0  0  0  0  0  0  0  0  0  0  0
    1.3894    0.2647    0.0000 H   0  0  0  0  0  0  0  0  0  0  0  0
    1.3894   -0.5200    0.0000 H   0  0  0  0  0  0  0  0  0  0  0  0
    1.7880   -1.2102    0.0000 H   0  0  0  0  0  0  0  0  0  0  0  0
    4.3520    1.3724    0.0000 H   0  0  0  0  0  0  0  0  0  0  0  0
    3.7320    1.9924    0.0000 H   0  0  0  0  0  0  0  0  0  0  0  0
    3.1120    1.3724    0.0000 H   0  0  0  0  0  0  0  0  0  0  0  0
    3.1120   -1.6276    0.0000 H   0  0  0  0  0  0  0  0  0  0  0  0
    3.7320   -2.2476    0.0000 H   0  0  0  0  0  0  0  0  0  0  0  0
    4.3520   -1.6276    0.0000 H   0  0  0  0  0  0  0  0  0  0  0  0
    5.5956    1.7555    0.0000 H   0  0  0  0  0  0  0  0  0  0  0  0
    4.5749    2.0891    0.0000 H   0  0  0  0  0  0  0  0  0  0  0  0
  1  4  1  0  0  0  0
  1 12  1  0  0  0  0
  2 12  2  0  0  0  0
  3  4  1  0  0  0  0
  3  5  1  0  0  0  0
  3  9  1  0  0  0  0
  3 10  1  0  0  0  0
  4  6  1  0  0  0  0
  4 11  1  0  0  0  0
  5  7  1  0  0  0  0
  5 14  1  0  0  0  0
  5 15  1  0  0  0  0
  6  8  1  0  0  0  0
  6 16  1  0  0  0  0
  6 17  1  0  0  0  0
  7  8  1  0  0  0  0
  7 18  1  0  0  0  0
  7 19  1  0  0  0  0
  8 20  1  0  0  0  0
  8 21  1  0  0  0  0
  9 12  1  0  0  0  0
  9 13  2  0  0  0  0
 10 22  1  0  0  0  0
 10 23  1  0  0  0  0
 10 24  1  0  0  0  0
 11 25  1  0  0  0  0
 11 26  1  0  0  0  0
 11 27  1  0  0  0  0
 13 28  1  0  0  0  0
 13 29  1  0  0  0  0
M  END
> <PUBCHEM_COMPOUND_CID>
586151

> <PUBCHEM_COMPOUND_CANONICALIZED>
1

> <PUBCHEM_CACTVS_COMPLEXITY>
282

> <PUBCHEM_CACTVS_HBOND_ACCEPTOR>
2

> <PUBCHEM_CACTVS_HBOND_DONOR>
0

> <PUBCHEM_CACTVS_ROTATABLE_BOND>
0

> <PUBCHEM_CACTVS_SUBSKEYS>
AAADceBwMAAAAAAAAAAAAAAAAAAAASAAAAAwAAAAAAAAAEgAAAAAGgAAAAAADkSAgAACCAAABACIAgDSCAAAAAAgAAAAAAEAAEgABBIAIAACAAAEwAAAIIGKyOCPgAAAAAAAAAAAAAAAADAAAAAAAAAAAA==

> <PUBCHEM_IUPAC_OPENEYE_NAME>
3a,7a-dimethyl-3-methylene-4,5,6,7-tetrahydrobenzofuran-2-one

> <PUBCHEM_IUPAC_CAS_NAME>
3a,7a-dimethyl-3-methylene-4,5,6,7-tetrahydrobenzofuran-2-one

> <PUBCHEM_IUPAC_NAME>
3a,7a-dimethyl-3-methylidene-4,5,6,7-tetrahydro-1-benzofuran-2-one

> <PUBCHEM_IUPAC_SYSTEMATIC_NAME>
3a,7a-dimethyl-3-methylidene-4,5,6,7-tetrahydro-1-benzofuran-2-one

> <PUBCHEM_IUPAC_TRADITIONAL_NAME>
3a,7a-dimethyl-3-methylene-4,5,6,7-tetrahydrobenzofuran-2-one

> <PUBCHEM_IUPAC_INCHI>
InChI=1S/C11H16O2/c1-8-9(12)13-11(3)7-5-4-6-10(8,11)2/h1,4-7H2,2-3H3

> <PUBCHEM_IUPAC_INCHIKEY>
RIERCQIGAWSLCK-UHFFFAOYSA-N

> <PUBCHEM_XLOGP3_AA>
2.7

> <PUBCHEM_EXACT_MASS>
180.11503

> <PUBCHEM_MOLECULAR_FORMULA>
C11H16O2

> <PUBCHEM_MOLECULAR_WEIGHT>
180.24354

> <PUBCHEM_OPENEYE_CAN_SMILES>
CC12CCCCC1(OC(=O)C2=C)C

> <PUBCHEM_OPENEYE_ISO_SMILES>
CC12CCCCC1(OC(=O)C2=C)C

> <PUBCHEM_CACTVS_TPSA>
26.3

> <PUBCHEM_MONOISOTOPIC_WEIGHT>
180.11503

> <PUBCHEM_TOTAL_CHARGE>
0

> <PUBCHEM_HEAVY_ATOM_COUNT>
13

> <PUBCHEM_ATOM_DEF_STEREO_COUNT>
0

> <PUBCHEM_ATOM_UDEF_STEREO_COUNT>
2

> <PUBCHEM_BOND_DEF_STEREO_COUNT>
0

> <PUBCHEM_BOND_UDEF_STEREO_COUNT>
0

> <PUBCHEM_ISOTOPIC_ATOM_COUNT>
0

> <PUBCHEM_COMPONENT_COUNT>
1

> <PUBCHEM_CACTVS_TAUTO_COUNT>
1

> <PUBCHEM_COORDINATE_TYPE>
1
5
255

> <PUBCHEM_BONDANNOTATIONS>
3  10  3
4  11  3

$$$$

