356662
  -OEChem-07051213032D

 48 52  0     0  0  0  0  0  0999 V2000
    9.3528    2.7428    0.0000 O   0  0  0  0  0  0  0  0  0  0  0  0
   10.8110    1.9158    0.0000 O   0  0  0  0  0  0  0  0  0  0  0  0
    9.1311   -1.3404    0.0000 O   0  0  0  0  0  0  0  0  0  0  0  0
    2.8718    0.2335    0.0000 O   0  0  0  0  0  0  0  0  0  0  0  0
    2.8556   -1.8581    0.0000 O   0  0  0  0  0  0  0  0  0  0  0  0
    6.5167    1.1942    0.0000 N   0  3  0  0  0  0  0  0  0  0  0  0
    6.5167    0.1942    0.0000 C   0  0  0  0  0  0  0  0  0  0  0  0
    7.3827   -0.3058    0.0000 C   0  0  0  0  0  0  0  0  0  0  0  0
    8.2487    0.1942    0.0000 C   0  0  0  0  0  0  0  0  0  0  0  0
    8.2487    1.1942    0.0000 C   0  0  0  0  0  0  0  0  0  0  0  0
    5.6067   -0.3126    0.0000 C   0  0  0  0  0  0  0  0  0  0  0  0
    7.3827    1.6942    0.0000 C   0  0  0  0  0  0  0  0  0  0  0  0
    9.1426    1.7289    0.0000 C   0  0  0  0  0  0  0  0  0  0  0  0
    5.5986   -1.3542    0.0000 C   0  0  0  0  0  0  0  0  0  0  0  0
    9.1426   -0.3404    0.0000 C   0  0  0  0  0  0  0  0  0  0  0  0
    7.3987   -1.3473    0.0000 C   0  0  0  0  0  0  0  0  0  0  0  0
   10.0487    1.2150    0.0000 C   0  0  0  0  0  0  0  0  0  0  0  0
    6.5007   -1.8750    0.0000 C   0  0  0  0  0  0  0  0  0  0  0  0
   10.0487    0.1734    0.0000 C   0  0  0  0  0  0  0  0  0  0  0  0
    4.6798    0.2515    0.0000 C   0  0  0  0  0  0  0  0  0  0  0  0
    5.6506    1.6942    0.0000 C   0  0  0  0  0  0  0  0  0  0  0  0
    4.6632   -1.9039    0.0000 C   0  0  0  0  0  0  0  0  0  0  0  0
    3.7319   -0.2765    0.0000 C   0  0  0  0  0  0  0  0  0  0  0  0
    3.7236   -1.3614    0.0000 C   0  0  0  0  0  0  0  0  0  0  0  0
   10.3818    2.8581    0.0000 C   0  0  0  0  0  0  0  0  0  0  0  0
    9.9913   -1.8504    0.0000 C   0  0  0  0  0  0  0  0  0  0  0  0
    2.0000   -0.2565    0.0000 C   0  0  0  0  0  0  0  0  0  0  0  0
    2.8518   -2.8581    0.0000 C   0  0  0  0  0  0  0  0  0  0  0  0
    7.3827    2.3142    0.0000 H   0  0  0  0  0  0  0  0  0  0  0  0
    7.9392   -1.6510    0.0000 H   0  0  0  0  0  0  0  0  0  0  0  0
    6.5031   -2.4950    0.0000 H   0  0  0  0  0  0  0  0  0  0  0  0
   10.5845   -0.1387    0.0000 H   0  0  0  0  0  0  0  0  0  0  0  0
    4.6918    0.8714    0.0000 H   0  0  0  0  0  0  0  0  0  0  0  0
    5.9606    2.2312    0.0000 H   0  0  0  0  0  0  0  0  0  0  0  0
    5.1137    2.0042    0.0000 H   0  0  0  0  0  0  0  0  0  0  0  0
    5.3406    1.1573    0.0000 H   0  0  0  0  0  0  0  0  0  0  0  0
    4.6656   -2.5239    0.0000 H   0  0  0  0  0  0  0  0  0  0  0  0
   10.9699    3.0544    0.0000 H   0  0  0  0  0  0  0  0  0  0  0  0
   10.2484    3.4636    0.0000 H   0  0  0  0  0  0  0  0  0  0  0  0
    9.6751   -2.3837    0.0000 H   0  0  0  0  0  0  0  0  0  0  0  0
   10.5246   -2.1665    0.0000 H   0  0  0  0  0  0  0  0  0  0  0  0
   10.3075   -1.3170    0.0000 H   0  0  0  0  0  0  0  0  0  0  0  0
    1.6962    0.2840    0.0000 H   0  0  0  0  0  0  0  0  0  0  0  0
    1.4595   -0.5602    0.0000 H   0  0  0  0  0  0  0  0  0  0  0  0
    2.3038   -0.7969    0.0000 H   0  0  0  0  0  0  0  0  0  0  0  0
    2.2318   -2.8557    0.0000 H   0  0  0  0  0  0  0  0  0  0  0  0
    2.8494   -3.4781    0.0000 H   0  0  0  0  0  0  0  0  0  0  0  0
    3.4718   -2.8605    0.0000 H   0  0  0  0  0  0  0  0  0  0  0  0
  1 13  1  0  0  0  0
  1 25  1  0  0  0  0
  2 17  1  0  0  0  0
  2 25  1  0  0  0  0
  3 15  1  0  0  0  0
  3 26  1  0  0  0  0
  4 23  1  0  0  0  0
  4 27  1  0  0  0  0
  5 24  1  0  0  0  0
  5 28  1  0  0  0  0
  6  7  1  0  0  0  0
  6 12  2  0  0  0  0
  6 21  1  0  0  0  0
  7  8  2  0  0  0  0
  7 11  1  0  0  0  0
  8  9  1  0  0  0  0
  8 16  1  0  0  0  0
  9 10  1  0  0  0  0
  9 15  2  0  0  0  0
 10 12  1  0  0  0  0
 10 13  2  0  0  0  0
 11 14  1  0  0  0  0
 11 20  2  0  0  0  0
 12 29  1  0  0  0  0
 13 17  1  0  0  0  0
 14 18  1  0  0  0  0
 14 22  2  0  0  0  0
 15 19  1  0  0  0  0
 16 18  2  0  0  0  0
 16 30  1  0  0  0  0
 17 19  2  0  0  0  0
 18 31  1  0  0  0  0
 19 32  1  0  0  0  0
 20 23  1  0  0  0  0
 20 33  1  0  0  0  0
 21 34  1  0  0  0  0
 21 35  1  0  0  0  0
 21 36  1  0  0  0  0
 22 24  1  0  0  0  0
 22 37  1  0  0  0  0
 23 24  2  0  0  0  0
 25 38  1  0  0  0  0
 25 39  1  0  0  0  0
 26 40  1  0  0  0  0
 26 41  1  0  0  0  0
 26 42  1  0  0  0  0
 27 43  1  0  0  0  0
 27 44  1  0  0  0  0
 27 45  1  0  0  0  0
 28 46  1  0  0  0  0
 28 47  1  0  0  0  0
 28 48  1  0  0  0  0
M  CHG  1   6   1
M  END
> <PUBCHEM_COMPOUND_CID>
356662

> <PUBCHEM_COMPOUND_CANONICALIZED>
1

> <PUBCHEM_CACTVS_COMPLEXITY>
561

> <PUBCHEM_CACTVS_HBOND_ACCEPTOR>
5

> <PUBCHEM_CACTVS_HBOND_DONOR>
0

> <PUBCHEM_CACTVS_ROTATABLE_BOND>
3

> <PUBCHEM_CACTVS_SUBSKEYS>
AAADceB6OAAAAAAAAAAAAAAAAAAAASAAAAA8YMEAAAAAAEjx/AAAHgAAAAAADAzBngc+zvMMFACgAzRnRACCiCAxICAI2CAuzJgdJ+LEsZukMCpnwB3O6Afw8P8O4QADSAAaQADCAAaQADSAAAAAAAAAAA==

> <PUBCHEM_IUPAC_INCHI>
InChI=1S/C22H20NO5/c1-23-10-15-20(18(26-4)9-19-22(15)28-11-27-19)13-6-5-12-7-16(24-2)17(25-3)8-14(12)21(13)23/h5-10H,11H2,1-4H3/q+1

> <PUBCHEM_IUPAC_INCHIKEY>
FUAPOWMHFINSMM-UHFFFAOYSA-N

> <PUBCHEM_XLOGP3_AA>
4.5

> <PUBCHEM_EXACT_MASS>
378.134148

> <PUBCHEM_MOLECULAR_FORMULA>
C22H20NO5+

> <PUBCHEM_MOLECULAR_WEIGHT>
378.3979

> <PUBCHEM_OPENEYE_CAN_SMILES>
C[N+]1=CC2=C3C(=CC(=C2C4=C1C5=CC(=C(C=C5C=C4)OC)OC)OC)OCO3

> <PUBCHEM_OPENEYE_ISO_SMILES>
C[N+]1=CC2=C3C(=CC(=C2C4=C1C5=CC(=C(C=C5C=C4)OC)OC)OC)OCO3

> <PUBCHEM_CACTVS_TPSA>
50

> <PUBCHEM_MONOISOTOPIC_WEIGHT>
378.134148

> <PUBCHEM_TOTAL_CHARGE>
1

> <PUBCHEM_HEAVY_ATOM_COUNT>
28

> <PUBCHEM_ATOM_DEF_STEREO_COUNT>
0

> <PUBCHEM_ATOM_UDEF_STEREO_COUNT>
0

> <PUBCHEM_BOND_DEF_STEREO_COUNT>
0

> <PUBCHEM_BOND_UDEF_STEREO_COUNT>
0

> <PUBCHEM_ISOTOPIC_ATOM_COUNT>
0

> <PUBCHEM_COMPONENT_COUNT>
1

> <PUBCHEM_CACTVS_TAUTO_COUNT>
1

> <PUBCHEM_COORDINATE_TYPE>
1
5
255

> <PUBCHEM_BONDANNOTATIONS>
10  12  8
10  13  8
11  14  8
11  20  8
13  17  8
14  18  8
14  22  8
15  19  8
16  18  8
17  19  8
20  23  8
22  24  8
23  24  8
6  12  8
6  7  8
7  11  8
7  8  8
8  16  8
8  9  8
9  10  8
9  15  8

$$$$

