5280550
  -OEChem-07051212473D

 49 50  0     1  0  0  0  0  0999 V2000
    2.3309    1.0244   -0.2532 O   0  0  0  0  0  0  0  0  0  0  0  0
    1.0551   -0.7915   -0.9736 O   0  0  0  0  0  0  0  0  0  0  0  0
    5.6815   -1.3183    0.1369 O   0  0  0  0  0  0  0  0  0  0  0  0
    5.5765    1.2666    1.4263 O   0  0  0  0  0  0  0  0  0  0  0  0
    3.0061   -2.5511    0.0779 O   0  0  0  0  0  0  0  0  0  0  0  0
    2.1527    3.6219    0.6286 O   0  0  0  0  0  0  0  0  0  0  0  0
   -0.1987   -2.8585    0.3778 O   0  0  0  0  0  0  0  0  0  0  0  0
   -0.3428    1.5359   -1.5209 O   0  0  0  0  0  0  0  0  0  0  0  0
   -7.2524    1.5907   -0.0385 O   0  0  0  0  0  0  0  0  0  0  0  0
   -7.0283   -0.0576    1.5227 O   0  0  0  0  0  0  0  0  0  0  0  0
    4.4716   -0.7004    0.5783 C   0  0  1  0  0  0  0  0  0  0  0  0
    4.6404    0.8138    0.4518 C   0  0  1  0  0  0  0  0  0  0  0  0
    3.3046   -1.2002   -0.2734 C   0  0  2  0  0  0  0  0  0  0  0  0
    3.3039    1.5288    0.6633 C   0  0  1  0  0  0  0  0  0  0  0  0
    2.0494   -0.3577   -0.0460 C   0  0  1  0  0  0  0  0  0  0  0  0
    3.4235    3.0310    0.4266 C   0  0  0  0  0  0  0  0  0  0  0  0
   -0.2482   -0.6636   -0.5784 C   0  0  0  0  0  0  0  0  0  0  0  0
   -0.8721   -1.7071    0.1007 C   0  0  0  0  0  0  0  0  0  0  0  0
   -0.9449    0.5096   -0.8573 C   0  0  0  0  0  0  0  0  0  0  0  0
   -2.2012   -1.5768    0.5033 C   0  0  0  0  0  0  0  0  0  0  0  0
   -2.2741    0.6400   -0.4546 C   0  0  0  0  0  0  0  0  0  0  0  0
   -2.9022   -0.4031    0.2257 C   0  0  0  0  0  0  0  0  0  0  0  0
   -4.2880   -0.2671    0.6458 C   0  0  0  0  0  0  0  0  0  0  0  0
   -0.2622   -3.8972   -0.5975 C   0  0  0  0  0  0  0  0  0  0  0  0
   -0.4400    1.5330   -2.9438 C   0  0  0  0  0  0  0  0  0  0  0  0
   -5.1776    0.6111    0.1318 C   0  0  0  0  0  0  0  0  0  0  0  0
   -6.5637    0.6433    0.6397 C   0  0  0  0  0  0  0  0  0  0  0  0
    4.3379   -0.9952    1.6265 H   0  0  0  0  0  0  0  0  0  0  0  0
    5.0537    1.0530   -0.5358 H   0  0  0  0  0  0  0  0  0  0  0  0
    3.5821   -1.2024   -1.3342 H   0  0  0  0  0  0  0  0  0  0  0  0
    2.9321    1.3757    1.6856 H   0  0  0  0  0  0  0  0  0  0  0  0
    1.6805   -0.5037    0.9797 H   0  0  0  0  0  0  0  0  0  0  0  0
    3.7347    3.2515   -0.6000 H   0  0  0  0  0  0  0  0  0  0  0  0
    4.1331    3.4949    1.1177 H   0  0  0  0  0  0  0  0  0  0  0  0
    6.4038   -0.9705    0.6876 H   0  0  0  0  0  0  0  0  0  0  0  0
    5.2151    1.0651    2.3064 H   0  0  0  0  0  0  0  0  0  0  0  0
    2.7467   -2.5691    1.0149 H   0  0  0  0  0  0  0  0  0  0  0  0
    1.5300    3.1984    0.0132 H   0  0  0  0  0  0  0  0  0  0  0  0
   -2.6809   -2.3973    1.0329 H   0  0  0  0  0  0  0  0  0  0  0  0
   -2.7799    1.5770   -0.6710 H   0  0  0  0  0  0  0  0  0  0  0  0
   -4.6072   -0.9491    1.4313 H   0  0  0  0  0  0  0  0  0  0  0  0
   -1.2960   -4.2279   -0.7388 H   0  0  0  0  0  0  0  0  0  0  0  0
    0.1577   -3.5577   -1.5497 H   0  0  0  0  0  0  0  0  0  0  0  0
    0.3297   -4.7426   -0.2363 H   0  0  0  0  0  0  0  0  0  0  0  0
    0.0210    0.6315   -3.3597 H   0  0  0  0  0  0  0  0  0  0  0  0
    0.0953    2.4069   -3.3251 H   0  0  0  0  0  0  0  0  0  0  0  0
   -1.4868    1.5991   -3.2568 H   0  0  0  0  0  0  0  0  0  0  0  0
   -4.9315    1.2989   -0.6691 H   0  0  0  0  0  0  0  0  0  0  0  0
   -8.1840    1.6537    0.2624 H   0  0  0  0  0  0  0  0  0  0  0  0
  1 14  1  0  0  0  0
  1 15  1  0  0  0  0
  2 15  1  0  0  0  0
  2 17  1  0  0  0  0
  3 11  1  0  0  0  0
  3 35  1  0  0  0  0
  4 12  1  0  0  0  0
  4 36  1  0  0  0  0
  5 13  1  0  0  0  0
  5 37  1  0  0  0  0
  6 16  1  0  0  0  0
  6 38  1  0  0  0  0
  7 18  1  0  0  0  0
  7 24  1  0  0  0  0
  8 19  1  0  0  0  0
  8 25  1  0  0  0  0
  9 27  1  0  0  0  0
  9 49  1  0  0  0  0
 10 27  2  0  0  0  0
 11 12  1  0  0  0  0
 11 13  1  0  0  0  0
 11 28  1  0  0  0  0
 12 14  1  0  0  0  0
 12 29  1  0  0  0  0
 13 15  1  0  0  0  0
 13 30  1  0  0  0  0
 14 16  1  0  0  0  0
 14 31  1  0  0  0  0
 15 32  1  0  0  0  0
 16 33  1  0  0  0  0
 16 34  1  0  0  0  0
 17 18  2  0  0  0  0
 17 19  1  0  0  0  0
 18 20  1  0  0  0  0
 19 21  2  0  0  0  0
 20 22  2  0  0  0  0
 20 39  1  0  0  0  0
 21 22  1  0  0  0  0
 21 40  1  0  0  0  0
 22 23  1  0  0  0  0
 23 26  2  0  0  0  0
 23 41  1  0  0  0  0
 24 42  1  0  0  0  0
 24 43  1  0  0  0  0
 24 44  1  0  0  0  0
 25 45  1  0  0  0  0
 25 46  1  0  0  0  0
 25 47  1  0  0  0  0
 26 27  1  0  0  0  0
 26 48  1  0  0  0  0
M  END
> <PUBCHEM_COMPOUND_CID>
5280550

> <PUBCHEM_CONFORMER_RMSD>
1

> <PUBCHEM_CONFORMER_DIVERSEORDER>
1
4
9
19
12
21
5
6
23
2
25
15
18
7
3
24
13
11
20
22
14
10
16
26
17
8

> <PUBCHEM_MMFF94_PARTIAL_CHARGES>
36
1 -0.56
10 -0.57
11 0.28
12 0.28
13 0.28
14 0.28
15 0.56
16 0.28
17 0.08
18 0.08
19 0.08
2 -0.36
20 -0.15
21 -0.15
22 0.03
23 -0.18
24 0.28
25 0.28
26 -0.14
27 0.71
3 -0.68
35 0.4
36 0.4
37 0.4
38 0.4
39 0.15
4 -0.68
40 0.15
41 0.15
48 0.15
49 0.5
5 -0.68
6 -0.68
7 -0.36
8 -0.36
9 -0.65

> <PUBCHEM_EFFECTIVE_ROTOR_COUNT>
8.2

> <PUBCHEM_PHARMACOPHORE_FEATURES>
17
1 1 acceptor
1 10 acceptor
1 2 acceptor
1 3 acceptor
1 3 donor
1 4 acceptor
1 4 donor
1 5 acceptor
1 5 donor
1 6 acceptor
1 6 donor
1 7 acceptor
1 8 acceptor
1 9 acceptor
3 9 10 27 anion
6 1 11 12 13 14 15 rings
6 17 18 19 20 21 22 rings

> <PUBCHEM_HEAVY_ATOM_COUNT>
27

> <PUBCHEM_ATOM_DEF_STEREO_COUNT>
5

> <PUBCHEM_ATOM_UDEF_STEREO_COUNT>
0

> <PUBCHEM_BOND_DEF_STEREO_COUNT>
1

> <PUBCHEM_BOND_UDEF_STEREO_COUNT>
0

> <PUBCHEM_ISOTOPIC_ATOM_COUNT>
0

> <PUBCHEM_COMPONENT_COUNT>
1

> <PUBCHEM_CACTVS_TAUTO_COUNT>
1

> <PUBCHEM_CONFORMER_ID>
0050932600000001

> <PUBCHEM_MMFF94_ENERGY>
104.4453

> <PUBCHEM_FEATURE_SELFOVERLAP>
86.392

> <PUBCHEM_SHAPE_FINGERPRINT>
10165383 225 18412819171464743076
10411042 1 17831858324159658518
11045977 3 18342734105101932203
12236239 1 17168150030915306215
12403259 415 18201162143408678021
12422481 6 17989485204580677629
12633257 1 18339936913514488056
12925494 130 18117847585959047513
13140716 1 18342458080418069090
13533116 47 18262514909097005994
14178342 30 17839179610899484366
14341114 176 18410009940261334168
15238133 3 18336262341396897088
15348495 7 18271518703022436905
15840311 113 18262230123676209261
16120349 18 18409451427932120233
17980427 23 18335984147822160917
1813 80 16702305624549827380
19141452 34 18341895160566192711
20157964 124 18187081780360529603
21033648 29 18336268929433156995
21637258 2 13830134962426258769
21859007 373 17845666966259587565
22122407 14 17749097856081439185
22182313 1 17844810493993435663
22224240 67 18410013243544871891
23559900 14 18260827081786949130
2838139 119 17240485814771119889
335352 9 18408602570099977246
3472631 163 14707503447064905696
350125 39 18341893013135117036
4340502 62 18334855021999609643
465052 167 17203033141471959739
5104073 3 18270405966710614026

> <PUBCHEM_SHAPE_MULTIPOLES>
496.95
13.86
3.32
1.35
16.89
0.92
-0.95
-5.68
6.98
-2.69
-0.08
0.32
-0.74
0.85

> <PUBCHEM_SHAPE_SELFOVERLAP>
1037.923

> <PUBCHEM_SHAPE_VOLUME>
279.7

> <PUBCHEM_COORDINATE_TYPE>
2
5
10

$$$$

