29697
  -OEChem-07051213133D

 30 29  0     0  0  0  0  0  0999 V2000
    2.7391    0.5435   -0.7209 S   0  0  0  0  0  0  0  0  0  0  0  0
    1.8531   -1.2421    1.0060 O   0  0  0  0  0  0  0  0  0  0  0  0
   -3.2947    0.8039    0.3679 N   0  0  0  0  0  0  0  0  0  0  0  0
    0.5451   -0.8086   -0.8705 N   0  0  0  0  0  0  0  0  0  0  0  0
   -1.6317   -1.0276    0.2216 C   0  0  0  0  0  0  0  0  0  0  0  0
   -2.2987    0.1598   -0.4796 C   0  0  0  0  0  0  0  0  0  0  0  0
   -0.5409   -1.7184   -0.5962 C   0  0  0  0  0  0  0  0  0  0  0  0
   -4.4105   -0.1213    0.7011 C   0  0  0  0  0  0  0  0  0  0  0  0
   -3.7918    2.0288   -0.2621 C   0  0  0  0  0  0  0  0  0  0  0  0
    1.6386   -0.6549   -0.0464 C   0  0  0  0  0  0  0  0  0  0  0  0
    4.0409    0.5386    0.5308 C   0  0  0  0  0  0  0  0  0  0  0  0
    5.1515    1.4983    0.1482 C   0  0  0  0  0  0  0  0  0  0  0  0
   -1.2087   -0.6928    1.1779 H   0  0  0  0  0  0  0  0  0  0  0  0
   -2.3735   -1.7995    0.4532 H   0  0  0  0  0  0  0  0  0  0  0  0
   -2.7422   -0.1729   -1.4272 H   0  0  0  0  0  0  0  0  0  0  0  0
   -1.5207    0.8910   -0.7317 H   0  0  0  0  0  0  0  0  0  0  0  0
   -0.9359   -2.0635   -1.5570 H   0  0  0  0  0  0  0  0  0  0  0  0
   -0.1542   -2.5844   -0.0484 H   0  0  0  0  0  0  0  0  0  0  0  0
   -4.0794   -0.9236    1.3663 H   0  0  0  0  0  0  0  0  0  0  0  0
   -4.8608   -0.5536   -0.1991 H   0  0  0  0  0  0  0  0  0  0  0  0
   -5.1909    0.4183    1.2500 H   0  0  0  0  0  0  0  0  0  0  0  0
   -4.2994    1.8241   -1.2114 H   0  0  0  0  0  0  0  0  0  0  0  0
   -2.9708    2.7295   -0.4504 H   0  0  0  0  0  0  0  0  0  0  0  0
   -4.4956    2.5429    0.4018 H   0  0  0  0  0  0  0  0  0  0  0  0
    0.5006   -0.2485   -1.7164 H   0  0  0  0  0  0  0  0  0  0  0  0
    3.6179    0.8319    1.4969 H   0  0  0  0  0  0  0  0  0  0  0  0
    4.4495   -0.4725    0.6281 H   0  0  0  0  0  0  0  0  0  0  0  0
    5.6160    1.2179   -0.8033 H   0  0  0  0  0  0  0  0  0  0  0  0
    4.7844    2.5272    0.0671 H   0  0  0  0  0  0  0  0  0  0  0  0
    5.9343    1.4865    0.9140 H   0  0  0  0  0  0  0  0  0  0  0  0
  1 10  1  0  0  0  0
  1 11  1  0  0  0  0
  2 10  2  0  0  0  0
  3  6  1  0  0  0  0
  3  8  1  0  0  0  0
  3  9  1  0  0  0  0
  4  7  1  0  0  0  0
  4 10  1  0  0  0  0
  4 25  1  0  0  0  0
  5  6  1  0  0  0  0
  5  7  1  0  0  0  0
  5 13  1  0  0  0  0
  5 14  1  0  0  0  0
  6 15  1  0  0  0  0
  6 16  1  0  0  0  0
  7 17  1  0  0  0  0
  7 18  1  0  0  0  0
  8 19  1  0  0  0  0
  8 20  1  0  0  0  0
  8 21  1  0  0  0  0
  9 22  1  0  0  0  0
  9 23  1  0  0  0  0
  9 24  1  0  0  0  0
 11 12  1  0  0  0  0
 11 26  1  0  0  0  0
 11 27  1  0  0  0  0
 12 28  1  0  0  0  0
 12 29  1  0  0  0  0
 12 30  1  0  0  0  0
M  END
> <PUBCHEM_COMPOUND_CID>
29697

> <PUBCHEM_CONFORMER_RMSD>
0.8

> <PUBCHEM_CONFORMER_DIVERSEORDER>
2
83
27
77
68
49
57
42
44
3
56
90
71
81
35
34
10
62
65
40
5
45
52
63
39
70
74
11
89
1
88
78
59
51
87
67
43
26
25
76
37
48
32
75
29
72
33
31
86
46
21
28
6
4
61
73
9
54
47
8
13
19
55
12
53
50
66
16
30
20
17
14
80
7
22
60
24
82
41
15
23
58
85
38
69
36
79
64
84
18

> <PUBCHEM_MMFF94_PARTIAL_CHARGES>
11
1 -0.37
10 0.77
11 0.23
2 -0.57
25 0.37
3 -0.81
4 -0.73
6 0.27
7 0.3
8 0.27
9 0.27

> <PUBCHEM_EFFECTIVE_ROTOR_COUNT>
7

> <PUBCHEM_PHARMACOPHORE_FEATURES>
3
1 12 hydrophobe
1 3 cation
1 4 donor

> <PUBCHEM_HEAVY_ATOM_COUNT>
12

> <PUBCHEM_ATOM_DEF_STEREO_COUNT>
0

> <PUBCHEM_ATOM_UDEF_STEREO_COUNT>
0

> <PUBCHEM_BOND_DEF_STEREO_COUNT>
0

> <PUBCHEM_BOND_UDEF_STEREO_COUNT>
0

> <PUBCHEM_ISOTOPIC_ATOM_COUNT>
0

> <PUBCHEM_COMPONENT_COUNT>
1

> <PUBCHEM_CACTVS_TAUTO_COUNT>
2

> <PUBCHEM_CONFORMER_ID>
0000740100000002

> <PUBCHEM_MMFF94_ENERGY>
7.5936

> <PUBCHEM_FEATURE_SELFOVERLAP>
15.223

> <PUBCHEM_SHAPE_FINGERPRINT>
11046707 91 10231762192714269916
122479 349 18411698781341492910
12251169 10 17917990555499544471
14123255 352 18410298024918530173
14123255 52 18409168813786574340
14251710 61 9943806694554157972
14252887 29 15123519120658055120
14576447 43 7204776986539280444
15501527 16 18261673680160443544
15775835 57 18409450288573387392
1741750 31 18333731299551456762
177051 138 10447930564107669742
17834072 32 18336265734036042949
17834072 8 18040423400920934116
18915474 69 8358251566642447160
193927 3 10879997994896032072
20281475 54 10015569636787489127
20432913 95 14692576515555053424
20605781 2 18333730251969755225
20621476 51 12965971582304970833
20645477 56 18114457864503335470
20645477 70 16588569986089511726
20724930 69 18334294237052207044
20871999 31 16009040440744981389
21119208 17 5978109033227252979
21256008 61 7204775899912320562
21713013 43 6050149013931756977
22485316 2 10447917365457034183
22926399 65 18113620062639471344
23402655 69 14056987356303730314
23403322 49 9511464420139728725
23500284 214 18334289851268261667
23557571 272 17532083891616238998
270888 7 18334858359073602425
6430166 295 18408043996586160032

> <PUBCHEM_SHAPE_MULTIPOLES>
234.97
10.01
1.79
0.91
3.36
0.3
0
6.51
1.89
-0.62
-0.12
0.11
-0.11
0.12

> <PUBCHEM_SHAPE_SELFOVERLAP>
415.534

> <PUBCHEM_SHAPE_VOLUME>
155.4

> <PUBCHEM_COORDINATE_TYPE>
2
5
10

$$$$

