114918
  -OEChem-07051212503D

 30 32  0     0  0  0  0  0  0999 V2000
    0.2878   -2.3647   -0.0129 O   0  0  0  0  0  0  0  0  0  0  0  0
   -4.3816   -1.9363    0.0519 O   0  0  0  0  0  0  0  0  0  0  0  0
   -1.8838    2.6310   -1.2263 O   0  0  0  0  0  0  0  0  0  0  0  0
    4.1344    2.1307    0.5991 O   0  0  0  0  0  0  0  0  0  0  0  0
   -1.8391    2.8551    1.0493 O   0  0  0  0  0  0  0  0  0  0  0  0
    2.1896    2.5283   -0.5083 O   0  0  0  0  0  0  0  0  0  0  0  0
    0.4381    0.4920    0.0033 N   0  0  0  0  0  0  0  0  0  0  0  0
   -4.4167    0.7563    0.0687 N   0  0  0  0  0  0  0  0  0  0  0  0
   -0.7199   -0.0983    0.0140 C   0  0  0  0  0  0  0  0  0  0  0  0
   -0.8529   -1.5770    0.0069 C   0  0  0  0  0  0  0  0  0  0  0  0
    1.5821   -0.3197   -0.0161 C   0  0  0  0  0  0  0  0  0  0  0  0
    1.4969   -1.7151   -0.0241 C   0  0  0  0  0  0  0  0  0  0  0  0
   -1.9806    0.7096    0.0355 C   0  0  0  0  0  0  0  0  0  0  0  0
   -3.1982    0.1330    0.0484 C   0  0  0  0  0  0  0  0  0  0  0  0
    2.8464    0.2785   -0.0276 C   0  0  0  0  0  0  0  0  0  0  0  0
   -2.0553   -2.1502    0.0195 C   0  0  0  0  0  0  0  0  0  0  0  0
   -3.2965   -1.3595    0.0407 C   0  0  0  0  0  0  0  0  0  0  0  0
    2.6476   -2.5048   -0.0433 C   0  0  0  0  0  0  0  0  0  0  0  0
    4.0010   -0.5065   -0.0468 C   0  0  0  0  0  0  0  0  0  0  0  0
    3.9014   -1.8970   -0.0547 C   0  0  0  0  0  0  0  0  0  0  0  0
   -1.8927    2.1853    0.0427 C   0  0  0  0  0  0  0  0  0  0  0  0
    2.9919    1.7292   -0.0198 C   0  0  0  0  0  0  0  0  0  0  0  0
   -2.1581   -3.2306    0.0144 H   0  0  0  0  0  0  0  0  0  0  0  0
    2.5740   -3.5887   -0.0501 H   0  0  0  0  0  0  0  0  0  0  0  0
    4.9937   -0.0641   -0.0700 H   0  0  0  0  0  0  0  0  0  0  0  0
    4.8002   -2.5063   -0.0729 H   0  0  0  0  0  0  0  0  0  0  0  0
   -4.4715    1.7668    0.0750 H   0  0  0  0  0  0  0  0  0  0  0  0
   -5.2663    0.2055    0.0763 H   0  0  0  0  0  0  0  0  0  0  0  0
   -1.8264    3.6092   -1.2745 H   0  0  0  0  0  0  0  0  0  0  0  0
    4.2252    3.1075    0.6005 H   0  0  0  0  0  0  0  0  0  0  0  0
  1 10  1  0  0  0  0
  1 12  1  0  0  0  0
  2 17  2  0  0  0  0
  3 21  1  0  0  0  0
  3 29  1  0  0  0  0
  4 22  1  0  0  0  0
  4 30  1  0  0  0  0
  5 21  2  0  0  0  0
  6 22  2  0  0  0  0
  7  9  2  0  0  0  0
  7 11  1  0  0  0  0
  8 14  1  0  0  0  0
  8 27  1  0  0  0  0
  8 28  1  0  0  0  0
  9 10  1  0  0  0  0
  9 13  1  0  0  0  0
 10 16  2  0  0  0  0
 11 12  1  0  0  0  0
 11 15  2  0  0  0  0
 12 18  2  0  0  0  0
 13 14  2  0  0  0  0
 13 21  1  0  0  0  0
 14 17  1  0  0  0  0
 15 19  1  0  0  0  0
 15 22  1  0  0  0  0
 16 17  1  0  0  0  0
 16 23  1  0  0  0  0
 18 20  1  0  0  0  0
 18 24  1  0  0  0  0
 19 20  2  0  0  0  0
 19 25  1  0  0  0  0
 20 26  1  0  0  0  0
M  END
> <PUBCHEM_COMPOUND_CID>
114918

> <PUBCHEM_CONFORMER_RMSD>
0.6

> <PUBCHEM_CONFORMER_DIVERSEORDER>
1
2

> <PUBCHEM_MMFF94_PARTIAL_CHARGES>
30
1 -0.16
10 0.09
11 0.18
12 0.08
13 0.03
14 0.11
15 0.09
16 -0.14
17 0.54
18 -0.15
19 -0.15
2 -0.57
20 -0.15
21 0.71
22 0.63
23 0.15
24 0.15
25 0.15
26 0.15
27 0.4
28 0.4
29 0.5
3 -0.65
30 0.5
4 -0.65
5 -0.57
6 -0.57
7 -0.63
8 -0.9
9 0.42

> <PUBCHEM_EFFECTIVE_ROTOR_COUNT>
2

> <PUBCHEM_PHARMACOPHORE_FEATURES>
14
1 1 acceptor
1 2 acceptor
1 3 acceptor
1 4 acceptor
1 5 acceptor
1 6 acceptor
1 7 acceptor
1 8 cation
1 8 donor
3 3 5 21 anion
3 4 6 22 anion
6 1 7 9 10 11 12 rings
6 11 12 15 18 19 20 rings
6 9 10 13 14 16 17 rings

> <PUBCHEM_HEAVY_ATOM_COUNT>
22

> <PUBCHEM_ATOM_DEF_STEREO_COUNT>
0

> <PUBCHEM_ATOM_UDEF_STEREO_COUNT>
0

> <PUBCHEM_BOND_DEF_STEREO_COUNT>
0

> <PUBCHEM_BOND_UDEF_STEREO_COUNT>
0

> <PUBCHEM_ISOTOPIC_ATOM_COUNT>
0

> <PUBCHEM_COMPONENT_COUNT>
1

> <PUBCHEM_CACTVS_TAUTO_COUNT>
5

> <PUBCHEM_CONFORMER_ID>
0001C0E600000001

> <PUBCHEM_MMFF94_ENERGY>
72.3185

> <PUBCHEM_FEATURE_SELFOVERLAP>
71.229

> <PUBCHEM_SHAPE_FINGERPRINT>
10498660 4 18411419483981818733
10608611 8 18411421738908201286
10616163 171 18408600348942586463
10967382 1 18194682570730022294
1100329 8 17976537539765888384
11578080 2 17202225069129152238
12403259 226 18411984688882611228
12403260 363 18337962280387679754
12633257 1 18262790903816350745
13140716 1 18411127052992201923
14178342 30 18266190598417920466
14223421 5 18411983576317250558
14790565 3 17691393114960323453
15196674 1 18410292489000837723
15375462 6 18339359669435242710
15442244 35 18338516477435174186
15536298 74 18335981995700926278
16945 1 18411133675240928319
17492 89 18410573998095362762
19591789 44 15669276379738438262
19930381 70 18265899046947195385
20510252 161 18408604738483143505
20715895 44 18128272253734697869
21267235 1 18410565167594882519
21501502 16 18410569617307036578
221490 88 18411693301258999178
23227448 37 18338238283908150711
2334 1 17906451026341963762
23366157 5 18131349713861077498
23558518 356 18343013419562419265
23559900 14 18408890646108741986
238 59 16834633206109866789
2748010 2 18121498213565572566
335352 9 18338797947858383583
350125 39 18410570708481813912
4214541 1 18338516468628838250
474 4 17845651426734990020
5104073 3 18411417306438850595
7097593 13 17769950291307131562
7364860 26 18408040702414861262
7832392 63 18193838382313378402
9709674 26 18410287017023124758
9981440 41 17981046315324619192

> <PUBCHEM_SHAPE_MULTIPOLES>
407.57
7.82
3.42
0.7
0.09
1.05
-0.02
-0.4
0.28
0.18
-0.01
-0.09
0.28
0.16

> <PUBCHEM_SHAPE_SELFOVERLAP>
914.291

> <PUBCHEM_SHAPE_VOLUME>
210.9

> <PUBCHEM_COORDINATE_TYPE>
2
5
10

$$$$

