21631049
  -OEChem-07051213102D

 28 28  0     1  0  0  0  0  0999 V2000
    5.9641    1.9330    0.0000 Br  0  0  0  0  0  0  0  0  0  0  0  0
    6.8301   -1.2990    0.0000 Cl  0  0  0  0  0  0  0  0  0  0  0  0
    5.4641   -1.9330    0.0000 Cl  0  0  0  0  0  0  0  0  0  0  0  0
    2.0000    1.0670    0.0000 Cl  0  0  0  0  0  0  0  0  0  0  0  0
    5.4641    1.0670    0.0000 C   0  0  1  0  0  0  0  0  0  0  0  0
    4.5981    0.5670    0.0000 C   0  0  1  0  0  0  0  0  0  0  0  0
    6.3301   -0.4330    0.0000 C   0  0  2  0  0  0  0  0  0  0  0  0
    6.3301    0.5670    0.0000 C   0  0  0  0  0  0  0  0  0  0  0  0
    4.5981   -0.4330    0.0000 C   0  0  0  0  0  0  0  0  0  0  0  0
    5.4641   -0.9330    0.0000 C   0  0  2  0  0  0  0  0  0  0  0  0
    4.9641    1.9330    0.0000 C   0  0  0  0  0  0  0  0  0  0  0  0
    7.3301   -0.4330    0.0000 C   0  0  0  0  0  0  0  0  0  0  0  0
    3.7320    1.0670    0.0000 C   0  0  0  0  0  0  0  0  0  0  0  0
    2.8660    0.5670    0.0000 C   0  0  0  0  0  0  0  0  0  0  0  0
    4.5981    1.1870    0.0000 H   0  0  0  0  0  0  0  0  0  0  0  0
    6.9407    0.4593    0.0000 H   0  0  0  0  0  0  0  0  0  0  0  0
    6.5422    1.1496    0.0000 H   0  0  0  0  0  0  0  0  0  0  0  0
    3.9875   -0.3254    0.0000 H   0  0  0  0  0  0  0  0  0  0  0  0
    4.3860   -1.0156    0.0000 H   0  0  0  0  0  0  0  0  0  0  0  0
    6.0010   -1.2430    0.0000 H   0  0  0  0  0  0  0  0  0  0  0  0
    5.5010    2.2430    0.0000 H   0  0  0  0  0  0  0  0  0  0  0  0
    4.6541    2.4700    0.0000 H   0  0  0  0  0  0  0  0  0  0  0  0
    4.4272    1.6230    0.0000 H   0  0  0  0  0  0  0  0  0  0  0  0
    7.3301   -1.0530    0.0000 H   0  0  0  0  0  0  0  0  0  0  0  0
    7.9501   -0.4330    0.0000 H   0  0  0  0  0  0  0  0  0  0  0  0
    7.3301    0.1870    0.0000 H   0  0  0  0  0  0  0  0  0  0  0  0
    3.7320    1.6870    0.0000 H   0  0  0  0  0  0  0  0  0  0  0  0
    2.8660   -0.0530    0.0000 H   0  0  0  0  0  0  0  0  0  0  0  0
  5  1  1  6  0  0  0
  7  2  1  1  0  0  0
 10  3  1  1  0  0  0
  4 14  1  0  0  0  0
  5  6  1  0  0  0  0
  5  8  1  0  0  0  0
  5 11  1  0  0  0  0
  6  9  1  0  0  0  0
  6 13  1  1  0  0  0
  6 15  1  0  0  0  0
  7  8  1  0  0  0  0
  7 10  1  0  0  0  0
  7 12  1  0  0  0  0
  8 16  1  0  0  0  0
  8 17  1  0  0  0  0
  9 10  1  0  0  0  0
  9 18  1  0  0  0  0
  9 19  1  0  0  0  0
 10 20  1  0  0  0  0
 11 21  1  0  0  0  0
 11 22  1  0  0  0  0
 11 23  1  0  0  0  0
 12 24  1  0  0  0  0
 12 25  1  0  0  0  0
 12 26  1  0  0  0  0
 13 14  2  0  0  0  0
 13 27  1  0  0  0  0
 14 28  1  0  0  0  0
M  END
> <PUBCHEM_COMPOUND_CID>
21631049

> <PUBCHEM_COMPOUND_CANONICALIZED>
1

> <PUBCHEM_CACTVS_COMPLEXITY>
244

> <PUBCHEM_CACTVS_HBOND_ACCEPTOR>
0

> <PUBCHEM_CACTVS_HBOND_DONOR>
0

> <PUBCHEM_CACTVS_ROTATABLE_BOND>
1

> <PUBCHEM_CACTVS_SUBSKEYS>
AAADccBwAAAGEAAAAAAAAAAAAAAAAAAAAAAwAAAAAAAAAAAAAAAAGAJAAAABjQOAAEACAAAAAACAACBCAAAAAAAgAAAIAEAAAigAAAIBAQAAAAAAgAAAAAEAgMAOgAAAAAAAAACIABRgAKMACAAAAAAAAA==

> <PUBCHEM_IUPAC_OPENEYE_NAME>
(1R,2S,4S,5R)-1-bromo-4,5-dichloro-2-[(E)-2-chlorovinyl]-1,5-dimethyl-cyclohexane

> <PUBCHEM_IUPAC_CAS_NAME>
(1R,2S,4S,5R)-1-bromo-4,5-dichloro-2-[(E)-2-chloroethenyl]-1,5-dimethylcyclohexane

> <PUBCHEM_IUPAC_NAME>
(1R,2S,4S,5R)-1-bromo-4,5-dichloro-2-[(E)-2-chloroethenyl]-1,5-dimethylcyclohexane

> <PUBCHEM_IUPAC_SYSTEMATIC_NAME>
(1R,2S,4S,5R)-1-bromanyl-4,5-bis(chloranyl)-2-[(E)-2-chloranylethenyl]-1,5-dimethyl-cyclohexane

> <PUBCHEM_IUPAC_TRADITIONAL_NAME>
(1R,2S,4S,5R)-1-bromo-4,5-dichloro-2-[(E)-2-chlorovinyl]-1,5-dimethyl-cyclohexane

> <PUBCHEM_IUPAC_INCHI>
InChI=1S/C10H14BrCl3/c1-9(11)6-10(2,14)8(13)5-7(9)3-4-12/h3-4,7-8H,5-6H2,1-2H3/b4-3+/t7-,8+,9-,10-/m1/s1

> <PUBCHEM_IUPAC_INCHIKEY>
BUKVVQOGNPNDJN-YEBTWRFZSA-N

> <PUBCHEM_XLOGP3_AA>
4.4

> <PUBCHEM_EXACT_MASS>
317.934446

> <PUBCHEM_MOLECULAR_FORMULA>
C10H14BrCl3

> <PUBCHEM_MOLECULAR_WEIGHT>
320.48116

> <PUBCHEM_OPENEYE_CAN_SMILES>
CC1(CC(C(CC1C=CCl)Cl)(C)Cl)Br

> <PUBCHEM_OPENEYE_ISO_SMILES>
C[C@]1(C[C@@]([C@H](C[C@H]1/C=C/Cl)Cl)(C)Cl)Br

> <PUBCHEM_CACTVS_TPSA>
0

> <PUBCHEM_MONOISOTOPIC_WEIGHT>
317.934446

> <PUBCHEM_TOTAL_CHARGE>
0

> <PUBCHEM_HEAVY_ATOM_COUNT>
14

> <PUBCHEM_ATOM_DEF_STEREO_COUNT>
4

> <PUBCHEM_ATOM_UDEF_STEREO_COUNT>
0

> <PUBCHEM_BOND_DEF_STEREO_COUNT>
1

> <PUBCHEM_BOND_UDEF_STEREO_COUNT>
0

> <PUBCHEM_ISOTOPIC_ATOM_COUNT>
0

> <PUBCHEM_COMPONENT_COUNT>
1

> <PUBCHEM_CACTVS_TAUTO_COUNT>
1

> <PUBCHEM_COORDINATE_TYPE>
1
5
255

> <PUBCHEM_BONDANNOTATIONS>
5  1  6
7  2  5
10  3  5
6  13  5

$$$$

