5281382
  -OEChem-07051212562D

 86 93  0     1  0  0  0  0  0999 V2000
    6.7281    4.7939    0.0000 O   0  0  0  0  0  0  0  0  0  0  0  0
    6.3861    3.0050    0.0000 O   0  0  0  0  0  0  0  0  0  0  0  0
    5.5000    2.5205    0.0000 O   0  0  0  0  0  0  0  0  0  0  0  0
    5.6060    0.9440    0.0000 O   0  0  0  0  0  0  0  0  0  0  0  0
    7.5337   -0.1738    0.0000 O   0  0  0  0  0  0  0  0  0  0  0  0
    9.5633    4.8376    0.0000 O   0  0  0  0  0  0  0  0  0  0  0  0
    9.1512    5.5455    0.0000 O   0  0  0  0  0  0  0  0  0  0  0  0
    7.9755    6.3572    0.0000 O   0  0  0  0  0  0  0  0  0  0  0  0
   10.8455    4.8068    0.0000 O   0  0  0  0  0  0  0  0  0  0  0  0
    9.2604   -0.0377    0.0000 O   0  0  0  0  0  0  0  0  0  0  0  0
    7.3164    2.8877    0.0000 C   0  0  1  0  0  0  0  0  0  0  0  0
    8.2173    2.4538    0.0000 C   0  0  2  0  0  0  0  0  0  0  0  0
    7.0938    3.8627    0.0000 C   0  0  1  0  0  0  0  0  0  0  0  0
    7.7173    4.6445    0.0000 C   0  0  1  0  0  0  0  0  0  0  0  0
    6.4468    2.3143    0.0000 C   0  0  2  0  0  0  0  0  0  0  0  0
    9.1183    2.8877    0.0000 C   0  0  1  0  0  0  0  0  0  0  0  0
    8.3112    1.4165    0.0000 C   0  0  1  0  0  0  0  0  0  0  0  0
    6.5166    1.2750    0.0000 C   0  0  2  0  0  0  0  0  0  0  0  0
    9.3408    3.8627    0.0000 C   0  0  1  0  0  0  0  0  0  0  0  0
    8.7173    4.6445    0.0000 C   0  0  2  0  0  0  0  0  0  0  0  0
    7.4551    0.8231    0.0000 C   0  0  2  0  0  0  0  0  0  0  0  0
    4.9932    1.6946    0.0000 C   0  0  3  0  0  0  0  0  0  0  0  0
    8.3408    5.4263    0.0000 C   0  0  0  0  0  0  0  0  0  0  0  0
    9.9730    2.3801    0.0000 C   0  0  0  0  0  0  0  0  0  0  0  0
    9.2171    0.9930    0.0000 C   0  0  0  0  0  0  0  0  0  0  0  0
   10.3311    3.9492    0.0000 C   0  0  0  0  0  0  0  0  0  0  0  0
    6.5836    0.2773    0.0000 C   0  0  0  0  0  0  0  0  0  0  0  0
   10.7210    3.0348    0.0000 C   0  0  0  0  0  0  0  0  0  0  0  0
    3.9955    1.6276    0.0000 C   0  0  0  0  0  0  0  0  0  0  0  0
    5.7531   -0.2797    0.0000 C   0  0  0  0  0  0  0  0  0  0  0  0
    6.6507   -0.7205    0.0000 C   0  0  0  0  0  0  0  0  0  0  0  0
   11.6960    2.8123    0.0000 C   0  0  0  0  0  0  0  0  0  0  0  0
    3.4386    2.4582    0.0000 C   0  0  0  0  0  0  0  0  0  0  0  0
    3.5547    0.7300    0.0000 C   0  0  0  0  0  0  0  0  0  0  0  0
    8.4363   -0.6042    0.0000 C   0  0  0  0  0  0  0  0  0  0  0  0
    2.4408    2.3911    0.0000 C   0  0  0  0  0  0  0  0  0  0  0  0
    2.5569    0.6630    0.0000 C   0  0  0  0  0  0  0  0  0  0  0  0
    8.5149   -1.6012    0.0000 C   0  0  0  0  0  0  0  0  0  0  0  0
    2.0000    1.4935    0.0000 C   0  0  0  0  0  0  0  0  0  0  0  0
    9.4175   -2.0316    0.0000 C   0  0  0  0  0  0  0  0  0  0  0  0
    9.4961   -3.0285    0.0000 C   0  0  0  0  0  0  0  0  0  0  0  0
   10.3987   -3.4589    0.0000 C   0  0  0  0  0  0  0  0  0  0  0  0
   10.4773   -4.4558    0.0000 C   0  0  0  0  0  0  0  0  0  0  0  0
    9.6532   -5.0223    0.0000 C   0  0  0  0  0  0  0  0  0  0  0  0
   11.3799   -4.8862    0.0000 C   0  0  0  0  0  0  0  0  0  0  0  0
    9.7318   -6.0192    0.0000 C   0  0  0  0  0  0  0  0  0  0  0  0
   11.4585   -5.8831    0.0000 C   0  0  0  0  0  0  0  0  0  0  0  0
   10.6344   -6.4496    0.0000 C   0  0  0  0  0  0  0  0  0  0  0  0
    6.7915    3.5564    0.0000 H   0  0  0  0  0  0  0  0  0  0  0  0
    6.2816    3.6120    0.0000 H   0  0  0  0  0  0  0  0  0  0  0  0
    5.7904    2.8543    0.0000 H   0  0  0  0  0  0  0  0  0  0  0  0
    9.0813    2.0385    0.0000 H   0  0  0  0  0  0  0  0  0  0  0  0
    8.3635    0.7987    0.0000 H   0  0  0  0  0  0  0  0  0  0  0  0
    9.3334    4.7139    0.0000 H   0  0  0  0  0  0  0  0  0  0  0  0
    6.9435    0.4728    0.0000 H   0  0  0  0  0  0  0  0  0  0  0  0
    8.7511    4.9615    0.0000 H   0  0  0  0  0  0  0  0  0  0  0  0
    8.8699    5.7496    0.0000 H   0  0  0  0  0  0  0  0  0  0  0  0
   10.0296    1.7627    0.0000 H   0  0  0  0  0  0  0  0  0  0  0  0
    8.9546    0.4313    0.0000 H   0  0  0  0  0  0  0  0  0  0  0  0
    9.7788    0.7305    0.0000 H   0  0  0  0  0  0  0  0  0  0  0  0
    9.4796    1.5547    0.0000 H   0  0  0  0  0  0  0  0  0  0  0  0
   10.1558    5.0203    0.0000 H   0  0  0  0  0  0  0  0  0  0  0  0
    8.8020    6.0577    0.0000 H   0  0  0  0  0  0  0  0  0  0  0  0
    5.4078    0.2353    0.0000 H   0  0  0  0  0  0  0  0  0  0  0  0
    5.2382   -0.6250    0.0000 H   0  0  0  0  0  0  0  0  0  0  0  0
    6.0984   -0.7946    0.0000 H   0  0  0  0  0  0  0  0  0  0  0  0
    7.3624    6.4496    0.0000 H   0  0  0  0  0  0  0  0  0  0  0  0
    6.1358   -1.0658    0.0000 H   0  0  0  0  0  0  0  0  0  0  0  0
    7.2072   -0.9938    0.0000 H   0  0  0  0  0  0  0  0  0  0  0  0
   11.5580    2.2078    0.0000 H   0  0  0  0  0  0  0  0  0  0  0  0
   12.3004    2.6743    0.0000 H   0  0  0  0  0  0  0  0  0  0  0  0
   11.8339    3.4167    0.0000 H   0  0  0  0  0  0  0  0  0  0  0  0
    3.7119    3.0147    0.0000 H   0  0  0  0  0  0  0  0  0  0  0  0
    3.9000    0.2151    0.0000 H   0  0  0  0  0  0  0  0  0  0  0  0
    2.0955    2.9061    0.0000 H   0  0  0  0  0  0  0  0  0  0  0  0
    2.2836    0.1065    0.0000 H   0  0  0  0  0  0  0  0  0  0  0  0
    8.0040   -1.9524    0.0000 H   0  0  0  0  0  0  0  0  0  0  0  0
    1.3814    1.4520    0.0000 H   0  0  0  0  0  0  0  0  0  0  0  0
    9.9284   -1.6803    0.0000 H   0  0  0  0  0  0  0  0  0  0  0  0
    8.9852   -3.3797    0.0000 H   0  0  0  0  0  0  0  0  0  0  0  0
   10.9096   -3.1076    0.0000 H   0  0  0  0  0  0  0  0  0  0  0  0
    9.0936   -4.7554    0.0000 H   0  0  0  0  0  0  0  0  0  0  0  0
   11.8908   -4.5350    0.0000 H   0  0  0  0  0  0  0  0  0  0  0  0
    9.2209   -6.3704    0.0000 H   0  0  0  0  0  0  0  0  0  0  0  0
   12.0181   -6.1500    0.0000 H   0  0  0  0  0  0  0  0  0  0  0  0
   10.6831   -7.0677    0.0000 H   0  0  0  0  0  0  0  0  0  0  0  0
  1 13  1  0  0  0  0
  1 14  1  0  0  0  0
 12  2  1  6  0  0  0
  2 22  1  0  0  0  0
  3 15  1  0  0  0  0
  3 22  1  0  0  0  0
  4 18  1  0  0  0  0
  4 22  1  0  0  0  0
 21  5  1  1  0  0  0
  5 35  1  0  0  0  0
 19  6  1  1  0  0  0
  6 62  1  0  0  0  0
 20  7  1  1  0  0  0
  7 63  1  0  0  0  0
  8 23  1  0  0  0  0
  8 67  1  0  0  0  0
  9 26  2  0  0  0  0
 10 35  2  0  0  0  0
 11 12  1  0  0  0  0
 11 13  1  0  0  0  0
 11 15  1  0  0  0  0
 11 49  1  1  0  0  0
 12 16  1  0  0  0  0
 12 17  1  0  0  0  0
 13 14  1  0  0  0  0
 13 50  1  1  0  0  0
 14 20  1  0  0  0  0
 14 23  1  1  0  0  0
 15 18  1  0  0  0  0
 15 51  1  1  0  0  0
 16 19  1  0  0  0  0
 16 24  1  0  0  0  0
 16 52  1  6  0  0  0
 17 21  1  0  0  0  0
 17 25  1  6  0  0  0
 17 53  1  0  0  0  0
 18 21  1  0  0  0  0
 18 27  1  1  0  0  0
 19 20  1  0  0  0  0
 19 26  1  0  0  0  0
 20 54  1  0  0  0  0
 21 55  1  0  0  0  0
 22 29  1  0  0  0  0
 23 56  1  0  0  0  0
 23 57  1  0  0  0  0
 24 28  2  0  0  0  0
 24 58  1  0  0  0  0
 25 59  1  0  0  0  0
 25 60  1  0  0  0  0
 25 61  1  0  0  0  0
 26 28  1  0  0  0  0
 27 30  1  0  0  0  0
 27 31  2  0  0  0  0
 28 32  1  0  0  0  0
 29 33  2  0  0  0  0
 29 34  1  0  0  0  0
 30 64  1  0  0  0  0
 30 65  1  0  0  0  0
 30 66  1  0  0  0  0
 31 68  1  0  0  0  0
 31 69  1  0  0  0  0
 32 70  1  0  0  0  0
 32 71  1  0  0  0  0
 32 72  1  0  0  0  0
 33 36  1  0  0  0  0
 33 73  1  0  0  0  0
 34 37  2  0  0  0  0
 34 74  1  0  0  0  0
 35 38  1  0  0  0  0
 36 39  2  0  0  0  0
 36 75  1  0  0  0  0
 37 39  1  0  0  0  0
 37 76  1  0  0  0  0
 38 40  2  0  0  0  0
 38 77  1  0  0  0  0
 39 78  1  0  0  0  0
 40 41  1  0  0  0  0
 40 79  1  0  0  0  0
 41 42  2  0  0  0  0
 41 80  1  0  0  0  0
 42 43  1  0  0  0  0
 42 81  1  0  0  0  0
 43 44  2  0  0  0  0
 43 45  1  0  0  0  0
 44 46  1  0  0  0  0
 44 82  1  0  0  0  0
 45 47  2  0  0  0  0
 45 83  1  0  0  0  0
 46 48  2  0  0  0  0
 46 84  1  0  0  0  0
 47 48  1  0  0  0  0
 47 85  1  0  0  0  0
 48 86  1  0  0  0  0
M  END
> <PUBCHEM_COMPOUND_CID>
5281382

> <PUBCHEM_COMPOUND_CANONICALIZED>
1

> <PUBCHEM_CACTVS_COMPLEXITY>
1470

> <PUBCHEM_CACTVS_HBOND_ACCEPTOR>
10

> <PUBCHEM_CACTVS_HBOND_DONOR>
3

> <PUBCHEM_CACTVS_ROTATABLE_BOND>
8

> <PUBCHEM_CACTVS_SUBSKEYS>
AAADcfB8PAAAAAAAAAAAAAAAEgAAASIAAAA0YMEABogSAACBQAAAGgAACAAADVSgmAIyCIAABgCIAqDSCAICAAAgAAAIiAFACMgZNjaAMRiicAAl4AEPqYfK7PzOgAAAAAAAAADCAAYQADCAAAAAAAAAAA==

> <PUBCHEM_IUPAC_INCHI>
InChI=1S/C38H38O10/c1-21(2)36-30(44-27(40)18-12-11-15-24-13-7-5-8-14-24)23(4)37-26-19-22(3)29(41)35(26,43)33(42)34(20-39)31(45-34)28(37)32(36)46-38(47-36,48-37)25-16-9-6-10-17-25/h5-19,23,26,28,30-33,39,42-43H,1,20H2,2-4H3/b15-11+,18-12+/t23-,26-,28+,30-,31+,32-,33-,34+,35-,36+,37+,38?/m1/s1

> <PUBCHEM_IUPAC_INCHIKEY>
DLEDLHFNQDHEOJ-HBJWEEFJSA-N

> <PUBCHEM_XLOGP3_AA>
3.8

> <PUBCHEM_EXACT_MASS>
654.246497

> <PUBCHEM_MOLECULAR_FORMULA>
C38H38O10

> <PUBCHEM_MOLECULAR_WEIGHT>
654.70232

> <PUBCHEM_OPENEYE_CAN_SMILES>
CC1C(C2(C3C4C1(C5C=C(C(=O)C5(C(C6(C4O6)CO)O)O)C)OC(O3)(O2)C7=CC=CC=C7)C(=C)C)OC(=O)C=CC=CC8=CC=CC=C8

> <PUBCHEM_OPENEYE_ISO_SMILES>
C[C@@H]1[C@H]([C@]2([C@H]3[C@H]4[C@]1([C@@H]5C=C(C(=O)[C@]5([C@@H]([C@@]6([C@H]4O6)CO)O)O)C)OC(O3)(O2)C7=CC=CC=C7)C(=C)C)OC(=O)/C=C/C=C/C8=CC=CC=C8

> <PUBCHEM_CACTVS_TPSA>
144

> <PUBCHEM_MONOISOTOPIC_WEIGHT>
654.246497

> <PUBCHEM_TOTAL_CHARGE>
0

> <PUBCHEM_HEAVY_ATOM_COUNT>
48

> <PUBCHEM_ATOM_DEF_STEREO_COUNT>
11

> <PUBCHEM_ATOM_UDEF_STEREO_COUNT>
1

> <PUBCHEM_BOND_DEF_STEREO_COUNT>
2

> <PUBCHEM_BOND_UDEF_STEREO_COUNT>
0

> <PUBCHEM_ISOTOPIC_ATOM_COUNT>
0

> <PUBCHEM_COMPONENT_COUNT>
1

> <PUBCHEM_CACTVS_TAUTO_COUNT>
3

> <PUBCHEM_COORDINATE_TYPE>
1
5
255

> <PUBCHEM_BONDANNOTATIONS>
11  49  5
13  50  5
14  23  5
15  51  5
16  52  6
17  25  6
18  27  5
12  2  6
22  29  3
29  33  8
29  34  8
33  36  8
34  37  8
36  39  8
37  39  8
43  44  8
43  45  8
44  46  8
45  47  8
46  48  8
47  48  8
21  5  5
19  6  5
20  7  5

$$$$

