17395652
  -OEChem-06241222513D

 50 52  0     0  0  0  0  0  0999 V2000
    1.2819   -0.7085   -0.1920 O   0  0  0  0  0  0  0  0  0  0  0  0
    2.1082   -2.2149    1.3401 O   0  0  0  0  0  0  0  0  0  0  0  0
   -0.6463    0.6608   -1.3774 O   0  0  0  0  0  0  0  0  0  0  0  0
   -7.0475   -0.5357   -0.1729 O   0  0  0  0  0  0  0  0  0  0  0  0
    3.3360    1.2220    0.4653 N   0  0  0  0  0  0  0  0  0  0  0  0
    5.3046    0.5729   -0.6138 N   0  0  0  0  0  0  0  0  0  0  0  0
   -2.9513   -1.1270    0.7680 N   0  0  0  0  0  0  0  0  0  0  0  0
    2.3659    2.6341    2.0764 C   0  0  0  0  0  0  0  0  0  0  0  0
    1.8428    3.0230    0.7045 C   0  0  0  0  0  0  0  0  0  0  0  0
    2.8941    1.2181    1.8579 C   0  0  0  0  0  0  0  0  0  0  0  0
    2.8699    2.4105   -0.2448 C   0  0  0  0  0  0  0  0  0  0  0  0
    4.0995    0.2277   -0.1073 C   0  0  0  0  0  0  0  0  0  0  0  0
    3.5891   -1.0603   -0.1292 C   0  0  0  0  0  0  0  0  0  0  0  0
   -3.5635    0.3724   -0.7516 C   0  0  0  0  0  0  0  0  0  0  0  0
   -2.4809   -0.2694   -0.1918 C   0  0  0  0  0  0  0  0  0  0  0  0
   -4.7257   -0.1164   -0.1051 C   0  0  0  0  0  0  0  0  0  0  0  0
    4.3652   -2.0582   -0.7082 C   0  0  0  0  0  0  0  0  0  0  0  0
   -4.3179   -1.0417    0.8300 C   0  0  0  0  0  0  0  0  0  0  0  0
    2.2862   -1.4015    0.4252 C   0  0  0  0  0  0  0  0  0  0  0  0
    6.0306   -0.4236   -1.1684 C   0  0  0  0  0  0  0  0  0  0  0  0
   -1.0525   -0.1169   -0.5113 C   0  0  0  0  0  0  0  0  0  0  0  0
    5.6105   -1.7421   -1.2401 C   0  0  0  0  0  0  0  0  0  0  0  0
   -0.0508   -0.9576    0.2678 C   0  0  0  0  0  0  0  0  0  0  0  0
   -3.5222    1.3843   -1.8284 C   0  0  0  0  0  0  0  0  0  0  0  0
   -5.0862   -1.8632    1.7857 C   0  0  0  0  0  0  0  0  0  0  0  0
   -6.0921    0.2534   -0.3451 C   0  0  0  0  0  0  0  0  0  0  0  0
   -6.4478    1.6574   -0.8332 C   0  0  0  0  0  0  0  0  0  0  0  0
    1.5987    2.6804    2.8542 H   0  0  0  0  0  0  0  0  0  0  0  0
    3.1877    3.3007    2.3651 H   0  0  0  0  0  0  0  0  0  0  0  0
    1.7455    4.1043    0.5750 H   0  0  0  0  0  0  0  0  0  0  0  0
    0.8593    2.5672    0.5380 H   0  0  0  0  0  0  0  0  0  0  0  0
    2.0852    0.5070    2.0388 H   0  0  0  0  0  0  0  0  0  0  0  0
    3.7169    0.9989    2.5465 H   0  0  0  0  0  0  0  0  0  0  0  0
    2.4153    2.1615   -1.2094 H   0  0  0  0  0  0  0  0  0  0  0  0
    3.7063    3.0988   -0.4101 H   0  0  0  0  0  0  0  0  0  0  0  0
    4.0112   -3.0848   -0.7526 H   0  0  0  0  0  0  0  0  0  0  0  0
   -2.3832   -1.7317    1.3453 H   0  0  0  0  0  0  0  0  0  0  0  0
    6.9938   -0.1251   -1.5688 H   0  0  0  0  0  0  0  0  0  0  0  0
    6.2325   -2.5034   -1.6965 H   0  0  0  0  0  0  0  0  0  0  0  0
   -0.1200   -0.6913    1.3279 H   0  0  0  0  0  0  0  0  0  0  0  0
   -0.2863   -2.0164    0.1151 H   0  0  0  0  0  0  0  0  0  0  0  0
   -3.5304    2.3956   -1.4107 H   0  0  0  0  0  0  0  0  0  0  0  0
   -2.6372    1.2894   -2.4618 H   0  0  0  0  0  0  0  0  0  0  0  0
   -4.3680    1.2744   -2.5123 H   0  0  0  0  0  0  0  0  0  0  0  0
   -5.7955   -1.2452    2.3458 H   0  0  0  0  0  0  0  0  0  0  0  0
   -4.4340   -2.3576    2.5134 H   0  0  0  0  0  0  0  0  0  0  0  0
   -5.6482   -2.6399    1.2573 H   0  0  0  0  0  0  0  0  0  0  0  0
   -7.4464    1.9154   -0.4658 H   0  0  0  0  0  0  0  0  0  0  0  0
   -5.7520    2.3973   -0.4307 H   0  0  0  0  0  0  0  0  0  0  0  0
   -6.4599    1.6826   -1.9244 H   0  0  0  0  0  0  0  0  0  0  0  0
  1 19  1  0  0  0  0
  1 23  1  0  0  0  0
  2 19  2  0  0  0  0
  3 21  2  0  0  0  0
  4 26  2  0  0  0  0
  5 10  1  0  0  0  0
  5 11  1  0  0  0  0
  5 12  1  0  0  0  0
  6 12  1  0  0  0  0
  6 20  2  0  0  0  0
  7 15  1  0  0  0  0
  7 18  1  0  0  0  0
  7 37  1  0  0  0  0
  8  9  1  0  0  0  0
  8 10  1  0  0  0  0
  8 28  1  0  0  0  0
  8 29  1  0  0  0  0
  9 11  1  0  0  0  0
  9 30  1  0  0  0  0
  9 31  1  0  0  0  0
 10 32  1  0  0  0  0
 10 33  1  0  0  0  0
 11 34  1  0  0  0  0
 11 35  1  0  0  0  0
 12 13  2  0  0  0  0
 13 17  1  0  0  0  0
 13 19  1  0  0  0  0
 14 15  2  0  0  0  0
 14 16  1  0  0  0  0
 14 24  1  0  0  0  0
 15 21  1  0  0  0  0
 16 18  2  0  0  0  0
 16 26  1  0  0  0  0
 17 22  2  0  0  0  0
 17 36  1  0  0  0  0
 18 25  1  0  0  0  0
 20 22  1  0  0  0  0
 20 38  1  0  0  0  0
 21 23  1  0  0  0  0
 22 39  1  0  0  0  0
 23 40  1  0  0  0  0
 23 41  1  0  0  0  0
 24 42  1  0  0  0  0
 24 43  1  0  0  0  0
 24 44  1  0  0  0  0
 25 45  1  0  0  0  0
 25 46  1  0  0  0  0
 25 47  1  0  0  0  0
 26 27  1  0  0  0  0
 27 48  1  0  0  0  0
 27 49  1  0  0  0  0
 27 50  1  0  0  0  0
M  END
> <PUBCHEM_COMPOUND_CID>
17395652

> <PUBCHEM_CONFORMER_RMSD>
1

> <PUBCHEM_CONFORMER_DIVERSEORDER>
1
180
203
124
99
126
147
190
93
188
168
192
193
97
112
208
35
167
202
111
38
154
110
198
128
26
87
64
69
74
7
5
186
189
164
62
140
118
173
34
81
65
30
100
107
71
153
36
149
144
132
183
21
200
10
39
163
75
194
22
204
184
177
159
141
178
57
32
165
45
101
95
4
44
166
151
55
139
155
148
120
136
206
41
175
187
2
60
142
43
78
191
209
185
207
146
103
201
157
53
96
150
25
171
16
77
63
66
27
160
46
134
61
197
3
11
182
83
131
85
122
145
106
127
119
31
91
135
37
114
108
52
8
205
179
181
169
125
28
23
137
152
86
88
156
105
196
59
49
24
80
17
89
51
18
33
20
79
40
56
113
123
12
29
92
70
115
84
143
170
174
54
158
76
47
15
42
58
14
129
6
161
13
138
73
109
19
121
195
199
82
90
94
72
98
116
67
9
172
48
68
176
50
104
102
130
162
133
117

> <PUBCHEM_MMFF94_PARTIAL_CHARGES>
29
1 -0.43
10 0.37
11 0.37
12 0.41
13 0.09
14 -0.18
15 -0.24
16 -0.09
17 -0.15
18 -0.33
19 0.63
2 -0.57
20 0.16
21 0.59
22 -0.15
23 0.34
24 0.18
25 0.18
26 0.6
27 0.06
3 -0.57
36 0.15
37 0.27
38 0.15
39 0.15
4 -0.57
5 -0.84
6 -0.62
7 0.03

> <PUBCHEM_EFFECTIVE_ROTOR_COUNT>
8

> <PUBCHEM_PHARMACOPHORE_FEATURES>
10
1 2 acceptor
1 3 acceptor
1 4 acceptor
1 5 cation
1 6 acceptor
1 7 cation
1 7 donor
5 5 8 9 10 11 rings
5 7 14 15 16 18 rings
6 6 12 13 17 20 22 rings

> <PUBCHEM_HEAVY_ATOM_COUNT>
27

> <PUBCHEM_ATOM_DEF_STEREO_COUNT>
0

> <PUBCHEM_ATOM_UDEF_STEREO_COUNT>
0

> <PUBCHEM_BOND_DEF_STEREO_COUNT>
0

> <PUBCHEM_BOND_UDEF_STEREO_COUNT>
0

> <PUBCHEM_ISOTOPIC_ATOM_COUNT>
0

> <PUBCHEM_COMPONENT_COUNT>
1

> <PUBCHEM_CACTVS_TAUTO_COUNT>
52

> <PUBCHEM_CONFORMER_ID>
01096FC400000001

> <PUBCHEM_MMFF94_ENERGY>
80.1973

> <PUBCHEM_FEATURE_SELFOVERLAP>
50.743

> <PUBCHEM_SHAPE_FINGERPRINT>
10366900 7 18131349721728059651
10673678 19 17985810559675366780
10763959 59 18408885131260431821
11045977 3 18413105044176890619
11059845 2 16194851484695180172
11545043 162 18273207574114976299
11595378 159 15625956377512689429
11646440 116 18259704498074530738
12166972 35 17095245821614308449
12236239 1 16515402967143396075
12616971 3 16877950421223093437
13402501 40 18343862216663756911
13533116 47 18113338578893841897
14170010 4 18040720247374723832
14341114 176 18334570226717442297
15081414 286 18260830350589858400
15183329 4 17676481765960365638
15629462 23 18119512487371637346
17844677 252 18186796998353764673
1813 80 17313652858932520116
18608769 82 18272650099844053870
19377110 9 13973967623121260173
21033648 29 18341058436422537457
21365058 113 18334844044327101588
21792961 116 18339354280132559910
22122407 14 17894901937420827993
221357 26 18335701671764849572
2215653 11 18411423920941388149
22224240 67 11383823841248704334
22289505 5 18408040728205621268
23559900 14 18131631162719617181
249057 3 17967817141131442686
345986 75 17459191940304741754
4073 2 17561072597081580491
46194498 28 18202279161508262644
6823239 73 18060137609319647576
7495541 125 18411133619891630634

> <PUBCHEM_SHAPE_MULTIPOLES>
517.23
16.58
2.63
1.57
14.15
1.43
-0.39
-2.86
3.78
-2.64
-0.9
0.1
0.32
3.03

> <PUBCHEM_SHAPE_SELFOVERLAP>
1107.762

> <PUBCHEM_SHAPE_VOLUME>
288

> <PUBCHEM_COORDINATE_TYPE>
2
5
10

$$$$

