47205656
  -OEChem-06241222593D

 33 34  0     0  0  0  0  0  0999 V2000
    6.5870   -1.4755    0.0923 Cl  0  0  0  0  0  0  0  0  0  0  0  0
   -4.4749    0.3207    1.1419 S   0  0  0  0  0  0  0  0  0  0  0  0
   -1.4623    2.4777    0.9046 O   0  0  0  0  0  0  0  0  0  0  0  0
    1.1314    2.7403   -0.2112 O   0  0  0  0  0  0  0  0  0  0  0  0
   -1.5926    1.0642   -0.9655 N   0  0  0  0  0  0  0  0  0  0  0  0
    0.9671    0.4008    0.1230 N   0  0  0  0  0  0  0  0  0  0  0  0
   -3.6426   -0.0830   -0.2992 C   0  0  0  0  0  0  0  0  0  0  0  0
   -3.0277    1.0144   -1.1188 C   0  0  0  0  0  0  0  0  0  0  0  0
   -3.6445   -1.4405   -0.5342 C   0  0  0  0  0  0  0  0  0  0  0  0
   -4.3387   -2.1584    0.4820 C   0  0  0  0  0  0  0  0  0  0  0  0
   -3.0037   -2.0895   -1.7030 C   0  0  0  0  0  0  0  0  0  0  0  0
   -4.8406   -1.3226    1.4550 C   0  0  0  0  0  0  0  0  0  0  0  0
   -0.9704    1.7879    0.0259 C   0  0  0  0  0  0  0  0  0  0  0  0
    2.3083   -0.0470    0.1155 C   0  0  0  0  0  0  0  0  0  0  0  0
    0.5244    1.6960   -0.0418 C   0  0  0  0  0  0  0  0  0  0  0  0
    2.5927   -1.4007    0.2962 C   0  0  0  0  0  0  0  0  0  0  0  0
    3.3470    0.8647   -0.0727 C   0  0  0  0  0  0  0  0  0  0  0  0
    3.9157   -1.8424    0.2889 C   0  0  0  0  0  0  0  0  0  0  0  0
    4.6701    0.4232   -0.0799 C   0  0  0  0  0  0  0  0  0  0  0  0
    4.9544   -0.9305    0.1009 C   0  0  0  0  0  0  0  0  0  0  0  0
   -3.2351    0.8487   -2.1817 H   0  0  0  0  0  0  0  0  0  0  0  0
   -3.4437    1.9941   -0.8560 H   0  0  0  0  0  0  0  0  0  0  0  0
   -4.4671   -3.2332    0.5049 H   0  0  0  0  0  0  0  0  0  0  0  0
   -1.0266    0.5331   -1.6213 H   0  0  0  0  0  0  0  0  0  0  0  0
   -3.3979   -1.6807   -2.6391 H   0  0  0  0  0  0  0  0  0  0  0  0
   -1.9201   -1.9333   -1.6847 H   0  0  0  0  0  0  0  0  0  0  0  0
   -3.1842   -3.1696   -1.7112 H   0  0  0  0  0  0  0  0  0  0  0  0
   -5.4046   -1.5983    2.3349 H   0  0  0  0  0  0  0  0  0  0  0  0
    0.2661   -0.3236    0.2638 H   0  0  0  0  0  0  0  0  0  0  0  0
    1.7925   -2.1215    0.4436 H   0  0  0  0  0  0  0  0  0  0  0  0
    3.1987    1.9261   -0.2194 H   0  0  0  0  0  0  0  0  0  0  0  0
    4.1225   -2.9000    0.4309 H   0  0  0  0  0  0  0  0  0  0  0  0
    5.4702    1.1441   -0.2276 H   0  0  0  0  0  0  0  0  0  0  0  0
  1 20  1  0  0  0  0
  2  7  1  0  0  0  0
  2 12  1  0  0  0  0
  3 13  2  0  0  0  0
  4 15  2  0  0  0  0
  5  8  1  0  0  0  0
  5 13  1  0  0  0  0
  5 24  1  0  0  0  0
  6 14  1  0  0  0  0
  6 15  1  0  0  0  0
  6 29  1  0  0  0  0
  7  8  1  0  0  0  0
  7  9  2  0  0  0  0
  8 21  1  0  0  0  0
  8 22  1  0  0  0  0
  9 10  1  0  0  0  0
  9 11  1  0  0  0  0
 10 12  2  0  0  0  0
 10 23  1  0  0  0  0
 11 25  1  0  0  0  0
 11 26  1  0  0  0  0
 11 27  1  0  0  0  0
 12 28  1  0  0  0  0
 13 15  1  0  0  0  0
 14 16  2  0  0  0  0
 14 17  1  0  0  0  0
 16 18  1  0  0  0  0
 16 30  1  0  0  0  0
 17 19  2  0  0  0  0
 17 31  1  0  0  0  0
 18 20  2  0  0  0  0
 18 32  1  0  0  0  0
 19 20  1  0  0  0  0
 19 33  1  0  0  0  0
M  END
> <PUBCHEM_COMPOUND_CID>
47205656

> <PUBCHEM_CONFORMER_RMSD>
0.8

> <PUBCHEM_CONFORMER_DIVERSEORDER>
1
25
32
44
2
36
42
17
19
8
27
26
22
33
6
5
29
39
14
18
24
35
12
28
30
3
10
4
38
11
46
7
41
45
40
9
31
23
43
37
15
34
20
16
21
13

> <PUBCHEM_MMFF94_PARTIAL_CHARGES>
28
1 -0.18
10 -0.15
11 0.18
12 -0.11
13 0.63
14 0.12
15 0.63
16 -0.15
17 -0.15
18 -0.15
19 -0.15
2 -0.08
20 0.18
23 0.15
24 0.37
28 0.15
29 0.37
3 -0.57
30 0.15
31 0.15
32 0.15
33 0.15
4 -0.57
5 -0.73
6 -0.55
7 -0.14
8 0.48
9 -0.18

> <PUBCHEM_EFFECTIVE_ROTOR_COUNT>
6

> <PUBCHEM_PHARMACOPHORE_FEATURES>
6
1 3 acceptor
1 4 acceptor
1 5 donor
1 6 donor
5 2 7 9 10 12 rings
6 14 16 17 18 19 20 rings

> <PUBCHEM_HEAVY_ATOM_COUNT>
20

> <PUBCHEM_ATOM_DEF_STEREO_COUNT>
0

> <PUBCHEM_ATOM_UDEF_STEREO_COUNT>
0

> <PUBCHEM_BOND_DEF_STEREO_COUNT>
0

> <PUBCHEM_BOND_UDEF_STEREO_COUNT>
0

> <PUBCHEM_ISOTOPIC_ATOM_COUNT>
0

> <PUBCHEM_COMPONENT_COUNT>
1

> <PUBCHEM_CACTVS_TAUTO_COUNT>
4

> <PUBCHEM_CONFORMER_ID>
02D04D1800000001

> <PUBCHEM_MMFF94_ENERGY>
33.7264

> <PUBCHEM_FEATURE_SELFOVERLAP>
30.452

> <PUBCHEM_SHAPE_FINGERPRINT>
10616163 171 18336267950033199238
11045515 52 17988925608512087140
11089746 13 11383828252153938350
11370993 144 16153422882870933366
11552529 35 16733841752617761271
12107183 9 18336532911747010537
12166972 35 17489861644856904062
12553582 1 18410020913760181615
12596602 18 17095525045822771811
12633257 1 16443348654471044931
12760667 363 18408889546781782559
13103583 49 17822279163987757379
13402501 40 18201996599741386659
13533116 47 18047472228280651371
13544653 18 18413390912625401445
13740256 8 18413669106315630592
13941219 33 18337101388821895731
14123255 352 8286201647357571306
14211702 104 18198345250991798946
14466204 15 8358258129579497838
15352361 1 18412826871766143531
15375462 189 18336544906962621333
15537594 2 18336819784616435959
16110190 28 18334290946463978951
17349148 13 17775566459763120976
17780758 139 18040996262983693371
1813 80 18272073986148232365
193927 3 18261949734740447980
20261772 1 18187366501942398998
20281389 69 8070018970377901614
20281475 54 18411417285037983221
20291156 8 18410015416318009317
21054139 6 17917993906381494946
21150785 3 17845923097050703838
21267235 1 18411130373212671142
21403212 168 18336817715602625601
221490 88 18342740684970931724
22950370 63 18411132519910199164
23402539 116 18342740740963619298
235170 7 15913335692704166079
23559900 14 18339655485419057176
2838139 119 8285935540153783987
312425 83 13397535492369549731
314194 84 18337111172514679118
329604 57 18273210889882644926
351380 3 18411981355856478042
3737641 26 18262511615142218974
4921388 177 16487251076179599449
5104073 3 18262244447202036856
5486654 36 18341885291079285681
6431902 208 18341896285768717442
7495541 125 18113907057187292816
9862886 166 17418086594921050042
9981440 41 8142086464051839917

> <PUBCHEM_SHAPE_MULTIPOLES>
395.61
13.58
2.69
1.12
10.71
0.58
-0.11
-8.84
2.17
-0.83
-0.07
-1.72
-0.3
-0.28

> <PUBCHEM_SHAPE_SELFOVERLAP>
814.374

> <PUBCHEM_SHAPE_VOLUME>
228.4

> <PUBCHEM_COORDINATE_TYPE>
2
5
10

$$$$

