9810
  -OEChem-06261204052D

 40 41  0     1  0  0  0  0  0999 V2000
    2.8660   -3.7500    0.0000 F   0  0  0  0  0  0  0  0  0  0  0  0
    3.7320    0.7500    0.0000 N   0  0  3  0  0  0  0  0  0  0  0  0
    6.3301    0.2500    0.0000 N   0  0  0  0  0  0  0  0  0  0  0  0
    2.8660    2.2500    0.0000 N   0  0  0  0  0  0  0  0  0  0  0  0
    4.5981    0.2500    0.0000 C   0  0  0  0  0  0  0  0  0  0  0  0
    5.4641    0.7500    0.0000 C   0  0  0  0  0  0  0  0  0  0  0  0
    2.8660    0.2500    0.0000 C   0  0  0  0  0  0  0  0  0  0  0  0
    3.7320    1.7500    0.0000 C   0  0  0  0  0  0  0  0  0  0  0  0
    2.8660   -0.7500    0.0000 C   0  0  0  0  0  0  0  0  0  0  0  0
    7.1962    0.7500    0.0000 C   0  0  0  0  0  0  0  0  0  0  0  0
    6.3301   -0.7500    0.0000 C   0  0  0  0  0  0  0  0  0  0  0  0
    2.0000   -1.2500    0.0000 C   0  0  0  0  0  0  0  0  0  0  0  0
    3.7320   -1.2500    0.0000 C   0  0  0  0  0  0  0  0  0  0  0  0
    4.5981    2.2500    0.0000 C   0  0  0  0  0  0  0  0  0  0  0  0
    2.0000   -2.2500    0.0000 C   0  0  0  0  0  0  0  0  0  0  0  0
    3.7320   -2.2500    0.0000 C   0  0  0  0  0  0  0  0  0  0  0  0
    4.5981    3.2500    0.0000 C   0  0  0  0  0  0  0  0  0  0  0  0
    2.8660   -2.7500    0.0000 C   0  0  0  0  0  0  0  0  0  0  0  0
    2.8660    3.2500    0.0000 C   0  0  0  0  0  0  0  0  0  0  0  0
    3.7320    3.7500    0.0000 C   0  0  0  0  0  0  0  0  0  0  0  0
    4.1996   -0.2249    0.0000 H   0  0  0  0  0  0  0  0  0  0  0  0
    4.9966   -0.2249    0.0000 H   0  0  0  0  0  0  0  0  0  0  0  0
    5.8626    1.2250    0.0000 H   0  0  0  0  0  0  0  0  0  0  0  0
    5.0656    1.2250    0.0000 H   0  0  0  0  0  0  0  0  0  0  0  0
    2.6540    0.8326    0.0000 H   0  0  0  0  0  0  0  0  0  0  0  0
    2.2554    0.1423    0.0000 H   0  0  0  0  0  0  0  0  0  0  0  0
    5.7101   -0.7500    0.0000 H   0  0  0  0  0  0  0  0  0  0  0  0
    6.3301   -1.3700    0.0000 H   0  0  0  0  0  0  0  0  0  0  0  0
    6.9501   -0.7500    0.0000 H   0  0  0  0  0  0  0  0  0  0  0  0
    7.5062    0.2131    0.0000 H   0  0  0  0  0  0  0  0  0  0  0  0
    7.7331    1.0600    0.0000 H   0  0  0  0  0  0  0  0  0  0  0  0
    6.8862    1.2869    0.0000 H   0  0  0  0  0  0  0  0  0  0  0  0
    1.4631   -0.9400    0.0000 H   0  0  0  0  0  0  0  0  0  0  0  0
    4.2690   -0.9400    0.0000 H   0  0  0  0  0  0  0  0  0  0  0  0
    5.1350    1.9400    0.0000 H   0  0  0  0  0  0  0  0  0  0  0  0
    1.4631   -2.5600    0.0000 H   0  0  0  0  0  0  0  0  0  0  0  0
    4.2690   -2.5600    0.0000 H   0  0  0  0  0  0  0  0  0  0  0  0
    5.1350    3.5600    0.0000 H   0  0  0  0  0  0  0  0  0  0  0  0
    2.3291    3.5600    0.0000 H   0  0  0  0  0  0  0  0  0  0  0  0
    3.7320    4.3700    0.0000 H   0  0  0  0  0  0  0  0  0  0  0  0
  1 18  1  0  0  0  0
  2  5  1  0  0  0  0
  2  7  1  0  0  0  0
  2  8  1  0  0  0  0
  3  6  1  0  0  0  0
  3 10  1  0  0  0  0
  3 11  1  0  0  0  0
  4  8  1  0  0  0  0
  4 19  2  0  0  0  0
  5  6  1  0  0  0  0
  5 21  1  0  0  0  0
  5 22  1  0  0  0  0
  6 23  1  0  0  0  0
  6 24  1  0  0  0  0
  7  9  1  0  0  0  0
  7 25  1  0  0  0  0
  7 26  1  0  0  0  0
  8 14  2  0  0  0  0
  9 12  2  0  0  0  0
  9 13  1  0  0  0  0
 10 30  1  0  0  0  0
 10 31  1  0  0  0  0
 10 32  1  0  0  0  0
 11 27  1  0  0  0  0
 11 28  1  0  0  0  0
 11 29  1  0  0  0  0
 12 15  1  0  0  0  0
 12 33  1  0  0  0  0
 13 16  2  0  0  0  0
 13 34  1  0  0  0  0
 14 17  1  0  0  0  0
 14 35  1  0  0  0  0
 15 18  2  0  0  0  0
 15 36  1  0  0  0  0
 16 18  1  0  0  0  0
 16 37  1  0  0  0  0
 17 20  2  0  0  0  0
 17 38  1  0  0  0  0
 19 20  1  0  0  0  0
 19 39  1  0  0  0  0
 20 40  1  0  0  0  0
M  END
> <PUBCHEM_COMPOUND_CID>
9810

> <PUBCHEM_COMPOUND_CANONICALIZED>
1

> <PUBCHEM_CACTVS_COMPLEXITY>
264

> <PUBCHEM_CACTVS_HBOND_ACCEPTOR>
4

> <PUBCHEM_CACTVS_HBOND_DONOR>
0

> <PUBCHEM_CACTVS_ROTATABLE_BOND>
6

> <PUBCHEM_CACTVS_SUBSKEYS>
AAADceB7AQAAAAAAAAAAAAAAAAAAAAAAAAA8QAAAAAAAAAABwAAAHQAAAAAADADBGgw/sJMIEACgAjJnZACCgCkxAiAJ2CA4ZJiIYOLAmZGUIAhogALIyCcQgAAOAAAAAAAAAAAAAAAAAAAAAAAAAAAAAA==

> <PUBCHEM_IUPAC_OPENEYE_NAME>
N'-[(4-fluorophenyl)methyl]-N,N-dimethyl-N'-(2-pyridyl)ethane-1,2-diamine

> <PUBCHEM_IUPAC_CAS_NAME>
N'-[(4-fluorophenyl)methyl]-N,N-dimethyl-N'-(2-pyridinyl)ethane-1,2-diamine

> <PUBCHEM_IUPAC_NAME>
N'-[(4-fluorophenyl)methyl]-N,N-dimethyl-N'-pyridin-2-ylethane-1,2-diamine

> <PUBCHEM_IUPAC_SYSTEMATIC_NAME>
N'-[(4-fluorophenyl)methyl]-N,N-dimethyl-N'-pyridin-2-yl-ethane-1,2-diamine

> <PUBCHEM_IUPAC_TRADITIONAL_NAME>
2-(dimethylamino)ethyl-(4-fluorobenzyl)-(2-pyridyl)amine

> <PUBCHEM_IUPAC_INCHI>
InChI=1S/C16H20FN3/c1-19(2)11-12-20(16-5-3-4-10-18-16)13-14-6-8-15(17)9-7-14/h3-10H,11-13H2,1-2H3

> <PUBCHEM_IUPAC_INCHIKEY>
VKMKSMCOLOJDJQ-UHFFFAOYSA-N

> <PUBCHEM_XLOGP3>
3.4

> <PUBCHEM_EXACT_MASS>
273.164126

> <PUBCHEM_MOLECULAR_FORMULA>
C16H20FN3

> <PUBCHEM_MOLECULAR_WEIGHT>
273.348503

> <PUBCHEM_OPENEYE_CAN_SMILES>
CN(C)CCN(CC1=CC=C(C=C1)F)C2=CC=CC=N2

> <PUBCHEM_OPENEYE_ISO_SMILES>
CN(C)CCN(CC1=CC=C(C=C1)F)C2=CC=CC=N2

> <PUBCHEM_CACTVS_TPSA>
19.4

> <PUBCHEM_MONOISOTOPIC_WEIGHT>
273.164126

> <PUBCHEM_TOTAL_CHARGE>
0

> <PUBCHEM_HEAVY_ATOM_COUNT>
20

> <PUBCHEM_ATOM_DEF_STEREO_COUNT>
0

> <PUBCHEM_ATOM_UDEF_STEREO_COUNT>
0

> <PUBCHEM_BOND_DEF_STEREO_COUNT>
0

> <PUBCHEM_BOND_UDEF_STEREO_COUNT>
0

> <PUBCHEM_ISOTOPIC_ATOM_COUNT>
0

> <PUBCHEM_COMPONENT_COUNT>
1

> <PUBCHEM_CACTVS_TAUTO_COUNT>
1

> <PUBCHEM_COORDINATE_TYPE>
1
5
255

> <PUBCHEM_BONDANNOTATIONS>
12  15  8
13  16  8
14  17  8
15  18  8
16  18  8
17  20  8
19  20  8
4  19  8
4  8  8
8  14  8
9  12  8
9  13  8

$$$$

