6693
  -OEChem-07051213132D

 21 23  0     0  0  0  0  0  0999 V2000
    3.7841    1.7846    0.0000 O   0  0  0  0  0  0  0  0  0  0  0  0
    2.0520    1.7846    0.0000 O   0  0  0  0  0  0  0  0  0  0  0  0
    5.5161    1.7846    0.0000 O   0  0  0  0  0  0  0  0  0  0  0  0
    3.7841   -0.2154    0.0000 C   0  0  0  0  0  0  0  0  0  0  0  0
    3.8001   -1.2569    0.0000 C   0  0  0  0  0  0  0  0  0  0  0  0
    4.6501    0.2846    0.0000 C   0  0  0  0  0  0  0  0  0  0  0  0
    2.9180    0.2846    0.0000 C   0  0  0  0  0  0  0  0  0  0  0  0
    4.6660   -1.7846    0.0000 C   0  0  0  0  0  0  0  0  0  0  0  0
    2.9021   -1.7846    0.0000 C   0  0  0  0  0  0  0  0  0  0  0  0
    5.5601   -0.2222    0.0000 C   0  0  0  0  0  0  0  0  0  0  0  0
    2.0080   -0.2222    0.0000 C   0  0  0  0  0  0  0  0  0  0  0  0
    4.6501    1.2846    0.0000 C   0  0  0  0  0  0  0  0  0  0  0  0
    2.9180    1.2846    0.0000 C   0  0  0  0  0  0  0  0  0  0  0  0
    2.0000   -1.2638    0.0000 C   0  0  0  0  0  0  0  0  0  0  0  0
    5.5681   -1.2638    0.0000 C   0  0  0  0  0  0  0  0  0  0  0  0
    4.6587   -2.4046    0.0000 H   0  0  0  0  0  0  0  0  0  0  0  0
    2.9045   -2.4046    0.0000 H   0  0  0  0  0  0  0  0  0  0  0  0
    6.0934    0.0940    0.0000 H   0  0  0  0  0  0  0  0  0  0  0  0
    1.4747    0.0940    0.0000 H   0  0  0  0  0  0  0  0  0  0  0  0
    6.1062   -1.5717    0.0000 H   0  0  0  0  0  0  0  0  0  0  0  0
    1.4619   -1.5717    0.0000 H   0  0  0  0  0  0  0  0  0  0  0  0
  1 12  1  0  0  0  0
  1 13  1  0  0  0  0
  2 13  2  0  0  0  0
  3 12  2  0  0  0  0
  4  5  2  0  0  0  0
  4  6  1  0  0  0  0
  4  7  1  0  0  0  0
  5  8  1  0  0  0  0
  5  9  1  0  0  0  0
  6 10  2  0  0  0  0
  6 12  1  0  0  0  0
  7 11  2  0  0  0  0
  7 13  1  0  0  0  0
  8 15  2  0  0  0  0
  8 16  1  0  0  0  0
  9 14  2  0  0  0  0
  9 17  1  0  0  0  0
 10 15  1  0  0  0  0
 10 18  1  0  0  0  0
 11 14  1  0  0  0  0
 11 19  1  0  0  0  0
 14 21  1  0  0  0  0
 15 20  1  0  0  0  0
M  END
> <PUBCHEM_COMPOUND_CID>
6693

> <PUBCHEM_COMPOUND_CANONICALIZED>
1

> <PUBCHEM_CACTVS_COMPLEXITY>
282

> <PUBCHEM_CACTVS_HBOND_ACCEPTOR>
3

> <PUBCHEM_CACTVS_HBOND_DONOR>
0

> <PUBCHEM_CACTVS_ROTATABLE_BOND>
0

> <PUBCHEM_CACTVS_SUBSKEYS>
AAADcYBwMAAAAAAAAAAAAAAAAAAAAAAAAAA0YIAAAAAAAADRUAAAGgAAAAAADACAmAAwCMAABACIAiDSCAACAAAkAAAIiAEACMgIJjKANRiCMQAkwAEIqYeIzuCOgAACAAAQAAAAAAQAACAAAAAAAAAAAA==

> <PUBCHEM_IUPAC_TRADITIONAL_NAME>
naphthalic anhydride

> <PUBCHEM_IUPAC_INCHI>
InChI=1S/C12H6O3/c13-11-8-5-1-3-7-4-2-6-9(10(7)8)12(14)15-11/h1-6H

> <PUBCHEM_IUPAC_INCHIKEY>
GRSMWKLPSNHDHA-UHFFFAOYSA-N

> <PUBCHEM_XLOGP3>
2.3

> <PUBCHEM_EXACT_MASS>
198.031694

> <PUBCHEM_MOLECULAR_FORMULA>
C12H6O3

> <PUBCHEM_MOLECULAR_WEIGHT>
198.17424

> <PUBCHEM_OPENEYE_CAN_SMILES>
C1=CC2=C3C(=C1)C(=O)OC(=O)C3=CC=C2

> <PUBCHEM_OPENEYE_ISO_SMILES>
C1=CC2=C3C(=C1)C(=O)OC(=O)C3=CC=C2

> <PUBCHEM_CACTVS_TPSA>
43.4

> <PUBCHEM_MONOISOTOPIC_WEIGHT>
198.031694

> <PUBCHEM_TOTAL_CHARGE>
0

> <PUBCHEM_HEAVY_ATOM_COUNT>
15

> <PUBCHEM_ATOM_DEF_STEREO_COUNT>
0

> <PUBCHEM_ATOM_UDEF_STEREO_COUNT>
0

> <PUBCHEM_BOND_DEF_STEREO_COUNT>
0

> <PUBCHEM_BOND_UDEF_STEREO_COUNT>
0

> <PUBCHEM_ISOTOPIC_ATOM_COUNT>
0

> <PUBCHEM_COMPONENT_COUNT>
1

> <PUBCHEM_CACTVS_TAUTO_COUNT>
1

> <PUBCHEM_COORDINATE_TYPE>
1
5
255

> <PUBCHEM_BONDANNOTATIONS>
10  15  8
11  14  8
4  5  8
4  6  8
4  7  8
5  8  8
5  9  8
6  10  8
7  11  8
8  15  8
9  14  8

$$$$

