17396416
  -OEChem-06241222562D

 48 49  0     0  0  0  0  0  0999 V2000
    5.4641   -1.0352    0.0000 O   0  0  0  0  0  0  0  0  0  0  0  0
    7.0112    4.7262    0.0000 O   0  0  0  0  0  0  0  0  0  0  0  0
    7.1962   -0.0352    0.0000 O   0  0  0  0  0  0  0  0  0  0  0  0
    8.4124    3.7081    0.0000 O   0  0  0  0  0  0  0  0  0  0  0  0
    3.7320   -1.0352    0.0000 O   0  0  0  0  0  0  0  0  0  0  0  0
    5.5211    2.0526    0.0000 N   0  0  0  0  0  0  0  0  0  0  0  0
    2.8660   -4.5352    0.0000 N   0  0  0  0  0  0  0  0  0  0  0  0
    7.1391    2.0526    0.0000 C   0  0  0  0  0  0  0  0  0  0  0  0
    6.3301    1.4648    0.0000 C   0  0  0  0  0  0  0  0  0  0  0  0
    6.8301    3.0036    0.0000 C   0  0  0  0  0  0  0  0  0  0  0  0
    5.8301    3.0036    0.0000 C   0  0  0  0  0  0  0  0  0  0  0  0
    6.3301    0.4648    0.0000 C   0  0  0  0  0  0  0  0  0  0  0  0
    8.0902    1.7436    0.0000 C   0  0  0  0  0  0  0  0  0  0  0  0
    5.2423    3.8126    0.0000 C   0  0  0  0  0  0  0  0  0  0  0  0
    5.4641   -0.0352    0.0000 C   0  0  0  0  0  0  0  0  0  0  0  0
    7.4179    3.8126    0.0000 C   0  0  0  0  0  0  0  0  0  0  0  0
    3.7320   -4.0352    0.0000 C   0  0  0  0  0  0  0  0  0  0  0  0
    4.5981   -2.5352    0.0000 C   0  0  0  0  0  0  0  0  0  0  0  0
    3.7320   -3.0352    0.0000 C   0  0  0  0  0  0  0  0  0  0  0  0
    4.5981   -1.5352    0.0000 C   0  0  0  0  0  0  0  0  0  0  0  0
    4.5981   -4.5352    0.0000 C   0  0  0  0  0  0  0  0  0  0  0  0
    5.4641   -3.0352    0.0000 C   0  0  0  0  0  0  0  0  0  0  0  0
    5.4641   -4.0352    0.0000 C   0  0  0  0  0  0  0  0  0  0  0  0
    2.8660   -5.5352    0.0000 C   0  0  0  0  0  0  0  0  0  0  0  0
    2.0000   -4.0352    0.0000 C   0  0  0  0  0  0  0  0  0  0  0  0
    7.5990    5.5352    0.0000 C   0  0  0  0  0  0  0  0  0  0  0  0
    4.9315    1.8610    0.0000 H   0  0  0  0  0  0  0  0  0  0  0  0
    7.8986    1.1539    0.0000 H   0  0  0  0  0  0  0  0  0  0  0  0
    8.6799    1.5520    0.0000 H   0  0  0  0  0  0  0  0  0  0  0  0
    8.2818    2.3332    0.0000 H   0  0  0  0  0  0  0  0  0  0  0  0
    5.7439    4.1771    0.0000 H   0  0  0  0  0  0  0  0  0  0  0  0
    4.8779    4.3142    0.0000 H   0  0  0  0  0  0  0  0  0  0  0  0
    4.7408    3.4482    0.0000 H   0  0  0  0  0  0  0  0  0  0  0  0
    5.2520    0.5474    0.0000 H   0  0  0  0  0  0  0  0  0  0  0  0
    4.8535   -0.1429    0.0000 H   0  0  0  0  0  0  0  0  0  0  0  0
    3.1951   -2.7252    0.0000 H   0  0  0  0  0  0  0  0  0  0  0  0
    4.5981   -5.1552    0.0000 H   0  0  0  0  0  0  0  0  0  0  0  0
    6.0010   -2.7252    0.0000 H   0  0  0  0  0  0  0  0  0  0  0  0
    6.0010   -4.3452    0.0000 H   0  0  0  0  0  0  0  0  0  0  0  0
    2.2460   -5.5352    0.0000 H   0  0  0  0  0  0  0  0  0  0  0  0
    2.8660   -6.1552    0.0000 H   0  0  0  0  0  0  0  0  0  0  0  0
    3.4860   -5.5352    0.0000 H   0  0  0  0  0  0  0  0  0  0  0  0
    2.3100   -3.4983    0.0000 H   0  0  0  0  0  0  0  0  0  0  0  0
    1.4631   -3.7252    0.0000 H   0  0  0  0  0  0  0  0  0  0  0  0
    1.6900   -4.5722    0.0000 H   0  0  0  0  0  0  0  0  0  0  0  0
    8.1006    5.1708    0.0000 H   0  0  0  0  0  0  0  0  0  0  0  0
    7.9634    6.0368    0.0000 H   0  0  0  0  0  0  0  0  0  0  0  0
    7.0974    5.8996    0.0000 H   0  0  0  0  0  0  0  0  0  0  0  0
  1 15  1  0  0  0  0
  1 20  1  0  0  0  0
  2 16  1  0  0  0  0
  2 26  1  0  0  0  0
  3 12  2  0  0  0  0
  4 16  2  0  0  0  0
  5 20  2  0  0  0  0
  6  9  1  0  0  0  0
  6 11  1  0  0  0  0
  6 27  1  0  0  0  0
  7 17  1  0  0  0  0
  7 24  1  0  0  0  0
  7 25  1  0  0  0  0
  8  9  2  0  0  0  0
  8 10  1  0  0  0  0
  8 13  1  0  0  0  0
  9 12  1  0  0  0  0
 10 11  2  0  0  0  0
 10 16  1  0  0  0  0
 11 14  1  0  0  0  0
 12 15  1  0  0  0  0
 13 28  1  0  0  0  0
 13 29  1  0  0  0  0
 13 30  1  0  0  0  0
 14 31  1  0  0  0  0
 14 32  1  0  0  0  0
 14 33  1  0  0  0  0
 15 34  1  0  0  0  0
 15 35  1  0  0  0  0
 17 19  1  0  0  0  0
 17 21  2  0  0  0  0
 18 19  2  0  0  0  0
 18 20  1  0  0  0  0
 18 22  1  0  0  0  0
 19 36  1  0  0  0  0
 21 23  1  0  0  0  0
 21 37  1  0  0  0  0
 22 23  2  0  0  0  0
 22 38  1  0  0  0  0
 23 39  1  0  0  0  0
 24 40  1  0  0  0  0
 24 41  1  0  0  0  0
 24 42  1  0  0  0  0
 25 43  1  0  0  0  0
 25 44  1  0  0  0  0
 25 45  1  0  0  0  0
 26 46  1  0  0  0  0
 26 47  1  0  0  0  0
 26 48  1  0  0  0  0
M  END
> <PUBCHEM_COMPOUND_CID>
17396416

> <PUBCHEM_COMPOUND_CANONICALIZED>
1

> <PUBCHEM_CACTVS_COMPLEXITY>
536

> <PUBCHEM_CACTVS_HBOND_ACCEPTOR>
6

> <PUBCHEM_CACTVS_HBOND_DONOR>
1

> <PUBCHEM_CACTVS_ROTATABLE_BOND>
8

> <PUBCHEM_CACTVS_SUBSKEYS>
AAADceB7OAAAAAAAAAAAAAAAAAAAAWAAAAAwAAAAAAAAAAABwAAAHgAQAAAADAyhngYyyJPJlACoA6TyTAKCgCAnAiAImSH4bNgIJnrAtb2GMYhm0AHI6ce8zzC+gAAAQAAAAAAAAACAAAAAAAAAAAAAAA==

> <PUBCHEM_IUPAC_OPENEYE_NAME>
methyl 5-[2-[3-(dimethylamino)benzoyl]oxyacetyl]-2,4-dimethyl-1H-pyrrole-3-carboxylate

> <PUBCHEM_IUPAC_CAS_NAME>
5-[2-[[3-(dimethylamino)phenyl]-oxomethoxy]-1-oxoethyl]-2,4-dimethyl-1H-pyrrole-3-carboxylic acid methyl ester

> <PUBCHEM_IUPAC_NAME>
methyl 5-[2-[3-(dimethylamino)benzoyl]oxyacetyl]-2,4-dimethyl-1H-pyrrole-3-carboxylate

> <PUBCHEM_IUPAC_SYSTEMATIC_NAME>
methyl 5-[2-[3-(dimethylamino)phenyl]carbonyloxyethanoyl]-2,4-dimethyl-1H-pyrrole-3-carboxylate

> <PUBCHEM_IUPAC_TRADITIONAL_NAME>
5-[2-[3-(dimethylamino)benzoyl]oxyacetyl]-2,4-dimethyl-1H-pyrrole-3-carboxylic acid methyl ester

> <PUBCHEM_IUPAC_INCHI>
InChI=1S/C19H22N2O5/c1-11-16(19(24)25-5)12(2)20-17(11)15(22)10-26-18(23)13-7-6-8-14(9-13)21(3)4/h6-9,20H,10H2,1-5H3

> <PUBCHEM_IUPAC_INCHIKEY>
WKZWURSDMUVQLZ-UHFFFAOYSA-N

> <PUBCHEM_XLOGP3_AA>
3

> <PUBCHEM_EXACT_MASS>
358.152872

> <PUBCHEM_MOLECULAR_FORMULA>
C19H22N2O5

> <PUBCHEM_MOLECULAR_WEIGHT>
358.38838

> <PUBCHEM_OPENEYE_CAN_SMILES>
CC1=C(NC(=C1C(=O)OC)C)C(=O)COC(=O)C2=CC(=CC=C2)N(C)C

> <PUBCHEM_OPENEYE_ISO_SMILES>
CC1=C(NC(=C1C(=O)OC)C)C(=O)COC(=O)C2=CC(=CC=C2)N(C)C

> <PUBCHEM_CACTVS_TPSA>
88.7

> <PUBCHEM_MONOISOTOPIC_WEIGHT>
358.152872

> <PUBCHEM_TOTAL_CHARGE>
0

> <PUBCHEM_HEAVY_ATOM_COUNT>
26

> <PUBCHEM_ATOM_DEF_STEREO_COUNT>
0

> <PUBCHEM_ATOM_UDEF_STEREO_COUNT>
0

> <PUBCHEM_BOND_DEF_STEREO_COUNT>
0

> <PUBCHEM_BOND_UDEF_STEREO_COUNT>
0

> <PUBCHEM_ISOTOPIC_ATOM_COUNT>
0

> <PUBCHEM_COMPONENT_COUNT>
1

> <PUBCHEM_CACTVS_TAUTO_COUNT>
33

> <PUBCHEM_COORDINATE_TYPE>
1
5
255

> <PUBCHEM_BONDANNOTATIONS>
10  11  8
17  19  8
17  21  8
18  19  8
18  22  8
21  23  8
22  23  8
6  11  8
6  9  8
8  10  8
8  9  8

$$$$

