656825
  -OEChem-07051213043D

 54 53  0     1  0  0  0  0  0999 V2000
   -6.7090    1.2715    0.6244 O   0  0  0  0  0  0  0  0  0  0  0  0
   -6.8400   -2.0836   -0.6707 O   0  0  0  0  0  0  0  0  0  0  0  0
   -6.9594   -1.2801    1.4484 O   0  0  0  0  0  0  0  0  0  0  0  0
    1.0393    0.0559    0.2117 C   0  0  0  0  0  0  0  0  0  0  0  0
    2.3830    0.2172   -0.5074 C   0  0  0  0  0  0  0  0  0  0  0  0
   -0.1672    0.3076   -0.6962 C   0  0  0  0  0  0  0  0  0  0  0  0
    3.6296   -0.0008    0.3576 C   0  0  0  0  0  0  0  0  0  0  0  0
   -1.5099    0.1588    0.0280 C   0  0  0  0  0  0  0  0  0  0  0  0
    4.9383    0.1117   -0.4283 C   0  0  0  0  0  0  0  0  0  0  0  0
   -2.7162    0.3370   -0.8980 C   0  0  0  0  0  0  0  0  0  0  0  0
    6.1863   -0.1135    0.4332 C   0  0  0  0  0  0  0  0  0  0  0  0
   -4.0614    0.2005   -0.1752 C   0  0  0  0  0  0  0  0  0  0  0  0
    7.4954    0.0777   -0.3378 C   0  0  0  0  0  0  0  0  0  0  0  0
   -5.2691    0.4082   -1.1000 C   0  0  0  0  0  0  0  0  0  0  0  0
    8.7444   -0.1469    0.5213 C   0  0  0  0  0  0  0  0  0  0  0  0
   -6.6183    0.2782   -0.3857 C   0  0  1  0  0  0  0  0  0  0  0  0
   10.0525   -0.0296   -0.2617 C   0  0  0  0  0  0  0  0  0  0  0  0
   11.2589   -0.2502    0.6384 C   0  0  0  0  0  0  0  0  0  0  0  0
   -6.8157   -1.0849    0.2484 C   0  0  0  0  0  0  0  0  0  0  0  0
   -8.0615    1.5652    0.9497 C   0  0  0  0  0  0  0  0  0  0  0  0
    0.9753   -0.9568    0.6279 H   0  0  0  0  0  0  0  0  0  0  0  0
    1.0034    0.7502    1.0602 H   0  0  0  0  0  0  0  0  0  0  0  0
    2.4316    1.2235   -0.9428 H   0  0  0  0  0  0  0  0  0  0  0  0
    2.4129   -0.4856   -1.3499 H   0  0  0  0  0  0  0  0  0  0  0  0
   -0.1328   -0.3942   -1.5386 H   0  0  0  0  0  0  0  0  0  0  0  0
   -0.0981    1.3165   -1.1208 H   0  0  0  0  0  0  0  0  0  0  0  0
    3.6308    0.7311    1.1744 H   0  0  0  0  0  0  0  0  0  0  0  0
    3.5732   -0.9932    0.8211 H   0  0  0  0  0  0  0  0  0  0  0  0
   -1.5636    0.8939    0.8404 H   0  0  0  0  0  0  0  0  0  0  0  0
   -1.5603   -0.8331    0.4935 H   0  0  0  0  0  0  0  0  0  0  0  0
    4.9331   -0.6163   -1.2488 H   0  0  0  0  0  0  0  0  0  0  0  0
    4.9937    1.1063   -0.8879 H   0  0  0  0  0  0  0  0  0  0  0  0
   -2.6651   -0.4043   -1.7048 H   0  0  0  0  0  0  0  0  0  0  0  0
   -2.6618    1.3251   -1.3712 H   0  0  0  0  0  0  0  0  0  0  0  0
    6.1674    0.5814    1.2819 H   0  0  0  0  0  0  0  0  0  0  0  0
    6.1557   -1.1268    0.8522 H   0  0  0  0  0  0  0  0  0  0  0  0
   -4.0982    0.9288    0.6439 H   0  0  0  0  0  0  0  0  0  0  0  0
   -4.1118   -0.7946    0.2823 H   0  0  0  0  0  0  0  0  0  0  0  0
    7.5255    1.0910   -0.7567 H   0  0  0  0  0  0  0  0  0  0  0  0
    7.5139   -0.6168   -1.1867 H   0  0  0  0  0  0  0  0  0  0  0  0
   -5.2162   -0.3117   -1.9256 H   0  0  0  0  0  0  0  0  0  0  0  0
   -5.1981    1.4119   -1.5378 H   0  0  0  0  0  0  0  0  0  0  0  0
    8.6887   -1.1426    0.9788 H   0  0  0  0  0  0  0  0  0  0  0  0
    8.7461    0.5788    1.3441 H   0  0  0  0  0  0  0  0  0  0  0  0
   -7.4168    0.4286   -1.1240 H   0  0  0  0  0  0  0  0  0  0  0  0
   10.1212    0.9628   -0.7218 H   0  0  0  0  0  0  0  0  0  0  0  0
   10.0666   -0.7661   -1.0733 H   0  0  0  0  0  0  0  0  0  0  0  0
   11.2342   -1.2469    1.0903 H   0  0  0  0  0  0  0  0  0  0  0  0
   11.2893    0.4918    1.4427 H   0  0  0  0  0  0  0  0  0  0  0  0
   12.1839   -0.1623    0.0600 H   0  0  0  0  0  0  0  0  0  0  0  0
   -8.0626    2.3048    1.7553 H   0  0  0  0  0  0  0  0  0  0  0  0
   -8.6023    0.6808    1.2974 H   0  0  0  0  0  0  0  0  0  0  0  0
   -8.5744    2.0017    0.0867 H   0  0  0  0  0  0  0  0  0  0  0  0
   -6.9771   -2.9609   -0.2540 H   0  0  0  0  0  0  0  0  0  0  0  0
  1 16  1  0  0  0  0
  1 20  1  0  0  0  0
  2 19  1  0  0  0  0
  2 54  1  0  0  0  0
  3 19  2  0  0  0  0
  4  5  1  0  0  0  0
  4  6  1  0  0  0  0
  4 21  1  0  0  0  0
  4 22  1  0  0  0  0
  5  7  1  0  0  0  0
  5 23  1  0  0  0  0
  5 24  1  0  0  0  0
  6  8  1  0  0  0  0
  6 25  1  0  0  0  0
  6 26  1  0  0  0  0
  7  9  1  0  0  0  0
  7 27  1  0  0  0  0
  7 28  1  0  0  0  0
  8 10  1  0  0  0  0
  8 29  1  0  0  0  0
  8 30  1  0  0  0  0
  9 11  1  0  0  0  0
  9 31  1  0  0  0  0
  9 32  1  0  0  0  0
 10 12  1  0  0  0  0
 10 33  1  0  0  0  0
 10 34  1  0  0  0  0
 11 13  1  0  0  0  0
 11 35  1  0  0  0  0
 11 36  1  0  0  0  0
 12 14  1  0  0  0  0
 12 37  1  0  0  0  0
 12 38  1  0  0  0  0
 13 15  1  0  0  0  0
 13 39  1  0  0  0  0
 13 40  1  0  0  0  0
 14 16  1  0  0  0  0
 14 41  1  0  0  0  0
 14 42  1  0  0  0  0
 15 17  1  0  0  0  0
 15 43  1  0  0  0  0
 15 44  1  0  0  0  0
 16 19  1  0  0  0  0
 16 45  1  0  0  0  0
 17 18  1  0  0  0  0
 17 46  1  0  0  0  0
 17 47  1  0  0  0  0
 18 48  1  0  0  0  0
 18 49  1  0  0  0  0
 18 50  1  0  0  0  0
 20 51  1  0  0  0  0
 20 52  1  0  0  0  0
 20 53  1  0  0  0  0
M  END
> <PUBCHEM_COMPOUND_CID>
656825

> <PUBCHEM_CONFORMER_RMSD>
1.4

> <PUBCHEM_CONFORMER_DIVERSEORDER>
1
68
45
14
10
72
29
48
8
73
66
31
6
44
49
19
34
24
36
21
52
5
47
55
12
60
37
28
62
25
17
26
33
41
32
46
9
53
22
56
64
15
7
63
35
16
20
59
75
76
42
70
50
54
43
30
23
38
58
39
57
71
18
74
2
4
11
51
69
3
13
65
40
27
61
67

> <PUBCHEM_MMFF94_PARTIAL_CHARGES>
7
1 -0.56
16 0.34
19 0.66
2 -0.65
20 0.28
3 -0.57
54 0.5

> <PUBCHEM_EFFECTIVE_ROTOR_COUNT>
15

> <PUBCHEM_PHARMACOPHORE_FEATURES>
5
1 1 acceptor
1 18 hydrophobe
1 2 acceptor
1 3 acceptor
3 2 3 19 anion

> <PUBCHEM_HEAVY_ATOM_COUNT>
20

> <PUBCHEM_ATOM_DEF_STEREO_COUNT>
0

> <PUBCHEM_ATOM_UDEF_STEREO_COUNT>
1

> <PUBCHEM_BOND_DEF_STEREO_COUNT>
0

> <PUBCHEM_BOND_UDEF_STEREO_COUNT>
0

> <PUBCHEM_ISOTOPIC_ATOM_COUNT>
0

> <PUBCHEM_COMPONENT_COUNT>
1

> <PUBCHEM_CACTVS_TAUTO_COUNT>
1

> <PUBCHEM_CONFORMER_ID>
000A05B900000001

> <PUBCHEM_MMFF94_ENERGY>
9.3719

> <PUBCHEM_FEATURE_SELFOVERLAP>
25.437

> <PUBCHEM_SHAPE_FINGERPRINT>
11315181 36 12751239216747803421
11638347 137 18342741849983209338
12091667 2 16989127565678455661
14202775 3 17632576076947991722
14251764 18 16630813214090913848
14251764 46 18412826888887847588
14428016 248 18334009485264044944
15510794 2 17749385979456416630
17093844 174 18186238438484686833
21360442 43 7997672209193803253
21362267 2 15502958367743845776
21362267 20 18202285780143368618
21362267 313 18041560373480520538
22224240 67 17775288253425509442
232437 2 17489870449882738858
23521765 1 18335423474412454388
23528940 14 18341329986627516171
246663 6 18410573981631924526
33684 2 16415481563326670268
67123 10 17632859720708281116
8209 1 14692572131020983668

> <PUBCHEM_SHAPE_MULTIPOLES>
393.98
39.82
1.11
0.99
63.7
0.29
-0.06
2.68
-8.11
-3.47
-0.14
-1.17
0
-0.58

> <PUBCHEM_SHAPE_SELFOVERLAP>
722.093

> <PUBCHEM_SHAPE_VOLUME>
249.8

> <PUBCHEM_COORDINATE_TYPE>
2
5
10

$$$$

