147129
  -OEChem-07051213003D

 53 54  0     0  0  0  0  0  0999 V2000
    4.0948   -0.6795    1.2142 O   0  0  0  0  0  0  0  0  0  0  0  0
   -2.6881    0.5323    1.8468 O   0  0  0  0  0  0  0  0  0  0  0  0
    6.5080   -0.0413    0.0389 N   0  0  0  0  0  0  0  0  0  0  0  0
    3.0195   -0.1780   -0.8116 N   0  0  0  0  0  0  0  0  0  0  0  0
   -3.3379   -0.0958   -0.3185 N   0  0  0  0  0  0  0  0  0  0  0  0
    5.3924   -0.4621   -0.8081 C   0  0  0  0  0  0  0  0  0  0  0  0
    6.2754    1.3057    0.5584 C   0  0  0  0  0  0  0  0  0  0  0  0
    7.7642   -0.0910   -0.7086 C   0  0  0  0  0  0  0  0  0  0  0  0
    4.1108   -0.4612    0.0071 C   0  0  0  0  0  0  0  0  0  0  0  0
    7.4254    1.7598    1.4413 C   0  0  0  0  0  0  0  0  0  0  0  0
    8.0526   -1.4980   -1.2042 C   0  0  0  0  0  0  0  0  0  0  0  0
   -4.7521   -0.0624   -0.2445 C   0  0  0  0  0  0  0  0  0  0  0  0
    1.6584   -0.0857   -0.4350 C   0  0  0  0  0  0  0  0  0  0  0  0
   -5.4215    1.1128   -0.5489 C   0  0  0  0  0  0  0  0  0  0  0  0
   -5.4409   -1.2056    0.1301 C   0  0  0  0  0  0  0  0  0  0  0  0
   -1.0056    0.0948    0.3011 C   0  0  0  0  0  0  0  0  0  0  0  0
    0.7078    0.2075   -1.3985 C   0  0  0  0  0  0  0  0  0  0  0  0
    1.3058   -0.2906    0.8887 C   0  0  0  0  0  0  0  0  0  0  0  0
   -2.4043    0.1906    0.6874 C   0  0  0  0  0  0  0  0  0  0  0  0
   -0.6339    0.2985   -1.0278 C   0  0  0  0  0  0  0  0  0  0  0  0
   -0.0358   -0.1997    1.2594 C   0  0  0  0  0  0  0  0  0  0  0  0
   -6.8141    1.1456   -0.4766 C   0  0  0  0  0  0  0  0  0  0  0  0
   -6.8335   -1.1729    0.2024 C   0  0  0  0  0  0  0  0  0  0  0  0
   -7.5200    0.0027   -0.1010 C   0  0  0  0  0  0  0  0  0  0  0  0
   -4.6934    2.3535   -0.9540 C   0  0  0  0  0  0  0  0  0  0  0  0
   -4.7339   -2.4800    0.4613 C   0  0  0  0  0  0  0  0  0  0  0  0
    5.4997   -1.4972   -1.1493 H   0  0  0  0  0  0  0  0  0  0  0  0
    5.2989    0.1845   -1.6894 H   0  0  0  0  0  0  0  0  0  0  0  0
    6.1380    2.0316   -0.2539 H   0  0  0  0  0  0  0  0  0  0  0  0
    5.3768    1.3544    1.1808 H   0  0  0  0  0  0  0  0  0  0  0  0
    7.7675    0.6084   -1.5540 H   0  0  0  0  0  0  0  0  0  0  0  0
    8.6122    0.1645   -0.0654 H   0  0  0  0  0  0  0  0  0  0  0  0
    7.1245    2.6529    2.0010 H   0  0  0  0  0  0  0  0  0  0  0  0
    8.3121    2.0427    0.8657 H   0  0  0  0  0  0  0  0  0  0  0  0
    7.7018    0.9956    2.1760 H   0  0  0  0  0  0  0  0  0  0  0  0
    9.0897   -1.5584   -1.5537 H   0  0  0  0  0  0  0  0  0  0  0  0
    7.4219   -1.7804   -2.0527 H   0  0  0  0  0  0  0  0  0  0  0  0
    7.9332   -2.2415   -0.4086 H   0  0  0  0  0  0  0  0  0  0  0  0
    3.1987   -0.0231   -1.8013 H   0  0  0  0  0  0  0  0  0  0  0  0
   -2.9982   -0.5639   -1.1556 H   0  0  0  0  0  0  0  0  0  0  0  0
    0.9878    0.3744   -2.4349 H   0  0  0  0  0  0  0  0  0  0  0  0
    1.9952   -0.5232    1.6865 H   0  0  0  0  0  0  0  0  0  0  0  0
   -1.3530    0.5599   -1.7990 H   0  0  0  0  0  0  0  0  0  0  0  0
   -0.3062   -0.3669    2.2990 H   0  0  0  0  0  0  0  0  0  0  0  0
   -7.3652    2.0531   -0.7086 H   0  0  0  0  0  0  0  0  0  0  0  0
   -7.3996   -2.0536    0.4939 H   0  0  0  0  0  0  0  0  0  0  0  0
   -8.6044    0.0284   -0.0443 H   0  0  0  0  0  0  0  0  0  0  0  0
   -4.0466    2.1569   -1.8157 H   0  0  0  0  0  0  0  0  0  0  0  0
   -5.3822    3.1541   -1.2449 H   0  0  0  0  0  0  0  0  0  0  0  0
   -4.0858    2.7273   -0.1234 H   0  0  0  0  0  0  0  0  0  0  0  0
   -5.4366   -3.2958    0.6631 H   0  0  0  0  0  0  0  0  0  0  0  0
   -4.1145   -2.3519    1.3550 H   0  0  0  0  0  0  0  0  0  0  0  0
   -4.1022   -2.7987   -0.3745 H   0  0  0  0  0  0  0  0  0  0  0  0
  1  9  2  0  0  0  0
  2 19  2  0  0  0  0
  3  6  1  0  0  0  0
  3  7  1  0  0  0  0
  3  8  1  0  0  0  0
  4  9  1  0  0  0  0
  4 13  1  0  0  0  0
  4 39  1  0  0  0  0
  5 12  1  0  0  0  0
  5 19  1  0  0  0  0
  5 40  1  0  0  0  0
  6  9  1  0  0  0  0
  6 27  1  0  0  0  0
  6 28  1  0  0  0  0
  7 10  1  0  0  0  0
  7 29  1  0  0  0  0
  7 30  1  0  0  0  0
  8 11  1  0  0  0  0
  8 31  1  0  0  0  0
  8 32  1  0  0  0  0
 10 33  1  0  0  0  0
 10 34  1  0  0  0  0
 10 35  1  0  0  0  0
 11 36  1  0  0  0  0
 11 37  1  0  0  0  0
 11 38  1  0  0  0  0
 12 14  2  0  0  0  0
 12 15  1  0  0  0  0
 13 17  2  0  0  0  0
 13 18  1  0  0  0  0
 14 22  1  0  0  0  0
 14 25  1  0  0  0  0
 15 23  2  0  0  0  0
 15 26  1  0  0  0  0
 16 19  1  0  0  0  0
 16 20  2  0  0  0  0
 16 21  1  0  0  0  0
 17 20  1  0  0  0  0
 17 41  1  0  0  0  0
 18 21  2  0  0  0  0
 18 42  1  0  0  0  0
 20 43  1  0  0  0  0
 21 44  1  0  0  0  0
 22 24  2  0  0  0  0
 22 45  1  0  0  0  0
 23 24  1  0  0  0  0
 23 46  1  0  0  0  0
 24 47  1  0  0  0  0
 25 48  1  0  0  0  0
 25 49  1  0  0  0  0
 25 50  1  0  0  0  0
 26 51  1  0  0  0  0
 26 52  1  0  0  0  0
 26 53  1  0  0  0  0
M  END
> <PUBCHEM_COMPOUND_CID>
147129

> <PUBCHEM_CONFORMER_RMSD>
1

> <PUBCHEM_CONFORMER_DIVERSEORDER>
1
12
7
14
13
4
8
2
16
6
3
15
5
9
10
11

> <PUBCHEM_MMFF94_PARTIAL_CHARGES>
33
1 -0.57
12 0.12
13 0.12
14 -0.14
15 -0.14
16 0.09
17 -0.15
18 -0.15
19 0.54
2 -0.57
20 -0.15
21 -0.15
22 -0.15
23 -0.15
24 -0.15
25 0.14
26 0.14
3 -0.81
39 0.37
4 -0.55
40 0.37
41 0.15
42 0.15
43 0.15
44 0.15
45 0.15
46 0.15
47 0.15
5 -0.55
6 0.33
7 0.27
8 0.27
9 0.57

> <PUBCHEM_EFFECTIVE_ROTOR_COUNT>
9

> <PUBCHEM_PHARMACOPHORE_FEATURES>
7
1 1 acceptor
1 2 acceptor
1 3 cation
1 4 donor
1 5 donor
6 12 14 15 22 23 24 rings
6 13 16 17 18 20 21 rings

> <PUBCHEM_HEAVY_ATOM_COUNT>
26

> <PUBCHEM_ATOM_DEF_STEREO_COUNT>
0

> <PUBCHEM_ATOM_UDEF_STEREO_COUNT>
0

> <PUBCHEM_BOND_DEF_STEREO_COUNT>
0

> <PUBCHEM_BOND_UDEF_STEREO_COUNT>
0

> <PUBCHEM_ISOTOPIC_ATOM_COUNT>
0

> <PUBCHEM_COMPONENT_COUNT>
1

> <PUBCHEM_CACTVS_TAUTO_COUNT>
7

> <PUBCHEM_CONFORMER_ID>
00023EB900000001

> <PUBCHEM_MMFF94_ENERGY>
96.5561

> <PUBCHEM_FEATURE_SELFOVERLAP>
35.52

> <PUBCHEM_SHAPE_FINGERPRINT>
10 15 18260271824172384284
10066227 49 18115582790170709302
10299344 5 17704352182242779518
11135926 11 14851607725887348517
11315181 36 17894629245767859305
12082328 90 18412263960657215447
12091667 2 17917988382752319451
12236239 1 17560803251835681573
12516196 113 18131353007663117916
13533116 47 14261361254467486792
13885169 127 18341893021408358629
14123256 10 16370444466523342948
14251764 18 16559032692308442276
14251764 46 7276829082717986300
14856354 85 18131067109360982111
14933364 13 18409731763587307172
15119646 104 15841561790415312152
15131766 46 18046072550058244164
15183329 4 15769774654488634486
15419008 47 18334583446685867385
15419008 91 18338813255280686116
15461852 350 18130780153193280639
15716309 27 17022900150992355278
15849732 13 18335138683161841948
17093844 174 18342459227859509339
18681886 176 18201722812940108713
21150785 3 18060416915110838471
21267235 1 5689303652003579445
21792961 116 17822291335423829532
22224240 67 18273498962034695394
23559900 14 18335708200331372249
24771293 8 17775288214744787756
249057 3 18272932696550852183
335352 9 15913321377577934862
34797466 226 18260827094423788484
397830 11 18043537113991131730
4073 2 17632008646404202658
4325135 7 17775566442140484479
5265222 85 18336829684875067355
5758199 1 17346880061125918688
5969126 39 16805321136715035881

> <PUBCHEM_SHAPE_MULTIPOLES>
508.39
25.61
1.63
1.29
22.04
0.05
0.19
0.14
-2.18
-1.35
0
1.17
0.17
2.46

> <PUBCHEM_SHAPE_SELFOVERLAP>
1062.84

> <PUBCHEM_SHAPE_VOLUME>
289.1

> <PUBCHEM_COORDINATE_TYPE>
2
5
10

$$$$

