16213016
  -OEChem-07051213132D

 53 55  0     1  0  0  0  0  0999 V2000
   18.5205    0.5415    0.0000 Cl  0  0  0  0  0  0  0  0  0  0  0  0
    9.7942    0.5173    0.0000 O   0  0  0  0  0  0  0  0  0  0  0  0
    7.1962    0.0173    0.0000 O   0  0  0  0  0  0  0  0  0  0  0  0
   13.2583   -1.4827    0.0000 O   0  0  0  0  0  0  0  0  0  0  0  0
    8.0622    1.5173    0.0000 O   0  0  0  0  0  0  0  0  0  0  0  0
    4.5981    0.5173    0.0000 O   0  0  0  0  0  0  0  0  0  0  0  0
   14.9904   -1.4827    0.0000 N   0  0  0  0  0  0  0  0  0  0  0  0
   14.9904    0.5173    0.0000 N   0  0  0  0  0  0  0  0  0  0  0  0
    3.7320    0.0173    0.0000 N   0  0  0  0  0  0  0  0  0  0  0  0
    8.9282    0.0173    0.0000 C   0  0  2  0  0  0  0  0  0  0  0  0
   10.6603    0.0173    0.0000 C   0  0  0  0  0  0  0  0  0  0  0  0
    8.9282   -0.9827    0.0000 C   0  0  0  0  0  0  0  0  0  0  0  0
    8.0622    0.5173    0.0000 C   0  0  0  0  0  0  0  0  0  0  0  0
   12.3923   -0.9827    0.0000 C   0  0  0  0  0  0  0  0  0  0  0  0
   10.6603   -0.9827    0.0000 C   0  0  0  0  0  0  0  0  0  0  0  0
   11.5263    0.5173    0.0000 C   0  0  0  0  0  0  0  0  0  0  0  0
   11.5263   -1.4827    0.0000 C   0  0  0  0  0  0  0  0  0  0  0  0
   12.3923    0.0173    0.0000 C   0  0  0  0  0  0  0  0  0  0  0  0
    6.3301    0.5173    0.0000 C   0  0  0  0  0  0  0  0  0  0  0  0
   15.8564   -0.9827    0.0000 C   0  0  0  0  0  0  0  0  0  0  0  0
   15.8564    0.0173    0.0000 C   0  0  0  0  0  0  0  0  0  0  0  0
   14.1244   -0.9827    0.0000 C   0  0  0  0  0  0  0  0  0  0  0  0
    5.4641    0.0173    0.0000 C   0  0  0  0  0  0  0  0  0  0  0  0
   16.7503   -1.5173    0.0000 C   0  0  0  0  0  0  0  0  0  0  0  0
   16.7503    0.5520    0.0000 C   0  0  0  0  0  0  0  0  0  0  0  0
   14.1244    0.0173    0.0000 C   0  0  0  0  0  0  0  0  0  0  0  0
   17.6564   -1.0035    0.0000 C   0  0  0  0  0  0  0  0  0  0  0  0
   17.6564    0.0381    0.0000 C   0  0  0  0  0  0  0  0  0  0  0  0
    2.8660    0.5173    0.0000 C   0  0  0  0  0  0  0  0  0  0  0  0
    2.0000    0.0173    0.0000 C   0  0  0  0  0  0  0  0  0  0  0  0
    2.8660    1.5173    0.0000 C   0  0  0  0  0  0  0  0  0  0  0  0
    9.4651   -0.2927    0.0000 H   0  0  0  0  0  0  0  0  0  0  0  0
    8.3082   -0.9827    0.0000 H   0  0  0  0  0  0  0  0  0  0  0  0
    8.9282   -1.6027    0.0000 H   0  0  0  0  0  0  0  0  0  0  0  0
    9.5482   -0.9827    0.0000 H   0  0  0  0  0  0  0  0  0  0  0  0
   10.1233   -1.2927    0.0000 H   0  0  0  0  0  0  0  0  0  0  0  0
   11.5263    1.1373    0.0000 H   0  0  0  0  0  0  0  0  0  0  0  0
   11.5263   -2.1027    0.0000 H   0  0  0  0  0  0  0  0  0  0  0  0
   12.9292    0.3273    0.0000 H   0  0  0  0  0  0  0  0  0  0  0  0
    6.7287    0.9923    0.0000 H   0  0  0  0  0  0  0  0  0  0  0  0
    5.9316    0.9923    0.0000 H   0  0  0  0  0  0  0  0  0  0  0  0
    5.0656   -0.4576    0.0000 H   0  0  0  0  0  0  0  0  0  0  0  0
    5.8626   -0.4576    0.0000 H   0  0  0  0  0  0  0  0  0  0  0  0
   16.7432   -2.1373    0.0000 H   0  0  0  0  0  0  0  0  0  0  0  0
   16.7432    1.1720    0.0000 H   0  0  0  0  0  0  0  0  0  0  0  0
   13.5874    0.3273    0.0000 H   0  0  0  0  0  0  0  0  0  0  0  0
   18.1922   -1.3156    0.0000 H   0  0  0  0  0  0  0  0  0  0  0  0
    3.4860    1.5173    0.0000 H   0  0  0  0  0  0  0  0  0  0  0  0
    2.8660    2.1373    0.0000 H   0  0  0  0  0  0  0  0  0  0  0  0
    2.2460    1.5173    0.0000 H   0  0  0  0  0  0  0  0  0  0  0  0
    1.6900    0.5543    0.0000 H   0  0  0  0  0  0  0  0  0  0  0  0
    1.4631   -0.2927    0.0000 H   0  0  0  0  0  0  0  0  0  0  0  0
    2.3100   -0.5196    0.0000 H   0  0  0  0  0  0  0  0  0  0  0  0
  1 28  1  0  0  0  0
 10  2  1  6  0  0  0
  2 11  1  0  0  0  0
  3 13  1  0  0  0  0
  3 19  1  0  0  0  0
  4 14  1  0  0  0  0
  4 22  1  0  0  0  0
  5 13  2  0  0  0  0
  6  9  1  0  0  0  0
  6 23  1  0  0  0  0
  7 20  2  0  0  0  0
  7 22  1  0  0  0  0
  8 21  2  0  0  0  0
  8 26  1  0  0  0  0
  9 29  2  0  0  0  0
 10 12  1  0  0  0  0
 10 13  1  0  0  0  0
 10 32  1  0  0  0  0
 11 15  2  0  0  0  0
 11 16  1  0  0  0  0
 12 33  1  0  0  0  0
 12 34  1  0  0  0  0
 12 35  1  0  0  0  0
 14 17  2  0  0  0  0
 14 18  1  0  0  0  0
 15 17  1  0  0  0  0
 15 36  1  0  0  0  0
 16 18  2  0  0  0  0
 16 37  1  0  0  0  0
 17 38  1  0  0  0  0
 18 39  1  0  0  0  0
 19 23  1  0  0  0  0
 19 40  1  0  0  0  0
 19 41  1  0  0  0  0
 20 21  1  0  0  0  0
 20 24  1  0  0  0  0
 21 25  1  0  0  0  0
 22 26  2  0  0  0  0
 23 42  1  0  0  0  0
 23 43  1  0  0  0  0
 24 27  2  0  0  0  0
 24 44  1  0  0  0  0
 25 28  2  0  0  0  0
 25 45  1  0  0  0  0
 26 46  1  0  0  0  0
 27 28  1  0  0  0  0
 27 47  1  0  0  0  0
 29 30  1  0  0  0  0
 29 31  1  0  0  0  0
 30 51  1  0  0  0  0
 30 52  1  0  0  0  0
 30 53  1  0  0  0  0
 31 48  1  0  0  0  0
 31 49  1  0  0  0  0
 31 50  1  0  0  0  0
M  END
> <PUBCHEM_COMPOUND_CID>
16213016

> <PUBCHEM_COMPOUND_CANONICALIZED>
1

> <PUBCHEM_CACTVS_COMPLEXITY>
596

> <PUBCHEM_CACTVS_HBOND_ACCEPTOR>
8

> <PUBCHEM_CACTVS_HBOND_DONOR>
0

> <PUBCHEM_CACTVS_ROTATABLE_BOND>
10

> <PUBCHEM_CACTVS_SUBSKEYS>
AAADceB7OAAEAAAAAAAAAAAAAAAAAAAAAAA8YIAAAAAAAACx9AAAHgIEAAAACB7hliY+zrIYFACoATT3TAaCiCQxdyAI2CF/fpgPZuLFs5+fOCjkwBHa6AfQQAAAAQBAAAIAACACAIAABAAAQAAAAAAAAA==

> <PUBCHEM_IUPAC_OPENEYE_NAME>
2-(isopropylideneamino)oxyethyl (2R)-2-[4-(6-chloroquinoxalin-2-yl)oxyphenoxy]propanoate

> <PUBCHEM_IUPAC_CAS_NAME>
(2R)-2-[4-[(6-chloro-2-quinoxalinyl)oxy]phenoxy]propanoic acid 2-(propan-2-ylideneamino)oxyethyl ester

> <PUBCHEM_IUPAC_NAME>
2-(propan-2-ylideneamino)oxyethyl (2R)-2-[4-(6-chloroquinoxalin-2-yl)oxyphenoxy]propanoate

> <PUBCHEM_IUPAC_SYSTEMATIC_NAME>
2-(propan-2-ylideneamino)oxyethyl (2R)-2-[4-(6-chloranylquinoxalin-2-yl)oxyphenoxy]propanoate

> <PUBCHEM_IUPAC_TRADITIONAL_NAME>
(2R)-2-[4-(6-chloroquinoxalin-2-yl)oxyphenoxy]propionic acid 2-(isopropylideneamino)oxyethyl ester

> <PUBCHEM_IUPAC_INCHI>
InChI=1S/C22H22ClN3O5/c1-14(2)26-29-11-10-28-22(27)15(3)30-17-5-7-18(8-6-17)31-21-13-24-20-12-16(23)4-9-19(20)25-21/h4-9,12-13,15H,10-11H2,1-3H3/t15-/m1/s1

> <PUBCHEM_IUPAC_INCHIKEY>
FROBCXTULYFHEJ-OAHLLOKOSA-N

> <PUBCHEM_XLOGP3>
4.6

> <PUBCHEM_EXACT_MASS>
443.124798

> <PUBCHEM_MOLECULAR_FORMULA>
C22H22ClN3O5

> <PUBCHEM_MOLECULAR_WEIGHT>
443.88018

> <PUBCHEM_OPENEYE_CAN_SMILES>
CC(C(=O)OCCON=C(C)C)OC1=CC=C(C=C1)OC2=CN=C3C=C(C=CC3=N2)Cl

> <PUBCHEM_OPENEYE_ISO_SMILES>
C[C@H](C(=O)OCCON=C(C)C)OC1=CC=C(C=C1)OC2=CN=C3C=C(C=CC3=N2)Cl

> <PUBCHEM_CACTVS_TPSA>
92.1

> <PUBCHEM_MONOISOTOPIC_WEIGHT>
443.124798

> <PUBCHEM_TOTAL_CHARGE>
0

> <PUBCHEM_HEAVY_ATOM_COUNT>
31

> <PUBCHEM_ATOM_DEF_STEREO_COUNT>
1

> <PUBCHEM_ATOM_UDEF_STEREO_COUNT>
0

> <PUBCHEM_BOND_DEF_STEREO_COUNT>
0

> <PUBCHEM_BOND_UDEF_STEREO_COUNT>
0

> <PUBCHEM_ISOTOPIC_ATOM_COUNT>
0

> <PUBCHEM_COMPONENT_COUNT>
1

> <PUBCHEM_CACTVS_TAUTO_COUNT>
2

> <PUBCHEM_COORDINATE_TYPE>
1
5
255

> <PUBCHEM_BONDANNOTATIONS>
11  15  8
11  16  8
14  17  8
14  18  8
15  17  8
16  18  8
10  2  6
20  21  8
20  24  8
21  25  8
22  26  8
24  27  8
25  28  8
27  28  8
7  20  8
7  22  8
8  21  8
8  26  8

$$$$

