443158
  -OEChem-07051213012D

 29 28  0     1  0  0  0  0  0999 V2000
    2.5369   -0.8660    0.0000 O   0  0  0  0  0  0  0  0  0  0  0  0
    3.4030   -0.3660    0.0000 C   0  0  1  0  0  0  0  0  0  0  0  0
    4.2690    0.1340    0.0000 C   0  0  0  0  0  0  0  0  0  0  0  0
    5.1350   -0.3660    0.0000 C   0  0  0  0  0  0  0  0  0  0  0  0
    3.9030   -1.2320    0.0000 C   0  0  0  0  0  0  0  0  0  0  0  0
    2.9030    0.5000    0.0000 C   0  0  0  0  0  0  0  0  0  0  0  0
    6.0010    0.1340    0.0000 C   0  0  0  0  0  0  0  0  0  0  0  0
    6.8671   -0.3660    0.0000 C   0  0  0  0  0  0  0  0  0  0  0  0
    7.7331    0.1340    0.0000 C   0  0  0  0  0  0  0  0  0  0  0  0
    6.8671   -1.3660    0.0000 C   0  0  0  0  0  0  0  0  0  0  0  0
    3.4030    1.3660    0.0000 C   0  0  0  0  0  0  0  0  0  0  0  0
    4.6675    0.6089    0.0000 H   0  0  0  0  0  0  0  0  0  0  0  0
    3.8705    0.6089    0.0000 H   0  0  0  0  0  0  0  0  0  0  0  0
    4.7365   -0.8410    0.0000 H   0  0  0  0  0  0  0  0  0  0  0  0
    5.5335   -0.8410    0.0000 H   0  0  0  0  0  0  0  0  0  0  0  0
    3.3660   -1.5420    0.0000 H   0  0  0  0  0  0  0  0  0  0  0  0
    4.2130   -1.7690    0.0000 H   0  0  0  0  0  0  0  0  0  0  0  0
    4.4399   -0.9221    0.0000 H   0  0  0  0  0  0  0  0  0  0  0  0
    2.2830    0.5000    0.0000 H   0  0  0  0  0  0  0  0  0  0  0  0
    6.0010    0.7540    0.0000 H   0  0  0  0  0  0  0  0  0  0  0  0
    2.0000   -0.5560    0.0000 H   0  0  0  0  0  0  0  0  0  0  0  0
    6.2471   -1.3660    0.0000 H   0  0  0  0  0  0  0  0  0  0  0  0
    6.8671   -1.9860    0.0000 H   0  0  0  0  0  0  0  0  0  0  0  0
    7.4871   -1.3660    0.0000 H   0  0  0  0  0  0  0  0  0  0  0  0
    8.0431   -0.4030    0.0000 H   0  0  0  0  0  0  0  0  0  0  0  0
    8.2700    0.4440    0.0000 H   0  0  0  0  0  0  0  0  0  0  0  0
    7.4231    0.6709    0.0000 H   0  0  0  0  0  0  0  0  0  0  0  0
    4.0230    1.3660    0.0000 H   0  0  0  0  0  0  0  0  0  0  0  0
    3.0930    1.9030    0.0000 H   0  0  0  0  0  0  0  0  0  0  0  0
  2  1  1  1  0  0  0
  1 21  1  0  0  0  0
  2  3  1  0  0  0  0
  2  5  1  0  0  0  0
  2  6  1  0  0  0  0
  3  4  1  0  0  0  0
  3 12  1  0  0  0  0
  3 13  1  0  0  0  0
  4  7  1  0  0  0  0
  4 14  1  0  0  0  0
  4 15  1  0  0  0  0
  5 16  1  0  0  0  0
  5 17  1  0  0  0  0
  5 18  1  0  0  0  0
  6 11  2  0  0  0  0
  6 19  1  0  0  0  0
  7  8  2  0  0  0  0
  7 20  1  0  0  0  0
  8  9  1  0  0  0  0
  8 10  1  0  0  0  0
  9 25  1  0  0  0  0
  9 26  1  0  0  0  0
  9 27  1  0  0  0  0
 10 22  1  0  0  0  0
 10 23  1  0  0  0  0
 10 24  1  0  0  0  0
 11 28  1  0  0  0  0
 11 29  1  0  0  0  0
M  END
> <PUBCHEM_COMPOUND_CID>
443158

> <PUBCHEM_COMPOUND_CANONICALIZED>
1

> <PUBCHEM_CACTVS_COMPLEXITY>
154

> <PUBCHEM_CACTVS_HBOND_ACCEPTOR>
1

> <PUBCHEM_CACTVS_HBOND_DONOR>
1

> <PUBCHEM_CACTVS_ROTATABLE_BOND>
4

> <PUBCHEM_CACTVS_SUBSKEYS>
AAADceBwIAAAAAAAAAAAAAAAAAAAAAAAAAAAAAAAAAAAAAAAAAAAGgAACAAADESAgAACAAAAAgCAAiBCAAAAAAAgAAAICAAAAAgABAIAAQAAQAAEgAAIEAIAAAAMAAAAAAAAAAAAAAAAAAAAAAAAAAAAAA==

> <PUBCHEM_IUPAC_OPENEYE_NAME>
(3R)-3,7-dimethylocta-1,6-dien-3-ol

> <PUBCHEM_IUPAC_CAS_NAME>
(3R)-3,7-dimethyl-3-octa-1,6-dienol

> <PUBCHEM_IUPAC_NAME>
(3R)-3,7-dimethylocta-1,6-dien-3-ol

> <PUBCHEM_IUPAC_SYSTEMATIC_NAME>
(3R)-3,7-dimethylocta-1,6-dien-3-ol

> <PUBCHEM_IUPAC_TRADITIONAL_NAME>
(3R)-3,7-dimethylocta-1,6-dien-3-ol

> <PUBCHEM_IUPAC_INCHI>
InChI=1S/C10H18O/c1-5-10(4,11)8-6-7-9(2)3/h5,7,11H,1,6,8H2,2-4H3/t10-/m0/s1

> <PUBCHEM_IUPAC_INCHIKEY>
CDOSHBSSFJOMGT-JTQLQIEISA-N

> <PUBCHEM_XLOGP3_AA>
2.7

> <PUBCHEM_EXACT_MASS>
154.135765

> <PUBCHEM_MOLECULAR_FORMULA>
C10H18O

> <PUBCHEM_MOLECULAR_WEIGHT>
154.24932

> <PUBCHEM_OPENEYE_CAN_SMILES>
CC(=CCCC(C)(C=C)O)C

> <PUBCHEM_OPENEYE_ISO_SMILES>
CC(=CCC[C@](C)(C=C)O)C

> <PUBCHEM_CACTVS_TPSA>
20.2

> <PUBCHEM_MONOISOTOPIC_WEIGHT>
154.135765

> <PUBCHEM_TOTAL_CHARGE>
0

> <PUBCHEM_HEAVY_ATOM_COUNT>
11

> <PUBCHEM_ATOM_DEF_STEREO_COUNT>
1

> <PUBCHEM_ATOM_UDEF_STEREO_COUNT>
0

> <PUBCHEM_BOND_DEF_STEREO_COUNT>
0

> <PUBCHEM_BOND_UDEF_STEREO_COUNT>
0

> <PUBCHEM_ISOTOPIC_ATOM_COUNT>
0

> <PUBCHEM_COMPONENT_COUNT>
1

> <PUBCHEM_CACTVS_TAUTO_COUNT>
1

> <PUBCHEM_COORDINATE_TYPE>
1
5
255

> <PUBCHEM_BONDANNOTATIONS>
2  1  5

$$$$

