11951
  -OEChem-06261206192D

 22 23  0     0  0  0  0  0  0999 V2000
    2.5369   -0.6953    0.0000 N   0  0  0  0  0  0  0  0  0  0  0  0
    7.7991   -0.7194    0.0000 N   0  0  0  0  0  0  0  0  0  0  0  0
    5.1350   -0.1953    0.0000 C   0  0  0  0  0  0  0  0  0  0  0  0
    5.1350    0.8047    0.0000 C   0  0  0  0  0  0  0  0  0  0  0  0
    4.2690   -0.6953    0.0000 C   0  0  0  0  0  0  0  0  0  0  0  0
    6.0290   -0.7299    0.0000 C   0  0  0  0  0  0  0  0  0  0  0  0
    4.2690    1.3047    0.0000 C   0  0  0  0  0  0  0  0  0  0  0  0
    6.0290    1.3394    0.0000 C   0  0  0  0  0  0  0  0  0  0  0  0
    3.4030   -0.1953    0.0000 C   0  0  0  0  0  0  0  0  0  0  0  0
    6.9350   -0.2161    0.0000 C   0  0  0  0  0  0  0  0  0  0  0  0
    3.4030    0.8047    0.0000 C   0  0  0  0  0  0  0  0  0  0  0  0
    6.9350    0.8256    0.0000 C   0  0  0  0  0  0  0  0  0  0  0  0
    4.2690   -1.3153    0.0000 H   0  0  0  0  0  0  0  0  0  0  0  0
    6.0218   -1.3499    0.0000 H   0  0  0  0  0  0  0  0  0  0  0  0
    4.2690    1.9247    0.0000 H   0  0  0  0  0  0  0  0  0  0  0  0
    6.0218    1.9594    0.0000 H   0  0  0  0  0  0  0  0  0  0  0  0
    2.8660    1.1147    0.0000 H   0  0  0  0  0  0  0  0  0  0  0  0
    7.4708    1.1376    0.0000 H   0  0  0  0  0  0  0  0  0  0  0  0
    2.0000   -0.3853    0.0000 H   0  0  0  0  0  0  0  0  0  0  0  0
    2.5369   -1.3153    0.0000 H   0  0  0  0  0  0  0  0  0  0  0  0
    8.3372   -0.4115    0.0000 H   0  0  0  0  0  0  0  0  0  0  0  0
    7.7967   -1.3394    0.0000 H   0  0  0  0  0  0  0  0  0  0  0  0
  1  9  1  0  0  0  0
  1 19  1  0  0  0  0
  1 20  1  0  0  0  0
  2 10  1  0  0  0  0
  2 21  1  0  0  0  0
  2 22  1  0  0  0  0
  3  4  2  0  0  0  0
  3  5  1  0  0  0  0
  3  6  1  0  0  0  0
  4  7  1  0  0  0  0
  4  8  1  0  0  0  0
  5  9  2  0  0  0  0
  5 13  1  0  0  0  0
  6 10  2  0  0  0  0
  6 14  1  0  0  0  0
  7 11  2  0  0  0  0
  7 15  1  0  0  0  0
  8 12  2  0  0  0  0
  8 16  1  0  0  0  0
  9 11  1  0  0  0  0
 10 12  1  0  0  0  0
 11 17  1  0  0  0  0
 12 18  1  0  0  0  0
M  END
> <PUBCHEM_COMPOUND_CID>
11951

> <PUBCHEM_COMPOUND_CANONICALIZED>
1

> <PUBCHEM_CACTVS_COMPLEXITY>
142

> <PUBCHEM_CACTVS_HBOND_ACCEPTOR>
2

> <PUBCHEM_CACTVS_HBOND_DONOR>
2

> <PUBCHEM_CACTVS_ROTATABLE_BOND>
0

> <PUBCHEM_CACTVS_SUBSKEYS>
AAADccBzAAAAAAAAAAAAAAAAAAAAAAAAAAAwYAAAAAAAAADBUAAAHAAQAAAADAiBGAAwwMBAAACAAiRCQACCAAAgAgAIiAAAZIgIICKAkZGAIABgkAAIyAcQgIAOiAAAQAAQAAAQAACAACAAAAAAAAAAAA==

> <PUBCHEM_IUPAC_OPENEYE_NAME>
naphthalene-2,7-diamine

> <PUBCHEM_IUPAC_CAS_NAME>
naphthalene-2,7-diamine

> <PUBCHEM_IUPAC_NAME>
naphthalene-2,7-diamine

> <PUBCHEM_IUPAC_SYSTEMATIC_NAME>
naphthalene-2,7-diamine

> <PUBCHEM_IUPAC_TRADITIONAL_NAME>
(7-amino-2-naphthyl)amine

> <PUBCHEM_IUPAC_INCHI>
InChI=1S/C10H10N2/c11-9-3-1-7-2-4-10(12)6-8(7)5-9/h1-6H,11-12H2

> <PUBCHEM_IUPAC_INCHIKEY>
HBJPJUGOYJOSLR-UHFFFAOYSA-N

> <PUBCHEM_XLOGP3>
1.6

> <PUBCHEM_EXACT_MASS>
158.084398

> <PUBCHEM_MOLECULAR_FORMULA>
C10H10N2

> <PUBCHEM_MOLECULAR_WEIGHT>
158.1998

> <PUBCHEM_OPENEYE_CAN_SMILES>
C1=CC(=CC2=C1C=CC(=C2)N)N

> <PUBCHEM_OPENEYE_ISO_SMILES>
C1=CC(=CC2=C1C=CC(=C2)N)N

> <PUBCHEM_CACTVS_TPSA>
52

> <PUBCHEM_MONOISOTOPIC_WEIGHT>
158.084398

> <PUBCHEM_TOTAL_CHARGE>
0

> <PUBCHEM_HEAVY_ATOM_COUNT>
12

> <PUBCHEM_ATOM_DEF_STEREO_COUNT>
0

> <PUBCHEM_ATOM_UDEF_STEREO_COUNT>
0

> <PUBCHEM_BOND_DEF_STEREO_COUNT>
0

> <PUBCHEM_BOND_UDEF_STEREO_COUNT>
0

> <PUBCHEM_ISOTOPIC_ATOM_COUNT>
0

> <PUBCHEM_COMPONENT_COUNT>
1

> <PUBCHEM_CACTVS_TAUTO_COUNT>
1

> <PUBCHEM_COORDINATE_TYPE>
1
5
255

> <PUBCHEM_BONDANNOTATIONS>
10  12  8
3  4  8
3  5  8
3  6  8
4  7  8
4  8  8
5  9  8
6  10  8
7  11  8
8  12  8
9  11  8

$$$$

