583350
  -OEChem-06241222453D

 44 47  0     1  0  0  0  0  0999 V2000
   -1.0272   -0.0379   -0.9611 P   0  0  0  0  0  0  0  0  0  0  0  0
   -1.1251   -0.0629   -2.4748 O   0  0  0  0  0  0  0  0  0  0  0  0
    0.4987    0.3621   -0.4405 N   0  0  2  0  0  0  0  0  0  0  0  0
    0.8791    1.7761   -0.5348 C   0  0  0  0  0  0  0  0  0  0  0  0
    1.5963   -0.4903   -0.9292 C   0  0  0  0  0  0  0  0  0  0  0  0
    2.0573    2.0839    0.3902 C   0  0  0  0  0  0  0  0  0  0  0  0
    2.9517   -0.1501   -0.3597 C   0  0  0  0  0  0  0  0  0  0  0  0
    3.1850    1.0998    0.2366 C   0  0  0  0  0  0  0  0  0  0  0  0
   -2.1412    1.1491   -0.2215 C   0  0  0  0  0  0  0  0  0  0  0  0
   -1.4129   -1.6198   -0.2222 C   0  0  0  0  0  0  0  0  0  0  0  0
    4.0065   -1.0655   -0.4765 C   0  0  0  0  0  0  0  0  0  0  0  0
    4.4570    1.4028    0.7396 C   0  0  0  0  0  0  0  0  0  0  0  0
   -2.1102    1.3418    1.1485 C   0  0  0  0  0  0  0  0  0  0  0  0
   -2.3646   -2.4291   -0.8173 C   0  0  0  0  0  0  0  0  0  0  0  0
   -3.0134    1.8529   -1.0332 C   0  0  0  0  0  0  0  0  0  0  0  0
   -0.7521   -2.0050    0.9310 C   0  0  0  0  0  0  0  0  0  0  0  0
    5.2724   -0.7516    0.0177 C   0  0  0  0  0  0  0  0  0  0  0  0
    5.4969    0.4805    0.6273 C   0  0  0  0  0  0  0  0  0  0  0  0
   -2.9793    2.2680    1.7253 C   0  0  0  0  0  0  0  0  0  0  0  0
   -2.6654   -3.6632   -0.2408 C   0  0  0  0  0  0  0  0  0  0  0  0
   -3.8823    2.7792   -0.4565 C   0  0  0  0  0  0  0  0  0  0  0  0
   -1.0526   -3.2392    1.5075 C   0  0  0  0  0  0  0  0  0  0  0  0
   -3.8653    2.9866    0.9228 C   0  0  0  0  0  0  0  0  0  0  0  0
   -2.0094   -4.0682    0.9216 C   0  0  0  0  0  0  0  0  0  0  0  0
    0.0652    2.4482   -0.2520 H   0  0  0  0  0  0  0  0  0  0  0  0
    1.1306    2.0232   -1.5748 H   0  0  0  0  0  0  0  0  0  0  0  0
    1.6587   -0.4103   -2.0222 H   0  0  0  0  0  0  0  0  0  0  0  0
    1.3841   -1.5382   -0.6961 H   0  0  0  0  0  0  0  0  0  0  0  0
    1.7204    2.0590    1.4344 H   0  0  0  0  0  0  0  0  0  0  0  0
    2.4175    3.0976    0.1781 H   0  0  0  0  0  0  0  0  0  0  0  0
    3.8463   -2.0291   -0.9537 H   0  0  0  0  0  0  0  0  0  0  0  0
    4.6431    2.3594    1.2210 H   0  0  0  0  0  0  0  0  0  0  0  0
   -1.4219    0.7942    1.7832 H   0  0  0  0  0  0  0  0  0  0  0  0
   -2.8802   -2.1167   -1.7199 H   0  0  0  0  0  0  0  0  0  0  0  0
   -3.0358    1.6989   -2.1069 H   0  0  0  0  0  0  0  0  0  0  0  0
   -0.0195   -1.3718    1.4191 H   0  0  0  0  0  0  0  0  0  0  0  0
    6.0834   -1.4683   -0.0731 H   0  0  0  0  0  0  0  0  0  0  0  0
    6.4818    0.7231    1.0154 H   0  0  0  0  0  0  0  0  0  0  0  0
   -2.9649    2.4306    2.7991 H   0  0  0  0  0  0  0  0  0  0  0  0
   -3.4112   -4.3081   -0.6963 H   0  0  0  0  0  0  0  0  0  0  0  0
   -4.5723    3.3388   -1.0812 H   0  0  0  0  0  0  0  0  0  0  0  0
   -0.5455   -3.5526    2.4153 H   0  0  0  0  0  0  0  0  0  0  0  0
   -4.5417    3.7081    1.3718 H   0  0  0  0  0  0  0  0  0  0  0  0
   -2.2445   -5.0283    1.3715 H   0  0  0  0  0  0  0  0  0  0  0  0
  1  2  2  0  0  0  0
  1  3  1  0  0  0  0
  1  9  1  0  0  0  0
  1 10  1  0  0  0  0
  3  4  1  0  0  0  0
  3  5  1  0  0  0  0
  4  6  1  0  0  0  0
  4 25  1  0  0  0  0
  4 26  1  0  0  0  0
  5  7  1  0  0  0  0
  5 27  1  0  0  0  0
  5 28  1  0  0  0  0
  6  8  1  0  0  0  0
  6 29  1  0  0  0  0
  6 30  1  0  0  0  0
  7  8  1  0  0  0  0
  7 11  2  0  0  0  0
  8 12  2  0  0  0  0
  9 13  2  0  0  0  0
  9 15  1  0  0  0  0
 10 14  2  0  0  0  0
 10 16  1  0  0  0  0
 11 17  1  0  0  0  0
 11 31  1  0  0  0  0
 12 18  1  0  0  0  0
 12 32  1  0  0  0  0
 13 19  1  0  0  0  0
 13 33  1  0  0  0  0
 14 20  1  0  0  0  0
 14 34  1  0  0  0  0
 15 21  2  0  0  0  0
 15 35  1  0  0  0  0
 16 22  2  0  0  0  0
 16 36  1  0  0  0  0
 17 18  2  0  0  0  0
 17 37  1  0  0  0  0
 18 38  1  0  0  0  0
 19 23  2  0  0  0  0
 19 39  1  0  0  0  0
 20 24  2  0  0  0  0
 20 40  1  0  0  0  0
 21 23  1  0  0  0  0
 21 41  1  0  0  0  0
 22 24  1  0  0  0  0
 22 42  1  0  0  0  0
 23 43  1  0  0  0  0
 24 44  1  0  0  0  0
M  END
> <PUBCHEM_COMPOUND_CID>
583350

> <PUBCHEM_CONFORMER_RMSD>
0.6

> <PUBCHEM_CONFORMER_DIVERSEORDER>
1
17
11
20
12
19
14
15
13
16
4
10
5
2
18
6
7
3
9
8

> <PUBCHEM_MMFF94_PARTIAL_CHARGES>
38
1 1.25
10 -0.14
11 -0.15
12 -0.15
13 -0.15
14 -0.15
15 -0.15
16 -0.15
17 -0.15
18 -0.15
19 -0.15
2 -0.7
20 -0.15
21 -0.15
22 -0.15
23 -0.15
24 -0.15
3 -0.81
31 0.15
32 0.15
33 0.15
34 0.15
35 0.15
36 0.15
37 0.15
38 0.15
39 0.15
4 0.27
40 0.15
41 0.15
42 0.15
43 0.15
44 0.15
5 0.41
6 0.14
7 -0.14
8 -0.14
9 -0.14

> <PUBCHEM_EFFECTIVE_ROTOR_COUNT>
3.8

> <PUBCHEM_PHARMACOPHORE_FEATURES>
5
1 2 acceptor
6 10 14 16 20 22 24 rings
6 3 4 5 6 7 8 rings
6 7 8 11 12 17 18 rings
6 9 13 15 19 21 23 rings

> <PUBCHEM_HEAVY_ATOM_COUNT>
24

> <PUBCHEM_ATOM_DEF_STEREO_COUNT>
0

> <PUBCHEM_ATOM_UDEF_STEREO_COUNT>
0

> <PUBCHEM_BOND_DEF_STEREO_COUNT>
0

> <PUBCHEM_BOND_UDEF_STEREO_COUNT>
0

> <PUBCHEM_ISOTOPIC_ATOM_COUNT>
0

> <PUBCHEM_COMPONENT_COUNT>
1

> <PUBCHEM_CACTVS_TAUTO_COUNT>
1

> <PUBCHEM_CONFORMER_ID>
0008E6B600000001

> <PUBCHEM_MMFF94_ENERGY>
54.3962

> <PUBCHEM_FEATURE_SELFOVERLAP>
25.393

> <PUBCHEM_SHAPE_FINGERPRINT>
1100329 8 18053109707263168714
11036077 51 18410295834801376011
12160290 23 18193809631981478271
12422481 6 17980722122687663507
12549972 3 17968393255581236472
12616971 3 17132112447342840108
12633257 1 18117815764329508427
12788726 201 18196644099532146443
13004483 165 18049157774662354715
131258 38 15831094164656959915
13134695 92 17472982801130210615
13140716 1 18123460575749679083
14178342 30 18340770356160554786
14251740 79 18339936934884030839
14468879 13 17676492769402847006
14790565 3 18051129491100459532
14866123 147 18413109480477609819
15842332 3 17701801220924706876
15927050 60 18267304411733709270
17913733 40 18120635089044335745
20197701 30 18339359785858165689
20600515 1 17125101762522788779
21033648 29 18267880547579802504
21049683 118 18192174748242955625
21120745 212 17837744774000536533
22182937 141 18408039615149702168
23558518 356 18340485560614896804
23559900 14 17982464702166695700
23845131 108 18198056083690860795
283562 15 18269000790750615115
298252 57 17096377296436251893
3027735 51 18340774753780590739
376196 1 17678182804511015204
38695281 34 18123753312204272137
394222 165 17537437701911544009
4073 2 18409733950864832154
4258327 124 17988070102360427996
4340502 62 18118384363194163073
484985 159 15841558431228725699
497634 4 18058171622800491316
5104073 3 18337122190002553904
5385378 56 17835795675224598673
5486654 36 18273209764680270066
7226269 152 18339368444649722383
79837 15 18337663226394637673
81228 2 18198334062115747263
9709674 26 18335985281493293862
9981440 41 17530972418356824518

> <PUBCHEM_SHAPE_MULTIPOLES>
486.91
9.07
4.6
1.44
12.68
3.78
0.12
-4.01
-1.4
-6.93
-1.53
-0.99
-0.01
0.13

> <PUBCHEM_SHAPE_SELFOVERLAP>
1046.888

> <PUBCHEM_SHAPE_VOLUME>
266.9

> <PUBCHEM_COORDINATE_TYPE>
2
5
10

$$$$

