54691346
  -OEChem-07051213033D

 70 73  0     1  0  0  0  0  0999 V2000
    3.0915   -2.5723    1.4810 Cl  0  0  0  0  0  0  0  0  0  0  0  0
    5.9389    1.5150   -0.2255 O   0  0  0  0  0  0  0  0  0  0  0  0
    9.2538    0.2744   -1.2851 O   0  0  0  0  0  0  0  0  0  0  0  0
    9.0328   -0.7384    1.4238 O   0  0  0  0  0  0  0  0  0  0  0  0
    4.8187   -0.5661    0.0936 O   0  0  0  0  0  0  0  0  0  0  0  0
    7.1563    1.0090    2.4102 O   0  0  0  0  0  0  0  0  0  0  0  0
    0.2972   -1.9032    0.9612 O   0  0  0  0  0  0  0  0  0  0  0  0
   -1.1609    1.3377   -1.2488 O   0  0  0  0  0  0  0  0  0  0  0  0
   -1.8336   -2.6227    1.3362 O   0  0  0  0  0  0  0  0  0  0  0  0
   -3.3375   -2.6009   -1.0647 O   0  0  0  0  0  0  0  0  0  0  0  0
   -9.2811   -0.4966   -0.6050 O   0  0  0  0  0  0  0  0  0  0  0  0
   -2.9424   -0.5461   -0.0499 N   0  0  0  0  0  0  0  0  0  0  0  0
    7.0189    1.2227   -1.1252 C   0  0  0  0  0  0  0  0  0  0  0  0
    8.2632    0.7172   -0.3593 C   0  0  1  0  0  0  0  0  0  0  0  0
    7.9100   -0.4180    0.6039 C   0  0  2  0  0  0  0  0  0  0  0  0
    6.7424   -0.0220    1.5087 C   0  0  2  0  0  0  0  0  0  0  0  0
    5.5521    0.4927    0.6985 C   0  0  1  0  0  0  0  0  0  0  0  0
    6.5568    0.2601   -2.2325 C   0  0  0  0  0  0  0  0  0  0  0  0
    7.3544    2.5655   -1.7995 C   0  0  0  0  0  0  0  0  0  0  0  0
    3.4698   -0.3764   -0.0537 C   0  0  0  0  0  0  0  0  0  0  0  0
    2.5454   -1.2297    0.5374 C   0  0  0  0  0  0  0  0  0  0  0  0
    3.0246    0.6983   -0.8205 C   0  0  0  0  0  0  0  0  0  0  0  0
    1.1821   -0.9890    0.3543 C   0  0  0  0  0  0  0  0  0  0  0  0
    0.7041    0.0859   -0.3971 C   0  0  0  0  0  0  0  0  0  0  0  0
    1.6537    0.9266   -0.9937 C   0  0  0  0  0  0  0  0  0  0  0  0
   -0.7506    0.2434   -0.5185 C   0  0  0  0  0  0  0  0  0  0  0  0
   -1.5811   -0.6449    0.0466 C   0  0  0  0  0  0  0  0  0  0  0  0
   -1.0805   -1.7997    0.8259 C   0  0  0  0  0  0  0  0  0  0  0  0
   -3.7395   -1.5358   -0.6026 C   0  0  0  0  0  0  0  0  0  0  0  0
   -5.1996   -1.2588   -0.5991 C   0  0  0  0  0  0  0  0  0  0  0  0
   -7.1188   -0.1605    0.3739 C   0  0  0  0  0  0  0  0  0  0  0  0
   -5.7485   -0.4201    0.3710 C   0  0  0  0  0  0  0  0  0  0  0  0
   -7.6894    0.7400    1.4194 C   0  0  0  0  0  0  0  0  0  0  0  0
   -6.0213   -1.8380   -1.5661 C   0  0  0  0  0  0  0  0  0  0  0  0
   -7.9405   -0.7396   -0.5932 C   0  0  0  0  0  0  0  0  0  0  0  0
   -7.3917   -1.5785   -1.5632 C   0  0  0  0  0  0  0  0  0  0  0  0
   -8.0360    2.1091    0.8891 C   0  0  0  0  0  0  0  0  0  0  0  0
   -7.2420    3.1939    0.8089 C   0  0  0  0  0  0  0  0  0  0  0  0
   -7.6545    4.5330    0.2668 C   0  0  0  0  0  0  0  0  0  0  0  0
   -5.8175    3.1325    1.2929 C   0  0  0  0  0  0  0  0  0  0  0  0
    8.7116    1.5313    0.2252 H   0  0  0  0  0  0  0  0  0  0  0  0
    7.6656   -1.3233    0.0361 H   0  0  0  0  0  0  0  0  0  0  0  0
    6.4530   -0.8840    2.1211 H   0  0  0  0  0  0  0  0  0  0  0  0
    4.8856    0.9997    1.4105 H   0  0  0  0  0  0  0  0  0  0  0  0
    7.6743    3.3048   -1.0560 H   0  0  0  0  0  0  0  0  0  0  0  0
    7.3012    0.1742   -3.0316 H   0  0  0  0  0  0  0  0  0  0  0  0
    6.3728   -0.7479   -1.8509 H   0  0  0  0  0  0  0  0  0  0  0  0
    5.6186    0.6035   -2.6816 H   0  0  0  0  0  0  0  0  0  0  0  0
    8.1405    2.4708   -2.5549 H   0  0  0  0  0  0  0  0  0  0  0  0
    6.4655    2.9869   -2.2844 H   0  0  0  0  0  0  0  0  0  0  0  0
    9.5917    1.0536   -1.7570 H   0  0  0  0  0  0  0  0  0  0  0  0
    8.7678   -1.4653    2.0129 H   0  0  0  0  0  0  0  0  0  0  0  0
    6.4182    1.1803    3.0197 H   0  0  0  0  0  0  0  0  0  0  0  0
    3.7176    1.3714   -1.3143 H   0  0  0  0  0  0  0  0  0  0  0  0
    1.3437    1.7733   -1.6018 H   0  0  0  0  0  0  0  0  0  0  0  0
   -3.3269    0.3954   -0.0346 H   0  0  0  0  0  0  0  0  0  0  0  0
   -2.1310    1.3197   -1.3051 H   0  0  0  0  0  0  0  0  0  0  0  0
   -5.1270    0.0141    1.1491 H   0  0  0  0  0  0  0  0  0  0  0  0
   -8.6029    0.2877    1.8295 H   0  0  0  0  0  0  0  0  0  0  0  0
   -7.0277    0.8056    2.2906 H   0  0  0  0  0  0  0  0  0  0  0  0
   -5.6115   -2.4904   -2.3327 H   0  0  0  0  0  0  0  0  0  0  0  0
   -8.0199   -2.0355   -2.3231 H   0  0  0  0  0  0  0  0  0  0  0  0
   -9.0596    2.2114    0.5300 H   0  0  0  0  0  0  0  0  0  0  0  0
   -5.1327    3.2108    0.4417 H   0  0  0  0  0  0  0  0  0  0  0  0
   -7.5666    5.3029    1.0399 H   0  0  0  0  0  0  0  0  0  0  0  0
   -7.0210    4.8125   -0.5810 H   0  0  0  0  0  0  0  0  0  0  0  0
   -8.6930    4.5239   -0.0801 H   0  0  0  0  0  0  0  0  0  0  0  0
   -5.6185    3.9749    1.9653 H   0  0  0  0  0  0  0  0  0  0  0  0
   -5.5561    2.2319    1.8481 H   0  0  0  0  0  0  0  0  0  0  0  0
   -9.6851   -0.9809   -1.3454 H   0  0  0  0  0  0  0  0  0  0  0  0
  1 21  1  0  0  0  0
  2 13  1  0  0  0  0
  2 17  1  0  0  0  0
  3 14  1  0  0  0  0
  3 51  1  0  0  0  0
  4 15  1  0  0  0  0
  4 52  1  0  0  0  0
  5 17  1  0  0  0  0
  5 20  1  0  0  0  0
  6 16  1  0  0  0  0
  6 53  1  0  0  0  0
  7 23  1  0  0  0  0
  7 28  1  0  0  0  0
  8 26  1  0  0  0  0
  8 57  1  0  0  0  0
  9 28  2  0  0  0  0
 10 29  2  0  0  0  0
 11 35  1  0  0  0  0
 11 70  1  0  0  0  0
 12 27  1  0  0  0  0
 12 29  1  0  0  0  0
 12 56  1  0  0  0  0
 13 14  1  0  0  0  0
 13 18  1  0  0  0  0
 13 19  1  0  0  0  0
 14 15  1  0  0  0  0
 14 41  1  0  0  0  0
 15 16  1  0  0  0  0
 15 42  1  0  0  0  0
 16 17  1  0  0  0  0
 16 43  1  0  0  0  0
 17 44  1  0  0  0  0
 18 46  1  0  0  0  0
 18 47  1  0  0  0  0
 18 48  1  0  0  0  0
 19 45  1  0  0  0  0
 19 49  1  0  0  0  0
 19 50  1  0  0  0  0
 20 21  2  0  0  0  0
 20 22  1  0  0  0  0
 21 23  1  0  0  0  0
 22 25  2  0  0  0  0
 22 54  1  0  0  0  0
 23 24  2  0  0  0  0
 24 25  1  0  0  0  0
 24 26  1  0  0  0  0
 25 55  1  0  0  0  0
 26 27  2  0  0  0  0
 27 28  1  0  0  0  0
 29 30  1  0  0  0  0
 30 32  2  0  0  0  0
 30 34  1  0  0  0  0
 31 32  1  0  0  0  0
 31 33  1  0  0  0  0
 31 35  2  0  0  0  0
 32 58  1  0  0  0  0
 33 37  1  0  0  0  0
 33 59  1  0  0  0  0
 33 60  1  0  0  0  0
 34 36  2  0  0  0  0
 34 61  1  0  0  0  0
 35 36  1  0  0  0  0
 36 62  1  0  0  0  0
 37 38  2  0  0  0  0
 37 63  1  0  0  0  0
 38 39  1  0  0  0  0
 38 40  1  0  0  0  0
 39 65  1  0  0  0  0
 39 66  1  0  0  0  0
 39 67  1  0  0  0  0
 40 64  1  0  0  0  0
 40 68  1  0  0  0  0
 40 69  1  0  0  0  0
M  END
> <PUBCHEM_COMPOUND_CID>
54691346

> <PUBCHEM_CONFORMER_RMSD>
1.2

> <PUBCHEM_CONFORMER_DIVERSEORDER>
2
62
118
69
84
58
73
45
79
128
71
89
122
53
123
64
76
33
106
117
87
98
41
103
56
101
66
30
61
21
81
82
125
88
44
31
114
29
116
112
50
20
113
60
96
36
85
102
100
107
111
115
91
108
129
38
9
63
22
127
55
39
72
67
51
23
121
86
65
120
74
35
104
105
24
32
119
15
124
3
78
110
59
10
70
27
34
80
75
126
11
92
68
93
26
47
83
40
99
16
90
1
48
94
37
18
42
46
12
4
14
19
109
43
28
77
54
97
13
5
95
57
8
25
17
49
52
6
7

> <PUBCHEM_MMFF94_PARTIAL_CHARGES>
50
1 -0.18
10 -0.57
11 -0.53
12 -0.54
13 0.28
14 0.28
15 0.28
16 0.28
17 0.56
2 -0.56
20 0.08
21 0.18
22 -0.15
23 0.08
24 0.03
25 -0.15
26 0.05
27 0.12
28 0.71
29 0.54
3 -0.68
30 0.09
31 -0.14
32 -0.15
33 0.28
34 -0.15
35 0.08
36 -0.15
37 -0.29
38 -0.28
39 0.14
4 -0.68
40 0.14
5 -0.36
51 0.4
52 0.4
53 0.4
54 0.15
55 0.15
56 0.37
57 0.45
58 0.15
6 -0.68
61 0.15
62 0.15
63 0.15
7 -0.23
70 0.45
8 -0.53
9 -0.57

> <PUBCHEM_EFFECTIVE_ROTOR_COUNT>
8.2

> <PUBCHEM_PHARMACOPHORE_FEATURES>
19
1 10 acceptor
1 11 donor
1 12 donor
1 2 acceptor
1 3 acceptor
1 3 donor
1 4 acceptor
1 4 donor
1 5 acceptor
1 6 acceptor
1 6 donor
1 8 donor
1 9 acceptor
3 13 18 19 hydrophobe
3 38 39 40 hydrophobe
6 2 13 14 15 16 17 rings
6 20 21 22 23 24 25 rings
6 30 31 32 34 35 36 rings
6 7 23 24 26 27 28 rings

> <PUBCHEM_HEAVY_ATOM_COUNT>
40

> <PUBCHEM_ATOM_DEF_STEREO_COUNT>
4

> <PUBCHEM_ATOM_UDEF_STEREO_COUNT>
0

> <PUBCHEM_BOND_DEF_STEREO_COUNT>
0

> <PUBCHEM_BOND_UDEF_STEREO_COUNT>
0

> <PUBCHEM_ISOTOPIC_ATOM_COUNT>
0

> <PUBCHEM_COMPONENT_COUNT>
1

> <PUBCHEM_CACTVS_TAUTO_COUNT>
41

> <PUBCHEM_CONFORMER_ID>
0342861200000002

> <PUBCHEM_MMFF94_ENERGY>
146.1592

> <PUBCHEM_FEATURE_SELFOVERLAP>
96.496

> <PUBCHEM_SHAPE_FINGERPRINT>
10 15 16415484830821382195
10906281 52 18202274788862309114
10952577 141 14347177136609453835
11061554 47 18041003925612265824
11135926 11 18130798849323745631
11181472 205 18341888607020624876
11408170 132 18261102024265914430
11456790 92 18272088292737432656
12133447 93 18334565880327058060
12539745 222 17202750498849870643
12539765 74 18410004451441291054
12758862 11 17313388868947753587
13383665 225 18268973402376808188
13914758 101 18187080637471857082
14294032 229 18341335573603890989
14394314 77 18341610464950040161
14849402 71 18272647918475954021
150020 25 16732984219388886625
15183329 4 18202006494913045510
15301273 46 16588021303690224022
15328684 2 18339654446289589201
15419008 91 17168439181193910168
15439362 3 18261386810816371903
15461852 350 17967811622572915207
1577012 14 18408886269985785163
16728433 281 17750503156775824361
19841028 212 12463030856456831960
20105231 36 15626509389001393874
20982279 24 15194727968791557384
21223535 225 18259991474588329837
22149856 69 18341051908758010760
22164985 6 15719391720342221077
22311459 1 18131636660262009646
24204213 310 18341886428946296725
24771293 8 18343299288596661413
3178227 256 16917348125615832378
335352 9 17988928825294528222
3711267 37 18131628971854260765
4093350 32 18186519942936098038
4112364 45 15410604832307645774
4149490 64 12823029616808116216
4169191 19 18202285814580875999
44802255 64 17458347455878096735
4516262 110 18270966869146153031
4625314 4 16877945997195781646
4918590 53 14836121074719081413
5758199 1 18272650143142029555
6081469 158 15140956253539641490
6201320 215 18041281084072906345
6698420 124 17988921141919640050

> <PUBCHEM_SHAPE_MULTIPOLES>
761.38
33.69
3.22
1.69
6.85
2.76
-0.03
16.16
-0.38
-7.8
0.5
1.99
0.03
-4.88

> <PUBCHEM_SHAPE_SELFOVERLAP>
1634.64

> <PUBCHEM_SHAPE_VOLUME>
418.9

> <PUBCHEM_COORDINATE_TYPE>
2
5
10

$$$$

