2227
  -OEChem-07051212472D

 28 27  0     0  0  0  0  0  0999 V2000
    3.4030   -1.7500    0.0000 N   0  0  0  0  0  0  0  0  0  0  0  0
    6.0010    1.7500    0.0000 N   0  0  0  0  0  0  0  0  0  0  0  0
    2.5369   -3.2500    0.0000 N   0  0  0  0  0  0  0  0  0  0  0  0
    6.8671    3.2500    0.0000 N   0  0  0  0  0  0  0  0  0  0  0  0
    4.2690   -3.2500    0.0000 N   0  0  0  0  0  0  0  0  0  0  0  0
    5.1350    3.2500    0.0000 N   0  0  0  0  0  0  0  0  0  0  0  0
    4.2690   -0.2500    0.0000 C   0  0  0  0  0  0  0  0  0  0  0  0
    5.1350    0.2500    0.0000 C   0  0  0  0  0  0  0  0  0  0  0  0
    5.1350    1.2500    0.0000 C   0  0  0  0  0  0  0  0  0  0  0  0
    4.2690   -1.2500    0.0000 C   0  0  0  0  0  0  0  0  0  0  0  0
    6.0010    2.7500    0.0000 C   0  0  0  0  0  0  0  0  0  0  0  0
    3.4030   -2.7500    0.0000 C   0  0  0  0  0  0  0  0  0  0  0  0
    4.0569    0.3326    0.0000 H   0  0  0  0  0  0  0  0  0  0  0  0
    3.6584   -0.3577    0.0000 H   0  0  0  0  0  0  0  0  0  0  0  0
    5.3471   -0.3326    0.0000 H   0  0  0  0  0  0  0  0  0  0  0  0
    5.7456    0.3577    0.0000 H   0  0  0  0  0  0  0  0  0  0  0  0
    4.9230    1.8326    0.0000 H   0  0  0  0  0  0  0  0  0  0  0  0
    4.5244    1.1423    0.0000 H   0  0  0  0  0  0  0  0  0  0  0  0
    4.4810   -1.8326    0.0000 H   0  0  0  0  0  0  0  0  0  0  0  0
    4.8796   -1.1423    0.0000 H   0  0  0  0  0  0  0  0  0  0  0  0
    4.5981    2.9400    0.0000 H   0  0  0  0  0  0  0  0  0  0  0  0
    5.1350    3.8700    0.0000 H   0  0  0  0  0  0  0  0  0  0  0  0
    4.2690   -3.8700    0.0000 H   0  0  0  0  0  0  0  0  0  0  0  0
    4.8059   -2.9400    0.0000 H   0  0  0  0  0  0  0  0  0  0  0  0
    7.4040    2.9400    0.0000 H   0  0  0  0  0  0  0  0  0  0  0  0
    6.8671    3.8700    0.0000 H   0  0  0  0  0  0  0  0  0  0  0  0
    2.5369   -3.8700    0.0000 H   0  0  0  0  0  0  0  0  0  0  0  0
    2.0000   -2.9400    0.0000 H   0  0  0  0  0  0  0  0  0  0  0  0
  1 10  1  0  0  0  0
  1 12  2  0  0  0  0
  2  9  1  0  0  0  0
  2 11  2  0  0  0  0
  3 12  1  0  0  0  0
  3 27  1  0  0  0  0
  3 28  1  0  0  0  0
  4 11  1  0  0  0  0
  4 25  1  0  0  0  0
  4 26  1  0  0  0  0
  5 12  1  0  0  0  0
  5 23  1  0  0  0  0
  5 24  1  0  0  0  0
  6 11  1  0  0  0  0
  6 21  1  0  0  0  0
  6 22  1  0  0  0  0
  7  8  1  0  0  0  0
  7 10  1  0  0  0  0
  7 13  1  0  0  0  0
  7 14  1  0  0  0  0
  8  9  1  0  0  0  0
  8 15  1  0  0  0  0
  8 16  1  0  0  0  0
  9 17  1  0  0  0  0
  9 18  1  0  0  0  0
 10 19  1  0  0  0  0
 10 20  1  0  0  0  0
M  END
> <PUBCHEM_COMPOUND_CID>
2227

> <PUBCHEM_COMPOUND_CANONICALIZED>
1

> <PUBCHEM_CACTVS_COMPLEXITY>
145

> <PUBCHEM_CACTVS_HBOND_ACCEPTOR>
2

> <PUBCHEM_CACTVS_HBOND_DONOR>
4

> <PUBCHEM_CACTVS_ROTATABLE_BOND>
5

> <PUBCHEM_CACTVS_SUBSKEYS>
AAADceBjgAAAAAAAAAAAAAAAAAAAAAAAAAAAAAAAAAAAAAAAAAAAHAAQAAAACADBAAQBAAJAAAAgAAAAJAAAAAEAAAAAAAAAAAAAAAAAgAAAAAAAAAAAAAAAAAAAAAAAAAAAAAAAAAAAAAAAAAAAAAAAAA==

> <PUBCHEM_IUPAC_OPENEYE_NAME>
2-(4-guanidinobutyl)guanidine

> <PUBCHEM_IUPAC_CAS_NAME>
2-[4-(diaminomethylideneamino)butyl]guanidine

> <PUBCHEM_IUPAC_NAME>
2-[4-(diaminomethylideneamino)butyl]guanidine

> <PUBCHEM_IUPAC_SYSTEMATIC_NAME>
2-[4-[bis(azanyl)methylideneamino]butyl]guanidine

> <PUBCHEM_IUPAC_TRADITIONAL_NAME>
2-(4-guanidinobutyl)guanidine

> <PUBCHEM_IUPAC_INCHI>
InChI=1S/C6H16N6/c7-5(8)11-3-1-2-4-12-6(9)10/h1-4H2,(H4,7,8,11)(H4,9,10,12)

> <PUBCHEM_IUPAC_INCHIKEY>
HGMDNMBBCKDWTQ-UHFFFAOYSA-N

> <PUBCHEM_XLOGP3_AA>
-2.2

> <PUBCHEM_EXACT_MASS>
172.143645

> <PUBCHEM_MOLECULAR_FORMULA>
C6H16N6

> <PUBCHEM_MOLECULAR_WEIGHT>
172.23144

> <PUBCHEM_OPENEYE_CAN_SMILES>
C(CCN=C(N)N)CN=C(N)N

> <PUBCHEM_OPENEYE_ISO_SMILES>
C(CCN=C(N)N)CN=C(N)N

> <PUBCHEM_CACTVS_TPSA>
129

> <PUBCHEM_MONOISOTOPIC_WEIGHT>
172.143645

> <PUBCHEM_TOTAL_CHARGE>
0

> <PUBCHEM_HEAVY_ATOM_COUNT>
12

> <PUBCHEM_ATOM_DEF_STEREO_COUNT>
0

> <PUBCHEM_ATOM_UDEF_STEREO_COUNT>
0

> <PUBCHEM_BOND_DEF_STEREO_COUNT>
0

> <PUBCHEM_BOND_UDEF_STEREO_COUNT>
0

> <PUBCHEM_ISOTOPIC_ATOM_COUNT>
0

> <PUBCHEM_COMPONENT_COUNT>
1

> <PUBCHEM_CACTVS_TAUTO_COUNT>
3

> <PUBCHEM_COORDINATE_TYPE>
1
5
255

$$$$

