36402
  -OEChem-07051213053D

 22 23  0     0  0  0  0  0  0999 V2000
    0.0202   -2.7181   -0.0010 Cl  0  0  0  0  0  0  0  0  0  0  0  0
    0.0212    2.7184   -0.0014 Cl  0  0  0  0  0  0  0  0  0  0  0  0
    3.2163    2.6649   -0.0011 Cl  0  0  0  0  0  0  0  0  0  0  0  0
    3.2149   -2.6661    0.0001 Cl  0  0  0  0  0  0  0  0  0  0  0  0
    0.1798    0.0003    0.0017 C   0  0  0  0  0  0  0  0  0  0  0  0
   -1.2671    0.0004    0.0007 C   0  0  0  0  0  0  0  0  0  0  0  0
    0.8871   -1.2078   -0.0005 C   0  0  0  0  0  0  0  0  0  0  0  0
    0.8878    1.2081    0.0028 C   0  0  0  0  0  0  0  0  0  0  0  0
   -1.9639    0.0010   -1.2076 C   0  0  0  0  0  0  0  0  0  0  0  0
   -1.9652   -0.0005    1.2083 C   0  0  0  0  0  0  0  0  0  0  0  0
    2.2828    1.2077    0.0018 C   0  0  0  0  0  0  0  0  0  0  0  0
    2.2820   -1.2082   -0.0016 C   0  0  0  0  0  0  0  0  0  0  0  0
    2.9799   -0.0004   -0.0003 C   0  0  0  0  0  0  0  0  0  0  0  0
   -3.3588    0.0010   -1.2085 C   0  0  0  0  0  0  0  0  0  0  0  0
   -3.3601   -0.0007    1.2075 C   0  0  0  0  0  0  0  0  0  0  0  0
   -4.0568    0.0000   -0.0009 C   0  0  0  0  0  0  0  0  0  0  0  0
   -1.4352    0.0016   -2.1580 H   0  0  0  0  0  0  0  0  0  0  0  0
   -1.4376   -0.0010    2.1592 H   0  0  0  0  0  0  0  0  0  0  0  0
    4.0682   -0.0007   -0.0011 H   0  0  0  0  0  0  0  0  0  0  0  0
   -3.9013    0.0015   -2.1493 H   0  0  0  0  0  0  0  0  0  0  0  0
   -3.9038   -0.0013    2.1477 H   0  0  0  0  0  0  0  0  0  0  0  0
   -5.1429   -0.0001   -0.0016 H   0  0  0  0  0  0  0  0  0  0  0  0
  1  7  1  0  0  0  0
  2  8  1  0  0  0  0
  3 11  1  0  0  0  0
  4 12  1  0  0  0  0
  5  6  1  0  0  0  0
  5  7  2  0  0  0  0
  5  8  1  0  0  0  0
  6  9  2  0  0  0  0
  6 10  1  0  0  0  0
  7 12  1  0  0  0  0
  8 11  2  0  0  0  0
  9 14  1  0  0  0  0
  9 17  1  0  0  0  0
 10 15  2  0  0  0  0
 10 18  1  0  0  0  0
 11 13  1  0  0  0  0
 12 13  2  0  0  0  0
 13 19  1  0  0  0  0
 14 16  2  0  0  0  0
 14 20  1  0  0  0  0
 15 16  1  0  0  0  0
 15 21  1  0  0  0  0
 16 22  1  0  0  0  0
M  END
> <PUBCHEM_COMPOUND_CID>
36402

> <PUBCHEM_CONFORMER_RMSD>
0.6

> <PUBCHEM_CONFORMER_DIVERSEORDER>
1

> <PUBCHEM_MMFF94_PARTIAL_CHARGES>
20
1 -0.18
10 -0.15
11 0.18
12 0.18
13 -0.15
14 -0.15
15 -0.15
16 -0.15
17 0.15
18 0.15
19 0.15
2 -0.18
20 0.15
21 0.15
22 0.15
3 -0.18
4 -0.18
7 0.18
8 0.18
9 -0.15

> <PUBCHEM_EFFECTIVE_ROTOR_COUNT>
1

> <PUBCHEM_PHARMACOPHORE_FEATURES>
2
6 5 7 8 11 12 13 rings
6 6 9 10 14 15 16 rings

> <PUBCHEM_HEAVY_ATOM_COUNT>
16

> <PUBCHEM_ATOM_DEF_STEREO_COUNT>
0

> <PUBCHEM_ATOM_UDEF_STEREO_COUNT>
0

> <PUBCHEM_BOND_DEF_STEREO_COUNT>
0

> <PUBCHEM_BOND_UDEF_STEREO_COUNT>
0

> <PUBCHEM_ISOTOPIC_ATOM_COUNT>
0

> <PUBCHEM_COMPONENT_COUNT>
1

> <PUBCHEM_CACTVS_TAUTO_COUNT>
1

> <PUBCHEM_CONFORMER_ID>
00008E3200000001

> <PUBCHEM_MMFF94_ENERGY>
48.6347

> <PUBCHEM_FEATURE_SELFOVERLAP>
10.149

> <PUBCHEM_SHAPE_FINGERPRINT>
10967382 1 18410856534218210368
10980938 120 18411420566318949352
11471102 20 18411984684387170927
11725454 13 16840837458256995757
12236239 1 17676487250601733003
12553582 1 18193271017107586286
13140716 1 18266744576400756250
13380535 21 18268702810393388158
13583140 156 16556810493620812352
14178342 30 18118976780142131520
14251717 144 18409735058038148359
15219456 202 18131633370227260021
15309172 13 18340201882483545489
15775835 57 18260828138132619829
16945 1 18410575089490796160
1813 80 17898276449948671662
18186145 218 18335135379989060573
18219364 16 18196931059113691353
19049666 15 17845663675839507621
19422 9 17967253104862388551
19784866 34 18192712241930974432
200 152 18188219796554587751
204376 136 18195808458105722208
20645477 70 18341060682832916631
21041028 32 18192423284777966232
21061003 4 18269264841171099563
21501502 16 18266734882143110816
21639500 275 18337400344004283893
22112679 90 17385728014801746185
2255824 54 18335136514277547822
22802520 49 18058740246004946101
2334 1 17978510828625863694
23402539 116 18119253006980679142
23557571 272 17131829859326073485
23559900 14 16773801436928910426
23598291 2 18040722471893392343
25 1 18339362950848461004
2748010 2 18122334680448487822
350125 39 17475226908124659952
458136 41 18268978809445038996
474 4 18190182282602013296
54173680 148 17474105879179911034
6049 1 17846213397209196533
633830 44 18115009853789946733
7364860 26 18408603661005469056
77492 1 17748544840291946115
81228 2 17618228746361906288
8272917 22 18335693984073855679
84936 182 18041284261815942368
9981440 41 15727296959949383816

> <PUBCHEM_SHAPE_MULTIPOLES>
336.75
6.24
2.92
0.98
2.73
0
0
0
0
-3.57
0
0.95
0
0

> <PUBCHEM_SHAPE_SELFOVERLAP>
695.569

> <PUBCHEM_SHAPE_VOLUME>
187.3

> <PUBCHEM_COORDINATE_TYPE>
2
5
10

$$$$

