10892
  -OEChem-06261205053D

 12 12  0     0  0  0  0  0  0999 V2000
    2.7341    0.0000    0.0002 F   0  0  0  0  0  0  0  0  0  0  0  0
   -2.7343   -0.0002    0.0002 F   0  0  0  0  0  0  0  0  0  0  0  0
    1.3949    0.0000   -0.0001 C   0  0  0  0  0  0  0  0  0  0  0  0
   -1.3949    0.0000   -0.0001 C   0  0  0  0  0  0  0  0  0  0  0  0
    0.6975   -1.2080    0.0000 C   0  0  0  0  0  0  0  0  0  0  0  0
   -0.6973   -1.2080   -0.0001 C   0  0  0  0  0  0  0  0  0  0  0  0
    0.6975    1.2080   -0.0001 C   0  0  0  0  0  0  0  0  0  0  0  0
   -0.6975    1.2081   -0.0001 C   0  0  0  0  0  0  0  0  0  0  0  0
    1.2409   -2.1483    0.0001 H   0  0  0  0  0  0  0  0  0  0  0  0
   -1.2405   -2.1483   -0.0001 H   0  0  0  0  0  0  0  0  0  0  0  0
    1.2408    2.1483    0.0000 H   0  0  0  0  0  0  0  0  0  0  0  0
   -1.2407    2.1485    0.0000 H   0  0  0  0  0  0  0  0  0  0  0  0
  1  3  1  0  0  0  0
  2  4  1  0  0  0  0
  3  5  2  0  0  0  0
  3  7  1  0  0  0  0
  4  6  2  0  0  0  0
  4  8  1  0  0  0  0
  5  6  1  0  0  0  0
  5  9  1  0  0  0  0
  6 10  1  0  0  0  0
  7  8  2  0  0  0  0
  7 11  1  0  0  0  0
  8 12  1  0  0  0  0
M  END
> <PUBCHEM_COMPOUND_CID>
10892

> <PUBCHEM_CONFORMER_RMSD>
0.4

> <PUBCHEM_CONFORMER_DIVERSEORDER>
1

> <PUBCHEM_MMFF94_PARTIAL_CHARGES>
12
1 -0.19
10 0.15
11 0.15
12 0.15
2 -0.19
3 0.19
4 0.19
5 -0.15
6 -0.15
7 -0.15
8 -0.15
9 0.15

> <PUBCHEM_EFFECTIVE_ROTOR_COUNT>
0

> <PUBCHEM_PHARMACOPHORE_FEATURES>
1
6 3 4 5 6 7 8 rings

> <PUBCHEM_HEAVY_ATOM_COUNT>
8

> <PUBCHEM_ATOM_DEF_STEREO_COUNT>
0

> <PUBCHEM_ATOM_UDEF_STEREO_COUNT>
0

> <PUBCHEM_BOND_DEF_STEREO_COUNT>
0

> <PUBCHEM_BOND_UDEF_STEREO_COUNT>
0

> <PUBCHEM_ISOTOPIC_ATOM_COUNT>
0

> <PUBCHEM_COMPONENT_COUNT>
1

> <PUBCHEM_CACTVS_TAUTO_COUNT>
1

> <PUBCHEM_CONFORMER_ID>
00002A8C00000001

> <PUBCHEM_MMFF94_ENERGY>
13.2903

> <PUBCHEM_FEATURE_SELFOVERLAP>
5.074

> <PUBCHEM_SHAPE_FINGERPRINT>
16714656 1 18410571786328636238
18185500 45 18410578366039309031
20096714 4 18338234868945017259
21040471 1 18338516343889988451
23402655 69 18193858144117615797
23552423 10 18055626467798322510
29004967 10 18271799138073787961

> <PUBCHEM_SHAPE_MULTIPOLES>
150.09
2.71
1.39
0.59
0
0
0
0
0
0
0
0
0
0

> <PUBCHEM_SHAPE_SELFOVERLAP>
313.938

> <PUBCHEM_SHAPE_VOLUME>
84.7

> <PUBCHEM_COORDINATE_TYPE>
2
5
10

$$$$

