17395965
  -OEChem-06241222533D

 39 40  0     1  0  0  0  0  0999 V2000
    5.7921    2.0638   -0.5035 Cl  0  0  0  0  0  0  0  0  0  0  0  0
   -2.2282   -1.6661   -0.2566 S   0  0  0  0  0  0  0  0  0  0  0  0
    0.9051   -2.5732   -1.2328 O   0  0  0  0  0  0  0  0  0  0  0  0
   -2.5098    0.9858    0.2872 N   0  0  0  0  0  0  0  0  0  0  0  0
   -2.3203    1.8804    1.2671 N   0  0  0  0  0  0  0  0  0  0  0  0
   -1.7088   -0.1516    1.9507 N   0  0  0  0  0  0  0  0  0  0  0  0
   -1.8307    1.1789    2.2821 N   0  0  0  0  0  0  0  0  0  0  0  0
    0.9550   -1.0641    0.5638 N   0  0  0  0  0  0  0  0  0  0  0  0
    2.4571    0.6753    1.1753 N   0  0  0  0  0  0  0  0  0  0  0  0
   -3.0575    1.4160   -1.0287 C   0  0  0  0  0  0  0  0  0  0  0  0
   -3.3688    2.9307   -1.1153 C   0  0  0  0  0  0  0  0  0  0  0  0
   -2.0365    1.1053   -2.1458 C   0  0  0  0  0  0  0  0  0  0  0  0
   -4.3805    0.6701   -1.3117 C   0  0  0  0  0  0  0  0  0  0  0  0
   -2.1351   -0.2487    0.7125 C   0  0  0  0  0  0  0  0  0  0  0  0
   -0.8542   -2.6529    0.4084 C   0  0  1  0  0  0  0  0  0  0  0  0
   -1.0652   -4.1219    0.0642 C   0  0  0  0  0  0  0  0  0  0  0  0
    0.4382   -2.1109   -0.1952 C   0  0  0  0  0  0  0  0  0  0  0  0
    2.1236   -0.3077    0.3090 C   0  0  0  0  0  0  0  0  0  0  0  0
    2.8566   -0.6256   -0.8230 C   0  0  0  0  0  0  0  0  0  0  0  0
    4.0059    0.1128   -1.0827 C   0  0  0  0  0  0  0  0  0  0  0  0
    3.5804    1.3715    0.8899 C   0  0  0  0  0  0  0  0  0  0  0  0
    4.3816    1.1321   -0.2149 C   0  0  0  0  0  0  0  0  0  0  0  0
   -2.4665    3.5299   -0.9460 H   0  0  0  0  0  0  0  0  0  0  0  0
   -3.7691    3.2061   -2.0979 H   0  0  0  0  0  0  0  0  0  0  0  0
   -4.1086    3.2257   -0.3620 H   0  0  0  0  0  0  0  0  0  0  0  0
   -1.0492    1.5133   -1.8985 H   0  0  0  0  0  0  0  0  0  0  0  0
   -1.9133    0.0398   -2.3470 H   0  0  0  0  0  0  0  0  0  0  0  0
   -2.3504    1.5555   -3.0954 H   0  0  0  0  0  0  0  0  0  0  0  0
   -5.0686    0.7556   -0.4624 H   0  0  0  0  0  0  0  0  0  0  0  0
   -4.8857    1.0952   -2.1876 H   0  0  0  0  0  0  0  0  0  0  0  0
   -4.2510   -0.3910   -1.5306 H   0  0  0  0  0  0  0  0  0  0  0  0
   -0.8204   -2.5721    1.5006 H   0  0  0  0  0  0  0  0  0  0  0  0
   -1.1310   -4.2899   -1.0171 H   0  0  0  0  0  0  0  0  0  0  0  0
   -0.2242   -4.7216    0.4307 H   0  0  0  0  0  0  0  0  0  0  0  0
   -1.9771   -4.5127    0.5290 H   0  0  0  0  0  0  0  0  0  0  0  0
    0.4634   -0.7906    1.4106 H   0  0  0  0  0  0  0  0  0  0  0  0
    2.6306   -1.3970   -1.5401 H   0  0  0  0  0  0  0  0  0  0  0  0
    4.6001   -0.1149   -1.9639 H   0  0  0  0  0  0  0  0  0  0  0  0
    3.8194    2.1531    1.6048 H   0  0  0  0  0  0  0  0  0  0  0  0
  1 22  1  0  0  0  0
  2 14  1  0  0  0  0
  2 15  1  0  0  0  0
  3 17  2  0  0  0  0
  4  5  1  0  0  0  0
  4 10  1  0  0  0  0
  4 14  1  0  0  0  0
  5  7  2  0  0  0  0
  6  7  1  0  0  0  0
  6 14  2  0  0  0  0
  8 17  1  0  0  0  0
  8 18  1  0  0  0  0
  8 36  1  0  0  0  0
  9 18  2  0  0  0  0
  9 21  1  0  0  0  0
 10 11  1  0  0  0  0
 10 12  1  0  0  0  0
 10 13  1  0  0  0  0
 11 23  1  0  0  0  0
 11 24  1  0  0  0  0
 11 25  1  0  0  0  0
 12 26  1  0  0  0  0
 12 27  1  0  0  0  0
 12 28  1  0  0  0  0
 13 29  1  0  0  0  0
 13 30  1  0  0  0  0
 13 31  1  0  0  0  0
 15 16  1  0  0  0  0
 15 17  1  0  0  0  0
 15 32  1  0  0  0  0
 16 33  1  0  0  0  0
 16 34  1  0  0  0  0
 16 35  1  0  0  0  0
 18 19  1  0  0  0  0
 19 20  2  0  0  0  0
 19 37  1  0  0  0  0
 20 22  1  0  0  0  0
 20 38  1  0  0  0  0
 21 22  2  0  0  0  0
 21 39  1  0  0  0  0
M  END
> <PUBCHEM_COMPOUND_CID>
17395965

> <PUBCHEM_CONFORMER_RMSD>
0.8

> <PUBCHEM_CONFORMER_DIVERSEORDER>
1
38
41
45
43
12
50
7
52
47
21
30
4
32
14
56
63
26
28
18
44
5
16
8
35
37
17
42
61
60
20
11
46
29
25
40
54
34
19
51
2
15
48
23
53
3
55
58
49
27
57
39
9
36
59
31
13
62
33
10
22
24
6

> <PUBCHEM_MMFF94_PARTIAL_CHARGES>
21
1 -0.18
10 0.26
14 0.24
15 0.29
17 0.57
18 0.43
19 -0.15
2 -0.29
20 -0.15
21 0.16
22 0.18
3 -0.57
36 0.37
37 0.15
38 0.15
39 0.15
4 0.31
5 -0.42
6 -0.34
8 -0.55
9 -0.62

> <PUBCHEM_EFFECTIVE_ROTOR_COUNT>
6

> <PUBCHEM_PHARMACOPHORE_FEATURES>
7
1 16 hydrophobe
1 3 acceptor
1 8 donor
3 4 6 14 cation
4 10 11 12 13 hydrophobe
5 4 5 6 7 14 rings
6 9 18 19 20 21 22 rings

> <PUBCHEM_HEAVY_ATOM_COUNT>
22

> <PUBCHEM_ATOM_DEF_STEREO_COUNT>
0

> <PUBCHEM_ATOM_UDEF_STEREO_COUNT>
1

> <PUBCHEM_BOND_DEF_STEREO_COUNT>
0

> <PUBCHEM_BOND_UDEF_STEREO_COUNT>
0

> <PUBCHEM_ISOTOPIC_ATOM_COUNT>
0

> <PUBCHEM_COMPONENT_COUNT>
1

> <PUBCHEM_CACTVS_TAUTO_COUNT>
3

> <PUBCHEM_CONFORMER_ID>
010970FD00000001

> <PUBCHEM_MMFF94_ENERGY>
57.0004

> <PUBCHEM_FEATURE_SELFOVERLAP>
35.52

> <PUBCHEM_SHAPE_FINGERPRINT>
10165383 225 17835757084415371223
10498660 4 18411700971986063908
10670039 82 17690826875674072092
11045515 52 17618506484501382454
11221954 11 17485650669366792845
11725454 13 17201938122374545117
12173636 292 18189037819861991001
12633257 1 14261350245785630260
12788726 201 17914066308301067547
12969540 37 7706590841659803045
13103583 49 10519419792022476677
13134695 92 17121428741120572019
13583140 156 17846214419822993472
13994607 96 18042401344260109348
14251764 30 4750581357129932885
14468879 13 18059292179646717265
14957384 54 18060147518167921508
15163728 17 18199470033552412453
15295992 7 17199098173960563785
15463212 79 18129953277805495106
17357779 13 17755032899378287231
17492 54 18127999463086388175
18219364 16 18124580127583815603
192875 21 17897461685740607554
19930381 70 18197227064465917957
21095088 737 18333736796903828444
21524375 3 18339364166150515643
22907989 373 18191584147031417756
22956985 138 15747537749493979490
23419403 2 14425655774551678531
23557571 272 18118678812591711566
238 59 18117282655835336879
27216 239 18060696178321939901
4028521 119 18333733494137034422
469060 322 17986660472919503555
633830 44 17824241895190702876
7097593 13 10230028306301687343
7808743 9 18271247114960701684
81228 2 18051961537650099162
9981440 41 18272097144516745321

> <PUBCHEM_SHAPE_MULTIPOLES>
422.71
9.04
3.65
1.7
11.2
2.8
-0.39
-8.02
2.29
-2.59
0.7
-1.07
-0.72
0.77

> <PUBCHEM_SHAPE_SELFOVERLAP>
853.919

> <PUBCHEM_SHAPE_VOLUME>
251

> <PUBCHEM_COORDINATE_TYPE>
2
5
10

$$$$

