185301
  -OEChem-07051212583D

 28 29  0     1  0  0  0  0  0999 V2000
    0.1036    2.4030    0.6832 O   0  0  0  0  0  0  0  0  0  0  0  0
    3.0930   -0.4016    0.2462 O   0  0  0  0  0  0  0  0  0  0  0  0
    2.1011    1.3387   -0.8881 O   0  0  0  0  0  0  0  0  0  0  0  0
   -0.3218   -2.6428    0.1476 N   0  0  0  0  0  0  0  0  0  0  0  0
   -2.8254    0.2414    0.2526 C   0  0  2  0  0  0  0  0  0  0  0  0
   -2.1802    1.6107    0.5534 C   0  0  0  0  0  0  0  0  0  0  0  0
   -0.7732    1.5892   -0.0713 C   0  0  2  0  0  0  0  0  0  0  0  0
   -1.6053   -0.6256    0.1832 C   0  0  0  0  0  0  0  0  0  0  0  0
   -0.4431    0.1297    0.0139 C   0  0  0  0  0  0  0  0  0  0  0  0
   -3.6071    0.2370   -1.0552 C   0  0  0  0  0  0  0  0  0  0  0  0
    0.7858   -0.4893   -0.1034 C   0  0  0  0  0  0  0  0  0  0  0  0
   -1.5062   -1.9969    0.2445 C   0  0  0  0  0  0  0  0  0  0  0  0
    0.7876   -1.8746   -0.0243 C   0  0  0  0  0  0  0  0  0  0  0  0
    2.0203    0.2504   -0.3002 C   0  0  0  0  0  0  0  0  0  0  0  0
    4.3710    0.2306    0.1179 C   0  0  0  0  0  0  0  0  0  0  0  0
   -3.4743   -0.0570    1.0833 H   0  0  0  0  0  0  0  0  0  0  0  0
   -2.7747    2.4562    0.1900 H   0  0  0  0  0  0  0  0  0  0  0  0
   -2.0981    1.7422    1.6425 H   0  0  0  0  0  0  0  0  0  0  0  0
   -0.7884    1.9168   -1.1166 H   0  0  0  0  0  0  0  0  0  0  0  0
   -4.4563    0.9259   -0.9971 H   0  0  0  0  0  0  0  0  0  0  0  0
   -2.9857    0.5388   -1.9059 H   0  0  0  0  0  0  0  0  0  0  0  0
   -3.9986   -0.7630   -1.2721 H   0  0  0  0  0  0  0  0  0  0  0  0
   -2.3766   -2.6297    0.3721 H   0  0  0  0  0  0  0  0  0  0  0  0
   -0.2469    3.3096    0.6592 H   0  0  0  0  0  0  0  0  0  0  0  0
    1.7029   -2.4532   -0.1118 H   0  0  0  0  0  0  0  0  0  0  0  0
    5.1163   -0.4065    0.6012 H   0  0  0  0  0  0  0  0  0  0  0  0
    4.3616    1.2040    0.6170 H   0  0  0  0  0  0  0  0  0  0  0  0
    4.6325    0.3405   -0.9387 H   0  0  0  0  0  0  0  0  0  0  0  0
  1  7  1  0  0  0  0
  1 24  1  0  0  0  0
  2 14  1  0  0  0  0
  2 15  1  0  0  0  0
  3 14  2  0  0  0  0
  4 12  1  0  0  0  0
  4 13  2  0  0  0  0
  5  6  1  0  0  0  0
  5  8  1  0  0  0  0
  5 10  1  0  0  0  0
  5 16  1  0  0  0  0
  6  7  1  0  0  0  0
  6 17  1  0  0  0  0
  6 18  1  0  0  0  0
  7  9  1  0  0  0  0
  7 19  1  0  0  0  0
  8  9  1  0  0  0  0
  8 12  2  0  0  0  0
  9 11  2  0  0  0  0
 10 20  1  0  0  0  0
 10 21  1  0  0  0  0
 10 22  1  0  0  0  0
 11 13  1  0  0  0  0
 11 14  1  0  0  0  0
 12 23  1  0  0  0  0
 13 25  1  0  0  0  0
 15 26  1  0  0  0  0
 15 27  1  0  0  0  0
 15 28  1  0  0  0  0
M  END
> <PUBCHEM_COMPOUND_CID>
185301

> <PUBCHEM_CONFORMER_RMSD>
0.6

> <PUBCHEM_CONFORMER_DIVERSEORDER>
3
1
4
2

> <PUBCHEM_MMFF94_PARTIAL_CHARGES>
16
1 -0.68
11 0.09
12 0.16
13 0.16
14 0.63
15 0.28
2 -0.43
23 0.15
24 0.4
25 0.15
3 -0.57
4 -0.62
5 0.14
7 0.42
8 -0.14
9 -0.14

> <PUBCHEM_EFFECTIVE_ROTOR_COUNT>
2.6

> <PUBCHEM_PHARMACOPHORE_FEATURES>
6
1 1 acceptor
1 1 donor
1 3 acceptor
1 4 acceptor
5 5 6 7 8 9 rings
6 4 8 9 11 12 13 rings

> <PUBCHEM_HEAVY_ATOM_COUNT>
15

> <PUBCHEM_ATOM_DEF_STEREO_COUNT>
2

> <PUBCHEM_ATOM_UDEF_STEREO_COUNT>
0

> <PUBCHEM_BOND_DEF_STEREO_COUNT>
0

> <PUBCHEM_BOND_UDEF_STEREO_COUNT>
0

> <PUBCHEM_ISOTOPIC_ATOM_COUNT>
0

> <PUBCHEM_COMPONENT_COUNT>
1

> <PUBCHEM_CACTVS_TAUTO_COUNT>
1

> <PUBCHEM_CONFORMER_ID>
0002D3D500000003

> <PUBCHEM_MMFF94_ENERGY>
47.3367

> <PUBCHEM_FEATURE_SELFOVERLAP>
30.535

> <PUBCHEM_SHAPE_FINGERPRINT>
108231 29 18261391113723930801
10967382 1 18410853295538666562
11132069 177 18409169896139451496
11680986 33 18048324336105221401
12423570 1 13509274882350864457
13024252 1 14117801310355642631
13140716 1 18266170634866512177
13380535 76 18411138060413165014
14614273 12 18199471141648693669
14911166 2 18410019814527973013
14993402 34 18343864433288757996
15775835 57 18115023138012880593
16945 1 18341319080712682981
17846911 113 18408890650203340224
193761 8 17833550089832126633
20510252 161 18261108625346077888
20525323 117 18260547882879024905
20645476 183 17702364179315211566
20871998 184 18188765046468163166
21029758 11 18259992547876590065
21501502 16 18050280375712047309
22802520 49 17970319681236036542
2334 1 17978224967780746529
23402539 116 18261403246921905623
23419403 2 15954789334086255065
23463225 33 18343582979728952290
23493267 7 17632581569435111449
23552423 10 18051129495495101423
23559900 14 18334854984136058284
25 1 18270693072885165525
257057 1 17470455027728859374
2748010 2 17977103461963083849
353137 74 18339082704342887385
43471831 8 18268992153681944794
528886 8 18410859866896599899
54173680 148 18267862783415094626
7364860 26 17901383725115768342

> <PUBCHEM_SHAPE_MULTIPOLES>
286.1
5.32
2.34
0.78
3.63
0.58
0.09
-1.09
0.59
-0.49
-0.33
-0.26
-0.15
-0.16

> <PUBCHEM_SHAPE_SELFOVERLAP>
613.965

> <PUBCHEM_SHAPE_VOLUME>
160.4

> <PUBCHEM_COORDINATE_TYPE>
2
5
10

$$$$

