45746
  -OEChem-07051212483D

 20 20  0     0  0  0  0  0  0999 V2000
    3.2735    1.2800   -0.0734 O   0  0  0  0  0  0  0  0  0  0  0  0
    3.1930   -1.4957    0.0142 O   0  0  0  0  0  0  0  0  0  0  0  0
   -1.3997    2.6995    0.5205 O   0  0  0  0  0  0  0  0  0  0  0  0
   -2.0889   -1.6382    1.2862 O   0  0  0  0  0  0  0  0  0  0  0  0
   -2.6308    1.1247   -0.5615 O   0  0  0  0  0  0  0  0  0  0  0  0
   -2.2638   -1.8028   -0.9741 O   0  0  0  0  0  0  0  0  0  0  0  0
   -0.3346    0.6932   -0.0471 C   0  0  0  0  0  0  0  0  0  0  0  0
   -0.3750   -0.7004   -0.0041 C   0  0  0  0  0  0  0  0  0  0  0  0
    0.8932    1.3549   -0.0698 C   0  0  0  0  0  0  0  0  0  0  0  0
    0.8123   -1.4323    0.0161 C   0  0  0  0  0  0  0  0  0  0  0  0
    2.0805    0.6230   -0.0497 C   0  0  0  0  0  0  0  0  0  0  0  0
    2.0400   -0.7707   -0.0067 C   0  0  0  0  0  0  0  0  0  0  0  0
   -1.5578    1.4848   -0.0709 C   0  0  0  0  0  0  0  0  0  0  0  0
   -1.6419   -1.4199    0.0203 C   0  0  0  0  0  0  0  0  0  0  0  0
    0.9442    2.4401   -0.1177 H   0  0  0  0  0  0  0  0  0  0  0  0
    0.7870   -2.5192    0.0496 H   0  0  0  0  0  0  0  0  0  0  0  0
    3.1087    2.2381   -0.1016 H   0  0  0  0  0  0  0  0  0  0  0  0
    3.9438   -0.8772   -0.0061 H   0  0  0  0  0  0  0  0  0  0  0  0
   -2.2273    3.2258    0.5006 H   0  0  0  0  0  0  0  0  0  0  0  0
   -2.9418   -2.1230    1.2937 H   0  0  0  0  0  0  0  0  0  0  0  0
  1 11  1  0  0  0  0
  1 17  1  0  0  0  0
  2 12  1  0  0  0  0
  2 18  1  0  0  0  0
  3 13  1  0  0  0  0
  3 19  1  0  0  0  0
  4 14  1  0  0  0  0
  4 20  1  0  0  0  0
  5 13  2  0  0  0  0
  6 14  2  0  0  0  0
  7  8  1  0  0  0  0
  7  9  2  0  0  0  0
  7 13  1  0  0  0  0
  8 10  2  0  0  0  0
  8 14  1  0  0  0  0
  9 11  1  0  0  0  0
  9 15  1  0  0  0  0
 10 12  1  0  0  0  0
 10 16  1  0  0  0  0
 11 12  2  0  0  0  0
M  END
> <PUBCHEM_COMPOUND_CID>
45746

> <PUBCHEM_CONFORMER_RMSD>
0.6

> <PUBCHEM_CONFORMER_DIVERSEORDER>
1
2

> <PUBCHEM_MMFF94_PARTIAL_CHARGES>
20
1 -0.53
10 -0.15
11 0.08
12 0.08
13 0.63
14 0.63
15 0.15
16 0.15
17 0.45
18 0.45
19 0.5
2 -0.53
20 0.5
3 -0.65
4 -0.65
5 -0.57
6 -0.57
7 0.09
8 0.09
9 -0.15

> <PUBCHEM_EFFECTIVE_ROTOR_COUNT>
2

> <PUBCHEM_PHARMACOPHORE_FEATURES>
9
1 1 donor
1 2 donor
1 3 acceptor
1 4 acceptor
1 5 acceptor
1 6 acceptor
3 3 5 13 anion
3 4 6 14 anion
6 7 8 9 10 11 12 rings

> <PUBCHEM_HEAVY_ATOM_COUNT>
14

> <PUBCHEM_ATOM_DEF_STEREO_COUNT>
0

> <PUBCHEM_ATOM_UDEF_STEREO_COUNT>
0

> <PUBCHEM_BOND_DEF_STEREO_COUNT>
0

> <PUBCHEM_BOND_UDEF_STEREO_COUNT>
0

> <PUBCHEM_ISOTOPIC_ATOM_COUNT>
0

> <PUBCHEM_COMPONENT_COUNT>
1

> <PUBCHEM_CACTVS_TAUTO_COUNT>
8

> <PUBCHEM_CONFORMER_ID>
0000B2B200000001

> <PUBCHEM_MMFF94_ENERGY>
45.1318

> <PUBCHEM_FEATURE_SELFOVERLAP>
45.79

> <PUBCHEM_SHAPE_FINGERPRINT>
11206711 2 18268144271276395724
13140716 1 18339642343029433258
13380535 21 18339909494195467188
13380535 76 18266182914246712774
15490181 8 18047463706131567157
16945 1 18192995039456243358
193761 8 18410574002647863924
19973954 147 18411417315191989772
20525323 117 18339647741507937834
20871998 184 18334007315587661743
21040471 1 18194119844178223380
21501502 16 18411140242588399542
21524375 3 17979916334808649413
22802520 49 18190162641879650830
2334 1 18411980230854250966
23419403 2 16755859481326815932
23552423 10 18272370862856514838
23559900 14 18045495581473682006
2748010 2 18410292506243757254
81228 2 18341615893202594425

> <PUBCHEM_SHAPE_MULTIPOLES>
252.9
4.1
2.46
0.76
1.94
0.54
0.06
-0.31
-0.19
-1.03
0.18
-0.39
-0.19
-0.01

> <PUBCHEM_SHAPE_SELFOVERLAP>
544.586

> <PUBCHEM_SHAPE_VOLUME>
139.3

> <PUBCHEM_COORDINATE_TYPE>
2
5
10

$$$$

