11953824
  -OEChem-07051212482D

 80 82  0     1  0  0  0  0  0999 V2000
    5.8520   -0.1111    0.0000 O   0  0  0  0  0  0  0  0  0  0  0  0
    7.6316   -0.0178    0.0000 O   0  0  0  0  0  0  0  0  0  0  0  0
    6.0794    2.0526    0.0000 O   0  0  0  0  0  0  0  0  0  0  0  0
    7.2384    3.3398    0.0000 O   0  0  0  0  0  0  0  0  0  0  0  0
    7.5841   -1.1111    0.0000 O   0  0  0  0  0  0  0  0  0  0  0  0
    4.1200   -3.1111    0.0000 O   0  0  0  0  0  0  0  0  0  0  0  0
    7.5841   -3.1111    0.0000 O   0  0  0  0  0  0  0  0  0  0  0  0
    9.2020    2.6094    0.0000 O   0  0  0  0  0  0  0  0  0  0  0  0
    5.0090    5.3472    0.0000 O   0  0  0  0  0  0  0  0  0  0  0  0
    6.9111    5.9652    0.0000 O   0  0  0  0  0  0  0  0  0  0  0  0
    8.6053    5.6051    0.0000 O   0  0  0  0  0  0  0  0  0  0  0  0
    4.1200   -1.1111    0.0000 N   0  0  0  0  0  0  0  0  0  0  0  0
    5.8520   -4.1111    0.0000 N   0  0  0  0  0  0  0  0  0  0  0  0
    4.5932    3.3909    0.0000 N   0  0  0  0  0  0  0  0  0  0  0  0
    2.6200   -0.2449    0.0000 N   0  0  0  0  0  0  0  0  0  0  0  0
    2.6200   -1.9771    0.0000 N   0  0  0  0  0  0  0  0  0  0  0  0
    5.8520   -5.8431    0.0000 N   0  0  0  0  0  0  0  0  0  0  0  0
    7.3520   -4.9771    0.0000 N   0  0  0  0  0  0  0  0  0  0  0  0
    6.8226    1.3835    0.0000 C   0  0  2  0  0  0  0  0  0  0  0  0
    7.8008    1.5914    0.0000 C   0  0  2  0  0  0  0  0  0  0  0  0
    5.8520   -1.1111    0.0000 C   0  0  2  0  0  0  0  0  0  0  0  0
    6.7181    0.3889    0.0000 C   0  0  2  0  0  0  0  0  0  0  0  0
    4.9860   -1.6111    0.0000 C   0  0  2  0  0  0  0  0  0  0  0  0
    8.3008    0.7254    0.0000 C   0  0  2  0  0  0  0  0  0  0  0  0
    6.7181   -1.6111    0.0000 C   0  0  1  0  0  0  0  0  0  0  0  0
    4.9860   -2.6111    0.0000 C   0  0  1  0  0  0  0  0  0  0  0  0
    6.7181   -2.6111    0.0000 C   0  0  2  0  0  0  0  0  0  0  0  0
    5.8520   -3.1111    0.0000 C   0  0  2  0  0  0  0  0  0  0  0  0
    6.2874    3.0307    0.0000 C   0  0  2  0  0  0  0  0  0  0  0  0
    5.5442    3.6999    0.0000 C   0  0  2  0  0  0  0  0  0  0  0  0
    8.2075    2.5049    0.0000 C   0  0  0  0  0  0  0  0  0  0  0  0
    5.7521    4.6780    0.0000 C   0  0  1  0  0  0  0  0  0  0  0  0
    6.7032    4.9870    0.0000 C   0  0  2  0  0  0  0  0  0  0  0  0
    9.2953    0.6208    0.0000 C   0  0  0  0  0  0  0  0  0  0  0  0
    7.4463    4.3179    0.0000 C   0  0  2  0  0  0  0  0  0  0  0  0
    8.3974    4.6269    0.0000 C   0  0  0  0  0  0  0  0  0  0  0  0
    3.1200   -1.1110    0.0000 C   0  0  0  0  0  0  0  0  0  0  0  0
    3.8500    4.0600    0.0000 C   0  0  0  0  0  0  0  0  0  0  0  0
    6.3520   -4.9771    0.0000 C   0  0  0  0  0  0  0  0  0  0  0  0
    6.9831    1.9823    0.0000 H   0  0  0  0  0  0  0  0  0  0  0  0
    7.4106    2.0732    0.0000 H   0  0  0  0  0  0  0  0  0  0  0  0
    6.3890   -0.8011    0.0000 H   0  0  0  0  0  0  0  0  0  0  0  0
    6.7505   -0.2302    0.0000 H   0  0  0  0  0  0  0  0  0  0  0  0
    4.9860   -0.9911    0.0000 H   0  0  0  0  0  0  0  0  0  0  0  0
    8.5229    0.1465    0.0000 H   0  0  0  0  0  0  0  0  0  0  0  0
    6.7181   -0.9911    0.0000 H   0  0  0  0  0  0  0  0  0  0  0  0
    4.9860   -3.2311    0.0000 H   0  0  0  0  0  0  0  0  0  0  0  0
    6.7181   -3.2311    0.0000 H   0  0  0  0  0  0  0  0  0  0  0  0
    6.3890   -3.4211    0.0000 H   0  0  0  0  0  0  0  0  0  0  0  0
    5.6977    2.8392    0.0000 H   0  0  0  0  0  0  0  0  0  0  0  0
    5.4153    3.0934    0.0000 H   0  0  0  0  0  0  0  0  0  0  0  0
    8.2507    3.1234    0.0000 H   0  0  0  0  0  0  0  0  0  0  0  0
    7.6059    2.6549    0.0000 H   0  0  0  0  0  0  0  0  0  0  0  0
    5.1625    4.4864    0.0000 H   0  0  0  0  0  0  0  0  0  0  0  0
    7.2928    5.1786    0.0000 H   0  0  0  0  0  0  0  0  0  0  0  0
    7.9071    3.9030    0.0000 H   0  0  0  0  0  0  0  0  0  0  0  0
    9.2305    0.0042    0.0000 H   0  0  0  0  0  0  0  0  0  0  0  0
    9.9119    0.5560    0.0000 H   0  0  0  0  0  0  0  0  0  0  0  0
    9.3601    1.2374    0.0000 H   0  0  0  0  0  0  0  0  0  0  0  0
    8.1210   -1.4211    0.0000 H   0  0  0  0  0  0  0  0  0  0  0  0
    4.4643    2.7844    0.0000 H   0  0  0  0  0  0  0  0  0  0  0  0
    4.1200   -3.7311    0.0000 H   0  0  0  0  0  0  0  0  0  0  0  0
    8.1210   -2.8011    0.0000 H   0  0  0  0  0  0  0  0  0  0  0  0
    8.4837    4.0130    0.0000 H   0  0  0  0  0  0  0  0  0  0  0  0
    9.0170    4.6053    0.0000 H   0  0  0  0  0  0  0  0  0  0  0  0
    9.4542    3.1758    0.0000 H   0  0  0  0  0  0  0  0  0  0  0  0
    5.1379    5.9536    0.0000 H   0  0  0  0  0  0  0  0  0  0  0  0
    6.4504    6.3800    0.0000 H   0  0  0  0  0  0  0  0  0  0  0  0
    4.2649    4.5207    0.0000 H   0  0  0  0  0  0  0  0  0  0  0  0
    3.3893    4.4748    0.0000 H   0  0  0  0  0  0  0  0  0  0  0  0
    3.4352    3.5992    0.0000 H   0  0  0  0  0  0  0  0  0  0  0  0
    9.1950    5.7967    0.0000 H   0  0  0  0  0  0  0  0  0  0  0  0
    2.0000   -0.2450    0.0000 H   0  0  0  0  0  0  0  0  0  0  0  0
    2.9300    0.2919    0.0000 H   0  0  0  0  0  0  0  0  0  0  0  0
    2.0000   -1.9771    0.0000 H   0  0  0  0  0  0  0  0  0  0  0  0
    2.9300   -2.5141    0.0000 H   0  0  0  0  0  0  0  0  0  0  0  0
    6.1620   -6.3800    0.0000 H   0  0  0  0  0  0  0  0  0  0  0  0
    5.2320   -5.8431    0.0000 H   0  0  0  0  0  0  0  0  0  0  0  0
    7.6620   -5.5140    0.0000 H   0  0  0  0  0  0  0  0  0  0  0  0
    7.6620   -4.4402    0.0000 H   0  0  0  0  0  0  0  0  0  0  0  0
 21  1  1  1  0  0  0
 22  1  1  1  0  0  0
  2 22  1  0  0  0  0
  2 24  1  0  0  0  0
 19  3  1  6  0  0  0
 29  3  1  1  0  0  0
  4 29  1  0  0  0  0
  4 35  1  0  0  0  0
 25  5  1  6  0  0  0
  5 60  1  0  0  0  0
 26  6  1  1  0  0  0
  6 62  1  0  0  0  0
 27  7  1  1  0  0  0
  7 63  1  0  0  0  0
  8 31  1  0  0  0  0
  8 66  1  0  0  0  0
 32  9  1  6  0  0  0
  9 67  1  0  0  0  0
 33 10  1  1  0  0  0
 10 68  1  0  0  0  0
 11 36  1  0  0  0  0
 11 72  1  0  0  0  0
 23 12  1  6  0  0  0
 12 37  2  0  0  0  0
 28 13  1  6  0  0  0
 13 39  2  0  0  0  0
 30 14  1  1  0  0  0
 14 38  1  0  0  0  0
 14 61  1  0  0  0  0
 15 37  1  0  0  0  0
 15 73  1  0  0  0  0
 15 74  1  0  0  0  0
 16 37  1  0  0  0  0
 16 75  1  0  0  0  0
 16 76  1  0  0  0  0
 17 39  1  0  0  0  0
 17 77  1  0  0  0  0
 17 78  1  0  0  0  0
 18 39  1  0  0  0  0
 18 79  1  0  0  0  0
 18 80  1  0  0  0  0
 19 20  1  0  0  0  0
 19 22  1  0  0  0  0
 19 40  1  0  0  0  0
 20 24  1  0  0  0  0
 20 31  1  1  0  0  0
 20 41  1  0  0  0  0
 21 23  1  0  0  0  0
 21 25  1  0  0  0  0
 21 42  1  0  0  0  0
 22 43  1  0  0  0  0
 23 26  1  0  0  0  0
 23 44  1  0  0  0  0
 24 34  1  6  0  0  0
 24 45  1  0  0  0  0
 25 27  1  0  0  0  0
 25 46  1  0  0  0  0
 26 28  1  0  0  0  0
 26 47  1  0  0  0  0
 27 28  1  0  0  0  0
 27 48  1  0  0  0  0
 28 49  1  0  0  0  0
 29 30  1  0  0  0  0
 29 50  1  0  0  0  0
 30 32  1  0  0  0  0
 30 51  1  0  0  0  0
 31 52  1  0  0  0  0
 31 53  1  0  0  0  0
 32 33  1  0  0  0  0
 32 54  1  0  0  0  0
 33 35  1  0  0  0  0
 33 55  1  0  0  0  0
 34 57  1  0  0  0  0
 34 58  1  0  0  0  0
 34 59  1  0  0  0  0
 35 36  1  6  0  0  0
 35 56  1  0  0  0  0
 36 64  1  0  0  0  0
 36 65  1  0  0  0  0
 38 69  1  0  0  0  0
 38 70  1  0  0  0  0
 38 71  1  0  0  0  0
M  END
> <PUBCHEM_COMPOUND_CID>
11953824

> <PUBCHEM_COMPOUND_CANONICALIZED>
1

> <PUBCHEM_CACTVS_COMPLEXITY>
864

> <PUBCHEM_CACTVS_HBOND_ACCEPTOR>
14

> <PUBCHEM_CACTVS_HBOND_DONOR>
12

> <PUBCHEM_CACTVS_ROTATABLE_BOND>
9

> <PUBCHEM_CACTVS_SUBSKEYS>
AAADcfB7vAAAAAAAAAAAAAAAAAAAASAAAAA0QAAAAAAAAAAAAAAAHgAQCAAADTzxgAcDCALABgAgAAAAJAAAAAEAAAAAAIAIAAATEAIAwAAnQAAHEAAXAAHwcA8KAAAAAAAAAAACgAAUCACgAAAAAAAAAA==

> <PUBCHEM_IUPAC_OPENEYE_NAME>
2-[(1S,2R,3R,4S,5R,6R)-2-[(2S,3R,4S,5S)-3-[(2S,3S,4S,5R,6S)-4,5-dihydroxy-6-(hydroxymethyl)-3-(methylamino)tetrahydropyran-2-yl]oxy-4-(hydroxymethyl)-5-methyl-tetrahydrofuran-2-yl]oxy-5-guanidino-3,4,6-trihydroxy-cyclohexyl]guanidine

> <PUBCHEM_IUPAC_CAS_NAME>
2-[(1R,2R,3S,4R,5R,6S)-3-(diaminomethylideneamino)-4-[[(2S,3R,4S,5S)-3-[[(2S,3S,4S,5R,6S)-4,5-dihydroxy-6-(hydroxymethyl)-3-(methylamino)-2-oxanyl]oxy]-4-(hydroxymethyl)-5-methyl-2-oxolanyl]oxy]-2,5,6-trihydroxycyclohexyl]guanidine

> <PUBCHEM_IUPAC_NAME>
2-[(1R,2R,3S,4R,5R,6S)-3-(diaminomethylideneamino)-4-[(2S,3R,4S,5S)-3-[(2S,3S,4S,5R,6S)-4,5-dihydroxy-6-(hydroxymethyl)-3-(methylamino)oxan-2-yl]oxy-4-(hydroxymethyl)-5-methyloxolan-2-yl]oxy-2,5,6-trihydroxycyclohexyl]guanidine

> <PUBCHEM_IUPAC_SYSTEMATIC_NAME>
2-[(1R,2R,3S,4R,5R,6S)-3-[bis(azanyl)methylideneamino]-4-[(2S,3R,4S,5S)-4-(hydroxymethyl)-3-[(2S,3S,4S,5R,6S)-6-(hydroxymethyl)-3-(methylamino)-4,5-bis(oxidanyl)oxan-2-yl]oxy-5-methyl-oxolan-2-yl]oxy-2,5,6-tris(oxidanyl)cyclohexyl]guanidine

> <PUBCHEM_IUPAC_TRADITIONAL_NAME>
2-[(1S,2R,3R,4S,5R,6R)-2-[(2S,3R,4S,5S)-3-[(2S,3S,4S,5R,6S)-4,5-dihydroxy-3-(methylamino)-6-methylol-tetrahydropyran-2-yl]oxy-5-methyl-4-methylol-tetrahydrofuran-2-yl]oxy-5-guanidino-3,4,6-trihydroxy-cyclohexyl]guanidine

> <PUBCHEM_IUPAC_INCHI>
InChI=1S/C21H41N7O11/c1-5-6(3-29)16(38-18-10(26-2)14(34)11(31)7(4-30)37-18)19(36-5)39-17-9(28-21(24)25)12(32)8(27-20(22)23)13(33)15(17)35/h5-19,26,29-35H,3-4H2,1-2H3,(H4,22,23,27)(H4,24,25,28)/t5-,6-,7-,8+,9-,10-,11-,12+,13-,14-,15+,16+,17+,18-,19-/m0/s1

> <PUBCHEM_IUPAC_INCHIKEY>
RUQATQQNXCPTLL-PQMJGINDSA-N

> <PUBCHEM_XLOGP3_AA>
-7.1

> <PUBCHEM_EXACT_MASS>
567.286405

> <PUBCHEM_MOLECULAR_FORMULA>
C21H41N7O11

> <PUBCHEM_MOLECULAR_WEIGHT>
567.59054

> <PUBCHEM_OPENEYE_CAN_SMILES>
CC1C(C(C(O1)OC2C(C(C(C(C2O)O)N=C(N)N)O)N=C(N)N)OC3C(C(C(C(O3)CO)O)O)NC)CO

> <PUBCHEM_OPENEYE_ISO_SMILES>
C[C@H]1[C@@H]([C@H]([C@@H](O1)O[C@@H]2[C@H]([C@@H]([C@H]([C@@H]([C@H]2O)O)N=C(N)N)O)N=C(N)N)O[C@H]3[C@H]([C@@H]([C@H]([C@@H](O3)CO)O)O)NC)CO

> <PUBCHEM_CACTVS_TPSA>
319

> <PUBCHEM_MONOISOTOPIC_WEIGHT>
567.286405

> <PUBCHEM_TOTAL_CHARGE>
0

> <PUBCHEM_HEAVY_ATOM_COUNT>
39

> <PUBCHEM_ATOM_DEF_STEREO_COUNT>
15

> <PUBCHEM_ATOM_UDEF_STEREO_COUNT>
0

> <PUBCHEM_BOND_DEF_STEREO_COUNT>
0

> <PUBCHEM_BOND_UDEF_STEREO_COUNT>
0

> <PUBCHEM_ISOTOPIC_ATOM_COUNT>
0

> <PUBCHEM_COMPONENT_COUNT>
1

> <PUBCHEM_CACTVS_TAUTO_COUNT>
4

> <PUBCHEM_COORDINATE_TYPE>
1
5
255

> <PUBCHEM_BONDANNOTATIONS>
21  1  5
22  1  5
33  10  5
23  12  6
28  13  6
30  14  5
20  31  5
24  34  6
19  3  6
29  3  5
35  36  6
25  5  6
26  6  5
27  7  5
32  9  6

$$$$

