17396041
  -OEChem-06241222542D

 52 55  0     1  0  0  0  0  0999 V2000
    4.6783   -2.6296    0.0000 S   0  0  0  0  0  0  0  0  0  0  0  0
    8.5458    2.4501    0.0000 O   0  0  0  0  0  0  0  0  0  0  0  0
    7.9244    0.5491    0.0000 N   0  0  0  0  0  0  0  0  0  0  0  0
    5.9674    0.1366    0.0000 N   0  0  0  0  0  0  0  0  0  0  0  0
   10.1921    1.9120    0.0000 N   0  0  0  0  0  0  0  0  0  0  0  0
    8.9030    0.7553    0.0000 C   0  0  3  0  0  0  0  0  0  0  0  0
    7.2566    1.2934    0.0000 C   0  0  0  0  0  0  0  0  0  0  0  0
    7.6138   -0.4015    0.0000 C   0  0  0  0  0  0  0  0  0  0  0  0
    6.6353   -0.6077    0.0000 C   0  0  0  0  0  0  0  0  0  0  0  0
    6.2781    1.0871    0.0000 C   0  0  0  0  0  0  0  0  0  0  0  0
   10.9341    1.2416    0.0000 C   0  0  0  0  0  0  0  0  0  0  0  0
   10.6004    2.8248    0.0000 C   0  0  0  0  0  0  0  0  0  0  0  0
    9.2136    1.7058    0.0000 C   0  0  0  0  0  0  0  0  0  0  0  0
   11.8010    1.7401    0.0000 C   0  0  0  0  0  0  0  0  0  0  0  0
   11.5948    2.7186    0.0000 C   0  0  0  0  0  0  0  0  0  0  0  0
    4.9889   -0.0696    0.0000 C   0  0  0  0  0  0  0  0  0  0  0  0
    9.5708    0.0110    0.0000 C   0  0  0  0  0  0  0  0  0  0  0  0
    4.6783   -1.0201    0.0000 C   0  0  0  0  0  0  0  0  0  0  0  0
    3.7320   -1.3248    0.0000 C   0  0  0  0  0  0  0  0  0  0  0  0
    5.2619   -1.8248    0.0000 C   0  0  0  0  0  0  0  0  0  0  0  0
    3.7320   -2.3248    0.0000 C   0  0  0  0  0  0  0  0  0  0  0  0
    2.8660   -0.8249    0.0000 C   0  0  0  0  0  0  0  0  0  0  0  0
    2.8660   -2.8248    0.0000 C   0  0  0  0  0  0  0  0  0  0  0  0
    2.0000   -1.3248    0.0000 C   0  0  0  0  0  0  0  0  0  0  0  0
    2.0000   -2.3248    0.0000 C   0  0  0  0  0  0  0  0  0  0  0  0
    8.7104    0.1660    0.0000 H   0  0  0  0  0  0  0  0  0  0  0  0
    7.7830    1.6210    0.0000 H   0  0  0  0  0  0  0  0  0  0  0  0
    7.0254    1.8686    0.0000 H   0  0  0  0  0  0  0  0  0  0  0  0
    7.6344   -1.0211    0.0000 H   0  0  0  0  0  0  0  0  0  0  0  0
    8.2276   -0.4888    0.0000 H   0  0  0  0  0  0  0  0  0  0  0  0
    6.2575    1.7068    0.0000 H   0  0  0  0  0  0  0  0  0  0  0  0
    5.6643    1.1745    0.0000 H   0  0  0  0  0  0  0  0  0  0  0  0
    6.1089   -0.9353    0.0000 H   0  0  0  0  0  0  0  0  0  0  0  0
    6.8665   -1.1829    0.0000 H   0  0  0  0  0  0  0  0  0  0  0  0
   10.4726    0.8275    0.0000 H   0  0  0  0  0  0  0  0  0  0  0  0
   11.2977    0.7394    0.0000 H   0  0  0  0  0  0  0  0  0  0  0  0
   10.7304    3.4311    0.0000 H   0  0  0  0  0  0  0  0  0  0  0  0
   10.0111    3.0175    0.0000 H   0  0  0  0  0  0  0  0  0  0  0  0
   12.0522    1.1733    0.0000 H   0  0  0  0  0  0  0  0  0  0  0  0
   12.3910    1.9307    0.0000 H   0  0  0  0  0  0  0  0  0  0  0  0
   12.2115    2.7823    0.0000 H   0  0  0  0  0  0  0  0  0  0  0  0
   11.5959    3.3386    0.0000 H   0  0  0  0  0  0  0  0  0  0  0  0
    4.9684    0.5501    0.0000 H   0  0  0  0  0  0  0  0  0  0  0  0
    4.3751    0.0177    0.0000 H   0  0  0  0  0  0  0  0  0  0  0  0
    9.1093   -0.4031    0.0000 H   0  0  0  0  0  0  0  0  0  0  0  0
    9.9849   -0.4505    0.0000 H   0  0  0  0  0  0  0  0  0  0  0  0
   10.0323    0.4250    0.0000 H   0  0  0  0  0  0  0  0  0  0  0  0
    5.8819   -1.8248    0.0000 H   0  0  0  0  0  0  0  0  0  0  0  0
    2.8660   -0.2049    0.0000 H   0  0  0  0  0  0  0  0  0  0  0  0
    2.8660   -3.4448    0.0000 H   0  0  0  0  0  0  0  0  0  0  0  0
    1.4631   -1.0148    0.0000 H   0  0  0  0  0  0  0  0  0  0  0  0
    1.4631   -2.6348    0.0000 H   0  0  0  0  0  0  0  0  0  0  0  0
  1 20  1  0  0  0  0
  1 21  1  0  0  0  0
  2 13  2  0  0  0  0
  3  6  1  0  0  0  0
  3  7  1  0  0  0  0
  3  8  1  0  0  0  0
  4  9  1  0  0  0  0
  4 10  1  0  0  0  0
  4 16  1  0  0  0  0
  5 11  1  0  0  0  0
  5 12  1  0  0  0  0
  5 13  1  0  0  0  0
  6 13  1  0  0  0  0
  6 17  1  0  0  0  0
  6 26  1  0  0  0  0
  7 10  1  0  0  0  0
  7 27  1  0  0  0  0
  7 28  1  0  0  0  0
  8  9  1  0  0  0  0
  8 29  1  0  0  0  0
  8 30  1  0  0  0  0
  9 33  1  0  0  0  0
  9 34  1  0  0  0  0
 10 31  1  0  0  0  0
 10 32  1  0  0  0  0
 11 14  1  0  0  0  0
 11 35  1  0  0  0  0
 11 36  1  0  0  0  0
 12 15  1  0  0  0  0
 12 37  1  0  0  0  0
 12 38  1  0  0  0  0
 14 15  1  0  0  0  0
 14 39  1  0  0  0  0
 14 40  1  0  0  0  0
 15 41  1  0  0  0  0
 15 42  1  0  0  0  0
 16 18  1  0  0  0  0
 16 43  1  0  0  0  0
 16 44  1  0  0  0  0
 17 45  1  0  0  0  0
 17 46  1  0  0  0  0
 17 47  1  0  0  0  0
 18 19  1  0  0  0  0
 18 20  2  0  0  0  0
 19 21  1  0  0  0  0
 19 22  2  0  0  0  0
 20 48  1  0  0  0  0
 21 23  2  0  0  0  0
 22 24  1  0  0  0  0
 22 49  1  0  0  0  0
 23 25  1  0  0  0  0
 23 50  1  0  0  0  0
 24 25  2  0  0  0  0
 24 51  1  0  0  0  0
 25 52  1  0  0  0  0
M  END
> <PUBCHEM_COMPOUND_CID>
17396041

> <PUBCHEM_COMPOUND_CANONICALIZED>
1

> <PUBCHEM_CACTVS_COMPLEXITY>
460

> <PUBCHEM_CACTVS_HBOND_ACCEPTOR>
4

> <PUBCHEM_CACTVS_HBOND_DONOR>
0

> <PUBCHEM_CACTVS_ROTATABLE_BOND>
4

> <PUBCHEM_CACTVS_SUBSKEYS>
AAADceB7IABAAAAAAAAAAAAAAAAAAWJAAAA8QAAAAAAAAEgB8AAAHgQAAAAADCjF2ASyAcMAAAiMAiFSEACDAIAgCBBIiBmIBIgIYCKgkTGUIAhghgCoiAcQgMAOgAAAAAAEAAAAAAAAAAgAAAAAAAAAAA==

> <PUBCHEM_IUPAC_OPENEYE_NAME>
2-[4-(benzothiophen-3-ylmethyl)piperazin-1-yl]-1-pyrrolidin-1-yl-propan-1-one

> <PUBCHEM_IUPAC_CAS_NAME>
2-[4-(1-benzothiophen-3-ylmethyl)-1-piperazinyl]-1-(1-pyrrolidinyl)-1-propanone

> <PUBCHEM_IUPAC_NAME>
2-[4-(1-benzothiophen-3-ylmethyl)piperazin-1-yl]-1-pyrrolidin-1-ylpropan-1-one

> <PUBCHEM_IUPAC_SYSTEMATIC_NAME>
2-[4-(1-benzothiophen-3-ylmethyl)piperazin-1-yl]-1-pyrrolidin-1-yl-propan-1-one

> <PUBCHEM_IUPAC_TRADITIONAL_NAME>
2-[4-(benzothiophen-3-ylmethyl)piperazino]-1-pyrrolidino-propan-1-one

> <PUBCHEM_IUPAC_INCHI>
InChI=1S/C20H27N3OS/c1-16(20(24)23-8-4-5-9-23)22-12-10-21(11-13-22)14-17-15-25-19-7-3-2-6-18(17)19/h2-3,6-7,15-16H,4-5,8-14H2,1H3

> <PUBCHEM_IUPAC_INCHIKEY>
PMVPIGCPIUODMI-UHFFFAOYSA-N

> <PUBCHEM_XLOGP3_AA>
3

> <PUBCHEM_EXACT_MASS>
357.187483

> <PUBCHEM_MOLECULAR_FORMULA>
C20H27N3OS

> <PUBCHEM_MOLECULAR_WEIGHT>
357.51288

> <PUBCHEM_OPENEYE_CAN_SMILES>
CC(C(=O)N1CCCC1)N2CCN(CC2)CC3=CSC4=CC=CC=C43

> <PUBCHEM_OPENEYE_ISO_SMILES>
CC(C(=O)N1CCCC1)N2CCN(CC2)CC3=CSC4=CC=CC=C43

> <PUBCHEM_CACTVS_TPSA>
55

> <PUBCHEM_MONOISOTOPIC_WEIGHT>
357.187483

> <PUBCHEM_TOTAL_CHARGE>
0

> <PUBCHEM_HEAVY_ATOM_COUNT>
25

> <PUBCHEM_ATOM_DEF_STEREO_COUNT>
0

> <PUBCHEM_ATOM_UDEF_STEREO_COUNT>
1

> <PUBCHEM_BOND_DEF_STEREO_COUNT>
0

> <PUBCHEM_BOND_UDEF_STEREO_COUNT>
0

> <PUBCHEM_ISOTOPIC_ATOM_COUNT>
0

> <PUBCHEM_COMPONENT_COUNT>
1

> <PUBCHEM_CACTVS_TAUTO_COUNT>
1

> <PUBCHEM_COORDINATE_TYPE>
1
5
255

> <PUBCHEM_BONDANNOTATIONS>
1  20  8
1  21  8
18  19  8
18  20  8
19  21  8
19  22  8
21  23  8
22  24  8
23  25  8
24  25  8
6  17  3

$$$$

