5281283
  -OEChem-07051212563D

 66 68  0     1  0  0  0  0  0999 V2000
   -1.3219    2.9290   -2.2319 O   0  0  0  0  0  0  0  0  0  0  0  0
   -5.7022   -2.1176    1.0656 O   0  0  0  0  0  0  0  0  0  0  0  0
   -4.5001   -2.5647   -1.2986 O   0  0  0  0  0  0  0  0  0  0  0  0
    4.4746    0.0354   -0.3024 O   0  0  0  0  0  0  0  0  0  0  0  0
    5.1545    1.6061    1.2500 O   0  0  0  0  0  0  0  0  0  0  0  0
    6.5246   -3.0302   -0.3580 N   0  0  0  0  0  0  0  0  0  0  0  0
   -1.7565   -0.4498    0.3710 C   0  0  1  0  0  0  0  0  0  0  0  0
   -3.0266    0.3740   -0.0661 C   0  0  2  0  0  0  0  0  0  0  0  0
   -0.5952    0.5838    0.6867 C   0  0  2  0  0  0  0  0  0  0  0  0
   -0.2974    1.5390   -0.5108 C   0  0  1  0  0  0  0  0  0  0  0  0
   -4.3654   -0.4390   -0.1620 C   0  0  1  0  0  0  0  0  0  0  0  0
   -2.7125    1.2359   -1.3016 C   0  0  0  0  0  0  0  0  0  0  0  0
   -2.1028   -1.2463    1.6583 C   0  0  0  0  0  0  0  0  0  0  0  0
   -1.5811    2.2235   -1.0194 C   0  0  2  0  0  0  0  0  0  0  0  0
    0.7141   -0.0842    1.1749 C   0  0  0  0  0  0  0  0  0  0  0  0
    0.8393    2.5637   -0.1949 C   0  0  2  0  0  0  0  0  0  0  0  0
   -4.5742   -1.2474    1.1459 C   0  0  2  0  0  0  0  0  0  0  0  0
   -3.3660   -2.0900    1.5367 C   0  0  0  0  0  0  0  0  0  0  0  0
   -1.2936   -1.4590   -0.7111 C   0  0  0  0  0  0  0  0  0  0  0  0
    1.8012    0.9316    1.5184 C   0  0  0  0  0  0  0  0  0  0  0  0
    2.0544    1.8406    0.3498 C   0  0  0  0  0  0  0  0  0  0  0  0
   -5.5733    0.5073   -0.3569 C   0  0  0  0  0  0  0  0  0  0  0  0
   -4.3844   -1.3457   -1.3701 C   0  0  0  0  0  0  0  0  0  0  0  0
    0.4310    3.6919    0.7620 C   0  0  0  0  0  0  0  0  0  0  0  0
    3.2737    1.9778   -0.1934 C   0  0  0  0  0  0  0  0  0  0  0  0
    4.4130    1.2221    0.3595 C   0  0  0  0  0  0  0  0  0  0  0  0
    5.5296   -0.8422    0.1049 C   0  0  0  0  0  0  0  0  0  0  0  0
    5.4568   -2.1128   -0.7268 C   0  0  0  0  0  0  0  0  0  0  0  0
    6.4865   -4.2329   -1.1797 C   0  0  0  0  0  0  0  0  0  0  0  0
   -3.2049    1.0907    0.7531 H   0  0  0  0  0  0  0  0  0  0  0  0
   -0.9538    1.2093    1.5173 H   0  0  0  0  0  0  0  0  0  0  0  0
    0.0939    0.9264   -1.3365 H   0  0  0  0  0  0  0  0  0  0  0  0
   -3.5866    1.8212   -1.6068 H   0  0  0  0  0  0  0  0  0  0  0  0
   -2.4668    0.6183   -2.1727 H   0  0  0  0  0  0  0  0  0  0  0  0
   -2.2309   -0.5488    2.4967 H   0  0  0  0  0  0  0  0  0  0  0  0
   -1.2788   -1.9142    1.9348 H   0  0  0  0  0  0  0  0  0  0  0  0
   -1.9422    2.9538   -0.2876 H   0  0  0  0  0  0  0  0  0  0  0  0
    0.5254   -0.6871    2.0689 H   0  0  0  0  0  0  0  0  0  0  0  0
    1.1089   -0.7600    0.4078 H   0  0  0  0  0  0  0  0  0  0  0  0
    1.1156    3.0457   -1.1433 H   0  0  0  0  0  0  0  0  0  0  0  0
   -4.7837   -0.5468    1.9644 H   0  0  0  0  0  0  0  0  0  0  0  0
   -3.5676   -2.5731    2.5020 H   0  0  0  0  0  0  0  0  0  0  0  0
   -3.2124   -2.9224    0.8420 H   0  0  0  0  0  0  0  0  0  0  0  0
   -2.0535   -2.1982   -0.9594 H   0  0  0  0  0  0  0  0  0  0  0  0
   -1.0015   -0.9727   -1.6449 H   0  0  0  0  0  0  0  0  0  0  0  0
   -0.4325   -2.0416   -0.3679 H   0  0  0  0  0  0  0  0  0  0  0  0
    1.4820    1.5329    2.3785 H   0  0  0  0  0  0  0  0  0  0  0  0
    2.6854    0.3827    1.8556 H   0  0  0  0  0  0  0  0  0  0  0  0
   -5.6012    1.2776    0.4215 H   0  0  0  0  0  0  0  0  0  0  0  0
   -5.5605    1.0074   -1.3309 H   0  0  0  0  0  0  0  0  0  0  0  0
   -6.5202   -0.0441   -0.3122 H   0  0  0  0  0  0  0  0  0  0  0  0
   -4.2955   -0.8558   -2.3547 H   0  0  0  0  0  0  0  0  0  0  0  0
    1.2967    4.3078    1.0322 H   0  0  0  0  0  0  0  0  0  0  0  0
   -0.0100    3.3137    1.6892 H   0  0  0  0  0  0  0  0  0  0  0  0
   -0.2969    4.3608    0.2920 H   0  0  0  0  0  0  0  0  0  0  0  0
   -0.9813    2.2917   -2.8826 H   0  0  0  0  0  0  0  0  0  0  0  0
   -5.4946   -2.8348    0.4438 H   0  0  0  0  0  0  0  0  0  0  0  0
    3.4669    2.6215   -1.0432 H   0  0  0  0  0  0  0  0  0  0  0  0
    6.4931   -0.3411   -0.0486 H   0  0  0  0  0  0  0  0  0  0  0  0
    5.4108   -1.0761    1.1700 H   0  0  0  0  0  0  0  0  0  0  0  0
    5.5270   -1.8438   -1.7883 H   0  0  0  0  0  0  0  0  0  0  0  0
    4.4734   -2.5796   -0.5878 H   0  0  0  0  0  0  0  0  0  0  0  0
    6.4322   -3.2876    0.6243 H   0  0  0  0  0  0  0  0  0  0  0  0
    7.3024   -4.9004   -0.8858 H   0  0  0  0  0  0  0  0  0  0  0  0
    5.5445   -4.7762   -1.0528 H   0  0  0  0  0  0  0  0  0  0  0  0
    6.6230   -3.9936   -2.2394 H   0  0  0  0  0  0  0  0  0  0  0  0
  1 14  1  0  0  0  0
  1 56  1  0  0  0  0
  2 17  1  0  0  0  0
  2 57  1  0  0  0  0
  3 23  2  0  0  0  0
  4 26  1  0  0  0  0
  4 27  1  0  0  0  0
  5 26  2  0  0  0  0
  6 28  1  0  0  0  0
  6 29  1  0  0  0  0
  6 63  1  0  0  0  0
  7  8  1  0  0  0  0
  7  9  1  0  0  0  0
  7 13  1  0  0  0  0
  7 19  1  0  0  0  0
  8 11  1  0  0  0  0
  8 12  1  0  0  0  0
  8 30  1  0  0  0  0
  9 10  1  0  0  0  0
  9 15  1  0  0  0  0
  9 31  1  0  0  0  0
 10 14  1  0  0  0  0
 10 16  1  0  0  0  0
 10 32  1  0  0  0  0
 11 17  1  0  0  0  0
 11 22  1  0  0  0  0
 11 23  1  0  0  0  0
 12 14  1  0  0  0  0
 12 33  1  0  0  0  0
 12 34  1  0  0  0  0
 13 18  1  0  0  0  0
 13 35  1  0  0  0  0
 13 36  1  0  0  0  0
 14 37  1  0  0  0  0
 15 20  1  0  0  0  0
 15 38  1  0  0  0  0
 15 39  1  0  0  0  0
 16 21  1  0  0  0  0
 16 24  1  0  0  0  0
 16 40  1  0  0  0  0
 17 18  1  0  0  0  0
 17 41  1  0  0  0  0
 18 42  1  0  0  0  0
 18 43  1  0  0  0  0
 19 44  1  0  0  0  0
 19 45  1  0  0  0  0
 19 46  1  0  0  0  0
 20 21  1  0  0  0  0
 20 47  1  0  0  0  0
 20 48  1  0  0  0  0
 21 25  2  0  0  0  0
 22 49  1  0  0  0  0
 22 50  1  0  0  0  0
 22 51  1  0  0  0  0
 23 52  1  0  0  0  0
 24 53  1  0  0  0  0
 24 54  1  0  0  0  0
 24 55  1  0  0  0  0
 25 26  1  0  0  0  0
 25 58  1  0  0  0  0
 27 28  1  0  0  0  0
 27 59  1  0  0  0  0
 27 60  1  0  0  0  0
 28 61  1  0  0  0  0
 28 62  1  0  0  0  0
 29 64  1  0  0  0  0
 29 65  1  0  0  0  0
 29 66  1  0  0  0  0
M  END
> <PUBCHEM_COMPOUND_CID>
5281283

> <PUBCHEM_CONFORMER_RMSD>
1

> <PUBCHEM_CONFORMER_DIVERSEORDER>
1
7
5
2
4
8
3
6

> <PUBCHEM_MMFF94_PARTIAL_CHARGES>
23
1 -0.68
11 0.06
14 0.28
16 0.14
17 0.28
2 -0.68
20 0.14
21 -0.28
23 0.45
25 -0.14
26 0.71
27 0.28
28 0.27
29 0.27
3 -0.57
4 -0.43
5 -0.57
52 0.06
56 0.4
57 0.4
58 0.15
6 -0.9
63 0.36

> <PUBCHEM_EFFECTIVE_ROTOR_COUNT>
7.8

> <PUBCHEM_PHARMACOPHORE_FEATURES>
11
1 1 acceptor
1 1 donor
1 2 acceptor
1 2 donor
1 3 acceptor
1 5 acceptor
1 6 cation
1 6 donor
6 7 8 11 13 17 18 rings
6 7 8 9 10 12 14 rings
6 9 10 15 16 20 21 rings

> <PUBCHEM_HEAVY_ATOM_COUNT>
29

> <PUBCHEM_ATOM_DEF_STEREO_COUNT>
8

> <PUBCHEM_ATOM_UDEF_STEREO_COUNT>
0

> <PUBCHEM_BOND_DEF_STEREO_COUNT>
1

> <PUBCHEM_BOND_UDEF_STEREO_COUNT>
0

> <PUBCHEM_ISOTOPIC_ATOM_COUNT>
0

> <PUBCHEM_COMPONENT_COUNT>
1

> <PUBCHEM_CACTVS_TAUTO_COUNT>
1

> <PUBCHEM_CONFORMER_ID>
0050960300000001

> <PUBCHEM_MMFF94_ENERGY>
88.7873

> <PUBCHEM_FEATURE_SELFOVERLAP>
55.852

> <PUBCHEM_SHAPE_FINGERPRINT>
10622 236 17461182979199994511
10693767 8 18189915148621532463
12011746 2 17774175491950076301
12422481 6 18259704501483495575
12553582 1 17631189502094926593
12596602 18 16443622368605180802
12760667 363 18409444830129013618
13533116 47 18040998428111408224
13782708 43 18409167723055318014
13911852 28 18334576841304688254
14251764 30 18412258402605868514
14790565 3 17696771208737203837
14866123 147 18047463706184795912
14910302 57 18272374200283422428
14955137 171 18200021834324588729
15510800 12 18336832017712352154
15629462 23 17970077827808060541
17349148 13 17096637708961855769
17909252 39 18340207496681321170
21033650 10 17131266995446519372
21267235 1 17774440452693131729
21279426 13 18273220811035448621
21641784 216 16558479667919207900
21682296 61 18408317813072075807
21792965 11 17843676914111093766
22393880 68 18129387171520394746
23379529 103 18343294839005267850
23559900 14 18202003200810188272
23569914 152 17832458601387922599
23569943 247 18263363740991248707
2748736 6 10303804346904574870
2838139 119 10879996856887850042
3004659 81 17988925540356553592
345986 75 17385714816799743560
34797466 226 16916500329204802188
437815 12 18410573976604065512
44062 13 18270400637135987190
46194498 28 18130787833465361252
463206 1 18338237068369693230
484985 159 18044653341716032512
563151 40 17700688734211824329
56633871 153 18333448716299390070
6608658 132 15625944304491301452

> <PUBCHEM_SHAPE_MULTIPOLES>
562.48
14.36
4.15
1.55
15.67
0.96
0.05
15.63
1.91
4.95
1.08
-1
0.1
2.95

> <PUBCHEM_SHAPE_SELFOVERLAP>
1162.58

> <PUBCHEM_SHAPE_VOLUME>
318

> <PUBCHEM_COORDINATE_TYPE>
2
5
10

$$$$

