159930
  -OEChem-07051213113D

 53 56  0     1  0  0  0  0  0999 V2000
    3.4155   -2.1816    0.8031 O   0  0  0  0  0  0  0  0  0  0  0  0
   -2.9940   -1.4139   -1.7350 O   0  0  0  0  0  0  0  0  0  0  0  0
   -4.1811    0.4976   -1.3304 O   0  0  0  0  0  0  0  0  0  0  0  0
    1.6001   -0.6557    0.1045 C   0  0  2  0  0  0  0  0  0  0  0  0
    0.8828    0.6673    0.5898 C   0  0  2  0  0  0  0  0  0  0  0  0
   -0.6579    0.8140    0.2074 C   0  0  1  0  0  0  0  0  0  0  0  0
   -1.3837   -0.5377    0.5525 C   0  0  2  0  0  0  0  0  0  0  0  0
    2.1025   -0.5253   -1.3464 C   0  0  0  0  0  0  0  0  0  0  0  0
    0.7156   -1.8966    0.2945 C   0  0  0  0  0  0  0  0  0  0  0  0
    3.2165    0.5090   -1.2055 C   0  0  1  0  0  0  0  0  0  0  0  0
    2.9748   -0.8275    0.8478 C   0  0  2  0  0  0  0  0  0  0  0  0
    1.7364    1.9379    0.3077 C   0  0  0  0  0  0  0  0  0  0  0  0
   -0.7234   -1.7202   -0.1743 C   0  0  0  0  0  0  0  0  0  0  0  0
   -2.9430   -0.5034    0.4635 C   0  0  2  0  0  0  0  0  0  0  0  0
   -1.2980    1.9255    1.0989 C   0  0  0  0  0  0  0  0  0  0  0  0
    2.5932    1.8854   -0.9652 C   0  0  0  0  0  0  0  0  0  0  0  0
    3.9229    0.0201    0.0344 C   0  0  0  0  0  0  0  0  0  0  0  0
   -0.8401    1.2359   -1.2687 C   0  0  0  0  0  0  0  0  0  0  0  0
   -3.4917    0.6733    1.2990 C   0  0  0  0  0  0  0  0  0  0  0  0
   -2.8205    2.0075    1.0017 C   0  0  0  0  0  0  0  0  0  0  0  0
   -3.5727   -1.7981    1.0208 C   0  0  0  0  0  0  0  0  0  0  0  0
   -3.4476   -0.4041   -0.9541 C   0  0  0  0  0  0  0  0  0  0  0  0
    5.1934    0.2909    0.3541 C   0  0  0  0  0  0  0  0  0  0  0  0
    0.8675    0.5823    1.6888 H   0  0  0  0  0  0  0  0  0  0  0  0
   -1.1829   -0.7097    1.6236 H   0  0  0  0  0  0  0  0  0  0  0  0
    1.3429   -0.2175   -2.0637 H   0  0  0  0  0  0  0  0  0  0  0  0
    2.5112   -1.4775   -1.7121 H   0  0  0  0  0  0  0  0  0  0  0  0
    0.6942   -2.1612    1.3604 H   0  0  0  0  0  0  0  0  0  0  0  0
    1.1436   -2.7622   -0.2268 H   0  0  0  0  0  0  0  0  0  0  0  0
    3.8648    0.5166   -2.0875 H   0  0  0  0  0  0  0  0  0  0  0  0
    2.9286   -0.5011    1.8924 H   0  0  0  0  0  0  0  0  0  0  0  0
    1.1370    2.8517    0.2942 H   0  0  0  0  0  0  0  0  0  0  0  0
    2.4172    2.0717    1.1604 H   0  0  0  0  0  0  0  0  0  0  0  0
   -1.2463   -2.6580    0.0344 H   0  0  0  0  0  0  0  0  0  0  0  0
   -0.7142   -1.5937   -1.2594 H   0  0  0  0  0  0  0  0  0  0  0  0
   -0.8957    2.9118    0.8439 H   0  0  0  0  0  0  0  0  0  0  0  0
   -1.0330    1.7479    2.1498 H   0  0  0  0  0  0  0  0  0  0  0  0
    1.9846    2.1593   -1.8343 H   0  0  0  0  0  0  0  0  0  0  0  0
    3.3799    2.6469   -0.8929 H   0  0  0  0  0  0  0  0  0  0  0  0
   -0.5834    0.4461   -1.9739 H   0  0  0  0  0  0  0  0  0  0  0  0
   -1.8623    1.5316   -1.5054 H   0  0  0  0  0  0  0  0  0  0  0  0
   -0.2349    2.1130   -1.5121 H   0  0  0  0  0  0  0  0  0  0  0  0
   -3.3426    0.4533    2.3654 H   0  0  0  0  0  0  0  0  0  0  0  0
   -4.5759    0.7824    1.1657 H   0  0  0  0  0  0  0  0  0  0  0  0
   -3.1245    2.3872    0.0218 H   0  0  0  0  0  0  0  0  0  0  0  0
   -3.1785    2.7499    1.7260 H   0  0  0  0  0  0  0  0  0  0  0  0
   -4.6663   -1.7155    1.0584 H   0  0  0  0  0  0  0  0  0  0  0  0
   -3.3545   -2.6841    0.4165 H   0  0  0  0  0  0  0  0  0  0  0  0
   -3.2234   -1.9971    2.0404 H   0  0  0  0  0  0  0  0  0  0  0  0
    2.9379   -2.6684    1.4959 H   0  0  0  0  0  0  0  0  0  0  0  0
    5.6355   -0.0993    1.2643 H   0  0  0  0  0  0  0  0  0  0  0  0
    5.8121    0.9084   -0.2879 H   0  0  0  0  0  0  0  0  0  0  0  0
   -3.3223   -1.3406   -2.6563 H   0  0  0  0  0  0  0  0  0  0  0  0
  1 11  1  0  0  0  0
  1 50  1  0  0  0  0
  2 22  1  0  0  0  0
  2 53  1  0  0  0  0
  3 22  2  0  0  0  0
  4  5  1  0  0  0  0
  4  8  1  0  0  0  0
  4  9  1  0  0  0  0
  4 11  1  0  0  0  0
  5  6  1  0  0  0  0
  5 12  1  0  0  0  0
  5 24  1  0  0  0  0
  6  7  1  0  0  0  0
  6 15  1  0  0  0  0
  6 18  1  0  0  0  0
  7 13  1  0  0  0  0
  7 14  1  0  0  0  0
  7 25  1  0  0  0  0
  8 10  1  0  0  0  0
  8 26  1  0  0  0  0
  8 27  1  0  0  0  0
  9 13  1  0  0  0  0
  9 28  1  0  0  0  0
  9 29  1  0  0  0  0
 10 16  1  0  0  0  0
 10 17  1  0  0  0  0
 10 30  1  0  0  0  0
 11 17  1  0  0  0  0
 11 31  1  0  0  0  0
 12 16  1  0  0  0  0
 12 32  1  0  0  0  0
 12 33  1  0  0  0  0
 13 34  1  0  0  0  0
 13 35  1  0  0  0  0
 14 19  1  0  0  0  0
 14 21  1  0  0  0  0
 14 22  1  0  0  0  0
 15 20  1  0  0  0  0
 15 36  1  0  0  0  0
 15 37  1  0  0  0  0
 16 38  1  0  0  0  0
 16 39  1  0  0  0  0
 17 23  2  0  0  0  0
 18 40  1  0  0  0  0
 18 41  1  0  0  0  0
 18 42  1  0  0  0  0
 19 20  1  0  0  0  0
 19 43  1  0  0  0  0
 19 44  1  0  0  0  0
 20 45  1  0  0  0  0
 20 46  1  0  0  0  0
 21 47  1  0  0  0  0
 21 48  1  0  0  0  0
 21 49  1  0  0  0  0
 23 51  1  0  0  0  0
 23 52  1  0  0  0  0
M  END
> <PUBCHEM_COMPOUND_CID>
159930

> <PUBCHEM_CONFORMER_RMSD>
0.6

> <PUBCHEM_CONFORMER_DIVERSEORDER>
1
2

> <PUBCHEM_MMFF94_PARTIAL_CHARGES>
13
1 -0.68
10 0.14
11 0.42
14 0.06
17 -0.28
2 -0.65
22 0.66
23 -0.3
3 -0.57
50 0.4
51 0.15
52 0.15
53 0.5

> <PUBCHEM_EFFECTIVE_ROTOR_COUNT>
3

> <PUBCHEM_PHARMACOPHORE_FEATURES>
8
1 1 acceptor
1 1 donor
1 2 acceptor
1 3 acceptor
3 2 3 22 anion
6 4 5 6 7 9 13 rings
6 6 7 14 15 19 20 rings
8 4 5 8 10 11 12 16 17 rings

> <PUBCHEM_HEAVY_ATOM_COUNT>
23

> <PUBCHEM_ATOM_DEF_STEREO_COUNT>
7

> <PUBCHEM_ATOM_UDEF_STEREO_COUNT>
0

> <PUBCHEM_BOND_DEF_STEREO_COUNT>
0

> <PUBCHEM_BOND_UDEF_STEREO_COUNT>
0

> <PUBCHEM_ISOTOPIC_ATOM_COUNT>
0

> <PUBCHEM_COMPONENT_COUNT>
1

> <PUBCHEM_CACTVS_TAUTO_COUNT>
1

> <PUBCHEM_CONFORMER_ID>
000270BA00000001

> <PUBCHEM_MMFF94_ENERGY>
93.8951

> <PUBCHEM_FEATURE_SELFOVERLAP>
40.679

> <PUBCHEM_SHAPE_FINGERPRINT>
10062212 137 18335421296162506339
10366900 7 17022912237083125722
10646746 165 18114177566637775528
10863032 1 17917994949324882823
11132069 177 18260257585876003441
11552529 35 14707501243530262207
11578080 2 18192460582206133440
12236239 1 18407760343507012479
12403814 3 18059569243639377753
12507557 5 18131633357131485032
12553582 1 17968648333383113309
12788726 201 18042122214594265169
128620 24 18187641392765425438
13134695 92 17417821664305861516
13140716 1 18121214277693979322
13221675 6 18334285461785278826
13224815 77 18412539894830649817
13296908 3 16415476047554771833
13583140 156 17132112429208240905
14178342 30 18264767843040260832
14223421 5 18342168973131031434
14289901 80 16805318916037166378
14787075 74 17762328120267723965
15788980 27 16989125353105510410
16752209 62 18113902688683280429
16945 1 18260822679055002675
17349148 13 18341057345627366858
17492 89 18410005572016499635
17980427 23 18333448725469690204
18186145 218 18271515438230158358
192875 21 18411147960296542400
19862831 5 18343025475614649333
200 152 18335711532851343317
21267235 1 18338784646318410826
21501502 16 18411693318069349992
2334 1 17832424198415271178
23402539 116 18260269650929566460
23557571 272 16443344286473396305
23559900 14 18201444709565810906
2748010 2 17831014633050709970
296302 2 16272205267387382622
34934 24 18261671601148372169
5104073 3 18336825385617670562
5161694 15 16486979521939142799
90525 40 18113896095855727335
9709674 26 18187071858901686494
9981440 41 17404862549826381232

> <PUBCHEM_SHAPE_MULTIPOLES>
455.72
8.08
2.2
1.39
2.14
0.04
-0.38
-0.56
0.11
-0.29
0.37
-0.7
0.07
-0.8

> <PUBCHEM_SHAPE_SELFOVERLAP>
984.16

> <PUBCHEM_SHAPE_VOLUME>
247.1

> <PUBCHEM_COORDINATE_TYPE>
2
5
10

$$$$

