23724667
  -OEChem-07051213083D

 34 37  0     1  0  0  0  0  0999 V2000
    2.0451   -1.1078   -1.5381 O   0  0  0  0  0  0  0  0  0  0  0  0
   -3.8309    2.0699   -0.7331 O   0  0  0  0  0  0  0  0  0  0  0  0
   -5.3711    0.3903    0.0507 O   0  0  0  0  0  0  0  0  0  0  0  0
    0.4566    0.5492    1.8687 O   0  0  0  0  0  0  0  0  0  0  0  0
   -1.8222   -2.7674    0.8354 O   0  0  0  0  0  0  0  0  0  0  0  0
    6.3607    0.5341   -0.4627 O   0  0  0  0  0  0  0  0  0  0  0  0
    0.1057   -0.8545   -0.0746 C   0  0  1  0  0  0  0  0  0  0  0  0
   -1.3797   -0.5663   -0.0226 C   0  0  0  0  0  0  0  0  0  0  0  0
    0.6675   -0.7209   -1.4902 C   0  0  0  0  0  0  0  0  0  0  0  0
    0.9105    0.0420    0.8492 C   0  0  0  0  0  0  0  0  0  0  0  0
    2.3345    0.2181    0.4887 C   0  0  0  0  0  0  0  0  0  0  0  0
   -1.8422    0.6859   -0.4346 C   0  0  0  0  0  0  0  0  0  0  0  0
    2.8252   -0.3840   -0.6740 C   0  0  0  0  0  0  0  0  0  0  0  0
   -2.2784   -1.5461    0.4347 C   0  0  0  0  0  0  0  0  0  0  0  0
   -3.2010    0.9181   -0.3748 C   0  0  0  0  0  0  0  0  0  0  0  0
   -4.0807   -0.0410    0.0729 C   0  0  0  0  0  0  0  0  0  0  0  0
   -3.6498   -1.2851    0.4855 C   0  0  0  0  0  0  0  0  0  0  0  0
    3.1909    0.9431    1.3218 C   0  0  0  0  0  0  0  0  0  0  0  0
    4.1825   -0.2894   -0.9849 C   0  0  0  0  0  0  0  0  0  0  0  0
   -5.2054    1.7289   -0.4600 C   0  0  0  0  0  0  0  0  0  0  0  0
    4.5432    1.0509    0.9950 C   0  0  0  0  0  0  0  0  0  0  0  0
    5.0390    0.4320   -0.1529 C   0  0  0  0  0  0  0  0  0  0  0  0
    0.3134   -1.8736    0.2773 H   0  0  0  0  0  0  0  0  0  0  0  0
    0.1259   -1.3843   -2.1749 H   0  0  0  0  0  0  0  0  0  0  0  0
    0.5761    0.2958   -1.8951 H   0  0  0  0  0  0  0  0  0  0  0  0
   -1.1691    1.4612   -0.7841 H   0  0  0  0  0  0  0  0  0  0  0  0
   -4.3572   -2.0294    0.8353 H   0  0  0  0  0  0  0  0  0  0  0  0
    2.8289    1.4188    2.2288 H   0  0  0  0  0  0  0  0  0  0  0  0
    4.5726   -0.7683   -1.8797 H   0  0  0  0  0  0  0  0  0  0  0  0
   -5.6031    2.4371    0.2761 H   0  0  0  0  0  0  0  0  0  0  0  0
   -5.7817    1.8245   -1.3875 H   0  0  0  0  0  0  0  0  0  0  0  0
    5.2033    1.6146    1.6491 H   0  0  0  0  0  0  0  0  0  0  0  0
   -2.5778   -3.3113    1.1167 H   0  0  0  0  0  0  0  0  0  0  0  0
    6.8040    1.0676    0.2191 H   0  0  0  0  0  0  0  0  0  0  0  0
  1  9  1  0  0  0  0
  1 13  1  0  0  0  0
  2 15  1  0  0  0  0
  2 20  1  0  0  0  0
  3 16  1  0  0  0  0
  3 20  1  0  0  0  0
  4 10  2  0  0  0  0
  5 14  1  0  0  0  0
  5 33  1  0  0  0  0
  6 22  1  0  0  0  0
  6 34  1  0  0  0  0
  7  8  1  0  0  0  0
  7  9  1  0  0  0  0
  7 10  1  0  0  0  0
  7 23  1  0  0  0  0
  8 12  2  0  0  0  0
  8 14  1  0  0  0  0
  9 24  1  0  0  0  0
  9 25  1  0  0  0  0
 10 11  1  0  0  0  0
 11 13  2  0  0  0  0
 11 18  1  0  0  0  0
 12 15  1  0  0  0  0
 12 26  1  0  0  0  0
 13 19  1  0  0  0  0
 14 17  2  0  0  0  0
 15 16  2  0  0  0  0
 16 17  1  0  0  0  0
 17 27  1  0  0  0  0
 18 21  2  0  0  0  0
 18 28  1  0  0  0  0
 19 22  2  0  0  0  0
 19 29  1  0  0  0  0
 20 30  1  0  0  0  0
 20 31  1  0  0  0  0
 21 22  1  0  0  0  0
 21 32  1  0  0  0  0
M  END
> <PUBCHEM_COMPOUND_CID>
23724667

> <PUBCHEM_CONFORMER_RMSD>
0.6

> <PUBCHEM_CONFORMER_DIVERSEORDER>
1
11
7
3
4
2
10
6
9
5
8

> <PUBCHEM_MMFF94_PARTIAL_CHARGES>
29
1 -0.36
10 0.42
11 0.09
12 -0.15
13 0.08
14 0.08
15 0.08
16 0.08
17 -0.15
18 -0.15
19 -0.15
2 -0.36
20 0.56
21 -0.15
22 0.08
26 0.15
27 0.15
28 0.15
29 0.15
3 -0.36
32 0.15
33 0.45
34 0.45
4 -0.57
5 -0.53
6 -0.53
7 0.2
8 -0.14
9 0.28

> <PUBCHEM_EFFECTIVE_ROTOR_COUNT>
2.2

> <PUBCHEM_PHARMACOPHORE_FEATURES>
10
1 1 acceptor
1 2 acceptor
1 3 acceptor
1 4 acceptor
1 5 donor
1 6 donor
5 2 3 15 16 20 rings
6 1 7 9 10 11 13 rings
6 11 13 18 19 21 22 rings
6 8 12 14 15 16 17 rings

> <PUBCHEM_HEAVY_ATOM_COUNT>
22

> <PUBCHEM_ATOM_DEF_STEREO_COUNT>
1

> <PUBCHEM_ATOM_UDEF_STEREO_COUNT>
0

> <PUBCHEM_BOND_DEF_STEREO_COUNT>
0

> <PUBCHEM_BOND_UDEF_STEREO_COUNT>
0

> <PUBCHEM_ISOTOPIC_ATOM_COUNT>
0

> <PUBCHEM_COMPONENT_COUNT>
1

> <PUBCHEM_CACTVS_TAUTO_COUNT>
37

> <PUBCHEM_CONFORMER_ID>
016A027B00000001

> <PUBCHEM_MMFF94_ENERGY>
63.2531

> <PUBCHEM_FEATURE_SELFOVERLAP>
50.929

> <PUBCHEM_SHAPE_FINGERPRINT>
10411042 1 17767114307976282307
10498660 4 18269561709711915621
10646746 165 18413671318060166788
11471102 20 17240482503197781594
11595378 159 17274549822538147541
11796584 16 18412823599803450114
12236239 1 16917350329118580619
12390115 104 18337666546810935337
12403259 415 18041282067102808938
12500047 106 18411982446683362006
12596602 18 16702295728681744489
12730499 353 18113614608084038903
12788726 201 18041279992639406496
12969540 114 17603875502381704980
13402501 40 18260552229265076921
13583140 156 18334011653752881626
13911987 19 17240758441909205732
13965767 371 16983781928558949789
14341114 328 16917069970664867288
14386348 63 18186516592291147755
14573314 32 18409165523883921230
15375358 24 18260548922171361739
15788980 27 18040436568731591566
16988056 13 15248802225455604645
17349148 13 14490187202711892022
17980427 23 17988638549881940191
1813 80 15195005011388716030
19489759 90 18413109441922571903
19862831 5 14634875236303601485
200 152 15791728620071346787
20645477 56 18413670214585868057
20645477 70 17240758510591714046
21033648 29 18114191795827478048
212916 134 18272378576380486211
21709351 56 17822578209390871788
21792961 116 18187914089725827550
221357 26 17313392261692297209
231179 274 18114184129368772542
23175994 123 17676482822327265385
23402539 116 18413394219634058039
23402655 69 17313105284603529909
23493267 7 18409452475075907306
23536379 177 18202563991091210170
23557571 272 18410848832993630613
23559900 14 18339071692268715718
23569914 152 15871365388563391660
23569914 2 17621652346768445972
2916195 48 18408889550939956925
3472631 163 18131350804039057221
3545911 37 18408601465612614068
4072396 5 17749401407617279146
465052 167 11599999968799399440
5104073 3 18129094697021657011
542803 24 17275105020449677892
77492 1 16845570898796061079
7808743 9 18200878478088823525
9849439 229 17768539640165618325

> <PUBCHEM_SHAPE_MULTIPOLES>
417.53
12.01
1.69
1.26
3.36
0.37
-0.07
-4.91
1.19
-1.92
-0.13
0.77
0.04
1.56

> <PUBCHEM_SHAPE_SELFOVERLAP>
944.127

> <PUBCHEM_SHAPE_VOLUME>
217.2

> <PUBCHEM_COORDINATE_TYPE>
2
5
10

$$$$

