5426
  -OEChem-07051212543D

 29 31  0     1  0  0  0  0  0999 V2000
   -1.3627   -0.0566   -2.1582 O   0  0  0  0  0  0  0  0  0  0  0  0
    0.9379    2.5651   -0.0280 O   0  0  0  0  0  0  0  0  0  0  0  0
    0.0584   -1.9761    0.2363 O   0  0  0  0  0  0  0  0  0  0  0  0
   -5.3111   -0.5033    0.1689 O   0  0  0  0  0  0  0  0  0  0  0  0
    0.0770    0.3778    0.1191 N   0  0  0  0  0  0  0  0  0  0  0  0
   -3.3101   -0.2925   -0.9555 N   0  0  0  0  0  0  0  0  0  0  0  0
   -1.3347    0.6544    0.1522 C   0  0  2  0  0  0  0  0  0  0  0  0
   -1.9692    0.0997    1.4171 C   0  0  0  0  0  0  0  0  0  0  0  0
   -3.4598    0.3851    1.4006 C   0  0  0  0  0  0  0  0  0  0  0  0
   -1.9655    0.0514   -1.0905 C   0  0  0  0  0  0  0  0  0  0  0  0
    1.0469    1.3548    0.0360 C   0  0  0  0  0  0  0  0  0  0  0  0
    0.6093   -0.8932    0.1670 C   0  0  0  0  0  0  0  0  0  0  0  0
    2.3248    0.6439    0.0405 C   0  0  0  0  0  0  0  0  0  0  0  0
    2.0603   -0.7154    0.1197 C   0  0  0  0  0  0  0  0  0  0  0  0
   -4.1199   -0.1933    0.1717 C   0  0  0  0  0  0  0  0  0  0  0  0
    3.6128    1.1348   -0.0207 C   0  0  0  0  0  0  0  0  0  0  0  0
    3.0700   -1.6556    0.1417 C   0  0  0  0  0  0  0  0  0  0  0  0
    4.6522    0.2004    0.0009 C   0  0  0  0  0  0  0  0  0  0  0  0
    4.3834   -1.1813    0.0812 C   0  0  0  0  0  0  0  0  0  0  0  0
   -1.4921    1.7390    0.0998 H   0  0  0  0  0  0  0  0  0  0  0  0
   -1.5129    0.5551    2.3040 H   0  0  0  0  0  0  0  0  0  0  0  0
   -1.8238   -0.9831    1.5052 H   0  0  0  0  0  0  0  0  0  0  0  0
   -3.6513    1.4639    1.4138 H   0  0  0  0  0  0  0  0  0  0  0  0
   -3.9287   -0.0552    2.2873 H   0  0  0  0  0  0  0  0  0  0  0  0
   -3.7549   -0.6702   -1.7877 H   0  0  0  0  0  0  0  0  0  0  0  0
    3.8197    2.1966   -0.0829 H   0  0  0  0  0  0  0  0  0  0  0  0
    2.8637   -2.7177    0.2030 H   0  0  0  0  0  0  0  0  0  0  0  0
    5.6832    0.5416   -0.0453 H   0  0  0  0  0  0  0  0  0  0  0  0
    5.2109   -1.8857    0.0959 H   0  0  0  0  0  0  0  0  0  0  0  0
  1 10  2  0  0  0  0
  2 11  2  0  0  0  0
  3 12  2  0  0  0  0
  4 15  2  0  0  0  0
  5  7  1  0  0  0  0
  5 11  1  0  0  0  0
  5 12  1  0  0  0  0
  6 10  1  0  0  0  0
  6 15  1  0  0  0  0
  6 25  1  0  0  0  0
  7  8  1  0  0  0  0
  7 10  1  0  0  0  0
  7 20  1  0  0  0  0
  8  9  1  0  0  0  0
  8 21  1  0  0  0  0
  8 22  1  0  0  0  0
  9 15  1  0  0  0  0
  9 23  1  0  0  0  0
  9 24  1  0  0  0  0
 11 13  1  0  0  0  0
 12 14  1  0  0  0  0
 13 14  1  0  0  0  0
 13 16  2  0  0  0  0
 14 17  2  0  0  0  0
 16 18  1  0  0  0  0
 16 26  1  0  0  0  0
 17 19  1  0  0  0  0
 17 27  1  0  0  0  0
 18 19  2  0  0  0  0
 18 28  1  0  0  0  0
 19 29  1  0  0  0  0
M  END
> <PUBCHEM_COMPOUND_CID>
5426

> <PUBCHEM_CONFORMER_RMSD>
0.6

> <PUBCHEM_CONFORMER_DIVERSEORDER>
1
8
4
6
5
3
7
2

> <PUBCHEM_MMFF94_PARTIAL_CHARGES>
23
1 -0.57
10 0.57
11 0.54
12 0.54
13 0.09
14 0.09
15 0.57
16 -0.15
17 -0.15
18 -0.15
19 -0.15
2 -0.57
25 0.37
26 0.15
27 0.15
28 0.15
29 0.15
3 -0.57
4 -0.57
5 -0.42
6 -0.49
7 0.36
9 0.06

> <PUBCHEM_EFFECTIVE_ROTOR_COUNT>
2

> <PUBCHEM_PHARMACOPHORE_FEATURES>
8
1 1 acceptor
1 2 acceptor
1 3 acceptor
1 4 acceptor
1 6 donor
5 5 11 12 13 14 rings
6 13 14 16 17 18 19 rings
6 6 7 8 9 10 15 rings

> <PUBCHEM_HEAVY_ATOM_COUNT>
19

> <PUBCHEM_ATOM_DEF_STEREO_COUNT>
0

> <PUBCHEM_ATOM_UDEF_STEREO_COUNT>
1

> <PUBCHEM_BOND_DEF_STEREO_COUNT>
0

> <PUBCHEM_BOND_UDEF_STEREO_COUNT>
0

> <PUBCHEM_ISOTOPIC_ATOM_COUNT>
0

> <PUBCHEM_COMPONENT_COUNT>
1

> <PUBCHEM_CACTVS_TAUTO_COUNT>
3

> <PUBCHEM_CONFORMER_ID>
0000153200000001

> <PUBCHEM_MMFF94_ENERGY>
46.1967

> <PUBCHEM_FEATURE_SELFOVERLAP>
40.687

> <PUBCHEM_SHAPE_FINGERPRINT>
11471102 20 18413387627260165536
12236239 1 17894347778674311729
13140716 1 18195813955985536960
13581323 91 16515684455004917633
13862211 1 18340206392822081914
13965767 371 16738010228910879569
14386348 63 17561079207220384331
15309172 13 18412260636020420002
15375462 189 18113341924773157056
15375462 478 18041274439478553753
15848702 151 18114455772769963830
16945 1 18412266142938431760
17844478 74 17847061103462687588
1813 80 18261940955933004628
18175812 5 17560795494602583507
18186145 218 18408044017944861238
18785283 64 17913767224195793676
19422 9 17967813868329172975
200 152 18335423469716521489
20279233 1 17489584567135465514
20344682 1 17561366184055683839
20645477 70 18343022233136335170
21267235 1 18409441518878228206
22094290 60 16271927142221477101
23175994 123 18130782382218153124
23402539 116 18261678159663341312
23557571 272 16773801428085580316
23559900 14 16200155443156614602
2748010 2 18196380432038503740
3286 77 18343862199847832549
465052 167 18334569110601276703
474 4 17898582977301074736
5104073 3 18410009974573431705
77492 1 17822010904229777209

> <PUBCHEM_SHAPE_MULTIPOLES>
357.57
8.82
1.59
1.12
2.15
0.28
0.26
-1.49
-0.71
-1.36
-0.07
1.15
0
-0.25

> <PUBCHEM_SHAPE_SELFOVERLAP>
795.302

> <PUBCHEM_SHAPE_VOLUME>
188.9

> <PUBCHEM_COORDINATE_TYPE>
2
5
10

$$$$

