439386
  -OEChem-07051212453D

 28 28  0     1  0  0  0  0  0999 V2000
    3.7056    0.0216    0.0725 S   0  0  0  0  0  0  0  0  0  0  0  0
   -1.0687    1.3489   -0.7724 O   0  0  0  0  0  0  0  0  0  0  0  0
   -0.4985   -1.4598   -1.1671 O   0  0  0  0  0  0  0  0  0  0  0  0
   -2.5748   -2.3210    0.4598 O   0  0  0  0  0  0  0  0  0  0  0  0
   -4.3263   -0.0594    0.1543 O   0  0  0  0  0  0  0  0  0  0  0  0
   -2.6006    1.9631    0.9238 O   0  0  0  0  0  0  0  0  0  0  0  0
    2.1007    0.0372    0.3963 O   0  0  0  0  0  0  0  0  0  0  0  0
    4.3074   -1.0175    1.1768 O   0  0  0  0  0  0  0  0  0  0  0  0
    3.8855   -0.5789   -1.2362 O   0  0  0  0  0  0  0  0  0  0  0  0
    4.2522    1.3362    0.3526 O   0  0  0  0  0  0  0  0  0  0  0  0
   -0.6523   -0.8835    0.1323 C   0  0  2  0  0  0  0  0  0  0  0  0
   -2.1192   -0.9748    0.5619 C   0  0  1  0  0  0  0  0  0  0  0  0
   -0.2038    0.5829    0.0807 C   0  0  1  0  0  0  0  0  0  0  0  0
   -2.9859   -0.0807   -0.3250 C   0  0  2  0  0  0  0  0  0  0  0  0
   -2.4360    1.3476   -0.3529 C   0  0  2  0  0  0  0  0  0  0  0  0
    1.2146    0.7381   -0.4575 C   0  0  0  0  0  0  0  0  0  0  0  0
   -0.0297   -1.4733    0.8133 H   0  0  0  0  0  0  0  0  0  0  0  0
   -2.2212   -0.6813    1.6137 H   0  0  0  0  0  0  0  0  0  0  0  0
   -0.2379    1.0025    1.0946 H   0  0  0  0  0  0  0  0  0  0  0  0
   -3.0156   -0.4954   -1.3396 H   0  0  0  0  0  0  0  0  0  0  0  0
   -3.0116    1.9400   -1.0730 H   0  0  0  0  0  0  0  0  0  0  0  0
    1.4898    1.7992   -0.4801 H   0  0  0  0  0  0  0  0  0  0  0  0
    1.2974    0.3641   -1.4844 H   0  0  0  0  0  0  0  0  0  0  0  0
   -0.8916   -0.8560   -1.8193 H   0  0  0  0  0  0  0  0  0  0  0  0
   -3.5139   -2.3306    0.7123 H   0  0  0  0  0  0  0  0  0  0  0  0
   -4.8401    0.5175   -0.4364 H   0  0  0  0  0  0  0  0  0  0  0  0
   -2.6485    2.9226    0.7746 H   0  0  0  0  0  0  0  0  0  0  0  0
    3.9980   -0.8748    2.1020 H   0  0  0  0  0  0  0  0  0  0  0  0
  1  7  1  0  0  0  0
  1  8  1  0  0  0  0
  1  9  2  0  0  0  0
  1 10  2  0  0  0  0
  2 13  1  0  0  0  0
  2 15  1  0  0  0  0
  3 11  1  0  0  0  0
  3 24  1  0  0  0  0
  4 12  1  0  0  0  0
  4 25  1  0  0  0  0
  5 14  1  0  0  0  0
  5 26  1  0  0  0  0
  6 15  1  0  0  0  0
  6 27  1  0  0  0  0
  7 16  1  0  0  0  0
  8 28  1  0  0  0  0
 11 12  1  0  0  0  0
 11 13  1  0  0  0  0
 11 17  1  0  0  0  0
 12 14  1  0  0  0  0
 12 18  1  0  0  0  0
 13 16  1  0  0  0  0
 13 19  1  0  0  0  0
 14 15  1  0  0  0  0
 14 20  1  0  0  0  0
 15 21  1  0  0  0  0
 16 22  1  0  0  0  0
 16 23  1  0  0  0  0
M  END
> <PUBCHEM_COMPOUND_CID>
439386

> <PUBCHEM_CONFORMER_RMSD>
0.6

> <PUBCHEM_CONFORMER_DIVERSEORDER>
1
8
7
10
12
9
11
6
2
3
5
4
14
13
15

> <PUBCHEM_MMFF94_PARTIAL_CHARGES>
21
1 1.67
10 -0.65
11 0.28
12 0.28
13 0.28
14 0.28
15 0.56
16 0.28
2 -0.56
24 0.4
25 0.4
26 0.4
27 0.4
28 0.5
3 -0.68
4 -0.68
5 -0.68
6 -0.68
7 -0.46
8 -0.68
9 -0.65

> <PUBCHEM_EFFECTIVE_ROTOR_COUNT>
4.2

> <PUBCHEM_PHARMACOPHORE_FEATURES>
14
1 10 acceptor
1 2 acceptor
1 3 acceptor
1 3 donor
1 4 acceptor
1 4 donor
1 5 acceptor
1 5 donor
1 6 acceptor
1 6 donor
1 8 acceptor
1 9 acceptor
4 1 8 9 10 anion
6 2 11 12 13 14 15 rings

> <PUBCHEM_HEAVY_ATOM_COUNT>
16

> <PUBCHEM_ATOM_DEF_STEREO_COUNT>
5

> <PUBCHEM_ATOM_UDEF_STEREO_COUNT>
0

> <PUBCHEM_BOND_DEF_STEREO_COUNT>
0

> <PUBCHEM_BOND_UDEF_STEREO_COUNT>
0

> <PUBCHEM_ISOTOPIC_ATOM_COUNT>
0

> <PUBCHEM_COMPONENT_COUNT>
1

> <PUBCHEM_CACTVS_TAUTO_COUNT>
1

> <PUBCHEM_CONFORMER_ID>
0006B45A00000001

> <PUBCHEM_MMFF94_ENERGY>
29.6239

> <PUBCHEM_FEATURE_SELFOVERLAP>
71.164

> <PUBCHEM_SHAPE_FINGERPRINT>
11132069 177 18343018878376162061
12932764 1 17918276484826962812
13024252 1 14405188374311498653
13296908 3 18408602548524549886
14144814 61 18272654566910689656
15219456 202 18115018735576502239
16945 1 18338502089494906821
17804303 29 18410852140329594497
18186145 218 18115587192073830500
190213 19 17275387612065196480
19107657 162 18335696122719909198
19422 9 18131631179925833938
20279233 1 17894631457301600142
20281475 54 18131069316583268690
20510252 161 18261391182617682265
20645477 70 17240758536640956462
20871998 184 18262234422015300335
22485316 2 18201723920841256378
23402539 116 18408893927912149263
23463225 33 18201721777631476606
23559900 14 18409731777189451868
4175511 318 17775013400892574805
69090 78 18113624468948967087
9709674 26 18334572469054738158

> <PUBCHEM_SHAPE_MULTIPOLES>
280.3
8.03
1.75
0.95
6.98
0.18
0.08
0.16
-1.05
-1.15
-0.18
0.38
0.1
-0.02

> <PUBCHEM_SHAPE_SELFOVERLAP>
551.572

> <PUBCHEM_SHAPE_VOLUME>
167.5

> <PUBCHEM_COORDINATE_TYPE>
2
5
10

$$$$

