440304
  -OEChem-07051212492D

 48 47  0     1  0  0  0  0  0999 V2000
   13.7953   -1.3450    0.0000 S   0  0  0  0  0  0  0  0  0  0  0  0
    3.4030   -0.3450    0.0000 P   0  0  0  0  0  0  0  0  0  0  0  0
    4.2690    0.1550    0.0000 O   0  0  0  0  0  0  0  0  0  0  0  0
    6.8671    1.6550    0.0000 O   0  0  0  0  0  0  0  0  0  0  0  0
    7.7331   -0.8450    0.0000 O   0  0  0  0  0  0  0  0  0  0  0  0
    2.5369   -0.8450    0.0000 O   0  0  0  0  0  0  0  0  0  0  0  0
    2.9030    0.5210    0.0000 O   0  0  0  0  0  0  0  0  0  0  0  0
    3.9030   -1.2110    0.0000 O   0  0  0  0  0  0  0  0  0  0  0  0
   11.1972   -0.8450    0.0000 O   0  0  0  0  0  0  0  0  0  0  0  0
   14.6613    0.1550    0.0000 O   0  0  0  0  0  0  0  0  0  0  0  0
   13.7953    1.6550    0.0000 O   0  0  0  0  0  0  0  0  0  0  0  0
    8.5991    0.6550    0.0000 N   0  0  0  0  0  0  0  0  0  0  0  0
   12.0632    0.6550    0.0000 N   0  0  0  0  0  0  0  0  0  0  0  0
    6.0010    0.1550    0.0000 C   0  0  0  0  0  0  0  0  0  0  0  0
    6.8671    0.6550    0.0000 C   0  0  2  0  0  0  0  0  0  0  0  0
    5.1350   -0.3450    0.0000 C   0  0  0  0  0  0  0  0  0  0  0  0
    5.5010    1.0210    0.0000 C   0  0  0  0  0  0  0  0  0  0  0  0
    6.5010   -0.7110    0.0000 C   0  0  0  0  0  0  0  0  0  0  0  0
    7.7331    0.1550    0.0000 C   0  0  0  0  0  0  0  0  0  0  0  0
    9.4651    0.1550    0.0000 C   0  0  0  0  0  0  0  0  0  0  0  0
   10.3312    0.6550    0.0000 C   0  0  0  0  0  0  0  0  0  0  0  0
   11.1972    0.1550    0.0000 C   0  0  0  0  0  0  0  0  0  0  0  0
   12.9292    0.1550    0.0000 C   0  0  1  0  0  0  0  0  0  0  0  0
   12.9292   -0.8450    0.0000 C   0  0  0  0  0  0  0  0  0  0  0  0
   13.7953    0.6550    0.0000 C   0  0  0  0  0  0  0  0  0  0  0  0
    6.3301    0.9650    0.0000 H   0  0  0  0  0  0  0  0  0  0  0  0
    4.7365   -0.8199    0.0000 H   0  0  0  0  0  0  0  0  0  0  0  0
    5.5335   -0.8199    0.0000 H   0  0  0  0  0  0  0  0  0  0  0  0
    5.9641   -1.0210    0.0000 H   0  0  0  0  0  0  0  0  0  0  0  0
    6.8110   -1.2480    0.0000 H   0  0  0  0  0  0  0  0  0  0  0  0
    6.0380    1.3310    0.0000 H   0  0  0  0  0  0  0  0  0  0  0  0
    5.1910    1.5580    0.0000 H   0  0  0  0  0  0  0  0  0  0  0  0
    4.9641    0.7110    0.0000 H   0  0  0  0  0  0  0  0  0  0  0  0
    7.0380   -0.4010    0.0000 H   0  0  0  0  0  0  0  0  0  0  0  0
    8.5991    1.2750    0.0000 H   0  0  0  0  0  0  0  0  0  0  0  0
    7.4040    1.9650    0.0000 H   0  0  0  0  0  0  0  0  0  0  0  0
    9.0666   -0.3199    0.0000 H   0  0  0  0  0  0  0  0  0  0  0  0
    9.8637   -0.3199    0.0000 H   0  0  0  0  0  0  0  0  0  0  0  0
   10.7297    1.1300    0.0000 H   0  0  0  0  0  0  0  0  0  0  0  0
    9.9326    1.1300    0.0000 H   0  0  0  0  0  0  0  0  0  0  0  0
   12.3923   -0.1550    0.0000 H   0  0  0  0  0  0  0  0  0  0  0  0
   12.0632    1.2750    0.0000 H   0  0  0  0  0  0  0  0  0  0  0  0
   12.3187   -0.7373    0.0000 H   0  0  0  0  0  0  0  0  0  0  0  0
   12.7172   -1.4276    0.0000 H   0  0  0  0  0  0  0  0  0  0  0  0
    2.0000   -0.5350    0.0000 H   0  0  0  0  0  0  0  0  0  0  0  0
    3.2130    1.0580    0.0000 H   0  0  0  0  0  0  0  0  0  0  0  0
   13.7953   -1.9650    0.0000 H   0  0  0  0  0  0  0  0  0  0  0  0
   15.1982    0.4650    0.0000 H   0  0  0  0  0  0  0  0  0  0  0  0
  1 24  1  0  0  0  0
  1 47  1  0  0  0  0
  2  3  1  0  0  0  0
  2  6  1  0  0  0  0
  2  7  1  0  0  0  0
  2  8  2  0  0  0  0
  3 16  1  0  0  0  0
 15  4  1  1  0  0  0
  4 36  1  0  0  0  0
  5 19  2  0  0  0  0
  6 45  1  0  0  0  0
  7 46  1  0  0  0  0
  9 22  2  0  0  0  0
 10 25  1  0  0  0  0
 10 48  1  0  0  0  0
 11 25  2  0  0  0  0
 12 19  1  0  0  0  0
 12 20  1  0  0  0  0
 12 35  1  0  0  0  0
 13 22  1  0  0  0  0
 23 13  1  6  0  0  0
 13 42  1  0  0  0  0
 14 15  1  0  0  0  0
 14 16  1  0  0  0  0
 14 17  1  0  0  0  0
 14 18  1  0  0  0  0
 15 19  1  0  0  0  0
 15 26  1  0  0  0  0
 16 27  1  0  0  0  0
 16 28  1  0  0  0  0
 17 31  1  0  0  0  0
 17 32  1  0  0  0  0
 17 33  1  0  0  0  0
 18 29  1  0  0  0  0
 18 30  1  0  0  0  0
 18 34  1  0  0  0  0
 20 21  1  0  0  0  0
 20 37  1  0  0  0  0
 20 38  1  0  0  0  0
 21 22  1  0  0  0  0
 21 39  1  0  0  0  0
 21 40  1  0  0  0  0
 23 24  1  0  0  0  0
 23 25  1  0  0  0  0
 23 41  1  0  0  0  0
 24 43  1  0  0  0  0
 24 44  1  0  0  0  0
M  END
> <PUBCHEM_COMPOUND_CID>
440304

> <PUBCHEM_COMPOUND_CANONICALIZED>
1

> <PUBCHEM_CACTVS_COMPLEXITY>
537

> <PUBCHEM_CACTVS_HBOND_ACCEPTOR>
10

> <PUBCHEM_CACTVS_HBOND_DONOR>
7

> <PUBCHEM_CACTVS_ROTATABLE_BOND>
11

> <PUBCHEM_CACTVS_SUBSKEYS>
AAADceBzPAJAAAAAAAAAAAAAAAAAAAAAAAAAAAAAAAAAAAAAAAAAHgQQCCAADjzlwAaCCALAAxQIQAGQGIIAAAAAAAAAAIHIAAACEBgAwCAEQAAFFgCQAAAiAAAJAAAAAAAAAAAAAAAAAAAAAAAAAAAAAA==

> <PUBCHEM_IUPAC_OPENEYE_NAME>
(2R)-2-[3-[[(2R)-2-hydroxy-3,3-dimethyl-4-phosphonooxy-butanoyl]amino]propanoylamino]-3-sulfanyl-propanoic acid

> <PUBCHEM_IUPAC_CAS_NAME>
(2R)-2-[[3-[[(2R)-2-hydroxy-3,3-dimethyl-1-oxo-4-phosphonooxybutyl]amino]-1-oxopropyl]amino]-3-mercaptopropanoic acid

> <PUBCHEM_IUPAC_NAME>
(2R)-2-[3-[[(2R)-2-hydroxy-3,3-dimethyl-4-phosphonooxybutanoyl]amino]propanoylamino]-3-sulfanylpropanoic acid

> <PUBCHEM_IUPAC_SYSTEMATIC_NAME>
(2R)-2-[3-[[(2R)-3,3-dimethyl-2-oxidanyl-4-phosphonooxy-butanoyl]amino]propanoylamino]-3-sulfanyl-propanoic acid

> <PUBCHEM_IUPAC_TRADITIONAL_NAME>
(2R)-2-[3-[[(2R)-2-hydroxy-3,3-dimethyl-4-phosphonooxy-butanoyl]amino]propanoylamino]-3-mercapto-propionic acid

> <PUBCHEM_IUPAC_INCHI>
InChI=1S/C12H23N2O9PS/c1-12(2,6-23-24(20,21)22)9(16)10(17)13-4-3-8(15)14-7(5-25)11(18)19/h7,9,16,25H,3-6H2,1-2H3,(H,13,17)(H,14,15)(H,18,19)(H2,20,21,22)/t7-,9-/m0/s1

> <PUBCHEM_IUPAC_INCHIKEY>
XQYALQVLCNHCFT-CBAPKCEASA-N

> <PUBCHEM_XLOGP3_AA>
-2.5

> <PUBCHEM_EXACT_MASS>
402.086188

> <PUBCHEM_MOLECULAR_FORMULA>
C12H23N2O9PS

> <PUBCHEM_MOLECULAR_WEIGHT>
402.357782

> <PUBCHEM_OPENEYE_CAN_SMILES>
CC(C)(COP(=O)(O)O)C(C(=O)NCCC(=O)NC(CS)C(=O)O)O

> <PUBCHEM_OPENEYE_ISO_SMILES>
CC(C)(COP(=O)(O)O)[C@H](C(=O)NCCC(=O)N[C@@H](CS)C(=O)O)O

> <PUBCHEM_CACTVS_TPSA>
184

> <PUBCHEM_MONOISOTOPIC_WEIGHT>
402.086188

> <PUBCHEM_TOTAL_CHARGE>
0

> <PUBCHEM_HEAVY_ATOM_COUNT>
25

> <PUBCHEM_ATOM_DEF_STEREO_COUNT>
2

> <PUBCHEM_ATOM_UDEF_STEREO_COUNT>
0

> <PUBCHEM_BOND_DEF_STEREO_COUNT>
0

> <PUBCHEM_BOND_UDEF_STEREO_COUNT>
0

> <PUBCHEM_ISOTOPIC_ATOM_COUNT>
0

> <PUBCHEM_COMPONENT_COUNT>
1

> <PUBCHEM_CACTVS_TAUTO_COUNT>
4

> <PUBCHEM_COORDINATE_TYPE>
1
5
255

> <PUBCHEM_BONDANNOTATIONS>
23  13  6
15  4  5

$$$$

