441905
  -OEChem-07051212562D

123130  0     1  0  0  0  0  0999 V2000
   11.2644   -2.7971    0.0000 O   0  0  0  0  0  0  0  0  0  0  0  0
    7.7342   -1.8212    0.0000 O   0  0  0  0  0  0  0  0  0  0  0  0
   15.6378    0.7106    0.0000 O   0  0  0  0  0  0  0  0  0  0  0  0
   14.9498    3.3127    0.0000 O   0  0  0  0  0  0  0  0  0  0  0  0
    6.8624   -0.3246    0.0000 O   0  0  0  0  0  0  0  0  0  0  0  0
   15.0057    6.0234    0.0000 O   0  0  0  0  0  0  0  0  0  0  0  0
    6.0061   -2.8279    0.0000 O   0  0  0  0  0  0  0  0  0  0  0  0
    4.2702   -1.8346    0.0000 O   0  0  0  0  0  0  0  0  0  0  0  0
    4.2625    0.1654    0.0000 O   0  0  0  0  0  0  0  0  0  0  0  0
    4.2740   -2.8346    0.0000 O   0  0  0  0  0  0  0  0  0  0  0  0
    6.0138   -4.8279    0.0000 O   0  0  0  0  0  0  0  0  0  0  0  0
    4.2856   -5.8346    0.0000 O   0  0  0  0  0  0  0  0  0  0  0  0
    2.5497   -4.8412    0.0000 O   0  0  0  0  0  0  0  0  0  0  0  0
    2.5381   -1.8412    0.0000 O   0  0  0  0  0  0  0  0  0  0  0  0
   11.2644    0.2029    0.0000 C   0  0  1  0  0  0  0  0  0  0  0  0
   10.3983   -0.2971    0.0000 C   0  0  2  0  0  0  0  0  0  0  0  0
   10.3981    0.7034    0.0000 C   0  0  0  0  0  0  0  0  0  0  0  0
   12.1304   -0.2971    0.0000 C   0  0  2  0  0  0  0  0  0  0  0  0
   10.3983   -1.2971    0.0000 C   0  0  1  0  0  0  0  0  0  0  0  0
   13.0404    0.2098    0.0000 C   0  0  1  0  0  0  0  0  0  0  0  0
   11.2483    1.2444    0.0000 C   0  0  0  0  0  0  0  0  0  0  0  0
   13.0484    1.2514    0.0000 C   0  0  2  0  0  0  0  0  0  0  0  0
    9.5044    0.2376    0.0000 C   0  0  0  0  0  0  0  0  0  0  0  0
   12.1304   -1.2971    0.0000 C   0  0  0  0  0  0  0  0  0  0  0  0
   11.2644   -1.7971    0.0000 C   0  0  2  0  0  0  0  0  0  0  0  0
   12.1463    1.7722    0.0000 C   0  0  0  0  0  0  0  0  0  0  0  0
    9.5044   -1.8317    0.0000 C   0  0  0  0  0  0  0  0  0  0  0  0
   14.0365    1.5612    0.0000 C   0  0  2  0  0  0  0  0  0  0  0  0
   14.0235   -0.1152    0.0000 C   0  0  0  0  0  0  0  0  0  0  0  0
    8.5983   -0.2763    0.0000 C   0  0  0  0  0  0  0  0  0  0  0  0
    8.5983   -1.3179    0.0000 C   0  0  2  0  0  0  0  0  0  0  0  0
   14.6379    0.7183    0.0000 C   0  0  2  0  0  0  0  0  0  0  0  0
   13.0327   -0.7902    0.0000 C   0  0  0  0  0  0  0  0  0  0  0  0
   13.0561    2.2513    0.0000 C   0  0  0  0  0  0  0  0  0  0  0  0
   14.3544    2.5093    0.0000 C   0  0  1  0  0  0  0  0  0  0  0  0
    9.0144   -2.7035    0.0000 C   0  0  0  0  0  0  0  0  0  0  0  0
   10.0144   -2.6919    0.0000 C   0  0  0  0  0  0  0  0  0  0  0  0
   13.4063    2.8273    0.0000 C   0  0  0  0  0  0  0  0  0  0  0  0
   15.1579    1.9139    0.0000 C   0  0  0  0  0  0  0  0  0  0  0  0
   13.4158    3.8272    0.0000 C   0  0  0  0  0  0  0  0  0  0  0  0
   14.3697    4.1272    0.0000 C   0  0  1  0  0  0  0  0  0  0  0  0
    6.8663   -1.3246    0.0000 C   0  0  2  0  0  0  0  0  0  0  0  0
   14.6877    5.0753    0.0000 C   0  0  0  0  0  0  0  0  0  0  0  0
    6.0022   -1.8279    0.0000 C   0  0  1  0  0  0  0  0  0  0  0  0
    5.1343   -1.3312    0.0000 C   0  0  2  0  0  0  0  0  0  0  0  0
   15.6358    4.7574    0.0000 C   0  0  0  0  0  0  0  0  0  0  0  0
   13.7396    5.3933    0.0000 C   0  0  0  0  0  0  0  0  0  0  0  0
    5.9945    0.1721    0.0000 C   0  0  0  0  0  0  0  0  0  0  0  0
    5.1304   -0.3312    0.0000 C   0  0  1  0  0  0  0  0  0  0  0  0
    5.1420   -3.3312    0.0000 C   0  0  2  0  0  0  0  0  0  0  0  0
    5.1458   -4.3312    0.0000 C   0  0  1  0  0  0  0  0  0  0  0  0
    4.2817   -4.8346    0.0000 C   0  0  2  0  0  0  0  0  0  0  0  0
    3.4099   -3.3379    0.0000 C   0  0  1  0  0  0  0  0  0  0  0  0
    3.4138   -4.3379    0.0000 C   0  0  1  0  0  0  0  0  0  0  0  0
    2.5420   -2.8412    0.0000 C   0  0  0  0  0  0  0  0  0  0  0  0
   10.6102    1.2860    0.0000 H   0  0  0  0  0  0  0  0  0  0  0  0
    9.7875    0.8110    0.0000 H   0  0  0  0  0  0  0  0  0  0  0  0
   12.8632   -0.7277    0.0000 H   0  0  0  0  0  0  0  0  0  0  0  0
   10.4049   -2.1470    0.0000 H   0  0  0  0  0  0  0  0  0  0  0  0
   11.0303    1.8248    0.0000 H   0  0  0  0  0  0  0  0  0  0  0  0
   10.6392    1.1289    0.0000 H   0  0  0  0  0  0  0  0  0  0  0  0
    9.9090    0.7074    0.0000 H   0  0  0  0  0  0  0  0  0  0  0  0
    9.1108    0.7166    0.0000 H   0  0  0  0  0  0  0  0  0  0  0  0
   12.3424   -1.8797    0.0000 H   0  0  0  0  0  0  0  0  0  0  0  0
   12.7410   -1.1894    0.0000 H   0  0  0  0  0  0  0  0  0  0  0  0
   10.7274   -2.1071    0.0000 H   0  0  0  0  0  0  0  0  0  0  0  0
   12.5437    2.2482    0.0000 H   0  0  0  0  0  0  0  0  0  0  0  0
   11.7454    2.2451    0.0000 H   0  0  0  0  0  0  0  0  0  0  0  0
   14.8772    1.6866    0.0000 H   0  0  0  0  0  0  0  0  0  0  0  0
   13.7681   -0.6802    0.0000 H   0  0  0  0  0  0  0  0  0  0  0  0
   14.5585   -0.4286    0.0000 H   0  0  0  0  0  0  0  0  0  0  0  0
    8.3893    0.3074    0.0000 H   0  0  0  0  0  0  0  0  0  0  0  0
    7.9875   -0.3824    0.0000 H   0  0  0  0  0  0  0  0  0  0  0  0
    8.6019   -1.9379    0.0000 H   0  0  0  0  0  0  0  0  0  0  0  0
   14.9153    0.1638    0.0000 H   0  0  0  0  0  0  0  0  0  0  0  0
   12.4127   -0.7854    0.0000 H   0  0  0  0  0  0  0  0  0  0  0  0
   13.0279   -1.4102    0.0000 H   0  0  0  0  0  0  0  0  0  0  0  0
   13.6527   -0.7950    0.0000 H   0  0  0  0  0  0  0  0  0  0  0  0
   13.6761    2.2466    0.0000 H   0  0  0  0  0  0  0  0  0  0  0  0
   13.0609    2.8713    0.0000 H   0  0  0  0  0  0  0  0  0  0  0  0
   12.4362    2.2561    0.0000 H   0  0  0  0  0  0  0  0  0  0  0  0
    8.4740   -2.3997    0.0000 H   0  0  0  0  0  0  0  0  0  0  0  0
    8.7107   -3.2440    0.0000 H   0  0  0  0  0  0  0  0  0  0  0  0
    9.5549   -3.0072    0.0000 H   0  0  0  0  0  0  0  0  0  0  0  0
    9.4811   -3.0081    0.0000 H   0  0  0  0  0  0  0  0  0  0  0  0
   10.3306   -3.2252    0.0000 H   0  0  0  0  0  0  0  0  0  0  0  0
   10.5477   -2.3757    0.0000 H   0  0  0  0  0  0  0  0  0  0  0  0
   11.8013   -3.1071    0.0000 H   0  0  0  0  0  0  0  0  0  0  0  0
   12.7904    2.8979    0.0000 H   0  0  0  0  0  0  0  0  0  0  0  0
   13.2717    2.2220    0.0000 H   0  0  0  0  0  0  0  0  0  0  0  0
   15.9437    0.1713    0.0000 H   0  0  0  0  0  0  0  0  0  0  0  0
   14.7887    1.4158    0.0000 H   0  0  0  0  0  0  0  0  0  0  0  0
   15.6560    1.5447    0.0000 H   0  0  0  0  0  0  0  0  0  0  0  0
   15.5270    2.4120    0.0000 H   0  0  0  0  0  0  0  0  0  0  0  0
   13.2926    4.4349    0.0000 H   0  0  0  0  0  0  0  0  0  0  0  0
   12.7986    3.7682    0.0000 H   0  0  0  0  0  0  0  0  0  0  0  0
   15.2105    4.2523    0.0000 H   0  0  0  0  0  0  0  0  0  0  0  0
    6.8687   -1.9446    0.0000 H   0  0  0  0  0  0  0  0  0  0  0  0
    5.4665   -2.1400    0.0000 H   0  0  0  0  0  0  0  0  0  0  0  0
    5.1367   -1.9512    0.0000 H   0  0  0  0  0  0  0  0  0  0  0  0
   15.4386    4.1695    0.0000 H   0  0  0  0  0  0  0  0  0  0  0  0
   16.2236    4.5602    0.0000 H   0  0  0  0  0  0  0  0  0  0  0  0
   15.8329    5.3452    0.0000 H   0  0  0  0  0  0  0  0  0  0  0  0
   13.9367    5.9811    0.0000 H   0  0  0  0  0  0  0  0  0  0  0  0
   13.1518    5.5905    0.0000 H   0  0  0  0  0  0  0  0  0  0  0  0
   13.5424    4.8055    0.0000 H   0  0  0  0  0  0  0  0  0  0  0  0
    6.3912    0.6486    0.0000 H   0  0  0  0  0  0  0  0  0  0  0  0
    5.5941    0.6455    0.0000 H   0  0  0  0  0  0  0  0  0  0  0  0
   15.6133    6.1466    0.0000 H   0  0  0  0  0  0  0  0  0  0  0  0
    4.5947   -0.6433    0.0000 H   0  0  0  0  0  0  0  0  0  0  0  0
    5.1396   -2.7112    0.0000 H   0  0  0  0  0  0  0  0  0  0  0  0
    3.7320   -1.5266    0.0000 H   0  0  0  0  0  0  0  0  0  0  0  0
    4.2601    0.7854    0.0000 H   0  0  0  0  0  0  0  0  0  0  0  0
    5.1482   -4.9512    0.0000 H   0  0  0  0  0  0  0  0  0  0  0  0
    4.8198   -5.1425    0.0000 H   0  0  0  0  0  0  0  0  0  0  0  0
    3.4075   -2.7179    0.0000 H   0  0  0  0  0  0  0  0  0  0  0  0
    2.8757   -4.0300    0.0000 H   0  0  0  0  0  0  0  0  0  0  0  0
    6.0162   -5.4479    0.0000 H   0  0  0  0  0  0  0  0  0  0  0  0
    1.9310   -2.7359    0.0000 H   0  0  0  0  0  0  0  0  0  0  0  0
    2.3322   -3.4247    0.0000 H   0  0  0  0  0  0  0  0  0  0  0  0
    3.7498   -6.1466    0.0000 H   0  0  0  0  0  0  0  0  0  0  0  0
    2.0116   -4.5333    0.0000 H   0  0  0  0  0  0  0  0  0  0  0  0
    2.0000   -1.5333    0.0000 H   0  0  0  0  0  0  0  0  0  0  0  0
 25  1  1  6  0  0  0
  1 88  1  0  0  0  0
 31  2  1  1  0  0  0
 42  2  1  1  0  0  0
 32  3  1  1  0  0  0
  3 91  1  0  0  0  0
  4 35  1  0  0  0  0
  4 41  1  0  0  0  0
  5 42  1  0  0  0  0
  5 48  1  0  0  0  0
  6 43  1  0  0  0  0
  6109  1  0  0  0  0
 44  7  1  6  0  0  0
 50  7  1  1  0  0  0
 45  8  1  1  0  0  0
  8112  1  0  0  0  0
 49  9  1  6  0  0  0
  9113  1  0  0  0  0
 10 50  1  0  0  0  0
 10 53  1  0  0  0  0
 51 11  1  6  0  0  0
 11118  1  0  0  0  0
 52 12  1  1  0  0  0
 12121  1  0  0  0  0
 54 13  1  6  0  0  0
 13122  1  0  0  0  0
 14 55  1  0  0  0  0
 14123  1  0  0  0  0
 15 16  1  0  0  0  0
 15 17  1  1  0  0  0
 15 18  1  0  0  0  0
 15 21  1  0  0  0  0
 16 17  1  1  0  0  0
 16 19  1  0  0  0  0
 16 23  1  0  0  0  0
 17 56  1  0  0  0  0
 17 57  1  0  0  0  0
 18 20  1  0  0  0  0
 18 24  1  0  0  0  0
 18 58  1  1  0  0  0
 19 25  1  0  0  0  0
 19 27  1  0  0  0  0
 19 59  1  6  0  0  0
 20 22  1  0  0  0  0
 20 29  1  0  0  0  0
 20 33  1  6  0  0  0
 21 26  1  0  0  0  0
 21 60  1  0  0  0  0
 21 61  1  0  0  0  0
 22 26  1  0  0  0  0
 22 28  1  0  0  0  0
 22 34  1  1  0  0  0
 23 30  1  0  0  0  0
 23 62  1  0  0  0  0
 23 63  1  0  0  0  0
 24 25  1  0  0  0  0
 24 64  1  0  0  0  0
 24 65  1  0  0  0  0
 25 66  1  0  0  0  0
 26 67  1  0  0  0  0
 26 68  1  0  0  0  0
 27 31  1  0  0  0  0
 27 36  1  0  0  0  0
 27 37  1  0  0  0  0
 28 32  1  0  0  0  0
 28 35  1  0  0  0  0
 28 69  1  6  0  0  0
 29 32  1  0  0  0  0
 29 70  1  0  0  0  0
 29 71  1  0  0  0  0
 30 31  1  0  0  0  0
 30 72  1  0  0  0  0
 30 73  1  0  0  0  0
 31 74  1  0  0  0  0
 32 75  1  0  0  0  0
 33 76  1  0  0  0  0
 33 77  1  0  0  0  0
 33 78  1  0  0  0  0
 34 79  1  0  0  0  0
 34 80  1  0  0  0  0
 34 81  1  0  0  0  0
 35 38  1  0  0  0  0
 35 39  1  6  0  0  0
 36 82  1  0  0  0  0
 36 83  1  0  0  0  0
 36 84  1  0  0  0  0
 37 85  1  0  0  0  0
 37 86  1  0  0  0  0
 37 87  1  0  0  0  0
 38 40  1  0  0  0  0
 38 89  1  0  0  0  0
 38 90  1  0  0  0  0
 39 92  1  0  0  0  0
 39 93  1  0  0  0  0
 39 94  1  0  0  0  0
 40 41  1  0  0  0  0
 40 95  1  0  0  0  0
 40 96  1  0  0  0  0
 41 43  1  0  0  0  0
 41 97  1  6  0  0  0
 42 44  1  0  0  0  0
 42 98  1  0  0  0  0
 43 46  1  0  0  0  0
 43 47  1  0  0  0  0
 44 45  1  0  0  0  0
 44 99  1  0  0  0  0
 45 49  1  0  0  0  0
 45100  1  0  0  0  0
 46101  1  0  0  0  0
 46102  1  0  0  0  0
 46103  1  0  0  0  0
 47104  1  0  0  0  0
 47105  1  0  0  0  0
 47106  1  0  0  0  0
 48 49  1  0  0  0  0
 48107  1  0  0  0  0
 48108  1  0  0  0  0
 49110  1  0  0  0  0
 50 51  1  0  0  0  0
 50111  1  0  0  0  0
 51 52  1  0  0  0  0
 51114  1  0  0  0  0
 52 54  1  0  0  0  0
 52115  1  0  0  0  0
 53 54  1  0  0  0  0
 53 55  1  1  0  0  0
 53116  1  0  0  0  0
 54117  1  0  0  0  0
 55119  1  0  0  0  0
 55120  1  0  0  0  0
M  END
> <PUBCHEM_COMPOUND_CID>
441905

> <PUBCHEM_COMPOUND_CANONICALIZED>
1

> <PUBCHEM_CACTVS_COMPLEXITY>
1460

> <PUBCHEM_CACTVS_HBOND_ACCEPTOR>
14

> <PUBCHEM_CACTVS_HBOND_DONOR>
9

> <PUBCHEM_CACTVS_ROTATABLE_BOND>
7

> <PUBCHEM_CACTVS_SUBSKEYS>
AAADcfB8PAAAAAAAAAAAAAAAGAAAAaIAAAA0aMECBgAAAGDAAAAAGgAACAAAD1SwgAMCCAAABgAAAAAAAAAAAAAAAAAAAAAAAAAREAIAAAAiQAAFAAAHAAHA4PwPgAAAAAAAAADAAAYAADAAAYAADAAAAA==

> <PUBCHEM_IUPAC_INCHI>
InChI=1S/C41H68O14/c1-35(2)24(53-34-30(26(46)21(45)17-51-34)54-33-29(49)28(48)27(47)22(16-42)52-33)9-11-41-18-40(41)13-12-37(5)32(39(7)10-8-25(55-39)36(3,4)50)20(44)15-38(37,6)23(40)14-19(43)31(35)41/h19-34,42-50H,8-18H2,1-7H3/t19-,20-,21+,22+,23-,24-,25-,26-,27+,28-,29+,30+,31-,32-,33-,34-,37+,38-,39+,40-,41+/m0/s1

> <PUBCHEM_IUPAC_INCHIKEY>
FVFSMBDVZVUETN-BQAOMNQWSA-N

> <PUBCHEM_XLOGP3_AA>
1.3

> <PUBCHEM_EXACT_MASS>
784.460907

> <PUBCHEM_MOLECULAR_FORMULA>
C41H68O14

> <PUBCHEM_MOLECULAR_WEIGHT>
784.97022

> <PUBCHEM_OPENEYE_CAN_SMILES>
CC1(C(CCC23C1C(CC4C2(C3)CCC5(C4(CC(C5C6(CCC(O6)C(C)(C)O)C)O)C)C)O)OC7C(C(C(CO7)O)O)OC8C(C(C(C(O8)CO)O)O)O)C

> <PUBCHEM_OPENEYE_ISO_SMILES>
C[C@]12CC[C@@]34C[C@@]35CC[C@@H](C([C@@H]5[C@H](C[C@H]4[C@@]1(C[C@@H]([C@@H]2[C@]6(CC[C@H](O6)C(C)(C)O)C)O)C)O)(C)C)O[C@H]7[C@@H]([C@H]([C@@H](CO7)O)O)O[C@H]8[C@@H]([C@H]([C@@H]([C@H](O8)CO)O)O)O

> <PUBCHEM_CACTVS_TPSA>
228

> <PUBCHEM_MONOISOTOPIC_WEIGHT>
784.460907

> <PUBCHEM_TOTAL_CHARGE>
0

> <PUBCHEM_HEAVY_ATOM_COUNT>
55

> <PUBCHEM_ATOM_DEF_STEREO_COUNT>
21

> <PUBCHEM_ATOM_UDEF_STEREO_COUNT>
0

> <PUBCHEM_BOND_DEF_STEREO_COUNT>
0

> <PUBCHEM_BOND_UDEF_STEREO_COUNT>
0

> <PUBCHEM_ISOTOPIC_ATOM_COUNT>
0

> <PUBCHEM_COMPONENT_COUNT>
1

> <PUBCHEM_CACTVS_TAUTO_COUNT>
1

> <PUBCHEM_COORDINATE_TYPE>
1
5
255

> <PUBCHEM_BONDANNOTATIONS>
25  1  6
51  11  6
52  12  5
54  13  6
15  17  5
16  17  5
18  58  5
19  59  6
31  2  5
42  2  5
20  33  6
22  34  5
28  69  6
32  3  5
35  39  6
41  97  6
53  55  5
44  7  6
50  7  5
45  8  5
49  9  6

$$$$

