69602
  -OEChem-07051212503D

 22 22  0     0  0  0  0  0  0999 V2000
   -3.2233    0.2906   -0.8104 O   0  0  0  0  0  0  0  0  0  0  0  0
   -1.4797    0.1222    0.7227 N   0  0  0  0  0  0  0  0  0  0  0  0
    1.6832   -0.5148   -1.0615 N   0  0  0  0  0  0  0  0  0  0  0  0
    3.0786   -0.5255    0.6661 N   0  0  0  0  0  0  0  0  0  0  0  0
    0.1563    1.3940   -0.5842 C   0  0  0  0  0  0  0  0  0  0  0  0
   -0.9056    1.4318    0.5139 C   0  0  0  0  0  0  0  0  0  0  0  0
    1.3224    0.4961   -0.2499 C   0  0  0  0  0  0  0  0  0  0  0  0
    2.1680    0.4924    0.8014 C   0  0  0  0  0  0  0  0  0  0  0  0
   -2.5932   -0.3345    0.0386 C   0  0  0  0  0  0  0  0  0  0  0  0
    2.7586   -1.1127   -0.4657 C   0  0  0  0  0  0  0  0  0  0  0  0
   -2.9653   -1.7397    0.4290 C   0  0  0  0  0  0  0  0  0  0  0  0
   -0.3007    1.0735   -1.5292 H   0  0  0  0  0  0  0  0  0  0  0  0
    0.5397    2.4090   -0.7458 H   0  0  0  0  0  0  0  0  0  0  0  0
   -0.4804    1.7582    1.4688 H   0  0  0  0  0  0  0  0  0  0  0  0
   -1.7007    2.1322    0.2367 H   0  0  0  0  0  0  0  0  0  0  0  0
   -1.0292   -0.4886    1.3982 H   0  0  0  0  0  0  0  0  0  0  0  0
    1.2544   -0.7879   -1.9364 H   0  0  0  0  0  0  0  0  0  0  0  0
    2.1914    1.1540    1.6549 H   0  0  0  0  0  0  0  0  0  0  0  0
    3.2584   -1.9644   -0.9047 H   0  0  0  0  0  0  0  0  0  0  0  0
   -3.9472   -1.9889    0.0173 H   0  0  0  0  0  0  0  0  0  0  0  0
   -2.2216   -2.4370    0.0335 H   0  0  0  0  0  0  0  0  0  0  0  0
   -3.0087   -1.8317    1.5181 H   0  0  0  0  0  0  0  0  0  0  0  0
  1  9  2  0  0  0  0
  2  6  1  0  0  0  0
  2  9  1  0  0  0  0
  2 16  1  0  0  0  0
  3  7  1  0  0  0  0
  3 10  1  0  0  0  0
  3 17  1  0  0  0  0
  4  8  1  0  0  0  0
  4 10  2  0  0  0  0
  5  6  1  0  0  0  0
  5  7  1  0  0  0  0
  5 12  1  0  0  0  0
  5 13  1  0  0  0  0
  6 14  1  0  0  0  0
  6 15  1  0  0  0  0
  7  8  2  0  0  0  0
  8 18  1  0  0  0  0
  9 11  1  0  0  0  0
 10 19  1  0  0  0  0
 11 20  1  0  0  0  0
 11 21  1  0  0  0  0
 11 22  1  0  0  0  0
M  END
> <PUBCHEM_COMPOUND_CID>
69602

> <PUBCHEM_CONFORMER_RMSD>
0.6

> <PUBCHEM_CONFORMER_DIVERSEORDER>
1
12
4
6
18
10
17
20
5
9
24
2
14
19
11
22
13
7
15
23
3
8
21
16

> <PUBCHEM_MMFF94_PARTIAL_CHARGES>
15
1 -0.57
10 0.04
11 0.06
16 0.37
17 0.27
18 0.15
19 0.15
2 -0.73
3 0.03
4 -0.57
5 0.18
6 0.3
7 -0.33
8 0.08
9 0.57

> <PUBCHEM_EFFECTIVE_ROTOR_COUNT>
4

> <PUBCHEM_PHARMACOPHORE_FEATURES>
5
1 1 acceptor
1 2 donor
1 3 donor
3 3 4 10 cation
5 3 4 7 8 10 rings

> <PUBCHEM_HEAVY_ATOM_COUNT>
11

> <PUBCHEM_ATOM_DEF_STEREO_COUNT>
0

> <PUBCHEM_ATOM_UDEF_STEREO_COUNT>
0

> <PUBCHEM_BOND_DEF_STEREO_COUNT>
0

> <PUBCHEM_BOND_UDEF_STEREO_COUNT>
0

> <PUBCHEM_ISOTOPIC_ATOM_COUNT>
0

> <PUBCHEM_COMPONENT_COUNT>
1

> <PUBCHEM_CACTVS_TAUTO_COUNT>
4

> <PUBCHEM_CONFORMER_ID>
00010FE200000001

> <PUBCHEM_MMFF94_ENERGY>
5.9866

> <PUBCHEM_FEATURE_SELFOVERLAP>
25.371

> <PUBCHEM_SHAPE_FINGERPRINT>
11471102 22 17312827108319828170
12932764 1 17489868232798827745
13296908 3 18412544284429644627
13764800 53 7709459450595895567
14390081 3 9367353613141219075
18186145 218 12319740284193190764
20201158 50 18408606976203549295
20653085 51 10879700014048662484
20828058 19 18113902697130660471
21028194 46 9223234061136088261
305870 269 7925642050746708532
549884 4 12967130480086026719
81228 2 18190454051058286081

> <PUBCHEM_SHAPE_MULTIPOLES>
205.56
5.48
1.52
0.96
1.49
0.09
-0.03
2.48
0.12
0.48
0.03
-0.17
-0.03
0.36

> <PUBCHEM_SHAPE_SELFOVERLAP>
413.162

> <PUBCHEM_SHAPE_VOLUME>
123.1

> <PUBCHEM_COORDINATE_TYPE>
2
5
10

$$$$

