74409
  -OEChem-07051213043D

 33 33  0     0  0  0  0  0  0999 V2000
    0.3271    1.4178   -0.7856 O   0  0  0  0  0  0  0  0  0  0  0  0
    1.7978    1.7907    0.9562 O   0  0  0  0  0  0  0  0  0  0  0  0
   -1.0474   -2.6572    0.0340 C   0  0  0  0  0  0  0  0  0  0  0  0
   -1.8868   -1.4681    0.5212 C   0  0  0  0  0  0  0  0  0  0  0  0
    0.3655   -2.2986   -0.4468 C   0  0  0  0  0  0  0  0  0  0  0  0
   -2.2067   -0.4480   -0.5776 C   0  0  0  0  0  0  0  0  0  0  0  0
    1.2507   -1.7078    0.6550 C   0  0  0  0  0  0  0  0  0  0  0  0
   -2.6967    0.8937   -0.0248 C   0  0  0  0  0  0  0  0  0  0  0  0
    2.5387   -1.0621    0.1310 C   0  0  0  0  0  0  0  0  0  0  0  0
   -1.6300    1.7627    0.6628 C   0  0  0  0  0  0  0  0  0  0  0  0
    2.3208    0.1649   -0.7551 C   0  0  0  0  0  0  0  0  0  0  0  0
   -0.6105    2.3892   -0.2908 C   0  0  0  0  0  0  0  0  0  0  0  0
    1.4776    1.2229   -0.0797 C   0  0  0  0  0  0  0  0  0  0  0  0
   -1.5802   -3.1577   -0.7838 H   0  0  0  0  0  0  0  0  0  0  0  0
   -0.9698   -3.3875    0.8488 H   0  0  0  0  0  0  0  0  0  0  0  0
   -2.8356   -1.8559    0.9144 H   0  0  0  0  0  0  0  0  0  0  0  0
   -1.3938   -0.9926    1.3723 H   0  0  0  0  0  0  0  0  0  0  0  0
    0.2958   -1.6241   -1.3031 H   0  0  0  0  0  0  0  0  0  0  0  0
    0.8455   -3.2100   -0.8253 H   0  0  0  0  0  0  0  0  0  0  0  0
   -1.3578   -0.2808   -1.2414 H   0  0  0  0  0  0  0  0  0  0  0  0
   -2.9974   -0.8713   -1.2104 H   0  0  0  0  0  0  0  0  0  0  0  0
    1.5202   -2.5107    1.3528 H   0  0  0  0  0  0  0  0  0  0  0  0
    0.7088   -0.9656    1.2467 H   0  0  0  0  0  0  0  0  0  0  0  0
   -3.1423    1.4690   -0.8459 H   0  0  0  0  0  0  0  0  0  0  0  0
   -3.5061    0.7041    0.6914 H   0  0  0  0  0  0  0  0  0  0  0  0
    3.1227   -1.8058   -0.4242 H   0  0  0  0  0  0  0  0  0  0  0  0
    3.1466   -0.7686    0.9963 H   0  0  0  0  0  0  0  0  0  0  0  0
   -2.1563    2.5818    1.1685 H   0  0  0  0  0  0  0  0  0  0  0  0
   -1.1143    1.1889    1.4389 H   0  0  0  0  0  0  0  0  0  0  0  0
    1.8670   -0.1223   -1.7096 H   0  0  0  0  0  0  0  0  0  0  0  0
    3.2839    0.6237   -1.0071 H   0  0  0  0  0  0  0  0  0  0  0  0
   -1.1149    2.8275   -1.1585 H   0  0  0  0  0  0  0  0  0  0  0  0
   -0.0764    3.2057    0.2094 H   0  0  0  0  0  0  0  0  0  0  0  0
  1 12  1  0  0  0  0
  1 13  1  0  0  0  0
  2 13  2  0  0  0  0
  3  4  1  0  0  0  0
  3  5  1  0  0  0  0
  3 14  1  0  0  0  0
  3 15  1  0  0  0  0
  4  6  1  0  0  0  0
  4 16  1  0  0  0  0
  4 17  1  0  0  0  0
  5  7  1  0  0  0  0
  5 18  1  0  0  0  0
  5 19  1  0  0  0  0
  6  8  1  0  0  0  0
  6 20  1  0  0  0  0
  6 21  1  0  0  0  0
  7  9  1  0  0  0  0
  7 22  1  0  0  0  0
  7 23  1  0  0  0  0
  8 10  1  0  0  0  0
  8 24  1  0  0  0  0
  8 25  1  0  0  0  0
  9 11  1  0  0  0  0
  9 26  1  0  0  0  0
  9 27  1  0  0  0  0
 10 12  1  0  0  0  0
 10 28  1  0  0  0  0
 10 29  1  0  0  0  0
 11 13  1  0  0  0  0
 11 30  1  0  0  0  0
 11 31  1  0  0  0  0
 12 32  1  0  0  0  0
 12 33  1  0  0  0  0
M  END
> <PUBCHEM_COMPOUND_CID>
74409

> <PUBCHEM_CONFORMER_RMSD>
0.6

> <PUBCHEM_CONFORMER_DIVERSEORDER>
1
21
6
8
18
10
22
5
12
13
11
17
20
15
19
7
16
14
4
3
9
2

> <PUBCHEM_MMFF94_PARTIAL_CHARGES>
5
1 -0.43
11 0.06
12 0.28
13 0.66
2 -0.57

> <PUBCHEM_EFFECTIVE_ROTOR_COUNT>
2.2

> <PUBCHEM_PHARMACOPHORE_FEATURES>
1
1 2 acceptor

> <PUBCHEM_HEAVY_ATOM_COUNT>
13

> <PUBCHEM_ATOM_DEF_STEREO_COUNT>
0

> <PUBCHEM_ATOM_UDEF_STEREO_COUNT>
0

> <PUBCHEM_BOND_DEF_STEREO_COUNT>
0

> <PUBCHEM_BOND_UDEF_STEREO_COUNT>
0

> <PUBCHEM_ISOTOPIC_ATOM_COUNT>
0

> <PUBCHEM_COMPONENT_COUNT>
1

> <PUBCHEM_CACTVS_TAUTO_COUNT>
1

> <PUBCHEM_CONFORMER_ID>
000122A900000001

> <PUBCHEM_MMFF94_ENERGY>
12.6948

> <PUBCHEM_FEATURE_SELFOVERLAP>
5.074

> <PUBCHEM_SHAPE_FINGERPRINT>
12382932 28 17975697182053552673
1420 336 18410856525333175491
14251711 518 18267307529921780858
14251717 144 17834681874282430493
14251745 187 18335420183998039610
15775835 57 18339352084380540597
16945 1 18338796848209377960
19930374 2 17982768244443078728
20201158 50 17045141355672000941
22802520 49 18189034444149688414
2334 1 18267021656924484663
2748010 2 18339078177204751415
2897 32 17835797869350681558
66348 1 18411418405871141791

> <PUBCHEM_SHAPE_MULTIPOLES>
255.8
3.67
3.28
0.88
0.15
0.74
0.03
-0.33
0.05
0.22
0.16
-0.08
-0.11
-0.06

> <PUBCHEM_SHAPE_SELFOVERLAP>
485.32

> <PUBCHEM_SHAPE_VOLUME>
155.9

> <PUBCHEM_COORDINATE_TYPE>
2
5
10

$$$$

