595
  -OEChem-07051212453D

 26 25  0     1  0  0  0  0  0999 V2000
   -0.4126   -0.2308    0.9457 S   0  0  0  0  0  0  0  0  0  0  0  0
    0.4167   -0.2255   -0.9335 S   0  0  0  0  0  0  0  0  0  0  0  0
   -3.2409   -1.5942   -1.0036 O   0  0  0  0  0  0  0  0  0  0  0  0
    3.2471   -1.5935    1.0015 O   0  0  0  0  0  0  0  0  0  0  0  0
   -4.0463   -0.8876    0.9959 O   0  0  0  0  0  0  0  0  0  0  0  0
    4.0421   -0.8862   -1.0019 O   0  0  0  0  0  0  0  0  0  0  0  0
   -3.7666    1.6853   -0.4069 N   0  0  0  0  0  0  0  0  0  0  0  0
    3.7656    1.6866    0.4017 N   0  0  0  0  0  0  0  0  0  0  0  0
   -2.7275    0.6575   -0.3169 C   0  0  1  0  0  0  0  0  0  0  0  0
    2.7276    0.6574    0.3168 C   0  0  1  0  0  0  0  0  0  0  0  0
   -1.7150    1.0301    0.7677 C   0  0  0  0  0  0  0  0  0  0  0  0
    1.7095    1.0285   -0.7631 C   0  0  0  0  0  0  0  0  0  0  0  0
   -3.4158   -0.6642   -0.0311 C   0  0  0  0  0  0  0  0  0  0  0  0
    3.4162   -0.6634    0.0279 C   0  0  0  0  0  0  0  0  0  0  0  0
   -2.2525    0.6060   -1.3016 H   0  0  0  0  0  0  0  0  0  0  0  0
    2.2636    0.6043    1.3063 H   0  0  0  0  0  0  0  0  0  0  0  0
   -1.2455    1.9981    0.5588 H   0  0  0  0  0  0  0  0  0  0  0  0
   -2.2087    1.1165    1.7427 H   0  0  0  0  0  0  0  0  0  0  0  0
    1.2428    1.9974   -0.5517 H   0  0  0  0  0  0  0  0  0  0  0  0
    2.1990    1.1168   -1.7401 H   0  0  0  0  0  0  0  0  0  0  0  0
   -4.3813    1.4827   -1.1946 H   0  0  0  0  0  0  0  0  0  0  0  0
   -3.3379    2.5884   -0.6069 H   0  0  0  0  0  0  0  0  0  0  0  0
    3.3357    2.5849    0.6209 H   0  0  0  0  0  0  0  0  0  0  0  0
    4.2079    1.8067   -0.5093 H   0  0  0  0  0  0  0  0  0  0  0  0
   -3.6831   -2.4417   -0.7833 H   0  0  0  0  0  0  0  0  0  0  0  0
    3.6893   -2.4404    0.7792 H   0  0  0  0  0  0  0  0  0  0  0  0
  1  2  1  0  0  0  0
  1 11  1  0  0  0  0
  2 12  1  0  0  0  0
  3 13  1  0  0  0  0
  3 25  1  0  0  0  0
  4 14  1  0  0  0  0
  4 26  1  0  0  0  0
  5 13  2  0  0  0  0
  6 14  2  0  0  0  0
  7  9  1  0  0  0  0
  7 21  1  0  0  0  0
  7 22  1  0  0  0  0
  8 10  1  0  0  0  0
  8 23  1  0  0  0  0
  8 24  1  0  0  0  0
  9 11  1  0  0  0  0
  9 13  1  0  0  0  0
  9 15  1  0  0  0  0
 10 12  1  0  0  0  0
 10 14  1  0  0  0  0
 10 16  1  0  0  0  0
 11 17  1  0  0  0  0
 11 18  1  0  0  0  0
 12 19  1  0  0  0  0
 12 20  1  0  0  0  0
M  END
> <PUBCHEM_COMPOUND_CID>
595

> <PUBCHEM_CONFORMER_RMSD>
0.8

> <PUBCHEM_CONFORMER_DIVERSEORDER>
2
249
127
291
108
71
201
4
10
58
126
292
171
25
199
276
122
34
12
216
117
21
247
68
97
214
235
157
255
23
170
140
226
172
260
69
162
53
230
155
294
270
248
151
92
111
64
90
229
159
212
142
169
187
44
152
137
184
210
7
124
94
20
258
233
143
225
238
16
250
288
138
231
110
207
254
256
168
105
74
287
102
101
200
93
61
125
112
150
192
77
227
41
222
194
87
295
264
268
158
98
46
263
145
85
234
104
246
211
277
36
244
163
50
86
218
31
59
203
114
196
52
35
165
79
220
57
82
174
5
217
257
245
242
202
243
81
236
237
8
149
164
73
223
99
198
22
197
33
89
188
103
178
213
239
28
284
55
26
275
113
241
100
134
219
240
17
193
84
47
38
39
54
290
30
121
27
186
132
274
181
18
115
107
63
147
166
24
221
251
40
141
279
156
189
204
205
6
269
116
182
215
209
190
37
278
91
43
273
133
176
14
208
80
272
45
15
183
136
83
65
267
232
175
293
78
144
49
66
72
32
252
148
48
135
139
42
265
130
120
118
128
129
29
19
285
9
75
228
286
266
271
109
173
281
70
60
67
206
253
3
119
154
88
177
283
160
51
11
282
289
195
13
131
261
153
95
280
262
76
180
259
167
106
185
62
56
123
191
1
146
224
161
179
96

> <PUBCHEM_MMFF94_PARTIAL_CHARGES>
20
1 -0.23
10 0.33
11 0.23
12 0.23
13 0.66
14 0.66
2 -0.23
21 0.36
22 0.36
23 0.36
24 0.36
25 0.5
26 0.5
3 -0.65
4 -0.65
5 -0.57
6 -0.57
7 -0.99
8 -0.99
9 0.33

> <PUBCHEM_EFFECTIVE_ROTOR_COUNT>
7

> <PUBCHEM_PHARMACOPHORE_FEATURES>
11
1 3 acceptor
1 4 acceptor
1 5 acceptor
1 6 acceptor
1 7 cation
1 7 donor
1 8 cation
1 8 donor
3 3 5 13 anion
3 4 6 14 anion
4 1 2 11 12 hydrophobe

> <PUBCHEM_HEAVY_ATOM_COUNT>
14

> <PUBCHEM_ATOM_DEF_STEREO_COUNT>
0

> <PUBCHEM_ATOM_UDEF_STEREO_COUNT>
2

> <PUBCHEM_BOND_DEF_STEREO_COUNT>
0

> <PUBCHEM_BOND_UDEF_STEREO_COUNT>
0

> <PUBCHEM_ISOTOPIC_ATOM_COUNT>
0

> <PUBCHEM_COMPONENT_COUNT>
1

> <PUBCHEM_CACTVS_TAUTO_COUNT>
1

> <PUBCHEM_CONFORMER_ID>
0000025300000002

> <PUBCHEM_MMFF94_ENERGY>
7.9801

> <PUBCHEM_FEATURE_SELFOVERLAP>
55.935

> <PUBCHEM_SHAPE_FINGERPRINT>
10062212 137 18342182206189112155
12932764 1 18410847763546903776
13167823 11 18410573989446626306
13296908 3 18410014333738421780
14144814 61 18060702792513287296
14289901 80 18337958891521326897
14325111 11 18410856555360886888
177051 138 18334574637759651054
17834072 33 18335414648154492932
18186145 218 18343302591051997816
19026448 4 18410575084663358245
20281475 54 17131833191930563978
20645477 56 18268423711013932549
20645477 70 18261395571994806198
22485316 2 18410859862469887044
23402655 69 18341048605358525772
23559900 14 17968379056461806390
581208 293 17989208127444593400
633830 44 16200146650851968769

> <PUBCHEM_SHAPE_MULTIPOLES>
262.37
8.78
1.61
1.11
0.01
0.12
0
-0.96
0.01
0
0
0
-0.19
0.01

> <PUBCHEM_SHAPE_SELFOVERLAP>
477.476

> <PUBCHEM_SHAPE_VOLUME>
168.7

> <PUBCHEM_COORDINATE_TYPE>
2
5
10

$$$$

