5325
  -OEChem-06261200382D

 30 31  0     0  0  0  0  0  0999 V2000
    3.0000    0.6550    0.0000 S   0  0  0  0  0  0  0  0  0  0  0  0
    4.0000    0.6550    0.0000 O   0  0  0  0  0  0  0  0  0  0  0  0
    2.0000    0.6550    0.0000 O   0  0  0  0  0  0  0  0  0  0  0  0
    3.0000    1.6550    0.0000 N   0  0  0  0  0  0  0  0  0  0  0  0
    4.7320    1.6550    0.0000 N   0  0  0  0  0  0  0  0  0  0  0  0
    3.8660    3.1550    0.0000 N   0  0  0  0  0  0  0  0  0  0  0  0
    3.0000   -3.3450    0.0000 N   0  0  0  0  0  0  0  0  0  0  0  0
    3.0000   -0.3450    0.0000 C   0  0  0  0  0  0  0  0  0  0  0  0
    2.1340   -0.8450    0.0000 C   0  0  0  0  0  0  0  0  0  0  0  0
    3.8660   -0.8450    0.0000 C   0  0  0  0  0  0  0  0  0  0  0  0
    3.0000   -2.3450    0.0000 C   0  0  0  0  0  0  0  0  0  0  0  0
    2.1340   -1.8450    0.0000 C   0  0  0  0  0  0  0  0  0  0  0  0
    3.8660   -1.8450    0.0000 C   0  0  0  0  0  0  0  0  0  0  0  0
    3.8660    2.1550    0.0000 C   0  0  0  0  0  0  0  0  0  0  0  0
    5.5981    2.1550    0.0000 C   0  0  0  0  0  0  0  0  0  0  0  0
    5.5981    3.1550    0.0000 C   0  0  0  0  0  0  0  0  0  0  0  0
    4.7320    3.6550    0.0000 C   0  0  0  0  0  0  0  0  0  0  0  0
    6.4641    1.6550    0.0000 C   0  0  0  0  0  0  0  0  0  0  0  0
    2.4631    1.9650    0.0000 H   0  0  0  0  0  0  0  0  0  0  0  0
    1.5970   -0.5350    0.0000 H   0  0  0  0  0  0  0  0  0  0  0  0
    4.4030   -0.5350    0.0000 H   0  0  0  0  0  0  0  0  0  0  0  0
    1.5970   -2.1550    0.0000 H   0  0  0  0  0  0  0  0  0  0  0  0
    4.4030   -2.1550    0.0000 H   0  0  0  0  0  0  0  0  0  0  0  0
    6.1350    3.4650    0.0000 H   0  0  0  0  0  0  0  0  0  0  0  0
    4.7320    4.2750    0.0000 H   0  0  0  0  0  0  0  0  0  0  0  0
    6.1541    1.1181    0.0000 H   0  0  0  0  0  0  0  0  0  0  0  0
    7.0010    1.3450    0.0000 H   0  0  0  0  0  0  0  0  0  0  0  0
    6.7741    2.1919    0.0000 H   0  0  0  0  0  0  0  0  0  0  0  0
    2.4631   -3.6550    0.0000 H   0  0  0  0  0  0  0  0  0  0  0  0
    3.5369   -3.6550    0.0000 H   0  0  0  0  0  0  0  0  0  0  0  0
  1  2  2  0  0  0  0
  1  3  2  0  0  0  0
  1  4  1  0  0  0  0
  1  8  1  0  0  0  0
  4 14  1  0  0  0  0
  4 19  1  0  0  0  0
  5 14  1  0  0  0  0
  5 15  2  0  0  0  0
  6 14  2  0  0  0  0
  6 17  1  0  0  0  0
  7 11  1  0  0  0  0
  7 29  1  0  0  0  0
  7 30  1  0  0  0  0
  8  9  2  0  0  0  0
  8 10  1  0  0  0  0
  9 12  1  0  0  0  0
  9 20  1  0  0  0  0
 10 13  2  0  0  0  0
 10 21  1  0  0  0  0
 11 12  2  0  0  0  0
 11 13  1  0  0  0  0
 12 22  1  0  0  0  0
 13 23  1  0  0  0  0
 15 16  1  0  0  0  0
 15 18  1  0  0  0  0
 16 17  2  0  0  0  0
 16 24  1  0  0  0  0
 17 25  1  0  0  0  0
 18 26  1  0  0  0  0
 18 27  1  0  0  0  0
 18 28  1  0  0  0  0
M  END
> <PUBCHEM_COMPOUND_CID>
5325

> <PUBCHEM_COMPOUND_CANONICALIZED>
1

> <PUBCHEM_CACTVS_COMPLEXITY>
360

> <PUBCHEM_CACTVS_HBOND_ACCEPTOR>
6

> <PUBCHEM_CACTVS_HBOND_DONOR>
2

> <PUBCHEM_CACTVS_ROTATABLE_BOND>
3

> <PUBCHEM_CACTVS_SUBSKEYS>
AAADccBzsABAAAAAAAAAAAAAAAAAAAAAAAA8QAAAAAAAAAABwAAAHAQQQAAACAjBVgQ/0ZZIEAKgATRnZHDCgDkxAqAJ2Dg4ZJiIKKLA2dGEJAhokAJIyCcQAAAAAAQAAAAAAAAACAAAAAAAAAAAAAAAAA==

> <PUBCHEM_IUPAC_OPENEYE_NAME>
4-amino-N-(4-methylpyrimidin-2-yl)benzenesulfonamide

> <PUBCHEM_IUPAC_CAS_NAME>
4-amino-N-(4-methyl-2-pyrimidinyl)benzenesulfonamide

> <PUBCHEM_IUPAC_NAME>
4-amino-N-(4-methylpyrimidin-2-yl)benzenesulfonamide

> <PUBCHEM_IUPAC_SYSTEMATIC_NAME>
4-azanyl-N-(4-methylpyrimidin-2-yl)benzenesulfonamide

> <PUBCHEM_IUPAC_TRADITIONAL_NAME>
4-amino-N-(4-methylpyrimidin-2-yl)benzenesulfonamide

> <PUBCHEM_IUPAC_INCHI>
InChI=1S/C11H12N4O2S/c1-8-6-7-13-11(14-8)15-18(16,17)10-4-2-9(12)3-5-10/h2-7H,12H2,1H3,(H,13,14,15)

> <PUBCHEM_IUPAC_INCHIKEY>
QPPBRPIAZZHUNT-UHFFFAOYSA-N

> <PUBCHEM_XLOGP3>
0.1

> <PUBCHEM_EXACT_MASS>
264.068097

> <PUBCHEM_MOLECULAR_FORMULA>
C11H12N4O2S

> <PUBCHEM_MOLECULAR_WEIGHT>
264.30358

> <PUBCHEM_OPENEYE_CAN_SMILES>
CC1=NC(=NC=C1)NS(=O)(=O)C2=CC=C(C=C2)N

> <PUBCHEM_OPENEYE_ISO_SMILES>
CC1=NC(=NC=C1)NS(=O)(=O)C2=CC=C(C=C2)N

> <PUBCHEM_CACTVS_TPSA>
106

> <PUBCHEM_MONOISOTOPIC_WEIGHT>
264.068097

> <PUBCHEM_TOTAL_CHARGE>
0

> <PUBCHEM_HEAVY_ATOM_COUNT>
18

> <PUBCHEM_ATOM_DEF_STEREO_COUNT>
0

> <PUBCHEM_ATOM_UDEF_STEREO_COUNT>
0

> <PUBCHEM_BOND_DEF_STEREO_COUNT>
0

> <PUBCHEM_BOND_UDEF_STEREO_COUNT>
0

> <PUBCHEM_ISOTOPIC_ATOM_COUNT>
0

> <PUBCHEM_COMPONENT_COUNT>
1

> <PUBCHEM_CACTVS_TAUTO_COUNT>
6

> <PUBCHEM_COORDINATE_TYPE>
1
5
255

> <PUBCHEM_BONDANNOTATIONS>
10  13  8
11  12  8
11  13  8
15  16  8
16  17  8
5  14  8
5  15  8
6  14  8
6  17  8
8  10  8
8  9  8
9  12  8

$$$$

