17395459
  -OEChem-06241222503D

 50 52  0     0  0  0  0  0  0999 V2000
    6.1227   -0.8339    0.0627 O   0  0  0  0  0  0  0  0  0  0  0  0
   -3.5058   -1.2805    0.5051 O   0  0  0  0  0  0  0  0  0  0  0  0
   -0.8473   -2.0361    1.7044 O   0  0  0  0  0  0  0  0  0  0  0  0
    4.4811    0.8958   -0.0475 N   0  0  0  0  0  0  0  0  0  0  0  0
   -1.0781   -2.3670   -0.5982 N   0  0  0  0  0  0  0  0  0  0  0  0
    4.5454    2.3416   -0.1382 C   0  0  0  0  0  0  0  0  0  0  0  0
    5.9299    2.6136   -0.6881 C   0  0  0  0  0  0  0  0  0  0  0  0
    6.7593    1.4739   -0.1314 C   0  0  0  0  0  0  0  0  0  0  0  0
    5.7720    0.3320   -0.0462 C   0  0  0  0  0  0  0  0  0  0  0  0
    3.2470    0.1964    0.1022 C   0  0  0  0  0  0  0  0  0  0  0  0
    3.2462   -1.1881    0.2722 C   0  0  0  0  0  0  0  0  0  0  0  0
    2.0411    0.8971    0.0797 C   0  0  0  0  0  0  0  0  0  0  0  0
    0.8335   -1.1712    0.3973 C   0  0  0  0  0  0  0  0  0  0  0  0
    2.0395   -1.8718    0.4198 C   0  0  0  0  0  0  0  0  0  0  0  0
    0.8344    0.2133    0.2272 C   0  0  0  0  0  0  0  0  0  0  0  0
   -0.4249   -1.8836    0.5504 C   0  0  0  0  0  0  0  0  0  0  0  0
   -2.3367   -3.1057   -0.5247 C   0  0  0  0  0  0  0  0  0  0  0  0
   -3.5341   -2.1759   -0.5989 C   0  0  0  0  0  0  0  0  0  0  0  0
   -0.5434   -2.1639   -1.9373 C   0  0  0  0  0  0  0  0  0  0  0  0
   -4.0630   -0.0435    0.3115 C   0  0  0  0  0  0  0  0  0  0  0  0
   -5.1191    0.1128   -0.5863 C   0  0  0  0  0  0  0  0  0  0  0  0
   -3.5738    1.0592    1.0117 C   0  0  0  0  0  0  0  0  0  0  0  0
   -5.1968    2.4746   -0.0835 C   0  0  0  0  0  0  0  0  0  0  0  0
   -5.6860    1.3717   -0.7837 C   0  0  0  0  0  0  0  0  0  0  0  0
   -4.1407    2.3183    0.8142 C   0  0  0  0  0  0  0  0  0  0  0  0
   -5.8024    3.8209   -0.2942 C   0  0  0  0  0  0  0  0  0  0  0  0
    4.4203    2.7620    0.8656 H   0  0  0  0  0  0  0  0  0  0  0  0
    3.7948    2.7499   -0.8205 H   0  0  0  0  0  0  0  0  0  0  0  0
    5.9145    2.5549   -1.7837 H   0  0  0  0  0  0  0  0  0  0  0  0
    6.3127    3.5991   -0.4086 H   0  0  0  0  0  0  0  0  0  0  0  0
    7.5961    1.2207   -0.7870 H   0  0  0  0  0  0  0  0  0  0  0  0
    7.1261    1.6968    0.8756 H   0  0  0  0  0  0  0  0  0  0  0  0
    4.1420   -1.7930    0.3002 H   0  0  0  0  0  0  0  0  0  0  0  0
    1.9892    1.9744   -0.0376 H   0  0  0  0  0  0  0  0  0  0  0  0
    2.0492   -2.9509    0.5515 H   0  0  0  0  0  0  0  0  0  0  0  0
   -0.0999    0.7687    0.2104 H   0  0  0  0  0  0  0  0  0  0  0  0
   -2.3553   -3.6363    0.4343 H   0  0  0  0  0  0  0  0  0  0  0  0
   -2.3658   -3.8535   -1.3243 H   0  0  0  0  0  0  0  0  0  0  0  0
   -4.4563   -2.7663   -0.5538 H   0  0  0  0  0  0  0  0  0  0  0  0
   -3.4945   -1.6439   -1.5579 H   0  0  0  0  0  0  0  0  0  0  0  0
    0.3734   -1.5756   -1.9674 H   0  0  0  0  0  0  0  0  0  0  0  0
   -0.3355   -3.1438   -2.3785 H   0  0  0  0  0  0  0  0  0  0  0  0
   -1.2960   -1.6515   -2.5438 H   0  0  0  0  0  0  0  0  0  0  0  0
   -5.5487   -0.7240   -1.1289 H   0  0  0  0  0  0  0  0  0  0  0  0
   -2.7504    0.9429    1.7112 H   0  0  0  0  0  0  0  0  0  0  0  0
   -6.5138    1.4798   -1.4797 H   0  0  0  0  0  0  0  0  0  0  0  0
   -3.7517    3.1694    1.3667 H   0  0  0  0  0  0  0  0  0  0  0  0
   -6.6182    3.9814    0.4174 H   0  0  0  0  0  0  0  0  0  0  0  0
   -5.0586    4.6138   -0.1607 H   0  0  0  0  0  0  0  0  0  0  0  0
   -6.1985    3.9218   -1.3105 H   0  0  0  0  0  0  0  0  0  0  0  0
  1  9  2  0  0  0  0
  2 18  1  0  0  0  0
  2 20  1  0  0  0  0
  3 16  2  0  0  0  0
  4  6  1  0  0  0  0
  4  9  1  0  0  0  0
  4 10  1  0  0  0  0
  5 16  1  0  0  0  0
  5 17  1  0  0  0  0
  5 19  1  0  0  0  0
  6  7  1  0  0  0  0
  6 27  1  0  0  0  0
  6 28  1  0  0  0  0
  7  8  1  0  0  0  0
  7 29  1  0  0  0  0
  7 30  1  0  0  0  0
  8  9  1  0  0  0  0
  8 31  1  0  0  0  0
  8 32  1  0  0  0  0
 10 11  2  0  0  0  0
 10 12  1  0  0  0  0
 11 14  1  0  0  0  0
 11 33  1  0  0  0  0
 12 15  2  0  0  0  0
 12 34  1  0  0  0  0
 13 14  2  0  0  0  0
 13 15  1  0  0  0  0
 13 16  1  0  0  0  0
 14 35  1  0  0  0  0
 15 36  1  0  0  0  0
 17 18  1  0  0  0  0
 17 37  1  0  0  0  0
 17 38  1  0  0  0  0
 18 39  1  0  0  0  0
 18 40  1  0  0  0  0
 19 41  1  0  0  0  0
 19 42  1  0  0  0  0
 19 43  1  0  0  0  0
 20 21  2  0  0  0  0
 20 22  1  0  0  0  0
 21 24  1  0  0  0  0
 21 44  1  0  0  0  0
 22 25  2  0  0  0  0
 22 45  1  0  0  0  0
 23 24  2  0  0  0  0
 23 25  1  0  0  0  0
 23 26  1  0  0  0  0
 24 46  1  0  0  0  0
 25 47  1  0  0  0  0
 26 48  1  0  0  0  0
 26 49  1  0  0  0  0
 26 50  1  0  0  0  0
M  END
> <PUBCHEM_COMPOUND_CID>
17395459

> <PUBCHEM_CONFORMER_RMSD>
1

> <PUBCHEM_CONFORMER_DIVERSEORDER>
1
18
16
48
64
88
94
23
87
42
84
38
105
86
117
74
101
111
59
12
58
85
33
7
81
123
91
77
68
82
21
11
6
119
93
124
39
67
26
44
57
37
89
109
102
120
66
47
96
79
19
116
76
52
71
98
97
107
65
69
8
63
53
60
31
45
15
90
56
13
51
17
28
103
25
34
112
114
54
43
95
75
3
108
24
106
100
118
14
73
50
121
99
10
46
30
80
9
40
104
70
72
41
92
36
27
122
49
2
32
29
22
5
83
78
4
110
20
115
35
62
113
55
61

> <PUBCHEM_MMFF94_PARTIAL_CHARGES>
33
1 -0.57
10 0.12
11 -0.15
12 -0.15
13 0.09
14 -0.15
15 -0.15
16 0.54
17 0.3
18 0.28
19 0.3
2 -0.36
20 0.08
21 -0.15
22 -0.15
23 -0.14
24 -0.15
25 -0.15
26 0.14
3 -0.57
33 0.15
34 0.15
35 0.15
36 0.15
4 -0.48
44 0.15
45 0.15
46 0.15
47 0.15
5 -0.66
6 0.3
8 0.06
9 0.57

> <PUBCHEM_EFFECTIVE_ROTOR_COUNT>
7.8

> <PUBCHEM_PHARMACOPHORE_FEATURES>
6
1 1 acceptor
1 2 acceptor
1 3 acceptor
5 4 6 7 8 9 rings
6 10 11 12 13 14 15 rings
6 20 21 22 23 24 25 rings

> <PUBCHEM_HEAVY_ATOM_COUNT>
26

> <PUBCHEM_ATOM_DEF_STEREO_COUNT>
0

> <PUBCHEM_ATOM_UDEF_STEREO_COUNT>
0

> <PUBCHEM_BOND_DEF_STEREO_COUNT>
0

> <PUBCHEM_BOND_UDEF_STEREO_COUNT>
0

> <PUBCHEM_ISOTOPIC_ATOM_COUNT>
0

> <PUBCHEM_COMPONENT_COUNT>
1

> <PUBCHEM_CACTVS_TAUTO_COUNT>
2

> <PUBCHEM_CONFORMER_ID>
01096F0300000001

> <PUBCHEM_MMFF94_ENERGY>
84.4751

> <PUBCHEM_FEATURE_SELFOVERLAP>
30.447

> <PUBCHEM_SHAPE_FINGERPRINT>
11763715 3 17403446382501259863
12107183 9 18269002062403748514
12422481 6 17203610384891822796
13103583 49 12031497848490626511
13167372 99 18341334418784688984
13690498 29 17606685720964388351
13944108 23 17759243294774312305
14251764 30 9294994765881667669
14251764 75 18192704760483119105
14257110 125 18411702110632165801
14294032 229 18040997328995906183
14347329 18 18335708255796818601
14713325 29 18263076622543340895
14790565 3 18340484444566958468
14931854 50 18260555549944625389
14950920 106 13542453263998974613
15064981 113 17531237405444865588
15183329 4 18333728001433162054
15876981 60 18123471583872061983
17913733 40 15769508555658530528
17980427 26 18128832987005452691
18608769 82 18339919313108001811
20511986 3 18187654561963655170
21033648 144 18130231566417333135
21236236 1 18338516339605590158
21279426 13 18335693962625542454
21304253 335 18272928306804190566
23569914 152 17609196198795507342
23569914 2 17172693174560923016
2748736 6 18340777004264040072
2838139 119 18409732867562486509
4015057 19 4894987898707863482
4144715 1 18271514317624320986
44249763 50 17532667724038328496
44802255 64 17677607571520470342
5104073 3 17775006790727299778
5171179 24 17680437645214307137
5283173 99 18335138640280935352
5372103 7 17773055240216009685
6299153 45 18341336699233267938
6327066 14 18339364166878230333
6328613 192 18411981356241346452
636775 72 18194966232695315784
7288768 16 17918274242790848323
7808743 9 18409733971806879515
7970288 3 9078530617671719181

> <PUBCHEM_SHAPE_MULTIPOLES>
507.5
16.89
3.96
1.05
10.22
0.86
-0.11
16.54
-2.09
-4
-0.62
-0.59
-0.43
-0.88

> <PUBCHEM_SHAPE_SELFOVERLAP>
1079.939

> <PUBCHEM_SHAPE_VOLUME>
284.2

> <PUBCHEM_COORDINATE_TYPE>
2
5
10

$$$$

