17396312
  -OEChem-06241222553D

 39 40  0     0  0  0  0  0  0999 V2000
   -1.9284   -0.0937    0.0025 O   0  0  0  0  0  0  0  0  0  0  0  0
    0.1372   -1.7337   -0.0390 O   0  0  0  0  0  0  0  0  0  0  0  0
    6.3480    0.5085   -0.5444 O   0  0  0  0  0  0  0  0  0  0  0  0
   -4.2051   -1.3481   -0.0616 O   0  0  0  0  0  0  0  0  0  0  0  0
   -2.9183    1.9732    0.0887 O   0  0  0  0  0  0  0  0  0  0  0  0
    2.2071    1.2364    0.0354 N   0  0  0  0  0  0  0  0  0  0  0  0
    2.9977   -0.8377   -0.0344 C   0  0  0  0  0  0  0  0  0  0  0  0
    4.0917    0.0625   -0.0147 C   0  0  0  0  0  0  0  0  0  0  0  0
    1.8447   -0.0847   -0.0025 C   0  0  0  0  0  0  0  0  0  0  0  0
    3.5739    1.3380    0.0290 C   0  0  0  0  0  0  0  0  0  0  0  0
    0.4854   -0.5276   -0.0060 C   0  0  0  0  0  0  0  0  0  0  0  0
    3.0801   -2.3129   -0.0812 C   0  0  0  0  0  0  0  0  0  0  0  0
    4.2364    2.6565    0.0653 C   0  0  0  0  0  0  0  0  0  0  0  0
    5.4931   -0.2492   -0.0346 C   0  0  0  0  0  0  0  0  0  0  0  0
   -0.6511    0.5142    0.0347 C   0  0  0  0  0  0  0  0  0  0  0  0
    6.0137   -1.5489    0.5783 C   0  0  0  0  0  0  0  0  0  0  0  0
   -4.2734    0.0077   -0.0024 C   0  0  0  0  0  0  0  0  0  0  0  0
   -5.5840    0.4252    0.0112 C   0  0  0  0  0  0  0  0  0  0  0  0
   -3.0134    0.7514    0.0348 C   0  0  0  0  0  0  0  0  0  0  0  0
   -6.3715   -0.7495   -0.0432 C   0  0  0  0  0  0  0  0  0  0  0  0
   -6.0777    1.8134    0.0702 C   0  0  0  0  0  0  0  0  0  0  0  0
   -5.4862   -1.8012   -0.0861 C   0  0  0  0  0  0  0  0  0  0  0  0
    1.5698    2.0205    0.0641 H   0  0  0  0  0  0  0  0  0  0  0  0
    3.9104   -2.6467   -0.7091 H   0  0  0  0  0  0  0  0  0  0  0  0
    2.1933   -2.7708   -0.5253 H   0  0  0  0  0  0  0  0  0  0  0  0
    3.2049   -2.7264    0.9242 H   0  0  0  0  0  0  0  0  0  0  0  0
    5.0114    2.6800    0.8383 H   0  0  0  0  0  0  0  0  0  0  0  0
    3.5277    3.4620    0.2848 H   0  0  0  0  0  0  0  0  0  0  0  0
    4.7050    2.8760   -0.8993 H   0  0  0  0  0  0  0  0  0  0  0  0
   -0.5477    1.0908    0.9610 H   0  0  0  0  0  0  0  0  0  0  0  0
   -0.5417    1.1687   -0.8376 H   0  0  0  0  0  0  0  0  0  0  0  0
    6.0336   -2.3372   -0.1765 H   0  0  0  0  0  0  0  0  0  0  0  0
    5.4082   -1.8437    1.4385 H   0  0  0  0  0  0  0  0  0  0  0  0
    7.0341   -1.3839    0.9393 H   0  0  0  0  0  0  0  0  0  0  0  0
   -7.4496   -0.8253   -0.0505 H   0  0  0  0  0  0  0  0  0  0  0  0
   -5.7300    2.3096    0.9822 H   0  0  0  0  0  0  0  0  0  0  0  0
   -5.7236    2.3873   -0.7924 H   0  0  0  0  0  0  0  0  0  0  0  0
   -7.1722    1.8479    0.0678 H   0  0  0  0  0  0  0  0  0  0  0  0
   -5.6013   -2.8741   -0.1336 H   0  0  0  0  0  0  0  0  0  0  0  0
  1 15  1  0  0  0  0
  1 19  1  0  0  0  0
  2 11  2  0  0  0  0
  3 14  2  0  0  0  0
  4 17  1  0  0  0  0
  4 22  1  0  0  0  0
  5 19  2  0  0  0  0
  6  9  1  0  0  0  0
  6 10  1  0  0  0  0
  6 23  1  0  0  0  0
  7  8  1  0  0  0  0
  7  9  2  0  0  0  0
  7 12  1  0  0  0  0
  8 10  2  0  0  0  0
  8 14  1  0  0  0  0
  9 11  1  0  0  0  0
 10 13  1  0  0  0  0
 11 15  1  0  0  0  0
 12 24  1  0  0  0  0
 12 25  1  0  0  0  0
 12 26  1  0  0  0  0
 13 27  1  0  0  0  0
 13 28  1  0  0  0  0
 13 29  1  0  0  0  0
 14 16  1  0  0  0  0
 15 30  1  0  0  0  0
 15 31  1  0  0  0  0
 16 32  1  0  0  0  0
 16 33  1  0  0  0  0
 16 34  1  0  0  0  0
 17 18  2  0  0  0  0
 17 19  1  0  0  0  0
 18 20  1  0  0  0  0
 18 21  1  0  0  0  0
 20 22  2  0  0  0  0
 20 35  1  0  0  0  0
 21 36  1  0  0  0  0
 21 37  1  0  0  0  0
 21 38  1  0  0  0  0
 22 39  1  0  0  0  0
M  END
> <PUBCHEM_COMPOUND_CID>
17396312

> <PUBCHEM_CONFORMER_RMSD>
1.2

> <PUBCHEM_CONFORMER_DIVERSEORDER>
1
8
6
40
27
45
60
44
7
50
49
18
3
21
37
25
56
39
46
9
17
32
55
28
54
36
29
16
53
10
51
26
33
34
5
14
4
30
42
35
38
22
43
59
48
47
2
41
24
15
31
58
57
52
13
23
11
12
20
19

> <PUBCHEM_MMFF94_PARTIAL_CHARGES>
25
1 -0.43
10 -0.33
11 0.59
12 0.18
13 0.18
14 0.6
15 0.34
16 0.06
17 0.05
18 -0.18
19 0.81
2 -0.57
20 -0.15
21 0.18
22 -0.01
23 0.27
3 -0.57
35 0.15
39 0.15
4 -0.28
5 -0.57
6 0.03
7 -0.18
8 -0.09
9 -0.24

> <PUBCHEM_EFFECTIVE_ROTOR_COUNT>
6

> <PUBCHEM_PHARMACOPHORE_FEATURES>
8
1 2 acceptor
1 3 acceptor
1 4 acceptor
1 5 acceptor
1 6 cation
1 6 donor
5 4 17 18 20 22 rings
5 6 7 8 9 10 rings

> <PUBCHEM_HEAVY_ATOM_COUNT>
22

> <PUBCHEM_ATOM_DEF_STEREO_COUNT>
0

> <PUBCHEM_ATOM_UDEF_STEREO_COUNT>
0

> <PUBCHEM_BOND_DEF_STEREO_COUNT>
0

> <PUBCHEM_BOND_UDEF_STEREO_COUNT>
0

> <PUBCHEM_ISOTOPIC_ATOM_COUNT>
0

> <PUBCHEM_COMPONENT_COUNT>
1

> <PUBCHEM_CACTVS_TAUTO_COUNT>
52

> <PUBCHEM_CONFORMER_ID>
0109725800000001

> <PUBCHEM_MMFF94_ENERGY>
30.5263

> <PUBCHEM_FEATURE_SELFOVERLAP>
40.594

> <PUBCHEM_SHAPE_FINGERPRINT>
10411042 1 17978228589568006878
10595046 47 18408885122833676729
11315181 36 18113897152987394433
11524674 6 16877663448720094487
11578080 2 16735252392066739210
11719270 70 18260271884139201798
12107183 9 17688870156596171665
12166972 35 18272930509880495612
12236239 1 18411138043206441334
12403259 415 18131080332700058500
12616971 3 17894921702169149332
13167372 99 18335982051177006593
13167823 11 18409451401418621759
13533116 47 17203341043139642618
14251764 18 18273498966703890698
14341114 176 18337666516276061599
14528608 73 18410291380698685541
14933364 13 18411416211448938573
15183329 4 18411984680640881929
15196674 1 18410293597344921737
17834072 33 18410575067483209743
17844677 252 18409724063185893953
17857418 61 18411420626453772875
18222031 100 16773800281477044156
18681886 176 18335988579548018864
19489759 90 16702305659357899661
21267235 1 18408598171815848702
21315763 129 18411419531226770717
21315763 28 18410294701320224471
21709351 56 18343026579801221925
220451 1 17703791431254559171
23035841 295 18411418415009728691
23402539 116 18413110559041148511
23522609 53 18196341858362978460
23536379 177 18411138043401620371
23559900 14 18410297990954203457
239999 70 18187640328020205614
3004659 81 18341896294400408384
335352 9 18411413996179218006
34797466 226 17822281350020817317
350125 39 18410576197349953892
351380 180 18413388730634205048
3545911 37 18411136935110153719
4073 2 18059849541336204883
4214541 1 18410293636136881393
4325135 7 18408323276876748311
474229 33 18335420153923121879
5104073 3 18411698799096194009
542803 24 17704069599401740317
54446538 1 18335421265960812377
7495541 125 17821732697707413200
9996256 80 18411420617816183614

> <PUBCHEM_SHAPE_MULTIPOLES>
418.42
18.12
2.23
0.62
9.21
0.33
-0.01
-0.5
-0.06
-0.77
-0.05
-0.16
-0.02
-0.37

> <PUBCHEM_SHAPE_SELFOVERLAP>
891.759

> <PUBCHEM_SHAPE_VOLUME>
235.3

> <PUBCHEM_COORDINATE_TYPE>
2
5
10

$$$$

