24781
  -OEChem-07051213012D

 12 12  0     0  0  0  0  0  0999 V2000
    2.2788   -0.2761    0.0000 O   0  0  0  0  0  0  0  0  0  0  0  0
    4.8479   -0.5852    0.0000 O   0  0  0  0  0  0  0  0  0  0  0  0
    3.0878   -0.8639    0.0000 N   0  0  0  0  0  0  0  0  0  0  0  0
    2.5878    0.6749    0.0000 C   0  0  0  0  0  0  0  0  0  0  0  0
    3.5878    0.6749    0.0000 C   0  0  0  0  0  0  0  0  0  0  0  0
    3.8968   -0.2761    0.0000 C   0  0  0  0  0  0  0  0  0  0  0  0
    2.0000    1.4839    0.0000 C   0  0  0  0  0  0  0  0  0  0  0  0
    3.9522    1.1765    0.0000 H   0  0  0  0  0  0  0  0  0  0  0  0
    2.5016    1.8484    0.0000 H   0  0  0  0  0  0  0  0  0  0  0  0
    1.6356    1.9855    0.0000 H   0  0  0  0  0  0  0  0  0  0  0  0
    1.4984    1.1195    0.0000 H   0  0  0  0  0  0  0  0  0  0  0  0
    3.0878   -1.4839    0.0000 H   0  0  0  0  0  0  0  0  0  0  0  0
  1  3  1  0  0  0  0
  1  4  1  0  0  0  0
  2  6  2  0  0  0  0
  3  6  1  0  0  0  0
  3 12  1  0  0  0  0
  4  5  2  0  0  0  0
  4  7  1  0  0  0  0
  5  6  1  0  0  0  0
  5  8  1  0  0  0  0
  7  9  1  0  0  0  0
  7 10  1  0  0  0  0
  7 11  1  0  0  0  0
M  END
> <PUBCHEM_COMPOUND_CID>
24781

> <PUBCHEM_COMPOUND_CANONICALIZED>
1

> <PUBCHEM_CACTVS_COMPLEXITY>
128

> <PUBCHEM_CACTVS_HBOND_ACCEPTOR>
2

> <PUBCHEM_CACTVS_HBOND_DONOR>
1

> <PUBCHEM_CACTVS_ROTATABLE_BOND>
0

> <PUBCHEM_CACTVS_SUBSKEYS>
AAADcYBiMAAAAAAAAAAAAAAAAAAAAQAAAAAAAAAAAAAAAAAAAAAAHgAUAAAACASBgAACAABQAACIACFSEACAAAAAIAAgCAAAAEAAAAAAAQAAAAAAEAAAAQAAAAAAAAAAAAAAAAAAAAAAAAAAAAAAAAAAAA==

> <PUBCHEM_IUPAC_OPENEYE_NAME>
5-methylisoxazol-3-one

> <PUBCHEM_IUPAC_CAS_NAME>
5-methyl-3-isoxazolone

> <PUBCHEM_IUPAC_NAME>
5-methyl-1,2-oxazol-3-one

> <PUBCHEM_IUPAC_SYSTEMATIC_NAME>
5-methyl-1,2-oxazol-3-one

> <PUBCHEM_IUPAC_TRADITIONAL_NAME>
5-methyl-4-isoxazolin-3-one

> <PUBCHEM_IUPAC_INCHI>
InChI=1S/C4H5NO2/c1-3-2-4(6)5-7-3/h2H,1H3,(H,5,6)

> <PUBCHEM_IUPAC_INCHIKEY>
KGVPNLBXJKTABS-UHFFFAOYSA-N

> <PUBCHEM_XLOGP3_AA>
0.1

> <PUBCHEM_EXACT_MASS>
99.032028

> <PUBCHEM_MOLECULAR_FORMULA>
C4H5NO2

> <PUBCHEM_MOLECULAR_WEIGHT>
99.088

> <PUBCHEM_OPENEYE_CAN_SMILES>
CC1=CC(=O)NO1

> <PUBCHEM_OPENEYE_ISO_SMILES>
CC1=CC(=O)NO1

> <PUBCHEM_CACTVS_TPSA>
38.3

> <PUBCHEM_MONOISOTOPIC_WEIGHT>
99.032028

> <PUBCHEM_TOTAL_CHARGE>
0

> <PUBCHEM_HEAVY_ATOM_COUNT>
7

> <PUBCHEM_ATOM_DEF_STEREO_COUNT>
0

> <PUBCHEM_ATOM_UDEF_STEREO_COUNT>
0

> <PUBCHEM_BOND_DEF_STEREO_COUNT>
0

> <PUBCHEM_BOND_UDEF_STEREO_COUNT>
0

> <PUBCHEM_ISOTOPIC_ATOM_COUNT>
0

> <PUBCHEM_COMPONENT_COUNT>
1

> <PUBCHEM_CACTVS_TAUTO_COUNT>
2

> <PUBCHEM_COORDINATE_TYPE>
1
5
255

> <PUBCHEM_BONDANNOTATIONS>
1  3  8
1  4  8
3  6  8
4  5  8
5  6  8

$$$$

