7281
  -OEChem-07051213133D

 12 11  0     1  0  0  0  0  0999 V2000
    0.0651    1.8005   -0.2403 Br  0  0  0  0  0  0  0  0  0  0  0  0
   -2.8106   -0.0770    0.3392 Br  0  0  0  0  0  0  0  0  0  0  0  0
    2.4704   -0.0943    0.3520 O   0  0  0  0  0  0  0  0  0  0  0  0
    0.0610   -0.1159    0.2300 C   0  0  2  0  0  0  0  0  0  0  0  0
    1.3629   -0.7293   -0.2774 C   0  0  0  0  0  0  0  0  0  0  0  0
   -1.1488   -0.7840   -0.4035 C   0  0  0  0  0  0  0  0  0  0  0  0
    0.0228   -0.1285    1.3245 H   0  0  0  0  0  0  0  0  0  0  0  0
    1.4697   -0.6124   -1.3615 H   0  0  0  0  0  0  0  0  0  0  0  0
    1.4014   -1.7966   -0.0356 H   0  0  0  0  0  0  0  0  0  0  0  0
   -1.1669   -1.8581   -0.1972 H   0  0  0  0  0  0  0  0  0  0  0  0
   -1.2050   -0.6253   -1.4848 H   0  0  0  0  0  0  0  0  0  0  0  0
    3.2750   -0.5190    0.0086 H   0  0  0  0  0  0  0  0  0  0  0  0
  1  4  1  0  0  0  0
  2  6  1  0  0  0  0
  3  5  1  0  0  0  0
  3 12  1  0  0  0  0
  4  5  1  0  0  0  0
  4  6  1  0  0  0  0
  4  7  1  0  0  0  0
  5  8  1  0  0  0  0
  5  9  1  0  0  0  0
  6 10  1  0  0  0  0
  6 11  1  0  0  0  0
M  END
> <PUBCHEM_COMPOUND_CID>
7281

> <PUBCHEM_CONFORMER_RMSD>
0.4

> <PUBCHEM_CONFORMER_DIVERSEORDER>
1
16
3
4
18
6
5
9
17
2
14
10
8
11
15
12
7
13

> <PUBCHEM_MMFF94_PARTIAL_CHARGES>
7
1 -0.23
12 0.4
2 -0.23
3 -0.68
4 0.23
5 0.28
6 0.23

> <PUBCHEM_EFFECTIVE_ROTOR_COUNT>
2

> <PUBCHEM_PHARMACOPHORE_FEATURES>
4
1 1 hydrophobe
1 2 hydrophobe
1 3 acceptor
1 3 donor

> <PUBCHEM_HEAVY_ATOM_COUNT>
6

> <PUBCHEM_ATOM_DEF_STEREO_COUNT>
0

> <PUBCHEM_ATOM_UDEF_STEREO_COUNT>
1

> <PUBCHEM_BOND_DEF_STEREO_COUNT>
0

> <PUBCHEM_BOND_UDEF_STEREO_COUNT>
0

> <PUBCHEM_ISOTOPIC_ATOM_COUNT>
0

> <PUBCHEM_COMPONENT_COUNT>
1

> <PUBCHEM_CACTVS_TAUTO_COUNT>
1

> <PUBCHEM_CONFORMER_ID>
00001C7100000001

> <PUBCHEM_MMFF94_ENERGY>
6.4708

> <PUBCHEM_FEATURE_SELFOVERLAP>
20.297

> <PUBCHEM_SHAPE_FINGERPRINT>
139733 1 8934999273957868623
16714656 1 18336264638671091847
20096714 4 18193551160675486085
20711978 78 16299794359138397182
23552449 1 18268434722803566748
29004967 10 18342734122113015611
5460574 1 11167942459216835379

> <PUBCHEM_SHAPE_MULTIPOLES>
129.49
3.41
1.49
0.74
1.07
0.96
0.01
-0.72
-0.57
-0.22
0.18
0.08
0.01
-0.05

> <PUBCHEM_SHAPE_SELFOVERLAP>
202.075

> <PUBCHEM_SHAPE_VOLUME>
95.4

> <PUBCHEM_COORDINATE_TYPE>
2
5
10

$$$$

