5311101
  -OEChem-07051212542D

 57 60  0     1  0  0  0  0  0999 V2000
    9.0465    2.1870    0.0000 S   0  0  0  0  0  0  0  0  0  0  0  0
    5.0182    0.0672    0.0000 F   0  0  0  0  0  0  0  0  0  0  0  0
    5.6489   -3.7681    0.0000 F   0  0  0  0  0  0  0  0  0  0  0  0
    9.7538    3.7681    0.0000 F   0  0  0  0  0  0  0  0  0  0  0  0
    8.0319    1.5575    0.0000 O   0  0  0  0  0  0  0  0  0  0  0  0
    4.7950    0.8012    0.0000 O   0  0  0  0  0  0  0  0  0  0  0  0
   10.0622    0.7840    0.0000 O   0  0  0  0  0  0  0  0  0  0  0  0
    2.0000   -2.7512    0.0000 O   0  0  0  0  0  0  0  0  0  0  0  0
    7.3931    0.3012    0.0000 C   0  0  1  0  0  0  0  0  0  0  0  0
    7.3931   -0.6988    0.0000 C   0  0  2  0  0  0  0  0  0  0  0  0
    6.5271   -1.1988    0.0000 C   0  0  1  0  0  0  0  0  0  0  0  0
    5.6610   -0.6988    0.0000 C   0  0  1  0  0  0  0  0  0  0  0  0
    8.3393    0.6059    0.0000 C   0  0  1  0  0  0  0  0  0  0  0  0
    8.3393   -1.0036    0.0000 C   0  0  0  0  0  0  0  0  0  0  0  0
    6.5271    0.8012    0.0000 C   0  0  0  0  0  0  0  0  0  0  0  0
    8.9229   -0.1988    0.0000 C   0  0  1  0  0  0  0  0  0  0  0  0
    5.6610    0.3012    0.0000 C   0  0  2  0  0  0  0  0  0  0  0  0
    4.7510   -1.2057    0.0000 C   0  0  1  0  0  0  0  0  0  0  0  0
    6.5431   -2.2403    0.0000 C   0  0  0  0  0  0  0  0  0  0  0  0
    7.3931    1.3012    0.0000 C   0  0  0  0  0  0  0  0  0  0  0  0
    5.6451   -2.7681    0.0000 C   0  0  1  0  0  0  0  0  0  0  0  0
    4.7430   -2.2473    0.0000 C   0  0  0  0  0  0  0  0  0  0  0  0
    9.9229   -0.1988    0.0000 C   0  0  0  0  0  0  0  0  0  0  0  0
    9.1493    1.1923    0.0000 C   0  0  0  0  0  0  0  0  0  0  0  0
    4.4163   -0.2634    0.0000 C   0  0  0  0  0  0  0  0  0  0  0  0
    3.8242   -0.6416    0.0000 C   0  0  0  0  0  0  0  0  0  0  0  0
    3.8076   -2.7970    0.0000 C   0  0  0  0  0  0  0  0  0  0  0  0
    2.8763   -1.1695    0.0000 C   0  0  0  0  0  0  0  0  0  0  0  0
    2.8680   -2.2545    0.0000 C   0  0  0  0  0  0  0  0  0  0  0  0
    9.8566    2.7734    0.0000 C   0  0  0  0  0  0  0  0  0  0  0  0
    7.4830   -1.5440    0.0000 H   0  0  0  0  0  0  0  0  0  0  0  0
    7.2664   -1.6181    0.0000 H   0  0  0  0  0  0  0  0  0  0  0  0
    8.0883   -1.5705    0.0000 H   0  0  0  0  0  0  0  0  0  0  0  0
    8.8767   -1.3128    0.0000 H   0  0  0  0  0  0  0  0  0  0  0  0
    6.9256    1.2761    0.0000 H   0  0  0  0  0  0  0  0  0  0  0  0
    6.1285    1.2761    0.0000 H   0  0  0  0  0  0  0  0  0  0  0  0
    9.2046   -0.7511    0.0000 H   0  0  0  0  0  0  0  0  0  0  0  0
    5.6610    0.9212    0.0000 H   0  0  0  0  0  0  0  0  0  0  0  0
    6.7612   -2.8207    0.0000 H   0  0  0  0  0  0  0  0  0  0  0  0
    7.1523   -2.1248    0.0000 H   0  0  0  0  0  0  0  0  0  0  0  0
    8.0131    1.3012    0.0000 H   0  0  0  0  0  0  0  0  0  0  0  0
    7.3931    1.9212    0.0000 H   0  0  0  0  0  0  0  0  0  0  0  0
    6.7731    1.3012    0.0000 H   0  0  0  0  0  0  0  0  0  0  0  0
    5.1087   -3.0791    0.0000 H   0  0  0  0  0  0  0  0  0  0  0  0
    9.9229   -0.8188    0.0000 H   0  0  0  0  0  0  0  0  0  0  0  0
   10.5429   -0.1988    0.0000 H   0  0  0  0  0  0  0  0  0  0  0  0
    9.9229    0.4212    0.0000 H   0  0  0  0  0  0  0  0  0  0  0  0
    5.0005   -0.0558    0.0000 H   0  0  0  0  0  0  0  0  0  0  0  0
    4.2087    0.3209    0.0000 H   0  0  0  0  0  0  0  0  0  0  0  0
    3.8320   -0.4709    0.0000 H   0  0  0  0  0  0  0  0  0  0  0  0
    3.8361   -0.0217    0.0000 H   0  0  0  0  0  0  0  0  0  0  0  0
    8.4476    2.0175    0.0000 H   0  0  0  0  0  0  0  0  0  0  0  0
    4.7950    1.4212    0.0000 H   0  0  0  0  0  0  0  0  0  0  0  0
    3.8100   -3.4170    0.0000 H   0  0  0  0  0  0  0  0  0  0  0  0
    2.3430   -0.8533    0.0000 H   0  0  0  0  0  0  0  0  0  0  0  0
   10.1274    2.2157    0.0000 H   0  0  0  0  0  0  0  0  0  0  0  0
   10.4528    2.9432    0.0000 H   0  0  0  0  0  0  0  0  0  0  0  0
  1 24  1  0  0  0  0
  1 30  1  0  0  0  0
 12  2  1  6  0  0  0
 21  3  1  6  0  0  0
  4 30  1  0  0  0  0
 13  5  1  6  0  0  0
  5 52  1  0  0  0  0
 17  6  1  1  0  0  0
  6 53  1  0  0  0  0
  7 24  2  0  0  0  0
  8 29  2  0  0  0  0
  9 10  1  0  0  0  0
  9 13  1  0  0  0  0
  9 15  1  0  0  0  0
  9 20  1  1  0  0  0
 10 11  1  0  0  0  0
 10 14  1  0  0  0  0
 10 31  1  6  0  0  0
 11 12  1  0  0  0  0
 11 19  1  0  0  0  0
 11 32  1  1  0  0  0
 12 17  1  0  0  0  0
 12 18  1  0  0  0  0
 13 16  1  0  0  0  0
 13 24  1  0  0  0  0
 14 16  1  0  0  0  0
 14 33  1  0  0  0  0
 14 34  1  0  0  0  0
 15 17  1  0  0  0  0
 15 35  1  0  0  0  0
 15 36  1  0  0  0  0
 16 23  1  6  0  0  0
 16 37  1  0  0  0  0
 17 38  1  0  0  0  0
 18 22  1  0  0  0  0
 18 25  1  1  0  0  0
 18 26  1  0  0  0  0
 19 21  1  0  0  0  0
 19 39  1  0  0  0  0
 19 40  1  0  0  0  0
 20 41  1  0  0  0  0
 20 42  1  0  0  0  0
 20 43  1  0  0  0  0
 21 22  1  0  0  0  0
 21 44  1  0  0  0  0
 22 27  2  0  0  0  0
 23 45  1  0  0  0  0
 23 46  1  0  0  0  0
 23 47  1  0  0  0  0
 25 48  1  0  0  0  0
 25 49  1  0  0  0  0
 25 50  1  0  0  0  0
 26 28  2  0  0  0  0
 26 51  1  0  0  0  0
 27 29  1  0  0  0  0
 27 54  1  0  0  0  0
 28 29  1  0  0  0  0
 28 55  1  0  0  0  0
 30 56  1  0  0  0  0
 30 57  1  0  0  0  0
M  END
> <PUBCHEM_COMPOUND_CID>
5311101

> <PUBCHEM_COMPOUND_CANONICALIZED>
1

> <PUBCHEM_CACTVS_COMPLEXITY>
861

> <PUBCHEM_CACTVS_HBOND_ACCEPTOR>
8

> <PUBCHEM_CACTVS_HBOND_DONOR>
2

> <PUBCHEM_CACTVS_ROTATABLE_BOND>
3

> <PUBCHEM_CACTVS_SUBSKEYS>
AAADceB4OYBAAAAAAAAAAAAAAAAAAYAAAAAwYIAAAAAAAGDAAAAAGwQACAAAD1SgwAKCAAAAAgiIAqBSAAIAAAAgABAICAFAAEgAEBIgAQAAQAAEgAAIAYPIzPDPgAAAAAAAAADAAAYAADAAAYAADAAAAA==

> <PUBCHEM_IUPAC_OPENEYE_NAME>
S-(fluoromethyl) (6S,8S,9R,10S,11S,13S,14S,16R,17R)-6,9-difluoro-11,17-dihydroxy-10,13,16-trimethyl-3-oxo-6,7,8,11,12,14,15,16-octahydrocyclopenta[a]phenanthrene-17-carbothioate

> <PUBCHEM_IUPAC_CAS_NAME>
(6S,8S,9R,10S,11S,13S,14S,16R,17R)-6,9-difluoro-11,17-dihydroxy-10,13,16-trimethyl-3-oxo-6,7,8,11,12,14,15,16-octahydrocyclopenta[a]phenanthrene-17-carbothioic acid S-(fluoromethyl) ester

> <PUBCHEM_IUPAC_NAME>
S-(fluoromethyl) (6S,8S,9R,10S,11S,13S,14S,16R,17R)-6,9-difluoro-11,17-dihydroxy-10,13,16-trimethyl-3-oxo-6,7,8,11,12,14,15,16-octahydrocyclopenta[a]phenanthrene-17-carbothioate

> <PUBCHEM_IUPAC_SYSTEMATIC_NAME>
S-(fluoranylmethyl) (6S,8S,9R,10S,11S,13S,14S,16R,17R)-6,9-bis(fluoranyl)-10,13,16-trimethyl-11,17-bis(oxidanyl)-3-oxidanylidene-6,7,8,11,12,14,15,16-octahydrocyclopenta[a]phenanthrene-17-carbothioate

> <PUBCHEM_IUPAC_TRADITIONAL_NAME>
(6S,8S,9R,10S,11S,13S,14S,16R,17R)-6,9-difluoro-11,17-dihydroxy-3-keto-10,13,16-trimethyl-6,7,8,11,12,14,15,16-octahydrocyclopenta[a]phenanthrene-17-carbothioic acid S-(fluoromethyl) ester

> <PUBCHEM_IUPAC_INCHI>
InChI=1S/C22H27F3O4S/c1-11-6-13-14-8-16(24)15-7-12(26)4-5-19(15,2)21(14,25)17(27)9-20(13,3)22(11,29)18(28)30-10-23/h4-5,7,11,13-14,16-17,27,29H,6,8-10H2,1-3H3/t11-,13+,14+,16+,17+,19+,20+,21+,22+/m1/s1

> <PUBCHEM_IUPAC_INCHIKEY>
MGNNYOODZCAHBA-GQKYHHCASA-N

> <PUBCHEM_XLOGP3>
3.2

> <PUBCHEM_EXACT_MASS>
444.158215

> <PUBCHEM_MOLECULAR_FORMULA>
C22H27F3O4S

> <PUBCHEM_MOLECULAR_WEIGHT>
444.50759

> <PUBCHEM_OPENEYE_CAN_SMILES>
CC1CC2C3CC(C4=CC(=O)C=CC4(C3(C(CC2(C1(C(=O)SCF)O)C)O)F)C)F

> <PUBCHEM_OPENEYE_ISO_SMILES>
C[C@@H]1C[C@H]2[C@@H]3C[C@@H](C4=CC(=O)C=C[C@@]4([C@]3([C@H](C[C@@]2([C@]1(C(=O)SCF)O)C)O)F)C)F

> <PUBCHEM_CACTVS_TPSA>
99.9

> <PUBCHEM_MONOISOTOPIC_WEIGHT>
444.158215

> <PUBCHEM_TOTAL_CHARGE>
0

> <PUBCHEM_HEAVY_ATOM_COUNT>
30

> <PUBCHEM_ATOM_DEF_STEREO_COUNT>
9

> <PUBCHEM_ATOM_UDEF_STEREO_COUNT>
0

> <PUBCHEM_BOND_DEF_STEREO_COUNT>
0

> <PUBCHEM_BOND_UDEF_STEREO_COUNT>
0

> <PUBCHEM_ISOTOPIC_ATOM_COUNT>
0

> <PUBCHEM_COMPONENT_COUNT>
1

> <PUBCHEM_CACTVS_TAUTO_COUNT>
1

> <PUBCHEM_COORDINATE_TYPE>
1
5
255

> <PUBCHEM_BONDANNOTATIONS>
10  31  6
11  32  5
16  23  6
18  25  5
12  2  6
21  3  6
13  5  6
17  6  5
9  20  5

$$$$

