241761
  -OEChem-07051213073D

 51 54  0     1  0  0  0  0  0999 V2000
    5.5122   -1.0377    0.3953 O   0  0  0  0  0  0  0  0  0  0  0  0
   -5.8971   -0.3953   -0.1473 O   0  0  0  0  0  0  0  0  0  0  0  0
    2.0878   -0.4496   -0.4053 C   0  0  2  0  0  0  0  0  0  0  0  0
    2.7414    0.8915   -0.0311 C   0  0  2  0  0  0  0  0  0  0  0  0
    0.6781   -0.6054    0.1721 C   0  0  1  0  0  0  0  0  0  0  0  0
   -0.2233    0.5544   -0.3442 C   0  0  1  0  0  0  0  0  0  0  0  0
   -1.6850    0.4610    0.2521 C   0  0  2  0  0  0  0  0  0  0  0  0
    1.9007    2.0085   -0.6626 C   0  0  0  0  0  0  0  0  0  0  0  0
    0.4395    1.9510   -0.1832 C   0  0  0  0  0  0  0  0  0  0  0  0
    3.1539   -1.4739   -0.0405 C   0  0  0  0  0  0  0  0  0  0  0  0
    4.1449    0.7139   -0.6441 C   0  0  0  0  0  0  0  0  0  0  0  0
    4.4505   -0.7949   -0.5129 C   0  0  1  0  0  0  0  0  0  0  0  0
    0.0747   -1.9610   -0.2241 C   0  0  0  0  0  0  0  0  0  0  0  0
   -2.2055   -0.9821    0.1958 C   0  0  0  0  0  0  0  0  0  0  0  0
   -2.6179    1.3741   -0.5983 C   0  0  0  0  0  0  0  0  0  0  0  0
    2.8898    1.1391    1.4888 C   0  0  0  0  0  0  0  0  0  0  0  0
   -1.4057   -2.0388   -0.0306 C   0  0  0  0  0  0  0  0  0  0  0  0
   -1.7221    0.9240    1.7285 C   0  0  0  0  0  0  0  0  0  0  0  0
   -3.6882   -1.1899    0.4019 C   0  0  0  0  0  0  0  0  0  0  0  0
   -4.1083    1.1845   -0.3200 C   0  0  0  0  0  0  0  0  0  0  0  0
   -4.5204   -0.2733   -0.4903 C   0  0  2  0  0  0  0  0  0  0  0  0
    1.9876   -0.4894   -1.5034 H   0  0  0  0  0  0  0  0  0  0  0  0
    0.7290   -0.5709    1.2664 H   0  0  0  0  0  0  0  0  0  0  0  0
   -0.3126    0.4013   -1.4322 H   0  0  0  0  0  0  0  0  0  0  0  0
    1.9129    1.9189   -1.7566 H   0  0  0  0  0  0  0  0  0  0  0  0
    2.3269    2.9916   -0.4287 H   0  0  0  0  0  0  0  0  0  0  0  0
    0.4107    2.2715    0.8620 H   0  0  0  0  0  0  0  0  0  0  0  0
   -0.1307    2.6977   -0.7473 H   0  0  0  0  0  0  0  0  0  0  0  0
    3.1736   -1.6889    1.0336 H   0  0  0  0  0  0  0  0  0  0  0  0
    2.9998   -2.4260   -0.5594 H   0  0  0  0  0  0  0  0  0  0  0  0
    4.8994    1.3450   -0.1626 H   0  0  0  0  0  0  0  0  0  0  0  0
    4.1235    0.9774   -1.7091 H   0  0  0  0  0  0  0  0  0  0  0  0
    4.7517   -1.1960   -1.4876 H   0  0  0  0  0  0  0  0  0  0  0  0
    0.5490   -2.7509    0.3709 H   0  0  0  0  0  0  0  0  0  0  0  0
    0.2880   -2.1863   -1.2765 H   0  0  0  0  0  0  0  0  0  0  0  0
   -2.4483    1.1793   -1.6661 H   0  0  0  0  0  0  0  0  0  0  0  0
   -2.3711    2.4299   -0.4348 H   0  0  0  0  0  0  0  0  0  0  0  0
    3.5241    0.3886    1.9713 H   0  0  0  0  0  0  0  0  0  0  0  0
    3.3579    2.1139    1.6699 H   0  0  0  0  0  0  0  0  0  0  0  0
    1.9335    1.1365    2.0178 H   0  0  0  0  0  0  0  0  0  0  0  0
   -1.8363   -3.0361   -0.0796 H   0  0  0  0  0  0  0  0  0  0  0  0
   -0.9976    0.3803    2.3435 H   0  0  0  0  0  0  0  0  0  0  0  0
   -1.5078    1.9933    1.8228 H   0  0  0  0  0  0  0  0  0  0  0  0
   -2.7040    0.7703    2.1886 H   0  0  0  0  0  0  0  0  0  0  0  0
   -3.9827   -2.2297    0.2090 H   0  0  0  0  0  0  0  0  0  0  0  0
   -3.9385   -1.0186    1.4566 H   0  0  0  0  0  0  0  0  0  0  0  0
   -4.3589    1.5380    0.6878 H   0  0  0  0  0  0  0  0  0  0  0  0
   -4.6954    1.8128   -1.0013 H   0  0  0  0  0  0  0  0  0  0  0  0
   -4.4137   -0.5713   -1.5398 H   0  0  0  0  0  0  0  0  0  0  0  0
    6.2927   -0.5599    0.0667 H   0  0  0  0  0  0  0  0  0  0  0  0
   -5.9995   -0.1403    0.7855 H   0  0  0  0  0  0  0  0  0  0  0  0
  1 12  1  0  0  0  0
  1 50  1  0  0  0  0
  2 21  1  0  0  0  0
  2 51  1  0  0  0  0
  3  4  1  0  0  0  0
  3  5  1  0  0  0  0
  3 10  1  0  0  0  0
  3 22  1  0  0  0  0
  4  8  1  0  0  0  0
  4 11  1  0  0  0  0
  4 16  1  0  0  0  0
  5  6  1  0  0  0  0
  5 13  1  0  0  0  0
  5 23  1  0  0  0  0
  6  7  1  0  0  0  0
  6  9  1  0  0  0  0
  6 24  1  0  0  0  0
  7 14  1  0  0  0  0
  7 15  1  0  0  0  0
  7 18  1  0  0  0  0
  8  9  1  0  0  0  0
  8 25  1  0  0  0  0
  8 26  1  0  0  0  0
  9 27  1  0  0  0  0
  9 28  1  0  0  0  0
 10 12  1  0  0  0  0
 10 29  1  0  0  0  0
 10 30  1  0  0  0  0
 11 12  1  0  0  0  0
 11 31  1  0  0  0  0
 11 32  1  0  0  0  0
 12 33  1  0  0  0  0
 13 17  1  0  0  0  0
 13 34  1  0  0  0  0
 13 35  1  0  0  0  0
 14 17  2  0  0  0  0
 14 19  1  0  0  0  0
 15 20  1  0  0  0  0
 15 36  1  0  0  0  0
 15 37  1  0  0  0  0
 16 38  1  0  0  0  0
 16 39  1  0  0  0  0
 16 40  1  0  0  0  0
 17 41  1  0  0  0  0
 18 42  1  0  0  0  0
 18 43  1  0  0  0  0
 18 44  1  0  0  0  0
 19 21  1  0  0  0  0
 19 45  1  0  0  0  0
 19 46  1  0  0  0  0
 20 21  1  0  0  0  0
 20 47  1  0  0  0  0
 20 48  1  0  0  0  0
 21 49  1  0  0  0  0
M  END
> <PUBCHEM_COMPOUND_CID>
241761

> <PUBCHEM_CONFORMER_RMSD>
0.6

> <PUBCHEM_CONFORMER_DIVERSEORDER>
1

> <PUBCHEM_MMFF94_PARTIAL_CHARGES>
12
1 -0.68
12 0.28
13 0.14
14 -0.28
17 -0.29
19 0.14
2 -0.68
21 0.28
41 0.15
50 0.4
51 0.4
7 0.14

> <PUBCHEM_EFFECTIVE_ROTOR_COUNT>
2

> <PUBCHEM_PHARMACOPHORE_FEATURES>
8
1 1 acceptor
1 1 donor
1 2 acceptor
1 2 donor
5 3 4 10 11 12 rings
6 3 4 5 6 8 9 rings
6 5 6 7 13 14 17 rings
6 7 14 15 19 20 21 rings

> <PUBCHEM_HEAVY_ATOM_COUNT>
21

> <PUBCHEM_ATOM_DEF_STEREO_COUNT>
7

> <PUBCHEM_ATOM_UDEF_STEREO_COUNT>
0

> <PUBCHEM_BOND_DEF_STEREO_COUNT>
0

> <PUBCHEM_BOND_UDEF_STEREO_COUNT>
0

> <PUBCHEM_ISOTOPIC_ATOM_COUNT>
0

> <PUBCHEM_COMPONENT_COUNT>
1

> <PUBCHEM_CACTVS_TAUTO_COUNT>
1

> <PUBCHEM_CONFORMER_ID>
0003B06100000001

> <PUBCHEM_MMFF94_ENERGY>
67.035

> <PUBCHEM_FEATURE_SELFOVERLAP>
40.691

> <PUBCHEM_SHAPE_FINGERPRINT>
10366900 7 17458336412673003224
10967382 1 18411417297706217558
11132069 177 18337394842071855091
11315181 36 18260261958880451298
12011746 2 18410006650368899302
12236239 1 17894910728865148797
12403259 226 18338802217372678877
12403259 415 18410018744991919469
12403260 363 18410576197286760861
12592029 89 18202004339324701395
12715332 25 18113620049907829879
13140716 1 18410004412411233248
13224815 77 17967811635009411105
13288520 33 18409726296579164742
13533116 47 17967249814738039574
13675066 3 18337111155202915235
13862211 1 18411421730107536550
14341114 328 8862942775210499828
15099037 51 18413107264469066055
15196674 1 18412261714030532220
15536298 74 18335139765293139860
15848702 151 17749944595645372302
16945 1 18122347878202506447
17349148 13 18259985972344417679
17492 89 18126563414389905651
17802600 8 18408041818663123186
17804303 29 18408037420880382172
18186145 218 18407760356761361397
192875 21 18187361021611504569
19862831 5 18410011035208611847
200 152 18040155123840685973
20028762 73 18041285378787352223
20645477 70 18410290337327769758
21033648 29 18187380830069330409
21267235 1 18411973676354686998
21279426 13 18195246852107611598
21285901 2 18339917242437802334
221490 88 18199177399949739491
23402539 116 18186526518150531671
23557571 272 14418126352862063131
23559900 14 18261676969857427088
2748010 2 18410569591431634006
296302 2 14549016567802551626
3004659 81 18202279230527964670
3286 77 17822012025495933512
335352 9 18412262852524108503
34934 24 18339082575820844756
350125 39 18410007732415911825
351380 180 18412546500717275895
3545911 37 18409165489524143710
4214541 1 18413107281754488693
474 4 16414342344109487420
495365 180 17530974536129057842
5104073 3 18411415081497851297
6138700 20 18269273624632823670
633830 44 17489309637794389191
69090 78 18335140869221262271
7364860 26 18264486179343834756
7495541 125 15647346177987936387
9709674 26 18198059175360600779
9981440 41 17404863653321700872

> <PUBCHEM_SHAPE_MULTIPOLES>
420.43
9.83
2.07
0.99
1.54
0.08
0.36
1.44
-0.75
-0.28
-0.11
-0.12
-0.32
0.14

> <PUBCHEM_SHAPE_SELFOVERLAP>
896.265

> <PUBCHEM_SHAPE_VOLUME>
233.4

> <PUBCHEM_COORDINATE_TYPE>
2
5
10

$$$$

