442969
  -OEChem-07051213003D

 38 41  0     1  0  0  0  0  0999 V2000
   -2.5820    1.0478    1.9537 O   0  0  0  0  0  0  0  0  0  0  0  0
    1.9128   -0.6304   -0.5415 N   0  0  2  0  0  0  0  0  0  0  0  0
   -1.1003   -0.1307    0.6164 N   0  0  0  0  0  0  0  0  0  0  0  0
   -0.4690   -0.3925   -0.7024 C   0  0  2  0  0  0  0  0  0  0  0  0
   -0.0204   -1.9018   -0.8601 C   0  0  2  0  0  0  0  0  0  0  0  0
    0.8766    0.3839   -0.8433 C   0  0  1  0  0  0  0  0  0  0  0  0
    0.6690   -1.6662    1.4813 C   0  0  1  0  0  0  0  0  0  0  0  0
    0.0401   -2.6364    0.4845 C   0  0  0  0  0  0  0  0  0  0  0  0
    1.4307   -1.7774   -1.3389 C   0  0  0  0  0  0  0  0  0  0  0  0
    1.9605   -1.0324    0.8883 C   0  0  0  0  0  0  0  0  0  0  0  0
   -0.4043   -0.6303    1.8066 C   0  0  0  0  0  0  0  0  0  0  0  0
   -1.3916   -0.0347   -1.8351 C   0  0  0  0  0  0  0  0  0  0  0  0
    1.0231    1.7224   -0.1217 C   0  0  0  0  0  0  0  0  0  0  0  0
   -2.1790    0.7261    0.8307 C   0  0  0  0  0  0  0  0  0  0  0  0
   -2.4818    0.7183   -1.6872 C   0  0  0  0  0  0  0  0  0  0  0  0
   -2.8951    1.2853   -0.3834 C   0  0  0  0  0  0  0  0  0  0  0  0
    2.3737    2.3211   -0.3613 C   0  0  0  0  0  0  0  0  0  0  0  0
    3.2370    2.6279    0.6134 C   0  0  0  0  0  0  0  0  0  0  0  0
   -0.6241   -2.4726   -1.5743 H   0  0  0  0  0  0  0  0  0  0  0  0
    1.0180    0.6279   -1.9100 H   0  0  0  0  0  0  0  0  0  0  0  0
    0.9340   -2.1924    2.4061 H   0  0  0  0  0  0  0  0  0  0  0  0
    0.6356   -3.5538    0.4060 H   0  0  0  0  0  0  0  0  0  0  0  0
   -0.9643   -2.9392    0.8047 H   0  0  0  0  0  0  0  0  0  0  0  0
    2.0330   -2.6796   -1.1814 H   0  0  0  0  0  0  0  0  0  0  0  0
    1.4781   -1.5489   -2.4114 H   0  0  0  0  0  0  0  0  0  0  0  0
    2.2807   -0.1880    1.5086 H   0  0  0  0  0  0  0  0  0  0  0  0
    2.7677   -1.7716    0.9831 H   0  0  0  0  0  0  0  0  0  0  0  0
   -1.1658   -1.0811    2.4569 H   0  0  0  0  0  0  0  0  0  0  0  0
    0.0081    0.2154    2.3676 H   0  0  0  0  0  0  0  0  0  0  0  0
   -1.1406   -0.3880   -2.8327 H   0  0  0  0  0  0  0  0  0  0  0  0
    0.8469    1.6398    0.9532 H   0  0  0  0  0  0  0  0  0  0  0  0
    0.2681    2.4214   -0.5022 H   0  0  0  0  0  0  0  0  0  0  0  0
   -3.0874    0.9523   -2.5579 H   0  0  0  0  0  0  0  0  0  0  0  0
   -2.7477    2.3708   -0.3936 H   0  0  0  0  0  0  0  0  0  0  0  0
   -3.9646    1.0900   -0.2418 H   0  0  0  0  0  0  0  0  0  0  0  0
    2.6554    2.5318   -1.3898 H   0  0  0  0  0  0  0  0  0  0  0  0
    4.1992    3.0681    0.3756 H   0  0  0  0  0  0  0  0  0  0  0  0
    3.0042    2.4474    1.6569 H   0  0  0  0  0  0  0  0  0  0  0  0
  1 14  2  0  0  0  0
  2  6  1  0  0  0  0
  2  9  1  0  0  0  0
  2 10  1  0  0  0  0
  3  4  1  0  0  0  0
  3 11  1  0  0  0  0
  3 14  1  0  0  0  0
  4  5  1  0  0  0  0
  4  6  1  0  0  0  0
  4 12  1  0  0  0  0
  5  8  1  0  0  0  0
  5  9  1  0  0  0  0
  5 19  1  0  0  0  0
  6 13  1  0  0  0  0
  6 20  1  0  0  0  0
  7  8  1  0  0  0  0
  7 10  1  0  0  0  0
  7 11  1  0  0  0  0
  7 21  1  0  0  0  0
  8 22  1  0  0  0  0
  8 23  1  0  0  0  0
  9 24  1  0  0  0  0
  9 25  1  0  0  0  0
 10 26  1  0  0  0  0
 10 27  1  0  0  0  0
 11 28  1  0  0  0  0
 11 29  1  0  0  0  0
 12 15  2  0  0  0  0
 12 30  1  0  0  0  0
 13 17  1  0  0  0  0
 13 31  1  0  0  0  0
 13 32  1  0  0  0  0
 14 16  1  0  0  0  0
 15 16  1  0  0  0  0
 15 33  1  0  0  0  0
 16 34  1  0  0  0  0
 16 35  1  0  0  0  0
 17 18  2  0  0  0  0
 17 36  1  0  0  0  0
 18 37  1  0  0  0  0
 18 38  1  0  0  0  0
M  END
> <PUBCHEM_COMPOUND_CID>
442969

> <PUBCHEM_CONFORMER_RMSD>
0.6

> <PUBCHEM_CONFORMER_DIVERSEORDER>
1
2

> <PUBCHEM_MMFF94_PARTIAL_CHARGES>
20
1 -0.57
10 0.27
11 0.3
12 -0.29
13 0.14
14 0.57
15 -0.29
16 0.2
17 -0.29
18 -0.3
2 -0.81
3 -0.66
30 0.15
33 0.15
36 0.15
37 0.15
38 0.15
4 0.44
6 0.27
9 0.27

> <PUBCHEM_EFFECTIVE_ROTOR_COUNT>
3.2

> <PUBCHEM_PHARMACOPHORE_FEATURES>
5
1 1 acceptor
1 18 hydrophobe
1 2 cation
10 2 3 4 5 6 7 8 9 10 11 rings
6 3 4 12 14 15 16 rings

> <PUBCHEM_HEAVY_ATOM_COUNT>
18

> <PUBCHEM_ATOM_DEF_STEREO_COUNT>
4

> <PUBCHEM_ATOM_UDEF_STEREO_COUNT>
0

> <PUBCHEM_BOND_DEF_STEREO_COUNT>
0

> <PUBCHEM_BOND_UDEF_STEREO_COUNT>
0

> <PUBCHEM_ISOTOPIC_ATOM_COUNT>
0

> <PUBCHEM_COMPONENT_COUNT>
1

> <PUBCHEM_CACTVS_TAUTO_COUNT>
1

> <PUBCHEM_CONFORMER_ID>
0006C25900000001

> <PUBCHEM_MMFF94_ENERGY>
57.9434

> <PUBCHEM_FEATURE_SELFOVERLAP>
25.377

> <PUBCHEM_SHAPE_FINGERPRINT>
10863032 1 18337115553233608503
10948715 1 18340217279767364804
11640471 11 17968104139436173529
12326174 3 18269279130395255774
12423570 1 7275403982130018386
12491281 212 18041276565529602072
12592029 89 17985576418498918392
12716301 132 16917060066464916996
13024252 1 16480813229166246918
13299463 15 5039405430594707236
13898156 1 17531536485133650493
14142880 1 17762616196572868865
14817 1 7436519093282158925
15534591 1 17823402812857307664
15557651 10 17844216671002771798
15848702 105 17833863506449015127
15881359 60 17271722780943521399
16945 1 18267297831911578039
18981168 100 17970889091147097452
19765921 60 18263100841684048877
20510252 161 17402341373657696536
20511035 2 16988289788366174106
21296965 12 18197214741750856868
21524375 3 18266180539251292716
22344851 12 12492368343019219918
22344851 262 17678167403000527694
22802520 49 6411024131487559675
23419403 2 17907532018355674006
2748010 2 18130211692801846389
3286 77 18127386021180942979
430814 3 18114449094222386441
4340502 62 18339354159693607801
568465 68 17630316665333334194
5706482 22 18193003616653938392
5845 1 9775607606119776644
81228 2 17551782630154084314

> <PUBCHEM_SHAPE_MULTIPOLES>
354.6
3.76
2.77
1.81
0.28
0.18
-0.26
-3.49
-0.17
1.77
-0.18
-0.87
0.24
0.09

> <PUBCHEM_SHAPE_SELFOVERLAP>
772.647

> <PUBCHEM_SHAPE_VOLUME>
190

> <PUBCHEM_COORDINATE_TYPE>
2
5
10

$$$$

