6984
  -OEChem-07051213043D

 25 25  0     1  0  0  0  0  0999 V2000
   -0.3085   -2.2624   -0.4103 O   0  0  0  0  0  0  0  0  0  0  0  0
    1.5141   -0.0663   -0.5444 C   0  0  1  0  0  0  0  0  0  0  0  0
    2.4356    0.4205    0.5925 C   0  0  0  0  0  0  0  0  0  0  0  0
    0.0375    0.1022   -0.2299 C   0  0  0  0  0  0  0  0  0  0  0  0
    1.8678    0.6432   -1.8571 C   0  0  0  0  0  0  0  0  0  0  0  0
    2.2600   -0.3688    1.8842 C   0  0  0  0  0  0  0  0  0  0  0  0
   -0.7854   -1.0066   -0.1816 C   0  0  0  0  0  0  0  0  0  0  0  0
   -0.4424    1.3779    0.0013 C   0  0  0  0  0  0  0  0  0  0  0  0
   -2.1388   -0.8342    0.1086 C   0  0  0  0  0  0  0  0  0  0  0  0
   -1.7958    1.5502    0.2916 C   0  0  0  0  0  0  0  0  0  0  0  0
   -2.6441    0.4443    0.3452 C   0  0  0  0  0  0  0  0  0  0  0  0
    1.7432   -1.1275   -0.7038 H   0  0  0  0  0  0  0  0  0  0  0  0
    2.2823    1.4860    0.8004 H   0  0  0  0  0  0  0  0  0  0  0  0
    3.4801    0.3167    0.2722 H   0  0  0  0  0  0  0  0  0  0  0  0
    1.7656    1.7312   -1.7812 H   0  0  0  0  0  0  0  0  0  0  0  0
    2.9044    0.4301   -2.1408 H   0  0  0  0  0  0  0  0  0  0  0  0
    1.2229    0.3017   -2.6746 H   0  0  0  0  0  0  0  0  0  0  0  0
    2.9915   -0.0372    2.6283 H   0  0  0  0  0  0  0  0  0  0  0  0
    1.2632   -0.2255    2.3119 H   0  0  0  0  0  0  0  0  0  0  0  0
    2.4132   -1.4392    1.7138 H   0  0  0  0  0  0  0  0  0  0  0  0
    0.1999    2.2522   -0.0358 H   0  0  0  0  0  0  0  0  0  0  0  0
   -2.8111   -1.6869    0.1537 H   0  0  0  0  0  0  0  0  0  0  0  0
   -2.1895    2.5455    0.4758 H   0  0  0  0  0  0  0  0  0  0  0  0
   -3.6979    0.5787    0.5712 H   0  0  0  0  0  0  0  0  0  0  0  0
   -1.0392   -2.8990   -0.3299 H   0  0  0  0  0  0  0  0  0  0  0  0
  1  7  1  0  0  0  0
  1 25  1  0  0  0  0
  2  3  1  0  0  0  0
  2  4  1  0  0  0  0
  2  5  1  0  0  0  0
  2 12  1  0  0  0  0
  3  6  1  0  0  0  0
  3 13  1  0  0  0  0
  3 14  1  0  0  0  0
  4  7  1  0  0  0  0
  4  8  2  0  0  0  0
  5 15  1  0  0  0  0
  5 16  1  0  0  0  0
  5 17  1  0  0  0  0
  6 18  1  0  0  0  0
  6 19  1  0  0  0  0
  6 20  1  0  0  0  0
  7  9  2  0  0  0  0
  8 10  1  0  0  0  0
  8 21  1  0  0  0  0
  9 11  1  0  0  0  0
  9 22  1  0  0  0  0
 10 11  2  0  0  0  0
 10 23  1  0  0  0  0
 11 24  1  0  0  0  0
M  END
> <PUBCHEM_COMPOUND_CID>
6984

> <PUBCHEM_CONFORMER_RMSD>
0.4

> <PUBCHEM_CONFORMER_DIVERSEORDER>
1
17
12
13
8
2
15
11
3
14
4
9
6
7
16
10
5

> <PUBCHEM_MMFF94_PARTIAL_CHARGES>
13
1 -0.53
10 -0.15
11 -0.15
2 0.14
21 0.15
22 0.15
23 0.15
24 0.15
25 0.45
4 -0.14
7 0.08
8 -0.15
9 -0.15

> <PUBCHEM_EFFECTIVE_ROTOR_COUNT>
2

> <PUBCHEM_PHARMACOPHORE_FEATURES>
4
1 1 donor
1 5 hydrophobe
1 6 hydrophobe
6 4 7 8 9 10 11 rings

> <PUBCHEM_HEAVY_ATOM_COUNT>
11

> <PUBCHEM_ATOM_DEF_STEREO_COUNT>
0

> <PUBCHEM_ATOM_UDEF_STEREO_COUNT>
1

> <PUBCHEM_BOND_DEF_STEREO_COUNT>
0

> <PUBCHEM_BOND_UDEF_STEREO_COUNT>
0

> <PUBCHEM_ISOTOPIC_ATOM_COUNT>
0

> <PUBCHEM_COMPONENT_COUNT>
1

> <PUBCHEM_CACTVS_TAUTO_COUNT>
3

> <PUBCHEM_CONFORMER_ID>
00001B4800000001

> <PUBCHEM_MMFF94_ENERGY>
24.4083

> <PUBCHEM_FEATURE_SELFOVERLAP>
20.297

> <PUBCHEM_SHAPE_FINGERPRINT>
10857977 72 18260267413040654209
13839132 238 17822009851931381688
13898156 1 18201718401618279558
15310529 11 17060335176386465965
16945 1 18408315584400384333
20511035 2 17760642968664497757
20645464 45 17748829609323989120
21040471 1 18336254738771487637
21922407 69 17060042727520439536
23211744 41 17458639924831529904
23552423 10 18199451328827368079
27216 239 16375836325764878882
2748010 2 17978217589628429325
369184 2 18336842934474187561
5084963 1 17969204767712832653
54338 74 18048060509085715811

> <PUBCHEM_SHAPE_MULTIPOLES>
220.51
3.64
1.6
1.36
0.04
0.38
-0.04
-0.37
-0.87
-0.59
0.19
1.31
-0.03
-0.63

> <PUBCHEM_SHAPE_SELFOVERLAP>
448.177

> <PUBCHEM_SHAPE_VOLUME>
129.3

> <PUBCHEM_COORDINATE_TYPE>
2
5
10

$$$$

