20054872
  -OEChem-07051213102D

 83 89  0     1  0  0  0  0  0999 V2000
    7.4735    2.7077    0.0000 O   0  0  0  0  0  0  0  0  0  0  0  0
    8.4813    1.9648    0.0000 O   0  0  0  0  0  0  0  0  0  0  0  0
    8.1660   -0.1461    0.0000 O   0  0  0  0  0  0  0  0  0  0  0  0
    2.6198   -4.1553    0.0000 O   0  0  0  0  0  0  0  0  0  0  0  0
   10.6537    3.3848    0.0000 O   0  0  0  0  0  0  0  0  0  0  0  0
    4.9010   -0.4980    0.0000 C   0  0  2  0  0  0  0  0  0  0  0  0
    4.3277   -1.4116    0.0000 C   0  0  2  0  0  0  0  0  0  0  0  0
    5.9362   -0.5201    0.0000 C   0  0  2  0  0  0  0  0  0  0  0  0
    3.8227   -0.4580    0.0000 C   0  0  0  0  0  0  0  0  0  0  0  0
    6.4661    0.3695    0.0000 C   0  0  1  0  0  0  0  0  0  0  0  0
    4.8396   -2.3609    0.0000 C   0  0  1  0  0  0  0  0  0  0  0  0
    5.9943    1.2445    0.0000 C   0  0  2  0  0  0  0  0  0  0  0  0
    4.4095    0.4134    0.0000 C   0  0  0  0  0  0  0  0  0  0  0  0
    3.2054   -1.3616    0.0000 C   0  0  0  0  0  0  0  0  0  0  0  0
    6.4699   -1.4573    0.0000 C   0  0  0  0  0  0  0  0  0  0  0  0
    4.9598    1.2905    0.0000 C   0  0  0  0  0  0  0  0  0  0  0  0
    6.6794    1.9648    0.0000 C   0  0  2  0  0  0  0  0  0  0  0  0
    7.4444    0.5462    0.0000 C   0  0  2  0  0  0  0  0  0  0  0  0
    5.9180   -2.3840    0.0000 C   0  0  0  0  0  0  0  0  0  0  0  0
    4.2647   -3.3262    0.0000 C   0  0  0  0  0  0  0  0  0  0  0  0
    7.5804    1.5309    0.0000 C   0  0  2  0  0  0  0  0  0  0  0  0
    2.6082   -2.3133    0.0000 C   0  0  0  0  0  0  0  0  0  0  0  0
    6.9407   -0.5107    0.0000 C   0  0  0  0  0  0  0  0  0  0  0  0
    3.1415   -3.3022    0.0000 C   0  0  2  0  0  0  0  0  0  0  0  0
    6.4569    2.9397    0.0000 C   0  0  1  0  0  0  0  0  0  0  0  0
    5.5197    2.1247    0.0000 C   0  0  0  0  0  0  0  0  0  0  0  0
    8.0804    3.7215    0.0000 C   0  0  1  0  0  0  0  0  0  0  0  0
    7.0804    3.7215    0.0000 C   0  0  0  0  0  0  0  0  0  0  0  0
    4.2472   -4.3260    0.0000 C   0  0  0  0  0  0  0  0  0  0  0  0
    5.1218   -3.8412    0.0000 C   0  0  0  0  0  0  0  0  0  0  0  0
    8.7038    2.9397    0.0000 C   0  0  1  0  0  0  0  0  0  0  0  0
    5.4819    3.1622    0.0000 C   0  0  0  0  0  0  0  0  0  0  0  0
    9.6788    3.1622    0.0000 C   0  0  0  0  0  0  0  0  0  0  0  0
    9.9013    2.1873    0.0000 C   0  0  0  0  0  0  0  0  0  0  0  0
    9.4562    4.1372    0.0000 C   0  0  0  0  0  0  0  0  0  0  0  0
    6.7862   -0.5284    0.0000 H   0  0  0  0  0  0  0  0  0  0  0  0
    3.7376    0.1561    0.0000 H   0  0  0  0  0  0  0  0  0  0  0  0
    3.2327   -0.6486    0.0000 H   0  0  0  0  0  0  0  0  0  0  0  0
    5.2517   -3.1044    0.0000 H   0  0  0  0  0  0  0  0  0  0  0  0
    3.9485    0.8279    0.0000 H   0  0  0  0  0  0  0  0  0  0  0  0
    3.9222    0.0301    0.0000 H   0  0  0  0  0  0  0  0  0  0  0  0
    3.3385   -0.7561    0.0000 H   0  0  0  0  0  0  0  0  0  0  0  0
    2.6315   -1.1268    0.0000 H   0  0  0  0  0  0  0  0  0  0  0  0
    6.9404   -1.8611    0.0000 H   0  0  0  0  0  0  0  0  0  0  0  0
    6.9482   -1.0629    0.0000 H   0  0  0  0  0  0  0  0  0  0  0  0
    5.0930    1.8960    0.0000 H   0  0  0  0  0  0  0  0  0  0  0  0
    4.3860    1.5253    0.0000 H   0  0  0  0  0  0  0  0  0  0  0  0
    5.9136    2.3336    0.0000 H   0  0  0  0  0  0  0  0  0  0  0  0
    7.2653   -0.0474    0.0000 H   0  0  0  0  0  0  0  0  0  0  0  0
    5.7988   -2.9924    0.0000 H   0  0  0  0  0  0  0  0  0  0  0  0
    6.4971   -2.6054    0.0000 H   0  0  0  0  0  0  0  0  0  0  0  0
    2.1472   -1.8988    0.0000 H   0  0  0  0  0  0  0  0  0  0  0  0
    2.1209   -2.6966    0.0000 H   0  0  0  0  0  0  0  0  0  0  0  0
    6.3950   -0.8049    0.0000 H   0  0  0  0  0  0  0  0  0  0  0  0
    7.2350   -1.0564    0.0000 H   0  0  0  0  0  0  0  0  0  0  0  0
    7.4864   -0.2164    0.0000 H   0  0  0  0  0  0  0  0  0  0  0  0
    3.4389   -3.8462    0.0000 H   0  0  0  0  0  0  0  0  0  0  0  0
    6.2521    3.5249    0.0000 H   0  0  0  0  0  0  0  0  0  0  0  0
    6.0654    2.4189    0.0000 H   0  0  0  0  0  0  0  0  0  0  0  0
    5.2254    2.6704    0.0000 H   0  0  0  0  0  0  0  0  0  0  0  0
    4.9739    1.8304    0.0000 H   0  0  0  0  0  0  0  0  0  0  0  0
    8.2695    4.5502    0.0000 H   0  0  0  0  0  0  0  0  0  0  0  0
    7.2183    4.3260    0.0000 H   0  0  0  0  0  0  0  0  0  0  0  0
    6.5218    3.9906    0.0000 H   0  0  0  0  0  0  0  0  0  0  0  0
    4.8025   -4.3726    0.0000 H   0  0  0  0  0  0  0  0  0  0  0  0
    5.6533   -4.1606    0.0000 H   0  0  0  0  0  0  0  0  0  0  0  0
    5.4412   -3.3098    0.0000 H   0  0  0  0  0  0  0  0  0  0  0  0
    3.6273   -4.3152    0.0000 H   0  0  0  0  0  0  0  0  0  0  0  0
    4.2364   -4.9459    0.0000 H   0  0  0  0  0  0  0  0  0  0  0  0
    4.8671   -4.3368    0.0000 H   0  0  0  0  0  0  0  0  0  0  0  0
    9.3049    2.3387    0.0000 H   0  0  0  0  0  0  0  0  0  0  0  0
    8.7614    0.0267    0.0000 H   0  0  0  0  0  0  0  0  0  0  0  0
    5.6199    3.7667    0.0000 H   0  0  0  0  0  0  0  0  0  0  0  0
    4.8775    3.3002    0.0000 H   0  0  0  0  0  0  0  0  0  0  0  0
    5.3440    2.5578    0.0000 H   0  0  0  0  0  0  0  0  0  0  0  0
    2.0000   -4.1397    0.0000 H   0  0  0  0  0  0  0  0  0  0  0  0
    9.2968    2.0493    0.0000 H   0  0  0  0  0  0  0  0  0  0  0  0
   10.0393    1.5828    0.0000 H   0  0  0  0  0  0  0  0  0  0  0  0
   10.5058    2.3253    0.0000 H   0  0  0  0  0  0  0  0  0  0  0  0
   10.0607    4.2751    0.0000 H   0  0  0  0  0  0  0  0  0  0  0  0
    9.3183    4.7416    0.0000 H   0  0  0  0  0  0  0  0  0  0  0  0
    8.8518    3.9992    0.0000 H   0  0  0  0  0  0  0  0  0  0  0  0
   10.8365    3.9772    0.0000 H   0  0  0  0  0  0  0  0  0  0  0  0
 21  1  1  1  0  0  0
  1 27  1  0  0  0  0
  2 21  1  0  0  0  0
  2 31  1  0  0  0  0
 18  3  1  6  0  0  0
  3 72  1  0  0  0  0
 24  4  1  1  0  0  0
  4 76  1  0  0  0  0
  5 33  1  0  0  0  0
  5 83  1  0  0  0  0
  6  7  1  0  0  0  0
  6  8  1  0  0  0  0
  6  9  1  1  0  0  0
  6 13  1  0  0  0  0
  7  9  1  1  0  0  0
  7 11  1  0  0  0  0
  7 14  1  0  0  0  0
  8 10  1  0  0  0  0
  8 15  1  0  0  0  0
  8 36  1  1  0  0  0
  9 37  1  0  0  0  0
  9 38  1  0  0  0  0
 10 12  1  0  0  0  0
 10 18  1  0  0  0  0
 10 23  1  6  0  0  0
 11 19  1  0  0  0  0
 11 20  1  0  0  0  0
 11 39  1  6  0  0  0
 12 16  1  0  0  0  0
 12 17  1  0  0  0  0
 12 26  1  1  0  0  0
 13 16  1  0  0  0  0
 13 40  1  0  0  0  0
 13 41  1  0  0  0  0
 14 22  1  0  0  0  0
 14 42  1  0  0  0  0
 14 43  1  0  0  0  0
 15 19  1  0  0  0  0
 15 44  1  0  0  0  0
 15 45  1  0  0  0  0
 16 46  1  0  0  0  0
 16 47  1  0  0  0  0
 17 21  1  0  0  0  0
 17 25  1  0  0  0  0
 17 48  1  6  0  0  0
 18 21  1  0  0  0  0
 18 49  1  0  0  0  0
 19 50  1  0  0  0  0
 19 51  1  0  0  0  0
 20 24  1  0  0  0  0
 20 29  1  0  0  0  0
 20 30  1  0  0  0  0
 22 24  1  0  0  0  0
 22 52  1  0  0  0  0
 22 53  1  0  0  0  0
 23 54  1  0  0  0  0
 23 55  1  0  0  0  0
 23 56  1  0  0  0  0
 24 57  1  0  0  0  0
 25 28  1  0  0  0  0
 25 32  1  6  0  0  0
 25 58  1  0  0  0  0
 26 59  1  0  0  0  0
 26 60  1  0  0  0  0
 26 61  1  0  0  0  0
 27 28  1  0  0  0  0
 27 31  1  0  0  0  0
 27 62  1  6  0  0  0
 28 63  1  0  0  0  0
 28 64  1  0  0  0  0
 29 68  1  0  0  0  0
 29 69  1  0  0  0  0
 29 70  1  0  0  0  0
 30 65  1  0  0  0  0
 30 66  1  0  0  0  0
 30 67  1  0  0  0  0
 31 33  1  0  0  0  0
 31 71  1  6  0  0  0
 32 73  1  0  0  0  0
 32 74  1  0  0  0  0
 32 75  1  0  0  0  0
 33 34  1  0  0  0  0
 33 35  1  0  0  0  0
 34 77  1  0  0  0  0
 34 78  1  0  0  0  0
 34 79  1  0  0  0  0
 35 80  1  0  0  0  0
 35 81  1  0  0  0  0
 35 82  1  0  0  0  0
M  END
> <PUBCHEM_COMPOUND_CID>
20054872

> <PUBCHEM_COMPOUND_CANONICALIZED>
1

> <PUBCHEM_CACTVS_COMPLEXITY>
962

> <PUBCHEM_CACTVS_HBOND_ACCEPTOR>
5

> <PUBCHEM_CACTVS_HBOND_DONOR>
3

> <PUBCHEM_CACTVS_ROTATABLE_BOND>
1

> <PUBCHEM_CACTVS_SUBSKEYS>
AAADcfB4OAAAAAAAAAAAAAAAGAAAAaIAAAA0YMEABogAAGjQAAAAGgAACAAAD1SggAICCAAABgAAAAAAAAAAAAAAAAAAAAAAAAAREAIAAAAiQAAFAAAHAAGA4PwPgAAAAAAAAADAAAYAADAAAYAADCAAAA==

> <PUBCHEM_IUPAC_INCHI>
InChI=1S/C30H48O5/c1-16-14-17-22(25(4,5)33)35-30(34-17)21(16)26(6)12-13-29-15-28(29)11-10-20(31)24(2,3)18(28)8-9-19(29)27(26,7)23(30)32/h16-23,31-33H,8-15H2,1-7H3/t16-,17+,18+,19+,20+,21-,22+,23-,26-,27-,28-,29+,30+/m1/s1

> <PUBCHEM_IUPAC_INCHIKEY>
CNBHUROFMYCHGI-ZOJSNPSCSA-N

> <PUBCHEM_XLOGP3_AA>
5.2

> <PUBCHEM_EXACT_MASS>
488.350175

> <PUBCHEM_MOLECULAR_FORMULA>
C30H48O5

> <PUBCHEM_MOLECULAR_WEIGHT>
488.69912

> <PUBCHEM_OPENEYE_CAN_SMILES>
CC1CC2C(OC3(C1C4(CCC56CC57CCC(C(C7CCC6C4(C3O)C)(C)C)O)C)O2)C(C)(C)O

> <PUBCHEM_OPENEYE_ISO_SMILES>
C[C@@H]1C[C@H]2[C@H](O[C@]3([C@H]1[C@]4(CC[C@@]56C[C@@]57CC[C@@H](C([C@@H]7CC[C@H]6[C@@]4([C@H]3O)C)(C)C)O)C)O2)C(C)(C)O

> <PUBCHEM_CACTVS_TPSA>
79.2

> <PUBCHEM_MONOISOTOPIC_WEIGHT>
488.350175

> <PUBCHEM_TOTAL_CHARGE>
0

> <PUBCHEM_HEAVY_ATOM_COUNT>
35

> <PUBCHEM_ATOM_DEF_STEREO_COUNT>
13

> <PUBCHEM_ATOM_UDEF_STEREO_COUNT>
0

> <PUBCHEM_BOND_DEF_STEREO_COUNT>
0

> <PUBCHEM_BOND_UDEF_STEREO_COUNT>
0

> <PUBCHEM_ISOTOPIC_ATOM_COUNT>
0

> <PUBCHEM_COMPONENT_COUNT>
1

> <PUBCHEM_CACTVS_TAUTO_COUNT>
1

> <PUBCHEM_COORDINATE_TYPE>
1
5
255

> <PUBCHEM_BONDANNOTATIONS>
21  1  5
10  23  6
11  39  6
12  26  5
17  48  6
25  32  6
27  62  6
18  3  6
31  71  6
24  4  5
6  9  5
7  9  5
8  36  5

$$$$

