254013
  -OEChem-07051213073D

 37 40  0     1  0  0  0  0  0999 V2000
    4.7985   -1.2752   -0.3600 O   0  0  0  0  0  0  0  0  0  0  0  0
   -5.6544   -0.1049   -0.4678 O   0  0  0  0  0  0  0  0  0  0  0  0
   -1.4300    2.0492   -0.0868 N   0  0  0  0  0  0  0  0  0  0  0  0
    2.4804   -0.5321   -0.3600 C   0  0  2  0  0  0  0  0  0  0  0  0
    2.0020    0.6076    0.5681 C   0  0  1  0  0  0  0  0  0  0  0  0
    1.8593   -1.8556    0.1044 C   0  0  0  0  0  0  0  0  0  0  0  0
    3.0016    1.7373    0.3163 C   0  0  0  0  0  0  0  0  0  0  0  0
    3.9797   -0.3883   -0.1552 C   0  0  0  0  0  0  0  0  0  0  0  0
    0.5276    0.8061    0.3946 C   0  0  0  0  0  0  0  0  0  0  0  0
    4.3501    1.0079    0.3097 C   0  0  0  0  0  0  0  0  0  0  0  0
    0.5114   -1.6770    0.8461 C   0  0  0  0  0  0  0  0  0  0  0  0
   -0.2926   -0.4307    0.4800 C   0  0  0  0  0  0  0  0  0  0  0  0
    2.2087   -0.3103   -1.8616 C   0  0  0  0  0  0  0  0  0  0  0  0
   -0.0820    1.9697    0.1241 C   0  0  0  0  0  0  0  0  0  0  0  0
   -1.6386   -0.3723    0.2614 C   0  0  0  0  0  0  0  0  0  0  0  0
   -2.2620    0.9457   -0.0535 C   0  0  0  0  0  0  0  0  0  0  0  0
   -2.5037   -1.5449    0.3492 C   0  0  0  0  0  0  0  0  0  0  0  0
   -3.5837    1.0207   -0.2888 C   0  0  0  0  0  0  0  0  0  0  0  0
   -3.8196   -1.4724    0.1154 C   0  0  0  0  0  0  0  0  0  0  0  0
   -4.4528   -0.1805   -0.2357 C   0  0  0  0  0  0  0  0  0  0  0  0
    2.1578    0.3107    1.6194 H   0  0  0  0  0  0  0  0  0  0  0  0
    2.5466   -2.3938    0.7698 H   0  0  0  0  0  0  0  0  0  0  0  0
    1.7044   -2.5227   -0.7536 H   0  0  0  0  0  0  0  0  0  0  0  0
    2.9675    2.5045    1.0967 H   0  0  0  0  0  0  0  0  0  0  0  0
    2.8270    2.2353   -0.6440 H   0  0  0  0  0  0  0  0  0  0  0  0
    4.7693    0.9446    1.3180 H   0  0  0  0  0  0  0  0  0  0  0  0
    5.0578    1.4762   -0.3776 H   0  0  0  0  0  0  0  0  0  0  0  0
    0.7198   -1.6224    1.9240 H   0  0  0  0  0  0  0  0  0  0  0  0
   -0.0536   -2.6020    0.7079 H   0  0  0  0  0  0  0  0  0  0  0  0
    2.6780   -1.1042   -2.4554 H   0  0  0  0  0  0  0  0  0  0  0  0
    1.1390   -0.3187   -2.0937 H   0  0  0  0  0  0  0  0  0  0  0  0
    2.6234    0.6347   -2.2273 H   0  0  0  0  0  0  0  0  0  0  0  0
    0.4351    2.9158    0.0306 H   0  0  0  0  0  0  0  0  0  0  0  0
   -1.8309    2.9550   -0.2988 H   0  0  0  0  0  0  0  0  0  0  0  0
   -2.0931   -2.5112    0.6139 H   0  0  0  0  0  0  0  0  0  0  0  0
   -4.0653    1.9646   -0.5237 H   0  0  0  0  0  0  0  0  0  0  0  0
   -4.4542   -2.3487    0.1810 H   0  0  0  0  0  0  0  0  0  0  0  0
  1  8  2  0  0  0  0
  2 20  2  0  0  0  0
  3 14  1  0  0  0  0
  3 16  1  0  0  0  0
  3 34  1  0  0  0  0
  4  5  1  0  0  0  0
  4  6  1  0  0  0  0
  4  8  1  0  0  0  0
  4 13  1  0  0  0  0
  5  7  1  0  0  0  0
  5  9  1  0  0  0  0
  5 21  1  0  0  0  0
  6 11  1  0  0  0  0
  6 22  1  0  0  0  0
  6 23  1  0  0  0  0
  7 10  1  0  0  0  0
  7 24  1  0  0  0  0
  7 25  1  0  0  0  0
  8 10  1  0  0  0  0
  9 12  1  0  0  0  0
  9 14  2  0  0  0  0
 10 26  1  0  0  0  0
 10 27  1  0  0  0  0
 11 12  1  0  0  0  0
 11 28  1  0  0  0  0
 11 29  1  0  0  0  0
 12 15  2  0  0  0  0
 13 30  1  0  0  0  0
 13 31  1  0  0  0  0
 13 32  1  0  0  0  0
 14 33  1  0  0  0  0
 15 16  1  0  0  0  0
 15 17  1  0  0  0  0
 16 18  2  0  0  0  0
 17 19  2  0  0  0  0
 17 35  1  0  0  0  0
 18 20  1  0  0  0  0
 18 36  1  0  0  0  0
 19 20  1  0  0  0  0
 19 37  1  0  0  0  0
M  END
> <PUBCHEM_COMPOUND_CID>
254013

> <PUBCHEM_CONFORMER_RMSD>
0.6

> <PUBCHEM_CONFORMER_DIVERSEORDER>
1

> <PUBCHEM_MMFF94_PARTIAL_CHARGES>
21
1 -0.57
10 0.06
11 0.14
12 -0.14
14 -0.05
16 0.1
17 -0.15
18 -0.14
19 -0.14
2 -0.57
20 0.54
3 -0.6
33 0.15
34 0.4
35 0.15
36 0.15
37 0.15
4 0.06
5 0.14
8 0.45
9 -0.14

> <PUBCHEM_EFFECTIVE_ROTOR_COUNT>
0.8

> <PUBCHEM_PHARMACOPHORE_FEATURES>
8
1 1 acceptor
1 2 acceptor
1 3 cation
1 3 donor
5 4 5 7 8 10 rings
6 15 16 17 18 19 20 rings
6 3 9 12 14 15 16 rings
6 4 5 6 9 11 12 rings

> <PUBCHEM_HEAVY_ATOM_COUNT>
20

> <PUBCHEM_ATOM_DEF_STEREO_COUNT>
2

> <PUBCHEM_ATOM_UDEF_STEREO_COUNT>
0

> <PUBCHEM_BOND_DEF_STEREO_COUNT>
0

> <PUBCHEM_BOND_UDEF_STEREO_COUNT>
0

> <PUBCHEM_ISOTOPIC_ATOM_COUNT>
0

> <PUBCHEM_COMPONENT_COUNT>
1

> <PUBCHEM_CACTVS_TAUTO_COUNT>
6

> <PUBCHEM_CONFORMER_ID>
0003E03D00000001

> <PUBCHEM_MMFF94_ENERGY>
65.6135

> <PUBCHEM_FEATURE_SELFOVERLAP>
40.716

> <PUBCHEM_SHAPE_FINGERPRINT>
10498660 4 18271812362415671117
10646746 165 18341895203452172332
10967382 1 18411702075523276433
11132069 177 18341898454610702705
11471102 20 18408887317329836960
12236239 1 17060344002697162080
12403259 226 18339647836461896680
12403260 363 18341053003726738360
12596599 1 17895736423174254335
128620 24 18273494572356325791
13140716 1 18125432021783803033
13224815 77 18342172258912816891
13583140 156 14273741806529280251
14115302 16 17989199322181453046
14386348 63 18335419054358298295
14790565 3 17833549381743830377
15196674 1 18410856538207157721
15375358 24 18410577249579855811
15536298 74 18334859398312574632
15635459 17 18187640323329332943
15848702 151 17821999934846425575
16945 1 18265606761711490736
17349148 13 17775847917058925866
18186145 218 18059863852251123972
19141452 34 18113898217933808735
192875 21 17275097340863725340
19862831 5 17988924470244701315
200 152 17749109997652933345
20645477 70 18113336426993667166
21029758 11 18335422344351109753
21267235 1 18410848867802021779
21452121 103 18261685766182629744
221490 88 18268423547055757810
23402539 116 18338806619539726702
23557571 272 18261669371759600044
23559900 14 18411418397935205064
2748010 2 18124308307445419785
2871803 45 18412547625708459507
296302 2 18041276582340011245
3286 77 18411139169168465556
3323516 105 18409449167629238193
335352 9 18411138073329228469
34934 24 18410581660711897675
351380 180 18410577275523745802
4028521 119 18272376390584776973
4214541 1 18409167744498317489
474 4 17203601592740533950
4990 188 18260264174339796966
5104073 3 18409167718395893472
69090 78 18260269628953777958
7364860 26 18267306619726369874
9709674 26 18335696191064904542

> <PUBCHEM_SHAPE_MULTIPOLES>
394.87
9.21
2
0.91
3.98
0.17
0.29
-0.85
1.3
-0.21
-0.22
-0.44
-0.11
0.52

> <PUBCHEM_SHAPE_SELFOVERLAP>
878.736

> <PUBCHEM_SHAPE_VOLUME>
210.1

> <PUBCHEM_COORDINATE_TYPE>
2
5
10

$$$$

