582908
  -OEChem-06241222443D

 30 29  0     1  0  0  0  0  0999 V2000
   -1.4521   -1.9543    1.1240 O   0  0  0  0  0  0  0  0  0  0  0  0
   -0.4088    1.4329   -0.2868 O   0  0  0  0  0  0  0  0  0  0  0  0
    1.6342   -0.9234   -0.3729 O   0  0  0  0  0  0  0  0  0  0  0  0
   -2.5519    0.8748    0.3586 O   0  0  0  0  0  0  0  0  0  0  0  0
    0.9161   -0.8973    1.8183 O   0  0  0  0  0  0  0  0  0  0  0  0
   -1.2053   -0.6924   -0.9318 C   0  0  1  0  0  0  0  0  0  0  0  0
   -0.5599   -1.6798    0.0536 C   0  0  1  0  0  0  0  0  0  0  0  0
   -2.4766   -1.2304   -1.5921 C   0  0  0  0  0  0  0  0  0  0  0  0
   -1.5004    0.6145   -0.2115 C   0  0  0  0  0  0  0  0  0  0  0  0
    0.7328   -1.1327    0.6310 C   0  0  0  0  0  0  0  0  0  0  0  0
   -0.5404    2.6977    0.3695 C   0  0  0  0  0  0  0  0  0  0  0  0
    2.8945   -0.3801    0.0328 C   0  0  0  0  0  0  0  0  0  0  0  0
    0.7441    3.4797    0.1950 C   0  0  0  0  0  0  0  0  0  0  0  0
    3.7737   -0.2094   -1.1878 C   0  0  0  0  0  0  0  0  0  0  0  0
   -0.5048   -0.4686   -1.7476 H   0  0  0  0  0  0  0  0  0  0  0  0
   -0.3391   -2.6304   -0.4453 H   0  0  0  0  0  0  0  0  0  0  0  0
   -2.2602   -2.1413   -2.1595 H   0  0  0  0  0  0  0  0  0  0  0  0
   -3.2486   -1.4661   -0.8518 H   0  0  0  0  0  0  0  0  0  0  0  0
   -2.8975   -0.4906   -2.2817 H   0  0  0  0  0  0  0  0  0  0  0  0
   -1.0573   -2.6633    1.6600 H   0  0  0  0  0  0  0  0  0  0  0  0
   -1.3749    3.2532   -0.0726 H   0  0  0  0  0  0  0  0  0  0  0  0
   -0.7339    2.5370    1.4359 H   0  0  0  0  0  0  0  0  0  0  0  0
    2.7358    0.5912    0.5139 H   0  0  0  0  0  0  0  0  0  0  0  0
    3.3749   -1.0630    0.7422 H   0  0  0  0  0  0  0  0  0  0  0  0
    0.6756    4.4576    0.6797 H   0  0  0  0  0  0  0  0  0  0  0  0
    1.5897    2.9320    0.6235 H   0  0  0  0  0  0  0  0  0  0  0  0
    0.9655    3.6255   -0.8674 H   0  0  0  0  0  0  0  0  0  0  0  0
    4.7479    0.2047   -0.9133 H   0  0  0  0  0  0  0  0  0  0  0  0
    3.9262   -1.1702   -1.6904 H   0  0  0  0  0  0  0  0  0  0  0  0
    3.2978    0.4576   -1.9143 H   0  0  0  0  0  0  0  0  0  0  0  0
  1  7  1  0  0  0  0
  1 20  1  0  0  0  0
  2  9  1  0  0  0  0
  2 11  1  0  0  0  0
  3 10  1  0  0  0  0
  3 12  1  0  0  0  0
  4  9  2  0  0  0  0
  5 10  2  0  0  0  0
  6  7  1  0  0  0  0
  6  8  1  0  0  0  0
  6  9  1  0  0  0  0
  6 15  1  0  0  0  0
  7 10  1  0  0  0  0
  7 16  1  0  0  0  0
  8 17  1  0  0  0  0
  8 18  1  0  0  0  0
  8 19  1  0  0  0  0
 11 13  1  0  0  0  0
 11 21  1  0  0  0  0
 11 22  1  0  0  0  0
 12 14  1  0  0  0  0
 12 23  1  0  0  0  0
 12 24  1  0  0  0  0
 13 25  1  0  0  0  0
 13 26  1  0  0  0  0
 13 27  1  0  0  0  0
 14 28  1  0  0  0  0
 14 29  1  0  0  0  0
 14 30  1  0  0  0  0
M  END
> <PUBCHEM_COMPOUND_CID>
582908

> <PUBCHEM_CONFORMER_RMSD>
0.8

> <PUBCHEM_CONFORMER_DIVERSEORDER>
1
44
9
111
189
188
78
49
51
134
127
151
65
147
15
138
85
48
126
25
143
43
152
36
164
34
117
103
59
71
76
183
153
131
156
160
133
61
182
172
75
140
185
5
144
118
3
18
63
88
33
119
92
55
98
23
116
142
10
173
163
123
154
141
29
180
184
46
175
16
102
81
121
120
91
27
38
179
96
11
122
129
37
19
161
22
177
186
100
39
62
50
95
6
146
82
169
168
101
86
150
83
35
114
171
187
174
31
47
94
69
97
60
66
2
68
159
110
20
162
84
132
87
56
14
45
57
115
105
108
58
145
99
93
32
130
17
124
89
42
178
12
67
167
106
170
80
148
155
77
107
8
53
79
157
64
74
54
4
28
125
181
139
176
113
135
109
13
90
73
70
112
136
128
149
7
137
26
52
165
21
72
166
30
24
41
158
104
40

> <PUBCHEM_MMFF94_PARTIAL_CHARGES>
12
1 -0.68
10 0.66
11 0.28
12 0.28
2 -0.43
20 0.4
3 -0.43
4 -0.57
5 -0.57
6 0.06
7 0.34
9 0.66

> <PUBCHEM_EFFECTIVE_ROTOR_COUNT>
7

> <PUBCHEM_PHARMACOPHORE_FEATURES>
5
1 1 acceptor
1 1 donor
1 4 acceptor
1 5 acceptor
1 8 hydrophobe

> <PUBCHEM_HEAVY_ATOM_COUNT>
14

> <PUBCHEM_ATOM_DEF_STEREO_COUNT>
0

> <PUBCHEM_ATOM_UDEF_STEREO_COUNT>
2

> <PUBCHEM_BOND_DEF_STEREO_COUNT>
0

> <PUBCHEM_BOND_UDEF_STEREO_COUNT>
0

> <PUBCHEM_ISOTOPIC_ATOM_COUNT>
0

> <PUBCHEM_COMPONENT_COUNT>
1

> <PUBCHEM_CACTVS_TAUTO_COUNT>
1

> <PUBCHEM_CONFORMER_ID>
0008E4FC00000001

> <PUBCHEM_MMFF94_ENERGY>
10.3722

> <PUBCHEM_FEATURE_SELFOVERLAP>
25.379

> <PUBCHEM_SHAPE_FINGERPRINT>
100427 49 18266742385181555308
14251711 518 18196098956550115980
16945 1 17775574138637443742
19837323 101 18266727155459957126
21524375 3 17688587590613585496
22713034 7 6516001640658880000
22802520 49 18188198914239257606
23402539 116 18335995254386230182
23419403 2 17769920291160353123
23557571 272 18041011617818966850
241688 4 18190766252246128833
2748010 2 17695918730394237863
353137 74 18199467830270976308
430814 3 17767110283042357340
4369600 1 18339381702475195743
4663303 62 17833267519485794254
535629 181 18409172099310143950

> <PUBCHEM_SHAPE_MULTIPOLES>
258.77
4
3.12
1.29
3.11
3.86
0.08
-1.43
-1.74
-0.07
0.46
-0.07
-0.66
-0.16

> <PUBCHEM_SHAPE_SELFOVERLAP>
494.29

> <PUBCHEM_SHAPE_VOLUME>
159.4

> <PUBCHEM_COORDINATE_TYPE>
2
5
10

$$$$

