11953838
  -OEChem-07051212492D

 85 87  0     1  0  0  0  0  0999 V2000
    5.2169    5.6562    0.0000 P   0  0  0  0  0  0  0  0  0  0  0  0
    5.8520   -0.7802    0.0000 O   0  0  0  0  0  0  0  0  0  0  0  0
    7.6316   -0.6869    0.0000 O   0  0  0  0  0  0  0  0  0  0  0  0
    6.0794    1.3835    0.0000 O   0  0  0  0  0  0  0  0  0  0  0  0
    7.2384    2.6706    0.0000 O   0  0  0  0  0  0  0  0  0  0  0  0
    7.5841   -1.7802    0.0000 O   0  0  0  0  0  0  0  0  0  0  0  0
    4.1200   -3.7802    0.0000 O   0  0  0  0  0  0  0  0  0  0  0  0
    7.5841   -3.7802    0.0000 O   0  0  0  0  0  0  0  0  0  0  0  0
    5.0090    4.6780    0.0000 O   0  0  0  0  0  0  0  0  0  0  0  0
    9.2020    1.9403    0.0000 O   0  0  0  0  0  0  0  0  0  0  0  0
    6.9111    5.2960    0.0000 O   0  0  0  0  0  0  0  0  0  0  0  0
    8.6053    4.9359    0.0000 O   0  0  0  0  0  0  0  0  0  0  0  0
    5.4248    6.6343    0.0000 O   0  0  0  0  0  0  0  0  0  0  0  0
    4.2387    5.8641    0.0000 O   0  0  0  0  0  0  0  0  0  0  0  0
    6.1950    5.4483    0.0000 O   0  0  0  0  0  0  0  0  0  0  0  0
    4.1200   -1.7802    0.0000 N   0  0  0  0  0  0  0  0  0  0  0  0
    4.5932    2.7217    0.0000 N   0  0  0  0  0  0  0  0  0  0  0  0
    5.8520   -4.7802    0.0000 N   0  0  0  0  0  0  0  0  0  0  0  0
    2.6200   -0.9141    0.0000 N   0  0  0  0  0  0  0  0  0  0  0  0
    2.6200   -2.6463    0.0000 N   0  0  0  0  0  0  0  0  0  0  0  0
    5.8520   -6.5122    0.0000 N   0  0  0  0  0  0  0  0  0  0  0  0
    7.3520   -5.6462    0.0000 N   0  0  0  0  0  0  0  0  0  0  0  0
    6.8226    0.7143    0.0000 C   0  0  2  0  0  0  0  0  0  0  0  0
    7.8008    0.9222    0.0000 C   0  0  2  0  0  0  0  0  0  0  0  0
    6.7181   -0.2802    0.0000 C   0  0  2  0  0  0  0  0  0  0  0  0
    5.8520   -1.7802    0.0000 C   0  0  2  0  0  0  0  0  0  0  0  0
    8.3008    0.0562    0.0000 C   0  0  2  0  0  0  0  0  0  0  0  0
    4.9860   -2.2802    0.0000 C   0  0  2  0  0  0  0  0  0  0  0  0
    6.7181   -2.2802    0.0000 C   0  0  1  0  0  0  0  0  0  0  0  0
    4.9860   -3.2802    0.0000 C   0  0  1  0  0  0  0  0  0  0  0  0
    6.7181   -3.2802    0.0000 C   0  0  2  0  0  0  0  0  0  0  0  0
    5.8520   -3.7802    0.0000 C   0  0  2  0  0  0  0  0  0  0  0  0
    6.2874    2.3616    0.0000 C   0  0  2  0  0  0  0  0  0  0  0  0
    5.5442    3.0307    0.0000 C   0  0  2  0  0  0  0  0  0  0  0  0
    5.7521    4.0089    0.0000 C   0  0  1  0  0  0  0  0  0  0  0  0
    8.2075    1.8358    0.0000 C   0  0  0  0  0  0  0  0  0  0  0  0
    6.7032    4.3179    0.0000 C   0  0  2  0  0  0  0  0  0  0  0  0
    7.4463    3.6488    0.0000 C   0  0  2  0  0  0  0  0  0  0  0  0
    9.2953   -0.0483    0.0000 C   0  0  0  0  0  0  0  0  0  0  0  0
    8.3974    3.9578    0.0000 C   0  0  0  0  0  0  0  0  0  0  0  0
    3.8500    3.3909    0.0000 C   0  0  0  0  0  0  0  0  0  0  0  0
    3.1200   -1.7802    0.0000 C   0  0  0  0  0  0  0  0  0  0  0  0
    6.3520   -5.6462    0.0000 C   0  0  0  0  0  0  0  0  0  0  0  0
    6.9831    1.3132    0.0000 H   0  0  0  0  0  0  0  0  0  0  0  0
    7.4106    1.4041    0.0000 H   0  0  0  0  0  0  0  0  0  0  0  0
    6.7505   -0.8993    0.0000 H   0  0  0  0  0  0  0  0  0  0  0  0
    6.3890   -1.4702    0.0000 H   0  0  0  0  0  0  0  0  0  0  0  0
    8.5229   -0.5226    0.0000 H   0  0  0  0  0  0  0  0  0  0  0  0
    4.9860   -1.6602    0.0000 H   0  0  0  0  0  0  0  0  0  0  0  0
    6.7181   -1.6602    0.0000 H   0  0  0  0  0  0  0  0  0  0  0  0
    4.9860   -3.9002    0.0000 H   0  0  0  0  0  0  0  0  0  0  0  0
    6.7181   -3.9002    0.0000 H   0  0  0  0  0  0  0  0  0  0  0  0
    6.3890   -4.0902    0.0000 H   0  0  0  0  0  0  0  0  0  0  0  0
    5.6977    2.1700    0.0000 H   0  0  0  0  0  0  0  0  0  0  0  0
    5.4153    2.4243    0.0000 H   0  0  0  0  0  0  0  0  0  0  0  0
    5.8810    4.6153    0.0000 H   0  0  0  0  0  0  0  0  0  0  0  0
    8.2507    2.4543    0.0000 H   0  0  0  0  0  0  0  0  0  0  0  0
    7.6059    1.9858    0.0000 H   0  0  0  0  0  0  0  0  0  0  0  0
    7.2928    4.5095    0.0000 H   0  0  0  0  0  0  0  0  0  0  0  0
    7.9071    3.2339    0.0000 H   0  0  0  0  0  0  0  0  0  0  0  0
    9.2305   -0.6649    0.0000 H   0  0  0  0  0  0  0  0  0  0  0  0
    9.9119   -0.1131    0.0000 H   0  0  0  0  0  0  0  0  0  0  0  0
    9.3601    0.5683    0.0000 H   0  0  0  0  0  0  0  0  0  0  0  0
    4.4643    2.1153    0.0000 H   0  0  0  0  0  0  0  0  0  0  0  0
    8.1210   -2.0902    0.0000 H   0  0  0  0  0  0  0  0  0  0  0  0
    4.1200   -4.4002    0.0000 H   0  0  0  0  0  0  0  0  0  0  0  0
    8.1210   -3.4702    0.0000 H   0  0  0  0  0  0  0  0  0  0  0  0
    8.4837    3.3438    0.0000 H   0  0  0  0  0  0  0  0  0  0  0  0
    9.0170    3.9362    0.0000 H   0  0  0  0  0  0  0  0  0  0  0  0
    9.4542    2.5067    0.0000 H   0  0  0  0  0  0  0  0  0  0  0  0
    7.5008    5.4876    0.0000 H   0  0  0  0  0  0  0  0  0  0  0  0
    4.2649    3.8516    0.0000 H   0  0  0  0  0  0  0  0  0  0  0  0
    3.3893    3.8057    0.0000 H   0  0  0  0  0  0  0  0  0  0  0  0
    3.4352    2.9301    0.0000 H   0  0  0  0  0  0  0  0  0  0  0  0
    9.1950    5.1275    0.0000 H   0  0  0  0  0  0  0  0  0  0  0  0
    2.0000   -0.9141    0.0000 H   0  0  0  0  0  0  0  0  0  0  0  0
    2.9300   -0.3772    0.0000 H   0  0  0  0  0  0  0  0  0  0  0  0
    2.0000   -2.6462    0.0000 H   0  0  0  0  0  0  0  0  0  0  0  0
    2.9300   -3.1832    0.0000 H   0  0  0  0  0  0  0  0  0  0  0  0
    6.1620   -7.0492    0.0000 H   0  0  0  0  0  0  0  0  0  0  0  0
    5.2320   -6.5122    0.0000 H   0  0  0  0  0  0  0  0  0  0  0  0
    7.6620   -6.1832    0.0000 H   0  0  0  0  0  0  0  0  0  0  0  0
    7.6620   -5.1093    0.0000 H   0  0  0  0  0  0  0  0  0  0  0  0
    4.9641    7.0492    0.0000 H   0  0  0  0  0  0  0  0  0  0  0  0
    4.0472    6.4537    0.0000 H   0  0  0  0  0  0  0  0  0  0  0  0
  1  9  1  0  0  0  0
  1 13  1  0  0  0  0
  1 14  1  0  0  0  0
  1 15  2  0  0  0  0
 25  2  1  1  0  0  0
 26  2  1  1  0  0  0
  3 25  1  0  0  0  0
  3 27  1  0  0  0  0
 23  4  1  6  0  0  0
 33  4  1  1  0  0  0
  5 33  1  0  0  0  0
  5 38  1  0  0  0  0
 29  6  1  6  0  0  0
  6 65  1  0  0  0  0
 30  7  1  1  0  0  0
  7 66  1  0  0  0  0
 31  8  1  1  0  0  0
  8 67  1  0  0  0  0
 35  9  1  6  0  0  0
 10 36  1  0  0  0  0
 10 70  1  0  0  0  0
 37 11  1  1  0  0  0
 11 71  1  0  0  0  0
 12 40  1  0  0  0  0
 12 75  1  0  0  0  0
 13 84  1  0  0  0  0
 14 85  1  0  0  0  0
 28 16  1  6  0  0  0
 16 42  2  0  0  0  0
 34 17  1  1  0  0  0
 17 41  1  0  0  0  0
 17 64  1  0  0  0  0
 32 18  1  6  0  0  0
 18 43  2  0  0  0  0
 19 42  1  0  0  0  0
 19 76  1  0  0  0  0
 19 77  1  0  0  0  0
 20 42  1  0  0  0  0
 20 78  1  0  0  0  0
 20 79  1  0  0  0  0
 21 43  1  0  0  0  0
 21 80  1  0  0  0  0
 21 81  1  0  0  0  0
 22 43  1  0  0  0  0
 22 82  1  0  0  0  0
 22 83  1  0  0  0  0
 23 24  1  0  0  0  0
 23 25  1  0  0  0  0
 23 44  1  0  0  0  0
 24 27  1  0  0  0  0
 24 36  1  1  0  0  0
 24 45  1  0  0  0  0
 25 46  1  0  0  0  0
 26 28  1  0  0  0  0
 26 29  1  0  0  0  0
 26 47  1  0  0  0  0
 27 39  1  6  0  0  0
 27 48  1  0  0  0  0
 28 30  1  0  0  0  0
 28 49  1  0  0  0  0
 29 31  1  0  0  0  0
 29 50  1  0  0  0  0
 30 32  1  0  0  0  0
 30 51  1  0  0  0  0
 31 32  1  0  0  0  0
 31 52  1  0  0  0  0
 32 53  1  0  0  0  0
 33 34  1  0  0  0  0
 33 54  1  0  0  0  0
 34 35  1  0  0  0  0
 34 55  1  0  0  0  0
 35 37  1  0  0  0  0
 35 56  1  0  0  0  0
 36 57  1  0  0  0  0
 36 58  1  0  0  0  0
 37 38  1  0  0  0  0
 37 59  1  0  0  0  0
 38 40  1  6  0  0  0
 38 60  1  0  0  0  0
 39 61  1  0  0  0  0
 39 62  1  0  0  0  0
 39 63  1  0  0  0  0
 40 68  1  0  0  0  0
 40 69  1  0  0  0  0
 41 72  1  0  0  0  0
 41 73  1  0  0  0  0
 41 74  1  0  0  0  0
M  END
> <PUBCHEM_COMPOUND_CID>
11953838

> <PUBCHEM_COMPOUND_CANONICALIZED>
1

> <PUBCHEM_CACTVS_COMPLEXITY>
1030

> <PUBCHEM_CACTVS_HBOND_ACCEPTOR>
17

> <PUBCHEM_CACTVS_HBOND_DONOR>
13

> <PUBCHEM_CACTVS_ROTATABLE_BOND>
11

> <PUBCHEM_CACTVS_SUBSKEYS>
AAADcfB7vAIAAAAAAAAAAAAAAAAAASAAAAA0QAAAAAAAAAAAAAAAHgAQCCAADTzxgAcDCALABxAgQAAAJIAAAAEAAAAAAIAIAAATEAIAwAAnQAAHEAAXAAHwcA8KAAAAAAAAAAACgAAUCACgAAAAAAAAAA==

> <PUBCHEM_IUPAC_OPENEYE_NAME>
[(2S,3S,4S,5S,6S)-2-[(2S,3R,4S,5S)-2-[(1R,2S,3R,4R,5S,6R)-2,4-diguanidino-3,5,6-trihydroxy-cyclohexoxy]-4-(hydroxymethyl)-5-methyl-tetrahydrofuran-3-yl]oxy-5-hydroxy-6-(hydroxymethyl)-3-(methylamino)tetrahydropyran-4-yl] dihydrogen phosphate

> <PUBCHEM_IUPAC_CAS_NAME>
[(2S,3S,4S,5S,6S)-2-[[(2S,3R,4S,5S)-2-[(1R,2S,3R,4R,5S,6R)-2,4-bis(diaminomethylideneamino)-3,5,6-trihydroxycyclohexyl]oxy-4-(hydroxymethyl)-5-methyl-3-oxolanyl]oxy]-5-hydroxy-6-(hydroxymethyl)-3-(methylamino)-4-oxanyl] dihydrogen phosphate

> <PUBCHEM_IUPAC_NAME>
[(2S,3S,4S,5S,6S)-2-[(2S,3R,4S,5S)-2-[(1R,2S,3R,4R,5S,6R)-2,4-bis(diaminomethylideneamino)-3,5,6-trihydroxycyclohexyl]oxy-4-(hydroxymethyl)-5-methyloxolan-3-yl]oxy-5-hydroxy-6-(hydroxymethyl)-3-(methylamino)oxan-4-yl] dihydrogen phosphate

> <PUBCHEM_IUPAC_SYSTEMATIC_NAME>
[(2S,3S,4S,5S,6S)-2-[(2S,3R,4S,5S)-2-[(1R,2S,3R,4R,5S,6R)-2,4-bis[bis(azanyl)methylideneamino]-3,5,6-tris(oxidanyl)cyclohexyl]oxy-4-(hydroxymethyl)-5-methyl-oxolan-3-yl]oxy-6-(hydroxymethyl)-3-(methylamino)-5-oxidanyl-oxan-4-yl] dihydrogen phosphate

> <PUBCHEM_IUPAC_TRADITIONAL_NAME>
[(2S,3S,4S,5S,6S)-2-[(2S,3R,4S,5S)-2-[(1R,2S,3R,4R,5S,6R)-2,4-diguanidino-3,5,6-trihydroxy-cyclohexoxy]-5-methyl-4-methylol-tetrahydrofuran-3-yl]oxy-5-hydroxy-3-(methylamino)-6-methylol-tetrahydropyran-4-yl] dihydrogen phosphate

> <PUBCHEM_IUPAC_INCHI>
InChI=1S/C21H42N7O14P/c1-5-6(3-29)15(40-18-10(26-2)17(42-43(35,36)37)11(31)7(4-30)39-18)19(38-5)41-16-9(28-21(24)25)12(32)8(27-20(22)23)13(33)14(16)34/h5-19,26,29-34H,3-4H2,1-2H3,(H4,22,23,27)(H4,24,25,28)(H2,35,36,37)/t5-,6-,7-,8+,9-,10-,11-,12+,13-,14+,15+,16+,17-,18-,19-/m0/s1

> <PUBCHEM_IUPAC_INCHIKEY>
IVYIIYNMXYWZJH-SPEROGKNSA-N

> <PUBCHEM_XLOGP3_AA>
-10.5

> <PUBCHEM_EXACT_MASS>
647.252736

> <PUBCHEM_MOLECULAR_FORMULA>
C21H42N7O14P

> <PUBCHEM_MOLECULAR_WEIGHT>
647.570442

> <PUBCHEM_OPENEYE_CAN_SMILES>
CC1C(C(C(O1)OC2C(C(C(C(C2O)O)N=C(N)N)O)N=C(N)N)OC3C(C(C(C(O3)CO)O)OP(=O)(O)O)NC)CO

> <PUBCHEM_OPENEYE_ISO_SMILES>
C[C@H]1[C@@H]([C@H]([C@@H](O1)O[C@@H]2[C@H]([C@@H]([C@H]([C@@H]([C@H]2O)O)N=C(N)N)O)N=C(N)N)O[C@H]3[C@H]([C@@H]([C@H]([C@@H](O3)CO)O)OP(=O)(O)O)NC)CO

> <PUBCHEM_CACTVS_TPSA>
366

> <PUBCHEM_MONOISOTOPIC_WEIGHT>
647.252736

> <PUBCHEM_TOTAL_CHARGE>
0

> <PUBCHEM_HEAVY_ATOM_COUNT>
43

> <PUBCHEM_ATOM_DEF_STEREO_COUNT>
15

> <PUBCHEM_ATOM_UDEF_STEREO_COUNT>
0

> <PUBCHEM_BOND_DEF_STEREO_COUNT>
0

> <PUBCHEM_BOND_UDEF_STEREO_COUNT>
0

> <PUBCHEM_ISOTOPIC_ATOM_COUNT>
0

> <PUBCHEM_COMPONENT_COUNT>
1

> <PUBCHEM_CACTVS_TAUTO_COUNT>
4

> <PUBCHEM_COORDINATE_TYPE>
1
5
255

> <PUBCHEM_BONDANNOTATIONS>
37  11  5
28  16  6
34  17  5
32  18  6
25  2  5
26  2  5
24  36  5
27  39  6
38  40  6
23  4  6
33  4  5
29  6  6
30  7  5
31  8  5
35  9  6

$$$$

