5280865
  -OEChem-07051212513D

 79 82  0     1  0  0  0  0  0999 V2000
   -5.2391   -0.5835    1.9575 O   0  0  0  0  0  0  0  0  0  0  0  0
    1.0704   -0.4418    2.5471 O   0  0  0  0  0  0  0  0  0  0  0  0
    7.8546   -1.5311    0.3336 O   0  0  0  0  0  0  0  0  0  0  0  0
    3.2438   -1.0360    2.8166 O   0  0  0  0  0  0  0  0  0  0  0  0
    7.3329   -1.4240   -1.8746 O   0  0  0  0  0  0  0  0  0  0  0  0
   -2.7584    2.4658    1.6549 O   0  0  0  0  0  0  0  0  0  0  0  0
   -0.1240   -1.8374   -1.1431 N   0  0  0  0  0  0  0  0  0  0  0  0
    1.4981    0.8315   -0.3853 N   0  0  0  0  0  0  0  0  0  0  0  0
   -3.6432   -1.4724    0.5069 N   0  0  0  0  0  0  0  0  0  0  0  0
   -0.5697    2.4943    0.8715 N   0  0  0  0  0  0  0  0  0  0  0  0
    0.5919   -3.0002    0.6083 C   0  0  0  0  0  0  0  0  0  0  0  0
    0.9753   -2.1120   -0.3722 C   0  0  0  0  0  0  0  0  0  0  0  0
   -0.7863   -3.2693    0.4200 C   0  0  0  0  0  0  0  0  0  0  0  0
   -1.2031   -2.5376   -0.6699 C   0  0  0  0  0  0  0  0  0  0  0  0
    2.4048   -0.1472   -0.7058 C   0  0  0  0  0  0  0  0  0  0  0  0
    3.6469    0.5587   -1.0444 C   0  0  0  0  0  0  0  0  0  0  0  0
    1.4574   -3.5679    1.6639 C   0  0  0  0  0  0  0  0  0  0  0  0
    2.2103   -1.4707   -0.7118 C   0  0  0  0  0  0  0  0  0  0  0  0
   -5.8008   -1.1212   -0.3577 C   0  0  2  0  0  0  0  0  0  0  0  0
    3.4290    1.8893   -0.9135 C   0  0  0  0  0  0  0  0  0  0  0  0
   -3.5654   -1.8892   -0.7897 C   0  0  0  0  0  0  0  0  0  0  0  0
   -4.8640   -1.6988   -1.4013 C   0  0  0  0  0  0  0  0  0  0  0  0
   -2.4296   -2.3848   -1.3365 C   0  0  0  0  0  0  0  0  0  0  0  0
    2.0385    2.0886   -0.4862 C   0  0  0  0  0  0  0  0  0  0  0  0
    4.8911   -0.1516   -1.4525 C   0  0  0  0  0  0  0  0  0  0  0  0
   -4.8979   -1.0082    0.8630 C   0  0  0  0  0  0  0  0  0  0  0  0
   -1.6228   -4.1697    1.2417 C   0  0  0  0  0  0  0  0  0  0  0  0
    1.5062   -2.7395    2.9633 C   0  0  0  0  0  0  0  0  0  0  0  0
   -7.0045   -1.9997   -0.0462 C   0  0  0  0  0  0  0  0  0  0  0  0
    5.7854   -0.4979   -0.2676 C   0  0  0  0  0  0  0  0  0  0  0  0
    4.3717    3.0202   -1.1401 C   0  0  0  0  0  0  0  0  0  0  0  0
    1.4351    3.2584   -0.2476 C   0  0  0  0  0  0  0  0  0  0  0  0
   -5.2096   -1.9599   -2.6686 C   0  0  0  0  0  0  0  0  0  0  0  0
    0.0683    3.3763    0.1686 C   0  0  0  0  0  0  0  0  0  0  0  0
    2.0618   -1.3455    2.7645 C   0  0  0  0  0  0  0  0  0  0  0  0
   -4.2738   -2.5099   -3.6908 C   0  0  0  0  0  0  0  0  0  0  0  0
   -0.7260    4.5555   -0.1943 C   0  0  0  0  0  0  0  0  0  0  0  0
    7.0571   -1.1830   -0.7062 C   0  0  0  0  0  0  0  0  0  0  0  0
   -1.9196    4.3060    0.3597 C   0  0  0  0  0  0  0  0  0  0  0  0
   -1.8390    2.9911    1.0462 C   0  0  0  0  0  0  0  0  0  0  0  0
   -0.2440    5.7100   -0.9895 C   0  0  0  0  0  0  0  0  0  0  0  0
   -3.1040    5.1054    0.3402 C   0  0  0  0  0  0  0  0  0  0  0  0
   -3.1058    6.4389    0.4679 C   0  0  0  0  0  0  0  0  0  0  0  0
   -0.1374   -1.2139   -1.9400 H   0  0  0  0  0  0  0  0  0  0  0  0
    2.4800   -3.6733    1.2782 H   0  0  0  0  0  0  0  0  0  0  0  0
    1.1313   -4.5847    1.9132 H   0  0  0  0  0  0  0  0  0  0  0  0
    3.0348   -2.1426   -0.9321 H   0  0  0  0  0  0  0  0  0  0  0  0
   -6.1113   -0.1096   -0.6440 H   0  0  0  0  0  0  0  0  0  0  0  0
   -2.3645   -2.6792   -2.3699 H   0  0  0  0  0  0  0  0  0  0  0  0
    4.6587   -1.0485   -2.0392 H   0  0  0  0  0  0  0  0  0  0  0  0
    5.4547    0.4842   -2.1484 H   0  0  0  0  0  0  0  0  0  0  0  0
    0.5478    0.6513   -0.0996 H   0  0  0  0  0  0  0  0  0  0  0  0
   -1.1307   -5.1373    1.3840 H   0  0  0  0  0  0  0  0  0  0  0  0
   -2.5941   -4.3702    0.7791 H   0  0  0  0  0  0  0  0  0  0  0  0
   -1.8030   -3.7281    2.2272 H   0  0  0  0  0  0  0  0  0  0  0  0
   -2.8604   -1.4959    1.1502 H   0  0  0  0  0  0  0  0  0  0  0  0
    0.5088   -2.6619    3.4131 H   0  0  0  0  0  0  0  0  0  0  0  0
    2.1374   -3.2441    3.7040 H   0  0  0  0  0  0  0  0  0  0  0  0
   -6.6989   -3.0057    0.2639 H   0  0  0  0  0  0  0  0  0  0  0  0
   -7.5940   -1.5720    0.7722 H   0  0  0  0  0  0  0  0  0  0  0  0
   -7.6613   -2.0970   -0.9166 H   0  0  0  0  0  0  0  0  0  0  0  0
    6.0642    0.4121    0.2762 H   0  0  0  0  0  0  0  0  0  0  0  0
    5.2594   -1.1718    0.4182 H   0  0  0  0  0  0  0  0  0  0  0  0
    4.0081    3.6713   -1.9417 H   0  0  0  0  0  0  0  0  0  0  0  0
    5.3691    2.6724   -1.4249 H   0  0  0  0  0  0  0  0  0  0  0  0
    4.4847    3.6171   -0.2291 H   0  0  0  0  0  0  0  0  0  0  0  0
    1.9855    4.1843   -0.3864 H   0  0  0  0  0  0  0  0  0  0  0  0
   -6.2261   -1.7547   -2.9943 H   0  0  0  0  0  0  0  0  0  0  0  0
   -4.8272   -2.6162   -4.6327 H   0  0  0  0  0  0  0  0  0  0  0  0
   -3.9337   -3.5193   -3.4432 H   0  0  0  0  0  0  0  0  0  0  0  0
   -3.4536   -1.8228   -3.9167 H   0  0  0  0  0  0  0  0  0  0  0  0
    0.3170    5.3667   -1.8652 H   0  0  0  0  0  0  0  0  0  0  0  0
   -1.0597    6.3274   -1.3742 H   0  0  0  0  0  0  0  0  0  0  0  0
    0.4140    6.3430   -0.3863 H   0  0  0  0  0  0  0  0  0  0  0  0
    1.4229    0.4653    2.4238 H   0  0  0  0  0  0  0  0  0  0  0  0
   -4.0514    4.5842    0.2373 H   0  0  0  0  0  0  0  0  0  0  0  0
    8.6702   -1.9860    0.0333 H   0  0  0  0  0  0  0  0  0  0  0  0
   -4.0458    6.9813    0.4533 H   0  0  0  0  0  0  0  0  0  0  0  0
   -2.2016    7.0193    0.6123 H   0  0  0  0  0  0  0  0  0  0  0  0
  1 26  2  0  0  0  0
  2 35  1  0  0  0  0
  2 75  1  0  0  0  0
  3 38  1  0  0  0  0
  3 77  1  0  0  0  0
  4 35  2  0  0  0  0
  5 38  2  0  0  0  0
  6 40  2  0  0  0  0
  7 12  1  0  0  0  0
  7 14  1  0  0  0  0
  7 44  1  0  0  0  0
  8 15  1  0  0  0  0
  8 24  1  0  0  0  0
  8 52  1  0  0  0  0
  9 21  1  0  0  0  0
  9 26  1  0  0  0  0
  9 56  1  0  0  0  0
 10 34  2  0  0  0  0
 10 40  1  0  0  0  0
 11 12  2  0  0  0  0
 11 13  1  0  0  0  0
 11 17  1  0  0  0  0
 12 18  1  0  0  0  0
 13 14  2  0  0  0  0
 13 27  1  0  0  0  0
 14 23  1  0  0  0  0
 15 16  1  0  0  0  0
 15 18  2  0  0  0  0
 16 20  2  0  0  0  0
 16 25  1  0  0  0  0
 17 28  1  0  0  0  0
 17 45  1  0  0  0  0
 17 46  1  0  0  0  0
 18 47  1  0  0  0  0
 19 22  1  0  0  0  0
 19 26  1  0  0  0  0
 19 29  1  0  0  0  0
 19 48  1  0  0  0  0
 20 24  1  0  0  0  0
 20 31  1  0  0  0  0
 21 22  1  0  0  0  0
 21 23  2  0  0  0  0
 22 33  2  0  0  0  0
 23 49  1  0  0  0  0
 24 32  2  0  0  0  0
 25 30  1  0  0  0  0
 25 50  1  0  0  0  0
 25 51  1  0  0  0  0
 27 53  1  0  0  0  0
 27 54  1  0  0  0  0
 27 55  1  0  0  0  0
 28 35  1  0  0  0  0
 28 57  1  0  0  0  0
 28 58  1  0  0  0  0
 29 59  1  0  0  0  0
 29 60  1  0  0  0  0
 29 61  1  0  0  0  0
 30 38  1  0  0  0  0
 30 62  1  0  0  0  0
 30 63  1  0  0  0  0
 31 64  1  0  0  0  0
 31 65  1  0  0  0  0
 31 66  1  0  0  0  0
 32 34  1  0  0  0  0
 32 67  1  0  0  0  0
 33 36  1  0  0  0  0
 33 68  1  0  0  0  0
 34 37  1  0  0  0  0
 36 69  1  0  0  0  0
 36 70  1  0  0  0  0
 36 71  1  0  0  0  0
 37 39  2  0  0  0  0
 37 41  1  0  0  0  0
 39 40  1  0  0  0  0
 39 42  1  0  0  0  0
 41 72  1  0  0  0  0
 41 73  1  0  0  0  0
 41 74  1  0  0  0  0
 42 43  2  0  0  0  0
 42 76  1  0  0  0  0
 43 78  1  0  0  0  0
 43 79  1  0  0  0  0
M  END
> <PUBCHEM_COMPOUND_CID>
5280865

> <PUBCHEM_CONFORMER_RMSD>
1.2

> <PUBCHEM_CONFORMER_DIVERSEORDER>
1
102
45
55
82
104
66
77
54
52
63
56
92
99
46
89
94
84
95
83
79
88
7
39
67
74
41
75
103
12
87
30
93
50
97
19
40
44
101
32
51
37
4
81
14
10
48
98
71
25
100
86
28
59
73
43
47
69
78
61
91
36
38
90
6
72
70
53
49
60
58
17
42
80
21
11
31
96
16
9
27
5
33
62
35
15
76
65
85
26
8
23
29
20
3
24
64
68
22
57
13
18
34
2

> <PUBCHEM_MMFF94_PARTIAL_CHARGES>
54
1 -0.57
10 -0.66
11 -0.18
12 -0.2
13 -0.18
14 -0.2
15 0.1
16 -0.14
17 0.18
18 -0.11
19 0.2
2 -0.65
20 -0.14
21 0.11
22 -0.14
23 -0.11
24 0.1
25 0.14
26 0.57
27 0.18
28 0.06
3 -0.65
30 0.06
31 0.14
32 -0.14
33 -0.29
34 0.42
35 0.66
36 0.14
37 -0.12
38 0.66
39 0.01
4 -0.57
40 0.77
41 0.14
42 -0.15
43 -0.3
44 0.27
47 0.15
49 0.15
5 -0.57
52 0.4
56 0.37
6 -0.57
67 0.15
68 0.15
7 0.03
75 0.5
76 0.15
77 0.5
78 0.15
79 0.15
8 -0.6
9 -0.54

> <PUBCHEM_EFFECTIVE_ROTOR_COUNT>
10.4

> <PUBCHEM_PHARMACOPHORE_FEATURES>
21
1 1 acceptor
1 10 acceptor
1 10 donor
1 2 acceptor
1 3 acceptor
1 36 hydrophobe
1 4 acceptor
1 43 hydrophobe
1 5 acceptor
1 6 acceptor
1 7 cation
1 7 donor
1 8 cation
1 8 donor
1 9 donor
3 2 4 35 anion
3 3 5 38 anion
5 10 34 37 39 40 rings
5 7 11 12 13 14 rings
5 8 15 16 20 24 rings
5 9 19 21 22 26 rings

> <PUBCHEM_HEAVY_ATOM_COUNT>
43

> <PUBCHEM_ATOM_DEF_STEREO_COUNT>
1

> <PUBCHEM_ATOM_UDEF_STEREO_COUNT>
0

> <PUBCHEM_BOND_DEF_STEREO_COUNT>
4

> <PUBCHEM_BOND_UDEF_STEREO_COUNT>
0

> <PUBCHEM_ISOTOPIC_ATOM_COUNT>
0

> <PUBCHEM_COMPONENT_COUNT>
1

> <PUBCHEM_CACTVS_TAUTO_COUNT>
84

> <PUBCHEM_CONFORMER_ID>
0050946100000001

> <PUBCHEM_MMFF94_ENERGY>
104.9066

> <PUBCHEM_FEATURE_SELFOVERLAP>
106.726

> <PUBCHEM_SHAPE_FINGERPRINT>
10190206 1 18342452677976425894
10815517 723 18334004012863130804
11421498 54 18341052998873056906
11607047 403 16737229262212170768
12156800 1 18190201133824937914
12633046 712 18053377695794390831
12788726 201 18412270557489780395
14028597 1 18059866082004283026
15276724 80 18260544503483672364
15420108 30 18052257594515052280
15444296 9 17823398534990331614
15927050 60 17977379765952222934
15975801 100 18264488549637742498
19311894 1 18265889168654504219
21133410 62 18201718402415033539
21792965 11 17203315724692470435
24893992 56 18340484466533087435
4461854 278 17110439148486635641
6086070 43 18198919010760725351

> <PUBCHEM_SHAPE_MULTIPOLES>
829.78
13.8
8.23
2.5
7.76
15.66
0.31
-9.94
-6.27
-6.16
1.39
-0.82
-2.5
-3.41

> <PUBCHEM_SHAPE_SELFOVERLAP>
1791.538

> <PUBCHEM_SHAPE_VOLUME>
460.4

> <PUBCHEM_COORDINATE_TYPE>
2
5
10

$$$$

