440250
  -OEChem-07051212493D

 42 43  0     1  0  0  0  0  0999 V2000
   -3.0240    0.9254    0.9006 P   0  0  2  0  0  0  0  0  0  0  0  0
   -3.7372   -1.4517   -0.6790 P   0  0  0  0  0  0  0  0  0  0  0  0
    1.2020    1.7885    0.9530 O   0  0  0  0  0  0  0  0  0  0  0  0
    2.0638    4.2761   -0.6095 O   0  0  0  0  0  0  0  0  0  0  0  0
   -1.5977    1.6801    1.0123 O   0  0  0  0  0  0  0  0  0  0  0  0
    4.7128   -0.0438   -0.0308 O   0  0  0  0  0  0  0  0  0  0  0  0
   -2.7356   -0.3510   -0.0489 O   0  0  0  0  0  0  0  0  0  0  0  0
   -3.9198    1.8911   -0.0386 O   0  0  0  0  0  0  0  0  0  0  0  0
   -3.6573    0.5817    2.2177 O   0  0  0  0  0  0  0  0  0  0  0  0
   -2.7714   -2.3163   -1.6442 O   0  0  0  0  0  0  0  0  0  0  0  0
   -4.6338   -0.5919   -1.7130 O   0  0  0  0  0  0  0  0  0  0  0  0
   -4.5094   -2.2469    0.3319 O   0  0  0  0  0  0  0  0  0  0  0  0
    2.4149   -0.0398    0.1399 N   0  0  0  0  0  0  0  0  0  0  0  0
    3.6819   -2.0616    0.0616 N   0  0  0  0  0  0  0  0  0  0  0  0
    2.6690   -4.1364    0.1525 N   0  0  0  0  0  0  0  0  0  0  0  0
    1.2295    3.1769   -0.9686 C   0  0  2  0  0  0  0  0  0  0  0  0
    0.3994    2.7429    0.2315 C   0  0  1  0  0  0  0  0  0  0  0  0
    2.0821    1.9619   -1.2524 C   0  0  0  0  0  0  0  0  0  0  0  0
    2.3127    1.3902    0.1369 C   0  0  1  0  0  0  0  0  0  0  0  0
   -0.9013    2.0564   -0.1647 C   0  0  0  0  0  0  0  0  0  0  0  0
    1.2510   -0.7669    0.2308 C   0  0  0  0  0  0  0  0  0  0  0  0
    3.6606   -0.6797    0.0523 C   0  0  0  0  0  0  0  0  0  0  0  0
    1.2369   -2.1027    0.2417 C   0  0  0  0  0  0  0  0  0  0  0  0
    2.5790   -2.7616    0.1481 C   0  0  0  0  0  0  0  0  0  0  0  0
   -0.0080   -2.9209    0.3388 C   0  0  0  0  0  0  0  0  0  0  0  0
    0.6217    3.4898   -1.8229 H   0  0  0  0  0  0  0  0  0  0  0  0
    0.1947    3.5719    0.9180 H   0  0  0  0  0  0  0  0  0  0  0  0
    1.5237    1.2583   -1.8818 H   0  0  0  0  0  0  0  0  0  0  0  0
    3.0276    2.1860   -1.7562 H   0  0  0  0  0  0  0  0  0  0  0  0
    3.2133    1.8309    0.5808 H   0  0  0  0  0  0  0  0  0  0  0  0
   -0.7400    1.1793   -0.7954 H   0  0  0  0  0  0  0  0  0  0  0  0
   -1.5254    2.7592   -0.7270 H   0  0  0  0  0  0  0  0  0  0  0  0
    2.6179    4.4847   -1.3809 H   0  0  0  0  0  0  0  0  0  0  0  0
    0.3131   -0.2426    0.3045 H   0  0  0  0  0  0  0  0  0  0  0  0
    0.0430   -3.5999    1.1961 H   0  0  0  0  0  0  0  0  0  0  0  0
   -0.1514   -3.5128   -0.5706 H   0  0  0  0  0  0  0  0  0  0  0  0
   -0.8945   -2.2959    0.4774 H   0  0  0  0  0  0  0  0  0  0  0  0
    1.8548   -4.7380    0.2119 H   0  0  0  0  0  0  0  0  0  0  0  0
    3.5720   -4.5946    0.0902 H   0  0  0  0  0  0  0  0  0  0  0  0
   -4.3424    2.6814    0.3602 H   0  0  0  0  0  0  0  0  0  0  0  0
   -3.1310   -3.1163   -2.0831 H   0  0  0  0  0  0  0  0  0  0  0  0
   -5.3820   -1.0305   -2.1713 H   0  0  0  0  0  0  0  0  0  0  0  0
  1  5  1  0  0  0  0
  1  7  1  0  0  0  0
  1  8  1  0  0  0  0
  1  9  2  0  0  0  0
  2  7  1  0  0  0  0
  2 10  1  0  0  0  0
  2 11  1  0  0  0  0
  2 12  2  0  0  0  0
  3 17  1  0  0  0  0
  3 19  1  0  0  0  0
  4 16  1  0  0  0  0
  4 33  1  0  0  0  0
  5 20  1  0  0  0  0
  6 22  2  0  0  0  0
  8 40  1  0  0  0  0
 10 41  1  0  0  0  0
 11 42  1  0  0  0  0
 13 19  1  0  0  0  0
 13 21  1  0  0  0  0
 13 22  1  0  0  0  0
 14 22  1  0  0  0  0
 14 24  2  0  0  0  0
 15 24  1  0  0  0  0
 15 38  1  0  0  0  0
 15 39  1  0  0  0  0
 16 17  1  0  0  0  0
 16 18  1  0  0  0  0
 16 26  1  0  0  0  0
 17 20  1  0  0  0  0
 17 27  1  0  0  0  0
 18 19  1  0  0  0  0
 18 28  1  0  0  0  0
 18 29  1  0  0  0  0
 19 30  1  0  0  0  0
 20 31  1  0  0  0  0
 20 32  1  0  0  0  0
 21 23  2  0  0  0  0
 21 34  1  0  0  0  0
 23 24  1  0  0  0  0
 23 25  1  0  0  0  0
 25 35  1  0  0  0  0
 25 36  1  0  0  0  0
 25 37  1  0  0  0  0
M  END
> <PUBCHEM_COMPOUND_CID>
440250

> <PUBCHEM_CONFORMER_RMSD>
0.8

> <PUBCHEM_CONFORMER_DIVERSEORDER>
1
232
194
93
158
34
221
64
110
136
161
192
106
95
222
129
112
32
84
146
49
205
63
163
231
79
215
193
138
191
67
109
78
151
143
19
5
76
44
132
51
10
172
182
107
165
124
147
189
77
62
131
82
175
54
216
214
168
217
204
8
208
125
59
181
187
142
167
116
16
149
102
177
97
173
36
213
35
29
22
176
166
170
88
101
130
223
18
39
48
139
234
100
37
212
202
103
83
81
190
233
174
58
99
153
118
197
156
113
21
137
20
128
199
43
155
144
2
30
227
87
209
206
66
65
236
7
220
188
224
91
85
114
90
225
17
134
52
70
4
211
178
184
108
229
135
154
180
117
46
15
38
226
111
72
71
152
74
92
12
73
203
31
157
28
159
195
41
133
45
145
9
164
23
105
55
162
228
104
75
69
198
122
201
94
169
127
123
53
42
183
89
27
230
218
200
61
186
56
210
196
98
86
96
57
120
40
179
121
11
141
3
185
140
160
80
14
6
68
26
219
33
207
171
47
60
126
148
150
235
13
24
115
50
25
119

> <PUBCHEM_MMFF94_PARTIAL_CHARGES>
31
1 1.51
10 -0.77
11 -0.77
12 -0.7
13 -0.47
14 -0.66
15 -0.85
16 0.28
17 0.28
19 0.58
2 1.51
20 0.28
21 -0.04
22 0.84
23 -0.12
24 0.49
25 0.14
3 -0.56
33 0.4
34 0.15
38 0.4
39 0.4
4 -0.68
40 0.5
41 0.5
42 0.5
5 -0.55
6 -0.57
7 -0.54
8 -0.77
9 -0.7

> <PUBCHEM_EFFECTIVE_ROTOR_COUNT>
7

> <PUBCHEM_PHARMACOPHORE_FEATURES>
14
1 10 acceptor
1 11 acceptor
1 12 acceptor
1 14 donor
1 15 donor
1 3 acceptor
1 4 acceptor
1 4 donor
1 6 acceptor
1 8 acceptor
1 9 acceptor
4 2 10 11 12 anion
5 3 16 17 18 19 rings
6 13 14 21 22 23 24 rings

> <PUBCHEM_HEAVY_ATOM_COUNT>
25

> <PUBCHEM_ATOM_DEF_STEREO_COUNT>
3

> <PUBCHEM_ATOM_UDEF_STEREO_COUNT>
0

> <PUBCHEM_BOND_DEF_STEREO_COUNT>
0

> <PUBCHEM_BOND_UDEF_STEREO_COUNT>
0

> <PUBCHEM_ISOTOPIC_ATOM_COUNT>
0

> <PUBCHEM_COMPONENT_COUNT>
1

> <PUBCHEM_CACTVS_TAUTO_COUNT>
3

> <PUBCHEM_CONFORMER_ID>
0006B7BA00000001

> <PUBCHEM_MMFF94_ENERGY>
7.3927

> <PUBCHEM_FEATURE_SELFOVERLAP>
71.138

> <PUBCHEM_SHAPE_FINGERPRINT>
12553582 1 18340479079635854162
12596599 1 17895745335078204871
13004483 165 17909834575808163456
138480 1 18411982468268578556
14117953 113 17614849938813999509
14251757 17 17913803706058807309
14787075 74 18113902624639034288
14790565 3 18268701728600161156
15537594 2 18265594632565558666
17492 54 18130498640152636764
20645477 70 18129384808909054609
21634736 98 18335984172985445590
21673915 165 18335142015982629618
238 59 18199181780884907913
338550 245 18411416177294883061
392239 28 18040724679760063488
46194498 28 17775011150551621869
463206 1 18340203106633679377

> <PUBCHEM_SHAPE_MULTIPOLES>
448.55
8.18
5.02
1.2
5.89
0.21
0
-3.71
0.58
-3.13
0.69
1.38
0.21
-1.55

> <PUBCHEM_SHAPE_SELFOVERLAP>
901.552

> <PUBCHEM_SHAPE_VOLUME>
265.7

> <PUBCHEM_COORDINATE_TYPE>
2
5
10

$$$$

