582699
  -OEChem-06241222433D

 39 40  0     1  0  0  0  0  0999 V2000
   -1.2636   -0.6140    0.7027 S   0  0  0  0  0  0  0  0  0  0  0  0
    1.9165   -1.9516   -0.4316 O   0  0  0  0  0  0  0  0  0  0  0  0
    3.0934    1.5936   -0.5121 O   0  0  0  0  0  0  0  0  0  0  0  0
   -1.2843   -0.5637    2.1579 O   0  0  0  0  0  0  0  0  0  0  0  0
   -0.9815   -1.8726    0.0265 O   0  0  0  0  0  0  0  0  0  0  0  0
    1.6738   -1.2561    1.7606 O   0  0  0  0  0  0  0  0  0  0  0  0
    1.8267    2.0839    1.3598 O   0  0  0  0  0  0  0  0  0  0  0  0
   -0.1794    0.5736    0.1252 N   0  0  1  0  0  0  0  0  0  0  0  0
    1.2452    0.2494    0.0017 C   0  0  0  0  0  0  0  0  0  0  0  0
    0.3635    0.3008   -1.2090 C   0  0  0  0  0  0  0  0  0  0  0  0
    1.6318   -1.0581    0.5548 C   0  0  0  0  0  0  0  0  0  0  0  0
    2.0741    1.4087    0.3708 C   0  0  0  0  0  0  0  0  0  0  0  0
   -2.7837    0.0062    0.1083 C   0  0  0  0  0  0  0  0  0  0  0  0
   -3.5343    0.8820    0.8929 C   0  0  0  0  0  0  0  0  0  0  0  0
   -3.2476   -0.3739   -1.1511 C   0  0  0  0  0  0  0  0  0  0  0  0
    2.3039   -3.2552    0.0141 C   0  0  0  0  0  0  0  0  0  0  0  0
    3.9542    2.7022   -0.2325 C   0  0  0  0  0  0  0  0  0  0  0  0
   -4.7484    1.3778    0.4178 C   0  0  0  0  0  0  0  0  0  0  0  0
   -4.4617    0.1220   -1.6262 C   0  0  0  0  0  0  0  0  0  0  0  0
   -5.2121    0.9978   -0.8417 C   0  0  0  0  0  0  0  0  0  0  0  0
    2.5849   -4.1256   -1.1923 C   0  0  0  0  0  0  0  0  0  0  0  0
    5.0286    2.7728   -1.2967 C   0  0  0  0  0  0  0  0  0  0  0  0
    0.0426   -0.6028   -1.7022 H   0  0  0  0  0  0  0  0  0  0  0  0
    0.3754    1.1881   -1.8278 H   0  0  0  0  0  0  0  0  0  0  0  0
   -3.1892    1.1966    1.8738 H   0  0  0  0  0  0  0  0  0  0  0  0
   -2.6776   -1.0504   -1.7815 H   0  0  0  0  0  0  0  0  0  0  0  0
    3.2053   -3.1766    0.6321 H   0  0  0  0  0  0  0  0  0  0  0  0
    1.4939   -3.6943    0.6072 H   0  0  0  0  0  0  0  0  0  0  0  0
    3.3690    3.6285   -0.2350 H   0  0  0  0  0  0  0  0  0  0  0  0
    4.4161    2.5666    0.7518 H   0  0  0  0  0  0  0  0  0  0  0  0
   -5.3322    2.0611    1.0276 H   0  0  0  0  0  0  0  0  0  0  0  0
   -4.8222   -0.1725   -2.6074 H   0  0  0  0  0  0  0  0  0  0  0  0
   -6.1570    1.3846   -1.2119 H   0  0  0  0  0  0  0  0  0  0  0  0
    2.8846   -5.1320   -0.8873 H   0  0  0  0  0  0  0  0  0  0  0  0
    1.6973   -4.1983   -1.8295 H   0  0  0  0  0  0  0  0  0  0  0  0
    3.3810   -3.6897   -1.8048 H   0  0  0  0  0  0  0  0  0  0  0  0
    5.7063    3.6113   -1.1134 H   0  0  0  0  0  0  0  0  0  0  0  0
    5.6108    1.8457   -1.3185 H   0  0  0  0  0  0  0  0  0  0  0  0
    4.5809    2.8902   -2.2890 H   0  0  0  0  0  0  0  0  0  0  0  0
  1  4  2  0  0  0  0
  1  5  2  0  0  0  0
  1  8  1  0  0  0  0
  1 13  1  0  0  0  0
  2 11  1  0  0  0  0
  2 16  1  0  0  0  0
  3 12  1  0  0  0  0
  3 17  1  0  0  0  0
  6 11  2  0  0  0  0
  7 12  2  0  0  0  0
  8  9  1  0  0  0  0
  8 10  1  0  0  0  0
  9 10  1  0  0  0  0
  9 11  1  0  0  0  0
  9 12  1  0  0  0  0
 10 23  1  0  0  0  0
 10 24  1  0  0  0  0
 13 14  2  0  0  0  0
 13 15  1  0  0  0  0
 14 18  1  0  0  0  0
 14 25  1  0  0  0  0
 15 19  2  0  0  0  0
 15 26  1  0  0  0  0
 16 21  1  0  0  0  0
 16 27  1  0  0  0  0
 16 28  1  0  0  0  0
 17 22  1  0  0  0  0
 17 29  1  0  0  0  0
 17 30  1  0  0  0  0
 18 20  2  0  0  0  0
 18 31  1  0  0  0  0
 19 20  1  0  0  0  0
 19 32  1  0  0  0  0
 20 33  1  0  0  0  0
 21 34  1  0  0  0  0
 21 35  1  0  0  0  0
 21 36  1  0  0  0  0
 22 37  1  0  0  0  0
 22 38  1  0  0  0  0
 22 39  1  0  0  0  0
M  END
> <PUBCHEM_COMPOUND_CID>
582699

> <PUBCHEM_CONFORMER_RMSD>
0.8

> <PUBCHEM_CONFORMER_DIVERSEORDER>
1
44
56
3
50
24
30
39
45
10
23
46
29
21
31
25
55
49
36
42
8
32
27
18
34
28
22
7
26
33
41
54
11
48
51
6
43
38
35
17
52
12
19
53
47
16
40
5
37
57
14
15
20
9
2
13
4

> <PUBCHEM_MMFF94_PARTIAL_CHARGES>
27
1 1.45
10 0.03
11 0.72
12 0.72
13 -0.01
14 -0.15
15 -0.15
16 0.28
17 0.28
18 -0.15
19 -0.15
2 -0.43
20 -0.15
23 0.1
24 0.1
25 0.15
26 0.15
3 -0.43
31 0.15
32 0.15
33 0.15
4 -0.65
5 -0.65
6 -0.57
7 -0.57
8 -0.6
9 0.23

> <PUBCHEM_EFFECTIVE_ROTOR_COUNT>
8.6

> <PUBCHEM_PHARMACOPHORE_FEATURES>
5
1 4 acceptor
1 5 acceptor
1 6 acceptor
1 7 acceptor
6 13 14 15 18 19 20 rings

> <PUBCHEM_HEAVY_ATOM_COUNT>
22

> <PUBCHEM_ATOM_DEF_STEREO_COUNT>
0

> <PUBCHEM_ATOM_UDEF_STEREO_COUNT>
0

> <PUBCHEM_BOND_DEF_STEREO_COUNT>
0

> <PUBCHEM_BOND_UDEF_STEREO_COUNT>
0

> <PUBCHEM_ISOTOPIC_ATOM_COUNT>
0

> <PUBCHEM_COMPONENT_COUNT>
1

> <PUBCHEM_CACTVS_TAUTO_COUNT>
1

> <PUBCHEM_CONFORMER_ID>
0008E42B00000001

> <PUBCHEM_MMFF94_ENERGY>
37.4682

> <PUBCHEM_FEATURE_SELFOVERLAP>
25.39

> <PUBCHEM_SHAPE_FINGERPRINT>
10382601 240 17846787303655948688
105312 117 18127117573251699524
10759866 29 18187090529235357351
12892183 10 14548475634316304333
13009979 54 17387687443217306267
13464514 151 18409722946098569824
13533116 47 18261682545299840887
14508225 48 17832982024984651982
15163728 17 18057022654350170596
15842332 3 17604698006051920475
167882 2 18410852179227153390
16945 1 18056768843347386403
17492 89 18261120686131684031
17539 30 17185031108205277006
17818456 19 17244139654839142177
17980427 26 17845393161598640051
1813 80 17973446799516414734
18186145 218 17917429891101623435
18335252 98 18341331094912804415
18915476 22 18339626889273287795
19784866 170 17418097581115252340
20645477 70 18341337781390952671
21069387 34 17969508284973902903
22182313 1 17845351328653886419
22393880 68 17676777461537233837
2255824 54 18335987583232183175
23419403 2 17697551707415579162
23559900 14 18260840335718687578
3057174 1 18264476313845927414
46194498 28 18269564986597285607
474 4 18201162053246448133
495365 180 18409738343698575536
633830 44 18200317753223256425
7364860 26 18408604798823883314
7615 1 17822293543543552105
8272917 22 18409731789457071534
9841814 1 18057895842660401050
9971528 1 18044106867093842747
9981440 41 17974309641550577601

> <PUBCHEM_SHAPE_MULTIPOLES>
416.4
9.46
3.65
1.5
6.34
2.85
0.2
-6.73
-3.56
-7.36
-1.07
0.35
0.08
-0.4

> <PUBCHEM_SHAPE_SELFOVERLAP>
853.099

> <PUBCHEM_SHAPE_VOLUME>
241.7

> <PUBCHEM_COORDINATE_TYPE>
2
5
10

$$$$

