8557
  -OEChem-06261202543D

 28 30  0     0  0  0  0  0  0999 V2000
   -0.3576   -2.6482    0.0005 O   0  0  0  0  0  0  0  0  0  0  0  0
    0.3570    2.6484   -0.0015 O   0  0  0  0  0  0  0  0  0  0  0  0
   -5.0594   -0.7299    0.0008 N   0  0  0  0  0  0  0  0  0  0  0  0
    5.0595    0.7297    0.0018 N   0  0  0  0  0  0  0  0  0  0  0  0
   -1.3550   -0.5215   -0.0005 C   0  0  0  0  0  0  0  0  0  0  0  0
    1.3551    0.5215   -0.0003 C   0  0  0  0  0  0  0  0  0  0  0  0
   -1.1680    0.8624   -0.0003 C   0  0  0  0  0  0  0  0  0  0  0  0
    1.1681   -0.8624   -0.0008 C   0  0  0  0  0  0  0  0  0  0  0  0
   -0.1939   -1.4344   -0.0006 C   0  0  0  0  0  0  0  0  0  0  0  0
    0.1939    1.4345   -0.0004 C   0  0  0  0  0  0  0  0  0  0  0  0
   -2.6511   -1.0508   -0.0002 C   0  0  0  0  0  0  0  0  0  0  0  0
    2.6512    1.0509    0.0005 C   0  0  0  0  0  0  0  0  0  0  0  0
   -2.2771    1.7169    0.0002 C   0  0  0  0  0  0  0  0  0  0  0  0
    2.2772   -1.7169   -0.0009 C   0  0  0  0  0  0  0  0  0  0  0  0
   -3.7535   -0.1958    0.0006 C   0  0  0  0  0  0  0  0  0  0  0  0
    3.7536    0.1957    0.0005 C   0  0  0  0  0  0  0  0  0  0  0  0
   -3.5669    1.1851    0.0008 C   0  0  0  0  0  0  0  0  0  0  0  0
    3.5670   -1.1852   -0.0001 C   0  0  0  0  0  0  0  0  0  0  0  0
   -2.8102   -2.1268   -0.0004 H   0  0  0  0  0  0  0  0  0  0  0  0
    2.8104    2.1268    0.0011 H   0  0  0  0  0  0  0  0  0  0  0  0
   -2.1582    2.7970    0.0004 H   0  0  0  0  0  0  0  0  0  0  0  0
    2.1582   -2.7970   -0.0013 H   0  0  0  0  0  0  0  0  0  0  0  0
   -4.4194    1.8598    0.0013 H   0  0  0  0  0  0  0  0  0  0  0  0
    4.4194   -1.8598    0.0000 H   0  0  0  0  0  0  0  0  0  0  0  0
   -5.1967   -1.7318    0.0012 H   0  0  0  0  0  0  0  0  0  0  0  0
   -5.8592   -0.1111    0.0019 H   0  0  0  0  0  0  0  0  0  0  0  0
    5.8593    0.1108    0.0012 H   0  0  0  0  0  0  0  0  0  0  0  0
    5.1968    1.7317    0.0017 H   0  0  0  0  0  0  0  0  0  0  0  0
  1  9  2  0  0  0  0
  2 10  2  0  0  0  0
  3 15  1  0  0  0  0
  3 25  1  0  0  0  0
  3 26  1  0  0  0  0
  4 16  1  0  0  0  0
  4 27  1  0  0  0  0
  4 28  1  0  0  0  0
  5  7  2  0  0  0  0
  5  9  1  0  0  0  0
  5 11  1  0  0  0  0
  6  8  2  0  0  0  0
  6 10  1  0  0  0  0
  6 12  1  0  0  0  0
  7 10  1  0  0  0  0
  7 13  1  0  0  0  0
  8  9  1  0  0  0  0
  8 14  1  0  0  0  0
 11 15  2  0  0  0  0
 11 19  1  0  0  0  0
 12 16  2  0  0  0  0
 12 20  1  0  0  0  0
 13 17  2  0  0  0  0
 13 21  1  0  0  0  0
 14 18  2  0  0  0  0
 14 22  1  0  0  0  0
 15 17  1  0  0  0  0
 16 18  1  0  0  0  0
 17 23  1  0  0  0  0
 18 24  1  0  0  0  0
M  END
> <PUBCHEM_COMPOUND_CID>
8557

> <PUBCHEM_CONFORMER_RMSD>
0.4

> <PUBCHEM_CONFORMER_DIVERSEORDER>
1

> <PUBCHEM_MMFF94_PARTIAL_CHARGES>
28
1 -0.57
10 0.4
11 -0.15
12 -0.15
13 -0.15
14 -0.15
15 0.1
16 0.1
17 -0.15
18 -0.15
19 0.15
2 -0.57
20 0.15
21 0.15
22 0.15
23 0.15
24 0.15
25 0.4
26 0.4
27 0.4
28 0.4
3 -0.9
4 -0.9
5 0.09
6 0.09
7 0.09
8 0.09
9 0.4

> <PUBCHEM_EFFECTIVE_ROTOR_COUNT>
0

> <PUBCHEM_PHARMACOPHORE_FEATURES>
9
1 1 acceptor
1 2 acceptor
1 3 cation
1 3 donor
1 4 cation
1 4 donor
6 5 6 7 8 9 10 rings
6 5 7 11 13 15 17 rings
6 6 8 12 14 16 18 rings

> <PUBCHEM_HEAVY_ATOM_COUNT>
18

> <PUBCHEM_ATOM_DEF_STEREO_COUNT>
0

> <PUBCHEM_ATOM_UDEF_STEREO_COUNT>
0

> <PUBCHEM_BOND_DEF_STEREO_COUNT>
0

> <PUBCHEM_BOND_UDEF_STEREO_COUNT>
0

> <PUBCHEM_ISOTOPIC_ATOM_COUNT>
0

> <PUBCHEM_COMPONENT_COUNT>
1

> <PUBCHEM_CACTVS_TAUTO_COUNT>
15

> <PUBCHEM_CONFORMER_ID>
0000216D00000001

> <PUBCHEM_MMFF94_ENERGY>
73.6431

> <PUBCHEM_FEATURE_SELFOVERLAP>
45.711

> <PUBCHEM_SHAPE_FINGERPRINT>
10411042 1 15384155444672484961
10608611 8 18339082691183938764
10967382 1 18410856551060443462
11132069 177 18410296942612710032
11471102 20 18411422812465350622
11680986 33 18123470475432732801
11806522 49 18410857642435797919
12011746 2 18410855447243260214
12032990 46 18410007779681475735
12403814 3 17560806523825548452
13140716 1 17978509736986804609
13221675 6 18410856551065828654
13380535 76 18410291402353162246
13862211 1 18410862044318697571
14790565 3 18410565167610810700
15196674 1 18410574032396091397
15230672 131 13154612026978416083
15442244 35 18050568735811704778
15536298 74 18334575784795571846
16945 1 18266740177563025414
18186145 218 18338231695101264332
18522853 276 18409166610526497209
193761 8 17906453220985667591
19591789 44 18338517546470853511
200 152 18186810179872205333
20028762 73 18042966468016427247
20510252 161 18261110819884436048
21029758 11 18335143076871505537
21029758 27 18200868496220570909
21267235 1 18410566297265824150
221490 88 18197494013831467875
2334 1 18410575101842948103
23402539 116 18334021579068472398
23402655 69 18335145331723821005
23463225 33 18340768233987690212
23559900 14 18047759475329482342
2748010 2 18410575131907719311
2871803 45 18341899623163495535
335352 9 18410855434358358453
34934 24 18410863161062799174
350125 39 18410852145062866417
43471831 8 18270121343370205842
474 4 17274250631512275180
5104073 3 18338517546459726802
537710 114 18411695478638379372
53812653 166 18334861606136774416
69090 78 18334860502071872255
7364860 26 18263927635446688504
8809292 202 18201433636971284275
9709674 26 18409724080017694558

> <PUBCHEM_SHAPE_MULTIPOLES>
348.73
7.89
2.24
0.6
0
0
0
0
0
0
0
0
0
0

> <PUBCHEM_SHAPE_SELFOVERLAP>
789.106

> <PUBCHEM_SHAPE_VOLUME>
181.4

> <PUBCHEM_COORDINATE_TYPE>
2
5
10

$$$$

