25265910
  -OEChem-07051212552D

 41 40  0     1  0  0  0  0  0999 V2000
   14.6613    1.5950    0.0000 O   0  0  0  0  0  0  0  0  0  0  0  0
    2.5369   -1.4050    0.0000 O   0  0  0  0  0  0  0  0  0  0  0  0
   15.5273    0.0950    0.0000 C   0  0  0  0  0  0  0  0  0  0  0  0
   14.6613    0.5950    0.0000 C   0  0  2  0  0  0  0  0  0  0  0  0
   16.3933    0.5950    0.0000 C   0  0  0  0  0  0  0  0  0  0  0  0
   17.2594    0.0950    0.0000 C   0  0  0  0  0  0  0  0  0  0  0  0
   13.7953    0.0950    0.0000 C   0  0  0  0  0  0  0  0  0  0  0  0
   12.9292    0.5950    0.0000 C   0  0  0  0  0  0  0  0  0  0  0  0
    4.2690   -1.4050    0.0000 C   0  0  0  0  0  0  0  0  0  0  0  0
    5.1350   -1.9050    0.0000 C   0  0  0  0  0  0  0  0  0  0  0  0
    3.4030   -1.9050    0.0000 C   0  0  0  0  0  0  0  0  0  0  0  0
   12.0632    0.0950    0.0000 C   0  0  0  0  0  0  0  0  0  0  0  0
   11.1972    0.5950    0.0000 C   0  0  0  0  0  0  0  0  0  0  0  0
    6.0010   -1.4050    0.0000 C   0  0  0  0  0  0  0  0  0  0  0  0
   10.3312    0.0950    0.0000 C   0  0  0  0  0  0  0  0  0  0  0  0
    9.4651    0.5950    0.0000 C   0  0  0  0  0  0  0  0  0  0  0  0
    6.8671   -0.9050    0.0000 C   0  0  0  0  0  0  0  0  0  0  0  0
    8.5991    0.0950    0.0000 C   0  0  0  0  0  0  0  0  0  0  0  0
    7.7331   -0.4050    0.0000 C   0  0  0  0  0  0  0  0  0  0  0  0
   15.1288   -0.3799    0.0000 H   0  0  0  0  0  0  0  0  0  0  0  0
   15.9258   -0.3799    0.0000 H   0  0  0  0  0  0  0  0  0  0  0  0
   14.1244    0.9050    0.0000 H   0  0  0  0  0  0  0  0  0  0  0  0
   16.7919    1.0700    0.0000 H   0  0  0  0  0  0  0  0  0  0  0  0
   15.9948    1.0700    0.0000 H   0  0  0  0  0  0  0  0  0  0  0  0
   16.9494   -0.4419    0.0000 H   0  0  0  0  0  0  0  0  0  0  0  0
   17.7963   -0.2150    0.0000 H   0  0  0  0  0  0  0  0  0  0  0  0
   17.5694    0.6319    0.0000 H   0  0  0  0  0  0  0  0  0  0  0  0
   13.7953   -0.5250    0.0000 H   0  0  0  0  0  0  0  0  0  0  0  0
   15.1982    1.9050    0.0000 H   0  0  0  0  0  0  0  0  0  0  0  0
   12.9292    1.2150    0.0000 H   0  0  0  0  0  0  0  0  0  0  0  0
    4.6675   -0.9301    0.0000 H   0  0  0  0  0  0  0  0  0  0  0  0
    3.8705   -0.9301    0.0000 H   0  0  0  0  0  0  0  0  0  0  0  0
    4.7365   -2.3800    0.0000 H   0  0  0  0  0  0  0  0  0  0  0  0
    5.5335   -2.3800    0.0000 H   0  0  0  0  0  0  0  0  0  0  0  0
    3.0044   -2.3800    0.0000 H   0  0  0  0  0  0  0  0  0  0  0  0
    3.8015   -2.3800    0.0000 H   0  0  0  0  0  0  0  0  0  0  0  0
   12.0632   -0.5250    0.0000 H   0  0  0  0  0  0  0  0  0  0  0  0
   11.1972    1.2150    0.0000 H   0  0  0  0  0  0  0  0  0  0  0  0
    2.0000   -1.7150    0.0000 H   0  0  0  0  0  0  0  0  0  0  0  0
   10.3312   -0.5250    0.0000 H   0  0  0  0  0  0  0  0  0  0  0  0
    9.4651    1.2150    0.0000 H   0  0  0  0  0  0  0  0  0  0  0  0
  4  1  1  6  0  0  0
  1 29  1  0  0  0  0
  2 11  1  0  0  0  0
  2 39  1  0  0  0  0
  3  4  1  0  0  0  0
  3  5  1  0  0  0  0
  3 20  1  0  0  0  0
  3 21  1  0  0  0  0
  4  7  1  0  0  0  0
  4 22  1  0  0  0  0
  5  6  1  0  0  0  0
  5 23  1  0  0  0  0
  5 24  1  0  0  0  0
  6 25  1  0  0  0  0
  6 26  1  0  0  0  0
  6 27  1  0  0  0  0
  7  8  2  0  0  0  0
  7 28  1  0  0  0  0
  8 12  1  0  0  0  0
  8 30  1  0  0  0  0
  9 10  1  0  0  0  0
  9 11  1  0  0  0  0
  9 31  1  0  0  0  0
  9 32  1  0  0  0  0
 10 14  1  0  0  0  0
 10 33  1  0  0  0  0
 10 34  1  0  0  0  0
 11 35  1  0  0  0  0
 11 36  1  0  0  0  0
 12 13  2  0  0  0  0
 12 37  1  0  0  0  0
 13 15  1  0  0  0  0
 13 38  1  0  0  0  0
 14 17  3  0  0  0  0
 15 16  2  0  0  0  0
 15 40  1  0  0  0  0
 16 18  1  0  0  0  0
 16 41  1  0  0  0  0
 17 19  1  0  0  0  0
 18 19  3  0  0  0  0
M  END
> <PUBCHEM_COMPOUND_CID>
25265910

> <PUBCHEM_COMPOUND_CANONICALIZED>
1

> <PUBCHEM_CACTVS_COMPLEXITY>
429

> <PUBCHEM_CACTVS_HBOND_ACCEPTOR>
2

> <PUBCHEM_CACTVS_HBOND_DONOR>
2

> <PUBCHEM_CACTVS_ROTATABLE_BOND>
8

> <PUBCHEM_CACTVS_SUBSKEYS>
AAADceB4MAAAAAAAAAAAAAAAAAAAAAAAAAAAAAAAAAAAAAAAAAAAGgAACAAACBSggAICAAAAAgDAECBCAAgAAAAgAAAICAAAAAgIFAIAAQAAUAAEgAAIkAIAAAAAAAAAAAAAAAAAAAAAAAAAAAAAAAAAAA==

> <PUBCHEM_IUPAC_OPENEYE_NAME>
(8E,10E,12E,14R)-heptadeca-8,10,12-trien-4,6-diyne-1,14-diol

> <PUBCHEM_IUPAC_CAS_NAME>
(8E,10E,12E,14R)-heptadeca-8,10,12-trien-4,6-diyne-1,14-diol

> <PUBCHEM_IUPAC_NAME>
(8E,10E,12E,14R)-heptadeca-8,10,12-trien-4,6-diyne-1,14-diol

> <PUBCHEM_IUPAC_SYSTEMATIC_NAME>
(8E,10E,12E,14R)-heptadeca-8,10,12-trien-4,6-diyne-1,14-diol

> <PUBCHEM_IUPAC_TRADITIONAL_NAME>
(8E,10E,12E,14R)-heptadeca-8,10,12-trien-4,6-diyne-1,14-diol

> <PUBCHEM_IUPAC_INCHI>
InChI=1S/C17H22O2/c1-2-14-17(19)15-12-10-8-6-4-3-5-7-9-11-13-16-18/h4,6,8,10,12,15,17-19H,2,11,13-14,16H2,1H3/b6-4+,10-8+,15-12+/t17-/m1/s1

> <PUBCHEM_IUPAC_INCHIKEY>
FQVNSJQTSOVRKZ-JNRDBWBESA-N

> <PUBCHEM_XLOGP3_AA>
3.3

> <PUBCHEM_EXACT_MASS>
258.16198

> <PUBCHEM_MOLECULAR_FORMULA>
C17H22O2

> <PUBCHEM_MOLECULAR_WEIGHT>
258.35538

> <PUBCHEM_OPENEYE_CAN_SMILES>
CCCC(C=CC=CC=CC#CC#CCCCO)O

> <PUBCHEM_OPENEYE_ISO_SMILES>
CCC[C@H](/C=C/C=C/C=C/C#CC#CCCCO)O

> <PUBCHEM_CACTVS_TPSA>
40.5

> <PUBCHEM_MONOISOTOPIC_WEIGHT>
258.16198

> <PUBCHEM_TOTAL_CHARGE>
0

> <PUBCHEM_HEAVY_ATOM_COUNT>
19

> <PUBCHEM_ATOM_DEF_STEREO_COUNT>
1

> <PUBCHEM_ATOM_UDEF_STEREO_COUNT>
0

> <PUBCHEM_BOND_DEF_STEREO_COUNT>
3

> <PUBCHEM_BOND_UDEF_STEREO_COUNT>
0

> <PUBCHEM_ISOTOPIC_ATOM_COUNT>
0

> <PUBCHEM_COMPONENT_COUNT>
1

> <PUBCHEM_CACTVS_TAUTO_COUNT>
1

> <PUBCHEM_COORDINATE_TYPE>
1
5
255

> <PUBCHEM_BONDANNOTATIONS>
4  1  6

$$$$

