25010767
  -OEChem-07051213103D

 35 34  0     1  0  0  0  0  0999 V2000
   -4.5040   -1.5641   -0.4059 S   0  0  0  0  0  0  0  0  0  0  0  0
    3.2198   -1.7081    1.1244 O   0  0  0  0  0  0  0  0  0  0  0  0
    4.3935   -1.6039   -0.8147 O   0  0  0  0  0  0  0  0  0  0  0  0
    4.7986    1.0824   -0.3993 N   0  0  0  0  0  0  0  0  0  0  0  0
   -0.1669    1.1215   -0.4011 C   0  0  0  0  0  0  0  0  0  0  0  0
   -1.4284    0.8020    0.4038 C   0  0  0  0  0  0  0  0  0  0  0  0
    1.0940    0.6849    0.3493 C   0  0  0  0  0  0  0  0  0  0  0  0
   -2.7210    1.2467   -0.2875 C   0  0  0  0  0  0  0  0  0  0  0  0
    2.3562    0.9633   -0.4762 C   0  0  0  0  0  0  0  0  0  0  0  0
   -4.0131    1.0320    0.5113 C   0  0  0  0  0  0  0  0  0  0  0  0
    3.6293    0.4654    0.2225 C   0  0  1  0  0  0  0  0  0  0  0  0
   -4.2925   -0.3990    0.9718 C   0  0  0  0  0  0  0  0  0  0  0  0
    3.8100   -1.0373    0.1001 C   0  0  0  0  0  0  0  0  0  0  0  0
   -6.1757   -1.0858   -0.8985 C   0  0  0  0  0  0  0  0  0  0  0  0
   -0.2164    0.6130   -1.3715 H   0  0  0  0  0  0  0  0  0  0  0  0
   -0.1208    2.1986   -0.6014 H   0  0  0  0  0  0  0  0  0  0  0  0
   -1.4621   -0.2783    0.5855 H   0  0  0  0  0  0  0  0  0  0  0  0
   -1.3648    1.2885    1.3850 H   0  0  0  0  0  0  0  0  0  0  0  0
    1.1572    1.2120    1.3088 H   0  0  0  0  0  0  0  0  0  0  0  0
    1.0206   -0.3855    0.5707 H   0  0  0  0  0  0  0  0  0  0  0  0
   -2.6440    2.3184   -0.5125 H   0  0  0  0  0  0  0  0  0  0  0  0
   -2.7995    0.7436   -1.2586 H   0  0  0  0  0  0  0  0  0  0  0  0
    2.4186    2.0468   -0.6433 H   0  0  0  0  0  0  0  0  0  0  0  0
    2.2609    0.4918   -1.4631 H   0  0  0  0  0  0  0  0  0  0  0  0
   -4.8585    1.4160   -0.0716 H   0  0  0  0  0  0  0  0  0  0  0  0
   -3.9618    1.6636    1.4078 H   0  0  0  0  0  0  0  0  0  0  0  0
    3.6287    0.7416    1.2831 H   0  0  0  0  0  0  0  0  0  0  0  0
   -3.4716   -0.7623    1.5977 H   0  0  0  0  0  0  0  0  0  0  0  0
   -5.1900   -0.4216    1.5992 H   0  0  0  0  0  0  0  0  0  0  0  0
    4.7309    2.0971   -0.3284 H   0  0  0  0  0  0  0  0  0  0  0  0
    5.6393    0.8200    0.1147 H   0  0  0  0  0  0  0  0  0  0  0  0
   -6.5180   -1.7576   -1.6905 H   0  0  0  0  0  0  0  0  0  0  0  0
   -6.1909   -0.0657   -1.2892 H   0  0  0  0  0  0  0  0  0  0  0  0
   -6.8664   -1.1707   -0.0554 H   0  0  0  0  0  0  0  0  0  0  0  0
    3.3274   -2.6791    1.0353 H   0  0  0  0  0  0  0  0  0  0  0  0
  1 12  1  0  0  0  0
  1 14  1  0  0  0  0
  2 13  1  0  0  0  0
  2 35  1  0  0  0  0
  3 13  2  0  0  0  0
  4 11  1  0  0  0  0
  4 30  1  0  0  0  0
  4 31  1  0  0  0  0
  5  6  1  0  0  0  0
  5  7  1  0  0  0  0
  5 15  1  0  0  0  0
  5 16  1  0  0  0  0
  6  8  1  0  0  0  0
  6 17  1  0  0  0  0
  6 18  1  0  0  0  0
  7  9  1  0  0  0  0
  7 19  1  0  0  0  0
  7 20  1  0  0  0  0
  8 10  1  0  0  0  0
  8 21  1  0  0  0  0
  8 22  1  0  0  0  0
  9 11  1  0  0  0  0
  9 23  1  0  0  0  0
  9 24  1  0  0  0  0
 10 12  1  0  0  0  0
 10 25  1  0  0  0  0
 10 26  1  0  0  0  0
 11 13  1  0  0  0  0
 11 27  1  0  0  0  0
 12 28  1  0  0  0  0
 12 29  1  0  0  0  0
 14 32  1  0  0  0  0
 14 33  1  0  0  0  0
 14 34  1  0  0  0  0
M  END
> <PUBCHEM_COMPOUND_CID>
25010767

> <PUBCHEM_CONFORMER_RMSD>
1.2

> <PUBCHEM_CONFORMER_DIVERSEORDER>
1
12
4
16
22
37
14
36
10
15
38
44
19
13
9
2
33
28
26
6
23
40
42
7
24
21
32
25
30
5
3
34
17
45
11
41
20
46
39
31
18
27
43
8
29
35

> <PUBCHEM_MMFF94_PARTIAL_CHARGES>
11
1 -0.46
11 0.33
12 0.23
13 0.66
14 0.23
2 -0.65
3 -0.57
30 0.36
31 0.36
35 0.5
4 -0.99

> <PUBCHEM_EFFECTIVE_ROTOR_COUNT>
9

> <PUBCHEM_PHARMACOPHORE_FEATURES>
6
1 14 hydrophobe
1 2 acceptor
1 3 acceptor
1 4 cation
1 4 donor
3 2 3 13 anion

> <PUBCHEM_HEAVY_ATOM_COUNT>
14

> <PUBCHEM_ATOM_DEF_STEREO_COUNT>
0

> <PUBCHEM_ATOM_UDEF_STEREO_COUNT>
1

> <PUBCHEM_BOND_DEF_STEREO_COUNT>
0

> <PUBCHEM_BOND_UDEF_STEREO_COUNT>
0

> <PUBCHEM_ISOTOPIC_ATOM_COUNT>
0

> <PUBCHEM_COMPONENT_COUNT>
1

> <PUBCHEM_CACTVS_TAUTO_COUNT>
1

> <PUBCHEM_CONFORMER_ID>
017DA24F00000001

> <PUBCHEM_MMFF94_ENERGY>
8.6692

> <PUBCHEM_FEATURE_SELFOVERLAP>
30.504

> <PUBCHEM_SHAPE_FINGERPRINT>
100836 57 11240007767474729117
10912923 1 18333725827694667225
11159736 12 18412550928775856099
11987891 38 18411978070179876009
12596602 18 17240482494117510067
13167823 11 18409446990244245369
13551218 46 18187361043698472311
14123238 8 18335699420922463469
14123255 352 9295300426161821067
14123260 362 11383840398157784879
1420 369 18408322181449149495
14251740 57 17240754129461562366
15501527 16 9943809989173583415
15880784 105 18186796989241708002
17834072 33 18411133615375091332
17834074 16 18201432567033596315
17857418 61 18410580574037653539
17959699 21 10159704598840067407
200 152 18410578362540972189
20281389 69 9007066755675332167
20281475 54 18408603686111095936
20621476 91 16878526543830772391
20645477 70 18411979200289024798
212847 35 10447929468790808662
21673915 165 18409167684136816183
22485316 2 18413107281554223425
22646028 1 18409730664333992825
23402539 116 17846500335564025877
23559900 14 18199470948523124689
23590187 173 10952043438492344782
23596394 208 16845304868384525571
2871803 45 18060423520775853651
351380 3 18333450920023443903
4259306 186 18343867706148756927
49783359 22 18040714766790602229
573450 72 18259983812334850009

> <PUBCHEM_SHAPE_MULTIPOLES>
275.24
13.92
1.81
0.94
5.11
0.57
0.08
5.96
-1.74
-0.16
-0.09
0.31
0.18
-0.84

> <PUBCHEM_SHAPE_SELFOVERLAP>
492.609

> <PUBCHEM_SHAPE_VOLUME>
178.4

> <PUBCHEM_COORDINATE_TYPE>
2
5
10

$$$$

