440982
  -OEChem-07051212512D

 22 23  0     0  0  0  0  0  0999 V2000
    2.5369   -0.8100    0.0000 O   0  0  0  0  0  0  0  0  0  0  0  0
    4.2690   -1.8100    0.0000 O   0  0  0  0  0  0  0  0  0  0  0  0
    4.2690    1.1900    0.0000 N   0  0  0  0  0  0  0  0  0  0  0  0
    5.1350    0.6900    0.0000 C   0  0  0  0  0  0  0  0  0  0  0  0
    5.1350   -0.3100    0.0000 C   0  0  0  0  0  0  0  0  0  0  0  0
    3.4030    0.6900    0.0000 C   0  0  0  0  0  0  0  0  0  0  0  0
    4.2690   -0.8100    0.0000 C   0  0  0  0  0  0  0  0  0  0  0  0
    3.4030   -0.3100    0.0000 C   0  0  0  0  0  0  0  0  0  0  0  0
    6.0290    1.2247    0.0000 C   0  0  0  0  0  0  0  0  0  0  0  0
    6.0290   -0.8447    0.0000 C   0  0  0  0  0  0  0  0  0  0  0  0
    2.5369    1.1900    0.0000 C   0  0  0  0  0  0  0  0  0  0  0  0
    6.9350    0.7108    0.0000 C   0  0  0  0  0  0  0  0  0  0  0  0
    6.9350   -0.3308    0.0000 C   0  0  0  0  0  0  0  0  0  0  0  0
    4.2690    1.8100    0.0000 H   0  0  0  0  0  0  0  0  0  0  0  0
    6.0218    1.8446    0.0000 H   0  0  0  0  0  0  0  0  0  0  0  0
    6.0218   -1.4646    0.0000 H   0  0  0  0  0  0  0  0  0  0  0  0
    2.8469    1.7269    0.0000 H   0  0  0  0  0  0  0  0  0  0  0  0
    2.0000    1.5000    0.0000 H   0  0  0  0  0  0  0  0  0  0  0  0
    2.2269    0.6531    0.0000 H   0  0  0  0  0  0  0  0  0  0  0  0
    7.4708    1.0229    0.0000 H   0  0  0  0  0  0  0  0  0  0  0  0
    7.4708   -0.6429    0.0000 H   0  0  0  0  0  0  0  0  0  0  0  0
    2.0000   -0.5000    0.0000 H   0  0  0  0  0  0  0  0  0  0  0  0
  1  8  1  0  0  0  0
  1 22  1  0  0  0  0
  2  7  2  0  0  0  0
  3  4  1  0  0  0  0
  3  6  1  0  0  0  0
  3 14  1  0  0  0  0
  4  5  1  0  0  0  0
  4  9  2  0  0  0  0
  5  7  1  0  0  0  0
  5 10  2  0  0  0  0
  6  8  2  0  0  0  0
  6 11  1  0  0  0  0
  7  8  1  0  0  0  0
  9 12  1  0  0  0  0
  9 15  1  0  0  0  0
 10 13  1  0  0  0  0
 10 16  1  0  0  0  0
 11 17  1  0  0  0  0
 11 18  1  0  0  0  0
 11 19  1  0  0  0  0
 12 13  2  0  0  0  0
 12 20  1  0  0  0  0
 13 21  1  0  0  0  0
M  END
> <PUBCHEM_COMPOUND_CID>
440982

> <PUBCHEM_COMPOUND_CANONICALIZED>
1

> <PUBCHEM_CACTVS_COMPLEXITY>
270

> <PUBCHEM_CACTVS_HBOND_ACCEPTOR>
3

> <PUBCHEM_CACTVS_HBOND_DONOR>
2

> <PUBCHEM_CACTVS_ROTATABLE_BOND>
0

> <PUBCHEM_CACTVS_SUBSKEYS>
AAADccByMAAAAAAAAAAAAAAAAAAAAAAAAAAwQAAAAAAAAACBAAAAHgAQCAAADAyBmAAywILAAgCIAqRSQAKCAAAlIgAIiAFAZMgIIDrAlZGEYYhk0AHIyce4yKCOAAAAAAACAAAAAAAAAAQAAAAAAAAAAA==

> <PUBCHEM_IUPAC_OPENEYE_NAME>
3-hydroxy-2-methyl-1H-quinolin-4-one

> <PUBCHEM_IUPAC_CAS_NAME>
3-hydroxy-2-methyl-1H-quinolin-4-one

> <PUBCHEM_IUPAC_NAME>
3-hydroxy-2-methyl-1H-quinolin-4-one

> <PUBCHEM_IUPAC_SYSTEMATIC_NAME>
2-methyl-3-oxidanyl-1H-quinolin-4-one

> <PUBCHEM_IUPAC_TRADITIONAL_NAME>
3-hydroxy-2-methyl-4-quinolone

> <PUBCHEM_IUPAC_INCHI>
InChI=1S/C10H9NO2/c1-6-9(12)10(13)7-4-2-3-5-8(7)11-6/h2-5,12H,1H3,(H,11,13)

> <PUBCHEM_IUPAC_INCHIKEY>
FSCXZVPPDJYLDD-UHFFFAOYSA-N

> <PUBCHEM_XLOGP3_AA>
1.8

> <PUBCHEM_EXACT_MASS>
175.063329

> <PUBCHEM_MOLECULAR_FORMULA>
C10H9NO2

> <PUBCHEM_MOLECULAR_WEIGHT>
175.18396

> <PUBCHEM_OPENEYE_CAN_SMILES>
CC1=C(C(=O)C2=CC=CC=C2N1)O

> <PUBCHEM_OPENEYE_ISO_SMILES>
CC1=C(C(=O)C2=CC=CC=C2N1)O

> <PUBCHEM_CACTVS_TPSA>
49.3

> <PUBCHEM_MONOISOTOPIC_WEIGHT>
175.063329

> <PUBCHEM_TOTAL_CHARGE>
0

> <PUBCHEM_HEAVY_ATOM_COUNT>
13

> <PUBCHEM_ATOM_DEF_STEREO_COUNT>
0

> <PUBCHEM_ATOM_UDEF_STEREO_COUNT>
0

> <PUBCHEM_BOND_DEF_STEREO_COUNT>
0

> <PUBCHEM_BOND_UDEF_STEREO_COUNT>
0

> <PUBCHEM_ISOTOPIC_ATOM_COUNT>
0

> <PUBCHEM_COMPONENT_COUNT>
1

> <PUBCHEM_CACTVS_TAUTO_COUNT>
48

> <PUBCHEM_COORDINATE_TYPE>
1
5
255

> <PUBCHEM_BONDANNOTATIONS>
10  13  8
12  13  8
3  4  8
3  6  8
4  5  8
4  9  8
5  10  8
5  7  8
6  8  8
7  8  8
9  12  8

$$$$

