6093163
  -OEChem-07051213043D

 46 47  0     0  0  0  0  0  0999 V2000
   -1.7609    0.6801    2.4878 S   0  0  0  0  0  0  0  0  0  0  0  0
   -5.6545    0.5019   -1.2837 S   0  0  0  0  0  0  0  0  0  0  0  0
    0.1726   -2.9713    0.4789 P   0  0  0  0  0  0  0  0  0  0  0  0
    1.2865   -1.7936    0.4677 O   0  0  0  0  0  0  0  0  0  0  0  0
   -1.0438    2.1435    2.6011 O   0  0  0  0  0  0  0  0  0  0  0  0
   -6.1634   -1.0504   -1.2171 O   0  0  0  0  0  0  0  0  0  0  0  0
   -2.9830    0.7410    3.2733 O   0  0  0  0  0  0  0  0  0  0  0  0
   -0.7577   -0.3388    2.7474 O   0  0  0  0  0  0  0  0  0  0  0  0
   -5.7349    0.9444   -2.6672 O   0  0  0  0  0  0  0  0  0  0  0  0
   -6.3556    1.2238   -0.2317 O   0  0  0  0  0  0  0  0  0  0  0  0
    6.0652    0.8015   -0.3074 O   0  0  0  0  0  0  0  0  0  0  0  0
    5.7641   -1.7731   -0.9698 O   0  0  0  0  0  0  0  0  0  0  0  0
    0.2521   -3.5589    1.9833 O   0  0  0  0  0  0  0  0  0  0  0  0
    0.8608   -4.1329   -0.4110 O   0  0  0  0  0  0  0  0  0  0  0  0
   -1.1952   -2.5519    0.0253 O   0  0  0  0  0  0  0  0  0  0  0  0
    0.1225    0.3122    0.1186 N   0  0  0  0  0  0  0  0  0  0  0  0
    0.8578    1.4384    0.1487 N   0  0  0  0  0  0  0  0  0  0  0  0
    2.9205    2.3403   -0.1746 N   0  0  0  0  0  0  0  0  0  0  0  0
   -2.2142    0.5247    0.8036 C   0  0  0  0  0  0  0  0  0  0  0  0
   -1.2454    0.3595   -0.1928 C   0  0  0  0  0  0  0  0  0  0  0  0
   -3.9606    0.4477   -0.8641 C   0  0  0  0  0  0  0  0  0  0  0  0
    2.6381   -0.1033   -0.5310 C   0  0  0  0  0  0  0  0  0  0  0  0
   -3.5676    0.5687    0.4688 C   0  0  0  0  0  0  0  0  0  0  0  0
   -1.6470    0.2390   -1.5275 C   0  0  0  0  0  0  0  0  0  0  0  0
    2.0987    1.2463   -0.1643 C   0  0  0  0  0  0  0  0  0  0  0  0
   -3.0002    0.2829   -1.8622 C   0  0  0  0  0  0  0  0  0  0  0  0
    3.9669   -0.2839   -0.6130 C   0  0  0  0  0  0  0  0  0  0  0  0
    1.5840   -1.1551   -0.7570 C   0  0  0  0  0  0  0  0  0  0  0  0
    4.1996    2.2167   -0.2735 C   0  0  0  0  0  0  0  0  0  0  0  0
    4.8493    0.8772   -0.3874 C   0  0  0  0  0  0  0  0  0  0  0  0
    5.0878    3.4256   -0.2762 C   0  0  0  0  0  0  0  0  0  0  0  0
    4.5575   -1.6019   -0.8929 C   0  0  0  0  0  0  0  0  0  0  0  0
   -4.3242    0.6906    1.2378 H   0  0  0  0  0  0  0  0  0  0  0  0
   -0.9192    0.1267   -2.3263 H   0  0  0  0  0  0  0  0  0  0  0  0
   -3.2824    0.1825   -2.9064 H   0  0  0  0  0  0  0  0  0  0  0  0
    2.0346   -1.9409   -1.3737 H   0  0  0  0  0  0  0  0  0  0  0  0
    0.7630   -0.9266   -1.4392 H   0  0  0  0  0  0  0  0  0  0  0  0
    0.2793   -0.2631    0.9464 H   0  0  0  0  0  0  0  0  0  0  0  0
    5.7495    3.3960    0.5936 H   0  0  0  0  0  0  0  0  0  0  0  0
    4.4885    4.3394   -0.2338 H   0  0  0  0  0  0  0  0  0  0  0  0
    5.6878    3.4384   -1.1901 H   0  0  0  0  0  0  0  0  0  0  0  0
    3.8791   -2.4576   -0.9981 H   0  0  0  0  0  0  0  0  0  0  0  0
   -1.6157    2.9138    2.3728 H   0  0  0  0  0  0  0  0  0  0  0  0
   -6.0917   -1.4811   -0.3330 H   0  0  0  0  0  0  0  0  0  0  0  0
   -0.3924   -4.2449    2.2594 H   0  0  0  0  0  0  0  0  0  0  0  0
    0.3375   -4.9315   -0.6356 H   0  0  0  0  0  0  0  0  0  0  0  0
  1  5  1  0  0  0  0
  1  7  2  0  0  0  0
  1  8  2  0  0  0  0
  1 19  1  0  0  0  0
  2  6  1  0  0  0  0
  2  9  2  0  0  0  0
  2 10  2  0  0  0  0
  2 21  1  0  0  0  0
  3  4  1  0  0  0  0
  3 13  1  0  0  0  0
  3 14  1  0  0  0  0
  3 15  2  0  0  0  0
  4 28  1  0  0  0  0
  5 43  1  0  0  0  0
  6 44  1  0  0  0  0
 11 30  2  0  0  0  0
 12 32  2  0  0  0  0
 13 45  1  0  0  0  0
 14 46  1  0  0  0  0
 16 17  1  0  0  0  0
 16 20  1  0  0  0  0
 16 38  1  0  0  0  0
 17 25  2  0  0  0  0
 18 25  1  0  0  0  0
 18 29  2  0  0  0  0
 19 20  2  0  0  0  0
 19 23  1  0  0  0  0
 20 24  1  0  0  0  0
 21 23  2  0  0  0  0
 21 26  1  0  0  0  0
 22 25  1  0  0  0  0
 22 27  2  0  0  0  0
 22 28  1  0  0  0  0
 23 33  1  0  0  0  0
 24 26  2  0  0  0  0
 24 34  1  0  0  0  0
 26 35  1  0  0  0  0
 27 30  1  0  0  0  0
 27 32  1  0  0  0  0
 28 36  1  0  0  0  0
 28 37  1  0  0  0  0
 29 30  1  0  0  0  0
 29 31  1  0  0  0  0
 31 39  1  0  0  0  0
 31 40  1  0  0  0  0
 31 41  1  0  0  0  0
 32 42  1  0  0  0  0
M  END
> <PUBCHEM_COMPOUND_CID>
6093163

> <PUBCHEM_CONFORMER_RMSD>
1

> <PUBCHEM_CONFORMER_DIVERSEORDER>
1
14
10
6
16
8
11
13
5
12
3
9
17
18
15
2
7
4

> <PUBCHEM_MMFF94_PARTIAL_CHARGES>
41
1 1.49
10 -0.65
11 -0.57
12 -0.57
13 -0.77
14 -0.77
15 -0.7
16 -0.46
17 -0.49
18 -0.66
19 -0.01
2 1.49
20 0.1
21 -0.01
22 -0.12
23 -0.15
24 -0.15
25 0.65
26 -0.15
27 0.03
28 0.42
29 0.39
3 1.51
30 0.56
31 0.06
32 0.5
33 0.15
34 0.15
35 0.15
38 0.4
4 -0.55
42 0.06
43 0.5
44 0.5
45 0.5
46 0.5
5 -0.68
6 -0.68
7 -0.65
8 -0.65
9 -0.65

> <PUBCHEM_EFFECTIVE_ROTOR_COUNT>
8

> <PUBCHEM_PHARMACOPHORE_FEATURES>
20
1 10 acceptor
1 11 acceptor
1 12 acceptor
1 13 acceptor
1 14 acceptor
1 15 acceptor
1 16 donor
1 18 acceptor
1 27 anion
1 5 acceptor
1 6 acceptor
1 7 acceptor
1 8 acceptor
1 9 acceptor
3 17 18 25 cation
4 1 5 7 8 anion
4 2 6 9 10 anion
4 3 13 14 15 anion
6 18 22 25 27 29 30 rings
6 19 20 21 23 24 26 rings

> <PUBCHEM_HEAVY_ATOM_COUNT>
32

> <PUBCHEM_ATOM_DEF_STEREO_COUNT>
0

> <PUBCHEM_ATOM_UDEF_STEREO_COUNT>
0

> <PUBCHEM_BOND_DEF_STEREO_COUNT>
1

> <PUBCHEM_BOND_UDEF_STEREO_COUNT>
0

> <PUBCHEM_ISOTOPIC_ATOM_COUNT>
0

> <PUBCHEM_COMPONENT_COUNT>
1

> <PUBCHEM_CACTVS_TAUTO_COUNT>
5

> <PUBCHEM_CONFORMER_ID>
005CF96B00000001

> <PUBCHEM_MMFF94_ENERGY>
85.8154

> <PUBCHEM_FEATURE_SELFOVERLAP>
101.648

> <PUBCHEM_SHAPE_FINGERPRINT>
10366900 7 17846211223839674236
11135609 187 18335423443778263300
11421498 54 17676488384589429595
12156800 1 17834428655347097235
12166972 35 17967536765577019728
12236239 1 17821728359822209717
12422481 6 17770462432245438323
12592029 89 18272379714589154027
12597179 24 17346597495607648067
12730499 353 18131070467608143431
12788726 201 16732978739216396903
13009979 54 17171524603889891983
13140716 1 18265590153706174322
13533116 47 17967816046384104764
13540713 4 18195795286015798182
13583140 156 17418092075541977576
1361 2 18201162070357408157
13911987 19 18270666607059596892
14040221 97 17836914608609987084
15324884 4 17774137030022289344
15328829 1 17750508667112421363
15420108 30 16960114988026020784
17138139 8 17751100045317751143
17349148 13 18113329830493430396
1813 80 5328744092844460363
20028762 73 18114181999271430902
20511986 3 17749675215265184857
20600515 1 13984669105211742613
21033648 144 18336259043067710028
21033648 29 17917991646885740828
21033650 10 15720209770099753480
22393880 68 18342465845945651063
23559900 14 18261399901153249484
266924 1 17896035619380765569
335352 9 18411135828179690908
3633792 109 18334859441494771940
4258327 124 17842548549024216996
469060 322 17272560621356902010
474 4 18333724715725119292

> <PUBCHEM_SHAPE_MULTIPOLES>
584.72
12.99
3.33
2.24
2.43
2.74
1.82
-5.83
-7.54
-3.9
0.64
3.48
-0.4
0.25

> <PUBCHEM_SHAPE_SELFOVERLAP>
1211.456

> <PUBCHEM_SHAPE_VOLUME>
333.9

> <PUBCHEM_COORDINATE_TYPE>
2
5
10

$$$$

