16723501
  -OEChem-07051213152D

 82 83  0     1  0  0  0  0  0999 V2000
    7.1962    2.5000    0.0000 O   0  0  0  0  0  0  0  0  0  0  0  0
    8.9282    1.5000    0.0000 O   0  0  0  0  0  0  0  0  0  0  0  0
    8.6358    0.1808    0.0000 O   0  0  0  0  0  0  0  0  0  0  0  0
    3.7320   -0.5000    0.0000 O   0  0  0  0  0  0  0  0  0  0  0  0
    2.8660   -4.0000    0.0000 O   0  0  0  0  0  0  0  0  0  0  0  0
    2.8660    4.0000    0.0000 O   0  0  0  0  0  0  0  0  0  0  0  0
    4.5981    1.0000    0.0000 O   0  0  0  0  0  0  0  0  0  0  0  0
    8.0622    2.0000    0.0000 C   0  0  2  0  0  0  0  0  0  0  0  0
    8.0622    1.0000    0.0000 C   0  0  1  0  0  0  0  0  0  0  0  0
    8.9282    2.5000    0.0000 C   0  0  0  0  0  0  0  0  0  0  0  0
    7.1962    3.5000    0.0000 C   0  0  2  0  0  0  0  0  0  0  0  0
    5.4641   -0.5000    0.0000 C   0  0  2  0  0  0  0  0  0  0  0  0
    8.0622    4.0000    0.0000 C   0  0  0  0  0  0  0  0  0  0  0  0
    4.5981   -1.0000    0.0000 C   0  0  1  0  0  0  0  0  0  0  0  0
    8.9282    3.5000    0.0000 C   0  0  0  0  0  0  0  0  0  0  0  0
    4.5981   -2.0000    0.0000 C   0  0  0  0  0  0  0  0  0  0  0  0
    3.7320   -2.5000    0.0000 C   0  0  1  0  0  0  0  0  0  0  0  0
    6.3301   -1.0000    0.0000 C   0  0  0  0  0  0  0  0  0  0  0  0
    7.1962    0.5000    0.0000 C   0  0  0  0  0  0  0  0  0  0  0  0
    6.3301    4.0000    0.0000 C   0  0  0  0  0  0  0  0  0  0  0  0
    9.0281    0.7412    0.0000 C   0  0  0  0  0  0  0  0  0  0  0  0
    7.1962   -0.5000    0.0000 C   0  0  0  0  0  0  0  0  0  0  0  0
    3.7320   -3.5000    0.0000 C   0  0  2  0  0  0  0  0  0  0  0  0
    5.4641    0.5000    0.0000 C   0  0  0  0  0  0  0  0  0  0  0  0
    2.8660   -2.0000    0.0000 C   0  0  0  0  0  0  0  0  0  0  0  0
    9.7942    4.0000    0.0000 C   0  0  0  0  0  0  0  0  0  0  0  0
    5.4641    3.5000    0.0000 C   0  0  0  0  0  0  0  0  0  0  0  0
    4.5981   -4.0000    0.0000 C   0  0  0  0  0  0  0  0  0  0  0  0
    3.7320    2.5000    0.0000 C   0  0  1  0  0  0  0  0  0  0  0  0
    3.7320    3.5000    0.0000 C   0  0  2  0  0  0  0  0  0  0  0  0
    4.5981    4.0000    0.0000 C   0  0  0  0  0  0  0  0  0  0  0  0
    3.7320    0.5000    0.0000 C   0  0  0  0  0  0  0  0  0  0  0  0
    2.8660    2.0000    0.0000 C   0  0  0  0  0  0  0  0  0  0  0  0
    2.8660    1.0000    0.0000 C   0  0  0  0  0  0  0  0  0  0  0  0
    4.5981    2.0000    0.0000 C   0  0  0  0  0  0  0  0  0  0  0  0
    2.0000    2.5000    0.0000 C   0  0  0  0  0  0  0  0  0  0  0  0
    9.1403    1.9174    0.0000 H   0  0  0  0  0  0  0  0  0  0  0  0
    9.5388    2.6077    0.0000 H   0  0  0  0  0  0  0  0  0  0  0  0
    7.1962    4.3500    0.0000 H   0  0  0  0  0  0  0  0  0  0  0  0
    6.0010   -0.1900    0.0000 H   0  0  0  0  0  0  0  0  0  0  0  0
    8.4607    4.4750    0.0000 H   0  0  0  0  0  0  0  0  0  0  0  0
    7.6636    4.4750    0.0000 H   0  0  0  0  0  0  0  0  0  0  0  0
    4.0611   -1.3100    0.0000 H   0  0  0  0  0  0  0  0  0  0  0  0
    4.8101   -2.5826    0.0000 H   0  0  0  0  0  0  0  0  0  0  0  0
    5.2087   -1.8923    0.0000 H   0  0  0  0  0  0  0  0  0  0  0  0
    3.7320   -1.8800    0.0000 H   0  0  0  0  0  0  0  0  0  0  0  0
    5.9316   -1.4750    0.0000 H   0  0  0  0  0  0  0  0  0  0  0  0
    6.7287   -1.4750    0.0000 H   0  0  0  0  0  0  0  0  0  0  0  0
    6.6592    0.8100    0.0000 H   0  0  0  0  0  0  0  0  0  0  0  0
    6.7287    4.4750    0.0000 H   0  0  0  0  0  0  0  0  0  0  0  0
    5.9316    4.4750    0.0000 H   0  0  0  0  0  0  0  0  0  0  0  0
    8.8676    0.1423    0.0000 H   0  0  0  0  0  0  0  0  0  0  0  0
    9.6270    0.5807    0.0000 H   0  0  0  0  0  0  0  0  0  0  0  0
    9.1886    1.3400    0.0000 H   0  0  0  0  0  0  0  0  0  0  0  0
    7.7331   -0.8100    0.0000 H   0  0  0  0  0  0  0  0  0  0  0  0
    3.7320   -4.1200    0.0000 H   0  0  0  0  0  0  0  0  0  0  0  0
    6.0841    0.5000    0.0000 H   0  0  0  0  0  0  0  0  0  0  0  0
    5.4641    1.1200    0.0000 H   0  0  0  0  0  0  0  0  0  0  0  0
    4.8441    0.5000    0.0000 H   0  0  0  0  0  0  0  0  0  0  0  0
    9.4651    1.8100    0.0000 H   0  0  0  0  0  0  0  0  0  0  0  0
    8.3737   -0.3811    0.0000 H   0  0  0  0  0  0  0  0  0  0  0  0
    3.1760   -1.4631    0.0000 H   0  0  0  0  0  0  0  0  0  0  0  0
    2.3291   -1.6900    0.0000 H   0  0  0  0  0  0  0  0  0  0  0  0
    2.5560   -2.5369    0.0000 H   0  0  0  0  0  0  0  0  0  0  0  0
   10.3312    3.6900    0.0000 H   0  0  0  0  0  0  0  0  0  0  0  0
    9.7942    4.6200    0.0000 H   0  0  0  0  0  0  0  0  0  0  0  0
    5.4641    2.8800    0.0000 H   0  0  0  0  0  0  0  0  0  0  0  0
    4.2881   -4.5369    0.0000 H   0  0  0  0  0  0  0  0  0  0  0  0
    5.1350   -4.3100    0.0000 H   0  0  0  0  0  0  0  0  0  0  0  0
    4.9081   -3.4631    0.0000 H   0  0  0  0  0  0  0  0  0  0  0  0
    3.7320    1.8800    0.0000 H   0  0  0  0  0  0  0  0  0  0  0  0
    3.7320    4.1200    0.0000 H   0  0  0  0  0  0  0  0  0  0  0  0
    4.5981    4.6200    0.0000 H   0  0  0  0  0  0  0  0  0  0  0  0
    2.8660   -4.6200    0.0000 H   0  0  0  0  0  0  0  0  0  0  0  0
    2.3291    0.6900    0.0000 H   0  0  0  0  0  0  0  0  0  0  0  0
    4.2881    1.4631    0.0000 H   0  0  0  0  0  0  0  0  0  0  0  0
    5.1350    1.6900    0.0000 H   0  0  0  0  0  0  0  0  0  0  0  0
    4.9081    2.5369    0.0000 H   0  0  0  0  0  0  0  0  0  0  0  0
    2.3100    3.0369    0.0000 H   0  0  0  0  0  0  0  0  0  0  0  0
    1.4631    2.8100    0.0000 H   0  0  0  0  0  0  0  0  0  0  0  0
    1.6900    1.9631    0.0000 H   0  0  0  0  0  0  0  0  0  0  0  0
    2.8660    4.6200    0.0000 H   0  0  0  0  0  0  0  0  0  0  0  0
  1  8  1  0  0  0  0
  1 11  1  0  0  0  0
  8  2  1  6  0  0  0
  2 60  1  0  0  0  0
  9  3  1  6  0  0  0
  3 61  1  0  0  0  0
  4 14  1  0  0  0  0
  4 32  1  0  0  0  0
 23  5  1  6  0  0  0
  5 74  1  0  0  0  0
 30  6  1  1  0  0  0
  6 82  1  0  0  0  0
  7 32  2  0  0  0  0
  8  9  1  0  0  0  0
  8 10  1  0  0  0  0
  9 19  1  0  0  0  0
  9 21  1  0  0  0  0
 10 15  1  0  0  0  0
 10 37  1  0  0  0  0
 10 38  1  0  0  0  0
 11 13  1  0  0  0  0
 11 20  1  0  0  0  0
 11 39  1  6  0  0  0
 12 14  1  0  0  0  0
 12 18  1  0  0  0  0
 12 24  1  1  0  0  0
 12 40  1  0  0  0  0
 13 15  1  0  0  0  0
 13 41  1  0  0  0  0
 13 42  1  0  0  0  0
 14 16  1  1  0  0  0
 14 43  1  0  0  0  0
 15 26  2  0  0  0  0
 16 17  1  0  0  0  0
 16 44  1  0  0  0  0
 16 45  1  0  0  0  0
 17 23  1  0  0  0  0
 17 25  1  1  0  0  0
 17 46  1  0  0  0  0
 18 22  1  0  0  0  0
 18 47  1  0  0  0  0
 18 48  1  0  0  0  0
 19 22  2  0  0  0  0
 19 49  1  0  0  0  0
 20 27  1  0  0  0  0
 20 50  1  0  0  0  0
 20 51  1  0  0  0  0
 21 52  1  0  0  0  0
 21 53  1  0  0  0  0
 21 54  1  0  0  0  0
 22 55  1  0  0  0  0
 23 28  1  0  0  0  0
 23 56  1  0  0  0  0
 24 57  1  0  0  0  0
 24 58  1  0  0  0  0
 24 59  1  0  0  0  0
 25 62  1  0  0  0  0
 25 63  1  0  0  0  0
 25 64  1  0  0  0  0
 26 65  1  0  0  0  0
 26 66  1  0  0  0  0
 27 31  2  0  0  0  0
 27 67  1  0  0  0  0
 28 68  1  0  0  0  0
 28 69  1  0  0  0  0
 28 70  1  0  0  0  0
 29 30  1  0  0  0  0
 29 33  1  0  0  0  0
 29 35  1  6  0  0  0
 29 71  1  0  0  0  0
 30 31  1  0  0  0  0
 30 72  1  0  0  0  0
 31 73  1  0  0  0  0
 32 34  1  0  0  0  0
 33 34  2  0  0  0  0
 33 36  1  0  0  0  0
 34 75  1  0  0  0  0
 35 76  1  0  0  0  0
 35 77  1  0  0  0  0
 35 78  1  0  0  0  0
 36 79  1  0  0  0  0
 36 80  1  0  0  0  0
 36 81  1  0  0  0  0
M  END
> <PUBCHEM_COMPOUND_CID>
16723501

> <PUBCHEM_COMPOUND_CANONICALIZED>
1

> <PUBCHEM_CACTVS_COMPLEXITY>
862

> <PUBCHEM_CACTVS_HBOND_ACCEPTOR>
7

> <PUBCHEM_CACTVS_HBOND_DONOR>
4

> <PUBCHEM_CACTVS_ROTATABLE_BOND>
3

> <PUBCHEM_CACTVS_SUBSKEYS>
AAADcfB4OAAAAAAAAAAAAAAAAAAAAAAAAAAkAAAAAAAAAAAAAAAAGgAACAAADVSggAICCAAABgCIAiDSCAAAAAAgAAAICAAAAEgRFAIAIQACUAAEwAAPMQPA4PQOAAAAAAAAAAAAAAAAAAAAAAAAAAAAAA==

> <PUBCHEM_IUPAC_OPENEYE_NAME>
(1S,3E,5S,6R,7Z,11R,12S,14E,16R,17S)-5,16,17-trihydroxy-11-[(2S,3S)-3-hydroxy-2-methyl-butyl]-6,7,12,16-tetramethyl-19-methylene-10,21-dioxabicyclo[15.3.1]henicosa-3,7,14-trien-9-one

> <PUBCHEM_IUPAC_CAS_NAME>
(1S,3E,5S,6R,7Z,11R,12S,14E,16R,17S)-5,16,17-trihydroxy-11-[(2S,3S)-3-hydroxy-2-methylbutyl]-6,7,12,16-tetramethyl-19-methylene-10,21-dioxabicyclo[15.3.1]heneicosa-3,7,14-trien-9-one

> <PUBCHEM_IUPAC_NAME>
(1S,3E,5S,6R,7Z,11R,12S,14E,16R,17S)-5,16,17-trihydroxy-11-[(2S,3S)-3-hydroxy-2-methylbutyl]-6,7,12,16-tetramethyl-19-methylidene-10,21-dioxabicyclo[15.3.1]henicosa-3,7,14-trien-9-one

> <PUBCHEM_IUPAC_SYSTEMATIC_NAME>
(1S,3E,5S,6R,7Z,11R,12S,14E,16R,17S)-6,7,12,16-tetramethyl-19-methylidene-11-[(2S,3S)-2-methyl-3-oxidanyl-butyl]-5,16,17-tris(oxidanyl)-10,21-dioxabicyclo[15.3.1]henicosa-3,7,14-trien-9-one

> <PUBCHEM_IUPAC_TRADITIONAL_NAME>
(1S,3E,5S,6R,7Z,11R,12S,14E,16R,17S)-5,16,17-trihydroxy-11-[(2S,3S)-3-hydroxy-2-methyl-butyl]-6,7,12,16-tetramethyl-19-methylene-10,21-dioxabicyclo[15.3.1]heneicosa-3,7,14-trien-9-one

> <PUBCHEM_IUPAC_INCHI>
InChI=1S/C29H46O7/c1-18-14-24-11-8-12-25(31)22(5)20(3)16-27(32)35-26(15-21(4)23(6)30)19(2)10-9-13-28(7,33)29(34,17-18)36-24/h8-9,12-13,16,19,21-26,30-31,33-34H,1,10-11,14-15,17H2,2-7H3/b12-8+,13-9+,20-16-/t19-,21-,22+,23-,24-,25-,26+,28+,29-/m0/s1

> <PUBCHEM_IUPAC_INCHIKEY>
LZLQZSMXUGFMJF-OMEQKXGASA-N

> <PUBCHEM_XLOGP3_AA>
3.4

> <PUBCHEM_EXACT_MASS>
506.324354

> <PUBCHEM_MOLECULAR_FORMULA>
C29H46O7

> <PUBCHEM_MOLECULAR_WEIGHT>
506.67134

> <PUBCHEM_OPENEYE_CAN_SMILES>
CC1CC=CC(C2(CC(=C)CC(O2)CC=CC(C(C(=CC(=O)OC1CC(C)C(C)O)C)C)O)O)(C)O

> <PUBCHEM_OPENEYE_ISO_SMILES>
C[C@H]1C/C=C/[C@@]([C@@]2(CC(=C)C[C@@H](O2)C/C=C/[C@@H]([C@@H](/C(=C\C(=O)O[C@@H]1C[C@H](C)[C@H](C)O)/C)C)O)O)(C)O

> <PUBCHEM_CACTVS_TPSA>
116

> <PUBCHEM_MONOISOTOPIC_WEIGHT>
506.324354

> <PUBCHEM_TOTAL_CHARGE>
0

> <PUBCHEM_HEAVY_ATOM_COUNT>
36

> <PUBCHEM_ATOM_DEF_STEREO_COUNT>
9

> <PUBCHEM_ATOM_UDEF_STEREO_COUNT>
0

> <PUBCHEM_BOND_DEF_STEREO_COUNT>
3

> <PUBCHEM_BOND_UDEF_STEREO_COUNT>
0

> <PUBCHEM_ISOTOPIC_ATOM_COUNT>
0

> <PUBCHEM_COMPONENT_COUNT>
1

> <PUBCHEM_CACTVS_TAUTO_COUNT>
1

> <PUBCHEM_COORDINATE_TYPE>
1
5
255

> <PUBCHEM_BONDANNOTATIONS>
11  39  6
12  24  5
14  16  5
17  25  5
8  2  6
29  35  6
9  3  6
23  5  6
30  6  5

$$$$

