11868
  -OEChem-06261206132D

 22 22  0     0  0  0  0  0  0999 V2000
    3.7320    0.8450    0.0000 S   0  0  0  0  0  0  0  0  0  0  0  0
    3.7320    1.8450    0.0000 O   0  0  0  0  0  0  0  0  0  0  0  0
    4.7320    0.8450    0.0000 O   0  0  0  0  0  0  0  0  0  0  0  0
    2.7320    0.8450    0.0000 O   0  0  0  0  0  0  0  0  0  0  0  0
    3.7320   -0.1550    0.0000 C   0  0  0  0  0  0  0  0  0  0  0  0
    2.8660   -0.6550    0.0000 C   0  0  0  0  0  0  0  0  0  0  0  0
    4.5981   -1.6550    0.0000 C   0  0  0  0  0  0  0  0  0  0  0  0
    4.5981   -0.6550    0.0000 C   0  0  0  0  0  0  0  0  0  0  0  0
    2.8660   -1.6550    0.0000 C   0  0  0  0  0  0  0  0  0  0  0  0
    3.7320   -2.1550    0.0000 C   0  0  0  0  0  0  0  0  0  0  0  0
    2.0000   -0.1550    0.0000 C   0  0  0  0  0  0  0  0  0  0  0  0
    5.4641   -2.1550    0.0000 C   0  0  0  0  0  0  0  0  0  0  0  0
    5.1350   -0.3450    0.0000 H   0  0  0  0  0  0  0  0  0  0  0  0
    2.3291   -1.9650    0.0000 H   0  0  0  0  0  0  0  0  0  0  0  0
    3.7320   -2.7750    0.0000 H   0  0  0  0  0  0  0  0  0  0  0  0
    2.3100    0.3819    0.0000 H   0  0  0  0  0  0  0  0  0  0  0  0
    1.4631    0.1550    0.0000 H   0  0  0  0  0  0  0  0  0  0  0  0
    1.6900   -0.6919    0.0000 H   0  0  0  0  0  0  0  0  0  0  0  0
    5.1541   -2.6919    0.0000 H   0  0  0  0  0  0  0  0  0  0  0  0
    6.0010   -2.4650    0.0000 H   0  0  0  0  0  0  0  0  0  0  0  0
    5.7741   -1.6181    0.0000 H   0  0  0  0  0  0  0  0  0  0  0  0
    4.2690    2.1550    0.0000 H   0  0  0  0  0  0  0  0  0  0  0  0
  1  2  1  0  0  0  0
  1  3  2  0  0  0  0
  1  4  2  0  0  0  0
  1  5  1  0  0  0  0
  2 22  1  0  0  0  0
  5  6  2  0  0  0  0
  5  8  1  0  0  0  0
  6  9  1  0  0  0  0
  6 11  1  0  0  0  0
  7  8  2  0  0  0  0
  7 10  1  0  0  0  0
  7 12  1  0  0  0  0
  8 13  1  0  0  0  0
  9 10  2  0  0  0  0
  9 14  1  0  0  0  0
 10 15  1  0  0  0  0
 11 16  1  0  0  0  0
 11 17  1  0  0  0  0
 11 18  1  0  0  0  0
 12 19  1  0  0  0  0
 12 20  1  0  0  0  0
 12 21  1  0  0  0  0
M  END
> <PUBCHEM_COMPOUND_CID>
11868

> <PUBCHEM_COMPOUND_CANONICALIZED>
1

> <PUBCHEM_CACTVS_COMPLEXITY>
240

> <PUBCHEM_CACTVS_HBOND_ACCEPTOR>
3

> <PUBCHEM_CACTVS_HBOND_DONOR>
1

> <PUBCHEM_CACTVS_ROTATABLE_BOND>
1

> <PUBCHEM_CACTVS_SUBSKEYS>
AAADccBwMABAAAAAAAAAAAAAAAAAAAAAAAAwAAAAAAAAAAABAAAAGAQACAAADACAWAAyAYAAAIKAAiBCAHBCAEAgAAAIiBgAAIgIICKAERCAIAAggAAIiAcAgAAOQAAAgAAEAACAAAEAAAgAAAAAAAAAAA==

> <PUBCHEM_IUPAC_OPENEYE_NAME>
2,5-dimethylbenzenesulfonic acid

> <PUBCHEM_IUPAC_CAS_NAME>
2,5-dimethylbenzenesulfonic acid

> <PUBCHEM_IUPAC_NAME>
2,5-dimethylbenzenesulfonic acid

> <PUBCHEM_IUPAC_SYSTEMATIC_NAME>
2,5-dimethylbenzenesulfonic acid

> <PUBCHEM_IUPAC_TRADITIONAL_NAME>
2,5-dimethylbesylic acid

> <PUBCHEM_IUPAC_INCHI>
InChI=1S/C8H10O3S/c1-6-3-4-7(2)8(5-6)12(9,10)11/h3-5H,1-2H3,(H,9,10,11)

> <PUBCHEM_IUPAC_INCHIKEY>
IRLYGRLEBKCYPY-UHFFFAOYSA-N

> <PUBCHEM_XLOGP3_AA>
1.4

> <PUBCHEM_EXACT_MASS>
186.035065

> <PUBCHEM_MOLECULAR_FORMULA>
C8H10O3S

> <PUBCHEM_MOLECULAR_WEIGHT>
186.2282

> <PUBCHEM_OPENEYE_CAN_SMILES>
CC1=CC(=C(C=C1)C)S(=O)(=O)O

> <PUBCHEM_OPENEYE_ISO_SMILES>
CC1=CC(=C(C=C1)C)S(=O)(=O)O

> <PUBCHEM_CACTVS_TPSA>
62.8

> <PUBCHEM_MONOISOTOPIC_WEIGHT>
186.035065

> <PUBCHEM_TOTAL_CHARGE>
0

> <PUBCHEM_HEAVY_ATOM_COUNT>
12

> <PUBCHEM_ATOM_DEF_STEREO_COUNT>
0

> <PUBCHEM_ATOM_UDEF_STEREO_COUNT>
0

> <PUBCHEM_BOND_DEF_STEREO_COUNT>
0

> <PUBCHEM_BOND_UDEF_STEREO_COUNT>
0

> <PUBCHEM_ISOTOPIC_ATOM_COUNT>
0

> <PUBCHEM_COMPONENT_COUNT>
1

> <PUBCHEM_CACTVS_TAUTO_COUNT>
1

> <PUBCHEM_COORDINATE_TYPE>
1
5
255

> <PUBCHEM_BONDANNOTATIONS>
5  6  8
5  8  8
6  9  8
7  10  8
7  8  8
9  10  8

$$$$

