11758
  -OEChem-06261206042D

 23 22  0     0  0  0  0  0  0999 V2000
    2.8660   -1.5000    0.0000 O   0  0  0  0  0  0  0  0  0  0  0  0
    3.7320    0.0000    0.0000 N   0  0  0  0  0  0  0  0  0  0  0  0
    3.7320   -1.0000    0.0000 N   0  0  0  0  0  0  0  0  0  0  0  0
    4.5981    0.5000    0.0000 C   0  0  0  0  0  0  0  0  0  0  0  0
    2.8660    0.5000    0.0000 C   0  0  0  0  0  0  0  0  0  0  0  0
    5.4641    0.0000    0.0000 C   0  0  0  0  0  0  0  0  0  0  0  0
    4.5981    1.5000    0.0000 C   0  0  0  0  0  0  0  0  0  0  0  0
    2.0000    0.0000    0.0000 C   0  0  0  0  0  0  0  0  0  0  0  0
    2.8660    1.5000    0.0000 C   0  0  0  0  0  0  0  0  0  0  0  0
    4.5981   -0.1200    0.0000 H   0  0  0  0  0  0  0  0  0  0  0  0
    2.8660   -0.1200    0.0000 H   0  0  0  0  0  0  0  0  0  0  0  0
    5.1541   -0.5369    0.0000 H   0  0  0  0  0  0  0  0  0  0  0  0
    6.0010   -0.3100    0.0000 H   0  0  0  0  0  0  0  0  0  0  0  0
    5.7741    0.5369    0.0000 H   0  0  0  0  0  0  0  0  0  0  0  0
    5.2181    1.5000    0.0000 H   0  0  0  0  0  0  0  0  0  0  0  0
    4.5981    2.1200    0.0000 H   0  0  0  0  0  0  0  0  0  0  0  0
    3.9781    1.5000    0.0000 H   0  0  0  0  0  0  0  0  0  0  0  0
    1.6900    0.5369    0.0000 H   0  0  0  0  0  0  0  0  0  0  0  0
    1.4631   -0.3100    0.0000 H   0  0  0  0  0  0  0  0  0  0  0  0
    2.3100   -0.5369    0.0000 H   0  0  0  0  0  0  0  0  0  0  0  0
    3.4860    1.5000    0.0000 H   0  0  0  0  0  0  0  0  0  0  0  0
    2.8660    2.1200    0.0000 H   0  0  0  0  0  0  0  0  0  0  0  0
    2.2460    1.5000    0.0000 H   0  0  0  0  0  0  0  0  0  0  0  0
  1  3  2  0  0  0  0
  2  3  1  0  0  0  0
  2  4  1  0  0  0  0
  2  5  1  0  0  0  0
  4  6  1  0  0  0  0
  4  7  1  0  0  0  0
  4 10  1  0  0  0  0
  5  8  1  0  0  0  0
  5  9  1  0  0  0  0
  5 11  1  0  0  0  0
  6 12  1  0  0  0  0
  6 13  1  0  0  0  0
  6 14  1  0  0  0  0
  7 15  1  0  0  0  0
  7 16  1  0  0  0  0
  7 17  1  0  0  0  0
  8 18  1  0  0  0  0
  8 19  1  0  0  0  0
  8 20  1  0  0  0  0
  9 21  1  0  0  0  0
  9 22  1  0  0  0  0
  9 23  1  0  0  0  0
M  END
> <PUBCHEM_COMPOUND_CID>
11758

> <PUBCHEM_COMPOUND_CANONICALIZED>
1

> <PUBCHEM_CACTVS_COMPLEXITY>
83.1

> <PUBCHEM_CACTVS_HBOND_ACCEPTOR>
3

> <PUBCHEM_CACTVS_HBOND_DONOR>
0

> <PUBCHEM_CACTVS_ROTATABLE_BOND>
2

> <PUBCHEM_CACTVS_SUBSKEYS>
AAADccBjIAAAAAAAAAAAAAAAAAAAAAAAAAAAAAAAAAAAAAAAAAAAHAAMAAAACCjBAAQCAAIAAAABAAAAAAAAAAAAAAAQAAAIAAAAAAAAAAAAAAAAAACAAAAAAAAAAAAAAAAAAAAAAAAAAAAAAAAAAAAAAA==

> <PUBCHEM_IUPAC_OPENEYE_NAME>
N,N-diisopropylnitrous amide

> <PUBCHEM_IUPAC_CAS_NAME>
N,N-di(propan-2-yl)nitrous amide

> <PUBCHEM_IUPAC_NAME>
N,N-di(propan-2-yl)nitrous amide

> <PUBCHEM_IUPAC_SYSTEMATIC_NAME>
N,N-di(propan-2-yl)nitrous amide

> <PUBCHEM_IUPAC_TRADITIONAL_NAME>
N,N-diisopropylnitrous amide

> <PUBCHEM_IUPAC_INCHI>
InChI=1S/C6H14N2O/c1-5(2)8(7-9)6(3)4/h5-6H,1-4H3

> <PUBCHEM_IUPAC_INCHIKEY>
AUIKJTGFPFLMFP-UHFFFAOYSA-N

> <PUBCHEM_XLOGP3>
1.4

> <PUBCHEM_EXACT_MASS>
130.110613

> <PUBCHEM_MOLECULAR_FORMULA>
C6H14N2O

> <PUBCHEM_MOLECULAR_WEIGHT>
130.18816

> <PUBCHEM_OPENEYE_CAN_SMILES>
CC(C)N(C(C)C)N=O

> <PUBCHEM_OPENEYE_ISO_SMILES>
CC(C)N(C(C)C)N=O

> <PUBCHEM_CACTVS_TPSA>
32.7

> <PUBCHEM_MONOISOTOPIC_WEIGHT>
130.110613

> <PUBCHEM_TOTAL_CHARGE>
0

> <PUBCHEM_HEAVY_ATOM_COUNT>
9

> <PUBCHEM_ATOM_DEF_STEREO_COUNT>
0

> <PUBCHEM_ATOM_UDEF_STEREO_COUNT>
0

> <PUBCHEM_BOND_DEF_STEREO_COUNT>
0

> <PUBCHEM_BOND_UDEF_STEREO_COUNT>
0

> <PUBCHEM_ISOTOPIC_ATOM_COUNT>
0

> <PUBCHEM_COMPONENT_COUNT>
1

> <PUBCHEM_CACTVS_TAUTO_COUNT>
1

> <PUBCHEM_COORDINATE_TYPE>
1
5
255

$$$$

