159239
  -OEChem-07051212563D

 34 36  0     0  0  0  0  0  0999 V2000
    0.9342   -1.7719   -0.1229 O   0  0  0  0  0  0  0  0  0  0  0  0
   -0.0379    2.8052   -0.1949 O   0  0  0  0  0  0  0  0  0  0  0  0
   -1.8859   -2.4553   -0.2822 O   0  0  0  0  0  0  0  0  0  0  0  0
   -3.6602   -0.3178   -0.3929 O   0  0  0  0  0  0  0  0  0  0  0  0
   -2.7372    2.2664   -0.3494 O   0  0  0  0  0  0  0  0  0  0  0  0
    0.4305    0.4324   -0.1590 C   0  0  0  0  0  0  0  0  0  0  0  0
    1.8473    0.2965   -0.0760 C   0  0  0  0  0  0  0  0  0  0  0  0
   -0.0779   -0.8624   -0.1844 C   0  0  0  0  0  0  0  0  0  0  0  0
    2.1006   -1.0715   -0.0574 C   0  0  0  0  0  0  0  0  0  0  0  0
   -0.4751    1.5079   -0.2151 C   0  0  0  0  0  0  0  0  0  0  0  0
   -1.4357   -1.1679   -0.2619 C   0  0  0  0  0  0  0  0  0  0  0  0
   -2.3161   -0.0835   -0.3167 C   0  0  0  0  0  0  0  0  0  0  0  0
   -1.8468    1.2317   -0.2939 C   0  0  0  0  0  0  0  0  0  0  0  0
    2.9407    1.1801   -0.0150 C   0  0  0  0  0  0  0  0  0  0  0  0
    3.3756   -1.6296    0.0179 C   0  0  0  0  0  0  0  0  0  0  0  0
    4.2350    0.6481    0.0617 C   0  0  0  0  0  0  0  0  0  0  0  0
    4.4459   -0.7325    0.0776 C   0  0  0  0  0  0  0  0  0  0  0  0
    0.0939    3.4176    1.0829 C   0  0  0  0  0  0  0  0  0  0  0  0
   -1.5645   -3.2702    0.8422 C   0  0  0  0  0  0  0  0  0  0  0  0
   -4.3664   -0.4232    0.8394 C   0  0  0  0  0  0  0  0  0  0  0  0
    2.7981    2.2562   -0.0288 H   0  0  0  0  0  0  0  0  0  0  0  0
    3.5314   -2.7017    0.0299 H   0  0  0  0  0  0  0  0  0  0  0  0
    5.0870    1.3214    0.1088 H   0  0  0  0  0  0  0  0  0  0  0  0
    5.4609   -1.1173    0.1374 H   0  0  0  0  0  0  0  0  0  0  0  0
   -3.6328    1.9012   -0.4522 H   0  0  0  0  0  0  0  0  0  0  0  0
    0.7637    2.8398    1.7274 H   0  0  0  0  0  0  0  0  0  0  0  0
   -0.8856    3.5204    1.5606 H   0  0  0  0  0  0  0  0  0  0  0  0
    0.5196    4.4150    0.9433 H   0  0  0  0  0  0  0  0  0  0  0  0
   -0.5765   -3.7209    0.7127 H   0  0  0  0  0  0  0  0  0  0  0  0
   -2.3029   -4.0750    0.8995 H   0  0  0  0  0  0  0  0  0  0  0  0
   -1.6030   -2.7001    1.7768 H   0  0  0  0  0  0  0  0  0  0  0  0
   -4.0232   -1.2947    1.4055 H   0  0  0  0  0  0  0  0  0  0  0  0
   -5.4291   -0.5507    0.6153 H   0  0  0  0  0  0  0  0  0  0  0  0
   -4.2434    0.4838    1.4400 H   0  0  0  0  0  0  0  0  0  0  0  0
  1  8  1  0  0  0  0
  1  9  1  0  0  0  0
  2 10  1  0  0  0  0
  2 18  1  0  0  0  0
  3 11  1  0  0  0  0
  3 19  1  0  0  0  0
  4 12  1  0  0  0  0
  4 20  1  0  0  0  0
  5 13  1  0  0  0  0
  5 25  1  0  0  0  0
  6  7  1  0  0  0  0
  6  8  2  0  0  0  0
  6 10  1  0  0  0  0
  7  9  1  0  0  0  0
  7 14  2  0  0  0  0
  8 11  1  0  0  0  0
  9 15  2  0  0  0  0
 10 13  2  0  0  0  0
 11 12  2  0  0  0  0
 12 13  1  0  0  0  0
 14 16  1  0  0  0  0
 14 21  1  0  0  0  0
 15 17  1  0  0  0  0
 15 22  1  0  0  0  0
 16 17  2  0  0  0  0
 16 23  1  0  0  0  0
 17 24  1  0  0  0  0
 18 26  1  0  0  0  0
 18 27  1  0  0  0  0
 18 28  1  0  0  0  0
 19 29  1  0  0  0  0
 19 30  1  0  0  0  0
 19 31  1  0  0  0  0
 20 32  1  0  0  0  0
 20 33  1  0  0  0  0
 20 34  1  0  0  0  0
M  END
> <PUBCHEM_COMPOUND_CID>
159239

> <PUBCHEM_CONFORMER_RMSD>
0.6

> <PUBCHEM_CONFORMER_DIVERSEORDER>
2
4
1
3

> <PUBCHEM_MMFF94_PARTIAL_CHARGES>
23
1 -0.28
10 0.08
11 0.08
12 0.08
13 0.08
14 -0.15
15 -0.15
16 -0.15
17 -0.15
18 0.28
19 0.28
2 -0.36
20 0.28
21 0.15
22 0.15
23 0.15
24 0.15
25 0.45
3 -0.36
4 -0.36
5 -0.53
8 0.14
9 0.14

> <PUBCHEM_EFFECTIVE_ROTOR_COUNT>
3

> <PUBCHEM_PHARMACOPHORE_FEATURES>
8
1 1 acceptor
1 2 acceptor
1 3 acceptor
1 4 acceptor
1 5 donor
5 1 6 7 8 9 rings
6 6 8 10 11 12 13 rings
6 7 9 14 15 16 17 rings

> <PUBCHEM_HEAVY_ATOM_COUNT>
20

> <PUBCHEM_ATOM_DEF_STEREO_COUNT>
0

> <PUBCHEM_ATOM_UDEF_STEREO_COUNT>
0

> <PUBCHEM_BOND_DEF_STEREO_COUNT>
0

> <PUBCHEM_BOND_UDEF_STEREO_COUNT>
0

> <PUBCHEM_ISOTOPIC_ATOM_COUNT>
0

> <PUBCHEM_COMPONENT_COUNT>
1

> <PUBCHEM_CACTVS_TAUTO_COUNT>
3

> <PUBCHEM_CONFORMER_ID>
00026E0700000002

> <PUBCHEM_MMFF94_ENERGY>
74.9001

> <PUBCHEM_FEATURE_SELFOVERLAP>
40.803

> <PUBCHEM_SHAPE_FINGERPRINT>
10608611 8 18409454704306338820
10616163 171 18339078194801839262
108231 29 18408606963334549713
10967382 1 18410576175859189230
1100329 8 18338794503573926993
11132069 177 18338807723335596856
11578080 2 16952828137789687547
11680986 33 18049449145169517945
12553582 1 18409736122941916526
12788726 201 18338516451760024050
13027679 85 18335703801905357813
13140716 1 18050002195333975025
14115302 16 18059288769025855751
14787075 74 18129376016693833066
14790565 3 18338789113316942265
15196674 1 18339081591983378532
15209294 21 17822561811495873201
15475509 84 17975382778274877475
16945 1 18339085878292181173
193761 8 17906454324997984605
19591789 44 18339641247596903811
20510252 161 18263926699180286616
20642791 178 17840862976123961060
21029758 11 18335148587430571389
21029758 27 18272643537408468813
21267235 1 18411973681061110958
2297311 6 18262507183099193606
2334 1 18338519741552147509
23366157 5 17698450931490737300
23402539 116 18334305283365402767
23557571 272 18334285488261912748
23558518 356 17977090585513999876
23559900 14 18262807384428940866
2748010 2 18267022937130700717
335352 9 18411419505604329119
34934 24 18338524049256769198
350125 39 17977941611988233340
352729 6 17977391860142427533
43471831 8 18055073417692024451
5104073 3 18339365287605862056
537710 114 18412538786856051964
54173680 148 18341049614554650858
7364860 26 17975135335864742568
81228 2 18264191668819140224
8809292 202 18342175531646663498
9709674 26 18335982051672995822

> <PUBCHEM_SHAPE_MULTIPOLES>
382.24
6.85
3.33
0.77
2.27
0.83
0.13
-1.49
0.49
-1.26
0.82
-0.26
0.09
0.36

> <PUBCHEM_SHAPE_SELFOVERLAP>
847.789

> <PUBCHEM_SHAPE_VOLUME>
208.6

> <PUBCHEM_COORDINATE_TYPE>
2
5
10

$$$$

