5363388
  -OEChem-07051213153D

 24 23  0     0  0  0  0  0  0999 V2000
    1.1999    0.1042    0.1260 O   0  0  0  0  0  0  0  0  0  0  0  0
    3.4124   -0.5606    0.1393 O   0  0  0  0  0  0  0  0  0  0  0  0
   -0.7393   -1.3044    0.3633 C   0  0  0  0  0  0  0  0  0  0  0  0
    0.7825   -1.2428    0.3076 C   0  0  0  0  0  0  0  0  0  0  0  0
   -1.3623   -0.8190   -0.9152 C   0  0  0  0  0  0  0  0  0  0  0  0
   -2.6155    1.0455    0.1978 C   0  0  0  0  0  0  0  0  0  0  0  0
   -2.1979    0.2276   -0.9881 C   0  0  0  0  0  0  0  0  0  0  0  0
   -3.8717    0.4825    0.8444 C   0  0  0  0  0  0  0  0  0  0  0  0
    2.5509    0.3046    0.0583 C   0  0  0  0  0  0  0  0  0  0  0  0
    2.8411    1.7623   -0.1336 C   0  0  0  0  0  0  0  0  0  0  0  0
   -1.0449   -2.3469    0.5139 H   0  0  0  0  0  0  0  0  0  0  0  0
   -1.0836   -0.7568    1.2437 H   0  0  0  0  0  0  0  0  0  0  0  0
    1.1948   -1.6290    1.2473 H   0  0  0  0  0  0  0  0  0  0  0  0
    1.1575   -1.8580   -0.5198 H   0  0  0  0  0  0  0  0  0  0  0  0
   -1.1261   -1.3634   -1.8258 H   0  0  0  0  0  0  0  0  0  0  0  0
   -1.8159    1.1580    0.9362 H   0  0  0  0  0  0  0  0  0  0  0  0
   -2.8238    2.0640   -0.1534 H   0  0  0  0  0  0  0  0  0  0  0  0
   -2.6176    0.4962   -1.9540 H   0  0  0  0  0  0  0  0  0  0  0  0
   -4.1880    1.1238    1.6734 H   0  0  0  0  0  0  0  0  0  0  0  0
   -3.7004   -0.5228    1.2432 H   0  0  0  0  0  0  0  0  0  0  0  0
   -4.6977    0.4286    0.1269 H   0  0  0  0  0  0  0  0  0  0  0  0
    2.4514    2.3321    0.7137 H   0  0  0  0  0  0  0  0  0  0  0  0
    2.3943    2.1086   -1.0689 H   0  0  0  0  0  0  0  0  0  0  0  0
    3.9231    1.9131   -0.1872 H   0  0  0  0  0  0  0  0  0  0  0  0
  1  4  1  0  0  0  0
  1  9  1  0  0  0  0
  2  9  2  0  0  0  0
  3  4  1  0  0  0  0
  3  5  1  0  0  0  0
  3 11  1  0  0  0  0
  3 12  1  0  0  0  0
  4 13  1  0  0  0  0
  4 14  1  0  0  0  0
  5  7  2  0  0  0  0
  5 15  1  0  0  0  0
  6  7  1  0  0  0  0
  6  8  1  0  0  0  0
  6 16  1  0  0  0  0
  6 17  1  0  0  0  0
  7 18  1  0  0  0  0
  8 19  1  0  0  0  0
  8 20  1  0  0  0  0
  8 21  1  0  0  0  0
  9 10  1  0  0  0  0
 10 22  1  0  0  0  0
 10 23  1  0  0  0  0
 10 24  1  0  0  0  0
M  END
> <PUBCHEM_COMPOUND_CID>
5363388

> <PUBCHEM_CONFORMER_RMSD>
0.6

> <PUBCHEM_CONFORMER_DIVERSEORDER>
1
111
64
66
95
38
75
99
76
44
25
119
70
123
77
30
9
53
39
13
110
35
58
31
71
122
18
19
104
24
107
34
23
117
65
72
67
37
28
84
5
106
20
112
80
102
32
52
10
114
27
43
51
3
87
108
103
8
29
91
68
54
78
2
96
21
105
49
94
60
46
73
15
4
100
26
109
56
40
61
85
92
55
79
16
45
74
17
11
7
36
97
89
90
33
57
47
93
48
83
22
69
98
86
6
82
113
124
121
101
50
81
115
62
14
41
63
42
59
88
12
120
118
116

> <PUBCHEM_MMFF94_PARTIAL_CHARGES>
11
1 -0.43
10 0.06
15 0.15
18 0.15
2 -0.57
3 0.14
4 0.28
5 -0.29
6 0.14
7 -0.29
9 0.66

> <PUBCHEM_EFFECTIVE_ROTOR_COUNT>
5

> <PUBCHEM_PHARMACOPHORE_FEATURES>
2
1 2 acceptor
1 8 hydrophobe

> <PUBCHEM_HEAVY_ATOM_COUNT>
10

> <PUBCHEM_ATOM_DEF_STEREO_COUNT>
0

> <PUBCHEM_ATOM_UDEF_STEREO_COUNT>
0

> <PUBCHEM_BOND_DEF_STEREO_COUNT>
1

> <PUBCHEM_BOND_UDEF_STEREO_COUNT>
0

> <PUBCHEM_ISOTOPIC_ATOM_COUNT>
0

> <PUBCHEM_COMPONENT_COUNT>
1

> <PUBCHEM_CACTVS_TAUTO_COUNT>
1

> <PUBCHEM_CONFORMER_ID>
0051D6BC00000001

> <PUBCHEM_MMFF94_ENERGY>
4.8598

> <PUBCHEM_FEATURE_SELFOVERLAP>
10.148

> <PUBCHEM_SHAPE_FINGERPRINT>
10149128 111 18260544537094226633
10857977 72 16272203115746014711
11062470 55 5473134120198843715
12162725 195 18334584503415535660
12932764 1 17418106407430943674
13549 16 7637124702592546499
14325111 11 18411984637147844310
14390081 3 18339089193890726702
15775835 57 18334573529653112673
170605 34 18410290341459122043
177051 138 12319740271313726248
17844478 74 17632576088829981821
18186145 218 18409733958594923556
19973954 147 18197782098577918884
20211469 26 10952055545562131337
20653085 51 18260823787161820302
20711983 171 17967812717209366180
20711985 344 5761114890026296194
20828058 19 9727642691232038977
21028194 46 18201438090414253703
22485316 2 10231753366598674617
3248919 1 18337124362485923646
42627469 27 18260550051668639410
581208 293 9151167649894058204
81228 2 17271442392303926026

> <PUBCHEM_SHAPE_MULTIPOLES>
194.06
6.26
1.52
0.9
0.21
0.16
-0.12
2.52
0.93
0.55
0.06
-0.64
-0.03
-0.36

> <PUBCHEM_SHAPE_SELFOVERLAP>
356.509

> <PUBCHEM_SHAPE_VOLUME>
122.9

> <PUBCHEM_COORDINATE_TYPE>
2
5
10

$$$$

