442924
  -OEChem-07051213003D

 43 44  0     1  0  0  0  0  0999 V2000
    1.4445    0.7717   -0.5474 O   0  0  0  0  0  0  0  0  0  0  0  0
   -0.3437   -0.6980   -0.8408 O   0  0  0  0  0  0  0  0  0  0  0  0
    4.0719   -2.3333    0.0208 O   0  0  0  0  0  0  0  0  0  0  0  0
    4.8101    0.3413    0.8314 O   0  0  0  0  0  0  0  0  0  0  0  0
    1.1769   -2.7549    0.3698 O   0  0  0  0  0  0  0  0  0  0  0  0
    2.0686    3.4167   -0.1341 O   0  0  0  0  0  0  0  0  0  0  0  0
   -2.8848    3.1694    0.2929 O   0  0  0  0  0  0  0  0  0  0  0  0
   -1.7875   -2.9528   -1.0071 O   0  0  0  0  0  0  0  0  0  0  0  0
    3.1302   -1.3393    0.4278 C   0  0  1  0  0  0  0  0  0  0  0  0
    3.6804    0.0279    0.0211 C   0  0  1  0  0  0  0  0  0  0  0  0
    1.7814   -1.6132   -0.2373 C   0  0  2  0  0  0  0  0  0  0  0  0
    2.6166    1.1146    0.1940 C   0  0  1  0  0  0  0  0  0  0  0  0
    0.8312   -0.4264   -0.0773 C   0  0  1  0  0  0  0  0  0  0  0  0
    3.1035    2.4676   -0.3154 C   0  0  0  0  0  0  0  0  0  0  0  0
   -1.5107   -0.1488   -0.3850 C   0  0  0  0  0  0  0  0  0  0  0  0
   -2.5893   -0.9577   -0.0373 C   0  0  0  0  0  0  0  0  0  0  0  0
   -1.6059    1.2363   -0.2762 C   0  0  0  0  0  0  0  0  0  0  0  0
   -3.7717   -0.3778    0.4224 C   0  0  0  0  0  0  0  0  0  0  0  0
   -2.7883    1.8161    0.1835 C   0  0  0  0  0  0  0  0  0  0  0  0
   -2.5083   -2.4074   -0.1491 C   0  0  0  0  0  0  0  0  0  0  0  0
   -3.8712    1.0090    0.5328 C   0  0  0  0  0  0  0  0  0  0  0  0
   -3.3138   -3.2952    0.7917 C   0  0  0  0  0  0  0  0  0  0  0  0
   -1.7400    3.9342   -0.0812 C   0  0  0  0  0  0  0  0  0  0  0  0
    3.0460   -1.4208    1.5186 H   0  0  0  0  0  0  0  0  0  0  0  0
    4.0245   -0.0127   -1.0197 H   0  0  0  0  0  0  0  0  0  0  0  0
    1.9226   -1.8555   -1.2973 H   0  0  0  0  0  0  0  0  0  0  0  0
    2.3388    1.2305    1.2505 H   0  0  0  0  0  0  0  0  0  0  0  0
    0.5577   -0.3098    0.9820 H   0  0  0  0  0  0  0  0  0  0  0  0
    3.3419    2.4324   -1.3836 H   0  0  0  0  0  0  0  0  0  0  0  0
    3.9859    2.8118    0.2315 H   0  0  0  0  0  0  0  0  0  0  0  0
    4.9198   -2.1237    0.4488 H   0  0  0  0  0  0  0  0  0  0  0  0
    4.5130    0.3868    1.7562 H   0  0  0  0  0  0  0  0  0  0  0  0
    1.0367   -2.5574    1.3116 H   0  0  0  0  0  0  0  0  0  0  0  0
    1.2999    3.1136   -0.6467 H   0  0  0  0  0  0  0  0  0  0  0  0
   -0.7538    1.8274   -0.5847 H   0  0  0  0  0  0  0  0  0  0  0  0
   -4.6370   -0.9787    0.6880 H   0  0  0  0  0  0  0  0  0  0  0  0
   -4.7956    1.4557    0.8887 H   0  0  0  0  0  0  0  0  0  0  0  0
   -4.2995   -3.4870    0.3610 H   0  0  0  0  0  0  0  0  0  0  0  0
   -3.4110   -2.8309    1.7767 H   0  0  0  0  0  0  0  0  0  0  0  0
   -2.7840   -4.2430    0.9273 H   0  0  0  0  0  0  0  0  0  0  0  0
   -1.9929    4.9887    0.0707 H   0  0  0  0  0  0  0  0  0  0  0  0
   -1.5032    3.8136   -1.1438 H   0  0  0  0  0  0  0  0  0  0  0  0
   -0.8828    3.7164    0.5649 H   0  0  0  0  0  0  0  0  0  0  0  0
  1 12  1  0  0  0  0
  1 13  1  0  0  0  0
  2 13  1  0  0  0  0
  2 15  1  0  0  0  0
  3  9  1  0  0  0  0
  3 31  1  0  0  0  0
  4 10  1  0  0  0  0
  4 32  1  0  0  0  0
  5 11  1  0  0  0  0
  5 33  1  0  0  0  0
  6 14  1  0  0  0  0
  6 34  1  0  0  0  0
  7 19  1  0  0  0  0
  7 23  1  0  0  0  0
  8 20  2  0  0  0  0
  9 10  1  0  0  0  0
  9 11  1  0  0  0  0
  9 24  1  0  0  0  0
 10 12  1  0  0  0  0
 10 25  1  0  0  0  0
 11 13  1  0  0  0  0
 11 26  1  0  0  0  0
 12 14  1  0  0  0  0
 12 27  1  0  0  0  0
 13 28  1  0  0  0  0
 14 29  1  0  0  0  0
 14 30  1  0  0  0  0
 15 16  2  0  0  0  0
 15 17  1  0  0  0  0
 16 18  1  0  0  0  0
 16 20  1  0  0  0  0
 17 19  2  0  0  0  0
 17 35  1  0  0  0  0
 18 21  2  0  0  0  0
 18 36  1  0  0  0  0
 19 21  1  0  0  0  0
 20 22  1  0  0  0  0
 21 37  1  0  0  0  0
 22 38  1  0  0  0  0
 22 39  1  0  0  0  0
 22 40  1  0  0  0  0
 23 41  1  0  0  0  0
 23 42  1  0  0  0  0
 23 43  1  0  0  0  0
M  END
> <PUBCHEM_COMPOUND_CID>
442924

> <PUBCHEM_CONFORMER_RMSD>
0.8

> <PUBCHEM_CONFORMER_DIVERSEORDER>
2
84
96
35
8
57
135
99
115
138
24
111
152
179
144
68
63
85
159
64
76
174
203
167
199
122
101
108
201
166
88
71
42
169
58
53
192
55
103
91
30
176
181
123
137
130
92
86
124
196
39
191
175
25
48
148
107
198
77
82
62
112
158
163
3
195
102
10
187
50
168
5
47
73
105
193
170
60
36
94
75
142
136
132
184
34
129
127
46
4
194
18
119
20
164
69
178
44
131
202
154
120
110
156
21
6
153
54
89
7
83
117
177
139
145
90
74
28
72
12
17
95
87
66
183
149
134
32
161
19
43
121
147
100
126
113
143
61
26
157
22
27
150
185
14
155
106
146
1
188
128
78
38
140
180
141
40
9
51
45
56
80
13
67
79
197
114
190
162
29
200
15
65
189
16
182
204
172
33
186
97
37
165
116
104
52
98
171
23
160
93
118
151
11
173
125
31
81
133
49
70
59
109
41

> <PUBCHEM_MMFF94_PARTIAL_CHARGES>
30
1 -0.56
10 0.28
11 0.28
12 0.28
13 0.56
14 0.28
15 0.08
16 0.09
17 -0.15
18 -0.15
19 0.08
2 -0.36
20 0.42
21 -0.15
22 0.06
23 0.28
3 -0.68
31 0.4
32 0.4
33 0.4
34 0.4
35 0.15
36 0.15
37 0.15
4 -0.68
5 -0.68
6 -0.68
7 -0.36
8 -0.57
9 0.28

> <PUBCHEM_EFFECTIVE_ROTOR_COUNT>
6.2

> <PUBCHEM_PHARMACOPHORE_FEATURES>
14
1 1 acceptor
1 2 acceptor
1 3 acceptor
1 3 donor
1 4 acceptor
1 4 donor
1 5 acceptor
1 5 donor
1 6 acceptor
1 6 donor
1 7 acceptor
1 8 acceptor
6 1 9 10 11 12 13 rings
6 15 16 17 18 19 21 rings

> <PUBCHEM_HEAVY_ATOM_COUNT>
23

> <PUBCHEM_ATOM_DEF_STEREO_COUNT>
5

> <PUBCHEM_ATOM_UDEF_STEREO_COUNT>
0

> <PUBCHEM_BOND_DEF_STEREO_COUNT>
0

> <PUBCHEM_BOND_UDEF_STEREO_COUNT>
0

> <PUBCHEM_ISOTOPIC_ATOM_COUNT>
0

> <PUBCHEM_COMPONENT_COUNT>
1

> <PUBCHEM_CACTVS_TAUTO_COUNT>
2

> <PUBCHEM_CONFORMER_ID>
0006C22C00000002

> <PUBCHEM_MMFF94_ENERGY>
82.8363

> <PUBCHEM_FEATURE_SELFOVERLAP>
71.11

> <PUBCHEM_SHAPE_FINGERPRINT>
10616163 171 18337951194929428222
10967382 1 17978228597022986421
11370993 70 18193562400589192377
12173636 292 18337675346760529431
12251169 10 18411418431593349469
12403260 363 18264214776065017637
12553582 1 17904202529537776191
12633257 1 18335692901420337401
13004483 165 18337118843785764311
13140716 1 18339641123000446361
138480 1 16392961696209072579
14178342 30 18339939181109748226
14223421 5 18409728422102497638
14251757 5 18049419724923070358
14341114 176 18410568509331912538
14787075 74 17337032594496268371
14790565 3 17905879633221674324
15042514 8 18412256234502004347
15256400 18 18337391659749034456
15442244 35 18339081600604805628
17492 89 18339922615205220154
19050596 39 18340769234736299114
19591789 44 17907014332941207574
19930381 70 17834678197320933281
20621476 13 17330843933206783877
21033648 29 17679326288213759490
21065198 57 18410574028418012074
21731228 192 18193266627887737169
221490 88 18340480076464256482
23227448 37 18409730664349719727
23419403 2 16406744564216124281
23558518 356 18342453755317274331
23559900 14 18409735057837610386
350125 39 18339359652482194292
5104073 3 18410017615705386026
7097593 13 18270967954670611538
7832392 63 18338520871175986506
9709674 26 18336261323057170423

> <PUBCHEM_SHAPE_MULTIPOLES>
426.37
8.04
4.58
0.77
4.12
1.84
-0.01
-0.66
1.62
-2.14
0.06
-0.1
-0.19
-0.25

> <PUBCHEM_SHAPE_SELFOVERLAP>
892.791

> <PUBCHEM_SHAPE_VOLUME>
239.1

> <PUBCHEM_COORDINATE_TYPE>
2
5
10

$$$$

