12823
  -OEChem-06261207253D

 21 21  0     0  0  0  0  0  0999 V2000
    3.0736    1.7706    0.0340 O   0  0  0  0  0  0  0  0  0  0  0  0
    3.8710   -0.3706   -0.0013 N   0  0  0  0  0  0  0  0  0  0  0  0
    1.0709   -2.5705   -0.0599 N   0  0  0  0  0  0  0  0  0  0  0  0
   -0.9808    0.5238    0.0148 C   0  0  0  0  0  0  0  0  0  0  0  0
   -1.6669    0.4247   -1.1956 C   0  0  0  0  0  0  0  0  0  0  0  0
   -1.6507    0.2963    1.2168 C   0  0  0  0  0  0  0  0  0  0  0  0
    0.4335    0.8640    0.0233 C   0  0  0  0  0  0  0  0  0  0  0  0
   -3.0230    0.0981   -1.2040 C   0  0  0  0  0  0  0  0  0  0  0  0
   -3.0068   -0.0305    1.2086 C   0  0  0  0  0  0  0  0  0  0  0  0
   -3.6928   -0.1296   -0.0019 C   0  0  0  0  0  0  0  0  0  0  0  0
    1.4678   -0.0136   -0.0086 C   0  0  0  0  0  0  0  0  0  0  0  0
    2.8571    0.5608    0.0109 C   0  0  0  0  0  0  0  0  0  0  0  0
    1.2470   -1.4236   -0.0373 C   0  0  0  0  0  0  0  0  0  0  0  0
   -1.1588    0.5993   -2.1410 H   0  0  0  0  0  0  0  0  0  0  0  0
   -1.1301    0.3702    2.1687 H   0  0  0  0  0  0  0  0  0  0  0  0
    0.6187    1.9358    0.0523 H   0  0  0  0  0  0  0  0  0  0  0  0
   -3.5573    0.0208   -2.1464 H   0  0  0  0  0  0  0  0  0  0  0  0
   -3.5286   -0.2077    2.1445 H   0  0  0  0  0  0  0  0  0  0  0  0
   -4.7487   -0.3840   -0.0083 H   0  0  0  0  0  0  0  0  0  0  0  0
    3.7180   -1.3732   -0.0210 H   0  0  0  0  0  0  0  0  0  0  0  0
    4.8408   -0.0716    0.0096 H   0  0  0  0  0  0  0  0  0  0  0  0
  1 12  2  0  0  0  0
  2 12  1  0  0  0  0
  2 20  1  0  0  0  0
  2 21  1  0  0  0  0
  3 13  3  0  0  0  0
  4  5  2  0  0  0  0
  4  6  1  0  0  0  0
  4  7  1  0  0  0  0
  5  8  1  0  0  0  0
  5 14  1  0  0  0  0
  6  9  2  0  0  0  0
  6 15  1  0  0  0  0
  7 11  2  0  0  0  0
  7 16  1  0  0  0  0
  8 10  2  0  0  0  0
  8 17  1  0  0  0  0
  9 10  1  0  0  0  0
  9 18  1  0  0  0  0
 10 19  1  0  0  0  0
 11 12  1  0  0  0  0
 11 13  1  0  0  0  0
M  END
> <PUBCHEM_COMPOUND_CID>
12823

> <PUBCHEM_CONFORMER_RMSD>
0.6

> <PUBCHEM_CONFORMER_DIVERSEORDER>
1
6
7
3
4
2
5

> <PUBCHEM_MMFF94_PARTIAL_CHARGES>
21
1 -0.57
10 -0.15
11 0.08
12 0.62
13 0.49
14 0.15
15 0.15
16 0.15
17 0.15
18 0.15
19 0.15
2 -0.8
20 0.37
21 0.37
3 -0.56
4 0.03
5 -0.15
6 -0.15
7 -0.18
8 -0.15
9 -0.15

> <PUBCHEM_EFFECTIVE_ROTOR_COUNT>
2

> <PUBCHEM_PHARMACOPHORE_FEATURES>
4
1 1 acceptor
1 2 donor
1 3 acceptor
6 4 5 6 8 9 10 rings

> <PUBCHEM_HEAVY_ATOM_COUNT>
13

> <PUBCHEM_ATOM_DEF_STEREO_COUNT>
0

> <PUBCHEM_ATOM_UDEF_STEREO_COUNT>
0

> <PUBCHEM_BOND_DEF_STEREO_COUNT>
0

> <PUBCHEM_BOND_UDEF_STEREO_COUNT>
1

> <PUBCHEM_ISOTOPIC_ATOM_COUNT>
0

> <PUBCHEM_COMPONENT_COUNT>
1

> <PUBCHEM_CACTVS_TAUTO_COUNT>
2

> <PUBCHEM_CONFORMER_ID>
0000321700000001

> <PUBCHEM_MMFF94_ENERGY>
33.5871

> <PUBCHEM_FEATURE_SELFOVERLAP>
20.297

> <PUBCHEM_SHAPE_FINGERPRINT>
10219947 1 18342455920033376652
107287 299 18271799138100291470
12932764 1 17531254984371337841
13581323 91 14979956969334434729
14251717 144 18408606967471150918
15207287 21 17846500301008849179
15219456 202 18059858410701659191
15279307 12 17894916239013206647
15309172 13 18411979126667880258
15375358 24 17989495129991440725
15375462 189 17894349977797943635
15775835 57 18260831475116207725
16945 1 18410292527365178656
18175812 5 17775566416386251444
18186145 218 18261670390036140284
190213 19 17458062668278839509
19422 9 17458340840415000796
200 152 18261682531866254181
20201158 50 18131069359300891675
20279233 1 17989485242918767827
204376 136 18339644413283037672
20645464 45 17561362898637654865
20645477 70 18265342874879324975
21061003 4 18342168951814833685
21499 59 18337111151166527668
21730867 7 18342455971520171670
23236772 104 17603865576965413329
23402539 116 16845303713312545055
23557571 272 17132111372952117671
23559900 14 16630535059276858360
23728640 28 15314918101448493315
474 4 17461176356819177608
53748568 43 17821728355643020511
581208 293 18408606963397606242
633830 44 18115008754304816140
77492 1 17675925404112158309
81228 2 17620200832357193650

> <PUBCHEM_SHAPE_MULTIPOLES>
251.7
6.24
1.5
1.07
0.96
0.87
-0.01
-0.65
-0.01
1.39
0.04
-1.09
-0.08
0.11

> <PUBCHEM_SHAPE_SELFOVERLAP>
526.328

> <PUBCHEM_SHAPE_VOLUME>
140

> <PUBCHEM_COORDINATE_TYPE>
2
5
10

$$$$

