93460
  -OEChem-07051213113D

 40 41  0     1  0  0  0  0  0999 V2000
   -7.7789    0.0694    0.6719 Cl  0  0  0  0  0  0  0  0  0  0  0  0
    3.4234    0.9665    0.6196 S   0  0  0  0  0  0  0  0  0  0  0  0
    2.7867   -0.5176   -0.7304 P   0  0  2  0  0  0  0  0  0  0  0  0
    1.2920   -1.0271   -0.3640 O   0  0  0  0  0  0  0  0  0  0  0  0
    3.6560   -1.8764   -0.5167 O   0  0  0  0  0  0  0  0  0  0  0  0
    2.8980   -0.0326   -2.1531 O   0  0  0  0  0  0  0  0  0  0  0  0
   -1.9588    0.2239   -0.2416 N   0  0  0  0  0  0  0  0  0  0  0  0
   -1.3643    1.3561   -0.6549 N   0  0  0  0  0  0  0  0  0  0  0  0
    5.1420    1.2962    0.1836 C   0  0  0  0  0  0  0  0  0  0  0  0
    5.7291    2.3663    1.0973 C   0  0  0  0  0  0  0  0  0  0  0  0
    0.1322   -0.3279   -0.3938 C   0  0  0  0  0  0  0  0  0  0  0  0
   -3.3346    0.1875   -0.0254 C   0  0  0  0  0  0  0  0  0  0  0  0
   -1.0977   -0.8199   -0.0699 C   0  0  0  0  0  0  0  0  0  0  0  0
   -0.0781    1.0074   -0.7459 C   0  0  0  0  0  0  0  0  0  0  0  0
    7.1811    2.6523    0.7433 C   0  0  0  0  0  0  0  0  0  0  0  0
    3.6916   -2.5050    0.7530 C   0  0  0  0  0  0  0  0  0  0  0  0
   -3.9316   -0.9919    0.4034 C   0  0  0  0  0  0  0  0  0  0  0  0
   -4.0945    1.3306   -0.2417 C   0  0  0  0  0  0  0  0  0  0  0  0
   -5.3092   -1.0288    0.6188 C   0  0  0  0  0  0  0  0  0  0  0  0
   -5.4720    1.2939   -0.0261 C   0  0  0  0  0  0  0  0  0  0  0  0
    4.5670   -3.7372    0.6687 C   0  0  0  0  0  0  0  0  0  0  0  0
   -6.0795    0.1142    0.4041 C   0  0  0  0  0  0  0  0  0  0  0  0
    5.1830    1.6201   -0.8614 H   0  0  0  0  0  0  0  0  0  0  0  0
    5.7100    0.3644    0.2699 H   0  0  0  0  0  0  0  0  0  0  0  0
    5.1564    3.2979    1.0125 H   0  0  0  0  0  0  0  0  0  0  0  0
    5.6798    2.0440    2.1446 H   0  0  0  0  0  0  0  0  0  0  0  0
   -1.3796   -1.8102    0.2567 H   0  0  0  0  0  0  0  0  0  0  0  0
    7.7953    1.7523    0.8491 H   0  0  0  0  0  0  0  0  0  0  0  0
    7.5884    3.4215    1.4069 H   0  0  0  0  0  0  0  0  0  0  0  0
    7.2704    3.0107   -0.2873 H   0  0  0  0  0  0  0  0  0  0  0  0
    0.6364    1.7507   -1.0685 H   0  0  0  0  0  0  0  0  0  0  0  0
    2.6766   -2.7855    1.0501 H   0  0  0  0  0  0  0  0  0  0  0  0
    4.0993   -1.8146    1.4963 H   0  0  0  0  0  0  0  0  0  0  0  0
   -3.3888   -1.9120    0.5880 H   0  0  0  0  0  0  0  0  0  0  0  0
   -3.6615    2.2693   -0.5767 H   0  0  0  0  0  0  0  0  0  0  0  0
   -5.7698   -1.9545    0.9545 H   0  0  0  0  0  0  0  0  0  0  0  0
   -6.0602    2.1920   -0.1971 H   0  0  0  0  0  0  0  0  0  0  0  0
    4.6162   -4.2485    1.6341 H   0  0  0  0  0  0  0  0  0  0  0  0
    4.1798   -4.4346   -0.0814 H   0  0  0  0  0  0  0  0  0  0  0  0
    5.5823   -3.4681    0.3590 H   0  0  0  0  0  0  0  0  0  0  0  0
  1 22  1  0  0  0  0
  2  3  1  0  0  0  0
  2  9  1  0  0  0  0
  3  4  1  0  0  0  0
  3  5  1  0  0  0  0
  3  6  2  0  0  0  0
  4 11  1  0  0  0  0
  5 16  1  0  0  0  0
  7  8  1  0  0  0  0
  7 12  1  0  0  0  0
  7 13  1  0  0  0  0
  8 14  2  0  0  0  0
  9 10  1  0  0  0  0
  9 23  1  0  0  0  0
  9 24  1  0  0  0  0
 10 15  1  0  0  0  0
 10 25  1  0  0  0  0
 10 26  1  0  0  0  0
 11 13  2  0  0  0  0
 11 14  1  0  0  0  0
 12 17  2  0  0  0  0
 12 18  1  0  0  0  0
 13 27  1  0  0  0  0
 14 31  1  0  0  0  0
 15 28  1  0  0  0  0
 15 29  1  0  0  0  0
 15 30  1  0  0  0  0
 16 21  1  0  0  0  0
 16 32  1  0  0  0  0
 16 33  1  0  0  0  0
 17 19  1  0  0  0  0
 17 34  1  0  0  0  0
 18 20  2  0  0  0  0
 18 35  1  0  0  0  0
 19 22  2  0  0  0  0
 19 36  1  0  0  0  0
 20 22  1  0  0  0  0
 20 37  1  0  0  0  0
 21 38  1  0  0  0  0
 21 39  1  0  0  0  0
 21 40  1  0  0  0  0
M  END
> <PUBCHEM_COMPOUND_CID>
93460

> <PUBCHEM_CONFORMER_RMSD>
0.8

> <PUBCHEM_CONFORMER_DIVERSEORDER>
1
404
424
455
451
10
369
165
3
423
31
139
239
292
137
196
335
298
337
283
158
299
415
38
358
76
406
229
326
60
330
387
26
181
52
109
440
275
92
130
95
388
73
334
262
366
417
121
361
35
248
403
131
200
221
18
220
40
227
378
352
266
432
377
152
441
316
270
290
459
253
287
255
407
256
445
237
309
13
154
228
235
140
82
48
141
374
24
449
443
448
435
364
37
23
453
348
64
161
245
307
15
177
313
83
356
408
431
350
338
7
430
84
53
306
465
55
357
2
78
79
246
282
93
321
444
333
197
353
88
393
17
428
296
218
201
433
169
368
454
224
138
252
205
128
231
389
276
261
219
243
115
409
58
47
244
68
325
412
33
164
425
62
170
422
111
54
180
223
108
297
99
192
452
392
225
14
386
342
74
119
263
419
124
446
328
123
300
144
188
457
46
22
390
327
370
397
213
462
147
384
318
314
186
284
347
426
153
259
382
421
113
418
416
371
43
240
271
278
70
232
133
32
27
301
127
436
272
277
281
461
179
355
295
324
226
311
317
268
183
332
19
413
312
8
167
142
12
91
89
56
315
379
381
236
230
383
344
216
203
310
372
289
241
174
87
434
20
175
395
439
285
303
341
157
354
176
75
380
365
249
16
398
67
66
360
302
77
101
238
63
215
168
184
375
279
71
185
288
394
182
114
193
401
5
160
105
429
251
129
190
305
267
45
456
194
81
458
414
460
217
134
25
146
447
442
208
331
126
28
61
4
204
162
166
51
346
464
69
117
163
110
21
373
273
155
85
320
250
402
171
258
304
30
173
345
207
340
103
254
202
351
265
322
39
339
391
72
264
438
211
42
118
41
135
102
286
36
463
136
6
145
257
107
94
148
323
159
376
209
100
405
98
80
29
367
363
106
122
143
57
11
199
191
234
151
9
222
399
59
195
156
336
132
104
212
172
349
293
260
150
400
34
274
189
120
50
125
187
308
233
269
291
450
214
411
97
149
112
319
437
49
210
247
178
410
329
427
242
90
44
116
280
65
96
362
206
385
420
86
294
343
359
198
396

> <PUBCHEM_MMFF94_PARTIAL_CHARGES>
25
1 -0.18
11 0.06
12 -0.02
13 -0.3
14 0.14
16 0.28
17 -0.15
18 -0.15
19 -0.15
2 -0.48
20 -0.15
22 0.18
27 0.15
3 1.49
31 0.15
34 0.15
35 0.15
36 0.15
37 0.15
4 -0.33
5 -0.55
6 -0.7
7 0.59
8 -0.71
9 0.23

> <PUBCHEM_EFFECTIVE_ROTOR_COUNT>
8

> <PUBCHEM_PHARMACOPHORE_FEATURES>
5
1 15 hydrophobe
1 6 acceptor
1 8 acceptor
5 7 8 11 13 14 rings
6 12 17 18 19 20 22 rings

> <PUBCHEM_HEAVY_ATOM_COUNT>
22

> <PUBCHEM_ATOM_DEF_STEREO_COUNT>
0

> <PUBCHEM_ATOM_UDEF_STEREO_COUNT>
1

> <PUBCHEM_BOND_DEF_STEREO_COUNT>
0

> <PUBCHEM_BOND_UDEF_STEREO_COUNT>
0

> <PUBCHEM_ISOTOPIC_ATOM_COUNT>
0

> <PUBCHEM_COMPONENT_COUNT>
1

> <PUBCHEM_CACTVS_TAUTO_COUNT>
1

> <PUBCHEM_CONFORMER_ID>
00016D1400000001

> <PUBCHEM_MMFF94_ENERGY>
29.1566

> <PUBCHEM_FEATURE_SELFOVERLAP>
25.371

> <PUBCHEM_SHAPE_FINGERPRINT>
10 15 18341050731209146953
10835480 77 18412270562381301413
12616971 3 17749401407142214127
12730499 353 18409445874074994538
12788726 201 17168137966394552480
13073987 5 18411697720938517841
13533116 47 18342454893594481634
13540713 4 17843982544315108636
13955234 65 18410863192035107426
14461889 52 18201153248188705234
14565420 104 18336272228706758736
15475509 35 17059225898699762322
17844677 252 18337666533403443137
1813 80 16702299074708824807
21049683 271 18199462333709986822
21130935 74 18412538847729600763
21267235 1 18059000817903399395
21792934 111 18200878482642032669
22224240 67 18340492157716415968
23559900 14 17988634246578312558
249999 5 18410298026010384514
3004659 81 17632288033942683751
3411729 13 18408888421911872522
34797466 226 17531237379389997509
4073 2 18342735165721847867
4340502 62 18343585123149800162
5104073 3 18339354275272830577
5385378 56 18409174303656917528

> <PUBCHEM_SHAPE_MULTIPOLES>
434.75
19.31
2.88
1.07
9.45
1.96
-0.27
-7.12
6.83
-7.71
0.95
-0.92
-0.04
1.11

> <PUBCHEM_SHAPE_SELFOVERLAP>
857.013

> <PUBCHEM_SHAPE_VOLUME>
264

> <PUBCHEM_COORDINATE_TYPE>
2
5
10

$$$$

