5281476
  -OEChem-07051212572D

 56 58  0     1  0  0  0  0  0999 V2000
    9.2058    2.1490    0.0000 O   0  0  0  0  0  0  0  0  0  0  0  0
    8.6685   -1.6800    0.0000 O   0  0  0  0  0  0  0  0  0  0  0  0
    6.2812    0.3478    0.0000 O   0  0  0  0  0  0  0  0  0  0  0  0
   10.9619    1.6464    0.0000 O   0  0  0  0  0  0  0  0  0  0  0  0
    7.3706   -2.8929    0.0000 O   0  0  0  0  0  0  0  0  0  0  0  0
    5.9805    2.0535    0.0000 O   0  0  0  0  0  0  0  0  0  0  0  0
    3.3268   -0.1732    0.0000 O   0  0  0  0  0  0  0  0  0  0  0  0
    3.6276   -1.8789    0.0000 O   0  0  0  0  0  0  0  0  0  0  0  0
    8.2058    2.1490    0.0000 C   0  0  2  0  0  0  0  0  0  0  0  0
    7.7661   -0.3446    0.0000 C   0  0  2  0  0  0  0  0  0  0  0  0
    7.2661    0.5214    0.0000 C   0  0  1  0  0  0  0  0  0  0  0  0
    7.4397    1.5062    0.0000 C   0  0  0  0  0  0  0  0  0  0  0  0
    8.7058   -0.6866    0.0000 C   0  0  1  0  0  0  0  0  0  0  0  0
    9.9718    1.5062    0.0000 C   0  0  1  0  0  0  0  0  0  0  0  0
    8.9261    2.8418    0.0000 C   0  0  0  0  0  0  0  0  0  0  0  0
    7.1561   -1.1295    0.0000 C   0  0  0  0  0  0  0  0  0  0  0  0
   10.1454    0.5214    0.0000 C   0  0  0  0  0  0  0  0  0  0  0  0
    9.6454   -0.3446    0.0000 C   0  0  0  0  0  0  0  0  0  0  0  0
    7.5374    2.8929    0.0000 C   0  0  0  0  0  0  0  0  0  0  0  0
    9.8652    2.4999    0.0000 C   0  0  0  0  0  0  0  0  0  0  0  0
    7.7127   -1.9532    0.0000 C   0  0  0  0  0  0  0  0  0  0  0  0
   11.1303    0.3478    0.0000 C   0  0  0  0  0  0  0  0  0  0  0  0
    6.1566   -1.0964    0.0000 C   0  0  0  0  0  0  0  0  0  0  0  0
    5.6385    1.1138    0.0000 C   0  0  0  0  0  0  0  0  0  0  0  0
    4.6537    0.9402    0.0000 C   0  0  0  0  0  0  0  0  0  0  0  0
    4.3116    0.0005    0.0000 C   0  0  0  0  0  0  0  0  0  0  0  0
    4.0109    1.7062    0.0000 C   0  0  0  0  0  0  0  0  0  0  0  0
    4.3529    2.6459    0.0000 C   0  0  0  0  0  0  0  0  0  0  0  0
    2.9848   -1.1129    0.0000 C   0  0  0  0  0  0  0  0  0  0  0  0
    2.0000   -1.2865    0.0000 C   0  0  0  0  0  0  0  0  0  0  0  0
    6.9673   -0.0539    0.0000 H   0  0  0  0  0  0  0  0  0  0  0  0
    6.8276    0.9598    0.0000 H   0  0  0  0  0  0  0  0  0  0  0  0
    7.1941    2.0755    0.0000 H   0  0  0  0  0  0  0  0  0  0  0  0
    6.8239    1.4343    0.0000 H   0  0  0  0  0  0  0  0  0  0  0  0
    9.5045   -0.9773    0.0000 H   0  0  0  0  0  0  0  0  0  0  0  0
    8.7978    3.4483    0.0000 H   0  0  0  0  0  0  0  0  0  0  0  0
   10.0440   -0.8195    0.0000 H   0  0  0  0  0  0  0  0  0  0  0  0
    7.9986    3.3072    0.0000 H   0  0  0  0  0  0  0  0  0  0  0  0
    7.1230    3.3541    0.0000 H   0  0  0  0  0  0  0  0  0  0  0  0
    7.0762    2.4785    0.0000 H   0  0  0  0  0  0  0  0  0  0  0  0
   10.3534    2.8822    0.0000 H   0  0  0  0  0  0  0  0  0  0  0  0
   11.0226   -0.2628    0.0000 H   0  0  0  0  0  0  0  0  0  0  0  0
   11.7408    0.2401    0.0000 H   0  0  0  0  0  0  0  0  0  0  0  0
   11.2379    0.9584    0.0000 H   0  0  0  0  0  0  0  0  0  0  0  0
   11.1936    2.2216    0.0000 H   0  0  0  0  0  0  0  0  0  0  0  0
    5.8646   -0.5494    0.0000 H   0  0  0  0  0  0  0  0  0  0  0  0
    5.8290   -1.6227    0.0000 H   0  0  0  0  0  0  0  0  0  0  0  0
    4.3116   -0.6195    0.0000 H   0  0  0  0  0  0  0  0  0  0  0  0
    4.9222   -0.1072    0.0000 H   0  0  0  0  0  0  0  0  0  0  0  0
    3.4003    1.5986    0.0000 H   0  0  0  0  0  0  0  0  0  0  0  0
    4.9355    2.4339    0.0000 H   0  0  0  0  0  0  0  0  0  0  0  0
    4.5649    3.2285    0.0000 H   0  0  0  0  0  0  0  0  0  0  0  0
    3.7703    2.8580    0.0000 H   0  0  0  0  0  0  0  0  0  0  0  0
    1.8923   -0.6759    0.0000 H   0  0  0  0  0  0  0  0  0  0  0  0
    1.3894   -1.3942    0.0000 H   0  0  0  0  0  0  0  0  0  0  0  0
    2.1077   -1.8971    0.0000 H   0  0  0  0  0  0  0  0  0  0  0  0
  1  9  1  0  0  0  0
  1 14  1  0  0  0  0
  2 13  1  0  0  0  0
  2 21  1  0  0  0  0
 11  3  1  6  0  0  0
  3 24  1  0  0  0  0
 14  4  1  1  0  0  0
  4 45  1  0  0  0  0
  5 21  2  0  0  0  0
  6 24  2  0  0  0  0
  7 26  1  0  0  0  0
  7 29  1  0  0  0  0
  8 29  2  0  0  0  0
  9 12  1  0  0  0  0
  9 15  1  0  0  0  0
  9 19  1  1  0  0  0
 10 11  1  0  0  0  0
 10 13  1  0  0  0  0
 10 16  1  0  0  0  0
 10 31  1  1  0  0  0
 11 12  1  0  0  0  0
 11 32  1  0  0  0  0
 12 33  1  0  0  0  0
 12 34  1  0  0  0  0
 13 18  1  0  0  0  0
 13 35  1  6  0  0  0
 14 17  1  0  0  0  0
 14 20  1  0  0  0  0
 15 20  2  0  0  0  0
 15 36  1  0  0  0  0
 16 21  1  0  0  0  0
 16 23  2  0  0  0  0
 17 18  2  0  0  0  0
 17 22  1  0  0  0  0
 18 37  1  0  0  0  0
 19 38  1  0  0  0  0
 19 39  1  0  0  0  0
 19 40  1  0  0  0  0
 20 41  1  0  0  0  0
 22 42  1  0  0  0  0
 22 43  1  0  0  0  0
 22 44  1  0  0  0  0
 23 46  1  0  0  0  0
 23 47  1  0  0  0  0
 24 25  1  0  0  0  0
 25 26  1  0  0  0  0
 25 27  2  0  0  0  0
 26 48  1  0  0  0  0
 26 49  1  0  0  0  0
 27 28  1  0  0  0  0
 27 50  1  0  0  0  0
 28 51  1  0  0  0  0
 28 52  1  0  0  0  0
 28 53  1  0  0  0  0
 29 30  1  0  0  0  0
 30 54  1  0  0  0  0
 30 55  1  0  0  0  0
 30 56  1  0  0  0  0
M  END
> <PUBCHEM_COMPOUND_CID>
5281476

> <PUBCHEM_COMPOUND_CANONICALIZED>
1

> <PUBCHEM_CACTVS_COMPLEXITY>
882

> <PUBCHEM_CACTVS_HBOND_ACCEPTOR>
8

> <PUBCHEM_CACTVS_HBOND_DONOR>
1

> <PUBCHEM_CACTVS_ROTATABLE_BOND>
6

> <PUBCHEM_CACTVS_SUBSKEYS>
AAADceB4PAAAAAAAAAAAAAAAAAAAASIAAAAAAAAAAAAAAECAAAAAGgAACAAADVSggAICCAAABgCIAiDSCAAAAAAgAAAICAEAAEgQBBYAIQACUAAF4AAMMYPK6HyOAAAAAAAAAAAAAAAAAAAAAAAAAAAAAA==

> <PUBCHEM_IUPAC_INCHI>
InChI=1S/C22H26O8/c1-6-15(11-27-14(4)23)20(25)29-17-10-21(5)7-8-22(26,30-21)12(2)9-16-18(17)13(3)19(24)28-16/h6-9,16-18,26H,3,10-11H2,1-2,4-5H3/b12-9-,15-6-/t16-,17-,18+,21+,22-/m1/s1

> <PUBCHEM_IUPAC_INCHIKEY>
PVBVYSOUXOHMEA-ACUBEUJWSA-N

> <PUBCHEM_XLOGP3>
1.2

> <PUBCHEM_EXACT_MASS>
418.162768

> <PUBCHEM_MOLECULAR_FORMULA>
C22H26O8

> <PUBCHEM_MOLECULAR_WEIGHT>
418.43704

> <PUBCHEM_OPENEYE_CAN_SMILES>
CC=C(COC(=O)C)C(=O)OC1CC2(C=CC(O2)(C(=CC3C1C(=C)C(=O)O3)C)O)C

> <PUBCHEM_OPENEYE_ISO_SMILES>
C/C=C(/COC(=O)C)\C(=O)O[C@@H]1C[C@@]2(C=C[C@@](O2)(/C(=C\[C@@H]3[C@@H]1C(=C)C(=O)O3)/C)O)C

> <PUBCHEM_CACTVS_TPSA>
108

> <PUBCHEM_MONOISOTOPIC_WEIGHT>
418.162768

> <PUBCHEM_TOTAL_CHARGE>
0

> <PUBCHEM_HEAVY_ATOM_COUNT>
30

> <PUBCHEM_ATOM_DEF_STEREO_COUNT>
5

> <PUBCHEM_ATOM_UDEF_STEREO_COUNT>
0

> <PUBCHEM_BOND_DEF_STEREO_COUNT>
2

> <PUBCHEM_BOND_UDEF_STEREO_COUNT>
0

> <PUBCHEM_ISOTOPIC_ATOM_COUNT>
0

> <PUBCHEM_COMPONENT_COUNT>
1

> <PUBCHEM_CACTVS_TAUTO_COUNT>
1

> <PUBCHEM_COORDINATE_TYPE>
1
5
255

> <PUBCHEM_BONDANNOTATIONS>
10  31  5
13  35  6
11  3  6
14  4  5
9  19  5

$$$$

