11349616
  -OEChem-07051212463D

 50 51  0     1  0  0  0  0  0999 V2000
    0.7209   -0.5144    0.0462 O   0  0  0  0  0  0  0  0  0  0  0  0
   -1.4656   -0.3882    0.9541 O   0  0  0  0  0  0  0  0  0  0  0  0
    2.7315    1.0388   -1.5142 O   0  0  0  0  0  0  0  0  0  0  0  0
    3.1806    1.2442    2.0542 O   0  0  0  0  0  0  0  0  0  0  0  0
    0.9470   -3.1606    0.9526 O   0  0  0  0  0  0  0  0  0  0  0  0
   -1.4395   -4.3654   -0.1559 O   0  0  0  0  0  0  0  0  0  0  0  0
   -3.0038   -2.4832   -1.6599 O   0  0  0  0  0  0  0  0  0  0  0  0
    3.4072   -1.5080   -0.3064 O   0  0  0  0  0  0  0  0  0  0  0  0
    4.9361    0.2840   -1.7518 O   0  0  0  0  0  0  0  0  0  0  0  0
   -3.1642    1.4857   -0.0735 O   0  0  0  0  0  0  0  0  0  0  0  0
    0.8258    3.5351    0.3591 O   0  0  0  0  0  0  0  0  0  0  0  0
   -5.4045    1.9952   -0.0777 O   0  0  0  0  0  0  0  0  0  0  0  0
    1.4010    0.6531    0.5174 C   0  0  1  0  0  0  0  0  0  0  0  0
   -0.1851   -1.0186    1.0258 C   0  0  1  0  0  0  0  0  0  0  0  0
    2.6678    0.1886    1.2476 C   0  0  1  0  0  0  0  0  0  0  0  0
   -0.3335   -2.5395    0.9611 C   0  0  1  0  0  0  0  0  0  0  0  0
    1.6861    1.5663   -0.6876 C   0  0  1  0  0  0  0  0  0  0  0  0
   -1.1167   -2.9779   -0.2748 C   0  0  2  0  0  0  0  0  0  0  0  0
   -2.4228   -2.1897   -0.3915 C   0  0  1  0  0  0  0  0  0  0  0  0
   -2.1748   -0.6813   -0.2551 C   0  0  1  0  0  0  0  0  0  0  0  0
    3.7607   -0.2501    0.2703 C   0  0  2  0  0  0  0  0  0  0  0  0
    3.9616    0.7847   -0.8387 C   0  0  2  0  0  0  0  0  0  0  0  0
    1.9644    3.0187   -0.3051 C   0  0  0  0  0  0  0  0  0  0  0  0
   -3.4780    0.1120   -0.2106 C   0  0  0  0  0  0  0  0  0  0  0  0
   -4.2290    2.3553   -0.0163 C   0  0  0  0  0  0  0  0  0  0  0  0
   -3.7736    3.8153    0.1306 C   0  0  0  0  0  0  0  0  0  0  0  0
    0.7447    1.1902    1.2125 H   0  0  0  0  0  0  0  0  0  0  0  0
    0.2082   -0.8010    2.0269 H   0  0  0  0  0  0  0  0  0  0  0  0
    2.4347   -0.6485    1.9152 H   0  0  0  0  0  0  0  0  0  0  0  0
   -0.8616   -2.8952    1.8545 H   0  0  0  0  0  0  0  0  0  0  0  0
    0.7867    1.5617   -1.3174 H   0  0  0  0  0  0  0  0  0  0  0  0
   -0.5058   -2.8733   -1.1800 H   0  0  0  0  0  0  0  0  0  0  0  0
   -3.1253   -2.5255    0.3823 H   0  0  0  0  0  0  0  0  0  0  0  0
   -1.5856   -0.3095   -1.1041 H   0  0  0  0  0  0  0  0  0  0  0  0
    4.7102   -0.4015    0.7977 H   0  0  0  0  0  0  0  0  0  0  0  0
    4.3594    1.7162   -0.4223 H   0  0  0  0  0  0  0  0  0  0  0  0
    2.1403    3.6147   -1.2069 H   0  0  0  0  0  0  0  0  0  0  0  0
    2.8431    3.1461    0.3324 H   0  0  0  0  0  0  0  0  0  0  0  0
   -4.0755   -0.1995    0.6548 H   0  0  0  0  0  0  0  0  0  0  0  0
   -4.0555   -0.0466   -1.1283 H   0  0  0  0  0  0  0  0  0  0  0  0
    3.9564    0.9025    2.5305 H   0  0  0  0  0  0  0  0  0  0  0  0
    1.4431   -2.8065    0.1947 H   0  0  0  0  0  0  0  0  0  0  0  0
   -1.8170   -4.6542   -1.0036 H   0  0  0  0  0  0  0  0  0  0  0  0
   -3.2833   -3.4139   -1.6496 H   0  0  0  0  0  0  0  0  0  0  0  0
    4.1042   -1.7423   -0.9427 H   0  0  0  0  0  0  0  0  0  0  0  0
    5.3366    1.0528   -2.1920 H   0  0  0  0  0  0  0  0  0  0  0  0
    0.8996    3.3033    1.3002 H   0  0  0  0  0  0  0  0  0  0  0  0
   -4.6551    4.4603    0.1791 H   0  0  0  0  0  0  0  0  0  0  0  0
   -3.2003    3.9241    1.0542 H   0  0  0  0  0  0  0  0  0  0  0  0
   -3.1724    4.0957   -0.7373 H   0  0  0  0  0  0  0  0  0  0  0  0
  1 13  1  0  0  0  0
  1 14  1  0  0  0  0
  2 14  1  0  0  0  0
  2 20  1  0  0  0  0
  3 17  1  0  0  0  0
  3 22  1  0  0  0  0
  4 15  1  0  0  0  0
  4 41  1  0  0  0  0
  5 16  1  0  0  0  0
  5 42  1  0  0  0  0
  6 18  1  0  0  0  0
  6 43  1  0  0  0  0
  7 19  1  0  0  0  0
  7 44  1  0  0  0  0
  8 21  1  0  0  0  0
  8 45  1  0  0  0  0
  9 22  1  0  0  0  0
  9 46  1  0  0  0  0
 10 24  1  0  0  0  0
 10 25  1  0  0  0  0
 11 23  1  0  0  0  0
 11 47  1  0  0  0  0
 12 25  2  0  0  0  0
 13 15  1  0  0  0  0
 13 17  1  0  0  0  0
 13 27  1  0  0  0  0
 14 16  1  0  0  0  0
 14 28  1  0  0  0  0
 15 21  1  0  0  0  0
 15 29  1  0  0  0  0
 16 18  1  0  0  0  0
 16 30  1  0  0  0  0
 17 23  1  0  0  0  0
 17 31  1  0  0  0  0
 18 19  1  0  0  0  0
 18 32  1  0  0  0  0
 19 20  1  0  0  0  0
 19 33  1  0  0  0  0
 20 24  1  0  0  0  0
 20 34  1  0  0  0  0
 21 22  1  0  0  0  0
 21 35  1  0  0  0  0
 22 36  1  0  0  0  0
 23 37  1  0  0  0  0
 23 38  1  0  0  0  0
 24 39  1  0  0  0  0
 24 40  1  0  0  0  0
 25 26  1  0  0  0  0
 26 48  1  0  0  0  0
 26 49  1  0  0  0  0
 26 50  1  0  0  0  0
M  END
> <PUBCHEM_COMPOUND_CID>
11349616

> <PUBCHEM_CONFORMER_RMSD>
1

> <PUBCHEM_CONFORMER_DIVERSEORDER>
1
10
65
37
104
62
110
36
45
119
118
126
142
122
9
117
108
54
139
96
39
127
15
99
3
31
86
87
135
102
77
146
71
134
21
35
103
89
19
41
2
97
80
66
111
58
114
20
84
133
24
40
8
143
141
124
42
46
56
64
14
47
78
7
106
22
83
26
129
25
140
92
100
33
50
72
63
23
76
73
57
112
30
44
61
123
55
67
16
6
121
93
27
32
147
113
88
49
18
85
109
115
11
70
5
69
136
28
130
52
34
95
144
38
101
138
98
13
75
43
131
107
81
51
116
68
145
29
74
48
59
79
132
53
90
137
17
82
128
12
105
94
91
60
4
120
125

> <PUBCHEM_MMFF94_PARTIAL_CHARGES>
33
1 -0.56
10 -0.43
11 -0.68
12 -0.57
13 0.28
14 0.56
15 0.28
16 0.28
17 0.28
18 0.28
19 0.28
2 -0.56
20 0.28
21 0.28
22 0.56
23 0.28
24 0.28
25 0.66
26 0.06
3 -0.56
4 -0.68
41 0.4
42 0.4
43 0.4
44 0.4
45 0.4
46 0.4
47 0.4
5 -0.68
6 -0.68
7 -0.68
8 -0.68
9 -0.68

> <PUBCHEM_EFFECTIVE_ROTOR_COUNT>
8.4

> <PUBCHEM_PHARMACOPHORE_FEATURES>
20
1 1 acceptor
1 11 acceptor
1 11 donor
1 12 acceptor
1 2 acceptor
1 3 acceptor
1 4 acceptor
1 4 donor
1 5 acceptor
1 5 donor
1 6 acceptor
1 6 donor
1 7 acceptor
1 7 donor
1 8 acceptor
1 8 donor
1 9 acceptor
1 9 donor
6 2 14 16 18 19 20 rings
6 3 13 15 17 21 22 rings

> <PUBCHEM_HEAVY_ATOM_COUNT>
26

> <PUBCHEM_ATOM_DEF_STEREO_COUNT>
9

> <PUBCHEM_ATOM_UDEF_STEREO_COUNT>
1

> <PUBCHEM_BOND_DEF_STEREO_COUNT>
0

> <PUBCHEM_BOND_UDEF_STEREO_COUNT>
0

> <PUBCHEM_ISOTOPIC_ATOM_COUNT>
0

> <PUBCHEM_COMPONENT_COUNT>
1

> <PUBCHEM_CACTVS_TAUTO_COUNT>
1

> <PUBCHEM_CONFORMER_ID>
00AD2E7000000001

> <PUBCHEM_MMFF94_ENERGY>
72.3755

> <PUBCHEM_FEATURE_SELFOVERLAP>
101.598

> <PUBCHEM_SHAPE_FINGERPRINT>
11578080 2 17459758020788473976
11582403 64 16087059612261093203
12173636 292 18336839623540056351
12422481 6 17551822607730833944
12788726 201 18053946147859075083
14178342 30 18266761094486644442
14251757 5 18339065039142893028
14790565 3 18268702982113608460
16752209 62 18339646629027363115
17093844 170 18265332992270092884
19591789 44 18050569839343876213
19930381 70 16897929359164251397
20465049 17 18339066186051673861
20600515 1 18263663821913641208
21524375 3 18201722873016851299
21864079 5 18200030634011120609
23557571 272 17969512497814204632
23558518 356 18127695915676579027
23559900 14 18047473314368962738
350125 39 18412256217152972819
474 4 18130226081438140753
5895379 119 18339649915146940352
7164475 11 18192158096602072111
74978 22 18196369221862390930
7832392 63 18410864286344159411
9709674 26 18047472227594777710

> <PUBCHEM_SHAPE_MULTIPOLES>
464.64
8.5
4.86
1.27
1.85
0.83
0.01
-6.02
-1.98
4.48
-0.02
-1.16
0.13
-0.84

> <PUBCHEM_SHAPE_SELFOVERLAP>
947.683

> <PUBCHEM_SHAPE_VOLUME>
264.1

> <PUBCHEM_COORDINATE_TYPE>
2
5
10

$$$$

