441591
  -OEChem-07051212553D

 43 46  0     1  0  0  0  0  0999 V2000
   -1.0824   -1.5117   -1.9103 O   0  0  0  0  0  0  0  0  0  0  0  0
   -4.8504   -2.2327    0.8902 O   0  0  0  0  0  0  0  0  0  0  0  0
    4.9317    0.1135    0.3371 O   0  0  0  0  0  0  0  0  0  0  0  0
    3.7396   -2.3915    0.2982 O   0  0  0  0  0  0  0  0  0  0  0  0
   -0.8547    2.0915    0.4332 N   0  0  2  0  0  0  0  0  0  0  0  0
   -1.3016    0.9607   -0.3766 C   0  0  1  0  0  0  0  0  0  0  0  0
   -0.7435   -0.3349    0.2059 C   0  0  1  0  0  0  0  0  0  0  0  0
   -2.7804    1.0488   -0.3099 C   0  0  0  0  0  0  0  0  0  0  0  0
   -1.4306   -1.5158   -0.5225 C   0  0  1  0  0  0  0  0  0  0  0  0
   -2.9890   -1.4498   -0.3869 C   0  0  2  0  0  0  0  0  0  0  0  0
   -1.7680    3.1755    0.0550 C   0  0  0  0  0  0  0  0  0  0  0  0
   -3.1443    2.4823   -0.0616 C   0  0  0  0  0  0  0  0  0  0  0  0
    0.7760   -0.2372    0.1958 C   0  0  0  0  0  0  0  0  0  0  0  0
    0.5667    2.3314    0.1901 C   0  0  0  0  0  0  0  0  0  0  0  0
   -3.5596   -0.0395   -0.3178 C   0  0  0  0  0  0  0  0  0  0  0  0
    1.3897    1.0455    0.2454 C   0  0  0  0  0  0  0  0  0  0  0  0
   -3.4371   -2.2089    0.8675 C   0  0  0  0  0  0  0  0  0  0  0  0
    1.5854   -1.3799    0.2285 C   0  0  0  0  0  0  0  0  0  0  0  0
    2.7877    1.1439    0.2826 C   0  0  0  0  0  0  0  0  0  0  0  0
    2.9757   -1.2628    0.2727 C   0  0  0  0  0  0  0  0  0  0  0  0
    3.5752   -0.0058    0.2970 C   0  0  0  0  0  0  0  0  0  0  0  0
    5.6138    0.1772   -0.9138 C   0  0  0  0  0  0  0  0  0  0  0  0
   -0.9998    1.0930   -1.4283 H   0  0  0  0  0  0  0  0  0  0  0  0
   -1.0192   -0.4097    1.2698 H   0  0  0  0  0  0  0  0  0  0  0  0
   -1.0692   -2.4691   -0.1214 H   0  0  0  0  0  0  0  0  0  0  0  0
   -3.4492   -1.9253   -1.2636 H   0  0  0  0  0  0  0  0  0  0  0  0
   -1.4965    3.6151   -0.9138 H   0  0  0  0  0  0  0  0  0  0  0  0
   -1.7847    3.9735    0.8040 H   0  0  0  0  0  0  0  0  0  0  0  0
   -3.7255    2.9061   -0.8856 H   0  0  0  0  0  0  0  0  0  0  0  0
   -3.7023    2.5758    0.8763 H   0  0  0  0  0  0  0  0  0  0  0  0
    0.9400    3.0285    0.9492 H   0  0  0  0  0  0  0  0  0  0  0  0
    0.7260    2.7824   -0.7981 H   0  0  0  0  0  0  0  0  0  0  0  0
   -4.6355    0.0816   -0.2287 H   0  0  0  0  0  0  0  0  0  0  0  0
   -3.0763   -1.7305    1.7845 H   0  0  0  0  0  0  0  0  0  0  0  0
   -3.0775   -3.2429    0.8447 H   0  0  0  0  0  0  0  0  0  0  0  0
    1.1432   -2.3722    0.2279 H   0  0  0  0  0  0  0  0  0  0  0  0
   -1.4895   -2.2960   -2.3161 H   0  0  0  0  0  0  0  0  0  0  0  0
    3.2622    2.1225    0.2995 H   0  0  0  0  0  0  0  0  0  0  0  0
   -5.1169   -2.7205    1.6880 H   0  0  0  0  0  0  0  0  0  0  0  0
    4.6740   -2.1312    0.3698 H   0  0  0  0  0  0  0  0  0  0  0  0
    5.3131    1.0726   -1.4669 H   0  0  0  0  0  0  0  0  0  0  0  0
    5.4141   -0.7176   -1.5118 H   0  0  0  0  0  0  0  0  0  0  0  0
    6.6877    0.2327   -0.7159 H   0  0  0  0  0  0  0  0  0  0  0  0
  1  9  1  0  0  0  0
  1 37  1  0  0  0  0
  2 17  1  0  0  0  0
  2 39  1  0  0  0  0
  3 21  1  0  0  0  0
  3 22  1  0  0  0  0
  4 20  1  0  0  0  0
  4 40  1  0  0  0  0
  5  6  1  0  0  0  0
  5 11  1  0  0  0  0
  5 14  1  0  0  0  0
  6  7  1  0  0  0  0
  6  8  1  0  0  0  0
  6 23  1  0  0  0  0
  7  9  1  0  0  0  0
  7 13  1  0  0  0  0
  7 24  1  0  0  0  0
  8 12  1  0  0  0  0
  8 15  2  0  0  0  0
  9 10  1  0  0  0  0
  9 25  1  0  0  0  0
 10 15  1  0  0  0  0
 10 17  1  0  0  0  0
 10 26  1  0  0  0  0
 11 12  1  0  0  0  0
 11 27  1  0  0  0  0
 11 28  1  0  0  0  0
 12 29  1  0  0  0  0
 12 30  1  0  0  0  0
 13 16  1  0  0  0  0
 13 18  2  0  0  0  0
 14 16  1  0  0  0  0
 14 31  1  0  0  0  0
 14 32  1  0  0  0  0
 15 33  1  0  0  0  0
 16 19  2  0  0  0  0
 17 34  1  0  0  0  0
 17 35  1  0  0  0  0
 18 20  1  0  0  0  0
 18 36  1  0  0  0  0
 19 21  1  0  0  0  0
 19 38  1  0  0  0  0
 20 21  2  0  0  0  0
 22 41  1  0  0  0  0
 22 42  1  0  0  0  0
 22 43  1  0  0  0  0
M  END
> <PUBCHEM_COMPOUND_CID>
441591

> <PUBCHEM_CONFORMER_RMSD>
0.6

> <PUBCHEM_CONFORMER_DIVERSEORDER>
1
2

> <PUBCHEM_MMFF94_PARTIAL_CHARGES>
28
1 -0.68
10 0.14
11 0.27
12 0.14
13 -0.14
14 0.41
15 -0.29
16 -0.14
17 0.28
18 -0.15
19 -0.15
2 -0.68
20 0.08
21 0.08
22 0.28
3 -0.36
33 0.15
36 0.15
37 0.4
38 0.15
39 0.4
4 -0.53
40 0.45
5 -0.81
6 0.41
7 0.14
8 -0.28
9 0.28

> <PUBCHEM_EFFECTIVE_ROTOR_COUNT>
3

> <PUBCHEM_PHARMACOPHORE_FEATURES>
11
1 1 acceptor
1 1 donor
1 2 acceptor
1 2 donor
1 3 acceptor
1 4 donor
1 5 cation
5 5 6 8 11 12 rings
6 13 16 18 19 20 21 rings
6 5 6 7 13 14 16 rings
6 6 7 8 9 10 15 rings

> <PUBCHEM_HEAVY_ATOM_COUNT>
22

> <PUBCHEM_ATOM_DEF_STEREO_COUNT>
4

> <PUBCHEM_ATOM_UDEF_STEREO_COUNT>
0

> <PUBCHEM_BOND_DEF_STEREO_COUNT>
0

> <PUBCHEM_BOND_UDEF_STEREO_COUNT>
0

> <PUBCHEM_ISOTOPIC_ATOM_COUNT>
0

> <PUBCHEM_COMPONENT_COUNT>
1

> <PUBCHEM_CACTVS_TAUTO_COUNT>
9

> <PUBCHEM_CONFORMER_ID>
0006BCF700000001

> <PUBCHEM_MMFF94_ENERGY>
70.9851

> <PUBCHEM_FEATURE_SELFOVERLAP>
56.034

> <PUBCHEM_SHAPE_FINGERPRINT>
10411042 1 18266741268996850259
10616163 171 18409167731539244318
10759866 29 18341330115079966742
10906281 52 18189608518543367829
10967382 1 17976545231978481625
1100329 8 5222637291359994299
12011746 2 18335710450962852533
12236239 1 18060421327070808592
12553582 1 18264781968955913142
12788726 201 18343305855253608235
13140716 1 18336548325550815433
138480 1 15744446691363346689
14178342 30 18340504347413890040
14223421 5 18410016524182220960
14787075 74 18058725780375608490
14790565 3 17116062600818536029
15042514 8 18339359772741467153
15196674 1 18337676441813756696
15415430 112 18409728495528690572
15442244 35 18194409007441728154
16945 1 18048608027564560013
17492 89 18340488962646558242
17804303 29 18334295344536974201
19591789 44 18122060910015482082
20261772 1 18113901502950819879
21029758 27 18339359660940253677
21041028 32 18338792296161333257
21267235 1 18410568457623746570
221490 88 18411418380354708216
22182313 1 17968363654170857439
2297311 6 18336816520667994814
2334 1 18409455768972782073
23557571 272 18334005108269688836
23559900 14 18046634675108412378
23598288 3 18336556017800591991
2748010 2 18264224546931239957
335352 9 17977108182053105676
34934 24 18341058530917196600
350125 39 18410852127286755425
352729 6 18045506571075738092
4214541 1 18338802333320562296
474 4 17632285788344395828
5104073 3 18336834190437725346
54173680 148 18339363066933721961
7097593 13 17696770121898948802
8809292 202 18339927133557372329
90525 40 18186808005832789727
9709674 26 18262801907522868318

> <PUBCHEM_SHAPE_MULTIPOLES>
424.29
8.86
3.1
0.9
7.61
0.99
-0.23
-3.1
0.06
-2.81
0.35
-0.17
-0.33
0.3

> <PUBCHEM_SHAPE_SELFOVERLAP>
928.029

> <PUBCHEM_SHAPE_VOLUME>
231.4

> <PUBCHEM_COORDINATE_TYPE>
2
5
10

$$$$

