324281
  -OEChem-07051212562D

 27 28  0     0  0  0  0  0  0999 V2000
    6.4103   -1.3047    0.0000 O   0  0  0  0  0  0  0  0  0  0  0  0
    2.8660    1.5000    0.0000 O   0  0  0  0  0  0  0  0  0  0  0  0
    5.4641    0.0000    0.0000 C   0  0  0  0  0  0  0  0  0  0  0  0
    5.4641   -1.0000    0.0000 C   0  0  0  0  0  0  0  0  0  0  0  0
    6.9939   -0.5000    0.0000 C   0  0  0  0  0  0  0  0  0  0  0  0
    6.4103    0.3047    0.0000 C   0  0  0  0  0  0  0  0  0  0  0  0
    4.5981    0.5000    0.0000 C   0  0  0  0  0  0  0  0  0  0  0  0
    3.7320    0.0000    0.0000 C   0  0  0  0  0  0  0  0  0  0  0  0
    4.5981   -1.5000    0.0000 C   0  0  0  0  0  0  0  0  0  0  0  0
    3.7320   -1.0000    0.0000 C   0  0  0  0  0  0  0  0  0  0  0  0
    7.9939   -0.5000    0.0000 C   0  0  0  0  0  0  0  0  0  0  0  0
    2.8660    0.5000    0.0000 C   0  0  0  0  0  0  0  0  0  0  0  0
    8.4939   -1.3660    0.0000 C   0  0  0  0  0  0  0  0  0  0  0  0
    2.0000    0.0000    0.0000 C   0  0  0  0  0  0  0  0  0  0  0  0
    8.4939    0.3660    0.0000 C   0  0  0  0  0  0  0  0  0  0  0  0
    6.6029    0.8941    0.0000 H   0  0  0  0  0  0  0  0  0  0  0  0
    4.5981    1.1200    0.0000 H   0  0  0  0  0  0  0  0  0  0  0  0
    4.5981   -2.1200    0.0000 H   0  0  0  0  0  0  0  0  0  0  0  0
    3.1951   -1.3100    0.0000 H   0  0  0  0  0  0  0  0  0  0  0  0
    7.9570   -1.6760    0.0000 H   0  0  0  0  0  0  0  0  0  0  0  0
    8.8039   -1.9030    0.0000 H   0  0  0  0  0  0  0  0  0  0  0  0
    9.0309   -1.0560    0.0000 H   0  0  0  0  0  0  0  0  0  0  0  0
    1.6900    0.5369    0.0000 H   0  0  0  0  0  0  0  0  0  0  0  0
    1.4631   -0.3100    0.0000 H   0  0  0  0  0  0  0  0  0  0  0  0
    2.3100   -0.5369    0.0000 H   0  0  0  0  0  0  0  0  0  0  0  0
    9.1139    0.3660    0.0000 H   0  0  0  0  0  0  0  0  0  0  0  0
    8.1839    0.9030    0.0000 H   0  0  0  0  0  0  0  0  0  0  0  0
  1  4  1  0  0  0  0
  1  5  1  0  0  0  0
  2 12  2  0  0  0  0
  3  4  2  0  0  0  0
  3  6  1  0  0  0  0
  3  7  1  0  0  0  0
  4  9  1  0  0  0  0
  5  6  2  0  0  0  0
  5 11  1  0  0  0  0
  6 16  1  0  0  0  0
  7  8  2  0  0  0  0
  7 17  1  0  0  0  0
  8 10  1  0  0  0  0
  8 12  1  0  0  0  0
  9 10  2  0  0  0  0
  9 18  1  0  0  0  0
 10 19  1  0  0  0  0
 11 13  1  0  0  0  0
 11 15  2  0  0  0  0
 12 14  1  0  0  0  0
 13 20  1  0  0  0  0
 13 21  1  0  0  0  0
 13 22  1  0  0  0  0
 14 23  1  0  0  0  0
 14 24  1  0  0  0  0
 14 25  1  0  0  0  0
 15 26  1  0  0  0  0
 15 27  1  0  0  0  0
M  END
> <PUBCHEM_COMPOUND_CID>
324281

> <PUBCHEM_COMPOUND_CANONICALIZED>
1

> <PUBCHEM_CACTVS_COMPLEXITY>
282

> <PUBCHEM_CACTVS_HBOND_ACCEPTOR>
2

> <PUBCHEM_CACTVS_HBOND_DONOR>
0

> <PUBCHEM_CACTVS_ROTATABLE_BOND>
2

> <PUBCHEM_CACTVS_SUBSKEYS>
AAADccBwMAAAAAAAAAAAAAAAAAAAASAAAAAwAAAAAAAAAEgB8AAAGgAAAAAADASAmAAyBsAABECIAqBSAAACCAAkIAAIiAEGCMgMJjKENRqCOSCkwBEIqYeIzvDuIAACAAAIAABAAAQAABAAAAAAAAAAAA==

> <PUBCHEM_IUPAC_OPENEYE_NAME>
1-(2-isopropenylbenzofuran-5-yl)ethanone

> <PUBCHEM_IUPAC_CAS_NAME>
1-[2-(1-methylethenyl)-5-benzofuranyl]ethanone

> <PUBCHEM_IUPAC_NAME>
1-(2-prop-1-en-2-yl-1-benzofuran-5-yl)ethanone

> <PUBCHEM_IUPAC_SYSTEMATIC_NAME>
1-(2-prop-1-en-2-yl-1-benzofuran-5-yl)ethanone

> <PUBCHEM_IUPAC_TRADITIONAL_NAME>
1-(2-isopropenylbenzofuran-5-yl)ethanone

> <PUBCHEM_IUPAC_INCHI>
InChI=1S/C13H12O2/c1-8(2)13-7-11-6-10(9(3)14)4-5-12(11)15-13/h4-7H,1H2,2-3H3

> <PUBCHEM_IUPAC_INCHIKEY>
DMYZBECNVZSNRN-UHFFFAOYSA-N

> <PUBCHEM_XLOGP3_AA>
3.4

> <PUBCHEM_EXACT_MASS>
200.08373

> <PUBCHEM_MOLECULAR_FORMULA>
C13H12O2

> <PUBCHEM_MOLECULAR_WEIGHT>
200.23318

> <PUBCHEM_OPENEYE_CAN_SMILES>
CC(=C)C1=CC2=C(O1)C=CC(=C2)C(=O)C

> <PUBCHEM_OPENEYE_ISO_SMILES>
CC(=C)C1=CC2=C(O1)C=CC(=C2)C(=O)C

> <PUBCHEM_CACTVS_TPSA>
30.2

> <PUBCHEM_MONOISOTOPIC_WEIGHT>
200.08373

> <PUBCHEM_TOTAL_CHARGE>
0

> <PUBCHEM_HEAVY_ATOM_COUNT>
15

> <PUBCHEM_ATOM_DEF_STEREO_COUNT>
0

> <PUBCHEM_ATOM_UDEF_STEREO_COUNT>
0

> <PUBCHEM_BOND_DEF_STEREO_COUNT>
0

> <PUBCHEM_BOND_UDEF_STEREO_COUNT>
0

> <PUBCHEM_ISOTOPIC_ATOM_COUNT>
0

> <PUBCHEM_COMPONENT_COUNT>
1

> <PUBCHEM_CACTVS_TAUTO_COUNT>
2

> <PUBCHEM_COORDINATE_TYPE>
1
5
255

> <PUBCHEM_BONDANNOTATIONS>
1  4  8
1  5  8
3  4  8
3  6  8
3  7  8
4  9  8
5  6  8
7  8  8
8  10  8
9  10  8

$$$$

