9842758
  -OEChem-07051213073D

 58 61  0     1  0  0  0  0  0999 V2000
    3.3832   -1.0972    0.4371 O   0  0  0  0  0  0  0  0  0  0  0  0
    7.0720    2.4002    0.5987 O   0  0  0  0  0  0  0  0  0  0  0  0
    5.6003    3.4505   -0.7925 O   0  0  0  0  0  0  0  0  0  0  0  0
   -2.8461    0.8077    1.7950 C   0  0  0  0  0  0  0  0  0  0  0  0
   -4.4300    1.3615   -0.7646 C   0  0  0  0  0  0  0  0  0  0  0  0
   -4.2508    1.4501    1.7680 C   0  0  0  0  0  0  0  0  0  0  0  0
   -4.4865    2.2500    0.4979 C   0  0  0  0  0  0  0  0  0  0  0  0
   -2.5018    0.1439    0.4556 C   0  0  0  0  0  0  0  0  0  0  0  0
   -3.2299    0.4065   -0.7312 C   0  0  0  0  0  0  0  0  0  0  0  0
    0.1514   -2.3094   -0.8269 C   0  0  2  0  0  0  0  0  0  0  0  0
   -1.7817    1.8845    2.1019 C   0  0  0  0  0  0  0  0  0  0  0  0
   -2.8548   -0.2121    2.9588 C   0  0  0  0  0  0  0  0  0  0  0  0
   -1.3962   -0.7336    0.3875 C   0  0  0  0  0  0  0  0  0  0  0  0
   -5.7246    0.5260   -0.8772 C   0  0  0  0  0  0  0  0  0  0  0  0
   -4.3670    2.3250   -1.9738 C   0  0  0  0  0  0  0  0  0  0  0  0
   -1.0363   -1.3707   -0.7983 C   0  0  0  0  0  0  0  0  0  0  0  0
   -2.8551   -0.2678   -1.9150 C   0  0  0  0  0  0  0  0  0  0  0  0
    0.0101   -3.5108    0.1495 C   0  0  0  0  0  0  0  0  0  0  0  0
   -1.7719   -1.1439   -1.9495 C   0  0  0  0  0  0  0  0  0  0  0  0
    1.3687   -1.4958   -0.5133 C   0  0  0  0  0  0  0  0  0  0  0  0
    1.3587   -4.2177    0.4064 C   0  0  0  0  0  0  0  0  0  0  0  0
    2.4022   -3.2690    1.0294 C   0  0  0  0  0  0  0  0  0  0  0  0
    2.3614   -1.9756    0.3144 C   0  0  0  0  0  0  0  0  0  0  0  0
    1.8345   -0.2337   -0.9612 C   0  0  0  0  0  0  0  0  0  0  0  0
    3.0529   -0.0336   -0.3468 C   0  0  0  0  0  0  0  0  0  0  0  0
    3.8982    1.0930   -0.4750 C   0  0  0  0  0  0  0  0  0  0  0  0
    5.1226    1.2738    0.1245 C   0  0  0  0  0  0  0  0  0  0  0  0
    5.9165    2.4985   -0.0993 C   0  0  0  0  0  0  0  0  0  0  0  0
   -4.3831    2.1068    2.6376 H   0  0  0  0  0  0  0  0  0  0  0  0
   -5.0249    0.6776    1.8579 H   0  0  0  0  0  0  0  0  0  0  0  0
   -5.4604    2.7524    0.5636 H   0  0  0  0  0  0  0  0  0  0  0  0
   -3.7413    3.0529    0.4327 H   0  0  0  0  0  0  0  0  0  0  0  0
    0.2825   -2.7158   -1.8394 H   0  0  0  0  0  0  0  0  0  0  0  0
   -0.7889    1.4409    2.2429 H   0  0  0  0  0  0  0  0  0  0  0  0
   -1.6905    2.6144    1.2901 H   0  0  0  0  0  0  0  0  0  0  0  0
   -2.0259    2.4315    3.0197 H   0  0  0  0  0  0  0  0  0  0  0  0
   -1.8599   -0.6174    3.1705 H   0  0  0  0  0  0  0  0  0  0  0  0
   -3.2070    0.2554    3.8862 H   0  0  0  0  0  0  0  0  0  0  0  0
   -3.5165   -1.0583    2.7388 H   0  0  0  0  0  0  0  0  0  0  0  0
   -0.8010   -0.9087    1.2805 H   0  0  0  0  0  0  0  0  0  0  0  0
   -6.6131    1.1662   -0.8367 H   0  0  0  0  0  0  0  0  0  0  0  0
   -5.8068   -0.2137   -0.0734 H   0  0  0  0  0  0  0  0  0  0  0  0
   -5.7659   -0.0268   -1.8231 H   0  0  0  0  0  0  0  0  0  0  0  0
   -3.4143    2.8670   -1.9990 H   0  0  0  0  0  0  0  0  0  0  0  0
   -5.1728    3.0671   -1.9256 H   0  0  0  0  0  0  0  0  0  0  0  0
   -4.4762    1.8048   -2.9312 H   0  0  0  0  0  0  0  0  0  0  0  0
   -3.4131   -0.1223   -2.8365 H   0  0  0  0  0  0  0  0  0  0  0  0
   -0.7114   -4.2275   -0.2618 H   0  0  0  0  0  0  0  0  0  0  0  0
   -0.3933   -3.1942    1.1196 H   0  0  0  0  0  0  0  0  0  0  0  0
   -1.5173   -1.6363   -2.8839 H   0  0  0  0  0  0  0  0  0  0  0  0
    1.7405   -4.6071   -0.5464 H   0  0  0  0  0  0  0  0  0  0  0  0
    1.2089   -5.0795    1.0665 H   0  0  0  0  0  0  0  0  0  0  0  0
    3.3984   -3.7195    0.9732 H   0  0  0  0  0  0  0  0  0  0  0  0
    2.1659   -3.1040    2.0867 H   0  0  0  0  0  0  0  0  0  0  0  0
    1.3409    0.4429   -1.6457 H   0  0  0  0  0  0  0  0  0  0  0  0
    3.5344    1.8907   -1.1208 H   0  0  0  0  0  0  0  0  0  0  0  0
    5.5361    0.5103    0.7766 H   0  0  0  0  0  0  0  0  0  0  0  0
    7.6390    3.1926    0.4842 H   0  0  0  0  0  0  0  0  0  0  0  0
  1 23  1  0  0  0  0
  1 25  1  0  0  0  0
  2 28  1  0  0  0  0
  2 58  1  0  0  0  0
  3 28  2  0  0  0  0
  4  6  1  0  0  0  0
  4  8  1  0  0  0  0
  4 11  1  0  0  0  0
  4 12  1  0  0  0  0
  5  7  1  0  0  0  0
  5  9  1  0  0  0  0
  5 14  1  0  0  0  0
  5 15  1  0  0  0  0
  6  7  1  0  0  0  0
  6 29  1  0  0  0  0
  6 30  1  0  0  0  0
  7 31  1  0  0  0  0
  7 32  1  0  0  0  0
  8  9  2  0  0  0  0
  8 13  1  0  0  0  0
  9 17  1  0  0  0  0
 10 16  1  0  0  0  0
 10 18  1  0  0  0  0
 10 20  1  0  0  0  0
 10 33  1  0  0  0  0
 11 34  1  0  0  0  0
 11 35  1  0  0  0  0
 11 36  1  0  0  0  0
 12 37  1  0  0  0  0
 12 38  1  0  0  0  0
 12 39  1  0  0  0  0
 13 16  2  0  0  0  0
 13 40  1  0  0  0  0
 14 41  1  0  0  0  0
 14 42  1  0  0  0  0
 14 43  1  0  0  0  0
 15 44  1  0  0  0  0
 15 45  1  0  0  0  0
 15 46  1  0  0  0  0
 16 19  1  0  0  0  0
 17 19  2  0  0  0  0
 17 47  1  0  0  0  0
 18 21  1  0  0  0  0
 18 48  1  0  0  0  0
 18 49  1  0  0  0  0
 19 50  1  0  0  0  0
 20 23  2  0  0  0  0
 20 24  1  0  0  0  0
 21 22  1  0  0  0  0
 21 51  1  0  0  0  0
 21 52  1  0  0  0  0
 22 23  1  0  0  0  0
 22 53  1  0  0  0  0
 22 54  1  0  0  0  0
 24 25  2  0  0  0  0
 24 55  1  0  0  0  0
 25 26  1  0  0  0  0
 26 27  2  0  0  0  0
 26 56  1  0  0  0  0
 27 28  1  0  0  0  0
 27 57  1  0  0  0  0
M  END
> <PUBCHEM_COMPOUND_CID>
9842758

> <PUBCHEM_CONFORMER_RMSD>
0.8

> <PUBCHEM_CONFORMER_DIVERSEORDER>
1
20
13
12
26
25
22
7
15
24
28
10
29
5
17
11
21
27
18
9
6
19
23
3
8
16
14
2
4

> <PUBCHEM_MMFF94_PARTIAL_CHARGES>
27
1 -0.28
10 0.32
13 -0.15
16 -0.14
17 -0.15
19 -0.15
2 -0.65
20 -0.18
22 0.18
23 -0.04
24 -0.15
25 0.09
26 -0.11
27 -0.14
28 0.71
3 -0.57
4 0.14
40 0.15
47 0.15
5 0.14
50 0.15
55 0.15
56 0.15
57 0.15
58 0.5
8 -0.14
9 -0.14

> <PUBCHEM_EFFECTIVE_ROTOR_COUNT>
4.6

> <PUBCHEM_PHARMACOPHORE_FEATURES>
10
1 1 acceptor
1 2 acceptor
1 3 acceptor
3 2 3 28 anion
3 4 11 12 hydrophobe
3 5 14 15 hydrophobe
5 1 20 23 24 25 rings
6 10 18 20 21 22 23 rings
6 4 5 6 7 8 9 rings
6 8 9 13 16 17 19 rings

> <PUBCHEM_HEAVY_ATOM_COUNT>
28

> <PUBCHEM_ATOM_DEF_STEREO_COUNT>
0

> <PUBCHEM_ATOM_UDEF_STEREO_COUNT>
1

> <PUBCHEM_BOND_DEF_STEREO_COUNT>
1

> <PUBCHEM_BOND_UDEF_STEREO_COUNT>
0

> <PUBCHEM_ISOTOPIC_ATOM_COUNT>
0

> <PUBCHEM_COMPONENT_COUNT>
1

> <PUBCHEM_CACTVS_TAUTO_COUNT>
1

> <PUBCHEM_CONFORMER_ID>
0096304600000001

> <PUBCHEM_MMFF94_ENERGY>
79.056

> <PUBCHEM_FEATURE_SELFOVERLAP>
50.91

> <PUBCHEM_SHAPE_FINGERPRINT>
10319926 262 16415477185947913384
10498660 4 15865775334398512939
10577160 103 15213306271433363480
10937287 8 18410575055179017774
11049842 53 16300348529936501487
11112241 14 18131350851927171169
11135609 201 18335419015376525970
11640471 11 18114186392511050367
12166972 35 17973455591498968979
12236239 1 17752781387390876519
12390115 104 18268984298729741742
12422481 6 17489592247260100012
12633257 1 15410609276912240860
12788726 201 17240768440677512601
13224815 77 17242460653697687451
13583140 156 18200301260322473827
13590594 115 17832700554439941314
13911987 19 17821738247569986229
13994607 96 18114732742515638139
14251764 38 17907581676704831621
14251764 75 18409161108610529216
14739800 52 17532681029852436250
14790565 3 18341615876408081268
14931854 50 17749392567810095789
14950920 106 15840988850294737188
15131766 46 18260265291807650825
15183329 4 17676194789731961932
17349148 13 17680437942141939607
17492 54 17822016419326650433
17780758 139 13254529642911995252
1813 80 17396416586284912974
18393751 57 18131065987872773141
20642791 239 17822303357712810513
20715895 44 17035011542941802825
21033648 144 18341610447067719815
21033648 29 16916505986193858517
21033650 10 14924215053963562514
21401589 2 18262224518147685554
21756936 100 18188199893681614202
21864079 5 17897429808308616265
22122407 14 18121769801881346801
23536364 44 6627206800927594148
23557571 272 14491628722891728275
23559900 14 17981048827738717939
283562 15 18124319298473582134
38570 142 18334844035800048206
469060 322 18127683843014419107
474 4 18337394945119960706
563151 74 18273215321993411042
56633871 153 11672065241896461889
6034566 193 18270113509645036204
6523845 18 18052784097302160142
7288768 16 18341885256455946170
9981440 41 18272935998700227171

> <PUBCHEM_SHAPE_MULTIPOLES>
558.62
12.77
4.19
2.02
11.95
2.04
-0.79
-15.92
0.75
6.09
-0.32
-3.12
-0.44
-0.87

> <PUBCHEM_SHAPE_SELFOVERLAP>
1208.697

> <PUBCHEM_SHAPE_VOLUME>
306.8

> <PUBCHEM_COORDINATE_TYPE>
2
5
10

$$$$

