9483
  -OEChem-06261203453D

 17 17  0     0  0  0  0  0  0999 V2000
   -3.3556   -0.1975   -0.4412 F   0  0  0  0  0  0  0  0  0  0  0  0
   -2.6592    1.0709    1.1745 F   0  0  0  0  0  0  0  0  0  0  0  0
   -2.2377    1.6131   -0.8887 F   0  0  0  0  0  0  0  0  0  0  0  0
    3.7141    1.3161   -0.9501 O   0  0  0  0  0  0  0  0  0  0  0  0
    2.5466    0.3503    0.8538 N   0  0  0  0  0  0  0  0  0  0  0  0
   -1.0068   -0.2104    0.0132 C   0  0  0  0  0  0  0  0  0  0  0  0
    0.1689    0.4256    0.4119 C   0  0  0  0  0  0  0  0  0  0  0  0
   -0.9841   -1.5589   -0.3430 C   0  0  0  0  0  0  0  0  0  0  0  0
    1.3673   -0.2870    0.4543 C   0  0  0  0  0  0  0  0  0  0  0  0
   -2.2884    0.5511   -0.0329 C   0  0  0  0  0  0  0  0  0  0  0  0
    0.2142   -2.2714   -0.3007 C   0  0  0  0  0  0  0  0  0  0  0  0
    1.3899   -1.6356    0.0982 C   0  0  0  0  0  0  0  0  0  0  0  0
    3.1308    0.8336   -0.0492 C   0  0  0  0  0  0  0  0  0  0  0  0
    0.1486    1.4767    0.6913 H   0  0  0  0  0  0  0  0  0  0  0  0
   -1.8893   -2.0717   -0.6562 H   0  0  0  0  0  0  0  0  0  0  0  0
    0.2319   -3.3214   -0.5776 H   0  0  0  0  0  0  0  0  0  0  0  0
    2.3173   -2.2017    0.1295 H   0  0  0  0  0  0  0  0  0  0  0  0
  1 10  1  0  0  0  0
  2 10  1  0  0  0  0
  3 10  1  0  0  0  0
  4 13  2  0  0  0  0
  5  9  1  0  0  0  0
  5 13  2  0  0  0  0
  6  7  2  0  0  0  0
  6  8  1  0  0  0  0
  6 10  1  0  0  0  0
  7  9  1  0  0  0  0
  7 14  1  0  0  0  0
  8 11  2  0  0  0  0
  8 15  1  0  0  0  0
  9 12  2  0  0  0  0
 11 12  1  0  0  0  0
 11 16  1  0  0  0  0
 12 17  1  0  0  0  0
M  END
> <PUBCHEM_COMPOUND_CID>
9483

> <PUBCHEM_CONFORMER_RMSD>
0.6

> <PUBCHEM_CONFORMER_DIVERSEORDER>
1
2
4
3

> <PUBCHEM_MMFF94_PARTIAL_CHARGES>
17
1 -0.34
10 1.16
11 -0.15
12 -0.15
13 0.79
14 0.15
15 0.15
16 0.15
17 0.15
2 -0.34
3 -0.34
4 -0.49
5 -0.48
6 -0.14
7 -0.15
8 -0.15
9 0.18

> <PUBCHEM_EFFECTIVE_ROTOR_COUNT>
2

> <PUBCHEM_PHARMACOPHORE_FEATURES>
2
1 5 acceptor
6 6 7 8 9 11 12 rings

> <PUBCHEM_HEAVY_ATOM_COUNT>
13

> <PUBCHEM_ATOM_DEF_STEREO_COUNT>
0

> <PUBCHEM_ATOM_UDEF_STEREO_COUNT>
0

> <PUBCHEM_BOND_DEF_STEREO_COUNT>
0

> <PUBCHEM_BOND_UDEF_STEREO_COUNT>
0

> <PUBCHEM_ISOTOPIC_ATOM_COUNT>
0

> <PUBCHEM_COMPONENT_COUNT>
1

> <PUBCHEM_CACTVS_TAUTO_COUNT>
1

> <PUBCHEM_CONFORMER_ID>
0000250B00000001

> <PUBCHEM_MMFF94_ENERGY>
24.0023

> <PUBCHEM_FEATURE_SELFOVERLAP>
10.148

> <PUBCHEM_SHAPE_FINGERPRINT>
11206711 2 18118135687837868631
12138202 97 18114738227400066966
12932764 1 15213595528004590123
13380535 21 18335973220835002634
13380535 76 18409454678252068682
14325111 11 18408890658671942467
14648413 74 17837494415992955781
15775835 57 18271525308387004764
16945 1 18188782625637280883
18186145 218 18260823843302285420
20645476 183 18271524191901379054
20645477 56 18264486183738814584
20653085 51 18270388392115602338
20671657 1 18336267924759235010
21028194 46 18410301315010736722
21040471 1 18334587823446672762
21501502 16 18335987566268396867
21524375 3 18410580573937595706
23419403 2 17108403702891912390
23552423 10 18119250807619520995
2748010 2 18335419084143968678
3071541 158 17978791538824544022
8030462 33 17531824565822725385
81228 2 17831591876787596410

> <PUBCHEM_SHAPE_MULTIPOLES>
234.86
5.01
1.91
0.87
1.17
0.9
-0.03
-2.97
0.66
0.03
0.29
0.04
-0.23
-0.35

> <PUBCHEM_SHAPE_SELFOVERLAP>
500.604

> <PUBCHEM_SHAPE_VOLUME>
130.7

> <PUBCHEM_COORDINATE_TYPE>
2
5
10

$$$$

