5281590
  -OEChem-07051212583D

 83 87  0     1  0  0  0  0  0999 V2000
    0.6193   -2.8563    0.5673 O   0  0  0  0  0  0  0  0  0  0  0  0
   -2.4697    0.7171   -1.1951 O   0  0  0  0  0  0  0  0  0  0  0  0
    0.9738   -0.0253   -1.8912 O   0  0  0  0  0  0  0  0  0  0  0  0
    4.7498    2.6995   -0.6886 O   0  0  0  0  0  0  0  0  0  0  0  0
   -1.1868   -1.1752   -0.8052 N   0  0  0  0  0  0  0  0  0  0  0  0
   -4.4039   -1.4239   -1.7620 N   0  0  0  0  0  0  0  0  0  0  0  0
    1.5581    1.0672    0.0679 N   0  0  0  0  0  0  0  0  0  0  0  0
   -1.2032    4.7142   -0.5911 N   0  0  0  0  0  0  0  0  0  0  0  0
    4.2034    0.4566   -0.5757 N   0  0  0  0  0  0  0  0  0  0  0  0
   -3.0602   -1.3391   -2.3390 C   0  0  1  0  0  0  0  0  0  0  0  0
   -3.1049   -0.7994   -3.7882 C   0  0  0  0  0  0  0  0  0  0  0  0
   -0.2662   -0.5737    0.1298 C   0  0  1  0  0  0  0  0  0  0  0  0
    0.2513   -1.5922    1.1764 C   0  0  1  0  0  0  0  0  0  0  0  0
   -2.2256   -0.4712   -1.3979 C   0  0  0  0  0  0  0  0  0  0  0  0
    2.4050    2.1067   -0.5315 C   0  0  1  0  0  0  0  0  0  0  0  0
    0.8221    0.1529   -0.6829 C   0  0  0  0  0  0  0  0  0  0  0  0
    2.1362    3.4416    0.1584 C   0  0  0  0  0  0  0  0  0  0  0  0
   -1.7347   -0.7355   -4.4719 C   0  0  0  0  0  0  0  0  0  0  0  0
   -3.7853    0.5709   -3.8647 C   0  0  0  0  0  0  0  0  0  0  0  0
   -0.8397   -1.9240    2.1479 C   0  0  0  0  0  0  0  0  0  0  0  0
    0.6928    3.8330    0.0967 C   0  0  0  0  0  0  0  0  0  0  0  0
   -5.2861   -2.1932   -2.6374 C   0  0  0  0  0  0  0  0  0  0  0  0
   -4.3491   -2.0262   -0.4314 C   0  0  0  0  0  0  0  0  0  0  0  0
   -0.2962    3.5025    1.0478 C   0  0  0  0  0  0  0  0  0  0  0  0
    3.9146    1.8053   -0.5529 C   0  0  0  0  0  0  0  0  0  0  0  0
   -1.4878    4.0705    0.5920 C   0  0  0  0  0  0  0  0  0  0  0  0
    0.1235    4.5731   -0.8983 C   0  0  0  0  0  0  0  0  0  0  0  0
   -0.9874   -1.1663    3.3059 C   0  0  0  0  0  0  0  0  0  0  0  0
   -1.6985   -2.9872    1.8861 C   0  0  0  0  0  0  0  0  0  0  0  0
    1.9547   -2.9058    0.2653 C   0  0  0  0  0  0  0  0  0  0  0  0
   -0.3091    2.7772    2.2558 C   0  0  0  0  0  0  0  0  0  0  0  0
   -2.6966    3.9488    1.2865 C   0  0  0  0  0  0  0  0  0  0  0  0
   -2.0033   -1.4750    4.2106 C   0  0  0  0  0  0  0  0  0  0  0  0
   -2.7144   -3.2957    2.7907 C   0  0  0  0  0  0  0  0  0  0  0  0
    2.3126   -2.9331   -1.0813 C   0  0  0  0  0  0  0  0  0  0  0  0
    2.9226   -2.8320    1.2684 C   0  0  0  0  0  0  0  0  0  0  0  0
   -1.5110    2.6472    2.9612 C   0  0  0  0  0  0  0  0  0  0  0  0
   -2.8668   -2.5395    3.9530 C   0  0  0  0  0  0  0  0  0  0  0  0
   -2.6852    3.2248    2.4822 C   0  0  0  0  0  0  0  0  0  0  0  0
    4.5539   -2.3321   -0.4301 C   0  0  0  0  0  0  0  0  0  0  0  0
    5.4504   -0.1036   -0.7743 C   0  0  0  0  0  0  0  0  0  0  0  0
    3.6243   -2.6376   -1.4348 C   0  0  0  0  0  0  0  0  0  0  0  0
    4.2327   -2.5337    0.9192 C   0  0  0  0  0  0  0  0  0  0  0  0
    5.6703   -1.4323   -0.7436 C   0  0  0  0  0  0  0  0  0  0  0  0
   -2.6189   -2.3450   -2.3877 H   0  0  0  0  0  0  0  0  0  0  0  0
   -3.6800   -1.4924   -4.4141 H   0  0  0  0  0  0  0  0  0  0  0  0
   -0.8100    0.2244    0.6536 H   0  0  0  0  0  0  0  0  0  0  0  0
    1.0881   -1.1573    1.7377 H   0  0  0  0  0  0  0  0  0  0  0  0
   -1.0131   -2.1368   -1.0818 H   0  0  0  0  0  0  0  0  0  0  0  0
    2.1153    2.1882   -1.5882 H   0  0  0  0  0  0  0  0  0  0  0  0
    2.7383    4.2358   -0.3027 H   0  0  0  0  0  0  0  0  0  0  0  0
    2.4606    3.3953    1.2066 H   0  0  0  0  0  0  0  0  0  0  0  0
   -1.8367   -0.4370   -5.5208 H   0  0  0  0  0  0  0  0  0  0  0  0
   -1.0749   -0.0133   -3.9805 H   0  0  0  0  0  0  0  0  0  0  0  0
   -1.2451   -1.7146   -4.4469 H   0  0  0  0  0  0  0  0  0  0  0  0
   -3.1550    1.3677   -3.4585 H   0  0  0  0  0  0  0  0  0  0  0  0
   -3.9732    0.8296   -4.9136 H   0  0  0  0  0  0  0  0  0  0  0  0
   -4.7520    0.6035   -3.3551 H   0  0  0  0  0  0  0  0  0  0  0  0
    1.5057    1.0247    1.0804 H   0  0  0  0  0  0  0  0  0  0  0  0
   -4.8575   -3.1617   -2.9207 H   0  0  0  0  0  0  0  0  0  0  0  0
   -5.5716   -1.6435   -3.5391 H   0  0  0  0  0  0  0  0  0  0  0  0
   -6.2389   -2.3954   -2.1319 H   0  0  0  0  0  0  0  0  0  0  0  0
   -3.8720   -3.0129   -0.4408 H   0  0  0  0  0  0  0  0  0  0  0  0
   -5.3613   -2.1518   -0.0282 H   0  0  0  0  0  0  0  0  0  0  0  0
   -3.8358   -1.3849    0.2918 H   0  0  0  0  0  0  0  0  0  0  0  0
    0.5298    5.0144   -1.7977 H   0  0  0  0  0  0  0  0  0  0  0  0
   -0.3186   -0.3374    3.5187 H   0  0  0  0  0  0  0  0  0  0  0  0
   -1.6195   -3.5883    0.9848 H   0  0  0  0  0  0  0  0  0  0  0  0
   -1.8770    5.2174   -1.1516 H   0  0  0  0  0  0  0  0  0  0  0  0
    0.5963    2.3297    2.6547 H   0  0  0  0  0  0  0  0  0  0  0  0
    3.4237   -0.1750   -0.4270 H   0  0  0  0  0  0  0  0  0  0  0  0
   -3.6113    4.3978    0.9142 H   0  0  0  0  0  0  0  0  0  0  0  0
   -2.1218   -0.8859    5.1152 H   0  0  0  0  0  0  0  0  0  0  0  0
   -3.3899   -4.1218    2.5880 H   0  0  0  0  0  0  0  0  0  0  0  0
    1.5568   -3.0390   -1.8542 H   0  0  0  0  0  0  0  0  0  0  0  0
    2.6433   -2.8734    2.3174 H   0  0  0  0  0  0  0  0  0  0  0  0
   -1.5265    2.0937    3.8962 H   0  0  0  0  0  0  0  0  0  0  0  0
   -3.6588   -2.7789    4.6566 H   0  0  0  0  0  0  0  0  0  0  0  0
   -3.6072    3.1118    3.0467 H   0  0  0  0  0  0  0  0  0  0  0  0
    6.2640    0.5867   -0.9668 H   0  0  0  0  0  0  0  0  0  0  0  0
    3.8674   -2.4885   -2.4841 H   0  0  0  0  0  0  0  0  0  0  0  0
    4.9505   -2.3091    1.7046 H   0  0  0  0  0  0  0  0  0  0  0  0
    6.6524   -1.8599   -0.9039 H   0  0  0  0  0  0  0  0  0  0  0  0
  1 13  1  0  0  0  0
  1 30  1  0  0  0  0
  2 14  2  0  0  0  0
  3 16  2  0  0  0  0
  4 25  2  0  0  0  0
  5 12  1  0  0  0  0
  5 14  1  0  0  0  0
  5 49  1  0  0  0  0
  6 10  1  0  0  0  0
  6 22  1  0  0  0  0
  6 23  1  0  0  0  0
  7 15  1  0  0  0  0
  7 16  1  0  0  0  0
  7 59  1  0  0  0  0
  8 26  1  0  0  0  0
  8 27  1  0  0  0  0
  8 69  1  0  0  0  0
  9 25  1  0  0  0  0
  9 41  1  0  0  0  0
  9 71  1  0  0  0  0
 10 11  1  0  0  0  0
 10 14  1  0  0  0  0
 10 45  1  0  0  0  0
 11 18  1  0  0  0  0
 11 19  1  0  0  0  0
 11 46  1  0  0  0  0
 12 13  1  0  0  0  0
 12 16  1  0  0  0  0
 12 47  1  0  0  0  0
 13 20  1  0  0  0  0
 13 48  1  0  0  0  0
 15 17  1  0  0  0  0
 15 25  1  0  0  0  0
 15 50  1  0  0  0  0
 17 21  1  0  0  0  0
 17 51  1  0  0  0  0
 17 52  1  0  0  0  0
 18 53  1  0  0  0  0
 18 54  1  0  0  0  0
 18 55  1  0  0  0  0
 19 56  1  0  0  0  0
 19 57  1  0  0  0  0
 19 58  1  0  0  0  0
 20 28  2  0  0  0  0
 20 29  1  0  0  0  0
 21 24  1  0  0  0  0
 21 27  2  0  0  0  0
 22 60  1  0  0  0  0
 22 61  1  0  0  0  0
 22 62  1  0  0  0  0
 23 63  1  0  0  0  0
 23 64  1  0  0  0  0
 23 65  1  0  0  0  0
 24 26  1  0  0  0  0
 24 31  2  0  0  0  0
 26 32  2  0  0  0  0
 27 66  1  0  0  0  0
 28 33  1  0  0  0  0
 28 67  1  0  0  0  0
 29 34  2  0  0  0  0
 29 68  1  0  0  0  0
 30 35  2  0  0  0  0
 30 36  1  0  0  0  0
 31 37  1  0  0  0  0
 31 70  1  0  0  0  0
 32 39  1  0  0  0  0
 32 72  1  0  0  0  0
 33 38  2  0  0  0  0
 33 73  1  0  0  0  0
 34 38  1  0  0  0  0
 34 74  1  0  0  0  0
 35 42  1  0  0  0  0
 35 75  1  0  0  0  0
 36 43  2  0  0  0  0
 36 76  1  0  0  0  0
 37 39  2  0  0  0  0
 37 77  1  0  0  0  0
 38 78  1  0  0  0  0
 39 79  1  0  0  0  0
 40 42  2  0  0  0  0
 40 43  1  0  0  0  0
 40 44  1  0  0  0  0
 41 44  2  0  0  0  0
 41 80  1  0  0  0  0
 42 81  1  0  0  0  0
 43 82  1  0  0  0  0
 44 83  1  0  0  0  0
M  END
> <PUBCHEM_COMPOUND_CID>
5281590

> <PUBCHEM_CONFORMER_RMSD>
1.2

> <PUBCHEM_CONFORMER_DIVERSEORDER>
1
16
23
22
24
17
15
18
4
19
21
20
25
11
28
26
9
10
5
27
13
6
12
3
7
14
2
8

> <PUBCHEM_MMFF94_PARTIAL_CHARGES>
60
1 -0.36
10 0.33
12 0.36
13 0.42
14 0.57
15 0.36
16 0.57
17 0.18
2 -0.57
20 -0.14
21 -0.18
22 0.27
23 0.27
25 0.57
26 -0.15
27 -0.3
28 -0.15
29 -0.15
3 -0.57
30 0.08
31 -0.15
32 -0.15
33 -0.15
34 -0.15
35 -0.15
36 -0.15
37 -0.15
38 -0.15
39 -0.15
4 -0.57
40 0.03
41 -0.04
42 -0.15
43 -0.15
44 -0.18
49 0.37
5 -0.73
59 0.37
6 -0.81
66 0.15
67 0.15
68 0.15
69 0.27
7 -0.73
70 0.15
71 0.37
72 0.15
73 0.15
74 0.15
75 0.15
76 0.15
77 0.15
78 0.15
79 0.15
8 0.03
80 0.15
81 0.15
82 0.15
83 0.15
9 -0.54

> <PUBCHEM_EFFECTIVE_ROTOR_COUNT>
9.2

> <PUBCHEM_PHARMACOPHORE_FEATURES>
15
1 1 acceptor
1 2 acceptor
1 3 acceptor
1 4 acceptor
1 5 donor
1 6 cation
1 7 donor
1 8 cation
1 8 donor
1 9 donor
3 11 18 19 hydrophobe
5 8 21 24 26 27 rings
6 20 28 29 33 34 38 rings
6 24 26 31 32 37 39 rings
6 30 35 36 40 42 43 rings

> <PUBCHEM_HEAVY_ATOM_COUNT>
44

> <PUBCHEM_ATOM_DEF_STEREO_COUNT>
4

> <PUBCHEM_ATOM_UDEF_STEREO_COUNT>
0

> <PUBCHEM_BOND_DEF_STEREO_COUNT>
1

> <PUBCHEM_BOND_UDEF_STEREO_COUNT>
0

> <PUBCHEM_ISOTOPIC_ATOM_COUNT>
0

> <PUBCHEM_COMPONENT_COUNT>
1

> <PUBCHEM_CACTVS_TAUTO_COUNT>
8

> <PUBCHEM_CONFORMER_ID>
0050973600000001

> <PUBCHEM_MMFF94_ENERGY>
143.1936

> <PUBCHEM_FEATURE_SELFOVERLAP>
76.211

> <PUBCHEM_SHAPE_FINGERPRINT>
10190206 1 18053916513524133364
10581848 127 17458898357620434279
10675989 125 18119816811511376908
12156800 1 17971222367313396569
12440605 4 18335695070416433968
13636023 20 17027723579786551380
13911987 19 17978499837731298524
14415360 78 16893695148201788697
15264996 74 18041566969685156048
15968369 153 18262503888717093208
20764821 26 18198878427824807048
21716022 299 16881622643899140823
3388396 114 18335139731619704308
9896288 288 16108110137166257618

> <PUBCHEM_SHAPE_MULTIPOLES>
857.12
8.85
6.63
4.56
8.21
7.34
-0.07
-5.33
-5.22
-1.33
2.86
-7.84
-3.04
-1.23

> <PUBCHEM_SHAPE_SELFOVERLAP>
1851.603

> <PUBCHEM_SHAPE_VOLUME>
467.6

> <PUBCHEM_COORDINATE_TYPE>
2
5
10

$$$$

