643775
  -OEChem-07051212513D

 10  9  0     0  0  0  0  0  0999 V2000
   -1.9666    0.8758   -0.0324 Cl  0  0  0  0  0  0  0  0  0  0  0  0
    2.0651    0.3755   -0.4043 O   0  0  0  0  0  0  0  0  0  0  0  0
    1.0102    0.2425    0.5378 C   0  0  0  0  0  0  0  0  0  0  0  0
    0.0929   -0.8444    0.0821 C   0  0  0  0  0  0  0  0  0  0  0  0
   -1.2016   -0.6494   -0.1833 C   0  0  0  0  0  0  0  0  0  0  0  0
    0.5491    1.2248    0.6528 H   0  0  0  0  0  0  0  0  0  0  0  0
    1.4474   -0.0252    1.5056 H   0  0  0  0  0  0  0  0  0  0  0  0
    0.5065   -1.8425   -0.0325 H   0  0  0  0  0  0  0  0  0  0  0  0
   -1.8743   -1.4300   -0.5117 H   0  0  0  0  0  0  0  0  0  0  0  0
    2.5452   -0.4698   -0.4366 H   0  0  0  0  0  0  0  0  0  0  0  0
  1  5  1  0  0  0  0
  2  3  1  0  0  0  0
  2 10  1  0  0  0  0
  3  4  1  0  0  0  0
  3  6  1  0  0  0  0
  3  7  1  0  0  0  0
  4  5  2  0  0  0  0
  4  8  1  0  0  0  0
  5  9  1  0  0  0  0
M  END
> <PUBCHEM_COMPOUND_CID>
643775

> <PUBCHEM_CONFORMER_RMSD>
0.4

> <PUBCHEM_CONFORMER_DIVERSEORDER>
1
5
4
2
3

> <PUBCHEM_MMFF94_PARTIAL_CHARGES>
8
1 -0.14
10 0.4
2 -0.68
3 0.42
4 -0.29
5 -0.01
8 0.15
9 0.15

> <PUBCHEM_EFFECTIVE_ROTOR_COUNT>
1

> <PUBCHEM_PHARMACOPHORE_FEATURES>
2
1 2 acceptor
1 2 donor

> <PUBCHEM_HEAVY_ATOM_COUNT>
5

> <PUBCHEM_ATOM_DEF_STEREO_COUNT>
0

> <PUBCHEM_ATOM_UDEF_STEREO_COUNT>
0

> <PUBCHEM_BOND_DEF_STEREO_COUNT>
1

> <PUBCHEM_BOND_UDEF_STEREO_COUNT>
0

> <PUBCHEM_ISOTOPIC_ATOM_COUNT>
0

> <PUBCHEM_COMPONENT_COUNT>
1

> <PUBCHEM_CACTVS_TAUTO_COUNT>
1

> <PUBCHEM_CONFORMER_ID>
0009D2BF00000001

> <PUBCHEM_MMFF94_ENERGY>
4.1745

> <PUBCHEM_FEATURE_SELFOVERLAP>
10.148

> <PUBCHEM_SHAPE_FINGERPRINT>
16714656 1 18408881806881495405
20096714 4 18412267258949401265
21040471 1 18336556005015513963
24536 1 18201734928441613291
29004967 10 8141787409462301455
5460574 1 9295296040240491475
5943 1 14173224796640985659

> <PUBCHEM_SHAPE_MULTIPOLES>
98.9
2.61
1.05
0.7
0.08
0.06
-0.03
-0.88
0.27
-0.28
0.01
0.08
-0.03
-0.06

> <PUBCHEM_SHAPE_SELFOVERLAP>
164.832

> <PUBCHEM_SHAPE_VOLUME>
68

> <PUBCHEM_COORDINATE_TYPE>
2
5
10

$$$$

