17396358
  -OEChem-06241222562D

 41 42  0     0  0  0  0  0  0999 V2000
    6.8671   -1.5000    0.0000 O   0  0  0  0  0  0  0  0  0  0  0  0
    2.5369    2.0000    0.0000 O   0  0  0  0  0  0  0  0  0  0  0  0
    6.8671    0.5000    0.0000 O   0  0  0  0  0  0  0  0  0  0  0  0
    6.0010   -3.0000    0.0000 O   0  0  0  0  0  0  0  0  0  0  0  0
    6.0010    3.0000    0.0000 O   0  0  0  0  0  0  0  0  0  0  0  0
    4.2690    3.0000    0.0000 N   0  0  0  0  0  0  0  0  0  0  0  0
    5.1350    0.5000    0.0000 C   0  0  0  0  0  0  0  0  0  0  0  0
    4.2690    2.0000    0.0000 C   0  0  0  0  0  0  0  0  0  0  0  0
    5.1350    1.5000    0.0000 C   0  0  0  0  0  0  0  0  0  0  0  0
    7.7331   -3.0000    0.0000 C   0  0  0  0  0  0  0  0  0  0  0  0
    6.0010    0.0000    0.0000 C   0  0  0  0  0  0  0  0  0  0  0  0
    8.5991   -2.5000    0.0000 C   0  0  0  0  0  0  0  0  0  0  0  0
    4.2690    0.0000    0.0000 C   0  0  0  0  0  0  0  0  0  0  0  0
    6.0010   -1.0000    0.0000 C   0  0  0  0  0  0  0  0  0  0  0  0
    3.4030    1.5000    0.0000 C   0  0  0  0  0  0  0  0  0  0  0  0
    3.4030    0.5000    0.0000 C   0  0  0  0  0  0  0  0  0  0  0  0
    6.8671   -2.5000    0.0000 C   0  0  0  0  0  0  0  0  0  0  0  0
    7.7331   -4.0000    0.0000 C   0  0  0  0  0  0  0  0  0  0  0  0
    9.4651   -3.0000    0.0000 C   0  0  0  0  0  0  0  0  0  0  0  0
    8.5991   -1.5000    0.0000 C   0  0  0  0  0  0  0  0  0  0  0  0
    8.5991   -4.5000    0.0000 C   0  0  0  0  0  0  0  0  0  0  0  0
    9.4651   -4.0000    0.0000 C   0  0  0  0  0  0  0  0  0  0  0  0
    5.1350    3.5000    0.0000 C   0  0  0  0  0  0  0  0  0  0  0  0
    5.1350    4.5000    0.0000 C   0  0  0  0  0  0  0  0  0  0  0  0
    5.6720    1.8100    0.0000 H   0  0  0  0  0  0  0  0  0  0  0  0
    4.2690   -0.6200    0.0000 H   0  0  0  0  0  0  0  0  0  0  0  0
    5.3905   -0.8923    0.0000 H   0  0  0  0  0  0  0  0  0  0  0  0
    5.7890   -1.5826    0.0000 H   0  0  0  0  0  0  0  0  0  0  0  0
    2.8660    0.1900    0.0000 H   0  0  0  0  0  0  0  0  0  0  0  0
    7.1962   -4.3100    0.0000 H   0  0  0  0  0  0  0  0  0  0  0  0
   10.0021   -2.6900    0.0000 H   0  0  0  0  0  0  0  0  0  0  0  0
    3.7320    3.3100    0.0000 H   0  0  0  0  0  0  0  0  0  0  0  0
    9.2191   -1.5000    0.0000 H   0  0  0  0  0  0  0  0  0  0  0  0
    8.5991   -0.8800    0.0000 H   0  0  0  0  0  0  0  0  0  0  0  0
    7.9791   -1.5000    0.0000 H   0  0  0  0  0  0  0  0  0  0  0  0
    8.5991   -5.1200    0.0000 H   0  0  0  0  0  0  0  0  0  0  0  0
   10.0021   -4.3100    0.0000 H   0  0  0  0  0  0  0  0  0  0  0  0
    2.0000    1.6900    0.0000 H   0  0  0  0  0  0  0  0  0  0  0  0
    5.7550    4.5000    0.0000 H   0  0  0  0  0  0  0  0  0  0  0  0
    5.1350    5.1200    0.0000 H   0  0  0  0  0  0  0  0  0  0  0  0
    4.5150    4.5000    0.0000 H   0  0  0  0  0  0  0  0  0  0  0  0
  1 14  1  0  0  0  0
  1 17  1  0  0  0  0
  2 15  1  0  0  0  0
  2 38  1  0  0  0  0
  3 11  2  0  0  0  0
  4 17  2  0  0  0  0
  5 23  2  0  0  0  0
  6  8  1  0  0  0  0
  6 23  1  0  0  0  0
  6 32  1  0  0  0  0
  7  9  2  0  0  0  0
  7 11  1  0  0  0  0
  7 13  1  0  0  0  0
  8  9  1  0  0  0  0
  8 15  2  0  0  0  0
  9 25  1  0  0  0  0
 10 12  1  0  0  0  0
 10 17  1  0  0  0  0
 10 18  2  0  0  0  0
 11 14  1  0  0  0  0
 12 19  2  0  0  0  0
 12 20  1  0  0  0  0
 13 16  2  0  0  0  0
 13 26  1  0  0  0  0
 14 27  1  0  0  0  0
 14 28  1  0  0  0  0
 15 16  1  0  0  0  0
 16 29  1  0  0  0  0
 18 21  1  0  0  0  0
 18 30  1  0  0  0  0
 19 22  1  0  0  0  0
 19 31  1  0  0  0  0
 20 33  1  0  0  0  0
 20 34  1  0  0  0  0
 20 35  1  0  0  0  0
 21 22  2  0  0  0  0
 21 36  1  0  0  0  0
 22 37  1  0  0  0  0
 23 24  1  0  0  0  0
 24 39  1  0  0  0  0
 24 40  1  0  0  0  0
 24 41  1  0  0  0  0
M  END
> <PUBCHEM_COMPOUND_CID>
17396358

> <PUBCHEM_COMPOUND_CANONICALIZED>
1

> <PUBCHEM_CACTVS_COMPLEXITY>
478

> <PUBCHEM_CACTVS_HBOND_ACCEPTOR>
5

> <PUBCHEM_CACTVS_HBOND_DONOR>
2

> <PUBCHEM_CACTVS_ROTATABLE_BOND>
6

> <PUBCHEM_CACTVS_SUBSKEYS>
AAADceB6OAAAAAAAAAAAAAAAAAAAAAAAAAAwYAAAAAAAAAABQAAAHgAQCAAADAyhmAIyzoLABgCIAqXSWAKCAAAlIgAIiAFHbMgKJjLStZ+GcQhk1BHY+Yec3KPOoAAAQAAQEABAAACAACAgAAAAAAAAAA==

> <PUBCHEM_IUPAC_OPENEYE_NAME>
[2-(3-acetamido-4-hydroxy-phenyl)-2-oxo-ethyl] 2-methylbenzoate

> <PUBCHEM_IUPAC_CAS_NAME>
2-methylbenzoic acid [2-(3-acetamido-4-hydroxyphenyl)-2-oxoethyl] ester

> <PUBCHEM_IUPAC_NAME>
[2-(3-acetamido-4-hydroxyphenyl)-2-oxoethyl] 2-methylbenzoate

> <PUBCHEM_IUPAC_SYSTEMATIC_NAME>
[2-(3-acetamido-4-oxidanyl-phenyl)-2-oxidanylidene-ethyl] 2-methylbenzoate

> <PUBCHEM_IUPAC_TRADITIONAL_NAME>
2-methylbenzoic acid [2-(3-acetamido-4-hydroxy-phenyl)-2-keto-ethyl] ester

> <PUBCHEM_IUPAC_INCHI>
InChI=1S/C18H17NO5/c1-11-5-3-4-6-14(11)18(23)24-10-17(22)13-7-8-16(21)15(9-13)19-12(2)20/h3-9,21H,10H2,1-2H3,(H,19,20)

> <PUBCHEM_IUPAC_INCHIKEY>
LFLLUYMWVUMZPI-UHFFFAOYSA-N

> <PUBCHEM_XLOGP3_AA>
2.4

> <PUBCHEM_EXACT_MASS>
327.110673

> <PUBCHEM_MOLECULAR_FORMULA>
C18H17NO5

> <PUBCHEM_MOLECULAR_WEIGHT>
327.33128

> <PUBCHEM_OPENEYE_CAN_SMILES>
CC1=CC=CC=C1C(=O)OCC(=O)C2=CC(=C(C=C2)O)NC(=O)C

> <PUBCHEM_OPENEYE_ISO_SMILES>
CC1=CC=CC=C1C(=O)OCC(=O)C2=CC(=C(C=C2)O)NC(=O)C

> <PUBCHEM_CACTVS_TPSA>
92.7

> <PUBCHEM_MONOISOTOPIC_WEIGHT>
327.110673

> <PUBCHEM_TOTAL_CHARGE>
0

> <PUBCHEM_HEAVY_ATOM_COUNT>
24

> <PUBCHEM_ATOM_DEF_STEREO_COUNT>
0

> <PUBCHEM_ATOM_UDEF_STEREO_COUNT>
0

> <PUBCHEM_BOND_DEF_STEREO_COUNT>
0

> <PUBCHEM_BOND_UDEF_STEREO_COUNT>
0

> <PUBCHEM_ISOTOPIC_ATOM_COUNT>
0

> <PUBCHEM_COMPONENT_COUNT>
1

> <PUBCHEM_CACTVS_TAUTO_COUNT>
31

> <PUBCHEM_COORDINATE_TYPE>
1
5
255

> <PUBCHEM_BONDANNOTATIONS>
10  12  8
10  18  8
12  19  8
13  16  8
15  16  8
18  21  8
19  22  8
21  22  8
7  13  8
7  9  8
8  15  8
8  9  8

$$$$

