46174021
  -OEChem-07051213113D

 66 67  0     1  0  0  0  0  0999 V2000
    1.5786    0.1259   -0.0859 O   0  0  0  0  0  0  0  0  0  0  0  0
   -1.8584   -2.7087   -1.6020 O   0  0  0  0  0  0  0  0  0  0  0  0
   -0.8429   -1.1678    2.2974 O   0  0  0  0  0  0  0  0  0  0  0  0
    3.3818    1.2153    0.9782 O   0  0  0  0  0  0  0  0  0  0  0  0
    0.7682   -1.9482   -1.9277 O   0  0  0  0  0  0  0  0  0  0  0  0
   -2.7508    1.5343   -0.4983 O   0  0  0  0  0  0  0  0  0  0  0  0
   -2.7158   -0.6803    0.2267 N   0  0  0  0  0  0  0  0  0  0  0  0
    1.2134   -3.1740    1.5336 N   0  0  0  0  0  0  0  0  0  0  0  0
    0.4950    2.6498   -0.8828 N   0  0  0  0  0  0  0  0  0  0  0  0
    5.7373   -0.2012    1.4835 N   0  0  0  0  0  0  0  0  0  0  0  0
   -5.2766    1.9933    0.0589 N   0  0  0  0  0  0  0  0  0  0  0  0
   -7.3019    3.3267    0.1983 N   0  0  0  0  0  0  0  0  0  0  0  0
    1.0534   -0.7946    0.8720 C   0  0  1  0  0  0  0  0  0  0  0  0
   -1.3190   -0.9179   -0.0743 C   0  0  1  0  0  0  0  0  0  0  0  0
   -0.4334   -0.4884    1.1096 C   0  0  1  0  0  0  0  0  0  0  0  0
    1.3306   -2.2443    0.4079 C   0  0  2  0  0  0  0  0  0  0  0  0
   -1.0830   -2.3899   -0.4450 C   0  0  2  0  0  0  0  0  0  0  0  0
    0.3986   -2.6667   -0.7454 C   0  0  1  0  0  0  0  0  0  0  0  0
    2.0221    1.3189    0.5390 C   0  0  1  0  0  0  0  0  0  0  0  0
    1.8691    2.5196   -0.4059 C   0  0  1  0  0  0  0  0  0  0  0  0
    4.3153    1.0276   -0.0919 C   0  0  1  0  0  0  0  0  0  0  0  0
    2.8333    2.4040   -1.5893 C   0  0  0  0  0  0  0  0  0  0  0  0
    4.2563    2.1971   -1.0767 C   0  0  0  0  0  0  0  0  0  0  0  0
    5.7029    0.9023    0.5231 C   0  0  2  0  0  0  0  0  0  0  0  0
   -3.4418   -1.8139    0.8000 C   0  0  0  0  0  0  0  0  0  0  0  0
   -3.3341    0.5596   -0.0165 C   0  0  0  0  0  0  0  0  0  0  0  0
   -2.0476   -4.1087   -1.7223 C   0  0  0  0  0  0  0  0  0  0  0  0
    6.7628    0.6706   -0.5508 C   0  0  0  0  0  0  0  0  0  0  0  0
   -4.8012    0.6417    0.3556 C   0  0  0  0  0  0  0  0  0  0  0  0
   -6.5123    2.2176    0.3309 C   0  0  0  0  0  0  0  0  0  0  0  0
    1.6040   -0.6644    1.8161 H   0  0  0  0  0  0  0  0  0  0  0  0
   -1.0689   -0.2884   -0.9385 H   0  0  0  0  0  0  0  0  0  0  0  0
   -0.5905    0.5809    1.2893 H   0  0  0  0  0  0  0  0  0  0  0  0
    2.3657   -2.2852    0.0438 H   0  0  0  0  0  0  0  0  0  0  0  0
   -1.3588   -3.0538    0.3821 H   0  0  0  0  0  0  0  0  0  0  0  0
    0.5585   -3.7253   -0.9762 H   0  0  0  0  0  0  0  0  0  0  0  0
    1.4272    1.5351    1.4357 H   0  0  0  0  0  0  0  0  0  0  0  0
    2.1329    3.4291    0.1500 H   0  0  0  0  0  0  0  0  0  0  0  0
    4.0627    0.0946   -0.6145 H   0  0  0  0  0  0  0  0  0  0  0  0
    2.7938    3.3085   -2.2083 H   0  0  0  0  0  0  0  0  0  0  0  0
    2.5526    1.5615   -2.2348 H   0  0  0  0  0  0  0  0  0  0  0  0
    1.4530   -4.1157    1.2267 H   0  0  0  0  0  0  0  0  0  0  0  0
    1.8884   -2.9265    2.2559 H   0  0  0  0  0  0  0  0  0  0  0  0
    4.5832    3.1194   -0.5796 H   0  0  0  0  0  0  0  0  0  0  0  0
    4.9109    2.0334   -1.9383 H   0  0  0  0  0  0  0  0  0  0  0  0
   -0.3075   -0.8236    3.0326 H   0  0  0  0  0  0  0  0  0  0  0  0
    1.6978   -2.1583   -2.1207 H   0  0  0  0  0  0  0  0  0  0  0  0
    5.9465    1.8178    1.0766 H   0  0  0  0  0  0  0  0  0  0  0  0
   -3.7326   -2.5054    0.0064 H   0  0  0  0  0  0  0  0  0  0  0  0
   -4.3657   -1.5150    1.2954 H   0  0  0  0  0  0  0  0  0  0  0  0
   -2.8590   -2.3222    1.5706 H   0  0  0  0  0  0  0  0  0  0  0  0
   -0.1336    2.7747   -0.0905 H   0  0  0  0  0  0  0  0  0  0  0  0
    0.4076    3.4875   -1.4565 H   0  0  0  0  0  0  0  0  0  0  0  0
   -1.1172   -4.6194   -1.9824 H   0  0  0  0  0  0  0  0  0  0  0  0
   -2.4760   -4.5378   -0.8111 H   0  0  0  0  0  0  0  0  0  0  0  0
   -2.7555   -4.2811   -2.5384 H   0  0  0  0  0  0  0  0  0  0  0  0
    6.5039   -0.1726   -1.2009 H   0  0  0  0  0  0  0  0  0  0  0  0
    7.7364    0.4522   -0.0960 H   0  0  0  0  0  0  0  0  0  0  0  0
    6.9090    1.5578   -1.1743 H   0  0  0  0  0  0  0  0  0  0  0  0
   -5.3630   -0.0971   -0.2262 H   0  0  0  0  0  0  0  0  0  0  0  0
   -4.9065    0.4616    1.4308 H   0  0  0  0  0  0  0  0  0  0  0  0
    6.6480   -0.2327    1.9400 H   0  0  0  0  0  0  0  0  0  0  0  0
    5.0513   -0.0356    2.2190 H   0  0  0  0  0  0  0  0  0  0  0  0
   -7.1176    1.3977    0.7588 H   0  0  0  0  0  0  0  0  0  0  0  0
   -6.9313    4.1922   -0.1790 H   0  0  0  0  0  0  0  0  0  0  0  0
   -8.2789    3.3201    0.4716 H   0  0  0  0  0  0  0  0  0  0  0  0
  1 13  1  0  0  0  0
  1 19  1  0  0  0  0
  2 17  1  0  0  0  0
  2 27  1  0  0  0  0
  3 15  1  0  0  0  0
  3 46  1  0  0  0  0
  4 19  1  0  0  0  0
  4 21  1  0  0  0  0
  5 18  1  0  0  0  0
  5 47  1  0  0  0  0
  6 26  2  0  0  0  0
  7 14  1  0  0  0  0
  7 25  1  0  0  0  0
  7 26  1  0  0  0  0
  8 16  1  0  0  0  0
  8 42  1  0  0  0  0
  8 43  1  0  0  0  0
  9 20  1  0  0  0  0
  9 52  1  0  0  0  0
  9 53  1  0  0  0  0
 10 24  1  0  0  0  0
 10 62  1  0  0  0  0
 10 63  1  0  0  0  0
 11 29  1  0  0  0  0
 11 30  2  0  0  0  0
 12 30  1  0  0  0  0
 12 65  1  0  0  0  0
 12 66  1  0  0  0  0
 13 15  1  0  0  0  0
 13 16  1  0  0  0  0
 13 31  1  0  0  0  0
 14 15  1  0  0  0  0
 14 17  1  0  0  0  0
 14 32  1  0  0  0  0
 15 33  1  0  0  0  0
 16 18  1  0  0  0  0
 16 34  1  0  0  0  0
 17 18  1  0  0  0  0
 17 35  1  0  0  0  0
 18 36  1  0  0  0  0
 19 20  1  0  0  0  0
 19 37  1  0  0  0  0
 20 22  1  0  0  0  0
 20 38  1  0  0  0  0
 21 23  1  0  0  0  0
 21 24  1  0  0  0  0
 21 39  1  0  0  0  0
 22 23  1  0  0  0  0
 22 40  1  0  0  0  0
 22 41  1  0  0  0  0
 23 44  1  0  0  0  0
 23 45  1  0  0  0  0
 24 28  1  0  0  0  0
 24 48  1  0  0  0  0
 25 49  1  0  0  0  0
 25 50  1  0  0  0  0
 25 51  1  0  0  0  0
 26 29  1  0  0  0  0
 27 54  1  0  0  0  0
 27 55  1  0  0  0  0
 27 56  1  0  0  0  0
 28 57  1  0  0  0  0
 28 58  1  0  0  0  0
 28 59  1  0  0  0  0
 29 60  1  0  0  0  0
 29 61  1  0  0  0  0
 30 64  1  0  0  0  0
M  END
> <PUBCHEM_COMPOUND_CID>
46174021

> <PUBCHEM_CONFORMER_RMSD>
1

> <PUBCHEM_CONFORMER_DIVERSEORDER>
1
52
49
43
30
48
7
37
9
16
23
34
55
54
22
24
33
17
6
28
27
21
4
18
29
50
51
14
26
47
2
31
40
44
11
32
35
42
45
36
19
5
39
13
15
53
3
10
38
46
20
25
12
8
41
56

> <PUBCHEM_MMFF94_PARTIAL_CHARGES>
38
1 -0.56
10 -0.99
11 -0.7
12 -0.85
13 0.28
14 0.3
15 0.28
16 0.27
17 0.28
18 0.28
19 0.56
2 -0.56
20 0.27
21 0.28
24 0.27
25 0.3
26 0.57
27 0.28
29 0.31
3 -0.68
30 0.44
4 -0.56
42 0.36
43 0.36
46 0.4
47 0.4
5 -0.68
52 0.36
53 0.36
6 -0.57
62 0.36
63 0.36
64 0.06
65 0.4
66 0.4
7 -0.66
8 -0.99
9 -0.99

> <PUBCHEM_EFFECTIVE_ROTOR_COUNT>
10.4

> <PUBCHEM_PHARMACOPHORE_FEATURES>
18
1 1 acceptor
1 10 cation
1 10 donor
1 12 donor
1 2 acceptor
1 3 acceptor
1 3 donor
1 4 acceptor
1 5 acceptor
1 5 donor
1 6 acceptor
1 8 cation
1 8 donor
1 9 cation
1 9 donor
3 11 12 30 cation
6 13 14 15 16 17 18 rings
6 4 19 20 21 22 23 rings

> <PUBCHEM_HEAVY_ATOM_COUNT>
30

> <PUBCHEM_ATOM_DEF_STEREO_COUNT>
10

> <PUBCHEM_ATOM_UDEF_STEREO_COUNT>
0

> <PUBCHEM_BOND_DEF_STEREO_COUNT>
0

> <PUBCHEM_BOND_UDEF_STEREO_COUNT>
0

> <PUBCHEM_ISOTOPIC_ATOM_COUNT>
0

> <PUBCHEM_COMPONENT_COUNT>
1

> <PUBCHEM_CACTVS_TAUTO_COUNT>
2

> <PUBCHEM_CONFORMER_ID>
02C08F4500000001

> <PUBCHEM_MMFF94_ENERGY>
75.0604

> <PUBCHEM_FEATURE_SELFOVERLAP>
91.386

> <PUBCHEM_SHAPE_FINGERPRINT>
11763715 3 17259888629735385959
12422481 6 18273215317682840104
12788726 201 17762055437094447135
13224815 77 9438312795548282442
14251751 93 18263926544577476630
14294032 229 18188765051533094715
14394314 77 18341624681539314104
15238133 3 17989197136554906276
15420108 30 18336557083147738159
17980427 26 17845385478108142835
20715895 44 18334010622680889420
21033648 144 18271530905330642141
21033648 29 18189065213532936864
23559900 14 18044937016402021687
2838139 119 18409169879181505085
3411729 13 18270677696849816361
38695281 34 18335699477184176453
5385378 56 18340769359216452592

> <PUBCHEM_SHAPE_MULTIPOLES>
552.28
13.31
4.4
1.5
3.02
1.73
-0.04
-14.59
1.32
4.53
-1.66
-0.57
0.96
-1.7

> <PUBCHEM_SHAPE_SELFOVERLAP>
1117.054

> <PUBCHEM_SHAPE_VOLUME>
318.1

> <PUBCHEM_COORDINATE_TYPE>
2
5
10

$$$$

