12954
  -OEChem-06261207353D

 71 75  0     1  0  0  0  0  0999 V2000
    0.4432    3.5807    1.4498 O   0  0  0  0  0  0  0  0  0  0  0  0
    1.6468   -1.2100   -2.8218 O   0  0  0  0  0  0  0  0  0  0  0  0
    2.9162    2.6158    1.6158 O   0  0  0  0  0  0  0  0  0  0  0  0
   -0.1215    1.0141    2.5899 O   0  0  0  0  0  0  0  0  0  0  0  0
    4.1300    0.1051    1.9957 O   0  0  0  0  0  0  0  0  0  0  0  0
   -2.7417    0.9775   -1.3702 O   0  0  0  0  0  0  0  0  0  0  0  0
    4.8330   -2.3181    2.1761 O   0  0  0  0  0  0  0  0  0  0  0  0
   -1.8306   -0.7312    2.3359 O   0  0  0  0  0  0  0  0  0  0  0  0
   -1.7598    3.8110   -0.5790 N   0  0  0  0  0  0  0  0  0  0  0  0
   -3.2351   -0.7245    0.4415 N   0  0  0  0  0  0  0  0  0  0  0  0
   -5.1255   -2.3583    0.0558 N   0  0  0  0  0  0  0  0  0  0  0  0
    0.4328    2.5901   -0.7474 C   0  0  2  0  0  0  0  0  0  0  0  0
    1.7500    0.3260   -0.9642 C   0  0  1  0  0  0  0  0  0  0  0  0
    1.2181    1.6015   -1.6575 C   0  0  0  0  0  0  0  0  0  0  0  0
    0.6633    2.3558    0.7585 C   0  0  1  0  0  0  0  0  0  0  0  0
   -1.0571    2.6590   -1.1438 C   0  0  1  0  0  0  0  0  0  0  0  0
    2.5764   -0.5954   -1.9189 C   0  0  1  0  0  0  0  0  0  0  0  0
    2.5109    0.6693    0.2966 C   0  0  0  0  0  0  0  0  0  0  0  0
    2.1204    1.9524    0.9584 C   0  0  0  0  0  0  0  0  0  0  0  0
   -0.2952    1.3667    1.4223 C   0  0  0  0  0  0  0  0  0  0  0  0
    3.2854   -1.6952   -1.1278 C   0  0  0  0  0  0  0  0  0  0  0  0
   -1.8204    1.4334   -0.6946 C   0  0  0  0  0  0  0  0  0  0  0  0
    3.4358   -0.1475    0.8326 C   0  0  0  0  0  0  0  0  0  0  0  0
   -1.4458    0.8523    0.6256 C   0  0  0  0  0  0  0  0  0  0  0  0
    3.7171   -1.4493    0.1942 C   0  0  0  0  0  0  0  0  0  0  0  0
    3.6332    0.1461   -2.7557 C   0  0  0  0  0  0  0  0  0  0  0  0
    3.5740   -2.9369   -1.7247 C   0  0  0  0  0  0  0  0  0  0  0  0
   -3.1370    3.8554   -1.0662 C   0  0  0  0  0  0  0  0  0  0  0  0
   -1.0572    5.0485   -0.9122 C   0  0  0  0  0  0  0  0  0  0  0  0
    4.4105   -2.4584    0.8849 C   0  0  0  0  0  0  0  0  0  0  0  0
   -2.1609   -0.1731    1.1081 C   0  0  0  0  0  0  0  0  0  0  0  0
    4.2595   -3.9267   -1.0228 C   0  0  0  0  0  0  0  0  0  0  0  0
    4.6761   -3.6880    0.2811 C   0  0  0  0  0  0  0  0  0  0  0  0
   -4.0598   -1.8309    0.8950 C   0  0  0  0  0  0  0  0  0  0  0  0
   -6.1782   -1.3743   -0.1940 C   0  0  0  0  0  0  0  0  0  0  0  0
   -5.8080   -3.4970    0.6696 C   0  0  0  0  0  0  0  0  0  0  0  0
   -7.3202   -2.2259   -0.7287 C   0  0  0  0  0  0  0  0  0  0  0  0
   -7.0788   -3.6200   -0.1581 C   0  0  0  0  0  0  0  0  0  0  0  0
    0.8948    3.5529   -1.0000 H   0  0  0  0  0  0  0  0  0  0  0  0
    0.8670   -0.2513   -0.6541 H   0  0  0  0  0  0  0  0  0  0  0  0
    2.0730    2.1646   -2.0559 H   0  0  0  0  0  0  0  0  0  0  0  0
    0.6178    1.3262   -2.5321 H   0  0  0  0  0  0  0  0  0  0  0  0
   -1.1114    2.6941   -2.2418 H   0  0  0  0  0  0  0  0  0  0  0  0
    4.3420    0.6979   -2.1293 H   0  0  0  0  0  0  0  0  0  0  0  0
    4.2083   -0.5548   -3.3736 H   0  0  0  0  0  0  0  0  0  0  0  0
    3.1723    0.8432   -3.4635 H   0  0  0  0  0  0  0  0  0  0  0  0
    0.6615    3.4437    2.3879 H   0  0  0  0  0  0  0  0  0  0  0  0
    1.3230   -0.5312   -3.4371 H   0  0  0  0  0  0  0  0  0  0  0  0
    3.2751   -3.1417   -2.7499 H   0  0  0  0  0  0  0  0  0  0  0  0
   -3.2013    3.8008   -2.1592 H   0  0  0  0  0  0  0  0  0  0  0  0
   -3.6204    4.7907   -0.7571 H   0  0  0  0  0  0  0  0  0  0  0  0
   -3.7603    3.0711   -0.6256 H   0  0  0  0  0  0  0  0  0  0  0  0
   -1.6660    5.9170   -0.6303 H   0  0  0  0  0  0  0  0  0  0  0  0
   -0.8494    5.1341   -1.9854 H   0  0  0  0  0  0  0  0  0  0  0  0
   -0.1280    5.1846   -0.3544 H   0  0  0  0  0  0  0  0  0  0  0  0
    3.8586    0.9700    2.3443 H   0  0  0  0  0  0  0  0  0  0  0  0
    4.4715   -4.8806   -1.4966 H   0  0  0  0  0  0  0  0  0  0  0  0
    5.2069   -4.4720    0.8151 H   0  0  0  0  0  0  0  0  0  0  0  0
   -3.4863   -0.3321   -0.4573 H   0  0  0  0  0  0  0  0  0  0  0  0
   -4.4754   -1.5493    1.8727 H   0  0  0  0  0  0  0  0  0  0  0  0
   -3.3726   -2.6645    1.0928 H   0  0  0  0  0  0  0  0  0  0  0  0
   -5.8745   -0.6136   -0.9202 H   0  0  0  0  0  0  0  0  0  0  0  0
   -6.4933   -0.8706    0.7290 H   0  0  0  0  0  0  0  0  0  0  0  0
   -6.0683   -3.3010    1.7178 H   0  0  0  0  0  0  0  0  0  0  0  0
   -5.2087   -4.4117    0.6246 H   0  0  0  0  0  0  0  0  0  0  0  0
   -7.2972   -2.2647   -1.8241 H   0  0  0  0  0  0  0  0  0  0  0  0
   -8.2940   -1.8271   -0.4271 H   0  0  0  0  0  0  0  0  0  0  0  0
   -7.9226   -3.9606    0.4503 H   0  0  0  0  0  0  0  0  0  0  0  0
   -6.9431   -4.3370   -0.9763 H   0  0  0  0  0  0  0  0  0  0  0  0
   -0.9109   -0.5312    2.5654 H   0  0  0  0  0  0  0  0  0  0  0  0
    5.2843   -3.1294    2.4656 H   0  0  0  0  0  0  0  0  0  0  0  0
  1 15  1  0  0  0  0
  1 47  1  0  0  0  0
  2 17  1  0  0  0  0
  2 48  1  0  0  0  0
  3 19  2  0  0  0  0
  4 20  2  0  0  0  0
  5 23  1  0  0  0  0
  5 56  1  0  0  0  0
  6 22  2  0  0  0  0
  7 30  1  0  0  0  0
  7 71  1  0  0  0  0
  8 31  1  0  0  0  0
  8 70  1  0  0  0  0
  9 16  1  0  0  0  0
  9 28  1  0  0  0  0
  9 29  1  0  0  0  0
 10 31  1  0  0  0  0
 10 34  1  0  0  0  0
 10 59  1  0  0  0  0
 11 34  1  0  0  0  0
 11 35  1  0  0  0  0
 11 36  1  0  0  0  0
 12 14  1  0  0  0  0
 12 15  1  0  0  0  0
 12 16  1  0  0  0  0
 12 39  1  0  0  0  0
 13 14  1  0  0  0  0
 13 17  1  0  0  0  0
 13 18  1  0  0  0  0
 13 40  1  0  0  0  0
 14 41  1  0  0  0  0
 14 42  1  0  0  0  0
 15 19  1  0  0  0  0
 15 20  1  0  0  0  0
 16 22  1  0  0  0  0
 16 43  1  0  0  0  0
 17 21  1  0  0  0  0
 17 26  1  0  0  0  0
 18 19  1  0  0  0  0
 18 23  2  0  0  0  0
 20 24  1  0  0  0  0
 21 25  2  0  0  0  0
 21 27  1  0  0  0  0
 22 24  1  0  0  0  0
 23 25  1  0  0  0  0
 24 31  2  0  0  0  0
 25 30  1  0  0  0  0
 26 44  1  0  0  0  0
 26 45  1  0  0  0  0
 26 46  1  0  0  0  0
 27 32  2  0  0  0  0
 27 49  1  0  0  0  0
 28 50  1  0  0  0  0
 28 51  1  0  0  0  0
 28 52  1  0  0  0  0
 29 53  1  0  0  0  0
 29 54  1  0  0  0  0
 29 55  1  0  0  0  0
 30 33  2  0  0  0  0
 32 33  1  0  0  0  0
 32 57  1  0  0  0  0
 33 58  1  0  0  0  0
 34 60  1  0  0  0  0
 34 61  1  0  0  0  0
 35 37  1  0  0  0  0
 35 62  1  0  0  0  0
 35 63  1  0  0  0  0
 36 38  1  0  0  0  0
 36 64  1  0  0  0  0
 36 65  1  0  0  0  0
 37 38  1  0  0  0  0
 37 66  1  0  0  0  0
 37 67  1  0  0  0  0
 38 68  1  0  0  0  0
 38 69  1  0  0  0  0
M  END
> <PUBCHEM_COMPOUND_CID>
12954

> <PUBCHEM_CONFORMER_RMSD>
1

> <PUBCHEM_CONFORMER_DIVERSEORDER>
1
24
27
16
6
17
21
20
23
22
2
29
10
26
15
19
25
3
13
9
14
18
4
8
28
11
7
5
12

> <PUBCHEM_MMFF94_PARTIAL_CHARGES>
42
1 -0.68
10 -0.87
11 -0.81
13 0.14
15 0.4
16 0.33
17 0.42
18 -0.12
19 0.49
2 -0.68
20 0.49
21 -0.14
22 0.49
23 0.05
24 0.03
25 0.03
27 -0.15
28 0.27
29 0.27
3 -0.57
30 0.08
31 0.18
32 -0.15
33 -0.15
34 0.64
35 0.27
36 0.27
4 -0.57
47 0.4
48 0.4
49 0.15
5 -0.53
56 0.45
57 0.15
58 0.15
59 0.4
6 -0.57
7 -0.53
70 0.45
71 0.45
8 -0.53
9 -0.81

> <PUBCHEM_EFFECTIVE_ROTOR_COUNT>
5.6

> <PUBCHEM_PHARMACOPHORE_FEATURES>
20
1 1 acceptor
1 1 donor
1 10 cation
1 10 donor
1 11 cation
1 2 acceptor
1 2 donor
1 24 anion
1 3 acceptor
1 4 acceptor
1 5 donor
1 6 acceptor
1 7 donor
1 8 donor
1 9 cation
5 11 35 36 37 38 rings
6 12 13 14 15 18 19 rings
6 12 15 16 20 22 24 rings
6 13 17 18 21 23 25 rings
6 21 25 27 30 32 33 rings

> <PUBCHEM_HEAVY_ATOM_COUNT>
38

> <PUBCHEM_ATOM_DEF_STEREO_COUNT>
4

> <PUBCHEM_ATOM_UDEF_STEREO_COUNT>
1

> <PUBCHEM_BOND_DEF_STEREO_COUNT>
0

> <PUBCHEM_BOND_UDEF_STEREO_COUNT>
1

> <PUBCHEM_ISOTOPIC_ATOM_COUNT>
0

> <PUBCHEM_COMPONENT_COUNT>
1

> <PUBCHEM_CACTVS_TAUTO_COUNT>
168

> <PUBCHEM_CONFORMER_ID>
0000329A00000001

> <PUBCHEM_MMFF94_ENERGY>
124.5712

> <PUBCHEM_FEATURE_SELFOVERLAP>
101.749

> <PUBCHEM_SHAPE_FINGERPRINT>
10190108 129 18263089821330691326
10258939 38 18270701778378284344
10622 236 17773597320048009442
11135609 149 18265354840953461535
11578080 2 18056742434095182236
11828422 8 12606544482949577470
11828532 37 17487622906245169931
1200032 147 7709457264700849666
12156800 1 16165321879221647878
12422481 6 17894630366480478463
12977781 61 18265071269383889456
131258 38 17242742978687793111
13782708 43 18338514115963485703
14068700 675 18202004369226344394
14725015 67 18411707616190383387
15484559 13 17618205222673663029
15664445 248 18126278636878587429
17809404 112 17974286831153789382
17909252 39 18341329981682889821
18603816 31 17481431899423655858
19315092 285 17967805020807573483
20775530 9 18195781116016978882
21133410 58 18268159656620546047
23559900 14 18050569848904306716
25222932 49 18261390005923282774
3380486 145 17314539051845170748
3383291 50 17834112327053358513
44880168 125 17758086556617071335
50009960 94 18267889240535529363
513532 50 18194960742998175699
613672 6 18200869574347228331
9831232 110 18053098416548761611

> <PUBCHEM_SHAPE_MULTIPOLES>
720.12
12.99
6.08
2.27
21.41
2.11
0.09
-21.72
0.53
2.75
0.94
-2.34
0.13
1.32

> <PUBCHEM_SHAPE_SELFOVERLAP>
1577.076

> <PUBCHEM_SHAPE_VOLUME>
382.8

> <PUBCHEM_COORDINATE_TYPE>
2
5
10

$$$$

