12394
  -OEChem-06261206543D

 47 46  0     0  0  0  0  0  0999 V2000
   -9.8322    0.6359   -0.0076 Br  0  0  0  0  0  0  0  0  0  0  0  0
    0.6359    0.3283    0.0725 C   0  0  0  0  0  0  0  0  0  0  0  0
   -0.6553   -0.4927    0.0033 C   0  0  0  0  0  0  0  0  0  0  0  0
    1.9438   -0.4675    0.0001 C   0  0  0  0  0  0  0  0  0  0  0  0
   -1.9232    0.3632   -0.0075 C   0  0  0  0  0  0  0  0  0  0  0  0
    3.1945    0.4147    0.0140 C   0  0  0  0  0  0  0  0  0  0  0  0
   -3.1800   -0.5093   -0.0449 C   0  0  0  0  0  0  0  0  0  0  0  0
    4.5018   -0.3860    0.0320 C   0  0  0  0  0  0  0  0  0  0  0  0
   -4.4501    0.3431   -0.0221 C   0  0  0  0  0  0  0  0  0  0  0  0
    5.7538    0.4931   -0.0292 C   0  0  0  0  0  0  0  0  0  0  0  0
   -5.7066   -0.5306   -0.0255 C   0  0  0  0  0  0  0  0  0  0  0  0
    7.0587   -0.3095   -0.0006 C   0  0  0  0  0  0  0  0  0  0  0  0
   -6.9767    0.3252    0.0254 C   0  0  0  0  0  0  0  0  0  0  0  0
    8.3109    0.5674   -0.0354 C   0  0  0  0  0  0  0  0  0  0  0  0
   -8.2530   -0.5017    0.0172 C   0  0  0  0  0  0  0  0  0  0  0  0
    9.5778   -0.2736    0.0082 C   0  0  0  0  0  0  0  0  0  0  0  0
    0.6305    0.9140    1.0006 H   0  0  0  0  0  0  0  0  0  0  0  0
    0.6287    1.0553   -0.7499 H   0  0  0  0  0  0  0  0  0  0  0  0
   -0.6335   -1.1142   -0.9004 H   0  0  0  0  0  0  0  0  0  0  0  0
   -0.6834   -1.1794    0.8583 H   0  0  0  0  0  0  0  0  0  0  0  0
    1.9809   -1.1641    0.8466 H   0  0  0  0  0  0  0  0  0  0  0  0
    1.9442   -1.0772   -0.9116 H   0  0  0  0  0  0  0  0  0  0  0  0
   -1.9415    0.9980    0.8867 H   0  0  0  0  0  0  0  0  0  0  0  0
   -1.9096    1.0301   -0.8779 H   0  0  0  0  0  0  0  0  0  0  0  0
    3.1665    1.0699    0.8933 H   0  0  0  0  0  0  0  0  0  0  0  0
    3.1815    1.0673   -0.8676 H   0  0  0  0  0  0  0  0  0  0  0  0
   -3.1799   -1.1888    0.8162 H   0  0  0  0  0  0  0  0  0  0  0  0
   -3.1701   -1.1315   -0.9480 H   0  0  0  0  0  0  0  0  0  0  0  0
    4.5101   -1.0785   -0.8188 H   0  0  0  0  0  0  0  0  0  0  0  0
    4.5339   -0.9999    0.9404 H   0  0  0  0  0  0  0  0  0  0  0  0
   -4.4618    1.0095   -0.8930 H   0  0  0  0  0  0  0  0  0  0  0  0
   -4.4488    0.9788    0.8718 H   0  0  0  0  0  0  0  0  0  0  0  0
    5.7248    1.1002   -0.9423 H   0  0  0  0  0  0  0  0  0  0  0  0
    5.7431    1.1917    0.8165 H   0  0  0  0  0  0  0  0  0  0  0  0
   -5.6895   -1.2077    0.8370 H   0  0  0  0  0  0  0  0  0  0  0  0
   -5.7203   -1.1541   -0.9275 H   0  0  0  0  0  0  0  0  0  0  0  0
    7.0769   -0.9287    0.9050 H   0  0  0  0  0  0  0  0  0  0  0  0
    7.0740   -0.9980   -0.8547 H   0  0  0  0  0  0  0  0  0  0  0  0
   -6.9553    0.9545    0.9244 H   0  0  0  0  0  0  0  0  0  0  0  0
   -6.9796    1.0111   -0.8315 H   0  0  0  0  0  0  0  0  0  0  0  0
    8.3117    1.1768   -0.9463 H   0  0  0  0  0  0  0  0  0  0  0  0
    8.3052    1.2564    0.8170 H   0  0  0  0  0  0  0  0  0  0  0  0
   -8.3333   -1.1281    0.9101 H   0  0  0  0  0  0  0  0  0  0  0  0
   -8.3173   -1.1340   -0.8729 H   0  0  0  0  0  0  0  0  0  0  0  0
    9.6207   -0.8714    0.9242 H   0  0  0  0  0  0  0  0  0  0  0  0
   10.4615    0.3716   -0.0182 H   0  0  0  0  0  0  0  0  0  0  0  0
    9.6274   -0.9529   -0.8488 H   0  0  0  0  0  0  0  0  0  0  0  0
  1 15  1  0  0  0  0
  2  3  1  0  0  0  0
  2  4  1  0  0  0  0
  2 17  1  0  0  0  0
  2 18  1  0  0  0  0
  3  5  1  0  0  0  0
  3 19  1  0  0  0  0
  3 20  1  0  0  0  0
  4  6  1  0  0  0  0
  4 21  1  0  0  0  0
  4 22  1  0  0  0  0
  5  7  1  0  0  0  0
  5 23  1  0  0  0  0
  5 24  1  0  0  0  0
  6  8  1  0  0  0  0
  6 25  1  0  0  0  0
  6 26  1  0  0  0  0
  7  9  1  0  0  0  0
  7 27  1  0  0  0  0
  7 28  1  0  0  0  0
  8 10  1  0  0  0  0
  8 29  1  0  0  0  0
  8 30  1  0  0  0  0
  9 11  1  0  0  0  0
  9 31  1  0  0  0  0
  9 32  1  0  0  0  0
 10 12  1  0  0  0  0
 10 33  1  0  0  0  0
 10 34  1  0  0  0  0
 11 13  1  0  0  0  0
 11 35  1  0  0  0  0
 11 36  1  0  0  0  0
 12 14  1  0  0  0  0
 12 37  1  0  0  0  0
 12 38  1  0  0  0  0
 13 15  1  0  0  0  0
 13 39  1  0  0  0  0
 13 40  1  0  0  0  0
 14 16  1  0  0  0  0
 14 41  1  0  0  0  0
 14 42  1  0  0  0  0
 15 43  1  0  0  0  0
 15 44  1  0  0  0  0
 16 45  1  0  0  0  0
 16 46  1  0  0  0  0
 16 47  1  0  0  0  0
M  END
> <PUBCHEM_COMPOUND_CID>
12394

> <PUBCHEM_CONFORMER_RMSD>
1.4

> <PUBCHEM_CONFORMER_DIVERSEORDER>
1
36
20
15
13
21
34
11
19
44
2
28
12
26
3
4
42
8
30
27
38
33
9
10
47
17
24
25
5
7
46
23
40
37
16
43
35
32
29
22
31
41
39
14
45
6
18

> <PUBCHEM_MMFF94_PARTIAL_CHARGES>
2
1 -0.23
15 0.23

> <PUBCHEM_EFFECTIVE_ROTOR_COUNT>
13

> <PUBCHEM_PHARMACOPHORE_FEATURES>
2
1 1 hydrophobe
1 16 hydrophobe

> <PUBCHEM_HEAVY_ATOM_COUNT>
16

> <PUBCHEM_ATOM_DEF_STEREO_COUNT>
0

> <PUBCHEM_ATOM_UDEF_STEREO_COUNT>
0

> <PUBCHEM_BOND_DEF_STEREO_COUNT>
0

> <PUBCHEM_BOND_UDEF_STEREO_COUNT>
0

> <PUBCHEM_ISOTOPIC_ATOM_COUNT>
0

> <PUBCHEM_COMPONENT_COUNT>
1

> <PUBCHEM_CACTVS_TAUTO_COUNT>
1

> <PUBCHEM_CONFORMER_ID>
0000306A00000001

> <PUBCHEM_MMFF94_ENERGY>
-3.051

> <PUBCHEM_FEATURE_SELFOVERLAP>
10.149

> <PUBCHEM_SHAPE_FINGERPRINT>
14123256 10 18410292514485538556
14251764 18 18411138051828057138
14251764 46 17989205949695655835
15510794 2 18411414012447243251
22224240 67 15554448483591023296
232437 2 18343021094853736274
23521765 1 18335420166375000230
23581129 1 18411981364329971718
33684 2 18410575088958046210
4325135 7 18409166610294317340
67123 10 18410855451538227207
8209 1 18410573985156725895

> <PUBCHEM_SHAPE_MULTIPOLES>
335.21
36.59
0.83
0.63
0.75
0.02
0
3.01
0.13
0.28
0
0.09
0.01
-0.02

> <PUBCHEM_SHAPE_SELFOVERLAP>
583.576

> <PUBCHEM_SHAPE_VOLUME>
221.7

> <PUBCHEM_COORDINATE_TYPE>
2
5
10

$$$$

