4471
  -OEChem-06261200093D

 30 29  0     1  0  0  0  0  0999 V2000
   -3.5797    1.2202    1.1296 O   0  0  0  0  0  0  0  0  0  0  0  0
   -4.2999    0.2650   -0.7963 O   0  0  0  0  0  0  0  0  0  0  0  0
    1.7162   -0.0711   -0.2606 N   0  0  0  0  0  0  0  0  0  0  0  0
   -2.6887   -1.8991   -0.4989 N   0  0  0  0  0  0  0  0  0  0  0  0
    3.9409   -0.8990    0.2124 N   0  3  0  0  0  0  0  0  0  0  0  0
    3.5891    1.4770   -0.1620 N   0  0  0  0  0  0  0  0  0  0  0  0
   -1.1283   -0.3031    0.5813 C   0  0  0  0  0  0  0  0  0  0  0  0
   -0.6476    0.3972   -0.6999 C   0  0  0  0  0  0  0  0  0  0  0  0
   -2.5630   -0.8479    0.5101 C   0  0  1  0  0  0  0  0  0  0  0  0
    0.7615    0.9705   -0.5566 C   0  0  0  0  0  0  0  0  0  0  0  0
   -3.5696    0.2415    0.1860 C   0  0  0  0  0  0  0  0  0  0  0  0
    3.0910    0.1770   -0.0694 C   0  0  0  0  0  0  0  0  0  0  0  0
    5.3779   -0.7283    0.4244 C   0  0  0  0  0  0  0  0  0  0  0  0
   -0.4548   -1.1303    0.8356 H   0  0  0  0  0  0  0  0  0  0  0  0
   -1.0606    0.4102    1.4130 H   0  0  0  0  0  0  0  0  0  0  0  0
   -1.3278    1.2144   -0.9642 H   0  0  0  0  0  0  0  0  0  0  0  0
   -0.6500   -0.3131   -1.5344 H   0  0  0  0  0  0  0  0  0  0  0  0
   -2.8448   -1.2779    1.4779 H   0  0  0  0  0  0  0  0  0  0  0  0
    1.0467    1.4537   -1.4967 H   0  0  0  0  0  0  0  0  0  0  0  0
    0.7757    1.7069    0.2539 H   0  0  0  0  0  0  0  0  0  0  0  0
    1.4157   -1.0424   -0.2075 H   0  0  0  0  0  0  0  0  0  0  0  0
   -1.9955   -2.6256   -0.3235 H   0  0  0  0  0  0  0  0  0  0  0  0
   -2.4801   -1.5286   -1.4248 H   0  0  0  0  0  0  0  0  0  0  0  0
    3.5326   -1.8296    0.2702 H   0  0  0  0  0  0  0  0  0  0  0  0
    2.9843    2.2681   -0.3669 H   0  0  0  0  0  0  0  0  0  0  0  0
    4.5762    1.6808   -0.0283 H   0  0  0  0  0  0  0  0  0  0  0  0
   -4.2299    1.9238    0.9188 H   0  0  0  0  0  0  0  0  0  0  0  0
    5.8122   -1.7111    0.6271 H   0  0  0  0  0  0  0  0  0  0  0  0
    5.5478   -0.0846    1.2907 H   0  0  0  0  0  0  0  0  0  0  0  0
    5.8372   -0.3221   -0.4800 H   0  0  0  0  0  0  0  0  0  0  0  0
  1 11  1  0  0  0  0
  1 27  1  0  0  0  0
  2 11  2  0  0  0  0
  3 10  1  0  0  0  0
  3 12  1  0  0  0  0
  3 21  1  0  0  0  0
  4  9  1  0  0  0  0
  4 22  1  0  0  0  0
  4 23  1  0  0  0  0
  5 12  2  0  0  0  0
  5 13  1  0  0  0  0
  5 24  1  0  0  0  0
  6 12  1  0  0  0  0
  6 25  1  0  0  0  0
  6 26  1  0  0  0  0
  7  8  1  0  0  0  0
  7  9  1  0  0  0  0
  7 14  1  0  0  0  0
  7 15  1  0  0  0  0
  8 10  1  0  0  0  0
  8 16  1  0  0  0  0
  8 17  1  0  0  0  0
  9 11  1  0  0  0  0
  9 18  1  0  0  0  0
 10 19  1  0  0  0  0
 10 20  1  0  0  0  0
 13 28  1  0  0  0  0
 13 29  1  0  0  0  0
 13 30  1  0  0  0  0
M  CHG  1   5   1
M  END
> <PUBCHEM_COMPOUND_CID>
4471

> <PUBCHEM_CONFORMER_RMSD>
0.8

> <PUBCHEM_CONFORMER_DIVERSEORDER>
1
273
522
627
319
377
521
466
7
552
234
159
328
95
17
391
5
217
382
29
186
251
504
151
277
320
285
640
69
613
4
263
79
667
406
333
41
329
396
59
298
366
122
243
373
647
513
89
363
32
269
700
235
341
158
311
567
407
288
96
286
52
648
67
264
474
304
384
54
370
386
57
56
405
438
15
51
3
388
415
147
378
42
2
306
33
322
526
136
39
478
534
347
142
352
193
49
101
421
266
97
408
60
289
98
156
170
55
218
135
295
539
443
376
687
31
638
81
662
465
469
398
468
22
115
12
374
25
140
620
323
61
684
194
531
379
70
335
219
63
6
575
163
28
283
11
316
592
19
77
62
431
16
185

> <PUBCHEM_MMFF94_PARTIAL_CHARGES>
18
1 -0.65
10 0.33
11 0.66
12 1.2
13 0.33
2 -0.57
21 0.45
22 0.36
23 0.36
24 0.45
25 0.45
26 0.45
27 0.5
3 -0.84
4 -0.99
5 -0.84
6 -0.97
9 0.33

> <PUBCHEM_EFFECTIVE_ROTOR_COUNT>
6

> <PUBCHEM_PHARMACOPHORE_FEATURES>
9
1 1 acceptor
1 2 acceptor
1 3 donor
1 4 cation
1 4 donor
1 5 donor
1 6 donor
3 1 2 11 anion
4 3 5 6 12 cation

> <PUBCHEM_HEAVY_ATOM_COUNT>
13

> <PUBCHEM_ATOM_DEF_STEREO_COUNT>
0

> <PUBCHEM_ATOM_UDEF_STEREO_COUNT>
1

> <PUBCHEM_BOND_DEF_STEREO_COUNT>
0

> <PUBCHEM_BOND_UDEF_STEREO_COUNT>
0

> <PUBCHEM_ISOTOPIC_ATOM_COUNT>
0

> <PUBCHEM_COMPONENT_COUNT>
1

> <PUBCHEM_CACTVS_TAUTO_COUNT>
3

> <PUBCHEM_CONFORMER_ID>
0000117700000001

> <PUBCHEM_MMFF94_ENERGY>
4.7225

> <PUBCHEM_FEATURE_SELFOVERLAP>
45.812

> <PUBCHEM_SHAPE_FINGERPRINT>
124424 183 18260548922287458377
12500047 106 18113621192089444903
12815109 37 18131071550140400954
13675066 3 17704067382882221305
14123238 8 7709456122022523690
14577589 140 18272930505780193671
17834072 33 18337391539489943844
17834072 8 17704079520538785063
18186145 218 14476961147239725764
19489759 90 17386009502457513585
20279233 1 17458056066908818070
20281475 54 17917142793574930894
20645477 70 18342740723873635270
20828058 44 18334576841373376850
22485316 2 18341615893349975414
23402539 116 18113623383229537493
573450 72 18334016090163681939

> <PUBCHEM_SHAPE_MULTIPOLES>
235.87
10.31
1.33
0.86
7.3
0.15
-0.06
1.21
-1.15
-0.07
0.06
-0.59
-0.07
-0.55

> <PUBCHEM_SHAPE_SELFOVERLAP>
438.979

> <PUBCHEM_SHAPE_VOLUME>
144.2

> <PUBCHEM_COORDINATE_TYPE>
2
5
10

$$$$

