40159
  -OEChem-07051213153D

 46 48  0     1  0  0  0  0  0999 V2000
   -3.6005    3.2293    1.5848 Cl  0  0  0  0  0  0  0  0  0  0  0  0
   -3.7899    2.3138   -1.2151 Cl  0  0  0  0  0  0  0  0  0  0  0  0
   -0.1609   -2.0740    0.2463 O   0  0  0  0  0  0  0  0  0  0  0  0
   -1.6614   -3.7674   -0.2335 O   0  0  0  0  0  0  0  0  0  0  0  0
    3.5843    1.1585   -0.7202 O   0  0  0  0  0  0  0  0  0  0  0  0
   -3.5998   -1.3717   -0.3266 C   0  0  0  0  0  0  0  0  0  0  0  0
   -2.5348   -0.3513   -0.0505 C   0  0  2  0  0  0  0  0  0  0  0  0
   -2.4664   -1.7000    0.5916 C   0  0  2  0  0  0  0  0  0  0  0  0
   -3.6378   -1.9719   -1.6918 C   0  0  0  0  0  0  0  0  0  0  0  0
   -4.9514   -1.2191    0.2880 C   0  0  0  0  0  0  0  0  0  0  0  0
   -2.8176    0.8015    0.7914 C   0  0  0  0  0  0  0  0  0  0  0  0
   -1.4008   -2.6374    0.1538 C   0  0  0  0  0  0  0  0  0  0  0  0
   -3.3442    1.9780    0.4190 C   0  0  0  0  0  0  0  0  0  0  0  0
    0.9248   -2.9017   -0.1529 C   0  0  0  0  0  0  0  0  0  0  0  0
    2.2037   -2.1512    0.0041 C   0  0  0  0  0  0  0  0  0  0  0  0
    2.2967   -0.8310   -0.4366 C   0  0  0  0  0  0  0  0  0  0  0  0
    3.3074   -2.7697    0.5917 C   0  0  0  0  0  0  0  0  0  0  0  0
    3.4931   -0.1294   -0.2897 C   0  0  0  0  0  0  0  0  0  0  0  0
    4.5039   -2.0680    0.7385 C   0  0  0  0  0  0  0  0  0  0  0  0
    4.5968   -0.7478    0.2978 C   0  0  0  0  0  0  0  0  0  0  0  0
    2.5434    2.0168   -0.4080 C   0  0  0  0  0  0  0  0  0  0  0  0
    2.0301    2.0143    0.8764 C   0  0  0  0  0  0  0  0  0  0  0  0
    2.0432    2.8538   -1.3890 C   0  0  0  0  0  0  0  0  0  0  0  0
    0.9810    2.8782    1.1905 C   0  0  0  0  0  0  0  0  0  0  0  0
    0.9941    3.7178   -1.0749 C   0  0  0  0  0  0  0  0  0  0  0  0
    0.4630    3.7299    0.2149 C   0  0  0  0  0  0  0  0  0  0  0  0
   -1.8188   -0.1440   -0.8412 H   0  0  0  0  0  0  0  0  0  0  0  0
   -2.6984   -1.7819    1.6496 H   0  0  0  0  0  0  0  0  0  0  0  0
   -4.3115   -1.4000   -2.3398 H   0  0  0  0  0  0  0  0  0  0  0  0
   -2.6587   -1.9822   -2.1834 H   0  0  0  0  0  0  0  0  0  0  0  0
   -4.0065   -3.0025   -1.6523 H   0  0  0  0  0  0  0  0  0  0  0  0
   -5.5531   -0.4976   -0.2753 H   0  0  0  0  0  0  0  0  0  0  0  0
   -5.4836   -2.1770    0.2792 H   0  0  0  0  0  0  0  0  0  0  0  0
   -4.9172   -0.8853    1.3308 H   0  0  0  0  0  0  0  0  0  0  0  0
   -2.5531    0.6850    1.8421 H   0  0  0  0  0  0  0  0  0  0  0  0
    0.9268   -3.8059    0.4678 H   0  0  0  0  0  0  0  0  0  0  0  0
    0.8057   -3.1927   -1.2036 H   0  0  0  0  0  0  0  0  0  0  0  0
    1.4401   -0.3694   -0.9224 H   0  0  0  0  0  0  0  0  0  0  0  0
    3.2504   -3.7981    0.9384 H   0  0  0  0  0  0  0  0  0  0  0  0
    5.3634   -2.5496    1.1956 H   0  0  0  0  0  0  0  0  0  0  0  0
    5.5314   -0.2063    0.4151 H   0  0  0  0  0  0  0  0  0  0  0  0
    2.4308    1.3775    1.6597 H   0  0  0  0  0  0  0  0  0  0  0  0
    2.4550    2.8447   -2.3936 H   0  0  0  0  0  0  0  0  0  0  0  0
    0.5693    2.8906    2.1955 H   0  0  0  0  0  0  0  0  0  0  0  0
    0.5901    4.3804   -1.8346 H   0  0  0  0  0  0  0  0  0  0  0  0
   -0.3540    4.4023    0.4595 H   0  0  0  0  0  0  0  0  0  0  0  0
  1 13  1  0  0  0  0
  2 13  1  0  0  0  0
  3 12  1  0  0  0  0
  3 14  1  0  0  0  0
  4 12  2  0  0  0  0
  5 18  1  0  0  0  0
  5 21  1  0  0  0  0
  6  7  1  0  0  0  0
  6  8  1  0  0  0  0
  6  9  1  0  0  0  0
  6 10  1  0  0  0  0
  7  8  1  0  0  0  0
  7 11  1  0  0  0  0
  7 27  1  0  0  0  0
  8 12  1  0  0  0  0
  8 28  1  0  0  0  0
  9 29  1  0  0  0  0
  9 30  1  0  0  0  0
  9 31  1  0  0  0  0
 10 32  1  0  0  0  0
 10 33  1  0  0  0  0
 10 34  1  0  0  0  0
 11 13  2  0  0  0  0
 11 35  1  0  0  0  0
 14 15  1  0  0  0  0
 14 36  1  0  0  0  0
 14 37  1  0  0  0  0
 15 16  2  0  0  0  0
 15 17  1  0  0  0  0
 16 18  1  0  0  0  0
 16 38  1  0  0  0  0
 17 19  2  0  0  0  0
 17 39  1  0  0  0  0
 18 20  2  0  0  0  0
 19 20  1  0  0  0  0
 19 40  1  0  0  0  0
 20 41  1  0  0  0  0
 21 22  2  0  0  0  0
 21 23  1  0  0  0  0
 22 24  1  0  0  0  0
 22 42  1  0  0  0  0
 23 25  2  0  0  0  0
 23 43  1  0  0  0  0
 24 26  2  0  0  0  0
 24 44  1  0  0  0  0
 25 26  1  0  0  0  0
 25 45  1  0  0  0  0
 26 46  1  0  0  0  0
M  END
> <PUBCHEM_COMPOUND_CID>
40159

> <PUBCHEM_CONFORMER_RMSD>
1.2

> <PUBCHEM_CONFORMER_DIVERSEORDER>
1
60
98
134
5
109
117
106
129
196
7
79
102
30
184
11
187
153
135
16
200
197
192
74
46
177
147
199
136
198
49
118
64
146
45
130
3
65
113
123
73
188
122
157
191
53
10
12
111
33
32
66
40
26
138
8
94
143
173
182
158
36
75
186
189
24
142
34
172
37
71
160
176
6
110
120
164
20
70
86
69
121
103
171
39
4
97
47
95
2
44
125
17
170
27
165
152
178
108
180
62
179
21
48
201
14
19
41
119
169
175
144
28
56
114
93
99
101
57
78
25
163
31
159
43
137
132
9
151
124
15
166
148
61
55
84
67
150
104
116
126
50
128
193
181
13
80
81
42
167
195
105
139
22
154
162
156
29
115
185
89
82
155
85
52
100
59
190
88
77
23
76
58
174
90
18
112
68
38
87
51
127
96
145
72
92
194
149
140
183
63
83
107
54
131
168
133
141
35
91
161

> <PUBCHEM_MMFF94_PARTIAL_CHARGES>
38
1 -0.14
10 0.09
11 -0.19
12 0.72
13 0.28
14 0.42
15 -0.14
16 -0.15
17 -0.15
18 0.08
19 -0.15
2 -0.14
20 -0.15
21 0.08
22 -0.15
23 -0.15
24 -0.15
25 -0.15
26 -0.15
27 0.1
28 0.1
3 -0.43
35 0.15
38 0.15
39 0.15
4 -0.57
40 0.15
41 0.15
42 0.15
43 0.15
44 0.15
45 0.15
46 0.15
5 -0.17
6 -0.19
7 -0.06
8 -0.1
9 0.09

> <PUBCHEM_EFFECTIVE_ROTOR_COUNT>
7.6

> <PUBCHEM_PHARMACOPHORE_FEATURES>
5
1 4 acceptor
1 5 acceptor
3 6 9 10 hydrophobe
6 15 16 17 18 19 20 rings
6 21 22 23 24 25 26 rings

> <PUBCHEM_HEAVY_ATOM_COUNT>
26

> <PUBCHEM_ATOM_DEF_STEREO_COUNT>
2

> <PUBCHEM_ATOM_UDEF_STEREO_COUNT>
0

> <PUBCHEM_BOND_DEF_STEREO_COUNT>
0

> <PUBCHEM_BOND_UDEF_STEREO_COUNT>
0

> <PUBCHEM_ISOTOPIC_ATOM_COUNT>
0

> <PUBCHEM_COMPONENT_COUNT>
1

> <PUBCHEM_CACTVS_TAUTO_COUNT>
1

> <PUBCHEM_CONFORMER_ID>
00009CDF00000001

> <PUBCHEM_MMFF94_ENERGY>
71.1933

> <PUBCHEM_FEATURE_SELFOVERLAP>
25.371

> <PUBCHEM_SHAPE_FINGERPRINT>
10074138 170 15824982567549442371
10439779 11 18337401448211884016
10708813 3 18410283735614901897
1100329 8 18265893742630585577
11513181 2 17248086953138075581
12038231 1 18267018538783645357
12156800 1 5148140752760814056
12539773 59 17604976032375678707
12633257 1 18268145542433721325
12978246 48 18410289211898450259
13122387 1 18122057873626740597
13140716 1 18266176312792171818
1361 2 15313507427850825224
14117953 113 17906449188122413204
14466204 15 18196098738208189800
14931854 50 18337664209630970852
151778 21 17911228417212551268
18336668 15 18273214210002965844
19930381 70 17690281512988572651
20567600 299 18334301971839927202
20600515 1 18117832433261711724
20764821 26 18342181114956364717
20775530 9 18411421708695854068
21133410 38 16963237631330713153
21860390 5 18334572391935432862
22113638 7 18266739267072488029
22749437 52 18050573932394779941
23559900 14 18266186019492276067
238 59 18053092930967189304
25265897 201 17678718250073648519
338550 245 18410847764095874529
350125 39 18410852179522286081
463206 1 17973446503542894599
5081480 168 17319248286069804894
653340 110 18049734211160953104
9981440 41 17405151725351698050

> <PUBCHEM_SHAPE_MULTIPOLES>
521.2
9.22
5.79
1.23
1
2.1
0.13
-2.42
-0.46
0.42
0.18
0.65
0.77
-1.7

> <PUBCHEM_SHAPE_SELFOVERLAP>
1093.899

> <PUBCHEM_SHAPE_VOLUME>
295.6

> <PUBCHEM_COORDINATE_TYPE>
2
5
10

$$$$

