5861
  -OEChem-06261200562D

 48 50  0     1  0  0  0  0  0999 V2000
    5.1350    0.1103    0.0000 O   0  0  0  0  0  0  0  0  0  0  0  0
    6.0010   -1.3897    0.0000 O   0  0  0  0  0  0  0  0  0  0  0  0
    2.5369   -1.3897    0.0000 O   0  0  0  0  0  0  0  0  0  0  0  0
    7.9719    3.3952    0.0000 N   0  3  0  0  0  0  0  0  0  0  0  0
    8.7086    2.4126    0.0000 C   0  0  3  0  0  0  0  0  0  0  0  0
    8.4497    1.4467    0.0000 C   0  0  3  0  0  0  0  0  0  0  0  0
   10.5405    1.6538    0.0000 C   0  0  0  0  0  0  0  0  0  0  0  0
   10.2817    0.6879    0.0000 C   0  0  0  0  0  0  0  0  0  0  0  0
    6.9146    0.2035    0.0000 C   0  0  0  0  0  0  0  0  0  0  0  0
    6.1056    1.6048    0.0000 C   0  0  0  0  0  0  0  0  0  0  0  0
    6.0010    0.6103    0.0000 C   0  0  0  0  0  0  0  0  0  0  0  0
    8.0765    4.3897    0.0000 C   0  0  0  0  0  0  0  0  0  0  0  0
    7.0584    3.8020    0.0000 C   0  0  0  0  0  0  0  0  0  0  0  0
    5.1350   -0.8897    0.0000 C   0  0  0  0  0  0  0  0  0  0  0  0
    4.2690   -1.3897    0.0000 C   0  0  3  0  0  0  0  0  0  0  0  0
    3.4030   -0.8897    0.0000 C   0  0  0  0  0  0  0  0  0  0  0  0
    4.2690   -2.3897    0.0000 C   0  0  0  0  0  0  0  0  0  0  0  0
    3.4030   -2.8897    0.0000 C   0  0  0  0  0  0  0  0  0  0  0  0
    5.1350   -2.8897    0.0000 C   0  0  0  0  0  0  0  0  0  0  0  0
    3.4030   -3.8897    0.0000 C   0  0  0  0  0  0  0  0  0  0  0  0
    5.1350   -3.8897    0.0000 C   0  0  0  0  0  0  0  0  0  0  0  0
    4.2690   -4.3897    0.0000 C   0  0  0  0  0  0  0  0  0  0  0  0
    8.6696    1.5635    0.0000 H   0  0  0  0  0  0  0  0  0  0  0  0
    8.5717    0.6055    0.0000 H   0  0  0  0  0  0  0  0  0  0  0  0
   11.1318    1.4673    0.0000 H   0  0  0  0  0  0  0  0  0  0  0  0
   10.7526    2.2364    0.0000 H   0  0  0  0  0  0  0  0  0  0  0  0
   10.0696    0.1052    0.0000 H   0  0  0  0  0  0  0  0  0  0  0  0
   10.8730    0.5014    0.0000 H   0  0  0  0  0  0  0  0  0  0  0  0
    6.5769   -0.3164    0.0000 H   0  0  0  0  0  0  0  0  0  0  0  0
    7.3753   -0.2113    0.0000 H   0  0  0  0  0  0  0  0  0  0  0  0
    6.0033    2.2163    0.0000 H   0  0  0  0  0  0  0  0  0  0  0  0
    5.4858    1.5859    0.0000 H   0  0  0  0  0  0  0  0  0  0  0  0
    5.4811    0.9479    0.0000 H   0  0  0  0  0  0  0  0  0  0  0  0
    8.6931    4.3249    0.0000 H   0  0  0  0  0  0  0  0  0  0  0  0
    8.1413    5.0063    0.0000 H   0  0  0  0  0  0  0  0  0  0  0  0
    7.4599    4.4545    0.0000 H   0  0  0  0  0  0  0  0  0  0  0  0
    7.3106    4.3684    0.0000 H   0  0  0  0  0  0  0  0  0  0  0  0
    6.4920    4.0541    0.0000 H   0  0  0  0  0  0  0  0  0  0  0  0
    6.8062    3.2356    0.0000 H   0  0  0  0  0  0  0  0  0  0  0  0
    4.2690   -0.5397    0.0000 H   0  0  0  0  0  0  0  0  0  0  0  0
    3.8015   -0.4148    0.0000 H   0  0  0  0  0  0  0  0  0  0  0  0
    3.0044   -0.4148    0.0000 H   0  0  0  0  0  0  0  0  0  0  0  0
    2.8660   -2.5797    0.0000 H   0  0  0  0  0  0  0  0  0  0  0  0
    5.6720   -2.5797    0.0000 H   0  0  0  0  0  0  0  0  0  0  0  0
    2.0000   -1.0797    0.0000 H   0  0  0  0  0  0  0  0  0  0  0  0
    2.8660   -4.1997    0.0000 H   0  0  0  0  0  0  0  0  0  0  0  0
    5.6720   -4.1997    0.0000 H   0  0  0  0  0  0  0  0  0  0  0  0
    4.2690   -5.0097    0.0000 H   0  0  0  0  0  0  0  0  0  0  0  0
  1 11  1  0  0  0  0
  1 14  1  0  0  0  0
  2 14  2  0  0  0  0
  3 16  1  0  0  0  0
  3 45  1  0  0  0  0
  4  5  1  0  0  0  0
  4  6  1  0  0  0  0
  4 12  1  0  0  0  0
  4 13  1  0  0  0  0
  5  7  1  0  0  0  0
  5 10  1  0  0  0  0
  5 23  1  0  0  0  0
  6  8  1  0  0  0  0
  6  9  1  0  0  0  0
  6 24  1  0  0  0  0
  7  8  1  0  0  0  0
  7 25  1  0  0  0  0
  7 26  1  0  0  0  0
  8 27  1  0  0  0  0
  8 28  1  0  0  0  0
  9 11  1  0  0  0  0
  9 29  1  0  0  0  0
  9 30  1  0  0  0  0
 10 11  1  0  0  0  0
 10 31  1  0  0  0  0
 10 32  1  0  0  0  0
 11 33  1  0  0  0  0
 12 34  1  0  0  0  0
 12 35  1  0  0  0  0
 12 36  1  0  0  0  0
 13 37  1  0  0  0  0
 13 38  1  0  0  0  0
 13 39  1  0  0  0  0
 14 15  1  0  0  0  0
 15 16  1  0  0  0  0
 15 17  1  0  0  0  0
 15 40  1  0  0  0  0
 16 41  1  0  0  0  0
 16 42  1  0  0  0  0
 17 18  2  0  0  0  0
 17 19  1  0  0  0  0
 18 20  1  0  0  0  0
 18 43  1  0  0  0  0
 19 21  2  0  0  0  0
 19 44  1  0  0  0  0
 20 22  2  0  0  0  0
 20 46  1  0  0  0  0
 21 22  1  0  0  0  0
 21 47  1  0  0  0  0
 22 48  1  0  0  0  0
M  CHG  1   4   1
M  END
> <PUBCHEM_COMPOUND_CID>
5861

> <PUBCHEM_COMPOUND_CANONICALIZED>
1

> <PUBCHEM_CACTVS_COMPLEXITY>
387

> <PUBCHEM_CACTVS_HBOND_ACCEPTOR>
3

> <PUBCHEM_CACTVS_HBOND_DONOR>
1

> <PUBCHEM_CACTVS_ROTATABLE_BOND>
5

> <PUBCHEM_CACTVS_SUBSKEYS>
AAADceB6MAAAAAAAAAAAAAAAAAAAAWAAAAA8QAAABgAAAAABAAAAHgAACAAADTzhmAYyCIMABgCIAiDSCAACAAAgAAAIiAEIAIgIMDaAlRCGYAAn4AGIiAeYyOCOgAAAAAAAAAAAAAAAAAAAAAAAAAAAAA==

> <PUBCHEM_IUPAC_OPENEYE_NAME>
(8,8-dimethyl-8-azoniabicyclo[3.2.1]octan-3-yl) 3-hydroxy-2-phenyl-propanoate

> <PUBCHEM_IUPAC_CAS_NAME>
3-hydroxy-2-phenylpropanoic acid (8,8-dimethyl-8-azoniabicyclo[3.2.1]octan-3-yl) ester

> <PUBCHEM_IUPAC_NAME>
(8,8-dimethyl-8-azoniabicyclo[3.2.1]octan-3-yl) 3-hydroxy-2-phenylpropanoate

> <PUBCHEM_IUPAC_SYSTEMATIC_NAME>
(8,8-dimethyl-8-azoniabicyclo[3.2.1]octan-3-yl) 3-oxidanyl-2-phenyl-propanoate

> <PUBCHEM_IUPAC_TRADITIONAL_NAME>
3-hydroxy-2-phenyl-propionic acid (8,8-dimethyl-8-azoniabicyclo[3.2.1]octan-3-yl) ester

> <PUBCHEM_IUPAC_INCHI>
InChI=1S/C18H26NO3/c1-19(2)14-8-9-15(19)11-16(10-14)22-18(21)17(12-20)13-6-4-3-5-7-13/h3-7,14-17,20H,8-12H2,1-2H3/q+1

> <PUBCHEM_IUPAC_INCHIKEY>
PIPAJLPNWZMYQA-UHFFFAOYSA-N

> <PUBCHEM_XLOGP3>
1.8

> <PUBCHEM_EXACT_MASS>
304.191269

> <PUBCHEM_MOLECULAR_FORMULA>
C18H26NO3+

> <PUBCHEM_MOLECULAR_WEIGHT>
304.40394

> <PUBCHEM_OPENEYE_CAN_SMILES>
C[N+]1(C2CCC1CC(C2)OC(=O)C(CO)C3=CC=CC=C3)C

> <PUBCHEM_OPENEYE_ISO_SMILES>
C[N+]1(C2CCC1CC(C2)OC(=O)C(CO)C3=CC=CC=C3)C

> <PUBCHEM_CACTVS_TPSA>
46.5

> <PUBCHEM_MONOISOTOPIC_WEIGHT>
304.191269

> <PUBCHEM_TOTAL_CHARGE>
1

> <PUBCHEM_HEAVY_ATOM_COUNT>
22

> <PUBCHEM_ATOM_DEF_STEREO_COUNT>
0

> <PUBCHEM_ATOM_UDEF_STEREO_COUNT>
3

> <PUBCHEM_BOND_DEF_STEREO_COUNT>
0

> <PUBCHEM_BOND_UDEF_STEREO_COUNT>
0

> <PUBCHEM_ISOTOPIC_ATOM_COUNT>
0

> <PUBCHEM_COMPONENT_COUNT>
1

> <PUBCHEM_CACTVS_TAUTO_COUNT>
1

> <PUBCHEM_COORDINATE_TYPE>
1
5
255

> <PUBCHEM_BONDANNOTATIONS>
15  40  3
17  18  8
17  19  8
18  20  8
19  21  8
20  22  8
21  22  8
5  23  3
6  24  3

$$$$

