23250406
  -OEChem-07051213033D

 64 66  0     1  0  0  0  0  0999 V2000
    3.7157    2.4725   -0.2930 P   0  0  1  0  0  0  0  0  0  0  0  0
    0.7844    2.6661   -0.4604 P   0  0  2  0  0  0  0  0  0  0  0  0
    2.3073   -0.7738   -0.9872 O   0  0  0  0  0  0  0  0  0  0  0  0
   -2.6283    1.2319    1.7537 O   0  0  0  0  0  0  0  0  0  0  0  0
    3.2724   -3.3779   -1.6952 O   0  0  0  0  0  0  0  0  0  0  0  0
    3.7743    1.0474   -1.0487 O   0  0  0  0  0  0  0  0  0  0  0  0
   -1.9720   -0.2086    4.3740 O   0  0  0  0  0  0  0  0  0  0  0  0
   -0.2741    2.3548    0.7226 O   0  0  0  0  0  0  0  0  0  0  0  0
    2.2114    2.5645    0.2922 O   0  0  0  0  0  0  0  0  0  0  0  0
    4.6177    2.2675    1.0343 O   0  0  0  0  0  0  0  0  0  0  0  0
    4.1189    3.6439   -1.1410 O   0  0  0  0  0  0  0  0  0  0  0  0
    0.6223    4.2547   -0.7194 O   0  0  0  0  0  0  0  0  0  0  0  0
   -5.8278   -1.3106    1.1500 O   0  0  0  0  0  0  0  0  0  0  0  0
    0.6622    1.8084   -1.6860 O   0  0  0  0  0  0  0  0  0  0  0  0
   -5.2337   -0.7537   -3.3761 O   0  0  0  0  0  0  0  0  0  0  0  0
    5.4608   -3.3304    0.0740 N   0  0  0  0  0  0  0  0  0  0  0  0
   -3.8981   -0.2154    0.4241 N   0  0  0  0  0  0  0  0  0  0  0  0
   -5.5184   -1.0268   -1.1047 N   0  0  0  0  0  0  0  0  0  0  0  0
    4.3188   -2.4315    0.2962 C   0  0  2  0  0  0  0  0  0  0  0  0
    3.0281   -3.0110   -0.3327 C   0  0  1  0  0  0  0  0  0  0  0  0
    4.6321   -1.0674   -0.3466 C   0  0  0  0  0  0  0  0  0  0  0  0
    1.8895   -1.9742   -0.3250 C   0  0  2  0  0  0  0  0  0  0  0  0
    3.4140   -0.1403   -0.3473 C   0  0  2  0  0  0  0  0  0  0  0  0
    4.1744   -2.2969    1.8231 C   0  0  0  0  0  0  0  0  0  0  0  0
   -1.4434   -0.3543    3.0577 C   0  0  2  0  0  0  0  0  0  0  0  0
   -1.3518    1.0070    2.3826 C   0  0  1  0  0  0  0  0  0  0  0  0
   -2.4320   -1.1000    2.1915 C   0  0  0  0  0  0  0  0  0  0  0  0
   -3.3722    0.0055    1.7394 C   0  0  1  0  0  0  0  0  0  0  0  0
    0.6418   -2.4765   -1.0453 C   0  0  0  0  0  0  0  0  0  0  0  0
   -0.2808    1.0613    1.3008 C   0  0  0  0  0  0  0  0  0  0  0  0
   -3.1678    0.2404   -0.6661 C   0  0  0  0  0  0  0  0  0  0  0  0
   -5.1279   -0.8803    0.2309 C   0  0  0  0  0  0  0  0  0  0  0  0
   -3.5445    0.0987   -1.9428 C   0  0  0  0  0  0  0  0  0  0  0  0
   -4.8304   -0.5919   -2.2274 C   0  0  0  0  0  0  0  0  0  0  0  0
   -2.7429    0.5969   -3.1022 C   0  0  0  0  0  0  0  0  0  0  0  0
    2.7160   -3.9213    0.1923 H   0  0  0  0  0  0  0  0  0  0  0  0
    5.4709   -0.5723    0.1605 H   0  0  0  0  0  0  0  0  0  0  0  0
    4.9621   -1.2068   -1.3858 H   0  0  0  0  0  0  0  0  0  0  0  0
    1.6025   -1.7243    0.7032 H   0  0  0  0  0  0  0  0  0  0  0  0
    3.1219    0.1179    0.6762 H   0  0  0  0  0  0  0  0  0  0  0  0
    3.3538   -1.6341    2.1120 H   0  0  0  0  0  0  0  0  0  0  0  0
    5.0875   -1.8908    2.2753 H   0  0  0  0  0  0  0  0  0  0  0  0
    3.9808   -3.2712    2.2881 H   0  0  0  0  0  0  0  0  0  0  0  0
   -0.4821   -0.8700    3.1429 H   0  0  0  0  0  0  0  0  0  0  0  0
   -1.2022    1.8220    3.0993 H   0  0  0  0  0  0  0  0  0  0  0  0
   -2.9702   -1.8959    2.7160 H   0  0  0  0  0  0  0  0  0  0  0  0
   -1.9107   -1.5493    1.3376 H   0  0  0  0  0  0  0  0  0  0  0  0
   -4.1964    0.1157    2.4542 H   0  0  0  0  0  0  0  0  0  0  0  0
    5.6011   -3.4664   -0.9265 H   0  0  0  0  0  0  0  0  0  0  0  0
    6.3160   -2.9003    0.4248 H   0  0  0  0  0  0  0  0  0  0  0  0
   -0.1572   -1.7296   -0.9809 H   0  0  0  0  0  0  0  0  0  0  0  0
    0.2786   -3.4101   -0.6054 H   0  0  0  0  0  0  0  0  0  0  0  0
    0.8268   -2.6342   -2.1131 H   0  0  0  0  0  0  0  0  0  0  0  0
   -0.4347    0.3161    0.5174 H   0  0  0  0  0  0  0  0  0  0  0  0
    0.7014    0.8752    1.7488 H   0  0  0  0  0  0  0  0  0  0  0  0
    3.4074   -2.5653   -2.2108 H   0  0  0  0  0  0  0  0  0  0  0  0
   -1.3332    0.3154    4.8868 H   0  0  0  0  0  0  0  0  0  0  0  0
   -2.2376    0.7488   -0.4695 H   0  0  0  0  0  0  0  0  0  0  0  0
   -6.4014   -1.5026   -1.2683 H   0  0  0  0  0  0  0  0  0  0  0  0
    4.8385    3.0498    1.5832 H   0  0  0  0  0  0  0  0  0  0  0  0
   -1.8294    1.1063   -2.7805 H   0  0  0  0  0  0  0  0  0  0  0  0
   -2.4494   -0.2358   -3.7497 H   0  0  0  0  0  0  0  0  0  0  0  0
   -3.3276    1.3088   -3.6939 H   0  0  0  0  0  0  0  0  0  0  0  0
    0.7205    4.8706    0.0377 H   0  0  0  0  0  0  0  0  0  0  0  0
  1  6  1  0  0  0  0
  1  9  1  0  0  0  0
  1 10  1  0  0  0  0
  1 11  2  0  0  0  0
  2  8  1  0  0  0  0
  2  9  1  0  0  0  0
  2 12  1  0  0  0  0
  2 14  2  0  0  0  0
  3 22  1  0  0  0  0
  3 23  1  0  0  0  0
  4 26  1  0  0  0  0
  4 28  1  0  0  0  0
  5 20  1  0  0  0  0
  5 56  1  0  0  0  0
  6 23  1  0  0  0  0
  7 25  1  0  0  0  0
  7 57  1  0  0  0  0
  8 30  1  0  0  0  0
 10 60  1  0  0  0  0
 12 64  1  0  0  0  0
 13 32  2  0  0  0  0
 15 34  2  0  0  0  0
 16 19  1  0  0  0  0
 16 49  1  0  0  0  0
 16 50  1  0  0  0  0
 17 28  1  0  0  0  0
 17 31  1  0  0  0  0
 17 32  1  0  0  0  0
 18 32  1  0  0  0  0
 18 34  1  0  0  0  0
 18 59  1  0  0  0  0
 19 20  1  0  0  0  0
 19 21  1  0  0  0  0
 19 24  1  0  0  0  0
 20 22  1  0  0  0  0
 20 36  1  0  0  0  0
 21 23  1  0  0  0  0
 21 37  1  0  0  0  0
 21 38  1  0  0  0  0
 22 29  1  0  0  0  0
 22 39  1  0  0  0  0
 23 40  1  0  0  0  0
 24 41  1  0  0  0  0
 24 42  1  0  0  0  0
 24 43  1  0  0  0  0
 25 26  1  0  0  0  0
 25 27  1  0  0  0  0
 25 44  1  0  0  0  0
 26 30  1  0  0  0  0
 26 45  1  0  0  0  0
 27 28  1  0  0  0  0
 27 46  1  0  0  0  0
 27 47  1  0  0  0  0
 28 48  1  0  0  0  0
 29 51  1  0  0  0  0
 29 52  1  0  0  0  0
 29 53  1  0  0  0  0
 30 54  1  0  0  0  0
 30 55  1  0  0  0  0
 31 33  2  0  0  0  0
 31 58  1  0  0  0  0
 33 34  1  0  0  0  0
 33 35  1  0  0  0  0
 35 61  1  0  0  0  0
 35 62  1  0  0  0  0
 35 63  1  0  0  0  0
M  END
> <PUBCHEM_COMPOUND_CID>
23250406

> <PUBCHEM_CONFORMER_RMSD>
1.4

> <PUBCHEM_CONFORMER_DIVERSEORDER>
1
128
133
127
6
33
69
25
53
114
106
75
68
28
61
97
17
130
60
35
107
12
76
129
52
112
90
100
15
118
37
32
30
92
2
38
115
64
24
99
20
71
49
41
58
120
56
137
66
31
119
72
39
109
113
132
7
82
70
54
126
14
45
83
26
94
67
9
131
104
10
29
43
3
57
46
124
79
125
88
62
111
63
121
103
73
11
81
91
105
135
117
87
77
101
102
108
55
51
21
136
65
42
48
89
78
16
74
116
95
47
13
134
98
59
23
84
85
34
122
22
110
50
40
4
36
80
96
44
8
27
93
5
123
86
18
19

> <PUBCHEM_MMFF94_PARTIAL_CHARGES>
39
1 1.51
10 -0.77
11 -0.7
12 -0.77
13 -0.57
14 -0.7
15 -0.57
16 -0.99
17 -0.47
18 -0.49
19 0.27
2 1.51
20 0.28
22 0.28
23 0.56
25 0.28
26 0.28
28 0.58
3 -0.56
30 0.28
31 -0.04
32 0.69
33 -0.12
34 0.62
35 0.14
4 -0.56
49 0.36
5 -0.68
50 0.36
56 0.4
57 0.4
58 0.15
59 0.37
6 -0.55
60 0.5
64 0.5
7 -0.68
8 -0.55
9 -0.54

> <PUBCHEM_EFFECTIVE_ROTOR_COUNT>
10.2

> <PUBCHEM_PHARMACOPHORE_FEATURES>
18
1 10 acceptor
1 11 acceptor
1 12 acceptor
1 13 acceptor
1 14 acceptor
1 15 acceptor
1 16 cation
1 16 donor
1 18 donor
1 3 acceptor
1 4 acceptor
1 5 acceptor
1 5 donor
1 7 acceptor
1 7 donor
5 4 25 26 27 28 rings
6 17 18 31 32 33 34 rings
6 3 19 20 21 22 23 rings

> <PUBCHEM_HEAVY_ATOM_COUNT>
35

> <PUBCHEM_ATOM_DEF_STEREO_COUNT>
7

> <PUBCHEM_ATOM_UDEF_STEREO_COUNT>
0

> <PUBCHEM_BOND_DEF_STEREO_COUNT>
0

> <PUBCHEM_BOND_UDEF_STEREO_COUNT>
0

> <PUBCHEM_ISOTOPIC_ATOM_COUNT>
0

> <PUBCHEM_COMPONENT_COUNT>
1

> <PUBCHEM_CACTVS_TAUTO_COUNT>
3

> <PUBCHEM_CONFORMER_ID>
0162C5E600000001

> <PUBCHEM_MMFF94_ENERGY>
38.7499

> <PUBCHEM_FEATURE_SELFOVERLAP>
91.368

> <PUBCHEM_SHAPE_FINGERPRINT>
11135926 11 18198604576605502556
11285246 1 17557994114852554468
11828532 37 15840135578126965091
12156800 1 17333698175071251985
12166972 35 18188503457353712542
13911987 19 17981026540953180164
14114206 34 17484776536474570950
14251757 17 17560805450115359549
14508693 111 16661505982021773127
15001296 14 16951408715480722357
16991981 162 13828972804226298363
17138139 8 17170400602252560381
17349148 13 18187083992026444858
17809404 112 17774713174104584546
19315092 285 17748836206652420632
20511986 3 17603862295742865929
21033650 10 15769486612201330384
21315764 371 17095243635597585786
23559900 14 17060328631009352654
392239 28 16516267221990853314
4015057 19 18272083902926999233
46194498 28 17273685469123175645
463206 1 17895192130864507763
469060 322 18118414070818103022
508706 21 16773791472752535467

> <PUBCHEM_SHAPE_MULTIPOLES>
636.74
12.29
4.15
3.25
3.96
2.05
-1.43
-6.39
3.75
-7.74
1
5.06
-0.49
-0.07

> <PUBCHEM_SHAPE_SELFOVERLAP>
1292.323

> <PUBCHEM_SHAPE_VOLUME>
373.4

> <PUBCHEM_COORDINATE_TYPE>
2
5
10

$$$$

