13038
  -OEChem-06261207413D

 16 16  0     0  0  0  0  0  0999 V2000
    3.6376   -1.1804   -0.0253 Cl  0  0  0  0  0  0  0  0  0  0  0  0
    2.1571    1.1494   -1.5604 Cl  0  0  0  0  0  0  0  0  0  0  0  0
    2.1031    0.0958    0.1412 P   0  0  0  0  0  0  0  0  0  0  0  0
    0.8067   -0.8613    0.0209 O   0  0  0  0  0  0  0  0  0  0  0  0
    2.2077    0.9368    1.3792 O   0  0  0  0  0  0  0  0  0  0  0  0
   -0.4899   -0.4474    0.0138 C   0  0  0  0  0  0  0  0  0  0  0  0
   -0.7890    0.9111    0.1163 C   0  0  0  0  0  0  0  0  0  0  0  0
   -1.5196   -1.3819   -0.0952 C   0  0  0  0  0  0  0  0  0  0  0  0
   -2.1178    1.3352    0.1101 C   0  0  0  0  0  0  0  0  0  0  0  0
   -2.8485   -0.9579   -0.1016 C   0  0  0  0  0  0  0  0  0  0  0  0
   -3.1475    0.4007    0.0010 C   0  0  0  0  0  0  0  0  0  0  0  0
   -0.0264    1.6740    0.2186 H   0  0  0  0  0  0  0  0  0  0  0  0
   -1.2927   -2.4415   -0.1752 H   0  0  0  0  0  0  0  0  0  0  0  0
   -2.3516    2.3926    0.1936 H   0  0  0  0  0  0  0  0  0  0  0  0
   -3.6503   -1.6855   -0.1863 H   0  0  0  0  0  0  0  0  0  0  0  0
   -4.1822    0.7308   -0.0031 H   0  0  0  0  0  0  0  0  0  0  0  0
  1  3  1  0  0  0  0
  2  3  1  0  0  0  0
  3  4  1  0  0  0  0
  3  5  2  0  0  0  0
  4  6  1  0  0  0  0
  6  7  2  0  0  0  0
  6  8  1  0  0  0  0
  7  9  1  0  0  0  0
  7 12  1  0  0  0  0
  8 10  2  0  0  0  0
  8 13  1  0  0  0  0
  9 11  2  0  0  0  0
  9 14  1  0  0  0  0
 10 11  1  0  0  0  0
 10 15  1  0  0  0  0
 11 16  1  0  0  0  0
M  END
> <PUBCHEM_COMPOUND_CID>
13038

> <PUBCHEM_CONFORMER_RMSD>
0.4

> <PUBCHEM_CONFORMER_DIVERSEORDER>
1
5
2
8
4
6
7
3

> <PUBCHEM_MMFF94_PARTIAL_CHARGES>
16
1 -0.32
10 -0.15
11 -0.15
12 0.15
13 0.15
14 0.15
15 0.15
16 0.15
2 -0.32
3 1.6
4 -0.35
5 -0.7
6 0.08
7 -0.15
8 -0.15
9 -0.15

> <PUBCHEM_EFFECTIVE_ROTOR_COUNT>
2

> <PUBCHEM_PHARMACOPHORE_FEATURES>
1
6 6 7 8 9 10 11 rings

> <PUBCHEM_HEAVY_ATOM_COUNT>
11

> <PUBCHEM_ATOM_DEF_STEREO_COUNT>
0

> <PUBCHEM_ATOM_UDEF_STEREO_COUNT>
0

> <PUBCHEM_BOND_DEF_STEREO_COUNT>
0

> <PUBCHEM_BOND_UDEF_STEREO_COUNT>
0

> <PUBCHEM_ISOTOPIC_ATOM_COUNT>
0

> <PUBCHEM_COMPONENT_COUNT>
1

> <PUBCHEM_CACTVS_TAUTO_COUNT>
1

> <PUBCHEM_CONFORMER_ID>
000032EE00000001

> <PUBCHEM_MMFF94_ENERGY>
25.8003

> <PUBCHEM_FEATURE_SELFOVERLAP>
5.074

> <PUBCHEM_SHAPE_FINGERPRINT>
10857977 72 18337399227555217835
12716758 59 18408889537901905539
12932764 1 17968089768385624910
14325111 11 18408887342972968704
15775835 57 18408036316778459504
16945 1 18337671893612026381
18186145 218 16988567874882505799
19786989 88 16298671564482379080
20201158 50 17749390403140719182
20645464 45 17530965787022167283
20653085 51 17346321509577776109
207724 885 17916862538479675934
21028194 46 18335139825369889003
23552423 10 18272932721561364203
3248919 1 18059580135233101387
369184 2 18113342989940877059
5084963 1 18342457070957783992
6333449 129 18260834808448679063
7364860 26 18339358557524250148

> <PUBCHEM_SHAPE_MULTIPOLES>
222.23
5.66
1.54
0.98
1.35
0
-0.05
-0.74
-0.14
0.05
-0.18
0.74
0.38
-0.37

> <PUBCHEM_SHAPE_SELFOVERLAP>
422.252

> <PUBCHEM_SHAPE_VOLUME>
138.9

> <PUBCHEM_COORDINATE_TYPE>
2
5
10

$$$$

