443415
  -OEChem-07051213023D

 52 57  0     1  0  0  0  0  0999 V2000
    0.3990   -2.3527   -0.0878 O   0  0  0  0  0  0  0  0  0  0  0  0
   -3.0209    3.2454   -0.1923 O   0  0  0  0  0  0  0  0  0  0  0  0
   -1.4744   -3.2776    0.8979 O   0  0  0  0  0  0  0  0  0  0  0  0
   -1.1829    1.7655   -0.7341 N   0  0  2  0  0  0  0  0  0  0  0  0
    1.9203    2.1972    0.3685 N   0  0  0  0  0  0  0  0  0  0  0  0
    1.0292    0.0078   -0.0451 C   0  0  1  0  0  0  0  0  0  0  0  0
   -1.3057   -0.6503   -0.1168 C   0  0  2  0  0  0  0  0  0  0  0  0
   -0.9508    0.3832   -1.2342 C   0  0  2  0  0  0  0  0  0  0  0  0
   -2.2676    0.0562    0.8833 C   0  0  1  0  0  0  0  0  0  0  0  0
   -0.6023    1.9046    0.6422 C   0  0  2  0  0  0  0  0  0  0  0  0
    0.8202    1.3197    0.7692 C   0  0  2  0  0  0  0  0  0  0  0  0
    0.0774   -1.0820    0.4726 C   0  0  1  0  0  0  0  0  0  0  0  0
    0.5330    0.2017   -1.4814 C   0  0  0  0  0  0  0  0  0  0  0  0
   -1.5048    1.1464    1.6550 C   0  0  0  0  0  0  0  0  0  0  0  0
   -3.3667    0.8401    0.1100 C   0  0  1  0  0  0  0  0  0  0  0  0
   -2.6601    1.9627   -0.7127 C   0  0  1  0  0  0  0  0  0  0  0  0
    2.5222   -0.0380   -0.0176 C   0  0  0  0  0  0  0  0  0  0  0  0
    2.9855    1.2810    0.1879 C   0  0  0  0  0  0  0  0  0  0  0  0
   -4.2381   -0.0649   -0.7619 C   0  0  0  0  0  0  0  0  0  0  0  0
    3.4041   -1.0797   -0.2312 C   0  0  0  0  0  0  0  0  0  0  0  0
    4.3339    1.5808    0.1269 C   0  0  0  0  0  0  0  0  0  0  0  0
   -4.9770   -1.0904    0.0746 C   0  0  0  0  0  0  0  0  0  0  0  0
   -0.4678   -3.3660    0.2080 C   0  0  0  0  0  0  0  0  0  0  0  0
    4.7703   -0.7872   -0.2532 C   0  0  0  0  0  0  0  0  0  0  0  0
    5.2304    0.5304   -0.0833 C   0  0  0  0  0  0  0  0  0  0  0  0
   -0.0064   -4.6338   -0.4447 C   0  0  0  0  0  0  0  0  0  0  0  0
   -1.8361   -1.4726   -0.6058 H   0  0  0  0  0  0  0  0  0  0  0  0
   -1.5001    0.2059   -2.1661 H   0  0  0  0  0  0  0  0  0  0  0  0
   -2.6984   -0.6590    1.5907 H   0  0  0  0  0  0  0  0  0  0  0  0
   -0.5721    2.9656    0.9189 H   0  0  0  0  0  0  0  0  0  0  0  0
    1.0038    1.1087    1.8357 H   0  0  0  0  0  0  0  0  0  0  0  0
    0.0898   -1.1727    1.5643 H   0  0  0  0  0  0  0  0  0  0  0  0
    0.7263   -0.6852   -2.0988 H   0  0  0  0  0  0  0  0  0  0  0  0
    0.9773    1.0572   -2.0049 H   0  0  0  0  0  0  0  0  0  0  0  0
   -2.2065    1.8456    2.1285 H   0  0  0  0  0  0  0  0  0  0  0  0
   -0.9374    0.7034    2.4807 H   0  0  0  0  0  0  0  0  0  0  0  0
   -4.0281    1.3159    0.8488 H   0  0  0  0  0  0  0  0  0  0  0  0
   -3.0274    1.9594   -1.7462 H   0  0  0  0  0  0  0  0  0  0  0  0
    2.0973    3.0828    0.8249 H   0  0  0  0  0  0  0  0  0  0  0  0
   -3.6680   -0.5681   -1.5482 H   0  0  0  0  0  0  0  0  0  0  0  0
   -4.9818    0.5566   -1.2767 H   0  0  0  0  0  0  0  0  0  0  0  0
    3.0590   -2.0929   -0.4006 H   0  0  0  0  0  0  0  0  0  0  0  0
   -2.4654    3.8972   -0.6527 H   0  0  0  0  0  0  0  0  0  0  0  0
    4.6941    2.5961    0.2522 H   0  0  0  0  0  0  0  0  0  0  0  0
   -4.2989   -1.8396    0.4935 H   0  0  0  0  0  0  0  0  0  0  0  0
   -5.5263   -0.6185    0.8956 H   0  0  0  0  0  0  0  0  0  0  0  0
   -5.7028   -1.6246   -0.5477 H   0  0  0  0  0  0  0  0  0  0  0  0
    5.4880   -1.5859   -0.4221 H   0  0  0  0  0  0  0  0  0  0  0  0
    6.2975    0.7331   -0.1209 H   0  0  0  0  0  0  0  0  0  0  0  0
    0.9853   -4.9024   -0.0722 H   0  0  0  0  0  0  0  0  0  0  0  0
    0.0112   -4.5057   -1.5299 H   0  0  0  0  0  0  0  0  0  0  0  0
   -0.7017   -5.4418   -0.1999 H   0  0  0  0  0  0  0  0  0  0  0  0
  1 12  1  0  0  0  0
  1 23  1  0  0  0  0
  2 16  1  0  0  0  0
  2 43  1  0  0  0  0
  3 23  2  0  0  0  0
  4  8  1  0  0  0  0
  4 10  1  0  0  0  0
  4 16  1  0  0  0  0
  5 11  1  0  0  0  0
  5 18  1  0  0  0  0
  5 39  1  0  0  0  0
  6 11  1  0  0  0  0
  6 12  1  0  0  0  0
  6 13  1  0  0  0  0
  6 17  1  0  0  0  0
  7  8  1  0  0  0  0
  7  9  1  0  0  0  0
  7 12  1  0  0  0  0
  7 27  1  0  0  0  0
  8 13  1  0  0  0  0
  8 28  1  0  0  0  0
  9 14  1  0  0  0  0
  9 15  1  0  0  0  0
  9 29  1  0  0  0  0
 10 11  1  0  0  0  0
 10 14  1  0  0  0  0
 10 30  1  0  0  0  0
 11 31  1  0  0  0  0
 12 32  1  0  0  0  0
 13 33  1  0  0  0  0
 13 34  1  0  0  0  0
 14 35  1  0  0  0  0
 14 36  1  0  0  0  0
 15 16  1  0  0  0  0
 15 19  1  0  0  0  0
 15 37  1  0  0  0  0
 16 38  1  0  0  0  0
 17 18  1  0  0  0  0
 17 20  2  0  0  0  0
 18 21  2  0  0  0  0
 19 22  1  0  0  0  0
 19 40  1  0  0  0  0
 19 41  1  0  0  0  0
 20 24  1  0  0  0  0
 20 42  1  0  0  0  0
 21 25  1  0  0  0  0
 21 44  1  0  0  0  0
 22 45  1  0  0  0  0
 22 46  1  0  0  0  0
 22 47  1  0  0  0  0
 23 26  1  0  0  0  0
 24 25  2  0  0  0  0
 24 48  1  0  0  0  0
 25 49  1  0  0  0  0
 26 50  1  0  0  0  0
 26 51  1  0  0  0  0
 26 52  1  0  0  0  0
M  END
> <PUBCHEM_COMPOUND_CID>
443415

> <PUBCHEM_CONFORMER_RMSD>
0.8

> <PUBCHEM_CONFORMER_DIVERSEORDER>
1

> <PUBCHEM_MMFF94_PARTIAL_CHARGES>
25
1 -0.43
10 0.27
11 0.37
12 0.28
16 0.55
17 -0.14
18 0.1
2 -0.68
20 -0.15
21 -0.15
23 0.66
24 -0.15
25 -0.15
26 0.06
3 -0.57
39 0.4
4 -0.81
42 0.15
43 0.4
44 0.15
48 0.15
49 0.15
5 -0.87
6 0.14
8 0.27

> <PUBCHEM_EFFECTIVE_ROTOR_COUNT>
4.2

> <PUBCHEM_PHARMACOPHORE_FEATURES>
11
1 2 acceptor
1 2 donor
1 22 hydrophobe
1 3 acceptor
1 4 cation
1 5 cation
1 5 donor
10 4 6 7 8 9 10 11 12 13 14 rings
5 5 6 11 17 18 rings
6 17 18 20 21 24 25 rings
8 4 7 8 9 10 14 15 16 rings

> <PUBCHEM_HEAVY_ATOM_COUNT>
26

> <PUBCHEM_ATOM_DEF_STEREO_COUNT>
8

> <PUBCHEM_ATOM_UDEF_STEREO_COUNT>
1

> <PUBCHEM_BOND_DEF_STEREO_COUNT>
0

> <PUBCHEM_BOND_UDEF_STEREO_COUNT>
0

> <PUBCHEM_ISOTOPIC_ATOM_COUNT>
0

> <PUBCHEM_COMPONENT_COUNT>
1

> <PUBCHEM_CACTVS_TAUTO_COUNT>
1

> <PUBCHEM_CONFORMER_ID>
0006C41700000001

> <PUBCHEM_MMFF94_ENERGY>
117.4968

> <PUBCHEM_FEATURE_SELFOVERLAP>
57.98

> <PUBCHEM_SHAPE_FINGERPRINT>
10863032 1 18267871772860649413
10948715 1 18268994352552089361
10967382 1 18410011044188975570
1100329 8 18194401087442867497
11370993 70 18412547647357466746
11578080 2 16300933169664457114
12011746 2 18412826867323314405
12035758 1 18265613187019534851
12173636 292 18411986870768481772
12293681 25 17751611335141032646
12422481 6 17982419678346929267
12592029 89 18267305511228662050
12930653 34 18339921649163969957
12969540 114 18200614534925353455
13004483 165 17904772080972346114
13140716 1 17904493904630401680
138480 1 17402050496755137650
14223421 5 18265892647846389599
14787075 74 18187650176063275061
14790565 3 18409724080081115001
15042514 8 18197776600830337267
15196674 1 18409167753146339232
15209289 33 18335422361361926767
15238133 3 7997694250564084787
15309172 13 18339072787279290344
16945 1 18267302023731385909
17349148 13 18186519912696649360
17980427 23 17203034257926392581
19591789 44 18410577313793641382
19930381 70 18193555803583125538
200 152 18040438793155736417
20028762 73 18114747019314913607
20197701 30 18342747324758321239
20510252 161 18335138704373258809
21033648 29 18409741659445756224
21267235 1 18333724724420497004
21421861 104 18051686947974696153
21521721 280 18335981970279120033
23227448 37 18267585698317057740
23402539 116 18334581209365556245
23419403 2 17026565755398158883
23559900 14 18263365781495768424
283562 15 18408324402174192473
3380486 145 17907004085233480003
3383291 50 18336269037425602090
350125 39 18410853261237184329
474229 33 18411982446968055759
5104073 3 18335424611977785072
5486654 2 18410572843075279061
6138700 20 18048876592228885862
633830 44 18116998982057209452
69090 78 18412265017176958842
7364860 26 17834677471444904503
81228 2 17911810076201932010
9709674 26 18334008364124177982

> <PUBCHEM_SHAPE_MULTIPOLES>
507.5
7.96
3.78
1.05
4.26
4.51
0
-1.89
0.59
-1.47
-0.13
-0.44
-0.19
0.48

> <PUBCHEM_SHAPE_SELFOVERLAP>
1145.5

> <PUBCHEM_SHAPE_VOLUME>
264.4

> <PUBCHEM_COORDINATE_TYPE>
2
5
10

$$$$

