159911
  -OEChem-07051212513D

 84 89  0     1  0  0  0  0  0999 V2000
    1.6014    3.5945    1.4077 O   0  0  0  0  0  0  0  0  0  0  0  0
   -9.2703    0.2364   -1.1985 O   0  0  0  0  0  0  0  0  0  0  0  0
    2.0396   -2.2183    1.7821 O   0  0  0  0  0  0  0  0  0  0  0  0
    3.7963    3.0192    3.0099 O   0  0  0  0  0  0  0  0  0  0  0  0
   -8.4717   -1.9759    0.2782 O   0  0  0  0  0  0  0  0  0  0  0  0
    2.0376   -4.1785   -0.2050 O   0  0  0  0  0  0  0  0  0  0  0  0
    5.9198    0.3435   -2.1591 N   0  0  1  0  0  0  0  0  0  0  0  0
   -3.1041    1.0210    0.5671 N   0  0  1  0  0  0  0  0  0  0  0  0
    6.0652    0.7549   -0.7365 C   0  0  1  0  0  0  0  0  0  0  0  0
   -3.8922   -0.2312    0.5968 C   0  0  1  0  0  0  0  0  0  0  0  0
    4.8660    1.5188   -0.1686 C   0  0  0  0  0  0  0  0  0  0  0  0
   -5.3295   -0.0869    0.1235 C   0  0  0  0  0  0  0  0  0  0  0  0
    5.1950    1.3397   -2.9568 C   0  0  0  0  0  0  0  0  0  0  0  0
   -3.3170    1.7720   -0.6763 C   0  0  0  0  0  0  0  0  0  0  0  0
    3.7691    1.4790   -2.4337 C   0  0  0  0  0  0  0  0  0  0  0  0
   -4.7786    2.1529   -0.9225 C   0  0  0  0  0  0  0  0  0  0  0  0
    3.7716    1.8606   -0.9818 C   0  0  0  0  0  0  0  0  0  0  0  0
    6.3160   -0.5118    0.1043 C   0  0  0  0  0  0  0  0  0  0  0  0
   -5.7358    1.0270   -0.6329 C   0  0  0  0  0  0  0  0  0  0  0  0
   -3.1635   -1.3083   -0.2226 C   0  0  0  0  0  0  0  0  0  0  0  0
    7.2220    0.0822   -2.7845 C   0  0  0  0  0  0  0  0  0  0  0  0
    4.8610    1.9413    1.1722 C   0  0  0  0  0  0  0  0  0  0  0  0
   -3.3359    1.8442    1.7545 C   0  0  0  0  0  0  0  0  0  0  0  0
   -6.2658   -1.0901    0.4209 C   0  0  0  0  0  0  0  0  0  0  0  0
    5.1834   -1.4788    0.0251 C   0  0  0  0  0  0  0  0  0  0  0  0
   -1.7828   -1.5496    0.3088 C   0  0  0  0  0  0  0  0  0  0  0  0
    2.6731    2.5419   -0.4378 C   0  0  0  0  0  0  0  0  0  0  0  0
   -7.0655    1.1241   -1.0674 C   0  0  0  0  0  0  0  0  0  0  0  0
    3.7716    2.6337    1.7034 C   0  0  0  0  0  0  0  0  0  0  0  0
    2.6737    2.9255    0.9010 C   0  0  0  0  0  0  0  0  0  0  0  0
   -7.5839   -0.9877   -0.0233 C   0  0  0  0  0  0  0  0  0  0  0  0
   -7.9833    0.1185   -0.7675 C   0  0  0  0  0  0  0  0  0  0  0  0
    4.1344   -1.4013    0.9412 C   0  0  0  0  0  0  0  0  0  0  0  0
    5.1737   -2.4617   -0.9647 C   0  0  0  0  0  0  0  0  0  0  0  0
   -1.5740   -2.5155    1.2932 C   0  0  0  0  0  0  0  0  0  0  0  0
   -0.7071   -0.8086   -0.1806 C   0  0  0  0  0  0  0  0  0  0  0  0
    3.0758   -2.3063    0.8676 C   0  0  0  0  0  0  0  0  0  0  0  0
    0.7862   -1.9994    1.2988 C   0  0  0  0  0  0  0  0  0  0  0  0
   -0.2895   -2.7405    1.7881 C   0  0  0  0  0  0  0  0  0  0  0  0
    0.5773   -1.0333    0.3144 C   0  0  0  0  0  0  0  0  0  0  0  0
    4.1150   -3.3668   -1.0384 C   0  0  0  0  0  0  0  0  0  0  0  0
    3.0660   -3.2891   -0.1223 C   0  0  0  0  0  0  0  0  0  0  0  0
    0.5566    2.8083    1.9779 C   0  0  0  0  0  0  0  0  0  0  0  0
   -9.5969    1.4006   -1.9553 C   0  0  0  0  0  0  0  0  0  0  0  0
    6.9255    1.4327   -0.6436 H   0  0  0  0  0  0  0  0  0  0  0  0
   -3.9278   -0.5821    1.6389 H   0  0  0  0  0  0  0  0  0  0  0  0
    5.1374    1.0184   -4.0043 H   0  0  0  0  0  0  0  0  0  0  0  0
    5.7114    2.3091   -2.9394 H   0  0  0  0  0  0  0  0  0  0  0  0
   -2.9574    1.1782   -1.5254 H   0  0  0  0  0  0  0  0  0  0  0  0
   -2.6948    2.6759   -0.6840 H   0  0  0  0  0  0  0  0  0  0  0  0
    3.2207    0.5362   -2.5526 H   0  0  0  0  0  0  0  0  0  0  0  0
    3.2514    2.2444   -3.0240 H   0  0  0  0  0  0  0  0  0  0  0  0
   -4.8864    2.4703   -1.9668 H   0  0  0  0  0  0  0  0  0  0  0  0
   -5.0506    3.0064   -0.2892 H   0  0  0  0  0  0  0  0  0  0  0  0
    6.5043   -0.2595    1.1558 H   0  0  0  0  0  0  0  0  0  0  0  0
    7.2431   -1.0111   -0.2043 H   0  0  0  0  0  0  0  0  0  0  0  0
   -3.1158   -1.0511   -1.2891 H   0  0  0  0  0  0  0  0  0  0  0  0
   -3.7208   -2.2548   -0.1945 H   0  0  0  0  0  0  0  0  0  0  0  0
    7.7694   -0.7147   -2.2734 H   0  0  0  0  0  0  0  0  0  0  0  0
    7.8549    0.9769   -2.8023 H   0  0  0  0  0  0  0  0  0  0  0  0
    7.0874   -0.2610   -3.8168 H   0  0  0  0  0  0  0  0  0  0  0  0
    5.7188    1.7336    1.8076 H   0  0  0  0  0  0  0  0  0  0  0  0
   -2.7315    2.7570    1.7145 H   0  0  0  0  0  0  0  0  0  0  0  0
   -4.3847    2.1324    1.8810 H   0  0  0  0  0  0  0  0  0  0  0  0
   -3.0212    1.3055    2.6554 H   0  0  0  0  0  0  0  0  0  0  0  0
   -5.9568   -1.9552    1.0038 H   0  0  0  0  0  0  0  0  0  0  0  0
    1.8187    2.7828   -1.0665 H   0  0  0  0  0  0  0  0  0  0  0  0
   -7.3217    2.0154   -1.6312 H   0  0  0  0  0  0  0  0  0  0  0  0
    4.1382   -0.6634    1.7374 H   0  0  0  0  0  0  0  0  0  0  0  0
    5.9875   -2.5453   -1.6796 H   0  0  0  0  0  0  0  0  0  0  0  0
   -2.4040   -3.0979    1.6842 H   0  0  0  0  0  0  0  0  0  0  0  0
   -0.8480   -0.0588   -0.9540 H   0  0  0  0  0  0  0  0  0  0  0  0
   -0.1327   -3.4941    2.5550 H   0  0  0  0  0  0  0  0  0  0  0  0
    1.3933   -0.4315   -0.0750 H   0  0  0  0  0  0  0  0  0  0  0  0
    4.1210   -4.1289   -1.8131 H   0  0  0  0  0  0  0  0  0  0  0  0
    4.6331    2.7284    3.4113 H   0  0  0  0  0  0  0  0  0  0  0  0
   -8.0189   -2.6612    0.7991 H   0  0  0  0  0  0  0  0  0  0  0  0
   -0.1881    3.4856    2.4044 H   0  0  0  0  0  0  0  0  0  0  0  0
    0.9431    2.1655    2.7751 H   0  0  0  0  0  0  0  0  0  0  0  0
    0.0752    2.2005    1.2055 H   0  0  0  0  0  0  0  0  0  0  0  0
   -9.4843    2.3134   -1.3604 H   0  0  0  0  0  0  0  0  0  0  0  0
   -9.0361    1.4422   -2.8953 H   0  0  0  0  0  0  0  0  0  0  0  0
  -10.6564    1.3245   -2.2214 H   0  0  0  0  0  0  0  0  0  0  0  0
    2.1988   -4.7808   -0.9514 H   0  0  0  0  0  0  0  0  0  0  0  0
  1 30  1  0  0  0  0
  1 43  1  0  0  0  0
  2 32  1  0  0  0  0
  2 44  1  0  0  0  0
  3 37  1  0  0  0  0
  3 38  1  0  0  0  0
  4 29  1  0  0  0  0
  4 76  1  0  0  0  0
  5 31  1  0  0  0  0
  5 77  1  0  0  0  0
  6 42  1  0  0  0  0
  6 84  1  0  0  0  0
  7  9  1  0  0  0  0
  7 13  1  0  0  0  0
  7 21  1  0  0  0  0
  8 10  1  0  0  0  0
  8 14  1  0  0  0  0
  8 23  1  0  0  0  0
  9 11  1  0  0  0  0
  9 18  1  0  0  0  0
  9 45  1  0  0  0  0
 10 12  1  0  0  0  0
 10 20  1  0  0  0  0
 10 46  1  0  0  0  0
 11 17  1  0  0  0  0
 11 22  2  0  0  0  0
 12 19  1  0  0  0  0
 12 24  2  0  0  0  0
 13 15  1  0  0  0  0
 13 47  1  0  0  0  0
 13 48  1  0  0  0  0
 14 16  1  0  0  0  0
 14 49  1  0  0  0  0
 14 50  1  0  0  0  0
 15 17  1  0  0  0  0
 15 51  1  0  0  0  0
 15 52  1  0  0  0  0
 16 19  1  0  0  0  0
 16 53  1  0  0  0  0
 16 54  1  0  0  0  0
 17 27  2  0  0  0  0
 18 25  1  0  0  0  0
 18 55  1  0  0  0  0
 18 56  1  0  0  0  0
 19 28  2  0  0  0  0
 20 26  1  0  0  0  0
 20 57  1  0  0  0  0
 20 58  1  0  0  0  0
 21 59  1  0  0  0  0
 21 60  1  0  0  0  0
 21 61  1  0  0  0  0
 22 29  1  0  0  0  0
 22 62  1  0  0  0  0
 23 63  1  0  0  0  0
 23 64  1  0  0  0  0
 23 65  1  0  0  0  0
 24 31  1  0  0  0  0
 24 66  1  0  0  0  0
 25 33  2  0  0  0  0
 25 34  1  0  0  0  0
 26 35  2  0  0  0  0
 26 36  1  0  0  0  0
 27 30  1  0  0  0  0
 27 67  1  0  0  0  0
 28 32  1  0  0  0  0
 28 68  1  0  0  0  0
 29 30  2  0  0  0  0
 31 32  2  0  0  0  0
 33 37  1  0  0  0  0
 33 69  1  0  0  0  0
 34 41  2  0  0  0  0
 34 70  1  0  0  0  0
 35 39  1  0  0  0  0
 35 71  1  0  0  0  0
 36 40  2  0  0  0  0
 36 72  1  0  0  0  0
 37 42  2  0  0  0  0
 38 39  2  0  0  0  0
 38 40  1  0  0  0  0
 39 73  1  0  0  0  0
 40 74  1  0  0  0  0
 41 42  1  0  0  0  0
 41 75  1  0  0  0  0
 43 78  1  0  0  0  0
 43 79  1  0  0  0  0
 43 80  1  0  0  0  0
 44 81  1  0  0  0  0
 44 82  1  0  0  0  0
 44 83  1  0  0  0  0
M  END
> <PUBCHEM_COMPOUND_CID>
159911

> <PUBCHEM_CONFORMER_RMSD>
1.4

> <PUBCHEM_CONFORMER_DIVERSEORDER>
5
263
379
359
187
128
367
145
231
265
37
299
338
88
262
357
45
249
274
268
225
318
200
184
266
146
302
294
58
131
25
322
360
353
126
325
87
214
340
269
125
35
177
57
230
166
60
313
344
211
372
2
183
208
144
304
48
328
300
147
120
348
178
174
260
75
11
228
259
286
342
303
350
293
233
50
212
241
327
139
1
267
330
152
283
358
343
295
312
52
114
192
227
335
281
163
108
98
323
95
97
298
3
66
291
254
142
8
53
320
106
203
188
83
112
236
102
182
164
199
82
361
123
288
105
319
306
169
26
197
86
301
378
55
180
81
209
24
13
315
99
63
297
307
349
109
21
205
113
226
23
382
202
134
240
4
247
92
54
244
73
381
168
242
150
104
354
119
61
257
175
243
309
32
229
369
172
19
159
10
44
277
371
333
51
345
331
16
284
339
62
68
216
352
218
31
364
179
317
314
210
137
270
280
49
235
42
7
36
170
29
193
224
278
377
232
190
368
28
271
149
72
250
326
17
160
373
334
124
332
41
258
34
204
380
246
255
194
154
185
220
116
276
89
324
196
215
176
20
248
191
237
46
91
245
256
151
251
141
111
171
148
129
186
296
33
376
12
234
156
65
103
94
363
117
279
221
30
100
198
356
305
213
161
201
110
316
132
321
162
355
285
222
84
39
365
56
115
310
158
195
370
219
138
67
74
311
290
133
18
64
43
362
375
136
239
79
253
143
77
140
78
165
121
336
14
289
6
96
38
308
341
127
351
76
27
70
347
69
223
122
252
264
337
47
157
217
273
272
15
261
153
80
101
22
167
292
155
9
135
71
40
287
90
366
374
189
346
85
118
107
130
173
238
206
181
207
329
282
275
93
59

> <PUBCHEM_MMFF94_PARTIAL_CHARGES>
58
1 -0.36
10 0.41
11 -0.14
12 -0.14
13 0.27
14 0.27
15 0.14
16 0.14
17 -0.14
18 0.14
19 -0.14
2 -0.36
20 0.14
21 0.27
22 -0.15
23 0.27
24 -0.15
25 -0.14
26 -0.14
27 -0.15
28 -0.15
29 0.08
3 -0.17
30 0.08
31 0.08
32 0.08
33 -0.15
34 -0.15
35 -0.15
36 -0.15
37 0.08
38 0.08
39 -0.15
4 -0.53
40 -0.15
41 -0.15
42 0.08
43 0.28
44 0.28
5 -0.53
6 -0.53
62 0.15
66 0.15
67 0.15
68 0.15
69 0.15
7 -0.81
70 0.15
71 0.15
72 0.15
73 0.15
74 0.15
75 0.15
76 0.45
77 0.45
8 -0.81
84 0.45
9 0.41

> <PUBCHEM_EFFECTIVE_ROTOR_COUNT>
9.6

> <PUBCHEM_PHARMACOPHORE_FEATURES>
14
1 1 acceptor
1 2 acceptor
1 3 acceptor
1 4 donor
1 5 donor
1 6 donor
1 7 cation
1 8 cation
6 11 17 22 27 29 30 rings
6 12 19 24 28 31 32 rings
6 25 33 34 37 41 42 rings
6 26 35 36 38 39 40 rings
6 7 9 11 13 15 17 rings
6 8 10 12 14 16 19 rings

> <PUBCHEM_HEAVY_ATOM_COUNT>
44

> <PUBCHEM_ATOM_DEF_STEREO_COUNT>
2

> <PUBCHEM_ATOM_UDEF_STEREO_COUNT>
0

> <PUBCHEM_BOND_DEF_STEREO_COUNT>
0

> <PUBCHEM_BOND_UDEF_STEREO_COUNT>
0

> <PUBCHEM_ISOTOPIC_ATOM_COUNT>
0

> <PUBCHEM_COMPONENT_COUNT>
1

> <PUBCHEM_CACTVS_TAUTO_COUNT>
20

> <PUBCHEM_CONFORMER_ID>
000270A700000005

> <PUBCHEM_MMFF94_ENERGY>
159.0944

> <PUBCHEM_FEATURE_SELFOVERLAP>
71.083

> <PUBCHEM_SHAPE_FINGERPRINT>
11204353 107 18339364068184335667
11513181 2 17610885065783002398
11828532 37 18262231097573235497
11966995 178 18259984852012295745
1200032 147 16271633500573056126
12047536 79 13542204791129596518
12124843 1 18265315357292742492
12128747 34 18340764926799569311
12355185 293 15574704833802062315
12373685 5 12679457557310663043
14537116 161 18409171025568319853
14931854 50 18339628019566832036
15064981 194 18340192013208258475
15082195 135 18334857255177369034
15145343 34 18334299794455896345
15160629 131 17604976165282320983
15183329 4 18186792591168835653
15336146 87 18334863852711125681
15351339 4 18411139181615855992
15484559 13 18259701199450944598
15781502 237 18342459301128154941
15890870 6 18412260619869361382
16067689 302 18336542717183733443
24893992 56 17917993875720748514
3552219 110 18335690668981855913
3918712 181 17917992746139075189
3986486 107 18262782061190994820
4066623 53 17967534579433509193
4112364 45 17822591412653024968
437795 51 18410578374613315407
45266715 3 18187649064089414784
4625314 4 18201441437006797215
5109719 28 18341891905281910291
513532 50 17822290163863024244
9831232 110 18412266104094264029

> <PUBCHEM_SHAPE_MULTIPOLES>
860.32
23.87
4.4
2.26
49.73
1.08
-0.35
-3.55
-14.39
-4.99
1.64
-3.23
-1.54
1.87

> <PUBCHEM_SHAPE_SELFOVERLAP>
1883.935

> <PUBCHEM_SHAPE_VOLUME>
466.6

> <PUBCHEM_COORDINATE_TYPE>
2
5
10

$$$$

