2564
  -OEChem-07051212523D

 39 40  0     1  0  0  0  0  0999 V2000
   -5.8219    1.6299   -0.3909 Cl  0  0  0  0  0  0  0  0  0  0  0  0
    0.7631    1.0270    0.0388 O   0  0  0  0  0  0  0  0  0  0  0  0
    4.4195    1.4385   -0.1780 N   0  0  0  0  0  0  0  0  0  0  0  0
    0.0061   -1.5946   -1.1102 N   0  0  0  0  0  0  0  0  0  0  0  0
   -0.1144    0.0809    0.6342 C   0  0  1  0  0  0  0  0  0  0  0  0
    2.1254    0.6881    0.2629 C   0  0  0  0  0  0  0  0  0  0  0  0
    3.0049    1.7375   -0.3979 C   0  0  0  0  0  0  0  0  0  0  0  0
   -1.5544    0.4725    0.3761 C   0  0  0  0  0  0  0  0  0  0  0  0
    0.2005   -1.3350    0.1915 C   0  0  0  0  0  0  0  0  0  0  0  0
   -2.5230    0.1294    1.3022 C   0  0  0  0  0  0  0  0  0  0  0  0
   -1.8684    1.1637   -0.7807 C   0  0  0  0  0  0  0  0  0  0  0  0
    0.6512   -2.2300    1.1315 C   0  0  0  0  0  0  0  0  0  0  0  0
    4.7124    1.3780    1.2535 C   0  0  0  0  0  0  0  0  0  0  0  0
    5.2612    2.4408   -0.8301 C   0  0  0  0  0  0  0  0  0  0  0  0
   -3.8495    0.4891    1.0640 C   0  0  0  0  0  0  0  0  0  0  0  0
   -3.1948    1.5236   -1.0190 C   0  0  0  0  0  0  0  0  0  0  0  0
   -4.1855    1.1864   -0.0966 C   0  0  0  0  0  0  0  0  0  0  0  0
    0.9308   -3.5197    0.6933 C   0  0  0  0  0  0  0  0  0  0  0  0
    0.2883   -2.8583   -1.4991 C   0  0  0  0  0  0  0  0  0  0  0  0
    0.7486   -3.8479   -0.6456 C   0  0  0  0  0  0  0  0  0  0  0  0
    0.0389    0.1691    1.7198 H   0  0  0  0  0  0  0  0  0  0  0  0
    2.2758    0.6515    1.3461 H   0  0  0  0  0  0  0  0  0  0  0  0
    2.3795   -0.2828   -0.1750 H   0  0  0  0  0  0  0  0  0  0  0  0
    2.7832    1.7501   -1.4730 H   0  0  0  0  0  0  0  0  0  0  0  0
    2.7363    2.7338   -0.0212 H   0  0  0  0  0  0  0  0  0  0  0  0
   -2.2717   -0.4145    2.2081 H   0  0  0  0  0  0  0  0  0  0  0  0
   -1.1168    1.4266   -1.5189 H   0  0  0  0  0  0  0  0  0  0  0  0
    0.7908   -1.9646    2.1731 H   0  0  0  0  0  0  0  0  0  0  0  0
    4.3171    0.4671    1.7136 H   0  0  0  0  0  0  0  0  0  0  0  0
    4.3392    2.2535    1.7973 H   0  0  0  0  0  0  0  0  0  0  0  0
    5.7957    1.3249    1.4186 H   0  0  0  0  0  0  0  0  0  0  0  0
    6.3213    2.1873   -0.7174 H   0  0  0  0  0  0  0  0  0  0  0  0
    5.1011    3.4453   -0.4216 H   0  0  0  0  0  0  0  0  0  0  0  0
    5.0608    2.4704   -1.9070 H   0  0  0  0  0  0  0  0  0  0  0  0
   -4.6109    0.2192    1.7913 H   0  0  0  0  0  0  0  0  0  0  0  0
   -3.4425    2.0642   -1.9290 H   0  0  0  0  0  0  0  0  0  0  0  0
    1.2904   -4.2675    1.3937 H   0  0  0  0  0  0  0  0  0  0  0  0
    0.1295   -3.0631   -2.5527 H   0  0  0  0  0  0  0  0  0  0  0  0
    0.9602   -4.8467   -1.0094 H   0  0  0  0  0  0  0  0  0  0  0  0
  1 17  1  0  0  0  0
  2  5  1  0  0  0  0
  2  6  1  0  0  0  0
  3  7  1  0  0  0  0
  3 13  1  0  0  0  0
  3 14  1  0  0  0  0
  4  9  1  0  0  0  0
  4 19  2  0  0  0  0
  5  8  1  0  0  0  0
  5  9  1  0  0  0  0
  5 21  1  0  0  0  0
  6  7  1  0  0  0  0
  6 22  1  0  0  0  0
  6 23  1  0  0  0  0
  7 24  1  0  0  0  0
  7 25  1  0  0  0  0
  8 10  2  0  0  0  0
  8 11  1  0  0  0  0
  9 12  2  0  0  0  0
 10 15  1  0  0  0  0
 10 26  1  0  0  0  0
 11 16  2  0  0  0  0
 11 27  1  0  0  0  0
 12 18  1  0  0  0  0
 12 28  1  0  0  0  0
 13 29  1  0  0  0  0
 13 30  1  0  0  0  0
 13 31  1  0  0  0  0
 14 32  1  0  0  0  0
 14 33  1  0  0  0  0
 14 34  1  0  0  0  0
 15 17  2  0  0  0  0
 15 35  1  0  0  0  0
 16 17  1  0  0  0  0
 16 36  1  0  0  0  0
 18 20  2  0  0  0  0
 18 37  1  0  0  0  0
 19 20  1  0  0  0  0
 19 38  1  0  0  0  0
 20 39  1  0  0  0  0
M  END
> <PUBCHEM_COMPOUND_CID>
2564

> <PUBCHEM_CONFORMER_RMSD>
0.8

> <PUBCHEM_CONFORMER_DIVERSEORDER>
1
27
40
16
32
13
38
39
18
34
29
17
8
22
12
36
15
7
23
35
26
20
5
30
2
25
14
10
28
33
11
6
19
4
37
41
31
3
9
42
21
24

> <PUBCHEM_MMFF94_PARTIAL_CHARGES>
28
1 -0.18
10 -0.15
11 -0.15
12 -0.15
13 0.27
14 0.27
15 -0.15
16 -0.15
17 0.18
18 -0.15
19 0.16
2 -0.56
20 -0.15
26 0.15
27 0.15
28 0.15
3 -0.81
35 0.15
36 0.15
37 0.15
38 0.15
39 0.15
4 -0.62
5 0.57
6 0.28
7 0.27
8 -0.14
9 0.17

> <PUBCHEM_EFFECTIVE_ROTOR_COUNT>
6

> <PUBCHEM_PHARMACOPHORE_FEATURES>
5
1 2 acceptor
1 3 cation
1 4 acceptor
6 4 9 12 18 19 20 rings
6 8 10 11 15 16 17 rings

> <PUBCHEM_HEAVY_ATOM_COUNT>
20

> <PUBCHEM_ATOM_DEF_STEREO_COUNT>
0

> <PUBCHEM_ATOM_UDEF_STEREO_COUNT>
1

> <PUBCHEM_BOND_DEF_STEREO_COUNT>
0

> <PUBCHEM_BOND_UDEF_STEREO_COUNT>
0

> <PUBCHEM_ISOTOPIC_ATOM_COUNT>
0

> <PUBCHEM_COMPONENT_COUNT>
1

> <PUBCHEM_CACTVS_TAUTO_COUNT>
1

> <PUBCHEM_CONFORMER_ID>
00000A0400000001

> <PUBCHEM_MMFF94_ENERGY>
55.8188

> <PUBCHEM_FEATURE_SELFOVERLAP>
25.373

> <PUBCHEM_SHAPE_FINGERPRINT>
10764073 3 16197088990914797586
107951 10 18129646514599740006
10906281 52 17988910198543845061
11578080 2 15982302727223534670
12592029 89 18341333383069856058
12707595 3 17836355322347876851
12730499 353 18339352059322887001
12788726 201 17906180546903939882
13004483 165 17327179849673038734
13149001 5 17678742224270247808
13257819 101 17489322892364301685
133893 2 18121482816197234354
13681431 1 17830736813159876274
15502722 9 18338516477313536573
16752209 62 18120105991479737362
167882 2 18339357569634227742
17539 30 17757558451854206918
17980427 23 17131546138123645909
1813 80 17246389285394039207
18785283 64 18270966872502272698
18915476 22 18338223985977937451
20197701 30 18408324358786500530
204376 136 18410572868534015176
20554085 129 18042424511245184608
20600515 1 10663823013474246848
20645477 70 18266464398620323623
21033648 29 18337398127965586384
21054139 6 18189631466537286879
21120745 212 17189516595649423460
21524375 3 18338797818935290568
22224240 67 18264195938438522297
23419403 2 17540199485488237670
23557571 272 16844440721349679589
23558518 356 17832722174793599968
23559900 14 17983580989942290691
23598288 3 17555716734545794268
23728640 28 18194682566994386962
298252 57 18341051830910503672
3004659 81 5256415989573009484
3411729 13 18270120244100982745
3729539 64 18120630656685500510
3759504 43 18341329972913269424
53917941 68 18190756236467030740
559249 180 18338517444430218858
6025842 7 18336835311587563303
6138700 20 18194393619107247862
633830 44 17968638523614765532
6669772 16 18334287687327821310
7364860 26 18265895950354551843
77188 2 17548984811153996138
81228 2 17616828629756649618
81539 233 18412262873719252743
9841814 1 17839461433858223843
9862522 239 18342465789794097056

> <PUBCHEM_SHAPE_MULTIPOLES>
397.63
9.52
4.03
1.28
1.12
5
0.01
-12.37
-0.22
-3.74
-0.99
-0.02
0.35
0.14

> <PUBCHEM_SHAPE_SELFOVERLAP>
822.55

> <PUBCHEM_SHAPE_VOLUME>
229.9

> <PUBCHEM_COORDINATE_TYPE>
2
5
10

$$$$

