3037463
  -OEChem-07051212552D

 31 32  0     0  0  0  0  0  0999 V2000
    7.2566    2.0646    0.0000 S   0  0  0  0  0  0  0  0  0  0  0  0
    5.6103    2.6027    0.0000 S   0  0  0  0  0  0  0  0  0  0  0  0
    4.9889   -2.8089    0.0000 O   0  0  0  0  0  0  0  0  0  0  0  0
    4.6783   -1.8584    0.0000 N   0  0  0  0  0  0  0  0  0  0  0  0
    5.9674    0.9078    0.0000 N   0  0  0  0  0  0  0  0  0  0  0  0
    3.7320   -0.5536    0.0000 C   0  0  0  0  0  0  0  0  0  0  0  0
    4.6783   -0.2489    0.0000 C   0  0  0  0  0  0  0  0  0  0  0  0
    3.7320   -1.5536    0.0000 C   0  0  0  0  0  0  0  0  0  0  0  0
    5.2619   -1.0536    0.0000 C   0  0  0  0  0  0  0  0  0  0  0  0
    4.9889    0.7016    0.0000 C   0  0  0  0  0  0  0  0  0  0  0  0
    2.8660   -0.0536    0.0000 C   0  0  0  0  0  0  0  0  0  0  0  0
    2.8660   -2.0536    0.0000 C   0  0  0  0  0  0  0  0  0  0  0  0
    2.0000   -0.5536    0.0000 C   0  0  0  0  0  0  0  0  0  0  0  0
    2.0000   -1.5536    0.0000 C   0  0  0  0  0  0  0  0  0  0  0  0
    6.2781    1.8584    0.0000 C   0  0  0  0  0  0  0  0  0  0  0  0
    5.9674   -3.0151    0.0000 C   0  0  0  0  0  0  0  0  0  0  0  0
    7.5673    3.0151    0.0000 C   0  0  0  0  0  0  0  0  0  0  0  0
    5.8819   -1.0536    0.0000 H   0  0  0  0  0  0  0  0  0  0  0  0
    4.9684    1.3213    0.0000 H   0  0  0  0  0  0  0  0  0  0  0  0
    4.3751    0.7890    0.0000 H   0  0  0  0  0  0  0  0  0  0  0  0
    2.8660    0.5664    0.0000 H   0  0  0  0  0  0  0  0  0  0  0  0
    2.8660   -2.6736    0.0000 H   0  0  0  0  0  0  0  0  0  0  0  0
    1.4631   -0.2436    0.0000 H   0  0  0  0  0  0  0  0  0  0  0  0
    1.4631   -1.8636    0.0000 H   0  0  0  0  0  0  0  0  0  0  0  0
    6.3815    0.4464    0.0000 H   0  0  0  0  0  0  0  0  0  0  0  0
    5.8396   -3.6218    0.0000 H   0  0  0  0  0  0  0  0  0  0  0  0
    6.5741   -3.1430    0.0000 H   0  0  0  0  0  0  0  0  0  0  0  0
    6.0953   -2.4084    0.0000 H   0  0  0  0  0  0  0  0  0  0  0  0
    8.1566    2.8225    0.0000 H   0  0  0  0  0  0  0  0  0  0  0  0
    7.7599    3.6044    0.0000 H   0  0  0  0  0  0  0  0  0  0  0  0
    6.9780    3.2077    0.0000 H   0  0  0  0  0  0  0  0  0  0  0  0
  1 15  1  0  0  0  0
  1 17  1  0  0  0  0
  2 15  2  0  0  0  0
  3  4  1  0  0  0  0
  3 16  1  0  0  0  0
  4  8  1  0  0  0  0
  4  9  1  0  0  0  0
  5 10  1  0  0  0  0
  5 15  1  0  0  0  0
  5 25  1  0  0  0  0
  6  7  1  0  0  0  0
  6  8  1  0  0  0  0
  6 11  2  0  0  0  0
  7  9  2  0  0  0  0
  7 10  1  0  0  0  0
  8 12  2  0  0  0  0
  9 18  1  0  0  0  0
 10 19  1  0  0  0  0
 10 20  1  0  0  0  0
 11 13  1  0  0  0  0
 11 21  1  0  0  0  0
 12 14  1  0  0  0  0
 12 22  1  0  0  0  0
 13 14  2  0  0  0  0
 13 23  1  0  0  0  0
 14 24  1  0  0  0  0
 16 26  1  0  0  0  0
 16 27  1  0  0  0  0
 16 28  1  0  0  0  0
 17 29  1  0  0  0  0
 17 30  1  0  0  0  0
 17 31  1  0  0  0  0
M  END
> <PUBCHEM_COMPOUND_CID>
3037463

> <PUBCHEM_COMPOUND_CANONICALIZED>
1

> <PUBCHEM_CACTVS_COMPLEXITY>
275

> <PUBCHEM_CACTVS_HBOND_ACCEPTOR>
3

> <PUBCHEM_CACTVS_HBOND_DONOR>
1

> <PUBCHEM_CACTVS_ROTATABLE_BOND>
4

> <PUBCHEM_CACTVS_SUBSKEYS>
AAADccBzIABgAAAAAAAAAAAAAAAAAWAAAAAwAAAAAAAAAFgB8AAAHgQUAAAADAjBHga+wPLYEAikAzRnRACCgCBxAiko2KA4ZJgIIOLA0ZGEIAhggADIyAcQgMAOgAAAAAACAAAAAAAAAAQAAAAAAAAAAA==

> <PUBCHEM_IUPAC_OPENEYE_NAME>
methyl N-[(1-methoxyindol-3-yl)methyl]carbamodithioate

> <PUBCHEM_IUPAC_CAS_NAME>
N-[(1-methoxy-3-indolyl)methyl]carbamodithioic acid methyl ester

> <PUBCHEM_IUPAC_NAME>
methyl N-[(1-methoxyindol-3-yl)methyl]carbamodithioate

> <PUBCHEM_IUPAC_SYSTEMATIC_NAME>
methyl N-[(1-methoxyindol-3-yl)methyl]carbamodithioate

> <PUBCHEM_IUPAC_TRADITIONAL_NAME>
N-[(1-methoxyindol-3-yl)methyl]carbamodithioic acid methyl ester

> <PUBCHEM_IUPAC_INCHI>
InChI=1S/C12H14N2OS2/c1-15-14-8-9(7-13-12(16)17-2)10-5-3-4-6-11(10)14/h3-6,8H,7H2,1-2H3,(H,13,16)

> <PUBCHEM_IUPAC_INCHIKEY>
KFZBENSULWNJKD-UHFFFAOYSA-N

> <PUBCHEM_XLOGP3_AA>
3.1

> <PUBCHEM_EXACT_MASS>
266.054755

> <PUBCHEM_MOLECULAR_FORMULA>
C12H14N2OS2

> <PUBCHEM_MOLECULAR_WEIGHT>
266.38236

> <PUBCHEM_OPENEYE_CAN_SMILES>
CON1C=C(C2=CC=CC=C21)CNC(=S)SC

> <PUBCHEM_OPENEYE_ISO_SMILES>
CON1C=C(C2=CC=CC=C21)CNC(=S)SC

> <PUBCHEM_CACTVS_TPSA>
83.6

> <PUBCHEM_MONOISOTOPIC_WEIGHT>
266.054755

> <PUBCHEM_TOTAL_CHARGE>
0

> <PUBCHEM_HEAVY_ATOM_COUNT>
17

> <PUBCHEM_ATOM_DEF_STEREO_COUNT>
0

> <PUBCHEM_ATOM_UDEF_STEREO_COUNT>
0

> <PUBCHEM_BOND_DEF_STEREO_COUNT>
0

> <PUBCHEM_BOND_UDEF_STEREO_COUNT>
0

> <PUBCHEM_ISOTOPIC_ATOM_COUNT>
0

> <PUBCHEM_COMPONENT_COUNT>
1

> <PUBCHEM_CACTVS_TAUTO_COUNT>
2

> <PUBCHEM_COORDINATE_TYPE>
1
5
255

> <PUBCHEM_BONDANNOTATIONS>
11  13  8
12  14  8
13  14  8
4  8  8
4  9  8
6  11  8
6  7  8
6  8  8
7  9  8
8  12  8

$$$$

