84705
  -OEChem-07051213012D

 65 64  0     0  0  0  0  0  0999 V2000
   17.5885    0.0000    0.0000 S   0  0  0  0  0  0  0  0  0  0  0  0
   18.4545   -0.5000    0.0000 O   0  5  0  0  0  0  0  0  0  0  0  0
   18.0885    0.8660    0.0000 O   0  0  0  0  0  0  0  0  0  0  0  0
   17.0885   -0.8660    0.0000 O   0  0  0  0  0  0  0  0  0  0  0  0
   14.1244    0.0000    0.0000 N   0  3  0  0  0  0  0  0  0  0  0  0
   13.2583   -0.5000    0.0000 C   0  0  0  0  0  0  0  0  0  0  0  0
   14.9904    0.5000    0.0000 C   0  0  0  0  0  0  0  0  0  0  0  0
   12.3923    0.0000    0.0000 C   0  0  0  0  0  0  0  0  0  0  0  0
   13.6244    0.8660    0.0000 C   0  0  0  0  0  0  0  0  0  0  0  0
   14.6244   -0.8660    0.0000 C   0  0  0  0  0  0  0  0  0  0  0  0
   11.5263   -0.5000    0.0000 C   0  0  0  0  0  0  0  0  0  0  0  0
   15.8564    0.0000    0.0000 C   0  0  0  0  0  0  0  0  0  0  0  0
   10.6603    0.0000    0.0000 C   0  0  0  0  0  0  0  0  0  0  0  0
    9.7942   -0.5000    0.0000 C   0  0  0  0  0  0  0  0  0  0  0  0
    8.9282    0.0000    0.0000 C   0  0  0  0  0  0  0  0  0  0  0  0
   16.7224    0.5000    0.0000 C   0  0  0  0  0  0  0  0  0  0  0  0
    8.0622   -0.5000    0.0000 C   0  0  0  0  0  0  0  0  0  0  0  0
    7.1962    0.0000    0.0000 C   0  0  0  0  0  0  0  0  0  0  0  0
    6.3301   -0.5000    0.0000 C   0  0  0  0  0  0  0  0  0  0  0  0
    5.4641    0.0000    0.0000 C   0  0  0  0  0  0  0  0  0  0  0  0
    4.5981   -0.5000    0.0000 C   0  0  0  0  0  0  0  0  0  0  0  0
    3.7320    0.0000    0.0000 C   0  0  0  0  0  0  0  0  0  0  0  0
    2.8660   -0.5000    0.0000 C   0  0  0  0  0  0  0  0  0  0  0  0
    2.0000    0.0000    0.0000 C   0  0  0  0  0  0  0  0  0  0  0  0
   12.8598   -0.9749    0.0000 H   0  0  0  0  0  0  0  0  0  0  0  0
   13.6569   -0.9749    0.0000 H   0  0  0  0  0  0  0  0  0  0  0  0
   15.3889    0.9749    0.0000 H   0  0  0  0  0  0  0  0  0  0  0  0
   14.5919    0.9749    0.0000 H   0  0  0  0  0  0  0  0  0  0  0  0
   12.7908    0.4749    0.0000 H   0  0  0  0  0  0  0  0  0  0  0  0
   11.9938    0.4749    0.0000 H   0  0  0  0  0  0  0  0  0  0  0  0
   14.1613    1.1760    0.0000 H   0  0  0  0  0  0  0  0  0  0  0  0
   13.3144    1.4030    0.0000 H   0  0  0  0  0  0  0  0  0  0  0  0
   13.0874    0.5560    0.0000 H   0  0  0  0  0  0  0  0  0  0  0  0
   14.0874   -1.1760    0.0000 H   0  0  0  0  0  0  0  0  0  0  0  0
   14.9344   -1.4030    0.0000 H   0  0  0  0  0  0  0  0  0  0  0  0
   15.1613   -0.5560    0.0000 H   0  0  0  0  0  0  0  0  0  0  0  0
   11.1278   -0.9749    0.0000 H   0  0  0  0  0  0  0  0  0  0  0  0
   11.9248   -0.9749    0.0000 H   0  0  0  0  0  0  0  0  0  0  0  0
   15.4579   -0.4749    0.0000 H   0  0  0  0  0  0  0  0  0  0  0  0
   16.2549   -0.4749    0.0000 H   0  0  0  0  0  0  0  0  0  0  0  0
   11.0588    0.4749    0.0000 H   0  0  0  0  0  0  0  0  0  0  0  0
   10.2617    0.4749    0.0000 H   0  0  0  0  0  0  0  0  0  0  0  0
    9.3957   -0.9749    0.0000 H   0  0  0  0  0  0  0  0  0  0  0  0
   10.1928   -0.9749    0.0000 H   0  0  0  0  0  0  0  0  0  0  0  0
    9.3267    0.4749    0.0000 H   0  0  0  0  0  0  0  0  0  0  0  0
    8.5297    0.4749    0.0000 H   0  0  0  0  0  0  0  0  0  0  0  0
   17.1210    0.9749    0.0000 H   0  0  0  0  0  0  0  0  0  0  0  0
   16.3239    0.9749    0.0000 H   0  0  0  0  0  0  0  0  0  0  0  0
    7.6636   -0.9749    0.0000 H   0  0  0  0  0  0  0  0  0  0  0  0
    8.4607   -0.9749    0.0000 H   0  0  0  0  0  0  0  0  0  0  0  0
    7.5947    0.4749    0.0000 H   0  0  0  0  0  0  0  0  0  0  0  0
    6.7976    0.4749    0.0000 H   0  0  0  0  0  0  0  0  0  0  0  0
    5.9316   -0.9749    0.0000 H   0  0  0  0  0  0  0  0  0  0  0  0
    6.7287   -0.9749    0.0000 H   0  0  0  0  0  0  0  0  0  0  0  0
    5.8626    0.4749    0.0000 H   0  0  0  0  0  0  0  0  0  0  0  0
    5.0656    0.4749    0.0000 H   0  0  0  0  0  0  0  0  0  0  0  0
    4.1996   -0.9749    0.0000 H   0  0  0  0  0  0  0  0  0  0  0  0
    4.9966   -0.9749    0.0000 H   0  0  0  0  0  0  0  0  0  0  0  0
    4.1306    0.4749    0.0000 H   0  0  0  0  0  0  0  0  0  0  0  0
    3.3335    0.4749    0.0000 H   0  0  0  0  0  0  0  0  0  0  0  0
    2.4675   -0.9749    0.0000 H   0  0  0  0  0  0  0  0  0  0  0  0
    3.2646   -0.9749    0.0000 H   0  0  0  0  0  0  0  0  0  0  0  0
    2.3100    0.5369    0.0000 H   0  0  0  0  0  0  0  0  0  0  0  0
    1.4631    0.3100    0.0000 H   0  0  0  0  0  0  0  0  0  0  0  0
    1.6900   -0.5369    0.0000 H   0  0  0  0  0  0  0  0  0  0  0  0
  1  2  1  0  0  0  0
  1  3  2  0  0  0  0
  1  4  2  0  0  0  0
  1 16  1  0  0  0  0
  5  6  1  0  0  0  0
  5  7  1  0  0  0  0
  5  9  1  0  0  0  0
  5 10  1  0  0  0  0
  6  8  1  0  0  0  0
  6 25  1  0  0  0  0
  6 26  1  0  0  0  0
  7 12  1  0  0  0  0
  7 27  1  0  0  0  0
  7 28  1  0  0  0  0
  8 11  1  0  0  0  0
  8 29  1  0  0  0  0
  8 30  1  0  0  0  0
  9 31  1  0  0  0  0
  9 32  1  0  0  0  0
  9 33  1  0  0  0  0
 10 34  1  0  0  0  0
 10 35  1  0  0  0  0
 10 36  1  0  0  0  0
 11 13  1  0  0  0  0
 11 37  1  0  0  0  0
 11 38  1  0  0  0  0
 12 16  1  0  0  0  0
 12 39  1  0  0  0  0
 12 40  1  0  0  0  0
 13 14  1  0  0  0  0
 13 41  1  0  0  0  0
 13 42  1  0  0  0  0
 14 15  1  0  0  0  0
 14 43  1  0  0  0  0
 14 44  1  0  0  0  0
 15 17  1  0  0  0  0
 15 45  1  0  0  0  0
 15 46  1  0  0  0  0
 16 47  1  0  0  0  0
 16 48  1  0  0  0  0
 17 18  1  0  0  0  0
 17 49  1  0  0  0  0
 17 50  1  0  0  0  0
 18 19  1  0  0  0  0
 18 51  1  0  0  0  0
 18 52  1  0  0  0  0
 19 20  1  0  0  0  0
 19 53  1  0  0  0  0
 19 54  1  0  0  0  0
 20 21  1  0  0  0  0
 20 55  1  0  0  0  0
 20 56  1  0  0  0  0
 21 22  1  0  0  0  0
 21 57  1  0  0  0  0
 21 58  1  0  0  0  0
 22 23  1  0  0  0  0
 22 59  1  0  0  0  0
 22 60  1  0  0  0  0
 23 24  1  0  0  0  0
 23 61  1  0  0  0  0
 23 62  1  0  0  0  0
 24 63  1  0  0  0  0
 24 64  1  0  0  0  0
 24 65  1  0  0  0  0
M  CHG  2   2  -1   5   1
M  END
> <PUBCHEM_COMPOUND_CID>
84705

> <PUBCHEM_COMPOUND_CANONICALIZED>
1

> <PUBCHEM_CACTVS_COMPLEXITY>
361

> <PUBCHEM_CACTVS_HBOND_ACCEPTOR>
3

> <PUBCHEM_CACTVS_HBOND_DONOR>
0

> <PUBCHEM_CACTVS_ROTATABLE_BOND>
16

> <PUBCHEM_CACTVS_SUBSKEYS>
AAADcfB6MABAAAAAAAAAAAAAAAAAAAAAAAAAAAAAAAAAAAAAAAAAHAQAAAAACADFQASCAAMAAAIAAAAAAHBAAAAAAAAAAAAIAAAAAAIAgAAEAAAAAACAAAEQgIAAAAAAAAAAAAAAAAAAAAAAAAAAAAAAAA==

> <PUBCHEM_IUPAC_OPENEYE_NAME>
3-[dimethyl(tetradecyl)ammonio]propane-1-sulfonate

> <PUBCHEM_IUPAC_CAS_NAME>
3-[dimethyl(tetradecyl)ammonio]-1-propanesulfonate

> <PUBCHEM_IUPAC_NAME>
3-[dimethyl(tetradecyl)azaniumyl]propane-1-sulfonate

> <PUBCHEM_IUPAC_SYSTEMATIC_NAME>
3-[dimethyl(tetradecyl)azaniumyl]propane-1-sulfonate

> <PUBCHEM_IUPAC_TRADITIONAL_NAME>
3-[dimethyl(myristyl)ammonio]propane-1-sulfonate

> <PUBCHEM_IUPAC_INCHI>
InChI=1S/C19H41NO3S/c1-4-5-6-7-8-9-10-11-12-13-14-15-17-20(2,3)18-16-19-24(21,22)23/h4-19H2,1-3H3

> <PUBCHEM_IUPAC_INCHIKEY>
BHATUINFZWUDIX-UHFFFAOYSA-N

> <PUBCHEM_XLOGP3_AA>
6.1

> <PUBCHEM_EXACT_MASS>
363.280715

> <PUBCHEM_MOLECULAR_FORMULA>
C19H41NO3S

> <PUBCHEM_MOLECULAR_WEIGHT>
363.59874

> <PUBCHEM_OPENEYE_CAN_SMILES>
CCCCCCCCCCCCCC[N+](C)(C)CCCS(=O)(=O)[O-]

> <PUBCHEM_OPENEYE_ISO_SMILES>
CCCCCCCCCCCCCC[N+](C)(C)CCCS(=O)(=O)[O-]

> <PUBCHEM_CACTVS_TPSA>
65.6

> <PUBCHEM_MONOISOTOPIC_WEIGHT>
363.280715

> <PUBCHEM_TOTAL_CHARGE>
0

> <PUBCHEM_HEAVY_ATOM_COUNT>
24

> <PUBCHEM_ATOM_DEF_STEREO_COUNT>
0

> <PUBCHEM_ATOM_UDEF_STEREO_COUNT>
0

> <PUBCHEM_BOND_DEF_STEREO_COUNT>
0

> <PUBCHEM_BOND_UDEF_STEREO_COUNT>
0

> <PUBCHEM_ISOTOPIC_ATOM_COUNT>
0

> <PUBCHEM_COMPONENT_COUNT>
1

> <PUBCHEM_CACTVS_TAUTO_COUNT>
1

> <PUBCHEM_COORDINATE_TYPE>
1
5
255

$$$$

