5284517
  -OEChem-07051213103D

 63 64  0     1  0  0  0  0  0999 V2000
    1.1178    0.0014   -0.1842 O   0  0  0  0  0  0  0  0  0  0  0  0
   -3.0059   -1.8390   -1.5077 O   0  0  0  0  0  0  0  0  0  0  0  0
   -1.4064   -0.7046    2.3353 O   0  0  0  0  0  0  0  0  0  0  0  0
    3.2100    0.5521    0.7759 O   0  0  0  0  0  0  0  0  0  0  0  0
   -0.2963   -1.7542   -1.9916 O   0  0  0  0  0  0  0  0  0  0  0  0
   -2.7513    2.4493   -0.3553 O   0  0  0  0  0  0  0  0  0  0  0  0
   -3.2148    0.2911    0.3933 N   0  0  0  0  0  0  0  0  0  0  0  0
    0.0282   -3.1418    1.4217 N   0  0  0  0  0  0  0  0  0  0  0  0
    0.6997    2.7492   -0.8753 N   0  0  0  0  0  0  0  0  0  0  0  0
    6.0405    0.7440    0.8359 N   0  0  0  0  0  0  0  0  0  0  0  0
   -5.0866    3.5017    0.3618 N   0  0  0  0  0  0  0  0  0  0  0  0
    0.4350   -0.7822    0.7958 C   0  0  1  0  0  0  0  0  0  0  0  0
   -1.9434   -0.2815    0.0013 C   0  0  1  0  0  0  0  0  0  0  0  0
   -0.9099   -0.1191    1.1308 C   0  0  1  0  0  0  0  0  0  0  0  0
    0.3099   -2.2427    0.3003 C   0  0  2  0  0  0  0  0  0  0  0  0
   -2.1084   -1.7555   -0.3991 C   0  0  2  0  0  0  0  0  0  0  0  0
   -0.7648   -2.3873   -0.7957 C   0  0  1  0  0  0  0  0  0  0  0  0
    1.9023    1.0229    0.4279 C   0  0  1  0  0  0  0  0  0  0  0  0
    2.0162    2.2481   -0.4909 C   0  0  1  0  0  0  0  0  0  0  0  0
    3.9944    0.1560   -0.3551 C   0  0  1  0  0  0  0  0  0  0  0  0
    2.8425    1.9163   -1.7361 C   0  0  0  0  0  0  0  0  0  0  0  0
    4.1881    1.3273   -1.3201 C   0  0  0  0  0  0  0  0  0  0  0  0
    5.3338   -0.3480    0.1663 C   0  0  2  0  0  0  0  0  0  0  0  0
   -4.1572   -0.6320    1.0285 C   0  0  0  0  0  0  0  0  0  0  0  0
   -3.5246    1.6483    0.1772 C   0  0  0  0  0  0  0  0  0  0  0  0
   -3.1917   -3.1839   -1.9162 C   0  0  0  0  0  0  0  0  0  0  0  0
    5.1454   -1.5195    1.1274 C   0  0  0  0  0  0  0  0  0  0  0  0
   -4.9025    2.0835    0.6479 C   0  0  0  0  0  0  0  0  0  0  0  0
    1.0508   -0.8210    1.7075 H   0  0  0  0  0  0  0  0  0  0  0  0
   -1.5935    0.2867   -0.8705 H   0  0  0  0  0  0  0  0  0  0  0  0
   -0.7772    0.9483    1.3364 H   0  0  0  0  0  0  0  0  0  0  0  0
    1.2804   -2.5246   -0.1293 H   0  0  0  0  0  0  0  0  0  0  0  0
   -2.5222   -2.3554    0.4171 H   0  0  0  0  0  0  0  0  0  0  0  0
   -0.8639   -3.4520   -1.0333 H   0  0  0  0  0  0  0  0  0  0  0  0
    1.4368    1.3591    1.3632 H   0  0  0  0  0  0  0  0  0  0  0  0
    2.5441    3.0395    0.0574 H   0  0  0  0  0  0  0  0  0  0  0  0
    3.4813   -0.6665   -0.8702 H   0  0  0  0  0  0  0  0  0  0  0  0
    2.3111    1.1956   -2.3711 H   0  0  0  0  0  0  0  0  0  0  0  0
    3.0062    2.8158   -2.3418 H   0  0  0  0  0  0  0  0  0  0  0  0
    0.4228   -4.0595    1.2124 H   0  0  0  0  0  0  0  0  0  0  0  0
   -0.9712   -3.3140    1.5104 H   0  0  0  0  0  0  0  0  0  0  0  0
    4.7610    2.1365   -0.8515 H   0  0  0  0  0  0  0  0  0  0  0  0
    4.7443    1.0055   -2.2079 H   0  0  0  0  0  0  0  0  0  0  0  0
   -1.4714   -1.6640    2.2230 H   0  0  0  0  0  0  0  0  0  0  0  0
   -1.0109   -1.7815   -2.6491 H   0  0  0  0  0  0  0  0  0  0  0  0
    5.9458   -0.6847   -0.6788 H   0  0  0  0  0  0  0  0  0  0  0  0
   -3.6710   -1.2657    1.7714 H   0  0  0  0  0  0  0  0  0  0  0  0
   -4.6461   -1.2410    0.2635 H   0  0  0  0  0  0  0  0  0  0  0  0
   -4.9532   -0.1185    1.5676 H   0  0  0  0  0  0  0  0  0  0  0  0
    0.1749    3.0119   -0.0421 H   0  0  0  0  0  0  0  0  0  0  0  0
    0.8028    3.5968   -1.4316 H   0  0  0  0  0  0  0  0  0  0  0  0
   -2.3859   -3.5227   -2.5730 H   0  0  0  0  0  0  0  0  0  0  0  0
   -3.3173   -3.8625   -1.0660 H   0  0  0  0  0  0  0  0  0  0  0  0
   -4.1129   -3.2222   -2.5062 H   0  0  0  0  0  0  0  0  0  0  0  0
    4.5937   -1.2331    2.0296 H   0  0  0  0  0  0  0  0  0  0  0  0
    4.5970   -2.3340    0.6417 H   0  0  0  0  0  0  0  0  0  0  0  0
    6.1151   -1.9185    1.4461 H   0  0  0  0  0  0  0  0  0  0  0  0
   -5.6757    1.5068    0.1325 H   0  0  0  0  0  0  0  0  0  0  0  0
   -4.9866    1.9479    1.7296 H   0  0  0  0  0  0  0  0  0  0  0  0
    6.9163    0.3974    1.2256 H   0  0  0  0  0  0  0  0  0  0  0  0
    5.4910    1.0752    1.6283 H   0  0  0  0  0  0  0  0  0  0  0  0
   -4.3560    4.0445    0.8205 H   0  0  0  0  0  0  0  0  0  0  0  0
   -4.9844    3.6679   -0.6386 H   0  0  0  0  0  0  0  0  0  0  0  0
  1 12  1  0  0  0  0
  1 18  1  0  0  0  0
  2 16  1  0  0  0  0
  2 26  1  0  0  0  0
  3 14  1  0  0  0  0
  3 44  1  0  0  0  0
  4 18  1  0  0  0  0
  4 20  1  0  0  0  0
  5 17  1  0  0  0  0
  5 45  1  0  0  0  0
  6 25  2  0  0  0  0
  7 13  1  0  0  0  0
  7 24  1  0  0  0  0
  7 25  1  0  0  0  0
  8 15  1  0  0  0  0
  8 40  1  0  0  0  0
  8 41  1  0  0  0  0
  9 19  1  0  0  0  0
  9 50  1  0  0  0  0
  9 51  1  0  0  0  0
 10 23  1  0  0  0  0
 10 60  1  0  0  0  0
 10 61  1  0  0  0  0
 11 28  1  0  0  0  0
 11 62  1  0  0  0  0
 11 63  1  0  0  0  0
 12 14  1  0  0  0  0
 12 15  1  0  0  0  0
 12 29  1  0  0  0  0
 13 14  1  0  0  0  0
 13 16  1  0  0  0  0
 13 30  1  0  0  0  0
 14 31  1  0  0  0  0
 15 17  1  0  0  0  0
 15 32  1  0  0  0  0
 16 17  1  0  0  0  0
 16 33  1  0  0  0  0
 17 34  1  0  0  0  0
 18 19  1  0  0  0  0
 18 35  1  0  0  0  0
 19 21  1  0  0  0  0
 19 36  1  0  0  0  0
 20 22  1  0  0  0  0
 20 23  1  0  0  0  0
 20 37  1  0  0  0  0
 21 22  1  0  0  0  0
 21 38  1  0  0  0  0
 21 39  1  0  0  0  0
 22 42  1  0  0  0  0
 22 43  1  0  0  0  0
 23 27  1  0  0  0  0
 23 46  1  0  0  0  0
 24 47  1  0  0  0  0
 24 48  1  0  0  0  0
 24 49  1  0  0  0  0
 25 28  1  0  0  0  0
 26 52  1  0  0  0  0
 26 53  1  0  0  0  0
 26 54  1  0  0  0  0
 27 55  1  0  0  0  0
 27 56  1  0  0  0  0
 27 57  1  0  0  0  0
 28 58  1  0  0  0  0
 28 59  1  0  0  0  0
M  END
> <PUBCHEM_COMPOUND_CID>
5284517

> <PUBCHEM_CONFORMER_RMSD>
1

> <PUBCHEM_CONFORMER_DIVERSEORDER>
1
12
50
19
28
15
58
26
47
54
23
36
53
55
14
52
49
8
35
10
21
18
34
31
61
41
37
59
60
25
6
44
22
40
51
27
48
30
13
46
9
33
3
43
42
16
7
45
24
20
32
29
56
39
57
17
2
11
4
5
38

> <PUBCHEM_MMFF94_PARTIAL_CHARGES>
35
1 -0.56
10 -0.99
11 -0.99
12 0.28
13 0.3
14 0.28
15 0.27
16 0.28
17 0.28
18 0.56
19 0.27
2 -0.56
20 0.28
23 0.27
24 0.3
25 0.57
26 0.28
28 0.33
3 -0.68
4 -0.56
40 0.36
41 0.36
44 0.4
45 0.4
5 -0.68
50 0.36
51 0.36
6 -0.57
60 0.36
61 0.36
62 0.36
63 0.36
7 -0.66
8 -0.99
9 -0.99

> <PUBCHEM_EFFECTIVE_ROTOR_COUNT>
9.4

> <PUBCHEM_PHARMACOPHORE_FEATURES>
18
1 1 acceptor
1 10 cation
1 10 donor
1 11 cation
1 11 donor
1 2 acceptor
1 3 acceptor
1 3 donor
1 4 acceptor
1 5 acceptor
1 5 donor
1 6 acceptor
1 8 cation
1 8 donor
1 9 cation
1 9 donor
6 12 13 14 15 16 17 rings
6 4 18 19 20 21 22 rings

> <PUBCHEM_HEAVY_ATOM_COUNT>
28

> <PUBCHEM_ATOM_DEF_STEREO_COUNT>
10

> <PUBCHEM_ATOM_UDEF_STEREO_COUNT>
0

> <PUBCHEM_BOND_DEF_STEREO_COUNT>
0

> <PUBCHEM_BOND_UDEF_STEREO_COUNT>
0

> <PUBCHEM_ISOTOPIC_ATOM_COUNT>
0

> <PUBCHEM_COMPONENT_COUNT>
1

> <PUBCHEM_CACTVS_TAUTO_COUNT>
1

> <PUBCHEM_CONFORMER_ID>
0050A2A500000001

> <PUBCHEM_MMFF94_ENERGY>
71.7828

> <PUBCHEM_FEATURE_SELFOVERLAP>
91.385

> <PUBCHEM_SHAPE_FINGERPRINT>
10062212 137 18410577266717689330
10366900 7 12031513133725650181
105312 117 18113617919466732045
11578080 2 18042417850347377632
12035759 4 18265633017395152295
12156800 1 5037371226925067478
12173636 292 18127401255224336835
12403260 363 18342455889989425209
12422481 6 18127973211966920344
12553582 1 18272363132601119274
12592029 89 18338784676404365563
12788726 201 18120931707458020319
13224815 77 8862679983863636138
14251751 93 18408039602565610583
14251764 30 12751230415869781616
14294032 229 18187077365719679425
14466204 15 18341048618196286440
15238133 3 17917417770572155788
15420108 30 18191596456734767943
15664445 248 16604357546607841279
16752209 62 18041844982807911158
17349148 13 18189050911318187990
17818456 19 18335700602545021704
192875 21 18194130616051199670
20511986 3 18261685787952637688
21033648 29 18261122863326292464
21524375 3 18409722967873839875
22907989 373 17766262189930944062
23557571 272 16588861261765223510
23558518 356 18197215849736134295
23559900 14 17023171722665739102
2838139 119 18338241565237420821
38695281 34 18190742131973921701
474 4 18201716297332464857
5081480 168 17060329709468222470
633830 44 17989202633975758706
7164475 11 18118130160251791031
7226269 152 18040714788250063232
9862522 239 18341056323377982997

> <PUBCHEM_SHAPE_MULTIPOLES>
516.11
10.75
3.71
1.63
7.06
0.2
-0.26
4.75
1.54
-3.92
-1
-0.16
-0.81
-2.44

> <PUBCHEM_SHAPE_SELFOVERLAP>
1045.473

> <PUBCHEM_SHAPE_VOLUME>
298

> <PUBCHEM_COORDINATE_TYPE>
2
5
10

$$$$

