5281596
  -OEChem-07051212582D

 93 97  0     1  0  0  0  0  0999 V2000
    2.8660   -0.9393    0.0000 O   0  0  0  0  0  0  0  0  0  0  0  0
    6.4775   -1.6233    0.0000 O   0  0  0  0  0  0  0  0  0  0  0  0
    5.2691    1.0623    0.0000 O   0  0  0  0  0  0  0  0  0  0  0  0
    3.7226   -1.4559    0.0000 O   0  0  0  0  0  0  0  0  0  0  0  0
    3.7118   -4.4024    0.0000 O   0  0  0  0  0  0  0  0  0  0  0  0
    7.0001    1.0019    0.0000 N   0  0  0  0  0  0  0  0  0  0  0  0
    5.3641   -0.2965    0.0000 N   0  0  0  0  0  0  0  0  0  0  0  0
    7.0699    3.0006    0.0000 N   0  0  0  0  0  0  0  0  0  0  0  0
    5.4641   -2.4393    0.0000 N   0  0  0  0  0  0  0  0  0  0  0  0
    4.5981   -4.9393    0.0000 N   0  0  0  0  0  0  0  0  0  0  0  0
    7.0699    0.0043    0.0000 C   0  0  1  0  0  0  0  0  0  0  0  0
    8.0402   -0.2376    0.0000 C   0  0  0  0  0  0  0  0  0  0  0  0
    8.5701    0.6104    0.0000 C   0  0  0  0  0  0  0  0  0  0  0  0
    7.9273    1.3765    0.0000 C   0  0  0  0  0  0  0  0  0  0  0  0
    6.3038   -0.6385    0.0000 C   0  0  0  0  0  0  0  0  0  0  0  0
    6.1520    1.5318    0.0000 C   0  0  0  0  0  0  0  0  0  0  0  0
    4.5981   -0.9393    0.0000 C   0  0  1  0  0  0  0  0  0  0  0  0
    3.7320   -0.4393    0.0000 C   0  0  2  0  0  0  0  0  0  0  0  0
    6.1870    2.5312    0.0000 C   0  0  2  0  0  0  0  0  0  0  0  0
    3.7320    0.5607    0.0000 C   0  0  0  0  0  0  0  0  0  0  0  0
    5.3389    3.0611    0.0000 C   0  0  0  0  0  0  0  0  0  0  0  0
    4.5981   -1.9393    0.0000 C   0  0  0  0  0  0  0  0  0  0  0  0
    2.8660    1.0607    0.0000 C   0  0  0  0  0  0  0  0  0  0  0  0
    4.5981    1.0607    0.0000 C   0  0  0  0  0  0  0  0  0  0  0  0
    5.3738    4.0605    0.0000 C   0  0  0  0  0  0  0  0  0  0  0  0
    5.4641   -3.4393    0.0000 C   0  0  1  0  0  0  0  0  0  0  0  0
    7.1048    4.0000    0.0000 C   0  0  0  0  0  0  0  0  0  0  0  0
    2.8660   -1.9393    0.0000 C   0  0  0  0  0  0  0  0  0  0  0  0
    6.3301   -3.9393    0.0000 C   0  0  0  0  0  0  0  0  0  0  0  0
    6.2568    4.5300    0.0000 C   0  0  0  0  0  0  0  0  0  0  0  0
    4.5258    4.5904    0.0000 C   0  0  0  0  0  0  0  0  0  0  0  0
    4.5981   -3.9393    0.0000 C   0  0  0  0  0  0  0  0  0  0  0  0
    3.7320   -2.4393    0.0000 C   0  0  0  0  0  0  0  0  0  0  0  0
    2.0000   -2.4393    0.0000 C   0  0  0  0  0  0  0  0  0  0  0  0
    7.1962   -3.4392    0.0000 C   0  0  0  0  0  0  0  0  0  0  0  0
    6.2916    5.5293    0.0000 C   0  0  0  0  0  0  0  0  0  0  0  0
    4.5606    5.5898    0.0000 C   0  0  0  0  0  0  0  0  0  0  0  0
    3.7320   -3.4393    0.0000 C   0  0  0  0  0  0  0  0  0  0  0  0
    2.0000   -3.4393    0.0000 C   0  0  0  0  0  0  0  0  0  0  0  0
    2.8660   -3.9393    0.0000 C   0  0  0  0  0  0  0  0  0  0  0  0
    5.4436    6.0593    0.0000 C   0  0  0  0  0  0  0  0  0  0  0  0
    8.0622   -3.9392    0.0000 C   0  0  0  0  0  0  0  0  0  0  0  0
    7.1962   -2.4392    0.0000 C   0  0  0  0  0  0  0  0  0  0  0  0
    3.7320   -5.4393    0.0000 C   0  0  0  0  0  0  0  0  0  0  0  0
    2.8660   -4.9393    0.0000 C   0  0  0  0  0  0  0  0  0  0  0  0
    8.9282   -3.4392    0.0000 C   0  0  0  0  0  0  0  0  0  0  0  0
    8.0622   -1.9392    0.0000 C   0  0  0  0  0  0  0  0  0  0  0  0
    8.9282   -2.4392    0.0000 C   0  0  0  0  0  0  0  0  0  0  0  0
    6.4992    0.2466    0.0000 H   0  0  0  0  0  0  0  0  0  0  0  0
    7.8281   -0.8202    0.0000 H   0  0  0  0  0  0  0  0  0  0  0  0
    8.5974   -0.5094    0.0000 H   0  0  0  0  0  0  0  0  0  0  0  0
    9.0586    0.2287    0.0000 H   0  0  0  0  0  0  0  0  0  0  0  0
    9.0008    1.0564    0.0000 H   0  0  0  0  0  0  0  0  0  0  0  0
    8.4413    1.7232    0.0000 H   0  0  0  0  0  0  0  0  0  0  0  0
    7.6362    1.9239    0.0000 H   0  0  0  0  0  0  0  0  0  0  0  0
    5.1600   -1.2013    0.0000 H   0  0  0  0  0  0  0  0  0  0  0  0
    3.1951   -0.1293    0.0000 H   0  0  0  0  0  0  0  0  0  0  0  0
    5.2565    0.3141    0.0000 H   0  0  0  0  0  0  0  0  0  0  0  0
    6.7127    2.2026    0.0000 H   0  0  0  0  0  0  0  0  0  0  0  0
    4.2690    0.2507    0.0000 H   0  0  0  0  0  0  0  0  0  0  0  0
    4.7324    3.1900    0.0000 H   0  0  0  0  0  0  0  0  0  0  0  0
    5.1066    2.4862    0.0000 H   0  0  0  0  0  0  0  0  0  0  0  0
    7.5957    2.6721    0.0000 H   0  0  0  0  0  0  0  0  0  0  0  0
    3.1760    1.5977    0.0000 H   0  0  0  0  0  0  0  0  0  0  0  0
    2.3291    1.3707    0.0000 H   0  0  0  0  0  0  0  0  0  0  0  0
    2.5560    0.5238    0.0000 H   0  0  0  0  0  0  0  0  0  0  0  0
    4.9081    0.5238    0.0000 H   0  0  0  0  0  0  0  0  0  0  0  0
    5.1350    1.3707    0.0000 H   0  0  0  0  0  0  0  0  0  0  0  0
    4.2881    1.5977    0.0000 H   0  0  0  0  0  0  0  0  0  0  0  0
    6.0467   -2.2272    0.0000 H   0  0  0  0  0  0  0  0  0  0  0  0
    6.0010   -3.1293    0.0000 H   0  0  0  0  0  0  0  0  0  0  0  0
    7.7244    3.9784    0.0000 H   0  0  0  0  0  0  0  0  0  0  0  0
    7.1264    4.6197    0.0000 H   0  0  0  0  0  0  0  0  0  0  0  0
    6.4852    4.0217    0.0000 H   0  0  0  0  0  0  0  0  0  0  0  0
    5.9316   -4.4142    0.0000 H   0  0  0  0  0  0  0  0  0  0  0  0
    6.7287   -4.4142    0.0000 H   0  0  0  0  0  0  0  0  0  0  0  0
    6.7825    4.2014    0.0000 H   0  0  0  0  0  0  0  0  0  0  0  0
    3.9783    4.2993    0.0000 H   0  0  0  0  0  0  0  0  0  0  0  0
    4.2690   -2.1293    0.0000 H   0  0  0  0  0  0  0  0  0  0  0  0
    1.4631   -2.1293    0.0000 H   0  0  0  0  0  0  0  0  0  0  0  0
    6.8391    5.8204    0.0000 H   0  0  0  0  0  0  0  0  0  0  0  0
    4.0349    5.9183    0.0000 H   0  0  0  0  0  0  0  0  0  0  0  0
    5.1350   -5.2493    0.0000 H   0  0  0  0  0  0  0  0  0  0  0  0
    4.2690   -3.7493    0.0000 H   0  0  0  0  0  0  0  0  0  0  0  0
    1.4631   -3.7493    0.0000 H   0  0  0  0  0  0  0  0  0  0  0  0
    5.4652    6.6789    0.0000 H   0  0  0  0  0  0  0  0  0  0  0  0
    8.0622   -4.5592    0.0000 H   0  0  0  0  0  0  0  0  0  0  0  0
    6.6592   -2.1293    0.0000 H   0  0  0  0  0  0  0  0  0  0  0  0
    3.7320   -6.0593    0.0000 H   0  0  0  0  0  0  0  0  0  0  0  0
    2.3291   -5.2493    0.0000 H   0  0  0  0  0  0  0  0  0  0  0  0
    9.4651   -3.7492    0.0000 H   0  0  0  0  0  0  0  0  0  0  0  0
    8.0622   -1.3192    0.0000 H   0  0  0  0  0  0  0  0  0  0  0  0
    9.4651   -2.1292    0.0000 H   0  0  0  0  0  0  0  0  0  0  0  0
  1 18  1  0  0  0  0
  1 28  1  0  0  0  0
  2 15  2  0  0  0  0
  3 16  2  0  0  0  0
  4 22  2  0  0  0  0
  5 32  2  0  0  0  0
  6 11  1  0  0  0  0
  6 14  1  0  0  0  0
  6 16  1  0  0  0  0
  7 15  1  0  0  0  0
 17  7  1  6  0  0  0
  7 58  1  0  0  0  0
 19  8  1  6  0  0  0
  8 27  1  0  0  0  0
  8 63  1  0  0  0  0
  9 22  1  0  0  0  0
  9 26  1  0  0  0  0
  9 70  1  0  0  0  0
 10 32  1  0  0  0  0
 10 44  1  0  0  0  0
 10 83  1  0  0  0  0
 11 12  1  0  0  0  0
 11 15  1  1  0  0  0
 11 49  1  0  0  0  0
 12 13  1  0  0  0  0
 12 50  1  0  0  0  0
 12 51  1  0  0  0  0
 13 14  1  0  0  0  0
 13 52  1  0  0  0  0
 13 53  1  0  0  0  0
 14 54  1  0  0  0  0
 14 55  1  0  0  0  0
 16 19  1  0  0  0  0
 17 18  1  0  0  0  0
 17 22  1  0  0  0  0
 17 56  1  0  0  0  0
 18 20  1  1  0  0  0
 18 57  1  0  0  0  0
 19 21  1  0  0  0  0
 19 59  1  0  0  0  0
 20 23  1  0  0  0  0
 20 24  1  0  0  0  0
 20 60  1  0  0  0  0
 21 25  1  0  0  0  0
 21 61  1  0  0  0  0
 21 62  1  0  0  0  0
 23 64  1  0  0  0  0
 23 65  1  0  0  0  0
 23 66  1  0  0  0  0
 24 67  1  0  0  0  0
 24 68  1  0  0  0  0
 24 69  1  0  0  0  0
 25 30  2  0  0  0  0
 25 31  1  0  0  0  0
 26 29  1  1  0  0  0
 26 32  1  0  0  0  0
 26 71  1  0  0  0  0
 27 72  1  0  0  0  0
 27 73  1  0  0  0  0
 27 74  1  0  0  0  0
 28 33  2  0  0  0  0
 28 34  1  0  0  0  0
 29 35  1  0  0  0  0
 29 75  1  0  0  0  0
 29 76  1  0  0  0  0
 30 36  1  0  0  0  0
 30 77  1  0  0  0  0
 31 37  2  0  0  0  0
 31 78  1  0  0  0  0
 33 38  1  0  0  0  0
 33 79  1  0  0  0  0
 34 39  2  0  0  0  0
 34 80  1  0  0  0  0
 35 42  2  0  0  0  0
 35 43  1  0  0  0  0
 36 41  2  0  0  0  0
 36 81  1  0  0  0  0
 37 41  1  0  0  0  0
 37 82  1  0  0  0  0
 38 40  2  0  0  0  0
 38 84  1  0  0  0  0
 39 40  1  0  0  0  0
 39 85  1  0  0  0  0
 40 45  1  0  0  0  0
 41 86  1  0  0  0  0
 42 46  1  0  0  0  0
 42 87  1  0  0  0  0
 43 47  2  0  0  0  0
 43 88  1  0  0  0  0
 44 45  2  0  0  0  0
 44 89  1  0  0  0  0
 45 90  1  0  0  0  0
 46 48  2  0  0  0  0
 46 91  1  0  0  0  0
 47 48  1  0  0  0  0
 47 92  1  0  0  0  0
 48 93  1  0  0  0  0
M  END
> <PUBCHEM_COMPOUND_CID>
5281596

> <PUBCHEM_COMPOUND_CANONICALIZED>
1

> <PUBCHEM_CACTVS_COMPLEXITY>
1110

> <PUBCHEM_CACTVS_HBOND_ACCEPTOR>
6

> <PUBCHEM_CACTVS_HBOND_DONOR>
4

> <PUBCHEM_CACTVS_ROTATABLE_BOND>
9

> <PUBCHEM_CACTVS_SUBSKEYS>
AAADcfB/uAAAAAAAAAAAAAAAAAAAAWAAAAAwYMAAAAAAAAABUAAAHgAQAAAADTzhmAYyBoPABACIAiFWUAACCAAgIgAIiIGOCIgOZjaEsTuXOCCm9hGYqAeYyYCOIAAAAAAAAABAAAAAAAAAAAAAAAAAAA==

> <PUBCHEM_IUPAC_OPENEYE_NAME>
(2S)-N-[(2Z,6S,9S,10S)-6-benzyl-10-isopropyl-5,8-dioxo-11-oxa-4,7-diazabicyclo[10.2.2]hexadeca-1(14),2,12,15-tetraen-9-yl]-1-[(2S)-2-(methylamino)-3-phenyl-propanoyl]pyrrolidine-2-carboxamide

> <PUBCHEM_IUPAC_CAS_NAME>
(2S)-N-[(2Z,6S,9S,10S)-5,8-dioxo-6-(phenylmethyl)-10-propan-2-yl-11-oxa-4,7-diazabicyclo[10.2.2]hexadeca-1(14),2,12,15-tetraen-9-yl]-1-[(2S)-2-(methylamino)-1-oxo-3-phenylpropyl]-2-pyrrolidinecarboxamide

> <PUBCHEM_IUPAC_NAME>
(2S)-N-[(2Z,6S,9S,10S)-6-benzyl-5,8-dioxo-10-propan-2-yl-11-oxa-4,7-diazabicyclo[10.2.2]hexadeca-1(14),2,12,15-tetraen-9-yl]-1-[(2S)-2-(methylamino)-3-phenylpropanoyl]pyrrolidine-2-carboxamide

> <PUBCHEM_IUPAC_SYSTEMATIC_NAME>
(2S)-N-[(2Z,6S,9S,10S)-5,8-bis(oxidanylidene)-6-(phenylmethyl)-10-propan-2-yl-11-oxa-4,7-diazabicyclo[10.2.2]hexadeca-1(14),2,12,15-tetraen-9-yl]-1-[(2S)-2-(methylamino)-3-phenyl-propanoyl]pyrrolidine-2-carboxamide

> <PUBCHEM_IUPAC_TRADITIONAL_NAME>
(2S)-N-[(2Z,6S,9S,10S)-6-benzyl-10-isopropyl-5,8-diketo-11-oxa-4,7-diazabicyclo[10.2.2]hexadeca-1(14),2,12,15-tetraen-9-yl]-1-[(2S)-2-(methylamino)-3-phenyl-propanoyl]pyrrolidine-2-carboxamide

> <PUBCHEM_IUPAC_INCHI>
InChI=1S/C38H45N5O5/c1-25(2)34-33(42-36(45)32-15-10-22-43(32)38(47)31(39-3)24-28-13-8-5-9-14-28)37(46)41-30(23-27-11-6-4-7-12-27)35(44)40-21-20-26-16-18-29(48-34)19-17-26/h4-9,11-14,16-21,25,30-34,39H,10,15,22-24H2,1-3H3,(H,40,44)(H,41,46)(H,42,45)/b21-20-/t30-,31-,32-,33-,34-/m0/s1

> <PUBCHEM_IUPAC_INCHIKEY>
OKWFLKIFQAURIN-RQXRXZBQSA-N

> <PUBCHEM_XLOGP3_AA>
5.1

> <PUBCHEM_EXACT_MASS>
651.34207

> <PUBCHEM_MOLECULAR_FORMULA>
C38H45N5O5

> <PUBCHEM_MOLECULAR_WEIGHT>
651.7944

> <PUBCHEM_OPENEYE_CAN_SMILES>
CC(C)C1C(C(=O)NC(C(=O)NC=CC2=CC=C(O1)C=C2)CC3=CC=CC=C3)NC(=O)C4CCCN4C(=O)C(CC5=CC=CC=C5)NC

> <PUBCHEM_OPENEYE_ISO_SMILES>
CC(C)[C@H]1[C@@H](C(=O)N[C@H](C(=O)N/C=C\C2=CC=C(O1)C=C2)CC3=CC=CC=C3)NC(=O)[C@@H]4CCCN4C(=O)[C@H](CC5=CC=CC=C5)NC

> <PUBCHEM_CACTVS_TPSA>
129

> <PUBCHEM_MONOISOTOPIC_WEIGHT>
651.34207

> <PUBCHEM_TOTAL_CHARGE>
0

> <PUBCHEM_HEAVY_ATOM_COUNT>
48

> <PUBCHEM_ATOM_DEF_STEREO_COUNT>
5

> <PUBCHEM_ATOM_UDEF_STEREO_COUNT>
0

> <PUBCHEM_BOND_DEF_STEREO_COUNT>
1

> <PUBCHEM_BOND_UDEF_STEREO_COUNT>
0

> <PUBCHEM_ISOTOPIC_ATOM_COUNT>
0

> <PUBCHEM_COMPONENT_COUNT>
1

> <PUBCHEM_CACTVS_TAUTO_COUNT>
18

> <PUBCHEM_COORDINATE_TYPE>
1
5
255

> <PUBCHEM_BONDANNOTATIONS>
11  15  5
18  20  5
25  30  8
25  31  8
26  29  5
28  33  8
28  34  8
30  36  8
31  37  8
33  38  8
34  39  8
35  42  8
35  43  8
36  41  8
37  41  8
38  40  8
39  40  8
42  46  8
43  47  8
46  48  8
47  48  8
17  7  6
19  8  6

$$$$

