442067
  -OEChem-07051212562D

 54 56  0     1  0  0  0  0  0999 V2000
    5.4751    0.1334    0.0000 O   0  0  0  0  0  0  0  0  0  0  0  0
    7.2641    1.2212    0.0000 O   0  0  0  0  0  0  0  0  0  0  0  0
    4.3000   -3.3176    0.0000 O   0  0  0  0  0  0  0  0  0  0  0  0
    3.4340   -1.8176    0.0000 O   0  0  0  0  0  0  0  0  0  0  0  0
    3.8000    1.2212    0.0000 C   0  0  1  0  0  0  0  0  0  0  0  0
    3.8000    2.2212    0.0000 C   0  0  2  0  0  0  0  0  0  0  0  0
    4.6660    0.7212    0.0000 C   0  0  2  0  0  0  0  0  0  0  0  0
    2.9061    2.7559    0.0000 C   0  0  0  0  0  0  0  0  0  0  0  0
    2.9061    0.6866    0.0000 C   0  0  0  0  0  0  0  0  0  0  0  0
    3.8570    0.1334    0.0000 C   0  0  0  0  0  0  0  0  0  0  0  0
    2.0000    2.2420    0.0000 C   0  0  0  0  0  0  0  0  0  0  0  0
    4.6660    2.7212    0.0000 C   0  0  0  0  0  0  0  0  0  0  0  0
    2.0000    1.2004    0.0000 C   0  0  0  0  0  0  0  0  0  0  0  0
    3.3002    0.3551    0.0000 C   0  0  0  0  0  0  0  0  0  0  0  0
    5.5321    1.2212    0.0000 C   0  0  0  0  0  0  0  0  0  0  0  0
    5.1660   -0.8176    0.0000 C   0  0  1  0  0  0  0  0  0  0  0  0
    4.1660   -0.8176    0.0000 C   0  0  0  0  0  0  0  0  0  0  0  0
    5.5321    2.2212    0.0000 C   0  0  0  0  0  0  0  0  0  0  0  0
    2.4161    3.6276    0.0000 C   0  0  0  0  0  0  0  0  0  0  0  0
    3.4160    3.6161    0.0000 C   0  0  0  0  0  0  0  0  0  0  0  0
    5.1660   -1.8176    0.0000 C   0  0  0  0  0  0  0  0  0  0  0  0
    6.1171   -1.1266    0.0000 C   0  0  0  0  0  0  0  0  0  0  0  0
    6.3981    0.7212    0.0000 C   0  0  0  0  0  0  0  0  0  0  0  0
    4.3000   -2.3176    0.0000 C   0  0  0  0  0  0  0  0  0  0  0  0
    3.8066    3.0712    0.0000 H   0  0  0  0  0  0  0  0  0  0  0  0
    2.5124    0.2075    0.0000 H   0  0  0  0  0  0  0  0  0  0  0  0
    3.3107    0.2168    0.0000 H   0  0  0  0  0  0  0  0  0  0  0  0
    3.5470    0.6704    0.0000 H   0  0  0  0  0  0  0  0  0  0  0  0
    3.2906   -0.1187    0.0000 H   0  0  0  0  0  0  0  0  0  0  0  0
    1.7909    2.8257    0.0000 H   0  0  0  0  0  0  0  0  0  0  0  0
    1.3891    2.1359    0.0000 H   0  0  0  0  0  0  0  0  0  0  0  0
    5.0646    3.1962    0.0000 H   0  0  0  0  0  0  0  0  0  0  0  0
    4.2675    3.1962    0.0000 H   0  0  0  0  0  0  0  0  0  0  0  0
    1.3891    1.3065    0.0000 H   0  0  0  0  0  0  0  0  0  0  0  0
    1.7909    0.6167    0.0000 H   0  0  0  0  0  0  0  0  0  0  0  0
    2.7632    0.6650    0.0000 H   0  0  0  0  0  0  0  0  0  0  0  0
    2.9902   -0.1819    0.0000 H   0  0  0  0  0  0  0  0  0  0  0  0
    3.8371    0.0452    0.0000 H   0  0  0  0  0  0  0  0  0  0  0  0
    3.5596   -0.9465    0.0000 H   0  0  0  0  0  0  0  0  0  0  0  0
    4.2308   -1.4342    0.0000 H   0  0  0  0  0  0  0  0  0  0  0  0
    6.0690    2.5312    0.0000 H   0  0  0  0  0  0  0  0  0  0  0  0
    2.9566    3.9314    0.0000 H   0  0  0  0  0  0  0  0  0  0  0  0
    2.1123    4.1681    0.0000 H   0  0  0  0  0  0  0  0  0  0  0  0
    1.8756    3.3239    0.0000 H   0  0  0  0  0  0  0  0  0  0  0  0
    3.9494    3.2999    0.0000 H   0  0  0  0  0  0  0  0  0  0  0  0
    3.7322    4.1494    0.0000 H   0  0  0  0  0  0  0  0  0  0  0  0
    2.8827    3.9322    0.0000 H   0  0  0  0  0  0  0  0  0  0  0  0
    5.3781   -2.4002    0.0000 H   0  0  0  0  0  0  0  0  0  0  0  0
    5.7766   -1.7100    0.0000 H   0  0  0  0  0  0  0  0  0  0  0  0
    5.9255   -1.7163    0.0000 H   0  0  0  0  0  0  0  0  0  0  0  0
    6.7068   -1.3182    0.0000 H   0  0  0  0  0  0  0  0  0  0  0  0
    6.3087   -0.5370    0.0000 H   0  0  0  0  0  0  0  0  0  0  0  0
    6.3981    0.1012    0.0000 H   0  0  0  0  0  0  0  0  0  0  0  0
    3.7631   -3.6276    0.0000 H   0  0  0  0  0  0  0  0  0  0  0  0
  7  1  1  1  0  0  0
  1 16  1  0  0  0  0
  2 23  2  0  0  0  0
  3 24  1  0  0  0  0
  3 54  1  0  0  0  0
  4 24  2  0  0  0  0
  5  6  1  0  0  0  0
  5  7  1  0  0  0  0
  5  9  1  0  0  0  0
  5 14  1  6  0  0  0
  6  8  1  0  0  0  0
  6 12  1  0  0  0  0
  6 25  1  1  0  0  0
  7 10  1  0  0  0  0
  7 15  1  0  0  0  0
  8 11  1  0  0  0  0
  8 19  1  0  0  0  0
  8 20  1  0  0  0  0
  9 13  1  0  0  0  0
  9 26  1  0  0  0  0
  9 27  1  0  0  0  0
 10 17  1  0  0  0  0
 10 28  1  0  0  0  0
 10 29  1  0  0  0  0
 11 13  1  0  0  0  0
 11 30  1  0  0  0  0
 11 31  1  0  0  0  0
 12 18  1  0  0  0  0
 12 32  1  0  0  0  0
 12 33  1  0  0  0  0
 13 34  1  0  0  0  0
 13 35  1  0  0  0  0
 14 36  1  0  0  0  0
 14 37  1  0  0  0  0
 14 38  1  0  0  0  0
 15 18  2  0  0  0  0
 15 23  1  0  0  0  0
 16 17  1  0  0  0  0
 16 21  1  0  0  0  0
 16 22  1  1  0  0  0
 17 39  1  0  0  0  0
 17 40  1  0  0  0  0
 18 41  1  0  0  0  0
 19 42  1  0  0  0  0
 19 43  1  0  0  0  0
 19 44  1  0  0  0  0
 20 45  1  0  0  0  0
 20 46  1  0  0  0  0
 20 47  1  0  0  0  0
 21 24  1  0  0  0  0
 21 48  1  0  0  0  0
 21 49  1  0  0  0  0
 22 50  1  0  0  0  0
 22 51  1  0  0  0  0
 22 52  1  0  0  0  0
 23 53  1  0  0  0  0
M  END
> <PUBCHEM_COMPOUND_CID>
442067

> <PUBCHEM_COMPOUND_CANONICALIZED>
1

> <PUBCHEM_CACTVS_COMPLEXITY>
592

> <PUBCHEM_CACTVS_HBOND_ACCEPTOR>
4

> <PUBCHEM_CACTVS_HBOND_DONOR>
1

> <PUBCHEM_CACTVS_ROTATABLE_BOND>
3

> <PUBCHEM_CACTVS_SUBSKEYS>
AAADceB4OAAAAAAAAAAAAAAAAAAAASAAAAAwQAAAAAAAAACAAAAAGgAACAAAD0SggAICCAAABgCIAijSiAAAAAAgAAAACAEAAEgABBYAIQACUAAFoAAIIYOIyPCPgAAAAAAAAAAAAAQAACAAAAAAAAAAAA==

> <PUBCHEM_IUPAC_OPENEYE_NAME>
2-[(2'S,4aS,8S,8aS)-7-formyl-2',4,4,8a-tetramethyl-spiro[2,3,4a,5-tetrahydro-1H-naphthalene-8,5'-tetrahydrofuran]-2'-yl]acetic acid

> <PUBCHEM_IUPAC_CAS_NAME>
2-[(2'S,4aS,8S,8aS)-7-formyl-2',4,4,8a-tetramethyl-2'-spiro[2,3,4a,5-tetrahydro-1H-naphthalene-8,5'-oxolane]yl]acetic acid

> <PUBCHEM_IUPAC_NAME>
2-[(2'S,4aS,8S,8aS)-7-formyl-2',4,4,8a-tetramethylspiro[2,3,4a,5-tetrahydro-1H-naphthalene-8,5'-oxolane]-2'-yl]acetic acid

> <PUBCHEM_IUPAC_SYSTEMATIC_NAME>
2-[(2'S,4aS,8S,8aS)-7-methanoyl-2',4,4,8a-tetramethyl-spiro[2,3,4a,5-tetrahydro-1H-naphthalene-8,5'-oxolane]-2'-yl]ethanoic acid

> <PUBCHEM_IUPAC_TRADITIONAL_NAME>
2-[(2'S,4aS,8S,8aS)-7-formyl-2',4,4,8a-tetramethyl-spiro[2,3,4a,5-tetrahydro-1H-naphthalene-8,5'-tetrahydrofuran]-2'-yl]acetic acid

> <PUBCHEM_IUPAC_INCHI>
InChI=1S/C20H30O4/c1-17(2)8-5-9-19(4)15(17)7-6-14(13-21)20(19)11-10-18(3,24-20)12-16(22)23/h6,13,15H,5,7-12H2,1-4H3,(H,22,23)/t15-,18-,19-,20+/m0/s1

> <PUBCHEM_IUPAC_INCHIKEY>
ATEDUZJBBLDWGB-MVJPYGJCSA-N

> <PUBCHEM_XLOGP3_AA>
3.4

> <PUBCHEM_EXACT_MASS>
334.214409

> <PUBCHEM_MOLECULAR_FORMULA>
C20H30O4

> <PUBCHEM_MOLECULAR_WEIGHT>
334.4498

> <PUBCHEM_OPENEYE_CAN_SMILES>
CC1(CCCC2(C1CC=C(C23CCC(O3)(C)CC(=O)O)C=O)C)C

> <PUBCHEM_OPENEYE_ISO_SMILES>
C[C@]1(CC[C@@]2(O1)C(=CC[C@@H]3[C@@]2(CCCC3(C)C)C)C=O)CC(=O)O

> <PUBCHEM_CACTVS_TPSA>
63.6

> <PUBCHEM_MONOISOTOPIC_WEIGHT>
334.214409

> <PUBCHEM_TOTAL_CHARGE>
0

> <PUBCHEM_HEAVY_ATOM_COUNT>
24

> <PUBCHEM_ATOM_DEF_STEREO_COUNT>
4

> <PUBCHEM_ATOM_UDEF_STEREO_COUNT>
0

> <PUBCHEM_BOND_DEF_STEREO_COUNT>
0

> <PUBCHEM_BOND_UDEF_STEREO_COUNT>
0

> <PUBCHEM_ISOTOPIC_ATOM_COUNT>
0

> <PUBCHEM_COMPONENT_COUNT>
1

> <PUBCHEM_CACTVS_TAUTO_COUNT>
1

> <PUBCHEM_COORDINATE_TYPE>
1
5
255

> <PUBCHEM_BONDANNOTATIONS>
7  1  5
16  22  5
5  14  6
6  25  5

$$$$

