443601
  -OEChem-07051213023D

 79 81  0     1  0  0  0  0  0999 V2000
    3.2899    1.6276   -0.8548 S   0  0  0  0  0  0  0  0  0  0  0  0
   -1.5364    0.4583   -1.9561 O   0  0  0  0  0  0  0  0  0  0  0  0
   -3.0047   -0.3837    1.1136 O   0  0  0  0  0  0  0  0  0  0  0  0
   -3.7511   -3.8118    0.3150 O   0  0  0  0  0  0  0  0  0  0  0  0
    1.8889   -1.8573    1.1832 O   0  0  0  0  0  0  0  0  0  0  0  0
   -6.1941   -3.3848    2.0352 O   0  0  0  0  0  0  0  0  0  0  0  0
    0.7345    1.2211    2.7483 O   0  0  0  0  0  0  0  0  0  0  0  0
   -1.4124    2.8716   -0.5175 O   0  0  0  0  0  0  0  0  0  0  0  0
    3.4155   -0.5201    2.3131 O   0  0  0  0  0  0  0  0  0  0  0  0
    4.7579   -0.9794   -3.2430 O   0  0  0  0  0  0  0  0  0  0  0  0
    6.9011   -3.7925   -0.0865 O   0  0  0  0  0  0  0  0  0  0  0  0
    0.7609    7.0597   -0.1309 O   0  0  0  0  0  0  0  0  0  0  0  0
   -1.2738    8.0325   -0.2988 O   0  0  0  0  0  0  0  0  0  0  0  0
   -4.0637   -1.8329   -0.8438 N   0  0  0  0  0  0  0  0  0  0  0  0
   -0.8816   -1.2053    0.6243 N   0  0  0  0  0  0  0  0  0  0  0  0
   -6.1668   -4.0014   -1.5996 N   0  0  0  0  0  0  0  0  0  0  0  0
    0.3107    1.1851    0.4726 N   0  0  0  0  0  0  0  0  0  0  0  0
   -0.1760    4.6523    0.3310 N   0  0  0  0  0  0  0  0  0  0  0  0
   -2.6509   -1.4904   -0.9741 C   0  0  1  0  0  0  0  0  0  0  0  0
   -2.6255   -0.4330   -2.0752 C   0  0  1  0  0  0  0  0  0  0  0  0
   -3.9686    0.2756   -1.9116 C   0  0  0  0  0  0  0  0  0  0  0  0
   -4.9090   -0.8586   -1.5337 C   0  0  0  0  0  0  0  0  0  0  0  0
   -2.2239   -0.9681    0.3671 C   0  0  0  0  0  0  0  0  0  0  0  0
   -4.4941   -3.0138   -0.2589 C   0  0  0  0  0  0  0  0  0  0  0  0
   -5.9750   -3.2822   -0.3512 C   0  0  2  0  0  0  0  0  0  0  0  0
   -0.2205   -0.7835    1.8322 C   0  0  1  0  0  0  0  0  0  0  0  0
   -6.4293   -4.1149    0.8355 C   0  0  0  0  0  0  0  0  0  0  0  0
    0.8939   -1.7544    2.2240 C   0  0  0  0  0  0  0  0  0  0  0  0
    0.2984    0.6508    1.7478 C   0  0  0  0  0  0  0  0  0  0  0  0
    0.8449    2.4960    0.1530 C   0  0  1  0  0  0  0  0  0  0  0  0
    1.7018    2.4922   -1.1106 C   0  0  0  0  0  0  0  0  0  0  0  0
   -0.3769    3.3359   -0.0478 C   0  0  0  0  0  0  0  0  0  0  0  0
    3.9774   -1.6094    0.2904 C   0  0  0  0  0  0  0  0  0  0  0  0
    3.0729   -1.2293    1.3833 C   0  0  0  0  0  0  0  0  0  0  0  0
    3.8635   -1.0678   -1.0025 C   0  0  0  0  0  0  0  0  0  0  0  0
    2.8158   -0.0520   -1.3795 C   0  0  0  0  0  0  0  0  0  0  0  0
    4.9948   -2.5162    0.6094 C   0  0  0  0  0  0  0  0  0  0  0  0
    4.7971   -1.4732   -1.9703 C   0  0  0  0  0  0  0  0  0  0  0  0
   -1.1934    5.6720    0.2159 C   0  0  1  0  0  0  0  0  0  0  0  0
    5.9055   -2.9063   -0.3693 C   0  0  0  0  0  0  0  0  0  0  0  0
    5.8064   -2.3868   -1.6577 C   0  0  0  0  0  0  0  0  0  0  0  0
    5.1204   -3.0918    1.9862 C   0  0  0  0  0  0  0  0  0  0  0  0
   -2.0317    5.7369    1.4835 C   0  0  0  0  0  0  0  0  0  0  0  0
   -0.5928    7.0337   -0.0913 C   0  0  0  0  0  0  0  0  0  0  0  0
   -2.0728   -2.3827   -1.2388 H   0  0  0  0  0  0  0  0  0  0  0  0
   -2.5803   -0.9198   -3.0572 H   0  0  0  0  0  0  0  0  0  0  0  0
   -4.2817    0.7979   -2.8208 H   0  0  0  0  0  0  0  0  0  0  0  0
   -3.9143    1.0263   -1.1137 H   0  0  0  0  0  0  0  0  0  0  0  0
   -5.3321   -1.3282   -2.4265 H   0  0  0  0  0  0  0  0  0  0  0  0
   -5.7159   -0.5076   -0.8855 H   0  0  0  0  0  0  0  0  0  0  0  0
   -6.5523   -2.3554   -0.3471 H   0  0  0  0  0  0  0  0  0  0  0  0
   -1.6495    1.1513   -2.6286 H   0  0  0  0  0  0  0  0  0  0  0  0
   -0.3112   -1.6341   -0.0992 H   0  0  0  0  0  0  0  0  0  0  0  0
   -0.9710   -0.7810    2.6332 H   0  0  0  0  0  0  0  0  0  0  0  0
   -7.5024   -4.3271    0.7718 H   0  0  0  0  0  0  0  0  0  0  0  0
   -5.8958   -5.0698    0.9050 H   0  0  0  0  0  0  0  0  0  0  0  0
    0.4813   -2.7609    2.3567 H   0  0  0  0  0  0  0  0  0  0  0  0
    1.3518   -1.4669    3.1778 H   0  0  0  0  0  0  0  0  0  0  0  0
   -7.1487   -4.2543   -1.7041 H   0  0  0  0  0  0  0  0  0  0  0  0
   -5.9426   -3.4047   -2.3935 H   0  0  0  0  0  0  0  0  0  0  0  0
    1.4153    2.8728    1.0106 H   0  0  0  0  0  0  0  0  0  0  0  0
   -0.1163    0.6558   -0.2816 H   0  0  0  0  0  0  0  0  0  0  0  0
    1.1727    2.0517   -1.9634 H   0  0  0  0  0  0  0  0  0  0  0  0
    1.9460    3.5230   -1.3915 H   0  0  0  0  0  0  0  0  0  0  0  0
   -6.5043   -3.9392    2.7713 H   0  0  0  0  0  0  0  0  0  0  0  0
    1.8616   -0.3429   -0.9366 H   0  0  0  0  0  0  0  0  0  0  0  0
    2.6439   -0.0397   -2.4610 H   0  0  0  0  0  0  0  0  0  0  0  0
    0.7242    4.9259    0.7146 H   0  0  0  0  0  0  0  0  0  0  0  0
   -1.8330    5.4095   -0.6352 H   0  0  0  0  0  0  0  0  0  0  0  0
    6.5210   -2.6896   -2.4197 H   0  0  0  0  0  0  0  0  0  0  0  0
    5.5106   -2.3367    2.6764 H   0  0  0  0  0  0  0  0  0  0  0  0
    5.7917   -3.9553    2.0283 H   0  0  0  0  0  0  0  0  0  0  0  0
    4.1518   -3.4497    2.3519 H   0  0  0  0  0  0  0  0  0  0  0  0
   -2.5004    4.7701    1.6962 H   0  0  0  0  0  0  0  0  0  0  0  0
   -2.8251    6.4867    1.3949 H   0  0  0  0  0  0  0  0  0  0  0  0
   -1.4165    6.0063    2.3498 H   0  0  0  0  0  0  0  0  0  0  0  0
    5.4796   -1.3712   -3.7639 H   0  0  0  0  0  0  0  0  0  0  0  0
    7.4324   -3.9418   -0.8873 H   0  0  0  0  0  0  0  0  0  0  0  0
    1.1047    7.9550   -0.3370 H   0  0  0  0  0  0  0  0  0  0  0  0
  1 31  1  0  0  0  0
  1 36  1  0  0  0  0
  2 20  1  0  0  0  0
  2 52  1  0  0  0  0
  3 23  2  0  0  0  0
  4 24  2  0  0  0  0
  5 28  1  0  0  0  0
  5 34  1  0  0  0  0
  6 27  1  0  0  0  0
  6 65  1  0  0  0  0
  7 29  2  0  0  0  0
  8 32  2  0  0  0  0
  9 34  2  0  0  0  0
 10 38  1  0  0  0  0
 10 77  1  0  0  0  0
 11 40  1  0  0  0  0
 11 78  1  0  0  0  0
 12 44  1  0  0  0  0
 12 79  1  0  0  0  0
 13 44  2  0  0  0  0
 14 19  1  0  0  0  0
 14 22  1  0  0  0  0
 14 24  1  0  0  0  0
 15 23  1  0  0  0  0
 15 26  1  0  0  0  0
 15 53  1  0  0  0  0
 16 25  1  0  0  0  0
 16 59  1  0  0  0  0
 16 60  1  0  0  0  0
 17 29  1  0  0  0  0
 17 30  1  0  0  0  0
 17 62  1  0  0  0  0
 18 32  1  0  0  0  0
 18 39  1  0  0  0  0
 18 68  1  0  0  0  0
 19 20  1  0  0  0  0
 19 23  1  0  0  0  0
 19 45  1  0  0  0  0
 20 21  1  0  0  0  0
 20 46  1  0  0  0  0
 21 22  1  0  0  0  0
 21 47  1  0  0  0  0
 21 48  1  0  0  0  0
 22 49  1  0  0  0  0
 22 50  1  0  0  0  0
 24 25  1  0  0  0  0
 25 27  1  0  0  0  0
 25 51  1  0  0  0  0
 26 28  1  0  0  0  0
 26 29  1  0  0  0  0
 26 54  1  0  0  0  0
 27 55  1  0  0  0  0
 27 56  1  0  0  0  0
 28 57  1  0  0  0  0
 28 58  1  0  0  0  0
 30 31  1  0  0  0  0
 30 32  1  0  0  0  0
 30 61  1  0  0  0  0
 31 63  1  0  0  0  0
 31 64  1  0  0  0  0
 33 34  1  0  0  0  0
 33 35  1  0  0  0  0
 33 37  2  0  0  0  0
 35 36  1  0  0  0  0
 35 38  2  0  0  0  0
 36 66  1  0  0  0  0
 36 67  1  0  0  0  0
 37 40  1  0  0  0  0
 37 42  1  0  0  0  0
 38 41  1  0  0  0  0
 39 43  1  0  0  0  0
 39 44  1  0  0  0  0
 39 69  1  0  0  0  0
 40 41  2  0  0  0  0
 41 70  1  0  0  0  0
 42 71  1  0  0  0  0
 42 72  1  0  0  0  0
 42 73  1  0  0  0  0
 43 74  1  0  0  0  0
 43 75  1  0  0  0  0
 43 76  1  0  0  0  0
M  END
> <PUBCHEM_COMPOUND_CID>
443601

> <PUBCHEM_CONFORMER_RMSD>
1.2

> <PUBCHEM_CONFORMER_DIVERSEORDER>
1
46
40
45
49
38
39
8
23
52
36
43
14
22
34
16
47
48
18
17
42
7
44
6
25
27
13
20
41
10
51
26
19
53
9
21
50
3
30
35
33
29
37
15
5
32
11
54
24
28
31
4
12
2

> <PUBCHEM_MMFF94_PARTIAL_CHARGES>
53
1 -0.46
10 -0.53
11 -0.53
12 -0.65
13 -0.57
14 -0.66
15 -0.73
16 -0.99
17 -0.73
18 -0.73
19 0.36
2 -0.68
20 0.28
22 0.3
23 0.57
24 0.57
25 0.33
26 0.36
27 0.28
28 0.28
29 0.57
3 -0.57
30 0.36
31 0.23
32 0.57
33 0.09
34 0.63
35 -0.14
36 0.37
37 -0.14
38 0.08
39 0.36
4 -0.57
40 0.08
41 -0.15
42 0.14
44 0.66
5 -0.43
52 0.4
53 0.37
59 0.36
6 -0.68
60 0.36
62 0.37
65 0.4
68 0.37
7 -0.57
70 0.15
77 0.45
78 0.45
79 0.5
8 -0.57
9 -0.57

> <PUBCHEM_EFFECTIVE_ROTOR_COUNT>
12.6

> <PUBCHEM_PHARMACOPHORE_FEATURES>
21
1 10 donor
1 11 donor
1 12 acceptor
1 13 acceptor
1 15 donor
1 16 cation
1 16 donor
1 17 donor
1 18 donor
1 2 acceptor
1 2 donor
1 3 acceptor
1 4 acceptor
1 6 acceptor
1 6 donor
1 7 acceptor
1 8 acceptor
1 9 acceptor
3 12 13 44 anion
5 14 19 20 21 22 rings
6 33 35 37 38 40 41 rings

> <PUBCHEM_HEAVY_ATOM_COUNT>
44

> <PUBCHEM_ATOM_DEF_STEREO_COUNT>
5

> <PUBCHEM_ATOM_UDEF_STEREO_COUNT>
1

> <PUBCHEM_BOND_DEF_STEREO_COUNT>
0

> <PUBCHEM_BOND_UDEF_STEREO_COUNT>
0

> <PUBCHEM_ISOTOPIC_ATOM_COUNT>
0

> <PUBCHEM_COMPONENT_COUNT>
1

> <PUBCHEM_CACTVS_TAUTO_COUNT>
72

> <PUBCHEM_CONFORMER_ID>
0006C4D100000001

> <PUBCHEM_MMFF94_ENERGY>
116.5747

> <PUBCHEM_FEATURE_SELFOVERLAP>
106.638

> <PUBCHEM_SHAPE_FINGERPRINT>
11607047 141 18122894349612235851
11720765 8 18266177236352623525
12422481 6 15791997970925839859
12522641 24 18051402969454486403
12788726 201 18196926880121061652
13782708 43 18264212422587528911
13835254 42 18411141342469240696
14068700 675 18342463677161317438
14294032 229 17905041813386975352
14415360 78 17259319095407533061
15444296 121 18336817694101253033
15444296 8 18335969961233978183
15968369 153 18269539676376745872
19311894 1 18410292553895098989
20775438 99 17979930306338218194
3388396 114 18196346175590646828
4017518 198 17113242898890327598
42767 28 15913332377164013095
44280117 145 18267019652409887374
4461854 278 17976242862909679625
6058803 2 17914323822514673494
6697151 62 18264224534441744031
6700243 42 17970882652970399470
86090 222 17343505501623038195

> <PUBCHEM_SHAPE_MULTIPOLES>
814.01
13.79
10.14
2.39
1.45
27.72
0.03
-28.02
-3.6
-10.42
1.41
1.14
-1.22
-0.44

> <PUBCHEM_SHAPE_SELFOVERLAP>
1700.237

> <PUBCHEM_SHAPE_VOLUME>
461.7

> <PUBCHEM_COORDINATE_TYPE>
2
5
10

$$$$

