9038
  -OEChem-06261203213D

 17 16  0     0  0  0  0  0  0999 V2000
   -0.1178    0.1582   -2.1741 S   0  0  0  0  0  0  0  0  0  0  0  0
    0.0056    0.0322   -0.2338 P   0  0  0  0  0  0  0  0  0  0  0  0
    0.4907   -1.3962    0.3757 O   0  0  0  0  0  0  0  0  0  0  0  0
   -1.3653    0.2908    0.6035 O   0  0  0  0  0  0  0  0  0  0  0  0
    1.0301    1.0604    0.5008 O   0  0  0  0  0  0  0  0  0  0  0  0
   -0.3472   -2.5335    0.2564 C   0  0  0  0  0  0  0  0  0  0  0  0
   -2.1233    1.4653    0.3674 C   0  0  0  0  0  0  0  0  0  0  0  0
    2.4273    0.9228    0.3041 C   0  0  0  0  0  0  0  0  0  0  0  0
   -1.3052   -2.3510    0.7494 H   0  0  0  0  0  0  0  0  0  0  0  0
    0.1443   -3.3805    0.7415 H   0  0  0  0  0  0  0  0  0  0  0  0
   -0.5092   -2.7748   -0.7968 H   0  0  0  0  0  0  0  0  0  0  0  0
   -2.7004    1.3552   -0.5539 H   0  0  0  0  0  0  0  0  0  0  0  0
   -1.4673    2.3372    0.2980 H   0  0  0  0  0  0  0  0  0  0  0  0
   -2.8142    1.6077    1.2021 H   0  0  0  0  0  0  0  0  0  0  0  0
    2.9389    1.6885    0.8926 H   0  0  0  0  0  0  0  0  0  0  0  0
    2.6761    1.0629   -0.7506 H   0  0  0  0  0  0  0  0  0  0  0  0
    2.7613   -0.0623    0.6391 H   0  0  0  0  0  0  0  0  0  0  0  0
  1  2  2  0  0  0  0
  2  3  1  0  0  0  0
  2  4  1  0  0  0  0
  2  5  1  0  0  0  0
  3  6  1  0  0  0  0
  4  7  1  0  0  0  0
  5  8  1  0  0  0  0
  6  9  1  0  0  0  0
  6 10  1  0  0  0  0
  6 11  1  0  0  0  0
  7 12  1  0  0  0  0
  7 13  1  0  0  0  0
  7 14  1  0  0  0  0
  8 15  1  0  0  0  0
  8 16  1  0  0  0  0
  8 17  1  0  0  0  0
M  END
> <PUBCHEM_COMPOUND_CID>
9038

> <PUBCHEM_CONFORMER_RMSD>
0.6

> <PUBCHEM_CONFORMER_DIVERSEORDER>
1
2
3
4

> <PUBCHEM_MMFF94_PARTIAL_CHARGES>
8
1 -0.68
2 1.49
3 -0.55
4 -0.55
5 -0.55
6 0.28
7 0.28
8 0.28

> <PUBCHEM_EFFECTIVE_ROTOR_COUNT>
3

> <PUBCHEM_PHARMACOPHORE_FEATURES>
0

> <PUBCHEM_HEAVY_ATOM_COUNT>
8

> <PUBCHEM_ATOM_DEF_STEREO_COUNT>
0

> <PUBCHEM_ATOM_UDEF_STEREO_COUNT>
0

> <PUBCHEM_BOND_DEF_STEREO_COUNT>
0

> <PUBCHEM_BOND_UDEF_STEREO_COUNT>
0

> <PUBCHEM_ISOTOPIC_ATOM_COUNT>
0

> <PUBCHEM_COMPONENT_COUNT>
1

> <PUBCHEM_CACTVS_TAUTO_COUNT>
1

> <PUBCHEM_CONFORMER_ID>
0000234E00000001

> <PUBCHEM_MMFF94_ENERGY>
7.7749

> <PUBCHEM_FEATURE_SELFOVERLAP>
0

> <PUBCHEM_SHAPE_FINGERPRINT>
20711978 78 17836664276039524525
21040471 1 18410568470629915992
23211744 41 18041268924550778033
23552449 11 17830170573551604529
5943 1 15605896045218861005

> <PUBCHEM_SHAPE_MULTIPOLES>
154.73
2.31
2.16
1.46
0.52
1.85
1.4
-1.67
-0.8
-0.38
-0.57
-0.15
-0.2
-0.04

> <PUBCHEM_SHAPE_SELFOVERLAP>
251.141

> <PUBCHEM_SHAPE_VOLUME>
109.7

> <PUBCHEM_COORDINATE_TYPE>
2
5
10

$$$$

