440117
  -OEChem-07051212483D

 34 34  0     1  0  0  0  0  0999 V2000
    3.2299    2.0316    0.1591 P   0  0  0  0  0  0  0  0  0  0  0  0
   -4.0215    1.2102   -0.1102 P   0  0  0  0  0  0  0  0  0  0  0  0
   -0.1235   -0.5142   -0.8124 O   0  0  0  0  0  0  0  0  0  0  0  0
    1.7027   -1.2960   -2.0892 O   0  0  0  0  0  0  0  0  0  0  0  0
    1.9432   -3.1247    0.5319 O   0  0  0  0  0  0  0  0  0  0  0  0
   -0.1108   -1.8788    1.8343 O   0  0  0  0  0  0  0  0  0  0  0  0
    2.2662    0.9371   -0.5458 O   0  0  0  0  0  0  0  0  0  0  0  0
   -2.8134    0.2490   -0.5953 O   0  0  0  0  0  0  0  0  0  0  0  0
    4.6238    1.2381    0.3664 O   0  0  0  0  0  0  0  0  0  0  0  0
    2.6312    2.1296    1.6580 O   0  0  0  0  0  0  0  0  0  0  0  0
   -3.4179    1.9601    1.1892 O   0  0  0  0  0  0  0  0  0  0  0  0
   -5.0812    0.1652    0.5223 O   0  0  0  0  0  0  0  0  0  0  0  0
    3.3386    3.3405   -0.5669 O   0  0  0  0  0  0  0  0  0  0  0  0
   -4.5786    2.1135   -1.1713 O   0  0  0  0  0  0  0  0  0  0  0  0
    1.1622   -1.1698   -0.7739 C   0  0  2  0  0  0  0  0  0  0  0  0
    0.8926   -2.5825   -0.2415 C   0  0  2  0  0  0  0  0  0  0  0  0
   -0.3893   -2.4225    0.5505 C   0  0  2  0  0  0  0  0  0  0  0  0
   -1.1309   -1.4262   -0.3307 C   0  0  1  0  0  0  0  0  0  0  0  0
    2.1091   -0.3252    0.0755 C   0  0  0  0  0  0  0  0  0  0  0  0
   -2.2325   -0.6352    0.3498 C   0  0  0  0  0  0  0  0  0  0  0  0
    0.7096   -3.2771   -1.0713 H   0  0  0  0  0  0  0  0  0  0  0  0
   -0.9372   -3.3591    0.6886 H   0  0  0  0  0  0  0  0  0  0  0  0
   -1.5311   -1.9289   -1.2208 H   0  0  0  0  0  0  0  0  0  0  0  0
    3.0916   -0.8031    0.1400 H   0  0  0  0  0  0  0  0  0  0  0  0
    1.7077   -0.1754    1.0813 H   0  0  0  0  0  0  0  0  0  0  0  0
   -1.8231   -0.0365    1.1695 H   0  0  0  0  0  0  0  0  0  0  0  0
   -2.9965   -1.3122    0.7436 H   0  0  0  0  0  0  0  0  0  0  0  0
    1.2138   -1.9877   -2.5646 H   0  0  0  0  0  0  0  0  0  0  0  0
    1.6402   -3.9808    0.8791 H   0  0  0  0  0  0  0  0  0  0  0  0
    0.4628   -2.5114    2.2994 H   0  0  0  0  0  0  0  0  0  0  0  0
    5.3986    1.7245    0.7203 H   0  0  0  0  0  0  0  0  0  0  0  0
    2.9924    2.8056    2.2701 H   0  0  0  0  0  0  0  0  0  0  0  0
   -3.9530    2.6559    1.6269 H   0  0  0  0  0  0  0  0  0  0  0  0
   -5.9583    0.4954    0.8116 H   0  0  0  0  0  0  0  0  0  0  0  0
  1  7  1  0  0  0  0
  1  9  1  0  0  0  0
  1 10  1  0  0  0  0
  1 13  2  0  0  0  0
  2  8  1  0  0  0  0
  2 11  1  0  0  0  0
  2 12  1  0  0  0  0
  2 14  2  0  0  0  0
  3 15  1  0  0  0  0
  3 18  1  0  0  0  0
  4 15  1  0  0  0  0
  4 28  1  0  0  0  0
  5 16  1  0  0  0  0
  5 29  1  0  0  0  0
  6 17  1  0  0  0  0
  6 30  1  0  0  0  0
  7 19  1  0  0  0  0
  8 20  1  0  0  0  0
  9 31  1  0  0  0  0
 10 32  1  0  0  0  0
 11 33  1  0  0  0  0
 12 34  1  0  0  0  0
 15 16  1  0  0  0  0
 15 19  1  0  0  0  0
 16 17  1  0  0  0  0
 16 21  1  0  0  0  0
 17 18  1  0  0  0  0
 17 22  1  0  0  0  0
 18 20  1  0  0  0  0
 18 23  1  0  0  0  0
 19 24  1  0  0  0  0
 19 25  1  0  0  0  0
 20 26  1  0  0  0  0
 20 27  1  0  0  0  0
M  END
> <PUBCHEM_COMPOUND_CID>
440117

> <PUBCHEM_CONFORMER_RMSD>
0.8

> <PUBCHEM_CONFORMER_DIVERSEORDER>
6
33
32
4
40
22
14
39
2
38
29
23
31
13
17
36
27
5
16
34
12
1
30
18
19
26
15
24
35
21
37
25
10
3
11
28
20
9
8
7

> <PUBCHEM_MMFF94_PARTIAL_CHARGES>
27
1 1.51
10 -0.77
11 -0.77
12 -0.77
13 -0.7
14 -0.7
15 0.56
16 0.28
17 0.28
18 0.28
19 0.28
2 1.51
20 0.28
28 0.4
29 0.4
3 -0.56
30 0.4
31 0.5
32 0.5
33 0.5
34 0.5
4 -0.68
5 -0.68
6 -0.68
7 -0.55
8 -0.55
9 -0.77

> <PUBCHEM_EFFECTIVE_ROTOR_COUNT>
7

> <PUBCHEM_PHARMACOPHORE_FEATURES>
16
1 10 acceptor
1 11 acceptor
1 12 acceptor
1 13 acceptor
1 14 acceptor
1 3 acceptor
1 4 acceptor
1 4 donor
1 5 acceptor
1 5 donor
1 6 acceptor
1 6 donor
1 9 acceptor
4 1 9 10 13 anion
4 2 11 12 14 anion
5 3 15 16 17 18 rings

> <PUBCHEM_HEAVY_ATOM_COUNT>
20

> <PUBCHEM_ATOM_DEF_STEREO_COUNT>
3

> <PUBCHEM_ATOM_UDEF_STEREO_COUNT>
1

> <PUBCHEM_BOND_DEF_STEREO_COUNT>
0

> <PUBCHEM_BOND_UDEF_STEREO_COUNT>
0

> <PUBCHEM_ISOTOPIC_ATOM_COUNT>
0

> <PUBCHEM_COMPONENT_COUNT>
1

> <PUBCHEM_CACTVS_TAUTO_COUNT>
1

> <PUBCHEM_CONFORMER_ID>
0006B73500000006

> <PUBCHEM_MMFF94_ENERGY>
-18.8259

> <PUBCHEM_FEATURE_SELFOVERLAP>
81.315

> <PUBCHEM_SHAPE_FINGERPRINT>
11221954 11 18336538309666066268
12173636 292 17978518525017542654
122479 349 18267021665730606164
12769317 202 18336275616776929017
12788726 201 17547866157036174090
13134695 92 17837783583277693119
13294875 104 18341047510310839198
13464514 151 18334569166214064918
13590594 115 17832692853125346664
14123255 52 18411703153628827757
14178342 30 17917422078266546211
14787075 74 18263082116064078957
14957384 54 18201167542024735424
17834072 32 18266454304740939428
18186145 218 18192139607057798767
18785283 64 18343586261221324450
20567600 254 18341622494656856197
20621476 13 18341057422926930309
20671657 1 18338793532647996239
21401589 2 18191025603672614673
21452121 103 18270407208008759883
21475661 188 18343308097374437229
21524375 3 18261676969683067942
474 4 18411139121454508613
495365 180 17415567768774884903
5104073 3 18200584934754535073
5895379 119 17171519110562936713
7808743 9 18052814746046788108
84936 182 18334012830214802721
9981440 41 18267029362138142298

> <PUBCHEM_SHAPE_MULTIPOLES>
348.86
8.16
3.68
1.29
6.38
0.12
-0.03
8.69
-0.2
-2.48
-0.4
-0.17
-0.08
0.6

> <PUBCHEM_SHAPE_SELFOVERLAP>
675.379

> <PUBCHEM_SHAPE_VOLUME>
213.1

> <PUBCHEM_COORDINATE_TYPE>
2
5
10

$$$$

