443723
  -OEChem-07051213033D

 44 47  0     1  0  0  0  0  0999 V2000
    0.4734    1.9159    0.6994 O   0  0  0  0  0  0  0  0  0  0  0  0
   -4.1338    2.6578   -0.4136 O   0  0  0  0  0  0  0  0  0  0  0  0
    3.3040    2.1127    0.4719 O   0  0  0  0  0  0  0  0  0  0  0  0
   -0.2748   -3.2376    0.3719 N   0  0  2  0  0  0  0  0  0  0  0  0
   -0.8951   -0.0600    0.1579 C   0  0  1  0  0  0  0  0  0  0  0  0
   -0.8420    1.3276    0.8758 C   0  0  2  0  0  0  0  0  0  0  0  0
   -1.6309    0.0710   -1.1910 C   0  0  0  0  0  0  0  0  0  0  0  0
    0.5700   -0.2790   -0.0262 C   0  0  0  0  0  0  0  0  0  0  0  0
   -1.4989   -1.1325    1.0905 C   0  0  0  0  0  0  0  0  0  0  0  0
   -1.8683    2.3404    0.3569 C   0  0  0  0  0  0  0  0  0  0  0  0
   -3.0597    0.6022   -1.0439 C   0  0  0  0  0  0  0  0  0  0  0  0
   -3.2019    1.6792    0.0359 C   0  0  2  0  0  0  0  0  0  0  0  0
    1.2656    0.8809    0.2847 C   0  0  0  0  0  0  0  0  0  0  0  0
   -1.5762   -2.5641    0.5362 C   0  0  0  0  0  0  0  0  0  0  0  0
    1.2410   -1.4271   -0.4285 C   0  0  0  0  0  0  0  0  0  0  0  0
    0.5103   -2.7035   -0.7552 C   0  0  0  0  0  0  0  0  0  0  0  0
    2.6401    0.9670    0.1767 C   0  0  0  0  0  0  0  0  0  0  0  0
    2.6404   -1.3528   -0.5383 C   0  0  0  0  0  0  0  0  0  0  0  0
    3.3315   -0.1673   -0.2413 C   0  0  0  0  0  0  0  0  0  0  0  0
   -0.5004   -4.6754    0.1724 C   0  0  0  0  0  0  0  0  0  0  0  0
    3.5056    3.0447   -0.5925 C   0  0  0  0  0  0  0  0  0  0  0  0
   -0.9841    1.2067    1.9588 H   0  0  0  0  0  0  0  0  0  0  0  0
   -1.6531   -0.8736   -1.7438 H   0  0  0  0  0  0  0  0  0  0  0  0
   -1.0772    0.7625   -1.8428 H   0  0  0  0  0  0  0  0  0  0  0  0
   -2.5173   -0.8354    1.3702 H   0  0  0  0  0  0  0  0  0  0  0  0
   -0.9365   -1.1638    2.0351 H   0  0  0  0  0  0  0  0  0  0  0  0
   -2.0039    3.1384    1.0984 H   0  0  0  0  0  0  0  0  0  0  0  0
   -1.4855    2.8635   -0.5305 H   0  0  0  0  0  0  0  0  0  0  0  0
   -3.4013    0.9766   -2.0171 H   0  0  0  0  0  0  0  0  0  0  0  0
   -3.7348   -0.2276   -0.7989 H   0  0  0  0  0  0  0  0  0  0  0  0
   -3.6191    1.2320    0.9457 H   0  0  0  0  0  0  0  0  0  0  0  0
   -2.1618   -3.1294    1.2745 H   0  0  0  0  0  0  0  0  0  0  0  0
   -2.1605   -2.5955   -0.3911 H   0  0  0  0  0  0  0  0  0  0  0  0
   -0.1036   -2.5675   -1.6542 H   0  0  0  0  0  0  0  0  0  0  0  0
    1.2713   -3.4439   -1.0379 H   0  0  0  0  0  0  0  0  0  0  0  0
    3.2123   -2.2212   -0.8577 H   0  0  0  0  0  0  0  0  0  0  0  0
   -4.2205    3.3247    0.2887 H   0  0  0  0  0  0  0  0  0  0  0  0
    4.4141   -0.1445   -0.3372 H   0  0  0  0  0  0  0  0  0  0  0  0
    0.4531   -5.2128    0.1166 H   0  0  0  0  0  0  0  0  0  0  0  0
   -1.0688   -4.8797   -0.7423 H   0  0  0  0  0  0  0  0  0  0  0  0
   -1.0431   -5.1049    1.0221 H   0  0  0  0  0  0  0  0  0  0  0  0
    4.0470    3.9071   -0.1942 H   0  0  0  0  0  0  0  0  0  0  0  0
    2.5446    3.3859   -0.9901 H   0  0  0  0  0  0  0  0  0  0  0  0
    4.1038    2.5912   -1.3891 H   0  0  0  0  0  0  0  0  0  0  0  0
  1  6  1  0  0  0  0
  1 13  1  0  0  0  0
  2 12  1  0  0  0  0
  2 37  1  0  0  0  0
  3 17  1  0  0  0  0
  3 21  1  0  0  0  0
  4 14  1  0  0  0  0
  4 16  1  0  0  0  0
  4 20  1  0  0  0  0
  5  6  1  0  0  0  0
  5  7  1  0  0  0  0
  5  8  1  0  0  0  0
  5  9  1  0  0  0  0
  6 10  1  0  0  0  0
  6 22  1  0  0  0  0
  7 11  1  0  0  0  0
  7 23  1  0  0  0  0
  7 24  1  0  0  0  0
  8 13  1  0  0  0  0
  8 15  2  0  0  0  0
  9 14  1  0  0  0  0
  9 25  1  0  0  0  0
  9 26  1  0  0  0  0
 10 12  1  0  0  0  0
 10 27  1  0  0  0  0
 10 28  1  0  0  0  0
 11 12  1  0  0  0  0
 11 29  1  0  0  0  0
 11 30  1  0  0  0  0
 12 31  1  0  0  0  0
 13 17  2  0  0  0  0
 14 32  1  0  0  0  0
 14 33  1  0  0  0  0
 15 16  1  0  0  0  0
 15 18  1  0  0  0  0
 16 34  1  0  0  0  0
 16 35  1  0  0  0  0
 17 19  1  0  0  0  0
 18 19  2  0  0  0  0
 18 36  1  0  0  0  0
 19 38  1  0  0  0  0
 20 39  1  0  0  0  0
 20 40  1  0  0  0  0
 20 41  1  0  0  0  0
 21 42  1  0  0  0  0
 21 43  1  0  0  0  0
 21 44  1  0  0  0  0
M  END
> <PUBCHEM_COMPOUND_CID>
443723

> <PUBCHEM_CONFORMER_RMSD>
0.6

> <PUBCHEM_CONFORMER_DIVERSEORDER>
1
7
4
2
3
6
5

> <PUBCHEM_MMFF94_PARTIAL_CHARGES>
20
1 -0.36
12 0.28
13 0.08
14 0.27
15 -0.14
16 0.41
17 0.08
18 -0.15
19 -0.15
2 -0.68
20 0.27
21 0.28
3 -0.36
36 0.15
37 0.4
38 0.15
4 -0.81
5 0.14
6 0.28
8 -0.14

> <PUBCHEM_EFFECTIVE_ROTOR_COUNT>
2.8

> <PUBCHEM_PHARMACOPHORE_FEATURES>
9
1 1 acceptor
1 2 acceptor
1 2 donor
1 3 acceptor
1 4 cation
5 1 5 6 8 13 rings
6 5 6 7 10 11 12 rings
6 8 13 15 17 18 19 rings
7 4 5 8 9 14 15 16 rings

> <PUBCHEM_HEAVY_ATOM_COUNT>
21

> <PUBCHEM_ATOM_DEF_STEREO_COUNT>
3

> <PUBCHEM_ATOM_UDEF_STEREO_COUNT>
0

> <PUBCHEM_BOND_DEF_STEREO_COUNT>
0

> <PUBCHEM_BOND_UDEF_STEREO_COUNT>
0

> <PUBCHEM_ISOTOPIC_ATOM_COUNT>
0

> <PUBCHEM_COMPONENT_COUNT>
1

> <PUBCHEM_CACTVS_TAUTO_COUNT>
1

> <PUBCHEM_CONFORMER_ID>
0006C54B00000001

> <PUBCHEM_MMFF94_ENERGY>
82.3471

> <PUBCHEM_FEATURE_SELFOVERLAP>
45.927

> <PUBCHEM_SHAPE_FINGERPRINT>
10411042 1 17185315340624863930
10693767 8 17610350711268788095
10948715 1 18411984667307645413
10967382 1 17977380856462478442
1100329 8 18267872872451924850
12173636 292 18412263900427790749
12730499 353 18269268148923820873
12788726 201 17839475392269853186
13027679 85 17615404766731010471
13140716 1 18335699498268733608
13583140 156 17131564855159027144
138480 1 17546164563627861738
14787075 74 18334296440534161585
14790565 3 15962862821006284181
15490181 8 18335701663190550722
16945 1 18120364616955749856
17357779 13 17469896484322102942
18186145 218 18268718370959830925
19591789 44 18410006641953310619
20510252 161 18264767666793497243
21029758 27 17042880193162121186
21041028 32 16682871000551260499
21160774 45 18048591521588393154
22112679 90 16820806916167925691
22182313 1 17898276222652625148
2255824 54 18193559088826398924
22907989 373 17908988703447666444
2334 1 18335416829422885640
23419403 2 17121088919155089851
23493267 7 18270125604483867048
23559900 14 18334288778697348294
23598291 2 17249202961550787313
238 59 18266185105012330223
25 1 18268149949233547837
2748010 2 18336532846657433362
3091708 16 9049136281792065515
3380486 145 17836635328245449003
34934 24 17255403146158197880
350125 39 18339907252080107330
352729 6 18408318887066665872
4409770 3 18123197800812343502
474 4 18338238292118744473
7364860 26 17833554865830744827
81228 2 17985827021467054827
84936 182 18116161132432130145
9709674 26 18334856095830727814
9981440 41 18337685130495777904
9999458 23 18194676192988775517

> <PUBCHEM_SHAPE_MULTIPOLES>
409.58
5.3
4.67
0.96
1.57
4.05
0.07
-5.22
0.91
-1.3
-0.17
-0.31
-0.02
0.54

> <PUBCHEM_SHAPE_SELFOVERLAP>
891.893

> <PUBCHEM_SHAPE_VOLUME>
221.3

> <PUBCHEM_COORDINATE_TYPE>
2
5
10

$$$$

