54744
  -OEChem-07051213012D

 41 42  0     1  0  0  0  0  0999 V2000
    6.5519    2.3284    0.0000 O   0  0  0  0  0  0  0  0  0  0  0  0
    2.8660   -1.5194    0.0000 O   0  0  0  0  0  0  0  0  0  0  0  0
    3.7320   -0.0194    0.0000 O   0  0  0  0  0  0  0  0  0  0  0  0
    4.6551    0.5684    0.0000 N   0  0  0  0  0  0  0  0  0  0  0  0
    6.2731    0.5684    0.0000 N   0  0  0  0  0  0  0  0  0  0  0  0
    4.9641    1.5194    0.0000 C   0  0  3  0  0  0  0  0  0  0  0  0
    4.9641    2.5194    0.0000 C   0  0  0  0  0  0  0  0  0  0  0  0
    5.9641    1.5194    0.0000 C   0  0  0  0  0  0  0  0  0  0  0  0
    4.0130    1.8284    0.0000 C   0  0  0  0  0  0  0  0  0  0  0  0
    4.0981    3.0194    0.0000 C   0  0  0  0  0  0  0  0  0  0  0  0
    5.8301    3.0194    0.0000 C   0  0  0  0  0  0  0  0  0  0  0  0
    5.4641   -0.0194    0.0000 C   0  0  0  0  0  0  0  0  0  0  0  0
    5.4641   -1.0194    0.0000 C   0  0  0  0  0  0  0  0  0  0  0  0
    4.5981   -1.5194    0.0000 C   0  0  0  0  0  0  0  0  0  0  0  0
    6.3301   -1.5194    0.0000 C   0  0  0  0  0  0  0  0  0  0  0  0
    6.3301   -2.5194    0.0000 C   0  0  0  0  0  0  0  0  0  0  0  0
    4.5981   -2.5194    0.0000 C   0  0  0  0  0  0  0  0  0  0  0  0
    5.4641   -3.0194    0.0000 C   0  0  0  0  0  0  0  0  0  0  0  0
    3.7320   -1.0194    0.0000 C   0  0  0  0  0  0  0  0  0  0  0  0
    7.1962   -3.0194    0.0000 C   0  0  0  0  0  0  0  0  0  0  0  0
    2.0000   -1.0194    0.0000 C   0  0  0  0  0  0  0  0  0  0  0  0
    4.9641    3.1394    0.0000 H   0  0  0  0  0  0  0  0  0  0  0  0
    4.2046    2.4181    0.0000 H   0  0  0  0  0  0  0  0  0  0  0  0
    3.4234    2.0200    0.0000 H   0  0  0  0  0  0  0  0  0  0  0  0
    3.8214    1.2388    0.0000 H   0  0  0  0  0  0  0  0  0  0  0  0
    4.4081    3.5564    0.0000 H   0  0  0  0  0  0  0  0  0  0  0  0
    3.5611    3.3294    0.0000 H   0  0  0  0  0  0  0  0  0  0  0  0
    3.7881    2.4825    0.0000 H   0  0  0  0  0  0  0  0  0  0  0  0
    6.1401    2.4825    0.0000 H   0  0  0  0  0  0  0  0  0  0  0  0
    6.3671    3.3294    0.0000 H   0  0  0  0  0  0  0  0  0  0  0  0
    5.5201    3.5564    0.0000 H   0  0  0  0  0  0  0  0  0  0  0  0
    6.8628    0.3768    0.0000 H   0  0  0  0  0  0  0  0  0  0  0  0
    6.8671   -1.2094    0.0000 H   0  0  0  0  0  0  0  0  0  0  0  0
    4.0611   -2.8294    0.0000 H   0  0  0  0  0  0  0  0  0  0  0  0
    5.4641   -3.6394    0.0000 H   0  0  0  0  0  0  0  0  0  0  0  0
    6.8862   -3.5564    0.0000 H   0  0  0  0  0  0  0  0  0  0  0  0
    7.7331   -3.3294    0.0000 H   0  0  0  0  0  0  0  0  0  0  0  0
    7.5062   -2.4825    0.0000 H   0  0  0  0  0  0  0  0  0  0  0  0
    2.3100   -0.4825    0.0000 H   0  0  0  0  0  0  0  0  0  0  0  0
    1.4631   -0.7094    0.0000 H   0  0  0  0  0  0  0  0  0  0  0  0
    1.6900   -1.5564    0.0000 H   0  0  0  0  0  0  0  0  0  0  0  0
  1  8  2  0  0  0  0
  2 19  1  0  0  0  0
  2 21  1  0  0  0  0
  3 19  2  0  0  0  0
  4  6  1  0  0  0  0
  4 12  2  0  0  0  0
  5  8  1  0  0  0  0
  5 12  1  0  0  0  0
  5 32  1  0  0  0  0
  6  7  1  0  0  0  0
  6  8  1  0  0  0  0
  6  9  1  0  0  0  0
  7 10  1  0  0  0  0
  7 11  1  0  0  0  0
  7 22  1  0  0  0  0
  9 23  1  0  0  0  0
  9 24  1  0  0  0  0
  9 25  1  0  0  0  0
 10 26  1  0  0  0  0
 10 27  1  0  0  0  0
 10 28  1  0  0  0  0
 11 29  1  0  0  0  0
 11 30  1  0  0  0  0
 11 31  1  0  0  0  0
 12 13  1  0  0  0  0
 13 14  2  0  0  0  0
 13 15  1  0  0  0  0
 14 17  1  0  0  0  0
 14 19  1  0  0  0  0
 15 16  2  0  0  0  0
 15 33  1  0  0  0  0
 16 18  1  0  0  0  0
 16 20  1  0  0  0  0
 17 18  2  0  0  0  0
 17 34  1  0  0  0  0
 18 35  1  0  0  0  0
 20 36  1  0  0  0  0
 20 37  1  0  0  0  0
 20 38  1  0  0  0  0
 21 39  1  0  0  0  0
 21 40  1  0  0  0  0
 21 41  1  0  0  0  0
M  END
> <PUBCHEM_COMPOUND_CID>
54744

> <PUBCHEM_COMPOUND_CANONICALIZED>
1

> <PUBCHEM_CACTVS_COMPLEXITY>
472

> <PUBCHEM_CACTVS_HBOND_ACCEPTOR>
4

> <PUBCHEM_CACTVS_HBOND_DONOR>
1

> <PUBCHEM_CACTVS_ROTATABLE_BOND>
4

> <PUBCHEM_CACTVS_SUBSKEYS>
AAADceB7MAAAAAAAAAAAAAAAAAAAAQAAAAAwAAAAAAAAAAABAAAAHgAQAAAADYiBmAIzCILABACoAiPyPACCAAEkAAAJiAGgDNgIZrKAvRmUMQhkxAGIqYe8yPCOwAACAAAQAACAAAQAACAAAAAAAAAAAA==

> <PUBCHEM_IUPAC_OPENEYE_NAME>
methyl 2-(4-isopropyl-4-methyl-5-oxo-1H-imidazol-2-yl)-4-methyl-benzoate

> <PUBCHEM_IUPAC_CAS_NAME>
4-methyl-2-(4-methyl-5-oxo-4-propan-2-yl-1H-imidazol-2-yl)benzoic acid methyl ester

> <PUBCHEM_IUPAC_NAME>
methyl 4-methyl-2-(4-methyl-5-oxo-4-propan-2-yl-1H-imidazol-2-yl)benzoate

> <PUBCHEM_IUPAC_SYSTEMATIC_NAME>
methyl 4-methyl-2-(4-methyl-5-oxidanylidene-4-propan-2-yl-1H-imidazol-2-yl)benzoate

> <PUBCHEM_IUPAC_TRADITIONAL_NAME>
2-(4-isopropyl-5-keto-4-methyl-2-imidazolin-2-yl)-4-methyl-benzoic acid methyl ester

> <PUBCHEM_IUPAC_INCHI>
InChI=1S/C16H20N2O3/c1-9(2)16(4)15(20)17-13(18-16)12-8-10(3)6-7-11(12)14(19)21-5/h6-9H,1-5H3,(H,17,18,20)

> <PUBCHEM_IUPAC_INCHIKEY>
FFCCBBNQPIMUJI-UHFFFAOYSA-N

> <PUBCHEM_XLOGP3_AA>
2.6

> <PUBCHEM_EXACT_MASS>
288.147393

> <PUBCHEM_MOLECULAR_FORMULA>
C16H20N2O3

> <PUBCHEM_MOLECULAR_WEIGHT>
288.3416

> <PUBCHEM_OPENEYE_CAN_SMILES>
CC1=CC(=C(C=C1)C(=O)OC)C2=NC(C(=O)N2)(C)C(C)C

> <PUBCHEM_OPENEYE_ISO_SMILES>
CC1=CC(=C(C=C1)C(=O)OC)C2=NC(C(=O)N2)(C)C(C)C

> <PUBCHEM_CACTVS_TPSA>
67.8

> <PUBCHEM_MONOISOTOPIC_WEIGHT>
288.147393

> <PUBCHEM_TOTAL_CHARGE>
0

> <PUBCHEM_HEAVY_ATOM_COUNT>
21

> <PUBCHEM_ATOM_DEF_STEREO_COUNT>
0

> <PUBCHEM_ATOM_UDEF_STEREO_COUNT>
1

> <PUBCHEM_BOND_DEF_STEREO_COUNT>
0

> <PUBCHEM_BOND_UDEF_STEREO_COUNT>
0

> <PUBCHEM_ISOTOPIC_ATOM_COUNT>
0

> <PUBCHEM_COMPONENT_COUNT>
1

> <PUBCHEM_CACTVS_TAUTO_COUNT>
9

> <PUBCHEM_COORDINATE_TYPE>
1
5
255

> <PUBCHEM_BONDANNOTATIONS>
13  14  8
13  15  8
14  17  8
15  16  8
16  18  8
17  18  8
6  9  3

$$$$

