72402
  -OEChem-07051213092D

 44 48  0     1  0  0  0  0  0999 V2000
    5.7236    4.1410    0.0000 O   0  0  0  0  0  0  0  0  0  0  0  0
    7.6176    2.5670    0.0000 O   0  0  0  0  0  0  0  0  0  0  0  0
    3.1096    2.5718    0.0000 O   0  0  0  0  0  0  0  0  0  0  0  0
    7.4936    4.1168    0.0000 O   0  0  0  0  0  0  0  0  0  0  0  0
    3.9756    1.0718    0.0000 N   0  0  0  0  0  0  0  0  0  0  0  0
    5.2532   -1.2288    0.0000 N   0  0  0  0  0  0  0  0  0  0  0  0
    2.3582   -3.3552    0.0000 N   0  0  0  0  0  0  0  0  0  0  0  0
    6.6176    2.5786    0.0000 C   0  0  2  0  0  0  0  0  0  0  0  0
    5.7076    2.0718    0.0000 C   0  0  0  0  0  0  0  0  0  0  0  0
    4.8416    0.5718    0.0000 C   0  0  0  0  0  0  0  0  0  0  0  0
    4.8416    2.5718    0.0000 C   0  0  0  0  0  0  0  0  0  0  0  0
    3.2386    0.4047    0.0000 C   0  0  0  0  0  0  0  0  0  0  0  0
    5.7076    1.0718    0.0000 C   0  0  0  0  0  0  0  0  0  0  0  0
    3.6437   -0.5031    0.0000 C   0  0  0  0  0  0  0  0  0  0  0  0
    4.6324   -0.4001    0.0000 C   0  0  0  0  0  0  0  0  0  0  0  0
    3.9756    2.0718    0.0000 C   0  0  0  0  0  0  0  0  0  0  0  0
    7.1076    1.7068    0.0000 C   0  0  0  0  0  0  0  0  0  0  0  0
    4.8255    3.6133    0.0000 C   0  0  0  0  0  0  0  0  0  0  0  0
    6.6256    3.6202    0.0000 C   0  0  0  0  0  0  0  0  0  0  0  0
    3.2072   -1.4421    0.0000 C   0  0  0  0  0  0  0  0  0  0  0  0
    3.8086   -2.2850    0.0000 C   0  0  0  0  0  0  0  0  0  0  0  0
    6.5976    0.8467    0.0000 C   0  0  0  0  0  0  0  0  0  0  0  0
    4.8385   -2.1776    0.0000 C   0  0  0  0  0  0  0  0  0  0  0  0
    3.3539   -3.2630    0.0000 C   0  0  0  0  0  0  0  0  0  0  0  0
    5.4851   -3.0409    0.0000 C   0  0  0  0  0  0  0  0  0  0  0  0
    3.9804   -4.1410    0.0000 C   0  0  0  0  0  0  0  0  0  0  0  0
    5.0531   -4.0292    0.0000 C   0  0  0  0  0  0  0  0  0  0  0  0
    2.8731    0.9055    0.0000 H   0  0  0  0  0  0  0  0  0  0  0  0
    2.7021    0.0939    0.0000 H   0  0  0  0  0  0  0  0  0  0  0  0
    6.2446    0.7618    0.0000 H   0  0  0  0  0  0  0  0  0  0  0  0
    7.5779    1.3028    0.0000 H   0  0  0  0  0  0  0  0  0  0  0  0
    7.5871    2.0999    0.0000 H   0  0  0  0  0  0  0  0  0  0  0  0
    4.6075    4.1937    0.0000 H   0  0  0  0  0  0  0  0  0  0  0  0
    4.2164    3.4978    0.0000 H   0  0  0  0  0  0  0  0  0  0  0  0
    2.5898   -1.4992    0.0000 H   0  0  0  0  0  0  0  0  0  0  0  0
    6.0643    1.1628    0.0000 H   0  0  0  0  0  0  0  0  0  0  0  0
    6.2814    0.3133    0.0000 H   0  0  0  0  0  0  0  0  0  0  0  0
    7.1309    0.5305    0.0000 H   0  0  0  0  0  0  0  0  0  0  0  0
    7.9213    2.0266    0.0000 H   0  0  0  0  0  0  0  0  0  0  0  0
    6.1010   -2.9695    0.0000 H   0  0  0  0  0  0  0  0  0  0  0  0
    3.7255   -4.7062    0.0000 H   0  0  0  0  0  0  0  0  0  0  0  0
    5.4191   -4.5297    0.0000 H   0  0  0  0  0  0  0  0  0  0  0  0
    2.0990   -3.9184    0.0000 H   0  0  0  0  0  0  0  0  0  0  0  0
    2.0000   -2.8491    0.0000 H   0  0  0  0  0  0  0  0  0  0  0  0
  1 18  1  0  0  0  0
  1 19  1  0  0  0  0
  8  2  1  1  0  0  0
  2 39  1  0  0  0  0
  3 16  2  0  0  0  0
  4 19  2  0  0  0  0
  5 10  1  0  0  0  0
  5 12  1  0  0  0  0
  5 16  1  0  0  0  0
  6 15  2  0  0  0  0
  6 23  1  0  0  0  0
  7 24  1  0  0  0  0
  7 43  1  0  0  0  0
  7 44  1  0  0  0  0
  8  9  1  0  0  0  0
  8 17  1  0  0  0  0
  8 19  1  0  0  0  0
  9 11  2  0  0  0  0
  9 13  1  0  0  0  0
 10 13  2  0  0  0  0
 10 15  1  0  0  0  0
 11 16  1  0  0  0  0
 11 18  1  0  0  0  0
 12 14  1  0  0  0  0
 12 28  1  0  0  0  0
 12 29  1  0  0  0  0
 13 30  1  0  0  0  0
 14 15  1  0  0  0  0
 14 20  2  0  0  0  0
 17 22  1  0  0  0  0
 17 31  1  0  0  0  0
 17 32  1  0  0  0  0
 18 33  1  0  0  0  0
 18 34  1  0  0  0  0
 20 21  1  0  0  0  0
 20 35  1  0  0  0  0
 21 23  1  0  0  0  0
 21 24  2  0  0  0  0
 22 36  1  0  0  0  0
 22 37  1  0  0  0  0
 22 38  1  0  0  0  0
 23 25  2  0  0  0  0
 24 26  1  0  0  0  0
 25 27  1  0  0  0  0
 25 40  1  0  0  0  0
 26 27  2  0  0  0  0
 26 41  1  0  0  0  0
 27 42  1  0  0  0  0
M  END
> <PUBCHEM_COMPOUND_CID>
72402

> <PUBCHEM_COMPOUND_CANONICALIZED>
1

> <PUBCHEM_MOLECULAR_WEIGHT>
363.36668

> <PUBCHEM_MONOISOTOPIC_WEIGHT>
363.121906

> <PUBCHEM_EXACT_MASS>
363.121906

> <PUBCHEM_MOLECULAR_FORMULA>
C20H17N3O4

> <PUBCHEM_IUPAC_INCHI>
InChI=1S/C20H17N3O4/c1-2-20(26)13-7-16-17-10(6-11-14(21)4-3-5-15(11)22-17)8-23(16)18(24)12(13)9-27-19(20)25/h3-7,26H,2,8-9,21H2,1H3/t20-/m0/s1

> <PUBCHEM_IUPAC_INCHIKEY>
FUXVKZWTXQUGMW-FQEVSTJZSA-N

> <PUBCHEM_XLOGP3_AA>
0.3

> <PUBCHEM_OPENEYE_CAN_SMILES>
CCC1(C2=C(COC1=O)C(=O)N3CC4=C(C3=C2)N=C5C=CC=C(C5=C4)N)O

> <PUBCHEM_OPENEYE_ISO_SMILES>
CC[C@@]1(C2=C(COC1=O)C(=O)N3CC4=C(C3=C2)N=C5C=CC=C(C5=C4)N)O

> <PUBCHEM_CACTVS_HBOND_DONOR>
2

> <PUBCHEM_CACTVS_HBOND_ACCEPTOR>
6

> <PUBCHEM_CACTVS_ROTATABLE_BOND>
1

> <PUBCHEM_CACTVS_COMPLEXITY>
775

> <PUBCHEM_CACTVS_TPSA>
106

> <PUBCHEM_CACTVS_SUBSKEYS>
AAADceB7OAAAAAAAAAAAAAAAAAAAAWAAAAA8QIEAAAAAAFix8AAAHgAQCAAADEzhngYyyPNIFgCoAyXyXAKCgCAhAiAImCF4ZNgJZPbA8dGWdAhm9gDL+QcQgMAOAAAAAAQCAAAAAAAACAQAAAAAAAAAAA==

> <PUBCHEM_TOTAL_CHARGE>
0

> <PUBCHEM_HEAVY_ATOM_COUNT>
27

> <PUBCHEM_ATOM_DEF_STEREO_COUNT>
1

> <PUBCHEM_ATOM_UDEF_STEREO_COUNT>
0

> <PUBCHEM_BOND_DEF_STEREO_COUNT>
0

> <PUBCHEM_BOND_UDEF_STEREO_COUNT>
0

> <PUBCHEM_ISOTOPIC_ATOM_COUNT>
0

> <PUBCHEM_COMPONENT_COUNT>
1

> <PUBCHEM_CACTVS_TAUTO_COUNT>
3

> <PUBCHEM_COORDINATE_TYPE>
1
3

> <PUBCHEM_BONDANNOTATIONS>
10  13  8
11  16  8
14  15  8
14  20  8
8  2  5
20  21  8
21  23  8
21  24  8
23  25  8
24  26  8
25  27  8
26  27  8
5  10  8
5  16  8
6  15  8
6  23  8
9  11  8
9  13  8

$$$$

