330573
  -OEChem-07051213013D

 27 27  0     1  0  0  0  0  0999 V2000
   -2.1419   -1.8923    0.3069 O   0  0  0  0  0  0  0  0  0  0  0  0
    0.9423    0.1374   -0.3546 C   0  0  1  0  0  0  0  0  0  0  0  0
    0.0981   -1.0730    0.0535 C   0  0  0  0  0  0  0  0  0  0  0  0
   -1.3686   -0.8981   -0.3643 C   0  0  2  0  0  0  0  0  0  0  0  0
    0.3835    1.4104    0.3024 C   0  0  0  0  0  0  0  0  0  0  0  0
   -1.9196    0.4829   -0.0880 C   0  0  0  0  0  0  0  0  0  0  0  0
   -1.1125    1.5113    0.2270 C   0  0  0  0  0  0  0  0  0  0  0  0
    2.3845   -0.0597    0.0025 C   0  0  0  0  0  0  0  0  0  0  0  0
   -3.4049    0.6665   -0.2163 C   0  0  0  0  0  0  0  0  0  0  0  0
    3.3553   -0.0580   -1.1409 C   0  0  0  0  0  0  0  0  0  0  0  0
    2.7840   -0.2274    1.2719 C   0  0  0  0  0  0  0  0  0  0  0  0
    0.8542    0.2527   -1.4446 H   0  0  0  0  0  0  0  0  0  0  0  0
    0.1466   -1.2413    1.1384 H   0  0  0  0  0  0  0  0  0  0  0  0
    0.4901   -1.9931   -0.4005 H   0  0  0  0  0  0  0  0  0  0  0  0
   -1.4602   -1.0933   -1.4394 H   0  0  0  0  0  0  0  0  0  0  0  0
    0.8183    2.2860   -0.1967 H   0  0  0  0  0  0  0  0  0  0  0  0
    0.6596    1.4865    1.3609 H   0  0  0  0  0  0  0  0  0  0  0  0
   -1.5395    2.4901    0.4307 H   0  0  0  0  0  0  0  0  0  0  0  0
   -3.7420    0.3436   -1.2067 H   0  0  0  0  0  0  0  0  0  0  0  0
   -3.7036    1.7127   -0.0908 H   0  0  0  0  0  0  0  0  0  0  0  0
   -3.9329    0.0787    0.5413 H   0  0  0  0  0  0  0  0  0  0  0  0
    3.1152   -0.8617   -1.8446 H   0  0  0  0  0  0  0  0  0  0  0  0
    3.3131    0.8974   -1.6741 H   0  0  0  0  0  0  0  0  0  0  0  0
    4.3873   -0.2065   -0.8058 H   0  0  0  0  0  0  0  0  0  0  0  0
   -2.1071   -1.7066    1.2611 H   0  0  0  0  0  0  0  0  0  0  0  0
    3.8326   -0.3685    1.5138 H   0  0  0  0  0  0  0  0  0  0  0  0
    2.0873   -0.2328    2.1028 H   0  0  0  0  0  0  0  0  0  0  0  0
  1  4  1  0  0  0  0
  1 25  1  0  0  0  0
  2  3  1  0  0  0  0
  2  5  1  0  0  0  0
  2  8  1  0  0  0  0
  2 12  1  0  0  0  0
  3  4  1  0  0  0  0
  3 13  1  0  0  0  0
  3 14  1  0  0  0  0
  4  6  1  0  0  0  0
  4 15  1  0  0  0  0
  5  7  1  0  0  0  0
  5 16  1  0  0  0  0
  5 17  1  0  0  0  0
  6  7  2  0  0  0  0
  6  9  1  0  0  0  0
  7 18  1  0  0  0  0
  8 10  1  0  0  0  0
  8 11  2  0  0  0  0
  9 19  1  0  0  0  0
  9 20  1  0  0  0  0
  9 21  1  0  0  0  0
 10 22  1  0  0  0  0
 10 23  1  0  0  0  0
 10 24  1  0  0  0  0
 11 26  1  0  0  0  0
 11 27  1  0  0  0  0
M  END
> <PUBCHEM_COMPOUND_CID>
330573

> <PUBCHEM_CONFORMER_RMSD>
0.4

> <PUBCHEM_CONFORMER_DIVERSEORDER>
1
5
2
3
4

> <PUBCHEM_MMFF94_PARTIAL_CHARGES>
14
1 -0.68
10 0.14
11 -0.3
18 0.15
2 0.14
25 0.4
26 0.15
27 0.15
4 0.42
5 0.14
6 -0.28
7 -0.29
8 -0.28
9 0.14

> <PUBCHEM_EFFECTIVE_ROTOR_COUNT>
1.8

> <PUBCHEM_PHARMACOPHORE_FEATURES>
3
1 1 acceptor
1 1 donor
6 2 3 4 5 6 7 rings

> <PUBCHEM_HEAVY_ATOM_COUNT>
11

> <PUBCHEM_ATOM_DEF_STEREO_COUNT>
2

> <PUBCHEM_ATOM_UDEF_STEREO_COUNT>
0

> <PUBCHEM_BOND_DEF_STEREO_COUNT>
0

> <PUBCHEM_BOND_UDEF_STEREO_COUNT>
0

> <PUBCHEM_ISOTOPIC_ATOM_COUNT>
0

> <PUBCHEM_COMPONENT_COUNT>
1

> <PUBCHEM_CACTVS_TAUTO_COUNT>
1

> <PUBCHEM_CONFORMER_ID>
00050B4D00000001

> <PUBCHEM_MMFF94_ENERGY>
13.1738

> <PUBCHEM_FEATURE_SELFOVERLAP>
15.223

> <PUBCHEM_SHAPE_FINGERPRINT>
10857977 72 18261119534414907144
12716758 59 18334856177182009042
12932764 1 17775569736491059692
13538477 17 18202283606471794146
14128692 85 18269546148549036396
14911166 2 18408887356132404837
14993402 34 18272928353605952853
15219456 202 17749392529671640224
15310529 11 16845574244274839381
15775835 57 17846775217623090244
16945 1 18410576218629592001
20201158 50 17967531302615268702
20279233 1 17676210173734986542
20645464 45 17822025206681778730
20645476 183 17917419921828746030
20711983 138 17822002155455137874
20715346 28 17822011956581199706
20871998 184 18187081711414303815
21040471 1 18265333004643317744
22802520 49 17969486264481014494
23235685 24 18336830887265066917
23402539 116 18116168803501774197
23402655 69 18047772665649179525
23552423 10 18057322777721218173
23559900 14 18334856135107873660
2748010 2 18192438471924684549
369184 2 16200431389993248876
5084963 1 17968653925493888168

> <PUBCHEM_SHAPE_MULTIPOLES>
220.51
5.03
1.49
0.93
0.82
0.18
-0.04
0.02
0.48
-0.95
-0.16
0.79
0.02
0.04

> <PUBCHEM_SHAPE_SELFOVERLAP>
436.669

> <PUBCHEM_SHAPE_VOLUME>
131.9

> <PUBCHEM_COORDINATE_TYPE>
2
5
10

$$$$

