443275
  -OEChem-07051213013D

 44 48  0     0  0  0  0  0  0999 V2000
    3.7821    2.9378   -0.2505 O   0  0  0  0  0  0  0  0  0  0  0  0
    2.9174    1.5590    1.3846 O   0  0  0  0  0  0  0  0  0  0  0  0
    1.9679   -0.1890   -0.5702 N   0  0  0  0  0  0  0  0  0  0  0  0
   -0.2731    0.7180   -0.5430 N   0  0  0  0  0  0  0  0  0  0  0  0
   -0.9637   -1.9321    0.2390 N   0  0  0  0  0  0  0  0  0  0  0  0
    2.5503   -1.4135   -0.3164 C   0  0  0  0  0  0  0  0  0  0  0  0
    0.6170   -0.2717   -0.3877 C   0  0  0  0  0  0  0  0  0  0  0  0
    1.5269   -2.2996    0.0385 C   0  0  0  0  0  0  0  0  0  0  0  0
    0.3135   -1.5641   -0.0106 C   0  0  0  0  0  0  0  0  0  0  0  0
    2.6792    1.0069   -0.9702 C   0  0  0  0  0  0  0  0  0  0  0  0
   -1.5379    0.3488   -0.2944 C   0  0  0  0  0  0  0  0  0  0  0  0
   -1.8808   -0.9651    0.0937 C   0  0  0  0  0  0  0  0  0  0  0  0
    3.8941   -1.8001   -0.3741 C   0  0  0  0  0  0  0  0  0  0  0  0
    1.8614   -3.6327    0.3494 C   0  0  0  0  0  0  0  0  0  0  0  0
   -3.8968    0.9932   -0.1817 C   0  0  0  0  0  0  0  0  0  0  0  0
   -4.2377   -0.3149    0.2055 C   0  0  0  0  0  0  0  0  0  0  0  0
   -2.5480    1.2977   -0.4242 C   0  0  0  0  0  0  0  0  0  0  0  0
   -3.2173   -1.2700    0.3350 C   0  0  0  0  0  0  0  0  0  0  0  0
    4.2007   -3.1273   -0.0607 C   0  0  0  0  0  0  0  0  0  0  0  0
    3.2018   -4.0311    0.2955 C   0  0  0  0  0  0  0  0  0  0  0  0
    3.1205    1.8345    0.2099 C   0  0  0  0  0  0  0  0  0  0  0  0
   -4.9096    1.9583   -0.3151 C   0  0  0  0  0  0  0  0  0  0  0  0
   -5.5846   -0.6318    0.4518 C   0  0  0  0  0  0  0  0  0  0  0  0
   -6.2427    1.6302   -0.0673 C   0  0  0  0  0  0  0  0  0  0  0  0
   -6.5800    0.3361    0.3159 C   0  0  0  0  0  0  0  0  0  0  0  0
    4.2679    3.8302    0.7576 C   0  0  0  0  0  0  0  0  0  0  0  0
    4.9714    4.9924    0.0898 C   0  0  0  0  0  0  0  0  0  0  0  0
    3.5485    0.7135   -1.5658 H   0  0  0  0  0  0  0  0  0  0  0  0
    2.0105    1.6032   -1.5999 H   0  0  0  0  0  0  0  0  0  0  0  0
    4.6817   -1.1056   -0.6456 H   0  0  0  0  0  0  0  0  0  0  0  0
    1.0933   -4.3481    0.6289 H   0  0  0  0  0  0  0  0  0  0  0  0
   -2.2788    2.3111   -0.7243 H   0  0  0  0  0  0  0  0  0  0  0  0
   -3.4767   -2.2860    0.6347 H   0  0  0  0  0  0  0  0  0  0  0  0
    5.2356   -3.4584   -0.0950 H   0  0  0  0  0  0  0  0  0  0  0  0
    3.4653   -5.0579    0.5349 H   0  0  0  0  0  0  0  0  0  0  0  0
   -4.6669    2.9760   -0.6136 H   0  0  0  0  0  0  0  0  0  0  0  0
   -5.8692   -1.6380    0.7523 H   0  0  0  0  0  0  0  0  0  0  0  0
   -7.0163    2.3850   -0.1738 H   0  0  0  0  0  0  0  0  0  0  0  0
   -7.6173    0.0788    0.5092 H   0  0  0  0  0  0  0  0  0  0  0  0
    3.4264    4.2000    1.3540 H   0  0  0  0  0  0  0  0  0  0  0  0
    4.9696    3.2976    1.4091 H   0  0  0  0  0  0  0  0  0  0  0  0
    5.3563    5.6960    0.8332 H   0  0  0  0  0  0  0  0  0  0  0  0
    5.8046    4.6366   -0.5252 H   0  0  0  0  0  0  0  0  0  0  0  0
    4.2869    5.5242   -0.5794 H   0  0  0  0  0  0  0  0  0  0  0  0
  1 21  1  0  0  0  0
  1 26  1  0  0  0  0
  2 21  2  0  0  0  0
  3  6  1  0  0  0  0
  3  7  1  0  0  0  0
  3 10  1  0  0  0  0
  4  7  2  0  0  0  0
  4 11  1  0  0  0  0
  5  9  2  0  0  0  0
  5 12  1  0  0  0  0
  6  8  1  0  0  0  0
  6 13  2  0  0  0  0
  7  9  1  0  0  0  0
  8  9  1  0  0  0  0
  8 14  2  0  0  0  0
 10 21  1  0  0  0  0
 10 28  1  0  0  0  0
 10 29  1  0  0  0  0
 11 12  1  0  0  0  0
 11 17  2  0  0  0  0
 12 18  2  0  0  0  0
 13 19  1  0  0  0  0
 13 30  1  0  0  0  0
 14 20  1  0  0  0  0
 14 31  1  0  0  0  0
 15 16  1  0  0  0  0
 15 17  1  0  0  0  0
 15 22  2  0  0  0  0
 16 18  1  0  0  0  0
 16 23  2  0  0  0  0
 17 32  1  0  0  0  0
 18 33  1  0  0  0  0
 19 20  2  0  0  0  0
 19 34  1  0  0  0  0
 20 35  1  0  0  0  0
 22 24  1  0  0  0  0
 22 36  1  0  0  0  0
 23 25  1  0  0  0  0
 23 37  1  0  0  0  0
 24 25  2  0  0  0  0
 24 38  1  0  0  0  0
 25 39  1  0  0  0  0
 26 27  1  0  0  0  0
 26 40  1  0  0  0  0
 26 41  1  0  0  0  0
 27 42  1  0  0  0  0
 27 43  1  0  0  0  0
 27 44  1  0  0  0  0
M  END
> <PUBCHEM_COMPOUND_CID>
443275

> <PUBCHEM_CONFORMER_RMSD>
0.8

> <PUBCHEM_CONFORMER_DIVERSEORDER>
2
10
13
1
12
8
9
7
6
5
11
4
3

> <PUBCHEM_MMFF94_PARTIAL_CHARGES>
33
1 -0.43
10 0.32
11 0.31
12 0.31
13 -0.15
14 -0.15
17 -0.15
18 -0.15
19 -0.15
2 -0.57
20 -0.15
21 0.66
22 -0.15
23 -0.15
24 -0.15
25 -0.15
26 0.28
3 0.05
30 0.15
31 0.15
32 0.15
33 0.15
34 0.15
35 0.15
36 0.15
37 0.15
38 0.15
39 0.15
4 -0.57
5 -0.57
6 -0.15
7 0.11
9 0.26

> <PUBCHEM_EFFECTIVE_ROTOR_COUNT>
4

> <PUBCHEM_PHARMACOPHORE_FEATURES>
8
1 2 acceptor
1 5 acceptor
3 3 4 7 cation
5 3 6 7 8 9 rings
6 11 12 15 16 17 18 rings
6 15 16 22 23 24 25 rings
6 4 5 7 9 11 12 rings
6 6 8 13 14 19 20 rings

> <PUBCHEM_HEAVY_ATOM_COUNT>
27

> <PUBCHEM_ATOM_DEF_STEREO_COUNT>
0

> <PUBCHEM_ATOM_UDEF_STEREO_COUNT>
0

> <PUBCHEM_BOND_DEF_STEREO_COUNT>
0

> <PUBCHEM_BOND_UDEF_STEREO_COUNT>
0

> <PUBCHEM_ISOTOPIC_ATOM_COUNT>
0

> <PUBCHEM_COMPONENT_COUNT>
1

> <PUBCHEM_CACTVS_TAUTO_COUNT>
1

> <PUBCHEM_CONFORMER_ID>
0006C38B00000002

> <PUBCHEM_MMFF94_ENERGY>
67.0025

> <PUBCHEM_FEATURE_SELFOVERLAP>
40.881

> <PUBCHEM_SHAPE_FINGERPRINT>
10050765 1 18337953394153624591
10411042 1 17978228589114241854
11405975 8 18338232777886807507
12166972 35 18116716403089150979
12403259 226 18056200421188560941
12516196 113 18193840577279608646
12549972 3 17917128576964371003
12616971 3 17968104165907162367
12730499 353 18339350890395339753
13140716 1 18341615863349177090
13533116 47 18411133680057829775
13757389 114 17474938836674236692
138480 1 18338799043496880908
13878862 14 18269011910884824333
13955234 65 18411979182681959450
13965767 371 18058744489828383788
14790565 3 17979633438066395292
14849402 71 18410570708745824496
15196674 1 18342452686545404047
15230672 131 18196651788932556388
15890870 6 18193838141606189196
15927050 60 18264206899195736942
17844677 252 18337385063170021121
17980427 26 18336277747507443998
18681886 176 18263368155964239322
18785283 64 18412553115320222794
21049683 271 18199738297763297182
21065198 57 18339922714300074015
21133410 127 18131637759526920460
21267235 1 18125993000136836087
21315764 268 18341334504594890597
21452121 103 18411704283273668618
21756936 100 17902800661351195372
21859007 373 17416143886834630245
22149856 69 18199443534558667075
22182313 1 17703242805222616997
23559900 14 18339646753660496891
239999 70 18260260888859049702
24771293 8 18188794794398209530
249999 5 18410013226180087584
283562 15 17761222015865882822
3004659 81 17772460442326090038
335352 9 18198339757253516375
3411729 13 18411704253562481432
34797466 226 17895182304258760197
350125 39 18341327911239329239
4058900 60 18265604404022950032
4073 2 17917135170272296563
4214541 1 18126844022605473191
495365 180 18261116274445338002
5104073 3 18342167904475297307
5219985 13 18120655726082890260
5265222 85 17906446624191363880
563151 97 18121790430128935855
6697151 62 17910702052028486559
77188 2 18122062280843551966
7808743 9 18050008788141014016
9849439 229 18196649588732816900
9896288 288 17622449334231757362
9981440 41 18124876763810665504

> <PUBCHEM_SHAPE_MULTIPOLES>
528.97
13.4
5.26
0.79
17.44
3.18
-0.05
7.69
-1.14
-12.93
-0.87
-0.29
0.19
0.95

> <PUBCHEM_SHAPE_SELFOVERLAP>
1201.431

> <PUBCHEM_SHAPE_VOLUME>
275.7

> <PUBCHEM_COORDINATE_TYPE>
2
5
10

$$$$

