442642
  -OEChem-07051212593D

 27 27  0     1  0  0  0  0  0999 V2000
   -3.3231    0.1351   -0.8128 O   0  0  0  0  0  0  0  0  0  0  0  0
    1.5234    0.7212   -0.3001 N   0  0  2  0  0  0  0  0  0  0  0  0
    0.3152    0.0315    0.1729 C   0  0  2  0  0  0  0  0  0  0  0  0
    0.6379   -1.4384   -0.1031 C   0  0  0  0  0  0  0  0  0  0  0  0
    2.1604   -1.5235   -0.1009 C   0  0  0  0  0  0  0  0  0  0  0  0
    2.6381   -0.1062    0.1683 C   0  0  0  0  0  0  0  0  0  0  0  0
   -0.9543    0.4753   -0.5430 C   0  0  0  0  0  0  0  0  0  0  0  0
   -2.1855   -0.3034   -0.0755 C   0  0  1  0  0  0  0  0  0  0  0  0
    1.6340    2.0912    0.1858 C   0  0  0  0  0  0  0  0  0  0  0  0
   -2.4460   -0.0830    1.4085 C   0  0  0  0  0  0  0  0  0  0  0  0
    0.2245    0.1774    1.2569 H   0  0  0  0  0  0  0  0  0  0  0  0
    0.2607   -1.7724   -1.0774 H   0  0  0  0  0  0  0  0  0  0  0  0
    0.2076   -2.0915    0.6639 H   0  0  0  0  0  0  0  0  0  0  0  0
    2.5271   -2.2225    0.6574 H   0  0  0  0  0  0  0  0  0  0  0  0
    2.5133   -1.8728   -1.0784 H   0  0  0  0  0  0  0  0  0  0  0  0
    2.8165    0.0251    1.2435 H   0  0  0  0  0  0  0  0  0  0  0  0
    3.5671    0.1135   -0.3673 H   0  0  0  0  0  0  0  0  0  0  0  0
   -0.8482    0.3553   -1.6298 H   0  0  0  0  0  0  0  0  0  0  0  0
   -1.1304    1.5477   -0.3900 H   0  0  0  0  0  0  0  0  0  0  0  0
   -2.0768   -1.3737   -0.2759 H   0  0  0  0  0  0  0  0  0  0  0  0
    2.5752    2.5388   -0.1529 H   0  0  0  0  0  0  0  0  0  0  0  0
    1.6023    2.1513    1.2796 H   0  0  0  0  0  0  0  0  0  0  0  0
    0.8313    2.7169   -0.2168 H   0  0  0  0  0  0  0  0  0  0  0  0
   -2.4873    0.9849    1.6501 H   0  0  0  0  0  0  0  0  0  0  0  0
   -3.4209   -0.5006    1.6849 H   0  0  0  0  0  0  0  0  0  0  0  0
   -1.6906   -0.5592    2.0389 H   0  0  0  0  0  0  0  0  0  0  0  0
   -3.4507    1.0821   -0.6316 H   0  0  0  0  0  0  0  0  0  0  0  0
  1  8  1  0  0  0  0
  1 27  1  0  0  0  0
  2  3  1  0  0  0  0
  2  6  1  0  0  0  0
  2  9  1  0  0  0  0
  3  4  1  0  0  0  0
  3  7  1  0  0  0  0
  3 11  1  0  0  0  0
  4  5  1  0  0  0  0
  4 12  1  0  0  0  0
  4 13  1  0  0  0  0
  5  6  1  0  0  0  0
  5 14  1  0  0  0  0
  5 15  1  0  0  0  0
  6 16  1  0  0  0  0
  6 17  1  0  0  0  0
  7  8  1  0  0  0  0
  7 18  1  0  0  0  0
  7 19  1  0  0  0  0
  8 10  1  0  0  0  0
  8 20  1  0  0  0  0
  9 21  1  0  0  0  0
  9 22  1  0  0  0  0
  9 23  1  0  0  0  0
 10 24  1  0  0  0  0
 10 25  1  0  0  0  0
 10 26  1  0  0  0  0
M  END
> <PUBCHEM_COMPOUND_CID>
442642

> <PUBCHEM_CONFORMER_RMSD>
0.6

> <PUBCHEM_CONFORMER_DIVERSEORDER>
1
8
3
5
4
9
2
10
6
7

> <PUBCHEM_MMFF94_PARTIAL_CHARGES>
7
1 -0.68
2 -0.81
27 0.4
3 0.27
6 0.27
8 0.28
9 0.27

> <PUBCHEM_EFFECTIVE_ROTOR_COUNT>
3

> <PUBCHEM_PHARMACOPHORE_FEATURES>
4
1 1 acceptor
1 1 donor
1 2 cation
5 2 3 4 5 6 rings

> <PUBCHEM_HEAVY_ATOM_COUNT>
10

> <PUBCHEM_ATOM_DEF_STEREO_COUNT>
2

> <PUBCHEM_ATOM_UDEF_STEREO_COUNT>
0

> <PUBCHEM_BOND_DEF_STEREO_COUNT>
0

> <PUBCHEM_BOND_UDEF_STEREO_COUNT>
0

> <PUBCHEM_ISOTOPIC_ATOM_COUNT>
0

> <PUBCHEM_COMPONENT_COUNT>
1

> <PUBCHEM_CACTVS_TAUTO_COUNT>
1

> <PUBCHEM_CONFORMER_ID>
0006C11200000001

> <PUBCHEM_MMFF94_ENERGY>
13.7836

> <PUBCHEM_FEATURE_SELFOVERLAP>
20.297

> <PUBCHEM_SHAPE_FINGERPRINT>
10219947 1 18408608084605720530
10857977 72 17203040777712666121
12897270 3 18413111649630519333
12932741 1 17846777403793059675
12932764 1 18343012272974923623
16945 1 18409725166670358858
20201158 50 18272936063161900139
20715346 28 17917425385322162249
21040471 1 18050849918841214132
2748010 2 18051123697157298662
29004967 10 18340764944169433082
3248919 1 17458621211885894143
5084963 1 18041286516683697979

> <PUBCHEM_SHAPE_MULTIPOLES>
194.94
4.41
1.6
0.91
2.37
0.38
-0.2
-0.16
-0.07
-1.4
-0.02
0.68
0.02
0.13

> <PUBCHEM_SHAPE_SELFOVERLAP>
374.569

> <PUBCHEM_SHAPE_VOLUME>
122.1

> <PUBCHEM_COORDINATE_TYPE>
2
5
10

$$$$

