439651
  -OEChem-07051212463D

 62 64  0     1  0  0  0  0  0999 V2000
   -2.4073    1.7984    1.5126 P   0  0  1  0  0  0  0  0  0  0  0  0
   -0.2477    3.6558    0.7757 P   0  0  2  0  0  0  0  0  0  0  0  0
    3.3134    1.5640   -0.4688 O   0  0  0  0  0  0  0  0  0  0  0  0
   -1.4984   -0.8029   -0.8340 O   0  0  0  0  0  0  0  0  0  0  0  0
    3.9279    1.7020   -3.4648 O   0  0  0  0  0  0  0  0  0  0  0  0
   -2.6686    0.3385    0.8774 O   0  0  0  0  0  0  0  0  0  0  0  0
   -5.3964   -2.1401   -1.3555 O   0  0  0  0  0  0  0  0  0  0  0  0
   -2.8994   -2.8300   -2.3498 O   0  0  0  0  0  0  0  0  0  0  0  0
   -4.8753    0.6276   -0.7683 O   0  0  0  0  0  0  0  0  0  0  0  0
    1.1741    3.2867    0.0977 O   0  0  0  0  0  0  0  0  0  0  0  0
   -0.7723   -4.2891   -0.1618 O   0  0  0  0  0  0  0  0  0  0  0  0
   -0.9275    2.2075    1.0061 O   0  0  0  0  0  0  0  0  0  0  0  0
   -3.3733    2.7880    0.6730 O   0  0  0  0  0  0  0  0  0  0  0  0
    4.8181   -2.2808   -0.3309 O   0  0  0  0  0  0  0  0  0  0  0  0
   -1.1118    4.2733   -0.4445 O   0  0  0  0  0  0  0  0  0  0  0  0
   -2.5902    1.8702    3.0010 O   0  0  0  0  0  0  0  0  0  0  0  0
   -0.1799    4.5163    2.0034 O   0  0  0  0  0  0  0  0  0  0  0  0
    1.9148   -3.1408    3.1302 O   0  0  0  0  0  0  0  0  0  0  0  0
    3.1769   -0.6900    0.1445 N   0  0  0  0  0  0  0  0  0  0  0  0
    3.3630   -2.6975    1.3921 N   0  0  0  0  0  0  0  0  0  0  0  0
    2.7272    1.3943   -2.7598 C   0  0  2  0  0  0  0  0  0  0  0  0
    2.6181    2.2666   -1.5170 C   0  0  1  0  0  0  0  0  0  0  0  0
    2.8147   -0.0029   -2.1907 C   0  0  0  0  0  0  0  0  0  0  0  0
    3.5730    0.2180   -0.8920 C   0  0  1  0  0  0  0  0  0  0  0  0
   -4.2262   -1.7057   -0.6684 C   0  0  1  0  0  0  0  0  0  0  0  0
   -3.0699   -2.6724   -0.9390 C   0  0  2  0  0  0  0  0  0  0  0  0
   -3.8589   -0.2982   -1.1385 C   0  0  2  0  0  0  0  0  0  0  0  0
   -1.7678   -2.1244   -0.3404 C   0  0  1  0  0  0  0  0  0  0  0  0
   -2.5260    0.1437   -0.5290 C   0  0  2  0  0  0  0  0  0  0  0  0
    1.1789    2.4769   -1.0648 C   0  0  0  0  0  0  0  0  0  0  0  0
   -0.5605   -2.9901   -0.6847 C   0  0  0  0  0  0  0  0  0  0  0  0
    2.1014   -0.3439    0.9525 C   0  0  0  0  0  0  0  0  0  0  0  0
    3.8571   -1.9100    0.3464 C   0  0  0  0  0  0  0  0  0  0  0  0
    1.6311   -1.0997    1.9523 C   0  0  0  0  0  0  0  0  0  0  0  0
    2.2965   -2.4010    2.2273 C   0  0  0  0  0  0  0  0  0  0  0  0
    0.4713   -0.7084    2.8104 C   0  0  0  0  0  0  0  0  0  0  0  0
    1.8941    1.5153   -3.4586 H   0  0  0  0  0  0  0  0  0  0  0  0
    3.1185    3.2338   -1.6376 H   0  0  0  0  0  0  0  0  0  0  0  0
    3.3308   -0.7159   -2.8411 H   0  0  0  0  0  0  0  0  0  0  0  0
    1.8060   -0.3888   -1.9983 H   0  0  0  0  0  0  0  0  0  0  0  0
    4.6523    0.1335   -1.0662 H   0  0  0  0  0  0  0  0  0  0  0  0
   -4.4703   -1.6890    0.4007 H   0  0  0  0  0  0  0  0  0  0  0  0
   -3.3119   -3.6625   -0.5387 H   0  0  0  0  0  0  0  0  0  0  0  0
   -3.7981   -0.2857   -2.2332 H   0  0  0  0  0  0  0  0  0  0  0  0
   -1.8675   -2.0853    0.7519 H   0  0  0  0  0  0  0  0  0  0  0  0
   -2.2274    1.0908   -0.9915 H   0  0  0  0  0  0  0  0  0  0  0  0
    0.6351    2.9953   -1.8608 H   0  0  0  0  0  0  0  0  0  0  0  0
    0.6642    1.5340   -0.8662 H   0  0  0  0  0  0  0  0  0  0  0  0
    0.3500   -2.5727   -0.2475 H   0  0  0  0  0  0  0  0  0  0  0  0
   -0.3974   -3.0525   -1.7660 H   0  0  0  0  0  0  0  0  0  0  0  0
    3.8556    2.6213   -3.7737 H   0  0  0  0  0  0  0  0  0  0  0  0
   -5.5965   -3.0414   -1.0503 H   0  0  0  0  0  0  0  0  0  0  0  0
   -2.5088   -2.0140   -2.7049 H   0  0  0  0  0  0  0  0  0  0  0  0
    1.6165    0.6004    0.7644 H   0  0  0  0  0  0  0  0  0  0  0  0
   -4.5962    1.5077   -1.0736 H   0  0  0  0  0  0  0  0  0  0  0  0
    3.8375   -3.5810    1.5562 H   0  0  0  0  0  0  0  0  0  0  0  0
    0.0133   -4.8179   -0.3821 H   0  0  0  0  0  0  0  0  0  0  0  0
   -0.3551   -1.4145    2.6831 H   0  0  0  0  0  0  0  0  0  0  0  0
    0.1010    0.2910    2.5674 H   0  0  0  0  0  0  0  0  0  0  0  0
    0.7620   -0.7010    3.8660 H   0  0  0  0  0  0  0  0  0  0  0  0
   -3.4803    3.7151    0.9751 H   0  0  0  0  0  0  0  0  0  0  0  0
   -1.3049    3.7208   -1.2312 H   0  0  0  0  0  0  0  0  0  0  0  0
  1  6  1  0  0  0  0
  1 12  1  0  0  0  0
  1 13  1  0  0  0  0
  1 16  2  0  0  0  0
  2 10  1  0  0  0  0
  2 12  1  0  0  0  0
  2 15  1  0  0  0  0
  2 17  2  0  0  0  0
  3 22  1  0  0  0  0
  3 24  1  0  0  0  0
  4 28  1  0  0  0  0
  4 29  1  0  0  0  0
  5 21  1  0  0  0  0
  5 51  1  0  0  0  0
  6 29  1  0  0  0  0
  7 25  1  0  0  0  0
  7 52  1  0  0  0  0
  8 26  1  0  0  0  0
  8 53  1  0  0  0  0
  9 27  1  0  0  0  0
  9 55  1  0  0  0  0
 10 30  1  0  0  0  0
 11 31  1  0  0  0  0
 11 57  1  0  0  0  0
 13 61  1  0  0  0  0
 14 33  2  0  0  0  0
 15 62  1  0  0  0  0
 18 35  2  0  0  0  0
 19 24  1  0  0  0  0
 19 32  1  0  0  0  0
 19 33  1  0  0  0  0
 20 33  1  0  0  0  0
 20 35  1  0  0  0  0
 20 56  1  0  0  0  0
 21 22  1  0  0  0  0
 21 23  1  0  0  0  0
 21 37  1  0  0  0  0
 22 30  1  0  0  0  0
 22 38  1  0  0  0  0
 23 24  1  0  0  0  0
 23 39  1  0  0  0  0
 23 40  1  0  0  0  0
 24 41  1  0  0  0  0
 25 26  1  0  0  0  0
 25 27  1  0  0  0  0
 25 42  1  0  0  0  0
 26 28  1  0  0  0  0
 26 43  1  0  0  0  0
 27 29  1  0  0  0  0
 27 44  1  0  0  0  0
 28 31  1  0  0  0  0
 28 45  1  0  0  0  0
 29 46  1  0  0  0  0
 30 47  1  0  0  0  0
 30 48  1  0  0  0  0
 31 49  1  0  0  0  0
 31 50  1  0  0  0  0
 32 34  2  0  0  0  0
 32 54  1  0  0  0  0
 34 35  1  0  0  0  0
 34 36  1  0  0  0  0
 36 58  1  0  0  0  0
 36 59  1  0  0  0  0
 36 60  1  0  0  0  0
M  END
> <PUBCHEM_COMPOUND_CID>
439651

> <PUBCHEM_CONFORMER_RMSD>
1.4

> <PUBCHEM_CONFORMER_DIVERSEORDER>
1
106
91
122
27
87
45
2
107
66
99
30
42
36
105
6
112
70
48
20
80
124
103
108
67
118
85
3
128
78
57
90
71
18
77
64
101
29
126
119
21
115
110
86
53
121
19
98
10
41
73
5
40
22
17
127
92
74
59
38
4
55
24
83
54
11
61
96
104
94
72
25
117
68
89
62
15
58
79
31
82
81
84
37
123
75
65
12
50
23
16
120
60
51
113
100
95
114
14
56
125
102
46
93
34
39
88
111
32
129
28
69
116
7
44
13
63
109
49
97
47
52
33
76
43
35
26
8
9

> <PUBCHEM_MMFF94_PARTIAL_CHARGES>
44
1 1.51
10 -0.55
11 -0.68
12 -0.54
13 -0.77
14 -0.57
15 -0.77
16 -0.7
17 -0.7
18 -0.57
19 -0.47
2 1.51
20 -0.49
21 0.28
22 0.28
24 0.58
25 0.28
26 0.28
27 0.28
28 0.28
29 0.56
3 -0.56
30 0.28
31 0.28
32 -0.04
33 0.69
34 -0.12
35 0.62
36 0.14
4 -0.56
5 -0.68
51 0.4
52 0.4
53 0.4
54 0.15
55 0.4
56 0.37
57 0.4
6 -0.55
61 0.5
62 0.5
7 -0.68
8 -0.68
9 -0.68

> <PUBCHEM_EFFECTIVE_ROTOR_COUNT>
11.2

> <PUBCHEM_PHARMACOPHORE_FEATURES>
22
1 11 acceptor
1 11 donor
1 13 acceptor
1 14 acceptor
1 15 acceptor
1 16 acceptor
1 17 acceptor
1 18 acceptor
1 20 donor
1 3 acceptor
1 4 acceptor
1 5 acceptor
1 5 donor
1 7 acceptor
1 7 donor
1 8 acceptor
1 8 donor
1 9 acceptor
1 9 donor
5 3 21 22 23 24 rings
6 19 20 32 33 34 35 rings
6 4 25 26 27 28 29 rings

> <PUBCHEM_HEAVY_ATOM_COUNT>
36

> <PUBCHEM_ATOM_DEF_STEREO_COUNT>
8

> <PUBCHEM_ATOM_UDEF_STEREO_COUNT>
0

> <PUBCHEM_BOND_DEF_STEREO_COUNT>
0

> <PUBCHEM_BOND_UDEF_STEREO_COUNT>
0

> <PUBCHEM_ISOTOPIC_ATOM_COUNT>
0

> <PUBCHEM_COMPONENT_COUNT>
1

> <PUBCHEM_CACTVS_TAUTO_COUNT>
3

> <PUBCHEM_CONFORMER_ID>
0006B56300000001

> <PUBCHEM_MMFF94_ENERGY>
47.0761

> <PUBCHEM_FEATURE_SELFOVERLAP>
111.68

> <PUBCHEM_SHAPE_FINGERPRINT>
10675989 125 18051420565635116389
11513181 2 17108761284683151837
12422481 6 17115235218234096490
12539773 59 17979337983055454832
12788726 201 18335408097585892917
13009979 54 18267037209165198306
14068700 675 18271260399478813498
14674994 50 17336779041434024916
15297060 5 17823696558771672851
15403338 16 16841057609791192745
19026451 147 18263651662349048614
19319366 153 18058715936436867874
20600515 1 17895491262298863185
20764821 26 17114104923952522358
21133410 90 17833031390848505749
21315764 21 17702964620064455829
23559900 14 17679296369846186749
238 59 17131558262552675282
35225 105 17464288236428156932
445580 8 18122044653675348745
463206 1 18270402672391355192
474144 1 18272374199956426559
581034 39 17610616797282393401
6287921 2 16389025439986734145
86090 222 16973366864863124203

> <PUBCHEM_SHAPE_MULTIPOLES>
644.69
8.34
5.62
2.99
3.35
2.3
-0.53
-3.68
4.32
0.44
-1.58
-1.69
0.04
-4.6

> <PUBCHEM_SHAPE_SELFOVERLAP>
1314.206

> <PUBCHEM_SHAPE_VOLUME>
373.9

> <PUBCHEM_COORDINATE_TYPE>
2
5
10

$$$$

