9570290
  -OEChem-07051213123D

 34 34  0     0  0  0  0  0  0999 V2000
    2.3779   -0.9708    2.7063 S   0  0  0  0  0  0  0  0  0  0  0  0
    2.3041   -0.2933    0.8836 P   0  0  0  0  0  0  0  0  0  0  0  0
    3.4903    0.7505    0.4974 O   0  0  0  0  0  0  0  0  0  0  0  0
    2.3712   -1.3866   -0.3183 O   0  0  0  0  0  0  0  0  0  0  0  0
    0.9696    0.5528    0.4984 O   0  0  0  0  0  0  0  0  0  0  0  0
   -0.1756   -0.2481    0.4582 N   0  0  0  0  0  0  0  0  0  0  0  0
   -0.6143    2.9421   -0.2215 N   0  0  0  0  0  0  0  0  0  0  0  0
    3.4544    1.4556   -0.7321 C   0  0  0  0  0  0  0  0  0  0  0  0
    3.5607   -2.1291   -0.5278 C   0  0  0  0  0  0  0  0  0  0  0  0
   -2.6241    0.0236    0.0033 C   0  0  0  0  0  0  0  0  0  0  0  0
    4.6738    2.3479   -0.8246 C   0  0  0  0  0  0  0  0  0  0  0  0
    3.3566   -3.0675   -1.6980 C   0  0  0  0  0  0  0  0  0  0  0  0
   -3.5875    0.9658   -0.3301 C   0  0  0  0  0  0  0  0  0  0  0  0
   -2.9644   -1.3079    0.1988 C   0  0  0  0  0  0  0  0  0  0  0  0
   -1.2247    0.4415    0.1507 C   0  0  0  0  0  0  0  0  0  0  0  0
   -4.9173    0.5688   -0.4704 C   0  0  0  0  0  0  0  0  0  0  0  0
   -4.2943   -1.7048    0.0583 C   0  0  0  0  0  0  0  0  0  0  0  0
   -5.2706   -0.7664   -0.2764 C   0  0  0  0  0  0  0  0  0  0  0  0
   -0.8860    1.8261   -0.0556 C   0  0  0  0  0  0  0  0  0  0  0  0
    3.4409    0.7465   -1.5648 H   0  0  0  0  0  0  0  0  0  0  0  0
    2.5495    2.0684   -0.7770 H   0  0  0  0  0  0  0  0  0  0  0  0
    4.3907   -1.4472   -0.7342 H   0  0  0  0  0  0  0  0  0  0  0  0
    3.7950   -2.7042    0.3729 H   0  0  0  0  0  0  0  0  0  0  0  0
    4.6761    2.9108   -1.7621 H   0  0  0  0  0  0  0  0  0  0  0  0
    4.6996    3.0539    0.0120 H   0  0  0  0  0  0  0  0  0  0  0  0
    5.5913    1.7529   -0.7674 H   0  0  0  0  0  0  0  0  0  0  0  0
    4.2566   -3.6595   -1.8860 H   0  0  0  0  0  0  0  0  0  0  0  0
    2.5199   -3.7473   -1.5058 H   0  0  0  0  0  0  0  0  0  0  0  0
    3.1078   -2.5048   -2.6039 H   0  0  0  0  0  0  0  0  0  0  0  0
   -3.3604    2.0146   -0.4908 H   0  0  0  0  0  0  0  0  0  0  0  0
   -2.2172   -2.0522    0.4596 H   0  0  0  0  0  0  0  0  0  0  0  0
   -5.6781    1.2988   -0.7310 H   0  0  0  0  0  0  0  0  0  0  0  0
   -4.5697   -2.7445    0.2094 H   0  0  0  0  0  0  0  0  0  0  0  0
   -6.3060   -1.0756   -0.3857 H   0  0  0  0  0  0  0  0  0  0  0  0
  1  2  2  0  0  0  0
  2  3  1  0  0  0  0
  2  4  1  0  0  0  0
  2  5  1  0  0  0  0
  3  8  1  0  0  0  0
  4  9  1  0  0  0  0
  5  6  1  0  0  0  0
  6 15  2  0  0  0  0
  7 19  3  0  0  0  0
  8 11  1  0  0  0  0
  8 20  1  0  0  0  0
  8 21  1  0  0  0  0
  9 12  1  0  0  0  0
  9 22  1  0  0  0  0
  9 23  1  0  0  0  0
 10 13  2  0  0  0  0
 10 14  1  0  0  0  0
 10 15  1  0  0  0  0
 11 24  1  0  0  0  0
 11 25  1  0  0  0  0
 11 26  1  0  0  0  0
 12 27  1  0  0  0  0
 12 28  1  0  0  0  0
 12 29  1  0  0  0  0
 13 16  1  0  0  0  0
 13 30  1  0  0  0  0
 14 17  2  0  0  0  0
 14 31  1  0  0  0  0
 15 19  1  0  0  0  0
 16 18  2  0  0  0  0
 16 32  1  0  0  0  0
 17 18  1  0  0  0  0
 17 33  1  0  0  0  0
 18 34  1  0  0  0  0
M  END
> <PUBCHEM_COMPOUND_CID>
9570290

> <PUBCHEM_CONFORMER_RMSD>
0.8

> <PUBCHEM_CONFORMER_DIVERSEORDER>
1
18
38
25
52
20
43
37
33
17
10
8
50
9
51
14
39
28
21
46
26
7
29
2
42
32
23
13
44
31
35
22
30
24
47
15
11
19
49
12
41
5
6
3
27
16
45
48
4
40
34
36

> <PUBCHEM_MMFF94_PARTIAL_CHARGES>
22
1 -0.68
10 0.09
13 -0.15
14 -0.15
15 0.47
16 -0.15
17 -0.15
18 -0.15
19 0.45
2 1.49
3 -0.55
30 0.15
31 0.15
32 0.15
33 0.15
34 0.15
4 -0.55
5 -0.21
6 -0.51
7 -0.56
8 0.28
9 0.28

> <PUBCHEM_EFFECTIVE_ROTOR_COUNT>
7

> <PUBCHEM_PHARMACOPHORE_FEATURES>
3
1 6 acceptor
1 7 acceptor
6 10 13 14 16 17 18 rings

> <PUBCHEM_HEAVY_ATOM_COUNT>
19

> <PUBCHEM_ATOM_DEF_STEREO_COUNT>
0

> <PUBCHEM_ATOM_UDEF_STEREO_COUNT>
0

> <PUBCHEM_BOND_DEF_STEREO_COUNT>
1

> <PUBCHEM_BOND_UDEF_STEREO_COUNT>
0

> <PUBCHEM_ISOTOPIC_ATOM_COUNT>
0

> <PUBCHEM_COMPONENT_COUNT>
1

> <PUBCHEM_CACTVS_TAUTO_COUNT>
1

> <PUBCHEM_CONFORMER_ID>
009207F200000001

> <PUBCHEM_MMFF94_ENERGY>
36.1644

> <PUBCHEM_FEATURE_SELFOVERLAP>
15.223

> <PUBCHEM_SHAPE_FINGERPRINT>
10090160 65 17417537904069140392
12616999 72 18334576819893168274
13533116 47 17530968012243007771
13955234 65 18113622270442786850
14252887 29 18335702719562699387
14790565 3 18051975024618048437
15342816 4 18131642179105184971
15664445 248 18263913372240295364
18186145 218 17775569766571544423
20281475 54 18260545653891153761
20645477 70 18409730681334793366
21618674 68 18412259536878057420
23557571 272 18190760797664407400
23559900 14 18264212576509057518
239999 70 18343021095027900690
3004659 81 18271811249786792294
312423 11 18041549355871164464
3286 77 17095811026140983066
474 4 17203044067689724700
633830 44 18343025527465785511
90127 26 18059286660692765857
9709674 26 18412540994511582851

> <PUBCHEM_SHAPE_MULTIPOLES>
371.14
10.9
2.9
1.44
6.34
0.04
-0.9
-1.4
2.72
-3.17
1.31
-2.16
-0.92
0.33

> <PUBCHEM_SHAPE_SELFOVERLAP>
722.109

> <PUBCHEM_SHAPE_VOLUME>
225.2

> <PUBCHEM_COORDINATE_TYPE>
2
5
10

$$$$

