440030
  -OEChem-07051212483D

 21 20  0     1  0  0  0  0  0999 V2000
   -1.4280   -0.4709    0.0574 O   0  0  0  0  0  0  0  0  0  0  0  0
    2.0727    0.5928   -1.2185 O   0  0  0  0  0  0  0  0  0  0  0  0
   -0.3124    1.4902    0.5383 O   0  0  0  0  0  0  0  0  0  0  0  0
    2.1805    0.0786    0.1075 C   0  0  1  0  0  0  0  0  0  0  0  0
    0.8753   -0.6355    0.4616 C   0  0  0  0  0  0  0  0  0  0  0  0
    3.3631   -0.8796    0.1622 C   0  0  0  0  0  0  0  0  0  0  0  0
   -0.3280    0.2793    0.3654 C   0  0  0  0  0  0  0  0  0  0  0  0
   -2.6548    0.2560   -0.0665 C   0  0  0  0  0  0  0  0  0  0  0  0
   -3.7685   -0.7109   -0.4074 C   0  0  0  0  0  0  0  0  0  0  0  0
    2.3607    0.9223    0.7832 H   0  0  0  0  0  0  0  0  0  0  0  0
    0.7230   -1.4624   -0.2439 H   0  0  0  0  0  0  0  0  0  0  0  0
    0.9144   -1.0431    1.4771 H   0  0  0  0  0  0  0  0  0  0  0  0
    4.2858   -0.3604   -0.1185 H   0  0  0  0  0  0  0  0  0  0  0  0
    3.2370   -1.7018   -0.5509 H   0  0  0  0  0  0  0  0  0  0  0  0
    3.4892   -1.2987    1.1649 H   0  0  0  0  0  0  0  0  0  0  0  0
   -2.8784    0.7591    0.8809 H   0  0  0  0  0  0  0  0  0  0  0  0
   -2.5573    1.0037   -0.8614 H   0  0  0  0  0  0  0  0  0  0  0  0
    1.4176    1.3109   -1.2076 H   0  0  0  0  0  0  0  0  0  0  0  0
   -4.7232   -0.1875   -0.5098 H   0  0  0  0  0  0  0  0  0  0  0  0
   -3.5505   -1.2353   -1.3436 H   0  0  0  0  0  0  0  0  0  0  0  0
   -3.8661   -1.4758    0.3700 H   0  0  0  0  0  0  0  0  0  0  0  0
  1  7  1  0  0  0  0
  1  8  1  0  0  0  0
  2  4  1  0  0  0  0
  2 18  1  0  0  0  0
  3  7  2  0  0  0  0
  4  5  1  0  0  0  0
  4  6  1  0  0  0  0
  4 10  1  0  0  0  0
  5  7  1  0  0  0  0
  5 11  1  0  0  0  0
  5 12  1  0  0  0  0
  6 13  1  0  0  0  0
  6 14  1  0  0  0  0
  6 15  1  0  0  0  0
  8  9  1  0  0  0  0
  8 16  1  0  0  0  0
  8 17  1  0  0  0  0
  9 19  1  0  0  0  0
  9 20  1  0  0  0  0
  9 21  1  0  0  0  0
M  END
> <PUBCHEM_COMPOUND_CID>
440030

> <PUBCHEM_CONFORMER_RMSD>
0.6

> <PUBCHEM_CONFORMER_DIVERSEORDER>
1
36
19
5
45
8
4
13
33
38
24
26
44
30
18
29
40
22
43
15
7
34
28
3
35
21
11
12
6
17
42
2
20
37
10
9
32
39
41
31
16
14
27
23
25

> <PUBCHEM_MMFF94_PARTIAL_CHARGES>
8
1 -0.43
18 0.4
2 -0.68
3 -0.57
4 0.28
5 0.06
7 0.66
8 0.28

> <PUBCHEM_EFFECTIVE_ROTOR_COUNT>
4

> <PUBCHEM_PHARMACOPHORE_FEATURES>
3
1 2 acceptor
1 2 donor
1 3 acceptor

> <PUBCHEM_HEAVY_ATOM_COUNT>
9

> <PUBCHEM_ATOM_DEF_STEREO_COUNT>
1

> <PUBCHEM_ATOM_UDEF_STEREO_COUNT>
0

> <PUBCHEM_BOND_DEF_STEREO_COUNT>
0

> <PUBCHEM_BOND_UDEF_STEREO_COUNT>
0

> <PUBCHEM_ISOTOPIC_ATOM_COUNT>
0

> <PUBCHEM_COMPONENT_COUNT>
1

> <PUBCHEM_CACTVS_TAUTO_COUNT>
1

> <PUBCHEM_CONFORMER_ID>
0006B6DE00000001

> <PUBCHEM_MMFF94_ENERGY>
6.1577

> <PUBCHEM_FEATURE_SELFOVERLAP>
15.223

> <PUBCHEM_SHAPE_FINGERPRINT>
11062470 55 16732986418359465803
12897270 3 17275387607601404647
12932741 1 15697417984650609176
14325111 11 18131069324867287179
14390081 3 14117527536492748719
177051 138 18261394485500208630
20653085 51 16056588863737270053
21119208 17 17775570853193125687
21293036 1 18412263904627409351
23552423 10 18197494245390462691
29004967 10 14996283643301962146
3248919 1 17917990577090276185

> <PUBCHEM_SHAPE_MULTIPOLES>
167.61
5.84
1.05
0.81
2.15
0.17
0.14
-1.86
0.92
-0.04
-0.07
-0.24
0.09
-0.34

> <PUBCHEM_SHAPE_SELFOVERLAP>
306.458

> <PUBCHEM_SHAPE_VOLUME>
107.4

> <PUBCHEM_COORDINATE_TYPE>
2
5
10

$$$$

