440484
  -OEChem-07051212493D

 47 48  0     1  0  0  0  0  0999 V2000
   -3.7211    0.8802   -0.1368 O   0  0  0  0  0  0  0  0  0  0  0  0
    0.0634   -0.5024   -0.9158 O   0  0  0  0  0  0  0  0  0  0  0  0
   -0.4344    2.3360   -0.8818 O   0  0  0  0  0  0  0  0  0  0  0  0
   -4.3716   -1.1745    0.7451 O   0  0  0  0  0  0  0  0  0  0  0  0
    1.6978    0.8189    0.1017 O   0  0  0  0  0  0  0  0  0  0  0  0
   -4.5036    3.5044   -0.3237 O   0  0  0  0  0  0  0  0  0  0  0  0
    1.9443   -2.5648   -1.3493 O   0  0  0  0  0  0  0  0  0  0  0  0
    4.6955   -1.4132   -1.4878 O   0  0  0  0  0  0  0  0  0  0  0  0
   -1.8590   -3.7292   -0.4598 O   0  0  0  0  0  0  0  0  0  0  0  0
    2.2885    3.0066    1.2547 O   0  0  0  0  0  0  0  0  0  0  0  0
    4.5085    2.5100    1.4895 O   0  0  0  0  0  0  0  0  0  0  0  0
   -1.6126   -1.9371    1.0049 N   0  0  0  0  0  0  0  0  0  0  0  0
   -0.9545    0.1243   -0.1326 C   0  0  2  0  0  0  0  0  0  0  0  0
   -2.0740   -0.8911    0.1157 C   0  0  2  0  0  0  0  0  0  0  0  0
   -1.4681    1.3550   -0.8830 C   0  0  1  0  0  0  0  0  0  0  0  0
   -2.7306    1.9067   -0.2156 C   0  0  1  0  0  0  0  0  0  0  0  0
   -3.3207   -0.2105    0.6913 C   0  0  1  0  0  0  0  0  0  0  0  0
    1.3119   -0.5216   -0.2228 C   0  0  2  0  0  0  0  0  0  0  0  0
   -3.3407    3.0634   -1.0008 C   0  0  0  0  0  0  0  0  0  0  0  0
    2.3367   -1.2106   -1.1268 C   0  0  1  0  0  0  0  0  0  0  0  0
    3.7170   -1.2152   -0.4689 C   0  0  2  0  0  0  0  0  0  0  0  0
   -1.5465   -3.2682    0.6349 C   0  0  0  0  0  0  0  0  0  0  0  0
    3.9849    0.0721    0.2463 C   0  0  0  0  0  0  0  0  0  0  0  0
    3.0151    0.9727    0.4615 C   0  0  0  0  0  0  0  0  0  0  0  0
   -1.0086   -4.1387    1.7388 C   0  0  0  0  0  0  0  0  0  0  0  0
    3.3822    2.2266    1.1213 C   0  0  0  0  0  0  0  0  0  0  0  0
   -0.5622    0.4457    0.8438 H   0  0  0  0  0  0  0  0  0  0  0  0
   -2.3300   -1.3524   -0.8476 H   0  0  0  0  0  0  0  0  0  0  0  0
   -1.6675    1.0880   -1.9279 H   0  0  0  0  0  0  0  0  0  0  0  0
   -2.5147    2.2632    0.8007 H   0  0  0  0  0  0  0  0  0  0  0  0
   -3.1566    0.1503    1.7135 H   0  0  0  0  0  0  0  0  0  0  0  0
    1.1828   -1.0986    0.7038 H   0  0  0  0  0  0  0  0  0  0  0  0
   -1.3199   -1.6689    1.9404 H   0  0  0  0  0  0  0  0  0  0  0  0
   -3.6373    2.7524   -2.0080 H   0  0  0  0  0  0  0  0  0  0  0  0
   -2.6471    3.9053   -1.0815 H   0  0  0  0  0  0  0  0  0  0  0  0
    2.3770   -0.7215   -2.1086 H   0  0  0  0  0  0  0  0  0  0  0  0
   -0.2665    2.5955    0.0402 H   0  0  0  0  0  0  0  0  0  0  0  0
    3.8085   -2.0517    0.2339 H   0  0  0  0  0  0  0  0  0  0  0  0
   -4.3061   -1.7471   -0.0372 H   0  0  0  0  0  0  0  0  0  0  0  0
    5.0053    0.2464    0.5764 H   0  0  0  0  0  0  0  0  0  0  0  0
   -5.1102    2.7472   -0.2569 H   0  0  0  0  0  0  0  0  0  0  0  0
    1.0463   -2.5490   -1.7226 H   0  0  0  0  0  0  0  0  0  0  0  0
   -1.1505   -5.1916    1.4802 H   0  0  0  0  0  0  0  0  0  0  0  0
    0.0588   -3.9412    1.8707 H   0  0  0  0  0  0  0  0  0  0  0  0
   -1.5363   -3.9336    2.6747 H   0  0  0  0  0  0  0  0  0  0  0  0
    5.5674   -1.4522   -1.0582 H   0  0  0  0  0  0  0  0  0  0  0  0
    2.4948    3.8589    1.6944 H   0  0  0  0  0  0  0  0  0  0  0  0
  1 16  1  0  0  0  0
  1 17  1  0  0  0  0
  2 13  1  0  0  0  0
  2 18  1  0  0  0  0
  3 15  1  0  0  0  0
  3 37  1  0  0  0  0
  4 17  1  0  0  0  0
  4 39  1  0  0  0  0
  5 18  1  0  0  0  0
  5 24  1  0  0  0  0
  6 19  1  0  0  0  0
  6 41  1  0  0  0  0
  7 20  1  0  0  0  0
  7 42  1  0  0  0  0
  8 21  1  0  0  0  0
  8 46  1  0  0  0  0
  9 22  2  0  0  0  0
 10 26  1  0  0  0  0
 10 47  1  0  0  0  0
 11 26  2  0  0  0  0
 12 14  1  0  0  0  0
 12 22  1  0  0  0  0
 12 33  1  0  0  0  0
 13 14  1  0  0  0  0
 13 15  1  0  0  0  0
 13 27  1  0  0  0  0
 14 17  1  0  0  0  0
 14 28  1  0  0  0  0
 15 16  1  0  0  0  0
 15 29  1  0  0  0  0
 16 19  1  0  0  0  0
 16 30  1  0  0  0  0
 17 31  1  0  0  0  0
 18 20  1  0  0  0  0
 18 32  1  0  0  0  0
 19 34  1  0  0  0  0
 19 35  1  0  0  0  0
 20 21  1  0  0  0  0
 20 36  1  0  0  0  0
 21 23  1  0  0  0  0
 21 38  1  0  0  0  0
 22 25  1  0  0  0  0
 23 24  2  0  0  0  0
 23 40  1  0  0  0  0
 24 26  1  0  0  0  0
 25 43  1  0  0  0  0
 25 44  1  0  0  0  0
 25 45  1  0  0  0  0
M  END
> <PUBCHEM_COMPOUND_CID>
440484

> <PUBCHEM_CONFORMER_RMSD>
0.8

> <PUBCHEM_CONFORMER_DIVERSEORDER>
1
27
103
48
57
59
101
55
68
98
111
117
72
51
107
40
80
105
126
74
4
123
83
56
112
50
3
71
10
89
76
118
94
75
16
104
39
29
73
54
65
31
17
41
58
6
119
28
100
34
70
120
53
38
7
24
49
110
84
125
88
5
25
97
114
82
102
78
32
11
91
81
106
9
90
67
77
35
85
42
115
46
99
113
33
20
19
14
60
124
116
23
66
37
22
30
8
62
12
64
47
96
87
86
63
36
21
2
26
52
13
95
45
15
122
69
43
79
109
121
92
44
18
108
61
93

> <PUBCHEM_MMFF94_PARTIAL_CHARGES>
34
1 -0.56
10 -0.65
11 -0.57
12 -0.73
13 0.28
14 0.3
15 0.28
16 0.28
17 0.56
18 0.56
19 0.28
2 -0.56
20 0.28
21 0.42
22 0.57
23 -0.29
24 0.09
25 0.06
26 0.71
3 -0.68
33 0.37
37 0.4
39 0.4
4 -0.68
40 0.15
41 0.4
42 0.4
46 0.4
47 0.5
5 -0.36
6 -0.68
7 -0.68
8 -0.68
9 -0.57

> <PUBCHEM_EFFECTIVE_ROTOR_COUNT>
8

> <PUBCHEM_PHARMACOPHORE_FEATURES>
20
1 1 acceptor
1 10 acceptor
1 11 acceptor
1 12 donor
1 2 acceptor
1 3 acceptor
1 3 donor
1 4 acceptor
1 4 donor
1 5 acceptor
1 6 acceptor
1 6 donor
1 7 acceptor
1 7 donor
1 8 acceptor
1 8 donor
1 9 acceptor
3 10 11 26 anion
6 1 13 14 15 16 17 rings
6 5 18 20 21 23 24 rings

> <PUBCHEM_HEAVY_ATOM_COUNT>
26

> <PUBCHEM_ATOM_DEF_STEREO_COUNT>
8

> <PUBCHEM_ATOM_UDEF_STEREO_COUNT>
0

> <PUBCHEM_BOND_DEF_STEREO_COUNT>
0

> <PUBCHEM_BOND_UDEF_STEREO_COUNT>
0

> <PUBCHEM_ISOTOPIC_ATOM_COUNT>
0

> <PUBCHEM_COMPONENT_COUNT>
1

> <PUBCHEM_CACTVS_TAUTO_COUNT>
2

> <PUBCHEM_CONFORMER_ID>
0006B8A400000001

> <PUBCHEM_MMFF94_ENERGY>
59.7459

> <PUBCHEM_FEATURE_SELFOVERLAP>
101.668

> <PUBCHEM_SHAPE_FINGERPRINT>
10165383 225 17912635006170266149
10319926 262 18340784675924320888
10366900 7 18409157801638549526
1100329 8 15962309409716336901
12403259 415 18409163341919559617
12500047 106 18341327889833330886
12553582 1 17622144790163370427
12633257 1 18409732850593880818
13004483 165 18047767996086136119
13083527 12 17187001995329805611
13140716 1 17837490748301946721
14081887 123 18268433421243457210
14178342 30 18200880548157233882
14223421 5 18263925428181034250
17980427 26 17978257128575338293
20510252 161 18410009944872708793
20600515 1 17414162300144972715
20681677 76 18334582360074276893
21033648 29 18412546547772642273
21421861 104 17049057288321365467
23526113 38 17973724980379368262
23557571 272 18198060270629969786
23558518 356 18340779147409944862
23559900 14 18269269235038597516
2748010 2 18271237330987894797
3298306 158 18124032596315476495
3380486 145 18050281467267178667
469060 322 17177737553393275214
49207404 50 18045218246201184026
495365 180 17823155543284894560
5265222 85 17985804125550853390
633830 44 18189914182348654381
81228 2 18200872851507299955
9709674 26 18335703793357264038
9981440 41 17825700814029601520

> <PUBCHEM_SHAPE_MULTIPOLES>
465.52
8.49
4.88
1.32
2.72
1.96
-0.11
-4.5
-0.37
-3.25
-1.17
0.88
0.27
3.27

> <PUBCHEM_SHAPE_SELFOVERLAP>
963.159

> <PUBCHEM_SHAPE_VOLUME>
259.9

> <PUBCHEM_COORDINATE_TYPE>
2
5
10

$$$$

