13538
  -OEChem-06241222393D

 14 13  0     1  0  0  0  0  0999 V2000
   -0.4861   -1.7025    0.7106 O   0  0  0  0  0  0  0  0  0  0  0  0
   -1.7751   -0.8401   -0.9431 O   0  0  0  0  0  0  0  0  0  0  0  0
   -1.6023    1.6246    0.2913 N   0  0  0  0  0  0  0  0  0  0  0  0
    2.7717   -0.4747   -0.0373 N   0  0  0  0  0  0  0  0  0  0  0  0
   -0.4999    0.6782    0.4789 C   0  0  2  0  0  0  0  0  0  0  0  0
    0.7186    1.1468   -0.3225 C   0  0  0  0  0  0  0  0  0  0  0  0
   -0.9930   -0.6721   -0.0157 C   0  0  0  0  0  0  0  0  0  0  0  0
    1.8661    0.2398   -0.1623 C   0  0  0  0  0  0  0  0  0  0  0  0
   -0.2782    0.6074    1.5498 H   0  0  0  0  0  0  0  0  0  0  0  0
    1.0126    2.1534   -0.0008 H   0  0  0  0  0  0  0  0  0  0  0  0
    0.4724    1.2120   -1.3903 H   0  0  0  0  0  0  0  0  0  0  0  0
   -1.7951    1.7398   -0.7035 H   0  0  0  0  0  0  0  0  0  0  0  0
   -1.3192    2.5449    0.6268 H   0  0  0  0  0  0  0  0  0  0  0  0
   -0.8164   -2.5701    0.3938 H   0  0  0  0  0  0  0  0  0  0  0  0
  1  7  1  0  0  0  0
  1 14  1  0  0  0  0
  2  7  2  0  0  0  0
  3  5  1  0  0  0  0
  3 12  1  0  0  0  0
  3 13  1  0  0  0  0
  4  8  3  0  0  0  0
  5  6  1  0  0  0  0
  5  7  1  0  0  0  0
  5  9  1  0  0  0  0
  6  8  1  0  0  0  0
  6 10  1  0  0  0  0
  6 11  1  0  0  0  0
M  END
> <PUBCHEM_COMPOUND_CID>
13538

> <PUBCHEM_CONFORMER_RMSD>
0.4

> <PUBCHEM_CONFORMER_DIVERSEORDER>
6
10
11
5
4
1
7
2
8
3
12
9

> <PUBCHEM_MMFF94_PARTIAL_CHARGES>
11
1 -0.65
12 0.36
13 0.36
14 0.5
2 -0.57
3 -0.99
4 -0.56
5 0.33
6 0.2
7 0.66
8 0.36

> <PUBCHEM_EFFECTIVE_ROTOR_COUNT>
2

> <PUBCHEM_PHARMACOPHORE_FEATURES>
6
1 1 acceptor
1 2 acceptor
1 3 cation
1 3 donor
1 4 acceptor
3 1 2 7 anion

> <PUBCHEM_HEAVY_ATOM_COUNT>
8

> <PUBCHEM_ATOM_DEF_STEREO_COUNT>
0

> <PUBCHEM_ATOM_UDEF_STEREO_COUNT>
1

> <PUBCHEM_BOND_DEF_STEREO_COUNT>
0

> <PUBCHEM_BOND_UDEF_STEREO_COUNT>
0

> <PUBCHEM_ISOTOPIC_ATOM_COUNT>
0

> <PUBCHEM_COMPONENT_COUNT>
1

> <PUBCHEM_CACTVS_TAUTO_COUNT>
1

> <PUBCHEM_CONFORMER_ID>
000034E200000006

> <PUBCHEM_MMFF94_ENERGY>
5.1034

> <PUBCHEM_FEATURE_SELFOVERLAP>
30.505

> <PUBCHEM_SHAPE_FINGERPRINT>
137420 1 4863854298863559585
18185500 45 18343018857217745674
21040471 1 18192984044356088632
23552423 10 18270961241636422524
24536 1 18199467662672267144
29004967 10 17833265320415098481

> <PUBCHEM_SHAPE_MULTIPOLES>
142.94
2.79
1.58
0.77
1.81
0.04
-0.05
-0.34
-0.3
-0.64
0.2
-0.21
-0.1
-0.22

> <PUBCHEM_SHAPE_SELFOVERLAP>
268.885

> <PUBCHEM_SHAPE_VOLUME>
86.3

> <PUBCHEM_COORDINATE_TYPE>
2
5
10

$$$$

