5281970
  -OEChem-07051213023D

 58 61  0     1  0  0  0  0  0999 V2000
   -2.2496    5.3151    0.3107 F   0  0  0  0  0  0  0  0  0  0  0  0
   -4.1018    0.0176   -0.4961 O   0  0  0  0  0  0  0  0  0  0  0  0
   -5.7150   -2.5068    1.0986 O   0  0  0  0  0  0  0  0  0  0  0  0
   -6.0744    1.0324   -0.8731 O   0  0  0  0  0  0  0  0  0  0  0  0
    2.6218   -1.4910    0.1863 N   0  0  0  0  0  0  0  0  0  0  0  0
   -3.8898   -2.4367   -0.4905 C   0  0  0  0  0  0  0  0  0  0  0  0
   -3.3836   -1.1084    0.0536 C   0  0  1  0  0  0  0  0  0  0  0  0
   -5.3918   -2.5226   -0.2893 C   0  0  2  0  0  0  0  0  0  0  0  0
   -6.0771   -1.3532   -0.9686 C   0  0  0  0  0  0  0  0  0  0  0  0
    0.4364   -0.5177    0.4451 C   0  0  0  0  0  0  0  0  0  0  0  0
   -1.9326   -0.9132   -0.2487 C   0  0  0  0  0  0  0  0  0  0  0  0
    0.7978   -2.9919    0.6275 C   0  0  0  0  0  0  0  0  0  0  0  0
    1.2930   -1.5976    0.4117 C   0  0  0  0  0  0  0  0  0  0  0  0
   -5.4335   -0.0078   -0.7359 C   0  0  0  0  0  0  0  0  0  0  0  0
   -0.9998   -0.7226    0.6970 C   0  0  0  0  0  0  0  0  0  0  0  0
    0.9513    0.7498    0.2383 C   0  0  0  0  0  0  0  0  0  0  0  0
    2.3135    0.8999    0.0033 C   0  0  0  0  0  0  0  0  0  0  0  0
    3.0987   -0.2417   -0.0126 C   0  0  0  0  0  0  0  0  0  0  0  0
    1.4198   -3.6472    1.8733 C   0  0  0  0  0  0  0  0  0  0  0  0
    1.0186   -3.8884   -0.6038 C   0  0  0  0  0  0  0  0  0  0  0  0
    0.1175    1.9373    0.2575 C   0  0  0  0  0  0  0  0  0  0  0  0
    4.5204   -0.1634   -0.2502 C   0  0  0  0  0  0  0  0  0  0  0  0
   -0.4727    2.3886   -0.9204 C   0  0  0  0  0  0  0  0  0  0  0  0
   -0.0876    2.6212    1.4534 C   0  0  0  0  0  0  0  0  0  0  0  0
    5.4026   -0.0098    0.8216 C   0  0  0  0  0  0  0  0  0  0  0  0
    5.0188   -0.2416   -1.5525 C   0  0  0  0  0  0  0  0  0  0  0  0
   -1.2729    3.5310   -0.9025 C   0  0  0  0  0  0  0  0  0  0  0  0
   -0.8879    3.7636    1.4714 C   0  0  0  0  0  0  0  0  0  0  0  0
   -1.4806    4.2185    0.2935 C   0  0  0  0  0  0  0  0  0  0  0  0
    6.7763    0.0656    0.5923 C   0  0  0  0  0  0  0  0  0  0  0  0
    6.3927   -0.1663   -1.7817 C   0  0  0  0  0  0  0  0  0  0  0  0
    7.2714   -0.0127   -0.7093 C   0  0  0  0  0  0  0  0  0  0  0  0
   -3.6670   -2.5262   -1.5615 H   0  0  0  0  0  0  0  0  0  0  0  0
   -3.3892   -3.2629    0.0286 H   0  0  0  0  0  0  0  0  0  0  0  0
   -3.5322   -1.0671    1.1397 H   0  0  0  0  0  0  0  0  0  0  0  0
   -5.7713   -3.4662   -0.6948 H   0  0  0  0  0  0  0  0  0  0  0  0
   -7.1144   -1.2849   -0.6202 H   0  0  0  0  0  0  0  0  0  0  0  0
   -6.0837   -1.5107   -2.0535 H   0  0  0  0  0  0  0  0  0  0  0  0
   -1.6374   -0.9159   -1.2959 H   0  0  0  0  0  0  0  0  0  0  0  0
   -0.2812   -3.0127    0.8085 H   0  0  0  0  0  0  0  0  0  0  0  0
   -1.2816   -0.7115    1.7474 H   0  0  0  0  0  0  0  0  0  0  0  0
    2.7511    1.8807   -0.1631 H   0  0  0  0  0  0  0  0  0  0  0  0
    2.5049   -3.7592    1.7701 H   0  0  0  0  0  0  0  0  0  0  0  0
    0.9937   -4.6420    2.0425 H   0  0  0  0  0  0  0  0  0  0  0  0
    1.2293   -3.0417    2.7663 H   0  0  0  0  0  0  0  0  0  0  0  0
    0.5386   -3.4564   -1.4890 H   0  0  0  0  0  0  0  0  0  0  0  0
    0.5922   -4.8840   -0.4405 H   0  0  0  0  0  0  0  0  0  0  0  0
    2.0843   -4.0110   -0.8268 H   0  0  0  0  0  0  0  0  0  0  0  0
   -5.6164   -1.6010    1.4357 H   0  0  0  0  0  0  0  0  0  0  0  0
   -0.3210    1.8643   -1.8609 H   0  0  0  0  0  0  0  0  0  0  0  0
    0.3671    2.2795    2.3801 H   0  0  0  0  0  0  0  0  0  0  0  0
    5.0333    0.0522    1.8427 H   0  0  0  0  0  0  0  0  0  0  0  0
    4.3476   -0.3620   -2.3998 H   0  0  0  0  0  0  0  0  0  0  0  0
   -1.7350    3.8852   -1.8192 H   0  0  0  0  0  0  0  0  0  0  0  0
   -1.0499    4.2989    2.4022 H   0  0  0  0  0  0  0  0  0  0  0  0
    7.4606    0.1850    1.4271 H   0  0  0  0  0  0  0  0  0  0  0  0
    6.7785   -0.2274   -2.7951 H   0  0  0  0  0  0  0  0  0  0  0  0
    8.3411    0.0458   -0.8878 H   0  0  0  0  0  0  0  0  0  0  0  0
  1 29  1  0  0  0  0
  2  7  1  0  0  0  0
  2 14  1  0  0  0  0
  3  8  1  0  0  0  0
  3 49  1  0  0  0  0
  4 14  2  0  0  0  0
  5 13  1  0  0  0  0
  5 18  2  0  0  0  0
  6  7  1  0  0  0  0
  6  8  1  0  0  0  0
  6 33  1  0  0  0  0
  6 34  1  0  0  0  0
  7 11  1  0  0  0  0
  7 35  1  0  0  0  0
  8  9  1  0  0  0  0
  8 36  1  0  0  0  0
  9 14  1  0  0  0  0
  9 37  1  0  0  0  0
  9 38  1  0  0  0  0
 10 13  2  0  0  0  0
 10 15  1  0  0  0  0
 10 16  1  0  0  0  0
 11 15  2  0  0  0  0
 11 39  1  0  0  0  0
 12 13  1  0  0  0  0
 12 19  1  0  0  0  0
 12 20  1  0  0  0  0
 12 40  1  0  0  0  0
 15 41  1  0  0  0  0
 16 17  2  0  0  0  0
 16 21  1  0  0  0  0
 17 18  1  0  0  0  0
 17 42  1  0  0  0  0
 18 22  1  0  0  0  0
 19 43  1  0  0  0  0
 19 44  1  0  0  0  0
 19 45  1  0  0  0  0
 20 46  1  0  0  0  0
 20 47  1  0  0  0  0
 20 48  1  0  0  0  0
 21 23  2  0  0  0  0
 21 24  1  0  0  0  0
 22 25  2  0  0  0  0
 22 26  1  0  0  0  0
 23 27  1  0  0  0  0
 23 50  1  0  0  0  0
 24 28  2  0  0  0  0
 24 51  1  0  0  0  0
 25 30  1  0  0  0  0
 25 52  1  0  0  0  0
 26 31  2  0  0  0  0
 26 53  1  0  0  0  0
 27 29  2  0  0  0  0
 27 54  1  0  0  0  0
 28 29  1  0  0  0  0
 28 55  1  0  0  0  0
 30 32  2  0  0  0  0
 30 56  1  0  0  0  0
 31 32  1  0  0  0  0
 31 57  1  0  0  0  0
 32 58  1  0  0  0  0
M  END
> <PUBCHEM_COMPOUND_CID>
5281970

> <PUBCHEM_CONFORMER_RMSD>
0.8

> <PUBCHEM_CONFORMER_DIVERSEORDER>
1
3
24
10
8
21
22
23
16
9
17
2
5
15
13
7
20
11
25
14
26
12
6
18
4
19

> <PUBCHEM_MMFF94_PARTIAL_CHARGES>
39
1 -0.19
10 0.03
11 -0.29
12 0.14
13 0.17
14 0.66
15 -0.18
17 -0.15
18 0.31
2 -0.43
23 -0.15
24 -0.15
25 -0.15
26 -0.15
27 -0.15
28 -0.15
29 0.19
3 -0.68
30 -0.15
31 -0.15
32 -0.15
39 0.15
4 -0.57
41 0.15
42 0.15
49 0.4
5 -0.62
50 0.15
51 0.15
52 0.15
53 0.15
54 0.15
55 0.15
56 0.15
57 0.15
58 0.15
7 0.42
8 0.28
9 0.06

> <PUBCHEM_EFFECTIVE_ROTOR_COUNT>
6

> <PUBCHEM_PHARMACOPHORE_FEATURES>
9
1 3 acceptor
1 3 donor
1 4 acceptor
1 5 acceptor
3 12 19 20 hydrophobe
6 2 6 7 8 9 14 rings
6 21 23 24 27 28 29 rings
6 22 25 26 30 31 32 rings
6 5 10 13 16 17 18 rings

> <PUBCHEM_HEAVY_ATOM_COUNT>
32

> <PUBCHEM_ATOM_DEF_STEREO_COUNT>
2

> <PUBCHEM_ATOM_UDEF_STEREO_COUNT>
0

> <PUBCHEM_BOND_DEF_STEREO_COUNT>
1

> <PUBCHEM_BOND_UDEF_STEREO_COUNT>
0

> <PUBCHEM_ISOTOPIC_ATOM_COUNT>
0

> <PUBCHEM_COMPONENT_COUNT>
1

> <PUBCHEM_CACTVS_TAUTO_COUNT>
2

> <PUBCHEM_CONFORMER_ID>
005098B200000001

> <PUBCHEM_MMFF94_ENERGY>
96.3755

> <PUBCHEM_FEATURE_SELFOVERLAP>
45.669

> <PUBCHEM_SHAPE_FINGERPRINT>
10050765 1 18193559102566252282
10190206 1 18339913905459014638
102385 1 18049721025073796918
10906281 52 18130213947601940515
10930396 42 18122935065717001688
11421498 54 18342742939623164171
11607047 74 16883591826738966947
11646440 116 18336818693642138275
12058002 1 17559083632223716918
12166972 35 17916864608268940725
12788726 201 18412547638957475746
13540713 5 18056480784533918826
13631057 29 18409733997123515812
13911987 19 18129927984785520566
14068700 675 18341332215071457868
14294032 229 18198900508126049588
14955137 171 18265891350613558339
15198563 99 18336260223398207356
15439362 3 17905613194651497969
16087824 20 18337391665020857265
16090146 7 17631431455035747850
18681886 176 18190470367760395179
19311894 1 18189904118876737887
21049683 271 18200028439730770749
21641784 216 18200865258021121148
22122407 14 15554149421039773334
23559900 14 18123764063098159995
249057 3 18335424518279833807
25147074 1 18057325196541985266
266924 87 18338513161609716814
283562 15 18411978087718344130
3178227 256 18198050396806651099
437815 12 18187087226458325437
469060 322 18271236209653862024

> <PUBCHEM_SHAPE_MULTIPOLES>
628.68
14.91
5.33
1.32
6.21
4.69
0.06
-6.51
-5.61
-5.45
1.54
0.76
-0.06
-0.27

> <PUBCHEM_SHAPE_SELFOVERLAP>
1368.848

> <PUBCHEM_SHAPE_VOLUME>
344.2

> <PUBCHEM_COORDINATE_TYPE>
2
5
10

$$$$

