13023
  -OEChem-06261207392D

 22 23  0     1  0  0  0  0  0999 V2000
    4.6783    0.4271    0.0000 C   0  0  3  0  0  0  0  0  0  0  0  0
    5.2619   -0.3776    0.0000 C   0  0  0  0  0  0  0  0  0  0  0  0
    4.6783   -1.1824    0.0000 C   0  0  0  0  0  0  0  0  0  0  0  0
    3.7320    0.1224    0.0000 C   0  0  0  0  0  0  0  0  0  0  0  0
    3.7320   -0.8776    0.0000 C   0  0  0  0  0  0  0  0  0  0  0  0
    4.9889    1.3776    0.0000 C   0  0  0  0  0  0  0  0  0  0  0  0
    2.8660    0.6224    0.0000 C   0  0  0  0  0  0  0  0  0  0  0  0
    2.8660   -1.3776    0.0000 C   0  0  0  0  0  0  0  0  0  0  0  0
    2.0000    0.1224    0.0000 C   0  0  0  0  0  0  0  0  0  0  0  0
    2.0000   -0.8776    0.0000 C   0  0  0  0  0  0  0  0  0  0  0  0
    5.2908    0.5233    0.0000 H   0  0  0  0  0  0  0  0  0  0  0  0
    5.7227   -0.7924    0.0000 H   0  0  0  0  0  0  0  0  0  0  0  0
    5.7227    0.0371    0.0000 H   0  0  0  0  0  0  0  0  0  0  0  0
    4.4272   -1.7493    0.0000 H   0  0  0  0  0  0  0  0  0  0  0  0
    5.2156   -1.4916    0.0000 H   0  0  0  0  0  0  0  0  0  0  0  0
    5.5783    1.1850    0.0000 H   0  0  0  0  0  0  0  0  0  0  0  0
    5.1815    1.9670    0.0000 H   0  0  0  0  0  0  0  0  0  0  0  0
    4.3996    1.5702    0.0000 H   0  0  0  0  0  0  0  0  0  0  0  0
    2.8660    1.2424    0.0000 H   0  0  0  0  0  0  0  0  0  0  0  0
    2.8660   -1.9976    0.0000 H   0  0  0  0  0  0  0  0  0  0  0  0
    1.4631    0.4324    0.0000 H   0  0  0  0  0  0  0  0  0  0  0  0
    1.4631   -1.1876    0.0000 H   0  0  0  0  0  0  0  0  0  0  0  0
  1  2  1  0  0  0  0
  1  4  1  0  0  0  0
  1  6  1  0  0  0  0
  1 11  1  0  0  0  0
  2  3  1  0  0  0  0
  2 12  1  0  0  0  0
  2 13  1  0  0  0  0
  3  5  1  0  0  0  0
  3 14  1  0  0  0  0
  3 15  1  0  0  0  0
  4  5  1  0  0  0  0
  4  7  2  0  0  0  0
  5  8  2  0  0  0  0
  6 16  1  0  0  0  0
  6 17  1  0  0  0  0
  6 18  1  0  0  0  0
  7  9  1  0  0  0  0
  7 19  1  0  0  0  0
  8 10  1  0  0  0  0
  8 20  1  0  0  0  0
  9 10  2  0  0  0  0
  9 21  1  0  0  0  0
 10 22  1  0  0  0  0
M  END
> <PUBCHEM_COMPOUND_CID>
13023

> <PUBCHEM_COMPOUND_CANONICALIZED>
1

> <PUBCHEM_CACTVS_COMPLEXITY>
117

> <PUBCHEM_CACTVS_HBOND_ACCEPTOR>
0

> <PUBCHEM_CACTVS_HBOND_DONOR>
0

> <PUBCHEM_CACTVS_ROTATABLE_BOND>
0

> <PUBCHEM_CACTVS_SUBSKEYS>
AAADccBwAAAAAAAAAAAAAAAAAAAAAYAAAAAwAAAAAAAAAGABAAAAGAAAAAAADQCAGAAyAIAAAACAAiBCAAACAAAgAAAIiAAAAIgIICKAERCAIAAggAAIiAcAgMAOgAAAAAAQAAAAAAAAACAAAQAACAAAAA==

> <PUBCHEM_IUPAC_OPENEYE_NAME>
1-methylindane

> <PUBCHEM_IUPAC_CAS_NAME>
1-methyl-2,3-dihydro-1H-indene

> <PUBCHEM_IUPAC_NAME>
1-methyl-2,3-dihydro-1H-indene

> <PUBCHEM_IUPAC_SYSTEMATIC_NAME>
1-methyl-2,3-dihydro-1H-indene

> <PUBCHEM_IUPAC_TRADITIONAL_NAME>
1-methylindane

> <PUBCHEM_IUPAC_INCHI>
InChI=1S/C10H12/c1-8-6-7-9-4-2-3-5-10(8)9/h2-5,8H,6-7H2,1H3

> <PUBCHEM_IUPAC_INCHIKEY>
FIPKSKMDTAQBDJ-UHFFFAOYSA-N

> <PUBCHEM_XLOGP3_AA>
3.1

> <PUBCHEM_EXACT_MASS>
132.0939

> <PUBCHEM_MOLECULAR_FORMULA>
C10H12

> <PUBCHEM_MOLECULAR_WEIGHT>
132.20228

> <PUBCHEM_OPENEYE_CAN_SMILES>
CC1CCC2=CC=CC=C12

> <PUBCHEM_OPENEYE_ISO_SMILES>
CC1CCC2=CC=CC=C12

> <PUBCHEM_CACTVS_TPSA>
0

> <PUBCHEM_MONOISOTOPIC_WEIGHT>
132.0939

> <PUBCHEM_TOTAL_CHARGE>
0

> <PUBCHEM_HEAVY_ATOM_COUNT>
10

> <PUBCHEM_ATOM_DEF_STEREO_COUNT>
0

> <PUBCHEM_ATOM_UDEF_STEREO_COUNT>
1

> <PUBCHEM_BOND_DEF_STEREO_COUNT>
0

> <PUBCHEM_BOND_UDEF_STEREO_COUNT>
0

> <PUBCHEM_ISOTOPIC_ATOM_COUNT>
0

> <PUBCHEM_COMPONENT_COUNT>
1

> <PUBCHEM_CACTVS_TAUTO_COUNT>
1

> <PUBCHEM_COORDINATE_TYPE>
1
5
255

> <PUBCHEM_BONDANNOTATIONS>
1  6  3
4  5  8
4  7  8
5  8  8
7  9  8
8  10  8
9  10  8

$$$$

