5460068
  -OEChem-07051212522D

 23 24  0     0  0  0  0  0  0999 V2000
    5.4804   -1.6692    0.0000 O   0  0  0  0  0  0  0  0  0  0  0  0
    7.2622   -0.6588    0.0000 O   0  0  0  0  0  0  0  0  0  0  0  0
    2.0000    1.3654    0.0000 O   0  0  0  0  0  0  0  0  0  0  0  0
    3.7320    1.3654    0.0000 N   0  0  0  0  0  0  0  0  0  0  0  0
    4.5981   -0.1346    0.0000 C   0  0  0  0  0  0  0  0  0  0  0  0
    4.5981    0.8654    0.0000 C   0  0  0  0  0  0  0  0  0  0  0  0
    3.7320   -0.6346    0.0000 C   0  0  0  0  0  0  0  0  0  0  0  0
    2.8660   -0.1346    0.0000 C   0  0  0  0  0  0  0  0  0  0  0  0
    5.4920   -0.6693    0.0000 C   0  0  0  0  0  0  0  0  0  0  0  0
    5.4920    1.4000    0.0000 C   0  0  0  0  0  0  0  0  0  0  0  0
    2.8660    0.8654    0.0000 C   0  0  0  0  0  0  0  0  0  0  0  0
    6.3981   -0.1554    0.0000 C   0  0  0  0  0  0  0  0  0  0  0  0
    6.3981    0.8862    0.0000 C   0  0  0  0  0  0  0  0  0  0  0  0
    2.0000   -0.6346    0.0000 C   0  0  0  0  0  0  0  0  0  0  0  0
    3.7320   -1.2546    0.0000 H   0  0  0  0  0  0  0  0  0  0  0  0
    3.7320    1.9854    0.0000 H   0  0  0  0  0  0  0  0  0  0  0  0
    5.4848    2.0200    0.0000 H   0  0  0  0  0  0  0  0  0  0  0  0
    6.9338    1.1983    0.0000 H   0  0  0  0  0  0  0  0  0  0  0  0
    1.6900   -0.0977    0.0000 H   0  0  0  0  0  0  0  0  0  0  0  0
    1.4631   -0.9446    0.0000 H   0  0  0  0  0  0  0  0  0  0  0  0
    2.3100   -1.1715    0.0000 H   0  0  0  0  0  0  0  0  0  0  0  0
    6.0138   -1.9854    0.0000 H   0  0  0  0  0  0  0  0  0  0  0  0
    7.8003   -0.3508    0.0000 H   0  0  0  0  0  0  0  0  0  0  0  0
  1  9  1  0  0  0  0
  1 22  1  0  0  0  0
  2 12  1  0  0  0  0
  2 23  1  0  0  0  0
  3 11  2  0  0  0  0
  4  6  1  0  0  0  0
  4 11  1  0  0  0  0
  4 16  1  0  0  0  0
  5  6  2  0  0  0  0
  5  7  1  0  0  0  0
  5  9  1  0  0  0  0
  6 10  1  0  0  0  0
  7  8  2  0  0  0  0
  7 15  1  0  0  0  0
  8 11  1  0  0  0  0
  8 14  1  0  0  0  0
  9 12  2  0  0  0  0
 10 13  2  0  0  0  0
 10 17  1  0  0  0  0
 12 13  1  0  0  0  0
 13 18  1  0  0  0  0
 14 19  1  0  0  0  0
 14 20  1  0  0  0  0
 14 21  1  0  0  0  0
M  END
> <PUBCHEM_COMPOUND_CID>
5460068

> <PUBCHEM_COMPOUND_CANONICALIZED>
1

> <PUBCHEM_CACTVS_COMPLEXITY>
287

> <PUBCHEM_CACTVS_HBOND_ACCEPTOR>
3

> <PUBCHEM_CACTVS_HBOND_DONOR>
3

> <PUBCHEM_CACTVS_ROTATABLE_BOND>
0

> <PUBCHEM_CACTVS_SUBSKEYS>
AAADccByMAAAAAAAAAAAAAAAAAAAAAAAAAAwQAAAAAAAAACBAAAAHgAQCAAADAyBmAAyxoLAAgCIAiVSUACCAAAhIgAIiAEG7MgJJiLCkZOEcAlm1BnJ2Yew0DMOAEABAgAKQAAAgAIEABSAAAAAAAAAAA==

> <PUBCHEM_IUPAC_OPENEYE_NAME>
5,6-dihydroxy-3-methyl-1H-quinolin-2-one

> <PUBCHEM_IUPAC_CAS_NAME>
5,6-dihydroxy-3-methyl-1H-quinolin-2-one

> <PUBCHEM_IUPAC_NAME>
5,6-dihydroxy-3-methyl-1H-quinolin-2-one

> <PUBCHEM_IUPAC_SYSTEMATIC_NAME>
3-methyl-5,6-bis(oxidanyl)-1H-quinolin-2-one

> <PUBCHEM_IUPAC_TRADITIONAL_NAME>
5,6-dihydroxy-3-methyl-carbostyril

> <PUBCHEM_IUPAC_INCHI>
InChI=1S/C10H9NO3/c1-5-4-6-7(11-10(5)14)2-3-8(12)9(6)13/h2-4,12-13H,1H3,(H,11,14)

> <PUBCHEM_IUPAC_INCHIKEY>
IYHQVDIUZANYNW-UHFFFAOYSA-N

> <PUBCHEM_XLOGP3_AA>
1

> <PUBCHEM_EXACT_MASS>
191.058243

> <PUBCHEM_MOLECULAR_FORMULA>
C10H9NO3

> <PUBCHEM_MOLECULAR_WEIGHT>
191.18336

> <PUBCHEM_OPENEYE_CAN_SMILES>
CC1=CC2=C(C=CC(=C2O)O)NC1=O

> <PUBCHEM_OPENEYE_ISO_SMILES>
CC1=CC2=C(C=CC(=C2O)O)NC1=O

> <PUBCHEM_CACTVS_TPSA>
69.6

> <PUBCHEM_MONOISOTOPIC_WEIGHT>
191.058243

> <PUBCHEM_TOTAL_CHARGE>
0

> <PUBCHEM_HEAVY_ATOM_COUNT>
14

> <PUBCHEM_ATOM_DEF_STEREO_COUNT>
0

> <PUBCHEM_ATOM_UDEF_STEREO_COUNT>
0

> <PUBCHEM_BOND_DEF_STEREO_COUNT>
0

> <PUBCHEM_BOND_UDEF_STEREO_COUNT>
0

> <PUBCHEM_ISOTOPIC_ATOM_COUNT>
0

> <PUBCHEM_COMPONENT_COUNT>
1

> <PUBCHEM_CACTVS_TAUTO_COUNT>
78

> <PUBCHEM_COORDINATE_TYPE>
1
5
255

> <PUBCHEM_BONDANNOTATIONS>
10  13  8
12  13  8
4  11  8
4  6  8
5  6  8
5  7  8
5  9  8
6  10  8
7  8  8
8  11  8
9  12  8

$$$$

