442643
  -OEChem-07051212583D

 46 47  0     1  0  0  0  0  0999 V2000
   -2.9403    1.5859   -0.0871 O   0  0  0  0  0  0  0  0  0  0  0  0
    2.3311   -2.1052    0.0555 O   0  0  0  0  0  0  0  0  0  0  0  0
   -1.5524   -0.4878    0.9490 N   0  0  2  0  0  0  0  0  0  0  0  0
   -2.7297   -1.2856    0.5040 C   0  0  1  0  0  0  0  0  0  0  0  0
   -0.2842   -1.0570    0.4284 C   0  0  1  0  0  0  0  0  0  0  0  0
   -4.0178   -0.4571    0.6372 C   0  0  0  0  0  0  0  0  0  0  0  0
   -0.2991   -1.0547   -1.1161 C   0  0  0  0  0  0  0  0  0  0  0  0
    0.9703   -0.2976    0.8866 C   0  0  0  0  0  0  0  0  0  0  0  0
   -2.6516   -1.7672   -0.9287 C   0  0  0  0  0  0  0  0  0  0  0  0
   -4.0505    0.7254   -0.3295 C   0  0  1  0  0  0  0  0  0  0  0  0
   -1.5518   -1.6395   -1.6775 C   0  0  0  0  0  0  0  0  0  0  0  0
   -1.5301   -0.3702    2.4132 C   0  0  0  0  0  0  0  0  0  0  0  0
   -5.3405    1.5305   -0.1372 C   0  0  0  0  0  0  0  0  0  0  0  0
    2.2346   -0.9088    0.3193 C   0  0  0  0  0  0  0  0  0  0  0  0
   -5.4052    2.7472   -1.0516 C   0  0  0  0  0  0  0  0  0  0  0  0
    3.4028   -0.0118    0.0768 C   0  0  0  0  0  0  0  0  0  0  0  0
    3.5650    1.0913    0.8832 C   0  0  0  0  0  0  0  0  0  0  0  0
    4.2722   -0.3233   -0.9433 C   0  0  0  0  0  0  0  0  0  0  0  0
    4.6568    1.9295    0.6568 C   0  0  0  0  0  0  0  0  0  0  0  0
    5.3641    0.5148   -1.1696 C   0  0  0  0  0  0  0  0  0  0  0  0
    5.5563    1.6412   -0.3694 C   0  0  0  0  0  0  0  0  0  0  0  0
   -2.8198   -2.1817    1.1335 H   0  0  0  0  0  0  0  0  0  0  0  0
   -0.2017   -2.0989    0.7733 H   0  0  0  0  0  0  0  0  0  0  0  0
   -4.1549   -0.1048    1.6645 H   0  0  0  0  0  0  0  0  0  0  0  0
   -4.8826   -1.1046    0.4350 H   0  0  0  0  0  0  0  0  0  0  0  0
    0.5304   -1.6462   -1.5160 H   0  0  0  0  0  0  0  0  0  0  0  0
   -0.1866   -0.0359   -1.5086 H   0  0  0  0  0  0  0  0  0  0  0  0
    1.0814   -0.3370    1.9754 H   0  0  0  0  0  0  0  0  0  0  0  0
    0.8860    0.7511    0.5779 H   0  0  0  0  0  0  0  0  0  0  0  0
   -3.5297   -2.2393   -1.3618 H   0  0  0  0  0  0  0  0  0  0  0  0
   -4.0055    0.4010   -1.3748 H   0  0  0  0  0  0  0  0  0  0  0  0
   -1.5541   -1.9777   -2.7086 H   0  0  0  0  0  0  0  0  0  0  0  0
   -1.3096   -1.3292    2.8958 H   0  0  0  0  0  0  0  0  0  0  0  0
   -2.4741    0.0006    2.8200 H   0  0  0  0  0  0  0  0  0  0  0  0
   -0.7881    0.3664    2.7368 H   0  0  0  0  0  0  0  0  0  0  0  0
   -5.4080    1.8852    0.8987 H   0  0  0  0  0  0  0  0  0  0  0  0
   -6.2109    0.8911   -0.3248 H   0  0  0  0  0  0  0  0  0  0  0  0
   -6.3568    3.2705   -0.9140 H   0  0  0  0  0  0  0  0  0  0  0  0
   -4.6001    3.4559   -0.8345 H   0  0  0  0  0  0  0  0  0  0  0  0
   -5.3305    2.4510   -2.1028 H   0  0  0  0  0  0  0  0  0  0  0  0
   -2.1386    1.1320   -0.3949 H   0  0  0  0  0  0  0  0  0  0  0  0
    2.8915    1.3284    1.7001 H   0  0  0  0  0  0  0  0  0  0  0  0
    4.1313   -1.1936   -1.5768 H   0  0  0  0  0  0  0  0  0  0  0  0
    4.8092    2.8043    1.2823 H   0  0  0  0  0  0  0  0  0  0  0  0
    6.0640    0.2912   -1.9694 H   0  0  0  0  0  0  0  0  0  0  0  0
    6.4068    2.2933   -0.5451 H   0  0  0  0  0  0  0  0  0  0  0  0
  1 10  1  0  0  0  0
  1 41  1  0  0  0  0
  2 14  2  0  0  0  0
  3  4  1  0  0  0  0
  3  5  1  0  0  0  0
  3 12  1  0  0  0  0
  4  6  1  0  0  0  0
  4  9  1  0  0  0  0
  4 22  1  0  0  0  0
  5  7  1  0  0  0  0
  5  8  1  0  0  0  0
  5 23  1  0  0  0  0
  6 10  1  0  0  0  0
  6 24  1  0  0  0  0
  6 25  1  0  0  0  0
  7 11  1  0  0  0  0
  7 26  1  0  0  0  0
  7 27  1  0  0  0  0
  8 14  1  0  0  0  0
  8 28  1  0  0  0  0
  8 29  1  0  0  0  0
  9 11  2  0  0  0  0
  9 30  1  0  0  0  0
 10 13  1  0  0  0  0
 10 31  1  0  0  0  0
 11 32  1  0  0  0  0
 12 33  1  0  0  0  0
 12 34  1  0  0  0  0
 12 35  1  0  0  0  0
 13 15  1  0  0  0  0
 13 36  1  0  0  0  0
 13 37  1  0  0  0  0
 14 16  1  0  0  0  0
 15 38  1  0  0  0  0
 15 39  1  0  0  0  0
 15 40  1  0  0  0  0
 16 17  2  0  0  0  0
 16 18  1  0  0  0  0
 17 19  1  0  0  0  0
 17 42  1  0  0  0  0
 18 20  2  0  0  0  0
 18 43  1  0  0  0  0
 19 21  2  0  0  0  0
 19 44  1  0  0  0  0
 20 21  1  0  0  0  0
 20 45  1  0  0  0  0
 21 46  1  0  0  0  0
M  END
> <PUBCHEM_COMPOUND_CID>
442643

> <PUBCHEM_CONFORMER_RMSD>
0.8

> <PUBCHEM_CONFORMER_DIVERSEORDER>
1
67
55
85
104
134
133
103
54
131
13
69
40
20
98
117
139
11
125
64
90
62
127
114
110
119
106
108
101
100
73
57
4
116
132
23
30
26
130
94
137
63
43
35
25
135
87
5
99
123
93
38
92
77
129
17
45
51
32
70
126
21
7
41
49
66
15
128
19
9
89
34
46
140
27
8
81
18
105
47
3
65
82
29
97
53
120
96
91
22
75
71
42
37
118
33
138
58
102
115
60
72
107
111
44
12
61
28
109
121
31
83
76
6
50
56
52
59
74
48
14
136
36
78
2
88
39
84
124
68
86
79
24
80
16
113
112
10
122
95

> <PUBCHEM_MMFF94_PARTIAL_CHARGES>
26
1 -0.68
10 0.28
11 -0.29
12 0.27
14 0.42
16 0.09
17 -0.15
18 -0.15
19 -0.15
2 -0.57
20 -0.15
21 -0.15
3 -0.81
30 0.15
32 0.15
4 0.41
41 0.4
42 0.15
43 0.15
44 0.15
45 0.15
46 0.15
5 0.27
7 0.14
8 0.06
9 -0.29

> <PUBCHEM_EFFECTIVE_ROTOR_COUNT>
6.8

> <PUBCHEM_PHARMACOPHORE_FEATURES>
7
1 1 acceptor
1 1 donor
1 15 hydrophobe
1 2 acceptor
1 3 cation
6 16 17 18 19 20 21 rings
6 3 4 5 7 9 11 rings

> <PUBCHEM_HEAVY_ATOM_COUNT>
21

> <PUBCHEM_ATOM_DEF_STEREO_COUNT>
2

> <PUBCHEM_ATOM_UDEF_STEREO_COUNT>
1

> <PUBCHEM_BOND_DEF_STEREO_COUNT>
0

> <PUBCHEM_BOND_UDEF_STEREO_COUNT>
0

> <PUBCHEM_ISOTOPIC_ATOM_COUNT>
0

> <PUBCHEM_COMPONENT_COUNT>
1

> <PUBCHEM_CACTVS_TAUTO_COUNT>
2

> <PUBCHEM_CONFORMER_ID>
0006C11300000001

> <PUBCHEM_MMFF94_ENERGY>
47.3634

> <PUBCHEM_FEATURE_SELFOVERLAP>
35.52

> <PUBCHEM_SHAPE_FINGERPRINT>
10014705 185 18334295335946714875
10498660 4 18187082832606372896
105312 117 18186803586743861599
11595378 159 16558478577150637780
11796584 16 7925629973688886845
11961588 58 18339379534365829549
12555020 224 16660355995980402494
12596602 18 15769769152530689569
12633257 1 16200431325827183076
12788726 201 17241043335527007769
12969540 114 18259993686195586125
13583140 156 18410846642882550707
1420 369 9727633925145902092
14216079 64 7997672213694102461
14251751 18 8142082056961569940
14251764 30 7131845315275615925
14341114 328 15984819286449197716
14739800 52 18130803285929666665
14848178 5 8286193959614427661
15163728 17 18117549837778155869
15209294 21 17346600794136976739
15238133 3 18131639997662842408
17959699 21 18408323259501732552
19784866 240 7925916992898437058
19862831 5 17530683191169950682
200 152 5039957346771779262
20645477 56 18411978066359636427
20645477 70 17095787859915466350
20775438 99 14059866917491674877
20871999 31 17677058932034250591
21033648 29 18337676321597130832
21637258 2 8213848259665928737
22289505 5 18261108582902806676
22393880 68 18041285374481074486
23227448 37 18335985251085416885
23379529 103 4965884413004278189
23402655 69 18040427768644217474
23559900 14 18192436487439427611
25122255 55 8935003697832732117
26918003 58 10447937143633778242
2838139 119 18339372975560768317
2916195 48 18131631218760095601
4028521 119 18187361004695022242
5104073 3 17489590081868127963
56616090 284 15647058157470393967
633830 44 18202003192768996778
7237137 82 17676776357904439615
76465 3 7420943175266146639
960060 61 15140957353394121292

> <PUBCHEM_SHAPE_MULTIPOLES>
415.45
13.06
2.31
1.5
4.4
0.9
0.34
10.24
-3.09
-1.83
-0.65
-0.44
-0.26
0.87

> <PUBCHEM_SHAPE_SELFOVERLAP>
856.052

> <PUBCHEM_SHAPE_VOLUME>
238.3

> <PUBCHEM_COORDINATE_TYPE>
2
5
10

$$$$

