5281698
  -OEChem-07051212592D

 35 37  0     0  0  0  0  0  0999 V2000
    6.3301    0.6154    0.0000 O   0  0  0  0  0  0  0  0  0  0  0  0
    8.0785    1.6500    0.0000 O   0  0  0  0  0  0  0  0  0  0  0  0
    4.5981   -1.3846    0.0000 O   0  0  0  0  0  0  0  0  0  0  0  0
    8.0785   -2.4192    0.0000 O   0  0  0  0  0  0  0  0  0  0  0  0
    9.8602    0.6395    0.0000 O   0  0  0  0  0  0  0  0  0  0  0  0
    6.3301   -2.3846    0.0000 O   0  0  0  0  0  0  0  0  0  0  0  0
    2.0000    2.1154    0.0000 O   0  0  0  0  0  0  0  0  0  0  0  0
    7.1962   -0.8846    0.0000 C   0  0  0  0  0  0  0  0  0  0  0  0
    7.1962    0.1154    0.0000 C   0  0  0  0  0  0  0  0  0  0  0  0
    5.4641    0.1154    0.0000 C   0  0  0  0  0  0  0  0  0  0  0  0
    8.0901    0.6501    0.0000 C   0  0  0  0  0  0  0  0  0  0  0  0
    6.3301   -1.3846    0.0000 C   0  0  0  0  0  0  0  0  0  0  0  0
    5.4641   -0.8846    0.0000 C   0  0  0  0  0  0  0  0  0  0  0  0
    8.0901   -1.4193    0.0000 C   0  0  0  0  0  0  0  0  0  0  0  0
    4.5981    0.6154    0.0000 C   0  0  0  0  0  0  0  0  0  0  0  0
    8.9962    0.1362    0.0000 C   0  0  0  0  0  0  0  0  0  0  0  0
    8.9962   -0.9054    0.0000 C   0  0  0  0  0  0  0  0  0  0  0  0
    4.5981    1.6154    0.0000 C   0  0  0  0  0  0  0  0  0  0  0  0
    3.7320    0.1154    0.0000 C   0  0  0  0  0  0  0  0  0  0  0  0
    3.7320    2.1154    0.0000 C   0  0  0  0  0  0  0  0  0  0  0  0
    2.8660    0.6154    0.0000 C   0  0  0  0  0  0  0  0  0  0  0  0
    2.8660    1.6154    0.0000 C   0  0  0  0  0  0  0  0  0  0  0  0
    8.9387    2.1600    0.0000 C   0  0  0  0  0  0  0  0  0  0  0  0
    9.5319   -1.2175    0.0000 H   0  0  0  0  0  0  0  0  0  0  0  0
    5.1350    1.9254    0.0000 H   0  0  0  0  0  0  0  0  0  0  0  0
    3.7320   -0.5046    0.0000 H   0  0  0  0  0  0  0  0  0  0  0  0
    3.7320    2.7354    0.0000 H   0  0  0  0  0  0  0  0  0  0  0  0
    2.3291    0.3054    0.0000 H   0  0  0  0  0  0  0  0  0  0  0  0
    4.5981   -2.0046    0.0000 H   0  0  0  0  0  0  0  0  0  0  0  0
    8.6118   -2.7354    0.0000 H   0  0  0  0  0  0  0  0  0  0  0  0
   10.3984    0.3316    0.0000 H   0  0  0  0  0  0  0  0  0  0  0  0
    9.2549    1.6266    0.0000 H   0  0  0  0  0  0  0  0  0  0  0  0
    9.4720    2.4762    0.0000 H   0  0  0  0  0  0  0  0  0  0  0  0
    8.6225    2.6933    0.0000 H   0  0  0  0  0  0  0  0  0  0  0  0
    2.0000    2.7354    0.0000 H   0  0  0  0  0  0  0  0  0  0  0  0
  1  9  1  0  0  0  0
  1 10  1  0  0  0  0
  2 11  1  0  0  0  0
  2 23  1  0  0  0  0
  3 13  1  0  0  0  0
  3 29  1  0  0  0  0
  4 14  1  0  0  0  0
  4 30  1  0  0  0  0
  5 16  1  0  0  0  0
  5 31  1  0  0  0  0
  6 12  2  0  0  0  0
  7 22  1  0  0  0  0
  7 35  1  0  0  0  0
  8  9  2  0  0  0  0
  8 12  1  0  0  0  0
  8 14  1  0  0  0  0
  9 11  1  0  0  0  0
 10 13  2  0  0  0  0
 10 15  1  0  0  0  0
 11 16  2  0  0  0  0
 12 13  1  0  0  0  0
 14 17  2  0  0  0  0
 15 18  2  0  0  0  0
 15 19  1  0  0  0  0
 16 17  1  0  0  0  0
 17 24  1  0  0  0  0
 18 20  1  0  0  0  0
 18 25  1  0  0  0  0
 19 21  2  0  0  0  0
 19 26  1  0  0  0  0
 20 22  2  0  0  0  0
 20 27  1  0  0  0  0
 21 22  1  0  0  0  0
 21 28  1  0  0  0  0
 23 32  1  0  0  0  0
 23 33  1  0  0  0  0
 23 34  1  0  0  0  0
M  END
> <PUBCHEM_COMPOUND_CID>
5281698

> <PUBCHEM_COMPOUND_CANONICALIZED>
1

> <PUBCHEM_CACTVS_COMPLEXITY>
495

> <PUBCHEM_CACTVS_HBOND_ACCEPTOR>
7

> <PUBCHEM_CACTVS_HBOND_DONOR>
4

> <PUBCHEM_CACTVS_ROTATABLE_BOND>
2

> <PUBCHEM_CACTVS_SUBSKEYS>
AAADccB4OAAAAAAAAAAAAAAAAAAAAAAAAAAwYIAAAAAAAACBQAAAGgAACAAADASAmAIyBoAABgCIAqBSAAICCAAkIAAIiAFGiMgNJzaGNRqCeWOl4BULuQfK7LzOIQABCAAIQABCAAIQABCAAAAAAAAAAA==

> <PUBCHEM_IUPAC_OPENEYE_NAME>
3,5,7-trihydroxy-2-(4-hydroxyphenyl)-8-methoxy-chromen-4-one

> <PUBCHEM_IUPAC_CAS_NAME>
3,5,7-trihydroxy-2-(4-hydroxyphenyl)-8-methoxy-1-benzopyran-4-one

> <PUBCHEM_IUPAC_NAME>
3,5,7-trihydroxy-2-(4-hydroxyphenyl)-8-methoxychromen-4-one

> <PUBCHEM_IUPAC_SYSTEMATIC_NAME>
2-(4-hydroxyphenyl)-8-methoxy-3,5,7-tris(oxidanyl)chromen-4-one

> <PUBCHEM_IUPAC_TRADITIONAL_NAME>
3,5,7-trihydroxy-2-(4-hydroxyphenyl)-8-methoxy-chromone

> <PUBCHEM_IUPAC_INCHI>
InChI=1S/C16H12O7/c1-22-15-10(19)6-9(18)11-12(20)13(21)14(23-16(11)15)7-2-4-8(17)5-3-7/h2-6,17-19,21H,1H3

> <PUBCHEM_IUPAC_INCHIKEY>
AZFYHRHUTXBGJS-UHFFFAOYSA-N

> <PUBCHEM_XLOGP3_AA>
2.5

> <PUBCHEM_EXACT_MASS>
316.058303

> <PUBCHEM_MOLECULAR_FORMULA>
C16H12O7

> <PUBCHEM_MOLECULAR_WEIGHT>
316.26228

> <PUBCHEM_OPENEYE_CAN_SMILES>
COC1=C(C=C(C2=C1OC(=C(C2=O)O)C3=CC=C(C=C3)O)O)O

> <PUBCHEM_OPENEYE_ISO_SMILES>
COC1=C(C=C(C2=C1OC(=C(C2=O)O)C3=CC=C(C=C3)O)O)O

> <PUBCHEM_CACTVS_TPSA>
116

> <PUBCHEM_MONOISOTOPIC_WEIGHT>
316.058303

> <PUBCHEM_TOTAL_CHARGE>
0

> <PUBCHEM_HEAVY_ATOM_COUNT>
23

> <PUBCHEM_ATOM_DEF_STEREO_COUNT>
0

> <PUBCHEM_ATOM_UDEF_STEREO_COUNT>
0

> <PUBCHEM_BOND_DEF_STEREO_COUNT>
0

> <PUBCHEM_BOND_UDEF_STEREO_COUNT>
0

> <PUBCHEM_ISOTOPIC_ATOM_COUNT>
0

> <PUBCHEM_COMPONENT_COUNT>
1

> <PUBCHEM_CACTVS_TAUTO_COUNT>
126

> <PUBCHEM_COORDINATE_TYPE>
1
5
255

> <PUBCHEM_BONDANNOTATIONS>
1  10  8
1  9  8
10  13  8
11  16  8
12  13  8
14  17  8
15  18  8
15  19  8
16  17  8
18  20  8
19  21  8
20  22  8
21  22  8
8  12  8
8  14  8
8  9  8
9  11  8

$$$$

