443731
  -OEChem-07051213033D

 38 42  0     1  0  0  0  0  0999 V2000
   -4.0197    1.3167    0.2977 O   0  0  0  0  0  0  0  0  0  0  0  0
   -4.2926   -0.9922   -0.3333 O   0  0  0  0  0  0  0  0  0  0  0  0
    1.8412   -1.1863   -0.3073 N   0  0  1  0  0  0  0  0  0  0  0  0
    1.9574   -0.1547    0.7280 C   0  0  1  0  0  0  0  0  0  0  0  0
    3.4270    0.2423    0.6003 C   0  0  1  0  0  0  0  0  0  0  0  0
    0.9338    0.9677    0.4994 C   0  0  1  0  0  0  0  0  0  0  0  0
    4.1150   -1.1103    0.3758 C   0  0  0  0  0  0  0  0  0  0  0  0
    3.7130    1.2009   -0.5634 C   0  0  0  0  0  0  0  0  0  0  0  0
    3.0209   -2.0405   -0.1591 C   0  0  0  0  0  0  0  0  0  0  0  0
    1.3075    1.8916   -0.6726 C   0  0  0  0  0  0  0  0  0  0  0  0
    2.7485    2.3777   -0.5697 C   0  0  0  0  0  0  0  0  0  0  0  0
   -0.4576    0.3861    0.2824 C   0  0  0  0  0  0  0  0  0  0  0  0
    0.5741   -1.9060   -0.1966 C   0  0  0  0  0  0  0  0  0  0  0  0
   -0.6199   -0.9767   -0.0961 C   0  0  0  0  0  0  0  0  0  0  0  0
   -1.5854    1.2117    0.4298 C   0  0  0  0  0  0  0  0  0  0  0  0
   -1.9057   -1.4989   -0.3121 C   0  0  0  0  0  0  0  0  0  0  0  0
   -2.8298    0.6627    0.2005 C   0  0  0  0  0  0  0  0  0  0  0  0
   -2.9854   -0.6539   -0.1609 C   0  0  0  0  0  0  0  0  0  0  0  0
   -4.9423    0.2620   -0.0427 C   0  0  0  0  0  0  0  0  0  0  0  0
    1.7923   -0.6022    1.7208 H   0  0  0  0  0  0  0  0  0  0  0  0
    3.7798    0.7043    1.5303 H   0  0  0  0  0  0  0  0  0  0  0  0
    0.9097    1.5716    1.4175 H   0  0  0  0  0  0  0  0  0  0  0  0
    4.4902   -1.4992    1.3302 H   0  0  0  0  0  0  0  0  0  0  0  0
    4.9645   -1.0404   -0.3118 H   0  0  0  0  0  0  0  0  0  0  0  0
    3.6423    0.6769   -1.5255 H   0  0  0  0  0  0  0  0  0  0  0  0
    4.7433    1.5689   -0.4879 H   0  0  0  0  0  0  0  0  0  0  0  0
    3.3060   -2.4798   -1.1202 H   0  0  0  0  0  0  0  0  0  0  0  0
    2.8607   -2.8562    0.5566 H   0  0  0  0  0  0  0  0  0  0  0  0
    0.6399    2.7619   -0.6945 H   0  0  0  0  0  0  0  0  0  0  0  0
    1.1668    1.3735   -1.6307 H   0  0  0  0  0  0  0  0  0  0  0  0
    2.9755    3.0330   -1.4182 H   0  0  0  0  0  0  0  0  0  0  0  0
    2.8781    2.9738    0.3415 H   0  0  0  0  0  0  0  0  0  0  0  0
    0.5640   -2.5514    0.6918 H   0  0  0  0  0  0  0  0  0  0  0  0
    0.4566   -2.5433   -1.0812 H   0  0  0  0  0  0  0  0  0  0  0  0
   -1.4839    2.2539    0.7144 H   0  0  0  0  0  0  0  0  0  0  0  0
   -2.0491   -2.5394   -0.5847 H   0  0  0  0  0  0  0  0  0  0  0  0
   -5.5193    0.5705   -0.9221 H   0  0  0  0  0  0  0  0  0  0  0  0
   -5.6316    0.1141    0.7965 H   0  0  0  0  0  0  0  0  0  0  0  0
  1 17  1  0  0  0  0
  1 19  1  0  0  0  0
  2 18  1  0  0  0  0
  2 19  1  0  0  0  0
  3  4  1  0  0  0  0
  3  9  1  0  0  0  0
  3 13  1  0  0  0  0
  4  5  1  0  0  0  0
  4  6  1  0  0  0  0
  4 20  1  0  0  0  0
  5  7  1  0  0  0  0
  5  8  1  0  0  0  0
  5 21  1  0  0  0  0
  6 10  1  0  0  0  0
  6 12  1  0  0  0  0
  6 22  1  0  0  0  0
  7  9  1  0  0  0  0
  7 23  1  0  0  0  0
  7 24  1  0  0  0  0
  8 11  1  0  0  0  0
  8 25  1  0  0  0  0
  8 26  1  0  0  0  0
  9 27  1  0  0  0  0
  9 28  1  0  0  0  0
 10 11  1  0  0  0  0
 10 29  1  0  0  0  0
 10 30  1  0  0  0  0
 11 31  1  0  0  0  0
 11 32  1  0  0  0  0
 12 14  1  0  0  0  0
 12 15  2  0  0  0  0
 13 14  1  0  0  0  0
 13 33  1  0  0  0  0
 13 34  1  0  0  0  0
 14 16  2  0  0  0  0
 15 17  1  0  0  0  0
 15 35  1  0  0  0  0
 16 18  1  0  0  0  0
 16 36  1  0  0  0  0
 17 18  2  0  0  0  0
 19 37  1  0  0  0  0
 19 38  1  0  0  0  0
M  END
> <PUBCHEM_COMPOUND_CID>
443731

> <PUBCHEM_CONFORMER_RMSD>
0.6

> <PUBCHEM_CONFORMER_DIVERSEORDER>
1
2

> <PUBCHEM_MMFF94_PARTIAL_CHARGES>
16
1 -0.36
12 -0.14
13 0.41
14 -0.14
15 -0.15
16 -0.15
17 0.08
18 0.08
19 0.56
2 -0.36
3 -0.81
35 0.15
36 0.15
4 0.27
6 0.14
9 0.27

> <PUBCHEM_EFFECTIVE_ROTOR_COUNT>
1.8

> <PUBCHEM_PHARMACOPHORE_FEATURES>
8
1 1 acceptor
1 2 acceptor
1 3 cation
5 1 2 17 18 19 rings
5 3 4 5 7 9 rings
6 12 14 15 16 17 18 rings
6 3 4 6 12 13 14 rings
6 4 5 6 8 10 11 rings

> <PUBCHEM_HEAVY_ATOM_COUNT>
19

> <PUBCHEM_ATOM_DEF_STEREO_COUNT>
2

> <PUBCHEM_ATOM_UDEF_STEREO_COUNT>
1

> <PUBCHEM_BOND_DEF_STEREO_COUNT>
0

> <PUBCHEM_BOND_UDEF_STEREO_COUNT>
0

> <PUBCHEM_ISOTOPIC_ATOM_COUNT>
0

> <PUBCHEM_COMPONENT_COUNT>
1

> <PUBCHEM_CACTVS_TAUTO_COUNT>
1

> <PUBCHEM_CONFORMER_ID>
0006C55300000001

> <PUBCHEM_MMFF94_ENERGY>
48.3062

> <PUBCHEM_FEATURE_SELFOVERLAP>
41.079

> <PUBCHEM_SHAPE_FINGERPRINT>
10062212 137 18333740112982538823
10616163 171 18264767653840491175
10967382 1 18410292484626495800
11132069 177 18335990834426909170
11471102 20 18412266133726005006
116883 192 18267302221653283628
12236239 1 18259704497204274056
13140716 1 18338522932470210122
13583140 156 17346609568813347371
14115302 16 18259703384812999776
14181834 199 18343291570582615612
14251717 144 18411702088529575430
15196674 1 18408886239345806099
15442244 35 18338233885529414360
15536298 74 18334012800324046142
1601671 61 18412261736070124508
16945 1 18265614269556936666
17492 89 18410292484611671975
1813 80 17703227451168532030
18186145 218 17704077286976520739
18681886 176 18261678074022594872
200 152 18040724671059098175
20559304 39 18409167697327400376
20612939 158 18343299262462925668
20645477 70 18342177769181914035
20715895 44 18049727614128667873
21267235 1 18408878563996953826
21501502 16 18338518534339328647
221490 88 18341886355619453027
2255824 54 18343864424757170402
22854114 111 18341330020015608284
23402539 116 18335150829060472102
23463225 33 18410576197281148200
23559900 14 18334859471580622374
2748010 2 17328863708749195078
296302 2 17846778477265838868
335352 9 18337954622334202431
350125 39 18410009974346915225
4409770 3 16759446470983419014
474 4 17774156782534841612
5104073 3 18409729556258805163
537710 114 18333448733473562137
543358 83 18410568517827089808
633830 44 17988926682400681243
69090 78 18260274061681891183
7364860 26 18336547123345269504
77779 3 18411699876885077641
7832392 63 18338517413790668908
8272917 22 18410568504841909303
84936 182 18118120264974857776
9709674 26 18410288099449666459
9981440 41 17548141030690661128
9999458 23 18131068250972696814

> <PUBCHEM_SHAPE_MULTIPOLES>
374.29
8.36
2.22
0.77
5.62
0.12
-0.01
0.25
0.08
-1.54
0.39
-0.26
0.1
-0.63

> <PUBCHEM_SHAPE_SELFOVERLAP>
840.533

> <PUBCHEM_SHAPE_VOLUME>
197.9

> <PUBCHEM_COORDINATE_TYPE>
2
5
10

$$$$

