854037
  -OEChem-06241222473D

 38 41  0     1  0  0  0  0  0999 V2000
    0.8648   -0.7416   -1.9931 O   0  0  0  0  0  0  0  0  0  0  0  0
   -0.0909   -3.1684    1.6582 O   0  0  0  0  0  0  0  0  0  0  0  0
    0.1834   -1.4637    0.0614 N   0  0  0  0  0  0  0  0  0  0  0  0
    1.2639   -0.7896   -0.6104 C   0  0  1  0  0  0  0  0  0  0  0  0
   -1.0206   -1.4869   -0.7307 C   0  0  2  0  0  0  0  0  0  0  0  0
    2.4296   -1.7461   -0.3582 C   0  0  0  0  0  0  0  0  0  0  0  0
    2.1057   -2.3371    1.0215 C   0  0  0  0  0  0  0  0  0  0  0  0
   -0.3964   -1.4424   -2.1242 C   0  0  0  0  0  0  0  0  0  0  0  0
    0.5948   -2.4060    0.9962 C   0  0  0  0  0  0  0  0  0  0  0  0
    1.5546    0.6193   -0.1171 C   0  0  0  0  0  0  0  0  0  0  0  0
   -1.9518   -0.3580   -0.3452 C   0  0  0  0  0  0  0  0  0  0  0  0
    2.1531    1.5498   -0.9688 C   0  0  0  0  0  0  0  0  0  0  0  0
    1.2241    0.9862    1.1889 C   0  0  0  0  0  0  0  0  0  0  0  0
   -2.9969   -0.5893    0.5501 C   0  0  0  0  0  0  0  0  0  0  0  0
   -1.7667    0.9157   -0.8844 C   0  0  0  0  0  0  0  0  0  0  0  0
    2.4198    2.8421   -0.5166 C   0  0  0  0  0  0  0  0  0  0  0  0
    1.4908    2.2784    1.6412 C   0  0  0  0  0  0  0  0  0  0  0  0
   -3.8553    0.4511    0.9055 C   0  0  0  0  0  0  0  0  0  0  0  0
   -2.6251    1.9561   -0.5290 C   0  0  0  0  0  0  0  0  0  0  0  0
    2.0886    3.2064    0.7885 C   0  0  0  0  0  0  0  0  0  0  0  0
   -3.6694    1.7239    0.3660 C   0  0  0  0  0  0  0  0  0  0  0  0
   -1.5463   -2.4406   -0.5995 H   0  0  0  0  0  0  0  0  0  0  0  0
    3.4140   -1.2676   -0.3799 H   0  0  0  0  0  0  0  0  0  0  0  0
    2.4388   -2.5469   -1.1093 H   0  0  0  0  0  0  0  0  0  0  0  0
    2.4309   -1.6887    1.8399 H   0  0  0  0  0  0  0  0  0  0  0  0
    2.5386   -3.3335    1.1391 H   0  0  0  0  0  0  0  0  0  0  0  0
   -0.1517   -2.4550   -2.4667 H   0  0  0  0  0  0  0  0  0  0  0  0
   -1.0144   -0.9644   -2.8899 H   0  0  0  0  0  0  0  0  0  0  0  0
    2.4278    1.2839   -1.9860 H   0  0  0  0  0  0  0  0  0  0  0  0
    0.7585    0.2919    1.8815 H   0  0  0  0  0  0  0  0  0  0  0  0
   -3.1510   -1.5755    0.9798 H   0  0  0  0  0  0  0  0  0  0  0  0
   -0.9729    1.1327   -1.5913 H   0  0  0  0  0  0  0  0  0  0  0  0
    2.8873    3.5640   -1.1797 H   0  0  0  0  0  0  0  0  0  0  0  0
    1.2330    2.5625    2.6573 H   0  0  0  0  0  0  0  0  0  0  0  0
   -4.6680    0.2705    1.6029 H   0  0  0  0  0  0  0  0  0  0  0  0
   -2.4815    2.9468   -0.9504 H   0  0  0  0  0  0  0  0  0  0  0  0
    2.2966    4.2124    1.1408 H   0  0  0  0  0  0  0  0  0  0  0  0
   -4.3379    2.5340    0.6426 H   0  0  0  0  0  0  0  0  0  0  0  0
  1  4  1  0  0  0  0
  1  8  1  0  0  0  0
  2  9  2  0  0  0  0
  3  4  1  0  0  0  0
  3  5  1  0  0  0  0
  3  9  1  0  0  0  0
  4  6  1  0  0  0  0
  4 10  1  0  0  0  0
  5  8  1  0  0  0  0
  5 11  1  0  0  0  0
  5 22  1  0  0  0  0
  6  7  1  0  0  0  0
  6 23  1  0  0  0  0
  6 24  1  0  0  0  0
  7  9  1  0  0  0  0
  7 25  1  0  0  0  0
  7 26  1  0  0  0  0
  8 27  1  0  0  0  0
  8 28  1  0  0  0  0
 10 12  2  0  0  0  0
 10 13  1  0  0  0  0
 11 14  2  0  0  0  0
 11 15  1  0  0  0  0
 12 16  1  0  0  0  0
 12 29  1  0  0  0  0
 13 17  2  0  0  0  0
 13 30  1  0  0  0  0
 14 18  1  0  0  0  0
 14 31  1  0  0  0  0
 15 19  2  0  0  0  0
 15 32  1  0  0  0  0
 16 20  2  0  0  0  0
 16 33  1  0  0  0  0
 17 20  1  0  0  0  0
 17 34  1  0  0  0  0
 18 21  2  0  0  0  0
 18 35  1  0  0  0  0
 19 21  1  0  0  0  0
 19 36  1  0  0  0  0
 20 37  1  0  0  0  0
 21 38  1  0  0  0  0
M  END
> <PUBCHEM_COMPOUND_CID>
854037

> <PUBCHEM_CONFORMER_RMSD>
0.6

> <PUBCHEM_CONFORMER_DIVERSEORDER>
1
5
3
4
2

> <PUBCHEM_MMFF94_PARTIAL_CHARGES>
30
1 -0.56
10 -0.14
11 -0.14
12 -0.15
13 -0.15
14 -0.15
15 -0.15
16 -0.15
17 -0.15
18 -0.15
19 -0.15
2 -0.57
20 -0.15
21 -0.15
29 0.15
3 -0.66
30 0.15
31 0.15
32 0.15
33 0.15
34 0.15
35 0.15
36 0.15
37 0.15
38 0.15
4 0.72
5 0.44
7 0.06
8 0.28
9 0.57

> <PUBCHEM_EFFECTIVE_ROTOR_COUNT>
3

> <PUBCHEM_PHARMACOPHORE_FEATURES>
6
1 1 acceptor
1 2 acceptor
5 1 3 4 5 8 rings
5 3 4 6 7 9 rings
6 10 12 13 16 17 20 rings
6 11 14 15 18 19 21 rings

> <PUBCHEM_HEAVY_ATOM_COUNT>
21

> <PUBCHEM_ATOM_DEF_STEREO_COUNT>
2

> <PUBCHEM_ATOM_UDEF_STEREO_COUNT>
0

> <PUBCHEM_BOND_DEF_STEREO_COUNT>
0

> <PUBCHEM_BOND_UDEF_STEREO_COUNT>
0

> <PUBCHEM_ISOTOPIC_ATOM_COUNT>
0

> <PUBCHEM_COMPONENT_COUNT>
1

> <PUBCHEM_CACTVS_TAUTO_COUNT>
2

> <PUBCHEM_CONFORMER_ID>
000D081500000001

> <PUBCHEM_MMFF94_ENERGY>
68.5868

> <PUBCHEM_FEATURE_SELFOVERLAP>
30.819

> <PUBCHEM_SHAPE_FINGERPRINT>
10165383 225 18127667401463060613
10366900 7 18059281188962368531
104564 63 17397267608209853688
10948715 1 18191859041975987732
11578080 2 17774734150925390093
12035759 4 17549513646508967046
12156800 1 15668075154668941209
12422481 6 17976017372693548096
12633257 1 18192698167670682113
128993 33 18261389988653872321
13132413 78 18194971965900590478
13134695 92 17978530932756113261
13140716 1 18412266151095966809
13464514 151 18335687318100190892
13583140 156 18200314467715615381
13764800 53 17548987650153076810
14142880 1 17684659722936557993
14223421 5 18341048532539130587
14386348 128 18261668169401144961
14713325 29 17552338992166140156
14787075 74 18271238426120600698
14955137 171 18115020926210549226
15238133 3 17763728189665575557
15848702 68 18267870677807597277
16945 1 18334584520558709094
17980427 23 17534661301490393005
18981168 100 18201736041033335221
20510252 161 16975627477874944530
20600515 1 17755297108401409607
20691752 17 18201996586871613645
20905425 154 18334572438894878549
21524375 3 18190180087709791845
21731228 192 18195257619675180824
23419403 2 16970602095361181620
23559900 14 17846491578499787965
238 59 18188511145609020901
31174 14 18340200903679433817
350125 39 18338517434906809087
35225 105 17265002509670741032
427121 178 18196349452122678955
568465 68 17773044278409592242
5939293 188 18117559741456041961
6442390 28 18051957144066931731
7097593 13 18269000962855177515
81228 2 17253728074474353025
8509985 295 17551515874437102681

> <PUBCHEM_SHAPE_MULTIPOLES>
415.45
4.87
3.77
1.63
4.57
0.48
0.23
2.81
-0.77
-2.54
-1.16
-0.3
-0.5
-0.03

> <PUBCHEM_SHAPE_SELFOVERLAP>
920.943

> <PUBCHEM_SHAPE_VOLUME>
223.5

> <PUBCHEM_COORDINATE_TYPE>
2
5
10

$$$$

