63107
  -OEChem-07051213053D

 22 23  0     0  0  0  0  0  0999 V2000
   -0.5404   -2.7393   -0.0009 Cl  0  0  0  0  0  0  0  0  0  0  0  0
   -0.5442    2.7408   -0.0012 Cl  0  0  0  0  0  0  0  0  0  0  0  0
   -5.1613   -0.0018    0.0016 Cl  0  0  0  0  0  0  0  0  0  0  0  0
    5.3151   -0.0016    0.0012 Cl  0  0  0  0  0  0  0  0  0  0  0  0
   -0.6424    0.0006   -0.0010 C   0  0  0  0  0  0  0  0  0  0  0  0
    0.8045    0.0011   -0.0004 C   0  0  0  0  0  0  0  0  0  0  0  0
   -1.3474   -1.2079   -0.0002 C   0  0  0  0  0  0  0  0  0  0  0  0
   -1.3488    1.2081   -0.0010 C   0  0  0  0  0  0  0  0  0  0  0  0
    1.5022    0.0004   -1.2081 C   0  0  0  0  0  0  0  0  0  0  0  0
    1.5015    0.0014    1.2079 C   0  0  0  0  0  0  0  0  0  0  0  0
   -2.7423   -1.2087    0.0005 C   0  0  0  0  0  0  0  0  0  0  0  0
   -2.7437    1.2073   -0.0002 C   0  0  0  0  0  0  0  0  0  0  0  0
   -3.4405   -0.0012    0.0007 C   0  0  0  0  0  0  0  0  0  0  0  0
    2.8971   -0.0002   -1.2076 C   0  0  0  0  0  0  0  0  0  0  0  0
    2.8964    0.0010    1.2083 C   0  0  0  0  0  0  0  0  0  0  0  0
    3.5942    0.0002    0.0005 C   0  0  0  0  0  0  0  0  0  0  0  0
    0.9743   -0.0001   -2.1588 H   0  0  0  0  0  0  0  0  0  0  0  0
    0.9729    0.0018    2.1583 H   0  0  0  0  0  0  0  0  0  0  0  0
   -3.2887   -2.1496    0.0011 H   0  0  0  0  0  0  0  0  0  0  0  0
   -3.2912    2.1475   -0.0001 H   0  0  0  0  0  0  0  0  0  0  0  0
    3.4276   -0.0010   -2.1564 H   0  0  0  0  0  0  0  0  0  0  0  0
    3.4263    0.0011    2.1573 H   0  0  0  0  0  0  0  0  0  0  0  0
  1  7  1  0  0  0  0
  2  8  1  0  0  0  0
  3 13  1  0  0  0  0
  4 16  1  0  0  0  0
  5  6  1  0  0  0  0
  5  7  2  0  0  0  0
  5  8  1  0  0  0  0
  6  9  2  0  0  0  0
  6 10  1  0  0  0  0
  7 11  1  0  0  0  0
  8 12  2  0  0  0  0
  9 14  1  0  0  0  0
  9 17  1  0  0  0  0
 10 15  2  0  0  0  0
 10 18  1  0  0  0  0
 11 13  2  0  0  0  0
 11 19  1  0  0  0  0
 12 13  1  0  0  0  0
 12 20  1  0  0  0  0
 14 16  2  0  0  0  0
 14 21  1  0  0  0  0
 15 16  1  0  0  0  0
 15 22  1  0  0  0  0
M  END
> <PUBCHEM_COMPOUND_CID>
63107

> <PUBCHEM_CONFORMER_RMSD>
0.6

> <PUBCHEM_CONFORMER_DIVERSEORDER>
1

> <PUBCHEM_MMFF94_PARTIAL_CHARGES>
20
1 -0.18
10 -0.15
11 -0.15
12 -0.15
13 0.18
14 -0.15
15 -0.15
16 0.18
17 0.15
18 0.15
19 0.15
2 -0.18
20 0.15
21 0.15
22 0.15
3 -0.18
4 -0.18
7 0.18
8 0.18
9 -0.15

> <PUBCHEM_EFFECTIVE_ROTOR_COUNT>
1

> <PUBCHEM_PHARMACOPHORE_FEATURES>
2
6 5 7 8 11 12 13 rings
6 6 9 10 14 15 16 rings

> <PUBCHEM_HEAVY_ATOM_COUNT>
16

> <PUBCHEM_ATOM_DEF_STEREO_COUNT>
0

> <PUBCHEM_ATOM_UDEF_STEREO_COUNT>
0

> <PUBCHEM_BOND_DEF_STEREO_COUNT>
0

> <PUBCHEM_BOND_UDEF_STEREO_COUNT>
0

> <PUBCHEM_ISOTOPIC_ATOM_COUNT>
0

> <PUBCHEM_COMPONENT_COUNT>
1

> <PUBCHEM_CACTVS_TAUTO_COUNT>
1

> <PUBCHEM_CONFORMER_ID>
0000F68300000001

> <PUBCHEM_MMFF94_ENERGY>
44.2686

> <PUBCHEM_FEATURE_SELFOVERLAP>
10.149

> <PUBCHEM_SHAPE_FINGERPRINT>
11132069 177 18407760335349646541
11578080 2 5904056779057628746
11680986 33 18050570647283070265
12236239 1 17703791422627493064
13140716 1 18266453205903791635
13538477 17 18060137591907611338
13581323 91 18412268354387588314
13862211 1 18410858733663861855
14115302 16 18059851727542655670
14614273 12 18200034096081705165
14993402 34 18343302556945291749
15042514 8 18340482253976109587
15219456 202 17676485090122420028
15309172 13 18411692201752354043
15342168 16 15194137342000334478
16752209 62 18342464772034722781
16945 1 18410856564573001869
18175812 5 17676211229969893660
200 152 16487258767901692729
20028762 73 18043244631831841423
20279233 1 17749102283960391006
20344682 1 17821445768085404540
20510252 161 18262517108025329208
20600515 1 18334847295047709996
20645476 183 17775003457927739755
20645477 70 14548470162648808656
21029758 27 18201434749420567613
21267235 1 18342730814893187099
2297311 6 18335691763517897460
23175994 123 17022615373591950280
23402539 116 18334583429499684015
23419403 2 16455800503744663965
23557571 272 18260543459374264668
23559900 14 18334011684281402230
2748010 2 18051697646964998655
3286 77 16805039639988772008
350125 39 17762048144477556465
4072396 5 18270695263339572355
43471831 8 18269838773403700995
465052 167 17916569944355259203
474 4 17130415784499728396
69090 78 17385730179597314383
77492 1 17704071798076738692
81228 2 18263062461619090545
8272917 22 16629972152046438763

> <PUBCHEM_SHAPE_MULTIPOLES>
336.75
8.35
1.98
0.98
1.86
0
0
-0.01
0.01
-1.27
0
0.78
0
0

> <PUBCHEM_SHAPE_SELFOVERLAP>
694.626

> <PUBCHEM_SHAPE_VOLUME>
185.5

> <PUBCHEM_COORDINATE_TYPE>
2
5
10

$$$$

