193898
  -OEChem-07051213023D

 62 62  0     1  0  0  0  0  0999 V2000
    3.8746   -1.0375    1.6114 O   0  0  0  0  0  0  0  0  0  0  0  0
   -1.5242    1.7351    0.0671 O   0  0  0  0  0  0  0  0  0  0  0  0
    2.7346    2.2466   -1.0525 O   0  0  0  0  0  0  0  0  0  0  0  0
   -3.8968   -2.0736    0.2802 O   0  0  0  0  0  0  0  0  0  0  0  0
   -1.2680   -3.6855   -0.1580 O   0  0  0  0  0  0  0  0  0  0  0  0
   -0.5956    2.7081   -1.8106 O   0  0  0  0  0  0  0  0  0  0  0  0
    2.8143   -1.3381   -0.5620 C   0  0  2  0  0  0  0  0  0  0  0  0
    3.4335   -0.3283    0.4473 C   0  0  1  0  0  0  0  0  0  0  0  0
    2.4912    0.8196    0.9267 C   0  0  2  0  0  0  0  0  0  0  0  0
    1.5839   -2.0839    0.0116 C   0  0  0  0  0  0  0  0  0  0  0  0
    0.3702   -2.0895   -0.9369 C   0  0  2  0  0  0  0  0  0  0  0  0
    1.7854    1.5714   -0.2317 C   0  0  1  0  0  0  0  0  0  0  0  0
   -1.5949   -1.4296    0.6525 C   0  0  2  0  0  0  0  0  0  0  0  0
   -2.9148   -1.0923   -0.0787 C   0  0  2  0  0  0  0  0  0  0  0  0
   -3.5322    0.3219    0.1324 C   0  0  2  0  0  0  0  0  0  0  0  0
    0.6872    2.5528    0.2485 C   0  0  2  0  0  0  0  0  0  0  0  0
   -0.8695   -2.5197   -0.1523 C   0  0  0  0  0  0  0  0  0  0  0  0
   -2.7577    1.4391   -0.6195 C   0  0  1  0  0  0  0  0  0  0  0  0
    3.8742   -2.3534   -1.0207 C   0  0  0  0  0  0  0  0  0  0  0  0
    3.2852    1.7821    1.8291 C   0  0  0  0  0  0  0  0  0  0  0  0
    0.5729   -2.9871   -2.1550 C   0  0  0  0  0  0  0  0  0  0  0  0
   -1.7351   -1.9355    2.0907 C   0  0  0  0  0  0  0  0  0  0  0  0
   -0.5377    2.3646   -0.6368 C   0  0  0  0  0  0  0  0  0  0  0  0
   -3.7703    0.6581    1.6083 C   0  0  0  0  0  0  0  0  0  0  0  0
    1.0749    4.0308    0.2284 C   0  0  0  0  0  0  0  0  0  0  0  0
   -3.5853    2.7239   -0.7196 C   0  0  0  0  0  0  0  0  0  0  0  0
    2.5253   -0.7824   -1.4609 H   0  0  0  0  0  0  0  0  0  0  0  0
    4.3263    0.1155   -0.0101 H   0  0  0  0  0  0  0  0  0  0  0  0
    1.7150    0.3813    1.5668 H   0  0  0  0  0  0  0  0  0  0  0  0
    1.2695   -1.6296    0.9557 H   0  0  0  0  0  0  0  0  0  0  0  0
    1.8459   -3.1174    0.2750 H   0  0  0  0  0  0  0  0  0  0  0  0
    0.1678   -1.0782   -1.3076 H   0  0  0  0  0  0  0  0  0  0  0  0
    1.3066    0.8246   -0.8686 H   0  0  0  0  0  0  0  0  0  0  0  0
   -0.9387   -0.5556    0.6657 H   0  0  0  0  0  0  0  0  0  0  0  0
   -2.7646   -1.2097   -1.1603 H   0  0  0  0  0  0  0  0  0  0  0  0
   -4.5320    0.2683   -0.3241 H   0  0  0  0  0  0  0  0  0  0  0  0
    0.3840    2.2941    1.2714 H   0  0  0  0  0  0  0  0  0  0  0  0
   -2.5335    1.0837   -1.6334 H   0  0  0  0  0  0  0  0  0  0  0  0
    3.4721   -3.0306   -1.7801 H   0  0  0  0  0  0  0  0  0  0  0  0
    4.7357   -1.8387   -1.4594 H   0  0  0  0  0  0  0  0  0  0  0  0
    4.2353   -2.9635   -0.1859 H   0  0  0  0  0  0  0  0  0  0  0  0
    4.0676    2.3033    1.2679 H   0  0  0  0  0  0  0  0  0  0  0  0
    2.6300    2.5315    2.2819 H   0  0  0  0  0  0  0  0  0  0  0  0
    3.7652    1.2485    2.6561 H   0  0  0  0  0  0  0  0  0  0  0  0
    0.8562   -4.0037   -1.8611 H   0  0  0  0  0  0  0  0  0  0  0  0
   -0.3489   -3.0585   -2.7429 H   0  0  0  0  0  0  0  0  0  0  0  0
    1.3529   -2.5903   -2.8116 H   0  0  0  0  0  0  0  0  0  0  0  0
   -0.7530   -2.2086    2.4945 H   0  0  0  0  0  0  0  0  0  0  0  0
   -2.1554   -1.1776    2.7538 H   0  0  0  0  0  0  0  0  0  0  0  0
   -2.3625   -2.8307    2.1565 H   0  0  0  0  0  0  0  0  0  0  0  0
   -2.8357    0.8702    2.1353 H   0  0  0  0  0  0  0  0  0  0  0  0
   -4.4100    1.5409    1.7087 H   0  0  0  0  0  0  0  0  0  0  0  0
   -4.2818   -0.1619    2.1226 H   0  0  0  0  0  0  0  0  0  0  0  0
    3.0943   -1.3633    2.0896 H   0  0  0  0  0  0  0  0  0  0  0  0
    1.9671    4.2212    0.8313 H   0  0  0  0  0  0  0  0  0  0  0  0
    1.2652    4.3938   -0.7874 H   0  0  0  0  0  0  0  0  0  0  0  0
    0.2604    4.6412    0.6350 H   0  0  0  0  0  0  0  0  0  0  0  0
   -3.0861    3.4586   -1.3599 H   0  0  0  0  0  0  0  0  0  0  0  0
   -4.5751    2.5286   -1.1433 H   0  0  0  0  0  0  0  0  0  0  0  0
   -3.7023    3.2024    0.2581 H   0  0  0  0  0  0  0  0  0  0  0  0
    2.2632    2.5704   -1.8390 H   0  0  0  0  0  0  0  0  0  0  0  0
   -3.5585   -2.9431    0.0067 H   0  0  0  0  0  0  0  0  0  0  0  0
  1  8  1  0  0  0  0
  1 54  1  0  0  0  0
  2 18  1  0  0  0  0
  2 23  1  0  0  0  0
  3 12  1  0  0  0  0
  3 61  1  0  0  0  0
  4 14  1  0  0  0  0
  4 62  1  0  0  0  0
  5 17  2  0  0  0  0
  6 23  2  0  0  0  0
  7  8  1  0  0  0  0
  7 10  1  0  0  0  0
  7 19  1  0  0  0  0
  7 27  1  0  0  0  0
  8  9  1  0  0  0  0
  8 28  1  0  0  0  0
  9 12  1  0  0  0  0
  9 20  1  0  0  0  0
  9 29  1  0  0  0  0
 10 11  1  0  0  0  0
 10 30  1  0  0  0  0
 10 31  1  0  0  0  0
 11 17  1  0  0  0  0
 11 21  1  0  0  0  0
 11 32  1  0  0  0  0
 12 16  1  0  0  0  0
 12 33  1  0  0  0  0
 13 14  1  0  0  0  0
 13 17  1  0  0  0  0
 13 22  1  0  0  0  0
 13 34  1  0  0  0  0
 14 15  1  0  0  0  0
 14 35  1  0  0  0  0
 15 18  1  0  0  0  0
 15 24  1  0  0  0  0
 15 36  1  0  0  0  0
 16 23  1  0  0  0  0
 16 25  1  0  0  0  0
 16 37  1  0  0  0  0
 18 26  1  0  0  0  0
 18 38  1  0  0  0  0
 19 39  1  0  0  0  0
 19 40  1  0  0  0  0
 19 41  1  0  0  0  0
 20 42  1  0  0  0  0
 20 43  1  0  0  0  0
 20 44  1  0  0  0  0
 21 45  1  0  0  0  0
 21 46  1  0  0  0  0
 21 47  1  0  0  0  0
 22 48  1  0  0  0  0
 22 49  1  0  0  0  0
 22 50  1  0  0  0  0
 24 51  1  0  0  0  0
 24 52  1  0  0  0  0
 24 53  1  0  0  0  0
 25 55  1  0  0  0  0
 25 56  1  0  0  0  0
 25 57  1  0  0  0  0
 26 58  1  0  0  0  0
 26 59  1  0  0  0  0
 26 60  1  0  0  0  0
M  END
> <PUBCHEM_COMPOUND_CID>
193898

> <PUBCHEM_CONFORMER_RMSD>
0.6

> <PUBCHEM_CONFORMER_DIVERSEORDER>
9
7
18
13
19
6
8
1
11
14
16
10
3
20
17
4
5
12
15
2

> <PUBCHEM_MMFF94_PARTIAL_CHARGES>
18
1 -0.68
11 0.06
12 0.28
13 0.06
14 0.28
16 0.06
17 0.45
18 0.28
2 -0.43
23 0.66
3 -0.68
4 -0.68
5 -0.57
54 0.4
6 -0.57
61 0.4
62 0.4
8 0.28

> <PUBCHEM_EFFECTIVE_ROTOR_COUNT>
2.4

> <PUBCHEM_PHARMACOPHORE_FEATURES>
8
1 1 acceptor
1 1 donor
1 3 acceptor
1 3 donor
1 4 acceptor
1 4 donor
1 5 acceptor
1 6 acceptor

> <PUBCHEM_HEAVY_ATOM_COUNT>
26

> <PUBCHEM_ATOM_DEF_STEREO_COUNT>
10

> <PUBCHEM_ATOM_UDEF_STEREO_COUNT>
0

> <PUBCHEM_BOND_DEF_STEREO_COUNT>
0

> <PUBCHEM_BOND_UDEF_STEREO_COUNT>
0

> <PUBCHEM_ISOTOPIC_ATOM_COUNT>
0

> <PUBCHEM_COMPONENT_COUNT>
1

> <PUBCHEM_CACTVS_TAUTO_COUNT>
3

> <PUBCHEM_CONFORMER_ID>
0002F56A00000009

> <PUBCHEM_MMFF94_ENERGY>
70.9617

> <PUBCHEM_FEATURE_SELFOVERLAP>
40.595

> <PUBCHEM_SHAPE_FINGERPRINT>
10616163 171 18125717885684469649
10675989 125 16038600102321017572
10759866 29 17844800572518780422
10871710 139 17183902471871120663
11112241 14 17533529882329620625
11370993 70 18188788226285158697
11513181 2 17968650510863266990
12156800 1 5997022089087031603
12403259 226 18335978787054992390
12422481 6 18265592352855972547
12539773 59 15807741559647595375
12553582 1 18265886046160298548
12596599 1 17313672679705515927
12633257 1 18341328976401768259
13122387 1 17833831951176500424
13140716 1 18337677519581581312
13402501 40 18266177429483629566
13544592 271 18266744773605494967
13726171 33 17912894405389920460
14114207 22 14683046227875075329
14251745 187 18119534494461970338
14363568 33 17979043052077437288
14725015 67 18270975604281399851
15635459 17 17975982282067128741
16728300 4 17054168255968941571
17093844 170 17906742745053227632
17357779 13 17898562340019776590
17859628 37 18409725153754081542
19930381 70 17761498388979926381
20764821 26 18267580397720174861
20905425 154 18267572516587250519
21141583 151 17398386915257650615
23559900 14 18338517568504710084
238 59 17688063067621720893
238918 7 17973462167405174282
2748010 2 18410291427874637046
3052486 1 18129656555847792458
35225 105 17099461172969595253
3524813 1 18264766751770498459
508706 21 18341899648922704551
5282274 181 18336268929422873264
539174 4 17755821334998373099
6287921 2 18041826381615691063

> <PUBCHEM_SHAPE_MULTIPOLES>
499.85
6.85
5.02
1.63
0.41
0.9
-0.24
-0.2
-1.41
-0.19
1.22
-0.29
-0.28
1.71

> <PUBCHEM_SHAPE_SELFOVERLAP>
984.814

> <PUBCHEM_SHAPE_VOLUME>
298.5

> <PUBCHEM_COORDINATE_TYPE>
2
5
10

$$$$

