8483
  -OEChem-06261202523D

 23 23  0     0  0  0  0  0  0999 V2000
    3.2215    0.1833    0.0785 S   0  0  0  0  0  0  0  0  0  0  0  0
    3.6681    0.2690   -1.4920 O   0  0  0  0  0  0  0  0  0  0  0  0
    3.4727    1.4927    0.6630 O   0  0  0  0  0  0  0  0  0  0  0  0
    3.8187   -1.0121    0.6531 O   0  0  0  0  0  0  0  0  0  0  0  0
   -3.5338    1.4970    0.0001 O   0  0  0  0  0  0  0  0  0  0  0  0
   -2.6447   -0.6864   -0.0156 N   0  0  0  0  0  0  0  0  0  0  0  0
    1.4947   -0.0730    0.0510 C   0  0  0  0  0  0  0  0  0  0  0  0
   -1.2645   -0.4820    0.0068 C   0  0  0  0  0  0  0  0  0  0  0  0
    0.6274    1.0195    0.0547 C   0  0  0  0  0  0  0  0  0  0  0  0
    0.9823   -1.3702    0.0251 C   0  0  0  0  0  0  0  0  0  0  0  0
   -0.7522    0.8150    0.0327 C   0  0  0  0  0  0  0  0  0  0  0  0
   -0.3974   -1.5746    0.0030 C   0  0  0  0  0  0  0  0  0  0  0  0
   -3.6619    0.2771   -0.0160 C   0  0  0  0  0  0  0  0  0  0  0  0
   -5.0308   -0.3552   -0.0444 C   0  0  0  0  0  0  0  0  0  0  0  0
    1.0053    2.0381    0.0673 H   0  0  0  0  0  0  0  0  0  0  0  0
    1.6379   -2.2363    0.0138 H   0  0  0  0  0  0  0  0  0  0  0  0
   -1.3596    1.7093    0.0357 H   0  0  0  0  0  0  0  0  0  0  0  0
   -0.7830   -2.5908   -0.0188 H   0  0  0  0  0  0  0  0  0  0  0  0
   -2.9391   -1.6607   -0.0335 H   0  0  0  0  0  0  0  0  0  0  0  0
   -5.1492   -0.9385   -0.9619 H   0  0  0  0  0  0  0  0  0  0  0  0
   -5.7991    0.4225   -0.0156 H   0  0  0  0  0  0  0  0  0  0  0  0
   -5.1560   -1.0090    0.8234 H   0  0  0  0  0  0  0  0  0  0  0  0
    3.2683    1.0100   -2.0053 H   0  0  0  0  0  0  0  0  0  0  0  0
  1  2  1  0  0  0  0
  1  3  2  0  0  0  0
  1  4  2  0  0  0  0
  1  7  1  0  0  0  0
  2 23  1  0  0  0  0
  5 13  2  0  0  0  0
  6  8  1  0  0  0  0
  6 13  1  0  0  0  0
  6 19  1  0  0  0  0
  7  9  2  0  0  0  0
  7 10  1  0  0  0  0
  8 11  2  0  0  0  0
  8 12  1  0  0  0  0
  9 11  1  0  0  0  0
  9 15  1  0  0  0  0
 10 12  2  0  0  0  0
 10 16  1  0  0  0  0
 11 17  1  0  0  0  0
 12 18  1  0  0  0  0
 13 14  1  0  0  0  0
 14 20  1  0  0  0  0
 14 21  1  0  0  0  0
 14 22  1  0  0  0  0
M  END
> <PUBCHEM_COMPOUND_CID>
8483

> <PUBCHEM_CONFORMER_RMSD>
0.6

> <PUBCHEM_CONFORMER_DIVERSEORDER>
1
2

> <PUBCHEM_MMFF94_PARTIAL_CHARGES>
20
1 1.49
10 -0.15
11 -0.15
12 -0.15
13 0.57
14 0.06
15 0.15
16 0.15
17 0.15
18 0.15
19 0.37
2 -0.68
23 0.5
3 -0.65
4 -0.65
5 -0.57
6 -0.55
7 -0.01
8 0.12
9 -0.15

> <PUBCHEM_EFFECTIVE_ROTOR_COUNT>
3

> <PUBCHEM_PHARMACOPHORE_FEATURES>
7
1 2 acceptor
1 3 acceptor
1 4 acceptor
1 5 acceptor
1 6 donor
4 1 2 3 4 anion
6 7 8 9 10 11 12 rings

> <PUBCHEM_HEAVY_ATOM_COUNT>
14

> <PUBCHEM_ATOM_DEF_STEREO_COUNT>
0

> <PUBCHEM_ATOM_UDEF_STEREO_COUNT>
0

> <PUBCHEM_BOND_DEF_STEREO_COUNT>
0

> <PUBCHEM_BOND_UDEF_STEREO_COUNT>
0

> <PUBCHEM_ISOTOPIC_ATOM_COUNT>
0

> <PUBCHEM_COMPONENT_COUNT>
1

> <PUBCHEM_CACTVS_TAUTO_COUNT>
2

> <PUBCHEM_CONFORMER_ID>
0000212300000001

> <PUBCHEM_MMFF94_ENERGY>
28.8687

> <PUBCHEM_FEATURE_SELFOVERLAP>
35.577

> <PUBCHEM_SHAPE_FINGERPRINT>
10219947 1 17846778520257696951
11401426 45 18334303062656209827
11471102 20 18410298007743435430
11543360 7 16009040436149566917
13081056 2 18334575737424408985
13380535 76 18411981368963088395
13760787 19 17560795498708069258
14325111 11 18410014325153567129
14911166 2 18335412457209371550
14993402 34 18342731901546312884
16945 1 18187074070640973754
18186145 218 18186515505748960920
19026448 4 16008750212319076095
19026448 5 16415479311592838283
20645476 183 17916008089180687222
20645477 70 17023172847525327526
212847 35 18342457054031265280
23402539 116 18114192942198507036
23402655 69 18335712693278620397
23463225 33 18271248317298050890
23559900 14 18187642480252026964
2748010 2 18048597023462643802
366044 4 18410294692029079211
4047638 21 18261391126830105688
4990 188 17894905247964627014
5104073 3 18411982498655123425
53655031 270 18410014381004005379
537710 114 18413103957191332156
53812653 166 18335145262693023488
69090 78 17894917295632897727
7364860 26 18191870243530764142

> <PUBCHEM_SHAPE_MULTIPOLES>
263.5
8.38
1.44
0.76
4.31
0.04
-0.16
-1.07
-0.19
-0.18
0.12
-0.63
-0.04
-0.03

> <PUBCHEM_SHAPE_SELFOVERLAP>
533.244

> <PUBCHEM_SHAPE_VOLUME>
153.3

> <PUBCHEM_COORDINATE_TYPE>
2
5
10

$$$$

