11954130
  -OEChem-07051213073D

 22 24  0     0  0  0  0  0  0999 V2000
   -3.9002    2.2397   -0.0002 Cl  0  0  0  0  0  0  0  0  0  0  0  0
    4.6812    1.8458    0.0009 Cl  0  0  0  0  0  0  0  0  0  0  0  0
    0.2127   -1.8826    0.0004 O   0  0  0  0  0  0  0  0  0  0  0  0
   -4.4524   -0.7009   -0.0006 O   0  0  0  0  0  0  0  0  0  0  0  0
   -0.4074    0.2923    0.0003 C   0  0  0  0  0  0  0  0  0  0  0  0
    1.0170    0.2310    0.0004 C   0  0  0  0  0  0  0  0  0  0  0  0
   -0.8477   -1.0276    0.0006 C   0  0  0  0  0  0  0  0  0  0  0  0
    1.3425   -1.1218    0.0001 C   0  0  0  0  0  0  0  0  0  0  0  0
   -1.3699    1.3186   -0.0006 C   0  0  0  0  0  0  0  0  0  0  0  0
    2.0641    1.1708    0.0003 C   0  0  0  0  0  0  0  0  0  0  0  0
   -2.1897   -1.4040    0.0004 C   0  0  0  0  0  0  0  0  0  0  0  0
    2.6473   -1.6121   -0.0005 C   0  0  0  0  0  0  0  0  0  0  0  0
   -2.7275    0.9706   -0.0002 C   0  0  0  0  0  0  0  0  0  0  0  0
   -3.1276   -0.3675    0.0005 C   0  0  0  0  0  0  0  0  0  0  0  0
    3.3869    0.7077   -0.0005 C   0  0  0  0  0  0  0  0  0  0  0  0
    3.6706   -0.6599   -0.0012 C   0  0  0  0  0  0  0  0  0  0  0  0
   -1.0583    2.3595   -0.0012 H   0  0  0  0  0  0  0  0  0  0  0  0
    1.8445    2.2350    0.0007 H   0  0  0  0  0  0  0  0  0  0  0  0
   -2.4797   -2.4486    0.0003 H   0  0  0  0  0  0  0  0  0  0  0  0
    2.8596   -2.6747   -0.0007 H   0  0  0  0  0  0  0  0  0  0  0  0
    4.7021   -1.0063   -0.0016 H   0  0  0  0  0  0  0  0  0  0  0  0
   -4.5380   -1.6698   -0.0004 H   0  0  0  0  0  0  0  0  0  0  0  0
  1 13  1  0  0  0  0
  2 15  1  0  0  0  0
  3  7  1  0  0  0  0
  3  8  1  0  0  0  0
  4 14  1  0  0  0  0
  4 22  1  0  0  0  0
  5  6  1  0  0  0  0
  5  7  1  0  0  0  0
  5  9  2  0  0  0  0
  6  8  2  0  0  0  0
  6 10  1  0  0  0  0
  7 11  2  0  0  0  0
  8 12  1  0  0  0  0
  9 13  1  0  0  0  0
  9 17  1  0  0  0  0
 10 15  2  0  0  0  0
 10 18  1  0  0  0  0
 11 14  1  0  0  0  0
 11 19  1  0  0  0  0
 12 16  2  0  0  0  0
 12 20  1  0  0  0  0
 13 14  2  0  0  0  0
 15 16  1  0  0  0  0
 16 21  1  0  0  0  0
M  END
> <PUBCHEM_COMPOUND_CID>
11954130

> <PUBCHEM_CONFORMER_RMSD>
0.4

> <PUBCHEM_CONFORMER_DIVERSEORDER>
1

> <PUBCHEM_MMFF94_PARTIAL_CHARGES>
20
1 -0.18
10 -0.15
11 -0.15
12 -0.15
13 0.18
14 0.08
15 0.18
16 -0.15
17 0.15
18 0.15
19 0.15
2 -0.18
20 0.15
21 0.15
22 0.45
3 -0.28
4 -0.53
7 0.14
8 0.14
9 -0.15

> <PUBCHEM_EFFECTIVE_ROTOR_COUNT>
0

> <PUBCHEM_PHARMACOPHORE_FEATURES>
5
1 3 acceptor
1 4 donor
5 3 5 6 7 8 rings
6 5 7 9 11 13 14 rings
6 6 8 10 12 15 16 rings

> <PUBCHEM_HEAVY_ATOM_COUNT>
16

> <PUBCHEM_ATOM_DEF_STEREO_COUNT>
0

> <PUBCHEM_ATOM_UDEF_STEREO_COUNT>
0

> <PUBCHEM_BOND_DEF_STEREO_COUNT>
0

> <PUBCHEM_BOND_UDEF_STEREO_COUNT>
0

> <PUBCHEM_ISOTOPIC_ATOM_COUNT>
0

> <PUBCHEM_COMPONENT_COUNT>
1

> <PUBCHEM_CACTVS_TAUTO_COUNT>
3

> <PUBCHEM_CONFORMER_ID>
00B667D200000001

> <PUBCHEM_MMFF94_ENERGY>
31.7561

> <PUBCHEM_FEATURE_SELFOVERLAP>
25.573

> <PUBCHEM_SHAPE_FINGERPRINT>
10411042 1 16248846521540838699
10608611 8 18410858780233119460
10967382 1 18410855438843320326
11132069 177 18410579517106414208
11471102 20 18410015420665717694
12346645 44 18411983542121035930
12390115 104 18262219084571431409
13140716 1 18341049743213389266
13380535 76 18411981321802662258
14144814 61 18411701006150311650
14325111 11 18410574006647458080
14415576 193 18410290328705900716
14897335 6 18410294688166245262
15196674 1 18410855481613612740
15219456 202 18410574015216228727
15442244 35 18194402418882865762
15536298 74 18335700555231432734
15775835 57 18410289224662103992
16945 1 18266458706902543462
18186145 218 18261385706449691156
200 152 18114473309801564655
20510252 161 18334573551386288977
20645477 70 18259982708444001918
21267235 1 18410566301550371846
21501502 16 18410578413268157514
22854114 111 18342737438096637382
23402539 116 18335711489738153237
23402655 69 18333735740384013325
23463225 33 18341333374559120238
23559900 14 18189900992804618838
2748010 2 18411133662366270782
335352 9 18122344845992577566
474 4 17631728258428835452
4990 188 18040986359200597956
5104073 3 18412544340063825216
633830 44 18334859475611319900
69090 78 18334017168142619807
7364860 26 18335137631243351318
77779 3 18410291436448747245
9709674 26 18409725175081419718

> <PUBCHEM_SHAPE_MULTIPOLES>
321.27
8.2
2.16
0.61
0.59
0.35
0
3.42
0
-0.09
0
0.03
0.03
0

> <PUBCHEM_SHAPE_SELFOVERLAP>
708.389

> <PUBCHEM_SHAPE_VOLUME>
176.5

> <PUBCHEM_COORDINATE_TYPE>
2
5
10

$$$$

