18782
  -OEChem-07051213143D

 33 36  0     0  0  0  0  0  0999 V2000
    0.1043   -0.5821    0.0001 C   0  0  0  0  0  0  0  0  0  0  0  0
   -0.7525    0.5573    0.0001 C   0  0  0  0  0  0  0  0  0  0  0  0
    1.5407   -0.4241    0.0001 C   0  0  0  0  0  0  0  0  0  0  0  0
   -2.1889    0.3992    0.0002 C   0  0  0  0  0  0  0  0  0  0  0  0
    2.0936    0.8788   -0.0003 C   0  0  0  0  0  0  0  0  0  0  0  0
   -2.7420   -0.9036   -0.0002 C   0  0  0  0  0  0  0  0  0  0  0  0
   -0.1351    1.8245    0.0000 C   0  0  0  0  0  0  0  0  0  0  0  0
   -0.5132   -1.8495    0.0001 C   0  0  0  0  0  0  0  0  0  0  0  0
    1.2489    1.9837   -0.0004 C   0  0  0  0  0  0  0  0  0  0  0  0
   -1.8972   -2.0087   -0.0003 C   0  0  0  0  0  0  0  0  0  0  0  0
    2.4704   -1.4977    0.0004 C   0  0  0  0  0  0  0  0  0  0  0  0
    3.4859    1.0754   -0.0004 C   0  0  0  0  0  0  0  0  0  0  0  0
    4.3619   -0.0044   -0.0002 C   0  0  0  0  0  0  0  0  0  0  0  0
   -3.1187    1.4729    0.0006 C   0  0  0  0  0  0  0  0  0  0  0  0
    3.8536   -1.2930    0.0003 C   0  0  0  0  0  0  0  0  0  0  0  0
   -4.1343   -1.1001   -0.0004 C   0  0  0  0  0  0  0  0  0  0  0  0
   -4.5019    1.2682    0.0003 C   0  0  0  0  0  0  0  0  0  0  0  0
   -5.0103   -0.0203   -0.0002 C   0  0  0  0  0  0  0  0  0  0  0  0
    5.8348    0.2237    0.0002 C   0  0  0  0  0  0  0  0  0  0  0  0
   -0.7210    2.7400    0.0000 H   0  0  0  0  0  0  0  0  0  0  0  0
    0.0727   -2.7650    0.0001 H   0  0  0  0  0  0  0  0  0  0  0  0
    1.6529    2.9945   -0.0006 H   0  0  0  0  0  0  0  0  0  0  0  0
    2.1361   -2.5319    0.0003 H   0  0  0  0  0  0  0  0  0  0  0  0
   -2.3015   -3.0194   -0.0005 H   0  0  0  0  0  0  0  0  0  0  0  0
    3.8915    2.0865   -0.0023 H   0  0  0  0  0  0  0  0  0  0  0  0
   -2.7846    2.5071    0.0010 H   0  0  0  0  0  0  0  0  0  0  0  0
    4.5167   -2.1540   -0.0013 H   0  0  0  0  0  0  0  0  0  0  0  0
   -4.5512   -2.1058   -0.0007 H   0  0  0  0  0  0  0  0  0  0  0  0
   -5.1755    2.1201    0.0005 H   0  0  0  0  0  0  0  0  0  0  0  0
   -6.0830   -0.1864   -0.0003 H   0  0  0  0  0  0  0  0  0  0  0  0
    6.1903    0.3865   -1.0222 H   0  0  0  0  0  0  0  0  0  0  0  0
    6.0957    1.0967    0.6081 H   0  0  0  0  0  0  0  0  0  0  0  0
    6.3714   -0.6326    0.4228 H   0  0  0  0  0  0  0  0  0  0  0  0
  1  2  2  0  0  0  0
  1  3  1  0  0  0  0
  1  8  1  0  0  0  0
  2  4  1  0  0  0  0
  2  7  1  0  0  0  0
  3  5  2  0  0  0  0
  3 11  1  0  0  0  0
  4  6  1  0  0  0  0
  4 14  2  0  0  0  0
  5  9  1  0  0  0  0
  5 12  1  0  0  0  0
  6 10  1  0  0  0  0
  6 16  2  0  0  0  0
  7  9  2  0  0  0  0
  7 20  1  0  0  0  0
  8 10  2  0  0  0  0
  8 21  1  0  0  0  0
  9 22  1  0  0  0  0
 10 24  1  0  0  0  0
 11 15  2  0  0  0  0
 11 23  1  0  0  0  0
 12 13  2  0  0  0  0
 12 25  1  0  0  0  0
 13 15  1  0  0  0  0
 13 19  1  0  0  0  0
 14 17  1  0  0  0  0
 14 26  1  0  0  0  0
 15 27  1  0  0  0  0
 16 18  1  0  0  0  0
 16 28  1  0  0  0  0
 17 18  2  0  0  0  0
 17 29  1  0  0  0  0
 18 30  1  0  0  0  0
 19 31  1  0  0  0  0
 19 32  1  0  0  0  0
 19 33  1  0  0  0  0
M  END
> <PUBCHEM_COMPOUND_CID>
18782

> <PUBCHEM_CONFORMER_RMSD>
0.4

> <PUBCHEM_CONFORMER_DIVERSEORDER>
1

> <PUBCHEM_MMFF94_PARTIAL_CHARGES>
24
10 -0.15
11 -0.15
12 -0.15
13 -0.14
14 -0.15
15 -0.15
16 -0.15
17 -0.15
18 -0.15
19 0.14
20 0.15
21 0.15
22 0.15
23 0.15
24 0.15
25 0.15
26 0.15
27 0.15
28 0.15
29 0.15
30 0.15
7 -0.15
8 -0.15
9 -0.15

> <PUBCHEM_EFFECTIVE_ROTOR_COUNT>
0

> <PUBCHEM_PHARMACOPHORE_FEATURES>
4
6 1 2 3 5 7 9 rings
6 1 2 4 6 8 10 rings
6 3 5 11 12 13 15 rings
6 4 6 14 16 17 18 rings

> <PUBCHEM_HEAVY_ATOM_COUNT>
19

> <PUBCHEM_ATOM_DEF_STEREO_COUNT>
0

> <PUBCHEM_ATOM_UDEF_STEREO_COUNT>
0

> <PUBCHEM_BOND_DEF_STEREO_COUNT>
0

> <PUBCHEM_BOND_UDEF_STEREO_COUNT>
0

> <PUBCHEM_ISOTOPIC_ATOM_COUNT>
0

> <PUBCHEM_COMPONENT_COUNT>
1

> <PUBCHEM_CACTVS_TAUTO_COUNT>
1

> <PUBCHEM_CONFORMER_ID>
0000495E00000001

> <PUBCHEM_MMFF94_ENERGY>
69.9863

> <PUBCHEM_FEATURE_SELFOVERLAP>
20.367

> <PUBCHEM_SHAPE_FINGERPRINT>
10062212 137 18335145280263432031
10411042 1 17906452130719147971
10616163 171 18336826394555624334
10906281 52 18339060645601819222
10967382 1 18410856602589501511
11132069 177 18409732875973021024
11471102 20 18410577288012956886
11578080 2 16880486865335565339
12011746 2 18409449197651733477
12107183 9 17690562309033098152
12236239 1 17918556825958401690
12403259 226 18264494988458740113
12403259 415 18410583881215686697
12403814 3 17632580465412173677
12788726 201 17968373575756619696
12838862 33 18339100240462573160
13140716 1 18267304231544932432
13288520 33 18408601465797230468
13862211 1 18410860962060707562
14115302 16 18201991106414190324
14790565 3 18411693309632714364
15042514 8 18195242218545274171
15099037 51 18410856559845569999
15196674 1 18410574010953033350
15375358 24 18333448750853943326
15442244 35 18410575097558536833
15536298 74 18334858307448812672
1601671 61 18409448098562202524
16945 1 18122343484482624069
17804303 29 18409165480850033901
1813 80 17203327823357016188
18522853 276 18407759235389723393
19141452 34 18334013865391845055
19591789 44 18267586982005551971
200 152 17967535670560078755
20510252 161 18188771772276068665
20645477 70 18262235637792037286
21029758 11 18334016094516814393
21267235 1 18410847746446331282
21279426 13 18194119839761781351
21421861 104 17844537802013913786
221490 88 18197491835792146139
23402539 116 18261399944081492470
23463225 33 18411981368630213852
23559900 14 18261398793452841504
23622692 118 17897737457206821943
3004659 81 18272085050627785334
335352 9 18411138043269862196
34934 24 18410579487495421106
350125 39 18410853270497103409
3545911 37 18409728465004658699
4214541 1 18410573985404840613
4340502 62 16486967427311114488
4463277 17 18410854344164853492
474 4 17273971346805316140
495365 180 17386300813236379912
5104073 3 18410856551070961450
542803 24 17489866033928325838
69090 78 18408044004896630303
7364860 26 18191307083192322384
77779 3 18411417310580517831
8809292 202 18271804558280622859
9709674 26 18409161091351616831
9981440 41 17261874347661757408

> <PUBCHEM_SHAPE_MULTIPOLES>
391.01
10.27
2.06
0.62
2.87
0.05
0
-0.35
0
-0.45
0
0
0
0

> <PUBCHEM_SHAPE_SELFOVERLAP>
893.601

> <PUBCHEM_SHAPE_VOLUME>
187

> <PUBCHEM_COORDINATE_TYPE>
2
5
10

$$$$

