14088
  -OEChem-06241222422D

 19 19  0     0  0  0  0  0  0999 V2000
    5.5202    0.2593    0.0000 O   0  0  0  0  0  0  0  0  0  0  0  0
    2.0000    0.2593    0.0000 O   0  0  0  0  0  0  0  0  0  0  0  0
    3.7601   -0.0194    0.0000 N   0  0  0  0  0  0  0  0  0  0  0  0
    3.7601   -1.0194    0.0000 C   0  0  0  0  0  0  0  0  0  0  0  0
    2.8940   -1.5194    0.0000 C   0  0  0  0  0  0  0  0  0  0  0  0
    4.6261   -1.5194    0.0000 C   0  0  0  0  0  0  0  0  0  0  0  0
    4.5691    0.5684    0.0000 C   0  0  0  0  0  0  0  0  0  0  0  0
    2.9511    0.5684    0.0000 C   0  0  0  0  0  0  0  0  0  0  0  0
    3.2601    1.5194    0.0000 C   0  0  0  0  0  0  0  0  0  0  0  0
    4.2601    1.5194    0.0000 C   0  0  0  0  0  0  0  0  0  0  0  0
    3.2231   -0.7094    0.0000 H   0  0  0  0  0  0  0  0  0  0  0  0
    2.5840   -0.9825    0.0000 H   0  0  0  0  0  0  0  0  0  0  0  0
    2.3571   -1.8294    0.0000 H   0  0  0  0  0  0  0  0  0  0  0  0
    3.2040   -2.0564    0.0000 H   0  0  0  0  0  0  0  0  0  0  0  0
    4.3161   -2.0564    0.0000 H   0  0  0  0  0  0  0  0  0  0  0  0
    5.1630   -1.8294    0.0000 H   0  0  0  0  0  0  0  0  0  0  0  0
    4.9361   -0.9825    0.0000 H   0  0  0  0  0  0  0  0  0  0  0  0
    4.6245    2.0210    0.0000 H   0  0  0  0  0  0  0  0  0  0  0  0
    2.8956    2.0210    0.0000 H   0  0  0  0  0  0  0  0  0  0  0  0
  1  7  2  0  0  0  0
  2  8  2  0  0  0  0
  3  4  1  0  0  0  0
  3  7  1  0  0  0  0
  3  8  1  0  0  0  0
  4  5  1  0  0  0  0
  4  6  1  0  0  0  0
  4 11  1  0  0  0  0
  5 12  1  0  0  0  0
  5 13  1  0  0  0  0
  5 14  1  0  0  0  0
  6 15  1  0  0  0  0
  6 16  1  0  0  0  0
  6 17  1  0  0  0  0
  7 10  1  0  0  0  0
  8  9  1  0  0  0  0
  9 10  2  0  0  0  0
  9 19  1  0  0  0  0
 10 18  1  0  0  0  0
M  END
> <PUBCHEM_COMPOUND_CID>
14088

> <PUBCHEM_COMPOUND_CANONICALIZED>
1

> <PUBCHEM_CACTVS_COMPLEXITY>
188

> <PUBCHEM_CACTVS_HBOND_ACCEPTOR>
2

> <PUBCHEM_CACTVS_HBOND_DONOR>
0

> <PUBCHEM_CACTVS_ROTATABLE_BOND>
1

> <PUBCHEM_CACTVS_SUBSKEYS>
AAADccBiMAAAAAAAAAAAAAAAAAAAAQAAAAAAAAAAAAAAAAAAAAAAHgAAAAAACCjBgAQCAAMAAACIACFSEACAAAAAAAAICAAIAEAAAAAAAAAAAAAABiCAAYAAAAAAAAAAAAAAAAAAAAAAAAAAAAAAAAAAAA==

> <PUBCHEM_IUPAC_OPENEYE_NAME>
1-isopropylpyrrole-2,5-dione

> <PUBCHEM_IUPAC_CAS_NAME>
1-propan-2-ylpyrrole-2,5-dione

> <PUBCHEM_IUPAC_NAME>
1-propan-2-ylpyrrole-2,5-dione

> <PUBCHEM_IUPAC_SYSTEMATIC_NAME>
1-propan-2-ylpyrrole-2,5-dione

> <PUBCHEM_IUPAC_TRADITIONAL_NAME>
1-isopropyl-3-pyrroline-2,5-quinone

> <PUBCHEM_IUPAC_INCHI>
InChI=1S/C7H9NO2/c1-5(2)8-6(9)3-4-7(8)10/h3-5H,1-2H3

> <PUBCHEM_IUPAC_INCHIKEY>
NQDOCLXQTQYUDH-UHFFFAOYSA-N

> <PUBCHEM_XLOGP3_AA>
0.3

> <PUBCHEM_EXACT_MASS>
139.063329

> <PUBCHEM_MOLECULAR_FORMULA>
C7H9NO2

> <PUBCHEM_MOLECULAR_WEIGHT>
139.15186

> <PUBCHEM_OPENEYE_CAN_SMILES>
CC(C)N1C(=O)C=CC1=O

> <PUBCHEM_OPENEYE_ISO_SMILES>
CC(C)N1C(=O)C=CC1=O

> <PUBCHEM_CACTVS_TPSA>
37.4

> <PUBCHEM_MONOISOTOPIC_WEIGHT>
139.063329

> <PUBCHEM_TOTAL_CHARGE>
0

> <PUBCHEM_HEAVY_ATOM_COUNT>
10

> <PUBCHEM_ATOM_DEF_STEREO_COUNT>
0

> <PUBCHEM_ATOM_UDEF_STEREO_COUNT>
0

> <PUBCHEM_BOND_DEF_STEREO_COUNT>
0

> <PUBCHEM_BOND_UDEF_STEREO_COUNT>
0

> <PUBCHEM_ISOTOPIC_ATOM_COUNT>
0

> <PUBCHEM_COMPONENT_COUNT>
1

> <PUBCHEM_CACTVS_TAUTO_COUNT>
1

> <PUBCHEM_COORDINATE_TYPE>
1
5
255

$$$$

