5281640
  -OEChem-07051212583D

 29 31  0     0  0  0  0  0  0999 V2000
   -0.2781    1.6421    0.0003 O   0  0  0  0  0  0  0  0  0  0  0  0
    4.7297   -0.6946   -0.0001 O   0  0  0  0  0  0  0  0  0  0  0  0
   -0.0319   -2.4423    0.0018 O   0  0  0  0  0  0  0  0  0  0  0  0
   -2.6624   -2.5940   -0.0011 O   0  0  0  0  0  0  0  0  0  0  0  0
   -5.0184    1.5275    0.0004 O   0  0  0  0  0  0  0  0  0  0  0  0
   -1.4134   -0.5201    0.0000 C   0  0  0  0  0  0  0  0  0  0  0  0
    1.0859   -0.3836    0.0000 C   0  0  0  0  0  0  0  0  0  0  0  0
   -1.4167    0.8745    0.0002 C   0  0  0  0  0  0  0  0  0  0  0  0
    0.9373    1.0031    0.0001 C   0  0  0  0  0  0  0  0  0  0  0  0
   -0.1217   -1.2235    0.0001 C   0  0  0  0  0  0  0  0  0  0  0  0
   -2.6153   -1.2329   -0.0003 C   0  0  0  0  0  0  0  0  0  0  0  0
    2.3583   -0.9614   -0.0002 C   0  0  0  0  0  0  0  0  0  0  0  0
   -2.6318    1.5626    0.0001 C   0  0  0  0  0  0  0  0  0  0  0  0
    2.0703    1.8193   -0.0001 C   0  0  0  0  0  0  0  0  0  0  0  0
    3.4863   -0.1406   -0.0004 C   0  0  0  0  0  0  0  0  0  0  0  0
   -3.8260   -0.5398   -0.0003 C   0  0  0  0  0  0  0  0  0  0  0  0
    3.3429    1.2471   -0.0005 C   0  0  0  0  0  0  0  0  0  0  0  0
   -3.8346    0.8552   -0.0001 C   0  0  0  0  0  0  0  0  0  0  0  0
    5.8396    0.2018    0.0002 C   0  0  0  0  0  0  0  0  0  0  0  0
    2.4844   -2.0408   -0.0002 H   0  0  0  0  0  0  0  0  0  0  0  0
   -2.6434    2.6499    0.0004 H   0  0  0  0  0  0  0  0  0  0  0  0
    1.9686    2.9015   -0.0001 H   0  0  0  0  0  0  0  0  0  0  0  0
   -4.7624   -1.0928   -0.0006 H   0  0  0  0  0  0  0  0  0  0  0  0
    4.1771    1.9404   -0.0007 H   0  0  0  0  0  0  0  0  0  0  0  0
   -1.7664   -2.9644   -0.0019 H   0  0  0  0  0  0  0  0  0  0  0  0
   -5.7471    0.8833    0.0002 H   0  0  0  0  0  0  0  0  0  0  0  0
    5.8645    0.8115    0.9098 H   0  0  0  0  0  0  0  0  0  0  0  0
    5.8652    0.8113   -0.9094 H   0  0  0  0  0  0  0  0  0  0  0  0
    6.7483   -0.4092    0.0006 H   0  0  0  0  0  0  0  0  0  0  0  0
  1  8  1  0  0  0  0
  1  9  1  0  0  0  0
  2 15  1  0  0  0  0
  2 19  1  0  0  0  0
  3 10  2  0  0  0  0
  4 11  1  0  0  0  0
  4 25  1  0  0  0  0
  5 18  1  0  0  0  0
  5 26  1  0  0  0  0
  6  8  1  0  0  0  0
  6 10  1  0  0  0  0
  6 11  2  0  0  0  0
  7  9  2  0  0  0  0
  7 10  1  0  0  0  0
  7 12  1  0  0  0  0
  8 13  2  0  0  0  0
  9 14  1  0  0  0  0
 11 16  1  0  0  0  0
 12 15  2  0  0  0  0
 12 20  1  0  0  0  0
 13 18  1  0  0  0  0
 13 21  1  0  0  0  0
 14 17  2  0  0  0  0
 14 22  1  0  0  0  0
 15 17  1  0  0  0  0
 16 18  2  0  0  0  0
 16 23  1  0  0  0  0
 17 24  1  0  0  0  0
 19 27  1  0  0  0  0
 19 28  1  0  0  0  0
 19 29  1  0  0  0  0
M  END
> <PUBCHEM_COMPOUND_CID>
5281640

> <PUBCHEM_CONFORMER_RMSD>
0.6

> <PUBCHEM_CONFORMER_DIVERSEORDER>
1

> <PUBCHEM_MMFF94_PARTIAL_CHARGES>
26
1 -0.17
10 0.4
11 0.08
12 -0.15
13 -0.15
14 -0.15
15 0.08
16 -0.15
17 -0.15
18 0.08
19 0.28
2 -0.36
20 0.15
21 0.15
22 0.15
23 0.15
24 0.15
25 0.45
26 0.45
3 -0.57
4 -0.53
5 -0.53
6 0.09
7 0.09
8 0.08
9 0.08

> <PUBCHEM_EFFECTIVE_ROTOR_COUNT>
1

> <PUBCHEM_PHARMACOPHORE_FEATURES>
8
1 1 acceptor
1 2 acceptor
1 3 acceptor
1 4 donor
1 5 donor
6 1 6 7 8 9 10 rings
6 6 8 11 13 16 18 rings
6 7 9 12 14 15 17 rings

> <PUBCHEM_HEAVY_ATOM_COUNT>
19

> <PUBCHEM_ATOM_DEF_STEREO_COUNT>
0

> <PUBCHEM_ATOM_UDEF_STEREO_COUNT>
0

> <PUBCHEM_BOND_DEF_STEREO_COUNT>
0

> <PUBCHEM_BOND_UDEF_STEREO_COUNT>
0

> <PUBCHEM_ISOTOPIC_ATOM_COUNT>
0

> <PUBCHEM_COMPONENT_COUNT>
1

> <PUBCHEM_CACTVS_TAUTO_COUNT>
12

> <PUBCHEM_CONFORMER_ID>
0050976800000001

> <PUBCHEM_MMFF94_ENERGY>
66.6392

> <PUBCHEM_FEATURE_SELFOVERLAP>
40.652

> <PUBCHEM_SHAPE_FINGERPRINT>
10062212 137 18410300189634658287
10411042 1 17906170646925688395
10608611 8 18336830783996123137
10616163 171 18409728435003782375
10967382 1 18338799030073863335
11132069 177 18409732858777373104
11401426 45 18408044017739171688
11578080 2 16952546666838866930
12236239 1 17846778512226879442
12403814 3 17703511077496453869
13140716 1 18410569548751233369
13214271 11 18334297552202736799
13288520 33 18408601470540512732
13380535 76 18409166645086793095
13675066 3 18114185198863017672
14790565 3 18266450086940922193
15042514 8 18195242218276281331
15099037 51 18410293627014067076
15196674 1 18410855417484606340
15442244 35 18339643343661919220
15536298 74 18335140847931061496
16945 1 18338799043301643589
17804303 29 18409445864836460116
18186145 218 18059584563455055956
18522853 276 18335139799948459352
200 152 17821451252710954005
21267235 1 18339354180625488771
21421861 104 17701265956473088794
21501502 16 18339921489680383412
221490 88 18268705005211197904
23175994 123 17167856457348214280
2334 1 18266458711455947621
23402539 116 18333739009033285332
23463225 33 18413671309480872620
23558518 356 17984981496819456211
23559900 14 18261396616162839712
2748010 2 18338516339879916333
3004659 81 18271521005626482718
335352 9 18410856589810218524
34934 24 18411705421297810939
350125 39 18339356371079804809
3545911 37 18408884052975343824
4214541 1 18410575071804739172
474 4 16986867944397424556
5104073 3 18339081493167573984
633830 44 17418374653824006112
69090 78 18335424564458441199
7364860 26 18192149519331082671
8809292 202 18342454803146681531
9709674 26 18335696122551344574

> <PUBCHEM_SHAPE_MULTIPOLES>
361.66
9.44
2.16
0.59
5.55
0.59
0
-1.44
0
-1.27
0
0.02
-0.01
0

> <PUBCHEM_SHAPE_SELFOVERLAP>
813.383

> <PUBCHEM_SHAPE_VOLUME>
190.8

> <PUBCHEM_COORDINATE_TYPE>
2
5
10

$$$$

