17396538
  -OEChem-06241222573D

 37 38  0     0  0  0  0  0  0999 V2000
    3.6383    1.6628   -1.7344 S   0  0  0  0  0  0  0  0  0  0  0  0
   -0.5648    0.8391    0.2372 O   0  0  0  0  0  0  0  0  0  0  0  0
   -1.9198    1.6254    1.9110 O   0  0  0  0  0  0  0  0  0  0  0  0
    4.3106   -1.8109    1.3077 O   0  0  0  0  0  0  0  0  0  0  0  0
    2.6392    0.4367    0.3103 N   0  0  0  0  0  0  0  0  0  0  0  0
    4.7524   -0.3734   -0.5157 N   0  0  0  0  0  0  0  0  0  0  0  0
   -2.8137    0.1145    0.3212 C   0  0  0  0  0  0  0  0  0  0  0  0
   -3.9919    0.6942   -0.1495 C   0  0  0  0  0  0  0  0  0  0  0  0
   -3.6251   -2.0652   -0.3324 C   0  0  0  0  0  0  0  0  0  0  0  0
   -2.6304   -1.2651    0.2297 C   0  0  0  0  0  0  0  0  0  0  0  0
   -4.9868   -0.1059   -0.7116 C   0  0  0  0  0  0  0  0  0  0  0  0
   -4.8033   -1.4855   -0.8030 C   0  0  0  0  0  0  0  0  0  0  0  0
   -1.7577    0.9275    0.9094 C   0  0  0  0  0  0  0  0  0  0  0  0
    0.5183    1.6147    0.7628 C   0  0  0  0  0  0  0  0  0  0  0  0
   -4.2135    2.1692   -0.0644 C   0  0  0  0  0  0  0  0  0  0  0  0
    1.7638    1.4460   -0.0405 C   0  0  0  0  0  0  0  0  0  0  0  0
   -3.4300   -3.5406   -0.4294 C   0  0  0  0  0  0  0  0  0  0  0  0
    2.1344    2.2160   -1.1230 C   0  0  0  0  0  0  0  0  0  0  0  0
    3.6631    0.4569   -0.5138 C   0  0  0  0  0  0  0  0  0  0  0  0
    5.0071   -1.4320    0.3720 C   0  0  0  0  0  0  0  0  0  0  0  0
    6.3098   -2.1246    0.0563 C   0  0  0  0  0  0  0  0  0  0  0  0
   -1.7129   -1.7200    0.5968 H   0  0  0  0  0  0  0  0  0  0  0  0
   -5.9110    0.3295   -1.0822 H   0  0  0  0  0  0  0  0  0  0  0  0
   -5.5853   -2.0979   -1.2443 H   0  0  0  0  0  0  0  0  0  0  0  0
    0.2289    2.6729    0.7734 H   0  0  0  0  0  0  0  0  0  0  0  0
    0.7119    1.3018    1.7962 H   0  0  0  0  0  0  0  0  0  0  0  0
   -5.0970    2.4784   -0.6339 H   0  0  0  0  0  0  0  0  0  0  0  0
   -3.3619    2.7174   -0.4811 H   0  0  0  0  0  0  0  0  0  0  0  0
   -4.3686    2.4728    0.9759 H   0  0  0  0  0  0  0  0  0  0  0  0
   -2.9141   -3.7907   -1.3617 H   0  0  0  0  0  0  0  0  0  0  0  0
   -2.8377   -3.9156    0.4122 H   0  0  0  0  0  0  0  0  0  0  0  0
   -4.3886   -4.0700   -0.4070 H   0  0  0  0  0  0  0  0  0  0  0  0
    1.6132    3.0495   -1.5721 H   0  0  0  0  0  0  0  0  0  0  0  0
    5.4351   -0.1857   -1.2454 H   0  0  0  0  0  0  0  0  0  0  0  0
    7.1332   -1.4065    0.1066 H   0  0  0  0  0  0  0  0  0  0  0  0
    6.2634   -2.5578   -0.9468 H   0  0  0  0  0  0  0  0  0  0  0  0
    6.4910   -2.9230    0.7810 H   0  0  0  0  0  0  0  0  0  0  0  0
  1 18  1  0  0  0  0
  1 19  1  0  0  0  0
  2 13  1  0  0  0  0
  2 14  1  0  0  0  0
  3 13  2  0  0  0  0
  4 20  2  0  0  0  0
  5 16  1  0  0  0  0
  5 19  2  0  0  0  0
  6 19  1  0  0  0  0
  6 20  1  0  0  0  0
  6 34  1  0  0  0  0
  7  8  2  0  0  0  0
  7 10  1  0  0  0  0
  7 13  1  0  0  0  0
  8 11  1  0  0  0  0
  8 15  1  0  0  0  0
  9 10  2  0  0  0  0
  9 12  1  0  0  0  0
  9 17  1  0  0  0  0
 10 22  1  0  0  0  0
 11 12  2  0  0  0  0
 11 23  1  0  0  0  0
 12 24  1  0  0  0  0
 14 16  1  0  0  0  0
 14 25  1  0  0  0  0
 14 26  1  0  0  0  0
 15 27  1  0  0  0  0
 15 28  1  0  0  0  0
 15 29  1  0  0  0  0
 16 18  2  0  0  0  0
 17 30  1  0  0  0  0
 17 31  1  0  0  0  0
 17 32  1  0  0  0  0
 18 33  1  0  0  0  0
 20 21  1  0  0  0  0
 21 35  1  0  0  0  0
 21 36  1  0  0  0  0
 21 37  1  0  0  0  0
M  END
> <PUBCHEM_COMPOUND_CID>
17396538

> <PUBCHEM_CONFORMER_RMSD>
0.8

> <PUBCHEM_CONFORMER_DIVERSEORDER>
2
50
121
90
51
197
295
208
33
205
294
189
224
42
235
114
321
76
230
309
222
228
73
301
139
202
260
20
145
212
217
315
140
312
115
72
177
106
31
329
80
327
317
112
156
324
96
87
264
213
195
225
57
284
275
155
84
204
300
253
47
168
154
237
99
239
101
201
288
211
207
325
319
78
164
297
215
172
66
267
120
183
134
192
83
236
248
179
65
17
52
277
117
142
111
254
274
102
170
70
276
184
144
74
299
61
292
256
190
95
263
308
122
229
100
161
59
60
131
175
163
273
136
188
128
240
210
34
231
221
55
186
77
266
71
238
27
323
45
24
268
281
187
113
103
322
49
261
141
123
306
125
110
243
326
314
3
247
287
305
242
18
25
283
171
246
193
143
200
304
270
9
316
249
286
37
149
75
302
271
26
82
98
48
245
133
39
88
129
58
116
146
233
118
251
81
130
313
220
109
198
97
40
104
282
303
62
44
56
279
127
244
64
181
63
265
255
91
259
152
1
105
159
12
107
216
38
203
241
157
16
150
250
272
79
23
166
160
178
185
35
119
232
53
8
206
223
69
22
29
218
135
21
85
93
258
278
285
298
194
291
137
227
30
153
307
5
147
92
328
68
290
296
148
310
180
158
138
280
311
11
14
126
269
167
10
257
41
226
169
46
289
199
318
19
13
132
214
6
94
151
176
196
15
219
7
162
86
32
43
182
124
234
165
67
252
174
320
108
54
36
28
262
191
89
4
209
293
173

> <PUBCHEM_MMFF94_PARTIAL_CHARGES>
26
1 -0.08
10 -0.15
11 -0.15
12 -0.15
13 0.63
14 0.46
15 0.14
16 0.05
17 0.14
18 -0.11
19 0.44
2 -0.43
20 0.57
21 0.06
22 0.15
23 0.15
24 0.15
3 -0.57
33 0.15
34 0.37
4 -0.57
5 -0.57
6 -0.49
7 0.09
8 -0.14
9 -0.14

> <PUBCHEM_EFFECTIVE_ROTOR_COUNT>
6

> <PUBCHEM_PHARMACOPHORE_FEATURES>
5
1 3 acceptor
1 4 acceptor
1 6 donor
5 1 5 16 18 19 rings
6 7 8 9 10 11 12 rings

> <PUBCHEM_HEAVY_ATOM_COUNT>
21

> <PUBCHEM_ATOM_DEF_STEREO_COUNT>
0

> <PUBCHEM_ATOM_UDEF_STEREO_COUNT>
0

> <PUBCHEM_BOND_DEF_STEREO_COUNT>
0

> <PUBCHEM_BOND_UDEF_STEREO_COUNT>
0

> <PUBCHEM_ISOTOPIC_ATOM_COUNT>
0

> <PUBCHEM_COMPONENT_COUNT>
1

> <PUBCHEM_CACTVS_TAUTO_COUNT>
3

> <PUBCHEM_CONFORMER_ID>
0109733A00000002

> <PUBCHEM_MMFF94_ENERGY>
46.6283

> <PUBCHEM_FEATURE_SELFOVERLAP>
25.371

> <PUBCHEM_SHAPE_FINGERPRINT>
10042902 136 18190446350893821278
10622 236 18338530637626487926
10759866 29 18196364815210101972
10803635 8 18411985792990055725
10928967 22 17756132402374190623
11796584 16 18334007324472917540
12107183 9 18268989976033337689
12363563 72 17168694246406531305
12410352 35 18409731759629975982
12555020 224 18410303514603867087
12596602 18 18187369835564488426
12616971 3 18342446058640811081
13167823 11 18342738490026131791
14251751 18 18333455322127519482
14347332 77 18338520734048471023
14480069 147 18130498626830534939
14848178 5 18334579053318529150
14910302 57 18341909454233145861
15003188 33 18201720634859388245
15183329 4 18131074886781461389
15250474 111 18412265012798017862
15728490 51 18335706036374846742
15842332 3 18193247811388853648
17349148 13 18259701207227748437
17492 89 18196371425049134595
17857418 61 18410013247512414642
18186145 218 15769772420911013832
18222031 100 18272089448642199744
19784866 240 18410854390987409692
20626108 58 18410860945323820240
20645477 70 17489298664638563096
21054139 6 18124025742354436532
21304303 282 17244699310774875833
23559900 14 18261685770177143921
25122255 55 17822282531168524454
3004659 81 18342741827679924906
312425 83 17632021827627101421
339767 52 18333739034988068982
439807 62 18268990891447148591
44062 13 18411138022190755335
463206 1 18413669110552809834
5104073 3 17822005372364726297
559249 180 18337956791661899683
633830 44 16988841657314735673
88748 71 18340482262175433291
90127 26 9150901619314269684
960060 61 17774997986545158052

> <PUBCHEM_SHAPE_MULTIPOLES>
408.45
13.95
3.18
1.22
9.72
1.81
-0.04
8.17
2.16
-0.54
0.3
0.43
-0.47
-2.33

> <PUBCHEM_SHAPE_SELFOVERLAP>
848.057

> <PUBCHEM_SHAPE_VOLUME>
235.5

> <PUBCHEM_COORDINATE_TYPE>
2
5
10

$$$$

