440288
  -OEChem-07051212493D

 64 68  0     1  0  0  0  0  0999 V2000
   -7.7741   -0.9250    1.4120 O   0  0  0  0  0  0  0  0  0  0  0  0
    2.5178   -0.7126   -1.4894 O   0  0  0  0  0  0  0  0  0  0  0  0
    4.2049    0.6481   -0.6260 O   0  0  0  0  0  0  0  0  0  0  0  0
    3.3321   -2.7907    0.2435 O   0  0  0  0  0  0  0  0  0  0  0  0
    6.1780   -2.5809    0.9715 O   0  0  0  0  0  0  0  0  0  0  0  0
    6.7540    0.0989    1.9386 O   0  0  0  0  0  0  0  0  0  0  0  0
    6.0932    2.9771    1.0428 O   0  0  0  0  0  0  0  0  0  0  0  0
    6.1201    2.3822   -1.1575 O   0  0  0  0  0  0  0  0  0  0  0  0
   -5.5968    0.1506    0.9881 C   0  0  1  0  0  0  0  0  0  0  0  0
   -5.1363    1.1012   -0.1410 C   0  0  1  0  0  0  0  0  0  0  0  0
   -3.6472    1.0348   -0.5443 C   0  0  2  0  0  0  0  0  0  0  0  0
   -3.1024   -0.4113   -0.6349 C   0  0  2  0  0  0  0  0  0  0  0  0
   -7.1291    0.1660    0.7804 C   0  0  1  0  0  0  0  0  0  0  0  0
   -4.9993   -1.2639    0.8226 C   0  0  0  0  0  0  0  0  0  0  0  0
   -6.0627    0.7474   -1.3265 C   0  0  0  0  0  0  0  0  0  0  0  0
   -3.4889   -1.2527    0.5951 C   0  0  0  0  0  0  0  0  0  0  0  0
   -7.3278    0.1355   -0.7303 C   0  0  0  0  0  0  0  0  0  0  0  0
   -2.7571    1.8805    0.3798 C   0  0  0  0  0  0  0  0  0  0  0  0
   -5.2860    0.6844    2.3963 C   0  0  0  0  0  0  0  0  0  0  0  0
   -1.5983   -0.4567   -0.8595 C   0  0  0  0  0  0  0  0  0  0  0  0
   -1.3454    1.9867   -0.1908 C   0  0  0  0  0  0  0  0  0  0  0  0
   -0.7761    0.6591   -0.6171 C   0  0  0  0  0  0  0  0  0  0  0  0
   -1.0097   -1.6506   -1.3133 C   0  0  0  0  0  0  0  0  0  0  0  0
    0.6072    0.5607   -0.8390 C   0  0  0  0  0  0  0  0  0  0  0  0
    0.3666   -1.7380   -1.5208 C   0  0  0  0  0  0  0  0  0  0  0  0
    1.1753   -0.6324   -1.2825 C   0  0  0  0  0  0  0  0  0  0  0  0
    3.3640   -0.4729   -0.3655 C   0  0  2  0  0  0  0  0  0  0  0  0
    4.2066   -1.7274   -0.1338 C   0  0  1  0  0  0  0  0  0  0  0  0
    5.2394   -1.5042    0.9713 C   0  0  2  0  0  0  0  0  0  0  0  0
    6.0127   -0.2026    0.7577 C   0  0  1  0  0  0  0  0  0  0  0  0
    5.0596    0.9508    0.4706 C   0  0  1  0  0  0  0  0  0  0  0  0
    5.8059    2.1578    0.0019 C   0  0  0  0  0  0  0  0  0  0  0  0
   -5.3761    2.1363    0.1429 H   0  0  0  0  0  0  0  0  0  0  0  0
   -3.5644    1.4870   -1.5448 H   0  0  0  0  0  0  0  0  0  0  0  0
   -3.5650   -0.8751   -1.5173 H   0  0  0  0  0  0  0  0  0  0  0  0
   -7.5670    1.0929    1.1736 H   0  0  0  0  0  0  0  0  0  0  0  0
   -5.4644   -1.7821   -0.0254 H   0  0  0  0  0  0  0  0  0  0  0  0
   -5.2232   -1.8755    1.7058 H   0  0  0  0  0  0  0  0  0  0  0  0
   -5.6026    0.0304   -2.0146 H   0  0  0  0  0  0  0  0  0  0  0  0
   -6.2954    1.6440   -1.9120 H   0  0  0  0  0  0  0  0  0  0  0  0
   -2.9715   -0.8916    1.4915 H   0  0  0  0  0  0  0  0  0  0  0  0
   -3.1580   -2.2904    0.4611 H   0  0  0  0  0  0  0  0  0  0  0  0
   -8.2204    0.7017   -1.0181 H   0  0  0  0  0  0  0  0  0  0  0  0
   -7.4757   -0.8867   -1.0978 H   0  0  0  0  0  0  0  0  0  0  0  0
   -2.6971    1.4432    1.3799 H   0  0  0  0  0  0  0  0  0  0  0  0
   -3.1699    2.8894    0.4973 H   0  0  0  0  0  0  0  0  0  0  0  0
   -4.2193    0.6683    2.6263 H   0  0  0  0  0  0  0  0  0  0  0  0
   -5.6327    1.7170    2.5149 H   0  0  0  0  0  0  0  0  0  0  0  0
   -5.7812    0.0819    3.1658 H   0  0  0  0  0  0  0  0  0  0  0  0
   -0.6959    2.4466    0.5639 H   0  0  0  0  0  0  0  0  0  0  0  0
   -1.3560    2.6500   -1.0650 H   0  0  0  0  0  0  0  0  0  0  0  0
   -7.6394   -0.8368    2.3701 H   0  0  0  0  0  0  0  0  0  0  0  0
   -1.6266   -2.5244   -1.5108 H   0  0  0  0  0  0  0  0  0  0  0  0
    1.2382    1.4318   -0.6743 H   0  0  0  0  0  0  0  0  0  0  0  0
    0.7977   -2.6707   -1.8736 H   0  0  0  0  0  0  0  0  0  0  0  0
    2.7641   -0.2682    0.5333 H   0  0  0  0  0  0  0  0  0  0  0  0
    4.7110   -2.0358   -1.0581 H   0  0  0  0  0  0  0  0  0  0  0  0
    4.7617   -1.5095    1.9590 H   0  0  0  0  0  0  0  0  0  0  0  0
    6.7344   -0.3366   -0.0583 H   0  0  0  0  0  0  0  0  0  0  0  0
    4.4505    1.2230    1.3418 H   0  0  0  0  0  0  0  0  0  0  0  0
    2.7600   -2.9811   -0.5187 H   0  0  0  0  0  0  0  0  0  0  0  0
    5.6736   -3.4053    1.0804 H   0  0  0  0  0  0  0  0  0  0  0  0
    7.2946    0.8863    1.7577 H   0  0  0  0  0  0  0  0  0  0  0  0
    6.5855    3.7755    0.7556 H   0  0  0  0  0  0  0  0  0  0  0  0
  1 13  1  0  0  0  0
  1 52  1  0  0  0  0
  2 26  1  0  0  0  0
  2 27  1  0  0  0  0
  3 27  1  0  0  0  0
  3 31  1  0  0  0  0
  4 28  1  0  0  0  0
  4 61  1  0  0  0  0
  5 29  1  0  0  0  0
  5 62  1  0  0  0  0
  6 30  1  0  0  0  0
  6 63  1  0  0  0  0
  7 32  1  0  0  0  0
  7 64  1  0  0  0  0
  8 32  2  0  0  0  0
  9 10  1  0  0  0  0
  9 13  1  0  0  0  0
  9 14  1  0  0  0  0
  9 19  1  0  0  0  0
 10 11  1  0  0  0  0
 10 15  1  0  0  0  0
 10 33  1  0  0  0  0
 11 12  1  0  0  0  0
 11 18  1  0  0  0  0
 11 34  1  0  0  0  0
 12 16  1  0  0  0  0
 12 20  1  0  0  0  0
 12 35  1  0  0  0  0
 13 17  1  0  0  0  0
 13 36  1  0  0  0  0
 14 16  1  0  0  0  0
 14 37  1  0  0  0  0
 14 38  1  0  0  0  0
 15 17  1  0  0  0  0
 15 39  1  0  0  0  0
 15 40  1  0  0  0  0
 16 41  1  0  0  0  0
 16 42  1  0  0  0  0
 17 43  1  0  0  0  0
 17 44  1  0  0  0  0
 18 21  1  0  0  0  0
 18 45  1  0  0  0  0
 18 46  1  0  0  0  0
 19 47  1  0  0  0  0
 19 48  1  0  0  0  0
 19 49  1  0  0  0  0
 20 22  2  0  0  0  0
 20 23  1  0  0  0  0
 21 22  1  0  0  0  0
 21 50  1  0  0  0  0
 21 51  1  0  0  0  0
 22 24  1  0  0  0  0
 23 25  2  0  0  0  0
 23 53  1  0  0  0  0
 24 26  2  0  0  0  0
 24 54  1  0  0  0  0
 25 26  1  0  0  0  0
 25 55  1  0  0  0  0
 27 28  1  0  0  0  0
 27 56  1  0  0  0  0
 28 29  1  0  0  0  0
 28 57  1  0  0  0  0
 29 30  1  0  0  0  0
 29 58  1  0  0  0  0
 30 31  1  0  0  0  0
 30 59  1  0  0  0  0
 31 32  1  0  0  0  0
 31 60  1  0  0  0  0
M  END
> <PUBCHEM_COMPOUND_CID>
440288

> <PUBCHEM_CONFORMER_RMSD>
1

> <PUBCHEM_CONFORMER_DIVERSEORDER>
1
319
222
2
205
101
144
372
334
140
220
357
325
353
282
346
70
47
207
30
146
327
344
310
161
364
14
381
73
332
153
126
299
219
266
348
150
363
99
382
297
194
322
380
350
137
121
35
377
210
203
329
171
229
104
276
230
124
72
336
81
48
42
264
155
200
44
141
362
345
215
386
218
163
328
71
263
7
315
249
180
316
349
360
367
369
365
192
275
119
157
158
38
169
394
94
31
160
187
168
245
22
371
93
294
300
309
195
111
145
383
12
228
36
76
78
123
267
18
65
390
393
178
224
323
43
231
314
359
199
182
90
311
251
62
292
312
19
324
388
125
330
131
340
9
244
351
270
85
170
290
156
154
343
164
11
235
298
239
335
201
110
152
148
5
95
3
102
368
352
252
337
356
253
49
40
302
374
61
305
51
189
295
255
68
98
66
74
108
385
80
27
21
190
127
167
165
24
134
53
308
261
355
128
392
39
46
172
37
326
317
133
226
234
248
129
103
17
132
92
67
212
250
32
242
82
318
174
339
291
384
89
88
378
358
236
23
273
227
20
214
79
233
8
304
26
86
361
4
204
274
122
338
225
114
279
16
202
320
41
91
306
296
284
240
271
130
75
6
387
307
243
59
256
293
370
389
64
391
118
288
185
277
379
58
260
213
198
56
135
283
217
84
247
206
193
77
181
33
209
354
45
96
117
60
301
303
105
286
87
10
237
50
57
25
285
54
281
115
175
262
257
138
196
151
366
179
342
112
28
333
63
173
149
241
272
109
116
183
289
142
136
376
278
197
254
143
113
341
208
258
69
331
52
265
246
176
55
223
147
166
177
269
184
106
375
259
139
373
211
321
34
188
162
15
268
238
232
280
313
107
287
29
120
186
347
159
100
216
13
97
221
191
83

> <PUBCHEM_MMFF94_PARTIAL_CHARGES>
31
1 -0.68
12 0.14
13 0.28
2 -0.36
20 -0.14
21 0.14
22 -0.14
23 -0.15
24 -0.15
25 -0.15
26 0.08
27 0.56
28 0.28
29 0.28
3 -0.56
30 0.28
31 0.34
32 0.66
4 -0.68
5 -0.68
52 0.4
53 0.15
54 0.15
55 0.15
6 -0.68
61 0.4
62 0.4
63 0.4
64 0.5
7 -0.65
8 -0.57

> <PUBCHEM_EFFECTIVE_ROTOR_COUNT>
5.6

> <PUBCHEM_PHARMACOPHORE_FEATURES>
18
1 1 acceptor
1 1 donor
1 2 acceptor
1 3 acceptor
1 4 acceptor
1 4 donor
1 5 acceptor
1 5 donor
1 6 acceptor
1 6 donor
1 7 acceptor
1 8 acceptor
3 7 8 32 anion
5 9 10 13 15 17 rings
6 11 12 18 20 21 22 rings
6 20 22 23 24 25 26 rings
6 3 27 28 29 30 31 rings
6 9 10 11 12 14 16 rings

> <PUBCHEM_HEAVY_ATOM_COUNT>
32

> <PUBCHEM_ATOM_DEF_STEREO_COUNT>
6

> <PUBCHEM_ATOM_UDEF_STEREO_COUNT>
4

> <PUBCHEM_BOND_DEF_STEREO_COUNT>
0

> <PUBCHEM_BOND_UDEF_STEREO_COUNT>
0

> <PUBCHEM_ISOTOPIC_ATOM_COUNT>
0

> <PUBCHEM_COMPONENT_COUNT>
1

> <PUBCHEM_CACTVS_TAUTO_COUNT>
1

> <PUBCHEM_CONFORMER_ID>
0006B7E000000001

> <PUBCHEM_MMFF94_ENERGY>
106.4841

> <PUBCHEM_FEATURE_SELFOVERLAP>
91.687

> <PUBCHEM_SHAPE_FINGERPRINT>
10 15 18412260610466712133
10906281 52 17894903010497688607
12236239 1 14908170938184939975
12596602 18 18131071528069394416
13533116 47 18201718504951195882
13782708 43 15195563485664006597
13811026 1 18060424629557963277
14068700 675 14476960095141686935
14251764 18 18186520986665066933
14347332 77 11455902363934720286
14347424 109 18341617036006604570
14840074 17 17967816046320814701
14849402 71 17531528677215903601
14856354 85 15864361225264852149
15082195 135 8646477549475885218
15183329 4 17676204649932693249
15348495 7 18272088275372654354
15419008 91 17131568166868911517
15475509 35 17130999805852795882
15575132 122 4895281352479816291
16994733 274 15647050499855461555
18222031 100 14333120888779369582
18393751 57 18186796994265130199
19377110 9 17822010956001389357
19958102 18 8790885159703042656
20567600 234 18260267455763571287
21130935 74 18339634629654012451
21136928 126 15099322563156421436
21781055 127 16877931781524185198
21792934 111 18271528688774453117
21859007 373 17345488139941106461
21987483 16 18339925914093297883
22061861 79 9655575210094895683
221357 26 8286202747333909874
22149856 69 17603851348176702507
23516275 100 14201985409779631386
23559900 14 18060137597088996917
3004659 81 14764337258675730918
3383291 50 16988833957350764443
392239 28 18408318908604909843
397830 11 17917990542561758543
4340502 62 18060139838618618794
5085150 59 16487253262344334211
5104073 3 18264764544568609393
5758199 1 17240760684092942423
86090 222 16772666801465316410
9689198 14 4895555182345771241

> <PUBCHEM_SHAPE_MULTIPOLES>
611.59
21.92
2.42
1.58
1.63
0.29
0.39
3.53
8.78
4.43
0.13
-0.64
-0.12
-0.22

> <PUBCHEM_SHAPE_SELFOVERLAP>
1324.946

> <PUBCHEM_SHAPE_VOLUME>
330

> <PUBCHEM_COORDINATE_TYPE>
2
5
10

$$$$

