5280493
  -OEChem-07051212462D

 90 89  0     1  0  0  0  0  0999 V2000
    7.7331    2.1550    0.0000 S   0  0  0  0  0  0  0  0  0  0  0  0
    6.8671    4.6550    0.0000 O   0  0  0  0  0  0  0  0  0  0  0  0
    6.0010   -0.8450    0.0000 O   0  0  0  0  0  0  0  0  0  0  0  0
    6.8671   -1.3450    0.0000 O   0  0  0  0  0  0  0  0  0  0  0  0
    2.5369    3.1550    0.0000 O   0  0  0  0  0  0  0  0  0  0  0  0
    3.4030    4.6550    0.0000 O   0  0  0  0  0  0  0  0  0  0  0  0
   10.3312   -4.3450    0.0000 O   0  0  0  0  0  0  0  0  0  0  0  0
    8.5991   -4.3450    0.0000 O   0  0  0  0  0  0  0  0  0  0  0  0
    2.5369    0.1550    0.0000 O   0  0  0  0  0  0  0  0  0  0  0  0
    3.4030    1.6550    0.0000 O   0  0  0  0  0  0  0  0  0  0  0  0
    7.7331    0.1550    0.0000 N   0  0  0  0  0  0  0  0  0  0  0  0
    5.1350    0.6550    0.0000 N   0  0  0  0  0  0  0  0  0  0  0  0
   10.3312   -2.3450    0.0000 N   0  0  0  0  0  0  0  0  0  0  0  0
    6.8671    3.6550    0.0000 C   0  0  2  0  0  0  0  0  0  0  0  0
    7.7331    3.1550    0.0000 C   0  0  1  0  0  0  0  0  0  0  0  0
    6.0010    3.1550    0.0000 C   0  0  0  0  0  0  0  0  0  0  0  0
    5.1350    3.6550    0.0000 C   0  0  0  0  0  0  0  0  0  0  0  0
    6.8671    0.6550    0.0000 C   0  0  1  0  0  0  0  0  0  0  0  0
    6.8671    1.6550    0.0000 C   0  0  0  0  0  0  0  0  0  0  0  0
    4.2690    3.1550    0.0000 C   0  0  0  0  0  0  0  0  0  0  0  0
    8.5991    3.6550    0.0000 C   0  0  0  0  0  0  0  0  0  0  0  0
    6.0010    0.1550    0.0000 C   0  0  0  0  0  0  0  0  0  0  0  0
    8.5991   -1.3450    0.0000 C   0  0  0  0  0  0  0  0  0  0  0  0
    7.7331   -0.8450    0.0000 C   0  0  0  0  0  0  0  0  0  0  0  0
    8.5991   -2.3450    0.0000 C   0  0  0  0  0  0  0  0  0  0  0  0
    9.4651    3.1550    0.0000 C   0  0  0  0  0  0  0  0  0  0  0  0
    9.4651   -2.8450    0.0000 C   0  0  1  0  0  0  0  0  0  0  0  0
    3.4030    3.6550    0.0000 C   0  0  0  0  0  0  0  0  0  0  0  0
   12.9292   -0.8450    0.0000 C   0  0  0  0  0  0  0  0  0  0  0  0
   13.7953   -1.3450    0.0000 C   0  0  0  0  0  0  0  0  0  0  0  0
   10.3312    3.6550    0.0000 C   0  0  0  0  0  0  0  0  0  0  0  0
    4.2690    0.1550    0.0000 C   0  0  0  0  0  0  0  0  0  0  0  0
   12.9292    0.1550    0.0000 C   0  0  0  0  0  0  0  0  0  0  0  0
   13.7953   -2.3450    0.0000 C   0  0  0  0  0  0  0  0  0  0  0  0
    9.4651   -3.8450    0.0000 C   0  0  0  0  0  0  0  0  0  0  0  0
   11.1972    3.1550    0.0000 C   0  0  0  0  0  0  0  0  0  0  0  0
   13.7953    0.6550    0.0000 C   0  0  0  0  0  0  0  0  0  0  0  0
   14.6613   -2.8450    0.0000 C   0  0  0  0  0  0  0  0  0  0  0  0
    3.4030    0.6550    0.0000 C   0  0  0  0  0  0  0  0  0  0  0  0
   13.7953    1.6550    0.0000 C   0  0  0  0  0  0  0  0  0  0  0  0
   12.9292    2.1550    0.0000 C   0  0  0  0  0  0  0  0  0  0  0  0
   12.0632    3.6550    0.0000 C   0  0  0  0  0  0  0  0  0  0  0  0
   12.9292    3.1550    0.0000 C   0  0  0  0  0  0  0  0  0  0  0  0
    6.3301    3.9650    0.0000 H   0  0  0  0  0  0  0  0  0  0  0  0
    8.2700    2.8450    0.0000 H   0  0  0  0  0  0  0  0  0  0  0  0
    5.6025    2.6800    0.0000 H   0  0  0  0  0  0  0  0  0  0  0  0
    6.3996    2.6800    0.0000 H   0  0  0  0  0  0  0  0  0  0  0  0
    5.5335    4.1300    0.0000 H   0  0  0  0  0  0  0  0  0  0  0  0
    4.7365    4.1300    0.0000 H   0  0  0  0  0  0  0  0  0  0  0  0
    7.4040    0.9650    0.0000 H   0  0  0  0  0  0  0  0  0  0  0  0
    6.6550    2.2376    0.0000 H   0  0  0  0  0  0  0  0  0  0  0  0
    6.2565    1.5473    0.0000 H   0  0  0  0  0  0  0  0  0  0  0  0
    3.8705    2.6800    0.0000 H   0  0  0  0  0  0  0  0  0  0  0  0
    4.6675    2.6800    0.0000 H   0  0  0  0  0  0  0  0  0  0  0  0
    8.5991    4.2750    0.0000 H   0  0  0  0  0  0  0  0  0  0  0  0
    8.2700    0.4650    0.0000 H   0  0  0  0  0  0  0  0  0  0  0  0
    6.3301    4.9650    0.0000 H   0  0  0  0  0  0  0  0  0  0  0  0
    9.2097   -1.4527    0.0000 H   0  0  0  0  0  0  0  0  0  0  0  0
    8.8112   -0.7624    0.0000 H   0  0  0  0  0  0  0  0  0  0  0  0
    7.9885   -2.2373    0.0000 H   0  0  0  0  0  0  0  0  0  0  0  0
    8.3871   -2.9276    0.0000 H   0  0  0  0  0  0  0  0  0  0  0  0
    9.4651    2.5350    0.0000 H   0  0  0  0  0  0  0  0  0  0  0  0
   10.0021   -3.1550    0.0000 H   0  0  0  0  0  0  0  0  0  0  0  0
    5.1350    1.2750    0.0000 H   0  0  0  0  0  0  0  0  0  0  0  0
   12.3187   -0.7373    0.0000 H   0  0  0  0  0  0  0  0  0  0  0  0
   12.7172   -1.4276    0.0000 H   0  0  0  0  0  0  0  0  0  0  0  0
   14.4058   -1.4527    0.0000 H   0  0  0  0  0  0  0  0  0  0  0  0
   14.0073   -0.7624    0.0000 H   0  0  0  0  0  0  0  0  0  0  0  0
   10.3312    4.2750    0.0000 H   0  0  0  0  0  0  0  0  0  0  0  0
    3.8705   -0.3199    0.0000 H   0  0  0  0  0  0  0  0  0  0  0  0
    4.6675   -0.3199    0.0000 H   0  0  0  0  0  0  0  0  0  0  0  0
   12.7172    0.7376    0.0000 H   0  0  0  0  0  0  0  0  0  0  0  0
   12.3187    0.0473    0.0000 H   0  0  0  0  0  0  0  0  0  0  0  0
   13.1847   -2.2373    0.0000 H   0  0  0  0  0  0  0  0  0  0  0  0
   13.5832   -2.9276    0.0000 H   0  0  0  0  0  0  0  0  0  0  0  0
   10.8681   -2.6550    0.0000 H   0  0  0  0  0  0  0  0  0  0  0  0
   10.3312   -1.7250    0.0000 H   0  0  0  0  0  0  0  0  0  0  0  0
    2.0000    3.4650    0.0000 H   0  0  0  0  0  0  0  0  0  0  0  0
   11.1972    2.5350    0.0000 H   0  0  0  0  0  0  0  0  0  0  0  0
   14.3322    0.3450    0.0000 H   0  0  0  0  0  0  0  0  0  0  0  0
   14.3513   -3.3819    0.0000 H   0  0  0  0  0  0  0  0  0  0  0  0
   15.1982   -3.1550    0.0000 H   0  0  0  0  0  0  0  0  0  0  0  0
   14.9713   -2.3081    0.0000 H   0  0  0  0  0  0  0  0  0  0  0  0
   14.3322    1.9650    0.0000 H   0  0  0  0  0  0  0  0  0  0  0  0
   12.3187    2.2627    0.0000 H   0  0  0  0  0  0  0  0  0  0  0  0
   12.7172    1.5724    0.0000 H   0  0  0  0  0  0  0  0  0  0  0  0
   12.0632    4.2750    0.0000 H   0  0  0  0  0  0  0  0  0  0  0  0
   13.4662    3.4650    0.0000 H   0  0  0  0  0  0  0  0  0  0  0  0
   10.3312   -4.9650    0.0000 H   0  0  0  0  0  0  0  0  0  0  0  0
    2.0000    0.4650    0.0000 H   0  0  0  0  0  0  0  0  0  0  0  0
  1 15  1  0  0  0  0
  1 19  1  0  0  0  0
 14  2  1  6  0  0  0
  2 57  1  0  0  0  0
  3 22  2  0  0  0  0
  4 24  2  0  0  0  0
  5 28  1  0  0  0  0
  5 78  1  0  0  0  0
  6 28  2  0  0  0  0
  7 35  1  0  0  0  0
  7 89  1  0  0  0  0
  8 35  2  0  0  0  0
  9 39  1  0  0  0  0
  9 90  1  0  0  0  0
 10 39  2  0  0  0  0
 18 11  1  6  0  0  0
 11 24  1  0  0  0  0
 11 56  1  0  0  0  0
 12 22  1  0  0  0  0
 12 32  1  0  0  0  0
 12 64  1  0  0  0  0
 27 13  1  6  0  0  0
 13 76  1  0  0  0  0
 13 77  1  0  0  0  0
 14 15  1  0  0  0  0
 14 16  1  0  0  0  0
 14 44  1  0  0  0  0
 15 21  1  1  0  0  0
 15 45  1  0  0  0  0
 16 17  1  0  0  0  0
 16 46  1  0  0  0  0
 16 47  1  0  0  0  0
 17 20  1  0  0  0  0
 17 48  1  0  0  0  0
 17 49  1  0  0  0  0
 18 19  1  0  0  0  0
 18 22  1  0  0  0  0
 18 50  1  0  0  0  0
 19 51  1  0  0  0  0
 19 52  1  0  0  0  0
 20 28  1  0  0  0  0
 20 53  1  0  0  0  0
 20 54  1  0  0  0  0
 21 26  2  0  0  0  0
 21 55  1  0  0  0  0
 23 24  1  0  0  0  0
 23 25  1  0  0  0  0
 23 58  1  0  0  0  0
 23 59  1  0  0  0  0
 25 27  1  0  0  0  0
 25 60  1  0  0  0  0
 25 61  1  0  0  0  0
 26 31  1  0  0  0  0
 26 62  1  0  0  0  0
 27 35  1  0  0  0  0
 27 63  1  0  0  0  0
 29 30  1  0  0  0  0
 29 33  1  0  0  0  0
 29 65  1  0  0  0  0
 29 66  1  0  0  0  0
 30 34  1  0  0  0  0
 30 67  1  0  0  0  0
 30 68  1  0  0  0  0
 31 36  2  0  0  0  0
 31 69  1  0  0  0  0
 32 39  1  0  0  0  0
 32 70  1  0  0  0  0
 32 71  1  0  0  0  0
 33 37  1  0  0  0  0
 33 72  1  0  0  0  0
 33 73  1  0  0  0  0
 34 38  1  0  0  0  0
 34 74  1  0  0  0  0
 34 75  1  0  0  0  0
 36 42  1  0  0  0  0
 36 79  1  0  0  0  0
 37 40  2  0  0  0  0
 37 80  1  0  0  0  0
 38 81  1  0  0  0  0
 38 82  1  0  0  0  0
 38 83  1  0  0  0  0
 40 41  1  0  0  0  0
 40 84  1  0  0  0  0
 41 43  1  0  0  0  0
 41 85  1  0  0  0  0
 41 86  1  0  0  0  0
 42 43  2  0  0  0  0
 42 87  1  0  0  0  0
 43 88  1  0  0  0  0
M  END
> <PUBCHEM_COMPOUND_CID>
5280493

> <PUBCHEM_COMPOUND_CANONICALIZED>
1

> <PUBCHEM_CACTVS_COMPLEXITY>
982

> <PUBCHEM_CACTVS_HBOND_ACCEPTOR>
11

> <PUBCHEM_CACTVS_HBOND_DONOR>
7

> <PUBCHEM_CACTVS_ROTATABLE_BOND>
25

> <PUBCHEM_CACTVS_SUBSKEYS>
AAADcfB7PABAAAAAAAAAAAAAAAAAAAAAAAAAAAAAAAAAAAAAAAAAHgQQCAAACDzlwAaCCALAAgiIACHSGAAAAAAgABAICIGIAAgKUBIggSAUQAAE1gC4gAOc/ybAAAAAAAAAAAAAAAAAAAAAAAAAAAAAAA==

> <PUBCHEM_IUPAC_OPENEYE_NAME>
(5S,6R,7E,9E,11Z,14Z)-6-[(2R)-2-[[(4S)-4-amino-4-carboxy-butanoyl]amino]-3-(carboxymethylamino)-3-oxo-propyl]sulfanyl-5-hydroxy-icosa-7,9,11,14-tetraenoic acid

> <PUBCHEM_IUPAC_CAS_NAME>
(5S,6R,7E,9E,11Z,14Z)-6-[[(2R)-2-[[(4S)-4-amino-4-carboxy-1-oxobutyl]amino]-3-(carboxymethylamino)-3-oxopropyl]thio]-5-hydroxyeicosa-7,9,11,14-tetraenoic acid

> <PUBCHEM_IUPAC_NAME>
(5S,6R,7E,9E,11Z,14Z)-6-[(2R)-2-[[(4S)-4-amino-4-carboxybutanoyl]amino]-3-(carboxymethylamino)-3-oxopropyl]sulfanyl-5-hydroxyicosa-7,9,11,14-tetraenoic acid

> <PUBCHEM_IUPAC_SYSTEMATIC_NAME>
(5S,6R,7E,9E,11Z,14Z)-6-[(2R)-2-[[(4S)-4-azanyl-5-oxidanyl-5-oxidanylidene-pentanoyl]amino]-3-(2-hydroxy-2-oxoethylamino)-3-oxidanylidene-propyl]sulfanyl-5-oxidanyl-icosa-7,9,11,14-tetraenoic acid

> <PUBCHEM_IUPAC_TRADITIONAL_NAME>
(5S,6R,7E,9E,11Z,14Z)-6-[[(2R)-2-[[(4S)-4-amino-4-carboxy-butanoyl]amino]-3-(carboxymethylamino)-3-keto-propyl]thio]-5-hydroxy-eicosa-7,9,11,14-tetraenoic acid

> <PUBCHEM_IUPAC_INCHI>
InChI=1S/C30H47N3O9S/c1-2-3-4-5-6-7-8-9-10-11-12-13-16-25(24(34)15-14-17-27(36)37)43-21-23(29(40)32-20-28(38)39)33-26(35)19-18-22(31)30(41)42/h6-7,9-13,16,22-25,34H,2-5,8,14-15,17-21,31H2,1H3,(H,32,40)(H,33,35)(H,36,37)(H,38,39)(H,41,42)/b7-6-,10-9-,12-11+,16-13+/t22-,23-,24-,25+/m0/s1

> <PUBCHEM_IUPAC_INCHIKEY>
GWNVDXQDILPJIG-NXOLIXFESA-N

> <PUBCHEM_XLOGP3_AA>
0.7

> <PUBCHEM_EXACT_MASS>
625.303301

> <PUBCHEM_MOLECULAR_FORMULA>
C30H47N3O9S

> <PUBCHEM_MOLECULAR_WEIGHT>
625.77388

> <PUBCHEM_OPENEYE_CAN_SMILES>
CCCCCC=CCC=CC=CC=CC(C(CCCC(=O)O)O)SCC(C(=O)NCC(=O)O)NC(=O)CCC(C(=O)O)N

> <PUBCHEM_OPENEYE_ISO_SMILES>
CCCCC/C=C\C/C=C\C=C\C=C\[C@H]([C@H](CCCC(=O)O)O)SC[C@@H](C(=O)NCC(=O)O)NC(=O)CC[C@@H](C(=O)O)N

> <PUBCHEM_CACTVS_TPSA>
242

> <PUBCHEM_MONOISOTOPIC_WEIGHT>
625.303301

> <PUBCHEM_TOTAL_CHARGE>
0

> <PUBCHEM_HEAVY_ATOM_COUNT>
43

> <PUBCHEM_ATOM_DEF_STEREO_COUNT>
4

> <PUBCHEM_ATOM_UDEF_STEREO_COUNT>
0

> <PUBCHEM_BOND_DEF_STEREO_COUNT>
4

> <PUBCHEM_BOND_UDEF_STEREO_COUNT>
0

> <PUBCHEM_ISOTOPIC_ATOM_COUNT>
0

> <PUBCHEM_COMPONENT_COUNT>
1

> <PUBCHEM_CACTVS_TAUTO_COUNT>
4

> <PUBCHEM_COORDINATE_TYPE>
1
5
255

> <PUBCHEM_BONDANNOTATIONS>
18  11  6
27  13  6
15  21  5
14  2  6

$$$$

