8890
  -OEChem-06261203133D

 52 51  0     0  0  0  0  0  0999 V2000
    3.9951   -1.6773   -1.4642 O   0  0  0  0  0  0  0  0  0  0  0  0
    0.0130   -1.8025    0.5442 O   0  0  0  0  0  0  0  0  0  0  0  0
    2.8671   -2.1002    0.5211 N   0  0  0  0  0  0  0  0  0  0  0  0
    0.2924    2.6873   -0.9227 C   0  0  0  0  0  0  0  0  0  0  0  0
   -0.7920    2.1847    0.0321 C   0  0  0  0  0  0  0  0  0  0  0  0
    1.4199    3.4491   -0.2190 C   0  0  0  0  0  0  0  0  0  0  0  0
   -1.9008    1.4504   -0.7247 C   0  0  0  0  0  0  0  0  0  0  0  0
    2.2530    2.6356    0.7779 C   0  0  0  0  0  0  0  0  0  0  0  0
   -3.0035    0.9797    0.2253 C   0  0  0  0  0  0  0  0  0  0  0  0
    3.0029    1.4693    0.1303 C   0  0  0  0  0  0  0  0  0  0  0  0
   -4.0962    0.2152   -0.5254 C   0  0  0  0  0  0  0  0  0  0  0  0
    3.8302    0.6488    1.1271 C   0  0  0  0  0  0  0  0  0  0  0  0
   -5.2142   -0.2254    0.4221 C   0  0  0  0  0  0  0  0  0  0  0  0
    4.6595   -0.4742    0.5043 C   0  0  0  0  0  0  0  0  0  0  0  0
   -6.3198   -1.0223   -0.2738 C   0  0  0  0  0  0  0  0  0  0  0  0
   -7.4677   -1.4017    0.6488 C   0  0  0  0  0  0  0  0  0  0  0  0
    3.8181   -1.4727   -0.2651 C   0  0  0  0  0  0  0  0  0  0  0  0
    1.9607   -3.0895   -0.0110 C   0  0  0  0  0  0  0  0  0  0  0  0
    0.6824   -2.4544   -0.5272 C   0  0  0  0  0  0  0  0  0  0  0  0
    0.7005    1.8518   -1.5019 H   0  0  0  0  0  0  0  0  0  0  0  0
   -0.1687    3.3654   -1.6523 H   0  0  0  0  0  0  0  0  0  0  0  0
   -1.2171    3.0322    0.5830 H   0  0  0  0  0  0  0  0  0  0  0  0
   -0.3574    1.5013    0.7699 H   0  0  0  0  0  0  0  0  0  0  0  0
    2.0899    3.8606   -0.9843 H   0  0  0  0  0  0  0  0  0  0  0  0
    0.9906    4.3099    0.3085 H   0  0  0  0  0  0  0  0  0  0  0  0
   -2.3313    2.1144   -1.4841 H   0  0  0  0  0  0  0  0  0  0  0  0
   -1.4752    0.5884   -1.2526 H   0  0  0  0  0  0  0  0  0  0  0  0
    2.9830    3.3087    1.2449 H   0  0  0  0  0  0  0  0  0  0  0  0
    1.6160    2.2649    1.5885 H   0  0  0  0  0  0  0  0  0  0  0  0
   -2.5719    0.3346    1.0003 H   0  0  0  0  0  0  0  0  0  0  0  0
   -3.4431    1.8465    0.7337 H   0  0  0  0  0  0  0  0  0  0  0  0
    2.2857    0.8010   -0.3575 H   0  0  0  0  0  0  0  0  0  0  0  0
    3.6642    1.8566   -0.6544 H   0  0  0  0  0  0  0  0  0  0  0  0
   -3.6605   -0.6652   -1.0131 H   0  0  0  0  0  0  0  0  0  0  0  0
   -4.5159    0.8492   -1.3156 H   0  0  0  0  0  0  0  0  0  0  0  0
    3.1595    0.2433    1.8938 H   0  0  0  0  0  0  0  0  0  0  0  0
    4.5177    1.3234    1.6528 H   0  0  0  0  0  0  0  0  0  0  0  0
   -4.7891   -0.8354    1.2289 H   0  0  0  0  0  0  0  0  0  0  0  0
   -5.6547    0.6613    0.8947 H   0  0  0  0  0  0  0  0  0  0  0  0
    5.4038   -0.0514   -0.1804 H   0  0  0  0  0  0  0  0  0  0  0  0
    5.2052   -1.0136    1.2870 H   0  0  0  0  0  0  0  0  0  0  0  0
   -5.8924   -1.9354   -0.7049 H   0  0  0  0  0  0  0  0  0  0  0  0
   -6.7201   -0.4344   -1.1085 H   0  0  0  0  0  0  0  0  0  0  0  0
   -7.9450   -0.5090    1.0653 H   0  0  0  0  0  0  0  0  0  0  0  0
   -8.2255   -1.9692    0.0999 H   0  0  0  0  0  0  0  0  0  0  0  0
   -7.1124   -2.0203    1.4789 H   0  0  0  0  0  0  0  0  0  0  0  0
    2.8063   -1.8843    1.5113 H   0  0  0  0  0  0  0  0  0  0  0  0
    2.4575   -3.6472   -0.8115 H   0  0  0  0  0  0  0  0  0  0  0  0
    1.7372   -3.7784    0.8104 H   0  0  0  0  0  0  0  0  0  0  0  0
    0.8940   -1.7124   -1.3041 H   0  0  0  0  0  0  0  0  0  0  0  0
    0.0168   -3.2198   -0.9377 H   0  0  0  0  0  0  0  0  0  0  0  0
   -0.8009   -1.4158    0.1788 H   0  0  0  0  0  0  0  0  0  0  0  0
  1 17  2  0  0  0  0
  2 19  1  0  0  0  0
  2 52  1  0  0  0  0
  3 17  1  0  0  0  0
  3 18  1  0  0  0  0
  3 47  1  0  0  0  0
  4  5  1  0  0  0  0
  4  6  1  0  0  0  0
  4 20  1  0  0  0  0
  4 21  1  0  0  0  0
  5  7  1  0  0  0  0
  5 22  1  0  0  0  0
  5 23  1  0  0  0  0
  6  8  1  0  0  0  0
  6 24  1  0  0  0  0
  6 25  1  0  0  0  0
  7  9  1  0  0  0  0
  7 26  1  0  0  0  0
  7 27  1  0  0  0  0
  8 10  1  0  0  0  0
  8 28  1  0  0  0  0
  8 29  1  0  0  0  0
  9 11  1  0  0  0  0
  9 30  1  0  0  0  0
  9 31  1  0  0  0  0
 10 12  1  0  0  0  0
 10 32  1  0  0  0  0
 10 33  1  0  0  0  0
 11 13  1  0  0  0  0
 11 34  1  0  0  0  0
 11 35  1  0  0  0  0
 12 14  1  0  0  0  0
 12 36  1  0  0  0  0
 12 37  1  0  0  0  0
 13 15  1  0  0  0  0
 13 38  1  0  0  0  0
 13 39  1  0  0  0  0
 14 17  1  0  0  0  0
 14 40  1  0  0  0  0
 14 41  1  0  0  0  0
 15 16  1  0  0  0  0
 15 42  1  0  0  0  0
 15 43  1  0  0  0  0
 16 44  1  0  0  0  0
 16 45  1  0  0  0  0
 16 46  1  0  0  0  0
 18 19  1  0  0  0  0
 18 48  1  0  0  0  0
 18 49  1  0  0  0  0
 19 50  1  0  0  0  0
 19 51  1  0  0  0  0
M  END
> <PUBCHEM_COMPOUND_CID>
8890

> <PUBCHEM_CONFORMER_RMSD>
1.4

> <PUBCHEM_CONFORMER_DIVERSEORDER>
1
2
16
14
29
34
17
12
10
44
21
9
77
67
84
48
46
30
25
55
11
33
65
86
13
36
7
56
53
61
74
24
15
32
42
37
73
70
57
58
52
81
35
83
80
87
50
63
6
43
88
64
8
68
66
59
20
4
41
5
62
75
19
27
60
49
76
54
51
82
23
38
39
18
45
78
79
71
40
85
28
22
26
69
47
31
3
72

> <PUBCHEM_MMFF94_PARTIAL_CHARGES>
9
1 -0.57
14 0.06
17 0.57
18 0.3
19 0.28
2 -0.68
3 -0.73
47 0.37
52 0.4

> <PUBCHEM_EFFECTIVE_ROTOR_COUNT>
15

> <PUBCHEM_PHARMACOPHORE_FEATURES>
5
1 1 acceptor
1 16 hydrophobe
1 2 acceptor
1 2 donor
1 3 donor

> <PUBCHEM_HEAVY_ATOM_COUNT>
19

> <PUBCHEM_ATOM_DEF_STEREO_COUNT>
0

> <PUBCHEM_ATOM_UDEF_STEREO_COUNT>
0

> <PUBCHEM_BOND_DEF_STEREO_COUNT>
0

> <PUBCHEM_BOND_UDEF_STEREO_COUNT>
0

> <PUBCHEM_ISOTOPIC_ATOM_COUNT>
0

> <PUBCHEM_COMPONENT_COUNT>
1

> <PUBCHEM_CACTVS_TAUTO_COUNT>
2

> <PUBCHEM_CONFORMER_ID>
000022BA00000001

> <PUBCHEM_MMFF94_ENERGY>
1.0254

> <PUBCHEM_FEATURE_SELFOVERLAP>
25.374

> <PUBCHEM_SHAPE_FINGERPRINT>
10316853 100 18343016649710557523
10838868 158 16765905556500132083
114674 6 18413111641019602920
12596599 1 17461996871644681904
12596602 18 17240763978000582057
13402501 40 18341897393869682202
13533116 47 18261671468273632217
14251705 54 18122068860474889044
14251740 57 18187076273790275039
15003188 105 18059018396877436378
15110567 62 18412544305999634499
1768 124 18264209115498724359
20397935 70 18334573508547359477
20645477 70 18200880586633033041
21197605 99 18192994820598112251
21585482 310 17917420992109052955
338550 245 18268432322122284607
373842 8 18052256190362128531
5283384 97 18335998480133328167
5309563 4 18411139177146782029

> <PUBCHEM_SHAPE_MULTIPOLES>
374.29
13.9
4.18
0.98
28.87
0.66
0.07
-7.99
-2.4
-3.94
0.47
-0.43
0.02
1.06

> <PUBCHEM_SHAPE_SELFOVERLAP>
683.427

> <PUBCHEM_SHAPE_VOLUME>
237.4

> <PUBCHEM_COORDINATE_TYPE>
2
5
10

$$$$

