60991
  -OEChem-07051213143D

 19 19  0     0  0  0  0  0  0999 V2000
    4.1132    0.6574    0.0780 O   0  0  0  0  0  0  0  0  0  0  0  0
   -4.0534    0.0054   -0.7262 O   0  0  0  0  0  0  0  0  0  0  0  0
    2.0875   -0.2044   -0.0957 N   0  0  0  0  0  0  0  0  0  0  0  0
    2.9017    0.8587    0.2110 N   0  0  0  0  0  0  0  0  0  0  0  0
   -3.4536    0.1998    0.3415 N   0  0  0  0  0  0  0  0  0  0  0  0
    0.6852   -0.1021    0.0149 C   0  0  0  0  0  0  0  0  0  0  0  0
    0.0580    1.1281   -0.1820 C   0  0  0  0  0  0  0  0  0  0  0  0
   -0.0744   -1.2310    0.3217 C   0  0  0  0  0  0  0  0  0  0  0  0
   -1.3290    1.2292   -0.0727 C   0  0  0  0  0  0  0  0  0  0  0  0
   -1.4613   -1.1299    0.4310 C   0  0  0  0  0  0  0  0  0  0  0  0
   -2.0886    0.1002    0.2338 C   0  0  0  0  0  0  0  0  0  0  0  0
    2.6148   -1.5116   -0.5553 C   0  0  0  0  0  0  0  0  0  0  0  0
    0.6194    2.0239   -0.4345 H   0  0  0  0  0  0  0  0  0  0  0  0
    0.3763   -2.2025    0.5025 H   0  0  0  0  0  0  0  0  0  0  0  0
   -1.8015    2.1960   -0.2322 H   0  0  0  0  0  0  0  0  0  0  0  0
   -2.0376   -2.0197    0.6752 H   0  0  0  0  0  0  0  0  0  0  0  0
    3.6138   -1.4126   -0.9947 H   0  0  0  0  0  0  0  0  0  0  0  0
    1.9831   -1.9464   -1.3390 H   0  0  0  0  0  0  0  0  0  0  0  0
    2.6903   -2.2088    0.2861 H   0  0  0  0  0  0  0  0  0  0  0  0
  1  4  2  0  0  0  0
  2  5  2  0  0  0  0
  3  4  1  0  0  0  0
  3  6  1  0  0  0  0
  3 12  1  0  0  0  0
  5 11  1  0  0  0  0
  6  7  2  0  0  0  0
  6  8  1  0  0  0  0
  7  9  1  0  0  0  0
  7 13  1  0  0  0  0
  8 10  2  0  0  0  0
  8 14  1  0  0  0  0
  9 11  2  0  0  0  0
  9 15  1  0  0  0  0
 10 11  1  0  0  0  0
 10 16  1  0  0  0  0
 12 17  1  0  0  0  0
 12 18  1  0  0  0  0
 12 19  1  0  0  0  0
M  END
> <PUBCHEM_COMPOUND_CID>
60991

> <PUBCHEM_CONFORMER_RMSD>
0.6

> <PUBCHEM_CONFORMER_DIVERSEORDER>
1
6
4
3
2
5
7

> <PUBCHEM_MMFF94_PARTIAL_CHARGES>
15
1 -0.16
10 -0.15
11 0.3
12 0.37
13 0.15
14 0.15
15 0.15
16 0.15
2 -0.16
3 -0.3
5 -0.14
6 0.1
7 -0.15
8 -0.15
9 -0.15

> <PUBCHEM_EFFECTIVE_ROTOR_COUNT>
3

> <PUBCHEM_PHARMACOPHORE_FEATURES>
1
6 6 7 8 9 10 11 rings

> <PUBCHEM_HEAVY_ATOM_COUNT>
12

> <PUBCHEM_ATOM_DEF_STEREO_COUNT>
0

> <PUBCHEM_ATOM_UDEF_STEREO_COUNT>
0

> <PUBCHEM_BOND_DEF_STEREO_COUNT>
0

> <PUBCHEM_BOND_UDEF_STEREO_COUNT>
0

> <PUBCHEM_ISOTOPIC_ATOM_COUNT>
0

> <PUBCHEM_COMPONENT_COUNT>
1

> <PUBCHEM_CACTVS_TAUTO_COUNT>
1

> <PUBCHEM_CONFORMER_ID>
0000EE3F00000001

> <PUBCHEM_MMFF94_ENERGY>
41.5928

> <PUBCHEM_FEATURE_SELFOVERLAP>
5.074

> <PUBCHEM_SHAPE_FINGERPRINT>
10219947 1 18408318904257090879
11062470 55 17632580439494689365
11132069 177 18339084787476067504
11401426 45 18412834577248605013
12032990 46 18341884208547138123
13380535 76 18410573968372872410
14325111 11 18410291457955368689
14993402 34 17822297864117037053
16945 1 18200580467160384333
17846911 113 18411706473759860536
18186145 218 18270396212839663269
19026448 5 17022900189963422611
193761 8 17692245236386622353
20201158 50 18408882927973415738
20279233 1 18342170064089758330
20528008 55 18410014316721933568
20645477 70 18262238936142265399
21293036 1 18342181059511763847
21501502 16 18117269461901473400
23235685 24 18413113848495623129
23402539 116 18339655480917705636
23402655 69 18335711576328660581
23552423 10 18202272619998438794
23559900 14 18412823595344458598
2748010 2 18198340860632336549
369184 2 18335136518187068386
528886 8 18411141307413364931
6333449 129 18337108964716983059
69090 78 18334580143797247119
7364860 26 18338237193134741490

> <PUBCHEM_SHAPE_MULTIPOLES>
220.27
6.01
1.4
0.69
0.53
0.18
0.03
-0.58
0.55
0.49
0.02
-0.13
0.07
0.32

> <PUBCHEM_SHAPE_SELFOVERLAP>
454.888

> <PUBCHEM_SHAPE_VOLUME>
127.2

> <PUBCHEM_COORDINATE_TYPE>
2
5
10

$$$$

