443267
  -OEChem-07051213013D

 45 48  0     1  0  0  0  0  0999 V2000
    1.0620   -1.1089   -0.2541 O   0  0  0  0  0  0  0  0  0  0  0  0
   -1.3851    0.0469    0.7327 N   0  0  0  0  0  0  0  0  0  0  0  0
    3.5712    0.1332    0.4491 N   0  0  0  0  0  0  0  0  0  0  0  0
    4.1054   -1.0493    0.1341 N   0  0  0  0  0  0  0  0  0  0  0  0
   -0.1280    0.1156    1.4513 C   0  0  0  0  0  0  0  0  0  0  0  0
    1.0830    0.0968    0.5114 C   0  0  1  0  0  0  0  0  0  0  0  0
   -2.0905    1.1399    0.2877 C   0  0  0  0  0  0  0  0  0  0  0  0
   -2.0337   -1.1202    0.4047 C   0  0  0  0  0  0  0  0  0  0  0  0
   -3.2346    0.6611   -0.3509 C   0  0  0  0  0  0  0  0  0  0  0  0
   -3.1986   -0.7678   -0.2772 C   0  0  0  0  0  0  0  0  0  0  0  0
    2.3897    0.1595    1.3108 C   0  0  0  0  0  0  0  0  0  0  0  0
   -1.8029    2.5049    0.4025 C   0  0  0  0  0  0  0  0  0  0  0  0
   -1.6782   -2.4499    0.6587 C   0  0  0  0  0  0  0  0  0  0  0  0
   -4.1385    1.5925   -0.9036 C   0  0  0  0  0  0  0  0  0  0  0  0
   -4.0527   -1.7956   -0.7292 C   0  0  0  0  0  0  0  0  0  0  0  0
    4.2014    1.2075   -0.0802 C   0  0  0  0  0  0  0  0  0  0  0  0
   -2.7136    3.4080   -0.1523 C   0  0  0  0  0  0  0  0  0  0  0  0
   -2.5403   -3.4501    0.2010 C   0  0  0  0  0  0  0  0  0  0  0  0
   -3.8649    2.9608   -0.7962 C   0  0  0  0  0  0  0  0  0  0  0  0
   -3.7105   -3.1300   -0.4829 C   0  0  0  0  0  0  0  0  0  0  0  0
    5.2448    0.6913   -0.8091 C   0  0  0  0  0  0  0  0  0  0  0  0
    5.1362   -0.7022   -0.6411 C   0  0  0  0  0  0  0  0  0  0  0  0
    3.7716    2.6002    0.1429 C   0  0  0  0  0  0  0  0  0  0  0  0
    6.0068   -1.7443   -1.2101 C   0  0  0  0  0  0  0  0  0  0  0  0
   -0.1318    1.0195    2.0699 H   0  0  0  0  0  0  0  0  0  0  0  0
   -0.0968   -0.7333    2.1439 H   0  0  0  0  0  0  0  0  0  0  0  0
    1.0207    0.9321   -0.1959 H   0  0  0  0  0  0  0  0  0  0  0  0
    2.4391    1.0615    1.9293 H   0  0  0  0  0  0  0  0  0  0  0  0
    2.4779   -0.7070    1.9785 H   0  0  0  0  0  0  0  0  0  0  0  0
   -0.9073    2.8655    0.8968 H   0  0  0  0  0  0  0  0  0  0  0  0
   -0.7711   -2.7149    1.1909 H   0  0  0  0  0  0  0  0  0  0  0  0
   -5.0407    1.2593   -1.4089 H   0  0  0  0  0  0  0  0  0  0  0  0
   -4.9690   -1.5620   -1.2640 H   0  0  0  0  0  0  0  0  0  0  0  0
    1.7498   -1.0399   -0.9375 H   0  0  0  0  0  0  0  0  0  0  0  0
   -2.5187    4.4750   -0.0808 H   0  0  0  0  0  0  0  0  0  0  0  0
   -2.2928   -4.4929    0.3824 H   0  0  0  0  0  0  0  0  0  0  0  0
   -4.5591    3.6810   -1.2209 H   0  0  0  0  0  0  0  0  0  0  0  0
   -4.3663   -3.9241   -0.8297 H   0  0  0  0  0  0  0  0  0  0  0  0
    5.9768    1.2450   -1.3794 H   0  0  0  0  0  0  0  0  0  0  0  0
    4.3808    3.2946   -0.4455 H   0  0  0  0  0  0  0  0  0  0  0  0
    3.8788    2.8784    1.1962 H   0  0  0  0  0  0  0  0  0  0  0  0
    2.7283    2.7468   -0.1532 H   0  0  0  0  0  0  0  0  0  0  0  0
    6.8017   -1.3084   -1.8242 H   0  0  0  0  0  0  0  0  0  0  0  0
    6.4804   -2.3296   -0.4151 H   0  0  0  0  0  0  0  0  0  0  0  0
    5.4306   -2.4268   -1.8433 H   0  0  0  0  0  0  0  0  0  0  0  0
  1  6  1  0  0  0  0
  1 34  1  0  0  0  0
  2  5  1  0  0  0  0
  2  7  1  0  0  0  0
  2  8  1  0  0  0  0
  3  4  1  0  0  0  0
  3 11  1  0  0  0  0
  3 16  1  0  0  0  0
  4 22  2  0  0  0  0
  5  6  1  0  0  0  0
  5 25  1  0  0  0  0
  5 26  1  0  0  0  0
  6 11  1  0  0  0  0
  6 27  1  0  0  0  0
  7  9  1  0  0  0  0
  7 12  2  0  0  0  0
  8 10  1  0  0  0  0
  8 13  2  0  0  0  0
  9 10  1  0  0  0  0
  9 14  2  0  0  0  0
 10 15  2  0  0  0  0
 11 28  1  0  0  0  0
 11 29  1  0  0  0  0
 12 17  1  0  0  0  0
 12 30  1  0  0  0  0
 13 18  1  0  0  0  0
 13 31  1  0  0  0  0
 14 19  1  0  0  0  0
 14 32  1  0  0  0  0
 15 20  1  0  0  0  0
 15 33  1  0  0  0  0
 16 21  2  0  0  0  0
 16 23  1  0  0  0  0
 17 19  2  0  0  0  0
 17 35  1  0  0  0  0
 18 20  2  0  0  0  0
 18 36  1  0  0  0  0
 19 37  1  0  0  0  0
 20 38  1  0  0  0  0
 21 22  1  0  0  0  0
 21 39  1  0  0  0  0
 22 24  1  0  0  0  0
 23 40  1  0  0  0  0
 23 41  1  0  0  0  0
 23 42  1  0  0  0  0
 24 43  1  0  0  0  0
 24 44  1  0  0  0  0
 24 45  1  0  0  0  0
M  END
> <PUBCHEM_COMPOUND_CID>
443267

> <PUBCHEM_CONFORMER_RMSD>
0.8

> <PUBCHEM_CONFORMER_DIVERSEORDER>
1
18
14
2
20
19
15
7
13
10
5
17
12
8
21
16
3
6
11
9
4

> <PUBCHEM_MMFF94_PARTIAL_CHARGES>
32
1 -0.68
11 0.26
12 -0.15
13 -0.15
14 -0.15
15 -0.15
16 -0.33
17 -0.15
18 -0.15
19 -0.15
2 0.05
20 -0.15
21 -0.15
22 0.11
23 0.18
24 0.18
3 0.31
30 0.15
31 0.15
32 0.15
33 0.15
34 0.4
35 0.15
36 0.15
37 0.15
38 0.15
39 0.15
4 -0.71
5 0.26
6 0.28
7 -0.15
8 -0.15

> <PUBCHEM_EFFECTIVE_ROTOR_COUNT>
4

> <PUBCHEM_PHARMACOPHORE_FEATURES>
8
1 1 acceptor
1 1 donor
1 2 cation
1 4 acceptor
5 2 7 8 9 10 rings
5 3 4 16 21 22 rings
6 7 9 12 14 17 19 rings
6 8 10 13 15 18 20 rings

> <PUBCHEM_HEAVY_ATOM_COUNT>
24

> <PUBCHEM_ATOM_DEF_STEREO_COUNT>
0

> <PUBCHEM_ATOM_UDEF_STEREO_COUNT>
1

> <PUBCHEM_BOND_DEF_STEREO_COUNT>
0

> <PUBCHEM_BOND_UDEF_STEREO_COUNT>
0

> <PUBCHEM_ISOTOPIC_ATOM_COUNT>
0

> <PUBCHEM_COMPONENT_COUNT>
1

> <PUBCHEM_CACTVS_TAUTO_COUNT>
1

> <PUBCHEM_CONFORMER_ID>
0006C38300000001

> <PUBCHEM_MMFF94_ENERGY>
43.7001

> <PUBCHEM_FEATURE_SELFOVERLAP>
40.775

> <PUBCHEM_SHAPE_FINGERPRINT>
107951 10 18337673139295493727
12107183 9 17911249622025573210
12788726 201 18200324229739034043
12892183 10 9367343734869620720
13583140 156 17894920590178690568
13690498 29 18336812105732213310
13761468 95 17414437496143339252
13941206 138 18200876304687743963
13944108 23 16830103286702210893
14251757 5 18411982438388482379
14347332 77 18409733941199348018
14790565 3 18265052621348839305
14910302 57 18261963959397877578
15064981 194 18341877602882766549
15183329 4 18268988864380028446
15250474 111 18270974521950401226
15463212 79 18131077073141224835
15475509 8 18263089825826346159
15575132 122 17702105974762026525
15842332 3 17773900729179237506
15961568 22 17983302521670157500
16994733 274 14979141136745762015
17492 89 18338233757028801974
17844677 252 18412257312237653996
18785283 64 17330273283083700913
19958102 18 18342187695009792607
20101258 96 18199176288228268091
20693207 138 18040722411415781592
21065201 7 18336273383572835482
21307412 95 17826776325765522510
22122407 14 15051734209313746967
221357 26 18335985276860495314
22393880 68 18410575102518454210
22907989 373 18338530655158966469
23227448 37 18411984654512849693
23366157 5 17407128024852171483
23557571 272 18335135371615520725
23559900 14 18261399966162951488
23572383 38 17968375784034655662
255183 451 17688877437220898799
32027 91 18043808913309091510
3298306 158 18114466772403151478
4214541 1 18410855473424559308
44062 13 18335419093007950150
469060 322 13326277144700825017
497634 4 17968643922446458513
5281201 14 18335697209631452016
531348 171 18340483478009913066
633830 44 17131541804712594784
7399639 24 17755312171321546984
9709674 26 18409448042664220272

> <PUBCHEM_SHAPE_MULTIPOLES>
473.1
12.11
3.98
1.06
17.78
0.13
0.09
-1.04
-4.79
-5.23
-0.52
0.33
-0.05
0.98

> <PUBCHEM_SHAPE_SELFOVERLAP>
1042.911

> <PUBCHEM_SHAPE_VOLUME>
258.7

> <PUBCHEM_COORDINATE_TYPE>
2
5
10

$$$$

