91686
  -OEChem-07051213112D

 54 57  0     1  0  0  0  0  0999 V2000
   10.7321    1.2680    0.0000 Cl  0  0  0  0  0  0  0  0  0  0  0  0
    9.3660    1.6340    0.0000 Cl  0  0  0  0  0  0  0  0  0  0  0  0
    8.0000    1.2680    0.0000 O   0  0  0  0  0  0  0  0  0  0  0  0
    7.6340   -0.0981    0.0000 O   0  0  0  0  0  0  0  0  0  0  0  0
    9.3660   -4.0981    0.0000 O   0  0  0  0  0  0  0  0  0  0  0  0
    4.0000    3.0000    0.0000 O   0  0  0  0  0  0  0  0  0  0  0  0
    6.0000   -0.4641    0.0000 N   0  0  0  0  0  0  0  0  0  0  0  0
    9.3660   -0.0981    0.0000 C   0  0  3  0  0  0  0  0  0  0  0  0
    9.8660    0.7679    0.0000 C   0  0  0  0  0  0  0  0  0  0  0  0
   10.3660   -0.0981    0.0000 C   0  0  0  0  0  0  0  0  0  0  0  0
    9.3660   -1.0981    0.0000 C   0  0  0  0  0  0  0  0  0  0  0  0
    8.5000    0.4019    0.0000 C   0  0  0  0  0  0  0  0  0  0  0  0
    8.5000   -1.5981    0.0000 C   0  0  0  0  0  0  0  0  0  0  0  0
   10.2321   -1.5981    0.0000 C   0  0  0  0  0  0  0  0  0  0  0  0
    8.5000   -2.5981    0.0000 C   0  0  0  0  0  0  0  0  0  0  0  0
   10.2321   -2.5981    0.0000 C   0  0  0  0  0  0  0  0  0  0  0  0
    7.0000    1.2680    0.0000 C   0  0  3  0  0  0  0  0  0  0  0  0
    9.3660   -3.0981    0.0000 C   0  0  0  0  0  0  0  0  0  0  0  0
    6.5000    2.1340    0.0000 C   0  0  0  0  0  0  0  0  0  0  0  0
    6.5000    0.4019    0.0000 C   0  0  0  0  0  0  0  0  0  0  0  0
    5.5000    2.1340    0.0000 C   0  0  0  0  0  0  0  0  0  0  0  0
    7.0000    3.0000    0.0000 C   0  0  0  0  0  0  0  0  0  0  0  0
   10.2321   -4.5981    0.0000 C   0  0  0  0  0  0  0  0  0  0  0  0
    5.0000    3.0000    0.0000 C   0  0  0  0  0  0  0  0  0  0  0  0
    6.5000    3.8660    0.0000 C   0  0  0  0  0  0  0  0  0  0  0  0
    5.5000    3.8660    0.0000 C   0  0  0  0  0  0  0  0  0  0  0  0
   10.2321   -5.5981    0.0000 C   0  0  0  0  0  0  0  0  0  0  0  0
    3.5000    3.8660    0.0000 C   0  0  0  0  0  0  0  0  0  0  0  0
    2.5000    3.8660    0.0000 C   0  0  0  0  0  0  0  0  0  0  0  0
    4.0000    4.7320    0.0000 C   0  0  0  0  0  0  0  0  0  0  0  0
    2.0000    4.7320    0.0000 C   0  0  0  0  0  0  0  0  0  0  0  0
    3.5000    5.5981    0.0000 C   0  0  0  0  0  0  0  0  0  0  0  0
    2.5000    5.5981    0.0000 C   0  0  0  0  0  0  0  0  0  0  0  0
   10.4737   -0.7087    0.0000 H   0  0  0  0  0  0  0  0  0  0  0  0
   10.9486    0.1140    0.0000 H   0  0  0  0  0  0  0  0  0  0  0  0
    7.9631   -1.2881    0.0000 H   0  0  0  0  0  0  0  0  0  0  0  0
   10.7690   -1.2881    0.0000 H   0  0  0  0  0  0  0  0  0  0  0  0
    7.9631   -2.9081    0.0000 H   0  0  0  0  0  0  0  0  0  0  0  0
   10.7690   -2.9081    0.0000 H   0  0  0  0  0  0  0  0  0  0  0  0
    7.4250    2.0041    0.0000 H   0  0  0  0  0  0  0  0  0  0  0  0
    5.1900    1.5970    0.0000 H   0  0  0  0  0  0  0  0  0  0  0  0
    7.6200    3.0000    0.0000 H   0  0  0  0  0  0  0  0  0  0  0  0
   10.8426   -4.7057    0.0000 H   0  0  0  0  0  0  0  0  0  0  0  0
   10.4441   -4.0155    0.0000 H   0  0  0  0  0  0  0  0  0  0  0  0
    6.8100    4.4030    0.0000 H   0  0  0  0  0  0  0  0  0  0  0  0
    5.1900    4.4030    0.0000 H   0  0  0  0  0  0  0  0  0  0  0  0
    9.6120   -5.5981    0.0000 H   0  0  0  0  0  0  0  0  0  0  0  0
   10.2321   -6.2181    0.0000 H   0  0  0  0  0  0  0  0  0  0  0  0
   10.8521   -5.5981    0.0000 H   0  0  0  0  0  0  0  0  0  0  0  0
    2.1900    3.3291    0.0000 H   0  0  0  0  0  0  0  0  0  0  0  0
    4.6200    4.7320    0.0000 H   0  0  0  0  0  0  0  0  0  0  0  0
    1.3800    4.7320    0.0000 H   0  0  0  0  0  0  0  0  0  0  0  0
    3.8100    6.1350    0.0000 H   0  0  0  0  0  0  0  0  0  0  0  0
    2.1900    6.1350    0.0000 H   0  0  0  0  0  0  0  0  0  0  0  0
  1  9  1  0  0  0  0
  2  9  1  0  0  0  0
  3 12  1  0  0  0  0
  3 17  1  0  0  0  0
  4 12  2  0  0  0  0
  5 18  1  0  0  0  0
  5 23  1  0  0  0  0
  6 24  1  0  0  0  0
  6 28  1  0  0  0  0
  7 20  3  0  0  0  0
  8  9  1  0  0  0  0
  8 10  1  0  0  0  0
  8 11  1  0  0  0  0
  8 12  1  0  0  0  0
  9 10  1  0  0  0  0
 10 34  1  0  0  0  0
 10 35  1  0  0  0  0
 11 13  2  0  0  0  0
 11 14  1  0  0  0  0
 13 15  1  0  0  0  0
 13 36  1  0  0  0  0
 14 16  2  0  0  0  0
 14 37  1  0  0  0  0
 15 18  2  0  0  0  0
 15 38  1  0  0  0  0
 16 18  1  0  0  0  0
 16 39  1  0  0  0  0
 17 19  1  0  0  0  0
 17 20  1  0  0  0  0
 17 40  1  0  0  0  0
 19 21  2  0  0  0  0
 19 22  1  0  0  0  0
 21 24  1  0  0  0  0
 21 41  1  0  0  0  0
 22 25  2  0  0  0  0
 22 42  1  0  0  0  0
 23 27  1  0  0  0  0
 23 43  1  0  0  0  0
 23 44  1  0  0  0  0
 24 26  2  0  0  0  0
 25 26  1  0  0  0  0
 25 45  1  0  0  0  0
 26 46  1  0  0  0  0
 27 47  1  0  0  0  0
 27 48  1  0  0  0  0
 27 49  1  0  0  0  0
 28 29  2  0  0  0  0
 28 30  1  0  0  0  0
 29 31  1  0  0  0  0
 29 50  1  0  0  0  0
 30 32  2  0  0  0  0
 30 51  1  0  0  0  0
 31 33  2  0  0  0  0
 31 52  1  0  0  0  0
 32 33  1  0  0  0  0
 32 53  1  0  0  0  0
 33 54  1  0  0  0  0
M  END
> <PUBCHEM_COMPOUND_CID>
91686

> <PUBCHEM_COMPOUND_CANONICALIZED>
1

> <PUBCHEM_CACTVS_COMPLEXITY>
723

> <PUBCHEM_CACTVS_HBOND_ACCEPTOR>
5

> <PUBCHEM_CACTVS_HBOND_DONOR>
0

> <PUBCHEM_CACTVS_ROTATABLE_BOND>
9

> <PUBCHEM_CACTVS_SUBSKEYS>
AAADceB6OAAGAAAAAAAAAAAAGAAAAAAAAAAwYMAAAAAAAAABUAAAHgIAAAAADhahmIIyDoAABACYBiDSCAACCAAgIAAIiAEGCogMpjKFNRqCOCCkwBEIqA/IyPCPoAABAAAAAABAAAIAAAAAAAAAAAAAAA==

> <PUBCHEM_IUPAC_OPENEYE_NAME>
[cyano-(3-phenoxyphenyl)methyl] 2,2-dichloro-1-(4-ethoxyphenyl)cyclopropanecarboxylate

> <PUBCHEM_IUPAC_CAS_NAME>
2,2-dichloro-1-(4-ethoxyphenyl)-1-cyclopropanecarboxylic acid [cyano-(3-phenoxyphenyl)methyl] ester

> <PUBCHEM_IUPAC_NAME>
[cyano-(3-phenoxyphenyl)methyl] 2,2-dichloro-1-(4-ethoxyphenyl)cyclopropane-1-carboxylate

> <PUBCHEM_IUPAC_SYSTEMATIC_NAME>
[cyano-(3-phenoxyphenyl)methyl] 2,2-bis(chloranyl)-1-(4-ethoxyphenyl)cyclopropane-1-carboxylate

> <PUBCHEM_IUPAC_TRADITIONAL_NAME>
2,2-dichloro-1-p-phenetyl-cyclopropanecarboxylic acid [cyano-(3-phenoxyphenyl)methyl] ester

> <PUBCHEM_IUPAC_INCHI>
InChI=1S/C26H21Cl2NO4/c1-2-31-20-13-11-19(12-14-20)25(17-26(25,27)28)24(30)33-23(16-29)18-7-6-10-22(15-18)32-21-8-4-3-5-9-21/h3-15,23H,2,17H2,1H3

> <PUBCHEM_IUPAC_INCHIKEY>
CGTWCAVZZBLHQH-UHFFFAOYSA-N

> <PUBCHEM_XLOGP3_AA>
6.2

> <PUBCHEM_EXACT_MASS>
481.084764

> <PUBCHEM_MOLECULAR_FORMULA>
C26H21Cl2NO4

> <PUBCHEM_MOLECULAR_WEIGHT>
482.35524

> <PUBCHEM_OPENEYE_CAN_SMILES>
CCOC1=CC=C(C=C1)C2(CC2(Cl)Cl)C(=O)OC(C#N)C3=CC(=CC=C3)OC4=CC=CC=C4

> <PUBCHEM_OPENEYE_ISO_SMILES>
CCOC1=CC=C(C=C1)C2(CC2(Cl)Cl)C(=O)OC(C#N)C3=CC(=CC=C3)OC4=CC=CC=C4

> <PUBCHEM_CACTVS_TPSA>
68.6

> <PUBCHEM_MONOISOTOPIC_WEIGHT>
481.084764

> <PUBCHEM_TOTAL_CHARGE>
0

> <PUBCHEM_HEAVY_ATOM_COUNT>
33

> <PUBCHEM_ATOM_DEF_STEREO_COUNT>
0

> <PUBCHEM_ATOM_UDEF_STEREO_COUNT>
2

> <PUBCHEM_BOND_DEF_STEREO_COUNT>
0

> <PUBCHEM_BOND_UDEF_STEREO_COUNT>
0

> <PUBCHEM_ISOTOPIC_ATOM_COUNT>
0

> <PUBCHEM_COMPONENT_COUNT>
1

> <PUBCHEM_CACTVS_TAUTO_COUNT>
1

> <PUBCHEM_COORDINATE_TYPE>
1
5
255

> <PUBCHEM_BONDANNOTATIONS>
11  13  8
11  14  8
13  15  8
14  16  8
15  18  8
16  18  8
17  40  3
19  21  8
19  22  8
21  24  8
22  25  8
24  26  8
25  26  8
28  29  8
28  30  8
29  31  8
30  32  8
31  33  8
32  33  8
8  12  3

$$$$

