18432
  -OEChem-07051213133D

 36 37  0     0  0  0  0  0  0999 V2000
   -4.0729    2.7136    0.4002 Cl  0  0  0  0  0  0  0  0  0  0  0  0
   -5.9650    0.0951    0.2068 Cl  0  0  0  0  0  0  0  0  0  0  0  0
    0.2622    1.4533   -1.5620 O   0  0  0  0  0  0  0  0  0  0  0  0
    0.0121   -2.2631    1.2198 O   0  0  0  0  0  0  0  0  0  0  0  0
   -0.0849   -0.4040   -0.1617 N   0  0  0  0  0  0  0  0  0  0  0  0
    1.6568   -2.0249   -0.4047 N   0  0  0  0  0  0  0  0  0  0  0  0
   -1.5234   -0.2651   -0.0701 C   0  0  0  0  0  0  0  0  0  0  0  0
    0.6665    0.6644   -0.7087 C   0  0  0  0  0  0  0  0  0  0  0  0
    0.5128   -1.6047    0.3005 C   0  0  0  0  0  0  0  0  0  0  0  0
    2.0210    0.9001   -0.1495 C   0  0  0  0  0  0  0  0  0  0  0  0
   -2.0408    0.9915    0.0974 C   0  0  0  0  0  0  0  0  0  0  0  0
   -2.2866   -1.3987   -0.1559 C   0  0  0  0  0  0  0  0  0  0  0  0
   -3.4266    1.1245    0.1859 C   0  0  0  0  0  0  0  0  0  0  0  0
   -3.6722   -1.2657   -0.0674 C   0  0  0  0  0  0  0  0  0  0  0  0
    2.2630    0.5791    1.1707 C   0  0  0  0  0  0  0  0  0  0  0  0
    2.9973    1.4326   -0.9670 C   0  0  0  0  0  0  0  0  0  0  0  0
    2.6942   -2.8468    0.2146 C   0  0  0  0  0  0  0  0  0  0  0  0
    1.8827   -1.6686   -1.7980 C   0  0  0  0  0  0  0  0  0  0  0  0
   -4.2422   -0.0041    0.1034 C   0  0  0  0  0  0  0  0  0  0  0  0
    3.5360    0.8003    1.6963 C   0  0  0  0  0  0  0  0  0  0  0  0
    4.2702    1.6537   -0.4413 C   0  0  0  0  0  0  0  0  0  0  0  0
    4.5396    1.3376    0.8904 C   0  0  0  0  0  0  0  0  0  0  0  0
   -1.4186    1.8744    0.2043 H   0  0  0  0  0  0  0  0  0  0  0  0
   -1.8807   -2.3888   -0.3330 H   0  0  0  0  0  0  0  0  0  0  0  0
   -4.2936   -2.1546   -0.1432 H   0  0  0  0  0  0  0  0  0  0  0  0
    1.4951    0.2111    1.8432 H   0  0  0  0  0  0  0  0  0  0  0  0
    2.8044    1.6790   -2.0069 H   0  0  0  0  0  0  0  0  0  0  0  0
    2.7299   -3.8132   -0.2956 H   0  0  0  0  0  0  0  0  0  0  0  0
    3.6574   -2.3384    0.1172 H   0  0  0  0  0  0  0  0  0  0  0  0
    2.4746   -3.0040    1.2740 H   0  0  0  0  0  0  0  0  0  0  0  0
    2.0479   -2.6033   -2.3470 H   0  0  0  0  0  0  0  0  0  0  0  0
    1.0262   -1.1896   -2.2743 H   0  0  0  0  0  0  0  0  0  0  0  0
    2.7921   -1.0753   -1.8997 H   0  0  0  0  0  0  0  0  0  0  0  0
    3.7429    0.5653    2.7363 H   0  0  0  0  0  0  0  0  0  0  0  0
    5.0521    2.0711   -1.0689 H   0  0  0  0  0  0  0  0  0  0  0  0
    5.5301    1.5118    1.3002 H   0  0  0  0  0  0  0  0  0  0  0  0
  1 13  1  0  0  0  0
  2 19  1  0  0  0  0
  3  8  2  0  0  0  0
  4  9  2  0  0  0  0
  5  7  1  0  0  0  0
  5  8  1  0  0  0  0
  5  9  1  0  0  0  0
  6  9  1  0  0  0  0
  6 17  1  0  0  0  0
  6 18  1  0  0  0  0
  7 11  2  0  0  0  0
  7 12  1  0  0  0  0
  8 10  1  0  0  0  0
 10 15  2  0  0  0  0
 10 16  1  0  0  0  0
 11 13  1  0  0  0  0
 11 23  1  0  0  0  0
 12 14  2  0  0  0  0
 12 24  1  0  0  0  0
 13 19  2  0  0  0  0
 14 19  1  0  0  0  0
 14 25  1  0  0  0  0
 15 20  1  0  0  0  0
 15 26  1  0  0  0  0
 16 21  2  0  0  0  0
 16 27  1  0  0  0  0
 17 28  1  0  0  0  0
 17 29  1  0  0  0  0
 17 30  1  0  0  0  0
 18 31  1  0  0  0  0
 18 32  1  0  0  0  0
 18 33  1  0  0  0  0
 20 22  2  0  0  0  0
 20 34  1  0  0  0  0
 21 22  1  0  0  0  0
 21 35  1  0  0  0  0
 22 36  1  0  0  0  0
M  END
> <PUBCHEM_COMPOUND_CID>
18432

> <PUBCHEM_CONFORMER_RMSD>
0.8

> <PUBCHEM_CONFORMER_DIVERSEORDER>
1
11
16
19
14
7
5
10
13
15
20
8
2
6
18
12
9
3
17
4

> <PUBCHEM_MMFF94_PARTIAL_CHARGES>
30
1 -0.18
10 0.09
11 -0.15
12 -0.15
13 0.18
14 -0.15
15 -0.15
16 -0.15
17 0.3
18 0.3
19 0.18
2 -0.18
20 -0.15
21 -0.15
22 -0.15
23 0.15
24 0.15
25 0.15
26 0.15
27 0.15
3 -0.57
34 0.15
35 0.15
36 0.15
4 -0.57
5 -0.24
6 -0.66
7 0.12
8 0.54
9 0.69

> <PUBCHEM_EFFECTIVE_ROTOR_COUNT>
5

> <PUBCHEM_PHARMACOPHORE_FEATURES>
4
1 3 acceptor
1 4 acceptor
6 10 15 16 20 21 22 rings
6 7 11 12 13 14 19 rings

> <PUBCHEM_HEAVY_ATOM_COUNT>
22

> <PUBCHEM_ATOM_DEF_STEREO_COUNT>
0

> <PUBCHEM_ATOM_UDEF_STEREO_COUNT>
0

> <PUBCHEM_BOND_DEF_STEREO_COUNT>
0

> <PUBCHEM_BOND_UDEF_STEREO_COUNT>
0

> <PUBCHEM_ISOTOPIC_ATOM_COUNT>
0

> <PUBCHEM_COMPONENT_COUNT>
1

> <PUBCHEM_CACTVS_TAUTO_COUNT>
1

> <PUBCHEM_CONFORMER_ID>
0000480000000001

> <PUBCHEM_MMFF94_ENERGY>
95.6922

> <PUBCHEM_FEATURE_SELFOVERLAP>
20.297

> <PUBCHEM_SHAPE_FINGERPRINT>
10366900 7 18261116214779876753
10382601 240 17988361576141640448
10465860 228 18339640143663545832
10646746 165 18187365411141979584
1100329 8 17468751244372672712
11578080 2 17630622321054958741
12236239 1 17917153801402368449
12422481 6 18196395790920455202
12507560 40 18335984267949473005
12633257 1 17489603237938459336
12788726 201 17477482006890135254
13140716 1 17906448823429825619
13224815 77 18412820292176738115
13533116 47 18261394490243458315
14178342 30 18343017770570089635
14466204 15 18408329873752050960
14790565 3 18269548343742327988
15196674 1 18338515352475437465
15238133 3 15792566517258169179
15536298 74 18336543906203592831
16945 1 18191033308791000782
17349148 13 18129948858305168135
1813 80 16917065607136012732
20691752 17 17775000240838674046
20739085 24 17847062194590304108
21452121 103 18411142475633939386
22149856 69 18266434596301505307
22182313 1 17987811837586710759
23402539 116 18267029366680808135
23419403 2 17984439678743675678
23557571 272 17970055661407395255
23559900 14 17824824683202809062
34934 24 18260832575271400735
350125 39 18266738163271011748
3545911 37 18408601457508002157
42630746 31 18411700993386962839
4340502 62 18342453721469076651
465052 167 17418095390744864704
474 4 18272931609306928123
495365 180 17822300140175390644
5104073 3 18338227284813371745
5265222 85 18118397342848822212
633830 44 17895762777077784420
7364860 26 18260828249627819566

> <PUBCHEM_SHAPE_MULTIPOLES>
434.79
9.83
2.71
1.23
7.91
0.89
-0.08
-4.4
1.59
-0.86
0.05
-1.26
-0.02
0.1

> <PUBCHEM_SHAPE_SELFOVERLAP>
916.844

> <PUBCHEM_SHAPE_VOLUME>
246.2

> <PUBCHEM_COORDINATE_TYPE>
2
5
10

$$$$

