27661
  -OEChem-07051212543D

 22 23  0     1  0  0  0  0  0999 V2000
   -1.4908   -1.7744   -0.0017 O   0  0  0  0  0  0  0  0  0  0  0  0
   -0.4257    0.9848   -0.7818 O   0  0  0  0  0  0  0  0  0  0  0  0
    1.8477   -0.5885   -0.5309 O   0  0  0  0  0  0  0  0  0  0  0  0
   -2.9367    1.4617    0.8540 O   0  0  0  0  0  0  0  0  0  0  0  0
    2.6510    0.2814    1.3509 O   0  5  0  0  0  0  0  0  0  0  0  0
    3.3436    1.1211   -0.5951 O   0  0  0  0  0  0  0  0  0  0  0  0
    2.6919    0.3587    0.1223 N   0  3  0  0  0  0  0  0  0  0  0  0
   -0.2566    0.2102    0.4176 C   0  0  1  0  0  0  0  0  0  0  0  0
   -1.5715   -0.5016    0.6682 C   0  0  1  0  0  0  0  0  0  0  0  0
    0.7002   -0.9390    0.2093 C   0  0  1  0  0  0  0  0  0  0  0  0
   -2.5847    0.3868   -0.0085 C   0  0  2  0  0  0  0  0  0  0  0  0
   -0.1633   -1.9433   -0.5206 C   0  0  0  0  0  0  0  0  0  0  0  0
   -1.8051    0.9421   -1.1837 C   0  0  0  0  0  0  0  0  0  0  0  0
    0.0259    0.8974    1.2202 H   0  0  0  0  0  0  0  0  0  0  0  0
   -1.7627   -0.6780    1.7313 H   0  0  0  0  0  0  0  0  0  0  0  0
    0.9716   -1.3904    1.1739 H   0  0  0  0  0  0  0  0  0  0  0  0
   -3.4954   -0.1320   -0.3216 H   0  0  0  0  0  0  0  0  0  0  0  0
   -0.1815   -1.7683   -1.6022 H   0  0  0  0  0  0  0  0  0  0  0  0
    0.1665   -2.9737   -0.3565 H   0  0  0  0  0  0  0  0  0  0  0  0
   -1.8690    0.2778   -2.0518 H   0  0  0  0  0  0  0  0  0  0  0  0
   -2.1149    1.9482   -1.4806 H   0  0  0  0  0  0  0  0  0  0  0  0
   -3.5512    2.0374    0.3675 H   0  0  0  0  0  0  0  0  0  0  0  0
  1  9  1  0  0  0  0
  1 12  1  0  0  0  0
  2  8  1  0  0  0  0
  2 13  1  0  0  0  0
  3  7  1  0  0  0  0
  3 10  1  0  0  0  0
  4 11  1  0  0  0  0
  4 22  1  0  0  0  0
  5  7  1  0  0  0  0
  6  7  2  0  0  0  0
  8  9  1  0  0  0  0
  8 10  1  0  0  0  0
  8 14  1  0  0  0  0
  9 11  1  0  0  0  0
  9 15  1  0  0  0  0
 10 12  1  0  0  0  0
 10 16  1  0  0  0  0
 11 13  1  0  0  0  0
 11 17  1  0  0  0  0
 12 18  1  0  0  0  0
 12 19  1  0  0  0  0
 13 20  1  0  0  0  0
 13 21  1  0  0  0  0
M  CHG  2   5  -1   7   1
M  END
> <PUBCHEM_COMPOUND_CID>
27661

> <PUBCHEM_CONFORMER_RMSD>
0.6

> <PUBCHEM_CONFORMER_DIVERSEORDER>
1
6
4
2
3
5
7

> <PUBCHEM_MMFF94_PARTIAL_CHARGES>
14
1 -0.56
10 0.28
11 0.28
12 0.28
13 0.28
2 -0.56
22 0.4
3 -0.27
4 -0.68
5 -0.52
6 -0.52
7 1.03
8 0.28
9 0.28

> <PUBCHEM_EFFECTIVE_ROTOR_COUNT>
3.2

> <PUBCHEM_PHARMACOPHORE_FEATURES>
8
1 1 acceptor
1 2 acceptor
1 4 acceptor
1 4 donor
1 5 acceptor
1 6 acceptor
5 1 8 9 10 12 rings
5 2 8 9 11 13 rings

> <PUBCHEM_HEAVY_ATOM_COUNT>
13

> <PUBCHEM_ATOM_DEF_STEREO_COUNT>
4

> <PUBCHEM_ATOM_UDEF_STEREO_COUNT>
0

> <PUBCHEM_BOND_DEF_STEREO_COUNT>
0

> <PUBCHEM_BOND_UDEF_STEREO_COUNT>
0

> <PUBCHEM_ISOTOPIC_ATOM_COUNT>
0

> <PUBCHEM_COMPONENT_COUNT>
1

> <PUBCHEM_CACTVS_TAUTO_COUNT>
1

> <PUBCHEM_CONFORMER_ID>
00006C0D00000001

> <PUBCHEM_MMFF94_ENERGY>
43.9884

> <PUBCHEM_FEATURE_SELFOVERLAP>
41.384

> <PUBCHEM_SHAPE_FINGERPRINT>
10857977 72 17345450739444915681
12423570 1 13320455230574000939
12932764 1 17632580461333334324
13024252 1 15482682255602215303
15775835 57 18273211980698823560
16945 1 17775278400306204727
18186145 218 18189052164963004173
20645464 45 18261111880809689182
20871998 184 18265324019719791503
21040471 1 18409449219174289291
23211744 41 17915741083858774915
23235685 24 18335984245926088344
2748010 2 18339070588187885247
369184 2 16917075451026974866
5084963 1 17486758951180337991
54338 74 17914907430337590015
6333449 129 18409452448994775823
81228 2 18121510046058385970

> <PUBCHEM_SHAPE_MULTIPOLES>
227.34
4.33
1.62
1.02
2.35
0.6
-0.03
-2.12
-0.47
-0.4
0.24
-0.03
-0.2
-0.06

> <PUBCHEM_SHAPE_SELFOVERLAP>
477.521

> <PUBCHEM_SHAPE_VOLUME>
129.8

> <PUBCHEM_COORDINATE_TYPE>
2
5
10

$$$$

