5408233
  -OEChem-07051212503D

 45 48  0     1  0  0  0  0  0999 V2000
    1.4403   -1.9608   -1.1217 O   0  0  0  0  0  0  0  0  0  0  0  0
   -2.8833   -2.8453   -0.5885 O   0  0  0  0  0  0  0  0  0  0  0  0
    3.8228   -2.1033    0.1101 O   0  0  0  0  0  0  0  0  0  0  0  0
   -4.1954   -1.0791    1.1230 O   0  0  0  0  0  0  0  0  0  0  0  0
   -0.7144    3.0951   -0.7904 N   0  0  2  0  0  0  0  0  0  0  0  0
   -0.5614    0.1618   -0.5549 C   0  0  1  0  0  0  0  0  0  0  0  0
   -0.8796    2.4177    0.5138 C   0  0  1  0  0  0  0  0  0  0  0  0
   -1.4646    1.0421    0.2988 C   0  0  0  0  0  0  0  0  0  0  0  0
   -0.3880    0.8988   -1.9117 C   0  0  0  0  0  0  0  0  0  0  0  0
    0.8218    0.0430    0.1213 C   0  0  0  0  0  0  0  0  0  0  0  0
    0.3903    2.2371    1.3760 C   0  0  0  0  0  0  0  0  0  0  0  0
    0.1014    2.3507   -1.7552 C   0  0  0  0  0  0  0  0  0  0  0  0
    1.2617    1.0513    1.0135 C   0  0  0  0  0  0  0  0  0  0  0  0
   -1.2096   -1.1878   -0.8156 C   0  0  0  0  0  0  0  0  0  0  0  0
   -2.6303    0.6551    0.8338 C   0  0  0  0  0  0  0  0  0  0  0  0
    1.7079   -1.0068   -0.1835 C   0  0  0  0  0  0  0  0  0  0  0  0
   -0.2639    4.4780   -0.6713 C   0  0  0  0  0  0  0  0  0  0  0  0
   -2.3729   -1.5987   -0.2954 C   0  0  0  0  0  0  0  0  0  0  0  0
    2.5294    0.9554    1.6112 C   0  0  0  0  0  0  0  0  0  0  0  0
   -3.1492   -0.7086    0.6004 C   0  0  0  0  0  0  0  0  0  0  0  0
    2.9688   -1.0840    0.4117 C   0  0  0  0  0  0  0  0  0  0  0  0
    3.3769   -0.1077    1.3129 C   0  0  0  0  0  0  0  0  0  0  0  0
   -2.4263   -3.8076    0.3423 C   0  0  0  0  0  0  0  0  0  0  0  0
    4.7174   -1.8965   -0.9803 C   0  0  0  0  0  0  0  0  0  0  0  0
   -1.5866    3.0247    1.0959 H   0  0  0  0  0  0  0  0  0  0  0  0
   -1.3479    0.9162   -2.4492 H   0  0  0  0  0  0  0  0  0  0  0  0
    0.3157    0.3617   -2.5619 H   0  0  0  0  0  0  0  0  0  0  0  0
    0.0736    2.0881    2.4184 H   0  0  0  0  0  0  0  0  0  0  0  0
    0.9940    3.1513    1.3697 H   0  0  0  0  0  0  0  0  0  0  0  0
    1.1616    2.3652   -1.4750 H   0  0  0  0  0  0  0  0  0  0  0  0
    0.0360    2.8332   -2.7385 H   0  0  0  0  0  0  0  0  0  0  0  0
   -0.7532   -1.8545   -1.5412 H   0  0  0  0  0  0  0  0  0  0  0  0
   -3.2262    1.3172    1.4518 H   0  0  0  0  0  0  0  0  0  0  0  0
    0.7766    4.5575   -0.3403 H   0  0  0  0  0  0  0  0  0  0  0  0
   -0.8953    5.0358    0.0288 H   0  0  0  0  0  0  0  0  0  0  0  0
   -0.3473    4.9876   -1.6380 H   0  0  0  0  0  0  0  0  0  0  0  0
    2.8632    1.7182    2.3107 H   0  0  0  0  0  0  0  0  0  0  0  0
    4.3562   -0.1621    1.7802 H   0  0  0  0  0  0  0  0  0  0  0  0
    2.1437   -2.6319   -1.1148 H   0  0  0  0  0  0  0  0  0  0  0  0
   -2.7368   -3.5565    1.3625 H   0  0  0  0  0  0  0  0  0  0  0  0
   -1.3370   -3.9177    0.2979 H   0  0  0  0  0  0  0  0  0  0  0  0
   -2.8725   -4.7721    0.0823 H   0  0  0  0  0  0  0  0  0  0  0  0
    5.4311   -1.1022   -0.7396 H   0  0  0  0  0  0  0  0  0  0  0  0
    4.1724   -1.6435   -1.8953 H   0  0  0  0  0  0  0  0  0  0  0  0
    5.2716   -2.8239   -1.1493 H   0  0  0  0  0  0  0  0  0  0  0  0
  1 16  1  0  0  0  0
  1 39  1  0  0  0  0
  2 18  1  0  0  0  0
  2 23  1  0  0  0  0
  3 21  1  0  0  0  0
  3 24  1  0  0  0  0
  4 20  2  0  0  0  0
  5  7  1  0  0  0  0
  5 12  1  0  0  0  0
  5 17  1  0  0  0  0
  6  8  1  0  0  0  0
  6  9  1  0  0  0  0
  6 10  1  0  0  0  0
  6 14  1  0  0  0  0
  7  8  1  0  0  0  0
  7 11  1  0  0  0  0
  7 25  1  0  0  0  0
  8 15  2  0  0  0  0
  9 12  1  0  0  0  0
  9 26  1  0  0  0  0
  9 27  1  0  0  0  0
 10 13  2  0  0  0  0
 10 16  1  0  0  0  0
 11 13  1  0  0  0  0
 11 28  1  0  0  0  0
 11 29  1  0  0  0  0
 12 30  1  0  0  0  0
 12 31  1  0  0  0  0
 13 19  1  0  0  0  0
 14 18  2  0  0  0  0
 14 32  1  0  0  0  0
 15 20  1  0  0  0  0
 15 33  1  0  0  0  0
 16 21  2  0  0  0  0
 17 34  1  0  0  0  0
 17 35  1  0  0  0  0
 17 36  1  0  0  0  0
 18 20  1  0  0  0  0
 19 22  2  0  0  0  0
 19 37  1  0  0  0  0
 21 22  1  0  0  0  0
 22 38  1  0  0  0  0
 23 40  1  0  0  0  0
 23 41  1  0  0  0  0
 23 42  1  0  0  0  0
 24 43  1  0  0  0  0
 24 44  1  0  0  0  0
 24 45  1  0  0  0  0
M  END
> <PUBCHEM_COMPOUND_CID>
5408233

> <PUBCHEM_CONFORMER_RMSD>
0.6

> <PUBCHEM_CONFORMER_DIVERSEORDER>
3
1
2

> <PUBCHEM_MMFF94_PARTIAL_CHARGES>
28
1 -0.53
10 -0.14
11 0.14
12 0.27
13 -0.14
14 -0.29
15 -0.14
16 0.08
17 0.27
18 0.09
19 -0.15
2 -0.36
20 0.54
21 0.08
22 -0.15
23 0.28
24 0.28
3 -0.36
32 0.15
33 0.15
37 0.15
38 0.15
39 0.45
4 -0.57
5 -0.81
6 0.42
7 0.41
8 -0.28

> <PUBCHEM_EFFECTIVE_ROTOR_COUNT>
2.8

> <PUBCHEM_PHARMACOPHORE_FEATURES>
9
1 1 donor
1 2 acceptor
1 3 acceptor
1 4 acceptor
1 5 cation
6 10 13 16 19 21 22 rings
6 5 6 7 8 9 12 rings
6 6 7 8 10 11 13 rings
6 6 8 14 15 18 20 rings

> <PUBCHEM_HEAVY_ATOM_COUNT>
24

> <PUBCHEM_ATOM_DEF_STEREO_COUNT>
2

> <PUBCHEM_ATOM_UDEF_STEREO_COUNT>
0

> <PUBCHEM_BOND_DEF_STEREO_COUNT>
0

> <PUBCHEM_BOND_UDEF_STEREO_COUNT>
0

> <PUBCHEM_ISOTOPIC_ATOM_COUNT>
0

> <PUBCHEM_COMPONENT_COUNT>
1

> <PUBCHEM_CACTVS_TAUTO_COUNT>
7

> <PUBCHEM_CONFORMER_ID>
005285E900000003

> <PUBCHEM_MMFF94_ENERGY>
87.4961

> <PUBCHEM_FEATURE_SELFOVERLAP>
47.226

> <PUBCHEM_SHAPE_FINGERPRINT>
10165383 225 16897336202495068548
10764073 3 17389644599768778041
11069576 57 17468212045620398055
11578080 2 17988376866331352917
12011746 2 18115871982627877341
12173636 292 17836372922928592908
12553582 1 18413393128686627507
12633257 1 17822562906338312091
12714826 92 18267869565400186826
12730499 353 16969142025640522349
13004483 165 18272093845923858897
13140716 1 18260833682877545698
133893 2 17342380679425561989
13583140 156 5328447203557626798
13681431 1 17916026746080667245
14181834 199 17555464928955420093
14223421 5 18260843574450550266
14863182 85 17329996793767383707
14955137 171 17834114143787698872
16945 1 18041282088709942889
17357779 13 18264229022107541981
17804303 29 18261104218429991978
1813 80 18131071497978236203
20600515 1 18335686265643163031
21330990 113 18118671351948265851
21421861 104 17763448531739820723
22182313 1 17969804036795796136
22907989 373 18056762250329909924
23419403 2 17833029015889177189
23493267 7 17835806678887794536
23557571 272 18201170913879868360
23558518 356 16310763272168843498
25 1 17037555820942577692
2748010 2 17897472642634709168
3759504 43 17762056944897304988
394222 165 16617602289715029377
4409770 3 18124039184784063791
5845 1 18201170883335010677
598444 67 17973444591897423393
7097593 13 18118121373091757115
81228 2 18128262370508352189
8809292 202 18189055459503834418
9981440 41 16961043886488637528

> <PUBCHEM_SHAPE_MULTIPOLES>
465.45
5.83
4.37
1.51
3.26
1.73
-0.2
-6.19
1.2
-1.86
-1.01
0.4
0.64
0.83

> <PUBCHEM_SHAPE_SELFOVERLAP>
1025.667

> <PUBCHEM_SHAPE_VOLUME>
249

> <PUBCHEM_COORDINATE_TYPE>
2
5
10

$$$$

