5281994
  -OEChem-07051213023D

 27 26  0     0  0  0  0  0  0999 V2000
   -3.9959   -0.5632   -0.6816 O   0  0  0  0  0  0  0  0  0  0  0  0
    1.8820   -0.7922   -0.1637 C   0  0  0  0  0  0  0  0  0  0  0  0
    1.6931    0.7067    0.0582 C   0  0  0  0  0  0  0  0  0  0  0  0
    0.4003    1.1366    0.7264 C   0  0  0  0  0  0  0  0  0  0  0  0
    2.6962   -1.1627   -1.4105 C   0  0  0  0  0  0  0  0  0  0  0  0
    2.5112   -1.4476    1.0698 C   0  0  0  0  0  0  0  0  0  0  0  0
   -0.8038    0.8655   -0.1354 C   0  0  0  0  0  0  0  0  0  0  0  0
    2.6007    1.6353   -0.2909 C   0  0  0  0  0  0  0  0  0  0  0  0
   -1.8902    0.1465    0.1955 C   0  0  0  0  0  0  0  0  0  0  0  0
   -2.1425   -0.5816    1.4777 C   0  0  0  0  0  0  0  0  0  0  0  0
   -2.9513    0.0567   -0.8454 C   0  0  0  0  0  0  0  0  0  0  0  0
    0.8941   -1.2461   -0.3106 H   0  0  0  0  0  0  0  0  0  0  0  0
    0.3378    0.6513    1.7040 H   0  0  0  0  0  0  0  0  0  0  0  0
    0.4161    2.2143    0.9355 H   0  0  0  0  0  0  0  0  0  0  0  0
    2.2883   -0.6772   -2.3038 H   0  0  0  0  0  0  0  0  0  0  0  0
    2.6651   -2.2451   -1.5789 H   0  0  0  0  0  0  0  0  0  0  0  0
    3.7491   -0.8773   -1.3132 H   0  0  0  0  0  0  0  0  0  0  0  0
    3.5161   -1.0555    1.2626 H   0  0  0  0  0  0  0  0  0  0  0  0
    1.9040   -1.2726    1.9646 H   0  0  0  0  0  0  0  0  0  0  0  0
    2.5932   -2.5315    0.9341 H   0  0  0  0  0  0  0  0  0  0  0  0
   -0.7674    1.3463   -1.1131 H   0  0  0  0  0  0  0  0  0  0  0  0
    3.5433    1.3712   -0.7560 H   0  0  0  0  0  0  0  0  0  0  0  0
    2.4262    2.6913   -0.1114 H   0  0  0  0  0  0  0  0  0  0  0  0
   -1.3106   -0.5261    2.1824 H   0  0  0  0  0  0  0  0  0  0  0  0
   -3.0248   -0.1692    1.9784 H   0  0  0  0  0  0  0  0  0  0  0  0
   -2.3250   -1.6435    1.2799 H   0  0  0  0  0  0  0  0  0  0  0  0
   -2.7500    0.5873   -1.7914 H   0  0  0  0  0  0  0  0  0  0  0  0
  1 11  2  0  0  0  0
  2  3  1  0  0  0  0
  2  5  1  0  0  0  0
  2  6  1  0  0  0  0
  2 12  1  0  0  0  0
  3  4  1  0  0  0  0
  3  8  2  0  0  0  0
  4  7  1  0  0  0  0
  4 13  1  0  0  0  0
  4 14  1  0  0  0  0
  5 15  1  0  0  0  0
  5 16  1  0  0  0  0
  5 17  1  0  0  0  0
  6 18  1  0  0  0  0
  6 19  1  0  0  0  0
  6 20  1  0  0  0  0
  7  9  2  0  0  0  0
  7 21  1  0  0  0  0
  8 22  1  0  0  0  0
  8 23  1  0  0  0  0
  9 10  1  0  0  0  0
  9 11  1  0  0  0  0
 10 24  1  0  0  0  0
 10 25  1  0  0  0  0
 10 26  1  0  0  0  0
 11 27  1  0  0  0  0
M  END
> <PUBCHEM_COMPOUND_CID>
5281994

> <PUBCHEM_CONFORMER_RMSD>
0.6

> <PUBCHEM_CONFORMER_DIVERSEORDER>
1
53
76
74
47
17
72
70
9
65
36
67
22
39
6
54
21
66
24
28
42
71
56
10
50
68
73
12
41
77
63
75
29
64
51
69
46
48
49
43
44
25
31
52
38
62
20
60
61
13
57
35
45
3
19
32
59
26
34
2
30
7
40
23
33
16
55
4
14
5
58
18
27
11
8
15
37

> <PUBCHEM_MMFF94_PARTIAL_CHARGES>
13
1 -0.57
10 0.14
11 0.5
2 0.14
21 0.15
22 0.15
23 0.15
27 0.06
3 -0.28
4 0.28
7 -0.29
8 -0.3
9 -0.12

> <PUBCHEM_EFFECTIVE_ROTOR_COUNT>
4

> <PUBCHEM_PHARMACOPHORE_FEATURES>
5
1 1 acceptor
1 10 hydrophobe
1 8 hydrophobe
3 2 5 6 hydrophobe
4 2 3 4 7 hydrophobe

> <PUBCHEM_HEAVY_ATOM_COUNT>
11

> <PUBCHEM_ATOM_DEF_STEREO_COUNT>
0

> <PUBCHEM_ATOM_UDEF_STEREO_COUNT>
0

> <PUBCHEM_BOND_DEF_STEREO_COUNT>
1

> <PUBCHEM_BOND_UDEF_STEREO_COUNT>
0

> <PUBCHEM_ISOTOPIC_ATOM_COUNT>
0

> <PUBCHEM_COMPONENT_COUNT>
1

> <PUBCHEM_CACTVS_TAUTO_COUNT>
1

> <PUBCHEM_CONFORMER_ID>
005098CA00000001

> <PUBCHEM_MMFF94_ENERGY>
11.188

> <PUBCHEM_FEATURE_SELFOVERLAP>
25.52

> <PUBCHEM_SHAPE_FINGERPRINT>
107287 299 18266729204238381120
10857977 72 4895272637832656529
12716758 59 17060340738437640657
12897270 3 17846207856611694124
12932741 1 17988916752088237129
12932764 1 18060128856160116747
14390081 3 12175609681521855783
15757776 16 18410579478799718748
177051 138 16877946048724716655
17990270 104 18261387905588841964
18186145 218 18130794490300464949
20201158 50 18272654558072841906
20279233 1 17917993841239118825
20645476 183 15051734192212751779
20645477 70 18407764729111954631
20671657 53 18269838769250599686
20711985 344 18051965111125887284
23552423 10 18411696625210050496
23557571 272 16630239195653544085
3248919 1 18272087175776747425
449060 23 17897148329432668150
581208 293 18334861575982312860
8030462 33 18059568135141871164
81539 233 18201157629677877820

> <PUBCHEM_SHAPE_MULTIPOLES>
220.51
5.81
1.53
1.27
3.65
0.15
-0.03
-1.46
1.46
-1.39
-0.12
0.02
-0.43
0.11

> <PUBCHEM_SHAPE_SELFOVERLAP>
413.711

> <PUBCHEM_SHAPE_VOLUME>
138.1

> <PUBCHEM_COORDINATE_TYPE>
2
5
10

$$$$

