14352
  -OEChem-06241222433D

 26 27  0     0  0  0  0  0  0999 V2000
   -2.0159   -2.7789   -0.0001 O   0  5  0  0  0  0  0  0  0  0  0  0
    0.0367   -2.0002   -0.0020 O   0  0  0  0  0  0  0  0  0  0  0  0
   -1.2039   -1.8248   -0.0010 N   0  3  0  0  0  0  0  0  0  0  0  0
    4.7631    0.0018    0.0006 N   0  0  0  0  0  0  0  0  0  0  0  0
   -0.8513    0.6093   -0.0005 C   0  0  0  0  0  0  0  0  0  0  0  0
    0.5871    0.4526    0.0000 C   0  0  0  0  0  0  0  0  0  0  0  0
   -1.7091   -0.4934   -0.0012 C   0  0  0  0  0  0  0  0  0  0  0  0
    1.2800    0.3752    1.2081 C   0  0  0  0  0  0  0  0  0  0  0  0
    1.2809    0.3805   -1.2079 C   0  0  0  0  0  0  0  0  0  0  0  0
   -1.3845    1.9006    0.0009 C   0  0  0  0  0  0  0  0  0  0  0  0
   -3.0913   -0.3060   -0.0005 C   0  0  0  0  0  0  0  0  0  0  0  0
    3.3607    0.1538    0.0004 C   0  0  0  0  0  0  0  0  0  0  0  0
    2.6669    0.2259    1.2082 C   0  0  0  0  0  0  0  0  0  0  0  0
    2.6678    0.2310   -1.2076 C   0  0  0  0  0  0  0  0  0  0  0  0
   -2.7668    2.0880    0.0016 C   0  0  0  0  0  0  0  0  0  0  0  0
   -3.6202    0.9847    0.0009 C   0  0  0  0  0  0  0  0  0  0  0  0
    0.7545    0.4298    2.1586 H   0  0  0  0  0  0  0  0  0  0  0  0
    0.7562    0.4392   -2.1587 H   0  0  0  0  0  0  0  0  0  0  0  0
   -0.7359    2.7738    0.0017 H   0  0  0  0  0  0  0  0  0  0  0  0
   -3.7913   -1.1377   -0.0008 H   0  0  0  0  0  0  0  0  0  0  0  0
    3.1955    0.1666    2.1562 H   0  0  0  0  0  0  0  0  0  0  0  0
    3.1971    0.1757   -2.1554 H   0  0  0  0  0  0  0  0  0  0  0  0
   -3.1788    3.0929    0.0027 H   0  0  0  0  0  0  0  0  0  0  0  0
   -4.6964    1.1313    0.0016 H   0  0  0  0  0  0  0  0  0  0  0  0
    5.2668   -0.0493   -0.8749 H   0  0  0  0  0  0  0  0  0  0  0  0
    5.2661   -0.0529    0.8763 H   0  0  0  0  0  0  0  0  0  0  0  0
  1  3  1  0  0  0  0
  2  3  2  0  0  0  0
  3  7  1  0  0  0  0
  4 12  1  0  0  0  0
  4 25  1  0  0  0  0
  4 26  1  0  0  0  0
  5  6  1  0  0  0  0
  5  7  1  0  0  0  0
  5 10  2  0  0  0  0
  6  8  2  0  0  0  0
  6  9  1  0  0  0  0
  7 11  2  0  0  0  0
  8 13  1  0  0  0  0
  8 17  1  0  0  0  0
  9 14  2  0  0  0  0
  9 18  1  0  0  0  0
 10 15  1  0  0  0  0
 10 19  1  0  0  0  0
 11 16  1  0  0  0  0
 11 20  1  0  0  0  0
 12 13  2  0  0  0  0
 12 14  1  0  0  0  0
 13 21  1  0  0  0  0
 14 22  1  0  0  0  0
 15 16  2  0  0  0  0
 15 23  1  0  0  0  0
 16 24  1  0  0  0  0
M  CHG  2   1  -1   3   1
M  END
> <PUBCHEM_COMPOUND_CID>
14352

> <PUBCHEM_CONFORMER_RMSD>
0.6

> <PUBCHEM_CONFORMER_DIVERSEORDER>
1

> <PUBCHEM_MMFF94_PARTIAL_CHARGES>
24
1 -0.52
10 -0.15
11 -0.15
12 0.1
13 -0.15
14 -0.15
15 -0.15
16 -0.15
17 0.15
18 0.15
19 0.15
2 -0.52
20 0.15
21 0.15
22 0.15
23 0.15
24 0.15
25 0.4
26 0.4
3 0.91
4 -0.9
7 0.13
8 -0.15
9 -0.15

> <PUBCHEM_EFFECTIVE_ROTOR_COUNT>
2

> <PUBCHEM_PHARMACOPHORE_FEATURES>
7
1 1 acceptor
1 1 anion
1 2 acceptor
1 4 cation
1 4 donor
6 5 7 10 11 15 16 rings
6 6 8 9 12 13 14 rings

> <PUBCHEM_HEAVY_ATOM_COUNT>
16

> <PUBCHEM_ATOM_DEF_STEREO_COUNT>
0

> <PUBCHEM_ATOM_UDEF_STEREO_COUNT>
0

> <PUBCHEM_BOND_DEF_STEREO_COUNT>
0

> <PUBCHEM_BOND_UDEF_STEREO_COUNT>
0

> <PUBCHEM_ISOTOPIC_ATOM_COUNT>
0

> <PUBCHEM_COMPONENT_COUNT>
1

> <PUBCHEM_CACTVS_TAUTO_COUNT>
1

> <PUBCHEM_CONFORMER_ID>
0000381000000001

> <PUBCHEM_MMFF94_ENERGY>
71.5037

> <PUBCHEM_FEATURE_SELFOVERLAP>
35.602

> <PUBCHEM_SHAPE_FINGERPRINT>
12236239 1 17704071802287595784
124424 183 17748829644068823240
12500047 106 18408891762752805060
13140716 1 18194113024176170705
13380535 76 18335702788219008799
13538477 17 18202286861782652411
13581323 91 18412829087879545480
14115302 16 18411411813344379372
14614273 12 18199752621221266405
14993402 34 18202568392662789261
15042514 8 18340761547235768147
15207287 21 17894351089804050926
15219456 202 17822016346222490296
15279307 12 18130510811599512138
15279308 132 18334015007710383163
15309172 13 18340760546344656569
15669948 3 18341611473459343350
15775835 57 18340769342020836977
15852999 172 18187642560938612038
16752209 62 18342188739040110383
16945 1 18410855447591503969
18186145 218 17969492882714536932
19049666 15 17823407357048316118
19422 9 17703784804040698546
200 152 15985104102557342081
20201158 50 17530961397576081940
20279233 1 17821726139487420572
20510252 161 18261390083132506225
20645476 183 17917993875757249051
20645477 70 16588298441119257388
20871998 184 18261389980084699119
23175994 123 17095515202237601784
2334 1 17834114148140291857
23402539 116 18335148604399424813
23419403 2 14131344987091638399
23463225 33 18129384963131738186
23526113 38 17531521079207265950
23557571 272 18190734237765931360
23559900 14 18260264179647536150
23598291 2 17846210004290424142
2748010 2 18195798803150635623
276578 36 18265607869823635129
305870 269 18196937896943810265
43471831 8 18341897454226499963
465052 167 17843379823302363867
474 4 17058639665433392276
53812653 166 18260267494492123473
69090 78 18408325505368591357
6992083 37 17988638601384734404
7364860 26 17829329438476835103
74978 22 18341333296996741756
77492 1 17704073984225823744
81228 2 18265339400261078347
8809292 202 18260829280514578368
90525 40 18201720682135215287
9709674 26 18260823808953421750

> <PUBCHEM_SHAPE_MULTIPOLES>
307.57
6.37
1.99
0.98
3.47
1.16
0
-1.26
0
-2.17
0
0.77
-0.14
0

> <PUBCHEM_SHAPE_SELFOVERLAP>
674.447

> <PUBCHEM_SHAPE_VOLUME>
166.8

> <PUBCHEM_COORDINATE_TYPE>
2
5
10

$$$$

