17396133
  -OEChem-06241222543D

 57 59  0     0  0  0  0  0  0999 V2000
   -5.7432   -0.3974   -0.0235 S   0  0  0  0  0  0  0  0  0  0  0  0
    6.4823   -0.4076    2.1520 O   0  0  0  0  0  0  0  0  0  0  0  0
   -6.5177   -0.3228    1.2106 O   0  0  0  0  0  0  0  0  0  0  0  0
   -6.4076   -0.0731   -1.2813 O   0  0  0  0  0  0  0  0  0  0  0  0
    0.6429    2.5431   -1.7606 O   0  0  0  0  0  0  0  0  0  0  0  0
    5.7692   -0.8832   -0.0761 N   0  0  0  0  0  0  0  0  0  0  0  0
   -5.0502   -1.9776   -0.1509 N   0  0  0  0  0  0  0  0  0  0  0  0
    0.3091    2.4541    0.5324 N   0  0  0  0  0  0  0  0  0  0  0  0
    7.3030   -2.5947   -0.4994 C   0  0  0  0  0  0  0  0  0  0  0  0
    6.3319   -1.6476   -1.1725 C   0  0  0  0  0  0  0  0  0  0  0  0
    7.7884   -1.8062    0.7005 C   0  0  0  0  0  0  0  0  0  0  0  0
    6.5953   -0.9512    1.0630 C   0  0  0  0  0  0  0  0  0  0  0  0
    4.5753   -0.1157   -0.2167 C   0  0  0  0  0  0  0  0  0  0  0  0
   -4.3513    0.6434    0.1420 C   0  0  0  0  0  0  0  0  0  0  0  0
   -4.5889   -2.6274    1.1023 C   0  0  0  0  0  0  0  0  0  0  0  0
   -4.1224   -2.2315   -1.2823 C   0  0  0  0  0  0  0  0  0  0  0  0
    4.1232    0.6711    0.8426 C   0  0  0  0  0  0  0  0  0  0  0  0
    3.8606   -0.1509   -1.4140 C   0  0  0  0  0  0  0  0  0  0  0  0
    2.2414    1.3874   -0.4927 C   0  0  0  0  0  0  0  0  0  0  0  0
   -2.1259    2.3045    0.4074 C   0  0  0  0  0  0  0  0  0  0  0  0
    2.9563    1.4227    0.7045 C   0  0  0  0  0  0  0  0  0  0  0  0
    2.6937    0.6006   -1.5520 C   0  0  0  0  0  0  0  0  0  0  0  0
   -3.8487    0.9388    1.4092 C   0  0  0  0  0  0  0  0  0  0  0  0
   -3.7413    1.1785   -0.9925 C   0  0  0  0  0  0  0  0  0  0  0  0
   -0.9290    3.1995    0.5506 C   0  0  0  0  0  0  0  0  0  0  0  0
   -2.7360    1.7694    1.5419 C   0  0  0  0  0  0  0  0  0  0  0  0
   -2.6286    2.0092   -0.8598 C   0  0  0  0  0  0  0  0  0  0  0  0
   -5.7286   -3.4102    1.7222 C   0  0  0  0  0  0  0  0  0  0  0  0
   -4.1776   -3.6953   -1.6704 C   0  0  0  0  0  0  0  0  0  0  0  0
    1.0244    2.1702   -0.6369 C   0  0  0  0  0  0  0  0  0  0  0  0
    5.5741   -2.2233   -1.7108 H   0  0  0  0  0  0  0  0  0  0  0  0
    6.8456   -0.9594   -1.8526 H   0  0  0  0  0  0  0  0  0  0  0  0
    6.7726   -3.4926   -0.1579 H   0  0  0  0  0  0  0  0  0  0  0  0
    8.1140   -2.9131   -1.1602 H   0  0  0  0  0  0  0  0  0  0  0  0
    8.0697   -2.4590    1.5304 H   0  0  0  0  0  0  0  0  0  0  0  0
    8.6245   -1.1497    0.4397 H   0  0  0  0  0  0  0  0  0  0  0  0
   -3.7331   -3.2888    0.9408 H   0  0  0  0  0  0  0  0  0  0  0  0
   -4.2356   -1.8735    1.8121 H   0  0  0  0  0  0  0  0  0  0  0  0
   -4.4264   -1.6392   -2.1515 H   0  0  0  0  0  0  0  0  0  0  0  0
   -3.1007   -1.9423   -1.0139 H   0  0  0  0  0  0  0  0  0  0  0  0
    4.6316    0.7516    1.7935 H   0  0  0  0  0  0  0  0  0  0  0  0
    4.1767   -0.7376   -2.2700 H   0  0  0  0  0  0  0  0  0  0  0  0
    2.6564    2.0459    1.5421 H   0  0  0  0  0  0  0  0  0  0  0  0
    2.1498    0.5581   -2.4922 H   0  0  0  0  0  0  0  0  0  0  0  0
   -4.3067    0.5344    2.3073 H   0  0  0  0  0  0  0  0  0  0  0  0
   -4.1134    0.9603   -1.9894 H   0  0  0  0  0  0  0  0  0  0  0  0
   -0.9695    3.7473    1.4990 H   0  0  0  0  0  0  0  0  0  0  0  0
   -0.9152    3.9492   -0.2493 H   0  0  0  0  0  0  0  0  0  0  0  0
   -2.3527    1.9909    2.5344 H   0  0  0  0  0  0  0  0  0  0  0  0
   -2.1657    2.4211   -1.7522 H   0  0  0  0  0  0  0  0  0  0  0  0
   -5.3937   -3.9022    2.6409 H   0  0  0  0  0  0  0  0  0  0  0  0
   -6.0878   -4.1837    1.0351 H   0  0  0  0  0  0  0  0  0  0  0  0
   -6.5793   -2.7721    1.9758 H   0  0  0  0  0  0  0  0  0  0  0  0
   -3.5913   -3.8614   -2.5802 H   0  0  0  0  0  0  0  0  0  0  0  0
   -5.2074   -4.0096   -1.8718 H   0  0  0  0  0  0  0  0  0  0  0  0
   -3.7716   -4.3572   -0.9006 H   0  0  0  0  0  0  0  0  0  0  0  0
    0.6118    2.0669    1.4198 H   0  0  0  0  0  0  0  0  0  0  0  0
  1  3  2  0  0  0  0
  1  4  2  0  0  0  0
  1  7  1  0  0  0  0
  1 14  1  0  0  0  0
  2 12  2  0  0  0  0
  5 30  2  0  0  0  0
  6 10  1  0  0  0  0
  6 12  1  0  0  0  0
  6 13  1  0  0  0  0
  7 15  1  0  0  0  0
  7 16  1  0  0  0  0
  8 25  1  0  0  0  0
  8 30  1  0  0  0  0
  8 57  1  0  0  0  0
  9 10  1  0  0  0  0
  9 11  1  0  0  0  0
  9 33  1  0  0  0  0
  9 34  1  0  0  0  0
 10 31  1  0  0  0  0
 10 32  1  0  0  0  0
 11 12  1  0  0  0  0
 11 35  1  0  0  0  0
 11 36  1  0  0  0  0
 13 17  2  0  0  0  0
 13 18  1  0  0  0  0
 14 23  2  0  0  0  0
 14 24  1  0  0  0  0
 15 28  1  0  0  0  0
 15 37  1  0  0  0  0
 15 38  1  0  0  0  0
 16 29  1  0  0  0  0
 16 39  1  0  0  0  0
 16 40  1  0  0  0  0
 17 21  1  0  0  0  0
 17 41  1  0  0  0  0
 18 22  2  0  0  0  0
 18 42  1  0  0  0  0
 19 21  2  0  0  0  0
 19 22  1  0  0  0  0
 19 30  1  0  0  0  0
 20 25  1  0  0  0  0
 20 26  2  0  0  0  0
 20 27  1  0  0  0  0
 21 43  1  0  0  0  0
 22 44  1  0  0  0  0
 23 26  1  0  0  0  0
 23 45  1  0  0  0  0
 24 27  2  0  0  0  0
 24 46  1  0  0  0  0
 25 47  1  0  0  0  0
 25 48  1  0  0  0  0
 26 49  1  0  0  0  0
 27 50  1  0  0  0  0
 28 51  1  0  0  0  0
 28 52  1  0  0  0  0
 28 53  1  0  0  0  0
 29 54  1  0  0  0  0
 29 55  1  0  0  0  0
 29 56  1  0  0  0  0
M  END
> <PUBCHEM_COMPOUND_CID>
17396133

> <PUBCHEM_CONFORMER_RMSD>
1

> <PUBCHEM_CONFORMER_DIVERSEORDER>
1
10
37
13
6
5
14
41
4
35
32
28
12
18
24
36
23
33
21
39
40
2
27
25
20
31
17
26
11
30
16
29
34
19
7
15
9
38
3
22
8

> <PUBCHEM_MMFF94_PARTIAL_CHARGES>
36
1 1.45
10 0.3
11 0.06
12 0.57
13 0.12
14 -0.01
15 0.36
16 0.36
17 -0.15
18 -0.15
19 0.09
2 -0.57
20 -0.14
21 -0.15
22 -0.15
23 -0.15
24 -0.15
25 0.44
26 -0.15
27 -0.15
3 -0.65
30 0.54
4 -0.65
41 0.15
42 0.15
43 0.15
44 0.15
45 0.15
46 0.15
49 0.15
5 -0.57
50 0.15
57 0.37
6 -0.48
7 -0.85
8 -0.73

> <PUBCHEM_EFFECTIVE_ROTOR_COUNT>
9.8

> <PUBCHEM_PHARMACOPHORE_FEATURES>
8
1 2 acceptor
1 3 acceptor
1 4 acceptor
1 5 acceptor
1 8 donor
5 6 9 10 11 12 rings
6 13 17 18 19 21 22 rings
6 14 20 23 24 26 27 rings

> <PUBCHEM_HEAVY_ATOM_COUNT>
30

> <PUBCHEM_ATOM_DEF_STEREO_COUNT>
0

> <PUBCHEM_ATOM_UDEF_STEREO_COUNT>
0

> <PUBCHEM_BOND_DEF_STEREO_COUNT>
0

> <PUBCHEM_BOND_UDEF_STEREO_COUNT>
0

> <PUBCHEM_ISOTOPIC_ATOM_COUNT>
0

> <PUBCHEM_COMPONENT_COUNT>
1

> <PUBCHEM_CACTVS_TAUTO_COUNT>
4

> <PUBCHEM_CONFORMER_ID>
010971A500000001

> <PUBCHEM_MMFF94_ENERGY>
66.043

> <PUBCHEM_FEATURE_SELFOVERLAP>
40.613

> <PUBCHEM_SHAPE_FINGERPRINT>
10 15 15719398351777429440
10074138 170 17460006665853137841
10169797 241 18115856413819698916
10369192 42 12031785899157693489
10391435 84 18338811043551181592
10571361 74 18128544941002930618
11135609 201 8070022255574410629
11135609 99 18410294714331668814
11273773 46 18342739603536036867
11478447 58 17036154510622107886
117089 54 17984691234904901467
12166972 35 17774999064160060260
12174731 88 18335700503771557271
12838863 1 17968389965979698903
12895837 130 9222930583126355528
12988421 55 4750872602777764509
1361 4 18128529362686327963
13627167 48 11887683895982460311
13690498 29 17703791457114514821
13782708 43 18261393382125851192
14211702 104 18410009927666290266
14347329 18 10375875160371292100
14420673 8 18413102845696648795
14950920 106 17530962483918368129
15183329 4 14836120000987955608
15188451 53 18333735736094690877
15230672 131 18060424634122014323
15510800 12 18408878555486075783
15575132 122 10303825259178745403
15684393 108 17701805610302486607
15728490 51 18410014313318555232
17627616 140 17916310613470720115
19303781 99 18272094833566487295
20028762 73 18409448111727121054
20156587 161 17629797593252139562
208703 8 18271807869948620435
21307412 95 18272378543033312087
21424621 283 8070022273139297572
21458453 9 16588887671513559658
21585480 29 17678477272269854254
22864921 47 18058747917576322314
229767 44 18040719142840811166
229767 8 17841981205562254459
23389318 12 18059847382206844972
23569914 152 12676971681668628048
25122255 55 18335135397232246204
2748736 6 8718553774400824674
2838139 119 9799402300919226212
312425 54 17677885910849203464
32027 91 18337675205264459569
392239 28 16443350849225830265
397830 11 18187940486626932312
44062 13 18270964549452454029
45377200 153 18187637034477018286
4756326 101 15359085171020715953
50742298 180 18339635629907184330
559249 180 18410853292088088345
5718773 13 18410856559650365081
636775 72 9150584896290345734
7808743 9 9439400211926264973
7970288 3 18412541037397432544

> <PUBCHEM_SHAPE_MULTIPOLES>
582.82
21.86
4.09
1.75
22.21
1.79
-0.09
20.99
-4.18
-4.34
0.15
-0.37
0.48
0.02

> <PUBCHEM_SHAPE_SELFOVERLAP>
1214.749

> <PUBCHEM_SHAPE_VOLUME>
332.1

> <PUBCHEM_COORDINATE_TYPE>
2
5
10

$$$$

