5320218
  -OEChem-07051213103D

 29 31  0     0  0  0  0  0  0999 V2000
    2.4007    1.6469   -0.0003 O   0  0  0  0  0  0  0  0  0  0  0  0
   -0.0218   -2.5119    0.0013 O   0  0  0  0  0  0  0  0  0  0  0  0
   -2.5859   -2.4505   -0.0008 O   0  0  0  0  0  0  0  0  0  0  0  0
   -4.7951    1.7300    0.0001 O   0  0  0  0  0  0  0  0  0  0  0  0
    2.5564   -2.4230   -0.0003 O   0  0  0  0  0  0  0  0  0  0  0  0
   -1.2273   -0.4294    0.0000 C   0  0  0  0  0  0  0  0  0  0  0  0
   -1.1981    0.9864    0.0000 C   0  0  0  0  0  0  0  0  0  0  0  0
    1.2020   -0.4643   -0.0002 C   0  0  0  0  0  0  0  0  0  0  0  0
    1.2324    0.9267   -0.0003 C   0  0  0  0  0  0  0  0  0  0  0  0
   -0.0182   -1.1451   -0.0001 C   0  0  0  0  0  0  0  0  0  0  0  0
    0.0395    1.6507   -0.0003 C   0  0  0  0  0  0  0  0  0  0  0  0
   -2.4668   -1.0897   -0.0001 C   0  0  0  0  0  0  0  0  0  0  0  0
   -2.4087    1.6981    0.0002 C   0  0  0  0  0  0  0  0  0  0  0  0
    2.4752   -1.2024    0.0001 C   0  0  0  0  0  0  0  0  0  0  0  0
    3.6012    0.9550   -0.0001 C   0  0  0  0  0  0  0  0  0  0  0  0
   -3.6307    1.0251    0.0003 C   0  0  0  0  0  0  0  0  0  0  0  0
   -3.6598   -0.3661    0.0000 C   0  0  0  0  0  0  0  0  0  0  0  0
    3.7018   -0.3822    0.0001 C   0  0  0  0  0  0  0  0  0  0  0  0
    4.8032    1.8457    0.0004 C   0  0  0  0  0  0  0  0  0  0  0  0
    0.0764    2.7387   -0.0002 H   0  0  0  0  0  0  0  0  0  0  0  0
   -2.3962    2.7868    0.0002 H   0  0  0  0  0  0  0  0  0  0  0  0
   -4.6196   -0.8774   -0.0002 H   0  0  0  0  0  0  0  0  0  0  0  0
    4.6574   -0.8935    0.0005 H   0  0  0  0  0  0  0  0  0  0  0  0
    4.7989    2.4861   -0.8876 H   0  0  0  0  0  0  0  0  0  0  0  0
    5.7393    1.2778    0.0008 H   0  0  0  0  0  0  0  0  0  0  0  0
    4.7982    2.4862    0.8882 H   0  0  0  0  0  0  0  0  0  0  0  0
   -0.8907   -2.8594    0.2512 H   0  0  0  0  0  0  0  0  0  0  0  0
   -3.5259   -2.6994   -0.0007 H   0  0  0  0  0  0  0  0  0  0  0  0
   -4.5892    2.6806    0.0003 H   0  0  0  0  0  0  0  0  0  0  0  0
  1  9  1  0  0  0  0
  1 15  1  0  0  0  0
  2 10  1  0  0  0  0
  2 27  1  0  0  0  0
  3 12  1  0  0  0  0
  3 28  1  0  0  0  0
  4 16  1  0  0  0  0
  4 29  1  0  0  0  0
  5 14  2  0  0  0  0
  6  7  1  0  0  0  0
  6 10  1  0  0  0  0
  6 12  2  0  0  0  0
  7 11  1  0  0  0  0
  7 13  2  0  0  0  0
  8  9  1  0  0  0  0
  8 10  2  0  0  0  0
  8 14  1  0  0  0  0
  9 11  2  0  0  0  0
 11 20  1  0  0  0  0
 12 17  1  0  0  0  0
 13 16  1  0  0  0  0
 13 21  1  0  0  0  0
 14 18  1  0  0  0  0
 15 18  2  0  0  0  0
 15 19  1  0  0  0  0
 16 17  2  0  0  0  0
 17 22  1  0  0  0  0
 18 23  1  0  0  0  0
 19 24  1  0  0  0  0
 19 25  1  0  0  0  0
 19 26  1  0  0  0  0
M  END
> <PUBCHEM_COMPOUND_CID>
5320218

> <PUBCHEM_CONFORMER_RMSD>
0.4

> <PUBCHEM_CONFORMER_DIVERSEORDER>
1

> <PUBCHEM_MMFF94_PARTIAL_CHARGES>
24
1 -0.16
10 0.08
11 -0.15
12 0.08
13 -0.15
14 0.47
15 -0.06
16 0.08
17 -0.15
18 -0.14
19 0.14
2 -0.53
20 0.15
21 0.15
22 0.15
23 0.15
27 0.45
28 0.45
29 0.45
3 -0.53
4 -0.53
5 -0.57
8 0.09
9 0.08

> <PUBCHEM_EFFECTIVE_ROTOR_COUNT>
0

> <PUBCHEM_PHARMACOPHORE_FEATURES>
8
1 1 acceptor
1 2 donor
1 3 donor
1 4 donor
1 5 acceptor
6 1 8 9 14 15 18 rings
6 6 7 12 13 16 17 rings
6 6 7 8 9 10 11 rings

> <PUBCHEM_HEAVY_ATOM_COUNT>
19

> <PUBCHEM_ATOM_DEF_STEREO_COUNT>
0

> <PUBCHEM_ATOM_UDEF_STEREO_COUNT>
0

> <PUBCHEM_BOND_DEF_STEREO_COUNT>
0

> <PUBCHEM_BOND_UDEF_STEREO_COUNT>
0

> <PUBCHEM_ISOTOPIC_ATOM_COUNT>
0

> <PUBCHEM_COMPONENT_COUNT>
1

> <PUBCHEM_CACTVS_TAUTO_COUNT>
147

> <PUBCHEM_CONFORMER_ID>
00512E1A00000001

> <PUBCHEM_MMFF94_ENERGY>
58.8297

> <PUBCHEM_FEATURE_SELFOVERLAP>
40.663

> <PUBCHEM_SHAPE_FINGERPRINT>
10062212 137 18339371789769804418
10411042 1 17113818493264787170
10608611 8 18410857667778541548
10616163 171 18338232652736851742
10863032 1 18408885139586167498
10967382 1 18338799021441711238
1100329 8 16609417035135551041
11132069 177 18411422808175762008
11471102 20 18338239374339363117
12390115 104 18262499421481970432
12403814 3 17703798002565188565
13140716 1 18340486767490443523
138480 1 17690280834062382563
14790565 3 18120366807970229081
15196674 1 18410575084668366662
15219456 202 18411134748977068299
15442244 35 18193838369328022450
15536298 74 18335138717584785828
16945 1 18194964037069215143
17492 89 18411138039023348251
18186145 218 18339642342707803148
200 152 17967536757113101093
20510252 161 18261387810862457728
20645477 70 18262801885958211807
21267235 1 18410565201959544834
21421861 104 17844538897098302706
21501502 16 18410579482725628646
221490 88 18411691106594040426
2334 1 18410575063193549667
23366157 5 18059573633433486394
23402539 116 18335146345346788804
23402655 69 18334014999152395916
23463225 33 18412263973188604532
23559900 14 18334577984219825446
2748010 2 18411415124447523511
3312278 4 18335980883003625473
335352 9 18194683889195363775
34934 24 18410579482714910245
350125 39 18195525028713176564
3545911 37 18410853265421297380
474 4 17703222915308527644
495365 180 17459208368148466824
5104073 3 18411699893658804818
53812653 166 18334861597568081744
633830 44 18188770668564198373
69090 78 18410296943076907653
7364860 26 18335701706361997222
9709674 26 18409443678724701230

> <PUBCHEM_SHAPE_MULTIPOLES>
361.66
8
2.55
0.59
0.89
0.92
0
-3.39
0
0.04
0
0.01
-0.02
0

> <PUBCHEM_SHAPE_SELFOVERLAP>
817.777

> <PUBCHEM_SHAPE_VOLUME>
189.4

> <PUBCHEM_COORDINATE_TYPE>
2
5
10

$$$$

