182116
  -OEChem-07051213093D

 59 63  0     1  0  0  0  0  0999 V2000
   -0.9000    2.5503   -0.7380 O   0  0  0  0  0  0  0  0  0  0  0  0
   -0.1152   -2.8719   -0.0399 O   0  0  0  0  0  0  0  0  0  0  0  0
   -3.6587    1.3417    0.9161 O   0  0  0  0  0  0  0  0  0  0  0  0
   -2.4291   -3.3173   -0.0112 O   0  0  0  0  0  0  0  0  0  0  0  0
    1.7360   -1.6021   -1.3672 O   0  0  0  0  0  0  0  0  0  0  0  0
   -2.2747    3.0316   -2.4501 O   0  0  0  0  0  0  0  0  0  0  0  0
    4.4461   -1.2562   -1.2535 O   0  0  0  0  0  0  0  0  0  0  0  0
   -1.3031    0.6850    0.8671 C   0  0  2  0  0  0  0  0  0  0  0  0
   -0.2803   -0.3401    0.2087 C   0  0  1  0  0  0  0  0  0  0  0  0
    1.2482   -0.1043    0.5247 C   0  0  1  0  0  0  0  0  0  0  0  0
   -2.7256    0.5127    0.2003 C   0  0  1  0  0  0  0  0  0  0  0  0
   -0.8302    2.1310    0.6420 C   0  0  1  0  0  0  0  0  0  0  0  0
   -0.8374   -1.7551    0.4680 C   0  0  1  0  0  0  0  0  0  0  0  0
    1.5957    1.4175    0.3552 C   0  0  1  0  0  0  0  0  0  0  0  0
   -3.2344   -0.9730    0.2914 C   0  0  2  0  0  0  0  0  0  0  0  0
   -2.1685   -1.9321   -0.2339 C   0  0  2  0  0  0  0  0  0  0  0  0
    0.6202    2.3483    1.0935 C   0  0  0  0  0  0  0  0  0  0  0  0
   -1.4559    0.4966    2.4087 C   0  0  0  0  0  0  0  0  0  0  0  0
   -2.7163    1.0155   -1.2517 C   0  0  0  0  0  0  0  0  0  0  0  0
    3.0840    1.7083    0.7027 C   0  0  1  0  0  0  0  0  0  0  0  0
    1.6693   -0.6765    1.8960 C   0  0  0  0  0  0  0  0  0  0  0  0
    2.1463   -0.7797   -0.5511 C   0  0  0  0  0  0  0  0  0  0  0  0
   -4.5704   -1.2286   -0.4221 C   0  0  0  0  0  0  0  0  0  0  0  0
   -1.9838    2.3064   -1.5016 C   0  0  0  0  0  0  0  0  0  0  0  0
   -1.1177   -3.9041   -0.1097 C   0  0  0  0  0  0  0  0  0  0  0  0
    3.9998    0.7184    0.0195 C   0  0  0  0  0  0  0  0  0  0  0  0
    3.5924   -0.4053   -0.5881 C   0  0  0  0  0  0  0  0  0  0  0  0
    3.5066    3.1281    0.3030 C   0  0  0  0  0  0  0  0  0  0  0  0
    4.9568   -2.2448   -0.3787 C   0  0  0  0  0  0  0  0  0  0  0  0
   -0.3375   -0.1876   -0.8789 H   0  0  0  0  0  0  0  0  0  0  0  0
   -1.4517    2.8396    1.2040 H   0  0  0  0  0  0  0  0  0  0  0  0
   -0.9360   -1.9429    1.5431 H   0  0  0  0  0  0  0  0  0  0  0  0
    1.4824    1.6510   -0.7167 H   0  0  0  0  0  0  0  0  0  0  0  0
   -3.4380   -1.2104    1.3437 H   0  0  0  0  0  0  0  0  0  0  0  0
   -2.0544   -1.8169   -1.3206 H   0  0  0  0  0  0  0  0  0  0  0  0
    0.7223    2.2301    2.1767 H   0  0  0  0  0  0  0  0  0  0  0  0
    0.8764    3.3902    0.8702 H   0  0  0  0  0  0  0  0  0  0  0  0
   -1.8854   -0.4679    2.6867 H   0  0  0  0  0  0  0  0  0  0  0  0
   -0.5153    0.5912    2.9464 H   0  0  0  0  0  0  0  0  0  0  0  0
   -2.1162    1.2611    2.8356 H   0  0  0  0  0  0  0  0  0  0  0  0
   -3.7506    1.1904   -1.5755 H   0  0  0  0  0  0  0  0  0  0  0  0
   -2.2737    0.2844   -1.9349 H   0  0  0  0  0  0  0  0  0  0  0  0
    3.2368    1.6133    1.7853 H   0  0  0  0  0  0  0  0  0  0  0  0
    1.2421   -1.6667    2.0762 H   0  0  0  0  0  0  0  0  0  0  0  0
    2.7521   -0.8169    1.9818 H   0  0  0  0  0  0  0  0  0  0  0  0
    1.3867   -0.0263    2.7243 H   0  0  0  0  0  0  0  0  0  0  0  0
   -5.3372   -0.5267   -0.0794 H   0  0  0  0  0  0  0  0  0  0  0  0
   -4.4765   -1.1306   -1.5083 H   0  0  0  0  0  0  0  0  0  0  0  0
   -4.9325   -2.2409   -0.2124 H   0  0  0  0  0  0  0  0  0  0  0  0
   -3.4733    2.2732    0.7128 H   0  0  0  0  0  0  0  0  0  0  0  0
   -1.0219   -4.4317   -1.0633 H   0  0  0  0  0  0  0  0  0  0  0  0
   -0.9776   -4.6080    0.7160 H   0  0  0  0  0  0  0  0  0  0  0  0
    5.0632    0.9486    0.0164 H   0  0  0  0  0  0  0  0  0  0  0  0
    3.2908    3.3285   -0.7524 H   0  0  0  0  0  0  0  0  0  0  0  0
    2.9935    3.8824    0.9067 H   0  0  0  0  0  0  0  0  0  0  0  0
    4.5810    3.2800    0.4592 H   0  0  0  0  0  0  0  0  0  0  0  0
    5.6139   -2.9034   -0.9546 H   0  0  0  0  0  0  0  0  0  0  0  0
    4.1518   -2.8562    0.0441 H   0  0  0  0  0  0  0  0  0  0  0  0
    5.5496   -1.7954    0.4257 H   0  0  0  0  0  0  0  0  0  0  0  0
  1 12  1  0  0  0  0
  1 24  1  0  0  0  0
  2 13  1  0  0  0  0
  2 25  1  0  0  0  0
  3 11  1  0  0  0  0
  3 50  1  0  0  0  0
  4 16  1  0  0  0  0
  4 25  1  0  0  0  0
  5 22  2  0  0  0  0
  6 24  2  0  0  0  0
  7 27  1  0  0  0  0
  7 29  1  0  0  0  0
  8  9  1  0  0  0  0
  8 11  1  0  0  0  0
  8 12  1  0  0  0  0
  8 18  1  0  0  0  0
  9 10  1  0  0  0  0
  9 13  1  0  0  0  0
  9 30  1  0  0  0  0
 10 14  1  0  0  0  0
 10 21  1  0  0  0  0
 10 22  1  0  0  0  0
 11 15  1  0  0  0  0
 11 19  1  0  0  0  0
 12 17  1  0  0  0  0
 12 31  1  0  0  0  0
 13 16  1  0  0  0  0
 13 32  1  0  0  0  0
 14 17  1  0  0  0  0
 14 20  1  0  0  0  0
 14 33  1  0  0  0  0
 15 16  1  0  0  0  0
 15 23  1  0  0  0  0
 15 34  1  0  0  0  0
 16 35  1  0  0  0  0
 17 36  1  0  0  0  0
 17 37  1  0  0  0  0
 18 38  1  0  0  0  0
 18 39  1  0  0  0  0
 18 40  1  0  0  0  0
 19 24  1  0  0  0  0
 19 41  1  0  0  0  0
 19 42  1  0  0  0  0
 20 26  1  0  0  0  0
 20 28  1  0  0  0  0
 20 43  1  0  0  0  0
 21 44  1  0  0  0  0
 21 45  1  0  0  0  0
 21 46  1  0  0  0  0
 22 27  1  0  0  0  0
 23 47  1  0  0  0  0
 23 48  1  0  0  0  0
 23 49  1  0  0  0  0
 25 51  1  0  0  0  0
 25 52  1  0  0  0  0
 26 27  2  0  0  0  0
 26 53  1  0  0  0  0
 28 54  1  0  0  0  0
 28 55  1  0  0  0  0
 28 56  1  0  0  0  0
 29 57  1  0  0  0  0
 29 58  1  0  0  0  0
 29 59  1  0  0  0  0
M  END
> <PUBCHEM_COMPOUND_CID>
182116

> <PUBCHEM_CONFORMER_RMSD>
0.8

> <PUBCHEM_CONFORMER_DIVERSEORDER>
1

> <PUBCHEM_MMFF94_PARTIAL_CHARGES>
22
1 -0.43
10 0.06
11 0.28
12 0.28
13 0.28
16 0.28
19 0.06
2 -0.56
20 0.14
22 0.49
24 0.66
25 0.56
26 -0.29
27 0.09
29 0.28
3 -0.68
4 -0.56
5 -0.57
50 0.4
53 0.15
6 -0.57
7 -0.36

> <PUBCHEM_EFFECTIVE_ROTOR_COUNT>
2.6

> <PUBCHEM_PHARMACOPHORE_FEATURES>
12
1 2 acceptor
1 3 acceptor
1 3 donor
1 4 acceptor
1 5 acceptor
1 6 acceptor
1 7 acceptor
5 2 4 13 16 25 rings
6 1 8 11 12 19 24 rings
6 10 14 20 22 26 27 rings
6 8 9 10 12 14 17 rings
6 8 9 11 13 15 16 rings

> <PUBCHEM_HEAVY_ATOM_COUNT>
29

> <PUBCHEM_ATOM_DEF_STEREO_COUNT>
10

> <PUBCHEM_ATOM_UDEF_STEREO_COUNT>
0

> <PUBCHEM_BOND_DEF_STEREO_COUNT>
0

> <PUBCHEM_BOND_UDEF_STEREO_COUNT>
0

> <PUBCHEM_ISOTOPIC_ATOM_COUNT>
0

> <PUBCHEM_COMPONENT_COUNT>
1

> <PUBCHEM_CACTVS_TAUTO_COUNT>
3

> <PUBCHEM_CONFORMER_ID>
0002C76400000001

> <PUBCHEM_MMFF94_ENERGY>
127.3499

> <PUBCHEM_FEATURE_SELFOVERLAP>
61.214

> <PUBCHEM_SHAPE_FINGERPRINT>
10165383 225 18125149696240414109
10693767 8 17896341142186225359
10863032 1 18189330178259455688
10967382 1 18263078834034130530
1100329 8 18261099833257508936
11578080 2 17343259326755407132
12156800 1 14431456728921774398
12403259 226 18410856559872047678
12403814 3 18200601289452265225
12422481 6 18265871611339544523
12633257 1 18115852144242437570
12788726 201 17024002940044123985
13140716 1 18335969913641515906
13224815 77 18334854966302145904
13402501 40 18335419058278966231
13583140 156 17632302254695160120
14223421 5 18118685405318570368
14251751 93 18128816524468854790
14790565 3 18336537288134185409
14863182 85 16679222185436699483
14955137 171 18198324188476583571
16752209 62 18271538596678325474
16945 1 18122637316439311961
17349148 13 17895479245186135882
17357779 13 17974586697058915039
17492 54 16978713819662143924
1813 80 17842552947170531851
19591789 44 18410008853550075835
20691752 17 18130505254048721297
20775438 99 17685261284482259191
20905425 154 17184182847600200807
21285901 2 18267877098741039519
21330990 113 18268981137623385377
22182313 1 18339377291559814872
22907989 373 18130783498988895429
23419403 2 17605013466846407417
23559900 14 18260829311323180450
23566358 2 18409455756568116564
238 59 17907048357862031253
2748010 2 18337115557554865283
335352 9 18262791994600926236
3380486 145 18194106422368526760
350125 39 18339358694620240715
6287921 2 17907009582581271269
81228 2 18126281930944177235
9709674 26 18261387798262340054

> <PUBCHEM_SHAPE_MULTIPOLES>
555.72
7.37
4.02
1.54
4.38
1.14
-0.04
1.59
1.58
-0.45
0.94
-0.5
-0.84
1.34

> <PUBCHEM_SHAPE_SELFOVERLAP>
1209.513

> <PUBCHEM_SHAPE_VOLUME>
296.3

> <PUBCHEM_COORDINATE_TYPE>
2
5
10

$$$$

