36584
  -OEChem-07051213123D

 35 35  0     0  0  0  0  0  0999 V2000
   -3.4934    1.0530    0.0011 O   0  0  0  0  0  0  0  0  0  0  0  0
    1.1109    1.7579    0.0006 N   0  0  0  0  0  0  0  0  0  0  0  0
    0.2801   -0.4351   -0.0030 N   0  0  0  0  0  0  0  0  0  0  0  0
   -1.2129    1.4433    0.0006 N   0  0  0  0  0  0  0  0  0  0  0  0
   -0.6095   -2.6049   -0.0060 N   0  0  0  0  0  0  0  0  0  0  0  0
   -2.0933   -0.7889   -0.0029 N   0  0  0  0  0  0  0  0  0  0  0  0
    2.4912    1.3069    0.0009 C   0  0  0  0  0  0  0  0  0  0  0  0
    3.4106    2.5315    0.0042 C   0  0  0  0  0  0  0  0  0  0  0  0
    2.7261    0.4633    1.2561 C   0  0  0  0  0  0  0  0  0  0  0  0
    2.7368    0.4685   -1.2567 C   0  0  0  0  0  0  0  0  0  0  0  0
    0.0297    0.8984   -0.0005 C   0  0  0  0  0  0  0  0  0  0  0  0
   -0.8176   -1.2084   -0.0040 C   0  0  0  0  0  0  0  0  0  0  0  0
    0.6926   -3.1946   -0.0069 C   0  0  0  0  0  0  0  0  0  0  0  0
   -2.2141    0.5485   -0.0005 C   0  0  0  0  0  0  0  0  0  0  0  0
    0.5809   -4.7070    0.0133 C   0  0  0  0  0  0  0  0  0  0  0  0
   -3.6183    2.4677    0.0037 C   0  0  0  0  0  0  0  0  0  0  0  0
    3.2340    3.1562    0.8876 H   0  0  0  0  0  0  0  0  0  0  0  0
    4.4665    2.2392    0.0058 H   0  0  0  0  0  0  0  0  0  0  0  0
    3.2371    3.1590   -0.8779 H   0  0  0  0  0  0  0  0  0  0  0  0
    2.2720   -0.5296    1.2291 H   0  0  0  0  0  0  0  0  0  0  0  0
    2.3586    0.9739    2.1543 H   0  0  0  0  0  0  0  0  0  0  0  0
    3.8002    0.2914    1.3995 H   0  0  0  0  0  0  0  0  0  0  0  0
    2.2746   -0.5210   -1.2407 H   0  0  0  0  0  0  0  0  0  0  0  0
    2.3820    0.9868   -2.1556 H   0  0  0  0  0  0  0  0  0  0  0  0
    3.8113    0.2906   -1.3886 H   0  0  0  0  0  0  0  0  0  0  0  0
    0.9092    2.7512    0.0026 H   0  0  0  0  0  0  0  0  0  0  0  0
   -1.4402   -3.1856   -0.0085 H   0  0  0  0  0  0  0  0  0  0  0  0
    1.2495   -2.8910   -0.9006 H   0  0  0  0  0  0  0  0  0  0  0  0
    1.2608   -2.8705    0.8724 H   0  0  0  0  0  0  0  0  0  0  0  0
    0.0471   -5.0506    0.9059 H   0  0  0  0  0  0  0  0  0  0  0  0
    0.0367   -5.0734   -0.8638 H   0  0  0  0  0  0  0  0  0  0  0  0
    1.5756   -5.1636    0.0133 H   0  0  0  0  0  0  0  0  0  0  0  0
   -3.1747    2.9042   -0.8976 H   0  0  0  0  0  0  0  0  0  0  0  0
   -3.1738    2.9010    0.9061 H   0  0  0  0  0  0  0  0  0  0  0  0
   -4.6848    2.7119    0.0047 H   0  0  0  0  0  0  0  0  0  0  0  0
  1 14  1  0  0  0  0
  1 16  1  0  0  0  0
  2  7  1  0  0  0  0
  2 11  1  0  0  0  0
  2 26  1  0  0  0  0
  3 11  1  0  0  0  0
  3 12  2  0  0  0  0
  4 11  2  0  0  0  0
  4 14  1  0  0  0  0
  5 12  1  0  0  0  0
  5 13  1  0  0  0  0
  5 27  1  0  0  0  0
  6 12  1  0  0  0  0
  6 14  2  0  0  0  0
  7  8  1  0  0  0  0
  7  9  1  0  0  0  0
  7 10  1  0  0  0  0
  8 17  1  0  0  0  0
  8 18  1  0  0  0  0
  8 19  1  0  0  0  0
  9 20  1  0  0  0  0
  9 21  1  0  0  0  0
  9 22  1  0  0  0  0
 10 23  1  0  0  0  0
 10 24  1  0  0  0  0
 10 25  1  0  0  0  0
 13 15  1  0  0  0  0
 13 28  1  0  0  0  0
 13 29  1  0  0  0  0
 15 30  1  0  0  0  0
 15 31  1  0  0  0  0
 15 32  1  0  0  0  0
 16 33  1  0  0  0  0
 16 34  1  0  0  0  0
 16 35  1  0  0  0  0
M  END
> <PUBCHEM_COMPOUND_CID>
36584

> <PUBCHEM_CONFORMER_RMSD>
0.6

> <PUBCHEM_CONFORMER_DIVERSEORDER>
1
35
37
54
4
14
21
42
52
53
19
26
18
13
32
8
23
47
33
55
48
5
29
51
20
49
11
41
3
15
38
12
24
17
36
28
50
16
46
7
39
31
27
30
6
34
25
43
22
45
44
9
40
2
10

> <PUBCHEM_MMFF94_PARTIAL_CHARGES>
14
1 -0.36
11 0.72
12 0.72
13 0.37
14 0.7
16 0.28
2 -0.87
26 0.4
27 0.4
3 -0.62
4 -0.62
5 -0.87
6 -0.62
7 0.37

> <PUBCHEM_EFFECTIVE_ROTOR_COUNT>
5

> <PUBCHEM_PHARMACOPHORE_FEATURES>
6
1 2 donor
1 5 donor
4 2 3 4 11 cation
4 3 5 6 12 cation
4 7 8 9 10 hydrophobe
6 3 4 6 11 12 14 rings

> <PUBCHEM_HEAVY_ATOM_COUNT>
16

> <PUBCHEM_ATOM_DEF_STEREO_COUNT>
0

> <PUBCHEM_ATOM_UDEF_STEREO_COUNT>
0

> <PUBCHEM_BOND_DEF_STEREO_COUNT>
0

> <PUBCHEM_BOND_UDEF_STEREO_COUNT>
0

> <PUBCHEM_ISOTOPIC_ATOM_COUNT>
0

> <PUBCHEM_COMPONENT_COUNT>
1

> <PUBCHEM_CACTVS_TAUTO_COUNT>
9

> <PUBCHEM_CONFORMER_ID>
00008EE800000001

> <PUBCHEM_MMFF94_ENERGY>
53.5002

> <PUBCHEM_FEATURE_SELFOVERLAP>
30.488

> <PUBCHEM_SHAPE_FINGERPRINT>
1 1 18339080505082255237
10989021 7 17617098452666680811
12173636 292 18339081488783305669
12500047 106 18337394816735139528
12532896 13 18336264548392493173
12553582 1 17114939994797707362
12592029 89 18338509837462908937
13140716 1 18409727386983691992
13380537 58 18339354146154773028
15042514 8 17907857297377139906
15279307 12 18129390297918976416
15309172 13 18410845547539192041
15906896 17 18045509620576573134
16945 1 18122624942316499236
18186145 218 18187354463207291681
19591789 44 18410281498148210035
20510252 161 18189609450113291441
20645476 183 18129930179402675340
20671657 1 18120372313953940541
20871998 22 16608288287818690210
21029758 11 17330839531070572471
21524375 3 18259989271006219861
21650355 55 17545611054207625562
21665056 4 18339359665251227214
23402539 116 17973732372355720871
23419403 2 16547144914391421370
23557571 272 17828750756253718684
257057 1 17041769686085706055
2748010 2 18339911662921804223
305870 269 18410576235967710213
3071541 12 18121778597836809225
3071541 158 17550104109780039741
3071541 250 17689707980098466999
3071541 37 18268705194321822621
3091708 16 9191845186054014227
43471831 8 18411420618111790555
458136 41 18267002016318874825
54173680 148 17834395618637483846
633830 44 18187361064793695525
7364860 26 18121220050050650087
81228 2 17758113700936411107

> <PUBCHEM_SHAPE_MULTIPOLES>
298.5
5.17
4.72
0.8
0.71
7.56
0
-5.95
0
0.02
0.02
-0.61
-0.08
0

> <PUBCHEM_SHAPE_SELFOVERLAP>
595.227

> <PUBCHEM_SHAPE_VOLUME>
174.2

> <PUBCHEM_COORDINATE_TYPE>
2
5
10

$$$$

