14123
  -OEChem-06241222423D

 24 24  0     0  0  0  0  0  0999 V2000
   -0.4486   -2.0474    0.3876 O   0  0  0  0  0  0  0  0  0  0  0  0
    4.5031    0.0311    1.1859 O   0  0  0  0  0  0  0  0  0  0  0  0
    4.6276   -0.4753   -1.0522 O   0  0  0  0  0  0  0  0  0  0  0  0
    0.4315    0.0562   -0.0143 N   0  0  0  0  0  0  0  0  0  0  0  0
    1.7040   -0.3977    0.0469 N   0  0  0  0  0  0  0  0  0  0  0  0
   -4.5275    0.7441   -0.1160 N   0  0  0  0  0  0  0  0  0  0  0  0
   -1.9722   -0.2908    0.0689 C   0  0  0  0  0  0  0  0  0  0  0  0
   -0.5982   -0.8477    0.1697 C   0  0  0  0  0  0  0  0  0  0  0  0
   -2.9995   -1.1186   -0.3173 C   0  0  0  0  0  0  0  0  0  0  0  0
   -2.1764    1.0356    0.3659 C   0  0  0  0  0  0  0  0  0  0  0  0
    2.6460    0.4733   -0.1295 C   0  0  0  0  0  0  0  0  0  0  0  0
   -4.2615   -0.5518   -0.3945 C   0  0  0  0  0  0  0  0  0  0  0  0
   -3.4752    1.5060    0.2580 C   0  0  0  0  0  0  0  0  0  0  0  0
    2.5005    1.9454   -0.3891 C   0  0  0  0  0  0  0  0  0  0  0  0
    4.0463   -0.0625   -0.0700 C   0  0  0  0  0  0  0  0  0  0  0  0
   -2.8554   -2.1651   -0.5593 H   0  0  0  0  0  0  0  0  0  0  0  0
   -1.4013    1.7126    0.7029 H   0  0  0  0  0  0  0  0  0  0  0  0
    0.2860    1.0315   -0.2455 H   0  0  0  0  0  0  0  0  0  0  0  0
    3.4826    2.4203   -0.4654 H   0  0  0  0  0  0  0  0  0  0  0  0
    1.9644    2.1024   -1.3290 H   0  0  0  0  0  0  0  0  0  0  0  0
    1.9514    2.4136    0.4324 H   0  0  0  0  0  0  0  0  0  0  0  0
   -5.1194   -1.1450   -0.6938 H   0  0  0  0  0  0  0  0  0  0  0  0
   -3.7122    2.5405    0.4842 H   0  0  0  0  0  0  0  0  0  0  0  0
    5.4241   -0.2957    1.2717 H   0  0  0  0  0  0  0  0  0  0  0  0
  1  8  2  0  0  0  0
  2 15  1  0  0  0  0
  2 24  1  0  0  0  0
  3 15  2  0  0  0  0
  4  5  1  0  0  0  0
  4  8  1  0  0  0  0
  4 18  1  0  0  0  0
  5 11  2  0  0  0  0
  6 12  2  0  0  0  0
  6 13  1  0  0  0  0
  7  8  1  0  0  0  0
  7  9  2  0  0  0  0
  7 10  1  0  0  0  0
  9 12  1  0  0  0  0
  9 16  1  0  0  0  0
 10 13  2  0  0  0  0
 10 17  1  0  0  0  0
 11 14  1  0  0  0  0
 11 15  1  0  0  0  0
 12 22  1  0  0  0  0
 13 23  1  0  0  0  0
 14 19  1  0  0  0  0
 14 20  1  0  0  0  0
 14 21  1  0  0  0  0
M  END
> <PUBCHEM_COMPOUND_CID>
14123

> <PUBCHEM_CONFORMER_RMSD>
0.6

> <PUBCHEM_CONFORMER_DIVERSEORDER>
1
3
2

> <PUBCHEM_MMFF94_PARTIAL_CHARGES>
21
1 -0.57
10 -0.15
11 0.39
12 0.16
13 0.16
14 0.06
15 0.72
16 0.15
17 0.15
18 0.37
2 -0.65
22 0.15
23 0.15
24 0.5
3 -0.57
4 -0.37
5 -0.51
6 -0.62
7 0.09
8 0.54
9 -0.15

> <PUBCHEM_EFFECTIVE_ROTOR_COUNT>
4

> <PUBCHEM_PHARMACOPHORE_FEATURES>
8
1 1 acceptor
1 2 acceptor
1 3 acceptor
1 4 donor
1 5 acceptor
1 6 acceptor
3 2 3 15 anion
6 6 7 9 10 12 13 rings

> <PUBCHEM_HEAVY_ATOM_COUNT>
15

> <PUBCHEM_ATOM_DEF_STEREO_COUNT>
0

> <PUBCHEM_ATOM_UDEF_STEREO_COUNT>
0

> <PUBCHEM_BOND_DEF_STEREO_COUNT>
0

> <PUBCHEM_BOND_UDEF_STEREO_COUNT>
1

> <PUBCHEM_ISOTOPIC_ATOM_COUNT>
0

> <PUBCHEM_COMPONENT_COUNT>
1

> <PUBCHEM_CACTVS_TAUTO_COUNT>
3

> <PUBCHEM_CONFORMER_ID>
0000372B00000001

> <PUBCHEM_MMFF94_ENERGY>
41.2839

> <PUBCHEM_FEATURE_SELFOVERLAP>
40.653

> <PUBCHEM_SHAPE_FINGERPRINT>
11132069 177 18335140899143608377
12162725 195 18410290281092216060
12916748 109 18410570678031947152
13675066 3 18113338587594188794
14004511 7 18410009940013121912
14123238 8 13840268073992793608
15196674 1 18410855421711326717
15536298 74 18262518220585408446
17802600 8 18411987952863045053
18186145 218 18342463625004161229
18522853 276 18333734606528620808
19107657 47 17132120138537464709
1986462 14 18333446551688003181
200 152 16950001435028056807
20279233 1 16153421740356742292
20281407 28 9367351430949764151
20300324 65 18041000622692022461
20645477 56 18113903723480144658
20645477 70 16805313432049816566
212847 35 17989207049281390140
21524375 3 18341895199194362195
23402539 116 18261119564542988381
23557571 272 17603577547763399561
23559900 14 18113900455669376394
351380 180 18334298660256845589
3545911 37 18334572477480804407
449060 50 13326851132345747030
5104073 3 18340204085654258017
6430166 295 18341898510476860864
69090 78 18040157292377508855
9709674 26 18335132064480647118
9971528 1 18408322199051102852
9981440 41 17262439505455170264

> <PUBCHEM_SHAPE_MULTIPOLES>
276.14
9.93
1.58
0.77
4.27
0.22
0.02
1.01
-0.67
-0.55
0.01
0.5
-0.02
-0.26

> <PUBCHEM_SHAPE_SELFOVERLAP>
573.429

> <PUBCHEM_SHAPE_VOLUME>
155.6

> <PUBCHEM_COORDINATE_TYPE>
2
5
10

$$$$

