11426583
  -OEChem-07051212493D

 35 35  0     1  0  0  0  0  0999 V2000
    3.6930    0.9555   -0.2063 P   0  0  0  0  0  0  0  0  0  0  0  0
    0.0874   -0.5797    1.5129 O   0  0  0  0  0  0  0  0  0  0  0  0
   -2.3072   -1.0718   -1.8454 O   0  0  0  0  0  0  0  0  0  0  0  0
    0.3591   -2.1591   -1.8070 O   0  0  0  0  0  0  0  0  0  0  0  0
   -1.7702   -0.1191    2.8799 O   0  0  0  0  0  0  0  0  0  0  0  0
    2.2204    0.3022   -0.0112 O   0  0  0  0  0  0  0  0  0  0  0  0
   -4.2449    0.9619   -0.7409 O   0  0  0  0  0  0  0  0  0  0  0  0
    4.4269   -0.0571   -1.2317 O   0  0  0  0  0  0  0  0  0  0  0  0
    4.4215    0.6489    1.2044 O   0  0  0  0  0  0  0  0  0  0  0  0
    3.6931    2.3984   -0.6192 O   0  0  0  0  0  0  0  0  0  0  0  0
   -2.1224    0.8303    0.2040 N   0  0  0  0  0  0  0  0  0  0  0  0
   -1.6036   -1.4142   -0.6543 C   0  0  2  0  0  0  0  0  0  0  0  0
   -2.1357   -0.5855    0.5175 C   0  0  1  0  0  0  0  0  0  0  0  0
   -0.0964   -1.2115   -0.8440 C   0  0  1  0  0  0  0  0  0  0  0  0
    0.6461   -1.4083    0.4871 C   0  0  1  0  0  0  0  0  0  0  0  0
   -1.2907   -0.8654    1.7645 C   0  0  1  0  0  0  0  0  0  0  0  0
    2.1247   -1.0492    0.3761 C   0  0  0  0  0  0  0  0  0  0  0  0
   -3.1836    1.4770   -0.3994 C   0  0  0  0  0  0  0  0  0  0  0  0
   -2.9174    2.9466   -0.5871 C   0  0  0  0  0  0  0  0  0  0  0  0
   -1.8022   -2.4780   -0.4701 H   0  0  0  0  0  0  0  0  0  0  0  0
   -3.1813   -0.8536    0.7139 H   0  0  0  0  0  0  0  0  0  0  0  0
    0.0809   -0.2144   -1.2624 H   0  0  0  0  0  0  0  0  0  0  0  0
    0.5833   -2.4570    0.8064 H   0  0  0  0  0  0  0  0  0  0  0  0
   -1.3750   -1.9216    2.0466 H   0  0  0  0  0  0  0  0  0  0  0  0
    2.6255   -1.6887   -0.3571 H   0  0  0  0  0  0  0  0  0  0  0  0
    2.6095   -1.1752    1.3496 H   0  0  0  0  0  0  0  0  0  0  0  0
   -1.2711    1.3517    0.3942 H   0  0  0  0  0  0  0  0  0  0  0  0
   -3.2525   -1.2329   -1.6837 H   0  0  0  0  0  0  0  0  0  0  0  0
    0.2268   -3.0496   -1.4393 H   0  0  0  0  0  0  0  0  0  0  0  0
   -2.0806    0.7415    2.5516 H   0  0  0  0  0  0  0  0  0  0  0  0
   -3.7298    3.3983   -1.1628 H   0  0  0  0  0  0  0  0  0  0  0  0
   -2.8544    3.4361    0.3887 H   0  0  0  0  0  0  0  0  0  0  0  0
   -1.9788    3.0916   -1.1298 H   0  0  0  0  0  0  0  0  0  0  0  0
    5.3200    0.1715   -1.5666 H   0  0  0  0  0  0  0  0  0  0  0  0
    5.3099    1.0294    1.3724 H   0  0  0  0  0  0  0  0  0  0  0  0
  1  6  1  0  0  0  0
  1  8  1  0  0  0  0
  1  9  1  0  0  0  0
  1 10  2  0  0  0  0
  2 15  1  0  0  0  0
  2 16  1  0  0  0  0
  3 12  1  0  0  0  0
  3 28  1  0  0  0  0
  4 14  1  0  0  0  0
  4 29  1  0  0  0  0
  5 16  1  0  0  0  0
  5 30  1  0  0  0  0
  6 17  1  0  0  0  0
  7 18  2  0  0  0  0
  8 34  1  0  0  0  0
  9 35  1  0  0  0  0
 11 13  1  0  0  0  0
 11 18  1  0  0  0  0
 11 27  1  0  0  0  0
 12 13  1  0  0  0  0
 12 14  1  0  0  0  0
 12 20  1  0  0  0  0
 13 16  1  0  0  0  0
 13 21  1  0  0  0  0
 14 15  1  0  0  0  0
 14 22  1  0  0  0  0
 15 17  1  0  0  0  0
 15 23  1  0  0  0  0
 16 24  1  0  0  0  0
 17 25  1  0  0  0  0
 17 26  1  0  0  0  0
 18 19  1  0  0  0  0
 19 31  1  0  0  0  0
 19 32  1  0  0  0  0
 19 33  1  0  0  0  0
M  END
> <PUBCHEM_COMPOUND_CID>
11426583

> <PUBCHEM_CONFORMER_RMSD>
0.8

> <PUBCHEM_CONFORMER_DIVERSEORDER>
1
12
41
28
6
25
39
31
15
45
10
36
34
21
16
8
30
38
5
43
17
22
33
11
19
2
46
48
7
13
18
24
9
29
4
23
37
40
3
20
42
44
26
32
35
14
27
47

> <PUBCHEM_MMFF94_PARTIAL_CHARGES>
25
1 1.51
10 -0.7
11 -0.73
12 0.28
13 0.3
14 0.28
15 0.28
16 0.56
17 0.28
18 0.57
19 0.06
2 -0.56
27 0.37
28 0.4
29 0.4
3 -0.68
30 0.4
34 0.5
35 0.5
4 -0.68
5 -0.68
6 -0.55
7 -0.57
8 -0.77
9 -0.77

> <PUBCHEM_EFFECTIVE_ROTOR_COUNT>
6.2

> <PUBCHEM_PHARMACOPHORE_FEATURES>
14
1 10 acceptor
1 11 donor
1 2 acceptor
1 3 acceptor
1 3 donor
1 4 acceptor
1 4 donor
1 5 acceptor
1 5 donor
1 7 acceptor
1 8 acceptor
1 9 acceptor
4 1 8 9 10 anion
6 2 12 13 14 15 16 rings

> <PUBCHEM_HEAVY_ATOM_COUNT>
19

> <PUBCHEM_ATOM_DEF_STEREO_COUNT>
4

> <PUBCHEM_ATOM_UDEF_STEREO_COUNT>
1

> <PUBCHEM_BOND_DEF_STEREO_COUNT>
0

> <PUBCHEM_BOND_UDEF_STEREO_COUNT>
0

> <PUBCHEM_ISOTOPIC_ATOM_COUNT>
0

> <PUBCHEM_COMPONENT_COUNT>
1

> <PUBCHEM_CACTVS_TAUTO_COUNT>
2

> <PUBCHEM_CONFORMER_ID>
00AE5B1700000001

> <PUBCHEM_MMFF94_ENERGY>
2.6006

> <PUBCHEM_FEATURE_SELFOVERLAP>
71.13

> <PUBCHEM_SHAPE_FINGERPRINT>
11127187 94 16443067153724543647
11221954 11 18052811730831994621
11552529 35 16772658902803459810
11769659 78 8213844995031587961
122479 349 18202562912221215864
12506688 2 9222933890108793900
12633257 1 16487268676976859680
12824470 246 8358249371697959117
13764800 53 17774993575017671976
13994607 96 17988068994237357005
14787075 74 17917991638575075657
15295992 7 17700962499473695545
15534591 1 18271814539974353675
16945 1 18117863026382326187
18186145 218 17822558457216013838
19784866 140 15719397273898419471
19868273 293 18260832579255241894
20775530 9 7708011389224338893
21475661 188 17629774610586167061
21524375 3 18410581707507930601
21864079 5 18129374913504799812
23114952 82 17607239046211889303
23352939 185 17898569774771286843
23557571 272 18199727229316343211
27216 239 18059288760388422049
2838139 119 18269571566245070309
4175511 318 18113621157618715975
474 4 17988369251037357333
56616090 13 18200882867550603221

> <PUBCHEM_SHAPE_MULTIPOLES>
337.06
7.42
2.38
1.82
6.04
1.66
0.62
5.58
-0.85
-0.86
-0.59
-0.65
-0.95
0.24

> <PUBCHEM_SHAPE_SELFOVERLAP>
661.02

> <PUBCHEM_SHAPE_VOLUME>
202.1

> <PUBCHEM_COORDINATE_TYPE>
2
5
10

$$$$

