5310996
  -OEChem-07051213043D

 42 44  0     1  0  0  0  0  0999 V2000
    7.2172   -0.9264   -1.1206 S   0  0  0  0  0  0  0  0  0  0  0  0
    3.4901    0.9758    0.7785 P   0  0  1  0  0  0  0  0  0  0  0  0
    6.0517    0.5438   -0.6307 P   0  0  0  0  0  0  0  0  0  0  0  0
   -0.2996   -1.0438    1.2272 O   0  0  0  0  0  0  0  0  0  0  0  0
   -2.0303   -2.8372   -1.3630 O   0  0  0  0  0  0  0  0  0  0  0  0
   -0.3192   -3.9818    0.4111 O   0  0  0  0  0  0  0  0  0  0  0  0
    2.3422   -0.1085    1.1332 O   0  0  0  0  0  0  0  0  0  0  0  0
    4.6693    0.1121    0.0892 O   0  0  0  0  0  0  0  0  0  0  0  0
    2.8772    1.8175   -0.4598 O   0  0  0  0  0  0  0  0  0  0  0  0
    3.9386    1.8194    1.9365 O   0  0  0  0  0  0  0  0  0  0  0  0
    5.5668    1.4767   -1.8634 O   0  0  0  0  0  0  0  0  0  0  0  0
    6.7000    1.6259    0.3857 O   0  0  0  0  0  0  0  0  0  0  0  0
   -2.2089   -0.0745    0.2049 N   0  0  0  0  0  0  0  0  0  0  0  0
   -2.5562    2.0955   -0.1809 N   0  0  0  0  0  0  0  0  0  0  0  0
   -4.5052   -0.8676    0.2061 N   0  0  0  0  0  0  0  0  0  0  0  0
   -6.0755    0.9574   -0.1930 N   0  0  0  0  0  0  0  0  0  0  0  0
   -5.3607    3.2156   -0.5349 N   0  0  0  0  0  0  0  0  0  0  0  0
   -1.0154   -2.0281   -0.8044 C   0  0  2  0  0  0  0  0  0  0  0  0
    0.1605   -2.8283   -0.2798 C   0  0  1  0  0  0  0  0  0  0  0  0
   -1.4851   -1.3186    0.4564 C   0  0  1  0  0  0  0  0  0  0  0  0
    0.7797   -1.8704    0.7331 C   0  0  1  0  0  0  0  0  0  0  0  0
    1.8380   -0.9629    0.1217 C   0  0  0  0  0  0  0  0  0  0  0  0
   -3.5629    0.0813    0.1002 C   0  0  0  0  0  0  0  0  0  0  0  0
   -1.6490    1.1646    0.0291 C   0  0  0  0  0  0  0  0  0  0  0  0
   -3.7568    1.4324   -0.1392 C   0  0  0  0  0  0  0  0  0  0  0  0
   -5.0716    1.8623   -0.2881 C   0  0  0  0  0  0  0  0  0  0  0  0
   -5.7348   -0.3323    0.0447 C   0  0  0  0  0  0  0  0  0  0  0  0
   -0.6807   -1.3116   -1.5634 H   0  0  0  0  0  0  0  0  0  0  0  0
    0.8407   -3.1676   -1.0661 H   0  0  0  0  0  0  0  0  0  0  0  0
   -2.1419   -1.9489    1.0685 H   0  0  0  0  0  0  0  0  0  0  0  0
    1.1956   -2.3942    1.6013 H   0  0  0  0  0  0  0  0  0  0  0  0
    1.4108   -0.3420   -0.6719 H   0  0  0  0  0  0  0  0  0  0  0  0
    2.6581   -1.5578   -0.2922 H   0  0  0  0  0  0  0  0  0  0  0  0
   -2.2834   -3.5023   -0.7004 H   0  0  0  0  0  0  0  0  0  0  0  0
    0.4551   -4.4453    0.7737 H   0  0  0  0  0  0  0  0  0  0  0  0
   -0.5808    1.3317    0.0584 H   0  0  0  0  0  0  0  0  0  0  0  0
   -6.5633   -1.0292    0.1145 H   0  0  0  0  0  0  0  0  0  0  0  0
   -4.6133    3.8928   -0.6070 H   0  0  0  0  0  0  0  0  0  0  0  0
   -6.3240    3.5033   -0.6400 H   0  0  0  0  0  0  0  0  0  0  0  0
    2.2253    2.5267   -0.2746 H   0  0  0  0  0  0  0  0  0  0  0  0
    4.9802    2.2403   -1.6764 H   0  0  0  0  0  0  0  0  0  0  0  0
    6.1616    2.3978    0.6625 H   0  0  0  0  0  0  0  0  0  0  0  0
  1  3  2  0  0  0  0
  2  7  1  0  0  0  0
  2  8  1  0  0  0  0
  2  9  1  0  0  0  0
  2 10  2  0  0  0  0
  3  8  1  0  0  0  0
  3 11  1  0  0  0  0
  3 12  1  0  0  0  0
  4 20  1  0  0  0  0
  4 21  1  0  0  0  0
  5 18  1  0  0  0  0
  5 34  1  0  0  0  0
  6 19  1  0  0  0  0
  6 35  1  0  0  0  0
  7 22  1  0  0  0  0
  9 40  1  0  0  0  0
 11 41  1  0  0  0  0
 12 42  1  0  0  0  0
 13 20  1  0  0  0  0
 13 23  1  0  0  0  0
 13 24  1  0  0  0  0
 14 24  2  0  0  0  0
 14 25  1  0  0  0  0
 15 23  2  0  0  0  0
 15 27  1  0  0  0  0
 16 26  1  0  0  0  0
 16 27  2  0  0  0  0
 17 26  1  0  0  0  0
 17 38  1  0  0  0  0
 17 39  1  0  0  0  0
 18 19  1  0  0  0  0
 18 20  1  0  0  0  0
 18 28  1  0  0  0  0
 19 21  1  0  0  0  0
 19 29  1  0  0  0  0
 20 30  1  0  0  0  0
 21 22  1  0  0  0  0
 21 31  1  0  0  0  0
 22 32  1  0  0  0  0
 22 33  1  0  0  0  0
 23 25  1  0  0  0  0
 24 36  1  0  0  0  0
 25 26  2  0  0  0  0
 27 37  1  0  0  0  0
M  END
> <PUBCHEM_COMPOUND_CID>
5310996

> <PUBCHEM_CONFORMER_RMSD>
1

> <PUBCHEM_CONFORMER_DIVERSEORDER>
27
654
950
486
146
199
530
58
369
447
858
127
725
40
713
961
753
539
149
550
178
601
522
656
697
357
173
696
196
625
263
52
251
362
829
947
598
546
688
837
555
215
663
72
554
942
323
586
424
428
1034
78
845
175
920
93
331
1007
734
202
748
57
330
788
431
154
86
547
314
596
857
570
214
48
682
468
631
59
765
265
679
346
797
381
44
677
529
426
279
859
747
25
799
675
439
20
168
153
924
309
116
85
665
925
386
414
29
680
743
1014
179
316
285
286
736
771
451
107
115
130
515
74
807
498
141
255
704
51
114
906
43
560
208
329
466
1005
345
232
233
23
45
755
167
714
864
774
53
205
363
87
22
1004
277
495
325
666
678
802
17
99
564
948
542
267
171
211
1024
741
65
877
128
518
90
494
396
848
210
629
317
150
818
266
571
1039
759
217
162
767
404
892
67
226
694
73
344
880
79
2
517
1010
120
355
523
302
552
922
82
745
12
383
139
640
461
401
103
405
96
350
855
268
377
594
334
791
159
475
125
416
1
136
105
698
46
749
493
637
647
912
308
4
971
15
718
19
35
406
338
42
459
483
374
259
986
527
568
176
621
185
839
110
9
769
878
919
111
531
8
997
13
280
221
808
264
566
1032
496
113
3
673
5
485
121
1047
866
319
1042
240
11
390
970
635
913
342
161
224
932
899
1028

> <PUBCHEM_MMFF94_PARTIAL_CHARGES>
36
1 -0.68
10 -0.7
11 -0.77
12 -0.77
13 0.05
14 -0.57
15 -0.57
16 -0.62
17 -0.9
18 0.28
19 0.28
2 1.51
20 0.54
21 0.28
22 0.28
23 0.11
24 0.04
25 0.23
26 0.41
27 0.47
3 1.49
34 0.4
35 0.4
36 0.15
37 0.15
38 0.4
39 0.4
4 -0.56
40 0.5
41 0.5
42 0.5
5 -0.68
6 -0.68
7 -0.55
8 -0.54
9 -0.77

> <PUBCHEM_EFFECTIVE_ROTOR_COUNT>
7

> <PUBCHEM_PHARMACOPHORE_FEATURES>
17
1 10 acceptor
1 11 acceptor
1 12 acceptor
1 17 cation
1 17 donor
1 4 acceptor
1 5 acceptor
1 5 donor
1 6 acceptor
1 6 donor
1 9 acceptor
3 13 14 24 cation
3 13 15 23 cation
3 15 16 27 cation
5 13 14 23 24 25 rings
5 4 18 19 20 21 rings
6 15 16 23 25 26 27 rings

> <PUBCHEM_HEAVY_ATOM_COUNT>
27

> <PUBCHEM_ATOM_DEF_STEREO_COUNT>
4

> <PUBCHEM_ATOM_UDEF_STEREO_COUNT>
0

> <PUBCHEM_BOND_DEF_STEREO_COUNT>
0

> <PUBCHEM_BOND_UDEF_STEREO_COUNT>
0

> <PUBCHEM_ISOTOPIC_ATOM_COUNT>
0

> <PUBCHEM_COMPONENT_COUNT>
1

> <PUBCHEM_CACTVS_TAUTO_COUNT>
6

> <PUBCHEM_CONFORMER_ID>
00510A140000001B

> <PUBCHEM_MMFF94_ENERGY>
5.3966

> <PUBCHEM_FEATURE_SELFOVERLAP>
86.912

> <PUBCHEM_SHAPE_FINGERPRINT>
10411042 1 17690843359447538155
10591671 39 18272082773503593711
10670039 82 18342737455419542292
11578080 2 16700353021312171727
12390115 104 18261668255563936545
12596602 18 16630523999261597128
12760667 363 9655577400860513235
13402501 40 18407758149285496812
14251751 18 6988318317899798426
14257110 125 18413107281564383175
14341114 328 17346604079597255969
1454969 45 18409454653368326007
14840074 17 17418089897513530572
15183329 4 18114174272777569906
15575132 122 17917714629547143604
15961568 22 17988360476809945741
17980427 23 17704065201502851399
19611394 137 17773578452635570659
21033648 29 18336273361976952704
21223535 225 17023455473195064896
21756936 100 18131073680270295378
23198884 109 17095517387821820691
23227448 37 18189345567306443289
23559900 14 17904493144785271395
2838139 119 18410298003606931772
3004659 81 18411696617801634338
3729539 64 17968371359717089466
4058900 60 18270956976749787339
5104073 3 18127128796328051537
613672 6 10375870788126538465
6138700 20 18410852187532166788
7808743 9 18412830161610755154
9981440 41 18201146720192051019

> <PUBCHEM_SHAPE_MULTIPOLES>
489.47
16.67
3.36
1.14
15.21
1.75
-0.03
-10.73
4.4
-1.9
0.33
1.51
-0.1
0.7

> <PUBCHEM_SHAPE_SELFOVERLAP>
1001.351

> <PUBCHEM_SHAPE_VOLUME>
286.9

> <PUBCHEM_COORDINATE_TYPE>
2
5
10

$$$$

