153311
  -OEChem-07051212463D

 43 46  0     1  0  0  0  0  0999 V2000
    4.7950   -0.5065   -0.7208 O   0  0  0  0  0  0  0  0  0  0  0  0
   -0.3627   -1.0308    1.0517 O   0  0  0  0  0  0  0  0  0  0  0  0
   -0.9948   -2.5435   -0.5656 O   0  0  0  0  0  0  0  0  0  0  0  0
   -3.6521   -3.1427   -0.2061 O   0  0  0  0  0  0  0  0  0  0  0  0
    2.7636    1.1761    0.0332 N   0  0  0  0  0  0  0  0  0  0  0  0
    3.4403   -0.8293   -1.0496 C   0  0  1  0  0  0  0  0  0  0  0  0
    3.9222   -0.8754    0.3513 C   0  0  2  0  0  0  0  0  0  0  0  0
    2.4388    0.2976   -1.1139 C   0  0  1  0  0  0  0  0  0  0  0  0
    3.1951    0.2257    1.0837 C   0  0  2  0  0  0  0  0  0  0  0  0
    1.0274   -0.2333   -0.7832 C   0  0  0  0  0  0  0  0  0  0  0  0
    1.8680   -0.3126    1.6606 C   0  0  0  0  0  0  0  0  0  0  0  0
    0.9777   -0.9671    0.5785 C   0  0  0  0  0  0  0  0  0  0  0  0
    3.7337    2.2199   -0.2664 C   0  0  0  0  0  0  0  0  0  0  0  0
   -1.2632   -1.6434    0.2198 C   0  0  0  0  0  0  0  0  0  0  0  0
   -2.6477   -1.0318    0.4152 C   0  0  2  0  0  0  0  0  0  0  0  0
   -3.6762   -1.7441   -0.4749 C   0  0  0  0  0  0  0  0  0  0  0  0
   -2.6194    0.4697    0.1780 C   0  0  0  0  0  0  0  0  0  0  0  0
   -2.3628    1.3099    1.2431 C   0  0  0  0  0  0  0  0  0  0  0  0
   -2.8516    0.9500   -1.0954 C   0  0  0  0  0  0  0  0  0  0  0  0
   -2.3369    2.6876    1.0257 C   0  0  0  0  0  0  0  0  0  0  0  0
   -2.8258    2.3277   -1.3127 C   0  0  0  0  0  0  0  0  0  0  0  0
   -2.5685    3.1964   -0.2522 C   0  0  0  0  0  0  0  0  0  0  0  0
    3.2192   -1.7284   -1.6000 H   0  0  0  0  0  0  0  0  0  0  0  0
    4.0682   -1.8093    0.8675 H   0  0  0  0  0  0  0  0  0  0  0  0
    2.4444    0.8195   -2.0762 H   0  0  0  0  0  0  0  0  0  0  0  0
    3.8018    0.6900    1.8678 H   0  0  0  0  0  0  0  0  0  0  0  0
    0.3166    0.6032   -0.7837 H   0  0  0  0  0  0  0  0  0  0  0  0
    0.7020   -0.9097   -1.5827 H   0  0  0  0  0  0  0  0  0  0  0  0
    2.0669   -1.0505    2.4482 H   0  0  0  0  0  0  0  0  0  0  0  0
    1.3160    0.5027    2.1480 H   0  0  0  0  0  0  0  0  0  0  0  0
    1.3368   -1.9963    0.4403 H   0  0  0  0  0  0  0  0  0  0  0  0
    3.9054    2.8357    0.6233 H   0  0  0  0  0  0  0  0  0  0  0  0
    3.3343    2.8901   -1.0356 H   0  0  0  0  0  0  0  0  0  0  0  0
    4.7044    1.8565   -0.6125 H   0  0  0  0  0  0  0  0  0  0  0  0
   -2.9264   -1.2407    1.4578 H   0  0  0  0  0  0  0  0  0  0  0  0
   -3.4545   -1.6544   -1.5414 H   0  0  0  0  0  0  0  0  0  0  0  0
   -4.6913   -1.3716   -0.3000 H   0  0  0  0  0  0  0  0  0  0  0  0
   -2.1820    0.9235    2.2416 H   0  0  0  0  0  0  0  0  0  0  0  0
   -3.0268    0.3129   -1.9535 H   0  0  0  0  0  0  0  0  0  0  0  0
   -3.8860   -3.2641    0.7299 H   0  0  0  0  0  0  0  0  0  0  0  0
   -2.1358    3.3639    1.8513 H   0  0  0  0  0  0  0  0  0  0  0  0
   -2.9992    2.7243   -2.3089 H   0  0  0  0  0  0  0  0  0  0  0  0
   -2.5465    4.2689   -0.4218 H   0  0  0  0  0  0  0  0  0  0  0  0
  1  6  1  0  0  0  0
  1  7  1  0  0  0  0
  2 12  1  0  0  0  0
  2 14  1  0  0  0  0
  3 14  2  0  0  0  0
  4 16  1  0  0  0  0
  4 40  1  0  0  0  0
  5  8  1  0  0  0  0
  5  9  1  0  0  0  0
  5 13  1  0  0  0  0
  6  7  1  0  0  0  0
  6  8  1  0  0  0  0
  6 23  1  0  0  0  0
  7  9  1  0  0  0  0
  7 24  1  0  0  0  0
  8 10  1  0  0  0  0
  8 25  1  0  0  0  0
  9 11  1  0  0  0  0
  9 26  1  0  0  0  0
 10 12  1  0  0  0  0
 10 27  1  0  0  0  0
 10 28  1  0  0  0  0
 11 12  1  0  0  0  0
 11 29  1  0  0  0  0
 11 30  1  0  0  0  0
 12 31  1  0  0  0  0
 13 32  1  0  0  0  0
 13 33  1  0  0  0  0
 13 34  1  0  0  0  0
 14 15  1  0  0  0  0
 15 16  1  0  0  0  0
 15 17  1  0  0  0  0
 15 35  1  0  0  0  0
 16 36  1  0  0  0  0
 16 37  1  0  0  0  0
 17 18  2  0  0  0  0
 17 19  1  0  0  0  0
 18 20  1  0  0  0  0
 18 38  1  0  0  0  0
 19 21  2  0  0  0  0
 19 39  1  0  0  0  0
 20 22  2  0  0  0  0
 20 41  1  0  0  0  0
 21 22  1  0  0  0  0
 21 42  1  0  0  0  0
 22 43  1  0  0  0  0
M  END
> <PUBCHEM_COMPOUND_CID>
153311

> <PUBCHEM_CONFORMER_RMSD>
0.8

> <PUBCHEM_CONFORMER_DIVERSEORDER>
2
61
87
75
58
55
35
78
64
20
65
36
17
88
45
80
95
53
81
101
28
27
19
38
62
33
41
34
68
84
37
76
99
60
69
74
1
91
11
86
54
71
90
56
46
39
40
16
23
13
32
29
102
63
12
73
98
24
52
15
57
83
51
72
100
48
49
94
96
50
42
6
92
82
25
103
67
18
59
4
93
30
47
9
70
85
10
5
14
77
97
8
89
44
3
79
21
66
22
31
43
7
26

> <PUBCHEM_MMFF94_PARTIAL_CHARGES>
28
1 -0.3
12 0.28
13 0.27
14 0.66
15 0.2
16 0.28
17 -0.14
18 -0.15
19 -0.15
2 -0.43
20 -0.15
21 -0.15
22 -0.15
23 0.1
24 0.1
3 -0.57
38 0.15
39 0.15
4 -0.68
40 0.4
41 0.15
42 0.15
43 0.15
5 -0.81
6 -0.05
7 -0.05
8 0.37
9 0.37

> <PUBCHEM_EFFECTIVE_ROTOR_COUNT>
6

> <PUBCHEM_PHARMACOPHORE_FEATURES>
8
1 1 acceptor
1 3 acceptor
1 4 acceptor
1 4 donor
1 5 cation
6 1 5 6 7 8 9 rings
6 17 18 19 20 21 22 rings
8 5 6 7 8 9 10 11 12 rings

> <PUBCHEM_HEAVY_ATOM_COUNT>
22

> <PUBCHEM_ATOM_DEF_STEREO_COUNT>
3

> <PUBCHEM_ATOM_UDEF_STEREO_COUNT>
2

> <PUBCHEM_BOND_DEF_STEREO_COUNT>
0

> <PUBCHEM_BOND_UDEF_STEREO_COUNT>
0

> <PUBCHEM_ISOTOPIC_ATOM_COUNT>
0

> <PUBCHEM_COMPONENT_COUNT>
1

> <PUBCHEM_CACTVS_TAUTO_COUNT>
1

> <PUBCHEM_CONFORMER_ID>
000256DF00000002

> <PUBCHEM_MMFF94_ENERGY>
70.1094

> <PUBCHEM_FEATURE_SELFOVERLAP>
44.102

> <PUBCHEM_SHAPE_FINGERPRINT>
10165383 225 18045480157491410121
10498660 4 18341619200316745781
10646746 165 18409730681730042400
10670039 82 18055055585621120156
11045515 52 18126288537173570895
11640471 11 17916594287649397073
12173636 292 18117274968435013097
12403259 226 18187647951154470082
12596599 1 18410006671706877964
12788726 201 18201166485879616451
13134695 92 16950849232098230112
13224815 77 17489866038033674796
13583140 156 17677353665954766626
14251751 93 18340766043507136843
14347332 77 18410579499995805279
15961568 22 18124601869009565348
16752209 62 18341907281021891787
17357779 13 18116169778875951847
17492 89 18411136918268745642
18186145 218 18188767370203264520
18981168 100 18193266623444998679
20510252 161 18339081488835533203
21524375 3 18127685144310018275
21864079 5 18060698398946729992
22182937 141 18262793094471620513
22749437 52 18339648935424904844
22907989 373 18335988597118414621
23352939 185 18044370531415722443
23402539 116 18262241027986478263
23557571 272 18262249819509791459
23559900 14 17969782068064950622
3268164 11 18409173199038049471
350125 39 18193549193844617979
474 4 17618511317040963673
5161694 15 17822569525009112612
5281201 14 18260539018467296886
6049 1 17895199869878389954
7164475 11 18411421670162519750
7399639 24 17824553967440545090
7615 1 17845389858499355418
81228 2 18266734697564811195

> <PUBCHEM_SHAPE_MULTIPOLES>
424.29
8.27
3.19
1.32
5.01
0.51
0.14
0.63
-1.27
-4
-0.29
0.14
0.27
-0.14

> <PUBCHEM_SHAPE_SELFOVERLAP>
916.929

> <PUBCHEM_SHAPE_VOLUME>
234.1

> <PUBCHEM_COORDINATE_TYPE>
2
5
10

$$$$

