20055020
  -OEChem-07051212573D

 45 49  0     1  0  0  0  0  0999 V2000
   -3.1604   -2.7410    1.3554 O   0  0  0  0  0  0  0  0  0  0  0  0
    5.8436   -1.6731   -0.1128 O   0  0  0  0  0  0  0  0  0  0  0  0
   -1.4123    0.7741   -1.3991 N   0  0  2  0  0  0  0  0  0  0  0  0
    1.6218    1.7817    0.4978 N   0  0  0  0  0  0  0  0  0  0  0  0
   -1.2331   -0.7034   -1.1831 C   0  0  2  0  0  0  0  0  0  0  0  0
   -2.6112    0.0774    0.8082 C   0  0  1  0  0  0  0  0  0  0  0  0
   -1.8353   -1.1215    0.2027 C   0  0  1  0  0  0  0  0  0  0  0  0
   -0.8065    1.5141   -0.2410 C   0  0  1  0  0  0  0  0  0  0  0  0
   -1.5993    1.2175    1.0608 C   0  0  0  0  0  0  0  0  0  0  0  0
    0.2730   -1.0880   -1.2996 C   0  0  0  0  0  0  0  0  0  0  0  0
   -2.8656    1.0742   -1.4752 C   0  0  0  0  0  0  0  0  0  0  0  0
   -3.5766    0.6067   -0.2294 C   0  0  0  0  0  0  0  0  0  0  0  0
    0.6205    1.0812   -0.1084 C   0  0  0  0  0  0  0  0  0  0  0  0
    1.1333   -0.1127   -0.5680 C   0  0  0  0  0  0  0  0  0  0  0  0
   -2.7090   -2.3708    0.0671 C   0  0  0  0  0  0  0  0  0  0  0  0
    2.5110   -0.1468   -0.2239 C   0  0  0  0  0  0  0  0  0  0  0  0
   -4.9048    0.6557   -0.0703 C   0  0  0  0  0  0  0  0  0  0  0  0
    2.7915    1.0515    0.4444 C   0  0  0  0  0  0  0  0  0  0  0  0
    3.5531   -1.0758   -0.4153 C   0  0  0  0  0  0  0  0  0  0  0  0
   -5.6148    0.1957    1.1578 C   0  0  0  0  0  0  0  0  0  0  0  0
    4.0665    1.3600    0.9323 C   0  0  0  0  0  0  0  0  0  0  0  0
    4.8321   -0.7780    0.0682 C   0  0  0  0  0  0  0  0  0  0  0  0
    5.0825    0.4214    0.7314 C   0  0  0  0  0  0  0  0  0  0  0  0
   -1.7529   -1.2383   -1.9899 H   0  0  0  0  0  0  0  0  0  0  0  0
   -3.0796   -0.1989    1.7555 H   0  0  0  0  0  0  0  0  0  0  0  0
   -1.0288   -1.3647    0.9093 H   0  0  0  0  0  0  0  0  0  0  0  0
   -0.8274    2.5908   -0.4523 H   0  0  0  0  0  0  0  0  0  0  0  0
   -0.9347    0.9443    1.8902 H   0  0  0  0  0  0  0  0  0  0  0  0
   -2.1390    2.1219    1.3724 H   0  0  0  0  0  0  0  0  0  0  0  0
    0.5643   -1.0741   -2.3576 H   0  0  0  0  0  0  0  0  0  0  0  0
    0.4375   -2.1046   -0.9251 H   0  0  0  0  0  0  0  0  0  0  0  0
   -3.2879    0.5846   -2.3612 H   0  0  0  0  0  0  0  0  0  0  0  0
   -3.0037    2.1541   -1.6081 H   0  0  0  0  0  0  0  0  0  0  0  0
   -2.1256   -3.2005   -0.3459 H   0  0  0  0  0  0  0  0  0  0  0  0
   -3.5761   -2.2015   -0.5787 H   0  0  0  0  0  0  0  0  0  0  0  0
    1.5251    2.6911    0.9283 H   0  0  0  0  0  0  0  0  0  0  0  0
   -5.5212    1.0371   -0.8803 H   0  0  0  0  0  0  0  0  0  0  0  0
   -3.7094   -3.5365    1.2498 H   0  0  0  0  0  0  0  0  0  0  0  0
    3.3593   -2.0117   -0.9325 H   0  0  0  0  0  0  0  0  0  0  0  0
   -5.7899   -0.8834    1.1196 H   0  0  0  0  0  0  0  0  0  0  0  0
   -6.5910    0.6896    1.2152 H   0  0  0  0  0  0  0  0  0  0  0  0
   -5.0857    0.4521    2.0792 H   0  0  0  0  0  0  0  0  0  0  0  0
    4.2639    2.2939    1.4479 H   0  0  0  0  0  0  0  0  0  0  0  0
    6.0820    0.6383    1.1012 H   0  0  0  0  0  0  0  0  0  0  0  0
    5.4982   -2.4476   -0.5892 H   0  0  0  0  0  0  0  0  0  0  0  0
  1 15  1  0  0  0  0
  1 38  1  0  0  0  0
  2 22  1  0  0  0  0
  2 45  1  0  0  0  0
  3  5  1  0  0  0  0
  3  8  1  0  0  0  0
  3 11  1  0  0  0  0
  4 13  1  0  0  0  0
  4 18  1  0  0  0  0
  4 36  1  0  0  0  0
  5  7  1  0  0  0  0
  5 10  1  0  0  0  0
  5 24  1  0  0  0  0
  6  7  1  0  0  0  0
  6  9  1  0  0  0  0
  6 12  1  0  0  0  0
  6 25  1  0  0  0  0
  7 15  1  0  0  0  0
  7 26  1  0  0  0  0
  8  9  1  0  0  0  0
  8 13  1  0  0  0  0
  8 27  1  0  0  0  0
  9 28  1  0  0  0  0
  9 29  1  0  0  0  0
 10 14  1  0  0  0  0
 10 30  1  0  0  0  0
 10 31  1  0  0  0  0
 11 12  1  0  0  0  0
 11 32  1  0  0  0  0
 11 33  1  0  0  0  0
 12 17  2  0  0  0  0
 13 14  2  0  0  0  0
 14 16  1  0  0  0  0
 15 34  1  0  0  0  0
 15 35  1  0  0  0  0
 16 18  2  0  0  0  0
 16 19  1  0  0  0  0
 17 20  1  0  0  0  0
 17 37  1  0  0  0  0
 18 21  1  0  0  0  0
 19 22  2  0  0  0  0
 19 39  1  0  0  0  0
 20 40  1  0  0  0  0
 20 41  1  0  0  0  0
 20 42  1  0  0  0  0
 21 23  2  0  0  0  0
 21 43  1  0  0  0  0
 22 23  1  0  0  0  0
 23 44  1  0  0  0  0
M  END
> <PUBCHEM_COMPOUND_CID>
20055020

> <PUBCHEM_CONFORMER_RMSD>
0.6

> <PUBCHEM_CONFORMER_DIVERSEORDER>
1

> <PUBCHEM_MMFF94_PARTIAL_CHARGES>
27
1 -0.68
10 0.18
11 0.41
12 -0.28
13 -0.33
14 -0.18
15 0.28
17 -0.29
18 -0.15
19 -0.15
2 -0.53
20 0.14
21 -0.15
22 0.08
23 -0.15
3 -0.81
36 0.27
37 0.15
38 0.4
39 0.15
4 0.03
43 0.15
44 0.15
45 0.45
5 0.27
6 0.14
8 0.45

> <PUBCHEM_EFFECTIVE_ROTOR_COUNT>
1.8

> <PUBCHEM_PHARMACOPHORE_FEATURES>
11
1 1 acceptor
1 1 donor
1 2 donor
1 20 hydrophobe
1 3 cation
1 4 cation
1 4 donor
5 4 13 14 16 18 rings
6 16 18 19 21 22 23 rings
6 3 5 8 10 13 14 rings
8 3 5 6 7 8 9 11 12 rings

> <PUBCHEM_HEAVY_ATOM_COUNT>
23

> <PUBCHEM_ATOM_DEF_STEREO_COUNT>
3

> <PUBCHEM_ATOM_UDEF_STEREO_COUNT>
1

> <PUBCHEM_BOND_DEF_STEREO_COUNT>
1

> <PUBCHEM_BOND_UDEF_STEREO_COUNT>
0

> <PUBCHEM_ISOTOPIC_ATOM_COUNT>
0

> <PUBCHEM_COMPONENT_COUNT>
1

> <PUBCHEM_CACTVS_TAUTO_COUNT>
8

> <PUBCHEM_CONFORMER_ID>
013203EC00000001

> <PUBCHEM_MMFF94_ENERGY>
60.9899

> <PUBCHEM_FEATURE_SELFOVERLAP>
56.348

> <PUBCHEM_SHAPE_FINGERPRINT>
10 15 18188787063446222328
10670039 82 7565062831031508210
10906281 52 18041542720395131617
11045977 3 18408885126701298266
11405975 8 18410014312553515096
11552529 35 18042406820148570299
12011746 2 18337955696144572133
12035758 1 18340193138610476905
12236239 1 16588030120941779429
12507560 40 18334858255898701106
12553582 1 15554453967963631462
12633257 1 18336533967686044075
128620 24 10807933782318541688
12916748 109 7637399635906777604
13140716 1 18261674770512171125
13224815 77 18113620054197242844
13533116 47 18040998496330094826
13583140 156 18188496761483289264
13675066 3 18335989679566009496
14142880 1 5761662460218620227
14341114 176 18411133641303040304
15042514 8 18130218264914484987
15196674 1 18261396611535056126
15238133 3 18189037824210199161
15295992 7 17531252712291310617
16945 1 18263624265280129589
17349148 13 18114186353734694029
1813 80 16917068832582650990
19141452 34 18412261710141915635
200 152 17531259343562663789
21033648 29 18269574847653046045
21267235 1 18187642561761492582
21637258 2 15841269251639711577
21682296 61 17314498439383526150
23352939 185 11815893462085441215
23402539 116 16805615780071979501
23559900 14 18411704279485187824
23566358 27 17344331268840592413
26918003 58 18334860515262508576
2838139 119 16733269070790901105
296302 2 17748827401927304085
335352 9 18335139820995865869
34797466 226 17131818885916663076
4015057 19 18189069624374743169
4340502 62 18335410297521342595
5104073 3 18261683575691111250
56616090 46 18341614884143599813
5924683 9 18189340069970441799
9709674 26 18338803303592742158

> <PUBCHEM_SHAPE_MULTIPOLES>
451.63
10.99
2
1.22
5.81
0.92
0.12
1.27
-3.08
-0.36
-0.39
-0.91
0.04
1.04

> <PUBCHEM_SHAPE_SELFOVERLAP>
1011.483

> <PUBCHEM_SHAPE_VOLUME>
237.7

> <PUBCHEM_COORDINATE_TYPE>
2
5
10

$$$$

