13238
  -OEChem-06261207593D

 25 26  0     0  0  0  0  0  0999 V2000
    1.8224   -1.4373    0.0133 O   0  0  0  0  0  0  0  0  0  0  0  0
    3.1210    0.4891    0.0574 N   0  0  0  0  0  0  0  0  0  0  0  0
    0.8401    0.6966    0.0387 N   0  0  0  0  0  0  0  0  0  0  0  0
    4.3007   -0.0504    0.6676 C   0  0  0  0  0  0  0  0  0  0  0  0
    4.2198    0.1406   -0.7948 C   0  0  0  0  0  0  0  0  0  0  0  0
    1.9042   -0.2113    0.0338 C   0  0  0  0  0  0  0  0  0  0  0  0
   -0.5447    0.4141    0.0208 C   0  0  0  0  0  0  0  0  0  0  0  0
   -1.4696    1.4583    0.0297 C   0  0  0  0  0  0  0  0  0  0  0  0
   -0.9867   -0.9087   -0.0059 C   0  0  0  0  0  0  0  0  0  0  0  0
   -3.2781   -0.1429   -0.0147 C   0  0  0  0  0  0  0  0  0  0  0  0
   -2.8363    1.1798    0.0120 C   0  0  0  0  0  0  0  0  0  0  0  0
   -2.3534   -1.1872   -0.0236 C   0  0  0  0  0  0  0  0  0  0  0  0
   -4.7394   -0.4407   -0.0342 C   0  0  0  0  0  0  0  0  0  0  0  0
    4.2034   -1.0456    1.0761 H   0  0  0  0  0  0  0  0  0  0  0  0
    4.8409    0.6712    1.2628 H   0  0  0  0  0  0  0  0  0  0  0  0
    4.7019    0.9978   -1.2411 H   0  0  0  0  0  0  0  0  0  0  0  0
    4.0571   -0.7171   -1.4312 H   0  0  0  0  0  0  0  0  0  0  0  0
    1.0914    1.6819    0.0574 H   0  0  0  0  0  0  0  0  0  0  0  0
   -1.1385    2.4935    0.0499 H   0  0  0  0  0  0  0  0  0  0  0  0
   -0.3321   -1.7688   -0.0150 H   0  0  0  0  0  0  0  0  0  0  0  0
   -3.5469    2.0020    0.0174 H   0  0  0  0  0  0  0  0  0  0  0  0
   -2.6867   -2.2215   -0.0463 H   0  0  0  0  0  0  0  0  0  0  0  0
   -4.9561   -1.3883    0.4707 H   0  0  0  0  0  0  0  0  0  0  0  0
   -5.3084    0.3369    0.4868 H   0  0  0  0  0  0  0  0  0  0  0  0
   -5.0961   -0.5038   -1.0670 H   0  0  0  0  0  0  0  0  0  0  0  0
  1  6  2  0  0  0  0
  2  4  1  0  0  0  0
  2  5  1  0  0  0  0
  2  6  1  0  0  0  0
  3  6  1  0  0  0  0
  3  7  1  0  0  0  0
  3 18  1  0  0  0  0
  4  5  1  0  0  0  0
  4 14  1  0  0  0  0
  4 15  1  0  0  0  0
  5 16  1  0  0  0  0
  5 17  1  0  0  0  0
  7  8  2  0  0  0  0
  7  9  1  0  0  0  0
  8 11  1  0  0  0  0
  8 19  1  0  0  0  0
  9 12  2  0  0  0  0
  9 20  1  0  0  0  0
 10 11  2  0  0  0  0
 10 12  1  0  0  0  0
 10 13  1  0  0  0  0
 11 21  1  0  0  0  0
 12 22  1  0  0  0  0
 13 23  1  0  0  0  0
 13 24  1  0  0  0  0
 13 25  1  0  0  0  0
M  END
> <PUBCHEM_COMPOUND_CID>
13238

> <PUBCHEM_CONFORMER_RMSD>
0.6

> <PUBCHEM_CONFORMER_DIVERSEORDER>
1
4
7
3
5
2
6

> <PUBCHEM_MMFF94_PARTIAL_CHARGES>
22
1 -0.57
10 -0.14
11 -0.15
12 -0.15
13 0.14
14 0.1
15 0.1
16 0.1
17 0.1
18 0.37
19 0.15
2 -0.36
20 0.15
21 0.15
22 0.15
3 -0.55
4 -0.05
5 -0.05
6 0.69
7 0.12
8 -0.15
9 -0.15

> <PUBCHEM_EFFECTIVE_ROTOR_COUNT>
3.6

> <PUBCHEM_PHARMACOPHORE_FEATURES>
3
1 1 acceptor
1 3 donor
6 7 8 9 10 11 12 rings

> <PUBCHEM_HEAVY_ATOM_COUNT>
13

> <PUBCHEM_ATOM_DEF_STEREO_COUNT>
0

> <PUBCHEM_ATOM_UDEF_STEREO_COUNT>
0

> <PUBCHEM_BOND_DEF_STEREO_COUNT>
0

> <PUBCHEM_BOND_UDEF_STEREO_COUNT>
0

> <PUBCHEM_ISOTOPIC_ATOM_COUNT>
0

> <PUBCHEM_COMPONENT_COUNT>
1

> <PUBCHEM_CACTVS_TAUTO_COUNT>
2

> <PUBCHEM_CONFORMER_ID>
000033B600000001

> <PUBCHEM_MMFF94_ENERGY>
44.3696

> <PUBCHEM_FEATURE_SELFOVERLAP>
15.223

> <PUBCHEM_SHAPE_FINGERPRINT>
11062470 55 17203328901129978342
11401426 45 18408609158611145805
12932764 1 17095820891691021422
13380535 76 18412544318694944138
13690532 89 18343866606394496969
14123238 8 17989204832824849783
14144814 61 18411139168572334048
14252887 29 17749658645233533142
14325111 11 18339079397033511593
15219456 202 17968370268452161015
15536298 74 18335701710440933462
1986462 14 18334853948146801604
200 152 17894635846541859725
20201158 50 18408603660341045243
20279233 1 17894627054749177182
20510252 161 18187362190185435713
20528008 55 18335144171887361609
20645477 70 17023175072608563182
21267235 1 18411691084675806378
22485316 2 16805605862886692694
23048698 100 16988844982088485936
23402539 116 18260838090099066725
23402655 69 18336274539193338053
23557571 272 18261663869832816500
23559900 14 18262240036064914158
3312278 4 18412823573384273659
43471831 8 18342178924660498883
474 4 16987425409667072460
5104073 3 18338236071572706442
573450 72 18200606889878343584
69090 78 18113904840346033335
7364860 26 18191867825253238424
9709674 26 18410005559194485446

> <PUBCHEM_SHAPE_MULTIPOLES>
251.7
8.79
1.27
0.69
3.47
0.04
-0.02
-0.48
-0.15
-0.66
0.01
0.34
0.01
-0.07

> <PUBCHEM_SHAPE_SELFOVERLAP>
524.509

> <PUBCHEM_SHAPE_VOLUME>
144.5

> <PUBCHEM_COORDINATE_TYPE>
2
5
10

$$$$

