6487
  -OEChem-06261201213D

 68 72  0     0  0  0  0  0  0999 V2000
   -1.7979    1.3163   -1.7514 Si  0  0  0  0  0  0  0  0  0  0  0  0
    1.3109    1.7943   -1.4991 Si  0  0  0  0  0  0  0  0  0  0  0  0
   -1.3100   -1.7960   -1.4967 Si  0  0  0  0  0  0  0  0  0  0  0  0
    1.7989   -1.3185   -1.7496 Si  0  0  0  0  0  0  0  0  0  0  0  0
   -0.3180    1.7760   -1.1320 O   0  0  0  0  0  0  0  0  0  0  0  0
   -1.7881   -0.3167   -2.1144 O   0  0  0  0  0  0  0  0  0  0  0  0
    1.7892    0.3141   -2.1141 O   0  0  0  0  0  0  0  0  0  0  0  0
    0.3188   -1.7775   -1.1298 O   0  0  0  0  0  0  0  0  0  0  0  0
   -3.0670    1.5280   -0.3691 C   0  0  0  0  0  0  0  0  0  0  0  0
    2.2254    1.9877    0.1418 C   0  0  0  0  0  0  0  0  0  0  0  0
   -2.2262   -1.9863    0.1437 C   0  0  0  0  0  0  0  0  0  0  0  0
    3.0679   -1.5296   -0.3672 C   0  0  0  0  0  0  0  0  0  0  0  0
   -2.2909    2.3504   -3.2222 C   0  0  0  0  0  0  0  0  0  0  0  0
    1.7277    3.1898   -2.6638 C   0  0  0  0  0  0  0  0  0  0  0  0
   -1.7277   -3.1938   -2.6585 C   0  0  0  0  0  0  0  0  0  0  0  0
    2.2924   -2.3538   -3.2193 C   0  0  0  0  0  0  0  0  0  0  0  0
   -4.4285    1.1863   -0.5579 C   0  0  0  0  0  0  0  0  0  0  0  0
    3.4901    2.6218    0.2124 C   0  0  0  0  0  0  0  0  0  0  0  0
   -3.4911   -2.6196    0.2139 C   0  0  0  0  0  0  0  0  0  0  0  0
    4.4295   -1.1883   -0.5560 C   0  0  0  0  0  0  0  0  0  0  0  0
   -2.7003    2.0348    0.9016 C   0  0  0  0  0  0  0  0  0  0  0  0
    1.6781    1.5059    1.3561 C   0  0  0  0  0  0  0  0  0  0  0  0
   -1.6795   -1.5029    1.3575 C   0  0  0  0  0  0  0  0  0  0  0  0
    2.7012   -2.0356    0.9040 C   0  0  0  0  0  0  0  0  0  0  0  0
   -5.3667    1.3419    0.4624 C   0  0  0  0  0  0  0  0  0  0  0  0
    4.1662    2.7655    1.4239 C   0  0  0  0  0  0  0  0  0  0  0  0
   -4.1683   -2.7612    1.4251 C   0  0  0  0  0  0  0  0  0  0  0  0
    5.3676   -1.3434    0.4645 C   0  0  0  0  0  0  0  0  0  0  0  0
   -3.6386    2.1904    1.9220 C   0  0  0  0  0  0  0  0  0  0  0  0
    2.3543    1.6497    2.5677 C   0  0  0  0  0  0  0  0  0  0  0  0
   -2.3569   -1.6445    2.5688 C   0  0  0  0  0  0  0  0  0  0  0  0
    3.6394   -2.1907    1.9245 C   0  0  0  0  0  0  0  0  0  0  0  0
   -4.9718    1.8440    1.7025 C   0  0  0  0  0  0  0  0  0  0  0  0
    3.5984    2.2796    2.6016 C   0  0  0  0  0  0  0  0  0  0  0  0
   -3.6013   -2.2736    2.6025 C   0  0  0  0  0  0  0  0  0  0  0  0
    4.9727   -1.8446    1.7047 C   0  0  0  0  0  0  0  0  0  0  0  0
   -1.5714    2.2323   -4.0381 H   0  0  0  0  0  0  0  0  0  0  0  0
   -2.3310    3.4115   -2.9582 H   0  0  0  0  0  0  0  0  0  0  0  0
   -3.2757    2.0562   -3.5974 H   0  0  0  0  0  0  0  0  0  0  0  0
    1.1605    3.0974   -3.5950 H   0  0  0  0  0  0  0  0  0  0  0  0
    2.7913    3.1879   -2.9198 H   0  0  0  0  0  0  0  0  0  0  0  0
    1.4857    4.1587   -2.2168 H   0  0  0  0  0  0  0  0  0  0  0  0
   -2.7912   -3.1915   -2.9150 H   0  0  0  0  0  0  0  0  0  0  0  0
   -1.4868   -4.1618   -2.2090 H   0  0  0  0  0  0  0  0  0  0  0  0
   -1.1598   -3.1041   -3.5895 H   0  0  0  0  0  0  0  0  0  0  0  0
    2.3326   -3.4146   -2.9545 H   0  0  0  0  0  0  0  0  0  0  0  0
    3.2772   -2.0598   -3.5946 H   0  0  0  0  0  0  0  0  0  0  0  0
    1.5730   -2.2365   -4.0355 H   0  0  0  0  0  0  0  0  0  0  0  0
   -4.7667    0.7902   -1.5138 H   0  0  0  0  0  0  0  0  0  0  0  0
    3.9646    3.0083   -0.6874 H   0  0  0  0  0  0  0  0  0  0  0  0
   -3.9651   -3.0073   -0.6857 H   0  0  0  0  0  0  0  0  0  0  0  0
    4.7678   -0.7928   -1.5122 H   0  0  0  0  0  0  0  0  0  0  0  0
   -1.6701    2.3158    1.1101 H   0  0  0  0  0  0  0  0  0  0  0  0
    0.7105    1.0090    1.3651 H   0  0  0  0  0  0  0  0  0  0  0  0
   -0.7116   -1.0066    1.3664 H   0  0  0  0  0  0  0  0  0  0  0  0
    1.6710   -2.3163    1.1126 H   0  0  0  0  0  0  0  0  0  0  0  0
   -6.4045    1.0708    0.2922 H   0  0  0  0  0  0  0  0  0  0  0  0
    5.1358    3.2541    1.4503 H   0  0  0  0  0  0  0  0  0  0  0  0
   -5.1383   -3.2492    1.4515 H   0  0  0  0  0  0  0  0  0  0  0  0
    6.4054   -1.0725    0.2941 H   0  0  0  0  0  0  0  0  0  0  0  0
   -3.3310    2.5801    2.8880 H   0  0  0  0  0  0  0  0  0  0  0  0
    1.9129    1.2697    3.4843 H   0  0  0  0  0  0  0  0  0  0  0  0
   -1.9160   -1.2633    3.4851 H   0  0  0  0  0  0  0  0  0  0  0  0
    3.3318   -2.5798    2.8907 H   0  0  0  0  0  0  0  0  0  0  0  0
   -5.7020    1.9639    2.4973 H   0  0  0  0  0  0  0  0  0  0  0  0
    4.1255    2.3902    3.5446 H   0  0  0  0  0  0  0  0  0  0  0  0
   -4.1294   -2.3824    3.5453 H   0  0  0  0  0  0  0  0  0  0  0  0
    5.7028   -1.9641    2.4997 H   0  0  0  0  0  0  0  0  0  0  0  0
  1  5  1  0  0  0  0
  1  6  1  0  0  0  0
  1  9  1  0  0  0  0
  1 13  1  0  0  0  0
  2  5  1  0  0  0  0
  2  7  1  0  0  0  0
  2 10  1  0  0  0  0
  2 14  1  0  0  0  0
  3  6  1  0  0  0  0
  3  8  1  0  0  0  0
  3 11  1  0  0  0  0
  3 15  1  0  0  0  0
  4  7  1  0  0  0  0
  4  8  1  0  0  0  0
  4 12  1  0  0  0  0
  4 16  1  0  0  0  0
  9 17  2  0  0  0  0
  9 21  1  0  0  0  0
 10 18  2  0  0  0  0
 10 22  1  0  0  0  0
 11 19  2  0  0  0  0
 11 23  1  0  0  0  0
 12 20  2  0  0  0  0
 12 24  1  0  0  0  0
 13 37  1  0  0  0  0
 13 38  1  0  0  0  0
 13 39  1  0  0  0  0
 14 40  1  0  0  0  0
 14 41  1  0  0  0  0
 14 42  1  0  0  0  0
 15 43  1  0  0  0  0
 15 44  1  0  0  0  0
 15 45  1  0  0  0  0
 16 46  1  0  0  0  0
 16 47  1  0  0  0  0
 16 48  1  0  0  0  0
 17 25  1  0  0  0  0
 17 49  1  0  0  0  0
 18 26  1  0  0  0  0
 18 50  1  0  0  0  0
 19 27  1  0  0  0  0
 19 51  1  0  0  0  0
 20 28  1  0  0  0  0
 20 52  1  0  0  0  0
 21 29  2  0  0  0  0
 21 53  1  0  0  0  0
 22 30  2  0  0  0  0
 22 54  1  0  0  0  0
 23 31  2  0  0  0  0
 23 55  1  0  0  0  0
 24 32  2  0  0  0  0
 24 56  1  0  0  0  0
 25 33  2  0  0  0  0
 25 57  1  0  0  0  0
 26 34  2  0  0  0  0
 26 58  1  0  0  0  0
 27 35  2  0  0  0  0
 27 59  1  0  0  0  0
 28 36  2  0  0  0  0
 28 60  1  0  0  0  0
 29 33  1  0  0  0  0
 29 61  1  0  0  0  0
 30 34  1  0  0  0  0
 30 62  1  0  0  0  0
 31 35  1  0  0  0  0
 31 63  1  0  0  0  0
 32 36  1  0  0  0  0
 32 64  1  0  0  0  0
 33 65  1  0  0  0  0
 34 66  1  0  0  0  0
 35 67  1  0  0  0  0
 36 68  1  0  0  0  0
M  END
> <PUBCHEM_COMPOUND_CID>
6487

> <PUBCHEM_CONFORMER_RMSD>
0.8

> <PUBCHEM_CONFORMER_DIVERSEORDER>
1
5
2
4
3

> <PUBCHEM_MMFF94_PARTIAL_CHARGES>
56
1 0.9
10 -0.22
11 -0.22
12 -0.22
13 -0.08
14 -0.08
15 -0.08
16 -0.08
17 -0.15
18 -0.15
19 -0.15
2 0.9
20 -0.15
21 -0.15
22 -0.15
23 -0.15
24 -0.15
25 -0.15
26 -0.15
27 -0.15
28 -0.15
29 -0.15
3 0.9
30 -0.15
31 -0.15
32 -0.15
33 -0.15
34 -0.15
35 -0.15
36 -0.15
4 0.9
49 0.15
5 -0.59
50 0.15
51 0.15
52 0.15
53 0.15
54 0.15
55 0.15
56 0.15
57 0.15
58 0.15
59 0.15
6 -0.59
60 0.15
61 0.15
62 0.15
63 0.15
64 0.15
65 0.15
66 0.15
67 0.15
68 0.15
7 -0.59
8 -0.59
9 -0.22

> <PUBCHEM_EFFECTIVE_ROTOR_COUNT>
5.6

> <PUBCHEM_PHARMACOPHORE_FEATURES>
4
6 10 18 22 26 30 34 rings
6 11 19 23 27 31 35 rings
6 12 20 24 28 32 36 rings
6 9 17 21 25 29 33 rings

> <PUBCHEM_HEAVY_ATOM_COUNT>
36

> <PUBCHEM_ATOM_DEF_STEREO_COUNT>
0

> <PUBCHEM_ATOM_UDEF_STEREO_COUNT>
0

> <PUBCHEM_BOND_DEF_STEREO_COUNT>
0

> <PUBCHEM_BOND_UDEF_STEREO_COUNT>
0

> <PUBCHEM_ISOTOPIC_ATOM_COUNT>
0

> <PUBCHEM_COMPONENT_COUNT>
1

> <PUBCHEM_CACTVS_TAUTO_COUNT>
1

> <PUBCHEM_CONFORMER_ID>
0000195700000001

> <PUBCHEM_MMFF94_ENERGY>
53.5346

> <PUBCHEM_FEATURE_SELFOVERLAP>
20.297

> <PUBCHEM_SHAPE_FINGERPRINT>
11578080 2 18262225634480739489
12107698 1 18410857629271938659
12422481 6 18410573942201778181
12633257 1 18338516451243065459
13140716 1 18410855464423129605
13965767 371 17970896770169133158
15444296 121 18116704304762526624
17974551 9 18410856598294495520
20764821 26 17968097490831879177
21033648 29 17749669704922545878
2818148 4 17703210867429338142
3459 110 18409729534472874498
35225 105 18201168757695424987

> <PUBCHEM_SHAPE_MULTIPOLES>
790.24
9.99
4.52
3.63
0
0
0.59
0
-6.47
-0.01
0.11
0
0
1.18

> <PUBCHEM_SHAPE_SELFOVERLAP>
1627.804

> <PUBCHEM_SHAPE_VOLUME>
451.3

> <PUBCHEM_COORDINATE_TYPE>
2
5
10

$$$$

