17395503
  -OEChem-06241222503D

 43 44  0     1  0  0  0  0  0999 V2000
    4.1776   -0.5494   -1.1732 O   0  0  0  0  0  0  0  0  0  0  0  0
    1.1077    1.4594    2.0041 O   0  0  0  0  0  0  0  0  0  0  0  0
   -4.1606    1.3233   -0.3762 O   0  0  0  0  0  0  0  0  0  0  0  0
   -4.4080   -0.8564   -1.0424 O   0  0  0  0  0  0  0  0  0  0  0  0
    2.0945   -0.1632    0.6811 N   0  0  0  0  0  0  0  0  0  0  0  0
   -0.7620   -1.2664    1.1260 N   0  0  0  0  0  0  0  0  0  0  0  0
    3.4535    0.2750    0.9936 C   0  0  0  0  0  0  0  0  0  0  0  0
    2.0396   -1.2938   -0.2526 C   0  0  0  0  0  0  0  0  0  0  0  0
    4.2091    0.5851   -0.2975 C   0  0  1  0  0  0  0  0  0  0  0  0
    2.8566   -0.9910   -1.5123 C   0  0  1  0  0  0  0  0  0  0  0  0
    0.9895    0.4996    1.2408 C   0  0  0  0  0  0  0  0  0  0  0  0
    5.6702    0.9046   -0.0109 C   0  0  0  0  0  0  0  0  0  0  0  0
    2.1566   -0.0091   -2.4502 C   0  0  0  0  0  0  0  0  0  0  0  0
   -0.3339    0.0109    0.8746 C   0  0  0  0  0  0  0  0  0  0  0  0
   -1.3579    0.6826    0.2441 C   0  0  0  0  0  0  0  0  0  0  0  0
   -2.4397   -0.2227    0.1123 C   0  0  0  0  0  0  0  0  0  0  0  0
   -2.0440   -1.4200    0.6663 C   0  0  0  0  0  0  0  0  0  0  0  0
   -1.3337    2.0886   -0.2119 C   0  0  0  0  0  0  0  0  0  0  0  0
   -2.7522   -2.7069    0.8103 C   0  0  0  0  0  0  0  0  0  0  0  0
   -3.7256    0.0172   -0.4797 C   0  0  0  0  0  0  0  0  0  0  0  0
   -5.4373    1.6325   -0.9465 C   0  0  0  0  0  0  0  0  0  0  0  0
    3.9299   -0.5528    1.5331 H   0  0  0  0  0  0  0  0  0  0  0  0
    3.4459    1.1468    1.6552 H   0  0  0  0  0  0  0  0  0  0  0  0
    1.0257   -1.5662   -0.5428 H   0  0  0  0  0  0  0  0  0  0  0  0
    2.4795   -2.1470    0.2777 H   0  0  0  0  0  0  0  0  0  0  0  0
    3.7614    1.4454   -0.8075 H   0  0  0  0  0  0  0  0  0  0  0  0
    2.9855   -1.9288   -2.0655 H   0  0  0  0  0  0  0  0  0  0  0  0
    6.1752    0.0513    0.4551 H   0  0  0  0  0  0  0  0  0  0  0  0
    6.2043    1.1139   -0.9440 H   0  0  0  0  0  0  0  0  0  0  0  0
    5.7658    1.7728    0.6482 H   0  0  0  0  0  0  0  0  0  0  0  0
    1.9136    0.9358   -1.9544 H   0  0  0  0  0  0  0  0  0  0  0  0
    2.8031    0.2325   -3.3004 H   0  0  0  0  0  0  0  0  0  0  0  0
    1.2227   -0.4351   -2.8307 H   0  0  0  0  0  0  0  0  0  0  0  0
   -0.2169   -1.9832    1.5858 H   0  0  0  0  0  0  0  0  0  0  0  0
   -1.9079    2.7235    0.4704 H   0  0  0  0  0  0  0  0  0  0  0  0
   -0.3139    2.4843   -0.2579 H   0  0  0  0  0  0  0  0  0  0  0  0
   -1.7560    2.1838   -1.2176 H   0  0  0  0  0  0  0  0  0  0  0  0
   -2.8719   -3.1886   -0.1655 H   0  0  0  0  0  0  0  0  0  0  0  0
   -2.2092   -3.3996    1.4619 H   0  0  0  0  0  0  0  0  0  0  0  0
   -3.7459   -2.5561    1.2442 H   0  0  0  0  0  0  0  0  0  0  0  0
   -5.6346    2.6950   -0.7823 H   0  0  0  0  0  0  0  0  0  0  0  0
   -6.2209    1.0481   -0.4554 H   0  0  0  0  0  0  0  0  0  0  0  0
   -5.4259    1.4381   -2.0229 H   0  0  0  0  0  0  0  0  0  0  0  0
  1  9  1  0  0  0  0
  1 10  1  0  0  0  0
  2 11  2  0  0  0  0
  3 20  1  0  0  0  0
  3 21  1  0  0  0  0
  4 20  2  0  0  0  0
  5  7  1  0  0  0  0
  5  8  1  0  0  0  0
  5 11  1  0  0  0  0
  6 14  1  0  0  0  0
  6 17  1  0  0  0  0
  6 34  1  0  0  0  0
  7  9  1  0  0  0  0
  7 22  1  0  0  0  0
  7 23  1  0  0  0  0
  8 10  1  0  0  0  0
  8 24  1  0  0  0  0
  8 25  1  0  0  0  0
  9 12  1  0  0  0  0
  9 26  1  0  0  0  0
 10 13  1  0  0  0  0
 10 27  1  0  0  0  0
 11 14  1  0  0  0  0
 12 28  1  0  0  0  0
 12 29  1  0  0  0  0
 12 30  1  0  0  0  0
 13 31  1  0  0  0  0
 13 32  1  0  0  0  0
 13 33  1  0  0  0  0
 14 15  2  0  0  0  0
 15 16  1  0  0  0  0
 15 18  1  0  0  0  0
 16 17  2  0  0  0  0
 16 20  1  0  0  0  0
 17 19  1  0  0  0  0
 18 35  1  0  0  0  0
 18 36  1  0  0  0  0
 18 37  1  0  0  0  0
 19 38  1  0  0  0  0
 19 39  1  0  0  0  0
 19 40  1  0  0  0  0
 21 41  1  0  0  0  0
 21 42  1  0  0  0  0
 21 43  1  0  0  0  0
M  END
> <PUBCHEM_COMPOUND_CID>
17395503

> <PUBCHEM_CONFORMER_RMSD>
0.8

> <PUBCHEM_CONFORMER_DIVERSEORDER>
9
67
6
51
19
60
77
44
20
53
76
18
32
86
70
81
80
79
73
5
84
71
34
74
35
87
45
58
23
16
85
42
69
22
30
83
21
39
78
33
40
28
47
24
65
52
63
61
82
57
72
55
26
50
31
66
14
46
49
13
8
59
56
17
54
48
62
64
1
43
25
68
75
3
41
37
38
7
36
15
11
29
27
2
10
4
12

> <PUBCHEM_MMFF94_PARTIAL_CHARGES>
20
1 -0.56
10 0.28
11 0.71
14 -0.24
15 -0.18
16 -0.09
17 -0.33
18 0.18
19 0.18
2 -0.57
20 0.81
21 0.28
3 -0.43
34 0.27
4 -0.57
5 -0.66
6 0.03
7 0.3
8 0.3
9 0.28

> <PUBCHEM_EFFECTIVE_ROTOR_COUNT>
5.2

> <PUBCHEM_PHARMACOPHORE_FEATURES>
7
1 1 acceptor
1 2 acceptor
1 4 acceptor
1 6 cation
1 6 donor
5 6 14 15 16 17 rings
6 1 5 7 8 9 10 rings

> <PUBCHEM_HEAVY_ATOM_COUNT>
21

> <PUBCHEM_ATOM_DEF_STEREO_COUNT>
0

> <PUBCHEM_ATOM_UDEF_STEREO_COUNT>
2

> <PUBCHEM_BOND_DEF_STEREO_COUNT>
0

> <PUBCHEM_BOND_UDEF_STEREO_COUNT>
0

> <PUBCHEM_ISOTOPIC_ATOM_COUNT>
0

> <PUBCHEM_COMPONENT_COUNT>
1

> <PUBCHEM_CACTVS_TAUTO_COUNT>
3

> <PUBCHEM_CONFORMER_ID>
01096F2F00000009

> <PUBCHEM_MMFF94_ENERGY>
43.1598

> <PUBCHEM_FEATURE_SELFOVERLAP>
35.52

> <PUBCHEM_SHAPE_FINGERPRINT>
10498660 4 18343299275326572372
11370993 70 18342172280535859710
11640471 11 16917064464674854466
11796584 16 18342176687610363290
12236239 1 17060624395189120448
12788726 201 18042408091717249641
12892183 10 8069752841102788934
13911987 19 17531803551007091052
14251764 38 17629751280450493876
14386348 63 18113896039884119106
14790565 3 18050565446284020169
15295992 7 14404887069138674756
15375358 24 18260551116947116370
15635459 17 17603301561818164502
17980427 23 17346033351911430580
18222031 100 14418139530022122008
192875 21 16486971757197421812
200 152 16226046695247875427
20600515 1 18125749853337486265
20645476 183 17274823536862375947
20645477 70 17240769440903478936
20871999 31 18272373027646801547
21285901 2 17895195575080496493
21637258 2 13912322417331400340
22079108 93 15051722102059453481
23402539 116 18131355172463544530
23526113 38 17968094265469559274
23557571 272 18342170012555328242
23559900 14 18410853291945403674
2748010 2 18193844743223163315
2838139 119 17699554863357429404
2871803 45 17313099787361739820
33382 64 16081665366104268951
3472631 163 18060418006064369149
465052 167 6410717437017145301
474 4 15841547457919579680
4990 188 18187094970394811257
5104073 3 14117223998522811228
9709674 26 18187654548529931971

> <PUBCHEM_SHAPE_MULTIPOLES>
398.73
10.29
1.93
1.62
0.58
0.54
0.43
-3.17
3.17
-2.34
-0.19
1.24
-0.12
0.95

> <PUBCHEM_SHAPE_SELFOVERLAP>
829.777

> <PUBCHEM_SHAPE_VOLUME>
229.1

> <PUBCHEM_COORDINATE_TYPE>
2
5
10

$$$$

