16069993
  -OEChem-07051212512D

 21 21  0     1  0  0  0  0  0999 V2000
    5.0298   -0.3807    0.0000 O   0  0  0  0  0  0  0  0  0  0  0  0
    2.4608   -0.0716    0.0000 O   0  0  0  0  0  0  0  0  0  0  0  0
    3.1330   -2.1407    0.0000 O   0  0  0  0  0  0  0  0  0  0  0  0
    3.3548    1.7071    0.0000 O   0  0  0  0  0  0  0  0  0  0  0  0
    5.0868    2.7071    0.0000 O   0  0  0  0  0  0  0  0  0  0  0  0
    4.2208    0.2071    0.0000 C   0  0  1  0  0  0  0  0  0  0  0  0
    3.4118   -0.3807    0.0000 C   0  0  1  0  0  0  0  0  0  0  0  0
    3.7208   -1.3317    0.0000 C   0  0  1  0  0  0  0  0  0  0  0  0
    4.7208   -1.3317    0.0000 C   0  0  0  0  0  0  0  0  0  0  0  0
    4.2208    1.2071    0.0000 C   0  0  2  0  0  0  0  0  0  0  0  0
    5.0868    1.7071    0.0000 C   0  0  0  0  0  0  0  0  0  0  0  0
    4.9782    0.5930    0.0000 H   0  0  0  0  0  0  0  0  0  0  0  0
    2.9734   -0.8191    0.0000 H   0  0  0  0  0  0  0  0  0  0  0  0
    3.1085   -1.2347    0.0000 H   0  0  0  0  0  0  0  0  0  0  0  0
    4.6560   -1.9483    0.0000 H   0  0  0  0  0  0  0  0  0  0  0  0
    5.3273   -1.4606    0.0000 H   0  0  0  0  0  0  0  0  0  0  0  0
    4.2208    1.8271    0.0000 H   0  0  0  0  0  0  0  0  0  0  0  0
    2.0000   -0.4865    0.0000 H   0  0  0  0  0  0  0  0  0  0  0  0
    3.3852   -2.7071    0.0000 H   0  0  0  0  0  0  0  0  0  0  0  0
    5.6238    1.3971    0.0000 H   0  0  0  0  0  0  0  0  0  0  0  0
    3.3548    2.3271    0.0000 H   0  0  0  0  0  0  0  0  0  0  0  0
  1  6  1  0  0  0  0
  1  9  1  0  0  0  0
  7  2  1  1  0  0  0
  2 18  1  0  0  0  0
  8  3  1  1  0  0  0
  3 19  1  0  0  0  0
 10  4  1  1  0  0  0
  4 21  1  0  0  0  0
  5 11  2  0  0  0  0
  6  7  1  0  0  0  0
  6 10  1  0  0  0  0
  6 12  1  6  0  0  0
  7  8  1  0  0  0  0
  7 13  1  0  0  0  0
  8  9  1  0  0  0  0
  8 14  1  0  0  0  0
  9 15  1  0  0  0  0
  9 16  1  0  0  0  0
 10 11  1  0  0  0  0
 10 17  1  0  0  0  0
 11 20  1  0  0  0  0
M  END
> <PUBCHEM_COMPOUND_CID>
16069993

> <PUBCHEM_COMPOUND_CANONICALIZED>
1

> <PUBCHEM_CACTVS_COMPLEXITY>
148

> <PUBCHEM_CACTVS_HBOND_ACCEPTOR>
5

> <PUBCHEM_CACTVS_HBOND_DONOR>
3

> <PUBCHEM_CACTVS_ROTATABLE_BOND>
2

> <PUBCHEM_CACTVS_SUBSKEYS>
AAADccBgOAAAAAAAAAAAAAAAAAAAASAAAAAAAAAAAAAAAAAAAAAAGgAACAAACBSggAIAAAAABgAIAAgQgAIAAAAAAAAAAAFAAAABEBYAAAACQAAFIAADAAHKbARAAAAAAAAAAAAAAAAAAAAAAAAAAAAAAA==

> <PUBCHEM_IUPAC_OPENEYE_NAME>
(2R)-2-[(2S,3R,4R)-3,4-dihydroxytetrahydrofuran-2-yl]-2-hydroxy-acetaldehyde

> <PUBCHEM_IUPAC_CAS_NAME>
(2R)-2-[(2S,3R,4R)-3,4-dihydroxy-2-oxolanyl]-2-hydroxyacetaldehyde

> <PUBCHEM_IUPAC_NAME>
(2R)-2-[(2S,3R,4R)-3,4-dihydroxyoxolan-2-yl]-2-hydroxyacetaldehyde

> <PUBCHEM_IUPAC_SYSTEMATIC_NAME>
(2R)-2-[(2S,3R,4R)-3,4-bis(oxidanyl)oxolan-2-yl]-2-oxidanyl-ethanal

> <PUBCHEM_IUPAC_TRADITIONAL_NAME>
(2R)-2-[(2S,3R,4R)-3,4-dihydroxytetrahydrofuran-2-yl]-2-hydroxy-acetaldehyde

> <PUBCHEM_IUPAC_INCHI>
InChI=1S/C6H10O5/c7-1-3(8)6-5(10)4(9)2-11-6/h1,3-6,8-10H,2H2/t3-,4+,5+,6+/m0/s1

> <PUBCHEM_IUPAC_INCHIKEY>
WZYRMLAWNVOIEX-SLPGGIOYSA-N

> <PUBCHEM_XLOGP3_AA>
-1.9

> <PUBCHEM_EXACT_MASS>
162.052823

> <PUBCHEM_MOLECULAR_FORMULA>
C6H10O5

> <PUBCHEM_MOLECULAR_WEIGHT>
162.1406

> <PUBCHEM_OPENEYE_CAN_SMILES>
C1C(C(C(O1)C(C=O)O)O)O

> <PUBCHEM_OPENEYE_ISO_SMILES>
C1[C@H]([C@H]([C@H](O1)[C@H](C=O)O)O)O

> <PUBCHEM_CACTVS_TPSA>
87

> <PUBCHEM_MONOISOTOPIC_WEIGHT>
162.052823

> <PUBCHEM_TOTAL_CHARGE>
0

> <PUBCHEM_HEAVY_ATOM_COUNT>
11

> <PUBCHEM_ATOM_DEF_STEREO_COUNT>
4

> <PUBCHEM_ATOM_UDEF_STEREO_COUNT>
0

> <PUBCHEM_BOND_DEF_STEREO_COUNT>
0

> <PUBCHEM_BOND_UDEF_STEREO_COUNT>
0

> <PUBCHEM_ISOTOPIC_ATOM_COUNT>
0

> <PUBCHEM_COMPONENT_COUNT>
1

> <PUBCHEM_CACTVS_TAUTO_COUNT>
4

> <PUBCHEM_COORDINATE_TYPE>
1
5
255

> <PUBCHEM_BONDANNOTATIONS>
7  2  5
8  3  5
10  4  5
6  12  6

$$$$

