23724693
  -OEChem-07051213083D

101101  0     0  0  0  0  0  0999 V2000
   15.7432    1.2302   -1.6842 O   0  0  0  0  0  0  0  0  0  0  0  0
   12.1685    0.7803    1.9381 O   0  0  0  0  0  0  0  0  0  0  0  0
  -14.4691    1.2839   -0.5177 C   0  0  0  0  0  0  0  0  0  0  0  0
  -15.6852    0.5659   -1.1647 C   0  0  0  0  0  0  0  0  0  0  0  0
  -16.1413   -0.6346   -0.3550 C   0  0  0  0  0  0  0  0  0  0  0  0
  -13.4025    0.2734   -0.0342 C   0  0  0  0  0  0  0  0  0  0  0  0
  -15.0143   -1.6510   -0.2500 C   0  0  0  0  0  0  0  0  0  0  0  0
  -13.6546   -1.0567    0.0572 C   0  0  0  0  0  0  0  0  0  0  0  0
  -14.9626    2.1273    0.6805 C   0  0  0  0  0  0  0  0  0  0  0  0
  -13.9153    2.2431   -1.5995 C   0  0  0  0  0  0  0  0  0  0  0  0
  -12.1194    0.8447    0.3410 C   0  0  0  0  0  0  0  0  0  0  0  0
  -12.6592   -2.1177    0.4669 C   0  0  0  0  0  0  0  0  0  0  0  0
  -10.9445    0.2573    0.0627 C   0  0  0  0  0  0  0  0  0  0  0  0
   -9.6177    0.7702    0.4046 C   0  0  0  0  0  0  0  0  0  0  0  0
   -9.5499    2.0865    1.1443 C   0  0  0  0  0  0  0  0  0  0  0  0
   -8.4613    0.1411    0.1023 C   0  0  0  0  0  0  0  0  0  0  0  0
   15.8772    1.4539   -0.2807 C   0  0  0  0  0  0  0  0  0  0  0  0
   14.4790    1.4006    0.3737 C   0  0  0  0  0  0  0  0  0  0  0  0
   13.7181    0.0774    0.2478 C   0  0  0  0  0  0  0  0  0  0  0  0
   16.7440    0.3233    0.2866 C   0  0  0  0  0  0  0  0  0  0  0  0
   16.5741    2.7996   -0.0693 C   0  0  0  0  0  0  0  0  0  0  0  0
   -7.1047    0.5614    0.3938 C   0  0  0  0  0  0  0  0  0  0  0  0
   12.3750    0.0702    0.9545 C   0  0  0  0  0  0  0  0  0  0  0  0
   -6.0292   -0.1594    0.0369 C   0  0  0  0  0  0  0  0  0  0  0  0
   14.9742    2.2525   -2.2981 C   0  0  0  0  0  0  0  0  0  0  0  0
   11.3022   -0.8263    0.4165 C   0  0  0  0  0  0  0  0  0  0  0  0
   -4.6520    0.2249    0.3091 C   0  0  0  0  0  0  0  0  0  0  0  0
   11.7416   -2.1010   -0.2329 C   0  0  0  0  0  0  0  0  0  0  0  0
   10.0436   -0.3915    0.6048 C   0  0  0  0  0  0  0  0  0  0  0  0
   -4.5229    1.5176    1.0702 C   0  0  0  0  0  0  0  0  0  0  0  0
   -3.5577   -0.4816   -0.0390 C   0  0  0  0  0  0  0  0  0  0  0  0
    8.8369   -1.0604    0.1654 C   0  0  0  0  0  0  0  0  0  0  0  0
    7.6094   -0.5647    0.3899 C   0  0  0  0  0  0  0  0  0  0  0  0
   -2.1641   -0.1632    0.1971 C   0  0  0  0  0  0  0  0  0  0  0  0
    6.3700   -1.2064   -0.0221 C   0  0  0  0  0  0  0  0  0  0  0  0
   -1.1269   -0.9248   -0.1842 C   0  0  0  0  0  0  0  0  0  0  0  0
    6.5774   -2.5329   -0.7053 C   0  0  0  0  0  0  0  0  0  0  0  0
    5.1269   -0.7300    0.1909 C   0  0  0  0  0  0  0  0  0  0  0  0
    0.2655   -0.6069    0.0516 C   0  0  0  0  0  0  0  0  0  0  0  0
    3.8703   -1.3393   -0.2038 C   0  0  0  0  0  0  0  0  0  0  0  0
    1.3609   -1.3145   -0.2971 C   0  0  0  0  0  0  0  0  0  0  0  0
    2.6778   -0.7781    0.0590 C   0  0  0  0  0  0  0  0  0  0  0  0
    1.3187   -2.6441   -1.0075 C   0  0  0  0  0  0  0  0  0  0  0  0
  -15.4245    0.2236   -2.1760 H   0  0  0  0  0  0  0  0  0  0  0  0
  -16.5236    1.2636   -1.2859 H   0  0  0  0  0  0  0  0  0  0  0  0
  -16.4626   -0.3230    0.6455 H   0  0  0  0  0  0  0  0  0  0  0  0
  -17.0118   -1.1000   -0.8317 H   0  0  0  0  0  0  0  0  0  0  0  0
  -14.9379   -2.2074   -1.1930 H   0  0  0  0  0  0  0  0  0  0  0  0
  -15.2942   -2.3753    0.5248 H   0  0  0  0  0  0  0  0  0  0  0  0
  -15.8041    2.7675    0.3912 H   0  0  0  0  0  0  0  0  0  0  0  0
  -15.2958    1.4969    1.5123 H   0  0  0  0  0  0  0  0  0  0  0  0
  -14.1797    2.7899    1.0655 H   0  0  0  0  0  0  0  0  0  0  0  0
  -13.1269    2.8943   -1.2057 H   0  0  0  0  0  0  0  0  0  0  0  0
  -13.4952    1.6865   -2.4455 H   0  0  0  0  0  0  0  0  0  0  0  0
  -14.7057    2.8961   -1.9882 H   0  0  0  0  0  0  0  0  0  0  0  0
  -12.1558    1.7769    0.8945 H   0  0  0  0  0  0  0  0  0  0  0  0
  -11.9383   -1.7749    1.2131 H   0  0  0  0  0  0  0  0  0  0  0  0
  -13.1725   -2.9566    0.9525 H   0  0  0  0  0  0  0  0  0  0  0  0
  -12.1441   -2.5246   -0.4087 H   0  0  0  0  0  0  0  0  0  0  0  0
  -10.9093   -0.6441   -0.5429 H   0  0  0  0  0  0  0  0  0  0  0  0
  -10.0430    2.8700    0.5560 H   0  0  0  0  0  0  0  0  0  0  0  0
  -10.0719    2.0009    2.1050 H   0  0  0  0  0  0  0  0  0  0  0  0
   -8.5602    2.4753    1.3767 H   0  0  0  0  0  0  0  0  0  0  0  0
   -8.5344   -0.8081   -0.4301 H   0  0  0  0  0  0  0  0  0  0  0  0
   13.8336    2.2187    0.0349 H   0  0  0  0  0  0  0  0  0  0  0  0
   14.6138    1.6027    1.4466 H   0  0  0  0  0  0  0  0  0  0  0  0
   14.2964   -0.7446    0.6813 H   0  0  0  0  0  0  0  0  0  0  0  0
   13.5624   -0.1317   -0.8157 H   0  0  0  0  0  0  0  0  0  0  0  0
   16.3904   -0.6625   -0.0331 H   0  0  0  0  0  0  0  0  0  0  0  0
   17.7686    0.4025   -0.0968 H   0  0  0  0  0  0  0  0  0  0  0  0
   16.7894    0.3522    1.3801 H   0  0  0  0  0  0  0  0  0  0  0  0
   16.9414    2.8868    0.9599 H   0  0  0  0  0  0  0  0  0  0  0  0
   17.4272    2.9208   -0.7464 H   0  0  0  0  0  0  0  0  0  0  0  0
   15.9016    3.6503   -0.2224 H   0  0  0  0  0  0  0  0  0  0  0  0
   -6.9760    1.4946    0.9196 H   0  0  0  0  0  0  0  0  0  0  0  0
   14.9578    2.0226   -3.3696 H   0  0  0  0  0  0  0  0  0  0  0  0
   15.4200    3.2462   -2.2194 H   0  0  0  0  0  0  0  0  0  0  0  0
   13.9281    2.2534   -1.9858 H   0  0  0  0  0  0  0  0  0  0  0  0
   -6.1625   -1.0995   -0.4952 H   0  0  0  0  0  0  0  0  0  0  0  0
   12.0509   -1.9198   -1.2669 H   0  0  0  0  0  0  0  0  0  0  0  0
   10.9565   -2.8619   -0.2433 H   0  0  0  0  0  0  0  0  0  0  0  0
   12.5841   -2.5428    0.3100 H   0  0  0  0  0  0  0  0  0  0  0  0
    9.8741    0.5609    1.1055 H   0  0  0  0  0  0  0  0  0  0  0  0
   -5.0329    1.4550    2.0393 H   0  0  0  0  0  0  0  0  0  0  0  0
   -3.5004    1.8145    1.3073 H   0  0  0  0  0  0  0  0  0  0  0  0
   -4.9398    2.3530    0.4948 H   0  0  0  0  0  0  0  0  0  0  0  0
    8.9825   -1.9917   -0.3679 H   0  0  0  0  0  0  0  0  0  0  0  0
   -3.7190   -1.4165   -0.5769 H   0  0  0  0  0  0  0  0  0  0  0  0
    7.4985    0.3789    0.9210 H   0  0  0  0  0  0  0  0  0  0  0  0
   -1.9314    0.7588    0.7182 H   0  0  0  0  0  0  0  0  0  0  0  0
   -1.3447   -1.8497   -0.7094 H   0  0  0  0  0  0  0  0  0  0  0  0
    7.1405   -2.4051   -1.6377 H   0  0  0  0  0  0  0  0  0  0  0  0
    7.1174   -3.2290   -0.0515 H   0  0  0  0  0  0  0  0  0  0  0  0
    5.6684   -3.0640   -0.9882 H   0  0  0  0  0  0  0  0  0  0  0  0
    5.0357    0.2255    0.7077 H   0  0  0  0  0  0  0  0  0  0  0  0
    0.4111    0.3388    0.5759 H   0  0  0  0  0  0  0  0  0  0  0  0
    3.8947   -2.2801   -0.7362 H   0  0  0  0  0  0  0  0  0  0  0  0
    2.6679    0.1731    0.5914 H   0  0  0  0  0  0  0  0  0  0  0  0
    1.7964   -3.4203   -0.3989 H   0  0  0  0  0  0  0  0  0  0  0  0
    1.8396   -2.5808   -1.9695 H   0  0  0  0  0  0  0  0  0  0  0  0
    0.3089   -2.9984   -1.2233 H   0  0  0  0  0  0  0  0  0  0  0  0
  1 17  1  0  0  0  0
  1 25  1  0  0  0  0
  2 23  2  0  0  0  0
  3  4  1  0  0  0  0
  3  6  1  0  0  0  0
  3  9  1  0  0  0  0
  3 10  1  0  0  0  0
  4  5  1  0  0  0  0
  4 44  1  0  0  0  0
  4 45  1  0  0  0  0
  5  7  1  0  0  0  0
  5 46  1  0  0  0  0
  5 47  1  0  0  0  0
  6  8  2  0  0  0  0
  6 11  1  0  0  0  0
  7  8  1  0  0  0  0
  7 48  1  0  0  0  0
  7 49  1  0  0  0  0
  8 12  1  0  0  0  0
  9 50  1  0  0  0  0
  9 51  1  0  0  0  0
  9 52  1  0  0  0  0
 10 53  1  0  0  0  0
 10 54  1  0  0  0  0
 10 55  1  0  0  0  0
 11 13  2  0  0  0  0
 11 56  1  0  0  0  0
 12 57  1  0  0  0  0
 12 58  1  0  0  0  0
 12 59  1  0  0  0  0
 13 14  1  0  0  0  0
 13 60  1  0  0  0  0
 14 15  1  0  0  0  0
 14 16  2  0  0  0  0
 15 61  1  0  0  0  0
 15 62  1  0  0  0  0
 15 63  1  0  0  0  0
 16 22  1  0  0  0  0
 16 64  1  0  0  0  0
 17 18  1  0  0  0  0
 17 20  1  0  0  0  0
 17 21  1  0  0  0  0
 18 19  1  0  0  0  0
 18 65  1  0  0  0  0
 18 66  1  0  0  0  0
 19 23  1  0  0  0  0
 19 67  1  0  0  0  0
 19 68  1  0  0  0  0
 20 69  1  0  0  0  0
 20 70  1  0  0  0  0
 20 71  1  0  0  0  0
 21 72  1  0  0  0  0
 21 73  1  0  0  0  0
 21 74  1  0  0  0  0
 22 24  2  0  0  0  0
 22 75  1  0  0  0  0
 23 26  1  0  0  0  0
 24 27  1  0  0  0  0
 24 79  1  0  0  0  0
 25 76  1  0  0  0  0
 25 77  1  0  0  0  0
 25 78  1  0  0  0  0
 26 28  1  0  0  0  0
 26 29  2  0  0  0  0
 27 30  1  0  0  0  0
 27 31  2  0  0  0  0
 28 80  1  0  0  0  0
 28 81  1  0  0  0  0
 28 82  1  0  0  0  0
 29 32  1  0  0  0  0
 29 83  1  0  0  0  0
 30 84  1  0  0  0  0
 30 85  1  0  0  0  0
 30 86  1  0  0  0  0
 31 34  1  0  0  0  0
 31 88  1  0  0  0  0
 32 33  2  0  0  0  0
 32 87  1  0  0  0  0
 33 35  1  0  0  0  0
 33 89  1  0  0  0  0
 34 36  2  0  0  0  0
 34 90  1  0  0  0  0
 35 37  1  0  0  0  0
 35 38  2  0  0  0  0
 36 39  1  0  0  0  0
 36 91  1  0  0  0  0
 37 92  1  0  0  0  0
 37 93  1  0  0  0  0
 37 94  1  0  0  0  0
 38 40  1  0  0  0  0
 38 95  1  0  0  0  0
 39 41  2  0  0  0  0
 39 96  1  0  0  0  0
 40 42  2  0  0  0  0
 40 97  1  0  0  0  0
 41 42  1  0  0  0  0
 41 43  1  0  0  0  0
 42 98  1  0  0  0  0
 43 99  1  0  0  0  0
 43100  1  0  0  0  0
 43101  1  0  0  0  0
M  END
> <PUBCHEM_COMPOUND_CID>
23724693

> <PUBCHEM_CONFORMER_RMSD>
1.4

> <PUBCHEM_CONFORMER_DIVERSEORDER>
1
141
59
158
72
175
204
82
93
70
138
136
74
155
106
192
16
174
9
79
76
90
51
99
26
201
135
127
112
12
220
64
152
84
189
167
180
94
193
208
78
214
83
43
126
45
100
87
125
210
144
101
63
173
147
166
20
153
212
216
14
171
183
209
182
6
81
92
61
163
154
131
218
104
91
67
188
187
145
148
105
184
60
172
32
206
164
199
213
33
181
103
11
139
196
149
202
151
198
207
88
69
24
200
96
159
49
46
28
170
97
34
165
190
89
65
2
8
114
15
102
31
168
143
132
205
71
73
119
117
122
7
111
113
128
58
86
123
195
134
5
191
150
41
107
161
3
115
68
137
95
55
4
108
25
186
23
40
203
80
21
75
217
27
211
179
169
39
53
197
116
142
157
47
109
156
219
56
124
37
129
118
194
57
29
85
48
146
30
162
19
176
215
54
35
120
18
160
130
36
133
62
17
185
50
13
77
121
38
110
177
22
140
52
42
98
10
66
178
44

> <PUBCHEM_MMFF94_PARTIAL_CHARGES>
51
1 -0.56
11 -0.15
12 0.14
13 -0.15
14 -0.14
15 0.14
16 -0.15
17 0.28
19 0.06
2 -0.57
22 -0.15
23 0.49
24 -0.15
25 0.28
26 -0.12
27 -0.14
28 0.14
29 -0.15
3 0.14
30 0.14
31 -0.15
32 -0.15
33 -0.15
34 -0.15
35 -0.14
36 -0.15
37 0.14
38 -0.15
39 -0.15
40 -0.15
41 -0.14
42 -0.15
43 0.14
56 0.15
6 -0.14
60 0.15
64 0.15
7 0.14
75 0.15
79 0.15
8 -0.28
83 0.15
87 0.15
88 0.15
89 0.15
90 0.15
91 0.15
95 0.15
96 0.15
97 0.15
98 0.15

> <PUBCHEM_EFFECTIVE_ROTOR_COUNT>
15.8

> <PUBCHEM_PHARMACOPHORE_FEATURES>
10
1 1 acceptor
1 15 hydrophobe
1 2 acceptor
1 28 hydrophobe
1 30 hydrophobe
1 37 hydrophobe
1 43 hydrophobe
3 17 20 21 hydrophobe
3 3 9 10 hydrophobe
6 3 4 5 6 7 8 rings

> <PUBCHEM_HEAVY_ATOM_COUNT>
43

> <PUBCHEM_ATOM_DEF_STEREO_COUNT>
0

> <PUBCHEM_ATOM_UDEF_STEREO_COUNT>
0

> <PUBCHEM_BOND_DEF_STEREO_COUNT>
10

> <PUBCHEM_BOND_UDEF_STEREO_COUNT>
0

> <PUBCHEM_ISOTOPIC_ATOM_COUNT>
0

> <PUBCHEM_COMPONENT_COUNT>
1

> <PUBCHEM_CACTVS_TAUTO_COUNT>
2

> <PUBCHEM_CONFORMER_ID>
016A029500000001

> <PUBCHEM_MMFF94_ENERGY>
120.6657

> <PUBCHEM_FEATURE_SELFOVERLAP>
50.744

> <PUBCHEM_SHAPE_FINGERPRINT>
14251920 1 18335703862662446139
14251920 17 18114184146738727859
15343295 20 18411139129859541123
16728433 110 18186241727696348113
21057603 130 18411986850380296535
23399689 5 18412261715930001708
23581129 1 18411701002588794723
3092352 35 8214142958525229394
3991529 128 18410294714352897586
9663363 56 17489586784187825071

> <PUBCHEM_SHAPE_MULTIPOLES>
873.18
119.8
2.38
1.13
75.41
0.26
-0.31
57.25
-14.71
2.36
-0.53
1.87
0.58
-1.49

> <PUBCHEM_SHAPE_SELFOVERLAP>
1746.141

> <PUBCHEM_SHAPE_VOLUME>
515.1

> <PUBCHEM_COORDINATE_TYPE>
2
5
10

$$$$

