5283641
  -OEChem-07051213153D

 79 82  0     1  0  0  0  0  0999 V2000
   -7.9595    0.5734   -1.2080 O   0  0  0  0  0  0  0  0  0  0  0  0
    0.5153    0.1097    0.9112 C   0  0  1  0  0  0  0  0  0  0  0  0
   -0.2272   -1.0313    0.1822 C   0  0  2  0  0  0  0  0  0  0  0  0
   -1.7399   -1.0127    0.4291 C   0  0  1  0  0  0  0  0  0  0  0  0
   -2.3099    0.3510   -0.0806 C   0  0  1  0  0  0  0  0  0  0  0  0
   -3.8728    0.4337    0.0871 C   0  0  2  0  0  0  0  0  0  0  0  0
    1.9669   -0.2392    0.5010 C   0  0  2  0  0  0  0  0  0  0  0  0
   -0.0084    1.4417    0.3555 C   0  0  0  0  0  0  0  0  0  0  0  0
   -4.4879   -0.7912   -0.6644 C   0  0  1  0  0  0  0  0  0  0  0  0
   -1.5361    1.5607    0.5071 C   0  0  0  0  0  0  0  0  0  0  0  0
    0.5709   -2.2762    0.5575 C   0  0  0  0  0  0  0  0  0  0  0  0
   -2.4356   -2.1983   -0.2548 C   0  0  0  0  0  0  0  0  0  0  0  0
    2.0260   -1.7787    0.6382 C   0  0  0  0  0  0  0  0  0  0  0  0
   -3.9566   -2.1285   -0.1375 C   0  0  0  0  0  0  0  0  0  0  0  0
   -4.4284    1.7242   -0.5804 C   0  0  0  0  0  0  0  0  0  0  0  0
    0.3516    0.0888    2.4519 C   0  0  0  0  0  0  0  0  0  0  0  0
    3.0792    0.4664    1.2632 C   0  0  1  0  0  0  0  0  0  0  0  0
   -6.0214   -0.7683   -0.6882 C   0  0  0  0  0  0  0  0  0  0  0  0
   -4.2653    0.4520    1.5867 C   0  0  0  0  0  0  0  0  0  0  0  0
   -5.9564    1.7651   -0.6536 C   0  0  0  0  0  0  0  0  0  0  0  0
   -6.5409    0.5233   -1.3186 C   0  0  2  0  0  0  0  0  0  0  0  0
    4.4570   -0.0215    0.7658 C   0  0  0  0  0  0  0  0  0  0  0  0
    2.9264    1.9854    1.1305 C   0  0  0  0  0  0  0  0  0  0  0  0
    4.6730    0.1791   -0.7391 C   0  0  0  0  0  0  0  0  0  0  0  0
    6.0586   -0.2945   -1.2404 C   0  0  1  0  0  0  0  0  0  0  0  0
    7.2433    0.5483   -0.6863 C   0  0  0  0  0  0  0  0  0  0  0  0
    6.1953   -1.7978   -0.9584 C   0  0  0  0  0  0  0  0  0  0  0  0
    8.5914    0.0802   -1.2474 C   0  0  0  0  0  0  0  0  0  0  0  0
    7.0916    2.0554   -0.9093 C   0  0  0  0  0  0  0  0  0  0  0  0
   -0.0870   -0.8991   -0.9040 H   0  0  0  0  0  0  0  0  0  0  0  0
   -1.9230   -1.1111    1.5036 H   0  0  0  0  0  0  0  0  0  0  0  0
   -2.1139    0.3822   -1.1645 H   0  0  0  0  0  0  0  0  0  0  0  0
    2.0477    0.0022   -0.5673 H   0  0  0  0  0  0  0  0  0  0  0  0
    0.2456    1.5360   -0.7081 H   0  0  0  0  0  0  0  0  0  0  0  0
    0.4188    2.3094    0.8591 H   0  0  0  0  0  0  0  0  0  0  0  0
   -4.1676   -0.7239   -1.7161 H   0  0  0  0  0  0  0  0  0  0  0  0
   -1.7804    1.6924    1.5657 H   0  0  0  0  0  0  0  0  0  0  0  0
   -1.8479    2.4817    0.0020 H   0  0  0  0  0  0  0  0  0  0  0  0
    0.4641   -3.0710   -0.1878 H   0  0  0  0  0  0  0  0  0  0  0  0
    0.2512   -2.6824    1.5236 H   0  0  0  0  0  0  0  0  0  0  0  0
   -2.0909   -3.1417    0.1842 H   0  0  0  0  0  0  0  0  0  0  0  0
   -2.1603   -2.2269   -1.3170 H   0  0  0  0  0  0  0  0  0  0  0  0
    2.4643   -2.0953    1.5914 H   0  0  0  0  0  0  0  0  0  0  0  0
    2.6287   -2.2183   -0.1640 H   0  0  0  0  0  0  0  0  0  0  0  0
   -4.3907   -2.9544   -0.7144 H   0  0  0  0  0  0  0  0  0  0  0  0
   -4.2601   -2.2861    0.9037 H   0  0  0  0  0  0  0  0  0  0  0  0
   -4.0298    1.8081   -1.6001 H   0  0  0  0  0  0  0  0  0  0  0  0
   -4.0898    2.6156   -0.0395 H   0  0  0  0  0  0  0  0  0  0  0  0
   -0.6953    0.1303    2.7639 H   0  0  0  0  0  0  0  0  0  0  0  0
    0.7773   -0.8123    2.9045 H   0  0  0  0  0  0  0  0  0  0  0  0
    0.8423    0.9473    2.9206 H   0  0  0  0  0  0  0  0  0  0  0  0
    3.0337    0.2179    2.3309 H   0  0  0  0  0  0  0  0  0  0  0  0
   -6.4030   -1.6194   -1.2671 H   0  0  0  0  0  0  0  0  0  0  0  0
   -6.4378   -0.9009    0.3175 H   0  0  0  0  0  0  0  0  0  0  0  0
   -5.3484    0.4204    1.7344 H   0  0  0  0  0  0  0  0  0  0  0  0
   -3.8526   -0.3935    2.1422 H   0  0  0  0  0  0  0  0  0  0  0  0
   -3.9144    1.3660    2.0773 H   0  0  0  0  0  0  0  0  0  0  0  0
   -6.3821    1.8933    0.3491 H   0  0  0  0  0  0  0  0  0  0  0  0
   -6.2729    2.6564   -1.2100 H   0  0  0  0  0  0  0  0  0  0  0  0
   -6.2958    0.5324   -2.3869 H   0  0  0  0  0  0  0  0  0  0  0  0
    5.2304    0.5184    1.3245 H   0  0  0  0  0  0  0  0  0  0  0  0
    4.5780   -1.0764    1.0323 H   0  0  0  0  0  0  0  0  0  0  0  0
    3.8728    2.4807    1.3789 H   0  0  0  0  0  0  0  0  0  0  0  0
    2.2016    2.3835    1.8433 H   0  0  0  0  0  0  0  0  0  0  0  0
    2.6621    2.2960    0.1151 H   0  0  0  0  0  0  0  0  0  0  0  0
    3.9300   -0.3909   -1.3072 H   0  0  0  0  0  0  0  0  0  0  0  0
    4.5159    1.2264   -1.0156 H   0  0  0  0  0  0  0  0  0  0  0  0
   -8.1888    0.5488   -0.2632 H   0  0  0  0  0  0  0  0  0  0  0  0
    6.0507   -0.1712   -2.3327 H   0  0  0  0  0  0  0  0  0  0  0  0
    7.2961    0.3923    0.3990 H   0  0  0  0  0  0  0  0  0  0  0  0
    5.2818   -2.3403   -1.2250 H   0  0  0  0  0  0  0  0  0  0  0  0
    6.4227   -1.9959    0.0938 H   0  0  0  0  0  0  0  0  0  0  0  0
    7.0044   -2.2299   -1.5563 H   0  0  0  0  0  0  0  0  0  0  0  0
    9.4096    0.7025   -0.8687 H   0  0  0  0  0  0  0  0  0  0  0  0
    8.8128   -0.9502   -0.9537 H   0  0  0  0  0  0  0  0  0  0  0  0
    8.6032    0.1367   -2.3411 H   0  0  0  0  0  0  0  0  0  0  0  0
    6.9444    2.2825   -1.9703 H   0  0  0  0  0  0  0  0  0  0  0  0
    7.9832    2.5936   -0.5691 H   0  0  0  0  0  0  0  0  0  0  0  0
    6.2442    2.4607   -0.3487 H   0  0  0  0  0  0  0  0  0  0  0  0
  1 21  1  0  0  0  0
  1 68  1  0  0  0  0
  2  3  1  0  0  0  0
  2  7  1  0  0  0  0
  2  8  1  0  0  0  0
  2 16  1  0  0  0  0
  3  4  1  0  0  0  0
  3 11  1  0  0  0  0
  3 30  1  0  0  0  0
  4  5  1  0  0  0  0
  4 12  1  0  0  0  0
  4 31  1  0  0  0  0
  5  6  1  0  0  0  0
  5 10  1  0  0  0  0
  5 32  1  0  0  0  0
  6  9  1  0  0  0  0
  6 15  1  0  0  0  0
  6 19  1  0  0  0  0
  7 13  1  0  0  0  0
  7 17  1  0  0  0  0
  7 33  1  0  0  0  0
  8 10  1  0  0  0  0
  8 34  1  0  0  0  0
  8 35  1  0  0  0  0
  9 14  1  0  0  0  0
  9 18  1  0  0  0  0
  9 36  1  0  0  0  0
 10 37  1  0  0  0  0
 10 38  1  0  0  0  0
 11 13  1  0  0  0  0
 11 39  1  0  0  0  0
 11 40  1  0  0  0  0
 12 14  1  0  0  0  0
 12 41  1  0  0  0  0
 12 42  1  0  0  0  0
 13 43  1  0  0  0  0
 13 44  1  0  0  0  0
 14 45  1  0  0  0  0
 14 46  1  0  0  0  0
 15 20  1  0  0  0  0
 15 47  1  0  0  0  0
 15 48  1  0  0  0  0
 16 49  1  0  0  0  0
 16 50  1  0  0  0  0
 16 51  1  0  0  0  0
 17 22  1  0  0  0  0
 17 23  1  0  0  0  0
 17 52  1  0  0  0  0
 18 21  1  0  0  0  0
 18 53  1  0  0  0  0
 18 54  1  0  0  0  0
 19 55  1  0  0  0  0
 19 56  1  0  0  0  0
 19 57  1  0  0  0  0
 20 21  1  0  0  0  0
 20 58  1  0  0  0  0
 20 59  1  0  0  0  0
 21 60  1  0  0  0  0
 22 24  1  0  0  0  0
 22 61  1  0  0  0  0
 22 62  1  0  0  0  0
 23 63  1  0  0  0  0
 23 64  1  0  0  0  0
 23 65  1  0  0  0  0
 24 25  1  0  0  0  0
 24 66  1  0  0  0  0
 24 67  1  0  0  0  0
 25 26  1  0  0  0  0
 25 27  1  0  0  0  0
 25 69  1  0  0  0  0
 26 28  1  0  0  0  0
 26 29  1  0  0  0  0
 26 70  1  0  0  0  0
 27 71  1  0  0  0  0
 27 72  1  0  0  0  0
 27 73  1  0  0  0  0
 28 74  1  0  0  0  0
 28 75  1  0  0  0  0
 28 76  1  0  0  0  0
 29 77  1  0  0  0  0
 29 78  1  0  0  0  0
 29 79  1  0  0  0  0
M  END
> <PUBCHEM_COMPOUND_CID>
5283641

> <PUBCHEM_CONFORMER_RMSD>
0.8

> <PUBCHEM_CONFORMER_DIVERSEORDER>
7
1
3
5
4
6
2

> <PUBCHEM_MMFF94_PARTIAL_CHARGES>
3
1 -0.68
21 0.28
68 0.4

> <PUBCHEM_EFFECTIVE_ROTOR_COUNT>
7.2

> <PUBCHEM_PHARMACOPHORE_FEATURES>
10
1 1 acceptor
1 1 donor
1 23 hydrophobe
1 27 hydrophobe
3 26 28 29 hydrophobe
5 17 22 24 25 26 hydrophobe
5 2 3 7 11 13 rings
6 2 3 4 5 8 10 rings
6 4 5 6 9 12 14 rings
6 6 9 15 18 20 21 rings

> <PUBCHEM_HEAVY_ATOM_COUNT>
29

> <PUBCHEM_ATOM_DEF_STEREO_COUNT>
10

> <PUBCHEM_ATOM_UDEF_STEREO_COUNT>
0

> <PUBCHEM_BOND_DEF_STEREO_COUNT>
0

> <PUBCHEM_BOND_UDEF_STEREO_COUNT>
0

> <PUBCHEM_ISOTOPIC_ATOM_COUNT>
0

> <PUBCHEM_COMPONENT_COUNT>
1

> <PUBCHEM_CACTVS_TAUTO_COUNT>
1

> <PUBCHEM_CONFORMER_ID>
00509F3900000007

> <PUBCHEM_MMFF94_ENERGY>
97.1184

> <PUBCHEM_FEATURE_SELFOVERLAP>
50.871

> <PUBCHEM_SHAPE_FINGERPRINT>
10 15 11024103253086490894
10076449 9 18261107449041834259
10533779 47 12319468714440654748
10554248 39 17843708735438802759
106641 1 15123504818775733161
10670039 82 18412263968889018749
10693767 8 17822859796258934614
10835480 77 18261389985171152000
11007060 377 18200308810473800754
11135609 187 18410853219178723818
11315181 36 17749105578416467833
12011746 2 18260274049150176739
12166972 35 13912330061750870938
12236239 1 17704078399283405763
12954195 1 17894906377557149104
13540713 4 17972607584344209322
13540713 5 17975412726358931177
13668630 136 14707206617337427636
13673619 4 15140963967401047704
13685833 64 15213022647981252916
13690498 29 18116998784652770391
13782708 43 16008753497868928590
14251752 14 18413671323056728010
14251757 52 17489872648093825668
14849402 71 10231169547716641414
14931854 50 18260842526921868861
15183329 4 18335136510256516754
15301273 46 11599729502145433728
1577012 14 17775574134321344930
15961568 22 17561084743143546981
16994733 274 17060345149200710021
18608769 82 18271236115702775379
18681886 176 18338522945244439465
20105231 36 18187082824713290391
2026 5 15285628932960931036
21150785 3 18409449184777478517
21267235 1 18334293124750954387
21637258 2 15068626002066467978
21756936 100 17203607060508033402
21792961 116 18334007302682011666
22122407 14 15769481093653815052
221357 26 18114183042890032304
2215653 11 17894912927872489102
22224240 67 13758355579037175865
22393880 68 18335428932509136395
23522609 53 17751890658666350984
23559900 14 18187370887193607768
23576562 1 18200029517192867884
2838139 119 16128375948345730318
3004659 81 18410849985332334198
335352 9 18408609154268757869
3383291 50 6843918382104090045
397830 11 10303821981823429560
4073 2 17775284980529035907
4093350 32 15554457335550385938
437815 12 17385439921380906344
5265222 85 18335703780251011223
6328613 192 18342737429221905292
9953998 17 12391510875874299341

> <PUBCHEM_SHAPE_MULTIPOLES>
590.94
20.99
2.17
1.48
16.78
0.39
-0.44
-5.01
13.62
-0.27
0.07
0.35
-0.22
0.37

> <PUBCHEM_SHAPE_SELFOVERLAP>
1216.034

> <PUBCHEM_SHAPE_VOLUME>
339.8

> <PUBCHEM_COORDINATE_TYPE>
2
5
10

$$$$

