17395400
  -OEChem-06241222503D

 51 55  0     0  0  0  0  0  0999 V2000
    2.3981    1.9892   -2.0763 O   0  0  0  0  0  0  0  0  0  0  0  0
   -5.9795    1.1417    1.6516 O   0  0  0  0  0  0  0  0  0  0  0  0
   -7.5382    0.3264    0.0042 O   0  0  0  0  0  0  0  0  0  0  0  0
   -1.3196   -0.5585    0.0526 N   0  0  0  0  0  0  0  0  0  0  0  0
    1.1023    0.8744   -0.4817 N   0  0  0  0  0  0  0  0  0  0  0  0
   -1.1502    0.1753   -1.2101 C   0  0  0  0  0  0  0  0  0  0  0  0
   -0.0281   -1.0834    0.5187 C   0  0  0  0  0  0  0  0  0  0  0  0
   -0.1707    1.3343   -1.0322 C   0  0  0  0  0  0  0  0  0  0  0  0
    0.9845    0.0456    0.7232 C   0  0  0  0  0  0  0  0  0  0  0  0
   -2.2867   -1.6433   -0.1096 C   0  0  0  0  0  0  0  0  0  0  0  0
    5.3647   -0.6576   -0.1985 C   0  0  0  0  0  0  0  0  0  0  0  0
    6.2233   -1.8530   -0.4674 C   0  0  0  0  0  0  0  0  0  0  0  0
    7.1082   -1.8715    0.7882 C   0  0  0  0  0  0  0  0  0  0  0  0
    7.2350   -0.4157    1.2618 C   0  0  0  0  0  0  0  0  0  0  0  0
    5.9390    0.1583    0.7833 C   0  0  0  0  0  0  0  0  0  0  0  0
    2.2995    1.2942   -1.0661 C   0  0  0  0  0  0  0  0  0  0  0  0
    3.5608    0.8887   -0.4315 C   0  0  0  0  0  0  0  0  0  0  0  0
    4.1791   -0.3020   -0.8189 C   0  0  0  0  0  0  0  0  0  0  0  0
   -3.7042   -1.1359   -0.1085 C   0  0  0  0  0  0  0  0  0  0  0  0
    5.3396    1.3465    1.1649 C   0  0  0  0  0  0  0  0  0  0  0  0
    4.1369    1.7071    0.5533 C   0  0  0  0  0  0  0  0  0  0  0  0
   -4.1042   -0.1975    0.8459 C   0  0  0  0  0  0  0  0  0  0  0  0
   -4.6137   -1.6116   -1.0695 C   0  0  0  0  0  0  0  0  0  0  0  0
   -5.4131    0.2375    0.8068 C   0  0  0  0  0  0  0  0  0  0  0  0
   -6.3032   -0.2281   -0.1338 C   0  0  0  0  0  0  0  0  0  0  0  0
   -5.9336   -1.1545   -1.0871 C   0  0  0  0  0  0  0  0  0  0  0  0
   -7.3258    1.1936    1.1368 C   0  0  0  0  0  0  0  0  0  0  0  0
   -2.1050    0.5915   -1.5515 H   0  0  0  0  0  0  0  0  0  0  0  0
   -0.7819   -0.4933   -1.9998 H   0  0  0  0  0  0  0  0  0  0  0  0
    0.3738   -1.8089   -0.2013 H   0  0  0  0  0  0  0  0  0  0  0  0
   -0.1555   -1.6039    1.4755 H   0  0  0  0  0  0  0  0  0  0  0  0
   -0.0170    1.8406   -1.9907 H   0  0  0  0  0  0  0  0  0  0  0  0
   -0.5761    2.0757   -0.3326 H   0  0  0  0  0  0  0  0  0  0  0  0
    0.6589    0.7078    1.5348 H   0  0  0  0  0  0  0  0  0  0  0  0
    1.9465   -0.3794    1.0176 H   0  0  0  0  0  0  0  0  0  0  0  0
   -2.0727   -2.2337   -1.0103 H   0  0  0  0  0  0  0  0  0  0  0  0
   -2.2207   -2.3412    0.7366 H   0  0  0  0  0  0  0  0  0  0  0  0
    5.6423   -2.7748   -0.5596 H   0  0  0  0  0  0  0  0  0  0  0  0
    6.8209   -1.6924   -1.3704 H   0  0  0  0  0  0  0  0  0  0  0  0
    8.0814   -2.3381    0.6065 H   0  0  0  0  0  0  0  0  0  0  0  0
    6.6089   -2.4608    1.5701 H   0  0  0  0  0  0  0  0  0  0  0  0
    8.0744    0.0882    0.7716 H   0  0  0  0  0  0  0  0  0  0  0  0
    7.3440   -0.3578    2.3483 H   0  0  0  0  0  0  0  0  0  0  0  0
    3.7458   -0.9350   -1.5870 H   0  0  0  0  0  0  0  0  0  0  0  0
    5.7885    1.9857    1.9174 H   0  0  0  0  0  0  0  0  0  0  0  0
    3.6517    2.6357    0.8451 H   0  0  0  0  0  0  0  0  0  0  0  0
   -3.4256    0.1769    1.6048 H   0  0  0  0  0  0  0  0  0  0  0  0
   -4.2992   -2.3424   -1.8105 H   0  0  0  0  0  0  0  0  0  0  0  0
   -6.6380   -1.5190   -1.8261 H   0  0  0  0  0  0  0  0  0  0  0  0
   -8.0183    0.9037    1.9355 H   0  0  0  0  0  0  0  0  0  0  0  0
   -7.5470    2.2242    0.8362 H   0  0  0  0  0  0  0  0  0  0  0  0
  1 16  2  0  0  0  0
  2 24  1  0  0  0  0
  2 27  1  0  0  0  0
  3 25  1  0  0  0  0
  3 27  1  0  0  0  0
  4  6  1  0  0  0  0
  4  7  1  0  0  0  0
  4 10  1  0  0  0  0
  5  8  1  0  0  0  0
  5  9  1  0  0  0  0
  5 16  1  0  0  0  0
  6  8  1  0  0  0  0
  6 28  1  0  0  0  0
  6 29  1  0  0  0  0
  7  9  1  0  0  0  0
  7 30  1  0  0  0  0
  7 31  1  0  0  0  0
  8 32  1  0  0  0  0
  8 33  1  0  0  0  0
  9 34  1  0  0  0  0
  9 35  1  0  0  0  0
 10 19  1  0  0  0  0
 10 36  1  0  0  0  0
 10 37  1  0  0  0  0
 11 12  1  0  0  0  0
 11 15  2  0  0  0  0
 11 18  1  0  0  0  0
 12 13  1  0  0  0  0
 12 38  1  0  0  0  0
 12 39  1  0  0  0  0
 13 14  1  0  0  0  0
 13 40  1  0  0  0  0
 13 41  1  0  0  0  0
 14 15  1  0  0  0  0
 14 42  1  0  0  0  0
 14 43  1  0  0  0  0
 15 20  1  0  0  0  0
 16 17  1  0  0  0  0
 17 18  2  0  0  0  0
 17 21  1  0  0  0  0
 18 44  1  0  0  0  0
 19 22  2  0  0  0  0
 19 23  1  0  0  0  0
 20 21  2  0  0  0  0
 20 45  1  0  0  0  0
 21 46  1  0  0  0  0
 22 24  1  0  0  0  0
 22 47  1  0  0  0  0
 23 26  2  0  0  0  0
 23 48  1  0  0  0  0
 24 25  2  0  0  0  0
 25 26  1  0  0  0  0
 26 49  1  0  0  0  0
 27 50  1  0  0  0  0
 27 51  1  0  0  0  0
M  END
> <PUBCHEM_COMPOUND_CID>
17395400

> <PUBCHEM_CONFORMER_RMSD>
0.8

> <PUBCHEM_CONFORMER_DIVERSEORDER>
1
107
105
138
139
205
160
196
181
182
74
122
178
11
173
143
53
179
75
24
76
150
65
204
192
137
67
201
156
116
149
46
28
187
128
56
144
162
188
148
126
15
142
106
21
37
103
165
89
55
141
197
66
200
158
86
95
206
190
25
202
123
117
129
140
136
157
176
57
185
94
121
20
110
73
71
183
131
161
155
194
184
154
130
50
36
112
100
203
17
32
33
115
102
58
164
153
9
174
169
92
167
52
51
48
99
43
101
31
125
186
7
124
166
175
189
132
119
83
59
133
151
44
3
134
38
60
30
34
29
111
127
81
85
10
42
170
172
90
8
35
26
108
39
135
2
145
41
97
171
114
12
88
109
113
54
40
180
104
61
49
199
64
19
146
93
14
68
27
84
198
45
96
77
193
177
63
16
163
70
78
168
152
13
118
98
87
208
207
91
159
82
79
147
5
22
62
195
120
191
47
80
18
23
72
6
4
69

> <PUBCHEM_MMFF94_PARTIAL_CHARGES>
32
1 -0.57
10 0.41
11 -0.14
12 0.14
14 0.14
15 -0.14
16 0.54
17 0.09
18 -0.15
19 -0.14
2 -0.36
20 -0.15
21 -0.15
22 -0.15
23 -0.15
24 0.08
25 0.08
26 -0.15
27 0.56
3 -0.36
4 -0.81
44 0.15
45 0.15
46 0.15
47 0.15
48 0.15
49 0.15
5 -0.66
6 0.27
7 0.27
8 0.3
9 0.3

> <PUBCHEM_EFFECTIVE_ROTOR_COUNT>
6.4

> <PUBCHEM_PHARMACOPHORE_FEATURES>
9
1 1 acceptor
1 2 acceptor
1 3 acceptor
1 4 cation
5 11 12 13 14 15 rings
5 2 3 24 25 27 rings
6 11 15 17 18 20 21 rings
6 19 22 23 24 25 26 rings
6 4 5 6 7 8 9 rings

> <PUBCHEM_HEAVY_ATOM_COUNT>
27

> <PUBCHEM_ATOM_DEF_STEREO_COUNT>
0

> <PUBCHEM_ATOM_UDEF_STEREO_COUNT>
0

> <PUBCHEM_BOND_DEF_STEREO_COUNT>
0

> <PUBCHEM_BOND_UDEF_STEREO_COUNT>
0

> <PUBCHEM_ISOTOPIC_ATOM_COUNT>
0

> <PUBCHEM_COMPONENT_COUNT>
1

> <PUBCHEM_CACTVS_TAUTO_COUNT>
1

> <PUBCHEM_CONFORMER_ID>
01096EC800000001

> <PUBCHEM_MMFF94_ENERGY>
73.9921

> <PUBCHEM_FEATURE_SELFOVERLAP>
45.908

> <PUBCHEM_SHAPE_FINGERPRINT>
10 15 15647059248624143714
10429389 143 15502377841755567763
11089746 13 18186802452983492089
11331351 85 18202285805268918420
11475781 23 16515951671096835945
11524674 6 16988840562852274875
11719270 70 16298100995462638774
12236239 1 18335701611782890007
12373685 5 16732993050242613527
12516196 113 8430319038957781155
12592606 108 18131069312130507227
12616971 3 17988358174823025645
12730499 353 8790612537471801452
13533116 47 18408605847307489648
13673619 4 16845575318201280428
13685833 64 17989209252973840854
13782708 43 16486402175798684443
13914758 101 18187080676390209699
14216079 64 18201723985408534882
14251764 18 18260830379910070684
14347424 109 18334298656790170640
14429380 56 6194548983919218458
14767858 380 8070026666389350019
14856354 85 14189573044814679923
14955137 171 15626215780900347167
15021287 119 18131631179847063965
15131766 46 16735539356233642312
15142383 8 17603870018294049872
15183329 4 18260258651069974039
1577012 14 18341041918236871045
20105231 36 16845851308330856298
20511986 3 17095248028948268062
20554085 129 15936415567116082215
21130935 74 18337675217796089506
21150785 3 10519983772757200200
21267235 1 17703792548599910642
21365058 113 15482664680596288182
21403212 168 18412265060490797535
21591340 7 18408042919155822441
21774942 28 17023455469195314561
21781051 124 15984812744887076050
21792961 116 16128388102507344590
22224240 67 5761647088646510710
2297311 6 13758078489580737991
2303208 19 15769775715361523821
23035841 295 13183025111849585577
23081809 10 18338231562036432189
23424782 7 10951758681886560021
23522609 53 18198596913756450500
23536379 177 18040434373755506827
23569917 315 18271240526729659955
23569943 247 18128827515201268378
23845131 108 17547013386653101580
3009799 131 15285356232649864875
312425 54 18334863783970251026
3178227 256 16988841674789731384
3525247 94 18408890642732400215
4073 2 18267022765437991194
4107672 100 13470417681943141295
4258327 124 6121923028601236026
4340502 62 16225761917799906878
437795 51 16487256607570463546
445580 167 9943801183863210682
5104073 3 17844805876449937473
5207 217 6555408717392952213
5381727 24 18413388740664452291
6299153 45 18335134345223832331
99344 41 17894915143902431022
9965369 4 18407759244449032947

> <PUBCHEM_SHAPE_MULTIPOLES>
528.08
23.05
1.85
1.39
8.02
0.12
-0.2
2.94
7.43
-1.15
-0.18
-0.1
-0.44
-1.63

> <PUBCHEM_SHAPE_SELFOVERLAP>
1162.318

> <PUBCHEM_SHAPE_VOLUME>
286.3

> <PUBCHEM_COORDINATE_TYPE>
2
5
10

$$$$

