17395271
  -OEChem-06241222492D

 27 28  0     1  0  0  0  0  0999 V2000
    4.2213   -0.7786    0.0000 S   0  0  0  0  0  0  0  0  0  0  0  0
    5.9814   -1.0574    0.0000 S   0  0  0  0  0  0  0  0  0  0  0  0
    2.6691    1.2918    0.0000 O   0  0  0  0  0  0  0  0  0  0  0  0
    4.4487    1.3850    0.0000 O   0  0  0  0  0  0  0  0  0  0  0  0
    7.7414   -0.7786    0.0000 N   0  0  0  0  0  0  0  0  0  0  0  0
    5.4814    0.4815    0.0000 N   0  0  0  0  0  0  0  0  0  0  0  0
    6.4814    0.4815    0.0000 N   0  0  0  0  0  0  0  0  0  0  0  0
    3.4782   -0.1095    0.0000 C   0  0  3  0  0  0  0  0  0  0  0  0
    2.5000   -0.3174    0.0000 C   0  0  0  0  0  0  0  0  0  0  0  0
    2.0000    0.5486    0.0000 C   0  0  0  0  0  0  0  0  0  0  0  0
    3.5827    0.8851    0.0000 C   0  0  0  0  0  0  0  0  0  0  0  0
    5.1724   -0.4696    0.0000 C   0  0  0  0  0  0  0  0  0  0  0  0
    6.7904   -0.4696    0.0000 C   0  0  0  0  0  0  0  0  0  0  0  0
    8.4846   -0.1095    0.0000 C   0  0  0  0  0  0  0  0  0  0  0  0
    9.4356   -0.4185    0.0000 C   0  0  0  0  0  0  0  0  0  0  0  0
   10.1788    0.2506    0.0000 C   0  0  0  0  0  0  0  0  0  0  0  0
    3.3177   -0.7083    0.0000 H   0  0  0  0  0  0  0  0  0  0  0  0
    1.9336   -0.5696    0.0000 H   0  0  0  0  0  0  0  0  0  0  0  0
    2.6916   -0.9070    0.0000 H   0  0  0  0  0  0  0  0  0  0  0  0
    1.5851    1.0094    0.0000 H   0  0  0  0  0  0  0  0  0  0  0  0
    1.4984    0.1842    0.0000 H   0  0  0  0  0  0  0  0  0  0  0  0
    7.8703   -1.3850    0.0000 H   0  0  0  0  0  0  0  0  0  0  0  0
    8.7757    0.4380    0.0000 H   0  0  0  0  0  0  0  0  0  0  0  0
    7.9960    0.2722    0.0000 H   0  0  0  0  0  0  0  0  0  0  0  0
    9.5646   -1.0249    0.0000 H   0  0  0  0  0  0  0  0  0  0  0  0
   10.7684    0.0591    0.0000 H   0  0  0  0  0  0  0  0  0  0  0  0
   10.0499    0.8571    0.0000 H   0  0  0  0  0  0  0  0  0  0  0  0
  1  8  1  0  0  0  0
  1 12  1  0  0  0  0
  2 12  1  0  0  0  0
  2 13  1  0  0  0  0
  3 10  1  0  0  0  0
  3 11  1  0  0  0  0
  4 11  2  0  0  0  0
  5 13  1  0  0  0  0
  5 14  1  0  0  0  0
  5 22  1  0  0  0  0
  6  7  1  0  0  0  0
  6 12  2  0  0  0  0
  7 13  2  0  0  0  0
  8  9  1  0  0  0  0
  8 11  1  0  0  0  0
  8 17  1  0  0  0  0
  9 10  1  0  0  0  0
  9 18  1  0  0  0  0
  9 19  1  0  0  0  0
 10 20  1  0  0  0  0
 10 21  1  0  0  0  0
 14 15  1  0  0  0  0
 14 23  1  0  0  0  0
 14 24  1  0  0  0  0
 15 16  2  0  0  0  0
 15 25  1  0  0  0  0
 16 26  1  0  0  0  0
 16 27  1  0  0  0  0
M  END
> <PUBCHEM_COMPOUND_CID>
17395271

> <PUBCHEM_COMPOUND_CANONICALIZED>
1

> <PUBCHEM_CACTVS_COMPLEXITY>
278

> <PUBCHEM_CACTVS_HBOND_ACCEPTOR>
7

> <PUBCHEM_CACTVS_HBOND_DONOR>
1

> <PUBCHEM_CACTVS_ROTATABLE_BOND>
5

> <PUBCHEM_CACTVS_SUBSKEYS>
AAADccBzMABgAAAAAAAAAAAAAAAAAWJAAAAAAAAAAAAAAAABgAAAHgQYAAAACADlwAaBGALABAiuACDSKACQAQJAABkNAIEIAACAABAgCQACAAAUEAIAAAACAAAAAAAAAAAAAAAAAAAAAAAAAAAAAAAAAA==

> <PUBCHEM_IUPAC_OPENEYE_NAME>
3-[[5-(allylamino)-1,3,4-thiadiazol-2-yl]sulfanyl]tetrahydrofuran-2-one

> <PUBCHEM_IUPAC_CAS_NAME>
3-[[5-(prop-2-enylamino)-1,3,4-thiadiazol-2-yl]thio]-2-oxolanone

> <PUBCHEM_IUPAC_NAME>
3-[[5-(prop-2-enylamino)-1,3,4-thiadiazol-2-yl]sulfanyl]oxolan-2-one

> <PUBCHEM_IUPAC_SYSTEMATIC_NAME>
3-[[5-(prop-2-enylamino)-1,3,4-thiadiazol-2-yl]sulfanyl]oxolan-2-one

> <PUBCHEM_IUPAC_TRADITIONAL_NAME>
3-[[5-(allylamino)-1,3,4-thiadiazol-2-yl]thio]tetrahydrofuran-2-one

> <PUBCHEM_IUPAC_INCHI>
InChI=1S/C9H11N3O2S2/c1-2-4-10-8-11-12-9(16-8)15-6-3-5-14-7(6)13/h2,6H,1,3-5H2,(H,10,11)

> <PUBCHEM_IUPAC_INCHIKEY>
ASEGJTOWBPZVQZ-UHFFFAOYSA-N

> <PUBCHEM_XLOGP3_AA>
2.3

> <PUBCHEM_EXACT_MASS>
257.029269

> <PUBCHEM_MOLECULAR_FORMULA>
C9H11N3O2S2

> <PUBCHEM_MOLECULAR_WEIGHT>
257.33254

> <PUBCHEM_OPENEYE_CAN_SMILES>
C=CCNC1=NN=C(S1)SC2CCOC2=O

> <PUBCHEM_OPENEYE_ISO_SMILES>
C=CCNC1=NN=C(S1)SC2CCOC2=O

> <PUBCHEM_CACTVS_TPSA>
118

> <PUBCHEM_MONOISOTOPIC_WEIGHT>
257.029269

> <PUBCHEM_TOTAL_CHARGE>
0

> <PUBCHEM_HEAVY_ATOM_COUNT>
16

> <PUBCHEM_ATOM_DEF_STEREO_COUNT>
0

> <PUBCHEM_ATOM_UDEF_STEREO_COUNT>
1

> <PUBCHEM_BOND_DEF_STEREO_COUNT>
0

> <PUBCHEM_BOND_UDEF_STEREO_COUNT>
0

> <PUBCHEM_ISOTOPIC_ATOM_COUNT>
0

> <PUBCHEM_COMPONENT_COUNT>
1

> <PUBCHEM_CACTVS_TAUTO_COUNT>
4

> <PUBCHEM_COORDINATE_TYPE>
1
5
255

> <PUBCHEM_BONDANNOTATIONS>
8  1  3
2  12  8
2  13  8
6  12  8
6  7  8
7  13  8

$$$$

