439560
  -OEChem-07051212463D

 47 48  0     1  0  0  0  0  0999 V2000
    0.0264    0.4585    0.2122 O   0  0  0  0  0  0  0  0  0  0  0  0
   -1.5473   -0.5241   -1.2565 O   0  0  0  0  0  0  0  0  0  0  0  0
    2.1084    2.2292   -0.5777 O   0  0  0  0  0  0  0  0  0  0  0  0
    4.6984    1.4996    0.5038 O   0  0  0  0  0  0  0  0  0  0  0  0
   -3.8682    2.3151    0.6510 O   0  0  0  0  0  0  0  0  0  0  0  0
   -4.1947   -0.4653    1.3054 O   0  0  0  0  0  0  0  0  0  0  0  0
   -3.8077   -2.8925    0.2817 O   0  0  0  0  0  0  0  0  0  0  0  0
    0.6375   -2.3587   -0.1316 N   0  0  0  0  0  0  0  0  0  0  0  0
    5.3939   -1.2804    0.1331 N   0  0  0  0  0  0  0  0  0  0  0  0
   -1.1751    3.0163   -0.1959 N   0  0  0  0  0  0  0  0  0  0  0  0
    1.3087    0.0029   -0.2291 C   0  0  2  0  0  0  0  0  0  0  0  0
    1.5971   -1.3762    0.3784 C   0  0  2  0  0  0  0  0  0  0  0  0
    2.3582    1.0418    0.1807 C   0  0  1  0  0  0  0  0  0  0  0  0
    4.0571   -0.8158    0.5140 C   0  0  1  0  0  0  0  0  0  0  0  0
    3.7908    0.5687   -0.0920 C   0  0  2  0  0  0  0  0  0  0  0  0
    3.0183   -1.8401    0.0482 C   0  0  0  0  0  0  0  0  0  0  0  0
   -0.8524    0.6719   -0.8905 C   0  0  1  0  0  0  0  0  0  0  0  0
   -1.8628    1.7819   -0.5764 C   0  0  1  0  0  0  0  0  0  0  0  0
   -2.8293    1.3419    0.5288 C   0  0  2  0  0  0  0  0  0  0  0  0
   -3.4609   -0.0083    0.1718 C   0  0  1  0  0  0  0  0  0  0  0  0
   -2.3910   -1.0352   -0.2188 C   0  0  1  0  0  0  0  0  0  0  0  0
   -3.0052   -2.3313   -0.7406 C   0  0  0  0  0  0  0  0  0  0  0  0
    1.3416   -0.0914   -1.3249 H   0  0  0  0  0  0  0  0  0  0  0  0
    1.4666   -1.3256    1.4665 H   0  0  0  0  0  0  0  0  0  0  0  0
    2.2422    1.3190    1.2360 H   0  0  0  0  0  0  0  0  0  0  0  0
    4.0372   -0.7419    1.6085 H   0  0  0  0  0  0  0  0  0  0  0  0
    3.9873    0.5706   -1.1720 H   0  0  0  0  0  0  0  0  0  0  0  0
    3.1151   -2.0018   -1.0351 H   0  0  0  0  0  0  0  0  0  0  0  0
    3.2119   -2.8084    0.5290 H   0  0  0  0  0  0  0  0  0  0  0  0
   -0.2928    1.0015   -1.7758 H   0  0  0  0  0  0  0  0  0  0  0  0
   -2.4451    1.9916   -1.4833 H   0  0  0  0  0  0  0  0  0  0  0  0
   -2.3300    1.2809    1.5036 H   0  0  0  0  0  0  0  0  0  0  0  0
   -4.1738    0.1238   -0.6521 H   0  0  0  0  0  0  0  0  0  0  0  0
   -1.7927   -1.2774    0.6690 H   0  0  0  0  0  0  0  0  0  0  0  0
    0.8592   -3.2812    0.2409 H   0  0  0  0  0  0  0  0  0  0  0  0
    0.7231   -2.4344   -1.1446 H   0  0  0  0  0  0  0  0  0  0  0  0
    5.4534   -1.3698   -0.8808 H   0  0  0  0  0  0  0  0  0  0  0  0
    5.5518   -2.2150    0.5082 H   0  0  0  0  0  0  0  0  0  0  0  0
    1.2146    2.5373   -0.3533 H   0  0  0  0  0  0  0  0  0  0  0  0
   -2.2337   -3.0510   -1.0332 H   0  0  0  0  0  0  0  0  0  0  0  0
   -3.6279   -2.1485   -1.6228 H   0  0  0  0  0  0  0  0  0  0  0  0
   -0.6557    2.8645    0.6684 H   0  0  0  0  0  0  0  0  0  0  0  0
   -1.8652    3.7356    0.0184 H   0  0  0  0  0  0  0  0  0  0  0  0
    4.5049    2.3749    0.1265 H   0  0  0  0  0  0  0  0  0  0  0  0
   -4.3241    2.3800   -0.2054 H   0  0  0  0  0  0  0  0  0  0  0  0
   -4.8532    0.2172    1.5211 H   0  0  0  0  0  0  0  0  0  0  0  0
   -3.2285   -3.0906    1.0372 H   0  0  0  0  0  0  0  0  0  0  0  0
  1 11  1  0  0  0  0
  1 17  1  0  0  0  0
  2 17  1  0  0  0  0
  2 21  1  0  0  0  0
  3 13  1  0  0  0  0
  3 39  1  0  0  0  0
  4 15  1  0  0  0  0
  4 44  1  0  0  0  0
  5 19  1  0  0  0  0
  5 45  1  0  0  0  0
  6 20  1  0  0  0  0
  6 46  1  0  0  0  0
  7 22  1  0  0  0  0
  7 47  1  0  0  0  0
  8 12  1  0  0  0  0
  8 35  1  0  0  0  0
  8 36  1  0  0  0  0
  9 14  1  0  0  0  0
  9 37  1  0  0  0  0
  9 38  1  0  0  0  0
 10 18  1  0  0  0  0
 10 42  1  0  0  0  0
 10 43  1  0  0  0  0
 11 12  1  0  0  0  0
 11 13  1  0  0  0  0
 11 23  1  0  0  0  0
 12 16  1  0  0  0  0
 12 24  1  0  0  0  0
 13 15  1  0  0  0  0
 13 25  1  0  0  0  0
 14 15  1  0  0  0  0
 14 16  1  0  0  0  0
 14 26  1  0  0  0  0
 15 27  1  0  0  0  0
 16 28  1  0  0  0  0
 16 29  1  0  0  0  0
 17 18  1  0  0  0  0
 17 30  1  0  0  0  0
 18 19  1  0  0  0  0
 18 31  1  0  0  0  0
 19 20  1  0  0  0  0
 19 32  1  0  0  0  0
 20 21  1  0  0  0  0
 20 33  1  0  0  0  0
 21 22  1  0  0  0  0
 21 34  1  0  0  0  0
 22 40  1  0  0  0  0
 22 41  1  0  0  0  0
M  END
> <PUBCHEM_COMPOUND_CID>
439560

> <PUBCHEM_CONFORMER_RMSD>
0.8

> <PUBCHEM_CONFORMER_DIVERSEORDER>
3
5
10
12
2
17
16
6
9
8
4
15
7
13
1
14
11

> <PUBCHEM_MMFF94_PARTIAL_CHARGES>
32
1 -0.56
10 -0.99
11 0.28
12 0.27
13 0.28
14 0.27
15 0.28
17 0.56
18 0.27
19 0.28
2 -0.56
20 0.28
21 0.28
22 0.28
3 -0.68
35 0.36
36 0.36
37 0.36
38 0.36
39 0.4
4 -0.68
42 0.36
43 0.36
44 0.4
45 0.4
46 0.4
47 0.4
5 -0.68
6 -0.68
7 -0.68
8 -0.99
9 -0.99

> <PUBCHEM_EFFECTIVE_ROTOR_COUNT>
5.4

> <PUBCHEM_PHARMACOPHORE_FEATURES>
20
1 1 acceptor
1 10 cation
1 10 donor
1 2 acceptor
1 3 acceptor
1 3 donor
1 4 acceptor
1 4 donor
1 5 acceptor
1 5 donor
1 6 acceptor
1 6 donor
1 7 acceptor
1 7 donor
1 8 cation
1 8 donor
1 9 cation
1 9 donor
6 11 12 13 14 15 16 rings
6 2 17 18 19 20 21 rings

> <PUBCHEM_HEAVY_ATOM_COUNT>
22

> <PUBCHEM_ATOM_DEF_STEREO_COUNT>
10

> <PUBCHEM_ATOM_UDEF_STEREO_COUNT>
0

> <PUBCHEM_BOND_DEF_STEREO_COUNT>
0

> <PUBCHEM_BOND_UDEF_STEREO_COUNT>
0

> <PUBCHEM_ISOTOPIC_ATOM_COUNT>
0

> <PUBCHEM_COMPONENT_COUNT>
1

> <PUBCHEM_CACTVS_TAUTO_COUNT>
1

> <PUBCHEM_CONFORMER_ID>
0006B50800000003

> <PUBCHEM_MMFF94_ENERGY>
46.7256

> <PUBCHEM_FEATURE_SELFOVERLAP>
101.56

> <PUBCHEM_SHAPE_FINGERPRINT>
10616163 171 18409167718433303063
11552529 35 17968097482553278347
12251169 10 18409164445947259133
12596599 1 18041541612055822042
12633257 1 18268435804934709538
13140716 1 18409168813644500360
13224815 77 18342466940971932786
13675066 3 17967541189999327018
14178342 30 18339094768932343968
14223421 5 18408603686100312702
14341114 176 18410568483314175890
14420673 8 18191863651135909638
14787075 74 17914056387052681022
14965852 173 18410017666706669228
15196674 1 18410858741979236510
15209289 33 18201998858761912538
16945 1 18266742561581091861
17349148 13 17489588952787762938
17492 89 18410576171738996726
1813 80 17346591976252717869
18186145 218 18408891767422325388
19050596 39 18412546548035658624
19422 9 18410292467262068942
19591789 44 18338237059684481758
200 152 18335715896902152231
20261772 1 18409724058400056594
20281475 54 18412826854675841356
21267235 1 18411130355246948310
21501502 16 18412263930407762678
21673915 165 18410857620718439682
221490 88 18411699877112255746
23227448 37 18337392737769995191
23402539 116 18202291272877712626
23559900 14 18410586067000346168
23566358 27 18271230639075491316
23598288 3 18187652392356045125
312423 11 18342732975557116878
350125 39 18409730629694582116
4214541 1 18408887373196021288
5104073 3 18409175411262497712
7097593 13 18198064883266798002
77779 3 18408604768843306834
9709674 26 18262800794910190926

> <PUBCHEM_SHAPE_MULTIPOLES>
396.72
9.2
3.01
0.87
5.38
0.01
0.02
1.5
-2.03
-1.83
0.12
-0.52
0
-0.37

> <PUBCHEM_SHAPE_SELFOVERLAP>
809.38

> <PUBCHEM_SHAPE_VOLUME>
226.2

> <PUBCHEM_COORDINATE_TYPE>
2
5
10

$$$$

