3968
  -OEChem-06251223473D

 48 48  0     0  0  0  0  0  0999 V2000
   -2.7947   -0.0302   -0.3932 O   0  0  0  0  0  0  0  0  0  0  0  0
    3.5521    0.0181   -0.2302 N   0  0  0  0  0  0  0  0  0  0  0  0
   -1.4810   -2.5322   -0.0809 C   0  0  0  0  0  0  0  0  0  0  0  0
   -1.5192    2.4903   -0.0712 C   0  0  0  0  0  0  0  0  0  0  0  0
   -0.7624   -1.1849    0.1001 C   0  0  0  0  0  0  0  0  0  0  0  0
   -0.8016    1.1921    0.0999 C   0  0  0  0  0  0  0  0  0  0  0  0
   -1.4696   -0.0208   -0.0689 C   0  0  0  0  0  0  0  0  0  0  0  0
    1.2396   -0.0014    0.5961 C   0  0  0  0  0  0  0  0  0  0  0  0
    0.5715   -1.2141    0.4274 C   0  0  0  0  0  0  0  0  0  0  0  0
    0.5531    1.2016    0.4324 C   0  0  0  0  0  0  0  0  0  0  0  0
   -2.6674   -2.7430    0.8869 C   0  0  0  0  0  0  0  0  0  0  0  0
   -0.4859   -3.6881    0.1591 C   0  0  0  0  0  0  0  0  0  0  0  0
   -2.0405   -2.6339   -1.5165 C   0  0  0  0  0  0  0  0  0  0  0  0
   -2.7065    2.4701   -1.0891 C   0  0  0  0  0  0  0  0  0  0  0  0
   -2.1348    2.9765    1.2768 C   0  0  0  0  0  0  0  0  0  0  0  0
   -0.5543    3.6054   -0.5786 C   0  0  0  0  0  0  0  0  0  0  0  0
    2.6880    0.0089    0.9515 C   0  0  0  0  0  0  0  0  0  0  0  0
    4.9530    0.0381    0.1584 C   0  0  0  0  0  0  0  0  0  0  0  0
    5.8606    0.0476   -1.0600 C   0  0  0  0  0  0  0  0  0  0  0  0
    1.1662   -2.1063    0.5684 H   0  0  0  0  0  0  0  0  0  0  0  0
    1.1048    2.1206    0.5968 H   0  0  0  0  0  0  0  0  0  0  0  0
   -3.0801   -3.7544    0.7912 H   0  0  0  0  0  0  0  0  0  0  0  0
   -2.3461   -2.6127    1.9271 H   0  0  0  0  0  0  0  0  0  0  0  0
   -3.4949   -2.0498    0.7140 H   0  0  0  0  0  0  0  0  0  0  0  0
   -0.0955   -3.7068    1.1839 H   0  0  0  0  0  0  0  0  0  0  0  0
    0.3417   -3.6916   -0.5607 H   0  0  0  0  0  0  0  0  0  0  0  0
   -0.9931   -4.6524    0.0197 H   0  0  0  0  0  0  0  0  0  0  0  0
   -1.2626   -2.4176   -2.2586 H   0  0  0  0  0  0  0  0  0  0  0  0
   -2.4048   -3.6492   -1.7166 H   0  0  0  0  0  0  0  0  0  0  0  0
   -2.8813   -1.9640   -1.7142 H   0  0  0  0  0  0  0  0  0  0  0  0
   -2.9779    3.4918   -1.3854 H   0  0  0  0  0  0  0  0  0  0  0  0
   -2.4399    1.9397   -2.0106 H   0  0  0  0  0  0  0  0  0  0  0  0
   -3.6328    2.0580   -0.6783 H   0  0  0  0  0  0  0  0  0  0  0  0
   -1.3570    3.1045    2.0389 H   0  0  0  0  0  0  0  0  0  0  0  0
   -2.6472    3.9378    1.1569 H   0  0  0  0  0  0  0  0  0  0  0  0
   -2.8588    2.2531    1.6686 H   0  0  0  0  0  0  0  0  0  0  0  0
   -1.1054    4.5198   -0.8314 H   0  0  0  0  0  0  0  0  0  0  0  0
    0.1753    3.9104    0.1793 H   0  0  0  0  0  0  0  0  0  0  0  0
   -0.0162    3.2905   -1.4805 H   0  0  0  0  0  0  0  0  0  0  0  0
    2.8965    0.8886    1.5747 H   0  0  0  0  0  0  0  0  0  0  0  0
    2.9133   -0.8631    1.5799 H   0  0  0  0  0  0  0  0  0  0  0  0
   -3.2696    0.3192    0.3816 H   0  0  0  0  0  0  0  0  0  0  0  0
    3.3688   -0.8123   -0.7935 H   0  0  0  0  0  0  0  0  0  0  0  0
    5.1947   -0.8395    0.7698 H   0  0  0  0  0  0  0  0  0  0  0  0
    5.1668    0.9316    0.7566 H   0  0  0  0  0  0  0  0  0  0  0  0
    5.7103   -0.8475   -1.6730 H   0  0  0  0  0  0  0  0  0  0  0  0
    5.6732    0.9268   -1.6856 H   0  0  0  0  0  0  0  0  0  0  0  0
    6.9103    0.0716   -0.7500 H   0  0  0  0  0  0  0  0  0  0  0  0
  1  7  1  0  0  0  0
  1 42  1  0  0  0  0
  2 17  1  0  0  0  0
  2 18  1  0  0  0  0
  2 43  1  0  0  0  0
  3  5  1  0  0  0  0
  3 11  1  0  0  0  0
  3 12  1  0  0  0  0
  3 13  1  0  0  0  0
  4  6  1  0  0  0  0
  4 14  1  0  0  0  0
  4 15  1  0  0  0  0
  4 16  1  0  0  0  0
  5  7  2  0  0  0  0
  5  9  1  0  0  0  0
  6  7  1  0  0  0  0
  6 10  2  0  0  0  0
  8  9  2  0  0  0  0
  8 10  1  0  0  0  0
  8 17  1  0  0  0  0
  9 20  1  0  0  0  0
 10 21  1  0  0  0  0
 11 22  1  0  0  0  0
 11 23  1  0  0  0  0
 11 24  1  0  0  0  0
 12 25  1  0  0  0  0
 12 26  1  0  0  0  0
 12 27  1  0  0  0  0
 13 28  1  0  0  0  0
 13 29  1  0  0  0  0
 13 30  1  0  0  0  0
 14 31  1  0  0  0  0
 14 32  1  0  0  0  0
 14 33  1  0  0  0  0
 15 34  1  0  0  0  0
 15 35  1  0  0  0  0
 15 36  1  0  0  0  0
 16 37  1  0  0  0  0
 16 38  1  0  0  0  0
 16 39  1  0  0  0  0
 17 40  1  0  0  0  0
 17 41  1  0  0  0  0
 18 19  1  0  0  0  0
 18 44  1  0  0  0  0
 18 45  1  0  0  0  0
 19 46  1  0  0  0  0
 19 47  1  0  0  0  0
 19 48  1  0  0  0  0
M  END
> <PUBCHEM_COMPOUND_CID>
3968

> <PUBCHEM_CONFORMER_RMSD>
0.6

> <PUBCHEM_CONFORMER_DIVERSEORDER>
1
11
3
14
4
9
2
5
12
10
6
7
13
8

> <PUBCHEM_MMFF94_PARTIAL_CHARGES>
16
1 -0.53
10 -0.15
17 0.41
18 0.27
2 -0.9
20 0.15
21 0.15
3 0.14
4 0.14
42 0.45
43 0.36
5 -0.14
6 -0.14
7 0.08
8 -0.14
9 -0.15

> <PUBCHEM_EFFECTIVE_ROTOR_COUNT>
5

> <PUBCHEM_PHARMACOPHORE_FEATURES>
6
1 1 donor
1 2 cation
1 2 donor
4 3 11 12 13 hydrophobe
4 4 14 15 16 hydrophobe
6 5 6 7 8 9 10 rings

> <PUBCHEM_HEAVY_ATOM_COUNT>
19

> <PUBCHEM_ATOM_DEF_STEREO_COUNT>
0

> <PUBCHEM_ATOM_UDEF_STEREO_COUNT>
0

> <PUBCHEM_BOND_DEF_STEREO_COUNT>
0

> <PUBCHEM_BOND_UDEF_STEREO_COUNT>
0

> <PUBCHEM_ISOTOPIC_ATOM_COUNT>
0

> <PUBCHEM_COMPONENT_COUNT>
1

> <PUBCHEM_CACTVS_TAUTO_COUNT>
2

> <PUBCHEM_CONFORMER_ID>
00000F8000000001

> <PUBCHEM_MMFF94_ENERGY>
74.5858

> <PUBCHEM_FEATURE_SELFOVERLAP>
30.446

> <PUBCHEM_SHAPE_FINGERPRINT>
10411042 1 18123750850887785754
10967382 1 15886882912213777505
12160290 23 18265073433931089403
12173636 292 18195538205904969044
12390115 104 18044360845695485248
12553582 1 18196099845772279722
12788726 201 18339938051148506747
13140716 1 18266184928686406993
14022347 108 18126582119056694322
14508225 48 18264781951870665108
14790565 3 18338227267054331449
15042514 8 18412823585979070794
15463212 79 18272374213315965448
15842332 3 17917162688491278418
16752209 62 18339381711228738754
16945 1 18338817657426128161
17492 54 18128558100977391037
17539 30 18335995172386089310
1813 80 17974267851450617806
18785283 64 17474660032523300392
19591789 44 18120652697645110699
20101258 96 18197763437140411224
20510252 161 18335146418086926385
20645476 183 18271812379505596588
21029758 27 18126278649594541483
21041028 32 18123738773681771083
21202864 24 18262499473089793009
21524375 3 18048894179322689379
2255824 54 17326903275084759529
22620623 9 18187647985883233438
22849341 161 17977642248525937795
2334 1 17978804402040176729
23366157 5 17335061642641190707
23402539 116 18334865999840767663
23419403 2 17097800974983791635
23557571 272 18334852776121831260
23559900 14 18187929551887654890
2748010 2 18049183076124265217
3071541 12 17257093095477556528
3071541 250 17909264680871128976
3091708 16 9129909695918714169
352729 6 18194695975243858115
3729539 64 17326585490871962358
458136 41 17831292070726916785
559249 180 18268715099065390714
6049 1 17895763894249017984
7364860 26 17185034964605477539
81228 2 18337686221301211889
9709674 26 18260545667309052638

> <PUBCHEM_SHAPE_MULTIPOLES>
380.16
6.83
4.63
1.11
16.01
0.1
0.12
-0.26
1.74
-5.56
0.25
-0.23
-0.04
-0.08

> <PUBCHEM_SHAPE_SELFOVERLAP>
773.225

> <PUBCHEM_SHAPE_VOLUME>
225.9

> <PUBCHEM_COORDINATE_TYPE>
2
5
10

$$$$

