97032
  -OEChem-07051213043D

 24 25  0     0  0  0  0  0  0999 V2000
    3.6509    2.6252   -0.7069 Cl  0  0  0  0  0  0  0  0  0  0  0  0
   -3.6508    2.6252    0.7069 Cl  0  0  0  0  0  0  0  0  0  0  0  0
    3.6484   -2.6263    0.7057 Cl  0  0  0  0  0  0  0  0  0  0  0  0
   -3.6485   -2.6263   -0.7056 Cl  0  0  0  0  0  0  0  0  0  0  0  0
    4.8788   -0.0006   -0.0001 O   0  0  0  0  0  0  0  0  0  0  0  0
   -4.8788   -0.0006    0.0001 O   0  0  0  0  0  0  0  0  0  0  0  0
    0.7234    0.0007    0.0004 C   0  0  0  0  0  0  0  0  0  0  0  0
   -0.7234    0.0007   -0.0004 C   0  0  0  0  0  0  0  0  0  0  0  0
    1.4204   -1.1662    0.3133 C   0  0  0  0  0  0  0  0  0  0  0  0
   -1.4204   -1.1662   -0.3134 C   0  0  0  0  0  0  0  0  0  0  0  0
    1.4213    1.1672   -0.3126 C   0  0  0  0  0  0  0  0  0  0  0  0
   -1.4213    1.1673    0.3126 C   0  0  0  0  0  0  0  0  0  0  0  0
    2.8162    1.1668   -0.3123 C   0  0  0  0  0  0  0  0  0  0  0  0
   -2.8162    1.1668    0.3123 C   0  0  0  0  0  0  0  0  0  0  0  0
    2.8153   -1.1667    0.3135 C   0  0  0  0  0  0  0  0  0  0  0  0
   -2.8153   -1.1667   -0.3135 C   0  0  0  0  0  0  0  0  0  0  0  0
    3.5132   -0.0001    0.0007 C   0  0  0  0  0  0  0  0  0  0  0  0
   -3.5132   -0.0001   -0.0007 C   0  0  0  0  0  0  0  0  0  0  0  0
    0.9056   -2.0821    0.5933 H   0  0  0  0  0  0  0  0  0  0  0  0
   -0.9055   -2.0821   -0.5934 H   0  0  0  0  0  0  0  0  0  0  0  0
    0.9069    2.0833   -0.5930 H   0  0  0  0  0  0  0  0  0  0  0  0
   -0.9070    2.0834    0.5929 H   0  0  0  0  0  0  0  0  0  0  0  0
    5.1867    0.8907   -0.2392 H   0  0  0  0  0  0  0  0  0  0  0  0
   -5.1867    0.8907    0.2392 H   0  0  0  0  0  0  0  0  0  0  0  0
  1 13  1  0  0  0  0
  2 14  1  0  0  0  0
  3 15  1  0  0  0  0
  4 16  1  0  0  0  0
  5 17  1  0  0  0  0
  5 23  1  0  0  0  0
  6 18  1  0  0  0  0
  6 24  1  0  0  0  0
  7  8  1  0  0  0  0
  7  9  2  0  0  0  0
  7 11  1  0  0  0  0
  8 10  2  0  0  0  0
  8 12  1  0  0  0  0
  9 15  1  0  0  0  0
  9 19  1  0  0  0  0
 10 16  1  0  0  0  0
 10 20  1  0  0  0  0
 11 13  2  0  0  0  0
 11 21  1  0  0  0  0
 12 14  2  0  0  0  0
 12 22  1  0  0  0  0
 13 17  1  0  0  0  0
 14 18  1  0  0  0  0
 15 17  2  0  0  0  0
 16 18  2  0  0  0  0
M  END
> <PUBCHEM_COMPOUND_CID>
97032

> <PUBCHEM_CONFORMER_RMSD>
0.6

> <PUBCHEM_CONFORMER_DIVERSEORDER>
1
2

> <PUBCHEM_MMFF94_PARTIAL_CHARGES>
22
1 -0.18
10 -0.15
11 -0.15
12 -0.15
13 0.18
14 0.18
15 0.18
16 0.18
17 0.08
18 0.08
19 0.15
2 -0.18
20 0.15
21 0.15
22 0.15
23 0.45
24 0.45
3 -0.18
4 -0.18
5 -0.53
6 -0.53
9 -0.15

> <PUBCHEM_EFFECTIVE_ROTOR_COUNT>
1

> <PUBCHEM_PHARMACOPHORE_FEATURES>
4
1 5 donor
1 6 donor
6 7 9 11 13 15 17 rings
6 8 10 12 14 16 18 rings

> <PUBCHEM_HEAVY_ATOM_COUNT>
18

> <PUBCHEM_ATOM_DEF_STEREO_COUNT>
0

> <PUBCHEM_ATOM_UDEF_STEREO_COUNT>
0

> <PUBCHEM_BOND_DEF_STEREO_COUNT>
0

> <PUBCHEM_BOND_UDEF_STEREO_COUNT>
0

> <PUBCHEM_ISOTOPIC_ATOM_COUNT>
0

> <PUBCHEM_COMPONENT_COUNT>
1

> <PUBCHEM_CACTVS_TAUTO_COUNT>
3

> <PUBCHEM_CONFORMER_ID>
00017B0800000001

> <PUBCHEM_MMFF94_ENERGY>
50.1066

> <PUBCHEM_FEATURE_SELFOVERLAP>
20.297

> <PUBCHEM_SHAPE_FINGERPRINT>
10062212 137 18336272335352946939
10616163 171 18335420136416445535
12107183 9 17978229692234203763
12173636 292 18261117365720244869
12236239 1 18410573989446418440
12251169 10 18410856581114626126
13140716 1 18338516451243065714
13167823 11 18410855464423447398
13583140 156 17774996942820859705
13760787 19 18337105674766616847
14178342 30 18337973258566850818
14289901 80 18410573959381647731
14576447 43 18339086982141351110
15196674 1 18410575084663078912
15442244 35 18339361993123163714
15536298 74 18408885135771189634
15669948 3 18113902615637227239
17492 89 18410573985231605299
17834072 33 18340487768270324014
1813 80 17345467266632253150
18186145 218 17275389802161089354
19050596 39 18410856529585581042
19422 9 18410857663446663975
200 152 18337677421034736231
20281475 54 18410581681738451622
20510252 161 18040711528538515041
20645477 70 18343024406157671822
21267235 1 18410846668330347239
21501502 16 18410575084663078919
21709351 56 18341899571761064484
221490 88 18342731884714960618
2255824 54 18272087210669190114
23402539 116 18336272253727437071
23402655 69 18412825806582638212
23463225 33 18410856594179025486
23557571 272 17676483977483557032
23559900 14 18115306816824954006
23598288 3 18113617859426808949
23598291 2 18413112783280703190
312423 11 18341604928019114759
335352 9 18122625221415403884
3545911 37 18410856559639796094
4214541 1 18409730694245848001
4409770 3 17049938495424701508
474 4 17916298351607815828
5104073 3 18410855417178489736
53777708 50 18410572881376634602
543358 83 18340481270517561388
573450 72 18336837479865838699
603831 33 18190749630453876054
633830 44 17203604921371823960
7097593 13 18267870656142713850
7364860 26 18411136940080282754
77779 3 18410572889934829646
7832392 63 18410011082785827808
84936 182 18264205821085164072
9709674 26 18411695469980353594
9981440 41 17909833128889748168

> <PUBCHEM_SHAPE_MULTIPOLES>
366.17
9.48
2.92
0.78
0
0
0
0
0
0
0
0
0
-2.01

> <PUBCHEM_SHAPE_SELFOVERLAP>
762.833

> <PUBCHEM_SHAPE_VOLUME>
213.1

> <PUBCHEM_COORDINATE_TYPE>
2
5
10

$$$$

