441674
  -OEChem-07051212553D

 73 77  0     1  0  0  0  0  0999 V2000
   -0.3780   -1.6859    0.8093 O   0  0  0  0  0  0  0  0  0  0  0  0
   -3.0566   -1.0410    0.6578 O   0  0  0  0  0  0  0  0  0  0  0  0
   -5.3391   -1.6867    0.5897 O   0  0  0  0  0  0  0  0  0  0  0  0
   -1.5981   -4.7508   -0.7818 O   0  0  0  0  0  0  0  0  0  0  0  0
    1.1766   -5.3429   -0.2284 O   0  0  0  0  0  0  0  0  0  0  0  0
    1.7525   -0.7618    1.0346 O   0  0  0  0  0  0  0  0  0  0  0  0
    2.8188   -2.9087   -0.4695 O   0  0  0  0  0  0  0  0  0  0  0  0
   -5.9189    0.7514    1.9967 O   0  0  0  0  0  0  0  0  0  0  0  0
   -5.5609    2.3713   -0.2375 O   0  0  0  0  0  0  0  0  0  0  0  0
   -6.1285    0.4728   -2.2917 O   0  0  0  0  0  0  0  0  0  0  0  0
    2.9308    2.5477   -0.1255 O   0  3  0  0  0  0  0  0  0  0  0  0
   -1.8792    2.8203    0.4998 O   0  0  0  0  0  0  0  0  0  0  0  0
    0.5766    6.6516   -0.8864 O   0  0  0  0  0  0  0  0  0  0  0  0
    6.1566   -1.4953   -2.1203 O   0  0  0  0  0  0  0  0  0  0  0  0
    7.7486   -1.5760    0.1566 O   0  0  0  0  0  0  0  0  0  0  0  0
   -1.2617   -2.5121    0.0493 C   0  0  1  0  0  0  0  0  0  0  0  0
   -0.7545   -3.9561    0.0476 C   0  0  2  0  0  0  0  0  0  0  0  0
    0.6803   -4.0265   -0.4756 C   0  0  1  0  0  0  0  0  0  0  0  0
    1.5757   -3.0049    0.2254 C   0  0  2  0  0  0  0  0  0  0  0  0
   -4.7483    0.5963    1.1929 C   0  0  1  0  0  0  0  0  0  0  0  0
   -4.3484   -0.8775    1.2327 C   0  0  2  0  0  0  0  0  0  0  0  0
   -5.0367    1.0454   -0.2406 C   0  0  1  0  0  0  0  0  0  0  0  0
   -6.0392    0.1092   -0.9163 C   0  0  2  0  0  0  0  0  0  0  0  0
    0.9295   -1.6197    0.2448 C   0  0  1  0  0  0  0  0  0  0  0  0
   -2.6479   -2.4012    0.6761 C   0  0  0  0  0  0  0  0  0  0  0  0
   -5.5746   -1.3476   -0.7807 C   0  0  2  0  0  0  0  0  0  0  0  0
   -6.6142   -2.3311   -1.3109 C   0  0  0  0  0  0  0  0  0  0  0  0
    1.6721    0.5454    0.6129 C   0  0  0  0  0  0  0  0  0  0  0  0
    2.9063    1.2848    0.1978 C   0  0  0  0  0  0  0  0  0  0  0  0
    0.5253    1.2368    0.5972 C   0  0  0  0  0  0  0  0  0  0  0  0
    0.5068    2.6411    0.2041 C   0  0  0  0  0  0  0  0  0  0  0  0
    4.1816    0.5307    0.1834 C   0  0  0  0  0  0  0  0  0  0  0  0
    1.7156    3.2581   -0.1344 C   0  0  0  0  0  0  0  0  0  0  0  0
   -0.6792    3.3806    0.1745 C   0  0  0  0  0  0  0  0  0  0  0  0
    1.7392    4.6044   -0.5004 C   0  0  0  0  0  0  0  0  0  0  0  0
    4.5751   -0.1343   -0.9723 C   0  0  0  0  0  0  0  0  0  0  0  0
    4.9724    0.4943    1.3263 C   0  0  0  0  0  0  0  0  0  0  0  0
   -0.6531    4.7272   -0.1929 C   0  0  0  0  0  0  0  0  0  0  0  0
    0.5547    5.3384   -0.5293 C   0  0  0  0  0  0  0  0  0  0  0  0
    5.7754   -0.8450   -0.9855 C   0  0  0  0  0  0  0  0  0  0  0  0
    6.1724   -0.2166    1.3132 C   0  0  0  0  0  0  0  0  0  0  0  0
    6.5740   -0.8862    0.1573 C   0  0  0  0  0  0  0  0  0  0  0  0
   -1.3203   -2.1127   -0.9725 H   0  0  0  0  0  0  0  0  0  0  0  0
   -0.7946   -4.3804    1.0583 H   0  0  0  0  0  0  0  0  0  0  0  0
    0.7099   -3.8836   -1.5629 H   0  0  0  0  0  0  0  0  0  0  0  0
    1.8071   -3.3380    1.2441 H   0  0  0  0  0  0  0  0  0  0  0  0
   -3.9708    1.2314    1.6297 H   0  0  0  0  0  0  0  0  0  0  0  0
   -4.3104   -1.2040    2.2794 H   0  0  0  0  0  0  0  0  0  0  0  0
   -4.1077    1.0761   -0.8220 H   0  0  0  0  0  0  0  0  0  0  0  0
   -7.0334    0.2497   -0.4749 H   0  0  0  0  0  0  0  0  0  0  0  0
    0.8693   -1.2397   -0.7872 H   0  0  0  0  0  0  0  0  0  0  0  0
   -2.6131   -2.7410    1.7185 H   0  0  0  0  0  0  0  0  0  0  0  0
   -3.3550   -3.0263    0.1213 H   0  0  0  0  0  0  0  0  0  0  0  0
   -4.6543   -1.5033   -1.3581 H   0  0  0  0  0  0  0  0  0  0  0  0
   -6.7948   -2.1963   -2.3810 H   0  0  0  0  0  0  0  0  0  0  0  0
   -7.5642   -2.2212   -0.7764 H   0  0  0  0  0  0  0  0  0  0  0  0
   -6.2797   -3.3615   -1.1470 H   0  0  0  0  0  0  0  0  0  0  0  0
   -1.5758   -4.3765   -1.6791 H   0  0  0  0  0  0  0  0  0  0  0  0
    0.5796   -5.9676   -0.6748 H   0  0  0  0  0  0  0  0  0  0  0  0
    2.6350   -2.6156   -1.3783 H   0  0  0  0  0  0  0  0  0  0  0  0
   -6.5704    0.0844    1.7217 H   0  0  0  0  0  0  0  0  0  0  0  0
   -6.3623    2.3724    0.3135 H   0  0  0  0  0  0  0  0  0  0  0  0
   -6.8774   -0.0108   -2.6786 H   0  0  0  0  0  0  0  0  0  0  0  0
   -0.3899    0.7750    0.9419 H   0  0  0  0  0  0  0  0  0  0  0  0
    2.6867    5.0676   -0.7618 H   0  0  0  0  0  0  0  0  0  0  0  0
    3.9536   -0.1044   -1.8638 H   0  0  0  0  0  0  0  0  0  0  0  0
    4.6673    1.0133    2.2310 H   0  0  0  0  0  0  0  0  0  0  0  0
   -1.5759    5.3019   -0.2160 H   0  0  0  0  0  0  0  0  0  0  0  0
    6.7850   -0.2403    2.2105 H   0  0  0  0  0  0  0  0  0  0  0  0
   -1.8662    1.8685    0.3142 H   0  0  0  0  0  0  0  0  0  0  0  0
    1.4933    6.9086   -1.0859 H   0  0  0  0  0  0  0  0  0  0  0  0
    7.0087   -1.9332   -1.9502 H   0  0  0  0  0  0  0  0  0  0  0  0
    8.1652   -1.4930    1.0316 H   0  0  0  0  0  0  0  0  0  0  0  0
  1 16  1  0  0  0  0
  1 24  1  0  0  0  0
  2 21  1  0  0  0  0
  2 25  1  0  0  0  0
  3 21  1  0  0  0  0
  3 26  1  0  0  0  0
  4 17  1  0  0  0  0
  4 58  1  0  0  0  0
  5 18  1  0  0  0  0
  5 59  1  0  0  0  0
  6 24  1  0  0  0  0
  6 28  1  0  0  0  0
  7 19  1  0  0  0  0
  7 60  1  0  0  0  0
  8 20  1  0  0  0  0
  8 61  1  0  0  0  0
  9 22  1  0  0  0  0
  9 62  1  0  0  0  0
 10 23  1  0  0  0  0
 10 63  1  0  0  0  0
 11 29  2  0  0  0  0
 11 33  1  0  0  0  0
 12 34  1  0  0  0  0
 12 70  1  0  0  0  0
 13 39  1  0  0  0  0
 13 71  1  0  0  0  0
 14 40  1  0  0  0  0
 14 72  1  0  0  0  0
 15 42  1  0  0  0  0
 15 73  1  0  0  0  0
 16 17  1  0  0  0  0
 16 25  1  0  0  0  0
 16 43  1  0  0  0  0
 17 18  1  0  0  0  0
 17 44  1  0  0  0  0
 18 19  1  0  0  0  0
 18 45  1  0  0  0  0
 19 24  1  0  0  0  0
 19 46  1  0  0  0  0
 20 21  1  0  0  0  0
 20 22  1  0  0  0  0
 20 47  1  0  0  0  0
 21 48  1  0  0  0  0
 22 23  1  0  0  0  0
 22 49  1  0  0  0  0
 23 26  1  0  0  0  0
 23 50  1  0  0  0  0
 24 51  1  0  0  0  0
 25 52  1  0  0  0  0
 25 53  1  0  0  0  0
 26 27  1  0  0  0  0
 26 54  1  0  0  0  0
 27 55  1  0  0  0  0
 27 56  1  0  0  0  0
 27 57  1  0  0  0  0
 28 29  1  0  0  0  0
 28 30  2  0  0  0  0
 29 32  1  0  0  0  0
 30 31  1  0  0  0  0
 30 64  1  0  0  0  0
 31 33  1  0  0  0  0
 31 34  2  0  0  0  0
 32 36  2  0  0  0  0
 32 37  1  0  0  0  0
 33 35  2  0  0  0  0
 34 38  1  0  0  0  0
 35 39  1  0  0  0  0
 35 65  1  0  0  0  0
 36 40  1  0  0  0  0
 36 66  1  0  0  0  0
 37 41  2  0  0  0  0
 37 67  1  0  0  0  0
 38 39  2  0  0  0  0
 38 68  1  0  0  0  0
 40 42  2  0  0  0  0
 41 42  1  0  0  0  0
 41 69  1  0  0  0  0
M  CHG  1  11   1
M  END
> <PUBCHEM_COMPOUND_CID>
441674

> <PUBCHEM_CONFORMER_RMSD>
1.2

> <PUBCHEM_CONFORMER_DIVERSEORDER>
2
7
3
66
26
585
188
90
619
49
614
366
65
674
646
242
271
80
443
149
107
343
303
622
369
128
239
315
71
6
399
24
668
321
486
593
604
560
148
402
370
263
512
543
193
306
349
30
638
184
340
273
196
185
539
75
130
162
302
298
563
350
55
21
256
38
28
325
394
274
291
36
603
409
597
92
337
541
383
93
16
331
118
207
210
186
175
521
658
640
272
335
598
576
411
123
557
258
444
440
551
289
147
217
78
665
517
277
209
282
255
641
101
292
9
538
388
42
285
251
214
220
264
37
211
140
177
651
546
659
63
672
456
447
47
58
562
365
94
18
202
224
669
459
501
8
494
125
104
51
262
421
235
657
15
236
661
423
112
133
89
552
471
588
384
187
68
200
199
179
116
56
332
203
50
119
450
385
171
387
14
43
523
97
129
91
86
164
288
194
571
524
53
35
100
445
530
351
219
528
1
584
522
246
48
579
157
98
572
111
17
568
345
218
216
564
122
4
336
380
34
82
620
12
386
319
70
142
374
85
10
596
29
77
115
40
259
60
254
11
233
192

> <PUBCHEM_MMFF94_PARTIAL_CHARGES>
57
1 -0.56
10 -0.68
11 -0.87
12 -0.53
13 -0.53
14 -0.53
15 -0.53
16 0.28
17 0.28
18 0.28
19 0.28
2 -0.56
20 0.28
21 0.56
22 0.28
23 0.28
24 0.56
25 0.28
26 0.28
28 0.09
29 0.85
3 -0.56
30 -0.18
31 0.03
32 0.09
33 0.92
34 0.08
35 -0.15
36 -0.15
37 -0.15
38 -0.15
39 0.08
4 -0.68
40 0.08
41 -0.15
42 0.08
5 -0.68
58 0.4
59 0.4
6 -0.36
60 0.4
61 0.4
62 0.4
63 0.4
64 0.15
65 0.15
66 0.15
67 0.15
68 0.15
69 0.15
7 -0.68
70 0.45
71 0.45
72 0.45
73 0.45
8 -0.68
9 -0.68

> <PUBCHEM_EFFECTIVE_ROTOR_COUNT>
8.4

> <PUBCHEM_PHARMACOPHORE_FEATURES>
25
1 1 acceptor
1 10 acceptor
1 10 donor
1 12 donor
1 13 donor
1 14 donor
1 15 donor
1 2 acceptor
1 3 acceptor
1 4 acceptor
1 4 donor
1 5 acceptor
1 5 donor
1 6 acceptor
1 7 acceptor
1 7 donor
1 8 acceptor
1 8 donor
1 9 acceptor
1 9 donor
6 1 16 17 18 19 24 rings
6 11 28 29 30 31 33 rings
6 3 20 21 22 23 26 rings
6 31 33 34 35 38 39 rings
6 32 36 37 40 41 42 rings

> <PUBCHEM_HEAVY_ATOM_COUNT>
42

> <PUBCHEM_ATOM_DEF_STEREO_COUNT>
10

> <PUBCHEM_ATOM_UDEF_STEREO_COUNT>
0

> <PUBCHEM_BOND_DEF_STEREO_COUNT>
0

> <PUBCHEM_BOND_UDEF_STEREO_COUNT>
0

> <PUBCHEM_ISOTOPIC_ATOM_COUNT>
0

> <PUBCHEM_COMPONENT_COUNT>
1

> <PUBCHEM_CACTVS_TAUTO_COUNT>
154

> <PUBCHEM_CONFORMER_ID>
0006BD4A00000002

> <PUBCHEM_MMFF94_ENERGY>
133.4198

> <PUBCHEM_FEATURE_SELFOVERLAP>
127.01

> <PUBCHEM_SHAPE_FINGERPRINT>
10190108 129 18264189478222594737
10675989 125 18341325618481108458
10815517 723 18261666056166361936
11135926 11 18338238275502793041
11227688 84 18192165986193238413
11513181 2 18042687398109820599
11763389 116 18338238292229559958
12788726 201 18202002179235512306
13782708 43 17895473734779700096
14068700 675 18260547818418138417
14117953 113 18410854404141804565
15001296 14 17982178812280089939
15183329 4 18413389830283333810
15320467 1 18410855495036792713
15781502 589 17686615745200108558
16067690 210 15410621406406352637
16087824 20 18340767151878237913
18681886 176 18339369573577164824
19311894 1 18337113354300640747
19611394 137 18058154039315801235
20028762 73 18261112971815707190
21796203 349 17982975000027093097
23576562 1 18123748660659894854
24771293 8 18260550000767329288
3103668 31 18270966863570070941
340366 18 18266739082631507074
46939830 39 17703787007285751420
6086070 43 18271261425686204167
6371009 1 18264781956592867603

> <PUBCHEM_SHAPE_MULTIPOLES>
776.3
15.92
7.72
1.29
3.1
6.48
0.15
-6.85
2.22
-0.92
2.19
0.65
-0.15
-0.06

> <PUBCHEM_SHAPE_SELFOVERLAP>
1685.534

> <PUBCHEM_SHAPE_VOLUME>
418.2

> <PUBCHEM_COORDINATE_TYPE>
2
5
10

$$$$

