17395705
  -OEChem-06241222513D

 37 39  0     0  0  0  0  0  0999 V2000
    1.3853    0.9017   -1.3670 S   0  0  0  0  0  0  0  0  0  0  0  0
   -1.6354    0.1194    0.1668 O   0  0  0  0  0  0  0  0  0  0  0  0
    5.1611   -0.1518   -1.4950 N   0  0  0  0  0  0  0  0  0  0  0  0
    3.5164   -0.0544    0.0918 N   0  0  0  0  0  0  0  0  0  0  0  0
    4.0059    0.2972   -2.0087 N   0  0  0  0  0  0  0  0  0  0  0  0
   -1.2357    2.2892    0.6641 N   0  0  0  0  0  0  0  0  0  0  0  0
    5.8048   -0.8583    0.7498 C   0  0  0  0  0  0  0  0  0  0  0  0
    4.8120   -0.3502   -0.2221 C   0  0  0  0  0  0  0  0  0  0  0  0
    5.4203   -2.2318    1.3468 C   0  0  0  0  0  0  0  0  0  0  0  0
    6.0944    0.1370    1.8971 C   0  0  0  0  0  0  0  0  0  0  0  0
    3.0334    0.3520   -1.0593 C   0  0  0  0  0  0  0  0  0  0  0  0
    0.6877    0.7163    0.3111 C   0  0  0  0  0  0  0  0  0  0  0  0
   -2.8347    0.7493    0.3086 C   0  0  0  0  0  0  0  0  0  0  0  0
   -0.7277    1.1078    0.3948 C   0  0  0  0  0  0  0  0  0  0  0  0
   -4.0119   -0.0629    0.1189 C   0  0  0  0  0  0  0  0  0  0  0  0
   -2.5876    2.0654    0.6105 C   0  0  0  0  0  0  0  0  0  0  0  0
   -5.2793    0.5057    0.2448 C   0  0  0  0  0  0  0  0  0  0  0  0
   -3.8826   -1.4168   -0.1906 C   0  0  0  0  0  0  0  0  0  0  0  0
   -6.4174   -0.2794    0.0609 C   0  0  0  0  0  0  0  0  0  0  0  0
   -5.0207   -2.2020   -0.3744 C   0  0  0  0  0  0  0  0  0  0  0  0
   -6.2882   -1.6334   -0.2486 C   0  0  0  0  0  0  0  0  0  0  0  0
    6.7608   -1.0092    0.2281 H   0  0  0  0  0  0  0  0  0  0  0  0
    4.4909   -2.1649    1.9231 H   0  0  0  0  0  0  0  0  0  0  0  0
    6.2091   -2.6032    2.0092 H   0  0  0  0  0  0  0  0  0  0  0  0
    5.2679   -2.9693    0.5510 H   0  0  0  0  0  0  0  0  0  0  0  0
    5.1969    0.3161    2.4995 H   0  0  0  0  0  0  0  0  0  0  0  0
    6.4263    1.1012    1.4967 H   0  0  0  0  0  0  0  0  0  0  0  0
    6.8797   -0.2466    2.5565 H   0  0  0  0  0  0  0  0  0  0  0  0
    6.0063   -0.2625   -2.0485 H   0  0  0  0  0  0  0  0  0  0  0  0
    1.2705    1.3362    1.0013 H   0  0  0  0  0  0  0  0  0  0  0  0
    0.8023   -0.3262    0.6286 H   0  0  0  0  0  0  0  0  0  0  0  0
   -3.2945    2.8620    0.7909 H   0  0  0  0  0  0  0  0  0  0  0  0
   -5.4096    1.5578    0.4851 H   0  0  0  0  0  0  0  0  0  0  0  0
   -2.9118   -1.8942   -0.2966 H   0  0  0  0  0  0  0  0  0  0  0  0
   -7.4045    0.1631    0.1587 H   0  0  0  0  0  0  0  0  0  0  0  0
   -4.9206   -3.2563   -0.6155 H   0  0  0  0  0  0  0  0  0  0  0  0
   -7.1744   -2.2447   -0.3917 H   0  0  0  0  0  0  0  0  0  0  0  0
  1 11  1  0  0  0  0
  1 12  1  0  0  0  0
  2 13  1  0  0  0  0
  2 14  1  0  0  0  0
  3  5  1  0  0  0  0
  3  8  1  0  0  0  0
  3 29  1  0  0  0  0
  4  8  2  0  0  0  0
  4 11  1  0  0  0  0
  5 11  2  0  0  0  0
  6 14  2  0  0  0  0
  6 16  1  0  0  0  0
  7  8  1  0  0  0  0
  7  9  1  0  0  0  0
  7 10  1  0  0  0  0
  7 22  1  0  0  0  0
  9 23  1  0  0  0  0
  9 24  1  0  0  0  0
  9 25  1  0  0  0  0
 10 26  1  0  0  0  0
 10 27  1  0  0  0  0
 10 28  1  0  0  0  0
 12 14  1  0  0  0  0
 12 30  1  0  0  0  0
 12 31  1  0  0  0  0
 13 15  1  0  0  0  0
 13 16  2  0  0  0  0
 15 17  2  0  0  0  0
 15 18  1  0  0  0  0
 16 32  1  0  0  0  0
 17 19  1  0  0  0  0
 17 33  1  0  0  0  0
 18 20  2  0  0  0  0
 18 34  1  0  0  0  0
 19 21  2  0  0  0  0
 19 35  1  0  0  0  0
 20 21  1  0  0  0  0
 20 36  1  0  0  0  0
 21 37  1  0  0  0  0
M  END
> <PUBCHEM_COMPOUND_CID>
17395705

> <PUBCHEM_CONFORMER_RMSD>
0.8

> <PUBCHEM_CONFORMER_DIVERSEORDER>
2
154
132
142
75
155
47
77
152
79
130
8
159
80
51
61
150
55
158
7
41
124
161
1
153
14
28
108
86
45
136
89
101
85
64
84
81
39
106
73
76
157
3
68
74
21
60
62
119
146
138
134
94
135
66
18
92
112
91
20
151
49
29
102
70
145
97
137
12
44
33
40
15
133
57
71
148
147
35
125
32
19
36
114
9
113
67
105
37
5
52
110
139
140
127
126
144
38
43
122
103
82
72
48
34
120
109
95
56
98
131
6
58
104
4
156
17
27
50
10
116
117
143
22
160
118
13
26
65
129
63
30
11
83
149
54
23
121
59
99
53
69
141
24
87
25
31
123
16
115
96
78
100
88
42
90
46
128
107
111
93

> <PUBCHEM_MMFF94_PARTIAL_CHARGES>
26
1 -0.28
11 0.57
12 0.41
13 0.09
14 0.3
15 0.05
16 0.08
17 -0.15
18 -0.15
19 -0.15
2 -0.28
20 -0.15
21 -0.15
29 0.27
3 0.3
32 0.15
33 0.15
34 0.15
35 0.15
36 0.15
37 0.15
4 -0.57
5 -0.71
6 -0.57
7 0.18
8 0.01

> <PUBCHEM_EFFECTIVE_ROTOR_COUNT>
5

> <PUBCHEM_PHARMACOPHORE_FEATURES>
7
1 3 donor
3 3 4 8 cation
3 4 5 11 cation
3 7 9 10 hydrophobe
5 2 6 13 14 16 rings
5 3 4 5 8 11 rings
6 15 17 18 19 20 21 rings

> <PUBCHEM_HEAVY_ATOM_COUNT>
21

> <PUBCHEM_ATOM_DEF_STEREO_COUNT>
0

> <PUBCHEM_ATOM_UDEF_STEREO_COUNT>
0

> <PUBCHEM_BOND_DEF_STEREO_COUNT>
0

> <PUBCHEM_BOND_UDEF_STEREO_COUNT>
0

> <PUBCHEM_ISOTOPIC_ATOM_COUNT>
0

> <PUBCHEM_COMPONENT_COUNT>
1

> <PUBCHEM_CACTVS_TAUTO_COUNT>
5

> <PUBCHEM_CONFORMER_ID>
01096FF900000002

> <PUBCHEM_MMFF94_ENERGY>
37.9945

> <PUBCHEM_FEATURE_SELFOVERLAP>
38.269

> <PUBCHEM_SHAPE_FINGERPRINT>
10 15 17313393309800791602
10378564 45 13038914343658989888
10447042 23 17418371394476403284
106641 1 5256399531542310495
10753850 27 18272934899531497137
10803635 8 18272655649732903111
10912923 1 18342444968146580564
11809386 21 18413669106964412291
12166972 35 17988923362143555164
12236239 1 18131067151598089085
12342043 65 16661746947431392084
12390115 104 12175634996834662679
12516196 113 17095521786316744065
12555020 224 16917345939466851906
12596602 18 18335145323650747576
12616971 3 17846488262115382197
12670543 26 14548743918962639261
13177829 20 5039947473332705431
13533116 47 18202563982353569584
13668630 136 17346880061157924594
13862211 1 18335984190745693199
13914758 101 17060344075753966677
14211702 104 18341324578329682314
14251751 18 18409453578571252697
14251752 14 18131355228567294509
14341114 176 15285352925234785888
14347332 77 18202286926423894693
146900 427 4678813939746069254
15119646 104 17988925603984426218
15183329 4 15195573424213152168
15188451 53 18341058488325966434
17349148 13 18201992244496120918
17834072 8 13901906717748007588
17844677 252 15068889910843274552
17857418 61 18342738524507215506
18222031 100 18342729733242151324
18785283 64 16806463409179616296
190975 80 17095812014304967527
20028762 73 18200879582233373442
20374829 77 18334572422131532725
20621476 91 17822584823371573086
21267235 1 18335975365141768403
21315763 87 16805599248684893767
21521239 73 16774080639836065507
21623969 137 16515684442320391398
21637258 2 18412268311612021469
21728266 224 18411420639227762000
22061861 79 15985383391305865890
22079108 93 14779270812766365724
2215653 11 14549017697785177960
22224240 67 15574716893848728357
23081809 10 18060128855986465821
23198884 109 16271927108668821245
23253445 4 16081084870360214101
23402539 116 18411416215886324517
23522609 53 18124845011107987525
23559900 14 18262523577042694529
29717793 49 17275103946723652340
3004659 81 18338787936226306788
3014063 24 17846225505344782234
312425 54 17386272303059183987
32948 21 11887954359179858176
3729539 64 15338851900972454129
439807 62 17987512620786753227
5104073 3 17967530164338633881
5283156 175 18201720678336087819
5283384 97 17274830198557053842
531348 171 17774728662173274533
542803 24 7132434614251419572
559249 180 18412265047879974863
6438161 24 18340212895439296255
7062679 6 9439405726779908183
8988823 20 17917713466549937804
96874 4 18201449098732704986

> <PUBCHEM_SHAPE_MULTIPOLES>
410.23
18.67
1.98
1.38
3.22
0.4
0.25
10.22
-2.34
-1.43
-0.43
2.8
-0.11
-1.89

> <PUBCHEM_SHAPE_SELFOVERLAP>
867.04

> <PUBCHEM_SHAPE_VOLUME>
233.8

> <PUBCHEM_COORDINATE_TYPE>
2
5
10

$$$$

