97448
  -OEChem-07051212593D

 31 32  0     0  0  0  0  0  0999 V2000
    0.3605    2.0426    0.8656 O   0  0  0  0  0  0  0  0  0  0  0  0
   -1.4189   -2.9121   -0.0573 O   0  0  0  0  0  0  0  0  0  0  0  0
    0.8018   -0.2851    0.8892 C   0  0  0  0  0  0  0  0  0  0  0  0
    2.1883   -0.0376    1.4003 C   0  0  0  0  0  0  0  0  0  0  0  0
   -1.4261    0.6898    0.1498 C   0  0  0  0  0  0  0  0  0  0  0  0
   -1.8972   -0.6011   -0.0940 C   0  0  0  0  0  0  0  0  0  0  0  0
   -0.0546    0.9090    0.6522 C   0  0  0  0  0  0  0  0  0  0  0  0
    0.3345   -1.5159    0.6505 C   0  0  0  0  0  0  0  0  0  0  0  0
   -1.0311   -1.7683    0.1472 C   0  0  0  0  0  0  0  0  0  0  0  0
    3.0261    0.7032    0.4030 C   0  0  0  0  0  0  0  0  0  0  0  0
   -2.2597    1.7905   -0.0830 C   0  0  0  0  0  0  0  0  0  0  0  0
   -3.1992   -0.7942   -0.5701 C   0  0  0  0  0  0  0  0  0  0  0  0
    3.7648    0.1884   -0.5987 C   0  0  0  0  0  0  0  0  0  0  0  0
   -3.5573    1.5950   -0.5574 C   0  0  0  0  0  0  0  0  0  0  0  0
   -4.0261    0.3054   -0.8006 C   0  0  0  0  0  0  0  0  0  0  0  0
    4.5863    0.9894   -1.5689 C   0  0  0  0  0  0  0  0  0  0  0  0
    3.8078   -1.2992   -0.8279 C   0  0  0  0  0  0  0  0  0  0  0  0
    2.1330    0.5596    2.3202 H   0  0  0  0  0  0  0  0  0  0  0  0
    2.6781   -0.9669    1.7131 H   0  0  0  0  0  0  0  0  0  0  0  0
    0.9506   -2.3927    0.8235 H   0  0  0  0  0  0  0  0  0  0  0  0
    3.0307    1.7866    0.5177 H   0  0  0  0  0  0  0  0  0  0  0  0
   -1.9183    2.8060    0.0985 H   0  0  0  0  0  0  0  0  0  0  0  0
   -3.5867   -1.7903   -0.7667 H   0  0  0  0  0  0  0  0  0  0  0  0
   -4.2030    2.4497   -0.7376 H   0  0  0  0  0  0  0  0  0  0  0  0
   -5.0366    0.1562   -1.1699 H   0  0  0  0  0  0  0  0  0  0  0  0
    5.6410    0.7036   -1.5034 H   0  0  0  0  0  0  0  0  0  0  0  0
    4.5171    2.0629   -1.3648 H   0  0  0  0  0  0  0  0  0  0  0  0
    4.2397    0.8206   -2.5934 H   0  0  0  0  0  0  0  0  0  0  0  0
    3.2352   -1.8950   -0.1168 H   0  0  0  0  0  0  0  0  0  0  0  0
    3.4215   -1.5307   -1.8266 H   0  0  0  0  0  0  0  0  0  0  0  0
    4.8441   -1.6512   -0.7757 H   0  0  0  0  0  0  0  0  0  0  0  0
  1  7  2  0  0  0  0
  2  9  2  0  0  0  0
  3  4  1  0  0  0  0
  3  7  1  0  0  0  0
  3  8  2  0  0  0  0
  4 10  1  0  0  0  0
  4 18  1  0  0  0  0
  4 19  1  0  0  0  0
  5  6  1  0  0  0  0
  5  7  1  0  0  0  0
  5 11  2  0  0  0  0
  6  9  1  0  0  0  0
  6 12  2  0  0  0  0
  8  9  1  0  0  0  0
  8 20  1  0  0  0  0
 10 13  2  0  0  0  0
 10 21  1  0  0  0  0
 11 14  1  0  0  0  0
 11 22  1  0  0  0  0
 12 15  1  0  0  0  0
 12 23  1  0  0  0  0
 13 16  1  0  0  0  0
 13 17  1  0  0  0  0
 14 15  2  0  0  0  0
 14 24  1  0  0  0  0
 15 25  1  0  0  0  0
 16 26  1  0  0  0  0
 16 27  1  0  0  0  0
 16 28  1  0  0  0  0
 17 29  1  0  0  0  0
 17 30  1  0  0  0  0
 17 31  1  0  0  0  0
M  END
> <PUBCHEM_COMPOUND_CID>
97448

> <PUBCHEM_CONFORMER_RMSD>
0.6

> <PUBCHEM_CONFORMER_DIVERSEORDER>
3
8
7
14
10
13
4
11
2
9
12
6
5
1

> <PUBCHEM_MMFF94_PARTIAL_CHARGES>
23
1 -0.57
10 -0.29
11 -0.15
12 -0.15
13 -0.28
14 -0.15
15 -0.15
16 0.14
17 0.14
2 -0.57
20 0.15
21 0.15
22 0.15
23 0.15
24 0.15
25 0.15
3 -0.12
4 0.28
5 0.09
6 0.09
7 0.47
8 -0.14
9 0.47

> <PUBCHEM_EFFECTIVE_ROTOR_COUNT>
2

> <PUBCHEM_PHARMACOPHORE_FEATURES>
5
1 1 acceptor
1 2 acceptor
3 13 16 17 hydrophobe
6 3 5 6 7 8 9 rings
6 5 6 11 12 14 15 rings

> <PUBCHEM_HEAVY_ATOM_COUNT>
17

> <PUBCHEM_ATOM_DEF_STEREO_COUNT>
0

> <PUBCHEM_ATOM_UDEF_STEREO_COUNT>
0

> <PUBCHEM_BOND_DEF_STEREO_COUNT>
0

> <PUBCHEM_BOND_UDEF_STEREO_COUNT>
0

> <PUBCHEM_ISOTOPIC_ATOM_COUNT>
0

> <PUBCHEM_COMPONENT_COUNT>
1

> <PUBCHEM_CACTVS_TAUTO_COUNT>
3

> <PUBCHEM_CONFORMER_ID>
00017CA800000003

> <PUBCHEM_MMFF94_ENERGY>
38.1179

> <PUBCHEM_FEATURE_SELFOVERLAP>
25.393

> <PUBCHEM_SHAPE_FINGERPRINT>
10465860 71 18334011675048305084
10498660 4 18272378602187473277
10730089 88 18114729530011917942
11206711 2 18338535078975281061
11640471 11 17489299763996839950
11796584 16 14635166632982236581
12173636 292 18340497754196141293
12186901 62 18411973642037062223
12363563 72 16588296229190084756
12670546 177 18411415081941228892
14289901 80 14764352660370191617
14420673 8 8860460057277672356
14790565 3 18264198296202461961
14911166 2 18335989700729642089
14993402 34 18343590646124379861
15342168 16 15841259373019862470
15375358 24 18041573446743713040
15475509 35 5183194098598748245
15775835 57 17775566442382947500
16752209 62 18337122245024770841
16945 1 18338253569586130235
1813 80 13912869918382780408
18186145 218 18187372046787272329
19784866 240 14634859856247592180
19862831 5 18412262869724939792
19868273 293 18342175553263593514
200 152 16153703245936196470
20279233 1 17967819327818045442
20361792 2 14996277020657460368
20645476 183 18060138734363747795
20645477 70 16660363650023450180
20871999 31 18408318869718108532
21069387 34 15068624846625177085
22079108 93 16056870321687404137
22182313 1 17977963288777892763
22802520 49 18118971278151894595
2334 1 17619084836634158851
23366157 5 17769381857133913163
23402539 116 18336554901715457500
23493267 7 17988921206032770091
23526113 38 17531821146891601770
23557571 272 18119816802915453352
23559900 14 18333733503660892632
2748010 2 17833850273886981907
2838139 119 16270550584313712757
3323516 105 17967818270670645079
33382 64 15286215969233112863
458136 41 18193831768221862003
474 4 16773508868267900420
4990 188 17967541198072277469
9709674 26 18116442440073349192
9981440 41 17483389730648906096

> <PUBCHEM_SHAPE_MULTIPOLES>
338.11
7.72
2.18
1.16
4.2
0.79
0.03
-1.96
4.02
-1.01
0.02
0.96
-0.17
-0.12

> <PUBCHEM_SHAPE_SELFOVERLAP>
724.578

> <PUBCHEM_SHAPE_VOLUME>
186.2

> <PUBCHEM_COORDINATE_TYPE>
2
5
10

$$$$

