69894
  -OEChem-07051213113D

 22 23  0     0  0  0  0  0  0999 V2000
   -1.7384    1.1927   -0.1140 O   0  0  0  0  0  0  0  0  0  0  0  0
    3.0316    1.1052   -0.3826 O   0  0  0  0  0  0  0  0  0  0  0  0
    3.0132   -1.6568   -0.0947 O   0  0  0  0  0  0  0  0  0  0  0  0
   -4.0247    1.2218    0.0165 O   0  0  0  0  0  0  0  0  0  0  0  0
   -0.5715   -0.9378    0.0393 C   0  0  0  0  0  0  0  0  0  0  0  0
   -0.5422    0.4466   -0.1063 C   0  0  0  0  0  0  0  0  0  0  0  0
    0.6346   -1.6419    0.0419 C   0  0  0  0  0  0  0  0  0  0  0  0
    1.8545    0.4334   -0.2450 C   0  0  0  0  0  0  0  0  0  0  0  0
    0.6558    1.1435   -0.2489 C   0  0  0  0  0  0  0  0  0  0  0  0
    1.8443   -0.9558   -0.1001 C   0  0  0  0  0  0  0  0  0  0  0  0
   -1.8565   -1.6003    0.1835 C   0  0  0  0  0  0  0  0  0  0  0  0
   -2.9851   -0.8866    0.1749 C   0  0  0  0  0  0  0  0  0  0  0  0
   -2.9799    0.5801    0.0218 C   0  0  0  0  0  0  0  0  0  0  0  0
    3.6642    1.5559    0.8137 C   0  0  0  0  0  0  0  0  0  0  0  0
    0.6338   -2.7238    0.1545 H   0  0  0  0  0  0  0  0  0  0  0  0
    0.6548    2.2238   -0.3617 H   0  0  0  0  0  0  0  0  0  0  0  0
   -1.8836   -2.6783    0.2975 H   0  0  0  0  0  0  0  0  0  0  0  0
   -3.9480   -1.3740    0.2819 H   0  0  0  0  0  0  0  0  0  0  0  0
    2.8155   -2.6026    0.0163 H   0  0  0  0  0  0  0  0  0  0  0  0
    4.5931    2.0634    0.5398 H   0  0  0  0  0  0  0  0  0  0  0  0
    3.9064    0.7098    1.4645 H   0  0  0  0  0  0  0  0  0  0  0  0
    3.0207    2.2655    1.3435 H   0  0  0  0  0  0  0  0  0  0  0  0
  1  6  1  0  0  0  0
  1 13  1  0  0  0  0
  2  8  1  0  0  0  0
  2 14  1  0  0  0  0
  3 10  1  0  0  0  0
  3 19  1  0  0  0  0
  4 13  2  0  0  0  0
  5  6  1  0  0  0  0
  5  7  2  0  0  0  0
  5 11  1  0  0  0  0
  6  9  2  0  0  0  0
  7 10  1  0  0  0  0
  7 15  1  0  0  0  0
  8  9  1  0  0  0  0
  8 10  2  0  0  0  0
  9 16  1  0  0  0  0
 11 12  2  0  0  0  0
 11 17  1  0  0  0  0
 12 13  1  0  0  0  0
 12 18  1  0  0  0  0
 14 20  1  0  0  0  0
 14 21  1  0  0  0  0
 14 22  1  0  0  0  0
M  END
> <PUBCHEM_COMPOUND_CID>
69894

> <PUBCHEM_CONFORMER_RMSD>
0.4

> <PUBCHEM_CONFORMER_DIVERSEORDER>
1
2

> <PUBCHEM_MMFF94_PARTIAL_CHARGES>
19
1 -0.23
10 0.08
11 -0.18
12 -0.14
13 0.71
14 0.28
15 0.15
16 0.15
17 0.15
18 0.15
19 0.45
2 -0.36
3 -0.53
4 -0.57
5 0.03
6 0.08
7 -0.15
8 0.08
9 -0.15

> <PUBCHEM_EFFECTIVE_ROTOR_COUNT>
1

> <PUBCHEM_PHARMACOPHORE_FEATURES>
5
1 2 acceptor
1 3 donor
1 4 acceptor
6 1 5 6 11 12 13 rings
6 5 6 7 8 9 10 rings

> <PUBCHEM_HEAVY_ATOM_COUNT>
14

> <PUBCHEM_ATOM_DEF_STEREO_COUNT>
0

> <PUBCHEM_ATOM_UDEF_STEREO_COUNT>
0

> <PUBCHEM_BOND_DEF_STEREO_COUNT>
0

> <PUBCHEM_BOND_UDEF_STEREO_COUNT>
0

> <PUBCHEM_ISOTOPIC_ATOM_COUNT>
0

> <PUBCHEM_COMPONENT_COUNT>
1

> <PUBCHEM_CACTVS_TAUTO_COUNT>
3

> <PUBCHEM_CONFORMER_ID>
0001110600000001

> <PUBCHEM_MMFF94_ENERGY>
53.0505

> <PUBCHEM_FEATURE_SELFOVERLAP>
25.399

> <PUBCHEM_SHAPE_FINGERPRINT>
10608611 8 18410857667804941317
10967382 1 18411698819948615421
11132069 177 18342178842918541205
11471102 20 18411703226891081349
11543360 7 15864076425149984429
12382932 28 18411138004567716072
12932764 1 17604431795151790735
13140716 1 18412545448165672866
13380535 21 18411689976600507390
13380535 76 18340489975862583842
13897977 150 18410294696476819405
14144814 61 18411980247838947915
14325111 11 18411417310775748669
14897335 6 18410016524324483253
15196674 1 18411417319624178535
15219456 202 18410290306867216594
15442244 35 18266457800780410698
15536298 74 18407759248638641574
15775835 57 18408317774585804921
16945 1 18124307216513371734
18186145 218 18335411404715790413
193761 8 16899336235615249087
20510252 161 18334288747973298393
20525323 117 18339088064151018375
20645477 70 18334859467301284903
21501502 16 18410858750136712935
2334 1 18411978031504175182
23402539 116 18195256516343423871
23402655 69 18335712667445506733
23463225 33 18343303677905427606
23552423 10 18201433666592917399
23559900 14 18335137614247747742
2748010 2 18412256238010812742
5104073 3 18411697707968922003
528886 8 18411421691484102603
53812653 166 18261958449013099536
6333449 129 18337112259172975509
69090 78 18409172125528294919
7364860 26 18334575797823145382
90316 7 17630913554366767940

> <PUBCHEM_SHAPE_MULTIPOLES>
264.64
6.02
1.92
0.67
0.25
0.34
0.04
-2.13
0.65
-0.38
0.08
-0.2
-0.06
0.35

> <PUBCHEM_SHAPE_SELFOVERLAP>
574.434

> <PUBCHEM_SHAPE_VOLUME>
145.5

> <PUBCHEM_COORDINATE_TYPE>
2
5
10

$$$$

