56927765
  -OEChem-07051213152D

 48 53  0     1  0  0  0  0  0999 V2000
    3.8076    1.3444    0.0000 O   0  0  0  0  0  0  0  0  0  0  0  0
    8.5621   -2.9547    0.0000 O   0  0  0  0  0  0  0  0  0  0  0  0
    5.0332    2.5682    0.0000 O   0  0  0  0  0  0  0  0  0  0  0  0
    6.1798   -0.8097    0.0000 N   0  0  3  0  0  0  0  0  0  0  0  0
    4.0899   -1.7652    0.0000 N   0  0  0  0  0  0  0  0  0  0  0  0
    6.4862    0.6318    0.0000 C   0  0  3  0  0  0  0  0  0  0  0  0
    5.9169   -0.0005    0.0000 C   0  0  2  0  0  0  0  0  0  0  0  0
    4.5153   -0.4559    0.0000 C   0  0  1  0  0  0  0  0  0  0  0  0
    6.7056   -2.4281    0.0000 C   0  0  1  0  0  0  0  0  0  0  0  0
    4.5142    0.6368    0.0000 C   0  0  2  0  0  0  0  0  0  0  0  0
    5.6105   -1.4420    0.0000 C   0  0  1  0  0  0  0  0  0  0  0  0
    5.0846    0.1764    0.0000 C   0  0  0  0  0  0  0  0  0  0  0  0
    5.8734   -2.2512    0.0000 C   0  0  0  0  0  0  0  0  0  0  0  0
    7.2750   -1.7958    0.0000 C   0  0  2  0  0  0  0  0  0  0  0  0
    4.7782   -1.2651    0.0000 C   0  0  0  0  0  0  0  0  0  0  0  0
    7.0121   -0.9866    0.0000 C   0  0  2  0  0  0  0  0  0  0  0  0
    3.6645   -0.4559    0.0000 C   0  0  0  0  0  0  0  0  0  0  0  0
    7.6812   -0.2434    0.0000 C   0  0  0  0  0  0  0  0  0  0  0  0
    3.4016   -1.2651    0.0000 C   0  0  0  0  0  0  0  0  0  0  0  0
    8.2531   -2.0037    0.0000 C   0  0  0  0  0  0  0  0  0  0  0  0
    3.0952    0.1764    0.0000 C   0  0  0  0  0  0  0  0  0  0  0  0
    2.5693   -1.4420    0.0000 C   0  0  0  0  0  0  0  0  0  0  0  0
    4.0671    2.3101    0.0000 C   0  0  0  0  0  0  0  0  0  0  0  0
    2.2629   -0.0005    0.0000 C   0  0  0  0  0  0  0  0  0  0  0  0
    2.0000   -0.8097    0.0000 C   0  0  0  0  0  0  0  0  0  0  0  0
    3.3605    3.0177    0.0000 C   0  0  0  0  0  0  0  0  0  0  0  0
    6.9092    1.0851    0.0000 H   0  0  0  0  0  0  0  0  0  0  0  0
    5.7347    0.8298    0.0000 H   0  0  0  0  0  0  0  0  0  0  0  0
    6.9683   -3.2365    0.0000 H   0  0  0  0  0  0  0  0  0  0  0  0
    4.7523    1.2092    0.0000 H   0  0  0  0  0  0  0  0  0  0  0  0
    5.0417   -2.0736    0.0000 H   0  0  0  0  0  0  0  0  0  0  0  0
    5.3169    0.7513    0.0000 H   0  0  0  0  0  0  0  0  0  0  0  0
    4.5588    0.5050    0.0000 H   0  0  0  0  0  0  0  0  0  0  0  0
    5.2594   -2.3374    0.0000 H   0  0  0  0  0  0  0  0  0  0  0  0
    5.8518   -2.8708    0.0000 H   0  0  0  0  0  0  0  0  0  0  0  0
    7.4666   -2.3854    0.0000 H   0  0  0  0  0  0  0  0  0  0  0  0
    6.8205   -0.3969    0.0000 H   0  0  0  0  0  0  0  0  0  0  0  0
    8.1419   -0.6583    0.0000 H   0  0  0  0  0  0  0  0  0  0  0  0
    8.0960    0.2173    0.0000 H   0  0  0  0  0  0  0  0  0  0  0  0
    7.2204    0.1714    0.0000 H   0  0  0  0  0  0  0  0  0  0  0  0
    8.6680   -1.5429    0.0000 H   0  0  0  0  0  0  0  0  0  0  0  0
    3.2868    0.7661    0.0000 H   0  0  0  0  0  0  0  0  0  0  0  0
    2.3777   -2.0316    0.0000 H   0  0  0  0  0  0  0  0  0  0  0  0
    1.8481    0.4603    0.0000 H   0  0  0  0  0  0  0  0  0  0  0  0
    1.3936   -0.9386    0.0000 H   0  0  0  0  0  0  0  0  0  0  0  0
    3.7992    3.4558    0.0000 H   0  0  0  0  0  0  0  0  0  0  0  0
    2.9224    3.4564    0.0000 H   0  0  0  0  0  0  0  0  0  0  0  0
    2.9217    2.5796    0.0000 H   0  0  0  0  0  0  0  0  0  0  0  0
  1 10  1  0  0  0  0
  1 23  1  0  0  0  0
  2 20  2  0  0  0  0
  3 23  2  0  0  0  0
  4  7  1  0  0  0  0
  4 11  1  0  0  0  0
  4 16  1  0  0  0  0
  5 15  2  0  0  0  0
  5 19  1  0  0  0  0
  6  7  1  0  0  0  0
  6  9  1  0  0  0  0
  6 10  1  0  0  0  0
  6 27  1  0  0  0  0
  7 12  1  0  0  0  0
  7 28  1  6  0  0  0
  8 10  1  0  0  0  0
  8 12  1  0  0  0  0
  8 15  1  0  0  0  0
  8 17  1  6  0  0  0
  9 13  1  0  0  0  0
  9 14  1  0  0  0  0
  9 29  1  1  0  0  0
 10 30  1  0  0  0  0
 11 13  1  0  0  0  0
 11 15  1  0  0  0  0
 11 31  1  6  0  0  0
 12 32  1  0  0  0  0
 12 33  1  0  0  0  0
 13 34  1  0  0  0  0
 13 35  1  0  0  0  0
 14 16  1  0  0  0  0
 14 20  1  6  0  0  0
 14 36  1  0  0  0  0
 16 18  1  1  0  0  0
 16 37  1  0  0  0  0
 17 19  1  0  0  0  0
 17 21  2  0  0  0  0
 18 38  1  0  0  0  0
 18 39  1  0  0  0  0
 18 40  1  0  0  0  0
 19 22  2  0  0  0  0
 20 41  1  0  0  0  0
 21 24  1  0  0  0  0
 21 42  1  0  0  0  0
 22 25  1  0  0  0  0
 22 43  1  0  0  0  0
 23 26  1  0  0  0  0
 24 25  2  0  0  0  0
 24 44  1  0  0  0  0
 25 45  1  0  0  0  0
 26 46  1  0  0  0  0
 26 47  1  0  0  0  0
 26 48  1  0  0  0  0
M  END
> <PUBCHEM_COMPOUND_CID>
56927765

> <PUBCHEM_COMPOUND_CANONICALIZED>
1

> <PUBCHEM_CACTVS_COMPLEXITY>
720

> <PUBCHEM_CACTVS_HBOND_ACCEPTOR>
5

> <PUBCHEM_CACTVS_HBOND_DONOR>
0

> <PUBCHEM_CACTVS_ROTATABLE_BOND>
3

> <PUBCHEM_CACTVS_SUBSKEYS>
AAADceB7MAAAAAAAAAAAAAAAAAAAAYIAAAA8WLFiBgAAAECBAAAAHgAAAAAADzzhmAYyyIMABACoAyzyzACCAAAgAgAIiAE4ZIgIIDqAkZGGIABmwAGIyAe43fPfgAAAAAACAAAAAAAAAAQAASEABQAAAA==

> <PUBCHEM_IUPAC_INCHI>
InChI=1S/C21H22N2O3/c1-10-13(9-24)12-7-16-19-21(14-5-3-4-6-15(14)22-19)8-17(23(10)16)18(12)20(21)26-11(2)25/h3-6,9-10,12-13,16-18,20H,7-8H2,1-2H3/t10-,12-,13-,16-,17-,18?,20+,21+/m0/s1

> <PUBCHEM_IUPAC_INCHIKEY>
GDXJMOGWONJRHL-FXRWJBKJSA-N

> <PUBCHEM_XLOGP3_AA>
1.6

> <PUBCHEM_EXACT_MASS>
350.163043

> <PUBCHEM_MOLECULAR_FORMULA>
C21H22N2O3

> <PUBCHEM_MOLECULAR_WEIGHT>
350.41098

> <PUBCHEM_OPENEYE_CAN_SMILES>
CC1C(C2CC3N1C4C2C(C5(C4)C3=NC6=CC=CC=C56)OC(=O)C)C=O

> <PUBCHEM_OPENEYE_ISO_SMILES>
C[C@H]1[C@@H]([C@@H]2C[C@@H]3N1[C@@H]4C2[C@H]([C@@]5(C4)C3=NC6=CC=CC=C56)OC(=O)C)C=O

> <PUBCHEM_CACTVS_TPSA>
59

> <PUBCHEM_MONOISOTOPIC_WEIGHT>
350.163043

> <PUBCHEM_TOTAL_CHARGE>
0

> <PUBCHEM_HEAVY_ATOM_COUNT>
26

> <PUBCHEM_ATOM_DEF_STEREO_COUNT>
7

> <PUBCHEM_ATOM_UDEF_STEREO_COUNT>
1

> <PUBCHEM_BOND_DEF_STEREO_COUNT>
0

> <PUBCHEM_BOND_UDEF_STEREO_COUNT>
0

> <PUBCHEM_ISOTOPIC_ATOM_COUNT>
0

> <PUBCHEM_COMPONENT_COUNT>
1

> <PUBCHEM_CACTVS_TAUTO_COUNT>
2

> <PUBCHEM_COORDINATE_TYPE>
1
5
255

> <PUBCHEM_BONDANNOTATIONS>
11  31  6
14  20  6
16  18  5
17  19  8
17  21  8
19  22  8
21  24  8
22  25  8
24  25  8
6  10  3
7  28  6
8  17  6
9  29  5

$$$$

