45259192
  -OEChem-07051213153D

 57 63  0     1  0  0  0  0  0999 V2000
    1.2288   -4.5821   -0.1877 Cl  0  0  0  0  0  0  0  0  0  0  0  0
    3.5342    2.8609   -0.1918 Cl  0  0  0  0  0  0  0  0  0  0  0  0
    2.0847   -0.9802    1.0356 O   0  0  0  0  0  0  0  0  0  0  0  0
    1.7293   -1.5519   -2.5739 O   0  0  0  0  0  0  0  0  0  0  0  0
    4.0488    0.1666   -2.3970 O   0  0  0  0  0  0  0  0  0  0  0  0
    5.5571   -0.3584    0.0544 O   0  0  0  0  0  0  0  0  0  0  0  0
    3.2704   -1.2367    3.4964 O   0  0  0  0  0  0  0  0  0  0  0  0
   -5.3751   -0.8272    0.1527 O   0  0  0  0  0  0  0  0  0  0  0  0
   -4.0075    3.5805    0.1556 O   0  0  0  0  0  0  0  0  0  0  0  0
    0.0732   -1.5587   -0.0992 N   0  0  0  0  0  0  0  0  0  0  0  0
    0.8981    1.0999   -0.0996 N   0  0  0  0  0  0  0  0  0  0  0  0
   -5.0637    1.4922    0.1712 N   0  0  0  0  0  0  0  0  0  0  0  0
    1.5878   -1.5799   -0.1653 C   0  0  1  0  0  0  0  0  0  0  0  0
    2.1184   -0.8381   -1.4003 C   0  0  1  0  0  0  0  0  0  0  0  0
    3.6452   -0.7388   -1.3681 C   0  0  2  0  0  0  0  0  0  0  0  0
   -0.8301   -0.5540   -0.0457 C   0  0  0  0  0  0  0  0  0  0  0  0
    4.1399   -0.2263   -0.0151 C   0  0  1  0  0  0  0  0  0  0  0  0
    3.5092   -1.0249    1.1288 C   0  0  1  0  0  0  0  0  0  0  0  0
   -2.2452   -0.7861    0.0140 C   0  0  0  0  0  0  0  0  0  0  0  0
   -0.7640   -2.6642   -0.0765 C   0  0  0  0  0  0  0  0  0  0  0  0
   -0.4153    0.7829   -0.0456 C   0  0  0  0  0  0  0  0  0  0  0  0
   -2.1376   -2.2518   -0.0104 C   0  0  0  0  0  0  0  0  0  0  0  0
   -1.4506    1.7751    0.0145 C   0  0  0  0  0  0  0  0  0  0  0  0
   -3.2299    0.1961    0.0711 C   0  0  0  0  0  0  0  0  0  0  0  0
   -2.8183    1.5226    0.0717 C   0  0  0  0  0  0  0  0  0  0  0  0
    3.8955   -0.4590    2.4918 C   0  0  0  0  0  0  0  0  0  0  0  0
   -0.5323    2.9226   -0.0099 C   0  0  0  0  0  0  0  0  0  0  0  0
    0.8335    2.4851   -0.0770 C   0  0  0  0  0  0  0  0  0  0  0  0
   -0.4005   -4.0190   -0.1098 C   0  0  0  0  0  0  0  0  0  0  0  0
   -3.1178   -3.2730    0.0195 C   0  0  0  0  0  0  0  0  0  0  0  0
   -4.6807    0.1696    0.1354 C   0  0  0  0  0  0  0  0  0  0  0  0
   -3.9993    2.3658    0.1367 C   0  0  0  0  0  0  0  0  0  0  0  0
   -1.4060   -4.9860   -0.0778 C   0  0  0  0  0  0  0  0  0  0  0  0
   -2.7444   -4.6209   -0.0143 C   0  0  0  0  0  0  0  0  0  0  0  0
   -0.7624    4.3192    0.0205 C   0  0  0  0  0  0  0  0  0  0  0  0
    1.9000    3.3965   -0.1114 C   0  0  0  0  0  0  0  0  0  0  0  0
    0.3083    5.2190   -0.0141 C   0  0  0  0  0  0  0  0  0  0  0  0
    1.6183    4.7627   -0.0790 C   0  0  0  0  0  0  0  0  0  0  0  0
    1.9817   -2.5643   -0.1953 H   0  0  0  0  0  0  0  0  0  0  0  0
    1.7367    0.1315   -1.6812 H   0  0  0  0  0  0  0  0  0  0  0  0
    4.1053   -1.7028   -1.6148 H   0  0  0  0  0  0  0  0  0  0  0  0
    3.9242    0.7859    0.1603 H   0  0  0  0  0  0  0  0  0  0  0  0
    3.8282   -2.0757    1.0981 H   0  0  0  0  0  0  0  0  0  0  0  0
    3.5410    0.5715    2.6013 H   0  0  0  0  0  0  0  0  0  0  0  0
    4.9781   -0.4878    2.6474 H   0  0  0  0  0  0  0  0  0  0  0  0
    1.7098    0.5844    0.1718 H   0  0  0  0  0  0  0  0  0  0  0  0
   -4.1736   -3.0266    0.0692 H   0  0  0  0  0  0  0  0  0  0  0  0
    2.0757   -2.4578   -2.5043 H   0  0  0  0  0  0  0  0  0  0  0  0
    3.7169    1.0515   -2.1678 H   0  0  0  0  0  0  0  0  0  0  0  0
    5.7764   -1.3009   -0.0417 H   0  0  0  0  0  0  0  0  0  0  0  0
   -6.0311    1.7923    0.2189 H   0  0  0  0  0  0  0  0  0  0  0  0
   -1.1564   -6.0448   -0.1022 H   0  0  0  0  0  0  0  0  0  0  0  0
   -3.5125   -5.3893    0.0096 H   0  0  0  0  0  0  0  0  0  0  0  0
   -1.7723    4.7137    0.0711 H   0  0  0  0  0  0  0  0  0  0  0  0
    3.5254   -0.8563    4.3542 H   0  0  0  0  0  0  0  0  0  0  0  0
    0.1100    6.2873    0.0103 H   0  0  0  0  0  0  0  0  0  0  0  0
    2.4263    5.4906   -0.1045 H   0  0  0  0  0  0  0  0  0  0  0  0
  1 29  1  0  0  0  0
  2 36  1  0  0  0  0
  3 13  1  0  0  0  0
  3 18  1  0  0  0  0
  4 14  1  0  0  0  0
  4 48  1  0  0  0  0
  5 15  1  0  0  0  0
  5 49  1  0  0  0  0
  6 17  1  0  0  0  0
  6 50  1  0  0  0  0
  7 26  1  0  0  0  0
  7 55  1  0  0  0  0
  8 31  2  0  0  0  0
  9 32  2  0  0  0  0
 10 13  1  0  0  0  0
 10 16  1  0  0  0  0
 10 20  1  0  0  0  0
 11 21  1  0  0  0  0
 11 28  1  0  0  0  0
 11 46  1  0  0  0  0
 12 31  1  0  0  0  0
 12 32  1  0  0  0  0
 12 51  1  0  0  0  0
 13 14  1  0  0  0  0
 13 39  1  0  0  0  0
 14 15  1  0  0  0  0
 14 40  1  0  0  0  0
 15 17  1  0  0  0  0
 15 41  1  0  0  0  0
 16 19  1  0  0  0  0
 16 21  2  0  0  0  0
 17 18  1  0  0  0  0
 17 42  1  0  0  0  0
 18 26  1  0  0  0  0
 18 43  1  0  0  0  0
 19 22  1  0  0  0  0
 19 24  2  0  0  0  0
 20 22  2  0  0  0  0
 20 29  1  0  0  0  0
 21 23  1  0  0  0  0
 22 30  1  0  0  0  0
 23 25  2  0  0  0  0
 23 27  1  0  0  0  0
 24 25  1  0  0  0  0
 24 31  1  0  0  0  0
 25 32  1  0  0  0  0
 26 44  1  0  0  0  0
 26 45  1  0  0  0  0
 27 28  2  0  0  0  0
 27 35  1  0  0  0  0
 28 36  1  0  0  0  0
 29 33  2  0  0  0  0
 30 34  2  0  0  0  0
 30 47  1  0  0  0  0
 33 34  1  0  0  0  0
 33 52  1  0  0  0  0
 34 53  1  0  0  0  0
 35 37  2  0  0  0  0
 35 54  1  0  0  0  0
 36 38  2  0  0  0  0
 37 38  1  0  0  0  0
 37 56  1  0  0  0  0
 38 57  1  0  0  0  0
M  END
> <PUBCHEM_COMPOUND_CID>
45259192

> <PUBCHEM_CONFORMER_RMSD>
0.8

> <PUBCHEM_CONFORMER_DIVERSEORDER>
1

> <PUBCHEM_MMFF94_PARTIAL_CHARGES>
48
1 -0.18
10 -0.04
11 -0.05
12 -0.49
13 0.54
14 0.28
15 0.28
16 -0.05
17 0.28
18 0.28
19 -0.01
2 -0.18
20 -0.15
21 -0.05
23 -0.01
24 0.09
25 0.09
26 0.28
28 -0.15
29 0.18
3 -0.56
30 -0.15
31 0.54
32 0.54
33 -0.15
34 -0.15
35 -0.15
36 0.18
37 -0.15
38 -0.15
4 -0.68
46 0.27
47 0.15
48 0.4
49 0.4
5 -0.68
50 0.4
51 0.37
52 0.15
53 0.15
54 0.15
55 0.4
56 0.15
57 0.15
6 -0.68
7 -0.68
8 -0.57
9 -0.57

> <PUBCHEM_EFFECTIVE_ROTOR_COUNT>
3.4

> <PUBCHEM_PHARMACOPHORE_FEATURES>
22
1 10 cation
1 11 cation
1 11 donor
1 12 donor
1 3 acceptor
1 4 acceptor
1 4 donor
1 5 acceptor
1 5 donor
1 6 acceptor
1 6 donor
1 7 acceptor
1 7 donor
1 8 acceptor
1 9 acceptor
5 10 16 19 20 22 rings
5 11 21 23 27 28 rings
5 12 24 25 31 32 rings
6 16 19 21 23 24 25 rings
6 20 22 29 30 33 34 rings
6 27 28 35 36 37 38 rings
6 3 13 14 15 17 18 rings

> <PUBCHEM_HEAVY_ATOM_COUNT>
38

> <PUBCHEM_ATOM_DEF_STEREO_COUNT>
5

> <PUBCHEM_ATOM_UDEF_STEREO_COUNT>
0

> <PUBCHEM_BOND_DEF_STEREO_COUNT>
0

> <PUBCHEM_BOND_UDEF_STEREO_COUNT>
0

> <PUBCHEM_ISOTOPIC_ATOM_COUNT>
0

> <PUBCHEM_COMPONENT_COUNT>
1

> <PUBCHEM_CACTVS_TAUTO_COUNT>
21

> <PUBCHEM_CONFORMER_ID>
02B299B800000001

> <PUBCHEM_MMFF94_ENERGY>
186.8603

> <PUBCHEM_FEATURE_SELFOVERLAP>
112.118

> <PUBCHEM_SHAPE_FINGERPRINT>
10190108 129 17398627640027976849
10675989 125 17261317420001298405
1100329 8 18411135796949095017
11513181 2 17898002435055744086
12758862 11 18115576184980239998
12788726 201 18199743803500271040
13140716 1 18337392634400681553
13642711 20 18195260029484267565
13911987 19 18270409424164763429
140371 6 18115569526472383060
144659 178 16393800627501590892
14790565 3 18338504361280061397
15297060 5 18046335594622697960
15320467 1 18410571790433744940
15324884 4 17749943376355052518
15513586 35 16534338628012472864
15927050 60 17977941294002813757
16112460 7 18190722164960918715
16114785 44 17112198191192370352
16728300 4 17269782464858837954
19319366 153 17703790327638018050
19591789 44 18410849984530480997
20028762 73 18260270729409976567
20600515 1 18335436659329018192
20642791 35 17907289953698528967
20764821 26 18338794490646983055
20775438 99 18187655652146857831
20905425 154 17904191534394683102
21033648 29 17749683968539903155
21421861 104 17837494050841783843
22149856 69 17906158909581831409
22311459 1 18410571769824740759
23559900 14 18189607259468824436
24771293 8 18187657924417061513
3178227 256 18339342138317646801
3882209 13 17541981630622759046
469060 322 18265039409627965073
6004065 56 18266198256693171389
6823239 73 18188760648901290684

> <PUBCHEM_SHAPE_MULTIPOLES>
729.73
8.43
7.51
1.44
1.09
2.56
-0.57
-0.45
-0.7
2.26
0.02
-2.41
-1.35
-0.74

> <PUBCHEM_SHAPE_SELFOVERLAP>
1655.421

> <PUBCHEM_SHAPE_VOLUME>
381.4

> <PUBCHEM_COORDINATE_TYPE>
2
5
10

$$$$

