19014
  -OEChem-07051213133D

 16 17  0     0  0  0  0  0  0999 V2000
   -0.4304    3.1254    0.0007 Cl  0  0  0  0  0  0  0  0  0  0  0  0
   -0.4291   -3.1254   -0.0007 Cl  0  0  0  0  0  0  0  0  0  0  0  0
   -3.1742    1.5731   -0.0006 Cl  0  0  0  0  0  0  0  0  0  0  0  0
   -3.1736   -1.5742    0.0018 Cl  0  0  0  0  0  0  0  0  0  0  0  0
    1.9147    1.3894   -0.0001 N   0  0  0  0  0  0  0  0  0  0  0  0
    1.9149   -1.3890    0.0003 N   0  0  0  0  0  0  0  0  0  0  0  0
    0.7582    0.7036   -0.0001 C   0  0  0  0  0  0  0  0  0  0  0  0
    0.7583   -0.7033    0.0000 C   0  0  0  0  0  0  0  0  0  0  0  0
   -0.4590    1.3810   -0.0004 C   0  0  0  0  0  0  0  0  0  0  0  0
   -0.4587   -1.3809   -0.0003 C   0  0  0  0  0  0  0  0  0  0  0  0
   -1.6713    0.6934   -0.0004 C   0  0  0  0  0  0  0  0  0  0  0  0
   -1.6712   -0.6935   -0.0005 C   0  0  0  0  0  0  0  0  0  0  0  0
    3.0607    0.6850    0.0002 C   0  0  0  0  0  0  0  0  0  0  0  0
    3.0608   -0.6845    0.0003 C   0  0  0  0  0  0  0  0  0  0  0  0
    3.9769    1.2617    0.0002 H   0  0  0  0  0  0  0  0  0  0  0  0
    3.9770   -1.2612    0.0005 H   0  0  0  0  0  0  0  0  0  0  0  0
  1  9  1  0  0  0  0
  2 10  1  0  0  0  0
  3 11  1  0  0  0  0
  4 12  1  0  0  0  0
  5  7  2  0  0  0  0
  5 13  1  0  0  0  0
  6  8  2  0  0  0  0
  6 14  1  0  0  0  0
  7  8  1  0  0  0  0
  7  9  1  0  0  0  0
  8 10  1  0  0  0  0
  9 11  2  0  0  0  0
 10 12  2  0  0  0  0
 11 12  1  0  0  0  0
 13 14  2  0  0  0  0
 13 15  1  0  0  0  0
 14 16  1  0  0  0  0
M  END
> <PUBCHEM_COMPOUND_CID>
19014

> <PUBCHEM_CONFORMER_RMSD>
0.4

> <PUBCHEM_CONFORMER_DIVERSEORDER>
1

> <PUBCHEM_MMFF94_PARTIAL_CHARGES>
16
1 -0.18
10 0.18
11 0.18
12 0.18
13 0.16
14 0.16
15 0.15
16 0.15
2 -0.18
3 -0.18
4 -0.18
5 -0.62
6 -0.62
7 0.31
8 0.31
9 0.18

> <PUBCHEM_EFFECTIVE_ROTOR_COUNT>
0

> <PUBCHEM_PHARMACOPHORE_FEATURES>
4
1 5 acceptor
1 6 acceptor
6 5 6 7 8 13 14 rings
6 7 8 9 10 11 12 rings

> <PUBCHEM_HEAVY_ATOM_COUNT>
14

> <PUBCHEM_ATOM_DEF_STEREO_COUNT>
0

> <PUBCHEM_ATOM_UDEF_STEREO_COUNT>
0

> <PUBCHEM_BOND_DEF_STEREO_COUNT>
0

> <PUBCHEM_BOND_UDEF_STEREO_COUNT>
0

> <PUBCHEM_ISOTOPIC_ATOM_COUNT>
0

> <PUBCHEM_COMPONENT_COUNT>
1

> <PUBCHEM_CACTVS_TAUTO_COUNT>
1

> <PUBCHEM_CONFORMER_ID>
00004A4600000001

> <PUBCHEM_MMFF94_ENERGY>
41.8924

> <PUBCHEM_FEATURE_SELFOVERLAP>
20.339

> <PUBCHEM_SHAPE_FINGERPRINT>
10967382 1 18194682789804885959
11132069 177 18336270131855226736
12032990 46 18338792329904107375
12382932 28 18409451388185482584
13140716 1 18410575132102885441
13380535 76 18267307714895102627
13897977 150 18338519754331547781
14325111 11 18410856563945397312
16945 1 18122343750860273697
193761 8 17618222149196959941
20510252 161 18333448724873117272
20588541 1 18266175226460929213
20645476 183 17987496196103150590
20871998 184 18259984872701044751
21501502 16 18411700984585745796
2334 1 18410855430284930311
23402539 116 18261968352965045574
23419403 2 15951408335999681391
23463225 33 18413107272832036704
23552423 10 18272087184440093116
23557571 272 18188757350488032188
23559900 14 18334289869640445844
241688 4 18410857663546780681
2748010 2 18410292510354088647
528886 8 18338240460981848361
7364860 26 17759807335126550471

> <PUBCHEM_SHAPE_MULTIPOLES>
285.63
4.48
3.24
0.62
0.43
0
0
0
0
-1.22
0
-0.04
0
0

> <PUBCHEM_SHAPE_SELFOVERLAP>
590.875

> <PUBCHEM_SHAPE_VOLUME>
164.2

> <PUBCHEM_COORDINATE_TYPE>
2
5
10

$$$$

