17396614
  -OEChem-06241222573D

 45 47  0     1  0  0  0  0  0999 V2000
    0.5635    2.4876   -0.3287 S   0  0  0  0  0  0  0  0  0  0  0  0
   -2.0760    1.7016   -1.7727 O   0  0  0  0  0  0  0  0  0  0  0  0
    4.3824   -1.7680   -1.3704 O   0  0  0  0  0  0  0  0  0  0  0  0
    6.1448   -0.8475   -0.0090 O   0  0  0  0  0  0  0  0  0  0  0  0
   -2.7530    0.9603    0.3236 N   0  0  0  0  0  0  0  0  0  0  0  0
   -3.7093   -1.2488    0.8823 C   0  0  1  0  0  0  0  0  0  0  0  0
   -3.6530   -0.0790   -0.1231 C   0  0  1  0  0  0  0  0  0  0  0  0
   -4.7472   -2.2960    0.4472 C   0  0  0  0  0  0  0  0  0  0  0  0
   -5.0418    0.5211   -0.3678 C   0  0  0  0  0  0  0  0  0  0  0  0
   -6.1217   -1.6772    0.2133 C   0  0  0  0  0  0  0  0  0  0  0  0
   -6.0540   -0.5360   -0.7940 C   0  0  0  0  0  0  0  0  0  0  0  0
   -2.3420   -1.9192    1.0505 C   0  0  0  0  0  0  0  0  0  0  0  0
   -2.0366    1.7671   -0.5452 C   0  0  0  0  0  0  0  0  0  0  0  0
   -1.1536    2.7631    0.1690 C   0  0  0  0  0  0  0  0  0  0  0  0
    0.9319    1.0790    0.7437 C   0  0  0  0  0  0  0  0  0  0  0  0
    2.3418    0.5857    0.5683 C   0  0  0  0  0  0  0  0  0  0  0  0
    2.6183   -0.4006   -0.3815 C   0  0  0  0  0  0  0  0  0  0  0  0
    3.9266   -0.8210   -0.5058 C   0  0  0  0  0  0  0  0  0  0  0  0
    3.3701    1.1227    1.3627 C   0  0  0  0  0  0  0  0  0  0  0  0
    4.9331   -0.2954    0.2717 C   0  0  0  0  0  0  0  0  0  0  0  0
    4.6868    0.6794    1.2164 C   0  0  0  0  0  0  0  0  0  0  0  0
    5.7886   -1.7791   -1.0504 C   0  0  0  0  0  0  0  0  0  0  0  0
   -4.0092   -0.8571    1.8643 H   0  0  0  0  0  0  0  0  0  0  0  0
   -3.2740   -0.4581   -1.0820 H   0  0  0  0  0  0  0  0  0  0  0  0
   -4.4134   -2.7894   -0.4749 H   0  0  0  0  0  0  0  0  0  0  0  0
   -4.8308   -3.0779    1.2116 H   0  0  0  0  0  0  0  0  0  0  0  0
   -5.3981    1.0171    0.5450 H   0  0  0  0  0  0  0  0  0  0  0  0
   -4.9867    1.2998   -1.1385 H   0  0  0  0  0  0  0  0  0  0  0  0
   -6.8151   -2.4457   -0.1466 H   0  0  0  0  0  0  0  0  0  0  0  0
   -6.5222   -1.3049    1.1642 H   0  0  0  0  0  0  0  0  0  0  0  0
   -7.0438   -0.0777   -0.8990 H   0  0  0  0  0  0  0  0  0  0  0  0
   -5.7781   -0.9313   -1.7793 H   0  0  0  0  0  0  0  0  0  0  0  0
   -2.4080   -2.7663    1.7418 H   0  0  0  0  0  0  0  0  0  0  0  0
   -1.6056   -1.2205    1.4598 H   0  0  0  0  0  0  0  0  0  0  0  0
   -1.9617   -2.2921    0.0934 H   0  0  0  0  0  0  0  0  0  0  0  0
   -2.6949    1.1353    1.3225 H   0  0  0  0  0  0  0  0  0  0  0  0
   -1.4598    3.7656   -0.1469 H   0  0  0  0  0  0  0  0  0  0  0  0
   -1.2524    2.7151    1.2570 H   0  0  0  0  0  0  0  0  0  0  0  0
    0.7700    1.3647    1.7894 H   0  0  0  0  0  0  0  0  0  0  0  0
    0.2346    0.2623    0.5275 H   0  0  0  0  0  0  0  0  0  0  0  0
    1.8366   -0.8251   -1.0026 H   0  0  0  0  0  0  0  0  0  0  0  0
    3.1504    1.8910    2.1001 H   0  0  0  0  0  0  0  0  0  0  0  0
    5.4825    1.0909    1.8270 H   0  0  0  0  0  0  0  0  0  0  0  0
    6.0672   -2.7890   -0.7283 H   0  0  0  0  0  0  0  0  0  0  0  0
    6.3561   -1.5290   -1.9543 H   0  0  0  0  0  0  0  0  0  0  0  0
  1 14  1  0  0  0  0
  1 15  1  0  0  0  0
  2 13  2  0  0  0  0
  3 18  1  0  0  0  0
  3 22  1  0  0  0  0
  4 20  1  0  0  0  0
  4 22  1  0  0  0  0
  5  7  1  0  0  0  0
  5 13  1  0  0  0  0
  5 36  1  0  0  0  0
  6  7  1  0  0  0  0
  6  8  1  0  0  0  0
  6 12  1  0  0  0  0
  6 23  1  0  0  0  0
  7  9  1  0  0  0  0
  7 24  1  0  0  0  0
  8 10  1  0  0  0  0
  8 25  1  0  0  0  0
  8 26  1  0  0  0  0
  9 11  1  0  0  0  0
  9 27  1  0  0  0  0
  9 28  1  0  0  0  0
 10 11  1  0  0  0  0
 10 29  1  0  0  0  0
 10 30  1  0  0  0  0
 11 31  1  0  0  0  0
 11 32  1  0  0  0  0
 12 33  1  0  0  0  0
 12 34  1  0  0  0  0
 12 35  1  0  0  0  0
 13 14  1  0  0  0  0
 14 37  1  0  0  0  0
 14 38  1  0  0  0  0
 15 16  1  0  0  0  0
 15 39  1  0  0  0  0
 15 40  1  0  0  0  0
 16 17  2  0  0  0  0
 16 19  1  0  0  0  0
 17 18  1  0  0  0  0
 17 41  1  0  0  0  0
 18 20  2  0  0  0  0
 19 21  2  0  0  0  0
 19 42  1  0  0  0  0
 20 21  1  0  0  0  0
 21 43  1  0  0  0  0
 22 44  1  0  0  0  0
 22 45  1  0  0  0  0
M  END
> <PUBCHEM_COMPOUND_CID>
17396614

> <PUBCHEM_CONFORMER_RMSD>
1.2

> <PUBCHEM_CONFORMER_DIVERSEORDER>
1
93
28
125
90
16
21
105
19
110
2
99
94
27
36
72
6
127
22
109
8
71
57
120
64
101
7
68
34
11
141
48
12
137
3
85
66
143
33
44
13
52
62
39
97
117
40
77
18
74
103
95
96
56
81
129
122
35
100
59
50
69
65
25
26
17
86
136
54
29
139
41
60
89
135
80
47
49
119
84
32
124
24
5
113
134
43
118
10
115
14
78
106
23
45
133
131
15
126
73
75
58
67
92
104
98
107
123
31
112
55
87
88
140
38
70
83
142
53
138
128
82
76
9
130
4
108
91
63
132
61
102
46
116
42
20
37
121
30
114
51
111
79

> <PUBCHEM_MMFF94_PARTIAL_CHARGES>
20
1 -0.46
13 0.57
14 0.29
15 0.37
16 -0.14
17 -0.15
18 0.08
19 -0.15
2 -0.57
20 0.08
21 -0.15
22 0.56
3 -0.36
36 0.37
4 -0.36
41 0.15
42 0.15
43 0.15
5 -0.73
7 0.3

> <PUBCHEM_EFFECTIVE_ROTOR_COUNT>
7.8

> <PUBCHEM_PHARMACOPHORE_FEATURES>
7
1 2 acceptor
1 3 acceptor
1 4 acceptor
1 5 donor
5 3 4 18 20 22 rings
6 16 17 18 19 20 21 rings
6 6 7 8 9 10 11 rings

> <PUBCHEM_HEAVY_ATOM_COUNT>
22

> <PUBCHEM_ATOM_DEF_STEREO_COUNT>
0

> <PUBCHEM_ATOM_UDEF_STEREO_COUNT>
2

> <PUBCHEM_BOND_DEF_STEREO_COUNT>
0

> <PUBCHEM_BOND_UDEF_STEREO_COUNT>
0

> <PUBCHEM_ISOTOPIC_ATOM_COUNT>
0

> <PUBCHEM_COMPONENT_COUNT>
1

> <PUBCHEM_CACTVS_TAUTO_COUNT>
2

> <PUBCHEM_CONFORMER_ID>
0109738600000001

> <PUBCHEM_MMFF94_ENERGY>
38.4453

> <PUBCHEM_FEATURE_SELFOVERLAP>
35.676

> <PUBCHEM_SHAPE_FINGERPRINT>
10692045 39 7132172896256789828
11069576 57 16127274323224864568
12596602 18 15140972715996279950
12760667 363 18408039620130562453
13103583 49 15502382205184078380
13402501 40 18408602565151102831
13533116 47 18114464436267730233
13911882 115 18333733494770277800
14123256 34 18271802398386638195
14216079 64 18408604756312242071
14251757 5 17846206735615031618
14386348 63 18408606958870543441
14866123 147 18264483061514076505
14931854 50 17917719019420483403
14950920 106 16443348637349347707
15052358 14 18202014231172265837
15183329 4 18273500082826020131
15352361 1 18411136913930826873
15510800 12 18115868667393751342
15537594 2 17775002427398943657
15880784 105 17458351810051611935
17492 89 17907858406291273843
193927 3 18271519810976598065
20374829 77 18202290173835661369
20403669 9 18412265021271479155
21279426 13 18271535226020392293
21307412 95 18413393125293506735
21315763 87 17822861874584696931
21623969 137 17821729451202734982
221490 88 18187648055051362704
23557571 272 18411986892243629712
23559900 14 18268436746287278473
239999 70 18412268298906721160
3004659 81 17989208118322064861
3014063 24 17968385542057635191
3089732 80 18335698351644613318
329604 57 18412538817342640780
3383291 50 18271525296040784483
4325135 7 18060139791769890428
437815 12 18408326571164403189
5104073 3 17895764027371911888
5207 123 18411982425851798493
6138700 20 18341896294986139563
8863177 126 18259985972645474878

> <PUBCHEM_SHAPE_MULTIPOLES>
434.01
16.24
2.72
1.21
0.17
0.71
-0.09
-11
-1.52
-1.05
-0.24
0.6
-0.02
2.39

> <PUBCHEM_SHAPE_SELFOVERLAP>
895.363

> <PUBCHEM_SHAPE_VOLUME>
252.2

> <PUBCHEM_COORDINATE_TYPE>
2
5
10

$$$$

