257862
  -OEChem-07051213062D

 62 66  0     1  0  0  0  0  0999 V2000
    8.5677    1.9472    0.0000 O   0  0  0  0  0  0  0  0  0  0  0  0
    2.5357   -2.3614    0.0000 O   0  0  0  0  0  0  0  0  0  0  0  0
   10.5979    1.1737    0.0000 N   0  0  0  0  0  0  0  0  0  0  0  0
    7.9288    0.6909    0.0000 C   0  0  1  0  0  0  0  0  0  0  0  0
    7.9288   -0.3091    0.0000 C   0  0  2  0  0  0  0  0  0  0  0  0
    7.0628   -0.8091    0.0000 C   0  0  1  0  0  0  0  0  0  0  0  0
    8.8750    0.9956    0.0000 C   0  0  2  0  0  0  0  0  0  0  0  0
    8.8750   -0.6138    0.0000 C   0  0  0  0  0  0  0  0  0  0  0  0
    7.0628    1.1909    0.0000 C   0  0  0  0  0  0  0  0  0  0  0  0
    6.1968   -0.3091    0.0000 C   0  0  2  0  0  0  0  0  0  0  0  0
    9.4586    0.1909    0.0000 C   0  0  0  0  0  0  0  0  0  0  0  0
    6.1968    0.6909    0.0000 C   0  0  0  0  0  0  0  0  0  0  0  0
    7.0789   -1.8506    0.0000 C   0  0  0  0  0  0  0  0  0  0  0  0
    7.9288    1.6909    0.0000 C   0  0  0  0  0  0  0  0  0  0  0  0
    9.6851    1.5820    0.0000 C   0  0  0  0  0  0  0  0  0  0  0  0
    5.2868   -0.8159    0.0000 C   0  0  0  0  0  0  0  0  0  0  0  0
    6.1808   -2.3784    0.0000 C   0  0  0  0  0  0  0  0  0  0  0  0
    5.2787   -1.8575    0.0000 C   0  0  0  0  0  0  0  0  0  0  0  0
    4.3599   -0.2519    0.0000 C   0  0  0  0  0  0  0  0  0  0  0  0
    4.3433   -2.4073    0.0000 C   0  0  0  0  0  0  0  0  0  0  0  0
   11.4079    1.7601    0.0000 C   0  0  0  0  0  0  0  0  0  0  0  0
    3.4120   -0.7798    0.0000 C   0  0  0  0  0  0  0  0  0  0  0  0
    3.4037   -1.8648    0.0000 C   0  0  0  0  0  0  0  0  0  0  0  0
   12.3208    1.3518    0.0000 C   0  0  0  0  0  0  0  0  0  0  0  0
   12.4236    0.3571    0.0000 C   0  0  0  0  0  0  0  0  0  0  0  0
   13.1308    1.9382    0.0000 C   0  0  0  0  0  0  0  0  0  0  0  0
   13.3364   -0.0512    0.0000 C   0  0  0  0  0  0  0  0  0  0  0  0
   14.0437    1.5298    0.0000 C   0  0  0  0  0  0  0  0  0  0  0  0
   14.1465    0.5351    0.0000 C   0  0  0  0  0  0  0  0  0  0  0  0
    8.0188   -1.1543    0.0000 H   0  0  0  0  0  0  0  0  0  0  0  0
    7.8022   -1.2284    0.0000 H   0  0  0  0  0  0  0  0  0  0  0  0
    8.6240   -1.1807    0.0000 H   0  0  0  0  0  0  0  0  0  0  0  0
    9.4124   -0.9230    0.0000 H   0  0  0  0  0  0  0  0  0  0  0  0
    7.4613    1.6659    0.0000 H   0  0  0  0  0  0  0  0  0  0  0  0
    6.6643    1.6659    0.0000 H   0  0  0  0  0  0  0  0  0  0  0  0
    6.9329    0.1159    0.0000 H   0  0  0  0  0  0  0  0  0  0  0  0
    9.9195   -0.2238    0.0000 H   0  0  0  0  0  0  0  0  0  0  0  0
    9.9195    0.6056    0.0000 H   0  0  0  0  0  0  0  0  0  0  0  0
    5.9847    1.2735    0.0000 H   0  0  0  0  0  0  0  0  0  0  0  0
    5.5862    0.5832    0.0000 H   0  0  0  0  0  0  0  0  0  0  0  0
    7.2969   -2.4310    0.0000 H   0  0  0  0  0  0  0  0  0  0  0  0
    7.6880   -1.7351    0.0000 H   0  0  0  0  0  0  0  0  0  0  0  0
    8.5488    1.6909    0.0000 H   0  0  0  0  0  0  0  0  0  0  0  0
    7.9288    2.3109    0.0000 H   0  0  0  0  0  0  0  0  0  0  0  0
    7.3088    1.6909    0.0000 H   0  0  0  0  0  0  0  0  0  0  0  0
   10.0327    2.0954    0.0000 H   0  0  0  0  0  0  0  0  0  0  0  0
    9.2398    2.0135    0.0000 H   0  0  0  0  0  0  0  0  0  0  0  0
    5.7835   -2.8543    0.0000 H   0  0  0  0  0  0  0  0  0  0  0  0
    6.5818   -2.8512    0.0000 H   0  0  0  0  0  0  0  0  0  0  0  0
    8.9833    2.4073    0.0000 H   0  0  0  0  0  0  0  0  0  0  0  0
   10.6617    0.5570    0.0000 H   0  0  0  0  0  0  0  0  0  0  0  0
    4.3719    0.3680    0.0000 H   0  0  0  0  0  0  0  0  0  0  0  0
    4.3457   -3.0273    0.0000 H   0  0  0  0  0  0  0  0  0  0  0  0
   11.7555    2.2735    0.0000 H   0  0  0  0  0  0  0  0  0  0  0  0
   10.9627    2.1916    0.0000 H   0  0  0  0  0  0  0  0  0  0  0  0
    2.8787   -0.4636    0.0000 H   0  0  0  0  0  0  0  0  0  0  0  0
    2.0000   -2.0494    0.0000 H   0  0  0  0  0  0  0  0  0  0  0  0
   11.9214   -0.0065    0.0000 H   0  0  0  0  0  0  0  0  0  0  0  0
   13.0671    2.5549    0.0000 H   0  0  0  0  0  0  0  0  0  0  0  0
   13.4002   -0.6680    0.0000 H   0  0  0  0  0  0  0  0  0  0  0  0
   14.5459    1.8934    0.0000 H   0  0  0  0  0  0  0  0  0  0  0  0
   14.7124    0.2820    0.0000 H   0  0  0  0  0  0  0  0  0  0  0  0
  7  1  1  1  0  0  0
  1 50  1  0  0  0  0
  2 23  1  0  0  0  0
  2 57  1  0  0  0  0
  3 15  1  0  0  0  0
  3 21  1  0  0  0  0
  3 51  1  0  0  0  0
  4  5  1  0  0  0  0
  4  7  1  0  0  0  0
  4  9  1  0  0  0  0
  4 14  1  1  0  0  0
  5  6  1  0  0  0  0
  5  8  1  0  0  0  0
  5 30  1  6  0  0  0
  6 10  1  0  0  0  0
  6 13  1  0  0  0  0
  6 31  1  1  0  0  0
  7 11  1  0  0  0  0
  7 15  1  0  0  0  0
  8 11  1  0  0  0  0
  8 32  1  0  0  0  0
  8 33  1  0  0  0  0
  9 12  1  0  0  0  0
  9 34  1  0  0  0  0
  9 35  1  0  0  0  0
 10 12  1  0  0  0  0
 10 16  1  0  0  0  0
 10 36  1  6  0  0  0
 11 37  1  0  0  0  0
 11 38  1  0  0  0  0
 12 39  1  0  0  0  0
 12 40  1  0  0  0  0
 13 17  1  0  0  0  0
 13 41  1  0  0  0  0
 13 42  1  0  0  0  0
 14 43  1  0  0  0  0
 14 44  1  0  0  0  0
 14 45  1  0  0  0  0
 15 46  1  0  0  0  0
 15 47  1  0  0  0  0
 16 18  2  0  0  0  0
 16 19  1  0  0  0  0
 17 18  1  0  0  0  0
 17 48  1  0  0  0  0
 17 49  1  0  0  0  0
 18 20  1  0  0  0  0
 19 22  2  0  0  0  0
 19 52  1  0  0  0  0
 20 23  2  0  0  0  0
 20 53  1  0  0  0  0
 21 24  1  0  0  0  0
 21 54  1  0  0  0  0
 21 55  1  0  0  0  0
 22 23  1  0  0  0  0
 22 56  1  0  0  0  0
 24 25  2  0  0  0  0
 24 26  1  0  0  0  0
 25 27  1  0  0  0  0
 25 58  1  0  0  0  0
 26 28  2  0  0  0  0
 26 59  1  0  0  0  0
 27 29  2  0  0  0  0
 27 60  1  0  0  0  0
 28 29  1  0  0  0  0
 28 61  1  0  0  0  0
 29 62  1  0  0  0  0
M  END
> <PUBCHEM_COMPOUND_CID>
257862

> <PUBCHEM_COMPOUND_CANONICALIZED>
1

> <PUBCHEM_CACTVS_COMPLEXITY>
575

> <PUBCHEM_CACTVS_HBOND_ACCEPTOR>
3

> <PUBCHEM_CACTVS_HBOND_DONOR>
3

> <PUBCHEM_CACTVS_ROTATABLE_BOND>
4

> <PUBCHEM_CACTVS_SUBSKEYS>
AAADcfB6MAAAAAAAAAAAAAAAAAAAAYAAAAAwYMGAAAAAAGDBQAAAHgAQCAAAD0TBmAQyBoLAAgCAAiBCAACCAAAgIAAIiIAODIgKJiKCkROEcAhkwBGYmAeQwPAPoAABAAAQAADAAAYAACAAAYAADAAAAA==

> <PUBCHEM_IUPAC_OPENEYE_NAME>
(8R,9S,13S,14S,17S)-17-[(benzylamino)methyl]-13-methyl-7,8,9,11,12,14,15,16-octahydro-6H-cyclopenta[a]phenanthrene-3,17-diol

> <PUBCHEM_IUPAC_CAS_NAME>
(8R,9S,13S,14S,17S)-13-methyl-17-[[(phenylmethyl)amino]methyl]-7,8,9,11,12,14,15,16-octahydro-6H-cyclopenta[a]phenanthrene-3,17-diol

> <PUBCHEM_IUPAC_NAME>
(8R,9S,13S,14S,17S)-17-[(benzylamino)methyl]-13-methyl-7,8,9,11,12,14,15,16-octahydro-6H-cyclopenta[a]phenanthrene-3,17-diol

> <PUBCHEM_IUPAC_SYSTEMATIC_NAME>
(8R,9S,13S,14S,17S)-13-methyl-17-[[(phenylmethyl)amino]methyl]-7,8,9,11,12,14,15,16-octahydro-6H-cyclopenta[a]phenanthrene-3,17-diol

> <PUBCHEM_IUPAC_TRADITIONAL_NAME>
(8R,9S,13S,14S,17S)-17-[(benzylamino)methyl]-13-methyl-7,8,9,11,12,14,15,16-octahydro-6H-cyclopenta[a]phenanthrene-3,17-diol

> <PUBCHEM_IUPAC_INCHI>
InChI=1S/C26H33NO2/c1-25-13-11-22-21-10-8-20(28)15-19(21)7-9-23(22)24(25)12-14-26(25,29)17-27-16-18-5-3-2-4-6-18/h2-6,8,10,15,22-24,27-29H,7,9,11-14,16-17H2,1H3/t22-,23-,24+,25+,26-/m1/s1

> <PUBCHEM_IUPAC_INCHIKEY>
HKQCBICFBAZMCN-PUHDZGQXSA-N

> <PUBCHEM_XLOGP3_AA>
4.8

> <PUBCHEM_EXACT_MASS>
391.251129

> <PUBCHEM_MOLECULAR_FORMULA>
C26H33NO2

> <PUBCHEM_MOLECULAR_WEIGHT>
391.54572

> <PUBCHEM_OPENEYE_CAN_SMILES>
CC12CCC3C(C1CCC2(CNCC4=CC=CC=C4)O)CCC5=C3C=CC(=C5)O

> <PUBCHEM_OPENEYE_ISO_SMILES>
C[C@]12CC[C@H]3[C@H]([C@@H]1CC[C@]2(CNCC4=CC=CC=C4)O)CCC5=C3C=CC(=C5)O

> <PUBCHEM_CACTVS_TPSA>
52.5

> <PUBCHEM_MONOISOTOPIC_WEIGHT>
391.251129

> <PUBCHEM_TOTAL_CHARGE>
0

> <PUBCHEM_HEAVY_ATOM_COUNT>
29

> <PUBCHEM_ATOM_DEF_STEREO_COUNT>
5

> <PUBCHEM_ATOM_UDEF_STEREO_COUNT>
0

> <PUBCHEM_BOND_DEF_STEREO_COUNT>
0

> <PUBCHEM_BOND_UDEF_STEREO_COUNT>
0

> <PUBCHEM_ISOTOPIC_ATOM_COUNT>
0

> <PUBCHEM_COMPONENT_COUNT>
1

> <PUBCHEM_CACTVS_TAUTO_COUNT>
9

> <PUBCHEM_COORDINATE_TYPE>
1
5
255

> <PUBCHEM_BONDANNOTATIONS>
7  1  5
10  36  6
16  18  8
16  19  8
18  20  8
19  22  8
20  23  8
22  23  8
24  25  8
24  26  8
25  27  8
26  28  8
27  29  8
28  29  8
4  14  5
5  30  6
6  31  5

$$$$

