4057
  -OEChem-07051212542D

 51 53  0     1  0  0  0  0  0999 V2000
    5.4641   -0.6160    0.0000 O   0  0  0  0  0  0  0  0  0  0  0  0
    4.0981    0.0179    0.0000 O   0  0  0  0  0  0  0  0  0  0  0  0
    6.3301    0.8840    0.0000 O   0  0  0  0  0  0  0  0  0  0  0  0
    7.1962   -2.6160    0.0000 N   0  3  0  0  0  0  0  0  0  0  0  0
    6.3301   -2.1160    0.0000 C   0  0  0  0  0  0  0  0  0  0  0  0
    8.0622   -2.1160    0.0000 C   0  0  0  0  0  0  0  0  0  0  0  0
    6.3301   -1.1160    0.0000 C   0  0  3  0  0  0  0  0  0  0  0  0
    8.0622   -1.1160    0.0000 C   0  0  0  0  0  0  0  0  0  0  0  0
    7.1962   -0.6160    0.0000 C   0  0  0  0  0  0  0  0  0  0  0  0
    6.6962   -3.4820    0.0000 C   0  0  0  0  0  0  0  0  0  0  0  0
    7.6962   -3.4820    0.0000 C   0  0  0  0  0  0  0  0  0  0  0  0
    5.4641    0.3840    0.0000 C   0  0  0  0  0  0  0  0  0  0  0  0
    4.5981    0.8840    0.0000 C   0  0  0  0  0  0  0  0  0  0  0  0
    3.7320    1.3840    0.0000 C   0  0  0  0  0  0  0  0  0  0  0  0
    5.0981    1.7500    0.0000 C   0  0  0  0  0  0  0  0  0  0  0  0
    4.5981    2.6160    0.0000 C   0  0  0  0  0  0  0  0  0  0  0  0
    3.7320    2.3840    0.0000 C   0  0  0  0  0  0  0  0  0  0  0  0
    6.0981    1.7500    0.0000 C   0  0  0  0  0  0  0  0  0  0  0  0
    2.8660    0.8840    0.0000 C   0  0  0  0  0  0  0  0  0  0  0  0
    5.0981    3.4820    0.0000 C   0  0  0  0  0  0  0  0  0  0  0  0
    2.8660    2.8840    0.0000 C   0  0  0  0  0  0  0  0  0  0  0  0
    6.5981    2.6160    0.0000 C   0  0  0  0  0  0  0  0  0  0  0  0
    2.0000    1.3840    0.0000 C   0  0  0  0  0  0  0  0  0  0  0  0
    6.0981    3.4820    0.0000 C   0  0  0  0  0  0  0  0  0  0  0  0
    2.0000    2.3840    0.0000 C   0  0  0  0  0  0  0  0  0  0  0  0
    5.7196   -2.0084    0.0000 H   0  0  0  0  0  0  0  0  0  0  0  0
    6.1181   -2.6986    0.0000 H   0  0  0  0  0  0  0  0  0  0  0  0
    8.2742   -2.6986    0.0000 H   0  0  0  0  0  0  0  0  0  0  0  0
    8.6728   -2.0084    0.0000 H   0  0  0  0  0  0  0  0  0  0  0  0
    5.7932   -1.4260    0.0000 H   0  0  0  0  0  0  0  0  0  0  0  0
    8.6728   -1.2237    0.0000 H   0  0  0  0  0  0  0  0  0  0  0  0
    8.2742   -0.5334    0.0000 H   0  0  0  0  0  0  0  0  0  0  0  0
    7.5947   -0.1411    0.0000 H   0  0  0  0  0  0  0  0  0  0  0  0
    6.7976   -0.1411    0.0000 H   0  0  0  0  0  0  0  0  0  0  0  0
    6.1592   -3.1720    0.0000 H   0  0  0  0  0  0  0  0  0  0  0  0
    7.1592   -3.7920    0.0000 H   0  0  0  0  0  0  0  0  0  0  0  0
    8.0062   -4.0190    0.0000 H   0  0  0  0  0  0  0  0  0  0  0  0
    6.3862   -4.0190    0.0000 H   0  0  0  0  0  0  0  0  0  0  0  0
    8.2331   -3.1720    0.0000 H   0  0  0  0  0  0  0  0  0  0  0  0
    7.2331   -3.7920    0.0000 H   0  0  0  0  0  0  0  0  0  0  0  0
    3.4781    0.0179    0.0000 H   0  0  0  0  0  0  0  0  0  0  0  0
    3.9781    2.6160    0.0000 H   0  0  0  0  0  0  0  0  0  0  0  0
    4.2690    2.6940    0.0000 H   0  0  0  0  0  0  0  0  0  0  0  0
    6.4081    1.2131    0.0000 H   0  0  0  0  0  0  0  0  0  0  0  0
    2.8660    0.2640    0.0000 H   0  0  0  0  0  0  0  0  0  0  0  0
    4.7881    4.0190    0.0000 H   0  0  0  0  0  0  0  0  0  0  0  0
    2.8660    3.5040    0.0000 H   0  0  0  0  0  0  0  0  0  0  0  0
    7.2181    2.6160    0.0000 H   0  0  0  0  0  0  0  0  0  0  0  0
    1.4631    1.0740    0.0000 H   0  0  0  0  0  0  0  0  0  0  0  0
    6.4081    4.0190    0.0000 H   0  0  0  0  0  0  0  0  0  0  0  0
    1.4631    2.6940    0.0000 H   0  0  0  0  0  0  0  0  0  0  0  0
  1  7  1  0  0  0  0
  1 12  1  0  0  0  0
  2 13  1  0  0  0  0
  2 41  1  0  0  0  0
  3 12  2  0  0  0  0
  4  5  1  0  0  0  0
  4  6  1  0  0  0  0
  4 10  1  0  0  0  0
  4 11  1  0  0  0  0
  5  7  1  0  0  0  0
  5 26  1  0  0  0  0
  5 27  1  0  0  0  0
  6  8  1  0  0  0  0
  6 28  1  0  0  0  0
  6 29  1  0  0  0  0
  7  9  1  0  0  0  0
  7 30  1  0  0  0  0
  8  9  1  0  0  0  0
  8 31  1  0  0  0  0
  8 32  1  0  0  0  0
  9 33  1  0  0  0  0
  9 34  1  0  0  0  0
 10 35  1  0  0  0  0
 10 38  1  0  0  0  0
 10 40  1  0  0  0  0
 11 36  1  0  0  0  0
 11 37  1  0  0  0  0
 11 39  1  0  0  0  0
 12 13  1  0  0  0  0
 13 14  1  0  0  0  0
 13 15  1  0  0  0  0
 14 17  2  0  0  0  0
 14 19  1  0  0  0  0
 15 16  2  0  0  0  0
 15 18  1  0  0  0  0
 16 20  1  0  0  0  0
 16 42  1  0  0  0  0
 17 21  1  0  0  0  0
 17 43  1  0  0  0  0
 18 22  2  0  0  0  0
 18 44  1  0  0  0  0
 19 23  2  0  0  0  0
 19 45  1  0  0  0  0
 20 24  2  0  0  0  0
 20 46  1  0  0  0  0
 21 25  2  0  0  0  0
 21 47  1  0  0  0  0
 22 24  1  0  0  0  0
 22 48  1  0  0  0  0
 23 25  1  0  0  0  0
 23 49  1  0  0  0  0
 24 50  1  0  0  0  0
 25 51  1  0  0  0  0
M  CHG  1   4   1
M  END
> <PUBCHEM_COMPOUND_CID>
4057

> <PUBCHEM_COMPOUND_CANONICALIZED>
1

> <PUBCHEM_CACTVS_COMPLEXITY>
432

> <PUBCHEM_CACTVS_HBOND_ACCEPTOR>
3

> <PUBCHEM_CACTVS_HBOND_DONOR>
1

> <PUBCHEM_CACTVS_ROTATABLE_BOND>
5

> <PUBCHEM_CACTVS_SUBSKEYS>
AAADceB6MAAAAAAAAAAAAAAAAAAAAAAAAAA8YIAAAAAAAAABQAAAHgAACAAADFThmAYyCIMABgCIAiDSCAICAAAgAAAIiAFICIgLJjKAlRCHcAAkwAGbmAe4yOCOgAAAAAAAAAAAAAAAAAAAAAAAAAAAAA==

> <PUBCHEM_IUPAC_OPENEYE_NAME>
(1,1-dimethylpiperidin-1-ium-3-yl) 2-hydroxy-2,2-diphenyl-acetate

> <PUBCHEM_IUPAC_CAS_NAME>
2-hydroxy-2,2-diphenylacetic acid (1,1-dimethyl-3-piperidin-1-iumyl) ester

> <PUBCHEM_IUPAC_NAME>
(1,1-dimethylpiperidin-1-ium-3-yl) 2-hydroxy-2,2-diphenylacetate

> <PUBCHEM_IUPAC_SYSTEMATIC_NAME>
(1,1-dimethylpiperidin-1-ium-3-yl) 2-oxidanyl-2,2-diphenyl-ethanoate

> <PUBCHEM_IUPAC_TRADITIONAL_NAME>
2-hydroxy-2,2-diphenyl-acetic acid (1,1-dimethylpiperidin-1-ium-3-yl) ester

> <PUBCHEM_IUPAC_INCHI>
InChI=1S/C21H26NO3/c1-22(2)15-9-14-19(16-22)25-20(23)21(24,17-10-5-3-6-11-17)18-12-7-4-8-13-18/h3-8,10-13,19,24H,9,14-16H2,1-2H3/q+1

> <PUBCHEM_IUPAC_INCHIKEY>
GKNPSSNBBWDAGH-UHFFFAOYSA-N

> <PUBCHEM_XLOGP3_AA>
3.2

> <PUBCHEM_EXACT_MASS>
340.191269

> <PUBCHEM_MOLECULAR_FORMULA>
C21H26NO3+

> <PUBCHEM_MOLECULAR_WEIGHT>
340.43604

> <PUBCHEM_OPENEYE_CAN_SMILES>
C[N+]1(CCCC(C1)OC(=O)C(C2=CC=CC=C2)(C3=CC=CC=C3)O)C

> <PUBCHEM_OPENEYE_ISO_SMILES>
C[N+]1(CCCC(C1)OC(=O)C(C2=CC=CC=C2)(C3=CC=CC=C3)O)C

> <PUBCHEM_CACTVS_TPSA>
46.5

> <PUBCHEM_MONOISOTOPIC_WEIGHT>
340.191269

> <PUBCHEM_TOTAL_CHARGE>
1

> <PUBCHEM_HEAVY_ATOM_COUNT>
25

> <PUBCHEM_ATOM_DEF_STEREO_COUNT>
0

> <PUBCHEM_ATOM_UDEF_STEREO_COUNT>
1

> <PUBCHEM_BOND_DEF_STEREO_COUNT>
0

> <PUBCHEM_BOND_UDEF_STEREO_COUNT>
0

> <PUBCHEM_ISOTOPIC_ATOM_COUNT>
0

> <PUBCHEM_COMPONENT_COUNT>
1

> <PUBCHEM_CACTVS_TAUTO_COUNT>
1

> <PUBCHEM_COORDINATE_TYPE>
1
5
255

> <PUBCHEM_BONDANNOTATIONS>
7  1  3
14  17  8
14  19  8
15  16  8
15  18  8
16  20  8
17  21  8
18  22  8
19  23  8
20  24  8
21  25  8
22  24  8
23  25  8

$$$$

