439536
  -OEChem-07051212463D

 56 58  0     1  0  0  0  0  0999 V2000
   -2.8670    1.9492    0.9406 P   0  0  1  0  0  0  0  0  0  0  0  0
   -0.5069    3.6892    0.6966 P   0  0  2  0  0  0  0  0  0  0  0  0
    3.0844    1.3188    0.3894 O   0  0  0  0  0  0  0  0  0  0  0  0
   -1.4598   -0.2603   -1.1731 O   0  0  0  0  0  0  0  0  0  0  0  0
    4.6526    1.6097   -2.1494 O   0  0  0  0  0  0  0  0  0  0  0  0
    3.7530   -0.9607   -2.2969 O   0  0  0  0  0  0  0  0  0  0  0  0
   -3.0033   -2.3908    0.3713 O   0  0  0  0  0  0  0  0  0  0  0  0
   -3.0885    0.4525    0.3663 O   0  0  0  0  0  0  0  0  0  0  0  0
   -4.9823   -0.9723   -0.9876 O   0  0  0  0  0  0  0  0  0  0  0  0
    1.0206    3.2175    0.4491 O   0  0  0  0  0  0  0  0  0  0  0  0
   -2.2798   -4.5024   -1.3237 O   0  0  0  0  0  0  0  0  0  0  0  0
   -1.3413    2.3128    0.5484 O   0  0  0  0  0  0  0  0  0  0  0  0
   -3.7376    2.8920   -0.0447 O   0  0  0  0  0  0  0  0  0  0  0  0
    4.2436   -2.6213    0.5343 O   0  0  0  0  0  0  0  0  0  0  0  0
   -0.8893    4.4935   -0.6538 O   0  0  0  0  0  0  0  0  0  0  0  0
   -3.1845    2.1167    2.3983 O   0  0  0  0  0  0  0  0  0  0  0  0
   -0.7584    4.4378    1.9729 O   0  0  0  0  0  0  0  0  0  0  0  0
    0.4014   -3.5427    2.9078 O   0  0  0  0  0  0  0  0  0  0  0  0
    2.6175   -0.9513    0.6946 N   0  0  0  0  0  0  0  0  0  0  0  0
    2.3292   -3.0786    1.7152 N   0  0  0  0  0  0  0  0  0  0  0  0
    3.2524    1.3966   -1.9722 C   0  0  1  0  0  0  0  0  0  0  0  0
    2.9879   -0.0342   -1.5536 C   0  0  2  0  0  0  0  0  0  0  0  0
    2.8114    2.1760   -0.7408 C   0  0  1  0  0  0  0  0  0  0  0  0
    3.3688   -0.0080   -0.0834 C   0  0  1  0  0  0  0  0  0  0  0  0
   -2.8456   -2.1983   -1.0344 C   0  0  1  0  0  0  0  0  0  0  0  0
   -3.6637   -1.0008   -1.4885 C   0  0  2  0  0  0  0  0  0  0  0  0
   -2.8211    0.1687   -1.0023 C   0  0  2  0  0  0  0  0  0  0  0  0
   -1.4329   -1.6978   -1.3143 C   0  0  0  0  0  0  0  0  0  0  0  0
    1.3247    2.5059   -0.7377 C   0  0  0  0  0  0  0  0  0  0  0  0
   -3.1899   -3.4987   -1.7424 C   0  0  0  0  0  0  0  0  0  0  0  0
    3.1465   -2.2390    0.9467 C   0  0  0  0  0  0  0  0  0  0  0  0
    1.3713   -0.5983    1.1990 C   0  0  0  0  0  0  0  0  0  0  0  0
    0.6039   -1.4095    1.9301 C   0  0  0  0  0  0  0  0  0  0  0  0
    1.0826   -2.7720    2.2384 C   0  0  0  0  0  0  0  0  0  0  0  0
    2.7477    1.6795   -2.9003 H   0  0  0  0  0  0  0  0  0  0  0  0
    1.9261   -0.2707   -1.6937 H   0  0  0  0  0  0  0  0  0  0  0  0
    3.3964    3.0903   -0.5901 H   0  0  0  0  0  0  0  0  0  0  0  0
    4.4414   -0.1930    0.0520 H   0  0  0  0  0  0  0  0  0  0  0  0
   -3.7045   -0.9755   -2.5854 H   0  0  0  0  0  0  0  0  0  0  0  0
   -2.9974    1.0603   -1.6115 H   0  0  0  0  0  0  0  0  0  0  0  0
   -1.1183   -1.9057   -2.3427 H   0  0  0  0  0  0  0  0  0  0  0  0
   -0.6857   -2.1017   -0.6272 H   0  0  0  0  0  0  0  0  0  0  0  0
    0.7052    1.6085   -0.7955 H   0  0  0  0  0  0  0  0  0  0  0  0
    1.0996    3.1360   -1.6036 H   0  0  0  0  0  0  0  0  0  0  0  0
   -4.1986   -3.8319   -1.4774 H   0  0  0  0  0  0  0  0  0  0  0  0
   -3.1215   -3.3962   -2.8303 H   0  0  0  0  0  0  0  0  0  0  0  0
    4.7773    2.5466   -2.3787 H   0  0  0  0  0  0  0  0  0  0  0  0
    3.5926   -1.8419   -1.9184 H   0  0  0  0  0  0  0  0  0  0  0  0
   -2.4139   -3.1167    0.6392 H   0  0  0  0  0  0  0  0  0  0  0  0
   -5.4316   -1.7776   -1.2948 H   0  0  0  0  0  0  0  0  0  0  0  0
    1.0018    0.3935    0.9857 H   0  0  0  0  0  0  0  0  0  0  0  0
   -2.5234   -5.3215   -1.7875 H   0  0  0  0  0  0  0  0  0  0  0  0
    2.6894   -4.0089    1.9086 H   0  0  0  0  0  0  0  0  0  0  0  0
   -0.3644   -1.0998    2.3039 H   0  0  0  0  0  0  0  0  0  0  0  0
   -3.8540    3.8384    0.1857 H   0  0  0  0  0  0  0  0  0  0  0  0
   -0.8674    4.0307   -1.5178 H   0  0  0  0  0  0  0  0  0  0  0  0
  1  8  1  0  0  0  0
  1 12  1  0  0  0  0
  1 13  1  0  0  0  0
  1 16  2  0  0  0  0
  2 10  1  0  0  0  0
  2 12  1  0  0  0  0
  2 15  1  0  0  0  0
  2 17  2  0  0  0  0
  3 23  1  0  0  0  0
  3 24  1  0  0  0  0
  4 27  1  0  0  0  0
  4 28  1  0  0  0  0
  5 21  1  0  0  0  0
  5 47  1  0  0  0  0
  6 22  1  0  0  0  0
  6 48  1  0  0  0  0
  7 25  1  0  0  0  0
  7 49  1  0  0  0  0
  8 27  1  0  0  0  0
  9 26  1  0  0  0  0
  9 50  1  0  0  0  0
 10 29  1  0  0  0  0
 11 30  1  0  0  0  0
 11 52  1  0  0  0  0
 13 55  1  0  0  0  0
 14 31  2  0  0  0  0
 15 56  1  0  0  0  0
 18 34  2  0  0  0  0
 19 24  1  0  0  0  0
 19 31  1  0  0  0  0
 19 32  1  0  0  0  0
 20 31  1  0  0  0  0
 20 34  1  0  0  0  0
 20 53  1  0  0  0  0
 21 22  1  0  0  0  0
 21 23  1  0  0  0  0
 21 35  1  0  0  0  0
 22 24  1  0  0  0  0
 22 36  1  0  0  0  0
 23 29  1  0  0  0  0
 23 37  1  0  0  0  0
 24 38  1  0  0  0  0
 25 26  1  0  0  0  0
 25 28  1  0  0  0  0
 25 30  1  0  0  0  0
 26 27  1  0  0  0  0
 26 39  1  0  0  0  0
 27 40  1  0  0  0  0
 28 41  1  0  0  0  0
 28 42  1  0  0  0  0
 29 43  1  0  0  0  0
 29 44  1  0  0  0  0
 30 45  1  0  0  0  0
 30 46  1  0  0  0  0
 32 33  2  0  0  0  0
 32 51  1  0  0  0  0
 33 34  1  0  0  0  0
 33 54  1  0  0  0  0
M  END
> <PUBCHEM_COMPOUND_CID>
439536

> <PUBCHEM_CONFORMER_RMSD>
1.2

> <PUBCHEM_CONFORMER_DIVERSEORDER>
1
184
129
136
28
73
5
89
125
130
162
54
99
21
91
154
160
60
109
106
107
117
128
98
108
36
158
50
167
157
27
145
175
101
100
180
41
20
141
25
82
140
83
183
13
118
189
134
4
133
15
30
159
40
155
181
170
59
2
121
87
68
55
185
124
153
46
112
97
19
79
45
44
47
74
115
186
95
165
86
32
151
102
7
63
71
120
31
116
172
122
152
173
176
113
161
33
93
37
174
105
69
23
179
39
14
38
110
75
52
80
143
61
139
135
72
76
53
163
34
3
103
48
35
88
81
57
49
127
18
144
148
131
17
43
164
58
16
77
90
65
111
104
137
169
182
67
171
11
78
70
188
138
85
10
56
92
150
42
114
62
51
12
168
178
147
177
84
142
29
26
119
22
123
149
6
9
187
64
8
146
96
126
166
24
66
94
156
132

> <PUBCHEM_MMFF94_PARTIAL_CHARGES>
44
1 1.51
10 -0.55
11 -0.68
12 -0.54
13 -0.77
14 -0.57
15 -0.77
16 -0.7
17 -0.7
18 -0.57
19 -0.47
2 1.51
20 -0.49
21 0.28
22 0.28
23 0.28
24 0.58
25 0.28
26 0.28
27 0.56
28 0.28
29 0.28
3 -0.56
30 0.28
31 0.69
32 -0.04
33 -0.14
34 0.62
4 -0.56
47 0.4
48 0.4
49 0.4
5 -0.68
50 0.4
51 0.15
52 0.4
53 0.37
54 0.15
55 0.5
56 0.5
6 -0.68
7 -0.68
8 -0.55
9 -0.68

> <PUBCHEM_EFFECTIVE_ROTOR_COUNT>
11

> <PUBCHEM_PHARMACOPHORE_FEATURES>
22
1 11 acceptor
1 11 donor
1 13 acceptor
1 14 acceptor
1 15 acceptor
1 16 acceptor
1 17 acceptor
1 18 acceptor
1 20 donor
1 3 acceptor
1 4 acceptor
1 5 acceptor
1 5 donor
1 6 acceptor
1 6 donor
1 7 acceptor
1 7 donor
1 9 acceptor
1 9 donor
5 3 21 22 23 24 rings
5 4 25 26 27 28 rings
6 19 20 31 32 33 34 rings

> <PUBCHEM_HEAVY_ATOM_COUNT>
34

> <PUBCHEM_ATOM_DEF_STEREO_COUNT>
7

> <PUBCHEM_ATOM_UDEF_STEREO_COUNT>
0

> <PUBCHEM_BOND_DEF_STEREO_COUNT>
0

> <PUBCHEM_BOND_UDEF_STEREO_COUNT>
0

> <PUBCHEM_ISOTOPIC_ATOM_COUNT>
0

> <PUBCHEM_COMPONENT_COUNT>
1

> <PUBCHEM_CACTVS_TAUTO_COUNT>
3

> <PUBCHEM_CONFORMER_ID>
0006B4F000000001

> <PUBCHEM_MMFF94_ENERGY>
52.5541

> <PUBCHEM_FEATURE_SELFOVERLAP>
111.69

> <PUBCHEM_SHAPE_FINGERPRINT>
108634 29 17477489699091620672
11513181 2 16600715457490778511
12788726 201 18261110764640464199
13402501 40 16395505287279103875
15064986 96 16465002788530028368
15297060 5 17679873888180930921
15403338 16 16767598177246040841
15484559 13 15525793797770293911
161222 619 16394085813509659447
19026451 147 17828511083782146287
19319366 153 18201707483669099001
19930381 70 17394727272672487343
20764821 26 17405700389922009264
20775438 99 16747633820561142598
21315764 21 17486242142377089461
238 59 17398946077287235140
238918 7 15385600176337969875
437795 51 17479456742980679099
463206 1 18340776948502727299
469060 322 15480402843438873715
86090 222 17046279891858782667

> <PUBCHEM_SHAPE_MULTIPOLES>
603.53
7.97
6.14
2.47
0.56
2.13
-0.59
-2.4
4.12
2.14
-2.25
-0.73
-1.23
-3.79

> <PUBCHEM_SHAPE_SELFOVERLAP>
1236.85

> <PUBCHEM_SHAPE_VOLUME>
350.1

> <PUBCHEM_COORDINATE_TYPE>
2
5
10

$$$$

