9494
  -OEChem-06261203453D

 27 26  0     0  0  0  0  0  0999 V2000
   -0.0059   -0.1565   -0.0056 N   0  0  0  0  0  0  0  0  0  0  0  0
    1.0752   -2.1906   -0.5244 N   0  0  0  0  0  0  0  0  0  0  0  0
   -0.9919   -2.2873    0.5051 N   0  0  0  0  0  0  0  0  0  0  0  0
   -1.1175    0.6213    0.5382 C   0  0  0  0  0  0  0  0  0  0  0  0
    1.1096    0.6189   -0.5455 C   0  0  0  0  0  0  0  0  0  0  0  0
   -2.1910    0.8431   -0.5221 C   0  0  0  0  0  0  0  0  0  0  0  0
    2.1651    0.8655    0.5274 C   0  0  0  0  0  0  0  0  0  0  0  0
   -0.0213   -1.5579    0.0160 C   0  0  0  0  0  0  0  0  0  0  0  0
   -3.3940    1.6114    0.0075 C   0  0  0  0  0  0  0  0  0  0  0  0
    3.3716    1.6321    0.0034 C   0  0  0  0  0  0  0  0  0  0  0  0
   -0.7609    1.5899    0.9104 H   0  0  0  0  0  0  0  0  0  0  0  0
   -1.5463    0.1099    1.4086 H   0  0  0  0  0  0  0  0  0  0  0  0
    0.7422    1.5887   -0.9066 H   0  0  0  0  0  0  0  0  0  0  0  0
    1.5421    0.1455   -1.4337 H   0  0  0  0  0  0  0  0  0  0  0  0
   -2.5342   -0.1220   -0.9140 H   0  0  0  0  0  0  0  0  0  0  0  0
   -1.7659    1.3893   -1.3729 H   0  0  0  0  0  0  0  0  0  0  0  0
    2.5097   -0.0889    0.9429 H   0  0  0  0  0  0  0  0  0  0  0  0
    1.7242    1.4239    1.3620 H   0  0  0  0  0  0  0  0  0  0  0  0
   -3.8706    1.0708    0.8314 H   0  0  0  0  0  0  0  0  0  0  0  0
   -3.0964    2.6001    0.3709 H   0  0  0  0  0  0  0  0  0  0  0  0
   -4.1361    1.7484   -0.7852 H   0  0  0  0  0  0  0  0  0  0  0  0
    3.8649    1.0795   -0.8026 H   0  0  0  0  0  0  0  0  0  0  0  0
    3.0737    2.6120   -0.3828 H   0  0  0  0  0  0  0  0  0  0  0  0
    4.0999    1.7884    0.8052 H   0  0  0  0  0  0  0  0  0  0  0  0
    1.9128   -1.7051   -0.8193 H   0  0  0  0  0  0  0  0  0  0  0  0
    1.1215   -3.2039   -0.5529 H   0  0  0  0  0  0  0  0  0  0  0  0
   -0.7485   -3.2774    0.3932 H   0  0  0  0  0  0  0  0  0  0  0  0
  1  4  1  0  0  0  0
  1  5  1  0  0  0  0
  1  8  1  0  0  0  0
  2  8  1  0  0  0  0
  2 25  1  0  0  0  0
  2 26  1  0  0  0  0
  3  8  2  0  0  0  0
  3 27  1  0  0  0  0
  4  6  1  0  0  0  0
  4 11  1  0  0  0  0
  4 12  1  0  0  0  0
  5  7  1  0  0  0  0
  5 13  1  0  0  0  0
  5 14  1  0  0  0  0
  6  9  1  0  0  0  0
  6 15  1  0  0  0  0
  6 16  1  0  0  0  0
  7 10  1  0  0  0  0
  7 17  1  0  0  0  0
  7 18  1  0  0  0  0
  9 19  1  0  0  0  0
  9 20  1  0  0  0  0
  9 21  1  0  0  0  0
 10 22  1  0  0  0  0
 10 23  1  0  0  0  0
 10 24  1  0  0  0  0
M  END
> <PUBCHEM_COMPOUND_CID>
9494

> <PUBCHEM_CONFORMER_RMSD>
0.6

> <PUBCHEM_CONFORMER_DIVERSEORDER>
1
38
30
6
15
29
36
39
10
12
23
35
32
14
34
40
21
43
20
41
18
22
31
37
25
2
16
28
27
42
3
17
11
13
24
7
9
8
19
26
33
5
4

> <PUBCHEM_MMFF94_PARTIAL_CHARGES>
9
1 -0.79
2 -0.85
25 0.4
26 0.4
27 0.4
3 -0.85
4 0.37
5 0.37
8 0.55

> <PUBCHEM_EFFECTIVE_ROTOR_COUNT>
5

> <PUBCHEM_PHARMACOPHORE_FEATURES>
5
1 10 hydrophobe
1 2 donor
1 3 donor
1 9 hydrophobe
4 1 2 3 8 cation

> <PUBCHEM_HEAVY_ATOM_COUNT>
10

> <PUBCHEM_ATOM_DEF_STEREO_COUNT>
0

> <PUBCHEM_ATOM_UDEF_STEREO_COUNT>
0

> <PUBCHEM_BOND_DEF_STEREO_COUNT>
0

> <PUBCHEM_BOND_UDEF_STEREO_COUNT>
0

> <PUBCHEM_ISOTOPIC_ATOM_COUNT>
0

> <PUBCHEM_COMPONENT_COUNT>
1

> <PUBCHEM_CACTVS_TAUTO_COUNT>
1

> <PUBCHEM_CONFORMER_ID>
0000251600000001

> <PUBCHEM_MMFF94_ENERGY>
12.9701

> <PUBCHEM_FEATURE_SELFOVERLAP>
25.42

> <PUBCHEM_SHAPE_FINGERPRINT>
1 1 18339927137593883316
10149128 76 18411139151366298800
13380535 76 18410579482736106702
14325111 11 18410858754384278849
19021347 4 18412827971330382499
20645477 70 18118694455437356925
20711985 344 17905905681570252338
20871998 184 18049153380725752782
21040471 1 18412821374060175204
21499 59 18411429409841475325
21524375 3 18410305704314520644
23235685 24 18410579482715351972
23552423 10 18048322438093705697

> <PUBCHEM_SHAPE_MULTIPOLES>
190.85
4.52
2.47
0.76
0.07
1.69
0
-4.22
0
-0.01
0.02
0
-0.01
0.29

> <PUBCHEM_SHAPE_SELFOVERLAP>
344.858

> <PUBCHEM_SHAPE_VOLUME>
120.8

> <PUBCHEM_COORDINATE_TYPE>
2
5
10

$$$$

