12628
  -OEChem-06261207102D

 40 41  0     0  0  0  0  0  0999 V2000
    3.0000   -0.2500    0.0000 S   0  0  0  0  0  0  0  0  0  0  0  0
    4.7320    0.7500    0.0000 O   0  0  0  0  0  0  0  0  0  0  0  0
    4.0000   -0.2500    0.0000 O   0  0  0  0  0  0  0  0  0  0  0  0
    2.0000   -0.2500    0.0000 O   0  0  0  0  0  0  0  0  0  0  0  0
    3.8660    2.2500    0.0000 N   0  0  0  0  0  0  0  0  0  0  0  0
    3.0000    0.7500    0.0000 N   0  0  0  0  0  0  0  0  0  0  0  0
    4.7320    2.7500    0.0000 C   0  0  0  0  0  0  0  0  0  0  0  0
    5.5981    2.2500    0.0000 C   0  0  0  0  0  0  0  0  0  0  0  0
    4.7320    3.7500    0.0000 C   0  0  0  0  0  0  0  0  0  0  0  0
    5.5981    4.2500    0.0000 C   0  0  0  0  0  0  0  0  0  0  0  0
    6.4641    2.7500    0.0000 C   0  0  0  0  0  0  0  0  0  0  0  0
    6.4641    3.7500    0.0000 C   0  0  0  0  0  0  0  0  0  0  0  0
    3.8660    1.2500    0.0000 C   0  0  0  0  0  0  0  0  0  0  0  0
    3.0000   -1.2500    0.0000 C   0  0  0  0  0  0  0  0  0  0  0  0
    2.1340   -1.7500    0.0000 C   0  0  0  0  0  0  0  0  0  0  0  0
    3.8660   -1.7500    0.0000 C   0  0  0  0  0  0  0  0  0  0  0  0
    3.0000   -3.2500    0.0000 C   0  0  0  0  0  0  0  0  0  0  0  0
    2.1340   -2.7500    0.0000 C   0  0  0  0  0  0  0  0  0  0  0  0
    3.8660   -2.7500    0.0000 C   0  0  0  0  0  0  0  0  0  0  0  0
    3.0000   -4.2500    0.0000 C   0  0  0  0  0  0  0  0  0  0  0  0
    4.7320    2.1300    0.0000 H   0  0  0  0  0  0  0  0  0  0  0  0
    5.1996    1.7750    0.0000 H   0  0  0  0  0  0  0  0  0  0  0  0
    5.9966    1.7750    0.0000 H   0  0  0  0  0  0  0  0  0  0  0  0
    4.5200    4.3326    0.0000 H   0  0  0  0  0  0  0  0  0  0  0  0
    4.1215    3.6423    0.0000 H   0  0  0  0  0  0  0  0  0  0  0  0
    5.9966    4.7250    0.0000 H   0  0  0  0  0  0  0  0  0  0  0  0
    5.1996    4.7250    0.0000 H   0  0  0  0  0  0  0  0  0  0  0  0
    6.6762    2.1674    0.0000 H   0  0  0  0  0  0  0  0  0  0  0  0
    7.0747    2.8577    0.0000 H   0  0  0  0  0  0  0  0  0  0  0  0
    7.0747    3.6423    0.0000 H   0  0  0  0  0  0  0  0  0  0  0  0
    6.6762    4.3326    0.0000 H   0  0  0  0  0  0  0  0  0  0  0  0
    3.3291    2.5600    0.0000 H   0  0  0  0  0  0  0  0  0  0  0  0
    2.4631    1.0600    0.0000 H   0  0  0  0  0  0  0  0  0  0  0  0
    1.5970   -1.4400    0.0000 H   0  0  0  0  0  0  0  0  0  0  0  0
    4.4030   -1.4400    0.0000 H   0  0  0  0  0  0  0  0  0  0  0  0
    1.5970   -3.0600    0.0000 H   0  0  0  0  0  0  0  0  0  0  0  0
    4.4030   -3.0600    0.0000 H   0  0  0  0  0  0  0  0  0  0  0  0
    2.3800   -4.2500    0.0000 H   0  0  0  0  0  0  0  0  0  0  0  0
    3.0000   -4.8700    0.0000 H   0  0  0  0  0  0  0  0  0  0  0  0
    3.6200   -4.2500    0.0000 H   0  0  0  0  0  0  0  0  0  0  0  0
  1  3  2  0  0  0  0
  1  4  2  0  0  0  0
  1  6  1  0  0  0  0
  1 14  1  0  0  0  0
  2 13  2  0  0  0  0
  5  7  1  0  0  0  0
  5 13  1  0  0  0  0
  5 32  1  0  0  0  0
  6 13  1  0  0  0  0
  6 33  1  0  0  0  0
  7  8  1  0  0  0  0
  7  9  1  0  0  0  0
  7 21  1  0  0  0  0
  8 11  1  0  0  0  0
  8 22  1  0  0  0  0
  8 23  1  0  0  0  0
  9 10  1  0  0  0  0
  9 24  1  0  0  0  0
  9 25  1  0  0  0  0
 10 12  1  0  0  0  0
 10 26  1  0  0  0  0
 10 27  1  0  0  0  0
 11 12  1  0  0  0  0
 11 28  1  0  0  0  0
 11 29  1  0  0  0  0
 12 30  1  0  0  0  0
 12 31  1  0  0  0  0
 14 15  2  0  0  0  0
 14 16  1  0  0  0  0
 15 18  1  0  0  0  0
 15 34  1  0  0  0  0
 16 19  2  0  0  0  0
 16 35  1  0  0  0  0
 17 18  2  0  0  0  0
 17 19  1  0  0  0  0
 17 20  1  0  0  0  0
 18 36  1  0  0  0  0
 19 37  1  0  0  0  0
 20 38  1  0  0  0  0
 20 39  1  0  0  0  0
 20 40  1  0  0  0  0
M  END
> <PUBCHEM_COMPOUND_CID>
12628

> <PUBCHEM_COMPOUND_CANONICALIZED>
1

> <PUBCHEM_CACTVS_COMPLEXITY>
416

> <PUBCHEM_CACTVS_HBOND_ACCEPTOR>
3

> <PUBCHEM_CACTVS_HBOND_DONOR>
2

> <PUBCHEM_CACTVS_ROTATABLE_BOND>
3

> <PUBCHEM_CACTVS_SUBSKEYS>
AAADceBzMABAAAAAAAAAAAAAAAAAAAAAAAAwYAAAAAAAAAABAAAAHgQQQAAADCjBWAQzAYLAAAKIAiBCEHBCABAgAAAIiJgIAIiIICKAkRCEIAAglgIIiAcQgAAOEAAAAAAAAAAgAAAAAAAAAAAAAAAAAA==

> <PUBCHEM_IUPAC_OPENEYE_NAME>
1-cyclohexyl-3-(p-tolylsulfonyl)urea

> <PUBCHEM_IUPAC_CAS_NAME>
1-cyclohexyl-3-(4-methylphenyl)sulfonylurea

> <PUBCHEM_IUPAC_NAME>
1-cyclohexyl-3-(4-methylphenyl)sulfonylurea

> <PUBCHEM_IUPAC_SYSTEMATIC_NAME>
1-cyclohexyl-3-(4-methylphenyl)sulfonyl-urea

> <PUBCHEM_IUPAC_TRADITIONAL_NAME>
1-cyclohexyl-3-tosyl-urea

> <PUBCHEM_IUPAC_INCHI>
InChI=1S/C14H20N2O3S/c1-11-7-9-13(10-8-11)20(18,19)16-14(17)15-12-5-3-2-4-6-12/h7-10,12H,2-6H2,1H3,(H2,15,16,17)

> <PUBCHEM_IUPAC_INCHIKEY>
RIGBPMDIGYBTBJ-UHFFFAOYSA-N

> <PUBCHEM_XLOGP3>
2.9

> <PUBCHEM_EXACT_MASS>
296.119464

> <PUBCHEM_MOLECULAR_FORMULA>
C14H20N2O3S

> <PUBCHEM_MOLECULAR_WEIGHT>
296.3852

> <PUBCHEM_OPENEYE_CAN_SMILES>
CC1=CC=C(C=C1)S(=O)(=O)NC(=O)NC2CCCCC2

> <PUBCHEM_OPENEYE_ISO_SMILES>
CC1=CC=C(C=C1)S(=O)(=O)NC(=O)NC2CCCCC2

> <PUBCHEM_CACTVS_TPSA>
83.6

> <PUBCHEM_MONOISOTOPIC_WEIGHT>
296.119464

> <PUBCHEM_TOTAL_CHARGE>
0

> <PUBCHEM_HEAVY_ATOM_COUNT>
20

> <PUBCHEM_ATOM_DEF_STEREO_COUNT>
0

> <PUBCHEM_ATOM_UDEF_STEREO_COUNT>
0

> <PUBCHEM_BOND_DEF_STEREO_COUNT>
0

> <PUBCHEM_BOND_UDEF_STEREO_COUNT>
0

> <PUBCHEM_ISOTOPIC_ATOM_COUNT>
0

> <PUBCHEM_COMPONENT_COUNT>
1

> <PUBCHEM_CACTVS_TAUTO_COUNT>
3

> <PUBCHEM_COORDINATE_TYPE>
1
5
255

> <PUBCHEM_BONDANNOTATIONS>
14  15  8
14  16  8
15  18  8
16  19  8
17  18  8
17  19  8

$$$$

