11954194
  -OEChem-07051213072D

 40 40  0     1  0  0  0  0  0999 V2000
    4.4860    0.2010    0.0000 O   0  0  0  0  0  0  0  0  0  0  0  0
    2.6200   -2.0311    0.0000 O   0  0  0  0  0  0  0  0  0  0  0  0
    4.9860   -3.6651    0.0000 O   0  0  0  0  0  0  0  0  0  0  0  0
    3.4860    3.6651    0.0000 O   0  0  0  0  0  0  0  0  0  0  0  0
    3.4860    1.9330    0.0000 O   0  0  0  0  0  0  0  0  0  0  0  0
    4.1200   -1.1651    0.0000 C   0  0  2  0  0  0  0  0  0  0  0  0
    4.9860   -0.6651    0.0000 C   0  0  1  0  0  0  0  0  0  0  0  0
    4.1200   -2.1651    0.0000 C   0  0  0  0  0  0  0  0  0  0  0  0
    3.1200   -1.1651    0.0000 C   0  0  0  0  0  0  0  0  0  0  0  0
    5.8520   -1.1651    0.0000 C   0  0  0  0  0  0  0  0  0  0  0  0
    3.4772   -0.3990    0.0000 C   0  0  0  0  0  0  0  0  0  0  0  0
    4.9860   -2.6651    0.0000 C   0  0  0  0  0  0  0  0  0  0  0  0
    5.4860    0.2010    0.0000 C   0  0  0  0  0  0  0  0  0  0  0  0
    5.8520   -2.1651    0.0000 C   0  0  0  0  0  0  0  0  0  0  0  0
    6.7181   -0.6651    0.0000 C   0  0  0  0  0  0  0  0  0  0  0  0
    4.9860    1.0670    0.0000 C   0  0  0  0  0  0  0  0  0  0  0  0
    5.4860    1.9330    0.0000 C   0  0  0  0  0  0  0  0  0  0  0  0
    6.4860    1.9330    0.0000 C   0  0  0  0  0  0  0  0  0  0  0  0
    4.9860    2.7990    0.0000 C   0  0  0  0  0  0  0  0  0  0  0  0
    3.9860    2.7990    0.0000 C   0  0  0  0  0  0  0  0  0  0  0  0
    3.5094   -2.0574    0.0000 H   0  0  0  0  0  0  0  0  0  0  0  0
    3.9080   -2.7477    0.0000 H   0  0  0  0  0  0  0  0  0  0  0  0
    3.2277   -0.5545    0.0000 H   0  0  0  0  0  0  0  0  0  0  0  0
    2.5374   -0.9530    0.0000 H   0  0  0  0  0  0  0  0  0  0  0  0
    3.9522   -0.0005    0.0000 H   0  0  0  0  0  0  0  0  0  0  0  0
    3.0787    0.0759    0.0000 H   0  0  0  0  0  0  0  0  0  0  0  0
    3.0023   -0.7975    0.0000 H   0  0  0  0  0  0  0  0  0  0  0  0
    6.1060    0.2010    0.0000 H   0  0  0  0  0  0  0  0  0  0  0  0
    6.3890   -2.4751    0.0000 H   0  0  0  0  0  0  0  0  0  0  0  0
    3.8755    0.3087    0.0000 H   0  0  0  0  0  0  0  0  0  0  0  0
    7.0281   -1.2020    0.0000 H   0  0  0  0  0  0  0  0  0  0  0  0
    7.2550   -0.3551    0.0000 H   0  0  0  0  0  0  0  0  0  0  0  0
    6.4081   -0.1281    0.0000 H   0  0  0  0  0  0  0  0  0  0  0  0
    4.3660    1.0670    0.0000 H   0  0  0  0  0  0  0  0  0  0  0  0
    2.0000   -2.0311    0.0000 H   0  0  0  0  0  0  0  0  0  0  0  0
    6.4860    1.3130    0.0000 H   0  0  0  0  0  0  0  0  0  0  0  0
    7.1060    1.9330    0.0000 H   0  0  0  0  0  0  0  0  0  0  0  0
    6.4860    2.5530    0.0000 H   0  0  0  0  0  0  0  0  0  0  0  0
    5.2960    3.3360    0.0000 H   0  0  0  0  0  0  0  0  0  0  0  0
    2.8660    3.6651    0.0000 H   0  0  0  0  0  0  0  0  0  0  0  0
  7  1  1  6  0  0  0
  1 30  1  0  0  0  0
  2  9  1  0  0  0  0
  2 35  1  0  0  0  0
  3 12  2  0  0  0  0
  4 20  1  0  0  0  0
  4 40  1  0  0  0  0
  5 20  2  0  0  0  0
  6  7  1  0  0  0  0
  6  8  1  0  0  0  0
  6  9  1  0  0  0  0
  6 11  1  1  0  0  0
  7 10  1  0  0  0  0
  7 13  1  0  0  0  0
  8 12  1  0  0  0  0
  8 21  1  0  0  0  0
  8 22  1  0  0  0  0
  9 23  1  0  0  0  0
  9 24  1  0  0  0  0
 10 14  2  0  0  0  0
 10 15  1  0  0  0  0
 11 25  1  0  0  0  0
 11 26  1  0  0  0  0
 11 27  1  0  0  0  0
 12 14  1  0  0  0  0
 13 16  2  0  0  0  0
 13 28  1  0  0  0  0
 14 29  1  0  0  0  0
 15 31  1  0  0  0  0
 15 32  1  0  0  0  0
 15 33  1  0  0  0  0
 16 17  1  0  0  0  0
 16 34  1  0  0  0  0
 17 18  1  0  0  0  0
 17 19  2  0  0  0  0
 18 36  1  0  0  0  0
 18 37  1  0  0  0  0
 18 38  1  0  0  0  0
 19 20  1  0  0  0  0
 19 39  1  0  0  0  0
M  END
> <PUBCHEM_COMPOUND_CID>
11954194

> <PUBCHEM_COMPOUND_CANONICALIZED>
1

> <PUBCHEM_CACTVS_COMPLEXITY>
514

> <PUBCHEM_CACTVS_HBOND_ACCEPTOR>
5

> <PUBCHEM_CACTVS_HBOND_DONOR>
3

> <PUBCHEM_CACTVS_ROTATABLE_BOND>
4

> <PUBCHEM_CACTVS_SUBSKEYS>
AAADceBwOAAAAAAAAAAAAAAAAAAAAAAAAAAgAAAAAAAAAAAAAAAAGgAACAAADkSggAICCAAAAgCIAqDSCAAAAAAgAAAICAEAAEgIFBIAAQAAUAAFgAAIkQOKiAAPgAAAAAAAAAAAAAAAAAAAAAAAAAAAAA==

> <PUBCHEM_IUPAC_OPENEYE_NAME>
(2Z,4E)-5-[(1R,6R)-1-hydroxy-6-(hydroxymethyl)-2,6-dimethyl-4-oxo-cyclohex-2-en-1-yl]-3-methyl-penta-2,4-dienoic acid

> <PUBCHEM_IUPAC_CAS_NAME>
(2Z,4E)-5-[(1R,6R)-1-hydroxy-6-(hydroxymethyl)-2,6-dimethyl-4-oxo-1-cyclohex-2-enyl]-3-methylpenta-2,4-dienoic acid

> <PUBCHEM_IUPAC_NAME>
(2Z,4E)-5-[(1R,6R)-1-hydroxy-6-(hydroxymethyl)-2,6-dimethyl-4-oxocyclohex-2-en-1-yl]-3-methylpenta-2,4-dienoic acid

> <PUBCHEM_IUPAC_SYSTEMATIC_NAME>
(2Z,4E)-5-[(1R,6R)-6-(hydroxymethyl)-2,6-dimethyl-1-oxidanyl-4-oxidanylidene-cyclohex-2-en-1-yl]-3-methyl-penta-2,4-dienoic acid

> <PUBCHEM_IUPAC_TRADITIONAL_NAME>
(2Z,4E)-5-[(1R,6R)-1-hydroxy-4-keto-2,6-dimethyl-6-methylol-cyclohex-2-en-1-yl]-3-methyl-penta-2,4-dienoic acid

> <PUBCHEM_IUPAC_INCHI>
InChI=1S/C15H20O5/c1-10(6-13(18)19)4-5-15(20)11(2)7-12(17)8-14(15,3)9-16/h4-7,16,20H,8-9H2,1-3H3,(H,18,19)/b5-4+,10-6-/t14-,15-/m1/s1

> <PUBCHEM_IUPAC_INCHIKEY>
AVFORCKFTWHFAR-ZSIFGTMLSA-N

> <PUBCHEM_XLOGP3_AA>
0.9

> <PUBCHEM_EXACT_MASS>
280.131074

> <PUBCHEM_MOLECULAR_FORMULA>
C15H20O5

> <PUBCHEM_MOLECULAR_WEIGHT>
280.3163

> <PUBCHEM_OPENEYE_CAN_SMILES>
CC1=CC(=O)CC(C1(C=CC(=CC(=O)O)C)O)(C)CO

> <PUBCHEM_OPENEYE_ISO_SMILES>
CC1=CC(=O)C[C@]([C@]1(/C=C/C(=C\C(=O)O)/C)O)(C)CO

> <PUBCHEM_CACTVS_TPSA>
94.8

> <PUBCHEM_MONOISOTOPIC_WEIGHT>
280.131074

> <PUBCHEM_TOTAL_CHARGE>
0

> <PUBCHEM_HEAVY_ATOM_COUNT>
20

> <PUBCHEM_ATOM_DEF_STEREO_COUNT>
2

> <PUBCHEM_ATOM_UDEF_STEREO_COUNT>
0

> <PUBCHEM_BOND_DEF_STEREO_COUNT>
2

> <PUBCHEM_BOND_UDEF_STEREO_COUNT>
0

> <PUBCHEM_ISOTOPIC_ATOM_COUNT>
0

> <PUBCHEM_COMPONENT_COUNT>
1

> <PUBCHEM_CACTVS_TAUTO_COUNT>
5

> <PUBCHEM_COORDINATE_TYPE>
1
5
255

> <PUBCHEM_BONDANNOTATIONS>
7  1  6
6  11  5

$$$$

