443459
  -OEChem-07051213022D

 45 49  0     1  0  0  0  0  0999 V2000
    4.9624    0.3935    0.0000 O   0  0  0  0  0  0  0  0  0  0  0  0
    6.0392    1.6219    0.0000 O   0  0  0  0  0  0  0  0  0  0  0  0
    2.5405    0.9501    0.0000 O   0  0  0  0  0  0  0  0  0  0  0  0
    4.3132    1.4764    0.0000 O   0  0  0  0  0  0  0  0  0  0  0  0
    6.0304   -0.4947    0.0000 C   0  0  1  0  0  0  0  0  0  0  0  0
    5.7285   -1.3619    0.0000 C   0  0  2  0  0  0  0  0  0  0  0  0
    4.8165   -1.3404    0.0000 C   0  0  2  0  0  0  0  0  0  0  0  0
    4.5534   -0.4664    0.0000 C   0  0  2  0  0  0  0  0  0  0  0  0
    5.3022    0.0545    0.0000 C   0  0  2  0  0  0  0  0  0  0  0  0
    6.7264   -1.3272    0.0000 C   0  0  0  0  0  0  0  0  0  0  0  0
    3.6362   -0.2503    0.0000 C   0  0  3  0  0  0  0  0  0  0  0  0
    6.8973   -0.1901    0.0000 C   0  0  0  0  0  0  0  0  0  0  0  0
    7.7793   -1.5897    0.0000 C   0  0  1  0  0  0  0  0  0  0  0  0
    6.2188   -2.1385    0.0000 C   0  0  0  0  0  0  0  0  0  0  0  0
    4.1787   -2.0549    0.0000 C   0  0  0  0  0  0  0  0  0  0  0  0
    7.1311   -2.2397    0.0000 C   0  0  0  0  0  0  0  0  0  0  0  0
    7.6749   -0.6771    0.0000 C   0  0  0  0  0  0  0  0  0  0  0  0
    3.3713    0.3935    0.0000 C   0  0  0  0  0  0  0  0  0  0  0  0
    2.9910   -0.9365    0.0000 C   0  0  0  0  0  0  0  0  0  0  0  0
    5.2182    1.0509    0.0000 C   0  0  0  0  0  0  0  0  0  0  0  0
    3.2625   -1.8392    0.0000 C   0  0  0  0  0  0  0  0  0  0  0  0
    2.6527   -0.0692    0.0000 C   0  0  0  0  0  0  0  0  0  0  0  0
    8.4785   -0.0820    0.0000 C   0  0  0  0  0  0  0  0  0  0  0  0
    5.3093   -2.1014    0.0000 H   0  0  0  0  0  0  0  0  0  0  0  0
    4.1184    0.2639    0.0000 H   0  0  0  0  0  0  0  0  0  0  0  0
    5.8450    0.3541    0.0000 H   0  0  0  0  0  0  0  0  0  0  0  0
    6.7693   -1.9457    0.0000 H   0  0  0  0  0  0  0  0  0  0  0  0
    6.1513   -1.5587    0.0000 H   0  0  0  0  0  0  0  0  0  0  0  0
    6.5667    0.3344    0.0000 H   0  0  0  0  0  0  0  0  0  0  0  0
    7.3351    0.2489    0.0000 H   0  0  0  0  0  0  0  0  0  0  0  0
    8.5820   -1.8692    0.0000 H   0  0  0  0  0  0  0  0  0  0  0  0
    6.2893   -2.7544    0.0000 H   0  0  0  0  0  0  0  0  0  0  0  0
    5.6339   -2.3444    0.0000 H   0  0  0  0  0  0  0  0  0  0  0  0
    4.7030   -2.3858    0.0000 H   0  0  0  0  0  0  0  0  0  0  0  0
    3.9389   -2.6267    0.0000 H   0  0  0  0  0  0  0  0  0  0  0  0
    7.6565   -2.5688    0.0000 H   0  0  0  0  0  0  0  0  0  0  0  0
    6.9272   -2.8253    0.0000 H   0  0  0  0  0  0  0  0  0  0  0  0
    2.3875   -0.7944    0.0000 H   0  0  0  0  0  0  0  0  0  0  0  0
    2.8376   -2.2907    0.0000 H   0  0  0  0  0  0  0  0  0  0  0  0
    2.5404   -0.6789    0.0000 H   0  0  0  0  0  0  0  0  0  0  0  0
    2.0430    0.0432    0.0000 H   0  0  0  0  0  0  0  0  0  0  0  0
    2.7650    0.5406    0.0000 H   0  0  0  0  0  0  0  0  0  0  0  0
    8.4081    0.5340    0.0000 H   0  0  0  0  0  0  0  0  0  0  0  0
    9.0472   -0.3290    0.0000 H   0  0  0  0  0  0  0  0  0  0  0  0
    5.9871    2.2397    0.0000 H   0  0  0  0  0  0  0  0  0  0  0  0
  7  1  1  1  0  0  0
  1 18  1  0  0  0  0
  2 20  1  0  0  0  0
  2 45  1  0  0  0  0
  3 18  2  0  0  0  0
  4 20  2  0  0  0  0
  5  6  1  0  0  0  0
  5  9  1  0  0  0  0
  5 10  1  1  0  0  0
  5 12  1  0  0  0  0
  6  7  1  0  0  0  0
  6 14  1  0  0  0  0
  6 24  1  6  0  0  0
  7  8  1  0  0  0  0
  7 15  1  0  0  0  0
  8  9  1  0  0  0  0
  8 11  1  0  0  0  0
  8 25  1  6  0  0  0
  9 20  1  6  0  0  0
  9 26  1  0  0  0  0
 10 13  1  0  0  0  0
 10 27  1  0  0  0  0
 10 28  1  0  0  0  0
 11 18  1  0  0  0  0
 11 19  1  0  0  0  0
 11 22  1  0  0  0  0
 12 17  1  0  0  0  0
 12 29  1  0  0  0  0
 12 30  1  0  0  0  0
 13 16  1  0  0  0  0
 13 17  1  0  0  0  0
 13 31  1  1  0  0  0
 14 16  1  0  0  0  0
 14 32  1  0  0  0  0
 14 33  1  0  0  0  0
 15 21  1  0  0  0  0
 15 34  1  0  0  0  0
 15 35  1  0  0  0  0
 16 36  1  0  0  0  0
 16 37  1  0  0  0  0
 17 23  2  0  0  0  0
 19 21  2  0  0  0  0
 19 38  1  0  0  0  0
 21 39  1  0  0  0  0
 22 40  1  0  0  0  0
 22 41  1  0  0  0  0
 22 42  1  0  0  0  0
 23 43  1  0  0  0  0
 23 44  1  0  0  0  0
M  END
> <PUBCHEM_COMPOUND_CID>
443459

> <PUBCHEM_COMPOUND_CANONICALIZED>
1

> <PUBCHEM_CACTVS_COMPLEXITY>
694

> <PUBCHEM_CACTVS_HBOND_ACCEPTOR>
4

> <PUBCHEM_CACTVS_HBOND_DONOR>
1

> <PUBCHEM_CACTVS_ROTATABLE_BOND>
1

> <PUBCHEM_CACTVS_SUBSKEYS>
AAADceB4OAAAAAAAAAAAAAAAAAAAAaMEAAAwQAAABggSAGDAAAAAGgAACAAAD0SAgAACCAAABgCIAiDSCAAAAAAgAAAICAEAAAgAABIAAQACQAAEwAAIAAPK7vzPgAAAAAAAAACAAAQAACAAAYAADAAAAA==

> <PUBCHEM_IUPAC_INCHI>
InChI=1S/C19H22O4/c1-10-8-18-9-11(10)4-5-12(18)19-7-3-6-17(2,16(22)23-19)14(19)13(18)15(20)21/h3,6,11-14H,1,4-5,7-9H2,2H3,(H,20,21)/t11-,12-,13-,14-,17?,18+,19-/m1/s1

> <PUBCHEM_IUPAC_INCHIKEY>
NJHXRWOUQCGQAV-MMZROTCTSA-N

> <PUBCHEM_XLOGP3_AA>
2.7

> <PUBCHEM_EXACT_MASS>
314.151809

> <PUBCHEM_MOLECULAR_FORMULA>
C19H22O4

> <PUBCHEM_MOLECULAR_WEIGHT>
314.37558

> <PUBCHEM_OPENEYE_CAN_SMILES>
CC12C=CCC3(C1C(C45C3CCC(C4)C(=C)C5)C(=O)O)OC2=O

> <PUBCHEM_OPENEYE_ISO_SMILES>
CC12C=CC[C@@]3([C@@H]1[C@@H]([C@]45[C@H]3CC[C@H](C4)C(=C)C5)C(=O)O)OC2=O

> <PUBCHEM_CACTVS_TPSA>
63.6

> <PUBCHEM_MONOISOTOPIC_WEIGHT>
314.151809

> <PUBCHEM_TOTAL_CHARGE>
0

> <PUBCHEM_HEAVY_ATOM_COUNT>
23

> <PUBCHEM_ATOM_DEF_STEREO_COUNT>
6

> <PUBCHEM_ATOM_UDEF_STEREO_COUNT>
1

> <PUBCHEM_BOND_DEF_STEREO_COUNT>
0

> <PUBCHEM_BOND_UDEF_STEREO_COUNT>
0

> <PUBCHEM_ISOTOPIC_ATOM_COUNT>
0

> <PUBCHEM_COMPONENT_COUNT>
1

> <PUBCHEM_CACTVS_TAUTO_COUNT>
1

> <PUBCHEM_COORDINATE_TYPE>
1
5
255

> <PUBCHEM_BONDANNOTATIONS>
7  1  5
11  22  3
13  31  5
5  10  5
6  24  6
8  25  6
9  20  6

$$$$

