248592
  -OEChem-07051213062D

 57 61  0     1  0  0  0  0  0999 V2000
    2.5357   -2.9399    0.0000 O   0  0  0  0  0  0  0  0  0  0  0  0
    8.5993    2.1777    0.0000 N   0  0  0  0  0  0  0  0  0  0  0  0
    9.1885    2.9857    0.0000 N   0  0  0  0  0  0  0  0  0  0  0  0
    7.9288    0.1124    0.0000 C   0  0  1  0  0  0  0  0  0  0  0  0
    7.9288   -0.8876    0.0000 C   0  0  2  0  0  0  0  0  0  0  0  0
    7.0628   -1.3876    0.0000 C   0  0  1  0  0  0  0  0  0  0  0  0
    6.1968   -0.8876    0.0000 C   0  0  1  0  0  0  0  0  0  0  0  0
    5.2868   -1.3944    0.0000 C   0  0  2  0  0  0  0  0  0  0  0  0
    8.8750    0.4172    0.0000 C   0  0  2  0  0  0  0  0  0  0  0  0
    7.0628    0.6124    0.0000 C   0  0  0  0  0  0  0  0  0  0  0  0
    6.1968    0.1124    0.0000 C   0  0  0  0  0  0  0  0  0  0  0  0
    8.8750   -1.1923    0.0000 C   0  0  0  0  0  0  0  0  0  0  0  0
    9.4586   -0.3876    0.0000 C   0  0  0  0  0  0  0  0  0  0  0  0
    7.0789   -2.4291    0.0000 C   0  0  0  0  0  0  0  0  0  0  0  0
    5.2787   -2.4360    0.0000 C   0  0  0  0  0  0  0  0  0  0  0  0
    7.9288    1.1124    0.0000 C   0  0  0  0  0  0  0  0  0  0  0  0
    4.3599   -0.8303    0.0000 C   0  0  0  0  0  0  0  0  0  0  0  0
    6.1808   -2.9568    0.0000 C   0  0  0  0  0  0  0  0  0  0  0  0
    5.2945   -0.3944    0.0000 C   0  0  0  0  0  0  0  0  0  0  0  0
    9.1857    1.3677    0.0000 C   0  0  0  0  0  0  0  0  0  0  0  0
    4.3433   -2.9857    0.0000 C   0  0  0  0  0  0  0  0  0  0  0  0
    3.4120   -1.3583    0.0000 C   0  0  0  0  0  0  0  0  0  0  0  0
    3.4037   -2.4432    0.0000 C   0  0  2  0  0  0  0  0  0  0  0  0
   10.1373    1.6751    0.0000 C   0  0  0  0  0  0  0  0  0  0  0  0
   10.1390    2.6751    0.0000 C   0  0  0  0  0  0  0  0  0  0  0  0
    8.0188   -1.7328    0.0000 H   0  0  0  0  0  0  0  0  0  0  0  0
    7.8022   -1.8069    0.0000 H   0  0  0  0  0  0  0  0  0  0  0  0
    6.9329   -0.4626    0.0000 H   0  0  0  0  0  0  0  0  0  0  0  0
    9.4875    0.5134    0.0000 H   0  0  0  0  0  0  0  0  0  0  0  0
    7.4613    1.0874    0.0000 H   0  0  0  0  0  0  0  0  0  0  0  0
    6.6643    1.0874    0.0000 H   0  0  0  0  0  0  0  0  0  0  0  0
    5.9847    0.6951    0.0000 H   0  0  0  0  0  0  0  0  0  0  0  0
    5.5862    0.0048    0.0000 H   0  0  0  0  0  0  0  0  0  0  0  0
    8.6240   -1.7592    0.0000 H   0  0  0  0  0  0  0  0  0  0  0  0
    9.4124   -1.5015    0.0000 H   0  0  0  0  0  0  0  0  0  0  0  0
    9.9195   -0.8023    0.0000 H   0  0  0  0  0  0  0  0  0  0  0  0
    9.9195    0.0272    0.0000 H   0  0  0  0  0  0  0  0  0  0  0  0
    7.2969   -3.0095    0.0000 H   0  0  0  0  0  0  0  0  0  0  0  0
    7.6880   -2.3136    0.0000 H   0  0  0  0  0  0  0  0  0  0  0  0
    8.5488    1.1124    0.0000 H   0  0  0  0  0  0  0  0  0  0  0  0
    7.9288    1.7324    0.0000 H   0  0  0  0  0  0  0  0  0  0  0  0
    7.3088    1.1124    0.0000 H   0  0  0  0  0  0  0  0  0  0  0  0
    4.7681   -0.3637    0.0000 H   0  0  0  0  0  0  0  0  0  0  0  0
    3.9700   -0.3483    0.0000 H   0  0  0  0  0  0  0  0  0  0  0  0
    6.1832   -3.5768    0.0000 H   0  0  0  0  0  0  0  0  0  0  0  0
    5.9145   -0.3992    0.0000 H   0  0  0  0  0  0  0  0  0  0  0  0
    5.2993    0.2255    0.0000 H   0  0  0  0  0  0  0  0  0  0  0  0
    4.6745   -0.3897    0.0000 H   0  0  0  0  0  0  0  0  0  0  0  0
    3.9460   -3.4617    0.0000 H   0  0  0  0  0  0  0  0  0  0  0  0
    4.7443   -3.4586    0.0000 H   0  0  0  0  0  0  0  0  0  0  0  0
    3.2075   -0.7730    0.0000 H   0  0  0  0  0  0  0  0  0  0  0  0
    2.8004   -1.4596    0.0000 H   0  0  0  0  0  0  0  0  0  0  0  0
    2.8686   -2.1301    0.0000 H   0  0  0  0  0  0  0  0  0  0  0  0
   10.6383    1.3098    0.0000 H   0  0  0  0  0  0  0  0  0  0  0  0
    7.9793    2.1788    0.0000 H   0  0  0  0  0  0  0  0  0  0  0  0
    2.0000   -2.6278    0.0000 H   0  0  0  0  0  0  0  0  0  0  0  0
   10.6412    3.0386    0.0000 H   0  0  0  0  0  0  0  0  0  0  0  0
 23  1  1  1  0  0  0
  1 56  1  0  0  0  0
  2  3  1  0  0  0  0
  2 20  1  0  0  0  0
  2 55  1  0  0  0  0
  3 25  2  0  0  0  0
  4  5  1  0  0  0  0
  4  9  1  0  0  0  0
  4 10  1  0  0  0  0
  4 16  1  1  0  0  0
  5  6  1  0  0  0  0
  5 12  1  0  0  0  0
  5 26  1  6  0  0  0
  6  7  1  0  0  0  0
  6 14  1  0  0  0  0
  6 27  1  1  0  0  0
  7  8  1  0  0  0  0
  7 11  1  0  0  0  0
  7 28  1  6  0  0  0
  8 15  1  0  0  0  0
  8 17  1  0  0  0  0
  8 19  1  1  0  0  0
  9 13  1  0  0  0  0
  9 20  1  1  0  0  0
  9 29  1  0  0  0  0
 10 11  1  0  0  0  0
 10 30  1  0  0  0  0
 10 31  1  0  0  0  0
 11 32  1  0  0  0  0
 11 33  1  0  0  0  0
 12 13  1  0  0  0  0
 12 34  1  0  0  0  0
 12 35  1  0  0  0  0
 13 36  1  0  0  0  0
 13 37  1  0  0  0  0
 14 18  1  0  0  0  0
 14 38  1  0  0  0  0
 14 39  1  0  0  0  0
 15 18  2  0  0  0  0
 15 21  1  0  0  0  0
 16 40  1  0  0  0  0
 16 41  1  0  0  0  0
 16 42  1  0  0  0  0
 17 22  1  0  0  0  0
 17 43  1  0  0  0  0
 17 44  1  0  0  0  0
 18 45  1  0  0  0  0
 19 46  1  0  0  0  0
 19 47  1  0  0  0  0
 19 48  1  0  0  0  0
 20 24  2  0  0  0  0
 21 23  1  0  0  0  0
 21 49  1  0  0  0  0
 21 50  1  0  0  0  0
 22 23  1  0  0  0  0
 22 51  1  0  0  0  0
 22 52  1  0  0  0  0
 23 53  1  0  0  0  0
 24 25  1  0  0  0  0
 24 54  1  0  0  0  0
 25 57  1  0  0  0  0
M  END
> <PUBCHEM_COMPOUND_CID>
248592

> <PUBCHEM_COMPOUND_CANONICALIZED>
1

> <PUBCHEM_CACTVS_COMPLEXITY>
574

> <PUBCHEM_CACTVS_HBOND_ACCEPTOR>
2

> <PUBCHEM_CACTVS_HBOND_DONOR>
2

> <PUBCHEM_CACTVS_ROTATABLE_BOND>
1

> <PUBCHEM_CACTVS_SUBSKEYS>
AAADcfB7IAAAAAAAAAAAAAAAAAAAAeIAAAAwYIAAAAAAAGCBgAAAHgAYCAAADxzhlgY+gJBjAgCiAzRnQACQBAAgggAYOSAwZBgAMIIA0cCAxABk2AAISAOQwPAPgAAAAAAAAADAAAQAACAAAQAACAAAAA==

> <PUBCHEM_IUPAC_OPENEYE_NAME>
(3S,8S,9S,10R,13S,14S,17S)-10,13-dimethyl-17-(1H-pyrazol-5-yl)-2,3,4,7,8,9,11,12,14,15,16,17-dodecahydro-1H-cyclopenta[a]phenanthren-3-ol

> <PUBCHEM_IUPAC_CAS_NAME>
(3S,8S,9S,10R,13S,14S,17S)-10,13-dimethyl-17-(1H-pyrazol-5-yl)-2,3,4,7,8,9,11,12,14,15,16,17-dodecahydro-1H-cyclopenta[a]phenanthren-3-ol

> <PUBCHEM_IUPAC_NAME>
(3S,8S,9S,10R,13S,14S,17S)-10,13-dimethyl-17-(1H-pyrazol-5-yl)-2,3,4,7,8,9,11,12,14,15,16,17-dodecahydro-1H-cyclopenta[a]phenanthren-3-ol

> <PUBCHEM_IUPAC_SYSTEMATIC_NAME>
(3S,8S,9S,10R,13S,14S,17S)-10,13-dimethyl-17-(1H-pyrazol-5-yl)-2,3,4,7,8,9,11,12,14,15,16,17-dodecahydro-1H-cyclopenta[a]phenanthren-3-ol

> <PUBCHEM_IUPAC_TRADITIONAL_NAME>
(3S,8S,9S,10R,13S,14S,17S)-10,13-dimethyl-17-(1H-pyrazol-5-yl)-2,3,4,7,8,9,11,12,14,15,16,17-dodecahydro-1H-cyclopenta[a]phenanthren-3-ol

> <PUBCHEM_IUPAC_INCHI>
InChI=1S/C22H32N2O/c1-21-10-7-15(25)13-14(21)3-4-16-17-5-6-19(20-9-12-23-24-20)22(17,2)11-8-18(16)21/h3,9,12,15-19,25H,4-8,10-11,13H2,1-2H3,(H,23,24)/t15-,16-,17-,18-,19+,21-,22-/m0/s1

> <PUBCHEM_IUPAC_INCHIKEY>
XUSSDKMAUSOQSK-SPHVDITISA-N

> <PUBCHEM_XLOGP3>
4.6

> <PUBCHEM_EXACT_MASS>
340.251464

> <PUBCHEM_MOLECULAR_FORMULA>
C22H32N2O

> <PUBCHEM_MOLECULAR_WEIGHT>
340.50228

> <PUBCHEM_OPENEYE_CAN_SMILES>
CC12CCC3C(C1CCC2C4=CC=NN4)CC=C5C3(CCC(C5)O)C

> <PUBCHEM_OPENEYE_ISO_SMILES>
C[C@]12CC[C@H]3[C@H]([C@@H]1CC[C@@H]2C4=CC=NN4)CC=C5[C@@]3(CC[C@@H](C5)O)C

> <PUBCHEM_CACTVS_TPSA>
48.9

> <PUBCHEM_MONOISOTOPIC_WEIGHT>
340.251464

> <PUBCHEM_TOTAL_CHARGE>
0

> <PUBCHEM_HEAVY_ATOM_COUNT>
25

> <PUBCHEM_ATOM_DEF_STEREO_COUNT>
7

> <PUBCHEM_ATOM_UDEF_STEREO_COUNT>
0

> <PUBCHEM_BOND_DEF_STEREO_COUNT>
0

> <PUBCHEM_BOND_UDEF_STEREO_COUNT>
0

> <PUBCHEM_ISOTOPIC_ATOM_COUNT>
0

> <PUBCHEM_COMPONENT_COUNT>
1

> <PUBCHEM_CACTVS_TAUTO_COUNT>
2

> <PUBCHEM_COORDINATE_TYPE>
1
5
255

> <PUBCHEM_BONDANNOTATIONS>
23  1  5
2  20  8
2  3  8
20  24  8
24  25  8
3  25  8
4  16  5
5  26  6
6  27  5
7  28  6
8  19  5
9  20  5

$$$$

