443747
  -OEChem-07051213033D

 50 51  0     1  0  0  0  0  0999 V2000
    4.2537   -3.7224    0.4979 O   0  0  0  0  0  0  0  0  0  0  0  0
   -3.3686    1.0034    0.8921 O   0  0  0  0  0  0  0  0  0  0  0  0
   -4.5635   -0.9985   -0.6217 O   0  0  0  0  0  0  0  0  0  0  0  0
   -0.0115    3.3121    0.1608 O   0  0  0  0  0  0  0  0  0  0  0  0
    1.7069    4.7899   -0.1334 O   0  0  0  0  0  0  0  0  0  0  0  0
    1.9736    2.5742   -0.7926 N   0  0  0  0  0  0  0  0  0  0  0  0
    1.0637   -1.0129    0.1967 C   0  0  2  0  0  0  0  0  0  0  0  0
    1.3511   -1.8175    1.4941 C   0  0  0  0  0  0  0  0  0  0  0  0
    1.6604    0.4088    0.3299 C   0  0  0  0  0  0  0  0  0  0  0  0
   -0.4639   -1.0061   -0.0231 C   0  0  0  0  0  0  0  0  0  0  0  0
    1.7807   -1.6507   -0.9864 C   0  0  0  0  0  0  0  0  0  0  0  0
    2.8199   -2.1902    1.6568 C   0  0  0  0  0  0  0  0  0  0  0  0
    1.4005    1.2612   -0.9006 C   0  0  0  0  0  0  0  0  0  0  0  0
    2.7879   -2.5273   -0.8938 C   0  0  0  0  0  0  0  0  0  0  0  0
    3.3426   -2.8994    0.4290 C   0  0  0  0  0  0  0  0  0  0  0  0
   -1.2360    0.0046    0.5388 C   0  0  0  0  0  0  0  0  0  0  0  0
   -1.0546   -2.0106   -0.7814 C   0  0  0  0  0  0  0  0  0  0  0  0
   -2.6166    0.0110    0.3396 C   0  0  0  0  0  0  0  0  0  0  0  0
   -2.4353   -2.0045   -0.9803 C   0  0  0  0  0  0  0  0  0  0  0  0
   -3.2163   -0.9936   -0.4199 C   0  0  0  0  0  0  0  0  0  0  0  0
    3.3480    2.7366   -1.2827 C   0  0  0  0  0  0  0  0  0  0  0  0
    1.2526    3.6524   -0.2434 C   0  0  0  0  0  0  0  0  0  0  0  0
   -3.8807    0.7750    2.2034 C   0  0  0  0  0  0  0  0  0  0  0  0
   -5.0970   -2.0607   -1.4100 C   0  0  0  0  0  0  0  0  0  0  0  0
   -0.7977    4.3654    0.7303 C   0  0  0  0  0  0  0  0  0  0  0  0
    0.7663   -2.7492    1.4886 H   0  0  0  0  0  0  0  0  0  0  0  0
    1.0160   -1.2577    2.3770 H   0  0  0  0  0  0  0  0  0  0  0  0
    2.7473    0.3490    0.4774 H   0  0  0  0  0  0  0  0  0  0  0  0
    1.2936    0.9174    1.2300 H   0  0  0  0  0  0  0  0  0  0  0  0
    1.4448   -1.3947   -1.9902 H   0  0  0  0  0  0  0  0  0  0  0  0
    2.9206   -2.8667    2.5132 H   0  0  0  0  0  0  0  0  0  0  0  0
    3.4447   -1.3125    1.8473 H   0  0  0  0  0  0  0  0  0  0  0  0
    1.8246    0.8090   -1.8034 H   0  0  0  0  0  0  0  0  0  0  0  0
    0.3318    1.3673   -1.1038 H   0  0  0  0  0  0  0  0  0  0  0  0
    3.2416   -2.9615   -1.7772 H   0  0  0  0  0  0  0  0  0  0  0  0
   -0.8082    0.7833    1.1603 H   0  0  0  0  0  0  0  0  0  0  0  0
   -0.4831   -2.8273   -1.2120 H   0  0  0  0  0  0  0  0  0  0  0  0
   -2.8329   -2.8189   -1.5760 H   0  0  0  0  0  0  0  0  0  0  0  0
    4.0025    2.0440   -0.7468 H   0  0  0  0  0  0  0  0  0  0  0  0
    3.3680    2.5145   -2.3534 H   0  0  0  0  0  0  0  0  0  0  0  0
    3.7006    3.7587   -1.1237 H   0  0  0  0  0  0  0  0  0  0  0  0
   -4.4631    1.6513    2.5011 H   0  0  0  0  0  0  0  0  0  0  0  0
   -3.0614    0.6406    2.9167 H   0  0  0  0  0  0  0  0  0  0  0  0
   -4.5364   -0.1014    2.2142 H   0  0  0  0  0  0  0  0  0  0  0  0
   -6.1795   -1.9063   -1.4681 H   0  0  0  0  0  0  0  0  0  0  0  0
   -4.7164   -2.0321   -2.4367 H   0  0  0  0  0  0  0  0  0  0  0  0
   -4.9401   -3.0345   -0.9339 H   0  0  0  0  0  0  0  0  0  0  0  0
   -0.9515    5.1618   -0.0038 H   0  0  0  0  0  0  0  0  0  0  0  0
   -1.7703    3.9498    1.0069 H   0  0  0  0  0  0  0  0  0  0  0  0
   -0.3132    4.7546    1.6307 H   0  0  0  0  0  0  0  0  0  0  0  0
  1 15  2  0  0  0  0
  2 18  1  0  0  0  0
  2 23  1  0  0  0  0
  3 20  1  0  0  0  0
  3 24  1  0  0  0  0
  4 22  1  0  0  0  0
  4 25  1  0  0  0  0
  5 22  2  0  0  0  0
  6 13  1  0  0  0  0
  6 21  1  0  0  0  0
  6 22  1  0  0  0  0
  7  8  1  0  0  0  0
  7  9  1  0  0  0  0
  7 10  1  0  0  0  0
  7 11  1  0  0  0  0
  8 12  1  0  0  0  0
  8 26  1  0  0  0  0
  8 27  1  0  0  0  0
  9 13  1  0  0  0  0
  9 28  1  0  0  0  0
  9 29  1  0  0  0  0
 10 16  2  0  0  0  0
 10 17  1  0  0  0  0
 11 14  2  0  0  0  0
 11 30  1  0  0  0  0
 12 15  1  0  0  0  0
 12 31  1  0  0  0  0
 12 32  1  0  0  0  0
 13 33  1  0  0  0  0
 13 34  1  0  0  0  0
 14 15  1  0  0  0  0
 14 35  1  0  0  0  0
 16 18  1  0  0  0  0
 16 36  1  0  0  0  0
 17 19  2  0  0  0  0
 17 37  1  0  0  0  0
 18 20  2  0  0  0  0
 19 20  1  0  0  0  0
 19 38  1  0  0  0  0
 21 39  1  0  0  0  0
 21 40  1  0  0  0  0
 21 41  1  0  0  0  0
 23 42  1  0  0  0  0
 23 43  1  0  0  0  0
 23 44  1  0  0  0  0
 24 45  1  0  0  0  0
 24 46  1  0  0  0  0
 24 47  1  0  0  0  0
 25 48  1  0  0  0  0
 25 49  1  0  0  0  0
 25 50  1  0  0  0  0
M  END
> <PUBCHEM_COMPOUND_CID>
443747

> <PUBCHEM_CONFORMER_RMSD>
1

> <PUBCHEM_CONFORMER_DIVERSEORDER>
1
49
27
24
56
15
47
28
55
36
50
37
59
58
40
12
48
43
18
51
41
45
46
33
21
54
22
57
23
11
4
19
30
53
31
9
17
44
34
39
10
35
7
14
38
25
29
42
20
52
8
26
2
6
13
32
16
3
5

> <PUBCHEM_MMFF94_PARTIAL_CHARGES>
28
1 -0.57
10 -0.14
11 -0.29
12 0.06
13 0.3
14 -0.14
15 0.49
16 -0.15
17 -0.15
18 0.08
19 -0.15
2 -0.36
20 0.08
21 0.3
22 0.78
23 0.28
24 0.28
25 0.28
3 -0.36
30 0.15
35 0.15
36 0.15
37 0.15
38 0.15
4 -0.43
5 -0.57
6 -0.66
7 0.28

> <PUBCHEM_EFFECTIVE_ROTOR_COUNT>
8.6

> <PUBCHEM_PHARMACOPHORE_FEATURES>
6
1 1 acceptor
1 2 acceptor
1 3 acceptor
1 5 acceptor
6 10 16 17 18 19 20 rings
6 7 8 11 12 14 15 rings

> <PUBCHEM_HEAVY_ATOM_COUNT>
25

> <PUBCHEM_ATOM_DEF_STEREO_COUNT>
1

> <PUBCHEM_ATOM_UDEF_STEREO_COUNT>
0

> <PUBCHEM_BOND_DEF_STEREO_COUNT>
0

> <PUBCHEM_BOND_UDEF_STEREO_COUNT>
0

> <PUBCHEM_ISOTOPIC_ATOM_COUNT>
0

> <PUBCHEM_COMPONENT_COUNT>
1

> <PUBCHEM_CACTVS_TAUTO_COUNT>
2

> <PUBCHEM_CONFORMER_ID>
0006C56300000001

> <PUBCHEM_MMFF94_ENERGY>
84.8289

> <PUBCHEM_FEATURE_SELFOVERLAP>
30.45

> <PUBCHEM_SHAPE_FINGERPRINT>
10074138 170 17407698658101165642
12160290 23 17193768896692695534
12553582 1 18268420420330602758
12788726 201 17909526691621004942
13009979 54 18040990786885034411
13140716 1 17980469384852274448
13583140 156 17915731171686127507
14117953 113 17902790001384772181
14955137 171 18124008364215428947
15420108 30 17467309703457244784
15842332 3 18187354412163134243
17980427 23 17895203237248885031
1813 80 18337391672719092478
19591789 44 17111844869576041435
20775438 99 14960282703326090309
21033648 29 17464831455412532745
21041028 32 18126548244643926880
21202864 24 17474388453652347512
21304303 172 18120383300053048463
21304303 282 16677852236871478342
21344244 78 18266202606851198115
21524375 3 17981041912534714940
22113638 7 18050288364890041709
2255824 54 18413109446207567838
23559900 14 18339657650320113479
25147074 1 18259977163820479555
2748010 2 16964901192221993103
312423 11 18335133177278070659
394222 165 17766866938627324891
4409770 3 17546737405101994902
474 4 18197501714311839764
6992083 37 18189610729981819027
7364860 26 18339929203663381598
7471813 234 18270399524439049998
81228 2 17766019559049511826
84936 182 18123192303206790293
90316 7 18194409024363407419
9925002 15 17981875656335025156
9981440 41 17691697687885322707

> <PUBCHEM_SHAPE_MULTIPOLES>
480.16
7.42
5.89
1.48
6.94
7.14
-0.46
-5.15
0.66
-5.91
0.1
0.52
-0.33
-2.98

> <PUBCHEM_SHAPE_SELFOVERLAP>
998.705

> <PUBCHEM_SHAPE_VOLUME>
273.1

> <PUBCHEM_COORDINATE_TYPE>
2
5
10

$$$$

