17395343
  -OEChem-06241222493D

 46 47  0     0  0  0  0  0  0999 V2000
   -4.1420   -0.1393   -2.0928 O   0  0  0  0  0  0  0  0  0  0  0  0
   -3.9870    0.9710    2.3724 O   0  0  0  0  0  0  0  0  0  0  0  0
    1.1453   -1.0064    0.2679 O   0  0  0  0  0  0  0  0  0  0  0  0
   -3.7246    0.6122    0.0773 N   0  0  0  0  0  0  0  0  0  0  0  0
   -5.5324   -0.2120    1.0873 N   0  0  0  0  0  0  0  0  0  0  0  0
    2.4549    0.8947   -0.1639 N   0  0  0  0  0  0  0  0  0  0  0  0
   -5.7069   -0.6242   -0.2884 C   0  0  0  0  0  0  0  0  0  0  0  0
   -4.4381   -0.0345   -0.9090 C   0  0  0  0  0  0  0  0  0  0  0  0
   -2.4647    1.2998   -0.1229 C   0  0  0  0  0  0  0  0  0  0  0  0
   -4.3598    0.5150    1.2992 C   0  0  0  0  0  0  0  0  0  0  0  0
   -5.7076   -2.1419   -0.4136 C   0  0  0  0  0  0  0  0  0  0  0  0
   -6.9477    0.0117   -0.9012 C   0  0  0  0  0  0  0  0  0  0  0  0
   -1.2613    0.3796    0.0522 C   0  0  0  0  0  0  0  0  0  0  0  0
    0.0682    1.1105   -0.1390 C   0  0  0  0  0  0  0  0  0  0  0  0
    1.2696    0.1879    0.0180 C   0  0  0  0  0  0  0  0  0  0  0  0
    3.7770    0.3939   -0.0983 C   0  0  0  0  0  0  0  0  0  0  0  0
    4.8583    1.2495   -0.3081 C   0  0  0  0  0  0  0  0  0  0  0  0
    3.9983   -0.9558    0.1753 C   0  0  0  0  0  0  0  0  0  0  0  0
    6.1612    0.7554   -0.2443 C   0  0  0  0  0  0  0  0  0  0  0  0
    5.3011   -1.4499    0.2391 C   0  0  0  0  0  0  0  0  0  0  0  0
    6.3826   -0.5943    0.0294 C   0  0  0  0  0  0  0  0  0  0  0  0
    7.3176    1.6703   -0.4684 C   0  0  0  0  0  0  0  0  0  0  0  0
    5.5379   -2.8932    0.5317 C   0  0  0  0  0  0  0  0  0  0  0  0
   -6.1924   -0.4285    1.8278 H   0  0  0  0  0  0  0  0  0  0  0  0
   -2.4038    2.1275    0.5929 H   0  0  0  0  0  0  0  0  0  0  0  0
   -2.4608    1.7208   -1.1348 H   0  0  0  0  0  0  0  0  0  0  0  0
   -6.5471   -2.5820    0.1359 H   0  0  0  0  0  0  0  0  0  0  0  0
   -5.7835   -2.4533   -1.4613 H   0  0  0  0  0  0  0  0  0  0  0  0
   -4.7855   -2.5764   -0.0097 H   0  0  0  0  0  0  0  0  0  0  0  0
   -7.8548   -0.3116   -0.3787 H   0  0  0  0  0  0  0  0  0  0  0  0
   -6.9062    1.1057   -0.8429 H   0  0  0  0  0  0  0  0  0  0  0  0
   -7.0487   -0.2552   -1.9590 H   0  0  0  0  0  0  0  0  0  0  0  0
   -1.3311   -0.4524   -0.6605 H   0  0  0  0  0  0  0  0  0  0  0  0
   -1.2896   -0.0753    1.0508 H   0  0  0  0  0  0  0  0  0  0  0  0
    0.1062    1.5563   -1.1401 H   0  0  0  0  0  0  0  0  0  0  0  0
    0.1565    1.9193    0.5961 H   0  0  0  0  0  0  0  0  0  0  0  0
    2.3808    1.8891   -0.3681 H   0  0  0  0  0  0  0  0  0  0  0  0
    4.6867    2.3018   -0.5234 H   0  0  0  0  0  0  0  0  0  0  0  0
    3.2055   -1.6699    0.3492 H   0  0  0  0  0  0  0  0  0  0  0  0
    7.3990   -0.9778    0.0787 H   0  0  0  0  0  0  0  0  0  0  0  0
    7.5815    1.6889   -1.5304 H   0  0  0  0  0  0  0  0  0  0  0  0
    7.0826    2.6908   -0.1472 H   0  0  0  0  0  0  0  0  0  0  0  0
    8.1933    1.3483    0.1054 H   0  0  0  0  0  0  0  0  0  0  0  0
    5.4028   -3.0871    1.6005 H   0  0  0  0  0  0  0  0  0  0  0  0
    4.8429   -3.5224   -0.0345 H   0  0  0  0  0  0  0  0  0  0  0  0
    6.5512   -3.2008    0.2518 H   0  0  0  0  0  0  0  0  0  0  0  0
  1  8  2  0  0  0  0
  2 10  2  0  0  0  0
  3 15  2  0  0  0  0
  4  8  1  0  0  0  0
  4  9  1  0  0  0  0
  4 10  1  0  0  0  0
  5  7  1  0  0  0  0
  5 10  1  0  0  0  0
  5 24  1  0  0  0  0
  6 15  1  0  0  0  0
  6 16  1  0  0  0  0
  6 37  1  0  0  0  0
  7  8  1  0  0  0  0
  7 11  1  0  0  0  0
  7 12  1  0  0  0  0
  9 13  1  0  0  0  0
  9 25  1  0  0  0  0
  9 26  1  0  0  0  0
 11 27  1  0  0  0  0
 11 28  1  0  0  0  0
 11 29  1  0  0  0  0
 12 30  1  0  0  0  0
 12 31  1  0  0  0  0
 12 32  1  0  0  0  0
 13 14  1  0  0  0  0
 13 33  1  0  0  0  0
 13 34  1  0  0  0  0
 14 15  1  0  0  0  0
 14 35  1  0  0  0  0
 14 36  1  0  0  0  0
 16 17  2  0  0  0  0
 16 18  1  0  0  0  0
 17 19  1  0  0  0  0
 17 38  1  0  0  0  0
 18 20  2  0  0  0  0
 18 39  1  0  0  0  0
 19 21  2  0  0  0  0
 19 22  1  0  0  0  0
 20 21  1  0  0  0  0
 20 23  1  0  0  0  0
 21 40  1  0  0  0  0
 22 41  1  0  0  0  0
 22 42  1  0  0  0  0
 22 43  1  0  0  0  0
 23 44  1  0  0  0  0
 23 45  1  0  0  0  0
 23 46  1  0  0  0  0
M  END
> <PUBCHEM_COMPOUND_CID>
17395343

> <PUBCHEM_CONFORMER_RMSD>
0.8

> <PUBCHEM_CONFORMER_DIVERSEORDER>
1
116
49
25
66
60
4
99
20
45
68
121
108
123
98
29
17
93
28
65
48
14
122
38
5
13
72
52
39
27
79
107
86
7
64
31
11
101
24
33
55
46
118
18
87
119
22
62
32
30
105
125
59
15
114
89
26
40
56
44
78
120
97
110
92
71
47
34
42
74
12
112
82
23
117
113
21
67
103
9
19
83
36
53
69
61
102
41
80
58
77
100
3
88
6
54
37
126
8
90
57
75
10
106
127
96
124
84
50
104
76
94
2
16
95
51
73
43
85
35
70
63
111
81
115
109
91

> <PUBCHEM_MMFF94_PARTIAL_CHARGES>
25
1 -0.57
10 0.69
14 0.06
15 0.57
16 0.12
17 -0.15
18 -0.15
19 -0.14
2 -0.57
20 -0.14
21 -0.15
22 0.14
23 0.14
24 0.37
3 -0.57
37 0.37
38 0.15
39 0.15
4 -0.42
40 0.15
5 -0.73
6 -0.55
7 0.36
8 0.57
9 0.3

> <PUBCHEM_EFFECTIVE_ROTOR_COUNT>
6.6

> <PUBCHEM_PHARMACOPHORE_FEATURES>
8
1 1 acceptor
1 2 acceptor
1 3 acceptor
1 5 donor
1 6 donor
3 7 11 12 hydrophobe
5 4 5 7 8 10 rings
6 16 17 18 19 20 21 rings

> <PUBCHEM_HEAVY_ATOM_COUNT>
23

> <PUBCHEM_ATOM_DEF_STEREO_COUNT>
0

> <PUBCHEM_ATOM_UDEF_STEREO_COUNT>
0

> <PUBCHEM_BOND_DEF_STEREO_COUNT>
0

> <PUBCHEM_BOND_UDEF_STEREO_COUNT>
0

> <PUBCHEM_ISOTOPIC_ATOM_COUNT>
0

> <PUBCHEM_COMPONENT_COUNT>
1

> <PUBCHEM_CACTVS_TAUTO_COUNT>
4

> <PUBCHEM_CONFORMER_ID>
01096E8F00000001

> <PUBCHEM_MMFF94_ENERGY>
50.4825

> <PUBCHEM_FEATURE_SELFOVERLAP>
40.594

> <PUBCHEM_SHAPE_FINGERPRINT>
10 15 14418146110001820122
10299344 5 18186237329280623366
10595046 47 18409728487097076504
10638233 991 18040714728126152896
10912923 1 18040996267421280144
11089746 13 12751518466419868580
11315181 36 18186517679751479505
11724838 91 18411982434784455684
12166972 35 18342174436261535877
12236239 1 18260546740280600153
12516196 113 18410575076300445872
12596602 18 17968093140203789832
13073987 5 18410575132572851216
13288520 33 18260548910030368877
13533116 47 18409449215707309002
1361 4 18409167697275361070
13668630 136 18273495676084137435
13782708 43 17703229654402566818
1420 363 17774999102640620752
14251764 18 18040715857322048236
14461889 52 18271247111008184466
14849402 71 17677052318191297568
14856354 85 16805604729347792213
15183329 4 18259984872859553534
15348495 7 5039653903190174830
15419008 47 16845577499971333893
15716309 27 18261110785540164261
1577012 14 18186795906878372248
15799311 1 18334563655650101286
17492 89 18121217847523945366
17780758 139 17821446851208096267
17844677 252 18343298206143960308
17857418 61 18408323297845292727
17870717 6 16271922727707220937
18335252 98 18272366430344991322
19377110 9 18040151851065102586
19489759 90 15123510311337447349
20028762 73 18336269041477820166
20157964 124 18272651243228416860
21150785 3 18131354077035985148
21623969 137 18272366486364201842
220451 1 18113336410214464534
22061861 79 17918275380640533670
2303208 19 17418084451563369122
23081809 10 18333729147925718576
23522609 53 18043503123879232720
23559900 14 16056596509154006269
34797466 226 16845566509276058060
3663271 9 18186235151974810928
4015057 19 18129936780646668217
4073 2 17988638550356992202
4325135 7 18409730651438593788
531348 171 18200321051626212621
7495541 125 17676212351167419840

> <PUBCHEM_SHAPE_MULTIPOLES>
440.78
22.47
1.88
1.17
2.67
1.26
-0.28
3.1
2.09
2.78
-0.08
-2.36
-0.17
-1.45

> <PUBCHEM_SHAPE_SELFOVERLAP>
918.282

> <PUBCHEM_SHAPE_VOLUME>
253.8

> <PUBCHEM_COORDINATE_TYPE>
2
5
10

$$$$

