11067
  -OEChem-06261205172D

 27 26  0     0  0  0  0  0  0999 V2000
    5.4641   -2.5000    0.0000 K   0  3  0  0  0  0  0  0  0  0  0  0
    9.8602   -1.0308    0.0000 K   0  3  0  0  0  0  0  0  0  0  0  0
    8.1282   -1.0241    0.0000 S   0  0  0  0  0  0  0  0  0  0  0  0
    4.5981   -2.0000    0.0000 O   0  5  0  0  0  0  0  0  0  0  0  0
    8.9923   -1.5275    0.0000 O   0  5  0  0  0  0  0  0  0  0  0  0
    8.6315   -0.1601    0.0000 O   0  0  0  0  0  0  0  0  0  0  0  0
    7.6249   -1.8882    0.0000 O   0  0  0  0  0  0  0  0  0  0  0  0
    3.7320    2.5000    0.0000 O   0  5  0  0  0  0  0  0  0  0  0  0
    5.4641    2.5000    0.0000 O   0  0  0  0  0  0  0  0  0  0  0  0
    2.0000   -0.5000    0.0000 O   0  5  0  0  0  0  0  0  0  0  0  0
    2.8660   -2.0000    0.0000 O   0  0  0  0  0  0  0  0  0  0  0  0
    4.5981    2.0000    0.0000 N   0  3  0  0  0  0  0  0  0  0  0  0
    2.8660   -1.0000    0.0000 N   0  3  0  0  0  0  0  0  0  0  0  0
    5.4641    0.5000    0.0000 C   0  0  0  0  0  0  0  0  0  0  0  0
    5.4641   -0.5000    0.0000 C   0  0  0  0  0  0  0  0  0  0  0  0
    4.5981    1.0000    0.0000 C   0  0  0  0  0  0  0  0  0  0  0  0
    6.3580   -1.0347    0.0000 C   0  0  0  0  0  0  0  0  0  0  0  0
    7.2641   -0.5208    0.0000 C   0  0  0  0  0  0  0  0  0  0  0  0
    6.3580    1.0347    0.0000 C   0  0  0  0  0  0  0  0  0  0  0  0
    4.5981   -1.0000    0.0000 C   0  0  0  0  0  0  0  0  0  0  0  0
    3.7320   -0.5000    0.0000 C   0  0  0  0  0  0  0  0  0  0  0  0
    7.2641    0.5208    0.0000 C   0  0  0  0  0  0  0  0  0  0  0  0
    3.7320    0.5000    0.0000 C   0  0  0  0  0  0  0  0  0  0  0  0
    6.3509   -1.6546    0.0000 H   0  0  0  0  0  0  0  0  0  0  0  0
    6.3509    1.6546    0.0000 H   0  0  0  0  0  0  0  0  0  0  0  0
    7.7998    0.8329    0.0000 H   0  0  0  0  0  0  0  0  0  0  0  0
    3.1951    0.8100    0.0000 H   0  0  0  0  0  0  0  0  0  0  0  0
  3  5  1  0  0  0  0
  3  6  2  0  0  0  0
  3  7  2  0  0  0  0
  3 18  1  0  0  0  0
  4 20  1  0  0  0  0
  8 12  1  0  0  0  0
  9 12  2  0  0  0  0
 10 13  1  0  0  0  0
 11 13  2  0  0  0  0
 12 16  1  0  0  0  0
 13 21  1  0  0  0  0
 14 15  2  0  0  0  0
 14 16  1  0  0  0  0
 14 19  1  0  0  0  0
 15 17  1  0  0  0  0
 15 20  1  0  0  0  0
 16 23  2  0  0  0  0
 17 18  2  0  0  0  0
 17 24  1  0  0  0  0
 18 22  1  0  0  0  0
 19 22  2  0  0  0  0
 19 25  1  0  0  0  0
 20 21  2  0  0  0  0
 21 23  1  0  0  0  0
 22 26  1  0  0  0  0
 23 27  1  0  0  0  0
M  CHG  8   1   1   2   1   4  -1   5  -1   8  -1  10  -1  12   1  13   1
M  END
> <PUBCHEM_COMPOUND_CID>
11067

> <PUBCHEM_COMPOUND_CANONICALIZED>
1

> <PUBCHEM_CACTVS_COMPLEXITY>
519

> <PUBCHEM_CACTVS_HBOND_ACCEPTOR>
8

> <PUBCHEM_CACTVS_HBOND_DONOR>
0

> <PUBCHEM_CACTVS_ROTATABLE_BOND>
0

> <PUBCHEM_CACTVS_SUBSKEYS>
AAADcYBzPABAYAAAAAAAAAAAAAAAAAAAAAAwYAAAAAAAAADBUAAAHgQEAAAADAyB2AAwx8AQQAKBAiRCQ3DCAEAgIgAoiBgFbIoKJiKA0dOAMABkwFEIyAewwLAOmEABwAQaEAAwgAOACDQgAAAAAAAAAA==

> <PUBCHEM_IUPAC_OPENEYE_NAME>
dipotassium 5,7-dinitro-8-oxido-naphthalene-2-sulfonate

> <PUBCHEM_IUPAC_CAS_NAME>
dipotassium 5,7-dinitro-8-oxido-2-naphthalenesulfonate

> <PUBCHEM_IUPAC_NAME>
dipotassium 5,7-dinitro-8-oxidonaphthalene-2-sulfonate

> <PUBCHEM_IUPAC_SYSTEMATIC_NAME>
dipotassium 5,7-dinitro-8-oxidanidyl-naphthalene-2-sulfonate

> <PUBCHEM_IUPAC_TRADITIONAL_NAME>
dipotassium 5,7-dinitro-8-oxido-naphthalene-2-sulfonate

> <PUBCHEM_IUPAC_INCHI>
InChI=1S/C10H6N2O8S.2K/c13-10-7-3-5(21(18,19)20)1-2-6(7)8(11(14)15)4-9(10)12(16)17;;/h1-4,13H,(H,18,19,20);;/q;2*+1/p-2

> <PUBCHEM_IUPAC_INCHIKEY>
JEAVZHPHDNESJD-UHFFFAOYSA-L

> <PUBCHEM_EXACT_MASS>
389.896249

> <PUBCHEM_MOLECULAR_FORMULA>
C10H4K2N2O8S

> <PUBCHEM_MOLECULAR_WEIGHT>
390.40896

> <PUBCHEM_OPENEYE_CAN_SMILES>
C1=CC2=C(C=C1S(=O)(=O)[O-])C(=C(C=C2[N+](=O)[O-])[N+](=O)[O-])[O-].[K+].[K+]

> <PUBCHEM_OPENEYE_ISO_SMILES>
C1=CC2=C(C=C1S(=O)(=O)[O-])C(=C(C=C2[N+](=O)[O-])[N+](=O)[O-])[O-].[K+].[K+]

> <PUBCHEM_CACTVS_TPSA>
180

> <PUBCHEM_MONOISOTOPIC_WEIGHT>
389.896249

> <PUBCHEM_TOTAL_CHARGE>
0

> <PUBCHEM_HEAVY_ATOM_COUNT>
23

> <PUBCHEM_ATOM_DEF_STEREO_COUNT>
0

> <PUBCHEM_ATOM_UDEF_STEREO_COUNT>
0

> <PUBCHEM_BOND_DEF_STEREO_COUNT>
0

> <PUBCHEM_BOND_UDEF_STEREO_COUNT>
0

> <PUBCHEM_ISOTOPIC_ATOM_COUNT>
0

> <PUBCHEM_COMPONENT_COUNT>
3

> <PUBCHEM_CACTVS_TAUTO_COUNT>
1

> <PUBCHEM_COORDINATE_TYPE>
1
5
255

> <PUBCHEM_BONDANNOTATIONS>
14  15  8
14  16  8
14  19  8
15  17  8
15  20  8
16  23  8
17  18  8
18  22  8
19  22  8
20  21  8
21  23  8

$$$$

