4621
  -OEChem-07051213033D

 75 76  0     0  0  0  0  0  0999 V2000
   -3.3646   -0.8803    0.9980 O   0  0  0  0  0  0  0  0  0  0  0  0
    0.7317   -1.5969    1.2061 O   0  0  0  0  0  0  0  0  0  0  0  0
   -3.5015   -5.4271    1.5554 O   0  0  0  0  0  0  0  0  0  0  0  0
   -3.4521    0.3710   -0.9517 N   0  0  0  0  0  0  0  0  0  0  0  0
    2.0099   -2.3297   -0.5837 N   0  0  0  0  0  0  0  0  0  0  0  0
   -1.5603   -2.6333    0.1336 N   0  0  0  0  0  0  0  0  0  0  0  0
   -4.4414    1.3285   -0.4723 C   0  0  0  0  0  0  0  0  0  0  0  0
    2.8800   -1.1689   -0.7284 C   0  0  0  0  0  0  0  0  0  0  0  0
   -3.9277    2.0549    0.7993 C   0  0  0  0  0  0  0  0  0  0  0  0
    3.9571   -1.1507    0.3887 C   0  0  0  0  0  0  0  0  0  0  0  0
   -5.7180    0.5523   -0.1072 C   0  0  0  0  0  0  0  0  0  0  0  0
   -4.7750    2.3180   -1.5987 C   0  0  0  0  0  0  0  0  0  0  0  0
    3.5109   -1.1810   -2.1288 C   0  0  0  0  0  0  0  0  0  0  0  0
    2.0148    0.0952   -0.5910 C   0  0  0  0  0  0  0  0  0  0  0  0
   -1.9521   -1.5919   -0.8093 C   0  0  0  0  0  0  0  0  0  0  0  0
   -0.2751   -3.2193   -0.2507 C   0  0  0  0  0  0  0  0  0  0  0  0
   -2.9813   -0.6828   -0.1584 C   0  0  0  0  0  0  0  0  0  0  0  0
    0.8518   -2.3065    0.2035 C   0  0  0  0  0  0  0  0  0  0  0  0
   -2.6691    2.8756    0.6290 C   0  0  0  0  0  0  0  0  0  0  0  0
    4.9036    0.0285    0.3756 C   0  0  0  0  0  0  0  0  0  0  0  0
   -2.9872    0.5902   -2.3194 C   0  0  0  0  0  0  0  0  0  0  0  0
    2.4333   -3.5189   -1.3195 C   0  0  0  0  0  0  0  0  0  0  0  0
   -2.5892   -3.6718    0.2110 C   0  0  0  0  0  0  0  0  0  0  0  0
   -1.4204    2.2878    0.8319 C   0  0  0  0  0  0  0  0  0  0  0  0
    6.0941   -0.0407   -0.3481 C   0  0  0  0  0  0  0  0  0  0  0  0
   -2.7566    4.2203    0.2685 C   0  0  0  0  0  0  0  0  0  0  0  0
    4.5860    1.1858    1.0867 C   0  0  0  0  0  0  0  0  0  0  0  0
   -2.4757   -4.4438    1.5158 C   0  0  0  0  0  0  0  0  0  0  0  0
   -0.2594    3.0446    0.6747 C   0  0  0  0  0  0  0  0  0  0  0  0
    6.9671    1.0471   -0.3606 C   0  0  0  0  0  0  0  0  0  0  0  0
   -1.5953    4.9770    0.1111 C   0  0  0  0  0  0  0  0  0  0  0  0
    5.4591    2.2737    1.0741 C   0  0  0  0  0  0  0  0  0  0  0  0
   -0.3468    4.3890    0.3142 C   0  0  0  0  0  0  0  0  0  0  0  0
    6.6495    2.2042    0.3504 C   0  0  0  0  0  0  0  0  0  0  0  0
   -4.7191    2.7278    1.1615 H   0  0  0  0  0  0  0  0  0  0  0  0
   -3.7747    1.3624    1.6354 H   0  0  0  0  0  0  0  0  0  0  0  0
    3.4747   -1.1983    1.3753 H   0  0  0  0  0  0  0  0  0  0  0  0
    4.5526   -2.0732    0.3380 H   0  0  0  0  0  0  0  0  0  0  0  0
   -5.5985   -0.0953    0.7661 H   0  0  0  0  0  0  0  0  0  0  0  0
   -6.0494   -0.0788   -0.9404 H   0  0  0  0  0  0  0  0  0  0  0  0
   -6.5367    1.2430    0.1279 H   0  0  0  0  0  0  0  0  0  0  0  0
   -5.2711    1.8434   -2.4530 H   0  0  0  0  0  0  0  0  0  0  0  0
   -5.5026    3.0521   -1.2254 H   0  0  0  0  0  0  0  0  0  0  0  0
   -3.9314    2.9127   -1.9591 H   0  0  0  0  0  0  0  0  0  0  0  0
    2.7523   -1.2915   -2.9132 H   0  0  0  0  0  0  0  0  0  0  0  0
    4.0220   -0.2345   -2.3411 H   0  0  0  0  0  0  0  0  0  0  0  0
    4.2610   -1.9682   -2.2579 H   0  0  0  0  0  0  0  0  0  0  0  0
    2.5519    0.9825   -0.9484 H   0  0  0  0  0  0  0  0  0  0  0  0
    1.1075    0.0318   -1.2036 H   0  0  0  0  0  0  0  0  0  0  0  0
    1.7185    0.3178    0.4375 H   0  0  0  0  0  0  0  0  0  0  0  0
   -1.0906   -0.9598   -1.0519 H   0  0  0  0  0  0  0  0  0  0  0  0
   -2.3515   -2.0299   -1.7315 H   0  0  0  0  0  0  0  0  0  0  0  0
   -0.0894   -4.1753    0.2501 H   0  0  0  0  0  0  0  0  0  0  0  0
   -0.2331   -3.3986   -1.3317 H   0  0  0  0  0  0  0  0  0  0  0  0
   -3.8149    0.4935   -3.0268 H   0  0  0  0  0  0  0  0  0  0  0  0
   -2.2487   -0.1406   -2.6481 H   0  0  0  0  0  0  0  0  0  0  0  0
   -2.4793    1.5551   -2.3986 H   0  0  0  0  0  0  0  0  0  0  0  0
    2.1975   -3.4110   -2.3813 H   0  0  0  0  0  0  0  0  0  0  0  0
    1.9048   -4.4020   -0.9491 H   0  0  0  0  0  0  0  0  0  0  0  0
    3.4996   -3.7056   -1.1638 H   0  0  0  0  0  0  0  0  0  0  0  0
   -2.5395   -4.3574   -0.6464 H   0  0  0  0  0  0  0  0  0  0  0  0
   -3.6032   -3.2533    0.1723 H   0  0  0  0  0  0  0  0  0  0  0  0
   -1.3320    1.2461    1.1253 H   0  0  0  0  0  0  0  0  0  0  0  0
    6.3555   -0.9371   -0.9040 H   0  0  0  0  0  0  0  0  0  0  0  0
   -3.7225    4.6924    0.1101 H   0  0  0  0  0  0  0  0  0  0  0  0
    3.6665    1.2528    1.6617 H   0  0  0  0  0  0  0  0  0  0  0  0
   -1.5190   -4.9626    1.6184 H   0  0  0  0  0  0  0  0  0  0  0  0
   -2.6063   -3.7772    2.3753 H   0  0  0  0  0  0  0  0  0  0  0  0
    0.7130    2.5908    0.8392 H   0  0  0  0  0  0  0  0  0  0  0  0
    7.8944    0.9928   -0.9234 H   0  0  0  0  0  0  0  0  0  0  0  0
   -1.6633    6.0242   -0.1685 H   0  0  0  0  0  0  0  0  0  0  0  0
    5.2127    3.1741    1.6291 H   0  0  0  0  0  0  0  0  0  0  0  0
    0.5572    4.9786    0.1933 H   0  0  0  0  0  0  0  0  0  0  0  0
    7.3294    3.0511    0.3412 H   0  0  0  0  0  0  0  0  0  0  0  0
   -3.4159   -5.8952    2.4035 H   0  0  0  0  0  0  0  0  0  0  0  0
  1 17  2  0  0  0  0
  2 18  2  0  0  0  0
  3 28  1  0  0  0  0
  3 75  1  0  0  0  0
  4  7  1  0  0  0  0
  4 17  1  0  0  0  0
  4 21  1  0  0  0  0
  5  8  1  0  0  0  0
  5 18  1  0  0  0  0
  5 22  1  0  0  0  0
  6 15  1  0  0  0  0
  6 16  1  0  0  0  0
  6 23  1  0  0  0  0
  7  9  1  0  0  0  0
  7 11  1  0  0  0  0
  7 12  1  0  0  0  0
  8 10  1  0  0  0  0
  8 13  1  0  0  0  0
  8 14  1  0  0  0  0
  9 19  1  0  0  0  0
  9 35  1  0  0  0  0
  9 36  1  0  0  0  0
 10 20  1  0  0  0  0
 10 37  1  0  0  0  0
 10 38  1  0  0  0  0
 11 39  1  0  0  0  0
 11 40  1  0  0  0  0
 11 41  1  0  0  0  0
 12 42  1  0  0  0  0
 12 43  1  0  0  0  0
 12 44  1  0  0  0  0
 13 45  1  0  0  0  0
 13 46  1  0  0  0  0
 13 47  1  0  0  0  0
 14 48  1  0  0  0  0
 14 49  1  0  0  0  0
 14 50  1  0  0  0  0
 15 17  1  0  0  0  0
 15 51  1  0  0  0  0
 15 52  1  0  0  0  0
 16 18  1  0  0  0  0
 16 53  1  0  0  0  0
 16 54  1  0  0  0  0
 19 24  2  0  0  0  0
 19 26  1  0  0  0  0
 20 25  2  0  0  0  0
 20 27  1  0  0  0  0
 21 55  1  0  0  0  0
 21 56  1  0  0  0  0
 21 57  1  0  0  0  0
 22 58  1  0  0  0  0
 22 59  1  0  0  0  0
 22 60  1  0  0  0  0
 23 28  1  0  0  0  0
 23 61  1  0  0  0  0
 23 62  1  0  0  0  0
 24 29  1  0  0  0  0
 24 63  1  0  0  0  0
 25 30  1  0  0  0  0
 25 64  1  0  0  0  0
 26 31  2  0  0  0  0
 26 65  1  0  0  0  0
 27 32  2  0  0  0  0
 27 66  1  0  0  0  0
 28 67  1  0  0  0  0
 28 68  1  0  0  0  0
 29 33  2  0  0  0  0
 29 69  1  0  0  0  0
 30 34  2  0  0  0  0
 30 70  1  0  0  0  0
 31 33  1  0  0  0  0
 31 71  1  0  0  0  0
 32 34  1  0  0  0  0
 32 72  1  0  0  0  0
 33 73  1  0  0  0  0
 34 74  1  0  0  0  0
M  END
> <PUBCHEM_COMPOUND_CID>
4621

> <PUBCHEM_CONFORMER_RMSD>
1.6

> <PUBCHEM_CONFORMER_DIVERSEORDER>
3
13
92
69
61
94
33
16
95
70
74
34
59
83
31
72
29
51
25
18
66
37
55
5
82
15
62
86
88
89
96
11
90
35
58
41
97
43
38
27
10
8
47
46
79
63
4
22
76
80
24
19
54
42
26
65
85
57
56
73
45
64
21
93
68
60
78
48
23
91
44
75
52
17
12
84
30
77
71
49
14
53
81
6
67
32
36
40
50
1
39
87
7
9
20
28
2

> <PUBCHEM_MMFF94_PARTIAL_CHARGES>
41
1 -0.57
10 0.14
15 0.33
16 0.33
17 0.57
18 0.57
19 -0.14
2 -0.57
20 -0.14
21 0.3
22 0.3
23 0.27
24 -0.15
25 -0.15
26 -0.15
27 -0.15
28 0.28
29 -0.15
3 -0.68
30 -0.15
31 -0.15
32 -0.15
33 -0.15
34 -0.15
4 -0.66
5 -0.66
6 -0.81
63 0.15
64 0.15
65 0.15
66 0.15
69 0.15
7 0.3
70 0.15
71 0.15
72 0.15
73 0.15
74 0.15
75 0.4
8 0.3
9 0.14

> <PUBCHEM_EFFECTIVE_ROTOR_COUNT>
14

> <PUBCHEM_PHARMACOPHORE_FEATURES>
9
1 1 acceptor
1 2 acceptor
1 3 acceptor
1 3 donor
1 6 cation
3 7 11 12 hydrophobe
3 8 13 14 hydrophobe
6 19 24 26 29 31 33 rings
6 20 25 27 30 32 34 rings

> <PUBCHEM_HEAVY_ATOM_COUNT>
34

> <PUBCHEM_ATOM_DEF_STEREO_COUNT>
0

> <PUBCHEM_ATOM_UDEF_STEREO_COUNT>
0

> <PUBCHEM_BOND_DEF_STEREO_COUNT>
0

> <PUBCHEM_BOND_UDEF_STEREO_COUNT>
0

> <PUBCHEM_ISOTOPIC_ATOM_COUNT>
0

> <PUBCHEM_COMPONENT_COUNT>
1

> <PUBCHEM_CACTVS_TAUTO_COUNT>
1

> <PUBCHEM_CONFORMER_ID>
0000120D00000003

> <PUBCHEM_MMFF94_ENERGY>
122.6954

> <PUBCHEM_FEATURE_SELFOVERLAP>
45.669

> <PUBCHEM_SHAPE_FINGERPRINT>
10032420 55 18044118905987776936
10675989 125 17907308993663033757
10871710 139 18190186865854305493
12107183 9 18199483228383497498
13402501 40 18333454222790179464
13561361 72 18335992965454070016
14092694 8 17242185762610456295
14394314 77 18335134354242074081
14765038 42 17896303874295866905
14840074 17 17894638053918381597
15001296 14 18051415359770503321
15320467 1 18408887334800512624
15776043 110 17843408625305818946
16067690 210 18270696268224848320
16112460 7 17897434214924567568
16992787 43 18337115687480927573
19611394 137 18127403454612194115
20764821 26 18194395602432598564
21033648 144 18188477055984139238
21033648 29 18129940204099112967
21344244 246 16966060614565918423
21795232 40 18200611219011031301
22956985 138 16543825029205689603
325973 47 18192155893400471808
437795 96 18263934249949317856
46194498 28 17460027594663917758
463206 1 18335701620157443464
50150288 127 16082751833125154848
550186 7 18260542299901426390
5776283 40 18047450495450774086
6036956 94 18413105082415768212
6371009 1 18049744084989891170
6608658 132 18188507790743184190
7288768 16 18272931665178835587
9981440 41 18127403682529673707

> <PUBCHEM_SHAPE_MULTIPOLES>
667.15
13.79
7.08
1.47
18.66
1.75
0.48
-7.36
0.63
-6.84
-2.58
-0.52
0.68
2.74

> <PUBCHEM_SHAPE_SELFOVERLAP>
1373.335

> <PUBCHEM_SHAPE_VOLUME>
383.3

> <PUBCHEM_COORDINATE_TYPE>
2
5
10

$$$$

