92097
  -OEChem-07051212552D

 81 85  0     1  0  0  0  0  0999 V2000
    2.5357   -2.5933    0.0000 O   0  0  0  0  0  0  0  0  0  0  0  0
    6.1968   -0.5410    0.0000 C   0  0  2  0  0  0  0  0  0  0  0  0
    5.2868   -1.0478    0.0000 C   0  0  2  0  0  0  0  0  0  0  0  0
    7.0628   -1.0410    0.0000 C   0  0  2  0  0  0  0  0  0  0  0  0
    7.9288    0.4590    0.0000 C   0  0  1  0  0  0  0  0  0  0  0  0
    5.2787   -2.0894    0.0000 C   0  0  2  0  0  0  0  0  0  0  0  0
    8.8228    0.9937    0.0000 C   0  0  1  0  0  0  0  0  0  0  0  0
    7.9288   -0.5410    0.0000 C   0  0  0  0  0  0  0  0  0  0  0  0
    6.1968    0.4590    0.0000 C   0  0  0  0  0  0  0  0  0  0  0  0
    7.0789   -2.0825    0.0000 C   0  0  0  0  0  0  0  0  0  0  0  0
    9.7288    0.4799    0.0000 C   0  0  1  0  0  0  0  0  0  0  0  0
    7.0628    0.9590    0.0000 C   0  0  0  0  0  0  0  0  0  0  0  0
    4.3433   -2.6391    0.0000 C   0  0  0  0  0  0  0  0  0  0  0  0
    6.1808   -2.6102    0.0000 C   0  0  0  0  0  0  0  0  0  0  0  0
    4.3599   -0.4837    0.0000 C   0  0  0  0  0  0  0  0  0  0  0  0
    8.7977    2.0784    0.0000 C   0  0  0  0  0  0  0  0  0  0  0  0
    9.7288   -0.5618    0.0000 C   0  0  0  0  0  0  0  0  0  0  0  0
    3.4037   -2.0966    0.0000 C   0  0  2  0  0  0  0  0  0  0  0  0
    7.9288   -1.5410    0.0000 C   0  0  0  0  0  0  0  0  0  0  0  0
    5.2945   -0.0478    0.0000 C   0  0  0  0  0  0  0  0  0  0  0  0
    8.8228   -1.0756    0.0000 C   0  0  0  0  0  0  0  0  0  0  0  0
    3.4120   -1.0117    0.0000 C   0  0  0  0  0  0  0  0  0  0  0  0
   10.6726    1.0151    0.0000 C   0  0  0  0  0  0  0  0  0  0  0  0
    9.7288    2.6353    0.0000 C   0  0  0  0  0  0  0  0  0  0  0  0
    7.9288    1.4590    0.0000 C   0  0  0  0  0  0  0  0  0  0  0  0
   10.6726    2.1001    0.0000 C   0  0  0  0  0  0  0  0  0  0  0  0
   10.5987   -0.0135    0.0000 C   0  0  0  0  0  0  0  0  0  0  0  0
    3.8467   -3.5071    0.0000 C   0  0  0  0  0  0  0  0  0  0  0  0
    4.8466   -3.5032    0.0000 C   0  0  0  0  0  0  0  0  0  0  0  0
   10.2188    3.5071    0.0000 C   0  0  0  0  0  0  0  0  0  0  0  0
    9.2188    3.4955    0.0000 C   0  0  0  0  0  0  0  0  0  0  0  0
    6.9329   -0.1160    0.0000 H   0  0  0  0  0  0  0  0  0  0  0  0
    5.2820   -2.9394    0.0000 H   0  0  0  0  0  0  0  0  0  0  0  0
    9.5522    1.4300    0.0000 H   0  0  0  0  0  0  0  0  0  0  0  0
    5.9847    1.0416    0.0000 H   0  0  0  0  0  0  0  0  0  0  0  0
    5.5862    0.3514    0.0000 H   0  0  0  0  0  0  0  0  0  0  0  0
    7.2969   -2.6629    0.0000 H   0  0  0  0  0  0  0  0  0  0  0  0
    7.6880   -1.9670    0.0000 H   0  0  0  0  0  0  0  0  0  0  0  0
    7.4613    1.4340    0.0000 H   0  0  0  0  0  0  0  0  0  0  0  0
    6.6643    1.4340    0.0000 H   0  0  0  0  0  0  0  0  0  0  0  0
    5.7835   -3.0862    0.0000 H   0  0  0  0  0  0  0  0  0  0  0  0
    6.5818   -3.0831    0.0000 H   0  0  0  0  0  0  0  0  0  0  0  0
    4.7681   -0.0171    0.0000 H   0  0  0  0  0  0  0  0  0  0  0  0
    3.9700   -0.0017    0.0000 H   0  0  0  0  0  0  0  0  0  0  0  0
    8.5752    2.6571    0.0000 H   0  0  0  0  0  0  0  0  0  0  0  0
    8.1894    1.9582    0.0000 H   0  0  0  0  0  0  0  0  0  0  0  0
    9.9379   -1.1455    0.0000 H   0  0  0  0  0  0  0  0  0  0  0  0
   10.3397   -0.4557    0.0000 H   0  0  0  0  0  0  0  0  0  0  0  0
    3.4025   -2.7166    0.0000 H   0  0  0  0  0  0  0  0  0  0  0  0
    7.6188   -2.0779    0.0000 H   0  0  0  0  0  0  0  0  0  0  0  0
    8.4658   -1.8510    0.0000 H   0  0  0  0  0  0  0  0  0  0  0  0
    8.2388   -1.0040    0.0000 H   0  0  0  0  0  0  0  0  0  0  0  0
    5.9145   -0.0526    0.0000 H   0  0  0  0  0  0  0  0  0  0  0  0
    5.2993    0.5721    0.0000 H   0  0  0  0  0  0  0  0  0  0  0  0
    4.6745   -0.0431    0.0000 H   0  0  0  0  0  0  0  0  0  0  0  0
    8.8156   -1.6956    0.0000 H   0  0  0  0  0  0  0  0  0  0  0  0
    3.2075   -0.4264    0.0000 H   0  0  0  0  0  0  0  0  0  0  0  0
    2.8004   -1.1131    0.0000 H   0  0  0  0  0  0  0  0  0  0  0  0
   10.8817    0.4314    0.0000 H   0  0  0  0  0  0  0  0  0  0  0  0
   11.2835    1.1212    0.0000 H   0  0  0  0  0  0  0  0  0  0  0  0
    8.5488    1.4590    0.0000 H   0  0  0  0  0  0  0  0  0  0  0  0
    7.9288    2.0790    0.0000 H   0  0  0  0  0  0  0  0  0  0  0  0
    7.3088    1.4590    0.0000 H   0  0  0  0  0  0  0  0  0  0  0  0
   11.2835    1.9940    0.0000 H   0  0  0  0  0  0  0  0  0  0  0  0
   10.8817    2.6838    0.0000 H   0  0  0  0  0  0  0  0  0  0  0  0
   10.2928   -0.5528    0.0000 H   0  0  0  0  0  0  0  0  0  0  0  0
   11.1380   -0.3193    0.0000 H   0  0  0  0  0  0  0  0  0  0  0  0
   10.9045    0.5259    0.0000 H   0  0  0  0  0  0  0  0  0  0  0  0
    3.3085   -3.1992    0.0000 H   0  0  0  0  0  0  0  0  0  0  0  0
    3.5387   -4.0452    0.0000 H   0  0  0  0  0  0  0  0  0  0  0  0
    4.3848   -3.8150    0.0000 H   0  0  0  0  0  0  0  0  0  0  0  0
    4.3109   -3.8153    0.0000 H   0  0  0  0  0  0  0  0  0  0  0  0
    5.1587   -4.0390    0.0000 H   0  0  0  0  0  0  0  0  0  0  0  0
    5.3824   -3.1912    0.0000 H   0  0  0  0  0  0  0  0  0  0  0  0
    9.7522    3.8117    0.0000 H   0  0  0  0  0  0  0  0  0  0  0  0
    8.9027    4.0288    0.0000 H   0  0  0  0  0  0  0  0  0  0  0  0
    8.6855    3.1793    0.0000 H   0  0  0  0  0  0  0  0  0  0  0  0
   10.7593    3.2033    0.0000 H   0  0  0  0  0  0  0  0  0  0  0  0
   10.5226    4.0476    0.0000 H   0  0  0  0  0  0  0  0  0  0  0  0
    9.6783    3.8108    0.0000 H   0  0  0  0  0  0  0  0  0  0  0  0
    2.0000   -2.2812    0.0000 H   0  0  0  0  0  0  0  0  0  0  0  0
 18  1  1  1  0  0  0
  1 81  1  0  0  0  0
  2  3  1  0  0  0  0
  2  4  1  0  0  0  0
  2  9  1  0  0  0  0
  2 32  1  6  0  0  0
  3  6  1  0  0  0  0
  3 15  1  0  0  0  0
  3 20  1  1  0  0  0
  4  8  1  0  0  0  0
  4 10  1  0  0  0  0
  4 19  1  1  0  0  0
  5  7  1  0  0  0  0
  5  8  1  0  0  0  0
  5 12  1  0  0  0  0
  5 25  1  6  0  0  0
  6 13  1  0  0  0  0
  6 14  1  0  0  0  0
  6 33  1  6  0  0  0
  7 11  1  0  0  0  0
  7 16  1  0  0  0  0
  7 34  1  1  0  0  0
  8 21  2  0  0  0  0
  9 12  1  0  0  0  0
  9 35  1  0  0  0  0
  9 36  1  0  0  0  0
 10 14  1  0  0  0  0
 10 37  1  0  0  0  0
 10 38  1  0  0  0  0
 11 17  1  0  0  0  0
 11 23  1  0  0  0  0
 11 27  1  1  0  0  0
 12 39  1  0  0  0  0
 12 40  1  0  0  0  0
 13 18  1  0  0  0  0
 13 28  1  0  0  0  0
 13 29  1  0  0  0  0
 14 41  1  0  0  0  0
 14 42  1  0  0  0  0
 15 22  1  0  0  0  0
 15 43  1  0  0  0  0
 15 44  1  0  0  0  0
 16 24  1  0  0  0  0
 16 45  1  0  0  0  0
 16 46  1  0  0  0  0
 17 21  1  0  0  0  0
 17 47  1  0  0  0  0
 17 48  1  0  0  0  0
 18 22  1  0  0  0  0
 18 49  1  0  0  0  0
 19 50  1  0  0  0  0
 19 51  1  0  0  0  0
 19 52  1  0  0  0  0
 20 53  1  0  0  0  0
 20 54  1  0  0  0  0
 20 55  1  0  0  0  0
 21 56  1  0  0  0  0
 22 57  1  0  0  0  0
 22 58  1  0  0  0  0
 23 26  1  0  0  0  0
 23 59  1  0  0  0  0
 23 60  1  0  0  0  0
 24 26  1  0  0  0  0
 24 30  1  0  0  0  0
 24 31  1  0  0  0  0
 25 61  1  0  0  0  0
 25 62  1  0  0  0  0
 25 63  1  0  0  0  0
 26 64  1  0  0  0  0
 26 65  1  0  0  0  0
 27 66  1  0  0  0  0
 27 67  1  0  0  0  0
 27 68  1  0  0  0  0
 28 69  1  0  0  0  0
 28 70  1  0  0  0  0
 28 71  1  0  0  0  0
 29 72  1  0  0  0  0
 29 73  1  0  0  0  0
 29 74  1  0  0  0  0
 30 78  1  0  0  0  0
 30 79  1  0  0  0  0
 30 80  1  0  0  0  0
 31 75  1  0  0  0  0
 31 76  1  0  0  0  0
 31 77  1  0  0  0  0
M  END
> <PUBCHEM_COMPOUND_CID>
92097

> <PUBCHEM_COMPOUND_CANONICALIZED>
1

> <PUBCHEM_CACTVS_COMPLEXITY>
790

> <PUBCHEM_CACTVS_HBOND_ACCEPTOR>
1

> <PUBCHEM_CACTVS_HBOND_DONOR>
1

> <PUBCHEM_CACTVS_ROTATABLE_BOND>
0

> <PUBCHEM_CACTVS_SUBSKEYS>
AAADcfB4IAAAAAAAAAAAAAAAAAAAAAAAAAAwYMGCAAAAAADAAAAAGgAACAAADxSggAICAAAAAgCAAiBCAAAAAAAgAAAACAAAAAgAEAIAAAAAQAAEgAAIAAOAwPAPgAAAAAAAAADAAAYAADAAAAAAAAAAAA==

> <PUBCHEM_IUPAC_OPENEYE_NAME>
(3S,4aR,6aR,6aS,8aR,12aR,14aR,14bR)-4,4,6a,6a,8a,11,11,14b-octamethyl-1,2,3,4a,5,6,8,9,10,12,12a,13,14,14a-tetradecahydropicen-3-ol

> <PUBCHEM_IUPAC_CAS_NAME>
(3S,4aR,6aR,6aS,8aR,12aR,14aR,14bR)-4,4,6a,6a,8a,11,11,14b-octamethyl-1,2,3,4a,5,6,8,9,10,12,12a,13,14,14a-tetradecahydropicen-3-ol

> <PUBCHEM_IUPAC_NAME>
(3S,4aR,6aR,6aS,8aR,12aR,14aR,14bR)-4,4,6a,6a,8a,11,11,14b-octamethyl-1,2,3,4a,5,6,8,9,10,12,12a,13,14,14a-tetradecahydropicen-3-ol

> <PUBCHEM_IUPAC_SYSTEMATIC_NAME>
(3S,4aR,6aR,6aS,8aR,12aR,14aR,14bR)-4,4,6a,6a,8a,11,11,14b-octamethyl-1,2,3,4a,5,6,8,9,10,12,12a,13,14,14a-tetradecahydropicen-3-ol

> <PUBCHEM_IUPAC_TRADITIONAL_NAME>
(3S,4aR,6aR,6aS,8aR,12aR,14aR,14bR)-4,4,6a,6a,8a,11,11,14b-octamethyl-1,2,3,4a,5,6,8,9,10,12,12a,13,14,14a-tetradecahydropicen-3-ol

> <PUBCHEM_IUPAC_INCHI>
InChI=1S/C30H50O/c1-25(2)17-18-27(5)13-9-21-29(7)14-10-20-26(3,4)24(31)12-16-28(20,6)22(29)11-15-30(21,8)23(27)19-25/h9,20,22-24,31H,10-19H2,1-8H3/t20-,22+,23+,24-,27-,28-,29-,30+/m0/s1

> <PUBCHEM_IUPAC_INCHIKEY>
GGGUGZHBAOMSFJ-GADYQYKKSA-N

> <PUBCHEM_XLOGP3_AA>
9.3

> <PUBCHEM_EXACT_MASS>
426.386166

> <PUBCHEM_MOLECULAR_FORMULA>
C30H50O

> <PUBCHEM_MOLECULAR_WEIGHT>
426.7174

> <PUBCHEM_OPENEYE_CAN_SMILES>
CC1(CCC2(CC=C3C4(CCC5C(C(CCC5(C4CCC3(C2C1)C)C)O)(C)C)C)C)C

> <PUBCHEM_OPENEYE_ISO_SMILES>
C[C@]12CCC(C[C@H]1[C@@]3(CC[C@@H]4[C@]5(CC[C@@H](C([C@@H]5CC[C@]4(C3=CC2)C)(C)C)O)C)C)(C)C

> <PUBCHEM_CACTVS_TPSA>
20.2

> <PUBCHEM_MONOISOTOPIC_WEIGHT>
426.386166

> <PUBCHEM_TOTAL_CHARGE>
0

> <PUBCHEM_HEAVY_ATOM_COUNT>
31

> <PUBCHEM_ATOM_DEF_STEREO_COUNT>
8

> <PUBCHEM_ATOM_UDEF_STEREO_COUNT>
0

> <PUBCHEM_BOND_DEF_STEREO_COUNT>
0

> <PUBCHEM_BOND_UDEF_STEREO_COUNT>
0

> <PUBCHEM_ISOTOPIC_ATOM_COUNT>
0

> <PUBCHEM_COMPONENT_COUNT>
1

> <PUBCHEM_CACTVS_TAUTO_COUNT>
1

> <PUBCHEM_COORDINATE_TYPE>
1
5
255

> <PUBCHEM_BONDANNOTATIONS>
18  1  5
11  27  5
2  32  6
3  20  5
4  19  5
5  25  6
6  33  6
7  34  5

$$$$

