17395442
  -OEChem-06241222503D

 45 46  0     0  0  0  0  0  0999 V2000
    3.0960   -0.4164    0.9548 O   0  0  0  0  0  0  0  0  0  0  0  0
    0.4679   -3.6768    0.6303 O   0  0  0  0  0  0  0  0  0  0  0  0
    3.1973    1.1287   -0.7774 N   0  0  0  0  0  0  0  0  0  0  0  0
    1.8694   -2.2473   -0.5811 N   0  0  0  0  0  0  0  0  0  0  0  0
   -0.0802   -0.3013    0.8815 N   0  0  0  0  0  0  0  0  0  0  0  0
   -1.1448    0.5191    0.8829 N   0  0  0  0  0  0  0  0  0  0  0  0
    3.8430    2.1996   -0.0403 C   0  0  0  0  0  0  0  0  0  0  0  0
    2.9543    2.6011    1.1415 C   0  0  0  0  0  0  0  0  0  0  0  0
    5.2024    1.7125    0.4747 C   0  0  0  0  0  0  0  0  0  0  0  0
    4.0468    3.4025   -0.9686 C   0  0  0  0  0  0  0  0  0  0  0  0
    2.8789   -0.0929   -0.2102 C   0  0  0  0  0  0  0  0  0  0  0  0
    2.1646   -0.9888   -1.1996 C   0  0  0  0  0  0  0  0  0  0  0  0
    0.6808   -2.5668    0.1381 C   0  0  0  0  0  0  0  0  0  0  0  0
   -0.3095   -1.5007    0.2737 C   0  0  0  0  0  0  0  0  0  0  0  0
    2.8787   -3.3051   -0.7332 C   0  0  0  0  0  0  0  0  0  0  0  0
   -1.6150   -1.4624   -0.1517 C   0  0  0  0  0  0  0  0  0  0  0  0
   -2.0792   -0.1958    0.2504 C   0  0  0  0  0  0  0  0  0  0  0  0
   -3.3976    0.3431    0.0416 C   0  0  0  0  0  0  0  0  0  0  0  0
   -4.4990   -0.5110   -0.0175 C   0  0  0  0  0  0  0  0  0  0  0  0
   -3.5740    1.7194   -0.1017 C   0  0  0  0  0  0  0  0  0  0  0  0
   -5.7764    0.0110   -0.2202 C   0  0  0  0  0  0  0  0  0  0  0  0
   -4.8517    2.2414   -0.3043 C   0  0  0  0  0  0  0  0  0  0  0  0
   -5.9528    1.3871   -0.3636 C   0  0  0  0  0  0  0  0  0  0  0  0
    2.9599    1.2913   -1.7522 H   0  0  0  0  0  0  0  0  0  0  0  0
    2.8579    1.8127    1.8940 H   0  0  0  0  0  0  0  0  0  0  0  0
    1.9426    2.8573    0.8050 H   0  0  0  0  0  0  0  0  0  0  0  0
    3.3642    3.4786    1.6552 H   0  0  0  0  0  0  0  0  0  0  0  0
    5.1181    0.9165    1.2205 H   0  0  0  0  0  0  0  0  0  0  0  0
    5.8199    1.3282   -0.3458 H   0  0  0  0  0  0  0  0  0  0  0  0
    5.7546    2.5323    0.9490 H   0  0  0  0  0  0  0  0  0  0  0  0
    4.5328    4.2338   -0.4460 H   0  0  0  0  0  0  0  0  0  0  0  0
    3.0894    3.7654   -1.3605 H   0  0  0  0  0  0  0  0  0  0  0  0
    4.6702    3.1359   -1.8300 H   0  0  0  0  0  0  0  0  0  0  0  0
    1.2490   -0.4950   -1.5387 H   0  0  0  0  0  0  0  0  0  0  0  0
    2.8023   -1.1490   -2.0762 H   0  0  0  0  0  0  0  0  0  0  0  0
    3.8394   -2.9329   -0.3657 H   0  0  0  0  0  0  0  0  0  0  0  0
    2.6141   -4.2086   -0.1792 H   0  0  0  0  0  0  0  0  0  0  0  0
    2.9630   -3.5526   -1.7954 H   0  0  0  0  0  0  0  0  0  0  0  0
   -2.1396   -2.2452   -0.6818 H   0  0  0  0  0  0  0  0  0  0  0  0
    0.7659    0.0187    1.3353 H   0  0  0  0  0  0  0  0  0  0  0  0
   -4.3955   -1.5867    0.1008 H   0  0  0  0  0  0  0  0  0  0  0  0
   -2.7346    2.4098   -0.0687 H   0  0  0  0  0  0  0  0  0  0  0  0
   -6.6344   -0.6536   -0.2641 H   0  0  0  0  0  0  0  0  0  0  0  0
   -4.9893    3.3127   -0.4179 H   0  0  0  0  0  0  0  0  0  0  0  0
   -6.9475    1.7936   -0.5212 H   0  0  0  0  0  0  0  0  0  0  0  0
  1 11  2  0  0  0  0
  2 13  2  0  0  0  0
  3  7  1  0  0  0  0
  3 11  1  0  0  0  0
  3 24  1  0  0  0  0
  4 12  1  0  0  0  0
  4 13  1  0  0  0  0
  4 15  1  0  0  0  0
  5  6  1  0  0  0  0
  5 14  1  0  0  0  0
  5 40  1  0  0  0  0
  6 17  2  0  0  0  0
  7  8  1  0  0  0  0
  7  9  1  0  0  0  0
  7 10  1  0  0  0  0
  8 25  1  0  0  0  0
  8 26  1  0  0  0  0
  8 27  1  0  0  0  0
  9 28  1  0  0  0  0
  9 29  1  0  0  0  0
  9 30  1  0  0  0  0
 10 31  1  0  0  0  0
 10 32  1  0  0  0  0
 10 33  1  0  0  0  0
 11 12  1  0  0  0  0
 12 34  1  0  0  0  0
 12 35  1  0  0  0  0
 13 14  1  0  0  0  0
 14 16  2  0  0  0  0
 15 36  1  0  0  0  0
 15 37  1  0  0  0  0
 15 38  1  0  0  0  0
 16 17  1  0  0  0  0
 16 39  1  0  0  0  0
 17 18  1  0  0  0  0
 18 19  2  0  0  0  0
 18 20  1  0  0  0  0
 19 21  1  0  0  0  0
 19 41  1  0  0  0  0
 20 22  2  0  0  0  0
 20 42  1  0  0  0  0
 21 23  2  0  0  0  0
 21 43  1  0  0  0  0
 22 23  1  0  0  0  0
 22 44  1  0  0  0  0
 23 45  1  0  0  0  0
M  END
> <PUBCHEM_COMPOUND_CID>
17395442

> <PUBCHEM_CONFORMER_RMSD>
1

> <PUBCHEM_CONFORMER_DIVERSEORDER>
1
47
43
27
21
44
38
16
63
23
74
22
18
13
56
39
54
2
33
5
53
69
55
58
32
8
15
9
19
20
3
57
50
35
25
40
64
46
29
30
31
66
36
26
12
68
34
59
17
11
73
62
67
28
70
41
48
42
4
71
65
45
51
10
49
60
6
37
7
52
61
24
14
72

> <PUBCHEM_MMFF94_PARTIAL_CHARGES>
28
1 -0.57
11 0.57
12 0.36
13 0.71
14 -0.24
15 0.3
16 -0.15
17 0.23
18 0.05
19 -0.15
2 -0.57
20 -0.15
21 -0.15
22 -0.15
23 -0.15
24 0.37
3 -0.73
39 0.15
4 -0.66
40 0.27
41 0.15
42 0.15
43 0.15
44 0.15
45 0.15
5 0.3
6 -0.71
7 0.3

> <PUBCHEM_EFFECTIVE_ROTOR_COUNT>
7

> <PUBCHEM_PHARMACOPHORE_FEATURES>
8
1 1 acceptor
1 2 acceptor
1 3 donor
1 5 donor
1 6 acceptor
4 7 8 9 10 hydrophobe
5 5 6 14 16 17 rings
6 18 19 20 21 22 23 rings

> <PUBCHEM_HEAVY_ATOM_COUNT>
23

> <PUBCHEM_ATOM_DEF_STEREO_COUNT>
0

> <PUBCHEM_ATOM_UDEF_STEREO_COUNT>
0

> <PUBCHEM_BOND_DEF_STEREO_COUNT>
0

> <PUBCHEM_BOND_UDEF_STEREO_COUNT>
0

> <PUBCHEM_ISOTOPIC_ATOM_COUNT>
0

> <PUBCHEM_COMPONENT_COUNT>
1

> <PUBCHEM_CACTVS_TAUTO_COUNT>
6

> <PUBCHEM_CONFORMER_ID>
01096EF200000001

> <PUBCHEM_MMFF94_ENERGY>
60.2963

> <PUBCHEM_FEATURE_SELFOVERLAP>
40.594

> <PUBCHEM_SHAPE_FINGERPRINT>
10411042 1 17762055836838577134
10498660 4 18188763934266714832
11211813 74 18269561688991700437
11370993 70 18337953389879295052
12403259 327 15625937591093783564
12553582 1 10303542650130618176
12596602 18 16414917426902771345
12633257 1 15482669031223870196
12730499 353 18409439276567559907
12769317 202 18334864917351123568
13402501 40 18410857642120072756
13590594 115 17834381703048875208
13955234 65 18199184182268148491
13965767 371 17989214737220037710
14251764 38 18341610460064209725
14251764 75 18339348665687631481
14461889 52 18059849542359240651
14468879 13 18200305516175803881
14528608 73 18409730677524694183
14848178 96 18410572903099728665
15961568 22 18060419101402907797
17349148 13 12463565201916745219
17844677 252 18264483074308949865
17980427 23 17972352648635571570
18681886 176 18118409672397688531
20567600 254 18342183245249359805
20715895 44 18341337781180241865
21315763 129 18340773761884958689
21452121 103 18412830213313983818
21709351 56 18265621064063733303
22149856 69 18197752524361664275
23227448 37 18263083232317778335
23559900 14 18265334095787135251
239999 70 18261954179831834391
245318 6 17558815209494688957
2838139 119 18337678494956246148
3246875 12 18266740173932768067
3298306 158 18261112915780906040
345986 75 16839395174201891266
34797466 226 18187359965835215293
43658 37 18408603643150490134
474 4 18411699893695714299
5104073 3 18272363222568527995
5312625 73 18335139770215809209
56633871 153 11743574153846657737
6034566 193 18053640513428106409
6327066 14 18268993081621838156
633830 44 18339929332982002807
7808743 9 18053378799996637012
84936 182 18335418001933139808
9981440 41 18266462010212884386

> <PUBCHEM_SHAPE_MULTIPOLES>
441.67
12.28
4.05
0.96
11.11
1.28
-0.01
-10.42
-1.42
-4.86
-0.36
-0.7
-0.13
0.57

> <PUBCHEM_SHAPE_SELFOVERLAP>
928.744

> <PUBCHEM_SHAPE_VOLUME>
250

> <PUBCHEM_COORDINATE_TYPE>
2
5
10

$$$$

