440167
  -OEChem-07051212493D

 80 84  0     1  0  0  0  0  0999 V2000
    7.1204    1.4938    0.7062 O   0  0  0  0  0  0  0  0  0  0  0  0
    0.9127    2.4062   -1.3368 O   0  0  0  0  0  0  0  0  0  0  0  0
   -6.6794    2.2965   -0.1687 O   0  0  0  0  0  0  0  0  0  0  0  0
   -4.4469    2.7518   -0.3558 O   0  0  0  0  0  0  0  0  0  0  0  0
    0.9427   -1.0890   -0.2617 C   0  0  2  0  0  0  0  0  0  0  0  0
    3.0409    0.6194   -0.4024 C   0  0  2  0  0  0  0  0  0  0  0  0
    1.4940    0.3752   -0.1198 C   0  0  1  0  0  0  0  0  0  0  0  0
   -0.5583   -1.1486    0.3737 C   0  0  1  0  0  0  0  0  0  0  0  0
    3.8617   -0.4542    0.3968 C   0  0  1  0  0  0  0  0  0  0  0  0
    1.9053   -2.0616    0.4718 C   0  0  0  0  0  0  0  0  0  0  0  0
   -1.4345   -0.0486   -0.2469 C   0  0  0  0  0  0  0  0  0  0  0  0
    3.3778   -1.8868    0.0991 C   0  0  0  0  0  0  0  0  0  0  0  0
    5.4337   -0.2881    0.3605 C   0  0  0  0  0  0  0  0  0  0  0  0
   -2.9607   -0.1799   -0.2477 C   0  0  1  0  0  0  0  0  0  0  0  0
   -3.5117   -1.6290   -0.4067 C   0  0  1  0  0  0  0  0  0  0  0  0
   -1.1891   -2.5549    0.1434 C   0  0  0  0  0  0  0  0  0  0  0  0
    3.4242    2.0409    0.1497 C   0  0  0  0  0  0  0  0  0  0  0  0
   -2.6871   -2.6324    0.4292 C   0  0  0  0  0  0  0  0  0  0  0  0
    0.5445    1.3540   -0.8178 C   0  0  0  0  0  0  0  0  0  0  0  0
    0.8927   -1.5278   -1.7585 C   0  0  0  0  0  0  0  0  0  0  0  0
    5.8242    1.2103    0.1805 C   0  0  1  0  0  0  0  0  0  0  0  0
    3.3743    0.5926   -1.9152 C   0  0  0  0  0  0  0  0  0  0  0  0
    4.8020    2.1477    0.8069 C   0  0  0  0  0  0  0  0  0  0  0  0
   -0.5469   -0.8990    1.9113 C   0  0  0  0  0  0  0  0  0  0  0  0
   -3.6136    0.5261    0.9602 C   0  0  0  0  0  0  0  0  0  0  0  0
   -0.9098    1.0619   -0.7979 C   0  0  0  0  0  0  0  0  0  0  0  0
   -4.9931   -1.7231    0.0679 C   0  0  0  0  0  0  0  0  0  0  0  0
   -5.1330    0.7289    0.7383 C   0  0  1  0  0  0  0  0  0  0  0  0
   -5.7532   -0.4088   -0.1029 C   0  0  0  0  0  0  0  0  0  0  0  0
    6.0009   -0.8410    1.6980 C   0  0  0  0  0  0  0  0  0  0  0  0
    6.1192   -1.0991   -0.7618 C   0  0  0  0  0  0  0  0  0  0  0  0
   -3.4529   -2.0233   -1.9029 C   0  0  0  0  0  0  0  0  0  0  0  0
   -5.8379    0.8563    2.0956 C   0  0  0  0  0  0  0  0  0  0  0  0
   -5.3632    2.0335    0.0143 C   0  0  0  0  0  0  0  0  0  0  0  0
    1.3927    0.6351    0.9422 H   0  0  0  0  0  0  0  0  0  0  0  0
    3.5840   -0.2779    1.4498 H   0  0  0  0  0  0  0  0  0  0  0  0
    1.6171   -3.1021    0.2805 H   0  0  0  0  0  0  0  0  0  0  0  0
    1.8423   -1.9223    1.5551 H   0  0  0  0  0  0  0  0  0  0  0  0
    3.9523   -2.6088    0.6902 H   0  0  0  0  0  0  0  0  0  0  0  0
    3.5375   -2.1580   -0.9485 H   0  0  0  0  0  0  0  0  0  0  0  0
   -3.3048    0.3744   -1.1355 H   0  0  0  0  0  0  0  0  0  0  0  0
   -0.6816   -3.2961    0.7737 H   0  0  0  0  0  0  0  0  0  0  0  0
   -1.0477   -2.8983   -0.8829 H   0  0  0  0  0  0  0  0  0  0  0  0
    2.6927    2.3831    0.8928 H   0  0  0  0  0  0  0  0  0  0  0  0
    3.3735    2.7779   -0.6624 H   0  0  0  0  0  0  0  0  0  0  0  0
   -3.0313   -3.6550    0.2247 H   0  0  0  0  0  0  0  0  0  0  0  0
   -2.8606   -2.4737    1.4998 H   0  0  0  0  0  0  0  0  0  0  0  0
    0.1215   -1.0032   -2.3290 H   0  0  0  0  0  0  0  0  0  0  0  0
    1.8305   -1.3713   -2.2832 H   0  0  0  0  0  0  0  0  0  0  0  0
    0.7029   -2.6014   -1.8584 H   0  0  0  0  0  0  0  0  0  0  0  0
    5.8925    1.4574   -0.8838 H   0  0  0  0  0  0  0  0  0  0  0  0
    2.5584    0.9832   -2.5291 H   0  0  0  0  0  0  0  0  0  0  0  0
    4.2460    1.2055   -2.1597 H   0  0  0  0  0  0  0  0  0  0  0  0
    3.6035   -0.4087   -2.2819 H   0  0  0  0  0  0  0  0  0  0  0  0
    5.1554    3.1851    0.7539 H   0  0  0  0  0  0  0  0  0  0  0  0
    4.7186    1.9337    1.8803 H   0  0  0  0  0  0  0  0  0  0  0  0
   -0.1261    0.0728    2.1827 H   0  0  0  0  0  0  0  0  0  0  0  0
   -1.5509   -0.9160    2.3415 H   0  0  0  0  0  0  0  0  0  0  0  0
    0.0087   -1.6725    2.4491 H   0  0  0  0  0  0  0  0  0  0  0  0
   -3.4668   -0.0896    1.8553 H   0  0  0  0  0  0  0  0  0  0  0  0
   -3.1119    1.4772    1.1798 H   0  0  0  0  0  0  0  0  0  0  0  0
   -1.5467    1.8261   -1.2343 H   0  0  0  0  0  0  0  0  0  0  0  0
   -5.0402   -2.0042    1.1282 H   0  0  0  0  0  0  0  0  0  0  0  0
   -5.5166   -2.5217   -0.4727 H   0  0  0  0  0  0  0  0  0  0  0  0
   -5.7643   -0.1448   -1.1687 H   0  0  0  0  0  0  0  0  0  0  0  0
   -6.8039   -0.5631    0.1737 H   0  0  0  0  0  0  0  0  0  0  0  0
    7.0962   -0.8137    1.7173 H   0  0  0  0  0  0  0  0  0  0  0  0
    5.6409   -0.2582    2.5529 H   0  0  0  0  0  0  0  0  0  0  0  0
    5.7096   -1.8836    1.8613 H   0  0  0  0  0  0  0  0  0  0  0  0
    5.7698   -0.8021   -1.7537 H   0  0  0  0  0  0  0  0  0  0  0  0
    7.2057   -0.9549   -0.7489 H   0  0  0  0  0  0  0  0  0  0  0  0
    5.9459   -2.1748   -0.6531 H   0  0  0  0  0  0  0  0  0  0  0  0
   -4.1355   -1.4083   -2.5001 H   0  0  0  0  0  0  0  0  0  0  0  0
   -2.4520   -1.8939   -2.3262 H   0  0  0  0  0  0  0  0  0  0  0  0
   -3.7432   -3.0701   -2.0471 H   0  0  0  0  0  0  0  0  0  0  0  0
   -5.4470    1.7076    2.6655 H   0  0  0  0  0  0  0  0  0  0  0  0
   -6.9189    1.0042    1.9918 H   0  0  0  0  0  0  0  0  0  0  0  0
   -5.6923   -0.0457    2.7007 H   0  0  0  0  0  0  0  0  0  0  0  0
    7.7663    0.9706    0.2027 H   0  0  0  0  0  0  0  0  0  0  0  0
   -6.8215    3.1447   -0.6405 H   0  0  0  0  0  0  0  0  0  0  0  0
  1 21  1  0  0  0  0
  1 79  1  0  0  0  0
  2 19  2  0  0  0  0
  3 34  1  0  0  0  0
  3 80  1  0  0  0  0
  4 34  2  0  0  0  0
  5  7  1  0  0  0  0
  5  8  1  0  0  0  0
  5 10  1  0  0  0  0
  5 20  1  0  0  0  0
  6  7  1  0  0  0  0
  6  9  1  0  0  0  0
  6 17  1  0  0  0  0
  6 22  1  0  0  0  0
  7 19  1  0  0  0  0
  7 35  1  0  0  0  0
  8 11  1  0  0  0  0
  8 16  1  0  0  0  0
  8 24  1  0  0  0  0
  9 12  1  0  0  0  0
  9 13  1  0  0  0  0
  9 36  1  0  0  0  0
 10 12  1  0  0  0  0
 10 37  1  0  0  0  0
 10 38  1  0  0  0  0
 11 14  1  0  0  0  0
 11 26  2  0  0  0  0
 12 39  1  0  0  0  0
 12 40  1  0  0  0  0
 13 21  1  0  0  0  0
 13 30  1  0  0  0  0
 13 31  1  0  0  0  0
 14 15  1  0  0  0  0
 14 25  1  0  0  0  0
 14 41  1  0  0  0  0
 15 18  1  0  0  0  0
 15 27  1  0  0  0  0
 15 32  1  0  0  0  0
 16 18  1  0  0  0  0
 16 42  1  0  0  0  0
 16 43  1  0  0  0  0
 17 23  1  0  0  0  0
 17 44  1  0  0  0  0
 17 45  1  0  0  0  0
 18 46  1  0  0  0  0
 18 47  1  0  0  0  0
 19 26  1  0  0  0  0
 20 48  1  0  0  0  0
 20 49  1  0  0  0  0
 20 50  1  0  0  0  0
 21 23  1  0  0  0  0
 21 51  1  0  0  0  0
 22 52  1  0  0  0  0
 22 53  1  0  0  0  0
 22 54  1  0  0  0  0
 23 55  1  0  0  0  0
 23 56  1  0  0  0  0
 24 57  1  0  0  0  0
 24 58  1  0  0  0  0
 24 59  1  0  0  0  0
 25 28  1  0  0  0  0
 25 60  1  0  0  0  0
 25 61  1  0  0  0  0
 26 62  1  0  0  0  0
 27 29  1  0  0  0  0
 27 63  1  0  0  0  0
 27 64  1  0  0  0  0
 28 29  1  0  0  0  0
 28 33  1  0  0  0  0
 28 34  1  0  0  0  0
 29 65  1  0  0  0  0
 29 66  1  0  0  0  0
 30 67  1  0  0  0  0
 30 68  1  0  0  0  0
 30 69  1  0  0  0  0
 31 70  1  0  0  0  0
 31 71  1  0  0  0  0
 31 72  1  0  0  0  0
 32 73  1  0  0  0  0
 32 74  1  0  0  0  0
 32 75  1  0  0  0  0
 33 76  1  0  0  0  0
 33 77  1  0  0  0  0
 33 78  1  0  0  0  0
M  END
> <PUBCHEM_COMPOUND_CID>
440167

> <PUBCHEM_CONFORMER_RMSD>
0.8

> <PUBCHEM_CONFORMER_DIVERSEORDER>
2
1

> <PUBCHEM_MMFF94_PARTIAL_CHARGES>
16
1 -0.68
11 -0.28
14 0.14
19 0.49
2 -0.57
21 0.28
26 -0.14
28 0.06
3 -0.65
34 0.66
4 -0.57
62 0.15
7 0.06
79 0.4
8 0.14
80 0.5

> <PUBCHEM_EFFECTIVE_ROTOR_COUNT>
3.4

> <PUBCHEM_PHARMACOPHORE_FEATURES>
12
1 1 acceptor
1 1 donor
1 2 acceptor
1 3 acceptor
1 4 acceptor
3 13 30 31 hydrophobe
3 3 4 34 anion
6 14 15 25 27 28 29 rings
6 5 6 7 9 10 12 rings
6 5 7 8 11 19 26 rings
6 6 9 13 17 21 23 rings
6 8 11 14 15 16 18 rings

> <PUBCHEM_HEAVY_ATOM_COUNT>
34

> <PUBCHEM_ATOM_DEF_STEREO_COUNT>
9

> <PUBCHEM_ATOM_UDEF_STEREO_COUNT>
0

> <PUBCHEM_BOND_DEF_STEREO_COUNT>
0

> <PUBCHEM_BOND_UDEF_STEREO_COUNT>
0

> <PUBCHEM_ISOTOPIC_ATOM_COUNT>
0

> <PUBCHEM_COMPONENT_COUNT>
1

> <PUBCHEM_CACTVS_TAUTO_COUNT>
5

> <PUBCHEM_CONFORMER_ID>
0006B76700000002

> <PUBCHEM_MMFF94_ENERGY>
157.532

> <PUBCHEM_FEATURE_SELFOVERLAP>
61.013

> <PUBCHEM_SHAPE_FINGERPRINT>
10 15 18343578551649422937
10906281 52 18059844040152725358
11135609 201 17897152728249949905
11578080 2 5110634993966900843
12107183 9 18269564999587987730
12236239 1 18259703384897739962
12422481 6 18341898510576957878
12633257 1 17560521690279208172
12788726 201 17386000732102809833
13140716 1 18056472846680013876
13583140 156 15864076450925069735
13690498 29 17024041350264128311
13811026 1 18409451375326967150
14020679 6 17489581230040783576
14394314 77 18408599293151324057
144659 39 18040436594279875911
14747282 305 14908186386855614425
14790565 3 18412542089495731974
14849402 71 18268143163228353544
14856354 85 18271233920874221087
15021287 119 17275102812562591093
15131766 46 15649055897822215232
15183329 4 18410575080431603658
15238133 3 18202272602871057854
15461852 350 17676213446742711733
15788980 27 17775286053753348943
17349148 13 17775005670046510566
17980427 23 18335138648659711269
1813 80 16773802476622031558
20511986 3 18334023790976681667
20715895 44 18335983163657516529
21033648 29 16414933945441132303
21130935 74 18413111658564222730
21236236 1 18335986389568274375
21279426 13 18334853939746589196
21304253 335 18412539911968327823
21421861 104 17774171226836990698
21859007 373 17844535620102092085
23522609 53 17845067684840322764
23559900 14 17823119280628342038
23569914 2 17393377308327903177
23569943 247 18057611060723111354
24771293 8 18339930291134548532
2838139 119 18408609149388351273
32027 91 17024567092462255686
335352 9 18413387657008464942
34797466 226 17313657157598742726
350125 39 18342738559157175772
3633792 109 18262521528380061357
3680242 22 18131070450449542314
404807 14 17176846296087656582
4073 2 18200591398353689874
4093350 32 17458340858565606358
4144715 1 18341884178103234771
4169191 19 18128258891954439364
5104073 3 18341895143333446786
513202 73 16629697286918862310
6086070 43 17531258222497117393
6328613 192 18335139790925956304
7226269 152 18187362151536102289
7495541 125 13326851110939677510
9981440 41 17116914721997526089

> <PUBCHEM_SHAPE_MULTIPOLES>
676.23
16.27
2.84
1.47
2.71
0.25
0.01
6.31
3.97
-1.62
-0.26
-0.06
-0.14
-0.48

> <PUBCHEM_SHAPE_SELFOVERLAP>
1445.275

> <PUBCHEM_SHAPE_VOLUME>
368.6

> <PUBCHEM_COORDINATE_TYPE>
2
5
10

$$$$

