6436023
  -OEChem-07051213092D

 59 60  0     1  0  0  0  0  0999 V2000
    6.1962    3.5429    0.0000 O   0  0  0  0  0  0  0  0  0  0  0  0
    6.1084    5.8907    0.0000 O   0  0  0  0  0  0  0  0  0  0  0  0
    8.4562    4.8030    0.0000 O   0  0  0  0  0  0  0  0  0  0  0  0
    4.5981   -3.9571    0.0000 O   0  0  0  0  0  0  0  0  0  0  0  0
    2.0000   -5.4571    0.0000 O   0  0  0  0  0  0  0  0  0  0  0  0
    5.4641   -5.4571    0.0000 O   0  0  0  0  0  0  0  0  0  0  0  0
    6.6962    5.0817    0.0000 C   0  0  2  0  0  0  0  0  0  0  0  0
    7.5052    4.4939    0.0000 C   0  0  2  0  0  0  0  0  0  0  0  0
    7.1962    3.5429    0.0000 C   0  0  1  0  0  0  0  0  0  0  0  0
    5.8871    4.4939    0.0000 C   0  0  1  0  0  0  0  0  0  0  0  0
    7.2839    5.8907    0.0000 C   0  0  0  0  0  0  0  0  0  0  0  0
    8.1472    3.2338    0.0000 C   0  0  0  0  0  0  0  0  0  0  0  0
    4.9361    4.8030    0.0000 C   0  0  0  0  0  0  0  0  0  0  0  0
    7.1962    2.5429    0.0000 C   0  0  0  0  0  0  0  0  0  0  0  0
    6.3301    2.0429    0.0000 C   0  0  0  0  0  0  0  0  0  0  0  0
    5.4641    2.5429    0.0000 C   0  0  0  0  0  0  0  0  0  0  0  0
    6.3301    1.0429    0.0000 C   0  0  0  0  0  0  0  0  0  0  0  0
    5.4641    0.5429    0.0000 C   0  0  0  0  0  0  0  0  0  0  0  0
    5.4641   -0.4571    0.0000 C   0  0  0  0  0  0  0  0  0  0  0  0
    4.5981   -0.9571    0.0000 C   0  0  0  0  0  0  0  0  0  0  0  0
    4.5981   -1.9571    0.0000 C   0  0  0  0  0  0  0  0  0  0  0  0
    3.7320   -2.4571    0.0000 C   0  0  0  0  0  0  0  0  0  0  0  0
    3.7320   -3.4571    0.0000 C   0  0  0  0  0  0  0  0  0  0  0  0
    2.8660   -3.9571    0.0000 C   0  0  0  0  0  0  0  0  0  0  0  0
    2.8660   -4.9571    0.0000 C   0  0  0  0  0  0  0  0  0  0  0  0
    2.0000   -3.4571    0.0000 C   0  0  0  0  0  0  0  0  0  0  0  0
    3.7320   -5.4571    0.0000 C   0  0  0  0  0  0  0  0  0  0  0  0
    4.5981   -4.9571    0.0000 C   0  0  0  0  0  0  0  0  0  0  0  0
    2.0000   -6.4571    0.0000 C   0  0  0  0  0  0  0  0  0  0  0  0
    7.9436    4.0555    0.0000 H   0  0  0  0  0  0  0  0  0  0  0  0
    5.4487    4.0555    0.0000 H   0  0  0  0  0  0  0  0  0  0  0  0
    7.7855    5.5263    0.0000 H   0  0  0  0  0  0  0  0  0  0  0  0
    7.6484    6.3923    0.0000 H   0  0  0  0  0  0  0  0  0  0  0  0
    6.7824    6.2552    0.0000 H   0  0  0  0  0  0  0  0  0  0  0  0
    7.9556    2.6442    0.0000 H   0  0  0  0  0  0  0  0  0  0  0  0
    8.7369    3.0423    0.0000 H   0  0  0  0  0  0  0  0  0  0  0  0
    8.3388    3.8235    0.0000 H   0  0  0  0  0  0  0  0  0  0  0  0
    5.1277    5.3926    0.0000 H   0  0  0  0  0  0  0  0  0  0  0  0
    4.3464    4.9945    0.0000 H   0  0  0  0  0  0  0  0  0  0  0  0
    4.7445    4.2133    0.0000 H   0  0  0  0  0  0  0  0  0  0  0  0
    7.7331    2.2329    0.0000 H   0  0  0  0  0  0  0  0  0  0  0  0
    6.3605    6.4571    0.0000 H   0  0  0  0  0  0  0  0  0  0  0  0
    8.5851    5.4094    0.0000 H   0  0  0  0  0  0  0  0  0  0  0  0
    5.7741    3.0798    0.0000 H   0  0  0  0  0  0  0  0  0  0  0  0
    4.9272    2.8529    0.0000 H   0  0  0  0  0  0  0  0  0  0  0  0
    5.1541    2.0059    0.0000 H   0  0  0  0  0  0  0  0  0  0  0  0
    6.8671    0.7329    0.0000 H   0  0  0  0  0  0  0  0  0  0  0  0
    4.9272    0.8529    0.0000 H   0  0  0  0  0  0  0  0  0  0  0  0
    6.0010   -0.7671    0.0000 H   0  0  0  0  0  0  0  0  0  0  0  0
    4.0611   -0.6471    0.0000 H   0  0  0  0  0  0  0  0  0  0  0  0
    5.1350   -2.2671    0.0000 H   0  0  0  0  0  0  0  0  0  0  0  0
    3.1951   -2.1471    0.0000 H   0  0  0  0  0  0  0  0  0  0  0  0
    2.3100   -2.9202    0.0000 H   0  0  0  0  0  0  0  0  0  0  0  0
    1.4631   -3.1471    0.0000 H   0  0  0  0  0  0  0  0  0  0  0  0
    1.6900   -3.9941    0.0000 H   0  0  0  0  0  0  0  0  0  0  0  0
    3.7320   -6.0771    0.0000 H   0  0  0  0  0  0  0  0  0  0  0  0
    1.3800   -6.4571    0.0000 H   0  0  0  0  0  0  0  0  0  0  0  0
    2.0000   -7.0771    0.0000 H   0  0  0  0  0  0  0  0  0  0  0  0
    2.6200   -6.4571    0.0000 H   0  0  0  0  0  0  0  0  0  0  0  0
  1  9  1  0  0  0  0
  1 10  1  0  0  0  0
  7  2  1  6  0  0  0
  2 42  1  0  0  0  0
  8  3  1  1  0  0  0
  3 43  1  0  0  0  0
  4 23  1  0  0  0  0
  4 28  1  0  0  0  0
  5 25  1  0  0  0  0
  5 29  1  0  0  0  0
  6 28  2  0  0  0  0
  7  8  1  0  0  0  0
  7 10  1  0  0  0  0
  7 11  1  0  0  0  0
  8  9  1  0  0  0  0
  8 30  1  0  0  0  0
  9 12  1  1  0  0  0
  9 14  1  0  0  0  0
 10 13  1  6  0  0  0
 10 31  1  0  0  0  0
 11 32  1  0  0  0  0
 11 33  1  0  0  0  0
 11 34  1  0  0  0  0
 12 35  1  0  0  0  0
 12 36  1  0  0  0  0
 12 37  1  0  0  0  0
 13 38  1  0  0  0  0
 13 39  1  0  0  0  0
 13 40  1  0  0  0  0
 14 15  2  0  0  0  0
 14 41  1  0  0  0  0
 15 16  1  0  0  0  0
 15 17  1  0  0  0  0
 16 44  1  0  0  0  0
 16 45  1  0  0  0  0
 16 46  1  0  0  0  0
 17 18  2  0  0  0  0
 17 47  1  0  0  0  0
 18 19  1  0  0  0  0
 18 48  1  0  0  0  0
 19 20  2  0  0  0  0
 19 49  1  0  0  0  0
 20 21  1  0  0  0  0
 20 50  1  0  0  0  0
 21 22  2  0  0  0  0
 21 51  1  0  0  0  0
 22 23  1  0  0  0  0
 22 52  1  0  0  0  0
 23 24  2  0  0  0  0
 24 25  1  0  0  0  0
 24 26  1  0  0  0  0
 25 27  2  0  0  0  0
 26 53  1  0  0  0  0
 26 54  1  0  0  0  0
 26 55  1  0  0  0  0
 27 28  1  0  0  0  0
 27 56  1  0  0  0  0
 29 57  1  0  0  0  0
 29 58  1  0  0  0  0
 29 59  1  0  0  0  0
M  END
> <PUBCHEM_COMPOUND_CID>
6436023

> <PUBCHEM_COMPOUND_CANONICALIZED>
1

> <PUBCHEM_CACTVS_COMPLEXITY>
828

> <PUBCHEM_CACTVS_HBOND_ACCEPTOR>
6

> <PUBCHEM_CACTVS_HBOND_DONOR>
2

> <PUBCHEM_CACTVS_ROTATABLE_BOND>
6

> <PUBCHEM_CACTVS_SUBSKEYS>
AAADceB4OAAAAAAAAAAAAAAAAAAAASAAAAAgAAAAAAAAAAAAAAAAGgAACAAADFSggAICCAAABgCIAiDSCAAACAAgIAAICAAAAEgJFAIAIQACUAAFwAALoQOAAAAOAAAAAAAAAAAAAAAAAAAAAAAAAAAAAA==

> <PUBCHEM_IUPAC_OPENEYE_NAME>
6-[(1E,3E,5E,7E)-8-[(2S,3R,4R,5R)-3,4-dihydroxy-2,4,5-trimethyl-tetrahydrofuran-2-yl]-7-methyl-octa-1,3,5,7-tetraenyl]-4-methoxy-5-methyl-pyran-2-one

> <PUBCHEM_IUPAC_CAS_NAME>
6-[(1E,3E,5E,7E)-8-[(2S,3R,4R,5R)-3,4-dihydroxy-2,4,5-trimethyl-2-oxolanyl]-7-methylocta-1,3,5,7-tetraenyl]-4-methoxy-5-methyl-2-pyranone

> <PUBCHEM_IUPAC_NAME>
6-[(1E,3E,5E,7E)-8-[(2S,3R,4R,5R)-3,4-dihydroxy-2,4,5-trimethyloxolan-2-yl]-7-methylocta-1,3,5,7-tetraenyl]-4-methoxy-5-methylpyran-2-one

> <PUBCHEM_IUPAC_SYSTEMATIC_NAME>
4-methoxy-5-methyl-6-[(1E,3E,5E,7E)-7-methyl-8-[(2S,3R,4R,5R)-2,4,5-trimethyl-3,4-bis(oxidanyl)oxolan-2-yl]octa-1,3,5,7-tetraenyl]pyran-2-one

> <PUBCHEM_IUPAC_TRADITIONAL_NAME>
6-[(1E,3E,5E,7E)-8-[(2S,3R,4R,5R)-3,4-dihydroxy-2,4,5-trimethyl-tetrahydrofuran-2-yl]-7-methyl-octa-1,3,5,7-tetraenyl]-4-methoxy-5-methyl-pyran-2-one

> <PUBCHEM_IUPAC_INCHI>
InChI=1S/C23H30O6/c1-15(14-22(4)21(25)23(5,26)17(3)29-22)11-9-7-8-10-12-18-16(2)19(27-6)13-20(24)28-18/h7-14,17,21,25-26H,1-6H3/b8-7+,11-9+,12-10+,15-14+/t17-,21+,22+,23+/m1/s1

> <PUBCHEM_IUPAC_INCHIKEY>
JLSVDPQAIKFBTO-OMCRQDLASA-N

> <PUBCHEM_XLOGP3_AA>
2.6

> <PUBCHEM_EXACT_MASS>
402.204239

> <PUBCHEM_MOLECULAR_FORMULA>
C23H30O6

> <PUBCHEM_MOLECULAR_WEIGHT>
402.4807

> <PUBCHEM_OPENEYE_CAN_SMILES>
CC1C(C(C(O1)(C)C=C(C)C=CC=CC=CC2=C(C(=CC(=O)O2)OC)C)O)(C)O

> <PUBCHEM_OPENEYE_ISO_SMILES>
C[C@@H]1[C@]([C@H]([C@](O1)(C)/C=C(\C)/C=C/C=C/C=C/C2=C(C(=CC(=O)O2)OC)C)O)(C)O

> <PUBCHEM_CACTVS_TPSA>
85.2

> <PUBCHEM_MONOISOTOPIC_WEIGHT>
402.204239

> <PUBCHEM_TOTAL_CHARGE>
0

> <PUBCHEM_HEAVY_ATOM_COUNT>
29

> <PUBCHEM_ATOM_DEF_STEREO_COUNT>
4

> <PUBCHEM_ATOM_UDEF_STEREO_COUNT>
0

> <PUBCHEM_BOND_DEF_STEREO_COUNT>
4

> <PUBCHEM_BOND_UDEF_STEREO_COUNT>
0

> <PUBCHEM_ISOTOPIC_ATOM_COUNT>
0

> <PUBCHEM_COMPONENT_COUNT>
1

> <PUBCHEM_CACTVS_TAUTO_COUNT>
1

> <PUBCHEM_COORDINATE_TYPE>
1
5
255

> <PUBCHEM_BONDANNOTATIONS>
10  13  6
7  2  6
23  24  8
24  25  8
25  27  8
27  28  8
8  3  5
4  23  8
4  28  8
9  12  5

$$$$

