13020
  -OEChem-06261207392D

 23 23  0     1  0  0  0  0  0999 V2000
    2.8090    0.3196    0.0000 O   0  0  0  0  0  0  0  0  0  0  0  0
    5.9360   -1.6669    0.0000 O   0  0  0  0  0  0  0  0  0  0  0  0
    3.6180    0.9074    0.0000 C   0  0  3  0  0  0  0  0  0  0  0  0
    3.3090    1.8585    0.0000 C   0  0  0  0  0  0  0  0  0  0  0  0
    4.5691    0.5984    0.0000 C   0  0  0  0  0  0  0  0  0  0  0  0
    2.3090    1.8585    0.0000 C   0  0  0  0  0  0  0  0  0  0  0  0
    2.0000    0.9074    0.0000 C   0  0  0  0  0  0  0  0  0  0  0  0
    4.7770   -0.3797    0.0000 C   0  0  0  0  0  0  0  0  0  0  0  0
    5.7281   -0.6888    0.0000 C   0  0  0  0  0  0  0  0  0  0  0  0
    3.7150    0.2951    0.0000 H   0  0  0  0  0  0  0  0  0  0  0  0
    3.9155    1.9874    0.0000 H   0  0  0  0  0  0  0  0  0  0  0  0
    3.2442    2.4751    0.0000 H   0  0  0  0  0  0  0  0  0  0  0  0
    5.1887    0.6201    0.0000 H   0  0  0  0  0  0  0  0  0  0  0  0
    4.6554    1.2124    0.0000 H   0  0  0  0  0  0  0  0  0  0  0  0
    2.3738    2.4751    0.0000 H   0  0  0  0  0  0  0  0  0  0  0  0
    1.7026    1.9874    0.0000 H   0  0  0  0  0  0  0  0  0  0  0  0
    1.4336    1.1596    0.0000 H   0  0  0  0  0  0  0  0  0  0  0  0
    1.6900    0.3705    0.0000 H   0  0  0  0  0  0  0  0  0  0  0  0
    4.1574   -0.4014    0.0000 H   0  0  0  0  0  0  0  0  0  0  0  0
    4.6907   -0.9937    0.0000 H   0  0  0  0  0  0  0  0  0  0  0  0
    6.3477   -0.6671    0.0000 H   0  0  0  0  0  0  0  0  0  0  0  0
    5.8144   -0.0748    0.0000 H   0  0  0  0  0  0  0  0  0  0  0  0
    6.5256   -1.8585    0.0000 H   0  0  0  0  0  0  0  0  0  0  0  0
  1  3  1  0  0  0  0
  1  7  1  0  0  0  0
  2  9  1  0  0  0  0
  2 23  1  0  0  0  0
  3  4  1  0  0  0  0
  3  5  1  0  0  0  0
  3 10  1  0  0  0  0
  4  6  1  0  0  0  0
  4 11  1  0  0  0  0
  4 12  1  0  0  0  0
  5  8  1  0  0  0  0
  5 13  1  0  0  0  0
  5 14  1  0  0  0  0
  6  7  1  0  0  0  0
  6 15  1  0  0  0  0
  6 16  1  0  0  0  0
  7 17  1  0  0  0  0
  7 18  1  0  0  0  0
  8  9  1  0  0  0  0
  8 19  1  0  0  0  0
  8 20  1  0  0  0  0
  9 21  1  0  0  0  0
  9 22  1  0  0  0  0
M  END
> <PUBCHEM_COMPOUND_CID>
13020

> <PUBCHEM_COMPOUND_CANONICALIZED>
1

> <PUBCHEM_CACTVS_COMPLEXITY>
73.3

> <PUBCHEM_CACTVS_HBOND_ACCEPTOR>
2

> <PUBCHEM_CACTVS_HBOND_DONOR>
1

> <PUBCHEM_CACTVS_ROTATABLE_BOND>
3

> <PUBCHEM_CACTVS_SUBSKEYS>
AAADccBgMAAAAAAAAAAAAAAAAAAAASAAAAAAAAAAAAAAAAAAAAAAGgAACAAACBSggAIAAAAABgAAAAAAAAAAAAAAAAAAAAAAAAAAEAIAAAACQAAEAAAAAAHAwCAAAAAAAAAAAAAAAAAAAAAAAAAAAAAAAA==

> <PUBCHEM_IUPAC_OPENEYE_NAME>
3-tetrahydrofuran-2-ylpropan-1-ol

> <PUBCHEM_IUPAC_CAS_NAME>
3-(2-oxolanyl)-1-propanol

> <PUBCHEM_IUPAC_NAME>
3-(oxolan-2-yl)propan-1-ol

> <PUBCHEM_IUPAC_SYSTEMATIC_NAME>
3-(oxolan-2-yl)propan-1-ol

> <PUBCHEM_IUPAC_TRADITIONAL_NAME>
3-(tetrahydrofuryl)propan-1-ol

> <PUBCHEM_IUPAC_INCHI>
InChI=1S/C7H14O2/c8-5-1-3-7-4-2-6-9-7/h7-8H,1-6H2

> <PUBCHEM_IUPAC_INCHIKEY>
XVYHFICIWQBZDI-UHFFFAOYSA-N

> <PUBCHEM_XLOGP3_AA>
0.7

> <PUBCHEM_EXACT_MASS>
130.09938

> <PUBCHEM_MOLECULAR_FORMULA>
C7H14O2

> <PUBCHEM_MOLECULAR_WEIGHT>
130.18486

> <PUBCHEM_OPENEYE_CAN_SMILES>
C1CC(OC1)CCCO

> <PUBCHEM_OPENEYE_ISO_SMILES>
C1CC(OC1)CCCO

> <PUBCHEM_CACTVS_TPSA>
29.5

> <PUBCHEM_MONOISOTOPIC_WEIGHT>
130.09938

> <PUBCHEM_TOTAL_CHARGE>
0

> <PUBCHEM_HEAVY_ATOM_COUNT>
9

> <PUBCHEM_ATOM_DEF_STEREO_COUNT>
0

> <PUBCHEM_ATOM_UDEF_STEREO_COUNT>
1

> <PUBCHEM_BOND_DEF_STEREO_COUNT>
0

> <PUBCHEM_BOND_UDEF_STEREO_COUNT>
0

> <PUBCHEM_ISOTOPIC_ATOM_COUNT>
0

> <PUBCHEM_COMPONENT_COUNT>
1

> <PUBCHEM_CACTVS_TAUTO_COUNT>
1

> <PUBCHEM_COORDINATE_TYPE>
1
5
255

> <PUBCHEM_BONDANNOTATIONS>
3  5  3

$$$$

