110
  -OEChem-07051212503D

 13 12  0     1  0  0  0  0  0999 V2000
    2.1553   -0.1312    0.4191 S   0  0  2  0  0  0  0  0  0  0  0  0
    2.9980    1.1808    0.0266 O   0  0  0  0  0  0  0  0  0  0  0  0
   -0.5226   -1.4820    0.3124 O   0  0  0  0  0  0  0  0  0  0  0  0
    2.3488   -1.1393   -0.6716 O   0  0  0  0  0  0  0  0  0  0  0  0
   -2.8762   -0.6593   -0.0461 O   0  0  0  0  0  0  0  0  0  0  0  0
   -2.1294    1.5029   -0.2212 O   0  0  0  0  0  0  0  0  0  0  0  0
    0.5655    0.6929    0.1261 C   0  0  0  0  0  0  0  0  0  0  0  0
   -0.5867   -0.2742    0.1387 C   0  0  0  0  0  0  0  0  0  0  0  0
   -1.9528    0.3094   -0.0840 C   0  0  0  0  0  0  0  0  0  0  0  0
    0.4235    1.4374    0.9144 H   0  0  0  0  0  0  0  0  0  0  0  0
    0.6027    1.1806   -0.8528 H   0  0  0  0  0  0  0  0  0  0  0  0
    3.8254    0.9287   -0.4467 H   0  0  0  0  0  0  0  0  0  0  0  0
   -3.7856   -0.3112   -0.1645 H   0  0  0  0  0  0  0  0  0  0  0  0
  1  2  1  0  0  0  0
  1  4  2  0  0  0  0
  1  7  1  0  0  0  0
  2 12  1  0  0  0  0
  3  8  2  0  0  0  0
  5  9  1  0  0  0  0
  5 13  1  0  0  0  0
  6  9  2  0  0  0  0
  7  8  1  0  0  0  0
  7 10  1  0  0  0  0
  7 11  1  0  0  0  0
  8  9  1  0  0  0  0
M  END
> <PUBCHEM_COMPOUND_CID>
110

> <PUBCHEM_CONFORMER_RMSD>
0.6

> <PUBCHEM_CONFORMER_DIVERSEORDER>
1
5
3
8
9
7
2
6
4

> <PUBCHEM_MMFF94_PARTIAL_CHARGES>
11
1 0.36
12 0.5
13 0.5
2 -0.55
3 -0.57
4 -0.5
5 -0.65
6 -0.57
7 0.25
8 0.51
9 0.72

> <PUBCHEM_EFFECTIVE_ROTOR_COUNT>
3

> <PUBCHEM_PHARMACOPHORE_FEATURES>
4
1 3 acceptor
1 5 acceptor
1 6 acceptor
3 5 6 9 anion

> <PUBCHEM_HEAVY_ATOM_COUNT>
9

> <PUBCHEM_ATOM_DEF_STEREO_COUNT>
0

> <PUBCHEM_ATOM_UDEF_STEREO_COUNT>
0

> <PUBCHEM_BOND_DEF_STEREO_COUNT>
0

> <PUBCHEM_BOND_UDEF_STEREO_COUNT>
0

> <PUBCHEM_ISOTOPIC_ATOM_COUNT>
0

> <PUBCHEM_COMPONENT_COUNT>
1

> <PUBCHEM_CACTVS_TAUTO_COUNT>
2

> <PUBCHEM_CONFORMER_ID>
0000006E00000001

> <PUBCHEM_MMFF94_ENERGY>
9.6017

> <PUBCHEM_FEATURE_SELFOVERLAP>
20.367

> <PUBCHEM_SHAPE_FINGERPRINT>
12932764 1 17774440602215237273
14325111 11 18411420630685319633
14390081 3 18412829092179846016
15310529 11 18040437680743051437
16714656 1 18342460322379876401
19973954 147 18408602595284289728
20653085 51 18337381768318279593
21040471 1 18341615935977940586
23552423 10 18341331196815671810
29004967 10 16877946052713702546
3248919 1 18260840331359955360
5084963 1 18334575758793536185
5460574 1 9079121067709263008

> <PUBCHEM_SHAPE_MULTIPOLES>
159.72
4.4
1.36
0.66
0.54
0.02
0.01
0.51
-0.29
0
-0.06
0.17
-0.06
0.24

> <PUBCHEM_SHAPE_SELFOVERLAP>
295.682

> <PUBCHEM_SHAPE_VOLUME>
100

> <PUBCHEM_COORDINATE_TYPE>
2
5
10

$$$$

