73072
  -OEChem-07051212592D

 27 30  0     0  0  0  0  0  0999 V2000
    6.6361    1.9666    0.0000 O   0  0  0  0  0  0  0  0  0  0  0  0
    8.0944    1.1396    0.0000 O   0  0  0  0  0  0  0  0  0  0  0  0
    4.6660    1.9181    0.0000 O   0  0  0  0  0  0  0  0  0  0  0  0
    4.6660   -2.0819    0.0000 O   0  0  0  0  0  0  0  0  0  0  0  0
    5.5321    0.4181    0.0000 C   0  0  0  0  0  0  0  0  0  0  0  0
    5.5321   -0.5819    0.0000 C   0  0  0  0  0  0  0  0  0  0  0  0
    6.4260    0.9527    0.0000 C   0  0  0  0  0  0  0  0  0  0  0  0
    3.8000    0.4181    0.0000 C   0  0  0  0  0  0  0  0  0  0  0  0
    3.8000   -0.5819    0.0000 C   0  0  0  0  0  0  0  0  0  0  0  0
    4.6660    0.9181    0.0000 C   0  0  0  0  0  0  0  0  0  0  0  0
    7.3321    0.4389    0.0000 C   0  0  0  0  0  0  0  0  0  0  0  0
    4.6660   -1.0819    0.0000 C   0  0  0  0  0  0  0  0  0  0  0  0
    6.4260   -1.1166    0.0000 C   0  0  0  0  0  0  0  0  0  0  0  0
    7.3321   -0.6027    0.0000 C   0  0  0  0  0  0  0  0  0  0  0  0
    7.6651    2.0819    0.0000 C   0  0  0  0  0  0  0  0  0  0  0  0
    2.9061    0.9527    0.0000 C   0  0  0  0  0  0  0  0  0  0  0  0
    2.9061   -1.1166    0.0000 C   0  0  0  0  0  0  0  0  0  0  0  0
    2.0000    0.4389    0.0000 C   0  0  0  0  0  0  0  0  0  0  0  0
    2.0000   -0.6027    0.0000 C   0  0  0  0  0  0  0  0  0  0  0  0
    6.4188   -1.7366    0.0000 H   0  0  0  0  0  0  0  0  0  0  0  0
    7.8678   -0.9148    0.0000 H   0  0  0  0  0  0  0  0  0  0  0  0
    8.2532    2.2782    0.0000 H   0  0  0  0  0  0  0  0  0  0  0  0
    7.5317    2.6874    0.0000 H   0  0  0  0  0  0  0  0  0  0  0  0
    2.9132    1.5727    0.0000 H   0  0  0  0  0  0  0  0  0  0  0  0
    2.9132   -1.7366    0.0000 H   0  0  0  0  0  0  0  0  0  0  0  0
    1.4643    0.7510    0.0000 H   0  0  0  0  0  0  0  0  0  0  0  0
    1.4643   -0.9148    0.0000 H   0  0  0  0  0  0  0  0  0  0  0  0
  1  7  1  0  0  0  0
  1 15  1  0  0  0  0
  2 11  1  0  0  0  0
  2 15  1  0  0  0  0
  3 10  2  0  0  0  0
  4 12  2  0  0  0  0
  5  6  2  0  0  0  0
  5  7  1  0  0  0  0
  5 10  1  0  0  0  0
  6 12  1  0  0  0  0
  6 13  1  0  0  0  0
  7 11  2  0  0  0  0
  8  9  1  0  0  0  0
  8 10  1  0  0  0  0
  8 16  2  0  0  0  0
  9 12  1  0  0  0  0
  9 17  2  0  0  0  0
 11 14  1  0  0  0  0
 13 14  2  0  0  0  0
 13 20  1  0  0  0  0
 14 21  1  0  0  0  0
 15 22  1  0  0  0  0
 15 23  1  0  0  0  0
 16 18  1  0  0  0  0
 16 24  1  0  0  0  0
 17 19  1  0  0  0  0
 17 25  1  0  0  0  0
 18 19  2  0  0  0  0
 18 26  1  0  0  0  0
 19 27  1  0  0  0  0
M  END
> <PUBCHEM_COMPOUND_CID>
73072

> <PUBCHEM_COMPOUND_CANONICALIZED>
1

> <PUBCHEM_CACTVS_COMPLEXITY>
418

> <PUBCHEM_CACTVS_HBOND_ACCEPTOR>
4

> <PUBCHEM_CACTVS_HBOND_DONOR>
0

> <PUBCHEM_CACTVS_ROTATABLE_BOND>
0

> <PUBCHEM_CACTVS_SUBSKEYS>
AAADccBwOAAAAAAAAAAAAAAAAAAAASAAAAAwYMAAAAAAAEjBQAAAGgAAAAAADASAmAMwDoAABACIAqBSAAACCAAkIAAIiAEGiMgdJjaENRqgMWIk4BEOqYeLzPDOoAABAAAYQADAAAYAADCAAAAAAAAAAA==

> <PUBCHEM_IUPAC_OPENEYE_NAME>
naphtho[2,3-g][1,3]benzodioxole-6,11-dione

> <PUBCHEM_IUPAC_CAS_NAME>
naphtho[2,3-g][1,3]benzodioxole-6,11-dione

> <PUBCHEM_IUPAC_NAME>
naphtho[2,3-g][1,3]benzodioxole-6,11-dione

> <PUBCHEM_IUPAC_SYSTEMATIC_NAME>
naphtho[2,3-g][1,3]benzodioxole-6,11-dione

> <PUBCHEM_IUPAC_TRADITIONAL_NAME>
naphtho[2,3-g][1,3]benzodioxole-6,11-quinone

> <PUBCHEM_IUPAC_INCHI>
InChI=1S/C15H8O4/c16-13-8-3-1-2-4-9(8)14(17)12-10(13)5-6-11-15(12)19-7-18-11/h1-6H,7H2

> <PUBCHEM_IUPAC_INCHIKEY>
YBXYYSSRAZPEGN-UHFFFAOYSA-N

> <PUBCHEM_XLOGP3_AA>
2.7

> <PUBCHEM_EXACT_MASS>
252.042259

> <PUBCHEM_MOLECULAR_FORMULA>
C15H8O4

> <PUBCHEM_MOLECULAR_WEIGHT>
252.22162

> <PUBCHEM_OPENEYE_CAN_SMILES>
C1OC2=C(O1)C3=C(C=C2)C(=O)C4=CC=CC=C4C3=O

> <PUBCHEM_OPENEYE_ISO_SMILES>
C1OC2=C(O1)C3=C(C=C2)C(=O)C4=CC=CC=C4C3=O

> <PUBCHEM_CACTVS_TPSA>
52.6

> <PUBCHEM_MONOISOTOPIC_WEIGHT>
252.042259

> <PUBCHEM_TOTAL_CHARGE>
0

> <PUBCHEM_HEAVY_ATOM_COUNT>
19

> <PUBCHEM_ATOM_DEF_STEREO_COUNT>
0

> <PUBCHEM_ATOM_UDEF_STEREO_COUNT>
0

> <PUBCHEM_BOND_DEF_STEREO_COUNT>
0

> <PUBCHEM_BOND_UDEF_STEREO_COUNT>
0

> <PUBCHEM_ISOTOPIC_ATOM_COUNT>
0

> <PUBCHEM_COMPONENT_COUNT>
1

> <PUBCHEM_CACTVS_TAUTO_COUNT>
1

> <PUBCHEM_COORDINATE_TYPE>
1
5
255

> <PUBCHEM_BONDANNOTATIONS>
11  14  8
13  14  8
16  18  8
17  19  8
18  19  8
5  6  8
5  7  8
6  13  8
7  11  8
8  16  8
8  9  8
9  17  8

$$$$

