6435415
  -OEChem-07051212463D

 50 50  0     1  0  0  0  0  0999 V2000
    3.8572    0.6144   -0.4441 S   0  0  0  0  0  0  0  0  0  0  0  0
   -2.2126   -0.4948    1.5830 O   0  0  0  0  0  0  0  0  0  0  0  0
   -0.8348    1.9873    2.5270 O   0  0  0  0  0  0  0  0  0  0  0  0
   -2.9646    2.3500    1.8249 O   0  0  0  0  0  0  0  0  0  0  0  0
    2.8676   -2.9258   -0.7760 O   0  0  0  0  0  0  0  0  0  0  0  0
    3.8784   -2.6639    1.2379 O   0  0  0  0  0  0  0  0  0  0  0  0
   -1.2262    0.5606   -0.2490 N   0  0  0  0  0  0  0  0  0  0  0  0
    1.2256   -1.5281    1.8198 N   0  0  0  0  0  0  0  0  0  0  0  0
   -2.6811   -2.2699   -1.1985 C   0  0  0  0  0  0  0  0  0  0  0  0
   -1.5997   -1.8210   -0.2599 C   0  0  2  0  0  0  0  0  0  0  0  0
   -2.5097   -2.9492    0.1285 C   0  0  0  0  0  0  0  0  0  0  0  0
   -2.2711   -3.0203   -2.4183 C   0  0  0  0  0  0  0  0  0  0  0  0
   -3.8867   -1.4146   -1.3872 C   0  0  0  0  0  0  0  0  0  0  0  0
   -1.7155   -0.5192    0.4627 C   0  0  0  0  0  0  0  0  0  0  0  0
   -1.2348    1.8416    0.2242 C   0  0  0  0  0  0  0  0  0  0  0  0
   -0.7613    2.8959   -0.4616 C   0  0  0  0  0  0  0  0  0  0  0  0
   -0.1514    2.8907   -1.8384 C   0  0  0  0  0  0  0  0  0  0  0  0
   -1.7971    2.0885    1.5785 C   0  0  0  0  0  0  0  0  0  0  0  0
    1.2447    3.5243   -1.8707 C   0  0  0  0  0  0  0  0  0  0  0  0
    2.3063    2.8150   -1.0195 C   0  0  0  0  0  0  0  0  0  0  0  0
    2.5995    1.3952   -1.4975 C   0  0  0  0  0  0  0  0  0  0  0  0
    2.7875    0.1436    0.9344 C   0  0  0  0  0  0  0  0  0  0  0  0
    2.0592   -1.1752    0.6687 C   0  0  1  0  0  0  0  0  0  0  0  0
    3.0204   -2.3249    0.4311 C   0  0  0  0  0  0  0  0  0  0  0  0
   -0.5839   -2.0985   -0.5211 H   0  0  0  0  0  0  0  0  0  0  0  0
   -3.2627   -2.7891    0.8914 H   0  0  0  0  0  0  0  0  0  0  0  0
   -2.0860   -3.9473    0.1524 H   0  0  0  0  0  0  0  0  0  0  0  0
   -3.0776   -3.6803   -2.7556 H   0  0  0  0  0  0  0  0  0  0  0  0
   -1.3859   -3.6433   -2.2478 H   0  0  0  0  0  0  0  0  0  0  0  0
   -2.0346   -2.3279   -3.2334 H   0  0  0  0  0  0  0  0  0  0  0  0
   -4.2470   -0.9693   -0.4535 H   0  0  0  0  0  0  0  0  0  0  0  0
   -4.7137   -2.0027   -1.8002 H   0  0  0  0  0  0  0  0  0  0  0  0
   -3.6725   -0.5988   -2.0860 H   0  0  0  0  0  0  0  0  0  0  0  0
   -0.8418    0.3875   -1.1723 H   0  0  0  0  0  0  0  0  0  0  0  0
   -0.8247    3.8801    0.0024 H   0  0  0  0  0  0  0  0  0  0  0  0
   -0.8076    3.4829   -2.4889 H   0  0  0  0  0  0  0  0  0  0  0  0
   -0.1165    1.8939   -2.2847 H   0  0  0  0  0  0  0  0  0  0  0  0
    1.1734    4.5670   -1.5348 H   0  0  0  0  0  0  0  0  0  0  0  0
    1.5878    3.5613   -2.9123 H   0  0  0  0  0  0  0  0  0  0  0  0
    3.2272    3.4110   -1.0708 H   0  0  0  0  0  0  0  0  0  0  0  0
    1.9890    2.8283    0.0284 H   0  0  0  0  0  0  0  0  0  0  0  0
    2.9971    1.4282   -2.5175 H   0  0  0  0  0  0  0  0  0  0  0  0
    1.7024    0.7731   -1.5230 H   0  0  0  0  0  0  0  0  0  0  0  0
   -1.1890    2.1475    3.4277 H   0  0  0  0  0  0  0  0  0  0  0  0
    3.4386    0.0383    1.8107 H   0  0  0  0  0  0  0  0  0  0  0  0
    2.0793    0.9438    1.1696 H   0  0  0  0  0  0  0  0  0  0  0  0
    1.4118   -1.0717   -0.2069 H   0  0  0  0  0  0  0  0  0  0  0  0
    0.5714   -0.7719    2.0155 H   0  0  0  0  0  0  0  0  0  0  0  0
    0.6608   -2.3469    1.5978 H   0  0  0  0  0  0  0  0  0  0  0  0
    3.5124   -3.6534   -0.9068 H   0  0  0  0  0  0  0  0  0  0  0  0
  1 21  1  0  0  0  0
  1 22  1  0  0  0  0
  2 14  2  0  0  0  0
  3 18  1  0  0  0  0
  3 44  1  0  0  0  0
  4 18  2  0  0  0  0
  5 24  1  0  0  0  0
  5 50  1  0  0  0  0
  6 24  2  0  0  0  0
  7 14  1  0  0  0  0
  7 15  1  0  0  0  0
  7 34  1  0  0  0  0
  8 23  1  0  0  0  0
  8 48  1  0  0  0  0
  8 49  1  0  0  0  0
  9 10  1  0  0  0  0
  9 11  1  0  0  0  0
  9 12  1  0  0  0  0
  9 13  1  0  0  0  0
 10 11  1  0  0  0  0
 10 14  1  0  0  0  0
 10 25  1  0  0  0  0
 11 26  1  0  0  0  0
 11 27  1  0  0  0  0
 12 28  1  0  0  0  0
 12 29  1  0  0  0  0
 12 30  1  0  0  0  0
 13 31  1  0  0  0  0
 13 32  1  0  0  0  0
 13 33  1  0  0  0  0
 15 16  2  0  0  0  0
 15 18  1  0  0  0  0
 16 17  1  0  0  0  0
 16 35  1  0  0  0  0
 17 19  1  0  0  0  0
 17 36  1  0  0  0  0
 17 37  1  0  0  0  0
 19 20  1  0  0  0  0
 19 38  1  0  0  0  0
 19 39  1  0  0  0  0
 20 21  1  0  0  0  0
 20 40  1  0  0  0  0
 20 41  1  0  0  0  0
 21 42  1  0  0  0  0
 21 43  1  0  0  0  0
 22 23  1  0  0  0  0
 22 45  1  0  0  0  0
 22 46  1  0  0  0  0
 23 24  1  0  0  0  0
 23 47  1  0  0  0  0
M  END
> <PUBCHEM_COMPOUND_CID>
6435415

> <PUBCHEM_CONFORMER_RMSD>
1.2

> <PUBCHEM_CONFORMER_DIVERSEORDER>
1
45
40
93
9
46
44
68
14
98
66
27
50
99
32
49
95
94
58
88
74
85
15
69
89
28
78
11
77
64
67
59
55
56
87
10
71
39
23
26
63
79
73
60
37
2
48
34
43
84
54
16
82
36
92
29
33
17
3
91
86
20
8
12
25
6
96
75
52
76
7
13
65
22
38
24
72
30
83
51
35
41
81
61
18
90
80
42
47
70
57
5
19
21
97
4
31
53
62

> <PUBCHEM_MMFF94_PARTIAL_CHARGES>
31
1 -0.46
10 -0.1
11 -0.2
12 0.09
13 0.09
14 0.63
15 0.12
16 -0.29
17 0.14
18 0.71
2 -0.57
21 0.23
22 0.23
23 0.33
24 0.66
25 0.1
26 0.1
27 0.1
3 -0.65
34 0.37
35 0.15
4 -0.57
44 0.5
48 0.36
49 0.36
5 -0.65
50 0.5
6 -0.57
7 -0.54
8 -0.99
9 -0.19

> <PUBCHEM_EFFECTIVE_ROTOR_COUNT>
12.6

> <PUBCHEM_PHARMACOPHORE_FEATURES>
11
1 2 acceptor
1 3 acceptor
1 4 acceptor
1 5 acceptor
1 6 acceptor
1 7 donor
1 8 cation
1 8 donor
3 3 4 18 anion
3 5 6 24 anion
3 9 12 13 hydrophobe

> <PUBCHEM_HEAVY_ATOM_COUNT>
24

> <PUBCHEM_ATOM_DEF_STEREO_COUNT>
2

> <PUBCHEM_ATOM_UDEF_STEREO_COUNT>
0

> <PUBCHEM_BOND_DEF_STEREO_COUNT>
1

> <PUBCHEM_BOND_UDEF_STEREO_COUNT>
0

> <PUBCHEM_ISOTOPIC_ATOM_COUNT>
0

> <PUBCHEM_COMPONENT_COUNT>
1

> <PUBCHEM_CACTVS_TAUTO_COUNT>
3

> <PUBCHEM_CONFORMER_ID>
0062325700000001

> <PUBCHEM_MMFF94_ENERGY>
45.9817

> <PUBCHEM_FEATURE_SELFOVERLAP>
55.938

> <PUBCHEM_SHAPE_FINGERPRINT>
11221954 11 16039993183114864008
11578080 2 18045235838382973361
12539773 59 18191278615848352616
12553582 1 18272644615576953380
12788726 201 18114178631879283539
14251757 17 17557742219468586247
14787075 74 17177705646034338436
23419403 2 16682679307465436355
238 59 17261888649812480663
35225 105 17604158132678465477
463206 1 17541662712073507543
5283178 26 17541085902629633686
6992083 37 18194680603919831090
81228 2 18339093682237488059

> <PUBCHEM_SHAPE_MULTIPOLES>
458.45
6.38
5.08
2.24
1.22
0.31
0.22
3.58
-2.63
-2.48
0.15
0.77
-0.94
-3.2

> <PUBCHEM_SHAPE_SELFOVERLAP>
899.242

> <PUBCHEM_SHAPE_VOLUME>
277.1

> <PUBCHEM_COORDINATE_TYPE>
2
5
10

$$$$

