119287
  -OEChem-07051212562D

 78 82  0     1  0  0  0  0  0999 V2000
    8.2619   -2.3230    0.0000 O   0  0  0  0  0  0  0  0  0  0  0  0
    6.6098    2.6146    0.0000 O   0  0  0  0  0  0  0  0  0  0  0  0
   10.8248   -0.4455    0.0000 O   0  0  0  0  0  0  0  0  0  0  0  0
    9.7258   -4.4432    0.0000 O   0  0  0  0  0  0  0  0  0  0  0  0
    3.9553    4.2908    0.0000 O   0  0  0  0  0  0  0  0  0  0  0  0
    2.1359    3.2590    0.0000 O   0  0  0  0  0  0  0  0  0  0  0  0
    6.6098   -0.3854    0.0000 C   0  0  2  0  0  0  0  0  0  0  0  0
    7.4758    0.1146    0.0000 C   0  0  1  0  0  0  0  0  0  0  0  0
    5.7438    0.1146    0.0000 C   0  0  1  0  0  0  0  0  0  0  0  0
    8.2129   -0.5525    0.0000 C   0  0  2  0  0  0  0  0  0  0  0  0
    5.7438    1.1146    0.0000 C   0  0  1  0  0  0  0  0  0  0  0  0
    6.8190   -1.3572    0.0000 C   0  0  0  0  0  0  0  0  0  0  0  0
    7.8077   -1.4603    0.0000 C   0  0  1  0  0  0  0  0  0  0  0  0
    7.4758    1.1146    0.0000 C   0  0  0  0  0  0  0  0  0  0  0  0
    6.6098    1.6146    0.0000 C   0  0  0  0  0  0  0  0  0  0  0  0
    5.7438   -0.8854    0.0000 C   0  0  0  0  0  0  0  0  0  0  0  0
    9.1583   -0.3144    0.0000 C   0  0  1  0  0  0  0  0  0  0  0  0
    4.8498    1.6492    0.0000 C   0  0  1  0  0  0  0  0  0  0  0  0
    4.8498   -0.4201    0.0000 C   0  0  0  0  0  0  0  0  0  0  0  0
    8.3419    0.6146    0.0000 C   0  0  0  0  0  0  0  0  0  0  0  0
    5.7438    2.1146    0.0000 C   0  0  0  0  0  0  0  0  0  0  0  0
    3.9438    1.1354    0.0000 C   0  0  0  0  0  0  0  0  0  0  0  0
    3.9438    0.0938    0.0000 C   0  0  0  0  0  0  0  0  0  0  0  0
    9.9356   -0.9030    0.0000 C   0  0  0  0  0  0  0  0  0  0  0  0
    9.2191   -2.5084    0.0000 C   0  0  1  0  0  0  0  0  0  0  0  0
    3.0000    1.6706    0.0000 C   0  0  0  0  0  0  0  0  0  0  0  0
    9.3577    0.6656    0.0000 C   0  0  0  0  0  0  0  0  0  0  0  0
    4.8749    2.7340    0.0000 C   0  0  0  0  0  0  0  0  0  0  0  0
    9.9626   -1.8776    0.0000 C   0  0  0  0  0  0  0  0  0  0  0  0
    9.4725   -3.4758    0.0000 C   0  0  0  0  0  0  0  0  0  0  0  0
    3.0000    2.7556    0.0000 C   0  0  0  0  0  0  0  0  0  0  0  0
    3.9438    3.2909    0.0000 C   0  0  0  0  0  0  0  0  0  0  0  0
    2.0000    1.6668    0.0000 C   0  0  0  0  0  0  0  0  0  0  0  0
    2.5033    0.8027    0.0000 C   0  0  0  0  0  0  0  0  0  0  0  0
   10.4399   -3.2224    0.0000 C   0  0  0  0  0  0  0  0  0  0  0  0
    8.5051   -3.7291    0.0000 C   0  0  0  0  0  0  0  0  0  0  0  0
    5.7503   -0.7354    0.0000 H   0  0  0  0  0  0  0  0  0  0  0  0
    8.7597   -1.2032    0.0000 H   0  0  0  0  0  0  0  0  0  0  0  0
    6.2025   -1.4233    0.0000 H   0  0  0  0  0  0  0  0  0  0  0  0
    6.8199   -1.9772    0.0000 H   0  0  0  0  0  0  0  0  0  0  0  0
    7.3313   -2.1642    0.0000 H   0  0  0  0  0  0  0  0  0  0  0  0
    8.0864    1.0069    0.0000 H   0  0  0  0  0  0  0  0  0  0  0  0
    7.6879    1.6972    0.0000 H   0  0  0  0  0  0  0  0  0  0  0  0
    5.4338   -0.3485    0.0000 H   0  0  0  0  0  0  0  0  0  0  0  0
    5.2068   -1.1954    0.0000 H   0  0  0  0  0  0  0  0  0  0  0  0
    6.0538   -1.4223    0.0000 H   0  0  0  0  0  0  0  0  0  0  0  0
    9.7384   -0.0954    0.0000 H   0  0  0  0  0  0  0  0  0  0  0  0
    5.5940    2.0600    0.0000 H   0  0  0  0  0  0  0  0  0  0  0  0
    4.4562   -0.8991    0.0000 H   0  0  0  0  0  0  0  0  0  0  0  0
    5.2544   -0.8899    0.0000 H   0  0  0  0  0  0  0  0  0  0  0  0
    8.6519    0.0777    0.0000 H   0  0  0  0  0  0  0  0  0  0  0  0
    8.8788    0.9246    0.0000 H   0  0  0  0  0  0  0  0  0  0  0  0
    8.0319    1.1515    0.0000 H   0  0  0  0  0  0  0  0  0  0  0  0
    6.3638    2.1146    0.0000 H   0  0  0  0  0  0  0  0  0  0  0  0
    5.7438    2.7346    0.0000 H   0  0  0  0  0  0  0  0  0  0  0  0
    5.1238    2.1146    0.0000 H   0  0  0  0  0  0  0  0  0  0  0  0
    3.4080   -0.2183    0.0000 H   0  0  0  0  0  0  0  0  0  0  0  0
    8.6379   -3.1286    0.0000 H   0  0  0  0  0  0  0  0  0  0  0  0
    9.9652    0.5419    0.0000 H   0  0  0  0  0  0  0  0  0  0  0  0
    9.4813    1.2731    0.0000 H   0  0  0  0  0  0  0  0  0  0  0  0
    8.7502    0.7892    0.0000 H   0  0  0  0  0  0  0  0  0  0  0  0
    5.4178    3.0336    0.0000 H   0  0  0  0  0  0  0  0  0  0  0  0
   10.2479   -2.4280    0.0000 H   0  0  0  0  0  0  0  0  0  0  0  0
   10.5628   -1.7224    0.0000 H   0  0  0  0  0  0  0  0  0  0  0  0
    1.9976    2.2868    0.0000 H   0  0  0  0  0  0  0  0  0  0  0  0
    1.9652    1.1106    0.0000 H   0  0  0  0  0  0  0  0  0  0  0  0
    2.1954    0.2646    0.0000 H   0  0  0  0  0  0  0  0  0  0  0  0
    3.0415    0.4948    0.0000 H   0  0  0  0  0  0  0  0  0  0  0  0
    1.3800    1.6644    0.0000 H   0  0  0  0  0  0  0  0  0  0  0  0
    2.0024    1.0468    0.0000 H   0  0  0  0  0  0  0  0  0  0  0  0
    8.3480   -3.1294    0.0000 H   0  0  0  0  0  0  0  0  0  0  0  0
    7.9053   -3.8862    0.0000 H   0  0  0  0  0  0  0  0  0  0  0  0
    8.6622   -4.3289    0.0000 H   0  0  0  0  0  0  0  0  0  0  0  0
   10.5969   -3.8222    0.0000 H   0  0  0  0  0  0  0  0  0  0  0  0
   11.0396   -3.0653    0.0000 H   0  0  0  0  0  0  0  0  0  0  0  0
   10.2828   -2.6226    0.0000 H   0  0  0  0  0  0  0  0  0  0  0  0
   10.3238   -4.6070    0.0000 H   0  0  0  0  0  0  0  0  0  0  0  0
    3.4220    4.6070    0.0000 H   0  0  0  0  0  0  0  0  0  0  0  0
  1 13  1  0  0  0  0
  1 25  1  0  0  0  0
  2 15  2  0  0  0  0
  3 24  2  0  0  0  0
  4 30  1  0  0  0  0
  4 77  1  0  0  0  0
  5 32  1  0  0  0  0
  5 78  1  0  0  0  0
  6 31  2  0  0  0  0
  7  8  1  0  0  0  0
  7  9  1  0  0  0  0
  7 12  1  0  0  0  0
  7 16  1  6  0  0  0
  8 10  1  0  0  0  0
  8 14  1  0  0  0  0
  8 20  1  1  0  0  0
  9 11  1  0  0  0  0
  9 19  1  0  0  0  0
  9 37  1  1  0  0  0
 10 13  1  0  0  0  0
 10 17  1  0  0  0  0
 10 38  1  6  0  0  0
 11 15  1  0  0  0  0
 11 18  1  0  0  0  0
 11 21  1  1  0  0  0
 12 13  1  0  0  0  0
 12 39  1  0  0  0  0
 12 40  1  0  0  0  0
 13 41  1  1  0  0  0
 14 15  1  0  0  0  0
 14 42  1  0  0  0  0
 14 43  1  0  0  0  0
 16 44  1  0  0  0  0
 16 45  1  0  0  0  0
 16 46  1  0  0  0  0
 17 24  1  0  0  0  0
 17 27  1  6  0  0  0
 17 47  1  0  0  0  0
 18 22  1  0  0  0  0
 18 28  1  0  0  0  0
 18 48  1  6  0  0  0
 19 23  1  0  0  0  0
 19 49  1  0  0  0  0
 19 50  1  0  0  0  0
 20 51  1  0  0  0  0
 20 52  1  0  0  0  0
 20 53  1  0  0  0  0
 21 54  1  0  0  0  0
 21 55  1  0  0  0  0
 21 56  1  0  0  0  0
 22 23  2  0  0  0  0
 22 26  1  0  0  0  0
 23 57  1  0  0  0  0
 24 29  1  0  0  0  0
 25 29  1  0  0  0  0
 25 30  1  0  0  0  0
 25 58  1  6  0  0  0
 26 31  1  0  0  0  0
 26 33  1  0  0  0  0
 26 34  1  0  0  0  0
 27 59  1  0  0  0  0
 27 60  1  0  0  0  0
 27 61  1  0  0  0  0
 28 32  2  0  0  0  0
 28 62  1  0  0  0  0
 29 63  1  0  0  0  0
 29 64  1  0  0  0  0
 30 35  1  0  0  0  0
 30 36  1  0  0  0  0
 31 32  1  0  0  0  0
 33 65  1  0  0  0  0
 33 69  1  0  0  0  0
 33 70  1  0  0  0  0
 34 66  1  0  0  0  0
 34 67  1  0  0  0  0
 34 68  1  0  0  0  0
 35 74  1  0  0  0  0
 35 75  1  0  0  0  0
 35 76  1  0  0  0  0
 36 71  1  0  0  0  0
 36 72  1  0  0  0  0
 36 73  1  0  0  0  0
M  END
> <PUBCHEM_COMPOUND_CID>
119287

> <PUBCHEM_COMPOUND_CANONICALIZED>
1

> <PUBCHEM_CACTVS_COMPLEXITY>
1110

> <PUBCHEM_CACTVS_HBOND_ACCEPTOR>
6

> <PUBCHEM_CACTVS_HBOND_DONOR>
2

> <PUBCHEM_CACTVS_ROTATABLE_BOND>
1

> <PUBCHEM_CACTVS_SUBSKEYS>
AAADcfB4OAAAAAAAAAAAAAAAAAAAAYAAAAAwQIAABIAAAGCQAAAAGgAACAAAD1SggAICAAAABgCIAqBSAAIAAAAgIAAACAFAAEgBABYAAQACQAAEoAALAYOKzPDPgAAAAAAAAACAAAQAACAAAYAADAAAAA==

> <PUBCHEM_IUPAC_INCHI>
InChI=1S/C30H42O6/c1-15-18(31)12-23(27(4,5)35)36-20-13-28(6)21-10-9-16-17(11-19(32)25(34)26(16,2)3)30(21,8)22(33)14-29(28,7)24(15)20/h9,11,15,17,20-21,23-24,32,35H,10,12-14H2,1-8H3/t15-,17-,20-,21+,23+,24+,28+,29-,30+/m1/s1

> <PUBCHEM_IUPAC_INCHIKEY>
MBYLRWSUZLFUTO-PQNVQGKDSA-N

> <PUBCHEM_XLOGP3_AA>
3.2

> <PUBCHEM_EXACT_MASS>
498.298139

> <PUBCHEM_MOLECULAR_FORMULA>
C30H42O6

> <PUBCHEM_MOLECULAR_WEIGHT>
498.65088

> <PUBCHEM_OPENEYE_CAN_SMILES>
CC1C2C(CC3(C2(CC(=O)C4(C3CC=C5C4C=C(C(=O)C5(C)C)O)C)C)C)OC(CC1=O)C(C)(C)O

> <PUBCHEM_OPENEYE_ISO_SMILES>
C[C@H]1[C@H]2[C@@H](C[C@@]3([C@@]2(CC(=O)[C@@]4([C@H]3CC=C5[C@H]4C=C(C(=O)C5(C)C)O)C)C)C)O[C@@H](CC1=O)C(C)(C)O

> <PUBCHEM_CACTVS_TPSA>
101

> <PUBCHEM_MONOISOTOPIC_WEIGHT>
498.298139

> <PUBCHEM_TOTAL_CHARGE>
0

> <PUBCHEM_HEAVY_ATOM_COUNT>
36

> <PUBCHEM_ATOM_DEF_STEREO_COUNT>
9

> <PUBCHEM_ATOM_UDEF_STEREO_COUNT>
0

> <PUBCHEM_BOND_DEF_STEREO_COUNT>
0

> <PUBCHEM_BOND_UDEF_STEREO_COUNT>
0

> <PUBCHEM_ISOTOPIC_ATOM_COUNT>
0

> <PUBCHEM_COMPONENT_COUNT>
1

> <PUBCHEM_CACTVS_TAUTO_COUNT>
102

> <PUBCHEM_COORDINATE_TYPE>
1
5
255

> <PUBCHEM_BONDANNOTATIONS>
10  38  6
11  21  5
13  41  5
17  27  6
18  48  6
25  58  6
7  16  6
8  20  5
9  37  5

$$$$

