585149
  -OEChem-06241222452D

 33 34  0     1  0  0  0  0  0999 V2000
    4.5981   -0.3100    0.0000 S   0  0  0  0  0  0  0  0  0  0  0  0
    6.9939   -2.3100    0.0000 S   0  0  0  0  0  0  0  0  0  0  0  0
    3.5981   -0.3100    0.0000 O   0  0  0  0  0  0  0  0  0  0  0  0
    5.5981   -0.3100    0.0000 O   0  0  0  0  0  0  0  0  0  0  0  0
    2.8660    2.6900    0.0000 O   0  0  0  0  0  0  0  0  0  0  0  0
    4.5981    2.6900    0.0000 O   0  0  0  0  0  0  0  0  0  0  0  0
    4.5981    0.6900    0.0000 N   0  0  0  0  0  0  0  0  0  0  0  0
    6.4103   -1.5053    0.0000 N   0  0  0  0  0  0  0  0  0  0  0  0
    6.4103   -3.1147    0.0000 N   0  0  0  0  0  0  0  0  0  0  0  0
    2.8660    0.6900    0.0000 C   0  0  0  0  0  0  0  0  0  0  0  0
    3.7320    1.1900    0.0000 C   0  0  3  0  0  0  0  0  0  0  0  0
    2.0000    1.1900    0.0000 C   0  0  0  0  0  0  0  0  0  0  0  0
    2.8660   -0.3100    0.0000 C   0  0  0  0  0  0  0  0  0  0  0  0
    4.5981   -1.3100    0.0000 C   0  0  0  0  0  0  0  0  0  0  0  0
    3.7320    2.1900    0.0000 C   0  0  0  0  0  0  0  0  0  0  0  0
    5.4641   -1.8100    0.0000 C   0  0  0  0  0  0  0  0  0  0  0  0
    3.7320   -1.8100    0.0000 C   0  0  0  0  0  0  0  0  0  0  0  0
    5.4641   -2.8100    0.0000 C   0  0  0  0  0  0  0  0  0  0  0  0
    3.7320   -2.8100    0.0000 C   0  0  0  0  0  0  0  0  0  0  0  0
    4.5981   -3.3100    0.0000 C   0  0  0  0  0  0  0  0  0  0  0  0
    4.4682    1.6150    0.0000 H   0  0  0  0  0  0  0  0  0  0  0  0
    3.4030    0.3800    0.0000 H   0  0  0  0  0  0  0  0  0  0  0  0
    5.1350    1.0000    0.0000 H   0  0  0  0  0  0  0  0  0  0  0  0
    2.3100    1.7269    0.0000 H   0  0  0  0  0  0  0  0  0  0  0  0
    1.4631    1.5000    0.0000 H   0  0  0  0  0  0  0  0  0  0  0  0
    1.6900    0.6531    0.0000 H   0  0  0  0  0  0  0  0  0  0  0  0
    2.2460   -0.3100    0.0000 H   0  0  0  0  0  0  0  0  0  0  0  0
    2.8660   -0.9300    0.0000 H   0  0  0  0  0  0  0  0  0  0  0  0
    3.4860   -0.3100    0.0000 H   0  0  0  0  0  0  0  0  0  0  0  0
    3.1951   -1.5000    0.0000 H   0  0  0  0  0  0  0  0  0  0  0  0
    3.1951   -3.1200    0.0000 H   0  0  0  0  0  0  0  0  0  0  0  0
    4.5981   -3.9300    0.0000 H   0  0  0  0  0  0  0  0  0  0  0  0
    2.8660    3.3100    0.0000 H   0  0  0  0  0  0  0  0  0  0  0  0
  1  3  2  0  0  0  0
  1  4  2  0  0  0  0
  1  7  1  0  0  0  0
  1 14  1  0  0  0  0
  2  8  1  0  0  0  0
  2  9  1  0  0  0  0
  5 15  1  0  0  0  0
  5 33  1  0  0  0  0
  6 15  2  0  0  0  0
  7 11  1  0  0  0  0
  7 23  1  0  0  0  0
  8 16  2  0  0  0  0
  9 18  2  0  0  0  0
 10 11  1  0  0  0  0
 10 12  1  0  0  0  0
 10 13  1  0  0  0  0
 10 22  1  0  0  0  0
 11 15  1  0  0  0  0
 11 21  1  0  0  0  0
 12 24  1  0  0  0  0
 12 25  1  0  0  0  0
 12 26  1  0  0  0  0
 13 27  1  0  0  0  0
 13 28  1  0  0  0  0
 13 29  1  0  0  0  0
 14 16  1  0  0  0  0
 14 17  2  0  0  0  0
 16 18  1  0  0  0  0
 17 19  1  0  0  0  0
 17 30  1  0  0  0  0
 18 20  1  0  0  0  0
 19 20  2  0  0  0  0
 19 31  1  0  0  0  0
 20 32  1  0  0  0  0
M  END
> <PUBCHEM_COMPOUND_CID>
585149

> <PUBCHEM_COMPOUND_CANONICALIZED>
1

> <PUBCHEM_CACTVS_COMPLEXITY>
463

> <PUBCHEM_CACTVS_HBOND_ACCEPTOR>
8

> <PUBCHEM_CACTVS_HBOND_DONOR>
2

> <PUBCHEM_CACTVS_ROTATABLE_BOND>
5

> <PUBCHEM_CACTVS_SUBSKEYS>
AAADccBzOABgAAAAAAAAAAAAAAAAAWAAAAAwAAAAAAAAAFgB8AAAHgQQSAAADSjB1gQyybBAAgKoASTySHDCABQgEgAImL2wdJgKYLKAkZGAYARkkAAIyAcQAAAIAAAAACAAASAAAAAAQAACQAAAAAAAAA==

> <PUBCHEM_IUPAC_OPENEYE_NAME>
2-(2,1,3-benzothiadiazol-4-ylsulfonylamino)-3-methyl-butanoic acid

> <PUBCHEM_IUPAC_CAS_NAME>
2-(2,1,3-benzothiadiazol-4-ylsulfonylamino)-3-methylbutanoic acid

> <PUBCHEM_IUPAC_NAME>
2-(2,1,3-benzothiadiazol-4-ylsulfonylamino)-3-methylbutanoic acid

> <PUBCHEM_IUPAC_SYSTEMATIC_NAME>
2-(2,1,3-benzothiadiazol-4-ylsulfonylamino)-3-methyl-butanoic acid

> <PUBCHEM_IUPAC_TRADITIONAL_NAME>
3-methyl-2-(piazthiol-4-ylsulfonylamino)butyric acid

> <PUBCHEM_IUPAC_INCHI>
InChI=1S/C11H13N3O4S2/c1-6(2)9(11(15)16)14-20(17,18)8-5-3-4-7-10(8)13-19-12-7/h3-6,9,14H,1-2H3,(H,15,16)

> <PUBCHEM_IUPAC_INCHIKEY>
GGXQUHCKQXDDGR-UHFFFAOYSA-N

> <PUBCHEM_XLOGP3_AA>
1.7

> <PUBCHEM_EXACT_MASS>
315.034748

> <PUBCHEM_MOLECULAR_FORMULA>
C11H13N3O4S2

> <PUBCHEM_MOLECULAR_WEIGHT>
315.36862

> <PUBCHEM_OPENEYE_CAN_SMILES>
CC(C)C(C(=O)O)NS(=O)(=O)C1=CC=CC2=NSN=C21

> <PUBCHEM_OPENEYE_ISO_SMILES>
CC(C)C(C(=O)O)NS(=O)(=O)C1=CC=CC2=NSN=C21

> <PUBCHEM_CACTVS_TPSA>
146

> <PUBCHEM_MONOISOTOPIC_WEIGHT>
315.034748

> <PUBCHEM_TOTAL_CHARGE>
0

> <PUBCHEM_HEAVY_ATOM_COUNT>
20

> <PUBCHEM_ATOM_DEF_STEREO_COUNT>
0

> <PUBCHEM_ATOM_UDEF_STEREO_COUNT>
1

> <PUBCHEM_BOND_DEF_STEREO_COUNT>
0

> <PUBCHEM_BOND_UDEF_STEREO_COUNT>
0

> <PUBCHEM_ISOTOPIC_ATOM_COUNT>
0

> <PUBCHEM_COMPONENT_COUNT>
1

> <PUBCHEM_CACTVS_TAUTO_COUNT>
1

> <PUBCHEM_COORDINATE_TYPE>
1
5
255

> <PUBCHEM_BONDANNOTATIONS>
11  21  3
14  16  8
14  17  8
16  18  8
17  19  8
18  20  8
19  20  8
2  8  8
2  9  8
8  16  8
9  18  8

$$$$

