16061290
  -OEChem-07051213083D

 99 99  0     1  0  0  0  0  0999 V2000
  -16.1744    1.3535   -0.2055 O   0  0  0  0  0  0  0  0  0  0  0  0
   15.2034   -0.1459    1.9437 O   0  0  0  0  0  0  0  0  0  0  0  0
   14.6697   -2.8031    1.1896 O   0  0  0  0  0  0  0  0  0  0  0  0
  -13.3900   -1.1924   -0.6285 C   0  0  0  0  0  0  0  0  0  0  0  0
  -14.6148   -0.3084   -0.9831 C   0  0  0  0  0  0  0  0  0  0  0  0
  -15.0554    0.5622    0.1826 C   0  0  1  0  0  0  0  0  0  0  0  0
  -12.3112   -0.3887    0.1353 C   0  0  0  0  0  0  0  0  0  0  0  0
  -13.9217    1.4934    0.5903 C   0  0  0  0  0  0  0  0  0  0  0  0
  -12.5578    0.8381    0.6598 C   0  0  0  0  0  0  0  0  0  0  0  0
  -12.8600   -1.7472   -1.9731 C   0  0  0  0  0  0  0  0  0  0  0  0
  -13.8637   -2.3794    0.2410 C   0  0  0  0  0  0  0  0  0  0  0  0
  -11.0222   -1.0456    0.2772 C   0  0  0  0  0  0  0  0  0  0  0  0
  -11.5522    1.7126    1.3724 C   0  0  0  0  0  0  0  0  0  0  0  0
   -9.8521   -0.3941    0.1803 C   0  0  0  0  0  0  0  0  0  0  0  0
   -8.5187   -0.9856    0.2953 C   0  0  0  0  0  0  0  0  0  0  0  0
   -8.4362   -2.4764    0.5304 C   0  0  0  0  0  0  0  0  0  0  0  0
   -7.3684   -0.2853    0.1900 C   0  0  0  0  0  0  0  0  0  0  0  0
   -6.0073   -0.7755    0.2883 C   0  0  0  0  0  0  0  0  0  0  0  0
   15.6219   -0.6211    0.6554 C   0  0  0  0  0  0  0  0  0  0  0  0
   -4.9328    0.0225    0.1656 C   0  0  0  0  0  0  0  0  0  0  0  0
   14.6196   -1.7272    0.2460 C   0  0  2  0  0  0  0  0  0  0  0  0
   15.6207    0.5746   -0.3002 C   0  0  0  0  0  0  0  0  0  0  0  0
   17.0437   -1.1718    0.8143 C   0  0  0  0  0  0  0  0  0  0  0  0
   -3.5415   -0.4250    0.2234 C   0  0  0  0  0  0  0  0  0  0  0  0
   13.1830   -1.2863    0.1648 C   0  0  0  0  0  0  0  0  0  0  0  0
   12.4378   -1.4231   -0.9433 C   0  0  0  0  0  0  0  0  0  0  0  0
   -3.4058   -1.9136    0.4073 C   0  0  0  0  0  0  0  0  0  0  0  0
   -2.5201    0.4457    0.0904 C   0  0  0  0  0  0  0  0  0  0  0  0
   11.0487   -1.0169   -1.0807 C   0  0  0  0  0  0  0  0  0  0  0  0
   10.2297   -1.9818   -1.9000 C   0  0  0  0  0  0  0  0  0  0  0  0
   10.4856    0.1040   -0.5887 C   0  0  0  0  0  0  0  0  0  0  0  0
   -1.1009    0.1491    0.1259 C   0  0  0  0  0  0  0  0  0  0  0  0
    9.1077    0.5392   -0.7064 C   0  0  0  0  0  0  0  0  0  0  0  0
   -0.0946    1.0309   -0.0087 C   0  0  0  0  0  0  0  0  0  0  0  0
    8.6736    1.6886   -0.1638 C   0  0  0  0  0  0  0  0  0  0  0  0
    7.3143    2.2072   -0.2288 C   0  0  0  0  0  0  0  0  0  0  0  0
    1.3237    0.7331    0.0270 C   0  0  0  0  0  0  0  0  0  0  0  0
    2.3426    1.6067   -0.1063 C   0  0  0  0  0  0  0  0  0  0  0  0
    6.1762    1.4932   -0.1176 C   0  0  0  0  0  0  0  0  0  0  0  0
    7.2566    3.6860   -0.5182 C   0  0  0  0  0  0  0  0  0  0  0  0
    3.7422    1.1795   -0.0548 C   0  0  0  0  0  0  0  0  0  0  0  0
    4.8137    1.9820   -0.1783 C   0  0  0  0  0  0  0  0  0  0  0  0
    2.1873    3.0920   -0.3104 C   0  0  0  0  0  0  0  0  0  0  0  0
  -15.4585   -0.9242   -1.3225 H   0  0  0  0  0  0  0  0  0  0  0  0
  -14.3806    0.3434   -1.8378 H   0  0  0  0  0  0  0  0  0  0  0  0
  -15.3688   -0.0596    1.0284 H   0  0  0  0  0  0  0  0  0  0  0  0
  -14.1845    1.9239    1.5655 H   0  0  0  0  0  0  0  0  0  0  0  0
  -13.8653    2.3434   -0.1034 H   0  0  0  0  0  0  0  0  0  0  0  0
  -13.6598   -2.2416   -2.5372 H   0  0  0  0  0  0  0  0  0  0  0  0
  -12.4547   -0.9451   -2.6008 H   0  0  0  0  0  0  0  0  0  0  0  0
  -12.0664   -2.4885   -1.8270 H   0  0  0  0  0  0  0  0  0  0  0  0
  -14.1787   -2.0533    1.2384 H   0  0  0  0  0  0  0  0  0  0  0  0
  -13.0761   -3.1288    0.3755 H   0  0  0  0  0  0  0  0  0  0  0  0
  -14.7131   -2.8934   -0.2240 H   0  0  0  0  0  0  0  0  0  0  0  0
  -11.0488   -2.1082    0.4939 H   0  0  0  0  0  0  0  0  0  0  0  0
  -11.0554    2.3858    0.6670 H   0  0  0  0  0  0  0  0  0  0  0  0
  -10.8159    1.1489    1.9506 H   0  0  0  0  0  0  0  0  0  0  0  0
  -12.0534    2.3443    2.1159 H   0  0  0  0  0  0  0  0  0  0  0  0
  -16.4249    1.9011    0.5582 H   0  0  0  0  0  0  0  0  0  0  0  0
   -9.8279    0.6568   -0.0946 H   0  0  0  0  0  0  0  0  0  0  0  0
   -8.9765   -3.0091   -0.2618 H   0  0  0  0  0  0  0  0  0  0  0  0
   -8.9027   -2.7276    1.4905 H   0  0  0  0  0  0  0  0  0  0  0  0
   -7.4434   -2.9222    0.5501 H   0  0  0  0  0  0  0  0  0  0  0  0
   -7.4504    0.7878    0.0136 H   0  0  0  0  0  0  0  0  0  0  0  0
   -5.8690   -1.8311    0.4632 H   0  0  0  0  0  0  0  0  0  0  0  0
   -5.0823    1.0877   -0.0048 H   0  0  0  0  0  0  0  0  0  0  0  0
   14.9443   -2.1422   -0.7169 H   0  0  0  0  0  0  0  0  0  0  0  0
   14.6432    1.0686   -0.3227 H   0  0  0  0  0  0  0  0  0  0  0  0
   16.3368    1.3376    0.0264 H   0  0  0  0  0  0  0  0  0  0  0  0
   15.8828    0.2705   -1.3187 H   0  0  0  0  0  0  0  0  0  0  0  0
   17.0886   -1.9442    1.5900 H   0  0  0  0  0  0  0  0  0  0  0  0
   17.7355   -0.3831    1.1322 H   0  0  0  0  0  0  0  0  0  0  0  0
   17.4137   -1.5964   -0.1245 H   0  0  0  0  0  0  0  0  0  0  0  0
   12.7458   -0.8545    1.0620 H   0  0  0  0  0  0  0  0  0  0  0  0
   15.8232    0.5494    2.2236 H   0  0  0  0  0  0  0  0  0  0  0  0
   14.1008   -3.5179    0.8551 H   0  0  0  0  0  0  0  0  0  0  0  0
   12.8821   -1.8787   -1.8260 H   0  0  0  0  0  0  0  0  0  0  0  0
   -2.3670   -2.2520    0.4231 H   0  0  0  0  0  0  0  0  0  0  0  0
   -3.8375   -2.2356    1.3620 H   0  0  0  0  0  0  0  0  0  0  0  0
   -3.8810   -2.4616   -0.4147 H   0  0  0  0  0  0  0  0  0  0  0  0
   -2.7540    1.5007   -0.0528 H   0  0  0  0  0  0  0  0  0  0  0  0
    9.1879   -2.0473   -1.5737 H   0  0  0  0  0  0  0  0  0  0  0  0
   10.6232   -3.0027   -1.8183 H   0  0  0  0  0  0  0  0  0  0  0  0
   10.2536   -1.6985   -2.9578 H   0  0  0  0  0  0  0  0  0  0  0  0
   11.1274    0.7812   -0.0243 H   0  0  0  0  0  0  0  0  0  0  0  0
   -0.8225   -0.8897    0.2787 H   0  0  0  0  0  0  0  0  0  0  0  0
    8.4118   -0.0800   -1.2622 H   0  0  0  0  0  0  0  0  0  0  0  0
   -0.3759    2.0688   -0.1606 H   0  0  0  0  0  0  0  0  0  0  0  0
    9.3752    2.3236    0.3760 H   0  0  0  0  0  0  0  0  0  0  0  0
    1.5606   -0.3203    0.1754 H   0  0  0  0  0  0  0  0  0  0  0  0
    6.2677    0.4222    0.0636 H   0  0  0  0  0  0  0  0  0  0  0  0
    6.4589    3.9465   -1.2211 H   0  0  0  0  0  0  0  0  0  0  0  0
    7.1150    4.2500    0.4099 H   0  0  0  0  0  0  0  0  0  0  0  0
    8.1840    4.0412   -0.9841 H   0  0  0  0  0  0  0  0  0  0  0  0
    3.9000    0.1116    0.0918 H   0  0  0  0  0  0  0  0  0  0  0  0
    4.6948    3.0498   -0.3166 H   0  0  0  0  0  0  0  0  0  0  0  0
    2.6469    3.6534    0.5115 H   0  0  0  0  0  0  0  0  0  0  0  0
    1.1467    3.4213   -0.3470 H   0  0  0  0  0  0  0  0  0  0  0  0
    2.6322    3.4082   -1.2611 H   0  0  0  0  0  0  0  0  0  0  0  0
  1  6  1  0  0  0  0
  1 59  1  0  0  0  0
  2 19  1  0  0  0  0
  2 75  1  0  0  0  0
  3 21  1  0  0  0  0
  3 76  1  0  0  0  0
  4  5  1  0  0  0  0
  4  7  1  0  0  0  0
  4 10  1  0  0  0  0
  4 11  1  0  0  0  0
  5  6  1  0  0  0  0
  5 44  1  0  0  0  0
  5 45  1  0  0  0  0
  6  8  1  0  0  0  0
  6 46  1  0  0  0  0
  7  9  2  0  0  0  0
  7 12  1  0  0  0  0
  8  9  1  0  0  0  0
  8 47  1  0  0  0  0
  8 48  1  0  0  0  0
  9 13  1  0  0  0  0
 10 49  1  0  0  0  0
 10 50  1  0  0  0  0
 10 51  1  0  0  0  0
 11 52  1  0  0  0  0
 11 53  1  0  0  0  0
 11 54  1  0  0  0  0
 12 14  2  0  0  0  0
 12 55  1  0  0  0  0
 13 56  1  0  0  0  0
 13 57  1  0  0  0  0
 13 58  1  0  0  0  0
 14 15  1  0  0  0  0
 14 60  1  0  0  0  0
 15 16  1  0  0  0  0
 15 17  2  0  0  0  0
 16 61  1  0  0  0  0
 16 62  1  0  0  0  0
 16 63  1  0  0  0  0
 17 18  1  0  0  0  0
 17 64  1  0  0  0  0
 18 20  2  0  0  0  0
 18 65  1  0  0  0  0
 19 21  1  0  0  0  0
 19 22  1  0  0  0  0
 19 23  1  0  0  0  0
 20 24  1  0  0  0  0
 20 66  1  0  0  0  0
 21 25  1  0  0  0  0
 21 67  1  0  0  0  0
 22 68  1  0  0  0  0
 22 69  1  0  0  0  0
 22 70  1  0  0  0  0
 23 71  1  0  0  0  0
 23 72  1  0  0  0  0
 23 73  1  0  0  0  0
 24 27  1  0  0  0  0
 24 28  2  0  0  0  0
 25 26  2  0  0  0  0
 25 74  1  0  0  0  0
 26 29  1  0  0  0  0
 26 77  1  0  0  0  0
 27 78  1  0  0  0  0
 27 79  1  0  0  0  0
 27 80  1  0  0  0  0
 28 32  1  0  0  0  0
 28 81  1  0  0  0  0
 29 30  1  0  0  0  0
 29 31  2  0  0  0  0
 30 82  1  0  0  0  0
 30 83  1  0  0  0  0
 30 84  1  0  0  0  0
 31 33  1  0  0  0  0
 31 85  1  0  0  0  0
 32 34  2  0  0  0  0
 32 86  1  0  0  0  0
 33 35  2  0  0  0  0
 33 87  1  0  0  0  0
 34 37  1  0  0  0  0
 34 88  1  0  0  0  0
 35 36  1  0  0  0  0
 35 89  1  0  0  0  0
 36 39  2  0  0  0  0
 36 40  1  0  0  0  0
 37 38  2  0  0  0  0
 37 90  1  0  0  0  0
 38 41  1  0  0  0  0
 38 43  1  0  0  0  0
 39 42  1  0  0  0  0
 39 91  1  0  0  0  0
 40 92  1  0  0  0  0
 40 93  1  0  0  0  0
 40 94  1  0  0  0  0
 41 42  2  0  0  0  0
 41 95  1  0  0  0  0
 42 96  1  0  0  0  0
 43 97  1  0  0  0  0
 43 98  1  0  0  0  0
 43 99  1  0  0  0  0
M  END
> <PUBCHEM_COMPOUND_CID>
16061290

> <PUBCHEM_CONFORMER_RMSD>
1.4

> <PUBCHEM_CONFORMER_DIVERSEORDER>
11
37
36
12
27
52
59
23
14
45
63
21
1
25
58
24
15
51
8
35
48
38
42
56
17
61
19
54
53
55
4
49
44
43
20
62
40
26
3
46
31
22
60
13
57
30
34
32
29
50
39
33
7
28
16
47
9
18
5
10
2
41
6

> <PUBCHEM_MMFF94_PARTIAL_CHARGES>
58
1 -0.68
12 -0.15
13 0.14
14 -0.15
15 -0.14
16 0.14
17 -0.15
18 -0.15
19 0.28
2 -0.68
20 -0.15
21 0.42
24 -0.14
25 -0.29
26 -0.15
27 0.14
28 -0.15
29 -0.14
3 -0.68
30 0.14
31 -0.15
32 -0.15
33 -0.15
34 -0.15
35 -0.15
36 -0.14
37 -0.15
38 -0.14
39 -0.15
4 0.14
40 0.14
41 -0.15
42 -0.15
43 0.14
55 0.15
59 0.4
6 0.28
60 0.15
64 0.15
65 0.15
66 0.15
7 -0.14
74 0.15
75 0.4
76 0.4
77 0.15
8 0.14
81 0.15
85 0.15
86 0.15
87 0.15
88 0.15
89 0.15
9 -0.28
90 0.15
91 0.15
95 0.15
96 0.15

> <PUBCHEM_EFFECTIVE_ROTOR_COUNT>
13.8

> <PUBCHEM_PHARMACOPHORE_FEATURES>
14
1 1 acceptor
1 1 donor
1 16 hydrophobe
1 2 acceptor
1 2 donor
1 27 hydrophobe
1 3 acceptor
1 3 donor
1 30 hydrophobe
1 40 hydrophobe
1 43 hydrophobe
3 19 22 23 hydrophobe
3 4 10 11 hydrophobe
6 4 5 6 7 8 9 rings

> <PUBCHEM_HEAVY_ATOM_COUNT>
43

> <PUBCHEM_ATOM_DEF_STEREO_COUNT>
2

> <PUBCHEM_ATOM_UDEF_STEREO_COUNT>
0

> <PUBCHEM_BOND_DEF_STEREO_COUNT>
11

> <PUBCHEM_BOND_UDEF_STEREO_COUNT>
0

> <PUBCHEM_ISOTOPIC_ATOM_COUNT>
0

> <PUBCHEM_COMPONENT_COUNT>
1

> <PUBCHEM_CACTVS_TAUTO_COUNT>
1

> <PUBCHEM_CONFORMER_ID>
00F5136A0000000B

> <PUBCHEM_MMFF94_ENERGY>
117.995

> <PUBCHEM_FEATURE_SELFOVERLAP>
71.048

> <PUBCHEM_SHAPE_FINGERPRINT>
12013929 2 18412543185662010473
12559415 86 17060345141317273909
12559415 90 18113334206928644009
14251920 17 8935001465018910992
15061470 23 18338516340518940833
15219723 13 18413109480545888922
15343295 29 18410294723697491901
23399689 5 7132429139919751202
3092352 35 18334857204180196795
3991529 128 10303813177092882874
9663363 56 14923941254003433657

> <PUBCHEM_SHAPE_MULTIPOLES>
867.31
110.64
2.82
1.1
69.59
0.9
-0.15
-45.03
8.05
4.14
-0.17
1.07
-0.42
-2.76

> <PUBCHEM_SHAPE_SELFOVERLAP>
1738.049

> <PUBCHEM_SHAPE_VOLUME>
511.2

> <PUBCHEM_COORDINATE_TYPE>
2
5
10

$$$$

