194620
  -OEChem-07051213103D

 46 48  0     1  0  0  0  0  0999 V2000
   -4.0539   -0.1669   -1.4867 S   0  0  0  0  0  0  0  0  0  0  0  0
    2.2001    1.5135    0.5526 O   0  0  0  0  0  0  0  0  0  0  0  0
   -5.5388   -0.9235    1.9943 O   0  0  0  0  0  0  0  0  0  0  0  0
   -6.4106   -0.6778   -2.5342 O   0  0  0  0  0  0  0  0  0  0  0  0
   -6.1646   -0.8693   -0.2313 N   0  0  0  0  0  0  0  0  0  0  0  0
    4.1756    0.9674   -0.7855 C   0  0  0  0  0  0  0  0  0  0  0  0
    2.7437    1.5618   -0.7623 C   0  0  0  0  0  0  0  0  0  0  0  0
    4.1484   -0.5075   -0.3420 C   0  0  0  0  0  0  0  0  0  0  0  0
    5.0832    1.8627    0.0919 C   0  0  0  0  0  0  0  0  0  0  0  0
    4.7220    1.0508   -2.2292 C   0  0  0  0  0  0  0  0  0  0  0  0
   -3.3948    0.9154    0.9656 C   0  0  0  0  0  0  0  0  0  0  0  0
    4.9012   -0.8722    0.7446 C   0  0  0  0  0  0  0  0  0  0  0  0
    3.3733   -1.3852   -1.0552 C   0  0  0  0  0  0  0  0  0  0  0  0
   -3.8914   -0.3723    0.3133 C   0  0  1  0  0  0  0  0  0  0  0  0
   -1.9160    1.0732    0.8563 C   0  0  0  0  0  0  0  0  0  0  0  0
    0.8419    1.3691    0.6525 C   0  0  0  0  0  0  0  0  0  0  0  0
   -1.0844    0.5631    1.8531 C   0  0  0  0  0  0  0  0  0  0  0  0
   -1.3646    1.7317   -0.2429 C   0  0  0  0  0  0  0  0  0  0  0  0
    0.2988    0.7116    1.7510 C   0  0  0  0  0  0  0  0  0  0  0  0
    0.0187    1.8800   -0.3450 C   0  0  0  0  0  0  0  0  0  0  0  0
    4.8770   -2.2079    1.1460 C   0  0  0  0  0  0  0  0  0  0  0  0
    3.3490   -2.7209   -0.6537 C   0  0  0  0  0  0  0  0  0  0  0  0
   -5.2690   -0.7481    0.8109 C   0  0  0  0  0  0  0  0  0  0  0  0
    4.1009   -3.1321    0.4468 C   0  0  0  0  0  0  0  0  0  0  0  0
   -5.7455   -0.6168   -1.5110 C   0  0  0  0  0  0  0  0  0  0  0  0
    2.7730    2.6117   -1.0823 H   0  0  0  0  0  0  0  0  0  0  0  0
    2.1196    1.0147   -1.4805 H   0  0  0  0  0  0  0  0  0  0  0  0
    6.1316    1.5435    0.0551 H   0  0  0  0  0  0  0  0  0  0  0  0
    5.0605    2.9006   -0.2633 H   0  0  0  0  0  0  0  0  0  0  0  0
    4.7614    1.8844    1.1394 H   0  0  0  0  0  0  0  0  0  0  0  0
    5.7211    0.6042   -2.3000 H   0  0  0  0  0  0  0  0  0  0  0  0
    4.8000    2.0929   -2.5610 H   0  0  0  0  0  0  0  0  0  0  0  0
    4.0798    0.5346   -2.9512 H   0  0  0  0  0  0  0  0  0  0  0  0
   -3.6600    0.9186    2.0321 H   0  0  0  0  0  0  0  0  0  0  0  0
   -3.9079    1.7996    0.5621 H   0  0  0  0  0  0  0  0  0  0  0  0
   -3.2275   -1.2213    0.5118 H   0  0  0  0  0  0  0  0  0  0  0  0
    5.5206   -0.1991    1.3229 H   0  0  0  0  0  0  0  0  0  0  0  0
    2.7824   -1.0910   -1.9154 H   0  0  0  0  0  0  0  0  0  0  0  0
   -1.5010    0.0456    2.7132 H   0  0  0  0  0  0  0  0  0  0  0  0
   -1.9982    2.1538   -1.0180 H   0  0  0  0  0  0  0  0  0  0  0  0
    0.9434    0.3116    2.5286 H   0  0  0  0  0  0  0  0  0  0  0  0
    0.4035    2.4304   -1.1980 H   0  0  0  0  0  0  0  0  0  0  0  0
    5.4621   -2.5291    2.0028 H   0  0  0  0  0  0  0  0  0  0  0  0
    2.7451   -3.4410   -1.1983 H   0  0  0  0  0  0  0  0  0  0  0  0
    4.0820   -4.1720    0.7593 H   0  0  0  0  0  0  0  0  0  0  0  0
   -7.1281   -1.1314   -0.0493 H   0  0  0  0  0  0  0  0  0  0  0  0
  1 14  1  0  0  0  0
  1 25  1  0  0  0  0
  2  7  1  0  0  0  0
  2 16  1  0  0  0  0
  3 23  2  0  0  0  0
  4 25  2  0  0  0  0
  5 23  1  0  0  0  0
  5 25  1  0  0  0  0
  5 46  1  0  0  0  0
  6  7  1  0  0  0  0
  6  8  1  0  0  0  0
  6  9  1  0  0  0  0
  6 10  1  0  0  0  0
  7 26  1  0  0  0  0
  7 27  1  0  0  0  0
  8 12  2  0  0  0  0
  8 13  1  0  0  0  0
  9 28  1  0  0  0  0
  9 29  1  0  0  0  0
  9 30  1  0  0  0  0
 10 31  1  0  0  0  0
 10 32  1  0  0  0  0
 10 33  1  0  0  0  0
 11 14  1  0  0  0  0
 11 15  1  0  0  0  0
 11 34  1  0  0  0  0
 11 35  1  0  0  0  0
 12 21  1  0  0  0  0
 12 37  1  0  0  0  0
 13 22  2  0  0  0  0
 13 38  1  0  0  0  0
 14 23  1  0  0  0  0
 14 36  1  0  0  0  0
 15 17  2  0  0  0  0
 15 18  1  0  0  0  0
 16 19  2  0  0  0  0
 16 20  1  0  0  0  0
 17 19  1  0  0  0  0
 17 39  1  0  0  0  0
 18 20  2  0  0  0  0
 18 40  1  0  0  0  0
 19 41  1  0  0  0  0
 20 42  1  0  0  0  0
 21 24  2  0  0  0  0
 21 43  1  0  0  0  0
 22 24  1  0  0  0  0
 22 44  1  0  0  0  0
 24 45  1  0  0  0  0
M  END
> <PUBCHEM_COMPOUND_CID>
194620

> <PUBCHEM_CONFORMER_RMSD>
0.8

> <PUBCHEM_CONFORMER_DIVERSEORDER>
1
5
192
75
149
146
101
129
232
188
23
144
95
128
50
32
242
85
207
172
159
143
226
28
215
63
123
83
196
86
69
62
140
157
124
164
208
235
160
33
189
217
187
36
223
59
115
26
117
184
45
152
37
73
206
233
25
98
103
131
40
92
136
127
229
38
195
108
21
135
237
221
222
111
180
109
186
120
214
13
39
102
224
162
114
211
240
10
169
119
70
64
191
197
53
156
112
163
194
219
118
29
76
96
19
178
218
212
121
155
174
116
133
201
241
74
90
245
34
171
3
55
46
88
125
49
177
99
12
105
230
107
139
203
110
97
106
236
244
20
68
204
35
150
79
15
145
84
173
6
42
176
16
57
142
14
170
93
7
227
154
91
58
137
181
17
52
11
234
43
44
213
148
238
80
166
27
239
183
31
205
151
4
9
175
161
182
231
132
209
193
47
18
54
153
8
41
210
134
138
30
225
141
147
77
65
130
167
199
22
113
71
51
179
89
81
216
24
202
165
61
228
200
60
2
72
158
190
104
168
126
87
243
56
100
48
122
220
185
78
66
82
198
94
67

> <PUBCHEM_MMFF94_PARTIAL_CHARGES>
33
1 -0.37
11 0.14
12 -0.15
13 -0.15
14 0.29
15 -0.14
16 0.08
17 -0.15
18 -0.15
19 -0.15
2 -0.36
20 -0.15
21 -0.15
22 -0.15
23 0.57
24 -0.15
25 0.77
3 -0.57
37 0.15
38 0.15
39 0.15
4 -0.57
40 0.15
41 0.15
42 0.15
43 0.15
44 0.15
45 0.15
46 0.37
5 -0.49
6 0.14
7 0.28
8 -0.14

> <PUBCHEM_EFFECTIVE_ROTOR_COUNT>
6.6

> <PUBCHEM_PHARMACOPHORE_FEATURES>
7
1 2 acceptor
1 3 acceptor
1 5 donor
3 6 9 10 hydrophobe
5 1 5 14 23 25 rings
6 15 16 17 18 19 20 rings
6 8 12 13 21 22 24 rings

> <PUBCHEM_HEAVY_ATOM_COUNT>
25

> <PUBCHEM_ATOM_DEF_STEREO_COUNT>
0

> <PUBCHEM_ATOM_UDEF_STEREO_COUNT>
1

> <PUBCHEM_BOND_DEF_STEREO_COUNT>
0

> <PUBCHEM_BOND_UDEF_STEREO_COUNT>
0

> <PUBCHEM_ISOTOPIC_ATOM_COUNT>
0

> <PUBCHEM_COMPONENT_COUNT>
1

> <PUBCHEM_CACTVS_TAUTO_COUNT>
3

> <PUBCHEM_CONFORMER_ID>
0002F83C00000001

> <PUBCHEM_MMFF94_ENERGY>
79.1661

> <PUBCHEM_FEATURE_SELFOVERLAP>
35.52

> <PUBCHEM_SHAPE_FINGERPRINT>
10319926 262 14996279207123049907
10447042 23 18410856560077659180
10670039 82 13686301321967459598
10763959 59 9655036436612695202
11045977 3 6555416418021471933
11069576 57 18339916125989365878
11475781 23 16773807995101281245
11796584 16 17530959211517271757
12422481 6 17459460225378720991
12596602 18 15430034348798364003
13533116 47 18334575737477026944
14251740 57 17749947886165470438
14347332 77 18261115197094485361
14508693 111 16807606896766682518
14840074 17 18040990722581441679
14848178 5 18261680366907571627
14848178 96 9511167534936287634
15119646 104 18408604790318227875
15163728 17 12823008781092951521
15183329 4 17632861953532339561
15250474 111 18186524289147167343
15537594 2 18113329799901275487
17134984 74 18263369096530013127
17492 89 18192428800154329474
17857418 61 18113622287501024379
19377110 9 17894349982003266424
20028762 73 18187931750268346046
20567600 247 18334582287545084047
20645477 70 18130777980567375072
21033650 10 15913047689503643085
21285901 2 17704352169500413244
21315763 178 17894908533910026819
21315764 119 16343148051182632915
21315764 371 16805603689781459986
21703447 108 17677061135257911801
22061861 79 17989487428920016891
23559900 14 17489288795114907624
23569914 152 17551548812641165975
24771750 20 16768421298838276317
3004659 81 18342171206983510794
312425 54 15357967989006400503
314194 84 18334010579847014427
33382 64 18335973199560230465
34797466 226 16845283904939219637
351380 3 17749100089163446581
397830 11 7204483464200338893
4259306 186 18411136939737638329
46194498 28 17274247328397288957
463206 1 18334295323078104994
513532 50 15770057229462457886
5283384 97 18409454712421890063
8988823 20 18187650172048292168

> <PUBCHEM_SHAPE_MULTIPOLES>
495.75
16.18
2.61
1.93
15.58
1.32
-0.44
7.49
-4.5
-4.35
0.07
1.72
0.08
-1.4

> <PUBCHEM_SHAPE_SELFOVERLAP>
1049.889

> <PUBCHEM_SHAPE_VOLUME>
279.3

> <PUBCHEM_COORDINATE_TYPE>
2
5
10

$$$$

