442261
  -OEChem-07051212573D

 40 43  0     1  0  0  0  0  0999 V2000
   -0.6028    0.9043    0.4204 O   0  0  0  0  0  0  0  0  0  0  0  0
    4.7925    0.4109   -0.3727 O   0  0  0  0  0  0  0  0  0  0  0  0
    3.8320    2.6133   -0.1905 O   0  0  0  0  0  0  0  0  0  0  0  0
    3.2755   -1.9838   -0.1706 O   0  0  0  0  0  0  0  0  0  0  0  0
    0.8777   -2.9211    0.2554 O   0  0  0  0  0  0  0  0  0  0  0  0
   -3.4082    0.1565   -2.0767 O   0  0  0  0  0  0  0  0  0  0  0  0
   -1.4212   -0.1837   -0.0353 C   0  0  1  0  0  0  0  0  0  0  0  0
   -1.0118   -1.4933    0.6347 C   0  0  0  0  0  0  0  0  0  0  0  0
    1.3037   -0.6020    0.1338 C   0  0  0  0  0  0  0  0  0  0  0  0
    0.7373    0.6854    0.2211 C   0  0  0  0  0  0  0  0  0  0  0  0
    0.4311   -1.7814    0.3113 C   0  0  0  0  0  0  0  0  0  0  0  0
   -2.8686    0.1503    0.2588 C   0  0  0  0  0  0  0  0  0  0  0  0
    2.6773   -0.7693   -0.0745 C   0  0  0  0  0  0  0  0  0  0  0  0
    3.4461    0.3726   -0.1752 C   0  0  0  0  0  0  0  0  0  0  0  0
    1.5463    1.8218    0.1336 C   0  0  0  0  0  0  0  0  0  0  0  0
    2.8978    1.6307   -0.0704 C   0  0  0  0  0  0  0  0  0  0  0  0
   -3.7904    0.3037   -0.7772 C   0  0  0  0  0  0  0  0  0  0  0  0
   -3.2780    0.3047    1.5838 C   0  0  0  0  0  0  0  0  0  0  0  0
    5.0298    1.8333   -0.3816 C   0  0  0  0  0  0  0  0  0  0  0  0
   -5.1200    0.6113   -0.4889 C   0  0  0  0  0  0  0  0  0  0  0  0
   -4.6076    0.6124    1.8722 C   0  0  0  0  0  0  0  0  0  0  0  0
   -5.5286    0.7658    0.8359 C   0  0  0  0  0  0  0  0  0  0  0  0
    4.2900   -2.2898    0.7875 C   0  0  0  0  0  0  0  0  0  0  0  0
   -3.5000   -1.1527   -2.6347 C   0  0  0  0  0  0  0  0  0  0  0  0
   -1.2634   -0.2679   -1.1182 H   0  0  0  0  0  0  0  0  0  0  0  0
   -1.6286   -2.3204    0.2658 H   0  0  0  0  0  0  0  0  0  0  0  0
   -1.0883   -1.4536    1.7271 H   0  0  0  0  0  0  0  0  0  0  0  0
    1.1273    2.8191    0.2126 H   0  0  0  0  0  0  0  0  0  0  0  0
   -2.5751    0.2024    2.4059 H   0  0  0  0  0  0  0  0  0  0  0  0
    5.4781    2.1083   -1.3433 H   0  0  0  0  0  0  0  0  0  0  0  0
    5.7380    2.0757    0.4190 H   0  0  0  0  0  0  0  0  0  0  0  0
   -5.8429    0.7331   -1.2910 H   0  0  0  0  0  0  0  0  0  0  0  0
   -4.9253    0.7356    2.9034 H   0  0  0  0  0  0  0  0  0  0  0  0
   -6.5636    1.0062    1.0605 H   0  0  0  0  0  0  0  0  0  0  0  0
    4.2894   -3.3726    0.9432 H   0  0  0  0  0  0  0  0  0  0  0  0
    4.1014   -1.8047    1.7514 H   0  0  0  0  0  0  0  0  0  0  0  0
    5.2716   -2.0027    0.4004 H   0  0  0  0  0  0  0  0  0  0  0  0
   -4.5486   -1.4560   -2.7148 H   0  0  0  0  0  0  0  0  0  0  0  0
   -2.9469   -1.8800   -2.0325 H   0  0  0  0  0  0  0  0  0  0  0  0
   -3.0661   -1.1282   -3.6381 H   0  0  0  0  0  0  0  0  0  0  0  0
  1  7  1  0  0  0  0
  1 10  1  0  0  0  0
  2 14  1  0  0  0  0
  2 19  1  0  0  0  0
  3 16  1  0  0  0  0
  3 19  1  0  0  0  0
  4 13  1  0  0  0  0
  4 23  1  0  0  0  0
  5 11  2  0  0  0  0
  6 17  1  0  0  0  0
  6 24  1  0  0  0  0
  7  8  1  0  0  0  0
  7 12  1  0  0  0  0
  7 25  1  0  0  0  0
  8 11  1  0  0  0  0
  8 26  1  0  0  0  0
  8 27  1  0  0  0  0
  9 10  1  0  0  0  0
  9 11  1  0  0  0  0
  9 13  2  0  0  0  0
 10 15  2  0  0  0  0
 12 17  1  0  0  0  0
 12 18  2  0  0  0  0
 13 14  1  0  0  0  0
 14 16  2  0  0  0  0
 15 16  1  0  0  0  0
 15 28  1  0  0  0  0
 17 20  2  0  0  0  0
 18 21  1  0  0  0  0
 18 29  1  0  0  0  0
 19 30  1  0  0  0  0
 19 31  1  0  0  0  0
 20 22  1  0  0  0  0
 20 32  1  0  0  0  0
 21 22  2  0  0  0  0
 21 33  1  0  0  0  0
 22 34  1  0  0  0  0
 23 35  1  0  0  0  0
 23 36  1  0  0  0  0
 23 37  1  0  0  0  0
 24 38  1  0  0  0  0
 24 39  1  0  0  0  0
 24 40  1  0  0  0  0
M  END
> <PUBCHEM_COMPOUND_CID>
442261

> <PUBCHEM_CONFORMER_RMSD>
0.8

> <PUBCHEM_CONFORMER_DIVERSEORDER>
1
10
5
2
11
9
4
7
6
8
3

> <PUBCHEM_MMFF94_PARTIAL_CHARGES>
29
1 -0.36
10 0.08
11 0.42
12 -0.14
13 0.08
14 0.08
15 -0.15
16 0.08
17 0.08
18 -0.15
19 0.56
2 -0.36
20 -0.15
21 -0.15
22 -0.15
23 0.28
24 0.28
28 0.15
29 0.15
3 -0.36
32 0.15
33 0.15
34 0.15
4 -0.36
5 -0.57
6 -0.36
7 0.42
8 0.06
9 0.09

> <PUBCHEM_EFFECTIVE_ROTOR_COUNT>
4.2

> <PUBCHEM_PHARMACOPHORE_FEATURES>
10
1 1 acceptor
1 2 acceptor
1 3 acceptor
1 4 acceptor
1 5 acceptor
1 6 acceptor
5 2 3 14 16 19 rings
6 1 7 8 9 10 11 rings
6 12 17 18 20 21 22 rings
6 9 10 13 14 15 16 rings

> <PUBCHEM_HEAVY_ATOM_COUNT>
24

> <PUBCHEM_ATOM_DEF_STEREO_COUNT>
1

> <PUBCHEM_ATOM_UDEF_STEREO_COUNT>
0

> <PUBCHEM_BOND_DEF_STEREO_COUNT>
0

> <PUBCHEM_BOND_UDEF_STEREO_COUNT>
0

> <PUBCHEM_ISOTOPIC_ATOM_COUNT>
0

> <PUBCHEM_COMPONENT_COUNT>
1

> <PUBCHEM_CACTVS_TAUTO_COUNT>
2

> <PUBCHEM_CONFORMER_ID>
0006BF9500000001

> <PUBCHEM_MMFF94_ENERGY>
91.5004

> <PUBCHEM_FEATURE_SELFOVERLAP>
50.946

> <PUBCHEM_SHAPE_FINGERPRINT>
10411042 1 17763741396701216562
11471102 20 18411979191213748130
11796584 16 15140949682508801964
12236239 1 17894628167045531881
12403259 415 17632296813013566319
12616971 3 18334582381643922431
12644460 14 18343861130564376834
12730499 353 18343011177547253818
12788726 201 17676755578283190072
13140716 1 18341325630659765770
13583140 156 16343158925833779729
13675066 3 17418089905939635298
13760787 5 18409731789362190755
13782708 43 17489303144221258355
15081414 286 18272082799432166668
15196674 1 18412258415501274563
17349148 13 18335713774845611370
1813 80 17754728652495646238
18186145 218 18411696578091789990
20511986 3 17967825967331381705
20612939 158 18410294739363019949
20645477 56 17775284928434929005
20645477 70 18271527584619477434
20739085 24 18199167642074583040
21033648 144 18340775849070182052
21033648 29 17489315191266399997
21033650 10 16299483094289549208
21065201 7 15769773593468253819
22122407 14 18192697051090604833
22182313 1 17632302297465341956
23402539 116 18187363194923069356
23402655 69 18114179717994423388
23559900 14 16271082782106654179
25147074 1 18260276226013215990
335352 9 18411411805439980830
34797466 226 15068630348552195121
34934 24 18337673023473281432
469060 322 16844453722427284751
474 4 18409164402855193977
5104073 3 18342733005458650683
602551 16 15912749614578203257
633830 44 18334285479017960711
8272917 22 18335976553782001646
9981440 41 16450974656642048705

> <PUBCHEM_SHAPE_MULTIPOLES>
458.69
11.63
2.34
1.46
3.06
0.7
-0.67
-3.66
-0.13
-3.52
0.13
2.72
0.29
-1.42

> <PUBCHEM_SHAPE_SELFOVERLAP>
1022.086

> <PUBCHEM_SHAPE_VOLUME>
243.4

> <PUBCHEM_COORDINATE_TYPE>
2
5
10

$$$$

