379539
  -OEChem-07051213033D

 39 42  0     0  0  0  0  0  0999 V2000
   -2.0092   -2.5137    0.1912 O   0  0  0  0  0  0  0  0  0  0  0  0
    0.0758   -2.3180   -0.5825 O   0  0  0  0  0  0  0  0  0  0  0  0
    4.7367    1.2830    0.3235 O   0  0  0  0  0  0  0  0  0  0  0  0
    2.4466    2.3737   -0.0492 O   0  0  0  0  0  0  0  0  0  0  0  0
   -6.5899    0.1366   -0.9831 O   0  0  0  0  0  0  0  0  0  0  0  0
   -0.2692   -0.0258   -0.0317 C   0  0  0  0  0  0  0  0  0  0  0  0
   -1.7016   -0.0707    0.0601 C   0  0  0  0  0  0  0  0  0  0  0  0
    0.4025    1.2068    0.0271 C   0  0  0  0  0  0  0  0  0  0  0  0
   -2.4027    1.1630    0.1536 C   0  0  0  0  0  0  0  0  0  0  0  0
    2.6652    0.0478    0.0610 C   0  0  0  0  0  0  0  0  0  0  0  0
    2.0249   -1.1834   -0.0416 C   0  0  0  0  0  0  0  0  0  0  0  0
    0.5617   -1.2521   -0.2283 C   0  0  0  0  0  0  0  0  0  0  0  0
    1.8793    1.2892    0.0025 C   0  0  0  0  0  0  0  0  0  0  0  0
   -0.3149    2.3993    0.1256 C   0  0  0  0  0  0  0  0  0  0  0  0
   -2.5025   -1.2446    0.0865 C   0  0  0  0  0  0  0  0  0  0  0  0
   -1.7029    2.3738    0.1772 C   0  0  0  0  0  0  0  0  0  0  0  0
   -3.8058    1.1919    0.2317 C   0  0  0  0  0  0  0  0  0  0  0  0
   -4.5507    0.0181    0.2351 C   0  0  0  0  0  0  0  0  0  0  0  0
    4.0561    0.1072    0.2102 C   0  0  0  0  0  0  0  0  0  0  0  0
   -3.8980   -1.2010    0.1681 C   0  0  0  0  0  0  0  0  0  0  0  0
    2.7776   -2.3640    0.0049 C   0  0  0  0  0  0  0  0  0  0  0  0
    4.8017   -1.0705    0.2595 C   0  0  0  0  0  0  0  0  0  0  0  0
    4.1632   -2.3043    0.1575 C   0  0  0  0  0  0  0  0  0  0  0  0
   -6.0373    0.0722    0.3263 C   0  0  0  0  0  0  0  0  0  0  0  0
    5.1934    1.8855   -0.8854 C   0  0  0  0  0  0  0  0  0  0  0  0
    0.1863    3.3627    0.1668 H   0  0  0  0  0  0  0  0  0  0  0  0
   -2.2342    3.3211    0.2514 H   0  0  0  0  0  0  0  0  0  0  0  0
   -4.3254    2.1474    0.2949 H   0  0  0  0  0  0  0  0  0  0  0  0
   -4.4820   -2.1184    0.2014 H   0  0  0  0  0  0  0  0  0  0  0  0
    2.3042   -3.3392   -0.0736 H   0  0  0  0  0  0  0  0  0  0  0  0
    5.8813   -1.0351    0.3791 H   0  0  0  0  0  0  0  0  0  0  0  0
    4.7445   -3.2210    0.1957 H   0  0  0  0  0  0  0  0  0  0  0  0
   -6.4409   -0.8121    0.8308 H   0  0  0  0  0  0  0  0  0  0  0  0
   -6.3731    0.9476    0.8927 H   0  0  0  0  0  0  0  0  0  0  0  0
   -2.7276   -3.1682    0.1959 H   0  0  0  0  0  0  0  0  0  0  0  0
    6.1195    1.4001   -1.2085 H   0  0  0  0  0  0  0  0  0  0  0  0
    5.4031    2.9401   -0.6866 H   0  0  0  0  0  0  0  0  0  0  0  0
    4.4479    1.8185   -1.6847 H   0  0  0  0  0  0  0  0  0  0  0  0
   -6.1274    0.8362   -1.4754 H   0  0  0  0  0  0  0  0  0  0  0  0
  1 15  1  0  0  0  0
  1 35  1  0  0  0  0
  2 12  2  0  0  0  0
  3 19  1  0  0  0  0
  3 25  1  0  0  0  0
  4 13  2  0  0  0  0
  5 24  1  0  0  0  0
  5 39  1  0  0  0  0
  6  7  1  0  0  0  0
  6  8  2  0  0  0  0
  6 12  1  0  0  0  0
  7  9  1  0  0  0  0
  7 15  2  0  0  0  0
  8 13  1  0  0  0  0
  8 14  1  0  0  0  0
  9 16  1  0  0  0  0
  9 17  2  0  0  0  0
 10 11  2  0  0  0  0
 10 13  1  0  0  0  0
 10 19  1  0  0  0  0
 11 12  1  0  0  0  0
 11 21  1  0  0  0  0
 14 16  2  0  0  0  0
 14 26  1  0  0  0  0
 15 20  1  0  0  0  0
 16 27  1  0  0  0  0
 17 18  1  0  0  0  0
 17 28  1  0  0  0  0
 18 20  2  0  0  0  0
 18 24  1  0  0  0  0
 19 22  2  0  0  0  0
 20 29  1  0  0  0  0
 21 23  2  0  0  0  0
 21 30  1  0  0  0  0
 22 23  1  0  0  0  0
 22 31  1  0  0  0  0
 23 32  1  0  0  0  0
 24 33  1  0  0  0  0
 24 34  1  0  0  0  0
 25 36  1  0  0  0  0
 25 37  1  0  0  0  0
 25 38  1  0  0  0  0
M  END
> <PUBCHEM_COMPOUND_CID>
379539

> <PUBCHEM_CONFORMER_RMSD>
0.6

> <PUBCHEM_CONFORMER_DIVERSEORDER>
2
1

> <PUBCHEM_MMFF94_PARTIAL_CHARGES>
32
1 -0.53
10 0.09
11 0.09
12 0.4
13 0.4
14 -0.15
15 0.08
16 -0.15
17 -0.15
18 -0.14
19 0.08
2 -0.57
20 -0.15
21 -0.15
22 -0.15
23 -0.15
24 0.42
25 0.28
26 0.15
27 0.15
28 0.15
29 0.15
3 -0.36
30 0.15
31 0.15
32 0.15
35 0.45
39 0.4
4 -0.57
5 -0.68
6 0.09
8 0.09

> <PUBCHEM_EFFECTIVE_ROTOR_COUNT>
2

> <PUBCHEM_PHARMACOPHORE_FEATURES>
10
1 1 donor
1 2 acceptor
1 3 acceptor
1 4 acceptor
1 5 acceptor
1 5 donor
6 10 11 19 21 22 23 rings
6 6 7 8 9 14 16 rings
6 6 8 10 11 12 13 rings
6 7 9 15 17 18 20 rings

> <PUBCHEM_HEAVY_ATOM_COUNT>
25

> <PUBCHEM_ATOM_DEF_STEREO_COUNT>
0

> <PUBCHEM_ATOM_UDEF_STEREO_COUNT>
0

> <PUBCHEM_BOND_DEF_STEREO_COUNT>
0

> <PUBCHEM_BOND_UDEF_STEREO_COUNT>
0

> <PUBCHEM_ISOTOPIC_ATOM_COUNT>
0

> <PUBCHEM_COMPONENT_COUNT>
1

> <PUBCHEM_CACTVS_TAUTO_COUNT>
6

> <PUBCHEM_CONFORMER_ID>
0005CA9300000002

> <PUBCHEM_MMFF94_ENERGY>
105.6256

> <PUBCHEM_FEATURE_SELFOVERLAP>
50.822

> <PUBCHEM_SHAPE_FINGERPRINT>
10 15 18337404781755027722
10411042 1 17978228589146059190
10616163 171 18337667495328450278
10906281 52 18263907939306255049
10967382 1 18410009927143953264
1100329 8 18410857624860757635
11578080 2 13685142329527265460
12011746 2 18408882940568193431
12107183 9 17760644067759557136
12236239 1 17749109998148720909
12403260 363 18265617765211916259
12788726 201 17822280323101874617
12838862 33 18337409152945654920
13140716 1 18337112241787417242
13402501 40 18410856581536742675
13533116 47 18333733537028633330
138480 1 14375348074988939280
13862211 1 18409171043223065847
14341114 176 18412256246632259363
14787075 74 18412263921638486634
14790565 3 18337383950378158065
15196674 1 18338234967855969625
15927050 60 17612874794691824716
17349148 13 18186803608144863877
17492 89 18121781887655618730
1813 80 17274818073363022260
19591789 44 18266177429826865194
200 152 18113624504026051889
20028762 73 18187089502432874607
20642791 178 17913762813258956780
21236236 1 18336829818525501201
21267235 1 18337665425476096890
21279426 13 18268152135820541493
21421861 104 18131079280992104042
21792934 111 18337684121415924449
21859007 373 17772777037255402037
23402539 116 18334301980936452631
23559900 14 18337957770704025025
2871803 45 18343022228424162306
3004659 81 18273214231435617098
335352 9 18410292510190623607
34797466 226 15791734061731698328
34934 24 18410295770065837922
350125 39 18410009948672004992
3545911 37 18411417302185891976
3680242 22 18268425909440823243
4073 2 18059850628548350323
4214541 1 18338797943463182688
4409770 3 16474879667881418598
474 4 17703218526126108308
5104073 3 18337670926854261977
5283173 99 18057895830039489997
9709674 26 18336822121242486798
9981440 41 17476359396569805721

> <PUBCHEM_SHAPE_MULTIPOLES>
485.14
11.88
2.82
0.7
6.74
0.04
-0.05
0.13
-0.67
-1.93
-0.07
0.05
-0.04
-0.42

> <PUBCHEM_SHAPE_SELFOVERLAP>
1104.587

> <PUBCHEM_SHAPE_VOLUME>
251.4

> <PUBCHEM_COORDINATE_TYPE>
2
5
10

$$$$

