8546
  -OEChem-06261202532D

 45 48  0     0  0  0  0  0  0999 V2000
    2.8660    1.2581    0.0000 O   0  0  0  0  0  0  0  0  0  0  0  0
    3.3126   -1.2741    0.0000 O   0  0  0  0  0  0  0  0  0  0  0  0
    2.8660    4.2581    0.0000 O   0  0  0  0  0  0  0  0  0  0  0  0
    4.3386   -4.0931    0.0000 O   0  0  0  0  0  0  0  0  0  0  0  0
    2.0000    2.7581    0.0000 O   0  0  0  0  0  0  0  0  0  0  0  0
    3.0117   -2.9798    0.0000 O   0  0  0  0  0  0  0  0  0  0  0  0
    4.5981    0.2581    0.0000 C   0  0  0  0  0  0  0  0  0  0  0  0
    4.5981    1.2581    0.0000 C   0  0  0  0  0  0  0  0  0  0  0  0
    4.9401   -0.6816    0.0000 C   0  0  0  0  0  0  0  0  0  0  0  0
    5.4641    1.7581    0.0000 C   0  0  0  0  0  0  0  0  0  0  0  0
    5.9249   -0.8553    0.0000 C   0  0  0  0  0  0  0  0  0  0  0  0
    5.4641    2.7581    0.0000 C   0  0  0  0  0  0  0  0  0  0  0  0
    6.2669   -1.7950    0.0000 C   0  0  0  0  0  0  0  0  0  0  0  0
    3.7320    1.7581    0.0000 C   0  0  0  0  0  0  0  0  0  0  0  0
    4.2973   -1.4477    0.0000 C   0  0  0  0  0  0  0  0  0  0  0  0
    3.7320    2.7581    0.0000 C   0  0  0  0  0  0  0  0  0  0  0  0
    4.6393   -2.3874    0.0000 C   0  0  0  0  0  0  0  0  0  0  0  0
    4.5981    3.2581    0.0000 C   0  0  0  0  0  0  0  0  0  0  0  0
    5.6241   -2.5610    0.0000 C   0  0  0  0  0  0  0  0  0  0  0  0
    6.3580    1.2234    0.0000 C   0  0  0  0  0  0  0  0  0  0  0  0
    6.5821   -0.0471    0.0000 C   0  0  0  0  0  0  0  0  0  0  0  0
    6.3580    3.2927    0.0000 C   0  0  0  0  0  0  0  0  0  0  0  0
    7.2898   -1.9916    0.0000 C   0  0  0  0  0  0  0  0  0  0  0  0
    7.2641    1.7372    0.0000 C   0  0  0  0  0  0  0  0  0  0  0  0
    7.6092   -0.2201    0.0000 C   0  0  0  0  0  0  0  0  0  0  0  0
    7.2641    2.7789    0.0000 C   0  0  0  0  0  0  0  0  0  0  0  0
    7.9655   -1.1989    0.0000 C   0  0  0  0  0  0  0  0  0  0  0  0
    2.8660    3.2581    0.0000 C   0  0  0  0  0  0  0  0  0  0  0  0
    3.9965   -3.1534    0.0000 C   0  0  0  0  0  0  0  0  0  0  0  0
    4.0288    0.5036    0.0000 H   0  0  0  0  0  0  0  0  0  0  0  0
    5.2087    0.3657    0.0000 H   0  0  0  0  0  0  0  0  0  0  0  0
    5.8362   -3.1436    0.0000 H   0  0  0  0  0  0  0  0  0  0  0  0
    4.5981    3.8781    0.0000 H   0  0  0  0  0  0  0  0  0  0  0  0
    6.3633    0.5330    0.0000 H   0  0  0  0  0  0  0  0  0  0  0  0
    6.3509    0.6034    0.0000 H   0  0  0  0  0  0  0  0  0  0  0  0
    7.4951   -2.5767    0.0000 H   0  0  0  0  0  0  0  0  0  0  0  0
    6.3509    3.9127    0.0000 H   0  0  0  0  0  0  0  0  0  0  0  0
    8.0059    0.2564    0.0000 H   0  0  0  0  0  0  0  0  0  0  0  0
    7.7998    1.4252    0.0000 H   0  0  0  0  0  0  0  0  0  0  0  0
    7.7998    3.0909    0.0000 H   0  0  0  0  0  0  0  0  0  0  0  0
    8.5757   -1.3089    0.0000 H   0  0  0  0  0  0  0  0  0  0  0  0
    2.9140   -1.7490    0.0000 H   0  0  0  0  0  0  0  0  0  0  0  0
    2.3291    1.5681    0.0000 H   0  0  0  0  0  0  0  0  0  0  0  0
    2.3291    4.5681    0.0000 H   0  0  0  0  0  0  0  0  0  0  0  0
    3.9400   -4.5681    0.0000 H   0  0  0  0  0  0  0  0  0  0  0  0
  1 14  1  0  0  0  0
  1 43  1  0  0  0  0
  2 15  1  0  0  0  0
  2 42  1  0  0  0  0
  3 28  1  0  0  0  0
  3 44  1  0  0  0  0
  4 29  1  0  0  0  0
  4 45  1  0  0  0  0
  5 28  2  0  0  0  0
  6 29  2  0  0  0  0
  7  8  1  0  0  0  0
  7  9  1  0  0  0  0
  7 30  1  0  0  0  0
  7 31  1  0  0  0  0
  8 10  1  0  0  0  0
  8 14  2  0  0  0  0
  9 11  1  0  0  0  0
  9 15  2  0  0  0  0
 10 12  1  0  0  0  0
 10 20  2  0  0  0  0
 11 13  1  0  0  0  0
 11 21  2  0  0  0  0
 12 18  1  0  0  0  0
 12 22  2  0  0  0  0
 13 19  1  0  0  0  0
 13 23  2  0  0  0  0
 14 16  1  0  0  0  0
 15 17  1  0  0  0  0
 16 18  2  0  0  0  0
 16 28  1  0  0  0  0
 17 19  2  0  0  0  0
 17 29  1  0  0  0  0
 18 33  1  0  0  0  0
 19 32  1  0  0  0  0
 20 24  1  0  0  0  0
 20 35  1  0  0  0  0
 21 25  1  0  0  0  0
 21 34  1  0  0  0  0
 22 26  1  0  0  0  0
 22 37  1  0  0  0  0
 23 27  1  0  0  0  0
 23 36  1  0  0  0  0
 24 26  2  0  0  0  0
 24 39  1  0  0  0  0
 25 27  2  0  0  0  0
 25 38  1  0  0  0  0
 26 40  1  0  0  0  0
 27 41  1  0  0  0  0
M  END
> <PUBCHEM_COMPOUND_CID>
8546

> <PUBCHEM_COMPOUND_CANONICALIZED>
1

> <PUBCHEM_CACTVS_COMPLEXITY>
569

> <PUBCHEM_CACTVS_HBOND_ACCEPTOR>
6

> <PUBCHEM_CACTVS_HBOND_DONOR>
4

> <PUBCHEM_CACTVS_ROTATABLE_BOND>
4

> <PUBCHEM_CACTVS_SUBSKEYS>
AAADceB4OAAAAAAAAAAAAAAAAAAAAAAAAAAwYMGAAAAAAADBVAAAGgAACAAADASAmAAwDsAAAgCIAiDSCAACAAAkIAAIiAEECMgIJzaCFRKAcUAl4BEImYeI6PSO4AADAAAYAADAAAYAADAAAAAAAAAAAA==

> <PUBCHEM_IUPAC_OPENEYE_NAME>
4-[(3-carboxy-2-hydroxy-1-naphthyl)methyl]-3-hydroxy-naphthalene-2-carboxylic acid

> <PUBCHEM_IUPAC_CAS_NAME>
4-[(3-carboxy-2-hydroxy-1-naphthalenyl)methyl]-3-hydroxy-2-naphthalenecarboxylic acid

> <PUBCHEM_IUPAC_NAME>
4-[(3-carboxy-2-hydroxynaphthalen-1-yl)methyl]-3-hydroxynaphthalene-2-carboxylic acid

> <PUBCHEM_IUPAC_SYSTEMATIC_NAME>
4-[(3-carboxy-2-oxidanyl-naphthalen-1-yl)methyl]-3-oxidanyl-naphthalene-2-carboxylic acid

> <PUBCHEM_IUPAC_TRADITIONAL_NAME>
4-[(3-carboxy-2-hydroxy-1-naphthyl)methyl]-3-hydroxy-2-naphthoic acid

> <PUBCHEM_IUPAC_INCHI>
InChI=1S/C23H16O6/c24-20-16(14-7-3-1-5-12(14)9-18(20)22(26)27)11-17-15-8-4-2-6-13(15)10-19(21(17)25)23(28)29/h1-10,24-25H,11H2,(H,26,27)(H,28,29)

> <PUBCHEM_IUPAC_INCHIKEY>
WLJNZVDCPSBLRP-UHFFFAOYSA-N

> <PUBCHEM_XLOGP3_AA>
5.8

> <PUBCHEM_EXACT_MASS>
388.094688

> <PUBCHEM_MOLECULAR_FORMULA>
C23H16O6

> <PUBCHEM_MOLECULAR_WEIGHT>
388.36954

> <PUBCHEM_OPENEYE_CAN_SMILES>
C1=CC=C2C(=C1)C=C(C(=C2CC3=C(C(=CC4=CC=CC=C43)C(=O)O)O)O)C(=O)O

> <PUBCHEM_OPENEYE_ISO_SMILES>
C1=CC=C2C(=C1)C=C(C(=C2CC3=C(C(=CC4=CC=CC=C43)C(=O)O)O)O)C(=O)O

> <PUBCHEM_CACTVS_TPSA>
115

> <PUBCHEM_MONOISOTOPIC_WEIGHT>
388.094688

> <PUBCHEM_TOTAL_CHARGE>
0

> <PUBCHEM_HEAVY_ATOM_COUNT>
29

> <PUBCHEM_ATOM_DEF_STEREO_COUNT>
0

> <PUBCHEM_ATOM_UDEF_STEREO_COUNT>
0

> <PUBCHEM_BOND_DEF_STEREO_COUNT>
0

> <PUBCHEM_BOND_UDEF_STEREO_COUNT>
0

> <PUBCHEM_ISOTOPIC_ATOM_COUNT>
0

> <PUBCHEM_COMPONENT_COUNT>
1

> <PUBCHEM_CACTVS_TAUTO_COUNT>
9

> <PUBCHEM_COORDINATE_TYPE>
1
5
255

> <PUBCHEM_BONDANNOTATIONS>
10  12  8
10  20  8
11  13  8
11  21  8
12  18  8
12  22  8
13  19  8
13  23  8
14  16  8
15  17  8
16  18  8
17  19  8
20  24  8
21  25  8
22  26  8
23  27  8
24  26  8
25  27  8
8  10  8
8  14  8
9  11  8
9  15  8

$$$$

