40473184
  -OEChem-07051212543D

 33 33  0     1  0  0  0  0  0999 V2000
   -3.2846    0.6927    0.1493 P   0  0  0  0  0  0  0  0  0  0  0  0
   -0.0225    0.3708   -0.3951 O   0  0  0  0  0  0  0  0  0  0  0  0
    3.0195   -1.3021    0.8071 O   0  0  0  0  0  0  0  0  0  0  0  0
    1.3206   -3.5182    0.0655 O   0  0  0  0  0  0  0  0  0  0  0  0
   -2.2535   -0.3445   -0.5369 O   0  0  0  0  0  0  0  0  0  0  0  0
   -0.4321   -2.1461   -1.6153 O   0  0  0  0  0  0  0  0  0  0  0  0
    3.4360    1.2078    0.3344 O   0  0  0  0  0  0  0  0  0  0  0  0
    2.4868    3.6824   -0.5645 O   0  0  0  0  0  0  0  0  0  0  0  0
   -2.4117    2.0421    0.3297 O   0  0  0  0  0  0  0  0  0  0  0  0
   -3.4075    0.1249    1.6585 O   0  0  0  0  0  0  0  0  0  0  0  0
   -4.5896    0.8643   -0.5716 O   0  0  0  0  0  0  0  0  0  0  0  0
    1.2442    0.2372    0.2581 C   0  0  1  0  0  0  0  0  0  0  0  0
    1.8313   -1.1631    0.0324 C   0  0  2  0  0  0  0  0  0  0  0  0
    0.8247   -2.2387    0.4492 C   0  0  1  0  0  0  0  0  0  0  0  0
   -0.5376   -1.9884   -0.1970 C   0  0  1  0  0  0  0  0  0  0  0  0
   -0.9934   -0.5584    0.0919 C   0  0  1  0  0  0  0  0  0  0  0  0
    2.1612    1.3248   -0.2922 C   0  0  1  0  0  0  0  0  0  0  0  0
    1.6080    2.7127   -0.0037 C   0  0  0  0  0  0  0  0  0  0  0  0
    1.1146    0.4058    1.3369 H   0  0  0  0  0  0  0  0  0  0  0  0
    2.1145   -1.3054   -1.0170 H   0  0  0  0  0  0  0  0  0  0  0  0
    0.7263   -2.2488    1.5418 H   0  0  0  0  0  0  0  0  0  0  0  0
   -1.2771   -2.7214    0.1416 H   0  0  0  0  0  0  0  0  0  0  0  0
   -1.0952   -0.4226    1.1748 H   0  0  0  0  0  0  0  0  0  0  0  0
    2.3060    1.2045   -1.3727 H   0  0  0  0  0  0  0  0  0  0  0  0
    0.6173    2.8564   -0.4450 H   0  0  0  0  0  0  0  0  0  0  0  0
    1.5558    2.8991    1.0742 H   0  0  0  0  0  0  0  0  0  0  0  0
    2.7856   -1.1775    1.7427 H   0  0  0  0  0  0  0  0  0  0  0  0
    0.6591   -4.1795    0.3310 H   0  0  0  0  0  0  0  0  0  0  0  0
    0.0652   -1.3907   -1.9715 H   0  0  0  0  0  0  0  0  0  0  0  0
    4.0007    1.9168   -0.0181 H   0  0  0  0  0  0  0  0  0  0  0  0
    2.1132    4.5568   -0.3609 H   0  0  0  0  0  0  0  0  0  0  0  0
   -2.8494    2.8476    0.6785 H   0  0  0  0  0  0  0  0  0  0  0  0
   -4.0579    0.5343    2.2681 H   0  0  0  0  0  0  0  0  0  0  0  0
  1  5  1  0  0  0  0
  1  9  1  0  0  0  0
  1 10  1  0  0  0  0
  1 11  2  0  0  0  0
  2 12  1  0  0  0  0
  2 16  1  0  0  0  0
  3 13  1  0  0  0  0
  3 27  1  0  0  0  0
  4 14  1  0  0  0  0
  4 28  1  0  0  0  0
  5 16  1  0  0  0  0
  6 15  1  0  0  0  0
  6 29  1  0  0  0  0
  7 17  1  0  0  0  0
  7 30  1  0  0  0  0
  8 18  1  0  0  0  0
  8 31  1  0  0  0  0
  9 32  1  0  0  0  0
 10 33  1  0  0  0  0
 12 13  1  0  0  0  0
 12 17  1  0  0  0  0
 12 19  1  0  0  0  0
 13 14  1  0  0  0  0
 13 20  1  0  0  0  0
 14 15  1  0  0  0  0
 14 21  1  0  0  0  0
 15 16  1  0  0  0  0
 15 22  1  0  0  0  0
 16 23  1  0  0  0  0
 17 18  1  0  0  0  0
 17 24  1  0  0  0  0
 18 25  1  0  0  0  0
 18 26  1  0  0  0  0
M  END
> <PUBCHEM_COMPOUND_CID>
40473184

> <PUBCHEM_CONFORMER_RMSD>
0.8

> <PUBCHEM_CONFORMER_DIVERSEORDER>
1
12
10
4
9
13
8
5
3
14
7
11
2
6

> <PUBCHEM_MMFF94_PARTIAL_CHARGES>
25
1 1.51
10 -0.77
11 -0.7
12 0.28
13 0.28
14 0.28
15 0.28
16 0.56
17 0.28
18 0.28
2 -0.56
27 0.4
28 0.4
29 0.4
3 -0.68
30 0.4
31 0.4
32 0.5
33 0.5
4 -0.68
5 -0.55
6 -0.68
7 -0.68
8 -0.68
9 -0.77

> <PUBCHEM_EFFECTIVE_ROTOR_COUNT>
5.2

> <PUBCHEM_PHARMACOPHORE_FEATURES>
16
1 10 acceptor
1 11 acceptor
1 2 acceptor
1 3 acceptor
1 3 donor
1 4 acceptor
1 4 donor
1 6 acceptor
1 6 donor
1 7 acceptor
1 7 donor
1 8 acceptor
1 8 donor
1 9 acceptor
4 1 9 10 11 anion
6 2 12 13 14 15 16 rings

> <PUBCHEM_HEAVY_ATOM_COUNT>
18

> <PUBCHEM_ATOM_DEF_STEREO_COUNT>
6

> <PUBCHEM_ATOM_UDEF_STEREO_COUNT>
0

> <PUBCHEM_BOND_DEF_STEREO_COUNT>
0

> <PUBCHEM_BOND_UDEF_STEREO_COUNT>
0

> <PUBCHEM_ISOTOPIC_ATOM_COUNT>
0

> <PUBCHEM_COMPONENT_COUNT>
1

> <PUBCHEM_CACTVS_TAUTO_COUNT>
1

> <PUBCHEM_CONFORMER_ID>
0269926000000001

> <PUBCHEM_MMFF94_ENERGY>
12.1122

> <PUBCHEM_FEATURE_SELFOVERLAP>
81.277

> <PUBCHEM_SHAPE_FINGERPRINT>
10967382 1 18338802315855713576
10980938 120 18411701019003513058
11578080 2 12246845850412371751
116883 192 17183628130856142149
13134695 92 18125728030544818735
13140716 1 18340212894779868130
14026960 21 18341887451194523769
14123255 52 18268429031729377892
14790565 3 18339352072308554748
15490181 8 18123197801266108450
15775835 57 18261110755649609457
16945 1 18339359768156498755
17134986 127 18339642239612939212
18186145 218 18188478121124907333
20510252 161 17617092512615829000
20559304 39 18337953514327669729
20645477 70 18340211903111706607
20671657 1 18411134702102018100
21041028 32 17765159758036740050
21524375 3 18188768340723429061
21639500 275 18340220664660393845
21665062 11 18121769801638175425
22094290 62 18410575067689146016
22854114 111 18410572916068734273
2334 1 18122346774390662530
23558518 356 17695350279099302912
2748010 2 18268985397629588846
3060560 45 18409166627722106580
474 4 18410577275487010953
5939293 188 18267306627941491533
7364860 26 18337954605106834135
7832392 63 18337116670447312334
81228 2 17398391927552764467

> <PUBCHEM_SHAPE_MULTIPOLES>
315.59
5.7
3.71
0.93
4.95
0.34
-0.02
3.49
-0.69
-3.12
0.47
0.45
-0.23
-0.56

> <PUBCHEM_SHAPE_SELFOVERLAP>
620.486

> <PUBCHEM_SHAPE_VOLUME>
189.1

> <PUBCHEM_COORDINATE_TYPE>
2
5
10

$$$$

