11383310
  -OEChem-07051213113D

 59 58  0     1  0  0  0  0  0999 V2000
   -6.4483   -0.0764    0.7816 O   0  0  0  0  0  0  0  0  0  0  0  0
   -4.6719   -1.7606    2.1622 O   0  0  0  0  0  0  0  0  0  0  0  0
    5.8222    1.7399   -1.2538 O   0  0  0  0  0  0  0  0  0  0  0  0
    0.2651   -2.7902   -1.0021 O   0  0  0  0  0  0  0  0  0  0  0  0
    0.9770   -2.3443    1.1144 O   0  0  0  0  0  0  0  0  0  0  0  0
   -5.4828   -0.8432    0.0629 C   0  0  2  0  0  0  0  0  0  0  0  0
   -4.2595   -1.1038    0.9649 C   0  0  1  0  0  0  0  0  0  0  0  0
   -5.2546   -0.2097   -1.3211 C   0  0  0  0  0  0  0  0  0  0  0  0
   -4.6124    1.1478   -1.3261 C   0  0  0  0  0  0  0  0  0  0  0  0
   -3.4742    0.1177    1.3538 C   0  0  0  0  0  0  0  0  0  0  0  0
   -3.4631    1.4313   -1.9568 C   0  0  0  0  0  0  0  0  0  0  0  0
    5.5725    0.0576    0.4538 C   0  0  0  0  0  0  0  0  0  0  0  0
    4.8488    1.0433   -0.4752 C   0  0  1  0  0  0  0  0  0  0  0  0
   -2.6728    0.4243   -2.7387 C   0  0  0  0  0  0  0  0  0  0  0  0
   -2.1706    0.2811    1.0790 C   0  0  0  0  0  0  0  0  0  0  0  0
    5.8962   -1.2442   -0.2195 C   0  0  0  0  0  0  0  0  0  0  0  0
    3.6911   -2.2827    0.3537 C   0  0  0  0  0  0  0  0  0  0  0  0
    5.0593   -2.2907   -0.2662 C   0  0  0  0  0  0  0  0  0  0  0  0
    4.0498    2.0733    0.2746 C   0  0  0  0  0  0  0  0  0  0  0  0
    2.5930   -2.5104   -0.6825 C   0  0  0  0  0  0  0  0  0  0  0  0
   -1.4195    1.0442   -3.3363 C   0  0  0  0  0  0  0  0  0  0  0  0
   -1.3861    1.4399    1.4451 C   0  0  0  0  0  0  0  0  0  0  0  0
    2.7465    1.9286    0.5590 C   0  0  0  0  0  0  0  0  0  0  0  0
   -0.0825    1.5974    1.1674 C   0  0  0  0  0  0  0  0  0  0  0  0
    1.9824    2.9083    1.2975 C   0  0  0  0  0  0  0  0  0  0  0  0
    1.2152   -2.5348   -0.0696 C   0  0  0  0  0  0  0  0  0  0  0  0
    0.6792    2.7563    1.5781 C   0  0  0  0  0  0  0  0  0  0  0  0
   -5.9648   -1.8165   -0.1009 H   0  0  0  0  0  0  0  0  0  0  0  0
   -3.6079   -1.8083    0.4322 H   0  0  0  0  0  0  0  0  0  0  0  0
   -6.2285   -0.0950   -1.8154 H   0  0  0  0  0  0  0  0  0  0  0  0
   -4.6920   -0.9280   -1.9261 H   0  0  0  0  0  0  0  0  0  0  0  0
   -5.1243    1.9450   -0.7933 H   0  0  0  0  0  0  0  0  0  0  0  0
   -4.0086    0.8923    1.8998 H   0  0  0  0  0  0  0  0  0  0  0  0
    6.5244    0.4950    0.7853 H   0  0  0  0  0  0  0  0  0  0  0  0
    5.0078   -0.1152    1.3765 H   0  0  0  0  0  0  0  0  0  0  0  0
   -7.2452   -0.0080    0.2287 H   0  0  0  0  0  0  0  0  0  0  0  0
   -3.0888    2.4505   -1.8990 H   0  0  0  0  0  0  0  0  0  0  0  0
    4.1906    0.5162   -1.1771 H   0  0  0  0  0  0  0  0  0  0  0  0
   -3.8732   -1.9807    2.6720 H   0  0  0  0  0  0  0  0  0  0  0  0
   -3.2826    0.0246   -3.5569 H   0  0  0  0  0  0  0  0  0  0  0  0
   -2.3732   -0.4067   -2.0904 H   0  0  0  0  0  0  0  0  0  0  0  0
   -1.6459   -0.5046    0.5396 H   0  0  0  0  0  0  0  0  0  0  0  0
    6.8643   -1.3271   -0.7062 H   0  0  0  0  0  0  0  0  0  0  0  0
    3.6574   -3.0897    1.0973 H   0  0  0  0  0  0  0  0  0  0  0  0
    3.4642   -1.3679    0.9060 H   0  0  0  0  0  0  0  0  0  0  0  0
    5.3774   -3.1960   -0.7762 H   0  0  0  0  0  0  0  0  0  0  0  0
    4.5834    2.9544    0.6255 H   0  0  0  0  0  0  0  0  0  0  0  0
    2.7536   -3.4686   -1.1907 H   0  0  0  0  0  0  0  0  0  0  0  0
    2.6140   -1.7079   -1.4291 H   0  0  0  0  0  0  0  0  0  0  0  0
   -0.7598    1.4358   -2.5543 H   0  0  0  0  0  0  0  0  0  0  0  0
   -0.8603    0.2932   -3.9037 H   0  0  0  0  0  0  0  0  0  0  0  0
   -1.6679    1.8657   -4.0170 H   0  0  0  0  0  0  0  0  0  0  0  0
   -1.9125    2.2185    1.9942 H   0  0  0  0  0  0  0  0  0  0  0  0
    2.2816    1.0199    0.1981 H   0  0  0  0  0  0  0  0  0  0  0  0
    6.3039    1.0801   -1.7813 H   0  0  0  0  0  0  0  0  0  0  0  0
    0.3921    0.7919    0.6207 H   0  0  0  0  0  0  0  0  0  0  0  0
    2.4930    3.8055    1.6371 H   0  0  0  0  0  0  0  0  0  0  0  0
    0.1665    3.5343    2.1372 H   0  0  0  0  0  0  0  0  0  0  0  0
   -0.6357   -2.8007   -0.6139 H   0  0  0  0  0  0  0  0  0  0  0  0
  1  6  1  0  0  0  0
  1 36  1  0  0  0  0
  2  7  1  0  0  0  0
  2 39  1  0  0  0  0
  3 13  1  0  0  0  0
  3 55  1  0  0  0  0
  4 26  1  0  0  0  0
  4 59  1  0  0  0  0
  5 26  2  0  0  0  0
  6  7  1  0  0  0  0
  6  8  1  0  0  0  0
  6 28  1  0  0  0  0
  7 10  1  0  0  0  0
  7 29  1  0  0  0  0
  8  9  1  0  0  0  0
  8 30  1  0  0  0  0
  8 31  1  0  0  0  0
  9 11  2  0  0  0  0
  9 32  1  0  0  0  0
 10 15  2  0  0  0  0
 10 33  1  0  0  0  0
 11 14  1  0  0  0  0
 11 37  1  0  0  0  0
 12 13  1  0  0  0  0
 12 16  1  0  0  0  0
 12 34  1  0  0  0  0
 12 35  1  0  0  0  0
 13 19  1  0  0  0  0
 13 38  1  0  0  0  0
 14 21  1  0  0  0  0
 14 40  1  0  0  0  0
 14 41  1  0  0  0  0
 15 22  1  0  0  0  0
 15 42  1  0  0  0  0
 16 18  2  0  0  0  0
 16 43  1  0  0  0  0
 17 18  1  0  0  0  0
 17 20  1  0  0  0  0
 17 44  1  0  0  0  0
 17 45  1  0  0  0  0
 18 46  1  0  0  0  0
 19 23  2  0  0  0  0
 19 47  1  0  0  0  0
 20 26  1  0  0  0  0
 20 48  1  0  0  0  0
 20 49  1  0  0  0  0
 21 50  1  0  0  0  0
 21 51  1  0  0  0  0
 21 52  1  0  0  0  0
 22 24  2  0  0  0  0
 22 53  1  0  0  0  0
 23 25  1  0  0  0  0
 23 54  1  0  0  0  0
 24 27  1  0  0  0  0
 24 56  1  0  0  0  0
 25 27  2  0  0  0  0
 25 57  1  0  0  0  0
 27 58  1  0  0  0  0
M  END
> <PUBCHEM_COMPOUND_CID>
11383310

> <PUBCHEM_CONFORMER_RMSD>
1.2

> <PUBCHEM_CONFORMER_DIVERSEORDER>
1
141
63
37
45
111
108
139
122
129
58
69
51
140
42
67
105
41
113
93
50
89
102
74
62
115
123
83
32
98
136
49
86
96
54
132
120
43
125
78
99
35
71
128
133
116
48
46
81
39
84
77
104
6
103
73
138
30
106
127
44
137
131
100
64
94
66
34
47
117
60
57
52
110
109
8
95
17
92
97
56
18
90
121
124
10
119
107
134
5
87
53
40
70
21
80
19
29
114
112
33
28
76
61
27
59
16
130
26
82
118
20
85
22
101
36
38
24
79
135
15
88
126
7
91
31
68
13
65
25
55
2
9
72
75
14
12
23
3
11
4

> <PUBCHEM_MMFF94_PARTIAL_CHARGES>
42
1 -0.68
10 -0.29
11 -0.29
12 0.14
13 0.42
14 0.14
15 -0.15
16 -0.29
17 0.14
18 -0.29
19 -0.29
2 -0.68
20 0.06
22 -0.15
23 -0.15
24 -0.15
25 -0.15
26 0.66
27 -0.15
3 -0.68
32 0.15
33 0.15
36 0.4
37 0.15
39 0.4
4 -0.65
42 0.15
43 0.15
46 0.15
47 0.15
5 -0.57
53 0.15
54 0.15
55 0.4
56 0.15
57 0.15
58 0.15
59 0.5
6 0.28
7 0.42
8 0.14
9 -0.29

> <PUBCHEM_EFFECTIVE_ROTOR_COUNT>
14

> <PUBCHEM_PHARMACOPHORE_FEATURES>
10
1 1 acceptor
1 1 donor
1 2 acceptor
1 2 donor
1 21 hydrophobe
1 3 acceptor
1 3 donor
1 4 acceptor
1 5 acceptor
3 4 5 26 anion

> <PUBCHEM_HEAVY_ATOM_COUNT>
27

> <PUBCHEM_ATOM_DEF_STEREO_COUNT>
3

> <PUBCHEM_ATOM_UDEF_STEREO_COUNT>
0

> <PUBCHEM_BOND_DEF_STEREO_COUNT>
6

> <PUBCHEM_BOND_UDEF_STEREO_COUNT>
0

> <PUBCHEM_ISOTOPIC_ATOM_COUNT>
0

> <PUBCHEM_COMPONENT_COUNT>
1

> <PUBCHEM_CACTVS_TAUTO_COUNT>
1

> <PUBCHEM_CONFORMER_ID>
00ADB20E00000001

> <PUBCHEM_MMFF94_ENERGY>
32.5557

> <PUBCHEM_FEATURE_SELFOVERLAP>
50.807

> <PUBCHEM_SHAPE_FINGERPRINT>
11578080 2 18059010709023080709
13402501 40 18201720651949176862
14040221 97 18056186983228103844
14480069 147 18335986453734483484
14840074 17 17385729118597681415
14931854 50 18336811049554944948
15001296 14 17096101176962187549
15119646 104 18334005120854053721
15537594 2 17822008688348750300
4098825 35 18340490066974983281
46194498 28 17774718645967396012
6669772 16 17971486108892322728

> <PUBCHEM_SHAPE_MULTIPOLES>
526.3
15.16
3.53
2.37
0.47
0.47
1.77
3.08
1.32
4.47
-0.91
-3.46
-0.76
1.36

> <PUBCHEM_SHAPE_SELFOVERLAP>
1018.32

> <PUBCHEM_SHAPE_VOLUME>
315.8

> <PUBCHEM_COORDINATE_TYPE>
2
5
10

$$$$

