160433
  -OEChem-07051212503D

 38 40  0     1  0  0  0  0  0999 V2000
    2.2298    0.5636   -0.7673 O   0  0  0  0  0  0  0  0  0  0  0  0
    1.7725   -0.3594    2.0739 O   0  0  0  0  0  0  0  0  0  0  0  0
    4.0893   -1.6600    1.3611 O   0  0  0  0  0  0  0  0  0  0  0  0
    4.7245    1.3784   -1.7755 O   0  0  0  0  0  0  0  0  0  0  0  0
   -0.0081    0.5106    0.0589 N   0  0  0  0  0  0  0  0  0  0  0  0
   -1.2102    2.2436    0.7824 N   0  0  0  0  0  0  0  0  0  0  0  0
    1.1670   -0.2840   -0.2773 C   0  0  2  0  0  0  0  0  0  0  0  0
    1.7570   -1.1104    0.8633 C   0  0  1  0  0  0  0  0  0  0  0  0
    3.1722   -1.2957    0.3520 C   0  0  1  0  0  0  0  0  0  0  0  0
    3.4742    0.0818   -0.2238 C   0  0  1  0  0  0  0  0  0  0  0  0
    4.5320    0.0591   -1.3127 C   0  0  0  0  0  0  0  0  0  0  0  0
   -1.3250    0.1373   -0.0802 C   0  0  0  0  0  0  0  0  0  0  0  0
    0.0026    1.7795    0.5793 C   0  0  0  0  0  0  0  0  0  0  0  0
   -2.0517    1.2332    0.3770 C   0  0  0  0  0  0  0  0  0  0  0  0
   -1.9193   -1.0328   -0.5537 C   0  0  0  0  0  0  0  0  0  0  0  0
   -3.3175   -1.0727   -0.5552 C   0  0  0  0  0  0  0  0  0  0  0  0
   -3.4556    1.1758    0.3684 C   0  0  0  0  0  0  0  0  0  0  0  0
   -4.0740    0.0110   -0.1028 C   0  0  0  0  0  0  0  0  0  0  0  0
   -3.9914   -2.3107   -1.0565 C   0  0  0  0  0  0  0  0  0  0  0  0
   -5.5683   -0.0481   -0.1113 C   0  0  0  0  0  0  0  0  0  0  0  0
    0.8951   -0.9325   -1.1188 H   0  0  0  0  0  0  0  0  0  0  0  0
    1.2186   -2.0452    1.0440 H   0  0  0  0  0  0  0  0  0  0  0  0
    3.1865   -2.0614   -0.4330 H   0  0  0  0  0  0  0  0  0  0  0  0
    3.7772    0.7912    0.5569 H   0  0  0  0  0  0  0  0  0  0  0  0
    4.2198   -0.5537   -2.1646 H   0  0  0  0  0  0  0  0  0  0  0  0
    5.4848   -0.3216   -0.9334 H   0  0  0  0  0  0  0  0  0  0  0  0
    0.9191    2.3126    0.7929 H   0  0  0  0  0  0  0  0  0  0  0  0
    2.1466   -0.9323    2.7648 H   0  0  0  0  0  0  0  0  0  0  0  0
    4.1193   -0.9452    2.0191 H   0  0  0  0  0  0  0  0  0  0  0  0
   -1.3224   -1.8693   -0.9002 H   0  0  0  0  0  0  0  0  0  0  0  0
   -4.0364    2.0223    0.7217 H   0  0  0  0  0  0  0  0  0  0  0  0
    3.8701    1.7029   -2.1080 H   0  0  0  0  0  0  0  0  0  0  0  0
   -4.6197   -2.0840   -1.9240 H   0  0  0  0  0  0  0  0  0  0  0  0
   -3.2654   -3.0674   -1.3742 H   0  0  0  0  0  0  0  0  0  0  0  0
   -4.6035   -2.7628   -0.2694 H   0  0  0  0  0  0  0  0  0  0  0  0
   -5.9435   -0.1862   -1.1305 H   0  0  0  0  0  0  0  0  0  0  0  0
   -5.9261   -0.8648    0.5240 H   0  0  0  0  0  0  0  0  0  0  0  0
   -6.0130    0.8768    0.2727 H   0  0  0  0  0  0  0  0  0  0  0  0
  1  7  1  0  0  0  0
  1 10  1  0  0  0  0
  2  8  1  0  0  0  0
  2 28  1  0  0  0  0
  3  9  1  0  0  0  0
  3 29  1  0  0  0  0
  4 11  1  0  0  0  0
  4 32  1  0  0  0  0
  5  7  1  0  0  0  0
  5 12  1  0  0  0  0
  5 13  1  0  0  0  0
  6 13  2  0  0  0  0
  6 14  1  0  0  0  0
  7  8  1  0  0  0  0
  7 21  1  0  0  0  0
  8  9  1  0  0  0  0
  8 22  1  0  0  0  0
  9 10  1  0  0  0  0
  9 23  1  0  0  0  0
 10 11  1  0  0  0  0
 10 24  1  0  0  0  0
 11 25  1  0  0  0  0
 11 26  1  0  0  0  0
 12 14  2  0  0  0  0
 12 15  1  0  0  0  0
 13 27  1  0  0  0  0
 14 17  1  0  0  0  0
 15 16  2  0  0  0  0
 15 30  1  0  0  0  0
 16 18  1  0  0  0  0
 16 19  1  0  0  0  0
 17 18  2  0  0  0  0
 17 31  1  0  0  0  0
 18 20  1  0  0  0  0
 19 33  1  0  0  0  0
 19 34  1  0  0  0  0
 19 35  1  0  0  0  0
 20 36  1  0  0  0  0
 20 37  1  0  0  0  0
 20 38  1  0  0  0  0
M  END
> <PUBCHEM_COMPOUND_CID>
160433

> <PUBCHEM_CONFORMER_RMSD>
0.6

> <PUBCHEM_CONFORMER_DIVERSEORDER>
1
7
9
8
12
4
5
10
2
6
11
3

> <PUBCHEM_MMFF94_PARTIAL_CHARGES>
26
1 -0.56
10 0.28
11 0.28
12 -0.15
13 0.04
14 0.23
15 -0.15
16 -0.14
17 -0.15
18 -0.14
19 0.14
2 -0.68
20 0.14
27 0.15
28 0.4
29 0.4
3 -0.68
30 0.15
31 0.15
32 0.4
4 -0.68
5 0.05
6 -0.57
7 0.54
8 0.28
9 0.28

> <PUBCHEM_EFFECTIVE_ROTOR_COUNT>
3

> <PUBCHEM_PHARMACOPHORE_FEATURES>
11
1 1 acceptor
1 2 acceptor
1 2 donor
1 3 acceptor
1 3 donor
1 4 acceptor
1 4 donor
3 5 6 13 cation
5 1 7 8 9 10 rings
5 5 6 12 13 14 rings
6 12 14 15 16 17 18 rings

> <PUBCHEM_HEAVY_ATOM_COUNT>
20

> <PUBCHEM_ATOM_DEF_STEREO_COUNT>
4

> <PUBCHEM_ATOM_UDEF_STEREO_COUNT>
0

> <PUBCHEM_BOND_DEF_STEREO_COUNT>
0

> <PUBCHEM_BOND_UDEF_STEREO_COUNT>
0

> <PUBCHEM_ISOTOPIC_ATOM_COUNT>
0

> <PUBCHEM_COMPONENT_COUNT>
1

> <PUBCHEM_CACTVS_TAUTO_COUNT>
1

> <PUBCHEM_CONFORMER_ID>
000272B100000001

> <PUBCHEM_MMFF94_ENERGY>
50.933

> <PUBCHEM_FEATURE_SELFOVERLAP>
55.94

> <PUBCHEM_SHAPE_FINGERPRINT>
10366900 7 17168145663186923015
10616163 171 18261109677550028183
11046707 91 18186520995017715599
11552529 35 5399651671018983493
11578080 2 17984735352381652324
11725454 13 14763511413905672044
12236239 1 18272085019555042988
12553582 1 18334019371930120119
12616971 3 17988647431895451930
12788726 201 18335695096196404049
13009979 54 18122913285573826690
13140716 1 18115031797473966963
13167823 11 18271805765129399046
13631057 29 17700121110906743059
13760787 19 18413669106431733791
13760787 5 18131355223813417023
13862211 1 18260557723414121183
14386348 63 16732699467257229014
15242433 33 18413106160783874711
15375462 189 18342183279962630219
15415430 112 18335416842392151199
15527383 91 5328746249540346482
15536298 74 18041284248904464953
15537594 2 18411130317061845099
16752209 62 18264221360270981273
16945 1 18259992600033025153
17804303 29 17894915109810827625
18186145 218 14404904742696696565
18222031 100 17749116556458274237
18915474 69 18411703179404016766
19422 9 18341332292158887418
200 152 17917997212645943323
20281475 54 18410865347533449263
20645477 70 16773800341817777810
20871999 31 18334853913918860621
21033648 29 15574721330492202075
21267235 1 18261101951325342399
22646028 28 18341337772379070555
2297311 6 17749658658113186372
23175994 123 15647047170722433427
23366157 5 18123480384255055169
23402539 116 18335143085324121478
23557571 272 17458895041541593820
23559900 14 17822292357600048896
238078 22 18262792974080251463
3004659 81 18342740762380660838
335352 9 18259984860955560877
474 4 17774145804951971716
495365 180 14908190746131166288
5104073 3 18114185169057060955
603831 33 18272369788798173168
633830 44 17131546258055714488
7364860 26 17824551768412495561
77492 1 18272367620061130880

> <PUBCHEM_SHAPE_MULTIPOLES>
378.15
10.25
1.92
1.27
0.14
0.04
0.12
-2.31
-2.66
-1.11
0.07
1.81
-0.1
-1.71

> <PUBCHEM_SHAPE_SELFOVERLAP>
818.957

> <PUBCHEM_SHAPE_VOLUME>
210.5

> <PUBCHEM_COORDINATE_TYPE>
2
5
10

$$$$

