173866
  -OEChem-07051212562D

 65 68  0     1  0  0  0  0  0999 V2000
    5.8285   -2.7062    0.0000 O   0  0  0  0  0  0  0  0  0  0  0  0
    4.5801   -2.8747    0.0000 O   0  0  0  0  0  0  0  0  0  0  0  0
    6.3285   -2.8402    0.0000 O   0  0  0  0  0  0  0  0  0  0  0  0
    2.8482   -2.8948    0.0000 O   0  0  0  0  0  0  0  0  0  0  0  0
    3.7805    4.3847    0.0000 O   0  0  0  0  0  0  0  0  0  0  0  0
    5.4625   -4.3402    0.0000 O   0  0  0  0  0  0  0  0  0  0  0  0
    2.0000    4.3120    0.0000 O   0  0  0  0  0  0  0  0  0  0  0  0
    5.4625   -1.3402    0.0000 C   0  0  1  0  0  0  0  0  0  0  0  0
    6.3285   -1.8402    0.0000 C   0  0  1  0  0  0  0  0  0  0  0  0
    5.4625   -0.3401    0.0000 C   0  0  1  0  0  0  0  0  0  0  0  0
    4.5685    0.1945    0.0000 C   0  0  2  0  0  0  0  0  0  0  0  0
    4.5685   -1.8748    0.0000 C   0  0  2  0  0  0  0  0  0  0  0  0
    3.6625   -0.3193    0.0000 C   0  0  1  0  0  0  0  0  0  0  0  0
    7.1945   -1.3402    0.0000 C   0  0  0  0  0  0  0  0  0  0  0  0
    6.3285    0.1599    0.0000 C   0  0  0  0  0  0  0  0  0  0  0  0
    6.8285   -2.7062    0.0000 C   0  0  0  0  0  0  0  0  0  0  0  0
    3.6625   -1.3610    0.0000 C   0  0  0  0  0  0  0  0  0  0  0  0
    7.1945   -0.3401    0.0000 C   0  0  0  0  0  0  0  0  0  0  0  0
    5.4625   -2.3402    0.0000 C   0  0  0  0  0  0  0  0  0  0  0  0
    4.0786    1.0663    0.0000 C   0  0  0  0  0  0  0  0  0  0  0  0
    5.0785    1.0547    0.0000 C   0  0  0  0  0  0  0  0  0  0  0  0
    2.7984    0.1840    0.0000 C   0  0  0  0  0  0  0  0  0  0  0  0
    4.5886    1.9264    0.0000 C   0  0  0  0  0  0  0  0  0  0  0  0
    3.7199   -3.3847    0.0000 C   0  0  0  0  0  0  0  0  0  0  0  0
    4.0986    2.7982    0.0000 C   0  0  0  0  0  0  0  0  0  0  0  0
    6.3285   -3.8402    0.0000 C   0  0  0  0  0  0  0  0  0  0  0  0
    4.5159    3.7070    0.0000 C   0  0  0  0  0  0  0  0  0  0  0  0
    3.7315   -4.3847    0.0000 C   0  0  0  0  0  0  0  0  0  0  0  0
    3.1054    2.9142    0.0000 C   0  0  0  0  0  0  0  0  0  0  0  0
    7.1945   -4.3402    0.0000 C   0  0  0  0  0  0  0  0  0  0  0  0
    2.9088    3.8947    0.0000 C   0  0  0  0  0  0  0  0  0  0  0  0
    5.4690    0.5098    0.0000 H   0  0  0  0  0  0  0  0  0  0  0  0
    4.0346   -2.1900    0.0000 H   0  0  0  0  0  0  0  0  0  0  0  0
    3.6661    0.3007    0.0000 H   0  0  0  0  0  0  0  0  0  0  0  0
    7.4066   -1.9228    0.0000 H   0  0  0  0  0  0  0  0  0  0  0  0
    7.8051   -1.2325    0.0000 H   0  0  0  0  0  0  0  0  0  0  0  0
    6.7270    0.6348    0.0000 H   0  0  0  0  0  0  0  0  0  0  0  0
    5.9300    0.6348    0.0000 H   0  0  0  0  0  0  0  0  0  0  0  0
    6.9362   -3.3168    0.0000 H   0  0  0  0  0  0  0  0  0  0  0  0
    7.4111   -2.4941    0.0000 H   0  0  0  0  0  0  0  0  0  0  0  0
    3.0516   -1.2549    0.0000 H   0  0  0  0  0  0  0  0  0  0  0  0
    3.4534   -1.9447    0.0000 H   0  0  0  0  0  0  0  0  0  0  0  0
    7.8051   -0.4478    0.0000 H   0  0  0  0  0  0  0  0  0  0  0  0
    7.4066    0.2425    0.0000 H   0  0  0  0  0  0  0  0  0  0  0  0
    4.8519   -2.2325    0.0000 H   0  0  0  0  0  0  0  0  0  0  0  0
    5.2504   -2.9228    0.0000 H   0  0  0  0  0  0  0  0  0  0  0  0
    3.6083    1.4703    0.0000 H   0  0  0  0  0  0  0  0  0  0  0  0
    3.5991    0.6733    0.0000 H   0  0  0  0  0  0  0  0  0  0  0  0
    5.6118    0.7385    0.0000 H   0  0  0  0  0  0  0  0  0  0  0  0
    5.3947    1.5880    0.0000 H   0  0  0  0  0  0  0  0  0  0  0  0
    4.5452    1.3709    0.0000 H   0  0  0  0  0  0  0  0  0  0  0  0
    3.1104    0.7197    0.0000 H   0  0  0  0  0  0  0  0  0  0  0  0
    2.2626    0.4961    0.0000 H   0  0  0  0  0  0  0  0  0  0  0  0
    2.4863   -0.3517    0.0000 H   0  0  0  0  0  0  0  0  0  0  0  0
    5.0589    1.5224    0.0000 H   0  0  0  0  0  0  0  0  0  0  0  0
    5.0681    2.3195    0.0000 H   0  0  0  0  0  0  0  0  0  0  0  0
    5.0492    3.3908    0.0000 H   0  0  0  0  0  0  0  0  0  0  0  0
    4.8861    4.2043    0.0000 H   0  0  0  0  0  0  0  0  0  0  0  0
    3.1115   -4.3918    0.0000 H   0  0  0  0  0  0  0  0  0  0  0  0
    3.7386   -5.0046    0.0000 H   0  0  0  0  0  0  0  0  0  0  0  0
    4.3514   -4.3775    0.0000 H   0  0  0  0  0  0  0  0  0  0  0  0
    2.6852    2.4583    0.0000 H   0  0  0  0  0  0  0  0  0  0  0  0
    6.8845   -4.8771    0.0000 H   0  0  0  0  0  0  0  0  0  0  0  0
    7.7315   -4.6502    0.0000 H   0  0  0  0  0  0  0  0  0  0  0  0
    7.5045   -3.8032    0.0000 H   0  0  0  0  0  0  0  0  0  0  0  0
  9  1  1  1  0  0  0
  1 16  1  0  0  0  0
 12  2  1  1  0  0  0
  2 24  1  0  0  0  0
  3 19  1  0  0  0  0
  3 26  1  0  0  0  0
  4 24  2  0  0  0  0
  5 27  1  0  0  0  0
  5 31  1  0  0  0  0
  6 26  2  0  0  0  0
  7 31  2  0  0  0  0
  8  9  1  0  0  0  0
  8 10  1  0  0  0  0
  8 12  1  0  0  0  0
  8 19  1  1  0  0  0
  9 14  1  0  0  0  0
  9 16  1  0  0  0  0
 10 11  1  0  0  0  0
 10 15  1  0  0  0  0
 10 32  1  6  0  0  0
 11 13  1  0  0  0  0
 11 20  1  0  0  0  0
 11 21  1  1  0  0  0
 12 17  1  0  0  0  0
 12 33  1  0  0  0  0
 13 17  1  0  0  0  0
 13 22  1  1  0  0  0
 13 34  1  0  0  0  0
 14 18  1  0  0  0  0
 14 35  1  0  0  0  0
 14 36  1  0  0  0  0
 15 18  1  0  0  0  0
 15 37  1  0  0  0  0
 15 38  1  0  0  0  0
 16 39  1  0  0  0  0
 16 40  1  0  0  0  0
 17 41  1  0  0  0  0
 17 42  1  0  0  0  0
 18 43  1  0  0  0  0
 18 44  1  0  0  0  0
 19 45  1  0  0  0  0
 19 46  1  0  0  0  0
 20 23  1  0  0  0  0
 20 47  1  0  0  0  0
 20 48  1  0  0  0  0
 21 49  1  0  0  0  0
 21 50  1  0  0  0  0
 21 51  1  0  0  0  0
 22 52  1  0  0  0  0
 22 53  1  0  0  0  0
 22 54  1  0  0  0  0
 23 25  1  0  0  0  0
 23 55  1  0  0  0  0
 23 56  1  0  0  0  0
 24 28  1  0  0  0  0
 25 27  1  0  0  0  0
 25 29  2  0  0  0  0
 26 30  1  0  0  0  0
 27 57  1  0  0  0  0
 27 58  1  0  0  0  0
 28 59  1  0  0  0  0
 28 60  1  0  0  0  0
 28 61  1  0  0  0  0
 29 31  1  0  0  0  0
 29 62  1  0  0  0  0
 30 63  1  0  0  0  0
 30 64  1  0  0  0  0
 30 65  1  0  0  0  0
M  END
> <PUBCHEM_COMPOUND_CID>
173866

> <PUBCHEM_COMPOUND_CANONICALIZED>
1

> <PUBCHEM_CACTVS_COMPLEXITY>
804

> <PUBCHEM_CACTVS_HBOND_ACCEPTOR>
7

> <PUBCHEM_CACTVS_HBOND_DONOR>
0

> <PUBCHEM_CACTVS_ROTATABLE_BOND>
8

> <PUBCHEM_CACTVS_SUBSKEYS>
AAADcfB4OAAAAAAAAAAAAAAAEgAAAQAAAAAwYAAAAAAAAADAAAAAGgAAAAAAD1SggAICCAAABACIAiDSCAAAAAAgAAAACAAAAEgABAIAIQACEAAFgAAIIQPAwPAPgAAAAAAAAADAAAYAADAAAAAAAAAAAA==

> <PUBCHEM_IUPAC_OPENEYE_NAME>
[(1S,2R,4S,4aR,5R,8aR)-4-acetoxy-1,2-dimethyl-1-[2-(5-oxo-2H-furan-3-yl)ethyl]spiro[decalin-5,2'-oxirane]-4a-yl]methyl acetate

> <PUBCHEM_IUPAC_CAS_NAME>
acetic acid [(4R,4aR,5S,7R,8S,8aR)-5-acetyloxy-7,8-dimethyl-8-[2-(5-oxo-2H-furan-3-yl)ethyl]-4a-spiro[2,3,5,6,7,8a-hexahydro-1H-naphthalene-4,2'-oxirane]yl]methyl ester

> <PUBCHEM_IUPAC_NAME>
[(4R,4aR,5S,7R,8S,8aR)-5-acetyloxy-7,8-dimethyl-8-[2-(5-oxo-2H-furan-3-yl)ethyl]spiro[2,3,5,6,7,8a-hexahydro-1H-naphthalene-4,2'-oxirane]-4a-yl]methyl acetate

> <PUBCHEM_IUPAC_SYSTEMATIC_NAME>
[(4R,4aR,5S,7R,8S,8aR)-5-acetyloxy-7,8-dimethyl-8-[2-(5-oxidanylidene-2H-furan-3-yl)ethyl]spiro[2,3,5,6,7,8a-hexahydro-1H-naphthalene-4,2'-oxirane]-4a-yl]methyl ethanoate

> <PUBCHEM_IUPAC_TRADITIONAL_NAME>
acetic acid [(1S,2R,4S,4aR,5R,8aR)-4-acetoxy-1-[2-(5-keto-2H-furan-3-yl)ethyl]-1,2-dimethyl-spiro[decalin-5,2'-oxirane]-4a-yl]methyl ester

> <PUBCHEM_IUPAC_INCHI>
InChI=1S/C24H34O7/c1-15-10-20(31-17(3)26)24(14-29-16(2)25)19(6-5-8-23(24)13-30-23)22(15,4)9-7-18-11-21(27)28-12-18/h11,15,19-20H,5-10,12-14H2,1-4H3/t15-,19-,20+,22+,23+,24+/m1/s1

> <PUBCHEM_IUPAC_INCHIKEY>
RNYBNBANBCQZON-PGQNDPHJSA-N

> <PUBCHEM_XLOGP3_AA>
2.9

> <PUBCHEM_EXACT_MASS>
434.230453

> <PUBCHEM_MOLECULAR_FORMULA>
C24H34O7

> <PUBCHEM_MOLECULAR_WEIGHT>
434.52256

> <PUBCHEM_OPENEYE_CAN_SMILES>
CC1CC(C2(C(C1(C)CCC3=CC(=O)OC3)CCCC24CO4)COC(=O)C)OC(=O)C

> <PUBCHEM_OPENEYE_ISO_SMILES>
C[C@@H]1C[C@@H]([C@@]2([C@@H]([C@@]1(C)CCC3=CC(=O)OC3)CCC[C@]24CO4)COC(=O)C)OC(=O)C

> <PUBCHEM_CACTVS_TPSA>
91.4

> <PUBCHEM_MONOISOTOPIC_WEIGHT>
434.230453

> <PUBCHEM_TOTAL_CHARGE>
0

> <PUBCHEM_HEAVY_ATOM_COUNT>
31

> <PUBCHEM_ATOM_DEF_STEREO_COUNT>
6

> <PUBCHEM_ATOM_UDEF_STEREO_COUNT>
0

> <PUBCHEM_BOND_DEF_STEREO_COUNT>
0

> <PUBCHEM_BOND_UDEF_STEREO_COUNT>
0

> <PUBCHEM_ISOTOPIC_ATOM_COUNT>
0

> <PUBCHEM_COMPONENT_COUNT>
1

> <PUBCHEM_CACTVS_TAUTO_COUNT>
1

> <PUBCHEM_COORDINATE_TYPE>
1
5
255

> <PUBCHEM_BONDANNOTATIONS>
9  1  5
10  32  6
11  21  5
13  22  5
12  2  5
8  19  5

$$$$

