9776835
  -OEChem-07051212523D

 22 21  0     0  0  0  0  0  0999 V2000
   -2.7433    0.4263   -1.3584 O   0  0  0  0  0  0  0  0  0  0  0  0
    1.9949   -2.0483   -0.6312 O   0  0  0  0  0  0  0  0  0  0  0  0
    3.0147    0.0931    1.4470 O   0  0  0  0  0  0  0  0  0  0  0  0
    3.3787    0.9143   -0.6438 O   0  0  0  0  0  0  0  0  0  0  0  0
   -2.9353   -0.2854    0.9417 C   0  0  0  0  0  0  0  0  0  0  0  0
   -2.3449    0.5213   -0.2007 C   0  0  0  0  0  0  0  0  0  0  0  0
   -4.0368   -1.2243    0.4814 C   0  0  0  0  0  0  0  0  0  0  0  0
   -1.2391    1.4498    0.1761 C   0  0  0  0  0  0  0  0  0  0  0  0
    0.0363    1.0396    0.1558 C   0  0  0  0  0  0  0  0  0  0  0  0
    0.4177   -0.3057   -0.2258 C   0  0  0  0  0  0  0  0  0  0  0  0
    1.6826   -0.7564   -0.2594 C   0  0  0  0  0  0  0  0  0  0  0  0
    2.7745    0.1756    0.1173 C   0  0  0  0  0  0  0  0  0  0  0  0
   -3.3422    0.4133    1.6809 H   0  0  0  0  0  0  0  0  0  0  0  0
   -2.1397   -0.8702    1.4149 H   0  0  0  0  0  0  0  0  0  0  0  0
   -4.4391   -1.7852    1.3306 H   0  0  0  0  0  0  0  0  0  0  0  0
   -4.8591   -0.6693    0.0176 H   0  0  0  0  0  0  0  0  0  0  0  0
   -3.6590   -1.9416   -0.2547 H   0  0  0  0  0  0  0  0  0  0  0  0
   -1.5114    2.4599    0.4577 H   0  0  0  0  0  0  0  0  0  0  0  0
    0.8012    1.7564    0.4368 H   0  0  0  0  0  0  0  0  0  0  0  0
   -0.3667   -1.0022   -0.5088 H   0  0  0  0  0  0  0  0  0  0  0  0
    1.1676   -2.5141   -0.8423 H   0  0  0  0  0  0  0  0  0  0  0  0
    3.7325    0.6995    1.7288 H   0  0  0  0  0  0  0  0  0  0  0  0
  1  6  2  0  0  0  0
  2 11  1  0  0  0  0
  2 21  1  0  0  0  0
  3 12  1  0  0  0  0
  3 22  1  0  0  0  0
  4 12  2  0  0  0  0
  5  6  1  0  0  0  0
  5  7  1  0  0  0  0
  5 13  1  0  0  0  0
  5 14  1  0  0  0  0
  6  8  1  0  0  0  0
  7 15  1  0  0  0  0
  7 16  1  0  0  0  0
  7 17  1  0  0  0  0
  8  9  2  0  0  0  0
  8 18  1  0  0  0  0
  9 10  1  0  0  0  0
  9 19  1  0  0  0  0
 10 11  2  0  0  0  0
 10 20  1  0  0  0  0
 11 12  1  0  0  0  0
M  END
> <PUBCHEM_COMPOUND_CID>
9776835

> <PUBCHEM_CONFORMER_RMSD>
0.6

> <PUBCHEM_CONFORMER_DIVERSEORDER>
1
6
15
11
10
9
12
13
5
8
4
14
7
3
2

> <PUBCHEM_MMFF94_PARTIAL_CHARGES>
16
1 -0.57
10 -0.15
11 0.09
12 0.71
18 0.15
19 0.15
2 -0.53
20 0.15
21 0.45
22 0.5
3 -0.65
4 -0.57
5 0.06
6 0.49
8 -0.14
9 -0.15

> <PUBCHEM_EFFECTIVE_ROTOR_COUNT>
4

> <PUBCHEM_PHARMACOPHORE_FEATURES>
6
1 1 acceptor
1 2 donor
1 3 acceptor
1 4 acceptor
1 7 hydrophobe
3 3 4 12 anion

> <PUBCHEM_HEAVY_ATOM_COUNT>
12

> <PUBCHEM_ATOM_DEF_STEREO_COUNT>
0

> <PUBCHEM_ATOM_UDEF_STEREO_COUNT>
0

> <PUBCHEM_BOND_DEF_STEREO_COUNT>
2

> <PUBCHEM_BOND_UDEF_STEREO_COUNT>
0

> <PUBCHEM_ISOTOPIC_ATOM_COUNT>
0

> <PUBCHEM_COMPONENT_COUNT>
1

> <PUBCHEM_CACTVS_TAUTO_COUNT>
7

> <PUBCHEM_CONFORMER_ID>
00952EC300000001

> <PUBCHEM_MMFF94_ENERGY>
29.0683

> <PUBCHEM_FEATURE_SELFOVERLAP>
30.503

> <PUBCHEM_SHAPE_FINGERPRINT>
107287 299 18114174250817534246
10857977 72 18409733962679069713
12932764 1 17313388962640000472
13296908 3 18339639044267871647
16945 1 18187934958059483892
177051 138 17989491835461491450
18511873 20 9727638271647452932
18522851 12 17095521811796534255
20201158 50 18343015567352106835
20279233 1 18412267267792543479
20281407 28 18407754837839006529
20645477 70 17969791963073301015
21061003 4 18261109647638003921
22485316 2 18409727357589009051
23402539 116 16271936995335305631
23557571 272 17632294592404938701
25610 137 18409158896633611553
3248919 1 18341055223597134740

> <PUBCHEM_SHAPE_MULTIPOLES>
223.48
6.6
1.45
1.02
1.39
0.35
0.07
1.35
0.7
-0.02
-0.15
0.03
0
0.46

> <PUBCHEM_SHAPE_SELFOVERLAP>
435.554

> <PUBCHEM_SHAPE_VOLUME>
134.4

> <PUBCHEM_COORDINATE_TYPE>
2
5
10

$$$$

