491
  -OEChem-07051212462D

  9  8  0     0  0  0  0  0  0999 V2000
    2.8660    0.0000    0.0000 S   0  0  0  0  0  0  0  0  0  0  0  0
    4.5981    0.0000    0.0000 S   0  0  0  0  0  0  0  0  0  0  0  0
    3.7320    0.5000    0.0000 S   0  0  0  0  0  0  0  0  0  0  0  0
    2.0000   -0.5000    0.0000 O   0  5  0  0  0  0  0  0  0  0  0  0
    5.4641   -0.5000    0.0000 O   0  5  0  0  0  0  0  0  0  0  0  0
    2.3660    0.8660    0.0000 O   0  0  0  0  0  0  0  0  0  0  0  0
    3.3660   -0.8660    0.0000 O   0  0  0  0  0  0  0  0  0  0  0  0
    5.0981    0.8660    0.0000 O   0  0  0  0  0  0  0  0  0  0  0  0
    4.0981   -0.8660    0.0000 O   0  0  0  0  0  0  0  0  0  0  0  0
  1  3  1  0  0  0  0
  1  4  1  0  0  0  0
  1  6  2  0  0  0  0
  1  7  2  0  0  0  0
  2  3  1  0  0  0  0
  2  5  1  0  0  0  0
  2  8  2  0  0  0  0
  2  9  2  0  0  0  0
M  CHG  2   4  -1   5  -1
M  END
> <PUBCHEM_COMPOUND_CID>
491

> <PUBCHEM_COMPOUND_CANONICALIZED>
1

> <PUBCHEM_CACTVS_COMPLEXITY>
196

> <PUBCHEM_CACTVS_HBOND_ACCEPTOR>
7

> <PUBCHEM_CACTVS_HBOND_DONOR>
0

> <PUBCHEM_CACTVS_ROTATABLE_BOND>
0

> <PUBCHEM_CACTVS_SUBSKEYS>
AAADcQAAOABgAAAAAAAAAAAAAAAAAAAAAAAAAAAAAAAAAAAAAAAAAAAAAAAAAAAAAAAAAAAAAAAAAAAAADAAAAAAAAAAAAAAAAAAAAAAAAAAAAAAAAAAAAAAAAAAAAAAAAAAAAAAAAAAAAAAAAAAAAAAAA==

> <PUBCHEM_IUPAC_INCHI>
InChI=1S/H2O6S3/c1-8(2,3)7-9(4,5)6/h(H,1,2,3)(H,4,5,6)/p-2

> <PUBCHEM_IUPAC_INCHIKEY>
KRURGYOKPVLRHQ-UHFFFAOYSA-L

> <PUBCHEM_XLOGP3_AA>
-1.5

> <PUBCHEM_EXACT_MASS>
191.885701

> <PUBCHEM_MOLECULAR_FORMULA>
O6S3-2

> <PUBCHEM_MOLECULAR_WEIGHT>
192.1914

> <PUBCHEM_OPENEYE_CAN_SMILES>
[O-]S(=O)(=O)SS(=O)(=O)[O-]

> <PUBCHEM_OPENEYE_ISO_SMILES>
[O-]S(=O)(=O)SS(=O)(=O)[O-]

> <PUBCHEM_CACTVS_TPSA>
157

> <PUBCHEM_MONOISOTOPIC_WEIGHT>
191.885701

> <PUBCHEM_TOTAL_CHARGE>
-2

> <PUBCHEM_HEAVY_ATOM_COUNT>
9

> <PUBCHEM_ATOM_DEF_STEREO_COUNT>
0

> <PUBCHEM_ATOM_UDEF_STEREO_COUNT>
0

> <PUBCHEM_BOND_DEF_STEREO_COUNT>
0

> <PUBCHEM_BOND_UDEF_STEREO_COUNT>
0

> <PUBCHEM_ISOTOPIC_ATOM_COUNT>
0

> <PUBCHEM_COMPONENT_COUNT>
1

> <PUBCHEM_CACTVS_TAUTO_COUNT>
1

> <PUBCHEM_COORDINATE_TYPE>
1
5
255

$$$$

