9178
  -OEChem-07051213152D

 35 39  0     0  0  0  0  0  0999 V2000
    4.6501    0.2993    0.0000 N   0  0  0  0  0  0  0  0  0  0  0  0
    3.7841   -0.2007    0.0000 C   0  0  0  0  0  0  0  0  0  0  0  0
    4.6501    1.2993    0.0000 C   0  0  0  0  0  0  0  0  0  0  0  0
    2.9180    0.2993    0.0000 C   0  0  0  0  0  0  0  0  0  0  0  0
    3.7841    1.7993    0.0000 C   0  0  0  0  0  0  0  0  0  0  0  0
    3.8001   -1.2422    0.0000 C   0  0  0  0  0  0  0  0  0  0  0  0
    5.5601    1.8061    0.0000 C   0  0  0  0  0  0  0  0  0  0  0  0
    2.9180    1.2993    0.0000 C   0  0  0  0  0  0  0  0  0  0  0  0
    2.9021   -1.7700    0.0000 C   0  0  0  0  0  0  0  0  0  0  0  0
    5.5681    2.8477    0.0000 C   0  0  0  0  0  0  0  0  0  0  0  0
    2.0080   -0.2076    0.0000 C   0  0  0  0  0  0  0  0  0  0  0  0
    3.7680    2.8408    0.0000 C   0  0  0  0  0  0  0  0  0  0  0  0
    2.0000   -1.2492    0.0000 C   0  0  0  0  0  0  0  0  0  0  0  0
    4.6660    3.3685    0.0000 C   0  0  0  0  0  0  0  0  0  0  0  0
    4.7520   -1.7629    0.0000 C   0  0  0  0  0  0  0  0  0  0  0  0
    6.4869    1.2420    0.0000 C   0  0  0  0  0  0  0  0  0  0  0  0
    2.8937   -2.8550    0.0000 C   0  0  0  0  0  0  0  0  0  0  0  0
    6.5035    3.3974    0.0000 C   0  0  0  0  0  0  0  0  0  0  0  0
    4.7688   -2.8477    0.0000 C   0  0  0  0  0  0  0  0  0  0  0  0
    7.4348    1.7700    0.0000 C   0  0  0  0  0  0  0  0  0  0  0  0
    3.8334   -3.3974    0.0000 C   0  0  0  0  0  0  0  0  0  0  0  0
    7.4432    2.8550    0.0000 C   0  0  0  0  0  0  0  0  0  0  0  0
    2.3811    1.6093    0.0000 H   0  0  0  0  0  0  0  0  0  0  0  0
    1.4747    0.1086    0.0000 H   0  0  0  0  0  0  0  0  0  0  0  0
    3.2275    3.1446    0.0000 H   0  0  0  0  0  0  0  0  0  0  0  0
    1.4619   -1.5571    0.0000 H   0  0  0  0  0  0  0  0  0  0  0  0
    4.6636    3.9885    0.0000 H   0  0  0  0  0  0  0  0  0  0  0  0
    5.2829   -1.4426    0.0000 H   0  0  0  0  0  0  0  0  0  0  0  0
    6.4750    0.6222    0.0000 H   0  0  0  0  0  0  0  0  0  0  0  0
    2.3556   -3.1629    0.0000 H   0  0  0  0  0  0  0  0  0  0  0  0
    6.5012    4.0174    0.0000 H   0  0  0  0  0  0  0  0  0  0  0  0
    5.3093   -3.1515    0.0000 H   0  0  0  0  0  0  0  0  0  0  0  0
    7.9681    1.4538    0.0000 H   0  0  0  0  0  0  0  0  0  0  0  0
    3.8357   -4.0174    0.0000 H   0  0  0  0  0  0  0  0  0  0  0  0
    7.9813    3.1629    0.0000 H   0  0  0  0  0  0  0  0  0  0  0  0
  1  2  2  0  0  0  0
  1  3  1  0  0  0  0
  2  4  1  0  0  0  0
  2  6  1  0  0  0  0
  3  5  2  0  0  0  0
  3  7  1  0  0  0  0
  4  8  2  0  0  0  0
  4 11  1  0  0  0  0
  5  8  1  0  0  0  0
  5 12  1  0  0  0  0
  6  9  1  0  0  0  0
  6 15  2  0  0  0  0
  7 10  1  0  0  0  0
  7 16  2  0  0  0  0
  8 23  1  0  0  0  0
  9 13  1  0  0  0  0
  9 17  2  0  0  0  0
 10 14  1  0  0  0  0
 10 18  2  0  0  0  0
 11 13  2  0  0  0  0
 11 24  1  0  0  0  0
 12 14  2  0  0  0  0
 12 25  1  0  0  0  0
 13 26  1  0  0  0  0
 14 27  1  0  0  0  0
 15 19  1  0  0  0  0
 15 28  1  0  0  0  0
 16 20  1  0  0  0  0
 16 29  1  0  0  0  0
 17 21  1  0  0  0  0
 17 30  1  0  0  0  0
 18 22  1  0  0  0  0
 18 31  1  0  0  0  0
 19 21  2  0  0  0  0
 19 32  1  0  0  0  0
 20 22  2  0  0  0  0
 20 33  1  0  0  0  0
 21 34  1  0  0  0  0
 22 35  1  0  0  0  0
M  END
> <PUBCHEM_COMPOUND_CID>
9178

> <PUBCHEM_COMPOUND_CANONICALIZED>
1

> <PUBCHEM_CACTVS_COMPLEXITY>
369

> <PUBCHEM_CACTVS_HBOND_ACCEPTOR>
1

> <PUBCHEM_CACTVS_HBOND_DONOR>
0

> <PUBCHEM_CACTVS_ROTATABLE_BOND>
0

> <PUBCHEM_CACTVS_SUBSKEYS>
AAADccB6AAAAAAAAAAAAAAAAAAAAAAAAAAA8YMGCAAAAAADx/AAAHAAAAAAADAiBHgAwwPIIEACgAyRiRACCgCAhACAImCAgRJgIIOLAkZGEIAhggADIyAcQgMAOwAACQAASAACAAASAACQAAAAAAAAAAA==

> <PUBCHEM_IUPAC_INCHI>
InChI=1S/C21H13N/c1-3-7-18-14(5-1)9-11-16-13-17-12-10-15-6-2-4-8-19(15)21(17)22-20(16)18/h1-13H

> <PUBCHEM_IUPAC_INCHIKEY>
BTVBCAKHMZHLFR-UHFFFAOYSA-N

> <PUBCHEM_XLOGP3_AA>
6

> <PUBCHEM_EXACT_MASS>
279.104799

> <PUBCHEM_MOLECULAR_FORMULA>
C21H13N

> <PUBCHEM_MOLECULAR_WEIGHT>
279.33462

> <PUBCHEM_OPENEYE_CAN_SMILES>
C1=CC=C2C(=C1)C=CC3=C2N=C4C(=C3)C=CC5=CC=CC=C54

> <PUBCHEM_OPENEYE_ISO_SMILES>
C1=CC=C2C(=C1)C=CC3=C2N=C4C(=C3)C=CC5=CC=CC=C54

> <PUBCHEM_CACTVS_TPSA>
12.9

> <PUBCHEM_MONOISOTOPIC_WEIGHT>
279.104799

> <PUBCHEM_TOTAL_CHARGE>
0

> <PUBCHEM_HEAVY_ATOM_COUNT>
22

> <PUBCHEM_ATOM_DEF_STEREO_COUNT>
0

> <PUBCHEM_ATOM_UDEF_STEREO_COUNT>
0

> <PUBCHEM_BOND_DEF_STEREO_COUNT>
0

> <PUBCHEM_BOND_UDEF_STEREO_COUNT>
0

> <PUBCHEM_ISOTOPIC_ATOM_COUNT>
0

> <PUBCHEM_COMPONENT_COUNT>
1

> <PUBCHEM_CACTVS_TAUTO_COUNT>
1

> <PUBCHEM_COORDINATE_TYPE>
1
5
255

> <PUBCHEM_BONDANNOTATIONS>
1  2  8
1  3  8
10  14  8
10  18  8
11  13  8
12  14  8
15  19  8
16  20  8
17  21  8
18  22  8
19  21  8
2  4  8
2  6  8
20  22  8
3  5  8
3  7  8
4  11  8
4  8  8
5  12  8
5  8  8
6  15  8
6  9  8
7  10  8
7  16  8
9  13  8
9  17  8

$$$$

