38687
  -OEChem-07051213123D

 33 34  0     1  0  0  0  0  0999 V2000
   -3.7305    1.5508    2.1509 Cl  0  0  0  0  0  0  0  0  0  0  0  0
   -5.4555   -2.9118   -0.3236 Cl  0  0  0  0  0  0  0  0  0  0  0  0
    3.5693    0.6893   -0.1370 O   0  0  0  0  0  0  0  0  0  0  0  0
   -1.8453    1.7192   -0.1846 O   0  0  0  0  0  0  0  0  0  0  0  0
    5.0748   -2.5139    0.5215 O   0  0  0  0  0  0  0  0  0  0  0  0
    4.9328   -0.6237    1.7701 O   0  0  0  0  0  0  0  0  0  0  0  0
    3.9809   -0.6367   -0.4659 C   0  0  1  0  0  0  0  0  0  0  0  0
    2.2323    0.9436   -0.1486 C   0  0  0  0  0  0  0  0  0  0  0  0
   -0.5082    1.4655   -0.1722 C   0  0  0  0  0  0  0  0  0  0  0  0
    1.3796    0.2324    0.6956 C   0  0  0  0  0  0  0  0  0  0  0  0
    1.7148    1.9157   -1.0047 C   0  0  0  0  0  0  0  0  0  0  0  0
    0.0094    0.4933    0.6839 C   0  0  0  0  0  0  0  0  0  0  0  0
    0.3446    2.1766   -1.0164 C   0  0  0  0  0  0  0  0  0  0  0  0
    4.8884   -0.5586   -1.6810 C   0  0  0  0  0  0  0  0  0  0  0  0
   -2.7061    0.6345   -0.1969 C   0  0  0  0  0  0  0  0  0  0  0  0
    4.7081   -1.2225    0.7262 C   0  0  0  0  0  0  0  0  0  0  0  0
   -3.6198    0.4515    0.8259 C   0  0  0  0  0  0  0  0  0  0  0  0
   -2.6198   -0.2504   -1.2583 C   0  0  0  0  0  0  0  0  0  0  0  0
   -4.4743   -0.6504    0.7870 C   0  0  0  0  0  0  0  0  0  0  0  0
   -3.4741   -1.3523   -1.2973 C   0  0  0  0  0  0  0  0  0  0  0  0
   -4.4015   -1.5522   -0.2746 C   0  0  0  0  0  0  0  0  0  0  0  0
    3.1227   -1.2830   -0.6915 H   0  0  0  0  0  0  0  0  0  0  0  0
    1.7696   -0.5184    1.3775 H   0  0  0  0  0  0  0  0  0  0  0  0
    2.3742    2.4723   -1.6650 H   0  0  0  0  0  0  0  0  0  0  0  0
   -0.6273   -0.0622    1.3669 H   0  0  0  0  0  0  0  0  0  0  0  0
   -0.0529    2.9344   -1.6860 H   0  0  0  0  0  0  0  0  0  0  0  0
    5.7726    0.0538   -1.4702 H   0  0  0  0  0  0  0  0  0  0  0  0
    4.3675   -0.0873   -2.5214 H   0  0  0  0  0  0  0  0  0  0  0  0
    5.2300   -1.5499   -1.9946 H   0  0  0  0  0  0  0  0  0  0  0  0
   -1.9109   -0.1014   -2.0678 H   0  0  0  0  0  0  0  0  0  0  0  0
   -5.1979   -0.8076    1.5841 H   0  0  0  0  0  0  0  0  0  0  0  0
   -3.4078   -2.0455   -2.1319 H   0  0  0  0  0  0  0  0  0  0  0  0
    5.5373   -2.8905    1.3002 H   0  0  0  0  0  0  0  0  0  0  0  0
  1 17  1  0  0  0  0
  2 21  1  0  0  0  0
  3  7  1  0  0  0  0
  3  8  1  0  0  0  0
  4  9  1  0  0  0  0
  4 15  1  0  0  0  0
  5 16  1  0  0  0  0
  5 33  1  0  0  0  0
  6 16  2  0  0  0  0
  7 14  1  0  0  0  0
  7 16  1  0  0  0  0
  7 22  1  0  0  0  0
  8 10  2  0  0  0  0
  8 11  1  0  0  0  0
  9 12  2  0  0  0  0
  9 13  1  0  0  0  0
 10 12  1  0  0  0  0
 10 23  1  0  0  0  0
 11 13  2  0  0  0  0
 11 24  1  0  0  0  0
 12 25  1  0  0  0  0
 13 26  1  0  0  0  0
 14 27  1  0  0  0  0
 14 28  1  0  0  0  0
 14 29  1  0  0  0  0
 15 17  2  0  0  0  0
 15 18  1  0  0  0  0
 17 19  1  0  0  0  0
 18 20  2  0  0  0  0
 18 30  1  0  0  0  0
 19 21  2  0  0  0  0
 19 31  1  0  0  0  0
 20 21  1  0  0  0  0
 20 32  1  0  0  0  0
M  END
> <PUBCHEM_COMPOUND_CID>
38687

> <PUBCHEM_CONFORMER_RMSD>
0.8

> <PUBCHEM_CONFORMER_DIVERSEORDER>
1
46
60
11
51
47
21
52
74
70
27
31
73
72
33
75
43
34
49
39
66
69
64
35
57
9
48
24
25
38
32
53
23
14
45
19
56
7
20
62
55
15
16
59
63
17
58
26
8
68
4
71
42
18
22
3
6
37
28
12
65
44
10
41
40
29
2
13
61
30
67
5
54
50
36

> <PUBCHEM_MMFF94_PARTIAL_CHARGES>
28
1 -0.18
10 -0.15
11 -0.15
12 -0.15
13 -0.15
15 0.08
16 0.66
17 0.18
18 -0.15
19 -0.15
2 -0.18
20 -0.15
21 0.18
23 0.15
24 0.15
25 0.15
26 0.15
3 -0.36
30 0.15
31 0.15
32 0.15
33 0.5
4 -0.17
5 -0.65
6 -0.57
7 0.34
8 0.08
9 0.08

> <PUBCHEM_EFFECTIVE_ROTOR_COUNT>
5

> <PUBCHEM_PHARMACOPHORE_FEATURES>
7
1 3 acceptor
1 4 acceptor
1 5 acceptor
1 6 acceptor
3 5 6 16 anion
6 15 17 18 19 20 21 rings
6 8 9 10 11 12 13 rings

> <PUBCHEM_HEAVY_ATOM_COUNT>
21

> <PUBCHEM_ATOM_DEF_STEREO_COUNT>
0

> <PUBCHEM_ATOM_UDEF_STEREO_COUNT>
1

> <PUBCHEM_BOND_DEF_STEREO_COUNT>
0

> <PUBCHEM_BOND_UDEF_STEREO_COUNT>
0

> <PUBCHEM_ISOTOPIC_ATOM_COUNT>
0

> <PUBCHEM_COMPONENT_COUNT>
1

> <PUBCHEM_CACTVS_TAUTO_COUNT>
1

> <PUBCHEM_CONFORMER_ID>
0000971F00000001

> <PUBCHEM_MMFF94_ENERGY>
65.5271

> <PUBCHEM_FEATURE_SELFOVERLAP>
35.586

> <PUBCHEM_SHAPE_FINGERPRINT>
10498660 4 12535354484367039743
10928967 22 18272931660994976010
11046707 91 18408606959234631165
11089746 13 9799685979345736198
11543360 7 13830122893362818360
11578080 2 18264226724907771497
11796584 16 18261107517012049444
12422481 6 18043239330928782311
12596602 18 17967251996845125322
12633257 1 15647332962521259807
12892183 10 17095240336814476892
13009979 54 18188475896748839393
13103583 49 18188479276476501961
13167823 11 18259979353710306164
13383661 66 16983473679046397099
13533116 47 18191303772019937227
13583140 156 16153999031322042008
13675066 3 16443061733528699740
14178342 30 17967800687522947517
1420 369 18409168787848186510
14420673 8 17678999728807587318
14576447 43 18271523113822058652
14739800 52 11167378315536677140
14848178 5 18410866459676907846
14848178 96 8862939481329520230
15163728 17 11887682830846148041
15188451 53 18113626655620187391
15342816 4 18341890810212325468
15537594 2 18341319098193518358
16994733 274 4750320584649436955
17349148 13 17774719870164359570
17780758 139 17968381242051293905
17857418 61 18412548703792990002
17959699 21 10087651394063504599
1813 80 18341041973802518204
19377110 9 18115311068705667736
193927 3 18408881806839447007
19422 9 18335973165432938021
19784866 240 18341333306251126383
19784866 34 7925916988714440957
20028762 73 18335986380657573966
20281475 54 18411417336762038164
20645477 70 17774447066188750493
21033648 29 14996547513566507457
21315759 148 17530961397792716994
22950370 63 18412537734720634324
23402539 116 18060140993964710936
23503958 8 18114177519466806331
235170 7 15410891881597543454
23522609 53 18050812707493332580
23596394 208 15482675693029330976
270888 7 9078847289747074071
2838139 119 10303802173508386214
312423 11 18263631892894432725
312425 54 18041846237249371130
314194 84 18130498695828761040
3472631 163 10591780774514179539
351380 3 18412538825721559246
4259306 186 17703791426875039578
44062 13 18130516326601089141
5104073 3 18113337505040982344
559249 180 18410859901942016949
5924683 9 16009044851803040517
76465 3 18342462547257370812
7970288 3 18341618092083977203
960060 61 17275387586163439830

> <PUBCHEM_SHAPE_MULTIPOLES>
412.43
12.84
2.52
1.54
5.25
0.81
-0.29
10.34
-1.95
-1.42
0.11
0.27
-0.22
-1.98

> <PUBCHEM_SHAPE_SELFOVERLAP>
862.908

> <PUBCHEM_SHAPE_VOLUME>
235

> <PUBCHEM_COORDINATE_TYPE>
2
5
10

$$$$

