6603893
  -OEChem-07051213113D

 30 30  0     1  0  0  0  0  0999 V2000
   -2.6910   -1.1966   -0.4088 O   0  0  0  0  0  0  0  0  0  0  0  0
   -0.9894   -2.6019   -0.9795 O   0  0  0  0  0  0  0  0  0  0  0  0
   -2.6073    2.0632    0.9991 O   0  0  0  0  0  0  0  0  0  0  0  0
   -2.1863    1.7456   -1.2151 O   0  0  0  0  0  0  0  0  0  0  0  0
    0.3414   -1.8111    1.2979 N   0  0  0  0  0  0  0  0  0  0  0  0
    0.1571    0.2367    0.0539 C   0  0  1  0  0  0  0  0  0  0  0  0
    1.5898    0.0069    0.5534 C   0  0  1  0  0  0  0  0  0  0  0  0
   -0.6437   -0.9020    0.7023 C   0  0  1  0  0  0  0  0  0  0  0  0
    1.6388   -1.5067    0.6981 C   0  0  0  0  0  0  0  0  0  0  0  0
   -0.3812    1.6161    0.4177 C   0  0  0  0  0  0  0  0  0  0  0  0
    2.6487    0.5373   -0.3548 C   0  0  0  0  0  0  0  0  0  0  0  0
   -1.4252   -1.6724   -0.3165 C   0  0  0  0  0  0  0  0  0  0  0  0
    3.5991    1.5301    0.2460 C   0  0  0  0  0  0  0  0  0  0  0  0
   -1.7958    1.8066   -0.0590 C   0  0  0  0  0  0  0  0  0  0  0  0
    2.7451    0.1482   -1.6347 C   0  0  0  0  0  0  0  0  0  0  0  0
    0.1045    0.1334   -1.0388 H   0  0  0  0  0  0  0  0  0  0  0  0
    1.7002    0.4543    1.5525 H   0  0  0  0  0  0  0  0  0  0  0  0
   -1.3128   -0.5673    1.5022 H   0  0  0  0  0  0  0  0  0  0  0  0
    1.7382   -2.0334   -0.2578 H   0  0  0  0  0  0  0  0  0  0  0  0
    2.4553   -1.8291    1.3522 H   0  0  0  0  0  0  0  0  0  0  0  0
    0.0942   -2.7916    1.1817 H   0  0  0  0  0  0  0  0  0  0  0  0
   -0.3341    1.7699    1.5030 H   0  0  0  0  0  0  0  0  0  0  0  0
    0.2265    2.4084   -0.0342 H   0  0  0  0  0  0  0  0  0  0  0  0
    3.0540    2.4089    0.6057 H   0  0  0  0  0  0  0  0  0  0  0  0
    4.1343    1.0817    1.0894 H   0  0  0  0  0  0  0  0  0  0  0  0
    4.3462    1.8751   -0.4766 H   0  0  0  0  0  0  0  0  0  0  0  0
    3.5216    0.5443   -2.2815 H   0  0  0  0  0  0  0  0  0  0  0  0
    2.0640   -0.5701   -2.0775 H   0  0  0  0  0  0  0  0  0  0  0  0
   -3.2194   -1.6873   -1.0738 H   0  0  0  0  0  0  0  0  0  0  0  0
   -3.5396    2.1912    0.7221 H   0  0  0  0  0  0  0  0  0  0  0  0
  1 12  1  0  0  0  0
  1 29  1  0  0  0  0
  2 12  2  0  0  0  0
  3 14  1  0  0  0  0
  3 30  1  0  0  0  0
  4 14  2  0  0  0  0
  5  8  1  0  0  0  0
  5  9  1  0  0  0  0
  5 21  1  0  0  0  0
  6  7  1  0  0  0  0
  6  8  1  0  0  0  0
  6 10  1  0  0  0  0
  6 16  1  0  0  0  0
  7  9  1  0  0  0  0
  7 11  1  0  0  0  0
  7 17  1  0  0  0  0
  8 12  1  0  0  0  0
  8 18  1  0  0  0  0
  9 19  1  0  0  0  0
  9 20  1  0  0  0  0
 10 14  1  0  0  0  0
 10 22  1  0  0  0  0
 10 23  1  0  0  0  0
 11 13  1  0  0  0  0
 11 15  2  0  0  0  0
 13 24  1  0  0  0  0
 13 25  1  0  0  0  0
 13 26  1  0  0  0  0
 15 27  1  0  0  0  0
 15 28  1  0  0  0  0
M  END
> <PUBCHEM_COMPOUND_CID>
6603893

> <PUBCHEM_CONFORMER_RMSD>
0.6

> <PUBCHEM_CONFORMER_DIVERSEORDER>
1
17
14
11
4
3
16
19
2
6
15
10
13
18
9
7
12
8
5

> <PUBCHEM_MMFF94_PARTIAL_CHARGES>
19
1 -0.65
10 0.06
11 -0.28
12 0.66
13 0.14
14 0.66
15 -0.3
2 -0.57
21 0.36
27 0.15
28 0.15
29 0.5
3 -0.65
30 0.5
4 -0.57
5 -0.9
7 0.14
8 0.33
9 0.27

> <PUBCHEM_EFFECTIVE_ROTOR_COUNT>
5

> <PUBCHEM_PHARMACOPHORE_FEATURES>
9
1 1 acceptor
1 2 acceptor
1 3 acceptor
1 4 acceptor
1 5 cation
1 5 donor
3 1 2 12 anion
3 3 4 14 anion
5 5 6 7 8 9 rings

> <PUBCHEM_HEAVY_ATOM_COUNT>
15

> <PUBCHEM_ATOM_DEF_STEREO_COUNT>
3

> <PUBCHEM_ATOM_UDEF_STEREO_COUNT>
0

> <PUBCHEM_BOND_DEF_STEREO_COUNT>
0

> <PUBCHEM_BOND_UDEF_STEREO_COUNT>
0

> <PUBCHEM_ISOTOPIC_ATOM_COUNT>
0

> <PUBCHEM_COMPONENT_COUNT>
1

> <PUBCHEM_CACTVS_TAUTO_COUNT>
1

> <PUBCHEM_CONFORMER_ID>
0064C47500000001

> <PUBCHEM_MMFF94_ENERGY>
26.9984

> <PUBCHEM_FEATURE_SELFOVERLAP>
45.783

> <PUBCHEM_SHAPE_FINGERPRINT>
1 1 18053098720398364132
10353120 184 18269269054412652175
11206711 2 18341328881896799740
12138202 97 18335137600846030788
12532896 13 18341321258456417432
13380536 167 18198080233416565114
14614273 12 18202014200152855300
14617773 55 18339662086535455643
14817 1 8424408859020711903
15219459 52 17979080714255486614
15490181 7 18270118053556924336
15490181 8 17903078068539461977
15775835 57 18270674389160521980
16945 1 18336828572098372346
18186145 218 18189895499066869012
19837323 101 18334009510194448591
20511035 2 18057597874929775394
20525323 117 18341047407152184600
21501502 16 18411141350837752562
21524375 3 18270390732440456968
22802520 49 18042110094027185326
2334 1 18412830204539283666
23402539 116 18122355579680203022
23557571 272 18118400636075628422
23559900 14 18261106427303653086
2748010 2 18339639052641398496
3060560 45 17760939836450628237
353137 74 18271535186437024719
53812653 217 18410001122529938546
53812653 8 18342463607797950771
6333449 129 18335420153675052480
81228 2 18268419131950735832

> <PUBCHEM_SHAPE_MULTIPOLES>
280.23
4.44
2.64
1.19
2.21
0.18
0.23
-1.91
0.79
-1.78
-0.07
0.2
0.13
-0.38

> <PUBCHEM_SHAPE_SELFOVERLAP>
569.102

> <PUBCHEM_SHAPE_VOLUME>
164.3

> <PUBCHEM_COORDINATE_TYPE>
2
5
10

$$$$

