93483
  -OEChem-07051213123D

 38 40  0     0  0  0  0  0  0999 V2000
   -2.6576   -1.6853   -2.1160 Cl  0  0  0  0  0  0  0  0  0  0  0  0
    7.2248    1.0409   -0.6282 Cl  0  0  0  0  0  0  0  0  0  0  0  0
    0.1131   -5.8372   -0.1018 Cl  0  0  0  0  0  0  0  0  0  0  0  0
    0.3469    0.4086   -0.5457 S   0  0  0  0  0  0  0  0  0  0  0  0
   -3.0703    2.3969    0.1293 N   0  0  0  0  0  0  0  0  0  0  0  0
   -1.9646   -0.3367    0.5111 N   0  0  0  0  0  0  0  0  0  0  0  0
   -3.8360    2.3955    1.2165 N   0  0  0  0  0  0  0  0  0  0  0  0
   -5.0285    2.8101   -0.6910 N   0  0  0  0  0  0  0  0  0  0  0  0
   -1.6318    2.1511    0.2471 C   0  0  0  0  0  0  0  0  0  0  0  0
    1.3705    1.2908    0.6716 C   0  0  0  0  0  0  0  0  0  0  0  0
   -1.2590    0.6861    0.1370 C   0  0  0  0  0  0  0  0  0  0  0  0
    2.8249    1.2284    0.3478 C   0  0  0  0  0  0  0  0  0  0  0  0
    3.4043    2.2125   -0.4531 C   0  0  0  0  0  0  0  0  0  0  0  0
    3.6062    0.1860    0.8467 C   0  0  0  0  0  0  0  0  0  0  0  0
   -1.4822   -1.6420    0.3428 C   0  0  0  0  0  0  0  0  0  0  0  0
    4.7647    2.1543   -0.7555 C   0  0  0  0  0  0  0  0  0  0  0  0
    4.9667    0.1279    0.5444 C   0  0  0  0  0  0  0  0  0  0  0  0
   -3.7636    2.6399   -0.9983 C   0  0  0  0  0  0  0  0  0  0  0  0
   -1.7364   -2.3640   -0.8229 C   0  0  0  0  0  0  0  0  0  0  0  0
   -0.7348   -2.2164    1.3707 C   0  0  0  0  0  0  0  0  0  0  0  0
    5.5460    1.1119   -0.2568 C   0  0  0  0  0  0  0  0  0  0  0  0
   -1.2426   -3.6614   -0.9609 C   0  0  0  0  0  0  0  0  0  0  0  0
   -0.2413   -3.5137    1.2329 C   0  0  0  0  0  0  0  0  0  0  0  0
   -0.4952   -4.2362    0.0671 C   0  0  0  0  0  0  0  0  0  0  0  0
   -5.0242    2.6520    0.6652 C   0  0  0  0  0  0  0  0  0  0  0  0
   -1.3208    2.5296    1.2272 H   0  0  0  0  0  0  0  0  0  0  0  0
   -1.1473    2.7507   -0.5311 H   0  0  0  0  0  0  0  0  0  0  0  0
    1.1855    0.8639    1.6644 H   0  0  0  0  0  0  0  0  0  0  0  0
    1.0584    2.3396    0.7257 H   0  0  0  0  0  0  0  0  0  0  0  0
    2.8066    3.0295   -0.8489 H   0  0  0  0  0  0  0  0  0  0  0  0
    3.1669   -0.5879    1.4708 H   0  0  0  0  0  0  0  0  0  0  0  0
    5.2025    2.9280   -1.3810 H   0  0  0  0  0  0  0  0  0  0  0  0
    5.5632   -0.6902    0.9400 H   0  0  0  0  0  0  0  0  0  0  0  0
   -3.3299    2.6822   -1.9875 H   0  0  0  0  0  0  0  0  0  0  0  0
   -0.5318   -1.6632    2.2843 H   0  0  0  0  0  0  0  0  0  0  0  0
   -1.4396   -4.2264   -1.8695 H   0  0  0  0  0  0  0  0  0  0  0  0
    0.3395   -3.9487    2.0422 H   0  0  0  0  0  0  0  0  0  0  0  0
   -5.9149    2.7263    1.2710 H   0  0  0  0  0  0  0  0  0  0  0  0
  1 19  1  0  0  0  0
  2 21  1  0  0  0  0
  3 24  1  0  0  0  0
  4 10  1  0  0  0  0
  4 11  1  0  0  0  0
  5  7  1  0  0  0  0
  5  9  1  0  0  0  0
  5 18  1  0  0  0  0
  6 11  2  0  0  0  0
  6 15  1  0  0  0  0
  7 25  2  0  0  0  0
  8 18  2  0  0  0  0
  8 25  1  0  0  0  0
  9 11  1  0  0  0  0
  9 26  1  0  0  0  0
  9 27  1  0  0  0  0
 10 12  1  0  0  0  0
 10 28  1  0  0  0  0
 10 29  1  0  0  0  0
 12 13  2  0  0  0  0
 12 14  1  0  0  0  0
 13 16  1  0  0  0  0
 13 30  1  0  0  0  0
 14 17  2  0  0  0  0
 14 31  1  0  0  0  0
 15 19  2  0  0  0  0
 15 20  1  0  0  0  0
 16 21  2  0  0  0  0
 16 32  1  0  0  0  0
 17 21  1  0  0  0  0
 17 33  1  0  0  0  0
 18 34  1  0  0  0  0
 19 22  1  0  0  0  0
 20 23  2  0  0  0  0
 20 35  1  0  0  0  0
 22 24  2  0  0  0  0
 22 36  1  0  0  0  0
 23 24  1  0  0  0  0
 23 37  1  0  0  0  0
 25 38  1  0  0  0  0
M  END
> <PUBCHEM_COMPOUND_CID>
93483

> <PUBCHEM_CONFORMER_RMSD>
0.8

> <PUBCHEM_CONFORMER_DIVERSEORDER>
1
61
90
49
17
64
37
54
88
74
101
70
83
19
29
58
8
89
62
31
92
60
100
82
78
73
97
18
47
34
14
86
87
66
41
12
69
24
67
46
84
16
20
39
36
94
50
96
30
4
26
52
95
79
65
102
51
13
75
93
44
25
55
35
76
56
85
38
48
40
63
23
53
32
2
81
33
59
6
42
71
27
98
28
45
91
57
77
21
10
22
43
80
99
11
5
15
72
68
3
7
9

> <PUBCHEM_MMFF94_PARTIAL_CHARGES>
34
1 -0.18
10 0.37
11 0.53
12 -0.14
13 -0.15
14 -0.15
15 0.18
16 -0.15
17 -0.15
18 0.04
19 0.18
2 -0.18
20 -0.15
21 0.18
22 -0.15
23 -0.15
24 0.18
25 0.37
3 -0.18
30 0.15
31 0.15
32 0.15
33 0.15
34 0.15
35 0.15
36 0.15
37 0.15
38 0.15
4 -0.37
5 0.31
6 -0.63
7 -0.71
8 -0.57
9 0.32

> <PUBCHEM_EFFECTIVE_ROTOR_COUNT>
6

> <PUBCHEM_PHARMACOPHORE_FEATURES>
6
1 6 acceptor
3 5 8 18 cation
3 7 8 25 cation
5 5 7 8 18 25 rings
6 12 13 14 16 17 21 rings
6 15 19 20 22 23 24 rings

> <PUBCHEM_HEAVY_ATOM_COUNT>
25

> <PUBCHEM_ATOM_DEF_STEREO_COUNT>
0

> <PUBCHEM_ATOM_UDEF_STEREO_COUNT>
0

> <PUBCHEM_BOND_DEF_STEREO_COUNT>
0

> <PUBCHEM_BOND_UDEF_STEREO_COUNT>
0

> <PUBCHEM_ISOTOPIC_ATOM_COUNT>
0

> <PUBCHEM_COMPONENT_COUNT>
1

> <PUBCHEM_CACTVS_TAUTO_COUNT>
1

> <PUBCHEM_CONFORMER_ID>
00016D2B00000001

> <PUBCHEM_MMFF94_ENERGY>
59.4693

> <PUBCHEM_FEATURE_SELFOVERLAP>
33.223

> <PUBCHEM_SHAPE_FINGERPRINT>
10190108 129 18410012097273744635
107951 10 18408036329684577846
10940486 97 18199742562608501420
12597179 24 18187641444436947844
12788726 201 18193852456763094843
138480 1 17474106982601598754
13911987 19 18340777039104301029
14251757 5 18196659484067999639
14659021 117 17977114461712095482
14790565 3 18411421743171676033
14866123 147 18336827494357188123
15230672 131 18341042017849657646
15250474 111 18270973337103312778
15439362 3 17979917430189171457
15927050 60 18335138751902963119
167882 2 18051133884809168817
18785283 64 18053103114308443179
21120745 212 17692513534172080381
21133410 171 17256865089541497802
21133410 221 15242918700444946442
23558518 356 17984137063800971816
23598288 3 18056179302940147004
249057 3 18341608266137157636
249999 5 18122340452742226081
3027735 51 18261117331134237735
3298306 158 18196367237223412375
3411729 13 18122620828455806929
4015057 19 16660649518562366576
4017518 198 18337950194877431558
508706 21 18189038816932967342
5385378 56 18121490513111561665
613672 6 17399255053103481602
6669772 16 18263638627070584071

> <PUBCHEM_SHAPE_MULTIPOLES>
504.02
11.6
6.56
1.28
20.07
9.46
0.24
-13.33
2
-8.45
0.01
-0.8
0.4
-1.13

> <PUBCHEM_SHAPE_SELFOVERLAP>
1039.597

> <PUBCHEM_SHAPE_VOLUME>
293.3

> <PUBCHEM_COORDINATE_TYPE>
2
5
10

$$$$

