443028
  -OEChem-07051213003D

 62 65  0     1  0  0  0  0  0999 V2000
    0.9696    0.7969   -1.5838 O   0  0  0  0  0  0  0  0  0  0  0  0
   -1.0367    0.8062    1.6713 O   0  0  0  0  0  0  0  0  0  0  0  0
    6.0192    1.9750    0.9507 O   0  0  0  0  0  0  0  0  0  0  0  0
   -5.2945   -2.2458    1.3285 O   0  0  0  0  0  0  0  0  0  0  0  0
    5.2449   -2.2279   -1.2108 O   0  0  0  0  0  0  0  0  0  0  0  0
   -6.0924    1.9319   -0.8728 O   0  0  0  0  0  0  0  0  0  0  0  0
    6.9977   -0.3935   -0.0995 O   0  0  0  0  0  0  0  0  0  0  0  0
   -7.0575   -0.4323    0.2005 O   0  0  0  0  0  0  0  0  0  0  0  0
    0.6020   -0.3963    0.4584 C   0  0  1  0  0  0  0  0  0  0  0  0
   -0.6614   -0.4042   -0.3592 C   0  0  1  0  0  0  0  0  0  0  0  0
    1.4391    0.6940   -0.2239 C   0  0  1  0  0  0  0  0  0  0  0  0
   -1.5052    0.6876    0.3122 C   0  0  1  0  0  0  0  0  0  0  0  0
   -0.1732   -0.0543   -1.7474 C   0  0  0  0  0  0  0  0  0  0  0  0
    0.1116   -0.0360    1.8430 C   0  0  0  0  0  0  0  0  0  0  0  0
    2.9207    0.4043   -0.1909 C   0  0  0  0  0  0  0  0  0  0  0  0
   -2.9852    0.3889    0.2822 C   0  0  0  0  0  0  0  0  0  0  0  0
    3.4120   -0.7899   -0.7213 C   0  0  0  0  0  0  0  0  0  0  0  0
   -3.8719    1.3042   -0.2874 C   0  0  0  0  0  0  0  0  0  0  0  0
    3.8023    1.3303    0.3693 C   0  0  0  0  0  0  0  0  0  0  0  0
   -3.4692   -0.8032    0.8233 C   0  0  0  0  0  0  0  0  0  0  0  0
    5.1711    1.0629    0.3990 C   0  0  0  0  0  0  0  0  0  0  0  0
   -4.8362   -1.0793    0.7950 C   0  0  0  0  0  0  0  0  0  0  0  0
    4.7807   -1.0573   -0.6914 C   0  0  0  0  0  0  0  0  0  0  0  0
   -5.2389    1.0281   -0.3157 C   0  0  0  0  0  0  0  0  0  0  0  0
    5.6602   -0.1309   -0.1313 C   0  0  0  0  0  0  0  0  0  0  0  0
   -5.7210   -0.1637    0.2255 C   0  0  0  0  0  0  0  0  0  0  0  0
    6.2870    1.8500    2.3460 C   0  0  0  0  0  0  0  0  0  0  0  0
   -5.3761   -3.3703    0.4550 C   0  0  0  0  0  0  0  0  0  0  0  0
    5.3302   -3.3418   -0.3241 C   0  0  0  0  0  0  0  0  0  0  0  0
   -5.5177    3.1246   -1.4032 C   0  0  0  0  0  0  0  0  0  0  0  0
    7.7691    0.0412   -1.2168 C   0  0  0  0  0  0  0  0  0  0  0  0
   -7.6801   -0.4996   -1.0803 C   0  0  0  0  0  0  0  0  0  0  0  0
    1.0944   -1.3737    0.4609 H   0  0  0  0  0  0  0  0  0  0  0  0
   -1.1478   -1.3846   -0.3523 H   0  0  0  0  0  0  0  0  0  0  0  0
    1.2485    1.6725    0.2349 H   0  0  0  0  0  0  0  0  0  0  0  0
   -1.3174    1.6624   -0.1552 H   0  0  0  0  0  0  0  0  0  0  0  0
   -0.9256    0.4521   -2.3589 H   0  0  0  0  0  0  0  0  0  0  0  0
    0.1614   -0.9504   -2.2813 H   0  0  0  0  0  0  0  0  0  0  0  0
    0.8607    0.4811    2.4495 H   0  0  0  0  0  0  0  0  0  0  0  0
   -0.2172   -0.9290    2.3856 H   0  0  0  0  0  0  0  0  0  0  0  0
    2.7396   -1.5142   -1.1744 H   0  0  0  0  0  0  0  0  0  0  0  0
   -3.4422    2.2137   -0.6933 H   0  0  0  0  0  0  0  0  0  0  0  0
    3.4294    2.2633    0.7849 H   0  0  0  0  0  0  0  0  0  0  0  0
   -2.7927   -1.5189    1.2840 H   0  0  0  0  0  0  0  0  0  0  0  0
    6.9841    2.6419    2.6333 H   0  0  0  0  0  0  0  0  0  0  0  0
    5.3655    1.9674    2.9251 H   0  0  0  0  0  0  0  0  0  0  0  0
    6.7479    0.8817    2.5650 H   0  0  0  0  0  0  0  0  0  0  0  0
   -4.3845   -3.6292    0.0703 H   0  0  0  0  0  0  0  0  0  0  0  0
   -5.7626   -4.2195    1.0251 H   0  0  0  0  0  0  0  0  0  0  0  0
   -6.0595   -3.1665   -0.3752 H   0  0  0  0  0  0  0  0  0  0  0  0
    5.7235   -4.1953   -0.8830 H   0  0  0  0  0  0  0  0  0  0  0  0
    6.0103   -3.1231    0.5052 H   0  0  0  0  0  0  0  0  0  0  0  0
    4.3391   -3.6018    0.0610 H   0  0  0  0  0  0  0  0  0  0  0  0
   -5.0391    3.7248   -0.6218 H   0  0  0  0  0  0  0  0  0  0  0  0
   -6.3396    3.7260   -1.8056 H   0  0  0  0  0  0  0  0  0  0  0  0
   -4.8430    2.9109   -2.2392 H   0  0  0  0  0  0  0  0  0  0  0  0
    7.4239   -0.4437   -2.1354 H   0  0  0  0  0  0  0  0  0  0  0  0
    7.7144    1.1292   -1.3232 H   0  0  0  0  0  0  0  0  0  0  0  0
    8.8113   -0.2408   -1.0437 H   0  0  0  0  0  0  0  0  0  0  0  0
   -6.9784   -0.7999   -1.8664 H   0  0  0  0  0  0  0  0  0  0  0  0
   -8.4751   -1.2495   -1.0290 H   0  0  0  0  0  0  0  0  0  0  0  0
   -8.1381    0.4626   -1.3256 H   0  0  0  0  0  0  0  0  0  0  0  0
  1 11  1  0  0  0  0
  1 13  1  0  0  0  0
  2 12  1  0  0  0  0
  2 14  1  0  0  0  0
  3 21  1  0  0  0  0
  3 27  1  0  0  0  0
  4 22  1  0  0  0  0
  4 28  1  0  0  0  0
  5 23  1  0  0  0  0
  5 29  1  0  0  0  0
  6 24  1  0  0  0  0
  6 30  1  0  0  0  0
  7 25  1  0  0  0  0
  7 31  1  0  0  0  0
  8 26  1  0  0  0  0
  8 32  1  0  0  0  0
  9 10  1  0  0  0  0
  9 11  1  0  0  0  0
  9 14  1  0  0  0  0
  9 33  1  0  0  0  0
 10 12  1  0  0  0  0
 10 13  1  0  0  0  0
 10 34  1  0  0  0  0
 11 15  1  0  0  0  0
 11 35  1  0  0  0  0
 12 16  1  0  0  0  0
 12 36  1  0  0  0  0
 13 37  1  0  0  0  0
 13 38  1  0  0  0  0
 14 39  1  0  0  0  0
 14 40  1  0  0  0  0
 15 17  2  0  0  0  0
 15 19  1  0  0  0  0
 16 18  2  0  0  0  0
 16 20  1  0  0  0  0
 17 23  1  0  0  0  0
 17 41  1  0  0  0  0
 18 24  1  0  0  0  0
 18 42  1  0  0  0  0
 19 21  2  0  0  0  0
 19 43  1  0  0  0  0
 20 22  2  0  0  0  0
 20 44  1  0  0  0  0
 21 25  1  0  0  0  0
 22 26  1  0  0  0  0
 23 25  2  0  0  0  0
 24 26  2  0  0  0  0
 27 45  1  0  0  0  0
 27 46  1  0  0  0  0
 27 47  1  0  0  0  0
 28 48  1  0  0  0  0
 28 49  1  0  0  0  0
 28 50  1  0  0  0  0
 29 51  1  0  0  0  0
 29 52  1  0  0  0  0
 29 53  1  0  0  0  0
 30 54  1  0  0  0  0
 30 55  1  0  0  0  0
 30 56  1  0  0  0  0
 31 57  1  0  0  0  0
 31 58  1  0  0  0  0
 31 59  1  0  0  0  0
 32 60  1  0  0  0  0
 32 61  1  0  0  0  0
 32 62  1  0  0  0  0
M  END
> <PUBCHEM_COMPOUND_CID>
443028

> <PUBCHEM_CONFORMER_RMSD>
1

> <PUBCHEM_CONFORMER_DIVERSEORDER>
8
5
15
3
4
11
14
1
6
10
2
12
13
7
9

> <PUBCHEM_MMFF94_PARTIAL_CHARGES>
34
1 -0.56
11 0.42
12 0.42
13 0.28
14 0.28
15 -0.14
16 -0.14
17 -0.15
18 -0.15
19 -0.15
2 -0.56
20 -0.15
21 0.08
22 0.08
23 0.08
24 0.08
25 0.08
26 0.08
27 0.28
28 0.28
29 0.28
3 -0.36
30 0.28
31 0.28
32 0.28
4 -0.36
41 0.15
42 0.15
43 0.15
44 0.15
5 -0.36
6 -0.36
7 -0.36
8 -0.36

> <PUBCHEM_EFFECTIVE_ROTOR_COUNT>
9.2

> <PUBCHEM_PHARMACOPHORE_FEATURES>
12
1 1 acceptor
1 2 acceptor
1 3 acceptor
1 4 acceptor
1 5 acceptor
1 6 acceptor
1 7 acceptor
1 8 acceptor
5 1 9 10 11 13 rings
5 2 9 10 12 14 rings
6 15 17 19 21 23 25 rings
6 16 18 20 22 24 26 rings

> <PUBCHEM_HEAVY_ATOM_COUNT>
32

> <PUBCHEM_ATOM_DEF_STEREO_COUNT>
4

> <PUBCHEM_ATOM_UDEF_STEREO_COUNT>
0

> <PUBCHEM_BOND_DEF_STEREO_COUNT>
0

> <PUBCHEM_BOND_UDEF_STEREO_COUNT>
0

> <PUBCHEM_ISOTOPIC_ATOM_COUNT>
0

> <PUBCHEM_COMPONENT_COUNT>
1

> <PUBCHEM_CACTVS_TAUTO_COUNT>
1

> <PUBCHEM_CONFORMER_ID>
0006C29400000008

> <PUBCHEM_MMFF94_ENERGY>
159.4132

> <PUBCHEM_FEATURE_SELFOVERLAP>
61.392

> <PUBCHEM_SHAPE_FINGERPRINT>
10 15 18336554811642821304
10835480 77 18334861631769895849
11135926 11 16153709855891294781
11315181 36 17346593063517805261
13533116 47 18260544563513039202
13782708 43 18410570682417137331
13811026 1 18410298003580830649
14294032 229 16916795144550700292
14461889 52 18337395937821649346
14849402 71 5400503740738409394
14856354 85 15338825474713862531
15183329 4 16487255465013702892
15419008 91 18341347616565977957
15475509 8 16987705973719910446
18681886 176 18130788915380199657
19377110 9 15502366863661071727
20157964 124 18113620075941364520
20197701 30 18410009939987313203
20567600 75 18410291419263603335
21033648 29 18337122210412338185
21267235 1 17530953706049342460
21315759 40 14201392807534409724
21623969 137 17603857901753795839
21814621 53 18410013281545248657
23081809 10 14851602180883673128
23559900 14 18411140242630929137
23569914 2 17689490079033876601
23569943 247 17557989721138584330
24771293 8 17560796598810664828
249057 3 17846778478236477967
34797466 226 18409728447956924865
397830 11 18189900816288492744
4073 2 18271802376616734074
4144715 1 18342170034210026081
4340502 62 18334295340917110362
5104073 3 18040988587956367506
513532 50 18343869935769826666
6698420 124 18264765649082710057
77296 10 18410851070682134793

> <PUBCHEM_SHAPE_MULTIPOLES>
611.59
22.52
2.63
1.52
1.67
1.32
-0.32
1.22
2.06
-1.21
0.08
0.79
-0.41
3.86

> <PUBCHEM_SHAPE_SELFOVERLAP>
1314.736

> <PUBCHEM_SHAPE_VOLUME>
343.2

> <PUBCHEM_COORDINATE_TYPE>
2
5
10

$$$$

