9543305
  -OEChem-07051213113D

 20 19  0     0  0  0  0  0  0999 V2000
   -1.4228   -2.7391    0.1575 Cl  0  0  0  0  0  0  0  0  0  0  0  0
    0.7119   -0.8435   -1.6410 O   0  0  0  0  0  0  0  0  0  0  0  0
    3.5921    0.2788    1.2160 O   0  0  0  0  0  0  0  0  0  0  0  0
   -2.4775    2.0955   -0.3654 O   0  0  0  0  0  0  0  0  0  0  0  0
    2.8075    0.7707   -0.8560 O   0  0  0  0  0  0  0  0  0  0  0  0
   -0.2837    1.7569    0.1611 O   0  0  0  0  0  0  0  0  0  0  0  0
    1.5009   -0.6613    0.6113 C   0  0  0  0  0  0  0  0  0  0  0  0
   -1.8563   -0.0689    0.2122 C   0  0  0  0  0  0  0  0  0  0  0  0
    0.4269   -0.8393   -0.4432 C   0  0  0  0  0  0  0  0  0  0  0  0
   -0.9836   -1.0720   -0.0024 C   0  0  0  0  0  0  0  0  0  0  0  0
   -3.2640   -0.2256    0.7200 C   0  0  0  0  0  0  0  0  0  0  0  0
    2.6685    0.2099    0.2220 C   0  0  0  0  0  0  0  0  0  0  0  0
   -1.4198    1.3381    0.0080 C   0  0  0  0  0  0  0  0  0  0  0  0
    1.8837   -1.6595    0.8511 H   0  0  0  0  0  0  0  0  0  0  0  0
    1.0481   -0.2270    1.5092 H   0  0  0  0  0  0  0  0  0  0  0  0
   -3.4584   -1.2148    1.1437 H   0  0  0  0  0  0  0  0  0  0  0  0
   -3.9833   -0.0632   -0.0896 H   0  0  0  0  0  0  0  0  0  0  0  0
   -3.4688    0.4957    1.5192 H   0  0  0  0  0  0  0  0  0  0  0  0
    4.3612    0.8324    0.9624 H   0  0  0  0  0  0  0  0  0  0  0  0
   -2.2265    3.0334   -0.5052 H   0  0  0  0  0  0  0  0  0  0  0  0
  1 10  1  0  0  0  0
  2  9  2  0  0  0  0
  3 12  1  0  0  0  0
  3 19  1  0  0  0  0
  4 13  1  0  0  0  0
  4 20  1  0  0  0  0
  5 12  2  0  0  0  0
  6 13  2  0  0  0  0
  7  9  1  0  0  0  0
  7 12  1  0  0  0  0
  7 14  1  0  0  0  0
  7 15  1  0  0  0  0
  8 10  2  0  0  0  0
  8 11  1  0  0  0  0
  8 13  1  0  0  0  0
  9 10  1  0  0  0  0
 11 16  1  0  0  0  0
 11 17  1  0  0  0  0
 11 18  1  0  0  0  0
M  END
> <PUBCHEM_COMPOUND_CID>
9543305

> <PUBCHEM_CONFORMER_RMSD>
0.6

> <PUBCHEM_CONFORMER_DIVERSEORDER>
2
18
49
46
3
5
51
25
31
29
1
47
36
14
15
40
34
43
24
35
48
21
38
37
28
27
13
44
23
39
12
8
50
4
19
53
30
41
26
10
17
32
52
22
45
33
7
11
20
9
42
6
16

> <PUBCHEM_MMFF94_PARTIAL_CHARGES>
15
1 -0.14
10 0.15
11 0.14
12 0.66
13 0.71
19 0.5
2 -0.57
20 0.5
3 -0.65
4 -0.65
5 -0.57
6 -0.57
7 0.12
8 -0.12
9 0.49

> <PUBCHEM_EFFECTIVE_ROTOR_COUNT>
4

> <PUBCHEM_PHARMACOPHORE_FEATURES>
9
1 11 hydrophobe
1 2 acceptor
1 3 acceptor
1 4 acceptor
1 5 acceptor
1 6 acceptor
1 7 anion
3 3 5 12 anion
3 4 6 13 anion

> <PUBCHEM_HEAVY_ATOM_COUNT>
13

> <PUBCHEM_ATOM_DEF_STEREO_COUNT>
0

> <PUBCHEM_ATOM_UDEF_STEREO_COUNT>
0

> <PUBCHEM_BOND_DEF_STEREO_COUNT>
1

> <PUBCHEM_BOND_UDEF_STEREO_COUNT>
0

> <PUBCHEM_ISOTOPIC_ATOM_COUNT>
0

> <PUBCHEM_COMPONENT_COUNT>
1

> <PUBCHEM_CACTVS_TAUTO_COUNT>
8

> <PUBCHEM_CONFORMER_ID>
00919E8900000002

> <PUBCHEM_MMFF94_ENERGY>
28.1304

> <PUBCHEM_FEATURE_SELFOVERLAP>
46.05

> <PUBCHEM_SHAPE_FINGERPRINT>
10857977 72 18411127035600874755
11132069 177 18260546688978291523
13538477 17 18201158741668023990
13839132 238 18264199382300738262
14817 1 5206687367317046431
15219456 202 18114739464007678518
15775835 57 18259989258157936152
16945 1 18411419475238760263
17846911 113 18335424577528095969
20871998 184 18188768336502795639
21028194 46 18187083996373574866
22802520 49 17751906154585685020
23211744 41 18188205532609793991
23402539 116 18335715909734553247
23598294 1 18197771103245909242
2748010 2 18194953265618291095
305870 269 18198064891803920186
369184 2 16559034878341190523
5084963 1 18042965556801968498
7364860 26 17688311609042627083
81228 2 18337103445953312443

> <PUBCHEM_SHAPE_MULTIPOLES>
240.06
4.73
2.17
0.99
2.51
0.38
0.15
-1
-1.25
-1.74
0.14
0.49
0.12
0.14

> <PUBCHEM_SHAPE_SELFOVERLAP>
469.939

> <PUBCHEM_SHAPE_VOLUME>
143.6

> <PUBCHEM_COORDINATE_TYPE>
2
5
10

$$$$

