2797
  -OEChem-07051213042D

 25 25  0     0  0  0  0  0  0999 V2000
    2.8660   -3.1550    0.0000 Cl  0  0  0  0  0  0  0  0  0  0  0  0
    2.8660    0.8450    0.0000 O   0  0  0  0  0  0  0  0  0  0  0  0
    4.5981    2.8450    0.0000 O   0  0  0  0  0  0  0  0  0  0  0  0
    5.4641    1.3450    0.0000 O   0  0  0  0  0  0  0  0  0  0  0  0
    3.7320    1.3450    0.0000 C   0  0  0  0  0  0  0  0  0  0  0  0
    3.2320    2.2110    0.0000 C   0  0  0  0  0  0  0  0  0  0  0  0
    4.2320    0.4790    0.0000 C   0  0  0  0  0  0  0  0  0  0  0  0
    4.5981    1.8450    0.0000 C   0  0  0  0  0  0  0  0  0  0  0  0
    2.8660   -0.1550    0.0000 C   0  0  0  0  0  0  0  0  0  0  0  0
    2.0000   -0.6550    0.0000 C   0  0  0  0  0  0  0  0  0  0  0  0
    3.7320   -0.6550    0.0000 C   0  0  0  0  0  0  0  0  0  0  0  0
    2.0000   -1.6550    0.0000 C   0  0  0  0  0  0  0  0  0  0  0  0
    3.7320   -1.6550    0.0000 C   0  0  0  0  0  0  0  0  0  0  0  0
    2.8660   -2.1550    0.0000 C   0  0  0  0  0  0  0  0  0  0  0  0
    3.6951    0.1690    0.0000 H   0  0  0  0  0  0  0  0  0  0  0  0
    4.5420   -0.0580    0.0000 H   0  0  0  0  0  0  0  0  0  0  0  0
    3.7690    2.5210    0.0000 H   0  0  0  0  0  0  0  0  0  0  0  0
    2.9220    2.7480    0.0000 H   0  0  0  0  0  0  0  0  0  0  0  0
    2.6951    1.9010    0.0000 H   0  0  0  0  0  0  0  0  0  0  0  0
    4.7690    0.7890    0.0000 H   0  0  0  0  0  0  0  0  0  0  0  0
    1.4631   -0.3450    0.0000 H   0  0  0  0  0  0  0  0  0  0  0  0
    4.2690   -0.3450    0.0000 H   0  0  0  0  0  0  0  0  0  0  0  0
    1.4631   -1.9650    0.0000 H   0  0  0  0  0  0  0  0  0  0  0  0
    4.2690   -1.9650    0.0000 H   0  0  0  0  0  0  0  0  0  0  0  0
    5.1350    3.1550    0.0000 H   0  0  0  0  0  0  0  0  0  0  0  0
  1 14  1  0  0  0  0
  2  5  1  0  0  0  0
  2  9  1  0  0  0  0
  3  8  1  0  0  0  0
  3 25  1  0  0  0  0
  4  8  2  0  0  0  0
  5  6  1  0  0  0  0
  5  7  1  0  0  0  0
  5  8  1  0  0  0  0
  6 17  1  0  0  0  0
  6 18  1  0  0  0  0
  6 19  1  0  0  0  0
  7 15  1  0  0  0  0
  7 16  1  0  0  0  0
  7 20  1  0  0  0  0
  9 10  2  0  0  0  0
  9 11  1  0  0  0  0
 10 12  1  0  0  0  0
 10 21  1  0  0  0  0
 11 13  2  0  0  0  0
 11 22  1  0  0  0  0
 12 14  2  0  0  0  0
 12 23  1  0  0  0  0
 13 14  1  0  0  0  0
 13 24  1  0  0  0  0
M  END
> <PUBCHEM_COMPOUND_CID>
2797

> <PUBCHEM_COMPOUND_CANONICALIZED>
1

> <PUBCHEM_CACTVS_COMPLEXITY>
207

> <PUBCHEM_CACTVS_HBOND_ACCEPTOR>
3

> <PUBCHEM_CACTVS_HBOND_DONOR>
1

> <PUBCHEM_CACTVS_ROTATABLE_BOND>
3

> <PUBCHEM_CACTVS_SUBSKEYS>
AAADccBwMAAEAAAAAAAAAAAAAAAAAAAAAAAwAAAAAAAAAAABAAAAGgIACAAADEaAkCAyDoAABgCIACDSCAICCAAgJQAIiAFGCogNJiKFMx6CeCCkwBELqAeAQAAAACAAAAAAAAAAQAAAAAAAAAAAAAAAAA==

> <PUBCHEM_IUPAC_OPENEYE_NAME>
2-(4-chlorophenoxy)-2-methyl-propanoic acid

> <PUBCHEM_IUPAC_CAS_NAME>
2-(4-chlorophenoxy)-2-methylpropanoic acid

> <PUBCHEM_IUPAC_NAME>
2-(4-chlorophenoxy)-2-methylpropanoic acid

> <PUBCHEM_IUPAC_SYSTEMATIC_NAME>
2-(4-chloranylphenoxy)-2-methyl-propanoic acid

> <PUBCHEM_IUPAC_TRADITIONAL_NAME>
2-(4-chlorophenoxy)-2-methyl-propionic acid

> <PUBCHEM_IUPAC_INCHI>
InChI=1S/C10H11ClO3/c1-10(2,9(12)13)14-8-5-3-7(11)4-6-8/h3-6H,1-2H3,(H,12,13)

> <PUBCHEM_IUPAC_INCHIKEY>
TXCGAZHTZHNUAI-UHFFFAOYSA-N

> <PUBCHEM_XLOGP3>
2.6

> <PUBCHEM_EXACT_MASS>
214.039672

> <PUBCHEM_MOLECULAR_FORMULA>
C10H11ClO3

> <PUBCHEM_MOLECULAR_WEIGHT>
214.64554

> <PUBCHEM_OPENEYE_CAN_SMILES>
CC(C)(C(=O)O)OC1=CC=C(C=C1)Cl

> <PUBCHEM_OPENEYE_ISO_SMILES>
CC(C)(C(=O)O)OC1=CC=C(C=C1)Cl

> <PUBCHEM_CACTVS_TPSA>
46.5

> <PUBCHEM_MONOISOTOPIC_WEIGHT>
214.039672

> <PUBCHEM_TOTAL_CHARGE>
0

> <PUBCHEM_HEAVY_ATOM_COUNT>
14

> <PUBCHEM_ATOM_DEF_STEREO_COUNT>
0

> <PUBCHEM_ATOM_UDEF_STEREO_COUNT>
0

> <PUBCHEM_BOND_DEF_STEREO_COUNT>
0

> <PUBCHEM_BOND_UDEF_STEREO_COUNT>
0

> <PUBCHEM_ISOTOPIC_ATOM_COUNT>
0

> <PUBCHEM_COMPONENT_COUNT>
1

> <PUBCHEM_CACTVS_TAUTO_COUNT>
1

> <PUBCHEM_COORDINATE_TYPE>
1
5
255

> <PUBCHEM_BONDANNOTATIONS>
10  12  8
11  13  8
12  14  8
13  14  8
9  10  8
9  11  8

$$$$

