17395927
  -OEChem-06241222533D

 35 38  0     0  0  0  0  0  0999 V2000
   -3.9555   -2.7499   -0.7397 O   0  0  0  0  0  0  0  0  0  0  0  0
   -4.5098   -0.4589   -0.5832 N   0  0  0  0  0  0  0  0  0  0  0  0
    2.1266   -0.5769    0.4246 N   0  0  0  0  0  0  0  0  0  0  0  0
    1.8625   -0.6952    1.7371 N   0  0  0  0  0  0  0  0  0  0  0  0
   -2.4746    0.4095    0.0435 C   0  0  0  0  0  0  0  0  0  0  0  0
   -2.3456   -1.0355   -0.1112 C   0  0  0  0  0  0  0  0  0  0  0  0
   -3.8077    0.7063   -0.2550 C   0  0  0  0  0  0  0  0  0  0  0  0
   -3.6820   -1.5845   -0.5199 C   0  0  0  0  0  0  0  0  0  0  0  0
   -1.2640   -1.7971    0.0632 C   0  0  0  0  0  0  0  0  0  0  0  0
    0.0731   -1.3205    0.4624 C   0  0  0  0  0  0  0  0  0  0  0  0
   -1.5905    1.4115    0.3958 C   0  0  0  0  0  0  0  0  0  0  0  0
   -4.3054    1.9940   -0.2145 C   0  0  0  0  0  0  0  0  0  0  0  0
    1.0874   -0.9388   -0.3815 C   0  0  0  0  0  0  0  0  0  0  0  0
    3.3686   -0.1183   -0.0089 C   0  0  0  0  0  0  0  0  0  0  0  0
   -2.0737    2.7235    0.4430 C   0  0  0  0  0  0  0  0  0  0  0  0
    0.6068   -1.1500    1.7539 C   0  0  0  0  0  0  0  0  0  0  0  0
   -3.4181    3.0119    0.1408 C   0  0  0  0  0  0  0  0  0  0  0  0
    3.6299    0.0019   -1.3738 C   0  0  0  0  0  0  0  0  0  0  0  0
    4.3504    0.2215    0.9217 C   0  0  0  0  0  0  0  0  0  0  0  0
    4.8731    0.4620   -1.8082 C   0  0  0  0  0  0  0  0  0  0  0  0
    5.5936    0.6816    0.4874 C   0  0  0  0  0  0  0  0  0  0  0  0
    5.8549    0.8018   -0.8776 C   0  0  0  0  0  0  0  0  0  0  0  0
   -1.3368   -2.8706   -0.0959 H   0  0  0  0  0  0  0  0  0  0  0  0
   -5.4917   -0.4691   -0.8327 H   0  0  0  0  0  0  0  0  0  0  0  0
   -0.5514    1.2382    0.6345 H   0  0  0  0  0  0  0  0  0  0  0  0
   -5.3407    2.2145   -0.4476 H   0  0  0  0  0  0  0  0  0  0  0  0
    1.1071   -0.9119   -1.4617 H   0  0  0  0  0  0  0  0  0  0  0  0
    0.1357   -1.3360    2.7089 H   0  0  0  0  0  0  0  0  0  0  0  0
   -1.4028    3.5339    0.7165 H   0  0  0  0  0  0  0  0  0  0  0  0
   -3.7674    4.0401    0.1851 H   0  0  0  0  0  0  0  0  0  0  0  0
    2.9100   -0.2453   -2.1461 H   0  0  0  0  0  0  0  0  0  0  0  0
    4.1885    0.1430    1.9935 H   0  0  0  0  0  0  0  0  0  0  0  0
    5.0775    0.5560   -2.8708 H   0  0  0  0  0  0  0  0  0  0  0  0
    6.3585    0.9465    1.2116 H   0  0  0  0  0  0  0  0  0  0  0  0
    6.8228    1.1601   -1.2157 H   0  0  0  0  0  0  0  0  0  0  0  0
  1  8  2  0  0  0  0
  2  7  1  0  0  0  0
  2  8  1  0  0  0  0
  2 24  1  0  0  0  0
  3  4  1  0  0  0  0
  3 13  1  0  0  0  0
  3 14  1  0  0  0  0
  4 16  2  0  0  0  0
  5  6  1  0  0  0  0
  5  7  1  0  0  0  0
  5 11  2  0  0  0  0
  6  8  1  0  0  0  0
  6  9  2  0  0  0  0
  7 12  2  0  0  0  0
  9 10  1  0  0  0  0
  9 23  1  0  0  0  0
 10 13  2  0  0  0  0
 10 16  1  0  0  0  0
 11 15  1  0  0  0  0
 11 25  1  0  0  0  0
 12 17  1  0  0  0  0
 12 26  1  0  0  0  0
 13 27  1  0  0  0  0
 14 18  2  0  0  0  0
 14 19  1  0  0  0  0
 15 17  2  0  0  0  0
 15 29  1  0  0  0  0
 16 28  1  0  0  0  0
 17 30  1  0  0  0  0
 18 20  1  0  0  0  0
 18 31  1  0  0  0  0
 19 21  2  0  0  0  0
 19 32  1  0  0  0  0
 20 22  2  0  0  0  0
 20 33  1  0  0  0  0
 21 22  1  0  0  0  0
 21 34  1  0  0  0  0
 22 35  1  0  0  0  0
M  END
> <PUBCHEM_COMPOUND_CID>
17395927

> <PUBCHEM_CONFORMER_RMSD>
0.6

> <PUBCHEM_CONFORMER_DIVERSEORDER>
1
3
6
4
5
2

> <PUBCHEM_MMFF94_PARTIAL_CHARGES>
35
1 -0.57
10 -0.05
11 -0.15
12 -0.15
13 -0.3
14 -0.02
15 -0.15
16 0.14
17 -0.15
18 -0.15
19 -0.15
2 -0.55
20 -0.15
21 -0.15
22 -0.15
23 0.15
24 0.37
25 0.15
26 0.15
27 0.15
28 0.15
29 0.15
3 0.59
30 0.15
31 0.15
32 0.15
33 0.15
34 0.15
35 0.15
4 -0.71
5 0.03
6 -0.01
7 0.12
8 0.62
9 -0.1

> <PUBCHEM_EFFECTIVE_ROTOR_COUNT>
2.2

> <PUBCHEM_PHARMACOPHORE_FEATURES>
7
1 1 acceptor
1 2 donor
1 4 acceptor
5 2 5 6 7 8 rings
5 3 4 10 13 16 rings
6 14 18 19 20 21 22 rings
6 5 7 11 12 15 17 rings

> <PUBCHEM_HEAVY_ATOM_COUNT>
22

> <PUBCHEM_ATOM_DEF_STEREO_COUNT>
0

> <PUBCHEM_ATOM_UDEF_STEREO_COUNT>
0

> <PUBCHEM_BOND_DEF_STEREO_COUNT>
1

> <PUBCHEM_BOND_UDEF_STEREO_COUNT>
0

> <PUBCHEM_ISOTOPIC_ATOM_COUNT>
0

> <PUBCHEM_COMPONENT_COUNT>
1

> <PUBCHEM_CACTVS_TAUTO_COUNT>
2

> <PUBCHEM_CONFORMER_ID>
010970D700000001

> <PUBCHEM_MMFF94_ENERGY>
74.9383

> <PUBCHEM_FEATURE_SELFOVERLAP>
35.609

> <PUBCHEM_SHAPE_FINGERPRINT>
10411042 1 18049165458818133935
10498660 4 18335987566062616625
10615611 76 17845636127761314916
10670039 82 18342451573964342924
10730089 173 18410291419590826348
10759866 29 18269560605366860907
10871710 139 18272367607403537325
10906281 52 18121499314264441637
10937287 8 17758955209716222145
11049842 53 18046641262834338698
11089746 13 18059573552055811868
11370993 144 13829859049242500060
11640471 11 18059291097135298745
12107183 9 17837221733115266978
12236239 1 17989212546396449747
12390115 104 17969493991597009961
12596602 18 17203889643375465904
12788726 201 18058453097419246539
12916748 109 18411413995224727898
13631057 29 17345188892437821043
13675066 3 12751238103818575370
13994607 96 17845069857819025697
14251757 17 17894632569582377952
14251764 38 18268144254614224844
14251764 75 17758388957054594545
14739800 52 18268168504152040112
15183329 4 18338506552398821166
15575132 122 18200593717488557525
16087824 20 18409172135236496677
16988056 13 15746702888870687429
17818456 19 18122074349590826034
20300324 65 18410291389214773426
20511986 3 17988659517933708781
20645477 70 16370993119279820206
21033650 10 18266716105025712084
22122407 14 16128654163078455277
22393880 68 18115014312430509990
22950370 63 6988321634221244528
2297311 6 18261669277655525903
23366157 5 17983299518997361875
23402539 116 18410863126903592510
235170 7 17530956999645784732
23557571 272 18187080624608080102
23559900 14 17898576637945286470
255183 451 17612601021383280487
3268164 11 18334300850679383589
341906 21 18410860958356454256
3472631 163 18339922722615988373
34797466 226 17822287942748150236
441001 317 18410293609918587328
46194498 28 17604995819300827232
469060 322 18198318733498736091
474 4 17561079224505735514
5281201 14 17676483922186896440
531348 171 18261107508760472238
6299153 45 18128542755248912682
7808743 9 18337955704898511185
9981440 41 18343862233954903251

> <PUBCHEM_SHAPE_MULTIPOLES>
431.94
12.29
2.57
1.28
11.82
0.88
0.09
4.02
-3.54
-4.54
0.04
1.5
-0.2
-1.06

> <PUBCHEM_SHAPE_SELFOVERLAP>
971.624

> <PUBCHEM_SHAPE_VOLUME>
229.7

> <PUBCHEM_COORDINATE_TYPE>
2
5
10

$$$$

