440002
  -OEChem-07051212482D

 38 38  0     1  0  0  0  0  0999 V2000
    4.2690   -0.5000    0.0000 O   0  0  0  0  0  0  0  0  0  0  0  0
    4.2690   -3.5000    0.0000 O   0  0  0  0  0  0  0  0  0  0  0  0
    2.5369   -2.5000    0.0000 O   0  0  0  0  0  0  0  0  0  0  0  0
    6.0010   -2.5000    0.0000 O   0  0  0  0  0  0  0  0  0  0  0  0
    2.5369    0.5000    0.0000 O   0  0  0  0  0  0  0  0  0  0  0  0
    5.1350    1.0000    0.0000 O   0  0  0  0  0  0  0  0  0  0  0  0
    7.7331    3.5000    0.0000 O   0  0  0  0  0  0  0  0  0  0  0  0
    8.5991    2.0000    0.0000 O   0  0  0  0  0  0  0  0  0  0  0  0
    6.0010   -0.5000    0.0000 N   0  0  0  0  0  0  0  0  0  0  0  0
    6.0010    2.5000    0.0000 N   0  0  0  0  0  0  0  0  0  0  0  0
    4.2690   -2.5000    0.0000 C   0  0  1  0  0  0  0  0  0  0  0  0
    3.4030   -2.0000    0.0000 C   0  0  1  0  0  0  0  0  0  0  0  0
    5.1350   -2.0000    0.0000 C   0  0  2  0  0  0  0  0  0  0  0  0
    3.4030   -1.0000    0.0000 C   0  0  1  0  0  0  0  0  0  0  0  0
    5.1350   -1.0000    0.0000 C   0  0  1  0  0  0  0  0  0  0  0  0
    2.5369   -0.5000    0.0000 C   0  0  0  0  0  0  0  0  0  0  0  0
    6.0010    0.5000    0.0000 C   0  0  0  0  0  0  0  0  0  0  0  0
    6.8671    1.0000    0.0000 C   0  0  0  0  0  0  0  0  0  0  0  0
    6.8671    2.0000    0.0000 C   0  0  1  0  0  0  0  0  0  0  0  0
    7.7331    2.5000    0.0000 C   0  0  0  0  0  0  0  0  0  0  0  0
    4.8059   -2.8100    0.0000 H   0  0  0  0  0  0  0  0  0  0  0  0
    3.4030   -2.6200    0.0000 H   0  0  0  0  0  0  0  0  0  0  0  0
    5.1350   -2.6200    0.0000 H   0  0  0  0  0  0  0  0  0  0  0  0
    3.4030   -0.3800    0.0000 H   0  0  0  0  0  0  0  0  0  0  0  0
    5.1350   -0.3800    0.0000 H   0  0  0  0  0  0  0  0  0  0  0  0
    1.9264   -0.3923    0.0000 H   0  0  0  0  0  0  0  0  0  0  0  0
    2.3249   -1.0826    0.0000 H   0  0  0  0  0  0  0  0  0  0  0  0
    6.5380   -0.8100    0.0000 H   0  0  0  0  0  0  0  0  0  0  0  0
    3.7320   -3.8100    0.0000 H   0  0  0  0  0  0  0  0  0  0  0  0
    2.0000   -2.1900    0.0000 H   0  0  0  0  0  0  0  0  0  0  0  0
    6.0010   -3.1200    0.0000 H   0  0  0  0  0  0  0  0  0  0  0  0
    7.0791    0.4174    0.0000 H   0  0  0  0  0  0  0  0  0  0  0  0
    7.4776    1.1077    0.0000 H   0  0  0  0  0  0  0  0  0  0  0  0
    2.0000    0.8100    0.0000 H   0  0  0  0  0  0  0  0  0  0  0  0
    6.3301    1.6900    0.0000 H   0  0  0  0  0  0  0  0  0  0  0  0
    6.0010    3.1200    0.0000 H   0  0  0  0  0  0  0  0  0  0  0  0
    5.4641    2.1900    0.0000 H   0  0  0  0  0  0  0  0  0  0  0  0
    8.2700    3.8100    0.0000 H   0  0  0  0  0  0  0  0  0  0  0  0
  1 14  1  0  0  0  0
  1 15  1  0  0  0  0
 11  2  1  1  0  0  0
  2 29  1  0  0  0  0
 12  3  1  6  0  0  0
  3 30  1  0  0  0  0
 13  4  1  6  0  0  0
  4 31  1  0  0  0  0
  5 16  1  0  0  0  0
  5 34  1  0  0  0  0
  6 17  2  0  0  0  0
  7 20  1  0  0  0  0
  7 38  1  0  0  0  0
  8 20  2  0  0  0  0
 15  9  1  1  0  0  0
  9 17  1  0  0  0  0
  9 28  1  0  0  0  0
 19 10  1  6  0  0  0
 10 36  1  0  0  0  0
 10 37  1  0  0  0  0
 11 12  1  0  0  0  0
 11 13  1  0  0  0  0
 11 21  1  0  0  0  0
 12 14  1  0  0  0  0
 12 22  1  0  0  0  0
 13 15  1  0  0  0  0
 13 23  1  0  0  0  0
 14 16  1  1  0  0  0
 14 24  1  0  0  0  0
 15 25  1  0  0  0  0
 16 26  1  0  0  0  0
 16 27  1  0  0  0  0
 17 18  1  0  0  0  0
 18 19  1  0  0  0  0
 18 32  1  0  0  0  0
 18 33  1  0  0  0  0
 19 20  1  0  0  0  0
 19 35  1  0  0  0  0
M  END
> <PUBCHEM_COMPOUND_CID>
440002

> <PUBCHEM_COMPOUND_CANONICALIZED>
1

> <PUBCHEM_CACTVS_COMPLEXITY>
365

> <PUBCHEM_CACTVS_HBOND_ACCEPTOR>
9

> <PUBCHEM_CACTVS_HBOND_DONOR>
7

> <PUBCHEM_CACTVS_ROTATABLE_BOND>
5

> <PUBCHEM_CACTVS_SUBSKEYS>
AAADceBzPAAAAAAAAAAAAAAAAAAAAAAAAAAkAAAAAAAAAAAAAAAAHgAQCAAACDzhgAYACALABgAIAAGQGAAAAAAAAAAAAIGIAAEDEBoAwAAOQAAHFgCTAAH3cAYAAAAAAAAAAAAAAAAAAAAAAAAAAAAAAA==

> <PUBCHEM_IUPAC_OPENEYE_NAME>
(2S)-2-amino-4-oxo-4-[[(2R,3R,4S,5S,6R)-3,4,5-trihydroxy-6-(hydroxymethyl)tetrahydropyran-2-yl]amino]butanoic acid

> <PUBCHEM_IUPAC_CAS_NAME>
(2S)-2-amino-4-oxo-4-[[(2R,3R,4S,5S,6R)-3,4,5-trihydroxy-6-(hydroxymethyl)-2-oxanyl]amino]butanoic acid

> <PUBCHEM_IUPAC_NAME>
(2S)-2-amino-4-oxo-4-[[(2R,3R,4S,5S,6R)-3,4,5-trihydroxy-6-(hydroxymethyl)oxan-2-yl]amino]butanoic acid

> <PUBCHEM_IUPAC_SYSTEMATIC_NAME>
(2S)-2-azanyl-4-[[(2R,3R,4S,5S,6R)-6-(hydroxymethyl)-3,4,5-tris(oxidanyl)oxan-2-yl]amino]-4-oxidanylidene-butanoic acid

> <PUBCHEM_IUPAC_TRADITIONAL_NAME>
(2S)-2-amino-4-keto-4-[[(2R,3R,4S,5S,6R)-3,4,5-trihydroxy-6-methylol-tetrahydropyran-2-yl]amino]butyric acid

> <PUBCHEM_IUPAC_INCHI>
InChI=1S/C10H18N2O8/c11-3(10(18)19)1-5(14)12-9-8(17)7(16)6(15)4(2-13)20-9/h3-4,6-9,13,15-17H,1-2,11H2,(H,12,14)(H,18,19)/t3-,4+,6+,7-,8+,9+/m0/s1

> <PUBCHEM_IUPAC_INCHIKEY>
RDVZONQWDDILKB-ITZFQDDFSA-N

> <PUBCHEM_XLOGP3_AA>
-5.7

> <PUBCHEM_EXACT_MASS>
294.106316

> <PUBCHEM_MOLECULAR_FORMULA>
C10H18N2O8

> <PUBCHEM_MOLECULAR_WEIGHT>
294.25852

> <PUBCHEM_OPENEYE_CAN_SMILES>
C(C1C(C(C(C(O1)NC(=O)CC(C(=O)O)N)O)O)O)O

> <PUBCHEM_OPENEYE_ISO_SMILES>
C([C@@H]1[C@H]([C@@H]([C@H]([C@@H](O1)NC(=O)C[C@@H](C(=O)O)N)O)O)O)O

> <PUBCHEM_CACTVS_TPSA>
183

> <PUBCHEM_MONOISOTOPIC_WEIGHT>
294.106316

> <PUBCHEM_TOTAL_CHARGE>
0

> <PUBCHEM_HEAVY_ATOM_COUNT>
20

> <PUBCHEM_ATOM_DEF_STEREO_COUNT>
6

> <PUBCHEM_ATOM_UDEF_STEREO_COUNT>
0

> <PUBCHEM_BOND_DEF_STEREO_COUNT>
0

> <PUBCHEM_BOND_UDEF_STEREO_COUNT>
0

> <PUBCHEM_ISOTOPIC_ATOM_COUNT>
0

> <PUBCHEM_COMPONENT_COUNT>
1

> <PUBCHEM_CACTVS_TAUTO_COUNT>
2

> <PUBCHEM_COORDINATE_TYPE>
1
5
255

> <PUBCHEM_BONDANNOTATIONS>
19  10  6
14  16  5
11  2  5
12  3  6
13  4  6
15  9  5

$$$$

