7052
  -OEChem-06261201423D

 23 23  0     0  0  0  0  0  0999 V2000
    1.3442   -1.8047    0.3284 O   0  0  0  0  0  0  0  0  0  0  0  0
   -3.2387   -0.5356    0.0360 O   0  0  0  0  0  0  0  0  0  0  0  0
    2.4148    2.0301   -0.6205 O   0  0  0  0  0  0  0  0  0  0  0  0
    3.0796    0.3051    0.7019 O   0  0  0  0  0  0  0  0  0  0  0  0
    0.4047   -0.8260    0.1988 C   0  0  0  0  0  0  0  0  0  0  0  0
    0.7769    0.5137    0.0867 C   0  0  0  0  0  0  0  0  0  0  0  0
   -1.9220   -0.1913    0.0538 C   0  0  0  0  0  0  0  0  0  0  0  0
   -0.9449   -1.1785    0.1824 C   0  0  0  0  0  0  0  0  0  0  0  0
   -0.2002    1.5008   -0.0417 C   0  0  0  0  0  0  0  0  0  0  0  0
   -1.5496    1.1483   -0.0582 C   0  0  0  0  0  0  0  0  0  0  0  0
    2.1798    0.9042    0.1062 C   0  0  0  0  0  0  0  0  0  0  0  0
    1.8402   -2.3895   -0.8739 C   0  0  0  0  0  0  0  0  0  0  0  0
   -4.1849    0.5235   -0.0999 C   0  0  0  0  0  0  0  0  0  0  0  0
   -1.2367   -2.2221    0.2707 H   0  0  0  0  0  0  0  0  0  0  0  0
    0.0585    2.5538   -0.1174 H   0  0  0  0  0  0  0  0  0  0  0  0
   -2.2564    1.9650   -0.1578 H   0  0  0  0  0  0  0  0  0  0  0  0
    2.2832   -1.6292   -1.5248 H   0  0  0  0  0  0  0  0  0  0  0  0
    1.0369   -2.9127   -1.4023 H   0  0  0  0  0  0  0  0  0  0  0  0
    2.6138   -3.1150   -0.6079 H   0  0  0  0  0  0  0  0  0  0  0  0
   -5.1812    0.0693   -0.0962 H   0  0  0  0  0  0  0  0  0  0  0  0
   -4.0737    1.0421   -1.0582 H   0  0  0  0  0  0  0  0  0  0  0  0
   -4.1441    1.2113    0.7516 H   0  0  0  0  0  0  0  0  0  0  0  0
    3.3618    2.2854   -0.6023 H   0  0  0  0  0  0  0  0  0  0  0  0
  1  5  1  0  0  0  0
  1 12  1  0  0  0  0
  2  7  1  0  0  0  0
  2 13  1  0  0  0  0
  3 11  1  0  0  0  0
  3 23  1  0  0  0  0
  4 11  2  0  0  0  0
  5  6  2  0  0  0  0
  5  8  1  0  0  0  0
  6  9  1  0  0  0  0
  6 11  1  0  0  0  0
  7  8  2  0  0  0  0
  7 10  1  0  0  0  0
  8 14  1  0  0  0  0
  9 10  2  0  0  0  0
  9 15  1  0  0  0  0
 10 16  1  0  0  0  0
 12 17  1  0  0  0  0
 12 18  1  0  0  0  0
 12 19  1  0  0  0  0
 13 20  1  0  0  0  0
 13 21  1  0  0  0  0
 13 22  1  0  0  0  0
M  END
> <PUBCHEM_COMPOUND_CID>
7052

> <PUBCHEM_CONFORMER_RMSD>
0.6

> <PUBCHEM_CONFORMER_DIVERSEORDER>
2
3
4
1

> <PUBCHEM_MMFF94_PARTIAL_CHARGES>
17
1 -0.36
10 -0.15
11 0.63
12 0.28
13 0.28
14 0.15
15 0.15
16 0.15
2 -0.36
23 0.5
3 -0.65
4 -0.57
5 0.08
6 0.09
7 0.08
8 -0.15
9 -0.15

> <PUBCHEM_EFFECTIVE_ROTOR_COUNT>
3

> <PUBCHEM_PHARMACOPHORE_FEATURES>
6
1 1 acceptor
1 2 acceptor
1 3 acceptor
1 4 acceptor
3 3 4 11 anion
6 5 6 7 8 9 10 rings

> <PUBCHEM_HEAVY_ATOM_COUNT>
13

> <PUBCHEM_ATOM_DEF_STEREO_COUNT>
0

> <PUBCHEM_ATOM_UDEF_STEREO_COUNT>
0

> <PUBCHEM_BOND_DEF_STEREO_COUNT>
0

> <PUBCHEM_BOND_UDEF_STEREO_COUNT>
0

> <PUBCHEM_ISOTOPIC_ATOM_COUNT>
0

> <PUBCHEM_COMPONENT_COUNT>
1

> <PUBCHEM_CACTVS_TAUTO_COUNT>
1

> <PUBCHEM_CONFORMER_ID>
00001B8C00000002

> <PUBCHEM_MMFF94_ENERGY>
56.2851

> <PUBCHEM_FEATURE_SELFOVERLAP>
30.509

> <PUBCHEM_SHAPE_FINGERPRINT>
1 1 18335986385183733782
10219947 1 18201440233761417221
10465860 228 18336254743330556409
10980938 120 18408323280955366027
11132069 177 18338526239484219129
11471102 20 18411423929436415917
12138202 78 18338794619100265495
12346645 6 18334015016490390655
12423570 1 6626596550393944403
12932764 1 17312831463632970145
13380535 21 18337942412138052275
13380535 220 17978500159362864532
13380535 76 18411985723859278155
14251717 144 18409455778006003879
14325111 11 18269557152360854001
14576447 43 17970366832088606327
14617773 55 17750507558868667985
15219456 202 18340493382161896933
15536298 74 18260830457219598771
161256 15 18339077223695605470
16945 1 18409721846507658313
17990270 104 18266178511905247314
18186145 218 18129381665240342095
193761 8 18122626329580639729
20201158 50 18412829092322160451
20588541 1 18412262805173784441
20645476 183 17557692578415738092
20645477 70 18337115665673177567
20871998 22 18047472506683431214
21501502 16 18191581058918452009
23235685 24 18341057315362232977
2334 1 17762056536695901313
23402655 69 18337408114581395637
23463225 33 18343309145356649528
23552423 10 18341046431914994459
241688 4 17907856558884871016
2748010 2 18123758809324411549
449060 62 18408037407826753209
528862 383 18411707607441419843
528886 8 18338522928064362417
53812653 166 18261681384936114489
581208 293 18408326574968422277
7364860 26 18260548973879858814
81539 233 18342459218478420494

> <PUBCHEM_SHAPE_MULTIPOLES>
244.06
5.07
2.12
0.72
4.03
0.53
-0.04
-0.58
-0.11
-1.68
-0.43
-0.25
0.08
0.18

> <PUBCHEM_SHAPE_SELFOVERLAP>
509.345

> <PUBCHEM_SHAPE_VOLUME>
139

> <PUBCHEM_COORDINATE_TYPE>
2
5
10

$$$$

