6162
  -OEChem-06261201092D

 24 24  0     1  0  0  0  0  0999 V2000
    2.0000   -1.1900    0.0000 O   0  0  0  0  0  0  0  0  0  0  0  0
    5.4641   -1.1900    0.0000 O   0  0  0  0  0  0  0  0  0  0  0  0
    3.7320   -1.1900    0.0000 N   0  0  0  0  0  0  0  0  0  0  0  0
    2.8660    0.3100    0.0000 C   0  0  3  0  0  0  0  0  0  0  0  0
    3.7320    0.8100    0.0000 C   0  0  0  0  0  0  0  0  0  0  0  0
    4.5981    0.3100    0.0000 C   0  0  3  0  0  0  0  0  0  0  0  0
    2.0000    0.8100    0.0000 C   0  0  0  0  0  0  0  0  0  0  0  0
    2.8660   -0.6900    0.0000 C   0  0  0  0  0  0  0  0  0  0  0  0
    4.5981   -0.6900    0.0000 C   0  0  0  0  0  0  0  0  0  0  0  0
    5.4641    0.8100    0.0000 C   0  0  0  0  0  0  0  0  0  0  0  0
    2.0000    1.8100    0.0000 C   0  0  0  0  0  0  0  0  0  0  0  0
    2.8660    1.1600    0.0000 H   0  0  0  0  0  0  0  0  0  0  0  0
    4.1306    1.2850    0.0000 H   0  0  0  0  0  0  0  0  0  0  0  0
    3.3335    1.2850    0.0000 H   0  0  0  0  0  0  0  0  0  0  0  0
    4.5981    1.1600    0.0000 H   0  0  0  0  0  0  0  0  0  0  0  0
    1.3894    0.9177    0.0000 H   0  0  0  0  0  0  0  0  0  0  0  0
    1.7880    0.2274    0.0000 H   0  0  0  0  0  0  0  0  0  0  0  0
    5.7741    0.2731    0.0000 H   0  0  0  0  0  0  0  0  0  0  0  0
    6.0010    1.1200    0.0000 H   0  0  0  0  0  0  0  0  0  0  0  0
    5.1541    1.3469    0.0000 H   0  0  0  0  0  0  0  0  0  0  0  0
    3.7320   -1.8100    0.0000 H   0  0  0  0  0  0  0  0  0  0  0  0
    2.6200    1.8100    0.0000 H   0  0  0  0  0  0  0  0  0  0  0  0
    2.0000    2.4300    0.0000 H   0  0  0  0  0  0  0  0  0  0  0  0
    1.3800    1.8100    0.0000 H   0  0  0  0  0  0  0  0  0  0  0  0
  1  8  2  0  0  0  0
  2  9  2  0  0  0  0
  3  8  1  0  0  0  0
  3  9  1  0  0  0  0
  3 21  1  0  0  0  0
  4  5  1  0  0  0  0
  4  7  1  0  0  0  0
  4  8  1  0  0  0  0
  4 12  1  0  0  0  0
  5  6  1  0  0  0  0
  5 13  1  0  0  0  0
  5 14  1  0  0  0  0
  6  9  1  0  0  0  0
  6 10  1  0  0  0  0
  6 15  1  0  0  0  0
  7 11  1  0  0  0  0
  7 16  1  0  0  0  0
  7 17  1  0  0  0  0
 10 18  1  0  0  0  0
 10 19  1  0  0  0  0
 10 20  1  0  0  0  0
 11 22  1  0  0  0  0
 11 23  1  0  0  0  0
 11 24  1  0  0  0  0
M  END
> <PUBCHEM_COMPOUND_CID>
6162

> <PUBCHEM_COMPOUND_CANONICALIZED>
1

> <PUBCHEM_CACTVS_COMPLEXITY>
189

> <PUBCHEM_CACTVS_HBOND_ACCEPTOR>
2

> <PUBCHEM_CACTVS_HBOND_DONOR>
1

> <PUBCHEM_CACTVS_ROTATABLE_BOND>
1

> <PUBCHEM_CACTVS_SUBSKEYS>
AAADccByMAAAAAAAAAAAAAAAAAAAAAAAAAAsAAAAAAAAAAAAAAAAHgAQAAAADQCBgAACAALAAAAIAAEQEAAAAAAAAAAAAAEAAAAAABIAgAAEAAAAFCCAAAEYCwAOAAAAAAAAAAAAAAAAAAAAAAAAAAAAAA==

> <PUBCHEM_IUPAC_OPENEYE_NAME>
3-ethyl-5-methyl-piperidine-2,6-dione

> <PUBCHEM_IUPAC_CAS_NAME>
3-ethyl-5-methylpiperidine-2,6-dione

> <PUBCHEM_IUPAC_NAME>
3-ethyl-5-methylpiperidine-2,6-dione

> <PUBCHEM_IUPAC_SYSTEMATIC_NAME>
3-ethyl-5-methyl-piperidine-2,6-dione

> <PUBCHEM_IUPAC_TRADITIONAL_NAME>
3-ethyl-5-methyl-piperidine-2,6-quinone

> <PUBCHEM_IUPAC_INCHI>
InChI=1S/C8H13NO2/c1-3-6-4-5(2)7(10)9-8(6)11/h5-6H,3-4H2,1-2H3,(H,9,10,11)

> <PUBCHEM_IUPAC_INCHIKEY>
LNLULQFEZAYZAJ-UHFFFAOYSA-N

> <PUBCHEM_XLOGP3_AA>
0.8

> <PUBCHEM_EXACT_MASS>
155.094629

> <PUBCHEM_MOLECULAR_FORMULA>
C8H13NO2

> <PUBCHEM_MOLECULAR_WEIGHT>
155.19432

> <PUBCHEM_OPENEYE_CAN_SMILES>
CCC1CC(C(=O)NC1=O)C

> <PUBCHEM_OPENEYE_ISO_SMILES>
CCC1CC(C(=O)NC1=O)C

> <PUBCHEM_CACTVS_TPSA>
46.2

> <PUBCHEM_MONOISOTOPIC_WEIGHT>
155.094629

> <PUBCHEM_TOTAL_CHARGE>
0

> <PUBCHEM_HEAVY_ATOM_COUNT>
11

> <PUBCHEM_ATOM_DEF_STEREO_COUNT>
0

> <PUBCHEM_ATOM_UDEF_STEREO_COUNT>
2

> <PUBCHEM_BOND_DEF_STEREO_COUNT>
0

> <PUBCHEM_BOND_UDEF_STEREO_COUNT>
0

> <PUBCHEM_ISOTOPIC_ATOM_COUNT>
0

> <PUBCHEM_COMPONENT_COUNT>
1

> <PUBCHEM_CACTVS_TAUTO_COUNT>
8

> <PUBCHEM_COORDINATE_TYPE>
1
5
255

> <PUBCHEM_BONDANNOTATIONS>
4  12  3
6  15  3

$$$$

