23724477
  -OEChem-07051212492D

 74 76  0     1  0  0  0  0  0999 V2000
    3.0000   -1.4038    0.0000 S   0  0  0  0  0  0  0  0  0  0  0  0
    5.5981   -2.9038    0.0000 S   0  0  0  0  0  0  0  0  0  0  0  0
    7.3301    1.0962    0.0000 P   0  0  3  0  0  0  0  0  0  0  0  0
    9.0622    1.0962    0.0000 P   0  0  3  0  0  0  0  0  0  0  0  0
    5.5981    0.0962    0.0000 O   0  0  0  0  0  0  0  0  0  0  0  0
   12.5738    1.1895    0.0000 O   0  0  0  0  0  0  0  0  0  0  0  0
    3.0000   -0.4038    0.0000 O   0  0  0  0  0  0  0  0  0  0  0  0
    6.4641    1.5962    0.0000 O   0  0  0  0  0  0  0  0  0  0  0  0
    3.0000    1.5962    0.0000 O   0  0  0  0  0  0  0  0  0  0  0  0
   11.0216    3.2599    0.0000 O   0  0  0  0  0  0  0  0  0  0  0  0
   13.1497    3.7122    0.0000 O   0  0  0  0  0  0  0  0  0  0  0  0
    5.5981   -1.9038    0.0000 O   0  0  0  0  0  0  0  0  0  0  0  0
    9.9282    1.5962    0.0000 O   0  0  0  0  0  0  0  0  0  0  0  0
    8.1962    0.5962    0.0000 O   0  0  0  0  0  0  0  0  0  0  0  0
    7.8301    1.9622    0.0000 O   0  0  0  0  0  0  0  0  0  0  0  0
    3.0000   -2.4038    0.0000 O   0  0  0  0  0  0  0  0  0  0  0  0
    6.8301    0.2302    0.0000 O   0  0  0  0  0  0  0  0  0  0  0  0
    6.4641    2.5962    0.0000 O   0  0  0  0  0  0  0  0  0  0  0  0
    2.0000   -1.4038    0.0000 O   0  0  0  0  0  0  0  0  0  0  0  0
    4.0000   -1.4038    0.0000 O   0  0  0  0  0  0  0  0  0  0  0  0
    9.5622    0.2302    0.0000 O   0  0  0  0  0  0  0  0  0  0  0  0
   14.0564    0.1055    0.0000 O   0  0  0  0  0  0  0  0  0  0  0  0
    8.5622    1.9622    0.0000 O   0  0  0  0  0  0  0  0  0  0  0  0
    5.5981   -3.9038    0.0000 O   0  0  0  0  0  0  0  0  0  0  0  0
    6.5981   -2.9038    0.0000 O   0  0  0  0  0  0  0  0  0  0  0  0
    4.5981   -2.9038    0.0000 O   0  0  0  0  0  0  0  0  0  0  0  0
   17.2210    1.5145    0.0000 O   0  0  0  0  0  0  0  0  0  0  0  0
    4.7320    2.5962    0.0000 N   0  0  0  0  0  0  0  0  0  0  0  0
   14.2375    1.8281    0.0000 N   0  0  0  0  0  0  0  0  0  0  0  0
   15.6387    0.8100    0.0000 N   0  0  0  0  0  0  0  0  0  0  0  0
    3.8660    1.0962    0.0000 C   0  0  2  0  0  0  0  0  0  0  0  0
    4.7320    1.5962    0.0000 C   0  0  2  0  0  0  0  0  0  0  0  0
    3.8660    0.0962    0.0000 C   0  0  2  0  0  0  0  0  0  0  0  0
    4.7320   -0.4038    0.0000 C   0  0  1  0  0  0  0  0  0  0  0  0
    5.5981    1.0962    0.0000 C   0  0  2  0  0  0  0  0  0  0  0  0
   11.7648    2.5907    0.0000 C   0  0  1  0  0  0  0  0  0  0  0  0
   12.7429    2.7986    0.0000 C   0  0  2  0  0  0  0  0  0  0  0  0
   11.6603    1.5962    0.0000 C   0  0  1  0  0  0  0  0  0  0  0  0
   13.2429    1.9326    0.0000 C   0  0  1  0  0  0  0  0  0  0  0  0
    4.7320   -1.4038    0.0000 C   0  0  0  0  0  0  0  0  0  0  0  0
   10.7942    1.0962    0.0000 C   0  0  0  0  0  0  0  0  0  0  0  0
    5.5981    3.0962    0.0000 C   0  0  0  0  0  0  0  0  0  0  0  0
   14.6442    0.9145    0.0000 C   0  0  0  0  0  0  0  0  0  0  0  0
   14.8252    2.6371    0.0000 C   0  0  0  0  0  0  0  0  0  0  0  0
    5.5981    4.0962    0.0000 C   0  0  0  0  0  0  0  0  0  0  0  0
   15.8198    2.5326    0.0000 C   0  0  0  0  0  0  0  0  0  0  0  0
   16.2265    1.6190    0.0000 C   0  0  0  0  0  0  0  0  0  0  0  0
    3.8660    1.7162    0.0000 H   0  0  0  0  0  0  0  0  0  0  0  0
    5.2690    1.9062    0.0000 H   0  0  0  0  0  0  0  0  0  0  0  0
    3.8660   -0.5238    0.0000 H   0  0  0  0  0  0  0  0  0  0  0  0
    5.2690   -0.7138    0.0000 H   0  0  0  0  0  0  0  0  0  0  0  0
    5.5981    1.7162    0.0000 H   0  0  0  0  0  0  0  0  0  0  0  0
   11.9253    3.1896    0.0000 H   0  0  0  0  0  0  0  0  0  0  0  0
   13.3621    2.8311    0.0000 H   0  0  0  0  0  0  0  0  0  0  0  0
   11.6927    0.9771    0.0000 H   0  0  0  0  0  0  0  0  0  0  0  0
   13.4651    1.3538    0.0000 H   0  0  0  0  0  0  0  0  0  0  0  0
    4.1215   -1.2961    0.0000 H   0  0  0  0  0  0  0  0  0  0  0  0
    4.5200   -1.9864    0.0000 H   0  0  0  0  0  0  0  0  0  0  0  0
    4.1951    2.9062    0.0000 H   0  0  0  0  0  0  0  0  0  0  0  0
   10.3957    0.6213    0.0000 H   0  0  0  0  0  0  0  0  0  0  0  0
   11.1928    0.6213    0.0000 H   0  0  0  0  0  0  0  0  0  0  0  0
    2.4631    1.2862    0.0000 H   0  0  0  0  0  0  0  0  0  0  0  0
   11.1505    3.8663    0.0000 H   0  0  0  0  0  0  0  0  0  0  0  0
   12.7852    4.2138    0.0000 H   0  0  0  0  0  0  0  0  0  0  0  0
   14.5731    3.2035    0.0000 H   0  0  0  0  0  0  0  0  0  0  0  0
    6.2181    4.0962    0.0000 H   0  0  0  0  0  0  0  0  0  0  0  0
    5.5981    4.7162    0.0000 H   0  0  0  0  0  0  0  0  0  0  0  0
    4.9781    4.0962    0.0000 H   0  0  0  0  0  0  0  0  0  0  0  0
   15.8909    0.2436    0.0000 H   0  0  0  0  0  0  0  0  0  0  0  0
   16.1842    3.0342    0.0000 H   0  0  0  0  0  0  0  0  0  0  0  0
    7.5201    2.4992    0.0000 H   0  0  0  0  0  0  0  0  0  0  0  0
    2.4631   -2.7138    0.0000 H   0  0  0  0  0  0  0  0  0  0  0  0
    9.2522   -0.3067    0.0000 H   0  0  0  0  0  0  0  0  0  0  0  0
    6.1350   -4.2138    0.0000 H   0  0  0  0  0  0  0  0  0  0  0  0
  1  7  1  0  0  0  0
  1 16  1  0  0  0  0
  1 19  2  0  0  0  0
  1 20  2  0  0  0  0
  2 12  1  0  0  0  0
  2 24  1  0  0  0  0
  2 25  2  0  0  0  0
  2 26  2  0  0  0  0
  3  8  1  0  0  0  0
  3 14  1  0  0  0  0
  3 15  1  0  0  0  0
  3 17  2  0  0  0  0
  4 13  1  0  0  0  0
  4 14  1  0  0  0  0
  4 21  1  0  0  0  0
  4 23  2  0  0  0  0
  5 34  1  0  0  0  0
  5 35  1  0  0  0  0
  6 38  1  0  0  0  0
  6 39  1  0  0  0  0
 33  7  1  6  0  0  0
 35  8  1  1  0  0  0
 31  9  1  6  0  0  0
  9 62  1  0  0  0  0
 36 10  1  1  0  0  0
 10 63  1  0  0  0  0
 37 11  1  1  0  0  0
 11 64  1  0  0  0  0
 12 40  1  0  0  0  0
 13 41  1  0  0  0  0
 15 71  1  0  0  0  0
 16 72  1  0  0  0  0
 18 42  2  0  0  0  0
 21 73  1  0  0  0  0
 22 43  2  0  0  0  0
 24 74  1  0  0  0  0
 27 47  2  0  0  0  0
 32 28  1  1  0  0  0
 28 42  1  0  0  0  0
 28 59  1  0  0  0  0
 39 29  1  6  0  0  0
 29 43  1  0  0  0  0
 29 44  1  0  0  0  0
 30 43  1  0  0  0  0
 30 47  1  0  0  0  0
 30 69  1  0  0  0  0
 31 32  1  0  0  0  0
 31 33  1  0  0  0  0
 31 48  1  0  0  0  0
 32 35  1  0  0  0  0
 32 49  1  0  0  0  0
 33 34  1  0  0  0  0
 33 50  1  0  0  0  0
 34 40  1  6  0  0  0
 34 51  1  0  0  0  0
 35 52  1  0  0  0  0
 36 37  1  0  0  0  0
 36 38  1  0  0  0  0
 36 53  1  0  0  0  0
 37 39  1  0  0  0  0
 37 54  1  0  0  0  0
 38 41  1  6  0  0  0
 38 55  1  0  0  0  0
 39 56  1  0  0  0  0
 40 57  1  0  0  0  0
 40 58  1  0  0  0  0
 41 60  1  0  0  0  0
 41 61  1  0  0  0  0
 42 45  1  0  0  0  0
 44 46  2  0  0  0  0
 44 65  1  0  0  0  0
 45 66  1  0  0  0  0
 45 67  1  0  0  0  0
 45 68  1  0  0  0  0
 46 47  1  0  0  0  0
 46 70  1  0  0  0  0
M  END
> <PUBCHEM_COMPOUND_CID>
23724477

> <PUBCHEM_COMPOUND_CANONICALIZED>
1

> <PUBCHEM_CACTVS_COMPLEXITY>
1550

> <PUBCHEM_CACTVS_HBOND_ACCEPTOR>
23

> <PUBCHEM_CACTVS_HBOND_DONOR>
9

> <PUBCHEM_CACTVS_ROTATABLE_BOND>
14

> <PUBCHEM_CACTVS_SUBSKEYS>
AAADceB7PgNgAAAAAAAAAAAAAAAAASAAAAAkQAAAAAAAAAAAAAAAHgAQCCAACDzxgAcDCAPAB5CIQCFWULCAAAAAAgAIAIAIAECTEAIAgAAPQAAPFyKXAMHwcAcAAAAAAAAAAAAAAAAAAAAAAAAAAAAAAA==

> <PUBCHEM_IUPAC_OPENEYE_NAME>
[(2R,3R,4R,5R,6R)-3-acetamido-4-hydroxy-5-sulfooxy-6-(sulfooxymethyl)tetrahydropyran-2-yl] [[(2R,3S,4R,5R)-5-(2,4-dioxopyrimidin-1-yl)-3,4-dihydroxy-tetrahydrofuran-2-yl]methoxy-hydroxy-phosphoryl] hydrogen phosphate

> <PUBCHEM_IUPAC_CAS_NAME>
[(2R,3R,4R,5R,6R)-3-acetamido-4-hydroxy-5-sulfooxy-6-(sulfooxymethyl)-2-oxanyl] [[(2R,3S,4R,5R)-5-(2,4-dioxo-1-pyrimidinyl)-3,4-dihydroxy-2-oxolanyl]methoxy-hydroxyphosphoryl] hydrogen phosphate

> <PUBCHEM_IUPAC_NAME>
[(2R,3R,4R,5R,6R)-3-acetamido-4-hydroxy-5-sulfooxy-6-(sulfooxymethyl)oxan-2-yl] [[(2R,3S,4R,5R)-5-(2,4-dioxopyrimidin-1-yl)-3,4-dihydroxyoxolan-2-yl]methoxy-hydroxyphosphoryl] hydrogen phosphate

> <PUBCHEM_IUPAC_SYSTEMATIC_NAME>
[(2R,3R,4R,5R,6R)-3-acetamido-4-oxidanyl-5-sulfooxy-6-(sulfooxymethyl)oxan-2-yl] [[(2R,3S,4R,5R)-5-[2,4-bis(oxidanylidene)pyrimidin-1-yl]-3,4-bis(oxidanyl)oxolan-2-yl]methoxy-oxidanyl-phosphoryl] hydrogen phosphate

> <PUBCHEM_IUPAC_TRADITIONAL_NAME>
[(2R,3R,4R,5R,6R)-3-acetamido-4-hydroxy-5-sulfoxy-6-(sulfoxymethyl)tetrahydropyran-2-yl] [[(2R,3S,4R,5R)-5-(2,4-diketopyrimidin-1-yl)-3,4-dihydroxy-tetrahydrofuran-2-yl]methoxy-hydroxy-phosphoryl] hydrogen phosphate

> <PUBCHEM_IUPAC_INCHI>
InChI=1S/C17H27N3O23P2S2/c1-6(21)18-10-12(24)14(42-47(34,35)36)8(5-38-46(31,32)33)40-16(10)41-45(29,30)43-44(27,28)37-4-7-11(23)13(25)15(39-7)20-3-2-9(22)19-17(20)26/h2-3,7-8,10-16,23-25H,4-5H2,1H3,(H,18,21)(H,27,28)(H,29,30)(H,19,22,26)(H,31,32,33)(H,34,35,36)/t7-,8-,10-,11-,12-,13-,14+,15-,16-/m1/s1

> <PUBCHEM_IUPAC_INCHIKEY>
LPADIYKTUSHKJJ-ACMLXWNCSA-N

> <PUBCHEM_XLOGP3_AA>
-8

> <PUBCHEM_EXACT_MASS>
766.995199

> <PUBCHEM_MOLECULAR_FORMULA>
C17H27N3O23P2S2

> <PUBCHEM_MOLECULAR_WEIGHT>
767.480104

> <PUBCHEM_OPENEYE_CAN_SMILES>
CC(=O)NC1C(C(C(OC1OP(=O)(O)OP(=O)(O)OCC2C(C(C(O2)N3C=CC(=O)NC3=O)O)O)COS(=O)(=O)O)OS(=O)(=O)O)O

> <PUBCHEM_OPENEYE_ISO_SMILES>
CC(=O)N[C@@H]1[C@H]([C@H]([C@H](O[C@@H]1OP(=O)(O)OP(=O)(O)OC[C@@H]2[C@H]([C@H]([C@@H](O2)N3C=CC(=O)NC3=O)O)O)COS(=O)(=O)O)OS(=O)(=O)O)O

> <PUBCHEM_CACTVS_TPSA>
404

> <PUBCHEM_MONOISOTOPIC_WEIGHT>
766.995199

> <PUBCHEM_TOTAL_CHARGE>
0

> <PUBCHEM_HEAVY_ATOM_COUNT>
47

> <PUBCHEM_ATOM_DEF_STEREO_COUNT>
9

> <PUBCHEM_ATOM_UDEF_STEREO_COUNT>
0

> <PUBCHEM_BOND_DEF_STEREO_COUNT>
0

> <PUBCHEM_BOND_UDEF_STEREO_COUNT>
0

> <PUBCHEM_ISOTOPIC_ATOM_COUNT>
0

> <PUBCHEM_COMPONENT_COUNT>
1

> <PUBCHEM_CACTVS_TAUTO_COUNT>
6

> <PUBCHEM_COORDINATE_TYPE>
1
5
255

> <PUBCHEM_BONDANNOTATIONS>
36  10  5
37  11  5
32  28  5
39  29  6
29  43  8
29  44  8
30  43  8
30  47  8
34  40  6
38  41  6
44  46  8
46  47  8
33  7  6
35  8  5
31  9  6

$$$$

