50909830
  -OEChem-07051213152D

 73 77  0     1  0  0  0  0  0999 V2000
    6.0010   -0.8450    0.0000 O   0  0  0  0  0  0  0  0  0  0  0  0
    8.5991   -1.3450    0.0000 O   0  0  0  0  0  0  0  0  0  0  0  0
    5.1350   -2.3450    0.0000 O   0  0  0  0  0  0  0  0  0  0  0  0
    7.7331    0.1550    0.0000 O   0  0  0  0  0  0  0  0  0  0  0  0
    6.0010   -2.8450    0.0000 O   0  0  0  0  0  0  0  0  0  0  0  0
    7.7331   -3.8450    0.0000 O   0  0  0  0  0  0  0  0  0  0  0  0
    4.2690    0.1550    0.0000 O   0  0  0  0  0  0  0  0  0  0  0  0
    2.5369   -0.8450    0.0000 O   0  0  0  0  0  0  0  0  0  0  0  0
    2.5369   -2.8450    0.0000 O   0  0  0  0  0  0  0  0  0  0  0  0
    9.4651   -3.8450    0.0000 O   0  0  0  0  0  0  0  0  0  0  0  0
    3.4030   -4.3450    0.0000 O   0  0  0  0  0  0  0  0  0  0  0  0
    5.1350   -4.3450    0.0000 O   0  0  0  0  0  0  0  0  0  0  0  0
    9.4651    2.1550    0.0000 O   0  3  0  0  0  0  0  0  0  0  0  0
   11.2135   -0.8796    0.0000 O   0  0  0  0  0  0  0  0  0  0  0  0
   12.9953    2.1792    0.0000 O   0  0  0  0  0  0  0  0  0  0  0  0
    6.8671    4.6550    0.0000 O   0  0  0  0  0  0  0  0  0  0  0  0
    5.1350    3.6550    0.0000 O   0  0  0  0  0  0  0  0  0  0  0  0
    6.8671   -1.3450    0.0000 C   0  0  2  0  0  0  0  0  0  0  0  0
    6.8671   -2.3450    0.0000 C   0  0  2  0  0  0  0  0  0  0  0  0
    7.7331   -2.8450    0.0000 C   0  0  1  0  0  0  0  0  0  0  0  0
    7.7331   -0.8450    0.0000 C   0  0  1  0  0  0  0  0  0  0  0  0
    8.5991   -2.3450    0.0000 C   0  0  1  0  0  0  0  0  0  0  0  0
    5.1350   -1.3450    0.0000 C   0  0  2  0  0  0  0  0  0  0  0  0
    4.2690   -0.8450    0.0000 C   0  0  1  0  0  0  0  0  0  0  0  0
    3.4030   -1.3450    0.0000 C   0  0  2  0  0  0  0  0  0  0  0  0
    3.4030   -2.3450    0.0000 C   0  0  1  0  0  0  0  0  0  0  0  0
    4.2690   -2.8450    0.0000 C   0  0  1  0  0  0  0  0  0  0  0  0
    9.4651   -2.8450    0.0000 C   0  0  0  0  0  0  0  0  0  0  0  0
    4.2690   -3.8450    0.0000 C   0  0  0  0  0  0  0  0  0  0  0  0
    8.5991    0.6550    0.0000 C   0  0  0  0  0  0  0  0  0  0  0  0
    8.5991    1.6550    0.0000 C   0  0  0  0  0  0  0  0  0  0  0  0
    9.4651    0.1550    0.0000 C   0  0  0  0  0  0  0  0  0  0  0  0
   10.3312    0.6550    0.0000 C   0  0  0  0  0  0  0  0  0  0  0  0
    7.7331    2.1550    0.0000 C   0  0  0  0  0  0  0  0  0  0  0  0
   10.3312    1.6550    0.0000 C   0  0  0  0  0  0  0  0  0  0  0  0
   11.2251    0.1203    0.0000 C   0  0  0  0  0  0  0  0  0  0  0  0
   11.2251    2.1897    0.0000 C   0  0  0  0  0  0  0  0  0  0  0  0
    7.7331    3.1550    0.0000 C   0  0  0  0  0  0  0  0  0  0  0  0
    6.8671    1.6550    0.0000 C   0  0  0  0  0  0  0  0  0  0  0  0
   12.1312    0.6342    0.0000 C   0  0  0  0  0  0  0  0  0  0  0  0
   12.1312    1.6758    0.0000 C   0  0  0  0  0  0  0  0  0  0  0  0
    6.8671    3.6550    0.0000 C   0  0  0  0  0  0  0  0  0  0  0  0
    6.0010    2.1550    0.0000 C   0  0  0  0  0  0  0  0  0  0  0  0
    6.0010    3.1550    0.0000 C   0  0  0  0  0  0  0  0  0  0  0  0
    6.3301   -1.6550    0.0000 H   0  0  0  0  0  0  0  0  0  0  0  0
    6.3301   -2.0350    0.0000 H   0  0  0  0  0  0  0  0  0  0  0  0
    8.2700   -3.1550    0.0000 H   0  0  0  0  0  0  0  0  0  0  0  0
    7.1962   -0.5350    0.0000 H   0  0  0  0  0  0  0  0  0  0  0  0
    9.1360   -2.0350    0.0000 H   0  0  0  0  0  0  0  0  0  0  0  0
    5.1350   -0.7250    0.0000 H   0  0  0  0  0  0  0  0  0  0  0  0
    4.8059   -0.5350    0.0000 H   0  0  0  0  0  0  0  0  0  0  0  0
    3.4030   -0.7250    0.0000 H   0  0  0  0  0  0  0  0  0  0  0  0
    3.4030   -2.9650    0.0000 H   0  0  0  0  0  0  0  0  0  0  0  0
    4.8059   -3.1550    0.0000 H   0  0  0  0  0  0  0  0  0  0  0  0
   10.0757   -2.9527    0.0000 H   0  0  0  0  0  0  0  0  0  0  0  0
    9.6772   -2.2624    0.0000 H   0  0  0  0  0  0  0  0  0  0  0  0
    6.0010   -3.4650    0.0000 H   0  0  0  0  0  0  0  0  0  0  0  0
    7.1962   -4.1550    0.0000 H   0  0  0  0  0  0  0  0  0  0  0  0
    3.7320    0.4650    0.0000 H   0  0  0  0  0  0  0  0  0  0  0  0
    2.5369   -0.2250    0.0000 H   0  0  0  0  0  0  0  0  0  0  0  0
    2.0000   -2.5350    0.0000 H   0  0  0  0  0  0  0  0  0  0  0  0
   10.0021   -4.1550    0.0000 H   0  0  0  0  0  0  0  0  0  0  0  0
    9.4651   -0.4650    0.0000 H   0  0  0  0  0  0  0  0  0  0  0  0
    3.4030   -4.9650    0.0000 H   0  0  0  0  0  0  0  0  0  0  0  0
   11.2179    2.8096    0.0000 H   0  0  0  0  0  0  0  0  0  0  0  0
    8.2700    3.4650    0.0000 H   0  0  0  0  0  0  0  0  0  0  0  0
    6.8671    1.0350    0.0000 H   0  0  0  0  0  0  0  0  0  0  0  0
   12.6669    0.3221    0.0000 H   0  0  0  0  0  0  0  0  0  0  0  0
    5.4641    1.8450    0.0000 H   0  0  0  0  0  0  0  0  0  0  0  0
   11.7469   -1.1958    0.0000 H   0  0  0  0  0  0  0  0  0  0  0  0
   13.5334    1.8712    0.0000 H   0  0  0  0  0  0  0  0  0  0  0  0
    7.4040    4.9650    0.0000 H   0  0  0  0  0  0  0  0  0  0  0  0
    4.5981    3.3450    0.0000 H   0  0  0  0  0  0  0  0  0  0  0  0
 18  1  1  1  0  0  0
 23  1  1  6  0  0  0
  2 21  1  0  0  0  0
  2 22  1  0  0  0  0
  3 23  1  0  0  0  0
  3 27  1  0  0  0  0
 21  4  1  6  0  0  0
  4 30  1  0  0  0  0
 19  5  1  6  0  0  0
  5 57  1  0  0  0  0
 20  6  1  1  0  0  0
  6 58  1  0  0  0  0
 24  7  1  1  0  0  0
  7 59  1  0  0  0  0
 25  8  1  6  0  0  0
  8 60  1  0  0  0  0
 26  9  1  1  0  0  0
  9 61  1  0  0  0  0
 10 28  1  0  0  0  0
 10 62  1  0  0  0  0
 11 29  1  0  0  0  0
 11 64  1  0  0  0  0
 12 29  2  0  0  0  0
 13 31  2  0  0  0  0
 13 35  1  0  0  0  0
 14 36  1  0  0  0  0
 14 70  1  0  0  0  0
 15 41  1  0  0  0  0
 15 71  1  0  0  0  0
 16 42  1  0  0  0  0
 16 72  1  0  0  0  0
 17 44  1  0  0  0  0
 17 73  1  0  0  0  0
 18 19  1  0  0  0  0
 18 21  1  0  0  0  0
 18 45  1  0  0  0  0
 19 20  1  0  0  0  0
 19 46  1  0  0  0  0
 20 22  1  0  0  0  0
 20 47  1  0  0  0  0
 21 48  1  0  0  0  0
 22 28  1  6  0  0  0
 22 49  1  0  0  0  0
 23 24  1  0  0  0  0
 23 50  1  0  0  0  0
 24 25  1  0  0  0  0
 24 51  1  0  0  0  0
 25 26  1  0  0  0  0
 25 52  1  0  0  0  0
 26 27  1  0  0  0  0
 26 53  1  0  0  0  0
 27 29  1  6  0  0  0
 27 54  1  0  0  0  0
 28 55  1  0  0  0  0
 28 56  1  0  0  0  0
 30 31  1  0  0  0  0
 30 32  2  0  0  0  0
 31 34  1  0  0  0  0
 32 33  1  0  0  0  0
 32 63  1  0  0  0  0
 33 35  1  0  0  0  0
 33 36  2  0  0  0  0
 34 38  2  0  0  0  0
 34 39  1  0  0  0  0
 35 37  2  0  0  0  0
 36 40  1  0  0  0  0
 37 41  1  0  0  0  0
 37 65  1  0  0  0  0
 38 42  1  0  0  0  0
 38 66  1  0  0  0  0
 39 43  2  0  0  0  0
 39 67  1  0  0  0  0
 40 41  2  0  0  0  0
 40 68  1  0  0  0  0
 42 44  2  0  0  0  0
 43 44  1  0  0  0  0
 43 69  1  0  0  0  0
M  CHG  1  13   1
M  END
> <PUBCHEM_COMPOUND_CID>
50909830

> <PUBCHEM_COMPOUND_CANONICALIZED>
1

> <PUBCHEM_CACTVS_COMPLEXITY>
973

> <PUBCHEM_CACTVS_HBOND_ACCEPTOR>
16

> <PUBCHEM_CACTVS_HBOND_DONOR>
11

> <PUBCHEM_CACTVS_ROTATABLE_BOND>
7

> <PUBCHEM_CACTVS_SUBSKEYS>
AAADceB4PgAAAAAAAAAAAAAAAAAAAAAAAAA0aJECAAAAAACR9AAAGgAACAAADBSwmAMwDsAABkCIAqDSCAICCAAkIAAIiAFGiMgdNzaGNR6ieWOl4BUPuYfK7PzOIAABCAAIQABAAAIQABCAAAAAAAAAAA==

> <PUBCHEM_IUPAC_OPENEYE_NAME>
(2S,3S,4S,5R,6R)-6-[(2S,3R,4S,5S,6R)-2-[2-(3,4-dihydroxyphenyl)-5,7-dihydroxy-chromenylium-3-yl]oxy-4,5-dihydroxy-6-(hydroxymethyl)tetrahydropyran-3-yl]oxy-3,4,5-trihydroxy-tetrahydropyran-2-carboxylic acid

> <PUBCHEM_IUPAC_CAS_NAME>
(2S,3S,4S,5R,6R)-6-[[(2S,3R,4S,5S,6R)-2-[[2-(3,4-dihydroxyphenyl)-5,7-dihydroxy-1-benzopyrylium-3-yl]oxy]-4,5-dihydroxy-6-(hydroxymethyl)-3-oxanyl]oxy]-3,4,5-trihydroxy-2-oxanecarboxylic acid

> <PUBCHEM_IUPAC_NAME>
(2S,3S,4S,5R,6R)-6-[(2S,3R,4S,5S,6R)-2-[2-(3,4-dihydroxyphenyl)-5,7-dihydroxychromenylium-3-yl]oxy-4,5-dihydroxy-6-(hydroxymethyl)oxan-3-yl]oxy-3,4,5-trihydroxyoxane-2-carboxylic acid

> <PUBCHEM_IUPAC_SYSTEMATIC_NAME>
(2S,3S,4S,5R,6R)-6-[(2S,3R,4S,5S,6R)-2-[2-[3,4-bis(oxidanyl)phenyl]-5,7-bis(oxidanyl)chromenylium-3-yl]oxy-6-(hydroxymethyl)-4,5-bis(oxidanyl)oxan-3-yl]oxy-3,4,5-tris(oxidanyl)oxane-2-carboxylic acid

> <PUBCHEM_IUPAC_TRADITIONAL_NAME>
(2S,3S,4S,5R,6R)-6-[(2S,3R,4S,5S,6R)-2-[[2-(3,4-dihydroxyphenyl)-5,7-dihydroxy-1-benzopyrylium-3-yl]oxy]-4,5-dihydroxy-6-methylol-tetrahydropyran-3-yl]oxy-3,4,5-trihydroxy-tetrahydropyran-2-carboxylic acid

> <PUBCHEM_IUPAC_INCHI>
InChI=1S/C27H28O17/c28-7-16-17(33)19(35)24(44-26-21(37)18(34)20(36)23(43-26)25(38)39)27(42-16)41-15-6-10-12(31)4-9(29)5-14(10)40-22(15)8-1-2-11(30)13(32)3-8/h1-6,16-21,23-24,26-28,33-37H,7H2,(H4-,29,30,31,32,38,39)/p+1/t16-,17-,18+,19+,20+,21-,23+,24-,26+,27-/m1/s1

> <PUBCHEM_IUPAC_INCHIKEY>
QLKOQFLYESIQLL-ZJNQYPEASA-O

> <PUBCHEM_EXACT_MASS>
625.140474

> <PUBCHEM_MOLECULAR_FORMULA>
C27H29O17+

> <PUBCHEM_MOLECULAR_WEIGHT>
625.50896

> <PUBCHEM_OPENEYE_CAN_SMILES>
C1=CC(=C(C=C1C2=C(C=C3C(=CC(=CC3=[O+]2)O)O)OC4C(C(C(C(O4)CO)O)O)OC5C(C(C(C(O5)C(=O)O)O)O)O)O)O

> <PUBCHEM_OPENEYE_ISO_SMILES>
C1=CC(=C(C=C1C2=C(C=C3C(=CC(=CC3=[O+]2)O)O)O[C@H]4[C@@H]([C@H]([C@@H]([C@H](O4)CO)O)O)O[C@H]5[C@@H]([C@H]([C@@H]([C@H](O5)C(=O)O)O)O)O)O)O

> <PUBCHEM_CACTVS_TPSA>
278

> <PUBCHEM_MONOISOTOPIC_WEIGHT>
625.140474

> <PUBCHEM_TOTAL_CHARGE>
1

> <PUBCHEM_HEAVY_ATOM_COUNT>
44

> <PUBCHEM_ATOM_DEF_STEREO_COUNT>
10

> <PUBCHEM_ATOM_UDEF_STEREO_COUNT>
0

> <PUBCHEM_BOND_DEF_STEREO_COUNT>
0

> <PUBCHEM_BOND_UDEF_STEREO_COUNT>
0

> <PUBCHEM_ISOTOPIC_ATOM_COUNT>
0

> <PUBCHEM_COMPONENT_COUNT>
1

> <PUBCHEM_CACTVS_TAUTO_COUNT>
171

> <PUBCHEM_COORDINATE_TYPE>
1
5
255

> <PUBCHEM_BONDANNOTATIONS>
18  1  5
23  1  6
13  31  8
13  35  8
22  28  6
27  29  6
30  31  8
30  32  8
32  33  8
33  35  8
33  36  8
34  38  8
34  39  8
35  37  8
36  40  8
37  41  8
38  42  8
39  43  8
21  4  6
40  41  8
42  44  8
43  44  8
19  5  6
20  6  5
24  7  5
25  8  6
26  9  5

$$$$

