5281129
  -OEChem-07051212553D

 33 32  0     0  0  0  0  0  0999 V2000
    3.5908    1.6635   -1.0008 O   0  0  0  0  0  0  0  0  0  0  0  0
    0.4116   -1.7716    0.8622 C   0  0  0  0  0  0  0  0  0  0  0  0
   -1.7600   -0.6010   -0.8627 C   0  0  0  0  0  0  0  0  0  0  0  0
    2.5357    0.3580    0.7264 C   0  0  0  0  0  0  0  0  0  0  0  0
   -0.7367   -2.5669    0.3130 C   0  0  0  0  0  0  0  0  0  0  0  0
    1.6128   -1.8493   -0.0339 C   0  0  0  0  0  0  0  0  0  0  0  0
   -1.7043   -2.0445   -0.4558 C   0  0  0  0  0  0  0  0  0  0  0  0
    2.5592   -0.9005   -0.0945 C   0  0  0  0  0  0  0  0  0  0  0  0
   -2.9883    0.0750   -0.3267 C   0  0  0  0  0  0  0  0  0  0  0  0
   -1.8808    2.3155   -0.1254 C   0  0  0  0  0  0  0  0  0  0  0  0
   -3.0420    1.3746    0.0019 C   0  0  0  0  0  0  0  0  0  0  0  0
    2.4522    1.6011   -0.1516 C   0  0  0  0  0  0  0  0  0  0  0  0
   -1.0502    2.3460    1.1480 C   0  0  0  0  0  0  0  0  0  0  0  0
    0.0965   -0.7546    1.0926 H   0  0  0  0  0  0  0  0  0  0  0  0
    0.6786   -2.2215    1.8275 H   0  0  0  0  0  0  0  0  0  0  0  0
   -1.8311   -0.5888   -1.9586 H   0  0  0  0  0  0  0  0  0  0  0  0
   -0.8429   -0.0609   -0.6268 H   0  0  0  0  0  0  0  0  0  0  0  0
    3.4769    0.3842    1.2909 H   0  0  0  0  0  0  0  0  0  0  0  0
    1.7396    0.3871    1.4723 H   0  0  0  0  0  0  0  0  0  0  0  0
   -0.7675   -3.6292    0.5418 H   0  0  0  0  0  0  0  0  0  0  0  0
    1.7505   -2.7448   -0.6359 H   0  0  0  0  0  0  0  0  0  0  0  0
   -2.4895   -2.7027   -0.8203 H   0  0  0  0  0  0  0  0  0  0  0  0
    3.4092   -1.0575   -0.7537 H   0  0  0  0  0  0  0  0  0  0  0  0
   -3.8985   -0.5127   -0.2304 H   0  0  0  0  0  0  0  0  0  0  0  0
   -2.2717    3.3203   -0.3267 H   0  0  0  0  0  0  0  0  0  0  0  0
   -1.2480    2.0695   -0.9850 H   0  0  0  0  0  0  0  0  0  0  0  0
   -3.9754    1.7812    0.3819 H   0  0  0  0  0  0  0  0  0  0  0  0
    1.5549    1.5866   -0.7785 H   0  0  0  0  0  0  0  0  0  0  0  0
    2.4289    2.5078    0.4609 H   0  0  0  0  0  0  0  0  0  0  0  0
   -0.2162    3.0461    1.0364 H   0  0  0  0  0  0  0  0  0  0  0  0
   -1.6522    2.6770    2.0012 H   0  0  0  0  0  0  0  0  0  0  0  0
   -0.6372    1.3644    1.3902 H   0  0  0  0  0  0  0  0  0  0  0  0
    4.3787    1.7105   -0.4327 H   0  0  0  0  0  0  0  0  0  0  0  0
  1 12  1  0  0  0  0
  1 33  1  0  0  0  0
  2  5  1  0  0  0  0
  2  6  1  0  0  0  0
  2 14  1  0  0  0  0
  2 15  1  0  0  0  0
  3  7  1  0  0  0  0
  3  9  1  0  0  0  0
  3 16  1  0  0  0  0
  3 17  1  0  0  0  0
  4  8  1  0  0  0  0
  4 12  1  0  0  0  0
  4 18  1  0  0  0  0
  4 19  1  0  0  0  0
  5  7  2  0  0  0  0
  5 20  1  0  0  0  0
  6  8  2  0  0  0  0
  6 21  1  0  0  0  0
  7 22  1  0  0  0  0
  8 23  1  0  0  0  0
  9 11  2  0  0  0  0
  9 24  1  0  0  0  0
 10 11  1  0  0  0  0
 10 13  1  0  0  0  0
 10 25  1  0  0  0  0
 10 26  1  0  0  0  0
 11 27  1  0  0  0  0
 12 28  1  0  0  0  0
 12 29  1  0  0  0  0
 13 30  1  0  0  0  0
 13 31  1  0  0  0  0
 13 32  1  0  0  0  0
M  END
> <PUBCHEM_COMPOUND_CID>
5281129

> <PUBCHEM_CONFORMER_RMSD>
0.8

> <PUBCHEM_CONFORMER_DIVERSEORDER>
19
167
102
140
166
304
60
212
233
45
154
316
68
401
114
334
215
161
295
260
30
63
39
197
328
343
400
143
115
357
196
273
111
415
32
80
194
293
345
163
40
16
225
10
282
41
315
374
407
43
365
319
83
330
70
179
250
184
5
244
358
269
410
62
133
84
31
271
200
96
397
375
130
171
346
318
27
297
286
147
338
389
151
122
50
71
123
199
21
109
51
291
289
55
274
414
42
355
237
56
59
306
34
23
411
230
376
159
141
412
235
172
378
238
340
208
287
278
399
188
280
81
116
312
247
241
270
36
198
294
110
229
243
178
276
148
347
298
253
211
240
403
349
24
405
396
370
186
69
224
173
206
57
88
103
384
207
193
288
146
64
204
220
252
339
301
44
284
92
158
82
352
126
189
290
341
153
168
359
131
348
180
210
58
120
419
46
12
333
93
49
251
97
337
391
74
263
383
227
257
145
149
138
258
52
416
228
300
202
361
174
117
390
87
61
219
94
325
379
91
20
307
329
275
392
125
418
3
165
296
127
156
285
4
1
164
254
76
234
246
78
314
344
139
118
259
65
222
13
409
170
242
388
372
203
155
192
135
402
214
385
144
128
28
177
363
264
366
308
105
9
321
29
124
191
279
406
281
216
99
183
335
90
175
181
360
381
157
6
221
283
382
364
350
226
100
85
380
25
277
336
393
201
152
322
113
302
119
54
79
14
86
205
256
11
310
394
356
292
134
2
236
377
108
232
395
107
8
190
187
367
417
218
248
265
176
369
299
303
129
185
408
317
368
261
66
169
371
160
150
104
373
342
313
72
217
17
387
231
121
404
101
15
209
162
132
142
320
311
351
268
362
324
98
47
239
136
353
106
182
112
266
309
223
95
48
7
262
272
245
67
413
255
305
326
137
354
77
213
26
323
37
386
33
53
332
89
249
73
267
18
38
327
75
331
22
398
195
35

> <PUBCHEM_MMFF94_PARTIAL_CHARGES>
19
1 -0.68
10 0.14
11 -0.29
12 0.28
2 0.28
20 0.15
21 0.15
22 0.15
23 0.15
24 0.15
27 0.15
3 0.28
33 0.4
4 0.14
5 -0.29
6 -0.29
7 -0.29
8 -0.29
9 -0.29

> <PUBCHEM_EFFECTIVE_ROTOR_COUNT>
7

> <PUBCHEM_PHARMACOPHORE_FEATURES>
3
1 1 acceptor
1 1 donor
1 13 hydrophobe

> <PUBCHEM_HEAVY_ATOM_COUNT>
13

> <PUBCHEM_ATOM_DEF_STEREO_COUNT>
0

> <PUBCHEM_ATOM_UDEF_STEREO_COUNT>
0

> <PUBCHEM_BOND_DEF_STEREO_COUNT>
3

> <PUBCHEM_BOND_UDEF_STEREO_COUNT>
0

> <PUBCHEM_ISOTOPIC_ATOM_COUNT>
0

> <PUBCHEM_COMPONENT_COUNT>
1

> <PUBCHEM_CACTVS_TAUTO_COUNT>
1

> <PUBCHEM_CONFORMER_ID>
0050956900000013

> <PUBCHEM_MMFF94_ENERGY>
9.0816

> <PUBCHEM_FEATURE_SELFOVERLAP>
15.223

> <PUBCHEM_SHAPE_FINGERPRINT>
13618510 140 18412826906030968932
13764800 53 18129654206041960179
14123250 116 18041826381193802296
1420 336 18409732884589322906
14251711 518 18120108418072663551
14251745 187 17900270697225957688
15775835 57 18124309664755311861
20304884 271 18410857642045726046
20539926 19 18338232768853787020
20671657 1 18342175617867671846
21141583 151 18116987789488655592
23557571 272 17604729788499226170
2897 32 18193000541262019785
353137 74 18409738382226622217
44154327 71 18337388352788052161
526903 126 18337393716738059321

> <PUBCHEM_SHAPE_MULTIPOLES>
261.66
5.36
3.42
0.96
1.37
0.05
-0.07
-2.75
0.99
-0.36
-0.31
0.12
-0.19
-0.8

> <PUBCHEM_SHAPE_SELFOVERLAP>
484.549

> <PUBCHEM_SHAPE_VOLUME>
163.6

> <PUBCHEM_COORDINATE_TYPE>
2
5
10

$$$$

