17396511
  -OEChem-06241222572D

 42 43  0     0  0  0  0  0  0999 V2000
    2.8660   -1.1550    0.0000 O   0  0  0  0  0  0  0  0  0  0  0  0
    2.8660   -3.1550    0.0000 O   0  0  0  0  0  0  0  0  0  0  0  0
    4.5981   -4.1550    0.0000 O   0  0  0  0  0  0  0  0  0  0  0  0
    3.7320    0.3450    0.0000 O   0  0  0  0  0  0  0  0  0  0  0  0
    8.0622    2.8450    0.0000 O   0  0  0  0  0  0  0  0  0  0  0  0
    5.4641    0.3450    0.0000 N   0  0  0  0  0  0  0  0  0  0  0  0
    7.1962    4.3450    0.0000 N   0  0  0  0  0  0  0  0  0  0  0  0
    4.5981   -1.1550    0.0000 C   0  0  0  0  0  0  0  0  0  0  0  0
    3.7320   -1.6550    0.0000 C   0  0  0  0  0  0  0  0  0  0  0  0
    3.7320   -2.6550    0.0000 C   0  0  0  0  0  0  0  0  0  0  0  0
    4.5981   -3.1550    0.0000 C   0  0  0  0  0  0  0  0  0  0  0  0
    5.4641   -1.6550    0.0000 C   0  0  0  0  0  0  0  0  0  0  0  0
    4.5981   -0.1550    0.0000 C   0  0  0  0  0  0  0  0  0  0  0  0
    5.4641    1.3450    0.0000 C   0  0  0  0  0  0  0  0  0  0  0  0
    5.4641   -2.6550    0.0000 C   0  0  0  0  0  0  0  0  0  0  0  0
    6.3301    1.8450    0.0000 C   0  0  0  0  0  0  0  0  0  0  0  0
    6.3301    2.8450    0.0000 C   0  0  0  0  0  0  0  0  0  0  0  0
    4.5981    1.8450    0.0000 C   0  0  0  0  0  0  0  0  0  0  0  0
    5.4641    3.3450    0.0000 C   0  0  0  0  0  0  0  0  0  0  0  0
    4.5981    2.8450    0.0000 C   0  0  0  0  0  0  0  0  0  0  0  0
    7.1962    3.3450    0.0000 C   0  0  0  0  0  0  0  0  0  0  0  0
    2.0000   -1.6550    0.0000 C   0  0  0  0  0  0  0  0  0  0  0  0
    2.8660   -4.1550    0.0000 C   0  0  0  0  0  0  0  0  0  0  0  0
    5.4641   -4.6550    0.0000 C   0  0  0  0  0  0  0  0  0  0  0  0
    6.0010   -1.3450    0.0000 H   0  0  0  0  0  0  0  0  0  0  0  0
    6.0010   -2.9650    0.0000 H   0  0  0  0  0  0  0  0  0  0  0  0
    6.0010    0.0350    0.0000 H   0  0  0  0  0  0  0  0  0  0  0  0
    6.8671    1.5350    0.0000 H   0  0  0  0  0  0  0  0  0  0  0  0
    4.0611    1.5350    0.0000 H   0  0  0  0  0  0  0  0  0  0  0  0
    5.4641    3.9650    0.0000 H   0  0  0  0  0  0  0  0  0  0  0  0
    4.0611    3.1550    0.0000 H   0  0  0  0  0  0  0  0  0  0  0  0
    1.6900   -1.1181    0.0000 H   0  0  0  0  0  0  0  0  0  0  0  0
    1.4631   -1.9650    0.0000 H   0  0  0  0  0  0  0  0  0  0  0  0
    2.3100   -2.1919    0.0000 H   0  0  0  0  0  0  0  0  0  0  0  0
    2.2460   -4.1550    0.0000 H   0  0  0  0  0  0  0  0  0  0  0  0
    2.8660   -4.7750    0.0000 H   0  0  0  0  0  0  0  0  0  0  0  0
    3.4860   -4.1550    0.0000 H   0  0  0  0  0  0  0  0  0  0  0  0
    5.1541   -5.1919    0.0000 H   0  0  0  0  0  0  0  0  0  0  0  0
    6.0010   -4.9650    0.0000 H   0  0  0  0  0  0  0  0  0  0  0  0
    5.7741   -4.1181    0.0000 H   0  0  0  0  0  0  0  0  0  0  0  0
    7.7331    4.6550    0.0000 H   0  0  0  0  0  0  0  0  0  0  0  0
    6.6592    4.6550    0.0000 H   0  0  0  0  0  0  0  0  0  0  0  0
  1  9  1  0  0  0  0
  1 22  1  0  0  0  0
  2 10  1  0  0  0  0
  2 23  1  0  0  0  0
  3 11  1  0  0  0  0
  3 24  1  0  0  0  0
  4 13  2  0  0  0  0
  5 21  2  0  0  0  0
  6 13  1  0  0  0  0
  6 14  1  0  0  0  0
  6 27  1  0  0  0  0
  7 21  1  0  0  0  0
  7 41  1  0  0  0  0
  7 42  1  0  0  0  0
  8  9  2  0  0  0  0
  8 12  1  0  0  0  0
  8 13  1  0  0  0  0
  9 10  1  0  0  0  0
 10 11  2  0  0  0  0
 11 15  1  0  0  0  0
 12 15  2  0  0  0  0
 12 25  1  0  0  0  0
 14 16  1  0  0  0  0
 14 18  2  0  0  0  0
 15 26  1  0  0  0  0
 16 17  2  0  0  0  0
 16 28  1  0  0  0  0
 17 19  1  0  0  0  0
 17 21  1  0  0  0  0
 18 20  1  0  0  0  0
 18 29  1  0  0  0  0
 19 20  2  0  0  0  0
 19 30  1  0  0  0  0
 20 31  1  0  0  0  0
 22 32  1  0  0  0  0
 22 33  1  0  0  0  0
 22 34  1  0  0  0  0
 23 35  1  0  0  0  0
 23 36  1  0  0  0  0
 23 37  1  0  0  0  0
 24 38  1  0  0  0  0
 24 39  1  0  0  0  0
 24 40  1  0  0  0  0
M  END
> <PUBCHEM_COMPOUND_CID>
17396511

> <PUBCHEM_COMPOUND_CANONICALIZED>
1

> <PUBCHEM_CACTVS_COMPLEXITY>
445

> <PUBCHEM_CACTVS_HBOND_ACCEPTOR>
5

> <PUBCHEM_CACTVS_HBOND_DONOR>
2

> <PUBCHEM_CACTVS_ROTATABLE_BOND>
6

> <PUBCHEM_CACTVS_SUBSKEYS>
AAADceB7OAAAAAAAAAAAAAAAAAAAAAAAAAAwYAAAAAAAAAABQAAAHgAQAAAADAyBmAIyxoLABACIAiVSUACCCAAlIgAIiAEG7MgNJzbEtZuEMWpn9BXK6Ye+/D7OIAABSAAIQABAAAKQABCAAAAAAAAAAA==

> <PUBCHEM_IUPAC_OPENEYE_NAME>
N-(3-carbamoylphenyl)-2,3,4-trimethoxy-benzamide

> <PUBCHEM_IUPAC_CAS_NAME>
N-(3-carbamoylphenyl)-2,3,4-trimethoxybenzamide

> <PUBCHEM_IUPAC_NAME>
N-(3-carbamoylphenyl)-2,3,4-trimethoxybenzamide

> <PUBCHEM_IUPAC_SYSTEMATIC_NAME>
N-(3-aminocarbonylphenyl)-2,3,4-trimethoxy-benzamide

> <PUBCHEM_IUPAC_TRADITIONAL_NAME>
N-(3-carbamoylphenyl)-2,3,4-trimethoxy-benzamide

> <PUBCHEM_IUPAC_INCHI>
InChI=1S/C17H18N2O5/c1-22-13-8-7-12(14(23-2)15(13)24-3)17(21)19-11-6-4-5-10(9-11)16(18)20/h4-9H,1-3H3,(H2,18,20)(H,19,21)

> <PUBCHEM_IUPAC_INCHIKEY>
GOTQELCBJJQVCP-UHFFFAOYSA-N

> <PUBCHEM_XLOGP3_AA>
1.5

> <PUBCHEM_EXACT_MASS>
330.121572

> <PUBCHEM_MOLECULAR_FORMULA>
C17H18N2O5

> <PUBCHEM_MOLECULAR_WEIGHT>
330.33522

> <PUBCHEM_OPENEYE_CAN_SMILES>
COC1=C(C(=C(C=C1)C(=O)NC2=CC=CC(=C2)C(=O)N)OC)OC

> <PUBCHEM_OPENEYE_ISO_SMILES>
COC1=C(C(=C(C=C1)C(=O)NC2=CC=CC(=C2)C(=O)N)OC)OC

> <PUBCHEM_CACTVS_TPSA>
99.9

> <PUBCHEM_MONOISOTOPIC_WEIGHT>
330.121572

> <PUBCHEM_TOTAL_CHARGE>
0

> <PUBCHEM_HEAVY_ATOM_COUNT>
24

> <PUBCHEM_ATOM_DEF_STEREO_COUNT>
0

> <PUBCHEM_ATOM_UDEF_STEREO_COUNT>
0

> <PUBCHEM_BOND_DEF_STEREO_COUNT>
0

> <PUBCHEM_BOND_UDEF_STEREO_COUNT>
0

> <PUBCHEM_ISOTOPIC_ATOM_COUNT>
0

> <PUBCHEM_COMPONENT_COUNT>
1

> <PUBCHEM_CACTVS_TAUTO_COUNT>
4

> <PUBCHEM_COORDINATE_TYPE>
1
5
255

> <PUBCHEM_BONDANNOTATIONS>
10  11  8
11  15  8
12  15  8
14  16  8
14  18  8
16  17  8
17  19  8
18  20  8
19  20  8
8  12  8
8  9  8
9  10  8

$$$$

