10169
  -OEChem-06261204212D

 30 32  0     0  0  0  0  0  0999 V2000
    6.0682    1.5931    0.0000 O   0  0  0  0  0  0  0  0  0  0  0  0
    6.0682   -2.4069    0.0000 O   0  0  0  0  0  0  0  0  0  0  0  0
    7.8167   -2.4415    0.0000 O   0  0  0  0  0  0  0  0  0  0  0  0
    4.3198   -2.4415    0.0000 O   0  0  0  0  0  0  0  0  0  0  0  0
    2.5381    0.6173    0.0000 O   0  0  0  0  0  0  0  0  0  0  0  0
    8.6768    2.1377    0.0000 O   0  0  0  0  0  0  0  0  0  0  0  0
    6.9449    2.1177    0.0000 O   0  0  0  0  0  0  0  0  0  0  0  0
    6.9343    0.0931    0.0000 C   0  0  0  0  0  0  0  0  0  0  0  0
    6.9343   -0.9069    0.0000 C   0  0  0  0  0  0  0  0  0  0  0  0
    5.2022   -0.9069    0.0000 C   0  0  0  0  0  0  0  0  0  0  0  0
    5.2022    0.0931    0.0000 C   0  0  0  0  0  0  0  0  0  0  0  0
    6.0682    0.5931    0.0000 C   0  0  0  0  0  0  0  0  0  0  0  0
    6.0682   -1.4069    0.0000 C   0  0  0  0  0  0  0  0  0  0  0  0
    7.8282    0.6278    0.0000 C   0  0  0  0  0  0  0  0  0  0  0  0
    7.8282   -1.4415    0.0000 C   0  0  0  0  0  0  0  0  0  0  0  0
    4.3083   -1.4415    0.0000 C   0  0  0  0  0  0  0  0  0  0  0  0
    4.3083    0.6278    0.0000 C   0  0  0  0  0  0  0  0  0  0  0  0
    8.7343    0.1139    0.0000 C   0  0  0  0  0  0  0  0  0  0  0  0
    8.7343   -0.9277    0.0000 C   0  0  0  0  0  0  0  0  0  0  0  0
    3.4022    0.1139    0.0000 C   0  0  0  0  0  0  0  0  0  0  0  0
    3.4022   -0.9277    0.0000 C   0  0  0  0  0  0  0  0  0  0  0  0
    7.8167    1.6277    0.0000 C   0  0  0  0  0  0  0  0  0  0  0  0
    4.3154    1.2477    0.0000 H   0  0  0  0  0  0  0  0  0  0  0  0
    9.2700    0.4260    0.0000 H   0  0  0  0  0  0  0  0  0  0  0  0
    9.2700   -1.2398    0.0000 H   0  0  0  0  0  0  0  0  0  0  0  0
    2.8665   -1.2398    0.0000 H   0  0  0  0  0  0  0  0  0  0  0  0
    8.3500   -2.7577    0.0000 H   0  0  0  0  0  0  0  0  0  0  0  0
    3.7865   -2.7577    0.0000 H   0  0  0  0  0  0  0  0  0  0  0  0
    2.0000    0.3093    0.0000 H   0  0  0  0  0  0  0  0  0  0  0  0
    8.6697    2.7577    0.0000 H   0  0  0  0  0  0  0  0  0  0  0  0
  1 12  2  0  0  0  0
  2 13  2  0  0  0  0
  3 15  1  0  0  0  0
  3 27  1  0  0  0  0
  4 16  1  0  0  0  0
  4 28  1  0  0  0  0
  5 20  1  0  0  0  0
  5 29  1  0  0  0  0
  6 22  1  0  0  0  0
  6 30  1  0  0  0  0
  7 22  2  0  0  0  0
  8  9  1  0  0  0  0
  8 12  1  0  0  0  0
  8 14  2  0  0  0  0
  9 13  1  0  0  0  0
  9 15  2  0  0  0  0
 10 11  2  0  0  0  0
 10 13  1  0  0  0  0
 10 16  1  0  0  0  0
 11 12  1  0  0  0  0
 11 17  1  0  0  0  0
 14 18  1  0  0  0  0
 14 22  1  0  0  0  0
 15 19  1  0  0  0  0
 16 21  2  0  0  0  0
 17 20  2  0  0  0  0
 17 23  1  0  0  0  0
 18 19  2  0  0  0  0
 18 24  1  0  0  0  0
 19 25  1  0  0  0  0
 20 21  1  0  0  0  0
 21 26  1  0  0  0  0
M  END
> <PUBCHEM_COMPOUND_CID>
10169

> <PUBCHEM_COMPOUND_CANONICALIZED>
1

> <PUBCHEM_CACTVS_COMPLEXITY>
516

> <PUBCHEM_CACTVS_HBOND_ACCEPTOR>
7

> <PUBCHEM_CACTVS_HBOND_DONOR>
4

> <PUBCHEM_CACTVS_ROTATABLE_BOND>
1

> <PUBCHEM_CACTVS_SUBSKEYS>
AAADccBwOAAAAAAAAAAAAAAAAAAAAAAAAAAwYMAAAAAAAADBQAAAGgAACAAADASAmAAwDoAAAgCIAqDSCAACAAAkIAAIiAEGCMgIJzaCFRKAcUAl4BUImYeL7vTuoAADCAAYAADAAAYQADAAAAAAAAAAAA==

> <PUBCHEM_IUPAC_OPENEYE_NAME>
4,5,7-trihydroxy-9,10-dioxo-anthracene-1-carboxylic acid

> <PUBCHEM_IUPAC_CAS_NAME>
4,5,7-trihydroxy-9,10-dioxo-1-anthracenecarboxylic acid

> <PUBCHEM_IUPAC_NAME>
4,5,7-trihydroxy-9,10-dioxoanthracene-1-carboxylic acid

> <PUBCHEM_IUPAC_SYSTEMATIC_NAME>
4,5,7-tris(oxidanyl)-9,10-bis(oxidanylidene)anthracene-1-carboxylic acid

> <PUBCHEM_IUPAC_TRADITIONAL_NAME>
4,5,7-trihydroxy-9,10-diketo-anthracene-1-carboxylic acid

> <PUBCHEM_IUPAC_INCHI>
InChI=1S/C15H8O7/c16-5-3-7-10(9(18)4-5)14(20)12-8(17)2-1-6(15(21)22)11(12)13(7)19/h1-4,16-18H,(H,21,22)

> <PUBCHEM_IUPAC_INCHIKEY>
CUUCCKPDUGAXQQ-UHFFFAOYSA-N

> <PUBCHEM_XLOGP3_AA>
1.9

> <PUBCHEM_EXACT_MASS>
300.027003

> <PUBCHEM_MOLECULAR_FORMULA>
C15H8O7

> <PUBCHEM_MOLECULAR_WEIGHT>
300.21982

> <PUBCHEM_OPENEYE_CAN_SMILES>
C1=CC(=C2C(=C1C(=O)O)C(=O)C3=CC(=CC(=C3C2=O)O)O)O

> <PUBCHEM_OPENEYE_ISO_SMILES>
C1=CC(=C2C(=C1C(=O)O)C(=O)C3=CC(=CC(=C3C2=O)O)O)O

> <PUBCHEM_CACTVS_TPSA>
132

> <PUBCHEM_MONOISOTOPIC_WEIGHT>
300.027003

> <PUBCHEM_TOTAL_CHARGE>
0

> <PUBCHEM_HEAVY_ATOM_COUNT>
22

> <PUBCHEM_ATOM_DEF_STEREO_COUNT>
0

> <PUBCHEM_ATOM_UDEF_STEREO_COUNT>
0

> <PUBCHEM_BOND_DEF_STEREO_COUNT>
0

> <PUBCHEM_BOND_UDEF_STEREO_COUNT>
0

> <PUBCHEM_ISOTOPIC_ATOM_COUNT>
0

> <PUBCHEM_COMPONENT_COUNT>
1

> <PUBCHEM_CACTVS_TAUTO_COUNT>
69

> <PUBCHEM_COORDINATE_TYPE>
1
5
255

> <PUBCHEM_BONDANNOTATIONS>
10  11  8
10  16  8
11  17  8
14  18  8
15  19  8
16  21  8
17  20  8
18  19  8
20  21  8
8  14  8
8  9  8
9  15  8

$$$$

