86355
  -OEChem-07051213122D

 45 47  0     0  0  0  0  0  0999 V2000
    4.4487   -1.7115    0.0000 S   0  0  0  0  0  0  0  0  0  0  0  0
    3.9487   -2.5776    0.0000 O   0  0  0  0  0  0  0  0  0  0  0  0
    4.9487   -0.8455    0.0000 O   0  0  0  0  0  0  0  0  0  0  0  0
    6.1808   -0.7115    0.0000 O   0  0  0  0  0  0  0  0  0  0  0  0
   10.5109   -2.2115    0.0000 O   0  0  0  0  0  0  0  0  0  0  0  0
    8.7788    0.7885    0.0000 O   0  0  0  0  0  0  0  0  0  0  0  0
    2.6691   -1.6183    0.0000 N   0  0  0  0  0  0  0  0  0  0  0  0
    5.3147   -2.2115    0.0000 N   0  0  0  0  0  0  0  0  0  0  0  0
    2.0000   -0.8751    0.0000 N   0  0  0  0  0  0  0  0  0  0  0  0
    4.1168    1.4466    0.0000 N   0  0  0  0  0  0  0  0  0  0  0  0
    5.1994    0.2442    0.0000 N   0  0  0  0  0  0  0  0  0  0  0  0
    5.0303    1.8534    0.0000 N   0  0  0  0  0  0  0  0  0  0  0  0
    7.0468   -2.2115    0.0000 N   0  0  0  0  0  0  0  0  0  0  0  0
    5.6994    1.1102    0.0000 N   0  0  0  0  0  0  0  0  0  0  0  0
    8.7788   -2.2115    0.0000 N   0  0  0  0  0  0  0  0  0  0  0  0
    7.9128   -0.7115    0.0000 N   0  0  0  0  0  0  0  0  0  0  0  0
    3.5827   -1.2115    0.0000 C   0  0  0  0  0  0  0  0  0  0  0  0
    3.4782   -0.2170    0.0000 C   0  0  0  0  0  0  0  0  0  0  0  0
    2.5000   -0.0091    0.0000 C   0  0  0  0  0  0  0  0  0  0  0  0
    4.2213    0.4521    0.0000 C   0  0  0  0  0  0  0  0  0  0  0  0
    2.4612   -2.5964    0.0000 C   0  0  0  0  0  0  0  0  0  0  0  0
    6.1808   -1.7115    0.0000 C   0  0  0  0  0  0  0  0  0  0  0  0
    7.9128   -1.7115    0.0000 C   0  0  0  0  0  0  0  0  0  0  0  0
    5.2382    2.8315    0.0000 C   0  0  0  0  0  0  0  0  0  0  0  0
    9.6448   -1.7115    0.0000 C   0  0  0  0  0  0  0  0  0  0  0  0
    8.7788   -0.2115    0.0000 C   0  0  0  0  0  0  0  0  0  0  0  0
    9.6448   -0.7115    0.0000 C   0  0  0  0  0  0  0  0  0  0  0  0
   11.3769   -1.7115    0.0000 C   0  0  0  0  0  0  0  0  0  0  0  0
    9.6448    1.2885    0.0000 C   0  0  0  0  0  0  0  0  0  0  0  0
    2.2478    0.5573    0.0000 H   0  0  0  0  0  0  0  0  0  0  0  0
    5.3147   -2.8315    0.0000 H   0  0  0  0  0  0  0  0  0  0  0  0
    1.8548   -2.4675    0.0000 H   0  0  0  0  0  0  0  0  0  0  0  0
    2.3323   -3.2029    0.0000 H   0  0  0  0  0  0  0  0  0  0  0  0
    3.0677   -2.7253    0.0000 H   0  0  0  0  0  0  0  0  0  0  0  0
    7.0468   -2.8315    0.0000 H   0  0  0  0  0  0  0  0  0  0  0  0
    5.8447    2.7026    0.0000 H   0  0  0  0  0  0  0  0  0  0  0  0
    5.3671    3.4380    0.0000 H   0  0  0  0  0  0  0  0  0  0  0  0
    4.6318    2.9604    0.0000 H   0  0  0  0  0  0  0  0  0  0  0  0
   10.1818   -0.4015    0.0000 H   0  0  0  0  0  0  0  0  0  0  0  0
   11.6869   -2.2485    0.0000 H   0  0  0  0  0  0  0  0  0  0  0  0
   11.9138   -1.4015    0.0000 H   0  0  0  0  0  0  0  0  0  0  0  0
   11.0669   -1.1746    0.0000 H   0  0  0  0  0  0  0  0  0  0  0  0
    9.9548    0.7515    0.0000 H   0  0  0  0  0  0  0  0  0  0  0  0
   10.1818    1.5985    0.0000 H   0  0  0  0  0  0  0  0  0  0  0  0
    9.3348    1.8254    0.0000 H   0  0  0  0  0  0  0  0  0  0  0  0
  1  2  2  0  0  0  0
  1  3  2  0  0  0  0
  1  8  1  0  0  0  0
  1 17  1  0  0  0  0
  4 22  2  0  0  0  0
  5 25  1  0  0  0  0
  5 28  1  0  0  0  0
  6 26  1  0  0  0  0
  6 29  1  0  0  0  0
  7  9  1  0  0  0  0
  7 17  1  0  0  0  0
  7 21  1  0  0  0  0
  8 22  1  0  0  0  0
  8 31  1  0  0  0  0
  9 19  2  0  0  0  0
 10 12  1  0  0  0  0
 10 20  2  0  0  0  0
 11 14  2  0  0  0  0
 11 20  1  0  0  0  0
 12 14  1  0  0  0  0
 12 24  1  0  0  0  0
 13 22  1  0  0  0  0
 13 23  1  0  0  0  0
 13 35  1  0  0  0  0
 15 23  1  0  0  0  0
 15 25  2  0  0  0  0
 16 23  2  0  0  0  0
 16 26  1  0  0  0  0
 17 18  2  0  0  0  0
 18 19  1  0  0  0  0
 18 20  1  0  0  0  0
 19 30  1  0  0  0  0
 21 32  1  0  0  0  0
 21 33  1  0  0  0  0
 21 34  1  0  0  0  0
 24 36  1  0  0  0  0
 24 37  1  0  0  0  0
 24 38  1  0  0  0  0
 25 27  1  0  0  0  0
 26 27  2  0  0  0  0
 27 39  1  0  0  0  0
 28 40  1  0  0  0  0
 28 41  1  0  0  0  0
 28 42  1  0  0  0  0
 29 43  1  0  0  0  0
 29 44  1  0  0  0  0
 29 45  1  0  0  0  0
M  END
> <PUBCHEM_COMPOUND_CID>
86355

> <PUBCHEM_COMPOUND_CANONICALIZED>
1

> <PUBCHEM_CACTVS_COMPLEXITY>
665

> <PUBCHEM_CACTVS_HBOND_ACCEPTOR>
11

> <PUBCHEM_CACTVS_HBOND_DONOR>
2

> <PUBCHEM_CACTVS_ROTATABLE_BOND>
6

> <PUBCHEM_CACTVS_SUBSKEYS>
AAADceBz+ABAAAAAAAAAAAAAAAAAAWLAAAAsAAAAAAAAAAAB+AAAHgQYQAAADADB2wY/lZbIFAKqAjJndHDYnDsBoqAVUDA+bBCEDYBEaEgEhCwLCQ5AICAAAAAAAAAAAAAAAAAAAAAAAAAAAAAAAAAAAA==

> <PUBCHEM_IUPAC_OPENEYE_NAME>
1-(4,6-dimethoxypyrimidin-2-yl)-3-[2-methyl-4-(2-methyltetrazol-5-yl)pyrazol-3-yl]sulfonyl-urea

> <PUBCHEM_IUPAC_CAS_NAME>
1-(4,6-dimethoxy-2-pyrimidinyl)-3-[[2-methyl-4-(2-methyl-5-tetrazolyl)-3-pyrazolyl]sulfonyl]urea

> <PUBCHEM_IUPAC_NAME>
1-(4,6-dimethoxypyrimidin-2-yl)-3-[2-methyl-4-(2-methyltetrazol-5-yl)pyrazol-3-yl]sulfonylurea

> <PUBCHEM_IUPAC_SYSTEMATIC_NAME>
1-(4,6-dimethoxypyrimidin-2-yl)-3-[2-methyl-4-(2-methyl-1,2,3,4-tetrazol-5-yl)pyrazol-3-yl]sulfonyl-urea

> <PUBCHEM_IUPAC_TRADITIONAL_NAME>
1-(4,6-dimethoxypyrimidin-2-yl)-3-[2-methyl-4-(2-methyltetrazol-5-yl)pyrazol-3-yl]sulfonyl-urea

> <PUBCHEM_IUPAC_INCHI>
InChI=1S/C13H16N10O5S/c1-22-11(7(6-14-22)10-18-21-23(2)19-10)29(25,26)20-13(24)17-12-15-8(27-3)5-9(16-12)28-4/h5-6H,1-4H3,(H2,15,16,17,20,24)

> <PUBCHEM_IUPAC_INCHIKEY>
MAHPNPYYQAIOJN-UHFFFAOYSA-N

> <PUBCHEM_XLOGP3_AA>
0.3

> <PUBCHEM_EXACT_MASS>
424.102585

> <PUBCHEM_MOLECULAR_FORMULA>
C13H16N10O5S

> <PUBCHEM_MOLECULAR_WEIGHT>
424.39514

> <PUBCHEM_OPENEYE_CAN_SMILES>
CN1C(=C(C=N1)C2=NN(N=N2)C)S(=O)(=O)NC(=O)NC3=NC(=CC(=N3)OC)OC

> <PUBCHEM_OPENEYE_ISO_SMILES>
CN1C(=C(C=N1)C2=NN(N=N2)C)S(=O)(=O)NC(=O)NC3=NC(=CC(=N3)OC)OC

> <PUBCHEM_CACTVS_TPSA>
189

> <PUBCHEM_MONOISOTOPIC_WEIGHT>
424.102585

> <PUBCHEM_TOTAL_CHARGE>
0

> <PUBCHEM_HEAVY_ATOM_COUNT>
29

> <PUBCHEM_ATOM_DEF_STEREO_COUNT>
0

> <PUBCHEM_ATOM_UDEF_STEREO_COUNT>
0

> <PUBCHEM_BOND_DEF_STEREO_COUNT>
0

> <PUBCHEM_BOND_UDEF_STEREO_COUNT>
0

> <PUBCHEM_ISOTOPIC_ATOM_COUNT>
0

> <PUBCHEM_COMPONENT_COUNT>
1

> <PUBCHEM_CACTVS_TAUTO_COUNT>
5

> <PUBCHEM_COORDINATE_TYPE>
1
5
255

> <PUBCHEM_BONDANNOTATIONS>
10  12  8
10  20  8
11  14  8
11  20  8
12  14  8
15  23  8
15  25  8
16  23  8
16  26  8
17  18  8
18  19  8
25  27  8
26  27  8
7  17  8
7  9  8
9  19  8

$$$$

