17395456
  -OEChem-06241222503D

 40 41  0     1  0  0  0  0  0999 V2000
   -4.0517    3.3707   -0.4792 Cl  0  0  0  0  0  0  0  0  0  0  0  0
    2.5218   -0.5474    2.1799 O   0  0  0  0  0  0  0  0  0  0  0  0
    2.2943   -1.3589   -2.3472 O   0  0  0  0  0  0  0  0  0  0  0  0
   -0.0350    0.6104   -0.2048 O   0  0  0  0  0  0  0  0  0  0  0  0
    3.9421   -0.4331   -0.9808 N   0  0  0  0  0  0  0  0  0  0  0  0
    2.0385   -1.1059   -0.0361 N   0  0  0  0  0  0  0  0  0  0  0  0
   -1.6147   -1.0936    0.1408 N   0  0  0  0  0  0  0  0  0  0  0  0
    4.1364   -0.1355    0.4155 C   0  0  1  0  0  0  0  0  0  0  0  0
    4.3588    1.3422    0.6625 C   0  0  0  0  0  0  0  0  0  0  0  0
    2.8110   -0.6125    0.9922 C   0  0  0  0  0  0  0  0  0  0  0  0
    3.2316    2.1777    0.0489 C   0  0  0  0  0  0  0  0  0  0  0  0
    5.7121    1.7946    0.1061 C   0  0  0  0  0  0  0  0  0  0  0  0
    2.6983   -1.0087   -1.2460 C   0  0  0  0  0  0  0  0  0  0  0  0
    0.7078   -1.6553    0.1296 C   0  0  0  0  0  0  0  0  0  0  0  0
   -0.3363   -0.5613   -0.0025 C   0  0  0  0  0  0  0  0  0  0  0  0
   -2.8485   -0.4027    0.0828 C   0  0  0  0  0  0  0  0  0  0  0  0
   -4.0560   -1.0813    0.2465 C   0  0  0  0  0  0  0  0  0  0  0  0
   -2.8468    0.9738   -0.1416 C   0  0  0  0  0  0  0  0  0  0  0  0
   -5.2621   -0.3831    0.1859 C   0  0  0  0  0  0  0  0  0  0  0  0
   -4.0882   -2.5555    0.4880 C   0  0  0  0  0  0  0  0  0  0  0  0
   -4.0528    1.6721   -0.2023 C   0  0  0  0  0  0  0  0  0  0  0  0
   -5.2606    0.9936   -0.0384 C   0  0  0  0  0  0  0  0  0  0  0  0
    4.9482   -0.7624    0.7975 H   0  0  0  0  0  0  0  0  0  0  0  0
    4.3634    1.5254    1.7448 H   0  0  0  0  0  0  0  0  0  0  0  0
    4.6468   -0.2836   -1.6961 H   0  0  0  0  0  0  0  0  0  0  0  0
    3.1678    2.0644   -1.0382 H   0  0  0  0  0  0  0  0  0  0  0  0
    2.2586    1.9316    0.4835 H   0  0  0  0  0  0  0  0  0  0  0  0
    3.4042    3.2415    0.2497 H   0  0  0  0  0  0  0  0  0  0  0  0
    5.7577    1.7011   -0.9839 H   0  0  0  0  0  0  0  0  0  0  0  0
    6.5263    1.2005    0.5342 H   0  0  0  0  0  0  0  0  0  0  0  0
    5.8987    2.8443    0.3576 H   0  0  0  0  0  0  0  0  0  0  0  0
    0.6251   -2.1073    1.1236 H   0  0  0  0  0  0  0  0  0  0  0  0
    0.5312   -2.4122   -0.6419 H   0  0  0  0  0  0  0  0  0  0  0  0
   -1.6745   -2.0948    0.3064 H   0  0  0  0  0  0  0  0  0  0  0  0
   -1.9495    1.5602   -0.2769 H   0  0  0  0  0  0  0  0  0  0  0  0
   -6.2122   -0.8958    0.3114 H   0  0  0  0  0  0  0  0  0  0  0  0
   -3.6357   -3.0933   -0.3517 H   0  0  0  0  0  0  0  0  0  0  0  0
   -3.5577   -2.8060    1.4127 H   0  0  0  0  0  0  0  0  0  0  0  0
   -5.1134   -2.9273    0.5939 H   0  0  0  0  0  0  0  0  0  0  0  0
   -6.2080    1.5247   -0.0833 H   0  0  0  0  0  0  0  0  0  0  0  0
  1 21  1  0  0  0  0
  2 10  2  0  0  0  0
  3 13  2  0  0  0  0
  4 15  2  0  0  0  0
  5  8  1  0  0  0  0
  5 13  1  0  0  0  0
  5 25  1  0  0  0  0
  6 10  1  0  0  0  0
  6 13  1  0  0  0  0
  6 14  1  0  0  0  0
  7 15  1  0  0  0  0
  7 16  1  0  0  0  0
  7 34  1  0  0  0  0
  8  9  1  0  0  0  0
  8 10  1  0  0  0  0
  8 23  1  0  0  0  0
  9 11  1  0  0  0  0
  9 12  1  0  0  0  0
  9 24  1  0  0  0  0
 11 26  1  0  0  0  0
 11 27  1  0  0  0  0
 11 28  1  0  0  0  0
 12 29  1  0  0  0  0
 12 30  1  0  0  0  0
 12 31  1  0  0  0  0
 14 15  1  0  0  0  0
 14 32  1  0  0  0  0
 14 33  1  0  0  0  0
 16 17  2  0  0  0  0
 16 18  1  0  0  0  0
 17 19  1  0  0  0  0
 17 20  1  0  0  0  0
 18 21  2  0  0  0  0
 18 35  1  0  0  0  0
 19 22  2  0  0  0  0
 19 36  1  0  0  0  0
 20 37  1  0  0  0  0
 20 38  1  0  0  0  0
 20 39  1  0  0  0  0
 21 22  1  0  0  0  0
 22 40  1  0  0  0  0
M  END
> <PUBCHEM_COMPOUND_CID>
17395456

> <PUBCHEM_CONFORMER_RMSD>
0.8

> <PUBCHEM_CONFORMER_DIVERSEORDER>
1
36
44
129
143
135
32
142
118
111
16
57
139
128
103
82
29
27
37
140
124
99
10
141
33
116
15
67
110
23
35
40
34
127
113
58
4
79
90
25
95
125
83
130
62
131
86
28
43
81
55
105
30
80
18
123
75
87
39
108
26
106
47
115
112
20
133
61
97
96
76
138
3
137
104
126
101
66
8
120
107
121
54
22
117
45
24
63
136
100
73
64
72
68
53
74
2
144
52
11
50
31
84
89
119
102
38
60
122
17
19
91
109
94
71
77
51
6
49
132
59
14
21
145
98
41
134
92
88
56
9
65
114
78
85
42
13
70
93
46
12
69
48
7
5

> <PUBCHEM_MMFF94_PARTIAL_CHARGES>
24
1 -0.18
10 0.57
13 0.69
14 0.36
15 0.57
16 0.12
17 -0.14
18 -0.15
19 -0.15
2 -0.57
20 0.14
21 0.18
22 -0.15
25 0.37
3 -0.57
34 0.37
35 0.15
36 0.15
4 -0.57
40 0.15
5 -0.73
6 -0.42
7 -0.55
8 0.36

> <PUBCHEM_EFFECTIVE_ROTOR_COUNT>
5.6

> <PUBCHEM_PHARMACOPHORE_FEATURES>
8
1 2 acceptor
1 3 acceptor
1 4 acceptor
1 5 donor
1 7 donor
3 9 11 12 hydrophobe
5 5 6 8 10 13 rings
6 16 17 18 19 21 22 rings

> <PUBCHEM_HEAVY_ATOM_COUNT>
22

> <PUBCHEM_ATOM_DEF_STEREO_COUNT>
0

> <PUBCHEM_ATOM_UDEF_STEREO_COUNT>
1

> <PUBCHEM_BOND_DEF_STEREO_COUNT>
0

> <PUBCHEM_BOND_UDEF_STEREO_COUNT>
0

> <PUBCHEM_ISOTOPIC_ATOM_COUNT>
0

> <PUBCHEM_COMPONENT_COUNT>
1

> <PUBCHEM_CACTVS_TAUTO_COUNT>
4

> <PUBCHEM_CONFORMER_ID>
01096F0000000001

> <PUBCHEM_MMFF94_ENERGY>
49.0038

> <PUBCHEM_FEATURE_SELFOVERLAP>
40.594

> <PUBCHEM_SHAPE_FINGERPRINT>
10319926 262 18340220664739703922
10498660 4 18336826502013968897
10646746 165 18412544335784629373
11595378 159 17489033750760450393
12107183 9 17768264757266309881
12236239 1 17418091040122478051
12596602 18 17418097589863144033
12730499 353 17749383737763185774
12788726 201 16555062201086430642
12916748 109 18342452656200889323
13224815 77 18412263939119023041
13402501 40 18409731742286946824
14251764 38 18343015567120589325
14341114 328 18060428997159856160
14739800 52 18270697393448491312
15196674 1 18411702088629977624
15961568 22 18341048523691454684
17844677 252 18410005572226463299
19377110 9 17346588647985281715
20369508 70 11887958735582636990
20511986 3 17632312180617599739
20645477 70 16950841530499747551
21033648 29 17749402485210563097
21315763 129 18411421674478657464
21452121 103 18410578392505328186
22289505 5 17968377948270560208
23227448 37 18261114006786833159
23557571 272 18335696178438296677
23559900 14 18190459565622025742
245318 6 16913393028047174628
2838139 119 18191032214476816484
300161 21 17846506928465237307
3060560 45 15791453717038099214
341906 21 18272652380656310941
34797466 226 18114175333291561893
4325135 7 18188493458748650783
5104073 3 18130223873766915985
5281201 14 18040708212222161286
633830 44 18335989752195624375
7808743 9 18337114441164048618
90127 26 18340759420714909571

> <PUBCHEM_SHAPE_MULTIPOLES>
422.07
13.22
2.69
1.17
1.07
1.61
0.22
5.15
-0.79
2.31
0.18
-1.42
-0.47
1.18

> <PUBCHEM_SHAPE_SELFOVERLAP>
879.283

> <PUBCHEM_SHAPE_VOLUME>
242.4

> <PUBCHEM_COORDINATE_TYPE>
2
5
10

$$$$

