7521
  -OEChem-06261202073D

 15 15  0     0  0  0  0  0  0999 V2000
    0.1579    1.0477    0.0042 N   0  0  0  0  0  0  0  0  0  0  0  0
    0.4998   -0.2602    0.0037 C   0  0  0  0  0  0  0  0  0  0  0  0
   -0.4148   -1.3011   -0.0001 C   0  0  0  0  0  0  0  0  0  0  0  0
   -1.7675   -0.9788   -0.0035 C   0  0  0  0  0  0  0  0  0  0  0  0
   -2.1585    0.3555   -0.0029 C   0  0  0  0  0  0  0  0  0  0  0  0
   -1.1658    1.3222    0.0010 C   0  0  0  0  0  0  0  0  0  0  0  0
    1.9253   -0.5465    0.0072 C   0  0  0  0  0  0  0  0  0  0  0  0
    2.9236    0.3612   -0.0095 C   0  0  0  0  0  0  0  0  0  0  0  0
   -0.1065   -2.3417   -0.0007 H   0  0  0  0  0  0  0  0  0  0  0  0
   -2.5155   -1.7658   -0.0066 H   0  0  0  0  0  0  0  0  0  0  0  0
   -3.2071    0.6301   -0.0055 H   0  0  0  0  0  0  0  0  0  0  0  0
   -1.4183    2.3774    0.0016 H   0  0  0  0  0  0  0  0  0  0  0  0
    2.2076   -1.5971    0.0226 H   0  0  0  0  0  0  0  0  0  0  0  0
    3.9568    0.0294   -0.0061 H   0  0  0  0  0  0  0  0  0  0  0  0
    2.7405    1.4297   -0.0270 H   0  0  0  0  0  0  0  0  0  0  0  0
  1  2  1  0  0  0  0
  1  6  2  0  0  0  0
  2  3  2  0  0  0  0
  2  7  1  0  0  0  0
  3  4  1  0  0  0  0
  3  9  1  0  0  0  0
  4  5  2  0  0  0  0
  4 10  1  0  0  0  0
  5  6  1  0  0  0  0
  5 11  1  0  0  0  0
  6 12  1  0  0  0  0
  7  8  2  0  0  0  0
  7 13  1  0  0  0  0
  8 14  1  0  0  0  0
  8 15  1  0  0  0  0
M  END
> <PUBCHEM_COMPOUND_CID>
7521

> <PUBCHEM_CONFORMER_RMSD>
0.4

> <PUBCHEM_CONFORMER_DIVERSEORDER>
1
2

> <PUBCHEM_MMFF94_PARTIAL_CHARGES>
15
1 -0.62
10 0.15
11 0.15
12 0.15
13 0.15
14 0.15
15 0.15
2 0.34
3 -0.15
4 -0.15
5 -0.15
6 0.16
7 -0.18
8 -0.3
9 0.15

> <PUBCHEM_EFFECTIVE_ROTOR_COUNT>
1

> <PUBCHEM_PHARMACOPHORE_FEATURES>
3
1 1 acceptor
1 8 hydrophobe
6 1 2 3 4 5 6 rings

> <PUBCHEM_HEAVY_ATOM_COUNT>
8

> <PUBCHEM_ATOM_DEF_STEREO_COUNT>
0

> <PUBCHEM_ATOM_UDEF_STEREO_COUNT>
0

> <PUBCHEM_BOND_DEF_STEREO_COUNT>
0

> <PUBCHEM_BOND_UDEF_STEREO_COUNT>
0

> <PUBCHEM_ISOTOPIC_ATOM_COUNT>
0

> <PUBCHEM_COMPONENT_COUNT>
1

> <PUBCHEM_CACTVS_TAUTO_COUNT>
1

> <PUBCHEM_CONFORMER_ID>
00001D6100000001

> <PUBCHEM_MMFF94_ENERGY>
18.6859

> <PUBCHEM_FEATURE_SELFOVERLAP>
15.223

> <PUBCHEM_SHAPE_FINGERPRINT>
10857977 72 18337681806101179250
12897270 3 18408885135618241478
14325111 11 18410855499088848544
14390081 3 18334298664852402368
16714656 1 18409728460725561167
21040471 1 18266460003971987425
23552423 10 18272366524929282150
29004967 10 18411131407561265866
369184 2 16128659643382747280
5084963 1 18262238936052087586

> <PUBCHEM_SHAPE_MULTIPOLES>
159.66
3.42
1.36
0.61
1.97
0.03
0
0.24
-0.01
-0.46
0
0
-0.01
0

> <PUBCHEM_SHAPE_SELFOVERLAP>
327.104

> <PUBCHEM_SHAPE_VOLUME>
91.6

> <PUBCHEM_COORDINATE_TYPE>
2
5
10

$$$$

