3676
  -OEChem-07051212523D

 39 39  0     0  0  0  0  0  0999 V2000
    0.6658   -0.1341    1.4612 O   0  0  0  0  0  0  0  0  0  0  0  0
    3.0943   -0.0513    0.1541 N   0  0  0  0  0  0  0  0  0  0  0  0
   -0.3988   -0.3956   -0.6150 N   0  0  0  0  0  0  0  0  0  0  0  0
    1.9647   -0.7259   -0.4841 C   0  0  0  0  0  0  0  0  0  0  0  0
    2.9035    1.3985    0.1306 C   0  0  0  0  0  0  0  0  0  0  0  0
    4.3466   -0.4130   -0.5090 C   0  0  0  0  0  0  0  0  0  0  0  0
   -1.7556   -0.1301   -0.3123 C   0  0  0  0  0  0  0  0  0  0  0  0
    0.6855   -0.3834    0.2600 C   0  0  0  0  0  0  0  0  0  0  0  0
   -2.5858   -1.1738    0.0688 C   0  0  0  0  0  0  0  0  0  0  0  0
   -2.2323    1.1693   -0.4028 C   0  0  0  0  0  0  0  0  0  0  0  0
    4.0688    2.1164    0.7901 C   0  0  0  0  0  0  0  0  0  0  0  0
    4.5916   -1.9108   -0.4404 C   0  0  0  0  0  0  0  0  0  0  0  0
   -3.9233   -0.9124    0.3660 C   0  0  0  0  0  0  0  0  0  0  0  0
   -3.5698    1.4306   -0.1054 C   0  0  0  0  0  0  0  0  0  0  0  0
   -2.0884   -2.5795    0.1705 C   0  0  0  0  0  0  0  0  0  0  0  0
   -1.3515    2.3053   -0.8116 C   0  0  0  0  0  0  0  0  0  0  0  0
   -4.4152    0.3898    0.2790 C   0  0  0  0  0  0  0  0  0  0  0  0
    1.8847   -0.4518   -1.5436 H   0  0  0  0  0  0  0  0  0  0  0  0
    2.0397   -1.8162   -0.4137 H   0  0  0  0  0  0  0  0  0  0  0  0
    2.7853    1.7718   -0.8951 H   0  0  0  0  0  0  0  0  0  0  0  0
    2.0086    1.7019    0.6821 H   0  0  0  0  0  0  0  0  0  0  0  0
    4.3689   -0.0807   -1.5546 H   0  0  0  0  0  0  0  0  0  0  0  0
    5.2034    0.0400   -0.0004 H   0  0  0  0  0  0  0  0  0  0  0  0
   -0.2548   -0.8084   -1.5341 H   0  0  0  0  0  0  0  0  0  0  0  0
    4.3240    1.6745    1.7594 H   0  0  0  0  0  0  0  0  0  0  0  0
    4.9621    2.1381    0.1583 H   0  0  0  0  0  0  0  0  0  0  0  0
    3.7962    3.1622    0.9729 H   0  0  0  0  0  0  0  0  0  0  0  0
    4.4517   -2.2992    0.5743 H   0  0  0  0  0  0  0  0  0  0  0  0
    3.9507   -2.4717   -1.1274 H   0  0  0  0  0  0  0  0  0  0  0  0
    5.6255   -2.1273   -0.7326 H   0  0  0  0  0  0  0  0  0  0  0  0
   -4.5959   -1.7110    0.6676 H   0  0  0  0  0  0  0  0  0  0  0  0
   -3.9698    2.4393   -0.1669 H   0  0  0  0  0  0  0  0  0  0  0  0
   -1.6513   -2.9034   -0.7798 H   0  0  0  0  0  0  0  0  0  0  0  0
   -1.3364   -2.6621    0.9619 H   0  0  0  0  0  0  0  0  0  0  0  0
   -2.8950   -3.2811    0.4096 H   0  0  0  0  0  0  0  0  0  0  0  0
   -0.8715    2.0953   -1.7733 H   0  0  0  0  0  0  0  0  0  0  0  0
   -1.9161    3.2364   -0.9311 H   0  0  0  0  0  0  0  0  0  0  0  0
   -0.5811    2.4817   -0.0539 H   0  0  0  0  0  0  0  0  0  0  0  0
   -5.4566    0.5935    0.5110 H   0  0  0  0  0  0  0  0  0  0  0  0
  1  8  2  0  0  0  0
  2  4  1  0  0  0  0
  2  5  1  0  0  0  0
  2  6  1  0  0  0  0
  3  7  1  0  0  0  0
  3  8  1  0  0  0  0
  3 24  1  0  0  0  0
  4  8  1  0  0  0  0
  4 18  1  0  0  0  0
  4 19  1  0  0  0  0
  5 11  1  0  0  0  0
  5 20  1  0  0  0  0
  5 21  1  0  0  0  0
  6 12  1  0  0  0  0
  6 22  1  0  0  0  0
  6 23  1  0  0  0  0
  7  9  2  0  0  0  0
  7 10  1  0  0  0  0
  9 13  1  0  0  0  0
  9 15  1  0  0  0  0
 10 14  2  0  0  0  0
 10 16  1  0  0  0  0
 11 25  1  0  0  0  0
 11 26  1  0  0  0  0
 11 27  1  0  0  0  0
 12 28  1  0  0  0  0
 12 29  1  0  0  0  0
 12 30  1  0  0  0  0
 13 17  2  0  0  0  0
 13 31  1  0  0  0  0
 14 17  1  0  0  0  0
 14 32  1  0  0  0  0
 15 33  1  0  0  0  0
 15 34  1  0  0  0  0
 15 35  1  0  0  0  0
 16 36  1  0  0  0  0
 16 37  1  0  0  0  0
 16 38  1  0  0  0  0
 17 39  1  0  0  0  0
M  END
> <PUBCHEM_COMPOUND_CID>
3676

> <PUBCHEM_CONFORMER_RMSD>
0.8

> <PUBCHEM_CONFORMER_DIVERSEORDER>
1
5
3
6
2
7
4

> <PUBCHEM_MMFF94_PARTIAL_CHARGES>
19
1 -0.57
10 -0.14
13 -0.15
14 -0.15
15 0.14
16 0.14
17 -0.15
2 -0.81
24 0.37
3 -0.55
31 0.15
32 0.15
39 0.15
4 0.33
5 0.27
6 0.27
7 0.12
8 0.57
9 -0.14

> <PUBCHEM_EFFECTIVE_ROTOR_COUNT>
6

> <PUBCHEM_PHARMACOPHORE_FEATURES>
4
1 1 acceptor
1 2 cation
1 3 donor
6 7 9 10 13 14 17 rings

> <PUBCHEM_HEAVY_ATOM_COUNT>
17

> <PUBCHEM_ATOM_DEF_STEREO_COUNT>
0

> <PUBCHEM_ATOM_UDEF_STEREO_COUNT>
0

> <PUBCHEM_BOND_DEF_STEREO_COUNT>
0

> <PUBCHEM_BOND_UDEF_STEREO_COUNT>
0

> <PUBCHEM_ISOTOPIC_ATOM_COUNT>
0

> <PUBCHEM_COMPONENT_COUNT>
1

> <PUBCHEM_CACTVS_TAUTO_COUNT>
2

> <PUBCHEM_CONFORMER_ID>
00000E5C00000001

> <PUBCHEM_MMFF94_ENERGY>
60.931

> <PUBCHEM_FEATURE_SELFOVERLAP>
20.297

> <PUBCHEM_SHAPE_FINGERPRINT>
10608611 8 18409171004251745180
11132069 177 18272092656197130525
11405975 8 18408322190028586810
11715629 250 18343029882303998380
12173636 292 18340774818510275901
12186901 62 18200876287412234045
12969540 114 18129121038161675861
13081056 2 18409729568880052948
14341114 176 18410285926443627916
14866123 147 16676115592953507742
15196674 1 18410292501769799045
15219456 202 18334577919188518116
15536298 74 18410292488979901252
17804303 29 18411414050911415046
17834074 16 18409728478106189254
18186145 218 18130794464372236518
20510252 161 18336264630640703377
20645477 56 18412545405210367460
20645477 70 17676200278272878638
21065198 57 18409166610547596198
21065199 12 18409729521814604922
21267235 1 18343290475402955911
21652331 79 18412546487595354356
221490 88 18409724033258123562
2297311 6 18340472456669800414
23175994 123 17386001805844574641
23402539 116 18409735079876917143
23557571 272 18337380531383288724
23559900 14 18407761447973114034
2838139 119 15864911101258703657
3004659 81 18128526262865419190
3545911 37 18408602531244765736
4214541 1 18410009965909552158
474 4 17346030040170275036
5104073 3 18410291402104905482
5281201 14 18408038520455469548
633830 44 17346313774246730126
77779 3 18409165502351029790
9709674 26 18410008802042441486

> <PUBCHEM_SHAPE_MULTIPOLES>
334.02
9.57
2.38
0.87
5.28
0.08
0.1
-0.23
0.27
0.29
-0.08
0.22
0.12
1.14

> <PUBCHEM_SHAPE_SELFOVERLAP>
672.764

> <PUBCHEM_SHAPE_VOLUME>
198.5

> <PUBCHEM_COORDINATE_TYPE>
2
5
10

$$$$

