5282094
  -OEChem-07051213033D

 24 24  0     0  0  0  0  0  0999 V2000
    1.8330   -2.1359    0.4520 O   0  0  0  0  0  0  0  0  0  0  0  0
    3.5282    0.0188    0.0595 O   0  0  0  0  0  0  0  0  0  0  0  0
    2.4662    2.5525   -0.2926 O   0  0  0  0  0  0  0  0  0  0  0  0
   -5.2652   -0.6594   -0.1836 O   0  0  0  0  0  0  0  0  0  0  0  0
   -0.5860    0.5844    0.1215 C   0  0  0  0  0  0  0  0  0  0  0  0
    1.3269   -0.8831    0.2773 C   0  0  0  0  0  0  0  0  0  0  0  0
   -0.0548   -0.6932    0.2984 C   0  0  0  0  0  0  0  0  0  0  0  0
    2.1776    0.2045    0.0791 C   0  0  0  0  0  0  0  0  0  0  0  0
    0.2648    1.6721   -0.0764 C   0  0  0  0  0  0  0  0  0  0  0  0
    1.6465    1.4821   -0.0978 C   0  0  0  0  0  0  0  0  0  0  0  0
   -2.0265    0.7841    0.1456 C   0  0  0  0  0  0  0  0  0  0  0  0
   -2.9531   -0.1777   -0.0537 C   0  0  0  0  0  0  0  0  0  0  0  0
    2.0286   -2.9250   -0.7197 C   0  0  0  0  0  0  0  0  0  0  0  0
   -4.3863    0.1761   -0.0095 C   0  0  0  0  0  0  0  0  0  0  0  0
   -0.6848   -1.5609    0.4744 H   0  0  0  0  0  0  0  0  0  0  0  0
   -0.1446    2.6704   -0.2160 H   0  0  0  0  0  0  0  0  0  0  0  0
   -2.3556    1.8050    0.3294 H   0  0  0  0  0  0  0  0  0  0  0  0
   -2.7169   -1.2132   -0.2656 H   0  0  0  0  0  0  0  0  0  0  0  0
    1.0750   -3.0983   -1.2285 H   0  0  0  0  0  0  0  0  0  0  0  0
    2.4441   -3.8902   -0.4174 H   0  0  0  0  0  0  0  0  0  0  0  0
    2.7344   -2.4378   -1.3998 H   0  0  0  0  0  0  0  0  0  0  0  0
    3.9544    0.8806   -0.0893 H   0  0  0  0  0  0  0  0  0  0  0  0
    1.9240    3.3533   -0.3959 H   0  0  0  0  0  0  0  0  0  0  0  0
   -4.6219    1.2345    0.1908 H   0  0  0  0  0  0  0  0  0  0  0  0
  1  6  1  0  0  0  0
  1 13  1  0  0  0  0
  2  8  1  0  0  0  0
  2 22  1  0  0  0  0
  3 10  1  0  0  0  0
  3 23  1  0  0  0  0
  4 14  2  0  0  0  0
  5  7  1  0  0  0  0
  5  9  2  0  0  0  0
  5 11  1  0  0  0  0
  6  7  2  0  0  0  0
  6  8  1  0  0  0  0
  7 15  1  0  0  0  0
  8 10  2  0  0  0  0
  9 10  1  0  0  0  0
  9 16  1  0  0  0  0
 11 12  2  0  0  0  0
 11 17  1  0  0  0  0
 12 14  1  0  0  0  0
 12 18  1  0  0  0  0
 13 19  1  0  0  0  0
 13 20  1  0  0  0  0
 13 21  1  0  0  0  0
 14 24  1  0  0  0  0
M  END
> <PUBCHEM_COMPOUND_CID>
5282094

> <PUBCHEM_CONFORMER_RMSD>
0.6

> <PUBCHEM_CONFORMER_DIVERSEORDER>
1
3
4
5
2

> <PUBCHEM_MMFF94_PARTIAL_CHARGES>
21
1 -0.36
10 0.08
11 -0.18
12 -0.14
13 0.28
14 0.5
15 0.15
16 0.15
17 0.15
18 0.15
2 -0.53
22 0.45
23 0.45
24 0.06
3 -0.53
4 -0.57
5 0.03
6 0.08
7 -0.15
8 0.08
9 -0.15

> <PUBCHEM_EFFECTIVE_ROTOR_COUNT>
3

> <PUBCHEM_PHARMACOPHORE_FEATURES>
5
1 1 acceptor
1 2 donor
1 3 donor
1 4 acceptor
6 5 6 7 8 9 10 rings

> <PUBCHEM_HEAVY_ATOM_COUNT>
14

> <PUBCHEM_ATOM_DEF_STEREO_COUNT>
0

> <PUBCHEM_ATOM_UDEF_STEREO_COUNT>
0

> <PUBCHEM_BOND_DEF_STEREO_COUNT>
1

> <PUBCHEM_BOND_UDEF_STEREO_COUNT>
0

> <PUBCHEM_ISOTOPIC_ATOM_COUNT>
0

> <PUBCHEM_COMPONENT_COUNT>
1

> <PUBCHEM_CACTVS_TAUTO_COUNT>
10

> <PUBCHEM_CONFORMER_ID>
0050992E00000001

> <PUBCHEM_MMFF94_ENERGY>
43.8388

> <PUBCHEM_FEATURE_SELFOVERLAP>
25.376

> <PUBCHEM_SHAPE_FINGERPRINT>
10980938 120 18410576167279901537
11471102 20 18412827954140204053
11806522 49 18411981394400134522
12346645 6 18410294692023466660
13380535 76 18270681965424530794
13836976 161 18341892944083064743
14251717 144 18411419505567385883
14252887 29 18336543906077096419
14415576 193 18271805688073435941
14576447 43 18261965055010384991
15442244 35 18120651585649644145
15477762 27 18410293644157077807
16945 1 18339349842755830280
17990270 104 18339643467862549546
18186145 218 17632016450918623321
19422 9 18260545662934632563
20201158 50 18343862225469904539
20559304 39 18335140911959860697
20645477 70 18412549816885825959
20671657 53 18195526115350341491
20708731 107 18411415133142901158
20871998 22 18192714672692202618
21501925 9 18340216287719434547
221490 88 18341604898223668051
2255824 54 18338233769460068652
23402655 69 18411423912657668381
23530152 11 18194116322415836582
23557571 272 17275110544152265101
2748010 2 17979364375787126500
3060560 45 18411413973791940452
3071541 37 18272082765050867820
33824 294 18412827958450904803
581208 293 18411141303392749577
7364860 26 18408040719193634960
81539 233 18272089340323927757
8272917 22 18408598189117030783
9709674 26 18413666920615438755

> <PUBCHEM_SHAPE_MULTIPOLES>
264.64
6.91
2.46
0.66
10.62
0.78
-0.01
1.33
-0.47
-2.93
-0.44
-0.1
0.12
-0.03

> <PUBCHEM_SHAPE_SELFOVERLAP>
550.835

> <PUBCHEM_SHAPE_VOLUME>
151.2

> <PUBCHEM_COORDINATE_TYPE>
2
5
10

$$$$

