519382
  -OEChem-07051212483D

 36 36  0     0  0  0  0  0  0999 V2000
   -3.6371   -0.1428    1.1293 O   0  0  0  0  0  0  0  0  0  0  0  0
    1.2733   -1.1564    0.0127 C   0  0  0  0  0  0  0  0  0  0  0  0
    2.6031   -0.9428   -0.7578 C   0  0  0  0  0  0  0  0  0  0  0  0
    0.5364    0.1778    0.2526 C   0  0  0  0  0  0  0  0  0  0  0  0
    3.4073    0.2191   -0.1992 C   0  0  0  0  0  0  0  0  0  0  0  0
    2.6057    1.5096   -0.2963 C   0  0  0  0  0  0  0  0  0  0  0  0
    1.1461    1.3766    0.0807 C   0  0  0  0  0  0  0  0  0  0  0  0
    1.5771   -1.8284    1.3701 C   0  0  0  0  0  0  0  0  0  0  0  0
    0.4196   -2.1266   -0.8334 C   0  0  0  0  0  0  0  0  0  0  0  0
   -0.9040    0.0672    0.7024 C   0  0  0  0  0  0  0  0  0  0  0  0
    0.4572    2.7121    0.2151 C   0  0  0  0  0  0  0  0  0  0  0  0
   -1.8514    0.0992   -0.4834 C   0  0  0  0  0  0  0  0  0  0  0  0
   -3.3019   -0.0117   -0.0469 C   0  0  0  0  0  0  0  0  0  0  0  0
   -4.3313    0.0471   -1.1457 C   0  0  0  0  0  0  0  0  0  0  0  0
    2.3951   -0.7445   -1.8186 H   0  0  0  0  0  0  0  0  0  0  0  0
    3.2130   -1.8547   -0.7311 H   0  0  0  0  0  0  0  0  0  0  0  0
    4.3456    0.3276   -0.7554 H   0  0  0  0  0  0  0  0  0  0  0  0
    3.6849    0.0273    0.8435 H   0  0  0  0  0  0  0  0  0  0  0  0
    2.6588    1.8866   -1.3259 H   0  0  0  0  0  0  0  0  0  0  0  0
    3.0865    2.2611    0.3419 H   0  0  0  0  0  0  0  0  0  0  0  0
    2.1938   -2.7248    1.2369 H   0  0  0  0  0  0  0  0  0  0  0  0
    2.1121   -1.1544    2.0481 H   0  0  0  0  0  0  0  0  0  0  0  0
    0.6626   -2.1450    1.8834 H   0  0  0  0  0  0  0  0  0  0  0  0
    0.1605   -1.6930   -1.8055 H   0  0  0  0  0  0  0  0  0  0  0  0
    0.9823   -3.0460   -1.0396 H   0  0  0  0  0  0  0  0  0  0  0  0
   -0.4965   -2.4403   -0.3229 H   0  0  0  0  0  0  0  0  0  0  0  0
   -1.0586   -0.8485    1.2844 H   0  0  0  0  0  0  0  0  0  0  0  0
   -1.1503    0.8668    1.4120 H   0  0  0  0  0  0  0  0  0  0  0  0
    0.6175    3.3067   -0.6911 H   0  0  0  0  0  0  0  0  0  0  0  0
    0.8741    3.2631    1.0646 H   0  0  0  0  0  0  0  0  0  0  0  0
   -0.6228    2.6502    0.3598 H   0  0  0  0  0  0  0  0  0  0  0  0
   -1.6796   -0.7135   -1.1899 H   0  0  0  0  0  0  0  0  0  0  0  0
   -1.7483    1.0429   -1.0313 H   0  0  0  0  0  0  0  0  0  0  0  0
   -4.1719   -0.7800   -1.8418 H   0  0  0  0  0  0  0  0  0  0  0  0
   -5.3337   -0.0399   -0.7173 H   0  0  0  0  0  0  0  0  0  0  0  0
   -4.2533    1.0027   -1.6700 H   0  0  0  0  0  0  0  0  0  0  0  0
  1 13  2  0  0  0  0
  2  3  1  0  0  0  0
  2  4  1  0  0  0  0
  2  8  1  0  0  0  0
  2  9  1  0  0  0  0
  3  5  1  0  0  0  0
  3 15  1  0  0  0  0
  3 16  1  0  0  0  0
  4  7  2  0  0  0  0
  4 10  1  0  0  0  0
  5  6  1  0  0  0  0
  5 17  1  0  0  0  0
  5 18  1  0  0  0  0
  6  7  1  0  0  0  0
  6 19  1  0  0  0  0
  6 20  1  0  0  0  0
  7 11  1  0  0  0  0
  8 21  1  0  0  0  0
  8 22  1  0  0  0  0
  8 23  1  0  0  0  0
  9 24  1  0  0  0  0
  9 25  1  0  0  0  0
  9 26  1  0  0  0  0
 10 12  1  0  0  0  0
 10 27  1  0  0  0  0
 10 28  1  0  0  0  0
 11 29  1  0  0  0  0
 11 30  1  0  0  0  0
 11 31  1  0  0  0  0
 12 13  1  0  0  0  0
 12 32  1  0  0  0  0
 12 33  1  0  0  0  0
 13 14  1  0  0  0  0
 14 34  1  0  0  0  0
 14 35  1  0  0  0  0
 14 36  1  0  0  0  0
M  END
> <PUBCHEM_COMPOUND_CID>
519382

> <PUBCHEM_CONFORMER_RMSD>
0.6

> <PUBCHEM_CONFORMER_DIVERSEORDER>
1
9
13
5
15
11
7
14
6
10
16
4
12
2
8
3

> <PUBCHEM_MMFF94_PARTIAL_CHARGES>
10
1 -0.57
10 0.14
11 0.14
12 0.06
13 0.45
14 0.06
2 0.14
4 -0.28
6 0.14
7 -0.28

> <PUBCHEM_EFFECTIVE_ROTOR_COUNT>
3.8

> <PUBCHEM_PHARMACOPHORE_FEATURES>
3
1 1 acceptor
3 2 8 9 hydrophobe
6 2 3 4 5 6 7 rings

> <PUBCHEM_HEAVY_ATOM_COUNT>
14

> <PUBCHEM_ATOM_DEF_STEREO_COUNT>
0

> <PUBCHEM_ATOM_UDEF_STEREO_COUNT>
0

> <PUBCHEM_BOND_DEF_STEREO_COUNT>
0

> <PUBCHEM_BOND_UDEF_STEREO_COUNT>
0

> <PUBCHEM_ISOTOPIC_ATOM_COUNT>
0

> <PUBCHEM_COMPONENT_COUNT>
1

> <PUBCHEM_CACTVS_TAUTO_COUNT>
3

> <PUBCHEM_CONFORMER_ID>
0007ECD600000001

> <PUBCHEM_MMFF94_ENERGY>
23.4805

> <PUBCHEM_FEATURE_SELFOVERLAP>
15.223

> <PUBCHEM_SHAPE_FINGERPRINT>
10219947 1 18335137600502957222
10980938 120 18409168813633645605
11471102 20 18411139129933615029
116883 192 17758682530700060773
12654215 9 18343309179542431524
12932764 1 18131350813119432763
14251717 144 18335424551747593317
14993402 34 18260265239686917310
15757776 16 18411140263878671638
15775835 57 18340485556430660516
15852999 172 16486963025122811770
16945 1 18131343133538332120
18186145 218 18188762851671082149
19422 9 17458620133891333407
20201158 50 18272369788993241651
20279233 1 17704072893757694451
20606313 2 18410294696413541972
20645477 70 18410860988305232887
21501502 16 18126570252061899013
21524375 3 17979077085082019992
21639500 275 18336551499721778309
21730867 7 18413107247283785615
22289505 5 18270697466663531661
231179 274 18202009815017444519
23402539 116 18186524328007231062
23402655 69 18408890650546446157
23598291 2 17968090962961377333
25 1 18340481171358871244
257057 1 17552090905853738578
2748010 2 18048299060686726028
3060560 45 18261398836096130855
4072396 5 18199488665262779144
528886 8 18261110751391519898
77492 1 17530956990987161001
81228 2 17545606011884462649
81539 233 18130508548241060350
8272917 22 18261387910358673543

> <PUBCHEM_SHAPE_MULTIPOLES>
282.24
6.05
2.19
1.07
6.77
0.58
-0.13
0.08
1.12
-1.56
-0.09
0.31
-0.37
-0.13

> <PUBCHEM_SHAPE_SELFOVERLAP>
556.944

> <PUBCHEM_SHAPE_VOLUME>
168.8

> <PUBCHEM_COORDINATE_TYPE>
2
5
10

$$$$

