14727313
  -OEChem-07051213152D

 85 92  0     1  0  0  0  0  0999 V2000
    4.2892    0.3349    0.0000 O   0  0  0  0  0  0  0  0  0  0  0  0
    4.4182   -1.8322    0.0000 N   0  0  3  0  0  0  0  0  0  0  0  0
    7.6917   -2.7052    0.0000 N   0  0  3  0  0  0  0  0  0  0  0  0
    8.4289    0.7049    0.0000 N   0  0  0  0  0  0  0  0  0  0  0  0
    5.8895    1.8016    0.0000 N   0  0  0  0  0  0  0  0  0  0  0  0
    6.0212   -1.6651    0.0000 C   0  0  1  0  0  0  0  0  0  0  0  0
    5.1552   -1.1651    0.0000 C   0  0  2  0  0  0  0  0  0  0  0  0
    6.8873   -1.1651    0.0000 C   0  0  1  0  0  0  0  0  0  0  0  0
    5.8120   -2.6369    0.0000 C   0  0  0  0  0  0  0  0  0  0  0  0
    5.1552   -0.1651    0.0000 C   0  0  2  0  0  0  0  0  0  0  0  0
    6.5281   -2.5751    0.0000 C   0  0  0  0  0  0  0  0  0  0  0  0
    4.8233   -2.7400    0.0000 C   0  0  2  0  0  0  0  0  0  0  0  0
    7.9288   -1.1491    0.0000 C   0  0  0  0  0  0  0  0  0  0  0  0
    6.8873   -0.1651    0.0000 C   0  0  0  0  0  0  0  0  0  0  0  0
    6.0212    0.3349    0.0000 C   0  0  0  0  0  0  0  0  0  0  0  0
    8.3345   -1.9251    0.0000 C   0  0  0  0  0  0  0  0  0  0  0  0
    3.4082   -1.4121    0.0000 C   0  0  0  0  0  0  0  0  0  0  0  0
    5.5970    0.7326    0.0000 C   0  0  0  0  0  0  0  0  0  0  0  0
    4.4615   -3.7724    0.0000 C   0  0  0  0  0  0  0  0  0  0  0  0
    8.5901   -2.2647    0.0000 C   0  0  0  0  0  0  0  0  0  0  0  0
    7.3873    0.7009    0.0000 C   0  0  0  0  0  0  0  0  0  0  0  0
    2.4008   -1.8388    0.0000 C   0  0  0  0  0  0  0  0  0  0  0  0
    6.4004    1.3291    0.0000 C   0  0  0  0  0  0  0  0  0  0  0  0
    3.4711   -4.2371    0.0000 C   0  0  0  0  0  0  0  0  0  0  0  0
    2.0000   -2.8567    0.0000 C   0  0  0  0  0  0  0  0  0  0  0  0
    9.1877   -1.4621    0.0000 C   0  0  0  0  0  0  0  0  0  0  0  0
    2.4458   -3.8557    0.0000 C   0  0  0  0  0  0  0  0  0  0  0  0
    6.8700    1.6050    0.0000 C   0  0  0  0  0  0  0  0  0  0  0  0
    7.3876    1.4922    0.0000 C   0  0  0  0  0  0  0  0  0  0  0  0
    9.3521   -0.4752    0.0000 C   0  0  0  0  0  0  0  0  0  0  0  0
    7.3599    2.4767    0.0000 C   0  0  0  0  0  0  0  0  0  0  0  0
    9.0471    0.4778    0.0000 C   0  0  0  0  0  0  0  0  0  0  0  0
    8.3401    1.1858    0.0000 C   0  0  0  0  0  0  0  0  0  0  0  0
    8.9392    1.6130    0.0000 C   0  0  0  0  0  0  0  0  0  0  0  0
    8.4012    2.5048    0.0000 C   0  0  0  0  0  0  0  0  0  0  0  0
    6.6822    3.2121    0.0000 C   0  0  0  0  0  0  0  0  0  0  0  0
    5.7734    2.7948    0.0000 C   0  0  0  0  0  0  0  0  0  0  0  0
    6.7951    4.2476    0.0000 C   0  0  0  0  0  0  0  0  0  0  0  0
    4.9145    3.3841    0.0000 C   0  0  0  0  0  0  0  0  0  0  0  0
    5.9500    4.8566    0.0000 C   0  0  0  0  0  0  0  0  0  0  0  0
    5.0034    4.4219    0.0000 C   0  0  0  0  0  0  0  0  0  0  0  0
    4.4191   -0.7401    0.0000 H   0  0  0  0  0  0  0  0  0  0  0  0
    7.5384   -0.6188    0.0000 H   0  0  0  0  0  0  0  0  0  0  0  0
    5.8112   -3.2569    0.0000 H   0  0  0  0  0  0  0  0  0  0  0  0
    6.4285   -2.7030    0.0000 H   0  0  0  0  0  0  0  0  0  0  0  0
    5.9361   -2.7594    0.0000 H   0  0  0  0  0  0  0  0  0  0  0  0
    6.5870   -3.1923    0.0000 H   0  0  0  0  0  0  0  0  0  0  0  0
    5.3503   -3.4069    0.0000 H   0  0  0  0  0  0  0  0  0  0  0  0
    8.5161   -0.9503    0.0000 H   0  0  0  0  0  0  0  0  0  0  0  0
    7.8234   -0.5381    0.0000 H   0  0  0  0  0  0  0  0  0  0  0  0
    6.0212    0.9549    0.0000 H   0  0  0  0  0  0  0  0  0  0  0  0
    8.7564   -2.3795    0.0000 H   0  0  0  0  0  0  0  0  0  0  0  0
    8.8409   -1.5674    0.0000 H   0  0  0  0  0  0  0  0  0  0  0  0
    3.7848   -0.9196    0.0000 H   0  0  0  0  0  0  0  0  0  0  0  0
    3.0283   -0.9220    0.0000 H   0  0  0  0  0  0  0  0  0  0  0  0
    5.4296    1.3296    0.0000 H   0  0  0  0  0  0  0  0  0  0  0  0
    6.0733    0.3357    0.0000 H   0  0  0  0  0  0  0  0  0  0  0  0
    4.9216   -4.1880    0.0000 H   0  0  0  0  0  0  0  0  0  0  0  0
    8.6462   -2.8821    0.0000 H   0  0  0  0  0  0  0  0  0  0  0  0
    8.1939   -1.7878    0.0000 H   0  0  0  0  0  0  0  0  0  0  0  0
    4.2892    0.9549    0.0000 H   0  0  0  0  0  0  0  0  0  0  0  0
    2.3130   -1.2251    0.0000 H   0  0  0  0  0  0  0  0  0  0  0  0
    1.7851   -1.7667    0.0000 H   0  0  0  0  0  0  0  0  0  0  0  0
    6.5245    1.9365    0.0000 H   0  0  0  0  0  0  0  0  0  0  0  0
    6.6425    0.7583    0.0000 H   0  0  0  0  0  0  0  0  0  0  0  0
    3.4967   -4.8566    0.0000 H   0  0  0  0  0  0  0  0  0  0  0  0
    1.5004   -2.4895    0.0000 H   0  0  0  0  0  0  0  0  0  0  0  0
    1.5173   -3.2458    0.0000 H   0  0  0  0  0  0  0  0  0  0  0  0
    9.5199   -1.9856    0.0000 H   0  0  0  0  0  0  0  0  0  0  0  0
    8.6172   -1.2192    0.0000 H   0  0  0  0  0  0  0  0  0  0  0  0
    1.8338   -3.9552    0.0000 H   0  0  0  0  0  0  0  0  0  0  0  0
    2.3854   -4.4727    0.0000 H   0  0  0  0  0  0  0  0  0  0  0  0
    7.7363    2.0048    0.0000 H   0  0  0  0  0  0  0  0  0  0  0  0
    9.8869   -0.7888    0.0000 H   0  0  0  0  0  0  0  0  0  0  0  0
    8.7337   -0.5200    0.0000 H   0  0  0  0  0  0  0  0  0  0  0  0
    9.6661    0.4434    0.0000 H   0  0  0  0  0  0  0  0  0  0  0  0
    8.5176    0.1552    0.0000 H   0  0  0  0  0  0  0  0  0  0  0  0
    5.4335    1.3814    0.0000 H   0  0  0  0  0  0  0  0  0  0  0  0
    8.6634    1.7148    0.0000 H   0  0  0  0  0  0  0  0  0  0  0  0
    9.5592    1.6225    0.0000 H   0  0  0  0  0  0  0  0  0  0  0  0
    8.6986    3.0488    0.0000 H   0  0  0  0  0  0  0  0  0  0  0  0
    7.3615    4.4998    0.0000 H   0  0  0  0  0  0  0  0  0  0  0  0
    4.3541    3.1189    0.0000 H   0  0  0  0  0  0  0  0  0  0  0  0
    6.0101    5.4737    0.0000 H   0  0  0  0  0  0  0  0  0  0  0  0
    4.4963    4.7786    0.0000 H   0  0  0  0  0  0  0  0  0  0  0  0
 10  1  1  1  0  0  0
  1 61  1  0  0  0  0
  2  7  1  0  0  0  0
  2 12  1  0  0  0  0
  2 17  1  0  0  0  0
  3 11  1  0  0  0  0
  3 16  1  0  0  0  0
  3 20  1  0  0  0  0
  4 21  2  0  0  0  0
  4 34  1  0  0  0  0
  5 28  1  0  0  0  0
  5 37  1  0  0  0  0
  5 78  1  0  0  0  0
  6  7  1  0  0  0  0
  6  8  1  0  0  0  0
  6  9  1  1  0  0  0
  6 11  1  0  0  0  0
  7 10  1  0  0  0  0
  7 42  1  6  0  0  0
  8 13  1  0  0  0  0
  8 14  1  0  0  0  0
  8 43  1  1  0  0  0
  9 12  1  0  0  0  0
  9 44  1  0  0  0  0
  9 45  1  0  0  0  0
 10 15  1  0  0  0  0
 10 18  1  0  0  0  0
 11 46  1  0  0  0  0
 11 47  1  0  0  0  0
 12 19  1  0  0  0  0
 12 48  1  1  0  0  0
 13 16  1  0  0  0  0
 13 49  1  0  0  0  0
 13 50  1  0  0  0  0
 14 15  2  0  0  0  0
 14 21  1  0  0  0  0
 15 51  1  0  0  0  0
 16 52  1  0  0  0  0
 16 53  1  0  0  0  0
 17 22  1  0  0  0  0
 17 54  1  0  0  0  0
 17 55  1  0  0  0  0
 18 23  1  0  0  0  0
 18 56  1  0  0  0  0
 18 57  1  0  0  0  0
 19 24  2  0  0  0  0
 19 58  1  0  0  0  0
 20 26  1  0  0  0  0
 20 59  1  0  0  0  0
 20 60  1  0  0  0  0
 21 28  1  0  0  0  0
 22 25  1  0  0  0  0
 22 62  1  0  0  0  0
 22 63  1  0  0  0  0
 23 29  1  0  0  0  0
 23 64  1  0  0  0  0
 23 65  1  0  0  0  0
 24 27  1  0  0  0  0
 24 66  1  0  0  0  0
 25 27  1  0  0  0  0
 25 67  1  0  0  0  0
 25 68  1  0  0  0  0
 26 30  1  0  0  0  0
 26 69  1  0  0  0  0
 26 70  1  0  0  0  0
 27 71  1  0  0  0  0
 27 72  1  0  0  0  0
 28 31  2  0  0  0  0
 29 33  2  0  0  0  0
 29 73  1  0  0  0  0
 30 32  1  0  0  0  0
 30 74  1  0  0  0  0
 30 75  1  0  0  0  0
 31 35  1  0  0  0  0
 31 36  1  0  0  0  0
 32 33  1  0  0  0  0
 32 76  1  0  0  0  0
 32 77  1  0  0  0  0
 33 79  1  0  0  0  0
 34 35  2  0  0  0  0
 34 80  1  0  0  0  0
 35 81  1  0  0  0  0
 36 37  1  0  0  0  0
 36 38  2  0  0  0  0
 37 39  2  0  0  0  0
 38 40  1  0  0  0  0
 38 82  1  0  0  0  0
 39 41  1  0  0  0  0
 39 83  1  0  0  0  0
 40 41  2  0  0  0  0
 40 84  1  0  0  0  0
 41 85  1  0  0  0  0
M  END
> <PUBCHEM_COMPOUND_CID>
14727313

> <PUBCHEM_COMPOUND_CANONICALIZED>
1

> <PUBCHEM_CACTVS_COMPLEXITY>
1050

> <PUBCHEM_CACTVS_HBOND_ACCEPTOR>
4

> <PUBCHEM_CACTVS_HBOND_DONOR>
2

> <PUBCHEM_CACTVS_ROTATABLE_BOND>
1

> <PUBCHEM_CACTVS_SUBSKEYS>
AAADcfB/oAAAAAAAAAAAAAAAAAAAAWLAAAA8WIEAAAAQAFgB/gAAHgAQCAAAD2zBngQ8wPPJkgCgAzRnRACCgCQxEiAI2SA4dJgKZOLA0ZGUcAhkkADY2Aew0OMPgAAAAAACAAAAAAAAAAQAAAAAAAAAAA==

> <PUBCHEM_IUPAC_INCHI>
InChI=1S/C36H44N4O/c41-36-18-10-4-1-2-5-11-20-39-22-17-30(35(25-39)23-26-13-7-3-6-12-21-40(26)34(35)36)29(24-36)32-33-28(16-19-37-32)27-14-8-9-15-31(27)38-33/h1,4,7-9,13-16,19,24,26,30,34,38,41H,2-3,5-6,10-12,17-18,20-23,25H2/b4-1+,13-7-/t26-,30-,34+,35-,36-/m0/s1

> <PUBCHEM_IUPAC_INCHIKEY>
FUCSLKWLLSEMDQ-SHIWRGCWSA-N

> <PUBCHEM_XLOGP3_AA>
5.7

> <PUBCHEM_EXACT_MASS>
548.351512

> <PUBCHEM_MOLECULAR_FORMULA>
C36H44N4O

> <PUBCHEM_MOLECULAR_WEIGHT>
548.76076

> <PUBCHEM_OPENEYE_CAN_SMILES>
C1CCN2CCC3C(=CC(CCC=CC1)(C4C3(C2)CC5N4CCCCC=C5)O)C6=NC=CC7=C6NC8=CC=CC=C78

> <PUBCHEM_OPENEYE_ISO_SMILES>
C1CCN2CC[C@H]3C(=C[C@@](CC/C=C/C1)([C@H]4[C@]3(C2)C[C@H]/5N4CCCC/C=C5)O)C6=NC=CC7=C6NC8=CC=CC=C78

> <PUBCHEM_CACTVS_TPSA>
55.4

> <PUBCHEM_MONOISOTOPIC_WEIGHT>
548.351512

> <PUBCHEM_TOTAL_CHARGE>
0

> <PUBCHEM_HEAVY_ATOM_COUNT>
41

> <PUBCHEM_ATOM_DEF_STEREO_COUNT>
5

> <PUBCHEM_ATOM_UDEF_STEREO_COUNT>
0

> <PUBCHEM_BOND_DEF_STEREO_COUNT>
2

> <PUBCHEM_BOND_UDEF_STEREO_COUNT>
0

> <PUBCHEM_ISOTOPIC_ATOM_COUNT>
0

> <PUBCHEM_COMPONENT_COUNT>
1

> <PUBCHEM_CACTVS_TAUTO_COUNT>
2

> <PUBCHEM_COORDINATE_TYPE>
1
5
255

> <PUBCHEM_BONDANNOTATIONS>
10  1  5
12  48  5
21  28  8
28  31  8
31  35  8
31  36  8
34  35  8
36  37  8
36  38  8
37  39  8
38  40  8
39  41  8
4  21  8
4  34  8
40  41  8
5  28  8
5  37  8
6  9  5
7  42  6
8  43  5

$$$$

