3512
  -OEChem-06251223283D

 41 43  0     1  0  0  0  0  0999 V2000
   -2.2587    3.0310   -0.4925 Cl  0  0  0  0  0  0  0  0  0  0  0  0
    0.2641    1.3521   -0.1135 O   0  0  0  0  0  0  0  0  0  0  0  0
    1.6782    0.4246   -2.2560 O   0  0  0  0  0  0  0  0  0  0  0  0
    0.9700   -2.0865    0.3825 O   0  0  0  0  0  0  0  0  0  0  0  0
    5.3822   -0.2701    0.5873 O   0  0  0  0  0  0  0  0  0  0  0  0
   -1.8989   -2.8033    0.3750 O   0  0  0  0  0  0  0  0  0  0  0  0
   -4.5559    1.0944   -0.3373 O   0  0  0  0  0  0  0  0  0  0  0  0
    1.2922    0.3525    0.1528 C   0  0  1  0  0  0  0  0  0  0  0  0
    1.9845    0.6874    1.4961 C   0  0  1  0  0  0  0  0  0  0  0  0
    3.2541   -0.1519    1.6848 C   0  0  0  0  0  0  0  0  0  0  0  0
    0.5259   -0.9630    0.2427 C   0  0  0  0  0  0  0  0  0  0  0  0
    2.2529    0.2753   -1.0061 C   0  0  0  0  0  0  0  0  0  0  0  0
    2.3083    2.1842    1.6391 C   0  0  0  0  0  0  0  0  0  0  0  0
   -0.8741   -0.6537    0.1252 C   0  0  0  0  0  0  0  0  0  0  0  0
   -0.9437    0.7076   -0.0760 C   0  0  0  0  0  0  0  0  0  0  0  0
    4.1684   -0.1011    0.4796 C   0  0  0  0  0  0  0  0  0  0  0  0
    3.5723    0.0876   -0.8652 C   0  0  0  0  0  0  0  0  0  0  0  0
   -1.9877   -1.4663    0.1783 C   0  0  0  0  0  0  0  0  0  0  0  0
   -2.1652    1.3312   -0.2373 C   0  0  0  0  0  0  0  0  0  0  0  0
   -3.2292   -0.8491    0.0200 C   0  0  0  0  0  0  0  0  0  0  0  0
   -3.3178    0.5401   -0.1864 C   0  0  0  0  0  0  0  0  0  0  0  0
    1.9118   -0.7196   -3.0512 C   0  0  0  0  0  0  0  0  0  0  0  0
   -3.1216   -3.5438    0.4116 C   0  0  0  0  0  0  0  0  0  0  0  0
   -5.2121    1.5402    0.8466 C   0  0  0  0  0  0  0  0  0  0  0  0
    1.2994    0.4453    2.3205 H   0  0  0  0  0  0  0  0  0  0  0  0
    3.0011   -1.2029    1.8628 H   0  0  0  0  0  0  0  0  0  0  0  0
    3.8128    0.2033    2.5586 H   0  0  0  0  0  0  0  0  0  0  0  0
    2.8205    2.3792    2.5876 H   0  0  0  0  0  0  0  0  0  0  0  0
    2.9514    2.5447    0.8301 H   0  0  0  0  0  0  0  0  0  0  0  0
    1.3940    2.7866    1.6381 H   0  0  0  0  0  0  0  0  0  0  0  0
    4.2511    0.0639   -1.7100 H   0  0  0  0  0  0  0  0  0  0  0  0
   -4.1674   -1.3952    0.0448 H   0  0  0  0  0  0  0  0  0  0  0  0
    2.9394   -0.7443   -3.4284 H   0  0  0  0  0  0  0  0  0  0  0  0
    1.2492   -0.6634   -3.9207 H   0  0  0  0  0  0  0  0  0  0  0  0
    1.6771   -1.6493   -2.5198 H   0  0  0  0  0  0  0  0  0  0  0  0
   -2.8590   -4.5936    0.5770 H   0  0  0  0  0  0  0  0  0  0  0  0
   -3.6504   -3.4902   -0.5460 H   0  0  0  0  0  0  0  0  0  0  0  0
   -3.7526   -3.2327    1.2510 H   0  0  0  0  0  0  0  0  0  0  0  0
   -5.4437    0.6895    1.4952 H   0  0  0  0  0  0  0  0  0  0  0  0
   -6.1496    2.0230    0.5573 H   0  0  0  0  0  0  0  0  0  0  0  0
   -4.5987    2.2662    1.3890 H   0  0  0  0  0  0  0  0  0  0  0  0
  1 19  1  0  0  0  0
  2  8  1  0  0  0  0
  2 15  1  0  0  0  0
  3 12  1  0  0  0  0
  3 22  1  0  0  0  0
  4 11  2  0  0  0  0
  5 16  2  0  0  0  0
  6 18  1  0  0  0  0
  6 23  1  0  0  0  0
  7 21  1  0  0  0  0
  7 24  1  0  0  0  0
  8  9  1  0  0  0  0
  8 11  1  0  0  0  0
  8 12  1  0  0  0  0
  9 10  1  0  0  0  0
  9 13  1  0  0  0  0
  9 25  1  0  0  0  0
 10 16  1  0  0  0  0
 10 26  1  0  0  0  0
 10 27  1  0  0  0  0
 11 14  1  0  0  0  0
 12 17  2  0  0  0  0
 13 28  1  0  0  0  0
 13 29  1  0  0  0  0
 13 30  1  0  0  0  0
 14 15  2  0  0  0  0
 14 18  1  0  0  0  0
 15 19  1  0  0  0  0
 16 17  1  0  0  0  0
 17 31  1  0  0  0  0
 18 20  2  0  0  0  0
 19 21  2  0  0  0  0
 20 21  1  0  0  0  0
 20 32  1  0  0  0  0
 22 33  1  0  0  0  0
 22 34  1  0  0  0  0
 22 35  1  0  0  0  0
 23 36  1  0  0  0  0
 23 37  1  0  0  0  0
 23 38  1  0  0  0  0
 24 39  1  0  0  0  0
 24 40  1  0  0  0  0
 24 41  1  0  0  0  0
M  END
> <PUBCHEM_COMPOUND_CID>
3512

> <PUBCHEM_CONFORMER_RMSD>
0.6

> <PUBCHEM_CONFORMER_DIVERSEORDER>
5
8
7
2
6
10
9
1
3
4

> <PUBCHEM_MMFF94_PARTIAL_CHARGES>
24
1 -0.18
10 0.06
11 0.42
12 -0.06
14 0.09
15 0.08
16 0.49
17 -0.14
18 0.08
19 0.18
2 -0.36
20 -0.15
21 0.08
22 0.28
23 0.28
24 0.28
3 -0.36
31 0.15
32 0.15
4 -0.57
5 -0.57
6 -0.36
7 -0.36
8 0.48

> <PUBCHEM_EFFECTIVE_ROTOR_COUNT>
3.6

> <PUBCHEM_PHARMACOPHORE_FEATURES>
9
1 2 acceptor
1 3 acceptor
1 4 acceptor
1 5 acceptor
1 6 acceptor
1 7 acceptor
5 2 8 11 14 15 rings
6 14 15 18 19 20 21 rings
6 8 9 10 12 16 17 rings

> <PUBCHEM_HEAVY_ATOM_COUNT>
24

> <PUBCHEM_ATOM_DEF_STEREO_COUNT>
0

> <PUBCHEM_ATOM_UDEF_STEREO_COUNT>
2

> <PUBCHEM_BOND_DEF_STEREO_COUNT>
0

> <PUBCHEM_BOND_UDEF_STEREO_COUNT>
0

> <PUBCHEM_ISOTOPIC_ATOM_COUNT>
0

> <PUBCHEM_COMPONENT_COUNT>
1

> <PUBCHEM_CACTVS_TAUTO_COUNT>
2

> <PUBCHEM_CONFORMER_ID>
00000DB800000005

> <PUBCHEM_MMFF94_ENERGY>
82.6496

> <PUBCHEM_FEATURE_SELFOVERLAP>
45.781

> <PUBCHEM_SHAPE_FINGERPRINT>
10062212 137 17988925535317774811
10319926 262 18265076686044298504
10906281 52 17749657550323191824
11582403 64 16887858227522133776
11640471 11 17345450665881930572
11796584 16 18409160035517701262
12236239 1 17489587878998465960
12293681 25 17895738686405859166
12293681 4 17894906351903396601
12403814 3 17275107241243227941
12633257 1 18335713757460072585
13009979 54 17846211116597516366
13140716 1 18338798897278368449
13538477 17 18060138713025684469
13583140 156 18041570156799043238
14115302 16 18343013410993518668
14178342 30 18270131114647358995
14955137 171 17346587625820046636
15042514 8 18343016667138190659
15375358 24 17748825228362388773
16752209 62 18200595770319348931
16945 1 18413112762164335281
17349148 13 17988932171395311183
17804303 29 18410580565136437424
17980427 23 18201722795681183748
20600515 1 18410291397852791549
20645477 70 16515962683139372972
21033648 29 18197802057149350177
21781051 124 17986645209017157563
22112679 90 17846776269710690885
22149856 69 17766829900048929365
22182313 1 17968922137696453055
23184049 29 18125164827277731171
2334 1 17980200782029212497
23402539 116 18336275599623057197
23526113 38 17823120367491885758
23557571 272 18260543386306819831
23559900 14 18335695057989733886
2748010 2 18192995907340317449
312423 11 17416959530856562483
350125 39 18052817245775191849
474 4 16342845522529296148
495365 180 16805616853734442040
5104073 3 18337681810496471536
77492 1 17489873708966324818
9709674 26 18187365411199884959

> <PUBCHEM_SHAPE_MULTIPOLES>
460.56
8.45
2.78
1.69
0.97
1.14
-1.15
-1.35
1.61
3.6
0.55
-2
-0.03
0.91

> <PUBCHEM_SHAPE_SELFOVERLAP>
996.107

> <PUBCHEM_SHAPE_VOLUME>
256.2

> <PUBCHEM_COORDINATE_TYPE>
2
5
10

$$$$

