11873
  -OEChem-07051213012D

 20 20  0     0  0  0  0  0  0999 V2000
    2.8660    0.4400    0.0000 O   0  0  0  0  0  0  0  0  0  0  0  0
    5.4641    1.9400    0.0000 O   0  0  0  0  0  0  0  0  0  0  0  0
    3.7320    1.9400    0.0000 O   0  0  0  0  0  0  0  0  0  0  0  0
    2.8660   -2.5600    0.0000 O   0  5  0  0  0  0  0  0  0  0  0  0
    2.0000   -1.0600    0.0000 O   0  0  0  0  0  0  0  0  0  0  0  0
    6.3301   -2.5600    0.0000 O   0  5  0  0  0  0  0  0  0  0  0  0
    7.1962   -1.0600    0.0000 O   0  0  0  0  0  0  0  0  0  0  0  0
    2.8660   -1.5600    0.0000 N   0  3  0  0  0  0  0  0  0  0  0  0
    6.3301   -1.5600    0.0000 N   0  3  0  0  0  0  0  0  0  0  0  0
    4.5981    0.4400    0.0000 C   0  0  0  0  0  0  0  0  0  0  0  0
    3.7320   -1.0600    0.0000 C   0  0  0  0  0  0  0  0  0  0  0  0
    3.7320   -0.0600    0.0000 C   0  0  0  0  0  0  0  0  0  0  0  0
    5.4641   -1.0600    0.0000 C   0  0  0  0  0  0  0  0  0  0  0  0
    5.4641   -0.0600    0.0000 C   0  0  0  0  0  0  0  0  0  0  0  0
    4.5981   -1.5600    0.0000 C   0  0  0  0  0  0  0  0  0  0  0  0
    4.5981    1.4400    0.0000 C   0  0  0  0  0  0  0  0  0  0  0  0
    6.0010    0.2500    0.0000 H   0  0  0  0  0  0  0  0  0  0  0  0
    4.5981   -2.1800    0.0000 H   0  0  0  0  0  0  0  0  0  0  0  0
    2.3291    0.1300    0.0000 H   0  0  0  0  0  0  0  0  0  0  0  0
    5.4641    2.5600    0.0000 H   0  0  0  0  0  0  0  0  0  0  0  0
  1 12  1  0  0  0  0
  1 19  1  0  0  0  0
  2 16  1  0  0  0  0
  2 20  1  0  0  0  0
  3 16  2  0  0  0  0
  4  8  1  0  0  0  0
  5  8  2  0  0  0  0
  6  9  1  0  0  0  0
  7  9  2  0  0  0  0
  8 11  1  0  0  0  0
  9 13  1  0  0  0  0
 10 12  1  0  0  0  0
 10 14  2  0  0  0  0
 10 16  1  0  0  0  0
 11 12  2  0  0  0  0
 11 15  1  0  0  0  0
 13 14  1  0  0  0  0
 13 15  2  0  0  0  0
 14 17  1  0  0  0  0
 15 18  1  0  0  0  0
M  CHG  4   4  -1   6  -1   8   1   9   1
M  END
> <PUBCHEM_COMPOUND_CID>
11873

> <PUBCHEM_COMPOUND_CANONICALIZED>
1

> <PUBCHEM_CACTVS_COMPLEXITY>
320

> <PUBCHEM_CACTVS_HBOND_ACCEPTOR>
7

> <PUBCHEM_CACTVS_HBOND_DONOR>
2

> <PUBCHEM_CACTVS_ROTATABLE_BOND>
1

> <PUBCHEM_CACTVS_SUBSKEYS>
AAADcYBjOAAAAAAAAAAAAAAAAAAAAAAAAAAwAAAAAAAAAAABAAAAHgAECAAADAyBmAAwzoAQQgCJAiTSSwCCAAAkIgAgiAEFbMoKJzaS1dOAcUBl4FEI2Ye8yCCOAEAAQAQIEAAAgACACBAgAAAAAAAAAA==

> <PUBCHEM_IUPAC_OPENEYE_NAME>
2-hydroxy-3,5-dinitro-benzoic acid

> <PUBCHEM_IUPAC_CAS_NAME>
2-hydroxy-3,5-dinitrobenzoic acid

> <PUBCHEM_IUPAC_NAME>
2-hydroxy-3,5-dinitrobenzoic acid

> <PUBCHEM_IUPAC_SYSTEMATIC_NAME>
3,5-dinitro-2-oxidanyl-benzoic acid

> <PUBCHEM_IUPAC_TRADITIONAL_NAME>
2-hydroxy-3,5-dinitro-benzoic acid

> <PUBCHEM_IUPAC_INCHI>
InChI=1S/C7H4N2O7/c10-6-4(7(11)12)1-3(8(13)14)2-5(6)9(15)16/h1-2,10H,(H,11,12)

> <PUBCHEM_IUPAC_INCHIKEY>
LWFUFLREGJMOIZ-UHFFFAOYSA-N

> <PUBCHEM_XLOGP3_AA>
1.3

> <PUBCHEM_EXACT_MASS>
228.00185

> <PUBCHEM_MOLECULAR_FORMULA>
C7H4N2O7

> <PUBCHEM_MOLECULAR_WEIGHT>
228.11586

> <PUBCHEM_OPENEYE_CAN_SMILES>
C1=C(C=C(C(=C1[N+](=O)[O-])O)C(=O)O)[N+](=O)[O-]

> <PUBCHEM_OPENEYE_ISO_SMILES>
C1=C(C=C(C(=C1[N+](=O)[O-])O)C(=O)O)[N+](=O)[O-]

> <PUBCHEM_CACTVS_TPSA>
149

> <PUBCHEM_MONOISOTOPIC_WEIGHT>
228.00185

> <PUBCHEM_TOTAL_CHARGE>
0

> <PUBCHEM_HEAVY_ATOM_COUNT>
16

> <PUBCHEM_ATOM_DEF_STEREO_COUNT>
0

> <PUBCHEM_ATOM_UDEF_STEREO_COUNT>
0

> <PUBCHEM_BOND_DEF_STEREO_COUNT>
0

> <PUBCHEM_BOND_UDEF_STEREO_COUNT>
0

> <PUBCHEM_ISOTOPIC_ATOM_COUNT>
0

> <PUBCHEM_COMPONENT_COUNT>
1

> <PUBCHEM_CACTVS_TAUTO_COUNT>
5

> <PUBCHEM_COORDINATE_TYPE>
1
5
255

> <PUBCHEM_BONDANNOTATIONS>
10  12  8
10  14  8
11  12  8
11  15  8
13  14  8
13  15  8

$$$$

